0:0
     RDKit          3D

 40 41  0  0  0  0  0  0  0  0999 V2000
   -0.4740   21.9050  -30.4740 C   0  0  0  0  0  0  0  0  0  0  0  0
   -0.5170   23.0530  -29.6360 O   0  0  0  0  0  0  0  0  0  0  0  0
   -1.7160   23.6500  -29.2320 C   0  0  0  0  0  0  0  0  0  0  0  0
   -1.8430   24.9060  -29.2630 O   0  0  0  0  0  0  0  0  0  0  0  0
   -2.8310   22.7820  -28.6890 C   0  0  0  0  0  0  0  0  0  0  0  0
   -2.2300   21.7950  -27.6810 C   0  0  0  0  0  0  0  0  0  0  0  0
   -3.9120   23.6270  -27.9850 C   0  0  0  0  0  0  0  0  0  0  0  0
   -3.4240   22.0140  -29.7450 O   0  0  0  0  0  0  0  0  0  0  0  0
   -3.8420   22.5230  -30.9850 C   0  0  0  0  0  0  0  0  0  0  0  0
   -3.0180   22.6790  -31.9270 O   0  0  0  0  0  0  0  0  0  0  0  0
   -5.2300   22.8220  -31.1950 N   0  0  0  0  0  0  0  0  0  0  0  0
   -5.8780   23.9930  -30.9420 C   0  0  0  0  0  0  0  0  0  0  0  0
   -5.2430   25.2710  -30.5590 C   0  0  0  0  0  0  0  0  0  0  0  0
   -3.8680   25.5180  -30.8370 N   0  0  0  0  0  0  0  0  0  0  0  0
   -5.9350   26.1740  -30.0170 O   0  0  0  0  0  0  0  0  0  0  0  0
   -7.2460   23.8530  -31.1670 C   0  0  0  0  0  0  0  0  0  0  0  0
   -7.4180   22.5490  -31.5720 C   0  0  0  0  0  0  0  0  0  0  0  0
   -8.5800   21.8630  -31.9150 C   0  0  0  0  0  0  0  0  0  0  0  0
   -8.4660   20.5070  -32.2620 C   0  0  0  0  0  0  0  0  0  0  0  0
   -7.2050   19.8600  -32.2370 C   0  0  0  0  0  0  0  0  0  0  0  0
   -7.0940   18.4180  -32.6320 C   0  0  0  0  0  0  0  0  0  0  0  0
   -6.0450   20.5920  -31.9000 C   0  0  0  0  0  0  0  0  0  0  0  0
   -6.1870   21.9470  -31.5780 C   0  0  0  0  0  0  0  0  0  0  0  0
   -0.4400   20.9982  -29.8522 H   0  0  0  0  0  0  0  0  0  0  0  0
   -1.3719   21.8807  -31.1090 H   0  0  0  0  0  0  0  0  0  0  0  0
    0.4232   21.9480  -31.1090 H   0  0  0  0  0  0  0  0  0  0  0  0
   -2.4409   22.1413  -26.6584 H   0  0  0  0  0  0  0  0  0  0  0  0
   -2.6761   20.8007  -27.8307 H   0  0  0  0  0  0  0  0  0  0  0  0
   -1.1419   21.7350  -27.8307 H   0  0  0  0  0  0  0  0  0  0  0  0
   -3.7960   23.5363  -26.8949 H   0  0  0  0  0  0  0  0  0  0  0  0
   -3.8024   24.6813  -28.2790 H   0  0  0  0  0  0  0  0  0  0  0  0
   -4.9087   23.2661  -28.2790 H   0  0  0  0  0  0  0  0  0  0  0  0
   -3.1910   24.7310  -30.9500 H   0  0  0  0  0  0  0  0  0  0  0  0
   -8.0235   24.6217  -31.0465 H   0  0  0  0  0  0  0  0  0  0  0  0
   -9.5574   22.3677  -31.9142 H   0  0  0  0  0  0  0  0  0  0  0  0
   -9.3630   19.9421  -32.5557 H   0  0  0  0  0  0  0  0  0  0  0  0
   -7.0459   17.7929  -31.7282 H   0  0  0  0  0  0  0  0  0  0  0  0
   -7.9728   18.1326  -33.2288 H   0  0  0  0  0  0  0  0  0  0  0  0
   -6.1818   18.2705  -33.2288 H   0  0  0  0  0  0  0  0  0  0  0  0
   -5.0562   20.1101  -31.8908 H   0  0  0  0  0  0  0  0  0  0  0  0
  1  2  1  0
  2  3  1  0
  3  4  2  0
  3  5  1  0
  5  6  1  0
  5  7  1  0
  5  8  1  0
  8  9  1  0
  9 10  2  0
  9 11  1  0
 11 12  1  0
 12 13  1  0
 13 14  1  0
 13 15  2  0
 12 16  2  0
 16 17  1  0
 17 18  2  0
 18 19  1  0
 19 20  2  0
 20 21  1  0
 20 22  1  0
 22 23  2  0
 23 11  1  0
 23 17  1  0
  1 24  1  0
  1 25  1  0
  1 26  1  0
  6 27  1  0
  6 28  1  0
  6 29  1  0
  7 30  1  0
  7 31  1  0
  7 32  1  0
 14 33  1  0
 16 34  1  0
 18 35  1  0
 19 36  1  0
 21 37  1  0
 21 38  1  0
 21 39  1  0
 22 40  1  0
M  CHG  1  14  -1
M  END
>  <UniqueID>  (1) 
1

>  <SMILES>  (1) 
COC(=O)C(C)(C)OC(=O)n1c(C([NH-])=O)cc2ccc(C)cc21

>  <Energy>  (1) 
72.33562616407018

>  <Genealogy>  (1) 
COC(=O)C(C)(C)OC(=O)n1c(C([NH-])=O)cc2ccc(C)cc21 (protonated)
COC(=O)C(C)(C)OC(=O)n1c(C([NH-])=O)cc2ccc(C)cc21 (3D coordinates assigned)
COC(=O)C(C)(C)OC(=O)n1c(C([NH-])=O)cc2ccc(C)cc21 (optimized conformer: 72.33562616407018 kcal/mol)

>  <smiles>  (1) 
COC(=O)C(C)(C)OC(=O)n1c(C(N)=O)cc2ccc(C)cc21

>  <score_type>  (1) 
oracle

>  <origin>  (1) 
adg

>  <m_score__min__energy>  (1) 
-10.9

>  <m_primary>  (1) 
energy

$$$$
1:0
     RDKit          3D

 35 37  0  0  0  0  0  0  0  0999 V2000
   -6.7770   15.1530  -34.1750 C   0  0  0  0  0  0  0  0  0  0  0  0
   -6.3210   16.5300  -34.0450 N   0  0  0  0  0  0  0  0  0  0  0  0
   -5.2950   17.0870  -34.7110 C   0  0  0  0  0  0  0  0  0  0  0  0
   -5.2280   18.4200  -34.3700 C   0  0  0  0  0  0  0  0  0  0  0  0
   -6.2770   18.6090  -33.4800 C   0  0  0  0  0  0  0  0  0  0  0  0
   -6.6640   19.8740  -32.8080 C   0  0  0  0  0  0  0  0  0  0  0  0
   -8.0300   20.2080  -32.6040 C   0  0  0  0  0  0  0  0  0  0  0  0
   -8.3890   21.4040  -31.9590 C   0  0  0  0  0  0  0  0  0  0  0  0
   -7.3700   22.2500  -31.5360 C   0  0  0  0  0  0  0  0  0  0  0  0
   -7.4360   23.4530  -30.8700 C   0  0  0  0  0  0  0  0  0  0  0  0
   -6.1120   23.8520  -30.6950 C   0  0  0  0  0  0  0  0  0  0  0  0
   -5.7250   25.1460  -30.0940 C   0  0  0  0  0  0  0  0  0  0  0  0
   -4.8970   26.0480  -30.8240 N   0  0  0  0  0  0  0  0  0  0  0  0
   -6.0900   25.4490  -28.9270 O   0  0  0  0  0  0  0  0  0  0  0  0
   -5.2620   22.9280  -31.2260 N   0  0  0  0  0  0  0  0  0  0  0  0
   -3.8260   22.9340  -31.2060 C   0  0  0  0  0  0  0  0  0  0  0  0
   -3.1870   22.0090  -31.7800 O   0  0  0  0  0  0  0  0  0  0  0  0
   -3.1470   23.9840  -30.5720 O   0  0  0  0  0  0  0  0  0  0  0  0
   -2.2780   23.8400  -29.4480 C   0  0  0  0  0  0  0  0  0  0  0  0
   -3.1350   23.0870  -28.0770 S   0  0  0  0  0  0  0  0  0  0  0  0
   -0.9290   22.7820  -29.9140 S   0  0  0  0  0  0  0  0  0  0  0  0
   -1.6130   25.4190  -28.9530 S   0  0  0  0  0  0  0  0  0  0  0  0
   -6.0480   21.9560  -31.7390 C   0  0  0  0  0  0  0  0  0  0  0  0
   -5.6590   20.7640  -32.3600 C   0  0  0  0  0  0  0  0  0  0  0  0
   -6.9320   17.4420  -33.3060 N   0  0  0  0  0  0  0  0  0  0  0  0
   -6.9209   14.7184  -33.1748 H   0  0  0  0  0  0  0  0  0  0  0  0
   -7.7299   15.1326  -34.7242 H   0  0  0  0  0  0  0  0  0  0  0  0
   -6.0246   14.5679  -34.7242 H   0  0  0  0  0  0  0  0  0  0  0  0
   -4.6231   16.5669  -35.4096 H   0  0  0  0  0  0  0  0  0  0  0  0
   -4.5041   19.1687  -34.7242 H   0  0  0  0  0  0  0  0  0  0  0  0
   -8.8155   19.5226  -32.9549 H   0  0  0  0  0  0  0  0  0  0  0  0
   -9.4452   21.6631  -31.7937 H   0  0  0  0  0  0  0  0  0  0  0  0
   -8.3415   23.9862  -30.5449 H   0  0  0  0  0  0  0  0  0  0  0  0
   -3.8620   25.9190  -30.8570 H   0  0  0  0  0  0  0  0  0  0  0  0
   -4.5944   20.5237  -32.4971 H   0  0  0  0  0  0  0  0  0  0  0  0
  1  2  1  0
  2  3  1  0
  3  4  2  0
  4  5  1  0
  5  6  1  0
  6  7  2  0
  7  8  1  0
  8  9  2  0
  9 10  1  0
 10 11  2  0
 11 12  1  0
 12 13  1  0
 12 14  2  0
 11 15  1  0
 15 16  1  0
 16 17  2  0
 16 18  1  0
 18 19  1  0
 19 20  1  0
 19 21  1  0
 19 22  1  0
 15 23  1  0
 23 24  2  0
  5 25  2  0
 25  2  1  0
 24  6  1  0
 23  9  1  0
  1 26  1  0
  1 27  1  0
  1 28  1  0
  3 29  1  0
  4 30  1  0
  7 31  1  0
  8 32  1  0
 10 33  1  0
 13 34  1  0
 24 35  1  0
M  CHG  4  13  -1  20  -1  21  -1  22  -1
M  END
>  <UniqueID>  (2) 
2

>  <SMILES>  (2) 
Cn1ccc(-c2ccc3cc(C([NH-])=O)n(C(=O)OC([S-])([S-])[S-])c3c2)n1

>  <Energy>  (2) 
105.16045676917078

>  <Genealogy>  (2) 
Cn1ccc(-c2ccc3cc(C([NH-])=O)n(C(=O)OC([S-])([S-])[S-])c3c2)n1 (protonated)
Cn1ccc(-c2ccc3cc(C([NH-])=O)n(C(=O)OC([S-])([S-])[S-])c3c2)n1 (3D coordinates assigned)
Cn1ccc(-c2ccc3cc(C([NH-])=O)n(C(=O)OC([S-])([S-])[S-])c3c2)n1 (optimized conformer: 105.16045676917078 kcal/mol)

>  <smiles>  (2) 
Cn1ccc(-c2ccc3cc(C(N)=O)n(C(=O)OC(S)(S)S)c3c2)n1

>  <score_type>  (2) 
oracle

>  <origin>  (2) 
adg

>  <m_score__min__energy>  (2) 
-12.75

>  <m_primary>  (2) 
energy

$$$$
2:0
     RDKit          3D

 30 31  0  0  0  0  0  0  0  0999 V2000
   -2.6980   24.9200  -29.7190 N   0  0  0  0  0  0  0  0  0  0  0  0
   -2.2150   23.5800  -29.6570 C   0  0  0  0  0  0  0  0  0  0  0  0
   -1.0330   23.3660  -29.2780 O   0  0  0  0  0  0  0  0  0  0  0  0
   -3.1010   22.4650  -30.0410 C   0  0  0  0  0  0  0  0  0  0  0  0
   -3.2740   21.5190  -29.2260 O   0  0  0  0  0  0  0  0  0  0  0  0
   -3.7840   22.4110  -31.3530 C   0  0  0  0  0  0  0  0  0  0  0  0
   -3.1150   22.2820  -32.4150 O   0  0  0  0  0  0  0  0  0  0  0  0
   -5.2160   22.4820  -31.4320 N   0  0  0  0  0  0  0  0  0  0  0  0
   -6.0190   23.4910  -30.9930 C   0  0  0  0  0  0  0  0  0  0  0  0
   -5.5440   24.7830  -30.4470 C   0  0  0  0  0  0  0  0  0  0  0  0
   -5.7390   25.1170  -29.0710 N   0  0  0  0  0  0  0  0  0  0  0  0
   -4.9720   25.6150  -31.2020 O   0  0  0  0  0  0  0  0  0  0  0  0
   -7.3610   23.1610  -31.1860 C   0  0  0  0  0  0  0  0  0  0  0  0
   -7.3510   21.9050  -31.7510 C   0  0  0  0  0  0  0  0  0  0  0  0
   -8.4080   21.0920  -32.1460 C   0  0  0  0  0  0  0  0  0  0  0  0
   -8.1030   19.8270  -32.6800 C   0  0  0  0  0  0  0  0  0  0  0  0
   -6.7570   19.3890  -32.7840 C   0  0  0  0  0  0  0  0  0  0  0  0
   -6.4410   18.0460  -33.3920 C   0  0  0  0  0  0  0  0  0  0  0  0
   -5.3900   17.4720  -32.7030 F   0  0  0  0  0  0  0  0  0  0  0  0
   -6.0870   18.1830  -34.7240 F   0  0  0  0  0  0  0  0  0  0  0  0
   -7.5400   17.2080  -33.3210 F   0  0  0  0  0  0  0  0  0  0  0  0
   -5.7110   20.2560  -32.3920 C   0  0  0  0  0  0  0  0  0  0  0  0
   -6.0450   21.5160  -31.8840 C   0  0  0  0  0  0  0  0  0  0  0  0
   -3.0600   25.3190  -30.6140 H   0  0  0  0  0  0  0  0  0  0  0  0
   -6.1450   24.4350  -28.3950 H   0  0  0  0  0  0  0  0  0  0  0  0
   -5.4300   26.0480  -28.7110 H   0  0  0  0  0  0  0  0  0  0  0  0
   -8.2404   23.7740  -30.9392 H   0  0  0  0  0  0  0  0  0  0  0  0
   -9.4505   21.4279  -32.0439 H   0  0  0  0  0  0  0  0  0  0  0  0
   -8.9167   19.1699  -33.0208 H   0  0  0  0  0  0  0  0  0  0  0  0
   -4.6593   19.9470  -32.4843 H   0  0  0  0  0  0  0  0  0  0  0  0
  1  2  1  0
  2  3  2  0
  2  4  1  0
  4  5  2  0
  4  6  1  0
  6  7  2  0
  6  8  1  0
  8  9  1  0
  9 10  1  0
 10 11  1  0
 10 12  2  0
  9 13  2  0
 13 14  1  0
 14 15  2  0
 15 16  1  0
 16 17  2  0
 17 18  1  0
 18 19  1  0
 18 20  1  0
 18 21  1  0
 17 22  1  0
 22 23  2  0
 23  8  1  0
 23 14  1  0
  1 24  1  0
 11 25  1  0
 11 26  1  0
 13 27  1  0
 15 28  1  0
 16 29  1  0
 22 30  1  0
M  CHG  1   1  -1
M  END
>  <UniqueID>  (3) 
3

>  <SMILES>  (3) 
[NH-]C(=O)C(=O)C(=O)n1c(C(N)=O)cc2ccc(C(F)(F)F)cc21

>  <Energy>  (3) 
69.95745874028506

>  <Genealogy>  (3) 
[NH-]C(=O)C(=O)C(=O)n1c(C(N)=O)cc2ccc(C(F)(F)F)cc21 (protonated)
[NH-]C(=O)C(=O)C(=O)n1c(C(N)=O)cc2ccc(C(F)(F)F)cc21 (3D coordinates assigned)
[NH-]C(=O)C(=O)C(=O)n1c(C(N)=O)cc2ccc(C(F)(F)F)cc21 (optimized conformer: 69.95745874028506 kcal/mol)

>  <smiles>  (3) 
NC(=O)C(=O)C(=O)n1c(C(N)=O)cc2ccc(C(F)(F)F)cc21

>  <score_type>  (3) 
oracle

>  <origin>  (3) 
adg

>  <m_score__min__energy>  (3) 
-10.48

>  <m_primary>  (3) 
energy

$$$$
3:0
     RDKit          3D

 38 40  0  0  0  0  0  0  0  0999 V2000
   -3.8680   25.5460  -30.8450 N   0  0  0  0  0  0  0  0  0  0  0  0
   -5.0500   24.9060  -30.3730 C   0  0  0  0  0  0  0  0  0  0  0  0
   -5.7590   25.4820  -29.5040 O   0  0  0  0  0  0  0  0  0  0  0  0
   -5.4870   23.6080  -30.9280 C   0  0  0  0  0  0  0  0  0  0  0  0
   -6.8110   23.3190  -31.2530 C   0  0  0  0  0  0  0  0  0  0  0  0
   -6.7830   22.0650  -31.8180 C   0  0  0  0  0  0  0  0  0  0  0  0
   -7.8220   21.2850  -32.3140 C   0  0  0  0  0  0  0  0  0  0  0  0
   -7.5070   20.0110  -32.8170 C   0  0  0  0  0  0  0  0  0  0  0  0
   -6.1680   19.5360  -32.8080 C   0  0  0  0  0  0  0  0  0  0  0  0
   -5.8490   18.1830  -33.3320 C   0  0  0  0  0  0  0  0  0  0  0  0
   -6.8350   17.1810  -33.3760 C   0  0  0  0  0  0  0  0  0  0  0  0
   -6.5310   15.9070  -33.8670 C   0  0  0  0  0  0  0  0  0  0  0  0
   -5.2380   15.6190  -34.3210 C   0  0  0  0  0  0  0  0  0  0  0  0
   -4.9230   14.3530  -34.8130 O   0  0  0  0  0  0  0  0  0  0  0  0
   -4.2520   16.6080  -34.2810 C   0  0  0  0  0  0  0  0  0  0  0  0
   -4.5520   17.8820  -33.7900 C   0  0  0  0  0  0  0  0  0  0  0  0
   -5.1410   20.3620  -32.2930 C   0  0  0  0  0  0  0  0  0  0  0  0
   -5.4820   21.6340  -31.8170 C   0  0  0  0  0  0  0  0  0  0  0  0
   -4.6750   22.5680  -31.2690 N   0  0  0  0  0  0  0  0  0  0  0  0
   -3.2640   22.4360  -31.0350 C   0  0  0  0  0  0  0  0  0  0  0  0
   -2.6710   23.2580  -30.2830 O   0  0  0  0  0  0  0  0  0  0  0  0
   -2.5590   21.3790  -31.6220 O   0  0  0  0  0  0  0  0  0  0  0  0
   -1.2200   21.4990  -32.0960 C   0  0  0  0  0  0  0  0  0  0  0  0
   -1.1750   21.3100  -33.5790 C   0  0  0  0  0  0  0  0  0  0  0  0
   -2.0340   20.5910  -34.1540 O   0  0  0  0  0  0  0  0  0  0  0  0
   -0.1660   21.9060  -34.3230 O   0  0  0  0  0  0  0  0  0  0  0  0
   -2.9310   25.2970  -30.4560 H   0  0  0  0  0  0  0  0  0  0  0  0
   -7.6917   23.9581  -31.0919 H   0  0  0  0  0  0  0  0  0  0  0  0
   -8.8584   21.6537  -32.3127 H   0  0  0  0  0  0  0  0  0  0  0  0
   -8.3068   19.3739  -33.2226 H   0  0  0  0  0  0  0  0  0  0  0  0
   -7.8529   17.4009  -33.0216 H   0  0  0  0  0  0  0  0  0  0  0  0
   -7.3090   15.1300  -33.8965 H   0  0  0  0  0  0  0  0  0  0  0  0
   -3.9800   13.9860  -34.7640 H   0  0  0  0  0  0  0  0  0  0  0  0
   -3.2358   16.3833  -34.6372 H   0  0  0  0  0  0  0  0  0  0  0  0
   -3.7695   18.6546  -33.7612 H   0  0  0  0  0  0  0  0  0  0  0  0
   -4.0982   20.0128  -32.2671 H   0  0  0  0  0  0  0  0  0  0  0  0
   -0.8348   22.4985  -31.8458 H   0  0  0  0  0  0  0  0  0  0  0  0
   -0.6007   20.7257  -31.6180 H   0  0  0  0  0  0  0  0  0  0  0  0
  1  2  1  0
  2  3  2  0
  2  4  1  0
  4  5  2  0
  5  6  1  0
  6  7  2  0
  7  8  1  0
  8  9  2  0
  9 10  1  0
 10 11  2  0
 11 12  1  0
 12 13  2  0
 13 14  1  0
 13 15  1  0
 15 16  2  0
  9 17  1  0
 17 18  2  0
 18 19  1  0
 19 20  1  0
 20 21  2  0
 20 22  1  0
 22 23  1  0
 23 24  1  0
 24 25  2  0
 24 26  1  0
 19  4  1  0
 18  6  1  0
 16 10  1  0
  1 27  1  0
  5 28  1  0
  7 29  1  0
  8 30  1  0
 11 31  1  0
 12 32  1  0
 14 33  1  0
 15 34  1  0
 16 35  1  0
 17 36  1  0
 23 37  1  0
 23 38  1  0
M  CHG  2   1  -1  26  -1
M  END
>  <UniqueID>  (4) 
4

>  <SMILES>  (4) 
[NH-]C(=O)c1cc2ccc(-c3ccc(O)cc3)cc2n1C(=O)OCC(=O)[O-]

>  <Energy>  (4) 
82.53872968019004

>  <Genealogy>  (4) 
[NH-]C(=O)c1cc2ccc(-c3ccc(O)cc3)cc2n1C(=O)OCC(=O)[O-] (protonated)
[NH-]C(=O)c1cc2ccc(-c3ccc(O)cc3)cc2n1C(=O)OCC(=O)[O-] (3D coordinates assigned)
[NH-]C(=O)c1cc2ccc(-c3ccc(O)cc3)cc2n1C(=O)OCC(=O)[O-] (optimized conformer: 82.53872968019004 kcal/mol)

>  <smiles>  (4) 
NC(=O)c1cc2ccc(-c3ccc(O)cc3)cc2n1C(=O)OCC(=O)O

>  <score_type>  (4) 
oracle

>  <origin>  (4) 
adg

>  <m_score__min__energy>  (4) 
-12.82

>  <m_primary>  (4) 
energy

$$$$
4:0
     RDKit          3D

 34 35  0  0  0  0  0  0  0  0999 V2000
   -3.5040   25.6990  -30.0110 H   0  0  0  0  0  0  0  0  0  0  0  0
   -4.1280   25.4050  -30.7950 N   0  0  0  0  0  0  0  0  0  0  0  0
   -5.5090   25.1370  -30.5710 C   0  0  0  0  0  0  0  0  0  0  0  0
   -6.2210   26.0020  -29.9950 O   0  0  0  0  0  0  0  0  0  0  0  0
   -6.0990   23.8680  -31.0460 C   0  0  0  0  0  0  0  0  0  0  0  0
   -7.4660   23.6730  -31.2290 C   0  0  0  0  0  0  0  0  0  0  0  0
   -8.2669   24.4185  -31.1156 H   0  0  0  0  0  0  0  0  0  0  0  0
   -7.6020   22.3490  -31.5820 C   0  0  0  0  0  0  0  0  0  0  0  0
   -8.7450   21.6130  -31.8760 C   0  0  0  0  0  0  0  0  0  0  0  0
   -9.7422   22.0759  -31.8412 H   0  0  0  0  0  0  0  0  0  0  0  0
   -8.5860   20.2590  -32.2190 C   0  0  0  0  0  0  0  0  0  0  0  0
   -9.4727   19.6457  -32.4372 H   0  0  0  0  0  0  0  0  0  0  0  0
   -7.2940   19.6740  -32.2870 C   0  0  0  0  0  0  0  0  0  0  0  0
   -7.1410   18.2100  -32.6160 C   0  0  0  0  0  0  0  0  0  0  0  0
   -8.3040   17.5190  -32.3220 F   0  0  0  0  0  0  0  0  0  0  0  0
   -6.8650   18.0390  -33.9620 F   0  0  0  0  0  0  0  0  0  0  0  0
   -6.1030   17.6830  -31.8720 F   0  0  0  0  0  0  0  0  0  0  0  0
   -6.1590   20.4520  -31.9580 C   0  0  0  0  0  0  0  0  0  0  0  0
   -5.1502   20.0140  -31.9778 H   0  0  0  0  0  0  0  0  0  0  0  0
   -6.3520   21.7920  -31.6070 C   0  0  0  0  0  0  0  0  0  0  0  0
   -5.4170   22.7110  -31.2850 N   0  0  0  0  0  0  0  0  0  0  0  0
   -3.9960   22.5010  -31.2660 C   0  0  0  0  0  0  0  0  0  0  0  0
   -3.4150   22.0880  -32.3060 O   0  0  0  0  0  0  0  0  0  0  0  0
   -3.2210   22.8130  -30.0490 C   0  0  0  0  0  0  0  0  0  0  0  0
   -3.7045   22.6964  -29.0678 H   0  0  0  0  0  0  0  0  0  0  0  0
   -1.9500   23.2330  -30.0970 C   0  0  0  0  0  0  0  0  0  0  0  0
   -1.4663   23.3377  -31.0794 H   0  0  0  0  0  0  0  0  0  0  0  0
   -1.1670   23.5630  -28.8800 C   0  0  0  0  0  0  0  0  0  0  0  0
   -0.7750   24.9560  -28.5530 C   0  0  0  0  0  0  0  0  0  0  0  0
    0.2930   25.1910  -27.9270 O   0  0  0  0  0  0  0  0  0  0  0  0
   -1.5640   26.0250  -28.9620 O   0  0  0  0  0  0  0  0  0  0  0  0
   -0.8540   22.5730  -28.0370 C   0  0  0  0  0  0  0  0  0  0  0  0
   -0.2745   22.7880  -27.1271 H   0  0  0  0  0  0  0  0  0  0  0  0
   -1.1760   21.5437  -28.2536 H   0  0  0  0  0  0  0  0  0  0  0  0
  1  2  1  0
  2  3  1  0
  3  4  2  0
  3  5  1  0
  5  6  2  0
  6  7  1  0
  6  8  1  0
  8  9  2  0
  9 10  1  0
  9 11  1  0
 11 12  1  0
 11 13  2  0
 13 14  1  0
 14 15  1  0
 14 16  1  0
 14 17  1  0
 13 18  1  0
 18 19  1  0
 18 20  2  0
 20 21  1  0
 21 22  1  0
 22 23  2  0
 22 24  1  0
 24 25  1  0
 24 26  2  0
 26 27  1  0
 26 28  1  0
 28 29  1  0
 29 30  2  0
 29 31  1  0
 28 32  2  0
 32 33  1  0
 32 34  1  0
 21  5  1  0
 20  8  1  0
M  CHG  2   2  -1  31  -1
M  END
>  <UniqueID>  (5) 
5

>  <SMILES>  (5) 
C=C(/C=C/C(=O)n1c(C([NH-])=O)cc2ccc(C(F)(F)F)cc21)C(=O)[O-]

>  <Energy>  (5) 
76.14025540816634

>  <Genealogy>  (5) 
C=C(/C=C/C(=O)n1c(C([NH-])=O)cc2ccc(C(F)(F)F)cc21)C(=O)[O-] (protonated)
C=C(/C=C/C(=O)n1c(C([NH-])=O)cc2ccc(C(F)(F)F)cc21)C(=O)[O-] (cis-trans isomerization)
C=C(/C=C/C(=O)n1c(C([NH-])=O)cc2ccc(C(F)(F)F)cc21)C(=O)[O-] (3D coordinates assigned)
C=C(/C=C/C(=O)n1c(C([NH-])=O)cc2ccc(C(F)(F)F)cc21)C(=O)[O-] (optimized conformer: 76.14025540816634 kcal/mol)

>  <smiles>  (5) 
C=C(/C=C/C(=O)n1c(C(N)=O)cc2ccc(C(F)(F)F)cc21)C(=O)O

>  <score_type>  (5) 
oracle

>  <origin>  (5) 
adg

>  <m_score__min__energy>  (5) 
-12.960000000000001

>  <m_primary>  (5) 
energy

$$$$
5:0
     RDKit          3D

102110  0  0  0  0  0  0  0  0999 V2000
   -5.7420   22.2120  -32.2630 C   0  0  0  0  0  0  0  0  0  0  0  0
   -5.5660   22.2570  -30.9420 C   0  0  0  0  0  0  0  0  0  0  0  0
   -4.3060   21.8520  -30.2860 C   0  0  0  0  0  0  0  0  0  0  0  0
   -3.7680   20.7620  -30.6240 O   0  0  0  0  0  0  0  0  0  0  0  0
   -3.7040   22.6330  -29.2420 N   0  0  0  0  0  0  0  0  0  0  0  0
   -3.8830   23.9620  -28.9650 C   0  0  0  0  0  0  0  0  0  0  0  0
   -4.6500   24.9320  -29.7810 C   0  0  0  0  0  0  0  0  0  0  0  0
   -4.0350   25.6670  -30.8370 N   0  0  0  0  0  0  0  0  0  0  0  0
   -5.8510   25.1650  -29.4970 O   0  0  0  0  0  0  0  0  0  0  0  0
   -3.0650   24.3450  -27.9020 C   0  0  0  0  0  0  0  0  0  0  0  0
   -2.3410   23.2240  -27.5730 C   0  0  0  0  0  0  0  0  0  0  0  0
   -1.3020   23.0670  -26.6590 C   0  0  0  0  0  0  0  0  0  0  0  0
   -0.6230   21.8380  -26.6380 C   0  0  0  0  0  0  0  0  0  0  0  0
   -0.9890   20.7880  -27.5200 C   0  0  0  0  0  0  0  0  0  0  0  0
   -0.1600   19.5540  -27.5980 C   0  0  0  0  0  0  0  0  0  0  0  0
    1.1930   19.6110  -27.9790 C   0  0  0  0  0  0  0  0  0  0  0  0
    1.9270   18.4340  -28.1650 C   0  0  0  0  0  0  0  0  0  0  0  0
    1.3310   17.1780  -27.9610 C   0  0  0  0  0  0  0  0  0  0  0  0
    2.0770   15.9260  -28.2270 C   0  0  0  0  0  0  0  0  0  0  0  0
    2.1680   15.0600  -27.3150 O   0  0  0  0  0  0  0  0  0  0  0  0
    2.6310   15.6510  -29.5290 N   0  0  0  0  0  0  0  0  0  0  0  0
    1.8220   15.8730  -30.7350 C   0  0  0  0  0  0  0  0  0  0  0  0
    1.6430   14.5580  -31.5260 C   0  0  0  0  0  0  0  0  0  0  0  0
    1.7720   13.3130  -30.6010 C   0  0  0  0  0  0  0  0  0  0  0  0
    1.5240   12.0050  -31.2770 N   0  0  0  0  0  0  0  0  0  0  0  0
    0.1300   11.8800  -31.8010 C   0  0  0  0  0  0  0  0  0  0  0  0
    0.0250   11.9180  -33.3430 C   0  0  0  0  0  0  0  0  0  0  0  0
    1.0760   12.8770  -33.9270 C   0  0  0  0  0  0  0  0  0  0  0  0
    0.8840   13.1260  -35.3840 N   0  0  0  0  0  0  0  0  0  0  0  0
    1.6940   14.1870  -36.0390 C   0  0  0  0  0  0  0  0  0  0  0  0
    1.0030   15.5720  -36.0490 C   0  0  0  0  0  0  0  0  0  0  0  0
   -0.4610   15.4460  -35.9930 N   0  0  0  0  0  0  0  0  0  0  0  0
   -1.2920   16.2310  -35.0940 C   0  0  0  0  0  0  0  0  0  0  0  0
   -0.8200   17.3720  -34.4190 C   0  0  0  0  0  0  0  0  0  0  0  0
   -1.6410   17.9990  -33.4760 C   0  0  0  0  0  0  0  0  0  0  0  0
   -1.1570   19.1400  -32.6950 C   0  0  0  0  0  0  0  0  0  0  0  0
   -0.2510   18.9300  -31.6490 C   0  0  0  0  0  0  0  0  0  0  0  0
    0.1720   20.0040  -30.8550 C   0  0  0  0  0  0  0  0  0  0  0  0
   -0.3420   21.2860  -31.0840 C   0  0  0  0  0  0  0  0  0  0  0  0
   -1.2530   21.5000  -32.1230 C   0  0  0  0  0  0  0  0  0  0  0  0
   -1.6540   20.4340  -32.9370 C   0  0  0  0  0  0  0  0  0  0  0  0
   -2.5290   20.6720  -33.9900 O   0  0  0  0  0  0  0  0  0  0  0  0
   -2.8900   17.5190  -33.2480 N   0  0  0  0  0  0  0  0  0  0  0  0
   -3.3590   16.4580  -33.9090 N   0  0  0  0  0  0  0  0  0  0  0  0
   -2.6070   15.8110  -34.8320 C   0  0  0  0  0  0  0  0  0  0  0  0
   -3.1400   14.6880  -35.5310 N   0  0  0  0  0  0  0  0  0  0  0  0
   -2.5290   14.2770  -36.7850 C   0  0  0  0  0  0  0  0  0  0  0  0
   -0.9970   14.2370  -36.6420 C   0  0  2  0  0  0  0  0  0  0  0  0
   -0.5250   13.0060  -35.8450 C   0  0  0  0  0  0  0  0  0  0  0  0
    2.5060   12.4220  -33.5530 C   0  0  0  0  0  0  0  0  0  0  0  0
    2.5290   11.5670  -32.2710 C   0  0  0  0  0  0  0  0  0  0  0  0
    3.1960   13.3010  -29.9760 C   0  0  0  0  0  0  0  0  0  0  0  0
    3.7410   14.7060  -29.6580 C   0  0  0  0  0  0  0  0  0  0  0  0
   -0.0040   17.1210  -27.5290 C   0  0  0  0  0  0  0  0  0  0  0  0
   -0.7450   18.2940  -27.3610 C   0  0  0  0  0  0  0  0  0  0  0  0
   -2.0860   20.9690  -28.3970 C   0  0  0  0  0  0  0  0  0  0  0  0
   -2.7310   22.2110  -28.4070 C   0  0  0  0  0  0  0  0  0  0  0  0
   -6.7011   22.5254  -32.7011 H   0  0  0  0  0  0  0  0  0  0  0  0
   -4.9281   21.8615  -32.9147 H   0  0  0  0  0  0  0  0  0  0  0  0
   -6.3958   22.6114  -30.3129 H   0  0  0  0  0  0  0  0  0  0  0  0
   -4.6080   26.2180  -31.5140 H   0  0  0  0  0  0  0  0  0  0  0  0
   -3.0108   25.3357  -27.4270 H   0  0  0  0  0  0  0  0  0  0  0  0
   -1.0217   23.8810  -25.9743 H   0  0  0  0  0  0  0  0  0  0  0  0
    0.2038   21.6870  -25.9283 H   0  0  0  0  0  0  0  0  0  0  0  0
    1.6771   20.5869  -28.1317 H   0  0  0  0  0  0  0  0  0  0  0  0
    2.9811   18.4928  -28.4740 H   0  0  0  0  0  0  0  0  0  0  0  0
    0.8330   16.2541  -30.4406 H   0  0  0  0  0  0  0  0  0  0  0  0
    2.3384   16.6024  -31.3763 H   0  0  0  0  0  0  0  0  0  0  0  0
    0.6470   14.5546  -31.9928 H   0  0  0  0  0  0  0  0  0  0  0  0
    2.4336   14.5042  -32.2889 H   0  0  0  0  0  0  0  0  0  0  0  0
    0.9848   13.4120  -29.8391 H   0  0  0  0  0  0  0  0  0  0  0  0
   -0.2854   10.9236  -31.4507 H   0  0  0  0  0  0  0  0  0  0  0  0
   -0.4273   12.7508  -31.4254 H   0  0  0  0  0  0  0  0  0  0  0  0
    0.1941   10.9074  -33.7431 H   0  0  0  0  0  0  0  0  0  0  0  0
   -0.9777   12.2723  -33.6244 H   0  0  0  0  0  0  0  0  0  0  0  0
    0.9284   13.8619  -33.4600 H   0  0  0  0  0  0  0  0  0  0  0  0
    2.6492   14.2781  -35.5011 H   0  0  0  0  0  0  0  0  0  0  0  0
    1.8336   13.8869  -37.0880 H   0  0  0  0  0  0  0  0  0  0  0  0
    1.3455   16.1483  -35.1769 H   0  0  0  0  0  0  0  0  0  0  0  0
    1.2691   16.0829  -36.9861 H   0  0  0  0  0  0  0  0  0  0  0  0
    0.1846   17.7669  -34.6309 H   0  0  0  0  0  0  0  0  0  0  0  0
    0.1304   17.9177  -31.4496 H   0  0  0  0  0  0  0  0  0  0  0  0
    0.9068   19.8403  -30.0530 H   0  0  0  0  0  0  0  0  0  0  0  0
   -0.0289   22.1256  -30.4460 H   0  0  0  0  0  0  0  0  0  0  0  0
   -1.6554   22.5081  -32.3011 H   0  0  0  0  0  0  0  0  0  0  0  0
   -3.9000   14.1160  -35.1010 H   0  0  0  0  0  0  0  0  0  0  0  0
   -2.8948   13.2758  -37.0564 H   0  0  0  0  0  0  0  0  0  0  0  0
   -2.7975   15.0003  -37.5691 H   0  0  0  0  0  0  0  0  0  0  0  0
   -0.6105   14.1804  -37.6703 H   0  0  0  0  0  0  0  0  0  0  0  0
   -1.1741   12.8865  -34.9650 H   0  0  0  0  0  0  0  0  0  0  0  0
   -0.5824   12.1350  -36.5144 H   0  0  0  0  0  0  0  0  0  0  0  0
    2.9168   11.8276  -34.3825 H   0  0  0  0  0  0  0  0  0  0  0  0
    3.1093   13.3231  -33.3685 H   0  0  0  0  0  0  0  0  0  0  0  0
    2.3242   10.5207  -32.5416 H   0  0  0  0  0  0  0  0  0  0  0  0
    3.5225   11.6804  -31.8126 H   0  0  0  0  0  0  0  0  0  0  0  0
    3.1609   12.7218  -29.0415 H   0  0  0  0  0  0  0  0  0  0  0  0
    3.8714   12.8535  -30.7201 H   0  0  0  0  0  0  0  0  0  0  0  0
    4.3048   14.6739  -28.7140 H   0  0  0  0  0  0  0  0  0  0  0  0
    4.4026   15.0321  -30.4741 H   0  0  0  0  0  0  0  0  0  0  0  0
   -0.4697   16.1463  -27.3214 H   0  0  0  0  0  0  0  0  0  0  0  0
   -1.7955   18.2331  -27.0405 H   0  0  0  0  0  0  0  0  0  0  0  0
   -2.4228   20.1536  -29.0541 H   0  0  0  0  0  0  0  0  0  0  0  0
  1  2  2  0
  2  3  1  0
  3  4  2  0
  3  5  1  0
  5  6  1  0
  6  7  1  0
  7  8  1  0
  7  9  2  0
  6 10  2  0
 10 11  1  0
 11 12  2  0
 12 13  1  0
 13 14  2  0
 14 15  1  0
 15 16  2  0
 16 17  1  0
 17 18  2  0
 18 19  1  0
 19 20  2  0
 19 21  1  0
 21 22  1  0
 22 23  1  0
 23 24  1  0
 24 25  1  0
 25 26  1  0
 26 27  1  0
 27 28  1  0
 28 29  1  0
 29 30  1  0
 30 31  1  0
 31 32  1  0
 32 33  1  0
 33 34  2  0
 34 35  1  0
 35 36  1  0
 36 37  2  0
 37 38  1  0
 38 39  2  0
 39 40  1  0
 40 41  2  0
 41 42  1  0
 35 43  2  0
 43 44  1  0
 44 45  2  0
 45 46  1  0
 46 47  1  0
 47 48  1  0
 48 49  1  0
 28 50  1  0
 50 51  1  0
 24 52  1  0
 52 53  1  0
 18 54  1  0
 54 55  2  0
 14 56  1  0
 56 57  2  0
 57  5  1  0
 57 11  1  0
 55 15  1  0
 53 21  1  0
 51 25  1  0
 49 29  1  0
 48 32  1  0
 45 33  1  0
 41 36  1  0
  1 58  1  0
  1 59  1  0
  2 60  1  0
  8 61  1  0
 10 62  1  0
 12 63  1  0
 13 64  1  0
 16 65  1  0
 17 66  1  0
 22 67  1  0
 22 68  1  0
 23 69  1  0
 23 70  1  0
 24 71  1  0
 26 72  1  0
 26 73  1  0
 27 74  1  0
 27 75  1  0
 28 76  1  0
 30 77  1  0
 30 78  1  0
 31 79  1  0
 31 80  1  0
 34 81  1  0
 37 82  1  0
 38 83  1  0
 39 84  1  0
 40 85  1  0
 46 86  1  0
 47 87  1  0
 47 88  1  0
 48 89  1  6
 49 90  1  0
 49 91  1  0
 50 92  1  0
 50 93  1  0
 51 94  1  0
 51 95  1  0
 52 96  1  0
 52 97  1  0
 53 98  1  0
 53 99  1  0
 54100  1  0
 55101  1  0
 56102  1  0
M  CHG  2   8  -1  42  -1
M  END
>  <UniqueID>  (6) 
6

>  <SMILES>  (6) 
C=CC(=O)n1c(C([NH-])=O)cc2ccc(-c3ccc(C(=O)N4CCC(N5CCC(N6CCN7c8cc(-c9ccccc9[O-])nnc8NC[C@@H]7C6)CC5)CC4)cc3)cc21

>  <Energy>  (6) 
218.2855372469072

>  <Genealogy>  (6) 
C=CC(=O)n1c(C([NH-])=O)cc2ccc(-c3ccc(C(=O)N4CCC(N5CCC(N6CCN7c8cc(-c9ccccc9[O-])nnc8NC[C@@H]7C6)CC5)CC4)cc3)cc21 (protonated)
C=CC(=O)n1c(C([NH-])=O)cc2ccc(-c3ccc(C(=O)N4CCC(N5CCC(N6CCN7c8cc(-c9ccccc9[O-])nnc8NC[C@@H]7C6)CC5)CC4)cc3)cc21 (3D coordinates assigned)
C=CC(=O)n1c(C([NH-])=O)cc2ccc(-c3ccc(C(=O)N4CCC(N5CCC(N6CCN7c8cc(-c9ccccc9[O-])nnc8NC[C@@H]7C6)CC5)CC4)cc3)cc21 (nonaromatic ring conformer: 218.2855372469072 kcal/mol)

>  <smiles>  (6) 
C=CC(=O)n1c(C(N)=O)cc2ccc(-c3ccc(C(=O)N4CCC(N5CCC(N6CCN7c8cc(-c9ccccc9O)nnc8NC[C@@H]7C6)CC5)CC4)cc3)cc21

>  <score_type>  (6) 
oracle

>  <origin>  (6) 
adg

>  <m_score__min__energy>  (6) 
-12.119999999999999

>  <m_primary>  (6) 
energy

$$$$
6:0
     RDKit          3D

 43 44  0  0  0  0  0  0  0  0999 V2000
   -5.7250   18.3710  -34.4760 C   0  0  0  0  0  0  0  0  0  0  0  0
   -6.5400   18.5620  -33.2690 N   0  0  0  0  0  0  0  0  0  0  0  0
   -7.1360   17.3860  -32.6220 C   0  0  0  0  0  0  0  0  0  0  0  0
   -6.7520   19.8910  -32.7230 C   0  0  0  0  0  0  0  0  0  0  0  0
   -8.0690   20.4020  -32.5450 C   0  0  0  0  0  0  0  0  0  0  0  0
   -8.2840   21.6840  -32.0090 C   0  0  0  0  0  0  0  0  0  0  0  0
   -7.1720   22.4410  -31.6630 C   0  0  0  0  0  0  0  0  0  0  0  0
   -7.0950   23.7000  -31.1100 C   0  0  0  0  0  0  0  0  0  0  0  0
   -5.7330   23.9600  -30.9750 C   0  0  0  0  0  0  0  0  0  0  0  0
   -5.1910   25.2530  -30.5070 C   0  0  0  0  0  0  0  0  0  0  0  0
   -3.8690   25.6620  -30.8490 N   0  0  0  0  0  0  0  0  0  0  0  0
   -5.9230   26.0300  -29.8350 O   0  0  0  0  0  0  0  0  0  0  0  0
   -5.0000   22.8980  -31.4140 N   0  0  0  0  0  0  0  0  0  0  0  0
   -3.5750   22.7400  -31.3830 C   0  0  0  0  0  0  0  0  0  0  0  0
   -2.9740   22.2570  -32.3820 O   0  0  0  0  0  0  0  0  0  0  0  0
   -2.8590   23.1380  -30.2490 O   0  0  0  0  0  0  0  0  0  0  0  0
   -2.8030   22.3740  -29.0460 C   0  0  0  0  0  0  0  0  0  0  0  0
   -3.5800   23.0600  -27.9140 C   0  0  0  0  0  0  0  0  0  0  0  0
   -3.0150   24.4530  -27.6010 C   0  0  0  0  0  0  0  0  0  0  0  0
   -1.6200   24.6460  -28.2050 C   0  0  0  0  0  0  0  0  0  0  0  0
   -1.5520   25.8400  -28.9380 O   0  0  0  0  0  0  0  0  0  0  0  0
   -5.8950   21.9810  -31.8390 C   0  0  0  0  0  0  0  0  0  0  0  0
   -5.6480   20.7040  -32.3530 C   0  0  0  0  0  0  0  0  0  0  0  0
   -4.6918   18.1289  -34.1863 H   0  0  0  0  0  0  0  0  0  0  0  0
   -6.1413   17.5461  -35.0728 H   0  0  0  0  0  0  0  0  0  0  0  0
   -5.7315   19.2950  -35.0728 H   0  0  0  0  0  0  0  0  0  0  0  0
   -7.0783   17.4999  -31.5294 H   0  0  0  0  0  0  0  0  0  0  0  0
   -8.1892   17.2946  -32.9260 H   0  0  0  0  0  0  0  0  0  0  0  0
   -6.5869   16.4826  -32.9260 H   0  0  0  0  0  0  0  0  0  0  0  0
   -8.9325   19.7837  -32.8315 H   0  0  0  0  0  0  0  0  0  0  0  0
   -9.3022   22.0756  -31.8679 H   0  0  0  0  0  0  0  0  0  0  0  0
   -7.9308   24.3597  -30.8338 H   0  0  0  0  0  0  0  0  0  0  0  0
   -3.0370   25.2270  -30.3930 H   0  0  0  0  0  0  0  0  0  0  0  0
   -3.2403   21.3817  -29.2308 H   0  0  0  0  0  0  0  0  0  0  0  0
   -1.7502   22.2841  -28.7401 H   0  0  0  0  0  0  0  0  0  0  0  0
   -4.6331   23.1617  -28.2150 H   0  0  0  0  0  0  0  0  0  0  0  0
   -3.4868   22.4408  -27.0096 H   0  0  0  0  0  0  0  0  0  0  0  0
   -3.6920   25.2141  -28.0162 H   0  0  0  0  0  0  0  0  0  0  0  0
   -2.9332   24.5530  -26.5086 H   0  0  0  0  0  0  0  0  0  0  0  0
   -0.8778   24.6788  -27.3938 H   0  0  0  0  0  0  0  0  0  0  0  0
   -1.4116   23.8053  -28.8831 H   0  0  0  0  0  0  0  0  0  0  0  0
   -2.0040   25.6670  -29.8050 H   0  0  0  0  0  0  0  0  0  0  0  0
   -4.6178   20.3362  -32.4685 H   0  0  0  0  0  0  0  0  0  0  0  0
  1  2  1  0
  2  3  1  0
  2  4  1  0
  4  5  2  0
  5  6  1  0
  6  7  2  0
  7  8  1  0
  8  9  2  0
  9 10  1  0
 10 11  1  0
 10 12  2  0
  9 13  1  0
 13 14  1  0
 14 15  2  0
 14 16  1  0
 16 17  1  0
 17 18  1  0
 18 19  1  0
 19 20  1  0
 20 21  1  0
 13 22  1  0
 22 23  2  0
 23  4  1  0
 22  7  1  0
  1 24  1  0
  1 25  1  0
  1 26  1  0
  3 27  1  0
  3 28  1  0
  3 29  1  0
  5 30  1  0
  6 31  1  0
  8 32  1  0
 11 33  1  0
 17 34  1  0
 17 35  1  0
 18 36  1  0
 18 37  1  0
 19 38  1  0
 19 39  1  0
 20 40  1  0
 20 41  1  0
 21 42  1  0
 23 43  1  0
M  CHG  1  11  -1
M  END
>  <UniqueID>  (7) 
7

>  <SMILES>  (7) 
CN(C)c1ccc2cc(C([NH-])=O)n(C(=O)OCCCCO)c2c1

>  <Energy>  (7) 
75.23804824338862

>  <Genealogy>  (7) 
CN(C)c1ccc2cc(C([NH-])=O)n(C(=O)OCCCCO)c2c1 (protonated)
CN(C)c1ccc2cc(C([NH-])=O)n(C(=O)OCCCCO)c2c1 (3D coordinates assigned)
CN(C)c1ccc2cc(C([NH-])=O)n(C(=O)OCCCCO)c2c1 (optimized conformer: 75.23804824338862 kcal/mol)

>  <smiles>  (7) 
CN(C)c1ccc2cc(C(N)=O)n(C(=O)OCCCCO)c2c1

>  <score_type>  (7) 
oracle

>  <origin>  (7) 
adg

>  <m_score__min__energy>  (7) 
-10.640000000000001

>  <m_primary>  (7) 
energy

$$$$
7:0
     RDKit          3D

 51 52  0  0  0  0  0  0  0  0999 V2000
   -6.1500   17.3680  -30.9620 C   0  0  0  0  0  0  0  0  0  0  0  0
   -6.2040   17.2700  -32.4780 C   0  0  0  0  0  0  0  0  0  0  0  0
   -5.5170   18.3760  -33.0520 O   0  0  0  0  0  0  0  0  0  0  0  0
   -4.9990   18.3510  -34.3510 C   0  0  0  0  0  0  0  0  0  0  0  0
   -5.7480   18.5510  -35.3460 O   0  0  0  0  0  0  0  0  0  0  0  0
   -3.5260   18.1120  -34.5550 C   0  0  0  0  0  0  0  0  0  0  0  0
   -2.7350   18.2620  -33.3110 N   0  0  1  0  0  0  0  0  0  0  0  0
   -2.1250   16.9860  -32.8900 C   0  0  0  0  0  0  0  0  0  0  0  0
   -1.7510   19.3260  -33.4440 C   0  0  0  0  0  0  0  0  0  0  0  0
   -0.7470   19.1700  -34.1970 O   0  0  0  0  0  0  0  0  0  0  0  0
   -1.9590   20.6060  -32.8100 N   0  0  0  0  0  0  0  0  0  0  0  0
   -0.9300   21.1490  -31.9210 C   0  0  0  0  0  0  0  0  0  0  0  0
   -3.2440   21.2450  -32.8590 C   0  0  0  0  0  0  0  0  0  0  0  0
   -3.5130   22.0270  -33.8100 O   0  0  0  0  0  0  0  0  0  0  0  0
   -4.2530   20.9930  -31.8140 C   0  0  0  0  0  0  0  0  0  0  0  0
   -4.1880   19.9490  -31.1120 O   0  0  0  0  0  0  0  0  0  0  0  0
   -5.3020   21.9410  -31.5760 N   0  0  0  0  0  0  0  0  0  0  0  0
   -5.1810   23.2280  -31.1520 C   0  0  0  0  0  0  0  0  0  0  0  0
   -3.9160   23.9000  -30.7920 C   0  0  0  0  0  0  0  0  0  0  0  0
   -3.9060   25.3020  -30.5320 N   0  0  0  0  0  0  0  0  0  0  0  0
   -2.8430   23.2470  -30.7030 O   0  0  0  0  0  0  0  0  0  0  0  0
   -6.4370   23.8250  -31.0510 C   0  0  0  0  0  0  0  0  0  0  0  0
   -7.3350   22.8540  -31.4370 C   0  0  0  0  0  0  0  0  0  0  0  0
   -8.7240   22.8990  -31.5320 C   0  0  0  0  0  0  0  0  0  0  0  0
   -9.3910   21.7440  -31.9780 C   0  0  0  0  0  0  0  0  0  0  0  0
   -8.6620   20.5820  -32.3340 C   0  0  0  0  0  0  0  0  0  0  0  0
   -9.3810   19.3460  -32.7840 C   0  0  0  0  0  0  0  0  0  0  0  0
   -7.2560   20.5690  -32.2090 C   0  0  0  0  0  0  0  0  0  0  0  0
   -6.6220   21.7270  -31.7510 C   0  0  0  0  0  0  0  0  0  0  0  0
   -6.6361   16.4858  -30.5200 H   0  0  0  0  0  0  0  0  0  0  0  0
   -5.1008   17.4111  -30.6345 H   0  0  0  0  0  0  0  0  0  0  0  0
   -6.6740   18.2780  -30.6345 H   0  0  0  0  0  0  0  0  0  0  0  0
   -5.7257   16.3338  -32.8017 H   0  0  0  0  0  0  0  0  0  0  0  0
   -7.2533   17.2803  -32.8079 H   0  0  0  0  0  0  0  0  0  0  0  0
   -3.3868   17.0900  -34.9373 H   0  0  0  0  0  0  0  0  0  0  0  0
   -3.1661   18.8703  -35.2660 H   0  0  0  0  0  0  0  0  0  0  0  0
   -3.4020   18.5210  -32.5490 H   0  0  0  0  0  0  0  0  0  0  0  0
   -2.1010   16.9359  -31.7914 H   0  0  0  0  0  0  0  0  0  0  0  0
   -2.7199   16.1481  -33.2824 H   0  0  0  0  0  0  0  0  0  0  0  0
   -1.0993   16.9228  -33.2824 H   0  0  0  0  0  0  0  0  0  0  0  0
   -1.2292   20.9911  -30.8743 H   0  0  0  0  0  0  0  0  0  0  0  0
    0.0253   20.6376  -32.1104 H   0  0  0  0  0  0  0  0  0  0  0  0
   -0.8130   22.2262  -32.1104 H   0  0  0  0  0  0  0  0  0  0  0  0
   -3.5110   25.9740  -31.2270 H   0  0  0  0  0  0  0  0  0  0  0  0
   -6.6629   24.8529  -30.7311 H   0  0  0  0  0  0  0  0  0  0  0  0
   -9.2816   23.8093  -31.2665 H   0  0  0  0  0  0  0  0  0  0  0  0
  -10.4886   21.7425  -32.0512 H   0  0  0  0  0  0  0  0  0  0  0  0
   -9.7134   18.7746  -31.9048 H   0  0  0  0  0  0  0  0  0  0  0  0
  -10.2549   19.6298  -33.3887 H   0  0  0  0  0  0  0  0  0  0  0  0
   -8.7023   18.7266  -33.3887 H   0  0  0  0  0  0  0  0  0  0  0  0
   -6.6748   19.6710  -32.4654 H   0  0  0  0  0  0  0  0  0  0  0  0
  1  2  1  0
  2  3  1  0
  3  4  1  0
  4  5  2  0
  4  6  1  0
  6  7  1  0
  7  8  1  0
  7  9  1  0
  9 10  2  0
  9 11  1  0
 11 12  1  0
 11 13  1  0
 13 14  2  0
 13 15  1  0
 15 16  2  0
 15 17  1  0
 17 18  1  0
 18 19  1  0
 19 20  1  0
 19 21  2  0
 18 22  2  0
 22 23  1  0
 23 24  2  0
 24 25  1  0
 25 26  2  0
 26 27  1  0
 26 28  1  0
 28 29  2  0
 29 17  1  0
 29 23  1  0
  1 30  1  0
  1 31  1  0
  1 32  1  0
  2 33  1  0
  2 34  1  0
  6 35  1  0
  6 36  1  0
  7 37  1  1
  8 38  1  0
  8 39  1  0
  8 40  1  0
 12 41  1  0
 12 42  1  0
 12 43  1  0
 20 44  1  0
 22 45  1  0
 24 46  1  0
 25 47  1  0
 27 48  1  0
 27 49  1  0
 27 50  1  0
 28 51  1  0
M  CHG  2   7   1  20  -1
M  END
>  <UniqueID>  (8) 
8

>  <SMILES>  (8) 
CCOC(=O)C[N@@H+](C)C(=O)N(C)C(=O)C(=O)n1c(C([NH-])=O)cc2ccc(C)cc21

>  <Energy>  (8) 
91.46000302445619

>  <Genealogy>  (8) 
CCOC(=O)C[NH+](C)C(=O)N(C)C(=O)C(=O)n1c(C([NH-])=O)cc2ccc(C)cc21 (protonated)
CCOC(=O)C[N@@H+](C)C(=O)N(C)C(=O)C(=O)n1c(C([NH-])=O)cc2ccc(C)cc21 (chirality)
CCOC(=O)C[N@@H+](C)C(=O)N(C)C(=O)C(=O)n1c(C([NH-])=O)cc2ccc(C)cc21 (3D coordinates assigned)
CCOC(=O)C[N@@H+](C)C(=O)N(C)C(=O)C(=O)n1c(C([NH-])=O)cc2ccc(C)cc21 (optimized conformer: 91.46000302445619 kcal/mol)

>  <smiles>  (8) 
CCOC(=O)CN(C)C(=O)N(C)C(=O)C(=O)n1c(C(N)=O)cc2ccc(C)cc21

>  <score_type>  (8) 
oracle

>  <origin>  (8) 
adg

>  <m_score__min__energy>  (8) 
-10.039999999999999

>  <m_primary>  (8) 
energy

$$$$
8:0
     RDKit          3D

 36 37  0  0  0  0  0  0  0  0999 V2000
   -0.8080   22.3680  -26.1820 C   0  0  0  0  0  0  0  0  0  0  0  0
   -2.0020   22.3520  -26.9590 O   0  0  0  0  0  0  0  0  0  0  0  0
   -2.6350   23.5020  -27.4540 C   0  0  0  0  0  0  0  0  0  0  0  0
   -2.6840   24.8910  -26.5750 S   0  0  0  0  0  0  0  0  0  0  0  0
   -3.2520   23.4830  -28.7510 N   0  0  0  0  0  0  0  0  0  0  0  0
   -3.2880   22.3240  -29.6000 C   0  0  0  0  0  0  0  0  0  0  0  0
   -2.8060   21.2270  -29.2070 O   0  0  0  0  0  0  0  0  0  0  0  0
   -3.9030   22.3980  -30.9400 C   0  0  0  0  0  0  0  0  0  0  0  0
   -3.2000   22.2040  -31.9670 O   0  0  0  0  0  0  0  0  0  0  0  0
   -5.3010   22.6940  -31.0870 N   0  0  0  0  0  0  0  0  0  0  0  0
   -5.9200   23.8940  -30.9100 C   0  0  0  0  0  0  0  0  0  0  0  0
   -5.2750   25.1340  -30.4300 C   0  0  0  0  0  0  0  0  0  0  0  0
   -3.8680   25.3080  -30.5830 N   0  0  0  0  0  0  0  0  0  0  0  0
   -5.9560   26.0520  -29.9020 O   0  0  0  0  0  0  0  0  0  0  0  0
   -7.2800   23.7870  -31.1960 C   0  0  0  0  0  0  0  0  0  0  0  0
   -7.4740   22.4740  -31.5620 C   0  0  0  0  0  0  0  0  0  0  0  0
   -8.6350   21.8140  -31.9560 C   0  0  0  0  0  0  0  0  0  0  0  0
   -8.5360   20.4540  -32.2980 C   0  0  0  0  0  0  0  0  0  0  0  0
   -7.2850   19.7900  -32.2590 C   0  0  0  0  0  0  0  0  0  0  0  0
   -7.1930   18.3300  -32.6040 C   0  0  0  0  0  0  0  0  0  0  0  0
   -6.3830   18.1460  -33.8470 C   0  0  0  0  0  0  0  0  0  0  0  0
   -6.0790   16.9910  -34.2400 O   0  0  0  0  0  0  0  0  0  0  0  0
   -6.0060   19.2520  -34.6000 O   0  0  0  0  0  0  0  0  0  0  0  0
   -6.1300   20.4910  -31.8470 C   0  0  0  0  0  0  0  0  0  0  0  0
   -6.2630   21.8370  -31.4920 C   0  0  0  0  0  0  0  0  0  0  0  0
   -1.0663   22.3645  -25.1128 H   0  0  0  0  0  0  0  0  0  0  0  0
   -0.2059   21.4778  -26.4167 H   0  0  0  0  0  0  0  0  0  0  0  0
   -0.2299   23.2740  -26.4167 H   0  0  0  0  0  0  0  0  0  0  0  0
   -3.6890   24.3680  -29.0960 H   0  0  0  0  0  0  0  0  0  0  0  0
   -3.4850   26.0410  -31.2210 H   0  0  0  0  0  0  0  0  0  0  0  0
   -8.0375   24.5827  -31.1410 H   0  0  0  0  0  0  0  0  0  0  0  0
   -9.5999   22.3405  -31.9984 H   0  0  0  0  0  0  0  0  0  0  0  0
   -9.4378   19.9005  -32.5986 H   0  0  0  0  0  0  0  0  0  0  0  0
   -6.7140   17.7895  -31.7743 H   0  0  0  0  0  0  0  0  0  0  0  0
   -8.2058   17.9353  -32.7725 H   0  0  0  0  0  0  0  0  0  0  0  0
   -5.1511   19.9910  -31.8064 H   0  0  0  0  0  0  0  0  0  0  0  0
  1  2  1  0
  2  3  1  0
  3  4  2  0
  3  5  1  0
  5  6  1  0
  6  7  2  0
  6  8  1  0
  8  9  2  0
  8 10  1  0
 10 11  1  0
 11 12  1  0
 12 13  1  0
 12 14  2  0
 11 15  2  0
 15 16  1  0
 16 17  2  0
 17 18  1  0
 18 19  2  0
 19 20  1  0
 20 21  1  0
 21 22  2  0
 21 23  1  0
 19 24  1  0
 24 25  2  0
 25 10  1  0
 25 16  1  0
  1 26  1  0
  1 27  1  0
  1 28  1  0
  5 29  1  0
 13 30  1  0
 15 31  1  0
 17 32  1  0
 18 33  1  0
 20 34  1  0
 20 35  1  0
 24 36  1  0
M  CHG  2  13  -1  23  -1
M  END
>  <UniqueID>  (9) 
9

>  <SMILES>  (9) 
COC(=S)NC(=O)C(=O)n1c(C([NH-])=O)cc2ccc(CC(=O)[O-])cc21

>  <Energy>  (9) 
72.34706600639917

>  <Genealogy>  (9) 
COC(=S)NC(=O)C(=O)n1c(C([NH-])=O)cc2ccc(CC(=O)[O-])cc21 (protonated)
COC(=S)NC(=O)C(=O)n1c(C([NH-])=O)cc2ccc(CC(=O)[O-])cc21 (3D coordinates assigned)
COC(=S)NC(=O)C(=O)n1c(C([NH-])=O)cc2ccc(CC(=O)[O-])cc21 (optimized conformer: 72.34706600639917 kcal/mol)

>  <smiles>  (9) 
COC(=S)NC(=O)C(=O)n1c(C(N)=O)cc2ccc(CC(=O)O)cc21

>  <score_type>  (9) 
oracle

>  <origin>  (9) 
adg

>  <m_score__min__energy>  (9) 
-10.130000000000001

>  <m_primary>  (9) 
energy

$$$$
9:0
     RDKit          3D

 52 54  0  0  0  0  0  0  0  0999 V2000
   -3.5910   23.1460  -28.3810 C   0  0  0  0  0  0  0  0  0  0  0  0
   -2.5770   23.4380  -29.3990 N   0  0  0  0  0  0  0  0  0  0  0  0
   -1.5970   24.4570  -29.1270 C   0  0  0  0  0  0  0  0  0  0  0  0
   -0.3710   24.1710  -29.0730 O   0  0  0  0  0  0  0  0  0  0  0  0
   -1.9900   25.7770  -28.9410 O   0  0  0  0  0  0  0  0  0  0  0  0
   -2.5190   22.6510  -30.6070 C   0  0  0  0  0  0  0  0  0  0  0  0
   -1.4060   22.2440  -31.0380 O   0  0  0  0  0  0  0  0  0  0  0  0
   -3.7130   22.3510  -31.3500 N   0  0  0  0  0  0  0  0  0  0  0  0
   -4.8530   23.0930  -31.4360 C   0  0  0  0  0  0  0  0  0  0  0  0
   -5.0510   24.4420  -30.8660 C   0  0  0  0  0  0  0  0  0  0  0  0
   -3.9620   25.3600  -30.8160 N   0  0  0  0  0  0  0  0  0  0  0  0
   -6.1690   24.7860  -30.3970 O   0  0  0  0  0  0  0  0  0  0  0  0
   -5.8080   22.4310  -32.2070 C   0  0  0  0  0  0  0  0  0  0  0  0
   -5.2120   21.2520  -32.5930 C   0  0  0  0  0  0  0  0  0  0  0  0
   -5.7100   20.2050  -33.3630 C   0  0  0  0  0  0  0  0  0  0  0  0
   -4.8760   19.0950  -33.5840 C   0  0  0  0  0  0  0  0  0  0  0  0
   -3.5680   19.0520  -33.0350 C   0  0  0  0  0  0  0  0  0  0  0  0
   -2.7320   17.8950  -33.2370 N   0  0  0  0  0  0  0  0  0  0  0  0
   -1.3160   18.2790  -33.1650 C   0  0  0  0  0  0  0  0  0  0  0  0
   -0.7280   18.3610  -34.5470 C   0  0  0  0  0  0  0  0  0  0  0  0
   -1.1390   17.5640  -35.4320 O   0  0  0  0  0  0  0  0  0  0  0  0
    0.2110   19.3910  -34.9040 N   0  0  0  0  0  0  0  0  0  0  0  0
    1.6230   19.1120  -35.0790 C   0  0  0  0  0  0  0  0  0  0  0  0
    2.1810   20.2850  -35.8720 C   0  0  0  0  0  0  0  0  0  0  0  0
    1.1450   21.4060  -35.7780 C   0  0  0  0  0  0  0  0  0  0  0  0
   -0.1440   20.7660  -35.2430 C   0  0  2  0  0  0  0  0  0  0  0  0
   -0.6870   21.5130  -34.0100 C   0  0  0  0  0  0  0  0  0  0  0  0
    0.1050   21.2600  -32.8780 O   0  0  0  0  0  0  0  0  0  0  0  0
   -3.1050   20.1290  -32.2440 C   0  0  0  0  0  0  0  0  0  0  0  0
   -3.9500   21.2280  -32.0580 C   0  0  0  0  0  0  0  0  0  0  0  0
   -3.1526   23.2722  -27.3800 H   0  0  0  0  0  0  0  0  0  0  0  0
   -4.4391   23.8364  -28.4996 H   0  0  0  0  0  0  0  0  0  0  0  0
   -3.9420   22.1103  -28.4996 H   0  0  0  0  0  0  0  0  0  0  0  0
   -3.8660   26.0380  -30.0260 H   0  0  0  0  0  0  0  0  0  0  0  0
   -6.8223   22.7775  -32.4542 H   0  0  0  0  0  0  0  0  0  0  0  0
   -6.7248   20.2448  -33.7856 H   0  0  0  0  0  0  0  0  0  0  0  0
   -5.2409   18.2515  -34.1884 H   0  0  0  0  0  0  0  0  0  0  0  0
   -2.9420   17.4730  -34.1700 H   0  0  0  0  0  0  0  0  0  0  0  0
   -2.9400   17.1760  -32.5050 H   0  0  0  0  0  0  0  0  0  0  0  0
   -1.2303   19.2601  -32.6751 H   0  0  0  0  0  0  0  0  0  0  0  0
   -0.7679   17.5206  -32.5867 H   0  0  0  0  0  0  0  0  0  0  0  0
    2.1229   19.0374  -34.1020 H   0  0  0  0  0  0  0  0  0  0  0  0
    1.7860   18.1567  -35.5994 H   0  0  0  0  0  0  0  0  0  0  0  0
    3.1376   20.6146  -35.4403 H   0  0  0  0  0  0  0  0  0  0  0  0
    2.3683   20.0038  -36.9188 H   0  0  0  0  0  0  0  0  0  0  0  0
    1.4944   22.1893  -35.0893 H   0  0  0  0  0  0  0  0  0  0  0  0
    0.9780   21.8760  -36.7584 H   0  0  0  0  0  0  0  0  0  0  0  0
   -0.9461   20.8100  -35.9945 H   0  0  0  0  0  0  0  0  0  0  0  0
   -0.6862   22.5937  -34.2151 H   0  0  0  0  0  0  0  0  0  0  0  0
   -1.7089   21.1593  -33.8084 H   0  0  0  0  0  0  0  0  0  0  0  0
   -0.2820   21.7800  -32.1260 H   0  0  0  0  0  0  0  0  0  0  0  0
   -2.1051   20.1031  -31.7863 H   0  0  0  0  0  0  0  0  0  0  0  0
  1  2  1  0
  2  3  1  0
  3  4  2  0
  3  5  1  0
  2  6  1  0
  6  7  2  0
  6  8  1  0
  8  9  1  0
  9 10  1  0
 10 11  1  0
 10 12  2  0
  9 13  2  0
 13 14  1  0
 14 15  2  0
 15 16  1  0
 16 17  2  0
 17 18  1  0
 18 19  1  0
 19 20  1  0
 20 21  2  0
 20 22  1  0
 22 23  1  0
 23 24  1  0
 24 25  1  0
 25 26  1  0
 26 27  1  0
 27 28  1  0
 17 29  1  0
 29 30  2  0
 30  8  1  0
 30 14  1  0
 26 22  1  0
  1 31  1  0
  1 32  1  0
  1 33  1  0
 11 34  1  0
 13 35  1  0
 15 36  1  0
 16 37  1  0
 18 38  1  0
 18 39  1  0
 19 40  1  0
 19 41  1  0
 23 42  1  0
 23 43  1  0
 24 44  1  0
 24 45  1  0
 25 46  1  0
 25 47  1  0
 26 48  1  6
 27 49  1  0
 27 50  1  0
 28 51  1  0
 29 52  1  0
M  CHG  3   5  -1  11  -1  18   1
M  END
>  <UniqueID>  (10) 
10

>  <SMILES>  (10) 
CN(C(=O)[O-])C(=O)n1c(C([NH-])=O)cc2ccc([NH2+]CC(=O)N3CCC[C@@H]3CO)cc21

>  <Energy>  (10) 
93.6074352006339

>  <Genealogy>  (10) 
CN(C(=O)[O-])C(=O)n1c(C([NH-])=O)cc2ccc([NH2+]CC(=O)N3CCC[C@@H]3CO)cc21 (protonated)
CN(C(=O)[O-])C(=O)n1c(C([NH-])=O)cc2ccc([NH2+]CC(=O)N3CCC[C@@H]3CO)cc21 (3D coordinates assigned)
CN(C(=O)[O-])C(=O)n1c(C([NH-])=O)cc2ccc([NH2+]CC(=O)N3CCC[C@@H]3CO)cc21 (nonaromatic ring conformer: 93.6074352006339 kcal/mol)

>  <smiles>  (10) 
CN(C(=O)O)C(=O)n1c(C(N)=O)cc2ccc(NCC(=O)N3CCC[C@@H]3CO)cc21

>  <score_type>  (10) 
oracle

>  <origin>  (10) 
adg

>  <m_score__min__energy>  (10) 
-10.76

>  <m_primary>  (10) 
energy

$$$$
10:0
     RDKit          3D

 38 39  0  0  0  0  0  0  0  0999 V2000
   -1.5840   26.0200  -26.7230 C   0  0  0  0  0  0  0  0  0  0  0  0
   -2.3770   24.8120  -26.9200 N   0  0  0  0  0  0  0  0  0  0  0  0
   -2.5340   24.2190  -28.2160 C   0  0  0  0  0  0  0  0  0  0  0  0
   -1.9310   24.7080  -29.2090 O   0  0  0  0  0  0  0  0  0  0  0  0
   -3.3920   23.0320  -28.3960 C   0  0  0  0  0  0  0  0  0  0  0  0
   -4.2110   22.7220  -27.4890 O   0  0  0  0  0  0  0  0  0  0  0  0
   -3.2990   22.2150  -29.5800 N   0  0  0  0  0  0  0  0  0  0  0  0
   -2.8560   20.8250  -29.4500 C   0  0  0  0  0  0  0  0  0  0  0  0
   -3.8270   22.6730  -30.8440 C   0  0  0  0  0  0  0  0  0  0  0  0
   -3.0560   22.8160  -31.8320 O   0  0  0  0  0  0  0  0  0  0  0  0
   -5.2320   22.9350  -31.0090 N   0  0  0  0  0  0  0  0  0  0  0  0
   -5.8750   24.1320  -30.9080 C   0  0  0  0  0  0  0  0  0  0  0  0
   -5.2570   25.4180  -30.5200 C   0  0  0  0  0  0  0  0  0  0  0  0
   -3.8900   25.6720  -30.8370 N   0  0  0  0  0  0  0  0  0  0  0  0
   -5.9270   26.3050  -29.9290 O   0  0  0  0  0  0  0  0  0  0  0  0
   -7.2360   23.9760  -31.1640 C   0  0  0  0  0  0  0  0  0  0  0  0
   -7.4060   22.6370  -31.4360 C   0  0  0  0  0  0  0  0  0  0  0  0
   -8.5530   21.9300  -31.7790 C   0  0  0  0  0  0  0  0  0  0  0  0
   -8.4280   20.5540  -32.0370 C   0  0  0  0  0  0  0  0  0  0  0  0
   -7.1670   19.9100  -31.9410 C   0  0  0  0  0  0  0  0  0  0  0  0
   -7.0330   18.4460  -32.2760 C   0  0  0  0  0  0  0  0  0  0  0  0
   -6.6030   18.2830  -33.5820 F   0  0  0  0  0  0  0  0  0  0  0  0
   -8.2630   17.8320  -32.1250 F   0  0  0  0  0  0  0  0  0  0  0  0
   -6.1170   17.8340  -31.4380 F   0  0  0  0  0  0  0  0  0  0  0  0
   -6.0200   20.6700  -31.6170 C   0  0  0  0  0  0  0  0  0  0  0  0
   -6.1810   22.0330  -31.3420 C   0  0  0  0  0  0  0  0  0  0  0  0
   -1.4615   26.2066  -25.6459 H   0  0  0  0  0  0  0  0  0  0  0  0
   -0.5954   25.8894  -27.1873 H   0  0  0  0  0  0  0  0  0  0  0  0
   -2.0970   26.8752  -27.1873 H   0  0  0  0  0  0  0  0  0  0  0  0
   -2.8700   24.3990  -26.0960 H   0  0  0  0  0  0  0  0  0  0  0  0
   -2.7731   20.5647  -28.3845 H   0  0  0  0  0  0  0  0  0  0  0  0
   -3.5869   20.1604  -29.9340 H   0  0  0  0  0  0  0  0  0  0  0  0
   -1.8754   20.7059  -29.9340 H   0  0  0  0  0  0  0  0  0  0  0  0
   -3.2090   24.8870  -30.9450 H   0  0  0  0  0  0  0  0  0  0  0  0
   -8.0104   24.7571  -31.1514 H   0  0  0  0  0  0  0  0  0  0  0  0
   -9.5292   22.4325  -31.8464 H   0  0  0  0  0  0  0  0  0  0  0  0
   -9.3173   19.9699  -32.3164 H   0  0  0  0  0  0  0  0  0  0  0  0
   -5.0253   20.2018  -31.5818 H   0  0  0  0  0  0  0  0  0  0  0  0
  1  2  1  0
  2  3  1  0
  3  4  2  0
  3  5  1  0
  5  6  2  0
  5  7  1  0
  7  8  1  0
  7  9  1  0
  9 10  2  0
  9 11  1  0
 11 12  1  0
 12 13  1  0
 13 14  1  0
 13 15  2  0
 12 16  2  0
 16 17  1  0
 17 18  2  0
 18 19  1  0
 19 20  2  0
 20 21  1  0
 21 22  1  0
 21 23  1  0
 21 24  1  0
 20 25  1  0
 25 26  2  0
 26 11  1  0
 26 17  1  0
  1 27  1  0
  1 28  1  0
  1 29  1  0
  2 30  1  0
  8 31  1  0
  8 32  1  0
  8 33  1  0
 14 34  1  0
 16 35  1  0
 18 36  1  0
 19 37  1  0
 25 38  1  0
M  CHG  1  14  -1
M  END
>  <UniqueID>  (11) 
11

>  <SMILES>  (11) 
CNC(=O)C(=O)N(C)C(=O)n1c(C([NH-])=O)cc2ccc(C(F)(F)F)cc21

>  <Energy>  (11) 
76.81632337348027

>  <Genealogy>  (11) 
CNC(=O)C(=O)N(C)C(=O)n1c(C([NH-])=O)cc2ccc(C(F)(F)F)cc21 (protonated)
CNC(=O)C(=O)N(C)C(=O)n1c(C([NH-])=O)cc2ccc(C(F)(F)F)cc21 (3D coordinates assigned)
CNC(=O)C(=O)N(C)C(=O)n1c(C([NH-])=O)cc2ccc(C(F)(F)F)cc21 (optimized conformer: 76.81632337348027 kcal/mol)

>  <smiles>  (11) 
CNC(=O)C(=O)N(C)C(=O)n1c(C(N)=O)cc2ccc(C(F)(F)F)cc21

>  <score_type>  (11) 
oracle

>  <origin>  (11) 
adg

>  <m_score__min__energy>  (11) 
-10.779999999999999

>  <m_primary>  (11) 
energy

$$$$
11:0
     RDKit          3D

 60 61  0  0  0  0  0  0  0  0999 V2000
   -0.3430   29.7990  -27.4290 C   0  0  0  0  0  0  0  0  0  0  0  0
    0.3900   28.6670  -27.0260 O   0  0  0  0  0  0  0  0  0  0  0  0
    1.0820   28.9520  -25.8270 C   0  0  0  0  0  0  0  0  0  0  0  0
    0.2840   28.4050  -24.6460 C   0  0  0  0  0  0  0  0  0  0  0  0
   -0.8940   27.7690  -25.1180 O   0  0  0  0  0  0  0  0  0  0  0  0
   -1.3750   26.8100  -24.1890 C   0  0  0  0  0  0  0  0  0  0  0  0
   -0.2910   25.7680  -23.8800 C   0  0  0  0  0  0  0  0  0  0  0  0
    0.0820   24.9950  -25.1170 C   0  0  0  0  0  0  0  0  0  0  0  0
    0.4140   23.7810  -25.0140 O   0  0  0  0  0  0  0  0  0  0  0  0
    0.0670   25.6350  -26.4040 N   0  0  0  0  0  0  0  0  0  0  0  0
    0.2400   24.8880  -27.6480 C   0  0  0  0  0  0  0  0  0  0  0  0
   -0.9530   25.0500  -28.5380 C   0  0  0  0  0  0  0  0  0  0  0  0
   -1.2570   26.2060  -28.9530 O   0  0  0  0  0  0  0  0  0  0  0  0
   -1.6960   23.9300  -28.9390 O   0  0  0  0  0  0  0  0  0  0  0  0
   -1.3190   23.1190  -30.0490 C   0  0  0  0  0  0  0  0  0  0  0  0
   -2.4010   22.9890  -30.9600 O   0  0  0  0  0  0  0  0  0  0  0  0
   -3.3350   21.9510  -30.8910 C   0  0  0  0  0  0  0  0  0  0  0  0
   -2.9560   20.7500  -30.7790 O   0  0  0  0  0  0  0  0  0  0  0  0
   -4.7330   22.2600  -30.9290 N   0  0  0  0  0  0  0  0  0  0  0  0
   -5.3570   23.3630  -30.4200 C   0  0  0  0  0  0  0  0  0  0  0  0
   -4.6790   24.5300  -29.8080 C   0  0  0  0  0  0  0  0  0  0  0  0
   -3.7210   25.2920  -30.5430 N   0  0  0  0  0  0  0  0  0  0  0  0
   -4.9420   24.8760  -28.6290 O   0  0  0  0  0  0  0  0  0  0  0  0
   -6.7230   23.3110  -30.7150 C   0  0  0  0  0  0  0  0  0  0  0  0
   -6.9090   22.1380  -31.4060 C   0  0  0  0  0  0  0  0  0  0  0  0
   -8.0550   21.6220  -31.9990 C   0  0  0  0  0  0  0  0  0  0  0  0
   -7.9520   20.4110  -32.7080 C   0  0  0  0  0  0  0  0  0  0  0  0
   -6.7050   19.7260  -32.8210 C   0  0  0  0  0  0  0  0  0  0  0  0
   -6.6210   18.4440  -33.5070 N   0  0  0  0  0  0  0  0  0  0  0  0
   -5.8620   18.3100  -34.7590 C   0  0  0  0  0  0  0  0  0  0  0  0
   -7.2540   17.2430  -32.9360 C   0  0  0  0  0  0  0  0  0  0  0  0
   -5.5520   20.3200  -32.2340 C   0  0  0  0  0  0  0  0  0  0  0  0
   -5.6930   21.5230  -31.5280 C   0  0  0  0  0  0  0  0  0  0  0  0
   -0.6953   30.3431  -26.5403 H   0  0  0  0  0  0  0  0  0  0  0  0
    0.3006   30.4574  -28.0308 H   0  0  0  0  0  0  0  0  0  0  0  0
   -1.2071   29.4811  -28.0308 H   0  0  0  0  0  0  0  0  0  0  0  0
    2.0739   28.4771  -25.8526 H   0  0  0  0  0  0  0  0  0  0  0  0
    1.2033   30.0400  -25.7194 H   0  0  0  0  0  0  0  0  0  0  0  0
    0.8977   27.6763  -24.0962 H   0  0  0  0  0  0  0  0  0  0  0  0
    0.0076   29.2340  -23.9779 H   0  0  0  0  0  0  0  0  0  0  0  0
   -1.6619   27.3206  -23.2579 H   0  0  0  0  0  0  0  0  0  0  0  0
   -2.2455   26.2983  -24.6254 H   0  0  0  0  0  0  0  0  0  0  0  0
    0.6019   26.2814  -23.4937 H   0  0  0  0  0  0  0  0  0  0  0  0
   -0.6844   25.0640  -23.1319 H   0  0  0  0  0  0  0  0  0  0  0  0
   -0.1080   26.6660  -26.4630 H   0  0  0  0  0  0  0  0  0  0  0  0
    1.1329   25.2610  -28.1710 H   0  0  0  0  0  0  0  0  0  0  0  0
    0.3551   23.8214  -27.4047 H   0  0  0  0  0  0  0  0  0  0  0  0
   -0.4658   23.5844  -30.5642 H   0  0  0  0  0  0  0  0  0  0  0  0
   -1.0410   22.1201  -29.6818 H   0  0  0  0  0  0  0  0  0  0  0  0
   -2.7000   25.2790  -30.3160 H   0  0  0  0  0  0  0  0  0  0  0  0
   -7.4890   24.0543  -30.4492 H   0  0  0  0  0  0  0  0  0  0  0  0
   -9.0181   22.1469  -31.9162 H   0  0  0  0  0  0  0  0  0  0  0  0
   -8.8479   19.9849  -33.1833 H   0  0  0  0  0  0  0  0  0  0  0  0
   -4.8030   18.1230  -34.5276 H   0  0  0  0  0  0  0  0  0  0  0  0
   -6.2637   17.4689  -35.3431 H   0  0  0  0  0  0  0  0  0  0  0  0
   -5.9514   19.2378  -35.3431 H   0  0  0  0  0  0  0  0  0  0  0  0
   -7.2241   17.2997  -31.8379 H   0  0  0  0  0  0  0  0  0  0  0  0
   -8.2999   17.1849  -33.2718 H   0  0  0  0  0  0  0  0  0  0  0  0
   -6.7108   16.3474  -33.2718 H   0  0  0  0  0  0  0  0  0  0  0  0
   -4.5660   19.8426  -32.3328 H   0  0  0  0  0  0  0  0  0  0  0  0
  1  2  1  0
  2  3  1  0
  3  4  1  0
  4  5  1  0
  5  6  1  0
  6  7  1  0
  7  8  1  0
  8  9  2  0
  8 10  1  0
 10 11  1  0
 11 12  1  0
 12 13  2  0
 12 14  1  0
 14 15  1  0
 15 16  1  0
 16 17  1  0
 17 18  2  0
 17 19  1  0
 19 20  1  0
 20 21  1  0
 21 22  1  0
 21 23  2  0
 20 24  2  0
 24 25  1  0
 25 26  2  0
 26 27  1  0
 27 28  2  0
 28 29  1  0
 29 30  1  0
 29 31  1  0
 28 32  1  0
 32 33  2  0
 33 19  1  0
 33 25  1  0
  1 34  1  0
  1 35  1  0
  1 36  1  0
  3 37  1  0
  3 38  1  0
  4 39  1  0
  4 40  1  0
  6 41  1  0
  6 42  1  0
  7 43  1  0
  7 44  1  0
 10 45  1  0
 11 46  1  0
 11 47  1  0
 15 48  1  0
 15 49  1  0
 22 50  1  0
 24 51  1  0
 26 52  1  0
 27 53  1  0
 30 54  1  0
 30 55  1  0
 30 56  1  0
 31 57  1  0
 31 58  1  0
 31 59  1  0
 32 60  1  0
M  CHG  1  22  -1
M  END
>  <UniqueID>  (12) 
12

>  <SMILES>  (12) 
COCCOCCC(=O)NCC(=O)OCOC(=O)n1c(C([NH-])=O)cc2ccc(N(C)C)cc21

>  <Energy>  (12) 
91.33026308690322

>  <Genealogy>  (12) 
COCCOCCC(=O)NCC(=O)OCOC(=O)n1c(C([NH-])=O)cc2ccc(N(C)C)cc21 (protonated)
COCCOCCC(=O)NCC(=O)OCOC(=O)n1c(C([NH-])=O)cc2ccc(N(C)C)cc21 (3D coordinates assigned)
COCCOCCC(=O)NCC(=O)OCOC(=O)n1c(C([NH-])=O)cc2ccc(N(C)C)cc21 (optimized conformer: 91.33026308690322 kcal/mol)

>  <smiles>  (12) 
COCCOCCC(=O)NCC(=O)OCOC(=O)n1c(C(N)=O)cc2ccc(N(C)C)cc21

>  <score_type>  (12) 
oracle

>  <origin>  (12) 
adg

>  <m_score__min__energy>  (12) 
-9.4100000000000001

>  <m_primary>  (12) 
energy

$$$$
12:0
     RDKit          3D

 66 68  0  0  0  0  0  0  0  0999 V2000
   -7.1600   23.2890  -32.3980 C   0  0  0  0  0  0  0  0  0  0  0  0
   -6.2450   23.1010  -31.1890 C   0  0  0  0  0  0  0  0  0  0  0  0
   -6.6300   24.0810  -30.0740 C   0  0  0  0  0  0  0  0  0  0  0  0
   -4.8940   23.3290  -31.5920 O   0  0  0  0  0  0  0  0  0  0  0  0
   -3.9740   22.2950  -31.8030 C   0  0  0  0  0  0  0  0  0  0  0  0
   -4.0320   21.6050  -32.8600 O   0  0  0  0  0  0  0  0  0  0  0  0
   -2.9850   21.9950  -30.8000 N   0  0  0  0  0  0  0  0  0  0  0  0
   -2.6200   22.7640  -29.7320 C   0  0  0  0  0  0  0  0  0  0  0  0
   -3.3240   23.9780  -29.2680 C   0  0  0  0  0  0  0  0  0  0  0  0
   -3.6960   25.0050  -30.1900 N   0  0  0  0  0  0  0  0  0  0  0  0
   -3.6040   24.1230  -28.0460 O   0  0  0  0  0  0  0  0  0  0  0  0
   -1.5180   22.2100  -29.0840 C   0  0  0  0  0  0  0  0  0  0  0  0
   -1.2110   21.0740  -29.7950 C   0  0  0  0  0  0  0  0  0  0  0  0
   -0.1770   20.1620  -29.6080 C   0  0  0  0  0  0  0  0  0  0  0  0
   -0.0770   19.0900  -30.5090 C   0  0  0  0  0  0  0  0  0  0  0  0
   -0.9940   18.9590  -31.5840 C   0  0  0  0  0  0  0  0  0  0  0  0
   -0.9350   17.7650  -32.4980 C   0  0  0  0  0  0  0  0  0  0  0  0
   -1.8140   18.0150  -33.6940 C   0  0  0  0  0  0  0  0  0  0  0  0
   -1.3260   18.6190  -34.6900 O   0  0  0  0  0  0  0  0  0  0  0  0
   -3.2260   17.7270  -33.6590 N   0  0  0  0  0  0  0  0  0  0  0  0
   -3.6790   16.4630  -33.0390 C   0  0  0  0  0  0  0  0  0  0  0  0
   -5.1880   16.2610  -33.1380 C   0  0  0  0  0  0  0  0  0  0  0  0
   -5.8420   17.5460  -32.9320 N   0  0  0  0  0  0  0  0  0  0  0  0
   -6.2370   17.9840  -31.6180 C   0  0  0  0  0  0  0  0  0  0  0  0
   -6.0380   17.2380  -30.6180 O   0  0  0  0  0  0  0  0  0  0  0  0
   -6.8430   19.2420  -31.4610 O   0  0  0  0  0  0  0  0  0  0  0  0
   -8.2080   19.5660  -31.7500 C   0  0  0  0  0  0  0  0  0  0  0  0
   -8.2570   20.0370  -33.2100 C   0  0  0  0  0  0  0  0  0  0  0  0
   -8.6930   20.7130  -30.8440 C   0  0  0  0  0  0  0  0  0  0  0  0
   -9.1160   18.3290  -31.5950 C   0  0  0  0  0  0  0  0  0  0  0  0
   -5.6280   18.5060  -34.0070 C   0  0  0  0  0  0  0  0  0  0  0  0
   -4.1220   18.7780  -34.1920 C   0  0  0  0  0  0  0  0  0  0  0  0
   -2.0180   19.9170  -31.7520 C   0  0  0  0  0  0  0  0  0  0  0  0
   -2.1140   20.9580  -30.8220 C   0  0  0  0  0  0  0  0  0  0  0  0
   -8.1835   23.4993  -32.0541 H   0  0  0  0  0  0  0  0  0  0  0  0
   -6.7969   24.1313  -33.0052 H   0  0  0  0  0  0  0  0  0  0  0  0
   -7.1584   22.3718  -33.0052 H   0  0  0  0  0  0  0  0  0  0  0  0
   -6.3518   22.0762  -30.8038 H   0  0  0  0  0  0  0  0  0  0  0  0
   -6.4463   23.6135  -29.0954 H   0  0  0  0  0  0  0  0  0  0  0  0
   -6.0240   24.9946  -30.1634 H   0  0  0  0  0  0  0  0  0  0  0  0
   -7.6959   24.3378  -30.1634 H   0  0  0  0  0  0  0  0  0  0  0  0
   -4.2720   25.8080  -29.8590 H   0  0  0  0  0  0  0  0  0  0  0  0
   -3.4900   24.9200  -31.2090 H   0  0  0  0  0  0  0  0  0  0  0  0
   -1.0031   22.5988  -28.1931 H   0  0  0  0  0  0  0  0  0  0  0  0
    0.5390   20.2772  -28.7809 H   0  0  0  0  0  0  0  0  0  0  0  0
    0.7207   18.3436  -30.3803 H   0  0  0  0  0  0  0  0  0  0  0  0
    0.1017   17.6062  -32.8298 H   0  0  0  0  0  0  0  0  0  0  0  0
   -1.2852   16.8707  -31.9617 H   0  0  0  0  0  0  0  0  0  0  0  0
   -3.1786   15.6245  -33.5455 H   0  0  0  0  0  0  0  0  0  0  0  0
   -3.4213   16.5083  -31.9706 H   0  0  0  0  0  0  0  0  0  0  0  0
   -5.4452   15.8693  -34.1332 H   0  0  0  0  0  0  0  0  0  0  0  0
   -5.5223   15.5420  -32.3756 H   0  0  0  0  0  0  0  0  0  0  0  0
   -8.3708   21.1307  -33.2388 H   0  0  0  0  0  0  0  0  0  0  0  0
   -7.3243   19.7519  -33.7188 H   0  0  0  0  0  0  0  0  0  0  0  0
   -9.1110   19.5660  -33.7188 H   0  0  0  0  0  0  0  0  0  0  0  0
   -8.5709   20.4241  -29.7897 H   0  0  0  0  0  0  0  0  0  0  0  0
   -8.1001   21.6169  -31.0476 H   0  0  0  0  0  0  0  0  0  0  0  0
   -9.7545   20.9173  -31.0476 H   0  0  0  0  0  0  0  0  0  0  0  0
   -9.2702   18.1189  -30.5263 H   0  0  0  0  0  0  0  0  0  0  0  0
  -10.0867   18.5244  -32.0741 H   0  0  0  0  0  0  0  0  0  0  0  0
   -8.6387   17.4614  -32.0741 H   0  0  0  0  0  0  0  0  0  0  0  0
   -6.0408   18.1006  -34.9426 H   0  0  0  0  0  0  0  0  0  0  0  0
   -6.1321   19.4491  -33.7491 H   0  0  0  0  0  0  0  0  0  0  0  0
   -3.9238   18.8813  -35.2690 H   0  0  0  0  0  0  0  0  0  0  0  0
   -3.9016   19.6899  -33.6177 H   0  0  0  0  0  0  0  0  0  0  0  0
   -2.7229   19.8465  -32.5935 H   0  0  0  0  0  0  0  0  0  0  0  0
  1  2  1  0
  2  3  1  0
  2  4  1  0
  4  5  1  0
  5  6  2  0
  5  7  1  0
  7  8  1  0
  8  9  1  0
  9 10  1  0
  9 11  2  0
  8 12  2  0
 12 13  1  0
 13 14  2  0
 14 15  1  0
 15 16  2  0
 16 17  1  0
 17 18  1  0
 18 19  2  0
 18 20  1  0
 20 21  1  0
 21 22  1  0
 22 23  1  0
 23 24  1  0
 24 25  2  0
 24 26  1  0
 26 27  1  0
 27 28  1  0
 27 29  1  0
 27 30  1  0
 23 31  1  0
 31 32  1  0
 16 33  1  0
 33 34  2  0
 34  7  1  0
 34 13  1  0
 32 20  1  0
  1 35  1  0
  1 36  1  0
  1 37  1  0
  2 38  1  0
  3 39  1  0
  3 40  1  0
  3 41  1  0
 10 42  1  0
 10 43  1  0
 12 44  1  0
 14 45  1  0
 15 46  1  0
 17 47  1  0
 17 48  1  0
 21 49  1  0
 21 50  1  0
 22 51  1  0
 22 52  1  0
 28 53  1  0
 28 54  1  0
 28 55  1  0
 29 56  1  0
 29 57  1  0
 29 58  1  0
 30 59  1  0
 30 60  1  0
 30 61  1  0
 31 62  1  0
 31 63  1  0
 32 64  1  0
 32 65  1  0
 33 66  1  0
M  END
>  <UniqueID>  (13) 
13

>  <SMILES>  (13) 
CC(C)OC(=O)n1c(C(N)=O)cc2ccc(CC(=O)N3CCN(C(=O)OC(C)(C)C)CC3)cc21

>  <Energy>  (13) 
97.7766337429765

>  <Genealogy>  (13) 
CC(C)OC(=O)n1c(C(N)=O)cc2ccc(CC(=O)N3CCN(C(=O)OC(C)(C)C)CC3)cc21 (3D coordinates assigned)
CC(C)OC(=O)n1c(C(N)=O)cc2ccc(CC(=O)N3CCN(C(=O)OC(C)(C)C)CC3)cc21 (nonaromatic ring conformer: 97.7766337429765 kcal/mol)

>  <smiles>  (13) 
CC(C)OC(=O)n1c(C(N)=O)cc2ccc(CC(=O)N3CCN(C(=O)OC(C)(C)C)CC3)cc21

>  <score_type>  (13) 
oracle

>  <origin>  (13) 
adg

>  <m_score__min__energy>  (13) 
-9.2300000000000004

>  <m_primary>  (13) 
energy

$$$$
13:0
     RDKit          3D

 41 42  0  0  0  0  0  0  0  0999 V2000
   -3.7470   23.2550  -27.7770 C   0  0  0  0  0  0  0  0  0  0  0  0
   -2.9230   23.1870  -29.0000 N   0  0  1  0  0  0  0  0  0  0  0  0
   -1.4870   22.9760  -28.6990 C   0  0  0  0  0  0  0  0  0  0  0  0
   -0.8990   24.0150  -27.7250 C   0  0  0  0  0  0  0  0  0  0  0  0
   -0.8770   25.3910  -28.3170 C   0  0  0  0  0  0  0  0  0  0  0  0
   -1.6140   25.6700  -29.2990 O   0  0  0  0  0  0  0  0  0  0  0  0
   -0.0210   26.3560  -27.8010 O   0  0  0  0  0  0  0  0  0  0  0  0
   -3.3870   22.1080  -29.8500 C   0  0  0  0  0  0  0  0  0  0  0  0
   -3.1940   20.9060  -29.5100 O   0  0  0  0  0  0  0  0  0  0  0  0
   -4.0070   22.3850  -31.1640 C   0  0  0  0  0  0  0  0  0  0  0  0
   -3.3280   22.2680  -32.2190 O   0  0  0  0  0  0  0  0  0  0  0  0
   -5.3970   22.7280  -31.2550 N   0  0  0  0  0  0  0  0  0  0  0  0
   -5.9950   23.9070  -30.9260 C   0  0  0  0  0  0  0  0  0  0  0  0
   -5.2980   25.1370  -30.4960 C   0  0  0  0  0  0  0  0  0  0  0  0
   -3.8930   25.2660  -30.7010 N   0  0  0  0  0  0  0  0  0  0  0  0
   -5.9270   26.0680  -29.9270 O   0  0  0  0  0  0  0  0  0  0  0  0
   -7.3740   23.8200  -31.1140 C   0  0  0  0  0  0  0  0  0  0  0  0
   -7.6000   22.5430  -31.5770 C   0  0  0  0  0  0  0  0  0  0  0  0
   -8.7910   21.9070  -31.9140 C   0  0  0  0  0  0  0  0  0  0  0  0
   -8.7260   20.5680  -32.3380 C   0  0  0  0  0  0  0  0  0  0  0  0
   -7.4790   19.8980  -32.4250 C   0  0  0  0  0  0  0  0  0  0  0  0
   -7.4260   18.4550  -32.8430 C   0  0  0  0  0  0  0  0  0  0  0  0
   -6.4270   18.2790  -33.9020 C   0  0  0  0  0  0  0  0  0  0  0  0
   -5.6390   18.1390  -34.7380 N   0  0  0  0  0  0  0  0  0  0  0  0
   -6.2920   20.5740  -32.0670 C   0  0  0  0  0  0  0  0  0  0  0  0
   -6.3890   21.9070  -31.6560 C   0  0  0  0  0  0  0  0  0  0  0  0
   -3.0954   23.2012  -26.8924 H   0  0  0  0  0  0  0  0  0  0  0  0
   -4.3059   24.2023  -27.7637 H   0  0  0  0  0  0  0  0  0  0  0  0
   -4.4537   22.4121  -27.7637 H   0  0  0  0  0  0  0  0  0  0  0  0
   -3.0480   24.0920  -29.5100 H   0  0  0  0  0  0  0  0  0  0  0  0
   -1.3686   21.9770  -28.2541 H   0  0  0  0  0  0  0  0  0  0  0  0
   -0.9410   23.0802  -29.6482 H   0  0  0  0  0  0  0  0  0  0  0  0
   -1.5113   24.0314  -26.8113 H   0  0  0  0  0  0  0  0  0  0  0  0
    0.1385   23.7240  -27.5040 H   0  0  0  0  0  0  0  0  0  0  0  0
   -3.5040   26.0420  -31.2800 H   0  0  0  0  0  0  0  0  0  0  0  0
   -8.1225   24.6050  -30.9312 H   0  0  0  0  0  0  0  0  0  0  0  0
   -9.7536   22.4355  -31.8506 H   0  0  0  0  0  0  0  0  0  0  0  0
   -9.6507   20.0353  -32.6047 H   0  0  0  0  0  0  0  0  0  0  0  0
   -7.1529   17.8341  -31.9770 H   0  0  0  0  0  0  0  0  0  0  0  0
   -8.4130   18.1510  -33.2217 H   0  0  0  0  0  0  0  0  0  0  0  0
   -5.3174   20.0657  -32.1103 H   0  0  0  0  0  0  0  0  0  0  0  0
  1  2  1  0
  2  3  1  0
  3  4  1  0
  4  5  1  0
  5  6  2  0
  5  7  1  0
  2  8  1  0
  8  9  2  0
  8 10  1  0
 10 11  2  0
 10 12  1  0
 12 13  1  0
 13 14  1  0
 14 15  1  0
 14 16  2  0
 13 17  2  0
 17 18  1  0
 18 19  2  0
 19 20  1  0
 20 21  2  0
 21 22  1  0
 22 23  1  0
 23 24  3  0
 21 25  1  0
 25 26  2  0
 26 12  1  0
 26 18  1  0
  1 27  1  0
  1 28  1  0
  1 29  1  0
  2 30  1  6
  3 31  1  0
  3 32  1  0
  4 33  1  0
  4 34  1  0
 15 35  1  0
 17 36  1  0
 19 37  1  0
 20 38  1  0
 22 39  1  0
 22 40  1  0
 25 41  1  0
M  CHG  3   2   1   7  -1  15  -1
M  END
>  <UniqueID>  (14) 
14

>  <SMILES>  (14) 
C[N@@H+](CCC(=O)[O-])C(=O)C(=O)n1c(C([NH-])=O)cc2ccc(CC#N)cc21

>  <Energy>  (14) 
79.48665562989412

>  <Genealogy>  (14) 
C[NH+](CCC(=O)[O-])C(=O)C(=O)n1c(C([NH-])=O)cc2ccc(CC#N)cc21 (protonated)
C[N@@H+](CCC(=O)[O-])C(=O)C(=O)n1c(C([NH-])=O)cc2ccc(CC#N)cc21 (chirality)
C[N@@H+](CCC(=O)[O-])C(=O)C(=O)n1c(C([NH-])=O)cc2ccc(CC#N)cc21 (3D coordinates assigned)
C[N@@H+](CCC(=O)[O-])C(=O)C(=O)n1c(C([NH-])=O)cc2ccc(CC#N)cc21 (optimized conformer: 79.48665562989412 kcal/mol)

>  <smiles>  (14) 
CN(CCC(=O)O)C(=O)C(=O)n1c(C(N)=O)cc2ccc(CC#N)cc21

>  <score_type>  (14) 
oracle

>  <origin>  (14) 
adg

>  <m_score__min__energy>  (14) 
-11.880000000000001

>  <m_primary>  (14) 
energy

$$$$
14:0
     RDKit          3D

 45 47  0  0  0  0  0  0  0  0999 V2000
   -6.6340   14.8270  -34.1940 C   0  0  0  0  0  0  0  0  0  0  0  0
   -6.1790   16.2390  -34.0360 C   0  0  0  0  0  0  0  0  0  0  0  0
   -6.8900   17.2600  -33.4330 C   0  0  0  0  0  0  0  0  0  0  0  0
   -6.0290   18.3470  -33.4620 C   0  0  0  0  0  0  0  0  0  0  0  0
   -6.3390   19.6890  -32.9230 C   0  0  0  0  0  0  0  0  0  0  0  0
   -7.6780   20.1490  -32.8510 C   0  0  0  0  0  0  0  0  0  0  0  0
   -7.9730   21.4230  -32.3380 C   0  0  0  0  0  0  0  0  0  0  0  0
   -6.9140   22.2060  -31.8870 C   0  0  0  0  0  0  0  0  0  0  0  0
   -6.9140   23.4800  -31.3680 C   0  0  0  0  0  0  0  0  0  0  0  0
   -5.5790   23.7670  -31.0930 C   0  0  0  0  0  0  0  0  0  0  0  0
   -5.1340   25.0150  -30.4410 C   0  0  0  0  0  0  0  0  0  0  0  0
   -3.9210   25.6510  -30.8280 N   0  0  0  0  0  0  0  0  0  0  0  0
   -5.8090   25.4970  -29.4920 O   0  0  0  0  0  0  0  0  0  0  0  0
   -4.7820   22.7140  -31.4350 N   0  0  0  0  0  0  0  0  0  0  0  0
   -3.3480   22.6520  -31.4010 C   0  0  0  0  0  0  0  0  0  0  0  0
   -2.7160   22.1600  -32.3740 O   0  0  0  0  0  0  0  0  0  0  0  0
   -2.6580   23.1720  -30.2990 O   0  0  0  0  0  0  0  0  0  0  0  0
   -2.5950   22.5250  -29.0280 C   0  0  0  0  0  0  0  0  0  0  0  0
   -3.7140   23.0700  -28.1410 C   0  0  0  0  0  0  0  0  0  0  0  0
   -2.7350   21.0090  -29.1940 C   0  0  0  0  0  0  0  0  0  0  0  0
   -5.6170   21.7650  -31.9170 C   0  0  0  0  0  0  0  0  0  0  0  0
   -5.2930   20.5070  -32.4410 C   0  0  0  0  0  0  0  0  0  0  0  0
   -4.8590   17.9580  -34.0230 N   0  0  0  0  0  0  0  0  0  0  0  0
   -3.6460   18.7520  -34.2030 C   0  0  0  0  0  0  0  0  0  0  0  0
   -4.9560   16.6860  -34.3730 N   0  0  0  0  0  0  0  0  0  0  0  0
   -6.7795   14.3754  -33.2016 H   0  0  0  0  0  0  0  0  0  0  0  0
   -7.5838   14.8077  -34.7485 H   0  0  0  0  0  0  0  0  0  0  0  0
   -5.8741   14.2568  -34.7485 H   0  0  0  0  0  0  0  0  0  0  0  0
   -7.9097   17.2194  -33.0224 H   0  0  0  0  0  0  0  0  0  0  0  0
   -8.4952   19.5010  -33.2008 H   0  0  0  0  0  0  0  0  0  0  0  0
   -9.0088   21.7906  -32.2940 H   0  0  0  0  0  0  0  0  0  0  0  0
   -7.7837   24.1334  -31.2048 H   0  0  0  0  0  0  0  0  0  0  0  0
   -2.9970   25.2940  -30.4980 H   0  0  0  0  0  0  0  0  0  0  0  0
   -1.6210   22.7272  -28.5584 H   0  0  0  0  0  0  0  0  0  0  0  0
   -3.4413   22.9372  -27.0836 H   0  0  0  0  0  0  0  0  0  0  0  0
   -3.8597   24.1400  -28.3505 H   0  0  0  0  0  0  0  0  0  0  0  0
   -4.6463   22.5251  -28.3505 H   0  0  0  0  0  0  0  0  0  0  0  0
   -2.7789   20.5341  -28.2028 H   0  0  0  0  0  0  0  0  0  0  0  0
   -3.6577   20.7846  -29.7492 H   0  0  0  0  0  0  0  0  0  0  0  0
   -1.8690   20.6194  -29.7492 H   0  0  0  0  0  0  0  0  0  0  0  0
   -4.2484   20.1641  -32.4763 H   0  0  0  0  0  0  0  0  0  0  0  0
   -3.2346   19.0213  -33.2190 H   0  0  0  0  0  0  0  0  0  0  0  0
   -2.9031   18.1648  -34.7628 H   0  0  0  0  0  0  0  0  0  0  0  0
   -3.8869   19.6678  -34.7628 H   0  0  0  0  0  0  0  0  0  0  0  0
   -4.1910   16.1260  -34.8140 H   0  0  0  0  0  0  0  0  0  0  0  0
  1  2  1  0
  2  3  1  0
  3  4  2  0
  4  5  1  0
  5  6  2  0
  6  7  1  0
  7  8  2  0
  8  9  1  0
  9 10  2  0
 10 11  1  0
 11 12  1  0
 11 13  2  0
 10 14  1  0
 14 15  1  0
 15 16  2  0
 15 17  1  0
 17 18  1  0
 18 19  1  0
 18 20  1  0
 14 21  1  0
 21 22  2  0
  4 23  1  0
 23 24  1  0
 23 25  1  0
 25  2  2  0
 22  5  1  0
 21  8  1  0
  1 26  1  0
  1 27  1  0
  1 28  1  0
  3 29  1  0
  6 30  1  0
  7 31  1  0
  9 32  1  0
 12 33  1  0
 18 34  1  0
 19 35  1  0
 19 36  1  0
 19 37  1  0
 20 38  1  0
 20 39  1  0
 20 40  1  0
 22 41  1  0
 24 42  1  0
 24 43  1  0
 24 44  1  0
 25 45  1  0
M  CHG  2  12  -1  25   1
M  END
>  <UniqueID>  (15) 
15

>  <SMILES>  (15) 
Cc1cc(-c2ccc3cc(C([NH-])=O)n(C(=O)OC(C)C)c3c2)n(C)[nH+]1

>  <Energy>  (15) 
113.24152960952664

>  <Genealogy>  (15) 
Cc1cc(-c2ccc3cc(C([NH-])=O)n(C(=O)OC(C)C)c3c2)n(C)[nH+]1 (protonated)
Cc1cc(-c2ccc3cc(C([NH-])=O)n(C(=O)OC(C)C)c3c2)n(C)[nH+]1 (3D coordinates assigned)
Cc1cc(-c2ccc3cc(C([NH-])=O)n(C(=O)OC(C)C)c3c2)n(C)[nH+]1 (optimized conformer: 113.24152960952664 kcal/mol)

>  <smiles>  (15) 
Cc1cc(-c2ccc3cc(C(N)=O)n(C(=O)OC(C)C)c3c2)n(C)n1

>  <score_type>  (15) 
oracle

>  <origin>  (15) 
adg

>  <m_score__min__energy>  (15) 
-10.970000000000001

>  <m_primary>  (15) 
energy

$$$$
15:0
     RDKit          3D

 39 40  0  0  0  0  0  0  0  0999 V2000
   -0.9330   25.6720  -26.5210 C   0  0  0  0  0  0  0  0  0  0  0  0
   -1.1170   24.4360  -27.2890 N   0  0  0  0  0  0  0  0  0  0  0  0
   -1.1130   23.1410  -26.6000 C   0  0  0  0  0  0  0  0  0  0  0  0
   -1.3650   24.5350  -28.7100 C   0  0  0  0  0  0  0  0  0  0  0  0
   -1.3400   25.6660  -29.2680 O   0  0  0  0  0  0  0  0  0  0  0  0
   -1.6750   23.3530  -29.5470 C   0  0  0  0  0  0  0  0  0  0  0  0
   -0.7590   22.8210  -30.2300 O   0  0  0  0  0  0  0  0  0  0  0  0
   -3.0560   22.8180  -29.6380 C   0  0  0  0  0  0  0  0  0  0  0  0
   -3.7230   22.5950  -28.5330 C   0  0  0  0  0  0  0  0  0  0  0  0
   -4.3530   22.3840  -27.4890 O   0  0  0  0  0  0  0  0  0  0  0  0
   -3.7260   22.5870  -30.9430 C   0  0  0  0  0  0  0  0  0  0  0  0
   -3.0610   22.1460  -31.9200 O   0  0  0  0  0  0  0  0  0  0  0  0
   -5.1350   22.8230  -31.1070 N   0  0  0  0  0  0  0  0  0  0  0  0
   -5.8110   23.9960  -30.9500 C   0  0  0  0  0  0  0  0  0  0  0  0
   -5.2340   25.2770  -30.4870 C   0  0  0  0  0  0  0  0  0  0  0  0
   -3.9130   25.6670  -30.8540 N   0  0  0  0  0  0  0  0  0  0  0  0
   -5.9080   26.0270  -29.7300 O   0  0  0  0  0  0  0  0  0  0  0  0
   -7.1660   23.8180  -31.2260 C   0  0  0  0  0  0  0  0  0  0  0  0
   -7.2990   22.4910  -31.5650 C   0  0  0  0  0  0  0  0  0  0  0  0
   -8.4280   21.7700  -31.9410 C   0  0  0  0  0  0  0  0  0  0  0  0
   -8.2660   20.4120  -32.2600 C   0  0  0  0  0  0  0  0  0  0  0  0
   -6.9880   19.7960  -32.1880 C   0  0  0  0  0  0  0  0  0  0  0  0
   -6.8180   18.3500  -32.5770 C   0  0  0  0  0  0  0  0  0  0  0  0
   -6.4660   18.2440  -33.9120 F   0  0  0  0  0  0  0  0  0  0  0  0
   -8.0080   17.6790  -32.3700 F   0  0  0  0  0  0  0  0  0  0  0  0
   -5.8250   17.7530  -31.8210 F   0  0  0  0  0  0  0  0  0  0  0  0
   -5.8620   20.5710  -31.8280 C   0  0  0  0  0  0  0  0  0  0  0  0
   -6.0580   21.9150  -31.4950 C   0  0  0  0  0  0  0  0  0  0  0  0
   -0.9670   25.4439  -25.4455 H   0  0  0  0  0  0  0  0  0  0  0  0
    0.0413   26.1173  -26.7708 H   0  0  0  0  0  0  0  0  0  0  0  0
   -1.7354   26.3818  -26.7708 H   0  0  0  0  0  0  0  0  0  0  0  0
   -1.1135   23.3044  -25.5122 H   0  0  0  0  0  0  0  0  0  0  0  0
   -2.0094   22.5710  -26.8856 H   0  0  0  0  0  0  0  0  0  0  0  0
   -0.2131   22.5765  -26.8856 H   0  0  0  0  0  0  0  0  0  0  0  0
   -3.0820   25.2920  -30.3470 H   0  0  0  0  0  0  0  0  0  0  0  0
   -7.9605   24.5775  -31.1821 H   0  0  0  0  0  0  0  0  0  0  0  0
   -9.4172   22.2490  -31.9870 H   0  0  0  0  0  0  0  0  0  0  0  0
   -9.1389   19.8184  -32.5692 H   0  0  0  0  0  0  0  0  0  0  0  0
   -4.8555   20.1275  -31.8102 H   0  0  0  0  0  0  0  0  0  0  0  0
  1  2  1  0
  2  3  1  0
  2  4  1  0
  4  5  2  0
  4  6  1  0
  6  7  2  0
  6  8  1  0
  8  9  2  0
  9 10  2  0
  8 11  1  0
 11 12  2  0
 11 13  1  0
 13 14  1  0
 14 15  1  0
 15 16  1  0
 15 17  2  0
 14 18  2  0
 18 19  1  0
 19 20  2  0
 20 21  1  0
 21 22  2  0
 22 23  1  0
 23 24  1  0
 23 25  1  0
 23 26  1  0
 22 27  1  0
 27 28  2  0
 28 13  1  0
 28 19  1  0
  1 29  1  0
  1 30  1  0
  1 31  1  0
  3 32  1  0
  3 33  1  0
  3 34  1  0
 16 35  1  0
 18 36  1  0
 20 37  1  0
 21 38  1  0
 27 39  1  0
M  CHG  1  16  -1
M  END
>  <UniqueID>  (16) 
16

>  <SMILES>  (16) 
CN(C)C(=O)C(=O)C(=C=O)C(=O)n1c(C([NH-])=O)cc2ccc(C(F)(F)F)cc21

>  <Energy>  (16) 
79.3323289109963

>  <Genealogy>  (16) 
CN(C)C(=O)C(=O)C(=C=O)C(=O)n1c(C([NH-])=O)cc2ccc(C(F)(F)F)cc21 (protonated)
CN(C)C(=O)C(=O)C(=C=O)C(=O)n1c(C([NH-])=O)cc2ccc(C(F)(F)F)cc21 (3D coordinates assigned)
CN(C)C(=O)C(=O)C(=C=O)C(=O)n1c(C([NH-])=O)cc2ccc(C(F)(F)F)cc21 (optimized conformer: 79.3323289109963 kcal/mol)

>  <smiles>  (16) 
CN(C)C(=O)C(=O)C(=C=O)C(=O)n1c(C(N)=O)cc2ccc(C(F)(F)F)cc21

>  <score_type>  (16) 
oracle

>  <origin>  (16) 
adg

>  <m_score__min__energy>  (16) 
-10.94

>  <m_primary>  (16) 
energy

$$$$
16:0
     RDKit          3D

 33 34  0  0  0  0  0  0  0  0999 V2000
   -3.8550   25.4060  -30.8430 N   0  0  0  0  0  0  0  0  0  0  0  0
   -5.2180   25.2170  -30.4690 C   0  0  0  0  0  0  0  0  0  0  0  0
   -5.8010   26.1070  -29.7960 O   0  0  0  0  0  0  0  0  0  0  0  0
   -5.9390   24.0060  -30.9090 C   0  0  0  0  0  0  0  0  0  0  0  0
   -7.3270   23.9350  -31.0150 C   0  0  0  0  0  0  0  0  0  0  0  0
   -7.6010   22.6330  -31.3630 C   0  0  0  0  0  0  0  0  0  0  0  0
   -8.8200   22.0110  -31.6120 C   0  0  0  0  0  0  0  0  0  0  0  0
   -8.8060   20.6560  -31.9830 C   0  0  0  0  0  0  0  0  0  0  0  0
   -7.5810   19.9540  -32.1050 C   0  0  0  0  0  0  0  0  0  0  0  0
   -7.5680   18.5110  -32.5200 C   0  0  0  0  0  0  0  0  0  0  0  0
   -6.4280   17.8960  -32.0360 F   0  0  0  0  0  0  0  0  0  0  0  0
   -8.6840   17.8690  -32.0120 F   0  0  0  0  0  0  0  0  0  0  0  0
   -6.3620   20.6200  -31.8460 C   0  0  0  0  0  0  0  0  0  0  0  0
   -6.4080   21.9640  -31.4600 C   0  0  0  0  0  0  0  0  0  0  0  0
   -5.3760   22.7960  -31.1870 N   0  0  0  0  0  0  0  0  0  0  0  0
   -3.9780   22.4750  -31.2630 C   0  0  0  0  0  0  0  0  0  0  0  0
   -3.4750   22.1060  -32.3590 O   0  0  0  0  0  0  0  0  0  0  0  0
   -3.1760   22.5960  -30.1250 O   0  0  0  0  0  0  0  0  0  0  0  0
   -1.7560   22.4980  -30.1700 C   0  0  0  0  0  0  0  0  0  0  0  0
   -1.1810   23.7920  -30.0240 O   0  0  0  0  0  0  0  0  0  0  0  0
   -1.3960   24.5950  -28.9000 C   0  0  0  0  0  0  0  0  0  0  0  0
   -2.7260   24.8220  -28.4420 N   0  0  0  0  0  0  0  0  0  0  0  0
   -0.4260   25.1190  -28.2870 O   0  0  0  0  0  0  0  0  0  0  0  0
   -3.1180   24.7270  -30.5490 H   0  0  0  0  0  0  0  0  0  0  0  0
   -8.0501   24.7482  -30.8543 H   0  0  0  0  0  0  0  0  0  0  0  0
   -9.7668   22.5636  -31.5211 H   0  0  0  0  0  0  0  0  0  0  0  0
   -9.7546   20.1352  -32.1806 H   0  0  0  0  0  0  0  0  0  0  0  0
   -7.5785   18.4531  -33.6184 H   0  0  0  0  0  0  0  0  0  0  0  0
   -5.4006   20.0948  -31.9454 H   0  0  0  0  0  0  0  0  0  0  0  0
   -1.4082   21.8490  -29.3528 H   0  0  0  0  0  0  0  0  0  0  0  0
   -1.4507   22.0706  -31.1365 H   0  0  0  0  0  0  0  0  0  0  0  0
   -2.9030   25.4190  -27.6040 H   0  0  0  0  0  0  0  0  0  0  0  0
   -3.5340   24.3920  -28.9440 H   0  0  0  0  0  0  0  0  0  0  0  0
  1  2  1  0
  2  3  2  0
  2  4  1  0
  4  5  2  0
  5  6  1  0
  6  7  2  0
  7  8  1  0
  8  9  2  0
  9 10  1  0
 10 11  1  0
 10 12  1  0
  9 13  1  0
 13 14  2  0
 14 15  1  0
 15 16  1  0
 16 17  2  0
 16 18  1  0
 18 19  1  0
 19 20  1  0
 20 21  1  0
 21 22  1  0
 21 23  2  0
 15  4  1  0
 14  6  1  0
  1 24  1  0
  5 25  1  0
  7 26  1  0
  8 27  1  0
 10 28  1  0
 13 29  1  0
 19 30  1  0
 19 31  1  0
 22 32  1  0
 22 33  1  0
M  CHG  1   1  -1
M  END
>  <UniqueID>  (17) 
17

>  <SMILES>  (17) 
[NH-]C(=O)c1cc2ccc(C(F)F)cc2n1C(=O)OCOC(N)=O

>  <Energy>  (17) 
66.55030557891622

>  <Genealogy>  (17) 
[NH-]C(=O)c1cc2ccc(C(F)F)cc2n1C(=O)OCOC(N)=O (protonated)
[NH-]C(=O)c1cc2ccc(C(F)F)cc2n1C(=O)OCOC(N)=O (3D coordinates assigned)
[NH-]C(=O)c1cc2ccc(C(F)F)cc2n1C(=O)OCOC(N)=O (optimized conformer: 66.55030557891622 kcal/mol)

>  <smiles>  (17) 
NC(=O)OCOC(=O)n1c(C(N)=O)cc2ccc(C(F)F)cc21

>  <score_type>  (17) 
oracle

>  <origin>  (17) 
adg

>  <m_score__min__energy>  (17) 
-9.3399999999999999

>  <m_primary>  (17) 
energy

$$$$
17:0
     RDKit          3D

 34 35  0  0  0  0  0  0  0  0999 V2000
   -1.0910   21.6450  -31.1650 C   0  0  0  0  0  0  0  0  0  0  0  0
   -1.9650   21.4170  -32.3220 N   0  0  0  0  0  0  0  0  0  0  0  0
   -1.4280   20.7540  -33.5150 C   0  0  0  0  0  0  0  0  0  0  0  0
   -3.3200   21.9170  -32.3540 C   0  0  0  0  0  0  0  0  0  0  0  0
   -3.9120   22.0250  -33.4620 O   0  0  0  0  0  0  0  0  0  0  0  0
   -4.0570   22.3090  -31.1300 C   0  0  0  0  0  0  0  0  0  0  0  0
   -3.5000   22.2460  -30.0020 O   0  0  0  0  0  0  0  0  0  0  0  0
   -5.4390   22.6890  -31.2080 N   0  0  0  0  0  0  0  0  0  0  0  0
   -5.9880   23.9160  -30.9820 C   0  0  0  0  0  0  0  0  0  0  0  0
   -5.2650   25.1070  -30.4860 C   0  0  0  0  0  0  0  0  0  0  0  0
   -3.8640   25.2330  -30.7150 N   0  0  0  0  0  0  0  0  0  0  0  0
   -5.8780   26.0280  -29.8860 O   0  0  0  0  0  0  0  0  0  0  0  0
   -7.3620   23.8850  -31.2100 C   0  0  0  0  0  0  0  0  0  0  0  0
   -7.6420   22.5880  -31.5750 C   0  0  0  0  0  0  0  0  0  0  0  0
   -8.8540   21.9910  -31.9130 C   0  0  0  0  0  0  0  0  0  0  0  0
   -8.8430   20.6290  -32.2600 C   0  0  0  0  0  0  0  0  0  0  0  0
   -7.6290   19.8990  -32.2790 C   0  0  0  0  0  0  0  0  0  0  0  0
   -7.6350   18.4390  -32.6220 C   0  0  0  0  0  0  0  0  0  0  0  0
   -8.7070   17.8240  -32.0020 F   0  0  0  0  0  0  0  0  0  0  0  0
   -6.4210   20.5340  -31.9160 C   0  0  0  0  0  0  0  0  0  0  0  0
   -6.4650   21.8860  -31.5650 C   0  0  0  0  0  0  0  0  0  0  0  0
   -1.6637   21.4956  -30.2378 H   0  0  0  0  0  0  0  0  0  0  0  0
   -0.2505   20.9361  -31.1951 H   0  0  0  0  0  0  0  0  0  0  0  0
   -0.7039   22.6742  -31.1951 H   0  0  0  0  0  0  0  0  0  0  0  0
   -0.7628   19.9327  -33.2100 H   0  0  0  0  0  0  0  0  0  0  0  0
   -2.2572   20.3507  -34.1149 H   0  0  0  0  0  0  0  0  0  0  0  0
   -0.8613   21.4813  -34.1149 H   0  0  0  0  0  0  0  0  0  0  0  0
   -3.4770   26.0510  -31.2370 H   0  0  0  0  0  0  0  0  0  0  0  0
   -8.0722   24.7199  -31.1178 H   0  0  0  0  0  0  0  0  0  0  0  0
   -9.7908   22.5675  -31.9085 H   0  0  0  0  0  0  0  0  0  0  0  0
   -9.7858   20.1252  -32.5192 H   0  0  0  0  0  0  0  0  0  0  0  0
   -7.7235   18.3188  -33.7118 H   0  0  0  0  0  0  0  0  0  0  0  0
   -6.6980   17.9776  -32.2770 H   0  0  0  0  0  0  0  0  0  0  0  0
   -5.4711   19.9794  -31.9097 H   0  0  0  0  0  0  0  0  0  0  0  0
  1  2  1  0
  2  3  1  0
  2  4  1  0
  4  5  2  0
  4  6  1  0
  6  7  2  0
  6  8  1  0
  8  9  1  0
  9 10  1  0
 10 11  1  0
 10 12  2  0
  9 13  2  0
 13 14  1  0
 14 15  2  0
 15 16  1  0
 16 17  2  0
 17 18  1  0
 18 19  1  0
 17 20  1  0
 20 21  2  0
 21  8  1  0
 21 14  1  0
  1 22  1  0
  1 23  1  0
  1 24  1  0
  3 25  1  0
  3 26  1  0
  3 27  1  0
 11 28  1  0
 13 29  1  0
 15 30  1  0
 16 31  1  0
 18 32  1  0
 18 33  1  0
 20 34  1  0
M  CHG  1  11  -1
M  END
>  <UniqueID>  (18) 
18

>  <SMILES>  (18) 
CN(C)C(=O)C(=O)n1c(C([NH-])=O)cc2ccc(CF)cc21

>  <Energy>  (18) 
72.9106788953712

>  <Genealogy>  (18) 
CN(C)C(=O)C(=O)n1c(C([NH-])=O)cc2ccc(CF)cc21 (protonated)
CN(C)C(=O)C(=O)n1c(C([NH-])=O)cc2ccc(CF)cc21 (3D coordinates assigned)
CN(C)C(=O)C(=O)n1c(C([NH-])=O)cc2ccc(CF)cc21 (optimized conformer: 72.9106788953712 kcal/mol)

>  <smiles>  (18) 
CN(C)C(=O)C(=O)n1c(C(N)=O)cc2ccc(CF)cc21

>  <score_type>  (18) 
oracle

>  <origin>  (18) 
adg

>  <m_score__min__energy>  (18) 
-9.9499999999999993

>  <m_primary>  (18) 
energy

$$$$
18:0
     RDKit          3D

 46 47  0  0  0  0  0  0  0  0999 V2000
   -2.3420   20.3950  -30.6320 C   0  0  0  0  0  0  0  0  0  0  0  0
   -2.9170   21.3760  -31.5570 N   0  0  0  0  0  0  0  0  0  0  0  0
   -3.3030   22.6750  -31.0700 C   0  0  0  0  0  0  0  0  0  0  0  0
   -2.6230   23.2330  -30.1660 O   0  0  0  0  0  0  0  0  0  0  0  0
   -4.4460   23.3020  -31.5940 O   0  0  0  0  0  0  0  0  0  0  0  0
   -5.5330   23.8600  -30.8400 C   0  0  0  0  0  0  0  0  0  0  0  0
   -6.7920   23.7610  -31.7180 C   0  0  0  0  0  0  0  0  0  0  0  0
   -5.7690   23.0430  -29.5550 C   0  0  0  0  0  0  0  0  0  0  0  0
   -5.2610   25.3440  -30.4930 C   0  0  0  0  0  0  0  0  0  0  0  0
   -3.9150   25.6710  -30.7240 O   0  0  0  0  0  0  0  0  0  0  0  0
   -3.1810   21.0010  -32.9220 C   0  0  0  0  0  0  0  0  0  0  0  0
   -3.1520   21.8740  -33.8330 O   0  0  0  0  0  0  0  0  0  0  0  0
   -3.4820   19.6380  -33.2600 N   0  0  0  0  0  0  0  0  0  0  0  0
   -2.7110   18.7660  -33.9670 C   0  0  0  0  0  0  0  0  0  0  0  0
   -1.3290   19.0280  -34.4270 C   0  0  0  0  0  0  0  0  0  0  0  0
   -0.9620   20.3040  -34.9570 N   0  0  0  0  0  0  0  0  0  0  0  0
   -0.4610   18.1170  -34.3720 O   0  0  0  0  0  0  0  0  0  0  0  0
   -3.3840   17.5550  -34.1380 C   0  0  0  0  0  0  0  0  0  0  0  0
   -4.6020   17.7220  -33.5180 C   0  0  0  0  0  0  0  0  0  0  0  0
   -5.6790   16.8470  -33.4030 C   0  0  0  0  0  0  0  0  0  0  0  0
   -6.8300   17.3040  -32.7380 C   0  0  0  0  0  0  0  0  0  0  0  0
   -6.8820   18.6150  -32.2020 C   0  0  0  0  0  0  0  0  0  0  0  0
   -8.1330   19.1110  -31.5390 C   0  0  0  0  0  0  0  0  0  0  0  0
   -9.1080   20.0370  -32.7060 Cl  0  0  0  0  0  0  0  0  0  0  0  0
   -5.7750   19.4780  -32.3510 C   0  0  0  0  0  0  0  0  0  0  0  0
   -4.6360   18.9900  -33.0000 C   0  0  0  0  0  0  0  0  0  0  0  0
   -2.5291   20.7142  -29.5961 H   0  0  0  0  0  0  0  0  0  0  0  0
   -2.8075   19.4131  -30.8029 H   0  0  0  0  0  0  0  0  0  0  0  0
   -1.2578   20.3215  -30.8029 H   0  0  0  0  0  0  0  0  0  0  0  0
   -7.6823   23.6910  -31.0758 H   0  0  0  0  0  0  0  0  0  0  0  0
   -6.8674   24.6560  -32.3531 H   0  0  0  0  0  0  0  0  0  0  0  0
   -6.7266   22.8652  -32.3531 H   0  0  0  0  0  0  0  0  0  0  0  0
   -5.5851   23.6795  -28.6769 H   0  0  0  0  0  0  0  0  0  0  0  0
   -6.8080   22.6824  -29.5354 H   0  0  0  0  0  0  0  0  0  0  0  0
   -5.0823   22.1839  -29.5354 H   0  0  0  0  0  0  0  0  0  0  0  0
   -5.9002   25.9839  -31.1190 H   0  0  0  0  0  0  0  0  0  0  0  0
   -5.4852   25.5041  -29.4281 H   0  0  0  0  0  0  0  0  0  0  0  0
   -3.5180   24.9190  -31.2360 H   0  0  0  0  0  0  0  0  0  0  0  0
    0.0070   20.4640  -35.3100 H   0  0  0  0  0  0  0  0  0  0  0  0
   -1.6320   21.1050  -34.9680 H   0  0  0  0  0  0  0  0  0  0  0  0
   -3.0186   16.6572  -34.6581 H   0  0  0  0  0  0  0  0  0  0  0  0
   -5.6306   15.8300  -33.8195 H   0  0  0  0  0  0  0  0  0  0  0  0
   -7.6988   16.6376  -32.6326 H   0  0  0  0  0  0  0  0  0  0  0  0
   -8.7174   18.2535  -31.1741 H   0  0  0  0  0  0  0  0  0  0  0  0
   -7.8627   19.7619  -30.6944 H   0  0  0  0  0  0  0  0  0  0  0  0
   -5.8072   20.5081  -31.9665 H   0  0  0  0  0  0  0  0  0  0  0  0
  1  2  1  0
  2  3  1  0
  3  4  2  0
  3  5  1  0
  5  6  1  0
  6  7  1  0
  6  8  1  0
  6  9  1  0
  9 10  1  0
  2 11  1  0
 11 12  2  0
 11 13  1  0
 13 14  1  0
 14 15  1  0
 15 16  1  0
 15 17  2  0
 14 18  2  0
 18 19  1  0
 19 20  2  0
 20 21  1  0
 21 22  2  0
 22 23  1  0
 23 24  1  0
 22 25  1  0
 25 26  2  0
 26 13  1  0
 26 19  1  0
  1 27  1  0
  1 28  1  0
  1 29  1  0
  7 30  1  0
  7 31  1  0
  7 32  1  0
  8 33  1  0
  8 34  1  0
  8 35  1  0
  9 36  1  0
  9 37  1  0
 10 38  1  0
 16 39  1  0
 16 40  1  0
 18 41  1  0
 20 42  1  0
 21 43  1  0
 23 44  1  0
 23 45  1  0
 25 46  1  0
M  END
>  <UniqueID>  (19) 
19

>  <SMILES>  (19) 
CN(C(=O)OC(C)(C)CO)C(=O)n1c(C(N)=O)cc2ccc(CCl)cc21

>  <Energy>  (19) 
80.99970019635325

>  <Genealogy>  (19) 
CN(C(=O)OC(C)(C)CO)C(=O)n1c(C(N)=O)cc2ccc(CCl)cc21 (3D coordinates assigned)
CN(C(=O)OC(C)(C)CO)C(=O)n1c(C(N)=O)cc2ccc(CCl)cc21 (optimized conformer: 80.99970019635325 kcal/mol)

>  <smiles>  (19) 
CN(C(=O)OC(C)(C)CO)C(=O)n1c(C(N)=O)cc2ccc(CCl)cc21

>  <score_type>  (19) 
oracle

>  <origin>  (19) 
adg

>  <m_score__min__energy>  (19) 
-10.09

>  <m_primary>  (19) 
energy

$$$$
19:0
     RDKit          3D

 65 67  0  0  0  0  0  0  0  0999 V2000
   -2.2950   19.7210  -31.7270 C   0  0  0  0  0  0  0  0  0  0  0  0
   -1.5990   19.0950  -32.9480 C   0  0  0  0  0  0  0  0  0  0  0  0
   -2.4780   17.9590  -33.4890 C   0  0  0  0  0  0  0  0  0  0  0  0
   -1.4000   20.1470  -34.0560 C   0  0  0  0  0  0  0  0  0  0  0  0
   -0.3460   18.5130  -32.5660 O   0  0  0  0  0  0  0  0  0  0  0  0
    0.7370   19.1900  -31.9760 C   0  0  0  0  0  0  0  0  0  0  0  0
    0.9200   20.4190  -32.2100 O   0  0  0  0  0  0  0  0  0  0  0  0
    1.6710   18.4560  -31.1380 N   0  0  0  0  0  0  0  0  0  0  0  0
    2.2650   19.2920  -30.0650 C   0  0  0  0  0  0  0  0  0  0  0  0
    1.2840   19.5580  -28.8970 C   0  0  0  0  0  0  0  0  0  0  0  0
   -0.0770   19.0990  -29.2360 N   0  0  0  0  0  0  0  0  0  0  0  0
   -1.0380   19.4210  -28.1640 C   0  0  0  0  0  0  0  0  0  0  0  0
   -1.7870   20.6370  -28.5060 C   0  0  0  0  0  0  0  0  0  0  0  0
   -2.4010   21.6340  -28.7920 C   0  0  0  0  0  0  0  0  0  0  0  0
   -3.1440   22.8460  -29.1520 C   0  0  0  0  0  0  0  0  0  0  0  0
   -2.8840   23.1930  -30.5090 O   0  0  0  0  0  0  0  0  0  0  0  0
   -3.7020   22.7880  -31.5720 C   0  0  0  0  0  0  0  0  0  0  0  0
   -3.1980   22.2510  -32.5980 O   0  0  0  0  0  0  0  0  0  0  0  0
   -5.1250   22.9410  -31.4720 N   0  0  0  0  0  0  0  0  0  0  0  0
   -5.8160   23.9730  -30.9130 C   0  0  0  0  0  0  0  0  0  0  0  0
   -5.2410   25.2510  -30.4460 C   0  0  0  0  0  0  0  0  0  0  0  0
   -3.9310   25.6540  -30.8420 N   0  0  0  0  0  0  0  0  0  0  0  0
   -5.9350   26.0180  -29.7210 O   0  0  0  0  0  0  0  0  0  0  0  0
   -7.1820   23.6930  -30.8950 C   0  0  0  0  0  0  0  0  0  0  0  0
   -7.3050   22.4470  -31.4690 C   0  0  0  0  0  0  0  0  0  0  0  0
   -8.4370   21.6650  -31.6780 C   0  0  0  0  0  0  0  0  0  0  0  0
   -8.2640   20.3940  -32.2530 C   0  0  0  0  0  0  0  0  0  0  0  0
   -6.9690   19.9310  -32.6030 C   0  0  0  0  0  0  0  0  0  0  0  0
   -6.7860   18.5560  -33.1910 C   0  0  0  0  0  0  0  0  0  0  0  0
   -6.1090   17.6460  -32.2160 C   0  0  0  0  0  0  0  0  0  0  0  0
   -5.4800   16.6340  -32.6200 O   0  0  0  0  0  0  0  0  0  0  0  0
   -6.1430   17.9360  -30.8570 O   0  0  0  0  0  0  0  0  0  0  0  0
   -5.8440   20.7480  -32.3630 C   0  0  0  0  0  0  0  0  0  0  0  0
   -6.0500   22.0160  -31.8080 C   0  0  0  0  0  0  0  0  0  0  0  0
   -0.0690   17.6460  -29.5120 C   0  0  0  0  0  0  0  0  0  0  0  0
    1.0360   17.2640  -30.5290 C   0  0  0  0  0  0  0  0  0  0  0  0
   -1.8489   19.3198  -30.8050 H   0  0  0  0  0  0  0  0  0  0  0  0
   -2.1662   20.8132  -31.7515 H   0  0  0  0  0  0  0  0  0  0  0  0
   -3.3675   19.4776  -31.7515 H   0  0  0  0  0  0  0  0  0  0  0  0
   -2.9117   17.3985  -32.6477 H   0  0  0  0  0  0  0  0  0  0  0  0
   -3.2865   18.3818  -34.1035 H   0  0  0  0  0  0  0  0  0  0  0  0
   -1.8658   17.2825  -34.1035 H   0  0  0  0  0  0  0  0  0  0  0  0
   -1.2140   21.1301  -33.5990 H   0  0  0  0  0  0  0  0  0  0  0  0
   -0.5395   19.8640  -34.6800 H   0  0  0  0  0  0  0  0  0  0  0  0
   -2.3044   20.1979  -34.6800 H   0  0  0  0  0  0  0  0  0  0  0  0
    2.4450   18.1260  -31.7610 H   0  0  0  0  0  0  0  0  0  0  0  0
    3.1518   18.7761  -29.6682 H   0  0  0  0  0  0  0  0  0  0  0  0
    2.5224   20.2651  -30.5085 H   0  0  0  0  0  0  0  0  0  0  0  0
    1.6334   19.0195  -28.0037 H   0  0  0  0  0  0  0  0  0  0  0  0
    1.2517   20.6407  -28.7055 H   0  0  0  0  0  0  0  0  0  0  0  0
   -1.7405   18.5834  -28.0415 H   0  0  0  0  0  0  0  0  0  0  0  0
   -0.4882   19.5887  -27.2261 H   0  0  0  0  0  0  0  0  0  0  0  0
   -4.2212   22.6646  -29.0225 H   0  0  0  0  0  0  0  0  0  0  0  0
   -2.8234   23.6724  -28.5006 H   0  0  0  0  0  0  0  0  0  0  0  0
   -3.0890   25.3030  -30.3340 H   0  0  0  0  0  0  0  0  0  0  0  0
   -7.9890   24.3310  -30.5055 H   0  0  0  0  0  0  0  0  0  0  0  0
   -9.4370   22.0305  -31.4016 H   0  0  0  0  0  0  0  0  0  0  0  0
   -9.1396   19.7530  -32.4331 H   0  0  0  0  0  0  0  0  0  0  0  0
   -7.7713   18.1399  -33.4481 H   0  0  0  0  0  0  0  0  0  0  0  0
   -6.1580   18.6384  -34.0903 H   0  0  0  0  0  0  0  0  0  0  0  0
   -4.8302   20.3970  -32.6061 H   0  0  0  0  0  0  0  0  0  0  0  0
    0.1096   17.1050  -28.5710 H   0  0  0  0  0  0  0  0  0  0  0  0
   -1.0431   17.3727  -29.9439 H   0  0  0  0  0  0  0  0  0  0  0  0
    1.8082   16.6774  -30.0097 H   0  0  0  0  0  0  0  0  0  0  0  0
    0.5665   16.6817  -31.3356 H   0  0  0  0  0  0  0  0  0  0  0  0
  1  2  1  0
  2  3  1  0
  2  4  1  0
  2  5  1  0
  5  6  1  0
  6  7  2  0
  6  8  1  0
  8  9  1  0
  9 10  1  0
 10 11  1  0
 11 12  1  0
 12 13  1  0
 13 14  3  0
 14 15  1  0
 15 16  1  0
 16 17  1  0
 17 18  2  0
 17 19  1  0
 19 20  1  0
 20 21  1  0
 21 22  1  0
 21 23  2  0
 20 24  2  0
 24 25  1  0
 25 26  2  0
 26 27  1  0
 27 28  2  0
 28 29  1  0
 29 30  1  0
 30 31  2  0
 30 32  1  0
 28 33  1  0
 33 34  2  0
 11 35  1  0
 35 36  1  0
 36  8  1  0
 34 19  1  0
 34 25  1  0
  1 37  1  0
  1 38  1  0
  1 39  1  0
  3 40  1  0
  3 41  1  0
  3 42  1  0
  4 43  1  0
  4 44  1  0
  4 45  1  0
  8 46  1  0
  9 47  1  0
  9 48  1  0
 10 49  1  0
 10 50  1  0
 12 51  1  0
 12 52  1  0
 15 53  1  0
 15 54  1  0
 22 55  1  0
 24 56  1  0
 26 57  1  0
 27 58  1  0
 29 59  1  0
 29 60  1  0
 33 61  1  0
 35 62  1  0
 35 63  1  0
 36 64  1  0
 36 65  1  0
M  CHG  3   8   1  22  -1  32  -1
M  END
>  <UniqueID>  (20) 
20

>  <SMILES>  (20) 
CC(C)(C)OC(=O)[NH+]1CCN(CC#CCOC(=O)n2c(C([NH-])=O)cc3ccc(CC(=O)[O-])cc32)CC1

>  <Energy>  (20) 
103.08777267375132

>  <Genealogy>  (20) 
CC(C)(C)OC(=O)[NH+]1CCN(CC#CCOC(=O)n2c(C([NH-])=O)cc3ccc(CC(=O)[O-])cc32)CC1 (protonated)
CC(C)(C)OC(=O)[NH+]1CCN(CC#CCOC(=O)n2c(C([NH-])=O)cc3ccc(CC(=O)[O-])cc32)CC1 (3D coordinates assigned)
CC(C)(C)OC(=O)[NH+]1CCN(CC#CCOC(=O)n2c(C([NH-])=O)cc3ccc(CC(=O)[O-])cc32)CC1 (nonaromatic ring conformer: 103.08777267375132 kcal/mol)

>  <smiles>  (20) 
CC(C)(C)OC(=O)N1CCN(CC#CCOC(=O)n2c(C(N)=O)cc3ccc(CC(=O)O)cc32)CC1

>  <score_type>  (20) 
oracle

>  <origin>  (20) 
adg

>  <m_score__min__energy>  (20) 
-11.99

>  <m_primary>  (20) 
energy

$$$$
20:0
     RDKit          3D

 38 40  0  0  0  0  0  0  0  0999 V2000
   -4.2330   25.5250  -30.4650 N   0  0  0  0  0  0  0  0  0  0  0  0
   -5.5520   25.0350  -30.2120 C   0  0  0  0  0  0  0  0  0  0  0  0
   -6.3030   25.6770  -29.4320 O   0  0  0  0  0  0  0  0  0  0  0  0
   -6.0260   23.7770  -30.8330 C   0  0  0  0  0  0  0  0  0  0  0  0
   -7.3520   23.5320  -31.1890 C   0  0  0  0  0  0  0  0  0  0  0  0
   -7.3470   22.2920  -31.7840 C   0  0  0  0  0  0  0  0  0  0  0  0
   -8.4010   21.5450  -32.2990 C   0  0  0  0  0  0  0  0  0  0  0  0
   -8.1150   20.2710  -32.8180 C   0  0  0  0  0  0  0  0  0  0  0  0
   -6.7880   19.7690  -32.8140 C   0  0  0  0  0  0  0  0  0  0  0  0
   -6.4740   18.4190  -33.3260 C   0  0  0  0  0  0  0  0  0  0  0  0
   -6.4540   18.1160  -34.6010 O   0  0  0  0  0  0  0  0  0  0  0  0
   -6.1460   16.8440  -34.7000 C   0  0  0  0  0  0  0  0  0  0  0  0
   -5.9620   16.2600  -33.4980 N   0  0  0  0  0  0  0  0  0  0  0  0
   -6.1810   17.2600  -32.6220 C   0  0  0  0  0  0  0  0  0  0  0  0
   -6.1370   17.0650  -31.1390 C   0  0  0  0  0  0  0  0  0  0  0  0
   -5.3980   15.9150  -30.8410 O   0  0  0  0  0  0  0  0  0  0  0  0
   -5.7490   20.5490  -32.2590 C   0  0  0  0  0  0  0  0  0  0  0  0
   -6.0580   21.8260  -31.7750 C   0  0  0  0  0  0  0  0  0  0  0  0
   -5.2310   22.7340  -31.2080 N   0  0  0  0  0  0  0  0  0  0  0  0
   -3.8220   22.5790  -30.9500 C   0  0  0  0  0  0  0  0  0  0  0  0
   -2.9900   23.0670  -31.7600 O   0  0  0  0  0  0  0  0  0  0  0  0
   -3.3100   21.9520  -29.7130 C   0  0  0  0  0  0  0  0  0  0  0  0
   -2.7360   22.5930  -28.6830 C   0  0  0  0  0  0  0  0  0  0  0  0
   -2.6870   24.0520  -28.4910 C   0  0  0  0  0  0  0  0  0  0  0  0
   -2.2510   24.8250  -29.3820 O   0  0  0  0  0  0  0  0  0  0  0  0
   -3.8980   26.3920  -29.9900 H   0  0  0  0  0  0  0  0  0  0  0  0
   -3.6010   25.0590  -31.1530 H   0  0  0  0  0  0  0  0  0  0  0  0
   -8.2181   24.1907  -31.0281 H   0  0  0  0  0  0  0  0  0  0  0  0
   -9.4277   21.9397  -32.3000 H   0  0  0  0  0  0  0  0  0  0  0  0
   -8.9282   19.6565  -33.2316 H   0  0  0  0  0  0  0  0  0  0  0  0
   -6.0486   16.3124  -35.6581 H   0  0  0  0  0  0  0  0  0  0  0  0
   -5.6617   17.9383  -30.6684 H   0  0  0  0  0  0  0  0  0  0  0  0
   -7.1611   16.9525  -30.7537 H   0  0  0  0  0  0  0  0  0  0  0  0
   -5.3330   15.4020  -31.6880 H   0  0  0  0  0  0  0  0  0  0  0  0
   -4.7206   20.1619  -32.2083 H   0  0  0  0  0  0  0  0  0  0  0  0
   -3.4085   20.8596  -29.6290 H   0  0  0  0  0  0  0  0  0  0  0  0
   -2.2583   21.9713  -27.9114 H   0  0  0  0  0  0  0  0  0  0  0  0
   -3.0419   24.4781  -27.5410 H   0  0  0  0  0  0  0  0  0  0  0  0
  1  2  1  0
  2  3  2  0
  2  4  1  0
  4  5  2  0
  5  6  1  0
  6  7  2  0
  7  8  1  0
  8  9  2  0
  9 10  1  0
 10 11  1  0
 11 12  1  0
 12 13  2  0
 13 14  1  0
 14 15  1  0
 15 16  1  0
  9 17  1  0
 17 18  2  0
 18 19  1  0
 19 20  1  0
 20 21  2  0
 20 22  1  0
 22 23  2  3
 23 24  1  0
 24 25  2  0
 19  4  1  0
 18  6  1  0
 14 10  2  0
  1 26  1  0
  1 27  1  0
  5 28  1  0
  7 29  1  0
  8 30  1  0
 12 31  1  0
 15 32  1  0
 15 33  1  0
 16 34  1  0
 17 35  1  0
 22 36  1  0
 23 37  1  0
 24 38  1  0
M  END
>  <UniqueID>  (21) 
21

>  <SMILES>  (21) 
NC(=O)c1cc2ccc(-c3ocnc3CO)cc2n1C(=O)C=CC=O

>  <Energy>  (21) 
117.35813663999234

>  <Genealogy>  (21) 
NC(=O)c1cc2ccc(-c3ocnc3CO)cc2n1C(=O)C=CC=O (3D coordinates assigned)
NC(=O)c1cc2ccc(-c3ocnc3CO)cc2n1C(=O)C=CC=O (optimized conformer: 117.35813663999234 kcal/mol)

>  <smiles>  (21) 
NC(=O)c1cc2ccc(-c3ocnc3CO)cc2n1C(=O)C=CC=O

>  <score_type>  (21) 
oracle

>  <origin>  (21) 
adg

>  <m_score__min__energy>  (21) 
-8.4199999999999999

>  <m_primary>  (21) 
energy

$$$$
21:0
     RDKit          3D

 40 41  0  0  0  0  0  0  0  0999 V2000
   -4.1580   22.3300  -28.6460 C   0  0  0  0  0  0  0  0  0  0  0  0
   -3.3260   22.5780  -29.8400 N   0  0  1  0  0  0  0  0  0  0  0  0
   -2.0720   21.7830  -29.8590 C   0  0  0  0  0  0  0  0  0  0  0  0
   -0.9150   22.3310  -28.9940 C   0  0  0  0  0  0  0  0  0  0  0  0
   -0.6340   23.7320  -29.3010 N   0  0  0  0  0  0  0  0  0  0  0  0
   -1.4660   24.8090  -28.8550 C   0  0  0  0  0  0  0  0  0  0  0  0
   -2.4110   24.6040  -28.0470 O   0  0  0  0  0  0  0  0  0  0  0  0
   -1.2260   26.0980  -29.3110 O   0  0  0  0  0  0  0  0  0  0  0  0
   -4.0830   22.4440  -31.0700 C   0  0  0  0  0  0  0  0  0  0  0  0
   -3.5100   22.0840  -32.1360 O   0  0  0  0  0  0  0  0  0  0  0  0
   -5.4790   22.8020  -31.1120 N   0  0  0  0  0  0  0  0  0  0  0  0
   -6.0360   24.0390  -30.9720 C   0  0  0  0  0  0  0  0  0  0  0  0
   -5.3410   25.2490  -30.4940 C   0  0  0  0  0  0  0  0  0  0  0  0
   -3.9160   25.2950  -30.4880 N   0  0  0  0  0  0  0  0  0  0  0  0
   -5.9940   26.2620  -30.1310 O   0  0  0  0  0  0  0  0  0  0  0  0
   -7.4080   23.9890  -31.2090 C   0  0  0  0  0  0  0  0  0  0  0  0
   -7.6840   22.6670  -31.4720 C   0  0  0  0  0  0  0  0  0  0  0  0
   -8.8930   22.0480  -31.7670 C   0  0  0  0  0  0  0  0  0  0  0  0
   -8.8860   20.6610  -31.9900 C   0  0  0  0  0  0  0  0  0  0  0  0
   -7.6830   19.9160  -31.8860 C   0  0  0  0  0  0  0  0  0  0  0  0
   -7.6720   18.4340  -32.1640 C   0  0  0  0  0  0  0  0  0  0  0  0
   -6.7960   17.8150  -31.2920 F   0  0  0  0  0  0  0  0  0  0  0  0
   -7.2710   18.1790  -33.4630 F   0  0  0  0  0  0  0  0  0  0  0  0
   -8.9370   17.9000  -31.9890 F   0  0  0  0  0  0  0  0  0  0  0  0
   -6.4710   20.5880  -31.6000 C   0  0  0  0  0  0  0  0  0  0  0  0
   -6.5060   21.9700  -31.3940 C   0  0  0  0  0  0  0  0  0  0  0  0
   -3.5608   22.5080  -27.7395 H   0  0  0  0  0  0  0  0  0  0  0  0
   -5.0231   23.0093  -28.6544 H   0  0  0  0  0  0  0  0  0  0  0  0
   -4.5100   21.2879  -28.6544 H   0  0  0  0  0  0  0  0  0  0  0  0
   -3.0150   23.5730  -29.7680 H   0  0  0  0  0  0  0  0  0  0  0  0
   -2.3093   20.7698  -29.5024 H   0  0  0  0  0  0  0  0  0  0  0  0
   -1.7113   21.8189  -30.8976 H   0  0  0  0  0  0  0  0  0  0  0  0
   -1.1909   22.2460  -27.9326 H   0  0  0  0  0  0  0  0  0  0  0  0
   -0.0120   21.7420  -29.2121 H   0  0  0  0  0  0  0  0  0  0  0  0
    0.0920   23.9400  -30.0220 H   0  0  0  0  0  0  0  0  0  0  0  0
   -3.3940   25.6530  -29.6570 H   0  0  0  0  0  0  0  0  0  0  0  0
   -8.1192   24.8279  -31.1899 H   0  0  0  0  0  0  0  0  0  0  0  0
   -9.8268   22.6265  -31.8241 H   0  0  0  0  0  0  0  0  0  0  0  0
   -9.8236   20.1469  -32.2481 H   0  0  0  0  0  0  0  0  0  0  0  0
   -5.5220   20.0348  -31.5411 H   0  0  0  0  0  0  0  0  0  0  0  0
  1  2  1  0
  2  3  1  0
  3  4  1  0
  4  5  1  0
  5  6  1  0
  6  7  2  0
  6  8  1  0
  2  9  1  0
  9 10  2  0
  9 11  1  0
 11 12  1  0
 12 13  1  0
 13 14  1  0
 13 15  2  0
 12 16  2  0
 16 17  1  0
 17 18  2  0
 18 19  1  0
 19 20  2  0
 20 21  1  0
 21 22  1  0
 21 23  1  0
 21 24  1  0
 20 25  1  0
 25 26  2  0
 26 11  1  0
 26 17  1  0
  1 27  1  0
  1 28  1  0
  1 29  1  0
  2 30  1  1
  3 31  1  0
  3 32  1  0
  4 33  1  0
  4 34  1  0
  5 35  1  0
 14 36  1  0
 16 37  1  0
 18 38  1  0
 19 39  1  0
 25 40  1  0
M  CHG  3   2   1   8  -1  14  -1
M  END
>  <UniqueID>  (22) 
22

>  <SMILES>  (22) 
C[N@@H+](CCNC(=O)[O-])C(=O)n1c(C([NH-])=O)cc2ccc(C(F)(F)F)cc21

>  <Energy>  (22) 
84.02086636906769

>  <Genealogy>  (22) 
C[NH+](CCNC(=O)[O-])C(=O)n1c(C([NH-])=O)cc2ccc(C(F)(F)F)cc21 (protonated)
C[N@@H+](CCNC(=O)[O-])C(=O)n1c(C([NH-])=O)cc2ccc(C(F)(F)F)cc21 (chirality)
C[N@@H+](CCNC(=O)[O-])C(=O)n1c(C([NH-])=O)cc2ccc(C(F)(F)F)cc21 (3D coordinates assigned)
C[N@@H+](CCNC(=O)[O-])C(=O)n1c(C([NH-])=O)cc2ccc(C(F)(F)F)cc21 (optimized conformer: 84.02086636906769 kcal/mol)

>  <smiles>  (22) 
CN(CCNC(=O)O)C(=O)n1c(C(N)=O)cc2ccc(C(F)(F)F)cc21

>  <score_type>  (22) 
oracle

>  <origin>  (22) 
adg

>  <m_score__min__energy>  (22) 
-11.289999999999999

>  <m_primary>  (22) 
energy

$$$$
22:0
     RDKit          3D

 61 62  0  0  0  0  0  0  0  0999 V2000
   -6.1180   24.2800  -31.0970 C   0  0  0  0  0  0  0  0  0  0  0  0
   -4.7830   23.6920  -30.5990 C   0  0  0  0  0  0  0  0  0  0  0  0
   -4.9880   22.8290  -29.3390 C   0  0  0  0  0  0  0  0  0  0  0  0
   -4.1130   22.8990  -31.6440 N   0  0  0  0  0  0  0  0  0  0  0  0
   -3.7600   21.5070  -31.7260 C   0  0  0  0  0  0  0  0  0  0  0  0
   -3.3270   20.9460  -30.6830 O   0  0  0  0  0  0  0  0  0  0  0  0
   -3.8490   20.6990  -32.9550 C   0  0  0  0  0  0  0  0  0  0  0  0
   -3.0470   20.8970  -33.9010 O   0  0  0  0  0  0  0  0  0  0  0  0
   -4.9000   19.7290  -33.1130 N   0  0  0  0  0  0  0  0  0  0  0  0
   -4.7800   18.4470  -33.5640 C   0  0  0  0  0  0  0  0  0  0  0  0
   -3.5550   17.8590  -34.1570 C   0  0  0  0  0  0  0  0  0  0  0  0
   -2.2580   18.3120  -33.7590 N   0  0  0  0  0  0  0  0  0  0  0  0
   -3.6480   16.9280  -35.0010 O   0  0  0  0  0  0  0  0  0  0  0  0
   -6.0000   17.7800  -33.4660 C   0  0  0  0  0  0  0  0  0  0  0  0
   -6.8760   18.6960  -32.9340 C   0  0  0  0  0  0  0  0  0  0  0  0
   -8.2170   18.5550  -32.5910 C   0  0  0  0  0  0  0  0  0  0  0  0
   -8.8690   19.6560  -32.0120 C   0  0  0  0  0  0  0  0  0  0  0  0
   -8.1800   20.8790  -31.8020 C   0  0  0  0  0  0  0  0  0  0  0  0
   -8.8660   22.0360  -31.1210 C   0  0  0  0  0  0  0  0  0  0  0  0
   -8.8570   23.1550  -31.9360 F   0  0  0  0  0  0  0  0  0  0  0  0
  -10.1830   21.7250  -30.8270 F   0  0  0  0  0  0  0  0  0  0  0  0
   -8.2000   22.3300  -29.9460 F   0  0  0  0  0  0  0  0  0  0  0  0
   -6.8130   20.9740  -32.1470 C   0  0  0  0  0  0  0  0  0  0  0  0
   -6.1900   19.8640  -32.7310 C   0  0  0  0  0  0  0  0  0  0  0  0
   -3.8750   24.8540  -30.2510 C   0  0  0  0  0  0  0  0  0  0  0  0
   -4.2490   26.0410  -30.4640 O   0  0  0  0  0  0  0  0  0  0  0  0
   -2.5660   24.6030  -29.7290 N   0  0  0  0  0  0  0  0  0  0  0  0
   -2.0200   25.2890  -28.5670 C   0  0  0  0  0  0  0  0  0  0  0  0
   -1.4390   24.2710  -27.5900 C   0  0  0  0  0  0  0  0  0  0  0  0
   -1.8410   22.9660  -27.9700 O   0  0  0  0  0  0  0  0  0  0  0  0
   -1.3220   21.9910  -27.0860 C   0  0  0  0  0  0  0  0  0  0  0  0
   -0.6170   20.9080  -27.8910 C   0  0  0  0  0  0  0  0  0  0  0  0
   -1.3670   20.6140  -29.0550 O   0  0  0  0  0  0  0  0  0  0  0  0
   -0.5060   20.3670  -30.1530 C   0  0  0  0  0  0  0  0  0  0  0  0
   -0.5280   21.5480  -31.1190 C   0  0  0  0  0  0  0  0  0  0  0  0
   -0.9900   22.6960  -30.4670 O   0  0  0  0  0  0  0  0  0  0  0  0
   -6.7422   24.5549  -30.2340 H   0  0  0  0  0  0  0  0  0  0  0  0
   -5.9202   25.1743  -31.7062 H   0  0  0  0  0  0  0  0  0  0  0  0
   -6.6443   23.5304  -31.7062 H   0  0  0  0  0  0  0  0  0  0  0  0
   -4.8408   23.4487  -28.4422 H   0  0  0  0  0  0  0  0  0  0  0  0
   -6.0086   22.4187  -29.3377 H   0  0  0  0  0  0  0  0  0  0  0  0
   -4.2609   22.0035  -29.3377 H   0  0  0  0  0  0  0  0  0  0  0  0
   -1.4030   17.8480  -34.1380 H   0  0  0  0  0  0  0  0  0  0  0  0
   -2.1390   19.1110  -33.0980 H   0  0  0  0  0  0  0  0  0  0  0  0
   -6.2161   16.7405  -33.7536 H   0  0  0  0  0  0  0  0  0  0  0  0
   -8.7506   17.6095  -32.7680 H   0  0  0  0  0  0  0  0  0  0  0  0
   -9.9254   19.5695  -31.7180 H   0  0  0  0  0  0  0  0  0  0  0  0
   -6.2500   21.9004  -31.9608 H   0  0  0  0  0  0  0  0  0  0  0  0
   -1.2265   25.9790  -28.8900 H   0  0  0  0  0  0  0  0  0  0  0  0
   -2.8222   25.8530  -28.0687 H   0  0  0  0  0  0  0  0  0  0  0  0
   -0.3409   24.3348  -27.6044 H   0  0  0  0  0  0  0  0  0  0  0  0
   -1.8065   24.4862  -26.5758 H   0  0  0  0  0  0  0  0  0  0  0  0
   -0.6052   22.4630  -26.3979 H   0  0  0  0  0  0  0  0  0  0  0  0
   -2.1431   21.5442  -26.5062 H   0  0  0  0  0  0  0  0  0  0  0  0
    0.3839   21.2607  -28.1804 H   0  0  0  0  0  0  0  0  0  0  0  0
   -0.5256   19.9995  -27.2775 H   0  0  0  0  0  0  0  0  0  0  0  0
    0.5196   20.2191  -29.7839 H   0  0  0  0  0  0  0  0  0  0  0  0
   -0.8497   19.4657  -30.6817 H   0  0  0  0  0  0  0  0  0  0  0  0
    0.4896   21.7286  -31.4956 H   0  0  0  0  0  0  0  0  0  0  0  0
   -1.2021   21.3146  -31.9564 H   0  0  0  0  0  0  0  0  0  0  0  0
   -1.8840   22.4690  -30.1020 H   0  0  0  0  0  0  0  0  0  0  0  0
  1  2  1  0
  2  3  1  0
  2  4  1  0
  4  5  1  0
  5  6  2  0
  5  7  1  0
  7  8  2  0
  7  9  1  0
  9 10  1  0
 10 11  1  0
 11 12  1  0
 11 13  2  0
 10 14  2  0
 14 15  1  0
 15 16  2  0
 16 17  1  0
 17 18  2  0
 18 19  1  0
 19 20  1  0
 19 21  1  0
 19 22  1  0
 18 23  1  0
 23 24  2  0
  2 25  1  0
 25 26  2  0
 25 27  1  0
 27 28  1  0
 28 29  1  0
 29 30  1  0
 30 31  1  0
 31 32  1  0
 32 33  1  0
 33 34  1  0
 34 35  1  0
 35 36  1  0
 24  9  1  0
 24 15  1  0
  1 37  1  0
  1 38  1  0
  1 39  1  0
  3 40  1  0
  3 41  1  0
  3 42  1  0
 12 43  1  0
 12 44  1  0
 14 45  1  0
 16 46  1  0
 17 47  1  0
 23 48  1  0
 28 49  1  0
 28 50  1  0
 29 51  1  0
 29 52  1  0
 31 53  1  0
 31 54  1  0
 32 55  1  0
 32 56  1  0
 34 57  1  0
 34 58  1  0
 35 59  1  0
 35 60  1  0
 36 61  1  0
M  CHG  2   4  -1  27  -1
M  END
>  <UniqueID>  (23) 
23

>  <SMILES>  (23) 
CC(C)([N-]C(=O)C(=O)n1c(C(N)=O)cc2ccc(C(F)(F)F)cc21)C(=O)[N-]CCOCCOCCO

>  <Energy>  (23) 
100.21179643254949

>  <Genealogy>  (23) 
CC(C)([N-]C(=O)C(=O)n1c(C(N)=O)cc2ccc(C(F)(F)F)cc21)C(=O)[N-]CCOCCOCCO (protonated)
CC(C)([N-]C(=O)C(=O)n1c(C(N)=O)cc2ccc(C(F)(F)F)cc21)C(=O)[N-]CCOCCOCCO (3D coordinates assigned)
CC(C)([N-]C(=O)C(=O)n1c(C(N)=O)cc2ccc(C(F)(F)F)cc21)C(=O)[N-]CCOCCOCCO (optimized conformer: 100.21179643254949 kcal/mol)

>  <smiles>  (23) 
CC(C)(NC(=O)C(=O)n1c(C(N)=O)cc2ccc(C(F)(F)F)cc21)C(=O)NCCOCCOCCO

>  <score_type>  (23) 
oracle

>  <origin>  (23) 
adg

>  <m_score__min__energy>  (23) 
-9.4399999999999995

>  <m_primary>  (23) 
energy

$$$$
23:0
     RDKit          3D

 35 36  0  0  0  0  0  0  0  0999 V2000
   -3.6950   21.8210  -33.4580 C   0  0  0  0  0  0  0  0  0  0  0  0
   -3.3510   21.7310  -32.1740 C   0  0  0  0  0  0  0  0  0  0  0  0
   -2.0390   20.4300  -31.6680 Br  0  0  0  0  0  0  0  0  0  0  0  0
   -3.9350   22.6260  -31.1500 C   0  0  0  0  0  0  0  0  0  0  0  0
   -3.2100   23.1080  -30.2380 O   0  0  0  0  0  0  0  0  0  0  0  0
   -5.3320   22.9510  -31.1800 N   0  0  0  0  0  0  0  0  0  0  0  0
   -5.9130   24.1510  -30.9040 C   0  0  0  0  0  0  0  0  0  0  0  0
   -5.2070   25.3580  -30.4270 C   0  0  0  0  0  0  0  0  0  0  0  0
   -3.8690   25.6120  -30.8500 N   0  0  0  0  0  0  0  0  0  0  0  0
   -5.7780   26.1770  -29.6580 O   0  0  0  0  0  0  0  0  0  0  0  0
   -7.2920   24.0790  -31.0940 C   0  0  0  0  0  0  0  0  0  0  0  0
   -7.5360   22.7850  -31.5050 C   0  0  0  0  0  0  0  0  0  0  0  0
   -8.7300   22.1610  -31.8440 C   0  0  0  0  0  0  0  0  0  0  0  0
   -8.6780   20.8170  -32.2510 C   0  0  0  0  0  0  0  0  0  0  0  0
   -7.4440   20.1220  -32.3240 C   0  0  0  0  0  0  0  0  0  0  0  0
   -7.4490   18.7460  -32.7520 N   0  0  0  0  0  0  0  0  0  0  0  0
   -6.2760   17.8700  -32.8070 C   0  0  0  0  0  0  0  0  0  0  0  0
   -5.7300   17.7630  -34.2330 C   0  0  0  0  0  0  0  0  0  0  0  0
   -6.1090   18.9250  -35.0310 N   0  0  0  0  0  0  0  0  0  0  0  0
   -6.2490   20.7980  -31.9710 C   0  0  0  0  0  0  0  0  0  0  0  0
   -6.3360   22.1290  -31.5530 C   0  0  0  0  0  0  0  0  0  0  0  0
   -4.4458   22.5594  -33.7758 H   0  0  0  0  0  0  0  0  0  0  0  0
   -3.2282   21.1569  -34.2003 H   0  0  0  0  0  0  0  0  0  0  0  0
   -3.0550   25.2850  -30.2820 H   0  0  0  0  0  0  0  0  0  0  0  0
   -8.0286   24.8827  -30.9474 H   0  0  0  0  0  0  0  0  0  0  0  0
   -9.6864   22.7022  -31.7953 H   0  0  0  0  0  0  0  0  0  0  0  0
   -9.6093   20.2957  -32.5172 H   0  0  0  0  0  0  0  0  0  0  0  0
   -8.3580   18.3240  -33.0490 H   0  0  0  0  0  0  0  0  0  0  0  0
   -5.4921   18.2789  -32.1526 H   0  0  0  0  0  0  0  0  0  0  0  0
   -6.5759   16.8657  -32.4731 H   0  0  0  0  0  0  0  0  0  0  0  0
   -4.6327   17.6973  -34.1932 H   0  0  0  0  0  0  0  0  0  0  0  0
   -6.1552   16.8638  -34.7026 H   0  0  0  0  0  0  0  0  0  0  0  0
   -6.9020   19.4010  -34.5460 H   0  0  0  0  0  0  0  0  0  0  0  0
   -6.4900   18.5840  -35.9440 H   0  0  0  0  0  0  0  0  0  0  0  0
   -5.2763   20.2872  -32.0248 H   0  0  0  0  0  0  0  0  0  0  0  0
  1  2  2  0
  2  3  1  0
  2  4  1  0
  4  5  2  0
  4  6  1  0
  6  7  1  0
  7  8  1  0
  8  9  1  0
  8 10  2  0
  7 11  2  0
 11 12  1  0
 12 13  2  0
 13 14  1  0
 14 15  2  0
 15 16  1  0
 16 17  1  0
 17 18  1  0
 18 19  1  0
 15 20  1  0
 20 21  2  0
 21  6  1  0
 21 12  1  0
  1 22  1  0
  1 23  1  0
  9 24  1  0
 11 25  1  0
 13 26  1  0
 14 27  1  0
 16 28  1  0
 17 29  1  0
 17 30  1  0
 18 31  1  0
 18 32  1  0
 19 33  1  0
 19 34  1  0
 20 35  1  0
M  CHG  1   9  -1
M  END
>  <UniqueID>  (24) 
24

>  <SMILES>  (24) 
C=C(Br)C(=O)n1c(C([NH-])=O)cc2ccc(NCCN)cc21

>  <Energy>  (24) 
70.83054062010062

>  <Genealogy>  (24) 
C=C(Br)C(=O)n1c(C([NH-])=O)cc2ccc(NCCN)cc21 (protonated)
C=C(Br)C(=O)n1c(C([NH-])=O)cc2ccc(NCCN)cc21 (3D coordinates assigned)
C=C(Br)C(=O)n1c(C([NH-])=O)cc2ccc(NCCN)cc21 (optimized conformer: 70.83054062010062 kcal/mol)

>  <smiles>  (24) 
C=C(Br)C(=O)n1c(C(N)=O)cc2ccc(NCCN)cc21

>  <score_type>  (24) 
oracle

>  <origin>  (24) 
adg

>  <m_score__min__energy>  (24) 
-10.81

>  <m_primary>  (24) 
energy

$$$$
24:0
     RDKit          3D

 40 41  0  0  0  0  0  0  0  0999 V2000
   -6.9030   18.2690  -32.8430 C   0  0  0  0  0  0  0  0  0  0  0  0
   -7.0490   19.6810  -32.3610 C   0  0  0  0  0  0  0  0  0  0  0  0
   -8.3200   20.3090  -32.3800 C   0  0  0  0  0  0  0  0  0  0  0  0
   -8.4650   21.6410  -31.9570 C   0  0  0  0  0  0  0  0  0  0  0  0
   -7.3260   22.3210  -31.5390 C   0  0  0  0  0  0  0  0  0  0  0  0
   -7.1820   23.6050  -31.0650 C   0  0  0  0  0  0  0  0  0  0  0  0
   -5.8220   23.7520  -30.7990 C   0  0  0  0  0  0  0  0  0  0  0  0
   -5.2110   25.0200  -30.3490 C   0  0  0  0  0  0  0  0  0  0  0  0
   -3.9430   25.4400  -30.8460 N   0  0  0  0  0  0  0  0  0  0  0  0
   -5.8350   25.7640  -29.5470 O   0  0  0  0  0  0  0  0  0  0  0  0
   -5.1530   22.6010  -31.0890 N   0  0  0  0  0  0  0  0  0  0  0  0
   -3.7620   22.3130  -30.8820 C   0  0  0  0  0  0  0  0  0  0  0  0
   -3.2890   21.2150  -31.2810 O   0  0  0  0  0  0  0  0  0  0  0  0
   -2.9320   23.2550  -30.1830 N   0  0  0  0  0  0  0  0  0  0  0  0
   -1.5120   23.1050  -30.0120 C   0  0  0  0  0  0  0  0  0  0  0  0
   -0.9110   22.1330  -30.5380 O   0  0  0  0  0  0  0  0  0  0  0  0
   -0.7520   24.1310  -29.2760 C   0  0  0  0  0  0  0  0  0  0  0  0
    0.4290   23.8640  -28.9280 O   0  0  0  0  0  0  0  0  0  0  0  0
   -1.2790   25.4230  -28.9310 N   0  0  0  0  0  0  0  0  0  0  0  0
   -1.5700   26.0210  -27.6230 C   0  0  0  0  0  0  0  0  0  0  0  0
   -0.3040   26.5500  -26.9430 C   0  0  0  0  0  0  0  0  0  0  0  0
   -2.3840   25.0890  -26.7190 C   0  0  0  0  0  0  0  0  0  0  0  0
   -6.0860   21.7360  -31.5440 C   0  0  0  0  0  0  0  0  0  0  0  0
   -5.9120   20.4080  -31.9460 C   0  0  0  0  0  0  0  0  0  0  0  0
   -6.8330   17.5920  -31.9789 H   0  0  0  0  0  0  0  0  0  0  0  0
   -7.7778   17.9971  -33.4519 H   0  0  0  0  0  0  0  0  0  0  0  0
   -5.9911   18.1819  -33.4519 H   0  0  0  0  0  0  0  0  0  0  0  0
   -9.2000   19.7487  -32.7288 H   0  0  0  0  0  0  0  0  0  0  0  0
   -9.4497   22.1313  -31.9564 H   0  0  0  0  0  0  0  0  0  0  0  0
   -7.9732   24.3564  -30.9256 H   0  0  0  0  0  0  0  0  0  0  0  0
   -3.0730   25.3010  -30.2850 H   0  0  0  0  0  0  0  0  0  0  0  0
   -3.3980   24.0870  -29.7570 H   0  0  0  0  0  0  0  0  0  0  0  0
   -2.2132   26.8939  -27.8087 H   0  0  0  0  0  0  0  0  0  0  0  0
   -0.4258   26.4991  -25.8509 H   0  0  0  0  0  0  0  0  0  0  0  0
    0.5579   25.9367  -27.2448 H   0  0  0  0  0  0  0  0  0  0  0  0
   -0.1347   27.5941  -27.2448 H   0  0  0  0  0  0  0  0  0  0  0  0
   -2.1763   25.3268  -25.6653 H   0  0  0  0  0  0  0  0  0  0  0  0
   -3.4564   25.2264  -26.9214 H   0  0  0  0  0  0  0  0  0  0  0  0
   -2.1035   24.0448  -26.9214 H   0  0  0  0  0  0  0  0  0  0  0  0
   -4.9156   19.9420  -31.9391 H   0  0  0  0  0  0  0  0  0  0  0  0
  1  2  1  0
  2  3  2  0
  3  4  1  0
  4  5  2  0
  5  6  1  0
  6  7  2  0
  7  8  1  0
  8  9  1  0
  8 10  2  0
  7 11  1  0
 11 12  1  0
 12 13  2  0
 12 14  1  0
 14 15  1  0
 15 16  2  0
 15 17  1  0
 17 18  2  0
 17 19  1  0
 19 20  1  0
 20 21  1  0
 20 22  1  0
 11 23  1  0
 23 24  2  0
 24  2  1  0
 23  5  1  0
  1 25  1  0
  1 26  1  0
  1 27  1  0
  3 28  1  0
  4 29  1  0
  6 30  1  0
  9 31  1  0
 14 32  1  0
 20 33  1  0
 21 34  1  0
 21 35  1  0
 21 36  1  0
 22 37  1  0
 22 38  1  0
 22 39  1  0
 24 40  1  0
M  CHG  2   9  -1  19  -1
M  END
>  <UniqueID>  (25) 
25

>  <SMILES>  (25) 
Cc1ccc2cc(C([NH-])=O)n(C(=O)NC(=O)C(=O)[N-]C(C)C)c2c1

>  <Energy>  (25) 
81.54730767578374

>  <Genealogy>  (25) 
Cc1ccc2cc(C([NH-])=O)n(C(=O)NC(=O)C(=O)[N-]C(C)C)c2c1 (protonated)
Cc1ccc2cc(C([NH-])=O)n(C(=O)NC(=O)C(=O)[N-]C(C)C)c2c1 (3D coordinates assigned)
Cc1ccc2cc(C([NH-])=O)n(C(=O)NC(=O)C(=O)[N-]C(C)C)c2c1 (optimized conformer: 81.54730767578374 kcal/mol)

>  <smiles>  (25) 
Cc1ccc2cc(C(N)=O)n(C(=O)NC(=O)C(=O)NC(C)C)c2c1

>  <score_type>  (25) 
oracle

>  <origin>  (25) 
adg

>  <m_score__min__energy>  (25) 
-11.800000000000001

>  <m_primary>  (25) 
energy

$$$$
25:0
     RDKit          3D

 50 51  0  0  0  0  0  0  0  0999 V2000
   -3.8770   24.5570  -26.9050 C   0  0  0  0  0  0  0  0  0  0  0  0
   -3.3670   23.5420  -27.6120 C   0  0  0  0  0  0  0  0  0  0  0  0
   -4.2420   22.6830  -28.4850 C   0  0  0  0  0  0  0  0  0  0  0  0
   -3.2270   21.7320  -29.6710 S   0  0  0  0  0  0  0  0  0  0  0  0
   -3.9800   22.4750  -31.1250 C   0  0  0  0  0  0  0  0  0  0  0  0
   -3.2800   22.6730  -32.1530 O   0  0  0  0  0  0  0  0  0  0  0  0
   -5.3480   22.9060  -31.0970 N   0  0  0  0  0  0  0  0  0  0  0  0
   -5.8330   24.1580  -30.8740 C   0  0  0  0  0  0  0  0  0  0  0  0
   -5.0360   25.3320  -30.4590 C   0  0  0  0  0  0  0  0  0  0  0  0
   -3.6090   25.2640  -30.4780 N   0  0  0  0  0  0  0  0  0  0  0  0
   -5.6010   26.4110  -30.1260 O   0  0  0  0  0  0  0  0  0  0  0  0
   -7.2210   24.1730  -31.0120 C   0  0  0  0  0  0  0  0  0  0  0  0
   -7.5700   22.8800  -31.3320 C   0  0  0  0  0  0  0  0  0  0  0  0
   -8.8180   22.3270  -31.6020 C   0  0  0  0  0  0  0  0  0  0  0  0
   -8.8740   20.9640  -31.9420 C   0  0  0  0  0  0  0  0  0  0  0  0
   -7.6910   20.1880  -32.0100 C   0  0  0  0  0  0  0  0  0  0  0  0
   -7.7650   18.7260  -32.3560 C   0  0  0  0  0  0  0  0  0  0  0  0
   -6.8490   17.9140  -31.4400 C   0  0  0  0  0  0  0  0  0  0  0  0
   -5.8830   16.7340  -32.3760 S   0  0  0  0  0  0  0  0  0  0  0  0
   -5.0240   15.7090  -31.3560 O   0  0  0  0  0  0  0  0  0  0  0  0
   -4.8060   17.4600  -33.6200 C   0  0  0  0  0  0  0  0  0  0  0  0
   -5.6530   17.9120  -34.8220 C   0  0  0  0  0  0  0  0  0  0  0  0
   -4.0560   18.6640  -33.0230 C   0  0  0  0  0  0  0  0  0  0  0  0
   -3.7940   16.3970  -34.0780 C   0  0  0  0  0  0  0  0  0  0  0  0
   -6.4450   20.7800  -31.7070 C   0  0  0  0  0  0  0  0  0  0  0  0
   -6.4210   22.1360  -31.3720 C   0  0  0  0  0  0  0  0  0  0  0  0
   -3.2195   25.1723  -26.2732 H   0  0  0  0  0  0  0  0  0  0  0  0
   -4.9538   24.7762  -26.9555 H   0  0  0  0  0  0  0  0  0  0  0  0
   -2.2889   23.3315  -27.5542 H   0  0  0  0  0  0  0  0  0  0  0  0
   -4.8096   21.9844  -27.8527 H   0  0  0  0  0  0  0  0  0  0  0  0
   -4.9305   23.3317  -29.0463 H   0  0  0  0  0  0  0  0  0  0  0  0
   -3.1110   24.6030  -31.1130 H   0  0  0  0  0  0  0  0  0  0  0  0
   -7.8939   25.0347  -30.8909 H   0  0  0  0  0  0  0  0  0  0  0  0
   -9.7319   22.9370  -31.5510 H   0  0  0  0  0  0  0  0  0  0  0  0
   -9.8458   20.4957  -32.1573 H   0  0  0  0  0  0  0  0  0  0  0  0
   -8.8010   18.3768  -32.2343 H   0  0  0  0  0  0  0  0  0  0  0  0
   -7.4396   18.5892  -33.3978 H   0  0  0  0  0  0  0  0  0  0  0  0
   -6.1678   18.5992  -30.9142 H   0  0  0  0  0  0  0  0  0  0  0  0
   -7.4734   17.3625  -30.7216 H   0  0  0  0  0  0  0  0  0  0  0  0
   -5.3850   15.8990  -30.4540 H   0  0  0  0  0  0  0  0  0  0  0  0
   -6.5698   18.4012  -34.4613 H   0  0  0  0  0  0  0  0  0  0  0  0
   -5.0746   18.6214  -35.4321 H   0  0  0  0  0  0  0  0  0  0  0  0
   -5.9203   17.0366  -35.4321 H   0  0  0  0  0  0  0  0  0  0  0  0
   -4.0900   18.6094  -31.9249 H   0  0  0  0  0  0  0  0  0  0  0  0
   -3.0086   18.6467  -33.3587 H   0  0  0  0  0  0  0  0  0  0  0  0
   -4.5333   19.5965  -33.3587 H   0  0  0  0  0  0  0  0  0  0  0  0
   -3.3396   15.9197  -33.1972 H   0  0  0  0  0  0  0  0  0  0  0  0
   -4.3097   15.6361  -34.6822 H   0  0  0  0  0  0  0  0  0  0  0  0
   -3.0087   16.8747  -34.6822 H   0  0  0  0  0  0  0  0  0  0  0  0
   -5.5178   20.1888  -31.7341 H   0  0  0  0  0  0  0  0  0  0  0  0
  1  2  2  0
  2  3  1  0
  3  4  1  0
  4  5  1  0
  5  6  2  0
  5  7  1  0
  7  8  1  0
  8  9  1  0
  9 10  1  0
  9 11  2  0
  8 12  2  0
 12 13  1  0
 13 14  2  0
 14 15  1  0
 15 16  2  0
 16 17  1  0
 17 18  1  0
 18 19  1  0
 19 20  1  1
 19 21  1  0
 21 22  1  0
 21 23  1  0
 21 24  1  0
 16 25  1  0
 25 26  2  0
 26  7  1  0
 26 13  1  0
  1 27  1  0
  1 28  1  0
  2 29  1  0
  3 30  1  0
  3 31  1  0
 10 32  1  0
 12 33  1  0
 14 34  1  0
 15 35  1  0
 17 36  1  0
 17 37  1  0
 18 38  1  0
 18 39  1  0
 20 40  1  0
 22 41  1  0
 22 42  1  0
 22 43  1  0
 23 44  1  0
 23 45  1  0
 23 46  1  0
 24 47  1  0
 24 48  1  0
 24 49  1  0
 25 50  1  0
M  CHG  2  10  -1  19   1
M  END
>  <UniqueID>  (26) 
26

>  <SMILES>  (26) 
C=CCSC(=O)n1c(C([NH-])=O)cc2ccc(CC[S@+](O)C(C)(C)C)cc21

>  <Energy>  (26) 
67.19533255707118

>  <Genealogy>  (26) 
C=CCSC(=O)n1c(C([NH-])=O)cc2ccc(CC[S+](O)C(C)(C)C)cc21 (protonated)
C=CCSC(=O)n1c(C([NH-])=O)cc2ccc(CC[S@+](O)C(C)(C)C)cc21 (chirality)
C=CCSC(=O)n1c(C([NH-])=O)cc2ccc(CC[S@+](O)C(C)(C)C)cc21 (3D coordinates assigned)
C=CCSC(=O)n1c(C([NH-])=O)cc2ccc(CC[S@+](O)C(C)(C)C)cc21 (optimized conformer: 67.19533255707118 kcal/mol)

>  <smiles>  (26) 
C=CCSC(=O)n1c(C(N)=O)cc2ccc(CC[S+]([O-])C(C)(C)C)cc21

>  <score_type>  (26) 
oracle

>  <origin>  (26) 
adg

>  <m_score__min__energy>  (26) 
-11.380000000000001

>  <m_primary>  (26) 
energy

$$$$
26:0
     RDKit          3D

 43 44  0  0  0  0  0  0  0  0999 V2000
    0.3730   24.1560  -27.5180 C   0  0  0  0  0  0  0  0  0  0  0  0
   -0.0650   23.4890  -28.8270 C   0  0  0  0  0  0  0  0  0  0  0  0
   -1.5370   23.3440  -28.9100 N   0  0  2  0  0  0  0  0  0  0  0  0
   -2.1840   24.5640  -28.4700 C   0  0  0  0  0  0  0  0  0  0  0  0
   -3.2790   24.5340  -27.4390 C   0  0  0  0  0  0  0  0  0  0  0  0
   -1.8400   25.6450  -28.9290 O   0  0  0  0  0  0  0  0  0  0  0  0
   -2.0380   22.2380  -28.1190 C   0  0  0  0  0  0  0  0  0  0  0  0
   -1.7820   22.1620  -26.8840 O   0  0  0  0  0  0  0  0  0  0  0  0
   -2.9190   21.2250  -28.7280 C   0  0  0  0  0  0  0  0  0  0  0  0
   -3.4410   20.3340  -28.0040 O   0  0  0  0  0  0  0  0  0  0  0  0
   -3.1800   21.2830  -30.1020 O   0  0  0  0  0  0  0  0  0  0  0  0
   -3.6070   22.4180  -30.8010 C   0  0  0  0  0  0  0  0  0  0  0  0
   -2.7760   23.2710  -31.2160 O   0  0  0  0  0  0  0  0  0  0  0  0
   -5.0130   22.6270  -31.0090 N   0  0  0  0  0  0  0  0  0  0  0  0
   -5.7480   23.7440  -30.7350 C   0  0  0  0  0  0  0  0  0  0  0  0
   -5.2170   25.0470  -30.2830 C   0  0  0  0  0  0  0  0  0  0  0  0
   -4.0200   25.5850  -30.8380 N   0  0  0  0  0  0  0  0  0  0  0  0
   -5.8580   25.7180  -29.4310 O   0  0  0  0  0  0  0  0  0  0  0  0
   -7.0920   23.5290  -31.0340 C   0  0  0  0  0  0  0  0  0  0  0  0
   -7.1580   22.2420  -31.5170 C   0  0  0  0  0  0  0  0  0  0  0  0
   -8.2540   21.5080  -31.9600 C   0  0  0  0  0  0  0  0  0  0  0  0
   -8.0330   20.1880  -32.3880 C   0  0  0  0  0  0  0  0  0  0  0  0
   -6.7300   19.6290  -32.3720 C   0  0  0  0  0  0  0  0  0  0  0  0
   -6.5090   18.1940  -32.7820 C   0  0  0  0  0  0  0  0  0  0  0  0
   -7.6780   17.4650  -32.6510 F   0  0  0  0  0  0  0  0  0  0  0  0
   -6.1000   18.1560  -34.1010 F   0  0  0  0  0  0  0  0  0  0  0  0
   -5.5390   17.6030  -31.9920 F   0  0  0  0  0  0  0  0  0  0  0  0
   -5.6490   20.3980  -31.8840 C   0  0  0  0  0  0  0  0  0  0  0  0
   -5.8920   21.7190  -31.4900 C   0  0  0  0  0  0  0  0  0  0  0  0
   -0.0083   23.5753  -26.6651 H   0  0  0  0  0  0  0  0  0  0  0  0
    1.4715   24.1926  -27.4748 H   0  0  0  0  0  0  0  0  0  0  0  0
   -0.0300   25.1786  -27.4748 H   0  0  0  0  0  0  0  0  0  0  0  0
    0.2796   24.1038  -29.6716 H   0  0  0  0  0  0  0  0  0  0  0  0
    0.3782   22.4828  -28.8607 H   0  0  0  0  0  0  0  0  0  0  0  0
   -1.7710   23.1730  -29.9150 H   0  0  0  0  0  0  0  0  0  0  0  0
   -2.8354   24.5462  -26.4325 H   0  0  0  0  0  0  0  0  0  0  0  0
   -3.9258   25.4148  -27.5653 H   0  0  0  0  0  0  0  0  0  0  0  0
   -3.8766   23.6191  -27.5653 H   0  0  0  0  0  0  0  0  0  0  0  0
   -3.0830   25.2830  -30.4900 H   0  0  0  0  0  0  0  0  0  0  0  0
   -7.9240   24.2379  -30.9102 H   0  0  0  0  0  0  0  0  0  0  0  0
   -9.2623   21.9475  -31.9747 H   0  0  0  0  0  0  0  0  0  0  0  0
   -8.8806   19.5813  -32.7395 H   0  0  0  0  0  0  0  0  0  0  0  0
   -4.6390   19.9678  -31.8154 H   0  0  0  0  0  0  0  0  0  0  0  0
  1  2  1  0
  2  3  1  0
  3  4  1  0
  4  5  1  0
  4  6  2  0
  3  7  1  0
  7  8  2  0
  7  9  1  0
  9 10  2  0
  9 11  1  0
 11 12  1  0
 12 13  2  0
 12 14  1  0
 14 15  1  0
 15 16  1  0
 16 17  1  0
 16 18  2  0
 15 19  2  0
 19 20  1  0
 20 21  2  0
 21 22  1  0
 22 23  2  0
 23 24  1  0
 24 25  1  0
 24 26  1  0
 24 27  1  0
 23 28  1  0
 28 29  2  0
 29 14  1  0
 29 20  1  0
  1 30  1  0
  1 31  1  0
  1 32  1  0
  2 33  1  0
  2 34  1  0
  3 35  1  6
  5 36  1  0
  5 37  1  0
  5 38  1  0
 17 39  1  0
 19 40  1  0
 21 41  1  0
 22 42  1  0
 28 43  1  0
M  CHG  2   3   1  17  -1
M  END
>  <UniqueID>  (27) 
27

>  <SMILES>  (27) 
CC[NH+](C(C)=O)C(=O)C(=O)OC(=O)n1c(C([NH-])=O)cc2ccc(C(F)(F)F)cc21

>  <Energy>  (27) 
80.62167898295

>  <Genealogy>  (27) 
CC[NH+](C(C)=O)C(=O)C(=O)OC(=O)n1c(C([NH-])=O)cc2ccc(C(F)(F)F)cc21 (protonated)
CC[NH+](C(C)=O)C(=O)C(=O)OC(=O)n1c(C([NH-])=O)cc2ccc(C(F)(F)F)cc21 (3D coordinates assigned)
CC[NH+](C(C)=O)C(=O)C(=O)OC(=O)n1c(C([NH-])=O)cc2ccc(C(F)(F)F)cc21 (optimized conformer: 80.62167898295 kcal/mol)

>  <smiles>  (27) 
CCN(C(C)=O)C(=O)C(=O)OC(=O)n1c(C(N)=O)cc2ccc(C(F)(F)F)cc21

>  <score_type>  (27) 
oracle

>  <origin>  (27) 
adg

>  <m_score__min__energy>  (27) 
-9.7200000000000006

>  <m_primary>  (27) 
energy

$$$$
27:0
     RDKit          3D

 40 42  0  0  0  0  0  0  0  0999 V2000
   -3.3860   21.0760  -33.3040 C   0  0  0  0  0  0  0  0  0  0  0  0
   -2.1560   20.2920  -32.6870 C   0  0  2  0  0  0  0  0  0  0  0  0
   -1.9650   18.5040  -33.4080 C   0  0  0  0  0  0  0  0  0  0  0  0
   -0.4810   20.6510  -34.2350 I   0  0  0  0  0  0  0  0  0  0  0  0
    0.6730   22.3070  -34.8710 O   0  0  0  0  0  0  0  0  0  0  0  0
   -1.5260   21.2520  -31.3830 C   0  0  0  0  0  0  0  0  0  0  0  0
   -0.4610   20.7890  -30.9150 O   0  0  0  0  0  0  0  0  0  0  0  0
   -2.0530   22.6220  -30.5280 C   0  0  0  0  0  0  0  0  0  0  0  0
   -1.1790   23.5210  -30.3000 O   0  0  0  0  0  0  0  0  0  0  0  0
   -3.5090   23.1340  -30.4280 N   0  0  0  0  0  0  0  0  0  0  0  0
   -3.6530   24.3360  -29.7460 C   0  0  0  0  0  0  0  0  0  0  0  0
   -2.7220   24.8120  -28.6700 C   0  0  0  0  0  0  0  0  0  0  0  0
   -1.6090   25.7180  -28.9630 N   0  0  0  0  0  0  0  0  0  0  0  0
   -2.9970   24.5910  -27.4420 O   0  0  0  0  0  0  0  0  0  0  0  0
   -4.9270   24.8570  -29.8530 C   0  0  0  0  0  0  0  0  0  0  0  0
   -5.6900   23.9080  -30.4670 C   0  0  0  0  0  0  0  0  0  0  0  0
   -7.0010   24.0950  -30.9290 C   0  0  0  0  0  0  0  0  0  0  0  0
   -7.6510   23.0640  -31.5810 C   0  0  0  0  0  0  0  0  0  0  0  0
   -7.0870   21.7650  -31.6830 C   0  0  0  0  0  0  0  0  0  0  0  0
   -7.9240   20.6180  -32.3220 C   0  0  0  0  0  0  0  0  0  0  0  0
   -9.2800   20.3730  -32.1860 C   0  0  0  0  0  0  0  0  0  0  0  0
   -9.4850   19.0910  -32.5900 C   0  0  0  0  0  0  0  0  0  0  0  0
   -8.3490   18.5480  -32.9390 O   0  0  0  0  0  0  0  0  0  0  0  0
   -7.3900   19.4290  -32.8040 C   0  0  0  0  0  0  0  0  0  0  0  0
   -5.7620   21.5770  -31.0870 C   0  0  0  0  0  0  0  0  0  0  0  0
   -4.9160   22.7720  -30.6980 C   0  0  0  0  0  0  0  0  0  0  0  0
   -4.0115   21.4747  -32.4917 H   0  0  0  0  0  0  0  0  0  0  0  0
   -3.0177   21.9063  -33.9244 H   0  0  0  0  0  0  0  0  0  0  0  0
   -3.9832   20.3916  -33.9244 H   0  0  0  0  0  0  0  0  0  0  0  0
   -1.1335   19.8880  -32.6506 H   0  0  0  0  0  0  0  0  0  0  0  0
   -1.5070   17.7037  -32.8082 H   0  0  0  0  0  0  0  0  0  0  0  0
   -2.6212   17.7564  -33.8776 H   0  0  0  0  0  0  0  0  0  0  0  0
   -1.0420   25.7520  -29.8600 H   0  0  0  0  0  0  0  0  0  0  0  0
   -5.2620   25.8467  -29.5093 H   0  0  0  0  0  0  0  0  0  0  0  0
   -7.5096   25.0578  -30.7732 H   0  0  0  0  0  0  0  0  0  0  0  0
   -8.6347   23.2556  -32.0344 H   0  0  0  0  0  0  0  0  0  0  0  0
  -10.0423   21.0777  -31.8223 H   0  0  0  0  0  0  0  0  0  0  0  0
  -10.4619   18.5861  -32.6187 H   0  0  0  0  0  0  0  0  0  0  0  0
   -6.3288   19.2554  -33.0356 H   0  0  0  0  0  0  0  0  0  0  0  0
   -5.3782   20.5597  -30.9205 H   0  0  0  0  0  0  0  0  0  0  0  0
  1  2  1  0
  2  3  1  0
  3  4  1  0
  4  5  2  0
  2  6  1  0
  6  7  2  0
  6  8  1  0
  8  9  2  0
  8 10  1  0
 10 11  1  0
 11 12  1  0
 12 13  1  0
 12 14  2  0
 11 15  2  0
 15 16  1  0
 16 17  2  0
 17 18  1  0
 18 19  2  0
 19 20  1  0
 20 21  1  0
 21 22  2  0
 22 23  1  0
 23 24  1  0
 19 25  1  0
 25 26  2  0
 26 10  1  0
 26 16  1  0
 24 20  2  0
  1 27  1  0
  1 28  1  0
  1 29  1  0
  2 30  1  6
  3 31  1  0
  3 32  1  0
 13 33  1  0
 15 34  1  0
 17 35  1  0
 18 36  1  0
 21 37  1  0
 22 38  1  0
 24 39  1  0
 25 40  1  0
M  CHG  1  13  -1
M  END
>  <UniqueID>  (28) 
28

>  <SMILES>  (28) 
C[C@H](CI=O)C(=O)C(=O)n1c(C([NH-])=O)cc2ccc(-c3ccoc3)cc21

>  <Energy>  (28) 
768.9755514273803

>  <Genealogy>  (28) 
CC(CI=O)C(=O)C(=O)n1c(C([NH-])=O)cc2ccc(-c3ccoc3)cc21 (protonated)
C[C@H](CI=O)C(=O)C(=O)n1c(C([NH-])=O)cc2ccc(-c3ccoc3)cc21 (chirality)
C[C@H](CI=O)C(=O)C(=O)n1c(C([NH-])=O)cc2ccc(-c3ccoc3)cc21 (3D coordinates assigned)
C[C@H](CI=O)C(=O)C(=O)n1c(C([NH-])=O)cc2ccc(-c3ccoc3)cc21 (optimized conformer: 768.9755514273803 kcal/mol)

>  <smiles>  (28) 
CC(CI=O)C(=O)C(=O)n1c(C(N)=O)cc2ccc(-c3ccoc3)cc21

>  <score_type>  (28) 
oracle

>  <origin>  (28) 
adg

>  <m_score__min__energy>  (28) 
-10.710000000000001

>  <m_primary>  (28) 
energy

$$$$
28:0
     RDKit          3D

 42 43  0  0  0  0  0  0  0  0999 V2000
   -1.3842   23.9118  -30.7901 H   0  0  0  0  0  0  0  0  0  0  0  0
   -1.6340   23.3750  -29.8630 C   0  0  0  0  0  0  0  0  0  0  0  0
   -0.9310   23.7310  -28.6210 C   0  0  0  0  0  0  0  0  0  0  0  0
    0.2460   24.1760  -28.6940 O   0  0  0  0  0  0  0  0  0  0  0  0
   -1.5670   23.5710  -27.3820 O   0  0  0  0  0  0  0  0  0  0  0  0
   -2.1610   24.6020  -26.6390 C   0  0  0  0  0  0  0  0  0  0  0  0
   -3.3790   24.8920  -26.8010 O   0  0  0  0  0  0  0  0  0  0  0  0
   -1.3720   25.3310  -25.6840 N   0  0  0  0  0  0  0  0  0  0  0  0
   -1.9850   26.4090  -24.9020 C   0  0  0  0  0  0  0  0  0  0  0  0
   -1.8649   26.1977  -23.8292 H   0  0  0  0  0  0  0  0  0  0  0  0
   -1.4943   27.3630  -25.1450 H   0  0  0  0  0  0  0  0  0  0  0  0
   -3.0558   26.4751  -25.1450 H   0  0  0  0  0  0  0  0  0  0  0  0
    0.0400   24.9850  -25.5070 C   0  0  0  0  0  0  0  0  0  0  0  0
    0.2718   24.9282  -24.4332 H   0  0  0  0  0  0  0  0  0  0  0  0
    0.2406   24.0111  -25.9774 H   0  0  0  0  0  0  0  0  0  0  0  0
    0.6682   25.7558  -25.9774 H   0  0  0  0  0  0  0  0  0  0  0  0
   -2.5680   22.4180  -29.8990 C   0  0  0  0  0  0  0  0  0  0  0  0
   -2.8117   21.8822  -28.9697 H   0  0  0  0  0  0  0  0  0  0  0  0
   -3.2840   22.0530  -31.1360 C   0  0  0  0  0  0  0  0  0  0  0  0
   -2.6390   21.5080  -32.0720 O   0  0  0  0  0  0  0  0  0  0  0  0
   -4.6910   22.2960  -31.3000 N   0  0  0  0  0  0  0  0  0  0  0  0
   -5.4210   23.3560  -30.8490 C   0  0  0  0  0  0  0  0  0  0  0  0
   -4.8830   24.5520  -30.1690 C   0  0  0  0  0  0  0  0  0  0  0  0
   -4.2100   25.3870  -30.8290 O   0  0  0  0  0  0  0  0  0  0  0  0
   -5.0720   24.7600  -28.7680 N   0  0  0  0  0  0  0  0  0  0  0  0
   -5.4500   24.0070  -28.1540 H   0  0  0  0  0  0  0  0  0  0  0  0
   -4.7390   25.6440  -28.3220 H   0  0  0  0  0  0  0  0  0  0  0  0
   -6.7720   23.1740  -31.1340 C   0  0  0  0  0  0  0  0  0  0  0  0
   -7.6034   23.8488  -30.8821 H   0  0  0  0  0  0  0  0  0  0  0  0
   -6.8460   21.9700  -31.7980 C   0  0  0  0  0  0  0  0  0  0  0  0
   -7.9460   21.2990  -32.3210 C   0  0  0  0  0  0  0  0  0  0  0  0
   -8.9569   21.7266  -32.2490 H   0  0  0  0  0  0  0  0  0  0  0  0
   -7.7280   20.0590  -32.9440 C   0  0  0  0  0  0  0  0  0  0  0  0
   -8.5767   19.5142  -33.3832 H   0  0  0  0  0  0  0  0  0  0  0  0
   -6.4240   19.5010  -33.0130 C   0  0  0  0  0  0  0  0  0  0  0  0
   -6.1980   18.1890  -33.7200 C   0  0  0  0  0  0  0  0  0  0  0  0
   -7.2650   17.3470  -33.4710 F   0  0  0  0  0  0  0  0  0  0  0  0
   -5.0340   17.5860  -33.2710 F   0  0  0  0  0  0  0  0  0  0  0  0
   -6.0850   18.3830  -35.0860 F   0  0  0  0  0  0  0  0  0  0  0  0
   -5.3290   20.2250  -32.4880 C   0  0  0  0  0  0  0  0  0  0  0  0
   -4.3066   19.8242  -32.5518 H   0  0  0  0  0  0  0  0  0  0  0  0
   -5.5760   21.4620  -31.8860 C   0  0  0  0  0  0  0  0  0  0  0  0
  1  2  1  0
  2  3  1  0
  3  4  2  0
  3  5  1  0
  5  6  1  0
  6  7  2  0
  6  8  1  0
  8  9  1  0
  9 10  1  0
  9 11  1  0
  9 12  1  0
  8 13  1  0
 13 14  1  0
 13 15  1  0
 13 16  1  0
  2 17  2  0
 17 18  1  0
 17 19  1  0
 19 20  2  0
 19 21  1  0
 21 22  1  0
 22 23  1  0
 23 24  2  0
 23 25  1  0
 25 26  1  0
 25 27  1  0
 22 28  2  0
 28 29  1  0
 28 30  1  0
 30 31  2  0
 31 32  1  0
 31 33  1  0
 33 34  1  0
 33 35  2  0
 35 36  1  0
 36 37  1  0
 36 38  1  0
 36 39  1  0
 35 40  1  0
 40 41  1  0
 40 42  2  0
 42 21  1  0
 42 30  1  0
M  END
>  <UniqueID>  (29) 
29

>  <SMILES>  (29) 
CN(C)C(=O)OC(=O)/C=C/C(=O)n1c(C(N)=O)cc2ccc(C(F)(F)F)cc21

>  <Energy>  (29) 
78.46567879317526

>  <Genealogy>  (29) 
CN(C)C(=O)OC(=O)/C=C/C(=O)n1c(C(N)=O)cc2ccc(C(F)(F)F)cc21 (cis-trans isomerization)
CN(C)C(=O)OC(=O)/C=C/C(=O)n1c(C(N)=O)cc2ccc(C(F)(F)F)cc21 (3D coordinates assigned)
CN(C)C(=O)OC(=O)/C=C/C(=O)n1c(C(N)=O)cc2ccc(C(F)(F)F)cc21 (optimized conformer: 78.46567879317526 kcal/mol)

>  <smiles>  (29) 
CN(C)C(=O)OC(=O)C=CC(=O)n1c(C(N)=O)cc2ccc(C(F)(F)F)cc21

>  <score_type>  (29) 
oracle

>  <origin>  (29) 
adg

>  <m_score__min__energy>  (29) 
-9.4600000000000009

>  <m_primary>  (29) 
energy

$$$$
29:0
     RDKit          3D

 35 36  0  0  0  0  0  0  0  0999 V2000
   -1.0010   21.7470  -31.7790 N   0  0  0  0  0  0  0  0  0  0  0  0
   -1.5930   21.2510  -32.9810 C   0  0  0  0  0  0  0  0  0  0  0  0
   -0.9060   21.2160  -34.0360 O   0  0  0  0  0  0  0  0  0  0  0  0
   -2.9700   20.7180  -32.9940 C   0  0  0  0  0  0  0  0  0  0  0  0
   -3.3470   19.5910  -33.7180 C   0  0  0  0  0  0  0  0  0  0  0  0
   -4.6740   19.3910  -33.4140 C   0  0  0  0  0  0  0  0  0  0  0  0
   -5.5520   18.4050  -33.8510 C   0  0  0  0  0  0  0  0  0  0  0  0
   -6.8790   18.4530  -33.3930 C   0  0  0  0  0  0  0  0  0  0  0  0
   -7.3120   19.4950  -32.5340 C   0  0  0  0  0  0  0  0  0  0  0  0
   -8.7300   19.5170  -32.0200 C   0  0  0  0  0  0  0  0  0  0  0  0
   -8.9390   18.4840  -31.1230 F   0  0  0  0  0  0  0  0  0  0  0  0
   -9.6010   19.3750  -33.0830 F   0  0  0  0  0  0  0  0  0  0  0  0
   -8.9980   20.7110  -31.3730 F   0  0  0  0  0  0  0  0  0  0  0  0
   -6.3830   20.4670  -32.0920 C   0  0  0  0  0  0  0  0  0  0  0  0
   -5.0610   20.3810  -32.5470 C   0  0  0  0  0  0  0  0  0  0  0  0
   -4.0230   21.2090  -32.2810 N   0  0  0  0  0  0  0  0  0  0  0  0
   -4.0560   22.4120  -31.4960 C   0  0  0  0  0  0  0  0  0  0  0  0
   -3.4100   22.4740  -30.4150 O   0  0  0  0  0  0  0  0  0  0  0  0
   -4.8060   23.5070  -31.9460 O   0  0  0  0  0  0  0  0  0  0  0  0
   -6.1020   23.8230  -31.5210 C   0  0  0  0  0  0  0  0  0  0  0  0
   -7.1100   23.5250  -32.2180 O   0  0  0  0  0  0  0  0  0  0  0  0
   -6.2880   24.5560  -30.2310 C   0  0  0  0  0  0  0  0  0  0  0  0
   -5.5410   25.8860  -30.2540 C   0  0  0  0  0  0  0  0  0  0  0  0
   -4.2050   25.6640  -30.6060 O   0  0  0  0  0  0  0  0  0  0  0  0
   -1.4730   21.6280  -30.8550 H   0  0  0  0  0  0  0  0  0  0  0  0
   -0.0440   22.1630  -31.7990 H   0  0  0  0  0  0  0  0  0  0  0  0
   -2.7182   18.9885  -34.3900 H   0  0  0  0  0  0  0  0  0  0  0  0
   -5.2172   17.6112  -34.5349 H   0  0  0  0  0  0  0  0  0  0  0  0
   -7.5903   17.6737  -33.7041 H   0  0  0  0  0  0  0  0  0  0  0  0
   -6.6918   21.2708  -31.4075 H   0  0  0  0  0  0  0  0  0  0  0  0
   -7.3601   24.7466  -30.0753 H   0  0  0  0  0  0  0  0  0  0  0  0
   -5.8873   23.9394  -29.4129 H   0  0  0  0  0  0  0  0  0  0  0  0
   -6.0079   26.5562  -30.9908 H   0  0  0  0  0  0  0  0  0  0  0  0
   -5.5857   26.3492  -29.2573 H   0  0  0  0  0  0  0  0  0  0  0  0
   -4.1830   25.6340  -31.5980 H   0  0  0  0  0  0  0  0  0  0  0  0
  1  2  1  0
  2  3  2  0
  2  4  1  0
  4  5  2  0
  5  6  1  0
  6  7  2  0
  7  8  1  0
  8  9  2  0
  9 10  1  0
 10 11  1  0
 10 12  1  0
 10 13  1  0
  9 14  1  0
 14 15  2  0
 15 16  1  0
 16 17  1  0
 17 18  2  0
 17 19  1  0
 19 20  1  0
 20 21  2  0
 20 22  1  0
 22 23  1  0
 23 24  1  0
 16  4  1  0
 15  6  1  0
  1 25  1  0
  1 26  1  0
  5 27  1  0
  7 28  1  0
  8 29  1  0
 14 30  1  0
 22 31  1  0
 22 32  1  0
 23 33  1  0
 23 34  1  0
 24 35  1  0
M  END
>  <UniqueID>  (30) 
30

>  <SMILES>  (30) 
NC(=O)c1cc2ccc(C(F)(F)F)cc2n1C(=O)OC(=O)CCO

>  <Energy>  (30) 
71.88230727130247

>  <Genealogy>  (30) 
NC(=O)c1cc2ccc(C(F)(F)F)cc2n1C(=O)OC(=O)CCO (3D coordinates assigned)
NC(=O)c1cc2ccc(C(F)(F)F)cc2n1C(=O)OC(=O)CCO (optimized conformer: 71.88230727130247 kcal/mol)

>  <smiles>  (30) 
NC(=O)c1cc2ccc(C(F)(F)F)cc2n1C(=O)OC(=O)CCO

>  <score_type>  (30) 
oracle

>  <origin>  (30) 
adg

>  <m_score__min__energy>  (30) 
-8.1199999999999992

>  <m_primary>  (30) 
energy

$$$$
30:0
     RDKit          3D

 35 36  0  0  0  0  0  0  0  0999 V2000
   -6.1950   18.2020  -32.8450 C   0  0  0  0  0  0  0  0  0  0  0  0
   -6.5270   19.6190  -32.4840 C   0  0  0  0  0  0  0  0  0  0  0  0
   -7.8480   20.1030  -32.6490 C   0  0  0  0  0  0  0  0  0  0  0  0
   -8.1740   21.4230  -32.2950 C   0  0  0  0  0  0  0  0  0  0  0  0
   -7.1680   22.2210  -31.7580 C   0  0  0  0  0  0  0  0  0  0  0  0
   -7.2040   23.5380  -31.3670 C   0  0  0  0  0  0  0  0  0  0  0  0
   -5.9150   23.8290  -30.9280 C   0  0  0  0  0  0  0  0  0  0  0  0
   -5.5270   25.1510  -30.3890 C   0  0  0  0  0  0  0  0  0  0  0  0
   -4.2010   25.6460  -30.5330 N   0  0  0  0  0  0  0  0  0  0  0  0
   -6.3750   25.8420  -29.7640 O   0  0  0  0  0  0  0  0  0  0  0  0
   -5.1100   22.7320  -31.0380 N   0  0  0  0  0  0  0  0  0  0  0  0
   -3.6990   22.6450  -30.7590 C   0  0  0  0  0  0  0  0  0  0  0  0
   -2.9400   22.0740  -31.5910 O   0  0  0  0  0  0  0  0  0  0  0  0
   -3.1480   23.2460  -29.5610 N   0  0  1  0  0  0  0  0  0  0  0  0
   -3.7840   22.7050  -28.3430 C   0  0  0  0  0  0  0  0  0  0  0  0
   -1.6690   23.1400  -29.5300 C   0  0  0  0  0  0  0  0  0  0  0  0
   -0.9680   24.4250  -29.1680 C   0  0  0  0  0  0  0  0  0  0  0  0
    0.2100   24.3970  -28.7260 O   0  0  0  0  0  0  0  0  0  0  0  0
   -1.6090   25.6460  -29.3250 O   0  0  0  0  0  0  0  0  0  0  0  0
   -5.8930   21.7580  -31.5570 C   0  0  0  0  0  0  0  0  0  0  0  0
   -5.5370   20.4550  -31.9260 C   0  0  0  0  0  0  0  0  0  0  0  0
   -6.0569   17.6124  -31.9267 H   0  0  0  0  0  0  0  0  0  0  0  0
   -7.0168   17.7722  -33.4366 H   0  0  0  0  0  0  0  0  0  0  0  0
   -5.2678   18.1819  -33.4366 H   0  0  0  0  0  0  0  0  0  0  0  0
   -8.6249   19.4400  -33.0576 H   0  0  0  0  0  0  0  0  0  0  0  0
   -9.1924   21.8135  -32.4378 H   0  0  0  0  0  0  0  0  0  0  0  0
   -8.0680   24.2182  -31.3949 H   0  0  0  0  0  0  0  0  0  0  0  0
   -3.5450   25.6660  -29.7210 H   0  0  0  0  0  0  0  0  0  0  0  0
   -3.3650   24.2700  -29.5850 H   0  0  0  0  0  0  0  0  0  0  0  0
   -3.2904   23.1249  -27.4542 H   0  0  0  0  0  0  0  0  0  0  0  0
   -4.8496   22.9777  -28.3338 H   0  0  0  0  0  0  0  0  0  0  0  0
   -3.6858   21.6094  -28.3338 H   0  0  0  0  0  0  0  0  0  0  0  0
   -1.3928   22.3751  -28.7893 H   0  0  0  0  0  0  0  0  0  0  0  0
   -1.3479   22.8793  -30.5493 H   0  0  0  0  0  0  0  0  0  0  0  0
   -4.5086   20.0914  -31.7840 H   0  0  0  0  0  0  0  0  0  0  0  0
  1  2  1  0
  2  3  2  0
  3  4  1  0
  4  5  2  0
  5  6  1  0
  6  7  2  0
  7  8  1  0
  8  9  1  0
  8 10  2  0
  7 11  1  0
 11 12  1  0
 12 13  2  0
 12 14  1  0
 14 15  1  0
 14 16  1  0
 16 17  1  0
 17 18  2  0
 17 19  1  0
 11 20  1  0
 20 21  2  0
 21  2  1  0
 20  5  1  0
  1 22  1  0
  1 23  1  0
  1 24  1  0
  3 25  1  0
  4 26  1  0
  6 27  1  0
  9 28  1  0
 14 29  1  6
 15 30  1  0
 15 31  1  0
 15 32  1  0
 16 33  1  0
 16 34  1  0
 21 35  1  0
M  CHG  3   9  -1  14   1  19  -1
M  END
>  <UniqueID>  (31) 
31

>  <SMILES>  (31) 
Cc1ccc2cc(C([NH-])=O)n(C(=O)[N@@H+](C)CC(=O)[O-])c2c1

>  <Energy>  (31) 
78.89249235617567

>  <Genealogy>  (31) 
Cc1ccc2cc(C([NH-])=O)n(C(=O)[NH+](C)CC(=O)[O-])c2c1 (protonated)
Cc1ccc2cc(C([NH-])=O)n(C(=O)[N@@H+](C)CC(=O)[O-])c2c1 (chirality)
Cc1ccc2cc(C([NH-])=O)n(C(=O)[N@@H+](C)CC(=O)[O-])c2c1 (3D coordinates assigned)
Cc1ccc2cc(C([NH-])=O)n(C(=O)[N@@H+](C)CC(=O)[O-])c2c1 (optimized conformer: 78.89249235617567 kcal/mol)

>  <smiles>  (31) 
Cc1ccc2cc(C(N)=O)n(C(=O)N(C)CC(=O)O)c2c1

>  <score_type>  (31) 
oracle

>  <origin>  (31) 
adg

>  <m_score__min__energy>  (31) 
-10.81

>  <m_primary>  (31) 
energy

$$$$
31:0
     RDKit          3D

 42 44  0  0  0  0  0  0  0  0999 V2000
   -7.8770   18.0450  -32.6470 C   0  0  0  0  0  0  0  0  0  0  0  0
   -7.8820   19.4900  -32.2440 C   0  0  0  0  0  0  0  0  0  0  0  0
   -9.0720   20.2520  -32.3390 C   0  0  0  0  0  0  0  0  0  0  0  0
   -9.0800   21.6130  -31.9850 C   0  0  0  0  0  0  0  0  0  0  0  0
   -7.8870   22.1810  -31.5500 C   0  0  0  0  0  0  0  0  0  0  0  0
   -7.6120   23.4660  -31.1360 C   0  0  0  0  0  0  0  0  0  0  0  0
   -6.2550   23.4680  -30.8050 C   0  0  0  0  0  0  0  0  0  0  0  0
   -5.5150   24.6340  -30.2560 C   0  0  0  0  0  0  0  0  0  0  0  0
   -5.9350   25.2750  -29.0490 N   0  0  0  0  0  0  0  0  0  0  0  0
   -4.4930   25.0700  -30.8490 O   0  0  0  0  0  0  0  0  0  0  0  0
   -5.7230   22.2320  -31.0120 N   0  0  0  0  0  0  0  0  0  0  0  0
   -4.3750   21.8020  -30.7710 C   0  0  0  0  0  0  0  0  0  0  0  0
   -3.9120   20.8330  -31.4350 O   0  0  0  0  0  0  0  0  0  0  0  0
   -3.5600   22.4560  -29.7760 N   0  0  0  0  0  0  0  0  0  0  0  0
   -2.2360   22.9650  -30.1920 C   0  0  0  0  0  0  0  0  0  0  0  0
   -1.2710   23.3450  -29.0450 C   0  0  0  0  0  0  0  0  0  0  0  0
   -1.8050   23.0800  -27.6400 C   0  0  0  0  0  0  0  0  0  0  0  0
   -3.2720   23.4910  -27.5030 C   0  0  1  0  0  0  0  0  0  0  0  0
   -3.4870   24.9210  -27.7570 N   0  0  0  0  0  0  0  0  0  0  0  0
   -4.1340   22.6310  -28.4290 C   0  0  0  0  0  0  0  0  0  0  0  0
   -6.7290   21.4580  -31.4660 C   0  0  0  0  0  0  0  0  0  0  0  0
   -6.6870   20.1050  -31.8170 C   0  0  0  0  0  0  0  0  0  0  0  0
   -7.8748   17.4132  -31.7465 H   0  0  0  0  0  0  0  0  0  0  0  0
   -8.7744   17.8280  -33.2450 H   0  0  0  0  0  0  0  0  0  0  0  0
   -6.9781   17.8342  -33.2450 H   0  0  0  0  0  0  0  0  0  0  0  0
   -9.9980   19.7752  -32.6927 H   0  0  0  0  0  0  0  0  0  0  0  0
  -10.0015   22.2102  -32.0501 H   0  0  0  0  0  0  0  0  0  0  0  0
   -8.3130   24.3117  -31.0783 H   0  0  0  0  0  0  0  0  0  0  0  0
   -6.7760   24.9640  -28.5200 H   0  0  0  0  0  0  0  0  0  0  0  0
   -5.3950   26.0880  -28.6750 H   0  0  0  0  0  0  0  0  0  0  0  0
   -1.7500   22.1861  -30.7980 H   0  0  0  0  0  0  0  0  0  0  0  0
   -2.4330   23.8989  -30.7388 H   0  0  0  0  0  0  0  0  0  0  0  0
   -0.3442   22.7665  -29.1728 H   0  0  0  0  0  0  0  0  0  0  0  0
   -1.1199   24.4322  -29.1171 H   0  0  0  0  0  0  0  0  0  0  0  0
   -1.7143   22.0058  -27.4213 H   0  0  0  0  0  0  0  0  0  0  0  0
   -1.2145   23.6790  -26.9311 H   0  0  0  0  0  0  0  0  0  0  0  0
   -3.5718   23.3188  -26.4587 H   0  0  0  0  0  0  0  0  0  0  0  0
   -3.8090   25.0440  -28.7440 H   0  0  0  0  0  0  0  0  0  0  0  0
   -4.2290   25.3000  -27.1300 H   0  0  0  0  0  0  0  0  0  0  0  0
   -4.2536   21.6384  -27.9703 H   0  0  0  0  0  0  0  0  0  0  0  0
   -5.0943   23.1531  -28.5529 H   0  0  0  0  0  0  0  0  0  0  0  0
   -5.7473   19.5359  -31.7615 H   0  0  0  0  0  0  0  0  0  0  0  0
  1  2  1  0
  2  3  2  0
  3  4  1  0
  4  5  2  0
  5  6  1  0
  6  7  2  0
  7  8  1  0
  8  9  1  0
  8 10  2  0
  7 11  1  0
 11 12  1  0
 12 13  2  0
 12 14  1  0
 14 15  1  0
 15 16  1  0
 16 17  1  0
 17 18  1  0
 18 19  1  0
 18 20  1  0
 11 21  1  0
 21 22  2  0
 22  2  1  0
 21  5  1  0
 20 14  1  0
  1 23  1  0
  1 24  1  0
  1 25  1  0
  3 26  1  0
  4 27  1  0
  6 28  1  0
  9 29  1  0
  9 30  1  0
 15 31  1  0
 15 32  1  0
 16 33  1  0
 16 34  1  0
 17 35  1  0
 17 36  1  0
 18 37  1  1
 19 38  1  0
 19 39  1  0
 20 40  1  0
 20 41  1  0
 22 42  1  0
M  END
>  <UniqueID>  (32) 
32

>  <SMILES>  (32) 
Cc1ccc2cc(C(N)=O)n(C(=O)N3CCC[C@@H](N)C3)c2c1

>  <Energy>  (32) 
85.58467103856131

>  <Genealogy>  (32) 
Cc1ccc2cc(C(N)=O)n(C(=O)N3CCC[C@@H](N)C3)c2c1 (3D coordinates assigned)
Cc1ccc2cc(C(N)=O)n(C(=O)N3CCC[C@@H](N)C3)c2c1 (nonaromatic ring conformer: 85.58467103856131 kcal/mol)

>  <smiles>  (32) 
Cc1ccc2cc(C(N)=O)n(C(=O)N3CCC[C@@H](N)C3)c2c1

>  <score_type>  (32) 
oracle

>  <origin>  (32) 
adg

>  <m_score__min__energy>  (32) 
-9.1899999999999995

>  <m_primary>  (32) 
energy

$$$$
32:0
     RDKit          3D

 41 42  0  0  0  0  0  0  0  0999 V2000
   -3.2060   20.1930  -33.5090 C   0  0  0  0  0  0  0  0  0  0  0  0
   -3.1540   18.8020  -33.7310 O   0  0  0  0  0  0  0  0  0  0  0  0
   -4.4570   18.2850  -33.9070 C   0  0  0  0  0  0  0  0  0  0  0  0
   -4.8590   17.5390  -32.7580 O   0  0  0  0  0  0  0  0  0  0  0  0
   -6.0420   17.7840  -32.0500 C   0  0  0  0  0  0  0  0  0  0  0  0
   -6.1590   17.4370  -30.8420 O   0  0  0  0  0  0  0  0  0  0  0  0
   -7.2030   18.4010  -32.7580 C   0  0  0  0  0  0  0  0  0  0  0  0
   -7.3820   19.8140  -32.2820 C   0  0  0  0  0  0  0  0  0  0  0  0
   -8.6580   20.4290  -32.3390 C   0  0  0  0  0  0  0  0  0  0  0  0
   -8.8210   21.7770  -31.9770 C   0  0  0  0  0  0  0  0  0  0  0  0
   -7.6930   22.4830  -31.5700 C   0  0  0  0  0  0  0  0  0  0  0  0
   -7.5590   23.8050  -31.2150 C   0  0  0  0  0  0  0  0  0  0  0  0
   -6.2040   23.9790  -30.9390 C   0  0  0  0  0  0  0  0  0  0  0  0
   -5.6170   25.2430  -30.4400 C   0  0  0  0  0  0  0  0  0  0  0  0
   -4.2610   25.5840  -30.7350 N   0  0  0  0  0  0  0  0  0  0  0  0
   -6.3210   26.0490  -29.7750 O   0  0  0  0  0  0  0  0  0  0  0  0
   -5.5280   22.8090  -31.1160 N   0  0  0  0  0  0  0  0  0  0  0  0
   -4.1100   22.5980  -31.0180 C   0  0  0  0  0  0  0  0  0  0  0  0
   -3.3670   22.8360  -32.0080 O   0  0  0  0  0  0  0  0  0  0  0  0
   -3.5600   22.1410  -29.8170 O   0  0  0  0  0  0  0  0  0  0  0  0
   -3.1940   23.0150  -28.7540 C   0  0  0  0  0  0  0  0  0  0  0  0
   -2.1110   23.9320  -29.2130 C   0  0  0  0  0  0  0  0  0  0  0  0
   -0.9630   23.4800  -29.4730 O   0  0  0  0  0  0  0  0  0  0  0  0
   -2.3700   25.2850  -29.3820 O   0  0  0  0  0  0  0  0  0  0  0  0
   -6.4530   21.9020  -31.5010 C   0  0  0  0  0  0  0  0  0  0  0  0
   -6.2600   20.5650  -31.8660 C   0  0  0  0  0  0  0  0  0  0  0  0
   -3.2134   20.3916  -32.4271 H   0  0  0  0  0  0  0  0  0  0  0  0
   -2.3251   20.6700  -33.9633 H   0  0  0  0  0  0  0  0  0  0  0  0
   -4.1201   20.6029  -33.9633 H   0  0  0  0  0  0  0  0  0  0  0  0
   -5.1589   19.1177  -34.0616 H   0  0  0  0  0  0  0  0  0  0  0  0
   -4.4599   17.6188  -34.7823 H   0  0  0  0  0  0  0  0  0  0  0  0
   -7.0152   18.3996  -33.8418 H   0  0  0  0  0  0  0  0  0  0  0  0
   -8.1140   17.8225  -32.5446 H   0  0  0  0  0  0  0  0  0  0  0  0
   -9.5295   19.8450  -32.6700 H   0  0  0  0  0  0  0  0  0  0  0  0
   -9.8091   22.2589  -32.0142 H   0  0  0  0  0  0  0  0  0  0  0  0
   -8.3531   24.5642  -31.1605 H   0  0  0  0  0  0  0  0  0  0  0  0
   -3.8670   26.4930  -30.4050 H   0  0  0  0  0  0  0  0  0  0  0  0
   -3.6290   24.9170  -31.2290 H   0  0  0  0  0  0  0  0  0  0  0  0
   -4.0696   23.6063  -28.4479 H   0  0  0  0  0  0  0  0  0  0  0  0
   -2.8343   22.4222  -27.9001 H   0  0  0  0  0  0  0  0  0  0  0  0
   -5.2592   20.1099  -31.8299 H   0  0  0  0  0  0  0  0  0  0  0  0
  1  2  1  0
  2  3  1  0
  3  4  1  0
  4  5  1  0
  5  6  2  0
  5  7  1  0
  7  8  1  0
  8  9  2  0
  9 10  1  0
 10 11  2  0
 11 12  1  0
 12 13  2  0
 13 14  1  0
 14 15  1  0
 14 16  2  0
 13 17  1  0
 17 18  1  0
 18 19  2  0
 18 20  1  0
 20 21  1  0
 21 22  1  0
 22 23  2  0
 22 24  1  0
 17 25  1  0
 25 26  2  0
 26  8  1  0
 25 11  1  0
  1 27  1  0
  1 28  1  0
  1 29  1  0
  3 30  1  0
  3 31  1  0
  7 32  1  0
  7 33  1  0
  9 34  1  0
 10 35  1  0
 12 36  1  0
 15 37  1  0
 15 38  1  0
 21 39  1  0
 21 40  1  0
 26 41  1  0
M  CHG  1  24  -1
M  END
>  <UniqueID>  (33) 
33

>  <SMILES>  (33) 
COCOC(=O)Cc1ccc2cc(C(N)=O)n(C(=O)OCC(=O)[O-])c2c1

>  <Energy>  (33) 
75.66355442875034

>  <Genealogy>  (33) 
COCOC(=O)Cc1ccc2cc(C(N)=O)n(C(=O)OCC(=O)[O-])c2c1 (protonated)
COCOC(=O)Cc1ccc2cc(C(N)=O)n(C(=O)OCC(=O)[O-])c2c1 (3D coordinates assigned)
COCOC(=O)Cc1ccc2cc(C(N)=O)n(C(=O)OCC(=O)[O-])c2c1 (optimized conformer: 75.66355442875034 kcal/mol)

>  <smiles>  (33) 
COCOC(=O)Cc1ccc2cc(C(N)=O)n(C(=O)OCC(=O)O)c2c1

>  <score_type>  (33) 
oracle

>  <origin>  (33) 
adg

>  <m_score__min__energy>  (33) 
-9.7200000000000006

>  <m_primary>  (33) 
energy

$$$$
33:0
     RDKit          3D

 37 38  0  0  0  0  0  0  0  0999 V2000
   -3.0290   25.3030  -30.4730 H   0  0  0  0  0  0  0  0  0  0  0  0
   -3.9620   25.5980  -30.8360 N   0  0  0  0  0  0  0  0  0  0  0  0
   -5.1610   25.0010  -30.3470 C   0  0  0  0  0  0  0  0  0  0  0  0
   -5.7720   25.5420  -29.3880 O   0  0  0  0  0  0  0  0  0  0  0  0
   -5.6910   23.7810  -30.9890 C   0  0  0  0  0  0  0  0  0  0  0  0
   -7.0510   23.5070  -31.1230 C   0  0  0  0  0  0  0  0  0  0  0  0
   -7.8929   24.1566  -30.8414 H   0  0  0  0  0  0  0  0  0  0  0  0
   -7.1170   22.2520  -31.6820 C   0  0  0  0  0  0  0  0  0  0  0  0
   -8.2200   21.4850  -32.0360 C   0  0  0  0  0  0  0  0  0  0  0  0
   -9.2426   21.8544  -31.8690 H   0  0  0  0  0  0  0  0  0  0  0  0
   -7.9930   20.2250  -32.6130 C   0  0  0  0  0  0  0  0  0  0  0  0
   -8.8508   19.5980  -32.8976 H   0  0  0  0  0  0  0  0  0  0  0  0
   -6.6690   19.7450  -32.8360 C   0  0  0  0  0  0  0  0  0  0  0  0
   -6.4440   18.4450  -33.4400 N   0  0  0  0  0  0  0  0  0  0  0  0
   -5.7060   18.3270  -34.7050 C   0  0  0  0  0  0  0  0  0  0  0  0
   -4.6401   18.1566  -34.4932 H   0  0  0  0  0  0  0  0  0  0  0  0
   -6.1045   17.4812  -35.2845 H   0  0  0  0  0  0  0  0  0  0  0  0
   -5.8209   19.2549  -35.2845 H   0  0  0  0  0  0  0  0  0  0  0  0
   -6.9520   17.2250  -32.7990 C   0  0  0  0  0  0  0  0  0  0  0  0
   -6.9048   17.3383  -31.7059 H   0  0  0  0  0  0  0  0  0  0  0  0
   -7.9949   17.0568  -33.1055 H   0  0  0  0  0  0  0  0  0  0  0  0
   -6.3367   16.3663  -33.1055 H   0  0  0  0  0  0  0  0  0  0  0  0
   -5.5750   20.5660  -32.4560 C   0  0  0  0  0  0  0  0  0  0  0  0
   -4.5402   20.2303  -32.6189 H   0  0  0  0  0  0  0  0  0  0  0  0
   -5.8360   21.8090  -31.8710 C   0  0  0  0  0  0  0  0  0  0  0  0
   -4.9480   22.7380  -31.4570 N   0  0  0  0  0  0  0  0  0  0  0  0
   -3.5190   22.6440  -31.5540 C   0  0  0  0  0  0  0  0  0  0  0  0
   -2.8010   23.1800  -30.6670 O   0  0  0  0  0  0  0  0  0  0  0  0
   -2.9020   21.8810  -32.6560 C   0  0  0  0  0  0  0  0  0  0  0  0
   -3.5304   21.5765  -33.5060 H   0  0  0  0  0  0  0  0  0  0  0  0
   -1.6080   21.5460  -32.6600 C   0  0  0  0  0  0  0  0  0  0  0  0
   -0.9728   21.8376  -31.8106 H   0  0  0  0  0  0  0  0  0  0  0  0
   -1.0060   20.7810  -33.7990 C   0  0  0  0  0  0  0  0  0  0  0  0
   -0.2869   20.0484  -33.4037 H   0  0  0  0  0  0  0  0  0  0  0  0
   -1.8088   20.2652  -34.3463 H   0  0  0  0  0  0  0  0  0  0  0  0
   -0.3440   21.6510  -34.6760 O   0  0  0  0  0  0  0  0  0  0  0  0
   -1.0460   22.1590  -35.1630 H   0  0  0  0  0  0  0  0  0  0  0  0
  1  2  1  0
  2  3  1  0
  3  4  2  0
  3  5  1  0
  5  6  2  0
  6  7  1  0
  6  8  1  0
  8  9  2  0
  9 10  1  0
  9 11  1  0
 11 12  1  0
 11 13  2  0
 13 14  1  0
 14 15  1  0
 15 16  1  0
 15 17  1  0
 15 18  1  0
 14 19  1  0
 19 20  1  0
 19 21  1  0
 19 22  1  0
 13 23  1  0
 23 24  1  0
 23 25  2  0
 25 26  1  0
 26 27  1  0
 27 28  2  0
 27 29  1  0
 29 30  1  0
 29 31  2  0
 31 32  1  0
 31 33  1  0
 33 34  1  0
 33 35  1  0
 33 36  1  0
 36 37  1  0
 26  5  1  0
 25  8  1  0
M  CHG  1   2  -1
M  END
>  <UniqueID>  (34) 
34

>  <SMILES>  (34) 
CN(C)c1ccc2cc(C([NH-])=O)n(C(=O)/C=C/CO)c2c1

>  <Energy>  (34) 
74.74253964630175

>  <Genealogy>  (34) 
CN(C)c1ccc2cc(C([NH-])=O)n(C(=O)/C=C/CO)c2c1 (protonated)
CN(C)c1ccc2cc(C([NH-])=O)n(C(=O)/C=C/CO)c2c1 (cis-trans isomerization)
CN(C)c1ccc2cc(C([NH-])=O)n(C(=O)/C=C/CO)c2c1 (3D coordinates assigned)
CN(C)c1ccc2cc(C([NH-])=O)n(C(=O)/C=C/CO)c2c1 (optimized conformer: 74.74253964630175 kcal/mol)

>  <smiles>  (34) 
CN(C)c1ccc2cc(C(N)=O)n(C(=O)/C=C/CO)c2c1

>  <score_type>  (34) 
oracle

>  <origin>  (34) 
adg

>  <m_score__min__energy>  (34) 
-10.15

>  <m_primary>  (34) 
energy

$$$$
34:0
     RDKit          3D

 54 56  0  0  0  0  0  0  0  0999 V2000
   -2.2020   22.4830  -29.7300 C   0  0  0  0  0  0  0  0  0  0  0  0
   -2.7090   23.8760  -29.2900 C   0  0  0  0  0  0  0  0  0  0  0  0
   -1.5050   24.7310  -28.8590 C   0  0  0  0  0  0  0  0  0  0  0  0
   -3.6830   23.7500  -28.0960 C   0  0  0  0  0  0  0  0  0  0  0  0
   -3.3410   24.5570  -30.3860 O   0  0  0  0  0  0  0  0  0  0  0  0
   -4.6520   24.3550  -30.8420 C   0  0  0  0  0  0  0  0  0  0  0  0
   -5.3700   25.3260  -31.2190 O   0  0  0  0  0  0  0  0  0  0  0  0
   -5.1450   23.0440  -30.8760 O   0  0  0  0  0  0  0  0  0  0  0  0
   -5.3740   22.2940  -32.0410 C   0  0  0  0  0  0  0  0  0  0  0  0
   -4.5290   22.3090  -32.9780 O   0  0  0  0  0  0  0  0  0  0  0  0
   -6.5650   21.4870  -32.1550 N   0  0  0  0  0  0  0  0  0  0  0  0
   -7.8500   21.9000  -31.9530 C   0  0  0  0  0  0  0  0  0  0  0  0
   -8.2930   23.2910  -31.7530 C   0  0  0  0  0  0  0  0  0  0  0  0
   -7.5910   24.1640  -30.8660 N   0  0  0  0  0  0  0  0  0  0  0  0
   -9.2590   23.7380  -32.4310 O   0  0  0  0  0  0  0  0  0  0  0  0
   -8.7350   20.8290  -31.9970 C   0  0  0  0  0  0  0  0  0  0  0  0
   -7.9550   19.7280  -32.2590 C   0  0  0  0  0  0  0  0  0  0  0  0
   -8.3270   18.3960  -32.4170 C   0  0  0  0  0  0  0  0  0  0  0  0
   -7.3180   17.4570  -32.6810 C   0  0  0  0  0  0  0  0  0  0  0  0
   -5.9640   17.8590  -32.7780 C   0  0  0  0  0  0  0  0  0  0  0  0
   -4.9440   16.8850  -33.0660 N   0  0  0  0  0  0  0  0  0  0  0  0
   -5.2860   15.4590  -33.1190 C   0  0  0  0  0  0  0  0  0  0  0  0
   -4.2290   14.6430  -32.3710 C   0  0  0  0  0  0  0  0  0  0  0  0
   -2.8660   15.0190  -32.7840 N   0  0  0  0  0  0  0  0  0  0  0  0
   -1.7510   14.2140  -32.3540 C   0  0  0  0  0  0  0  0  0  0  0  0
   -1.9250   13.2650  -31.5410 O   0  0  0  0  0  0  0  0  0  0  0  0
   -0.4660   14.4720  -32.8220 O   0  0  0  0  0  0  0  0  0  0  0  0
   -2.6510   16.1520  -33.6970 C   0  0  0  0  0  0  0  0  0  0  0  0
   -3.5670   17.3290  -33.3320 C   0  0  0  0  0  0  0  0  0  0  0  0
   -5.6220   19.2190  -32.6030 C   0  0  0  0  0  0  0  0  0  0  0  0
   -6.6490   20.1450  -32.3510 C   0  0  0  0  0  0  0  0  0  0  0  0
   -1.9809   21.8754  -28.8401 H   0  0  0  0  0  0  0  0  0  0  0  0
   -2.9762   21.9842  -30.3314 H   0  0  0  0  0  0  0  0  0  0  0  0
   -1.2883   22.5985  -30.3314 H   0  0  0  0  0  0  0  0  0  0  0  0
   -1.4549   24.7666  -27.7607 H   0  0  0  0  0  0  0  0  0  0  0  0
   -0.5795   24.2866  -29.2540 H   0  0  0  0  0  0  0  0  0  0  0  0
   -1.6196   25.7512  -29.2540 H   0  0  0  0  0  0  0  0  0  0  0  0
   -3.1197   23.8229  -27.1540 H   0  0  0  0  0  0  0  0  0  0  0  0
   -4.4264   24.5595  -28.1422 H   0  0  0  0  0  0  0  0  0  0  0  0
   -4.1959   22.7780  -28.1422 H   0  0  0  0  0  0  0  0  0  0  0  0
   -7.9420   25.1360  -30.7020 H   0  0  0  0  0  0  0  0  0  0  0  0
   -6.7260   23.8520  -30.3670 H   0  0  0  0  0  0  0  0  0  0  0  0
   -9.8252   20.8566  -31.8531 H   0  0  0  0  0  0  0  0  0  0  0  0
   -9.3802   18.0886  -32.3373 H   0  0  0  0  0  0  0  0  0  0  0  0
   -7.5819   16.3974  -32.8140 H   0  0  0  0  0  0  0  0  0  0  0  0
   -6.2682   15.3016  -32.6495 H   0  0  0  0  0  0  0  0  0  0  0  0
   -5.3199   15.1329  -34.1690 H   0  0  0  0  0  0  0  0  0  0  0  0
   -4.3375   14.8217  -31.2910 H   0  0  0  0  0  0  0  0  0  0  0  0
   -4.3812   13.5798  -32.6088 H   0  0  0  0  0  0  0  0  0  0  0  0
   -1.6022   16.4766  -33.6280 H   0  0  0  0  0  0  0  0  0  0  0  0
   -2.8854   15.8279  -34.7217 H   0  0  0  0  0  0  0  0  0  0  0  0
   -3.1715   17.8227  -32.4320 H   0  0  0  0  0  0  0  0  0  0  0  0
   -3.5894   18.0232  -34.1850 H   0  0  0  0  0  0  0  0  0  0  0  0
   -4.5735   19.5462  -32.6628 H   0  0  0  0  0  0  0  0  0  0  0  0
  1  2  1  0
  2  3  1  0
  2  4  1  0
  2  5  1  0
  5  6  1  0
  6  7  2  0
  6  8  1  0
  8  9  1  0
  9 10  2  0
  9 11  1  0
 11 12  1  0
 12 13  1  0
 13 14  1  0
 13 15  2  0
 12 16  2  0
 16 17  1  0
 17 18  2  0
 18 19  1  0
 19 20  2  0
 20 21  1  0
 21 22  1  0
 22 23  1  0
 23 24  1  0
 24 25  1  0
 25 26  2  0
 25 27  1  0
 24 28  1  0
 28 29  1  0
 20 30  1  0
 30 31  2  0
 31 11  1  0
 31 17  1  0
 29 21  1  0
  1 32  1  0
  1 33  1  0
  1 34  1  0
  3 35  1  0
  3 36  1  0
  3 37  1  0
  4 38  1  0
  4 39  1  0
  4 40  1  0
 14 41  1  0
 14 42  1  0
 16 43  1  0
 18 44  1  0
 19 45  1  0
 22 46  1  0
 22 47  1  0
 23 48  1  0
 23 49  1  0
 28 50  1  0
 28 51  1  0
 29 52  1  0
 29 53  1  0
 30 54  1  0
M  CHG  1  27  -1
M  END
>  <UniqueID>  (35) 
35

>  <SMILES>  (35) 
CC(C)(C)OC(=O)OC(=O)n1c(C(N)=O)cc2ccc(N3CCN(C(=O)[O-])CC3)cc21

>  <Energy>  (35) 
96.82468847941989

>  <Genealogy>  (35) 
CC(C)(C)OC(=O)OC(=O)n1c(C(N)=O)cc2ccc(N3CCN(C(=O)[O-])CC3)cc21 (protonated)
CC(C)(C)OC(=O)OC(=O)n1c(C(N)=O)cc2ccc(N3CCN(C(=O)[O-])CC3)cc21 (3D coordinates assigned)
CC(C)(C)OC(=O)OC(=O)n1c(C(N)=O)cc2ccc(N3CCN(C(=O)[O-])CC3)cc21 (nonaromatic ring conformer: 96.82468847941989 kcal/mol)

>  <smiles>  (35) 
CC(C)(C)OC(=O)OC(=O)n1c(C(N)=O)cc2ccc(N3CCN(C(=O)O)CC3)cc21

>  <score_type>  (35) 
oracle

>  <origin>  (35) 
adg

>  <m_score__min__energy>  (35) 
-9.8399999999999999

>  <m_primary>  (35) 
energy

$$$$
35:0
     RDKit          3D

 63 67  0  0  0  0  0  0  0  0999 V2000
    0.3380   15.6530  -31.6160 C   0  0  0  0  0  0  0  0  0  0  0  0
    0.8790   16.9260  -31.2870 O   0  0  0  0  0  0  0  0  0  0  0  0
    0.5680   18.0840  -32.0040 C   0  0  0  0  0  0  0  0  0  0  0  0
    1.4050   18.5830  -32.8070 O   0  0  0  0  0  0  0  0  0  0  0  0
   -0.6840   18.6800  -31.8180 O   0  0  0  0  0  0  0  0  0  0  0  0
   -0.8720   20.0820  -31.6290 C   0  0  2  0  0  0  0  0  0  0  0  0
   -1.6400   20.3330  -30.3300 C   0  0  0  0  0  0  0  0  0  0  0  0
   -1.6140   20.5880  -32.7390 O   0  0  0  0  0  0  0  0  0  0  0  0
   -1.8550   19.8570  -33.9080 C   0  0  0  0  0  0  0  0  0  0  0  0
   -1.0660   19.9430  -34.8870 O   0  0  0  0  0  0  0  0  0  0  0  0
   -2.9890   18.9760  -33.9770 N   0  0  0  0  0  0  0  0  0  0  0  0
   -3.0390   17.7250  -34.5140 C   0  0  0  0  0  0  0  0  0  0  0  0
   -1.8840   16.9360  -34.9900 C   0  0  0  0  0  0  0  0  0  0  0  0
   -0.5570   17.2570  -34.5800 N   0  0  0  0  0  0  0  0  0  0  0  0
   -2.0760   15.9330  -35.7300 O   0  0  0  0  0  0  0  0  0  0  0  0
   -4.3410   17.2300  -34.4790 C   0  0  0  0  0  0  0  0  0  0  0  0
   -5.0930   18.2220  -33.8920 C   0  0  0  0  0  0  0  0  0  0  0  0
   -6.4540   18.2660  -33.6130 C   0  0  0  0  0  0  0  0  0  0  0  0
   -6.9700   19.4320  -33.0250 C   0  0  0  0  0  0  0  0  0  0  0  0
   -6.1250   20.5350  -32.7300 C   0  0  0  0  0  0  0  0  0  0  0  0
   -6.6810   21.7630  -32.1120 C   0  0  0  0  0  0  0  0  0  0  0  0
   -8.0180   22.1050  -31.9600 C   0  0  0  0  0  0  0  0  0  0  0  0
   -8.1080   23.3040  -31.3530 N   0  0  0  0  0  0  0  0  0  0  0  0
   -6.8760   23.7330  -31.1280 N   0  0  0  0  0  0  0  0  0  0  0  0
   -6.5620   24.9860  -30.4480 C   0  0  0  0  0  0  0  0  0  0  0  0
   -5.1150   25.0290  -30.0570 C   0  0  0  0  0  0  0  0  0  0  0  0
   -4.2690   25.5210  -30.8530 O   0  0  0  0  0  0  0  0  0  0  0  0
   -4.6860   24.4510  -28.8160 N   0  0  0  0  0  0  0  0  0  0  0  0
   -3.2800   24.4700  -28.3960 C   0  0  1  0  0  0  0  0  0  0  0  0
   -3.0190   23.5550  -27.1930 C   0  0  0  0  0  0  0  0  0  0  0  0
   -1.6680   22.8850  -27.4150 C   0  0  2  0  0  0  0  0  0  0  0  0
   -0.4810   23.7950  -27.7140 C   0  0  0  0  0  0  0  0  0  0  0  0
   -1.2590   23.1380  -28.8490 C   0  0  2  0  0  0  0  0  0  0  0  0
   -2.3550   23.9680  -29.5080 C   0  0  0  0  0  0  0  0  0  0  0  0
   -5.9830   22.8250  -31.5640 C   0  0  0  0  0  0  0  0  0  0  0  0
   -4.7450   20.4480  -33.0320 C   0  0  0  0  0  0  0  0  0  0  0  0
   -4.2550   19.2660  -33.6000 C   0  0  0  0  0  0  0  0  0  0  0  0
    0.1046   15.1038  -30.6919 H   0  0  0  0  0  0  0  0  0  0  0  0
   -0.5812   15.7864  -32.2053 H   0  0  0  0  0  0  0  0  0  0  0  0
    1.0720   15.0838  -32.2053 H   0  0  0  0  0  0  0  0  0  0  0  0
    0.1016   20.5896  -31.5626 H   0  0  0  0  0  0  0  0  0  0  0  0
   -0.9870   20.1196  -29.4709 H   0  0  0  0  0  0  0  0  0  0  0  0
   -1.9636   21.3837  -30.2925 H   0  0  0  0  0  0  0  0  0  0  0  0
   -2.5216   19.6762  -30.2925 H   0  0  0  0  0  0  0  0  0  0  0  0
   -0.3720   18.0660  -33.9460 H   0  0  0  0  0  0  0  0  0  0  0  0
   -4.6931   16.2536  -34.8432 H   0  0  0  0  0  0  0  0  0  0  0  0
   -7.1076   17.4125  -33.8460 H   0  0  0  0  0  0  0  0  0  0  0  0
   -8.0429   19.4921  -32.7897 H   0  0  0  0  0  0  0  0  0  0  0  0
   -8.8715   21.4918  -32.2849 H   0  0  0  0  0  0  0  0  0  0  0  0
   -6.7788   25.8272  -31.1228 H   0  0  0  0  0  0  0  0  0  0  0  0
   -7.1763   25.0582  -29.5384 H   0  0  0  0  0  0  0  0  0  0  0  0
   -5.4160   24.0490  -28.1830 H   0  0  0  0  0  0  0  0  0  0  0  0
   -3.0742   25.5199  -28.1404 H   0  0  0  0  0  0  0  0  0  0  0  0
   -2.9968   24.1484  -26.2670 H   0  0  0  0  0  0  0  0  0  0  0  0
   -3.8151   22.8020  -27.0977 H   0  0  0  0  0  0  0  0  0  0  0  0
   -1.7816   22.0430  -26.7164 H   0  0  0  0  0  0  0  0  0  0  0  0
   -0.5611   24.8791  -27.5457 H   0  0  0  0  0  0  0  0  0  0  0  0
    0.5749   23.8275  -27.4073 H   0  0  0  0  0  0  0  0  0  0  0  0
   -0.9237   22.5725  -29.7309 H   0  0  0  0  0  0  0  0  0  0  0  0
   -1.9110   24.8213  -30.0416 H   0  0  0  0  0  0  0  0  0  0  0  0
   -2.9155   23.3633  -30.2362 H   0  0  0  0  0  0  0  0  0  0  0  0
   -4.8885   22.9120  -31.4965 H   0  0  0  0  0  0  0  0  0  0  0  0
   -4.0710   21.2922  -32.8246 H   0  0  0  0  0  0  0  0  0  0  0  0
  1  2  1  0
  2  3  1  0
  3  4  2  0
  3  5  1  0
  5  6  1  0
  6  7  1  0
  6  8  1  0
  8  9  1  0
  9 10  2  0
  9 11  1  0
 11 12  1  0
 12 13  1  0
 13 14  1  0
 13 15  2  0
 12 16  2  0
 16 17  1  0
 17 18  2  0
 18 19  1  0
 19 20  2  0
 20 21  1  0
 21 22  1  0
 22 23  2  0
 23 24  1  0
 24 25  1  0
 25 26  1  0
 26 27  2  0
 26 28  1  0
 28 29  1  0
 29 30  1  0
 30 31  1  0
 31 32  1  0
 32 33  1  0
 33 34  1  0
 24 35  1  0
 20 36  1  0
 36 37  2  0
 37 11  1  0
 37 17  1  0
 35 21  2  0
 34 29  1  0
 33 31  1  0
  1 38  1  0
  1 39  1  0
  1 40  1  0
  6 41  1  1
  7 42  1  0
  7 43  1  0
  7 44  1  0
 14 45  1  0
 16 46  1  0
 18 47  1  0
 19 48  1  0
 22 49  1  0
 25 50  1  0
 25 51  1  0
 28 52  1  0
 29 53  1  1
 30 54  1  0
 30 55  1  0
 31 56  1  1
 32 57  1  0
 32 58  1  0
 33 59  1  6
 34 60  1  0
 34 61  1  0
 35 62  1  0
 36 63  1  0
M  CHG  1  14  -1
M  END
>  <UniqueID>  (36) 
36

>  <SMILES>  (36) 
COC(=O)O[C@H](C)OC(=O)n1c(C([NH-])=O)cc2ccc(-c3cnn(CC(=O)NC4CC5C[C@H]5C4)c3)cc21

>  <Energy>  (36) 
395.5151571136941

>  <Genealogy>  (36) 
COC(=O)OC(C)OC(=O)n1c(C([NH-])=O)cc2ccc(-c3cnn(CC(=O)NC4CC5CC5C4)c3)cc21 (protonated)
COC(=O)O[C@H](C)OC(=O)n1c(C([NH-])=O)cc2ccc(-c3cnn(CC(=O)NC4CC5C[C@H]5C4)c3)cc21 (chirality)
COC(=O)O[C@H](C)OC(=O)n1c(C([NH-])=O)cc2ccc(-c3cnn(CC(=O)NC4CC5C[C@H]5C4)c3)cc21 (3D coordinates assigned)
COC(=O)O[C@H](C)OC(=O)n1c(C([NH-])=O)cc2ccc(-c3cnn(CC(=O)NC4CC5C[C@H]5C4)c3)cc21 (nonaromatic ring conformer: 395.5151571136941 kcal/mol)

>  <smiles>  (36) 
COC(=O)OC(C)OC(=O)n1c(C(N)=O)cc2ccc(-c3cnn(CC(=O)NC4CC5CC5C4)c3)cc21

>  <score_type>  (36) 
oracle

>  <origin>  (36) 
adg

>  <m_score__min__energy>  (36) 
-11.67

>  <m_primary>  (36) 
energy

$$$$
36:0
     RDKit          3D

 40 42  0  0  0  0  0  0  0  0999 V2000
   -2.6260   25.0300  -26.7340 C   0  0  0  0  0  0  0  0  0  0  0  0
   -2.3870   24.9390  -28.1340 O   0  0  0  0  0  0  0  0  0  0  0  0
   -1.5000   24.0130  -28.6880 C   0  0  0  0  0  0  0  0  0  0  0  0
   -0.4900   24.4030  -29.3350 O   0  0  0  0  0  0  0  0  0  0  0  0
   -1.7590   22.5780  -28.5050 C   0  0  0  0  0  0  0  0  0  0  0  0
   -1.9050   22.0060  -27.3320 O   0  0  0  0  0  0  0  0  0  0  0  0
   -2.1230   20.7330  -27.5740 C   0  0  0  0  0  0  0  0  0  0  0  0
   -2.3110   19.8750  -26.6730 O   0  0  0  0  0  0  0  0  0  0  0  0
   -2.1240   20.4550  -28.8560 O   0  0  0  0  0  0  0  0  0  0  0  0
   -1.8970   21.5920  -29.4720 C   0  0  0  0  0  0  0  0  0  0  0  0
   -1.8320   21.7420  -30.9620 C   0  0  0  0  0  0  0  0  0  0  0  0
   -3.1440   21.8270  -31.5120 O   0  0  0  0  0  0  0  0  0  0  0  0
   -3.9840   22.9330  -31.3330 C   0  0  0  0  0  0  0  0  0  0  0  0
   -3.4930   24.0870  -31.1950 O   0  0  0  0  0  0  0  0  0  0  0  0
   -5.4080   22.7480  -31.3150 N   0  0  0  0  0  0  0  0  0  0  0  0
   -6.3110   23.3810  -30.5130 C   0  0  0  0  0  0  0  0  0  0  0  0
   -6.0240   24.5190  -29.6190 C   0  0  0  0  0  0  0  0  0  0  0  0
   -4.7860   24.6120  -28.9110 N   0  0  0  0  0  0  0  0  0  0  0  0
   -6.8630   25.4540  -29.5190 O   0  0  0  0  0  0  0  0  0  0  0  0
   -7.5810   22.8370  -30.6770 C   0  0  0  0  0  0  0  0  0  0  0  0
   -7.4330   21.8460  -31.6220 C   0  0  0  0  0  0  0  0  0  0  0  0
   -8.3750   20.9680  -32.1490 C   0  0  0  0  0  0  0  0  0  0  0  0
   -7.9340   20.0130  -33.0820 C   0  0  0  0  0  0  0  0  0  0  0  0
   -6.5710   19.9500  -33.4560 C   0  0  0  0  0  0  0  0  0  0  0  0
   -6.1330   18.9630  -34.3940 N   0  0  0  0  0  0  0  0  0  0  0  0
   -5.6440   20.8540  -32.9000 C   0  0  0  0  0  0  0  0  0  0  0  0
   -6.1120   21.8110  -31.9900 C   0  0  0  0  0  0  0  0  0  0  0  0
   -1.7341   24.6904  -26.1869 H   0  0  0  0  0  0  0  0  0  0  0  0
   -2.8447   26.0743  -26.4665 H   0  0  0  0  0  0  0  0  0  0  0  0
   -3.4839   24.3956  -26.4665 H   0  0  0  0  0  0  0  0  0  0  0  0
   -1.2754   22.6578  -31.2098 H   0  0  0  0  0  0  0  0  0  0  0  0
   -1.3241   20.8635  -31.3865 H   0  0  0  0  0  0  0  0  0  0  0  0
   -4.0070   23.9430  -29.0980 H   0  0  0  0  0  0  0  0  0  0  0  0
   -4.6180   25.4040  -28.2510 H   0  0  0  0  0  0  0  0  0  0  0  0
   -8.5061   23.1349  -30.1618 H   0  0  0  0  0  0  0  0  0  0  0  0
   -9.4310   21.0194  -31.8454 H   0  0  0  0  0  0  0  0  0  0  0  0
   -8.6544   19.3093  -33.5246 H   0  0  0  0  0  0  0  0  0  0  0  0
   -5.3950   18.2710  -34.1360 H   0  0  0  0  0  0  0  0  0  0  0  0
   -6.5430   18.9190  -35.3530 H   0  0  0  0  0  0  0  0  0  0  0  0
   -4.5795   20.8094  -33.1736 H   0  0  0  0  0  0  0  0  0  0  0  0
  1  2  1  0
  2  3  1  0
  3  4  2  0
  3  5  1  0
  5  6  1  0
  6  7  1  0
  7  8  2  0
  7  9  1  0
  9 10  1  0
 10 11  1  0
 11 12  1  0
 12 13  1  0
 13 14  2  0
 13 15  1  0
 15 16  1  0
 16 17  1  0
 17 18  1  0
 17 19  2  0
 16 20  2  0
 20 21  1  0
 21 22  2  0
 22 23  1  0
 23 24  2  0
 24 25  1  0
 24 26  1  0
 26 27  2  0
 10  5  2  0
 27 15  1  0
 27 21  1  0
  1 28  1  0
  1 29  1  0
  1 30  1  0
 11 31  1  0
 11 32  1  0
 18 33  1  0
 18 34  1  0
 20 35  1  0
 22 36  1  0
 23 37  1  0
 25 38  1  0
 25 39  1  0
 26 40  1  0
M  END
>  <UniqueID>  (37) 
37

>  <SMILES>  (37) 
COC(=O)c1oc(=O)oc1COC(=O)n1c(C(N)=O)cc2ccc(N)cc21

>  <Energy>  (37) 
108.77966706984779

>  <Genealogy>  (37) 
COC(=O)c1oc(=O)oc1COC(=O)n1c(C(N)=O)cc2ccc(N)cc21 (3D coordinates assigned)
COC(=O)c1oc(=O)oc1COC(=O)n1c(C(N)=O)cc2ccc(N)cc21 (optimized conformer: 108.77966706984779 kcal/mol)

>  <smiles>  (37) 
COC(=O)c1oc(=O)oc1COC(=O)n1c(C(N)=O)cc2ccc(N)cc21

>  <score_type>  (37) 
oracle

>  <origin>  (37) 
adg

>  <m_score__min__energy>  (37) 
-8.3200000000000003

>  <m_primary>  (37) 
energy

$$$$
37:0
     RDKit          3D

 35 37  0  0  0  0  0  0  0  0999 V2000
   -7.3850   18.3420  -32.6120 C   0  0  0  0  0  0  0  0  0  0  0  0
   -7.4320   19.8040  -32.2830 C   0  0  0  0  0  0  0  0  0  0  0  0
   -8.6710   20.4930  -32.2820 C   0  0  0  0  0  0  0  0  0  0  0  0
   -8.7320   21.8560  -31.9450 C   0  0  0  0  0  0  0  0  0  0  0  0
   -7.5450   22.4950  -31.5980 C   0  0  0  0  0  0  0  0  0  0  0  0
   -7.3120   23.8050  -31.2380 C   0  0  0  0  0  0  0  0  0  0  0  0
   -5.9410   23.8830  -30.9940 C   0  0  0  0  0  0  0  0  0  0  0  0
   -5.2660   25.1020  -30.5020 C   0  0  0  0  0  0  0  0  0  0  0  0
   -3.8650   25.2890  -30.6830 N   0  0  0  0  0  0  0  0  0  0  0  0
   -5.9290   25.9750  -29.8820 O   0  0  0  0  0  0  0  0  0  0  0  0
   -5.3510   22.6730  -31.2070 N   0  0  0  0  0  0  0  0  0  0  0  0
   -3.9570   22.3390  -31.1260 C   0  0  0  0  0  0  0  0  0  0  0  0
   -3.3420   21.9890  -32.1680 O   0  0  0  0  0  0  0  0  0  0  0  0
   -3.2310   22.4530  -29.8470 C   0  0  0  0  0  0  0  0  0  0  0  0
   -3.4580   21.6190  -28.9270 O   0  0  0  0  0  0  0  0  0  0  0  0
   -2.2810   23.5060  -29.6380 N   0  0  0  0  0  0  0  0  0  0  0  0
   -1.5240   23.6100  -28.3930 C   0  0  1  0  0  0  0  0  0  0  0  0
   -0.0890   24.0810  -28.5810 C   0  0  0  0  0  0  0  0  0  0  0  0
   -1.1360   25.0330  -28.0250 C   0  0  1  0  0  0  0  0  0  0  0  0
   -1.5240   26.0030  -28.9360 F   0  0  0  0  0  0  0  0  0  0  0  0
   -6.3450   21.8340  -31.5690 C   0  0  0  0  0  0  0  0  0  0  0  0
   -6.2500   20.4810  -31.9090 C   0  0  0  0  0  0  0  0  0  0  0  0
   -7.3662   17.7570  -31.6806 H   0  0  0  0  0  0  0  0  0  0  0  0
   -8.2748   18.0693  -33.1984 H   0  0  0  0  0  0  0  0  0  0  0  0
   -6.4795   18.1270  -33.1984 H   0  0  0  0  0  0  0  0  0  0  0  0
   -9.5934   19.9557  -32.5475 H   0  0  0  0  0  0  0  0  0  0  0  0
   -9.6876   22.4007  -31.9551 H   0  0  0  0  0  0  0  0  0  0  0  0
   -8.0505   24.6165  -31.1598 H   0  0  0  0  0  0  0  0  0  0  0  0
   -3.4990   26.0580  -31.2860 H   0  0  0  0  0  0  0  0  0  0  0  0
   -2.0410   24.1500  -30.4260 H   0  0  0  0  0  0  0  0  0  0  0  0
   -2.0088   22.7726  -27.8698 H   0  0  0  0  0  0  0  0  0  0  0  0
    0.7067   23.6954  -27.9267 H   0  0  0  0  0  0  0  0  0  0  0  0
    0.6172   24.1073  -29.4240 H   0  0  0  0  0  0  0  0  0  0  0  0
   -1.2457   25.6496  -27.1207 H   0  0  0  0  0  0  0  0  0  0  0  0
   -5.2822   19.9586  -31.8859 H   0  0  0  0  0  0  0  0  0  0  0  0
  1  2  1  0
  2  3  2  0
  3  4  1  0
  4  5  2  0
  5  6  1  0
  6  7  2  0
  7  8  1  0
  8  9  1  0
  8 10  2  0
  7 11  1  0
 11 12  1  0
 12 13  2  0
 12 14  1  0
 14 15  2  0
 14 16  1  0
 16 17  1  0
 17 18  1  0
 18 19  1  0
 19 20  1  0
 11 21  1  0
 21 22  2  0
 22  2  1  0
 21  5  1  0
 19 17  1  0
  1 23  1  0
  1 24  1  0
  1 25  1  0
  3 26  1  0
  4 27  1  0
  6 28  1  0
  9 29  1  0
 16 30  1  0
 17 31  1  1
 18 32  1  0
 18 33  1  0
 19 34  1  1
 22 35  1  0
M  CHG  1   9  -1
M  END
>  <UniqueID>  (38) 
38

>  <SMILES>  (38) 
Cc1ccc2cc(C([NH-])=O)n(C(=O)C(=O)N[C@H]3C[C@H]3F)c2c1

>  <Energy>  (38) 
340.1838383988194

>  <Genealogy>  (38) 
Cc1ccc2cc(C([NH-])=O)n(C(=O)C(=O)NC3CC3F)c2c1 (protonated)
Cc1ccc2cc(C([NH-])=O)n(C(=O)C(=O)N[C@H]3C[C@H]3F)c2c1 (chirality)
Cc1ccc2cc(C([NH-])=O)n(C(=O)C(=O)N[C@H]3C[C@H]3F)c2c1 (3D coordinates assigned)
Cc1ccc2cc(C([NH-])=O)n(C(=O)C(=O)N[C@H]3C[C@H]3F)c2c1 (nonaromatic ring conformer: 340.1838383988194 kcal/mol)

>  <smiles>  (38) 
Cc1ccc2cc(C(N)=O)n(C(=O)C(=O)NC3CC3F)c2c1

>  <score_type>  (38) 
oracle

>  <origin>  (38) 
adg

>  <m_score__min__energy>  (38) 
-10.83

>  <m_primary>  (38) 
energy

$$$$
38:0
     RDKit          3D

 57 60  0  0  0  0  0  0  0  0999 V2000
   -1.9000   20.5560  -31.2480 C   0  0  0  0  0  0  0  0  0  0  0  0
   -1.2270   20.3230  -32.5290 N   0  0  0  0  0  0  0  0  0  0  0  0
    0.1360   20.8350  -32.7270 C   0  0  0  0  0  0  0  0  0  0  0  0
    0.4610   20.9590  -34.2190 C   0  0  0  0  0  0  0  0  0  0  0  0
   -0.0510   22.1600  -34.7280 O   0  0  0  0  0  0  0  0  0  0  0  0
   -1.9780   19.7140  -33.6010 C   0  0  0  0  0  0  0  0  0  0  0  0
   -2.4260   20.4430  -34.5280 O   0  0  0  0  0  0  0  0  0  0  0  0
   -2.2530   18.2590  -33.6520 C   0  0  0  0  0  0  0  0  0  0  0  0
   -1.3080   17.4270  -33.6670 O   0  0  0  0  0  0  0  0  0  0  0  0
   -3.6040   17.7780  -33.6960 N   0  0  0  0  0  0  0  0  0  0  0  0
   -4.0490   16.5600  -34.1150 C   0  0  0  0  0  0  0  0  0  0  0  0
   -3.2030   15.5040  -34.7180 C   0  0  0  0  0  0  0  0  0  0  0  0
   -2.0720   14.9810  -34.0190 N   0  0  0  0  0  0  0  0  0  0  0  0
   -3.4840   15.0450  -35.8570 O   0  0  0  0  0  0  0  0  0  0  0  0
   -5.4350   16.4780  -33.9730 C   0  0  0  0  0  0  0  0  0  0  0  0
   -5.8220   17.6950  -33.4560 C   0  0  0  0  0  0  0  0  0  0  0  0
   -7.0860   18.1670  -33.1170 C   0  0  0  0  0  0  0  0  0  0  0  0
   -7.1860   19.4680  -32.5950 C   0  0  0  0  0  0  0  0  0  0  0  0
   -6.0280   20.2730  -32.4200 C   0  0  0  0  0  0  0  0  0  0  0  0
   -6.1420   21.6430  -31.8600 C   0  0  0  0  0  0  0  0  0  0  0  0
   -7.3980   22.2680  -31.7540 C   0  0  0  0  0  0  0  0  0  0  0  0
   -7.5050   23.5530  -31.2170 C   0  0  0  0  0  0  0  0  0  0  0  0
   -6.3640   24.2340  -30.7920 C   0  0  0  0  0  0  0  0  0  0  0  0
   -5.1000   23.6380  -30.9120 C   0  0  0  0  0  0  0  0  0  0  0  0
   -3.8990   24.3710  -30.4660 C   0  0  0  0  0  0  0  0  0  0  0  0
   -3.9130   25.6300  -30.4720 O   0  0  0  0  0  0  0  0  0  0  0  0
   -2.6990   23.6960  -30.0660 N   0  0  0  0  0  0  0  0  0  0  0  0
   -2.0540   23.8390  -28.7620 C   0  0  0  0  0  0  0  0  0  0  0  0
   -0.5820   23.5020  -28.7910 C   0  0  0  0  0  0  0  0  0  0  0  0
   -0.2040   24.8410  -28.5730 O   0  0  0  0  0  0  0  0  0  0  0  0
   -1.5530   25.2430  -28.5320 C   0  0  0  0  0  0  0  0  0  0  0  0
   -4.9970   22.3360  -31.4260 C   0  0  0  0  0  0  0  0  0  0  0  0
   -4.7620   19.7560  -32.7820 C   0  0  0  0  0  0  0  0  0  0  0  0
   -4.6970   18.4610  -33.3040 C   0  0  0  0  0  0  0  0  0  0  0  0
   -1.2118   20.3177  -30.4236 H   0  0  0  0  0  0  0  0  0  0  0  0
   -2.2028   21.6113  -31.1795 H   0  0  0  0  0  0  0  0  0  0  0  0
   -2.7905   19.9138  -31.1795 H   0  0  0  0  0  0  0  0  0  0  0  0
    0.2207   21.8256  -32.2562 H   0  0  0  0  0  0  0  0  0  0  0  0
    0.8464   20.1307  -32.2695 H   0  0  0  0  0  0  0  0  0  0  0  0
    1.5524   20.9425  -34.3557 H   0  0  0  0  0  0  0  0  0  0  0  0
    0.0021   20.1166  -34.7573 H   0  0  0  0  0  0  0  0  0  0  0  0
   -0.9890   21.9770  -34.9960 H   0  0  0  0  0  0  0  0  0  0  0  0
   -1.5050   14.2130  -34.4430 H   0  0  0  0  0  0  0  0  0  0  0  0
   -1.7630   15.3770  -33.1040 H   0  0  0  0  0  0  0  0  0  0  0  0
   -6.0812   15.6231  -34.2212 H   0  0  0  0  0  0  0  0  0  0  0  0
   -7.9801   17.5409  -33.2534 H   0  0  0  0  0  0  0  0  0  0  0  0
   -8.1726   19.8681  -32.3185 H   0  0  0  0  0  0  0  0  0  0  0  0
   -8.3012   21.7415  -32.0961 H   0  0  0  0  0  0  0  0  0  0  0  0
   -8.4924   24.0297  -31.1289 H   0  0  0  0  0  0  0  0  0  0  0  0
   -6.4560   25.2420  -30.3612 H   0  0  0  0  0  0  0  0  0  0  0  0
   -2.7849   23.3240  -28.1213 H   0  0  0  0  0  0  0  0  0  0  0  0
   -0.2719   22.8219  -27.9840 H   0  0  0  0  0  0  0  0  0  0  0  0
   -0.1746   22.9685  -29.6625 H   0  0  0  0  0  0  0  0  0  0  0  0
   -1.8558   25.6628  -27.5614 H   0  0  0  0  0  0  0  0  0  0  0  0
   -1.8898   26.0450  -29.2053 H   0  0  0  0  0  0  0  0  0  0  0  0
   -4.0111   21.8525  -31.4902 H   0  0  0  0  0  0  0  0  0  0  0  0
   -3.8505   20.3587  -32.6557 H   0  0  0  0  0  0  0  0  0  0  0  0
  1  2  1  0
  2  3  1  0
  3  4  1  0
  4  5  1  0
  2  6  1  0
  6  7  2  0
  6  8  1  0
  8  9  2  0
  8 10  1  0
 10 11  1  0
 11 12  1  0
 12 13  1  0
 12 14  2  0
 11 15  2  0
 15 16  1  0
 16 17  2  0
 17 18  1  0
 18 19  2  0
 19 20  1  0
 20 21  2  0
 21 22  1  0
 22 23  2  0
 23 24  1  0
 24 25  1  0
 25 26  2  0
 25 27  1  0
 27 28  1  0
 28 29  1  0
 29 30  1  0
 30 31  1  0
 24 32  2  0
 19 33  1  0
 33 34  2  0
 34 10  1  0
 34 16  1  0
 32 20  1  0
 31 28  1  0
  1 35  1  0
  1 36  1  0
  1 37  1  0
  3 38  1  0
  3 39  1  0
  4 40  1  0
  4 41  1  0
  5 42  1  0
 13 43  1  0
 13 44  1  0
 15 45  1  0
 17 46  1  0
 18 47  1  0
 21 48  1  0
 22 49  1  0
 23 50  1  0
 28 51  1  0
 29 52  1  0
 29 53  1  0
 31 54  1  0
 31 55  1  0
 32 56  1  0
 33 57  1  0
M  CHG  1  27  -1
M  END
>  <UniqueID>  (39) 
39

>  <SMILES>  (39) 
CN(CCO)C(=O)C(=O)n1c(C(N)=O)cc2ccc(-c3cccc(C(=O)[N-]C4COC4)c3)cc21

>  <Energy>  (39) 
171.01469075355243

>  <Genealogy>  (39) 
CN(CCO)C(=O)C(=O)n1c(C(N)=O)cc2ccc(-c3cccc(C(=O)[N-]C4COC4)c3)cc21 (protonated)
CN(CCO)C(=O)C(=O)n1c(C(N)=O)cc2ccc(-c3cccc(C(=O)[N-]C4COC4)c3)cc21 (3D coordinates assigned)
CN(CCO)C(=O)C(=O)n1c(C(N)=O)cc2ccc(-c3cccc(C(=O)[N-]C4COC4)c3)cc21 (nonaromatic ring conformer: 171.01469075355243 kcal/mol)

>  <smiles>  (39) 
CN(CCO)C(=O)C(=O)n1c(C(N)=O)cc2ccc(-c3cccc(C(=O)NC4COC4)c3)cc21

>  <score_type>  (39) 
oracle

>  <origin>  (39) 
adg

>  <m_score__min__energy>  (39) 
-10.32

>  <m_primary>  (39) 
energy

$$$$
39:0
     RDKit          3D

 40 42  0  0  0  0  0  0  0  0999 V2000
   -3.4920   21.2370  -30.2720 C   0  0  0  0  0  0  0  0  0  0  0  0
   -4.2030   21.9050  -31.4060 C   0  0  0  0  0  0  0  0  0  0  0  0
   -3.5860   22.1010  -32.4880 O   0  0  0  0  0  0  0  0  0  0  0  0
   -5.5560   22.3680  -31.2610 N   0  0  0  0  0  0  0  0  0  0  0  0
   -5.9850   23.5710  -30.7840 C   0  0  0  0  0  0  0  0  0  0  0  0
   -5.1240   24.6080  -30.1750 C   0  0  0  0  0  0  0  0  0  0  0  0
   -5.2610   24.9560  -28.7960 N   0  0  0  0  0  0  0  0  0  0  0  0
   -4.2390   25.1790  -30.8650 O   0  0  0  0  0  0  0  0  0  0  0  0
   -7.3760   23.6530  -30.8540 C   0  0  0  0  0  0  0  0  0  0  0  0
   -7.7860   22.4500  -31.3850 C   0  0  0  0  0  0  0  0  0  0  0  0
   -9.0640   21.9870  -31.6750 C   0  0  0  0  0  0  0  0  0  0  0  0
   -9.1890   20.7030  -32.2320 C   0  0  0  0  0  0  0  0  0  0  0  0
   -8.0450   19.9070  -32.4910 C   0  0  0  0  0  0  0  0  0  0  0  0
   -8.2200   18.5940  -33.0580 N   0  0  0  0  0  0  0  0  0  0  0  0
   -7.4050   17.4300  -32.7140 C   0  0  0  0  0  0  0  0  0  0  0  0
   -6.1360   17.4110  -33.5190 C   0  0  0  0  0  0  0  0  0  0  0  0
   -5.8350   18.2540  -34.5690 C   0  0  0  0  0  0  0  0  0  0  0  0
   -4.5710   17.8670  -34.9720 C   0  0  0  0  0  0  0  0  0  0  0  0
   -4.1440   16.8430  -34.2060 N   0  0  0  0  0  0  0  0  0  0  0  0
   -5.1010   16.5650  -33.3360 N   0  0  0  0  0  0  0  0  0  0  0  0
   -4.9770   15.5390  -32.3070 C   0  0  0  0  0  0  0  0  0  0  0  0
   -6.7600   20.4210  -32.1900 C   0  0  0  0  0  0  0  0  0  0  0  0
   -6.6680   21.6940  -31.6210 C   0  0  0  0  0  0  0  0  0  0  0  0
   -3.8907   21.6116  -29.3177 H   0  0  0  0  0  0  0  0  0  0  0  0
   -3.6462   20.1495  -30.3322 H   0  0  0  0  0  0  0  0  0  0  0  0
   -2.4163   21.4587  -30.3322 H   0  0  0  0  0  0  0  0  0  0  0  0
   -6.0200   24.5480  -28.2050 H   0  0  0  0  0  0  0  0  0  0  0  0
   -4.6230   25.6620  -28.3680 H   0  0  0  0  0  0  0  0  0  0  0  0
   -8.0104   24.4986  -30.5498 H   0  0  0  0  0  0  0  0  0  0  0  0
   -9.9505   22.6067  -31.4746 H   0  0  0  0  0  0  0  0  0  0  0  0
  -10.1884   20.3101  -32.4703 H   0  0  0  0  0  0  0  0  0  0  0  0
   -9.0080   18.4440  -33.7290 H   0  0  0  0  0  0  0  0  0  0  0  0
   -7.1529   17.4696  -31.6440 H   0  0  0  0  0  0  0  0  0  0  0  0
   -7.9788   16.5188  -32.9384 H   0  0  0  0  0  0  0  0  0  0  0  0
   -6.4607   19.0544  -34.9907 H   0  0  0  0  0  0  0  0  0  0  0  0
   -4.0000   18.3249  -35.7931 H   0  0  0  0  0  0  0  0  0  0  0  0
   -5.0336   16.0075  -31.3134 H   0  0  0  0  0  0  0  0  0  0  0  0
   -5.7936   14.8100  -32.4157 H   0  0  0  0  0  0  0  0  0  0  0  0
   -4.0103   15.0256  -32.4157 H   0  0  0  0  0  0  0  0  0  0  0  0
   -5.8551   19.8316  -32.3993 H   0  0  0  0  0  0  0  0  0  0  0  0
  1  2  1  0
  2  3  2  0
  2  4  1  0
  4  5  1  0
  5  6  1  0
  6  7  1  0
  6  8  2  0
  5  9  2  0
  9 10  1  0
 10 11  2  0
 11 12  1  0
 12 13  2  0
 13 14  1  0
 14 15  1  0
 15 16  1  0
 16 17  2  0
 17 18  1  0
 18 19  2  0
 19 20  1  0
 20 21  1  0
 13 22  1  0
 22 23  2  0
 23  4  1  0
 23 10  1  0
 20 16  1  0
  1 24  1  0
  1 25  1  0
  1 26  1  0
  7 27  1  0
  7 28  1  0
  9 29  1  0
 11 30  1  0
 12 31  1  0
 14 32  1  0
 15 33  1  0
 15 34  1  0
 17 35  1  0
 18 36  1  0
 21 37  1  0
 21 38  1  0
 21 39  1  0
 22 40  1  0
M  END
>  <UniqueID>  (40) 
40

>  <SMILES>  (40) 
CC(=O)n1c(C(N)=O)cc2ccc(NCc3ccnn3C)cc21

>  <Energy>  (40) 
107.35493183940486

>  <Genealogy>  (40) 
CC(=O)n1c(C(N)=O)cc2ccc(NCc3ccnn3C)cc21 (3D coordinates assigned)
CC(=O)n1c(C(N)=O)cc2ccc(NCc3ccnn3C)cc21 (optimized conformer: 107.35493183940486 kcal/mol)

>  <smiles>  (40) 
CC(=O)n1c(C(N)=O)cc2ccc(NCc3ccnn3C)cc21

>  <score_type>  (40) 
oracle

>  <origin>  (40) 
adg

>  <m_score__min__energy>  (40) 
-9.1799999999999997

>  <m_primary>  (40) 
energy

$$$$
40:0
     RDKit          3D

 36 37  0  0  0  0  0  0  0  0999 V2000
   -2.1720   25.4940  -26.2720 C   0  0  0  0  0  0  0  0  0  0  0  0
   -2.7440   24.9100  -27.5580 C   0  0  0  0  0  0  0  0  0  0  0  0
   -1.8590   25.1410  -28.6530 O   0  0  0  0  0  0  0  0  0  0  0  0
   -1.0120   24.1580  -29.1800 C   0  0  0  0  0  0  0  0  0  0  0  0
    0.2300   24.1920  -28.9590 O   0  0  0  0  0  0  0  0  0  0  0  0
   -1.5720   23.0830  -30.0020 C   0  0  0  0  0  0  0  0  0  0  0  0
   -0.7950   22.2970  -30.6080 O   0  0  0  0  0  0  0  0  0  0  0  0
   -2.9630   22.9510  -30.1050 O   0  0  0  0  0  0  0  0  0  0  0  0
   -3.6640   22.7030  -31.2930 C   0  0  0  0  0  0  0  0  0  0  0  0
   -3.0630   22.2960  -32.3240 O   0  0  0  0  0  0  0  0  0  0  0  0
   -5.0870   22.8980  -31.3270 N   0  0  0  0  0  0  0  0  0  0  0  0
   -5.7870   23.9880  -30.9050 C   0  0  0  0  0  0  0  0  0  0  0  0
   -5.2100   25.2810  -30.4810 C   0  0  0  0  0  0  0  0  0  0  0  0
   -3.8760   25.6400  -30.8350 N   0  0  0  0  0  0  0  0  0  0  0  0
   -5.9190   26.1010  -29.8410 O   0  0  0  0  0  0  0  0  0  0  0  0
   -7.1570   23.7560  -30.9980 C   0  0  0  0  0  0  0  0  0  0  0  0
   -7.2790   22.4830  -31.5050 C   0  0  0  0  0  0  0  0  0  0  0  0
   -8.4180   21.7370  -31.7870 C   0  0  0  0  0  0  0  0  0  0  0  0
   -8.2470   20.4300  -32.2730 C   0  0  0  0  0  0  0  0  0  0  0  0
   -6.9490   19.8930  -32.4600 C   0  0  0  0  0  0  0  0  0  0  0  0
   -6.7880   18.4870  -32.9630 C   0  0  0  0  0  0  0  0  0  0  0  0
   -7.9700   17.7920  -32.7860 F   0  0  0  0  0  0  0  0  0  0  0  0
   -6.4670   18.5070  -34.3080 F   0  0  0  0  0  0  0  0  0  0  0  0
   -5.8140   20.6800  -32.1580 C   0  0  0  0  0  0  0  0  0  0  0  0
   -6.0150   21.9850  -31.6940 C   0  0  0  0  0  0  0  0  0  0  0  0
   -2.6468   25.0092  -25.4062 H   0  0  0  0  0  0  0  0  0  0  0  0
   -1.0865   25.3187  -26.2407 H   0  0  0  0  0  0  0  0  0  0  0  0
   -2.3698   26.5756  -26.2407 H   0  0  0  0  0  0  0  0  0  0  0  0
   -2.8863   23.8267  -27.4308 H   0  0  0  0  0  0  0  0  0  0  0  0
   -3.7063   25.3984  -27.7713 H   0  0  0  0  0  0  0  0  0  0  0  0
   -3.0590   25.1170  -30.4490 H   0  0  0  0  0  0  0  0  0  0  0  0
   -7.9696   24.4449  -30.7240 H   0  0  0  0  0  0  0  0  0  0  0  0
   -9.4229   22.1576  -31.6341 H   0  0  0  0  0  0  0  0  0  0  0  0
   -9.1293   19.8175  -32.5107 H   0  0  0  0  0  0  0  0  0  0  0  0
   -5.9823   17.9926  -32.4005 H   0  0  0  0  0  0  0  0  0  0  0  0
   -4.7984   20.2768  -32.2845 H   0  0  0  0  0  0  0  0  0  0  0  0
  1  2  1  0
  2  3  1  0
  3  4  1  0
  4  5  2  0
  4  6  1  0
  6  7  2  0
  6  8  1  0
  8  9  1  0
  9 10  2  0
  9 11  1  0
 11 12  1  0
 12 13  1  0
 13 14  1  0
 13 15  2  0
 12 16  2  0
 16 17  1  0
 17 18  2  0
 18 19  1  0
 19 20  2  0
 20 21  1  0
 21 22  1  0
 21 23  1  0
 20 24  1  0
 24 25  2  0
 25 11  1  0
 25 17  1  0
  1 26  1  0
  1 27  1  0
  1 28  1  0
  2 29  1  0
  2 30  1  0
 14 31  1  0
 16 32  1  0
 18 33  1  0
 19 34  1  0
 21 35  1  0
 24 36  1  0
M  CHG  1  14  -1
M  END
>  <UniqueID>  (41) 
41

>  <SMILES>  (41) 
CCOC(=O)C(=O)OC(=O)n1c(C([NH-])=O)cc2ccc(C(F)F)cc21

>  <Energy>  (41) 
70.56650230008823

>  <Genealogy>  (41) 
CCOC(=O)C(=O)OC(=O)n1c(C([NH-])=O)cc2ccc(C(F)F)cc21 (protonated)
CCOC(=O)C(=O)OC(=O)n1c(C([NH-])=O)cc2ccc(C(F)F)cc21 (3D coordinates assigned)
CCOC(=O)C(=O)OC(=O)n1c(C([NH-])=O)cc2ccc(C(F)F)cc21 (optimized conformer: 70.56650230008823 kcal/mol)

>  <smiles>  (41) 
CCOC(=O)C(=O)OC(=O)n1c(C(N)=O)cc2ccc(C(F)F)cc21

>  <score_type>  (41) 
oracle

>  <origin>  (41) 
adg

>  <m_score__min__energy>  (41) 
-9.8000000000000007

>  <m_primary>  (41) 
energy

$$$$
41:0
     RDKit          3D

 43 44  0  0  0  0  0  0  0  0999 V2000
    1.8500   24.4840  -27.6000 C   0  0  0  0  0  0  0  0  0  0  0  0
    0.6970   24.3710  -28.4250 O   0  0  0  0  0  0  0  0  0  0  0  0
   -0.5870   24.1710  -27.9060 C   0  0  0  0  0  0  0  0  0  0  0  0
   -0.8680   23.0890  -27.3190 O   0  0  0  0  0  0  0  0  0  0  0  0
   -1.6150   25.2800  -27.9890 C   0  0  0  0  0  0  0  0  0  0  0  0
   -0.8850   26.6110  -27.7230 C   0  0  0  0  0  0  0  0  0  0  0  0
   -2.7090   25.0180  -26.9380 C   0  0  0  0  0  0  0  0  0  0  0  0
   -2.1960   25.2430  -29.3400 N   0  0  0  0  0  0  0  0  0  0  0  0
   -3.3800   24.6170  -29.8700 C   0  0  0  0  0  0  0  0  0  0  0  0
   -4.1950   25.3410  -30.4990 O   0  0  0  0  0  0  0  0  0  0  0  0
   -3.7010   23.1840  -29.7250 C   0  0  0  0  0  0  0  0  0  0  0  0
   -3.8420   22.6750  -28.5840 O   0  0  0  0  0  0  0  0  0  0  0  0
   -3.7700   22.3380  -30.8860 N   0  0  0  0  0  0  0  0  0  0  0  0
   -2.7350   21.7220  -31.5240 C   0  0  0  0  0  0  0  0  0  0  0  0
   -1.3000   21.9310  -31.2260 C   0  0  0  0  0  0  0  0  0  0  0  0
   -0.8900   22.6360  -30.0530 N   0  0  0  0  0  0  0  0  0  0  0  0
   -0.4190   21.4650  -31.9980 O   0  0  0  0  0  0  0  0  0  0  0  0
   -3.2090   20.9150  -32.5580 C   0  0  0  0  0  0  0  0  0  0  0  0
   -4.5780   21.0560  -32.5310 C   0  0  0  0  0  0  0  0  0  0  0  0
   -5.5540   20.4570  -33.3210 C   0  0  0  0  0  0  0  0  0  0  0  0
   -6.8990   20.7540  -33.0450 C   0  0  0  0  0  0  0  0  0  0  0  0
   -7.2450   21.6490  -31.9980 C   0  0  0  0  0  0  0  0  0  0  0  0
   -8.6920   21.9120  -31.6710 C   0  0  0  0  0  0  0  0  0  0  0  0
   -8.8870   21.9350  -30.3010 F   0  0  0  0  0  0  0  0  0  0  0  0
   -9.4710   20.9090  -32.2200 F   0  0  0  0  0  0  0  0  0  0  0  0
   -9.0970   23.1310  -32.1860 F   0  0  0  0  0  0  0  0  0  0  0  0
   -6.2230   22.2170  -31.2040 C   0  0  0  0  0  0  0  0  0  0  0  0
   -4.8910   21.9180  -31.5130 C   0  0  0  0  0  0  0  0  0  0  0  0
    1.5485   24.4545  -26.5425 H   0  0  0  0  0  0  0  0  0  0  0  0
    2.5342   23.6486  -27.8097 H   0  0  0  0  0  0  0  0  0  0  0  0
    2.3590   25.4363  -27.8097 H   0  0  0  0  0  0  0  0  0  0  0  0
   -0.7974   26.7707  -26.6382 H   0  0  0  0  0  0  0  0  0  0  0  0
    0.1192   26.5742  -28.1705 H   0  0  0  0  0  0  0  0  0  0  0  0
   -1.4558   27.4380  -28.1705 H   0  0  0  0  0  0  0  0  0  0  0  0
   -2.2810   25.1205  -25.9299 H   0  0  0  0  0  0  0  0  0  0  0  0
   -3.5230   25.7466  -27.0666 H   0  0  0  0  0  0  0  0  0  0  0  0
   -3.1046   23.9997  -27.0666 H   0  0  0  0  0  0  0  0  0  0  0  0
   -1.5850   23.0920  -29.4210 H   0  0  0  0  0  0  0  0  0  0  0  0
    0.1250   22.7440  -29.8340 H   0  0  0  0  0  0  0  0  0  0  0  0
   -2.6154   20.2974  -33.2481 H   0  0  0  0  0  0  0  0  0  0  0  0
   -5.2808   19.7717  -34.1369 H   0  0  0  0  0  0  0  0  0  0  0  0
   -7.6933   20.2880  -33.6467 H   0  0  0  0  0  0  0  0  0  0  0  0
   -6.4691   22.8798  -30.3613 H   0  0  0  0  0  0  0  0  0  0  0  0
  1  2  1  0
  2  3  1  0
  3  4  2  0
  3  5  1  0
  5  6  1  0
  5  7  1  0
  5  8  1  0
  8  9  1  0
  9 10  2  0
  9 11  1  0
 11 12  2  0
 11 13  1  0
 13 14  1  0
 14 15  1  0
 15 16  1  0
 15 17  2  0
 14 18  2  0
 18 19  1  0
 19 20  2  0
 20 21  1  0
 21 22  2  0
 22 23  1  0
 23 24  1  0
 23 25  1  0
 23 26  1  0
 22 27  1  0
 27 28  2  0
 28 13  1  0
 28 19  1  0
  1 29  1  0
  1 30  1  0
  1 31  1  0
  6 32  1  0
  6 33  1  0
  6 34  1  0
  7 35  1  0
  7 36  1  0
  7 37  1  0
 16 38  1  0
 16 39  1  0
 18 40  1  0
 20 41  1  0
 21 42  1  0
 27 43  1  0
M  CHG  1   8  -1
M  END
>  <UniqueID>  (42) 
42

>  <SMILES>  (42) 
COC(=O)C(C)(C)[N-]C(=O)C(=O)n1c(C(N)=O)cc2ccc(C(F)(F)F)cc21

>  <Energy>  (42) 
85.5034243676904

>  <Genealogy>  (42) 
COC(=O)C(C)(C)[N-]C(=O)C(=O)n1c(C(N)=O)cc2ccc(C(F)(F)F)cc21 (protonated)
COC(=O)C(C)(C)[N-]C(=O)C(=O)n1c(C(N)=O)cc2ccc(C(F)(F)F)cc21 (3D coordinates assigned)
COC(=O)C(C)(C)[N-]C(=O)C(=O)n1c(C(N)=O)cc2ccc(C(F)(F)F)cc21 (optimized conformer: 85.5034243676904 kcal/mol)

>  <smiles>  (42) 
COC(=O)C(C)(C)NC(=O)C(=O)n1c(C(N)=O)cc2ccc(C(F)(F)F)cc21

>  <score_type>  (42) 
oracle

>  <origin>  (42) 
adg

>  <m_score__min__energy>  (42) 
-10.26

>  <m_primary>  (42) 
energy

$$$$
42:0
     RDKit          3D

 51 55  0  0  0  0  0  0  0  0999 V2000
   -3.9980   25.6300  -30.8210 N   0  0  0  0  0  0  0  0  0  0  0  0
   -5.1710   24.9680  -30.3530 C   0  0  0  0  0  0  0  0  0  0  0  0
   -5.8000   25.4470  -29.3750 O   0  0  0  0  0  0  0  0  0  0  0  0
   -5.6560   23.7560  -31.0470 C   0  0  0  0  0  0  0  0  0  0  0  0
   -7.0060   23.4770  -31.2470 C   0  0  0  0  0  0  0  0  0  0  0  0
   -7.0390   22.2330  -31.8350 C   0  0  0  0  0  0  0  0  0  0  0  0
   -8.1220   21.4710  -32.2560 C   0  0  0  0  0  0  0  0  0  0  0  0
   -7.8630   20.2260  -32.8510 C   0  0  0  0  0  0  0  0  0  0  0  0
   -6.5310   19.7620  -33.0220 C   0  0  0  0  0  0  0  0  0  0  0  0
   -6.2670   18.4470  -33.6600 C   0  0  0  0  0  0  0  0  0  0  0  0
   -5.3370   18.1540  -34.6480 C   0  0  0  0  0  0  0  0  0  0  0  0
   -5.4050   16.8410  -34.9290 N   0  0  0  0  0  0  0  0  0  0  0  0
   -6.3510   16.2890  -34.1840 N   0  0  0  0  0  0  0  0  0  0  0  0
   -6.6510   14.8490  -34.1550 C   0  0  0  0  0  0  0  0  0  0  0  0
   -5.4570   13.9710  -34.2590 N   0  0  0  0  0  0  0  0  0  0  0  0
   -5.4890   12.7700  -33.3870 C   0  0  0  0  0  0  0  0  0  0  0  0
   -4.3030   13.2840  -32.6290 C   0  0  0  0  0  0  0  0  0  0  0  0
   -4.5890   13.6150  -31.1650 C   0  0  0  0  0  0  0  0  0  0  0  0
   -3.4060   12.7320  -31.5440 C   0  0  0  0  0  0  0  0  0  0  0  0
   -4.2650   14.4780  -33.5340 C   0  0  0  0  0  0  0  0  0  0  0  0
   -6.8760   17.2330  -33.3760 C   0  0  0  0  0  0  0  0  0  0  0  0
   -5.4560   20.5740  -32.5820 C   0  0  0  0  0  0  0  0  0  0  0  0
   -5.7470   21.8010  -31.9750 C   0  0  0  0  0  0  0  0  0  0  0  0
   -4.8840   22.7280  -31.5000 N   0  0  0  0  0  0  0  0  0  0  0  0
   -3.4500   22.6460  -31.5340 C   0  0  0  0  0  0  0  0  0  0  0  0
   -2.7580   23.3900  -30.7850 O   0  0  0  0  0  0  0  0  0  0  0  0
   -2.8270   21.7580  -32.4160 O   0  0  0  0  0  0  0  0  0  0  0  0
   -2.0650   20.6410  -31.9750 C   0  0  0  0  0  0  0  0  0  0  0  0
   -2.1880   19.5390  -32.9730 C   0  0  0  0  0  0  0  0  0  0  0  0
   -1.4520   19.5270  -33.9950 O   0  0  0  0  0  0  0  0  0  0  0  0
   -3.1480   18.5500  -32.8020 O   0  0  0  0  0  0  0  0  0  0  0  0
   -3.0470   25.2780  -30.5750 H   0  0  0  0  0  0  0  0  0  0  0  0
   -7.8639   24.1156  -30.9896 H   0  0  0  0  0  0  0  0  0  0  0  0
   -9.1527   21.8328  -32.1268 H   0  0  0  0  0  0  0  0  0  0  0  0
   -8.7028   19.6013  -33.1894 H   0  0  0  0  0  0  0  0  0  0  0  0
   -4.6568   18.8766  -35.1226 H   0  0  0  0  0  0  0  0  0  0  0  0
   -4.7940   16.3280  -35.6030 H   0  0  0  0  0  0  0  0  0  0  0  0
   -7.1626   14.6232  -33.2078 H   0  0  0  0  0  0  0  0  0  0  0  0
   -7.2722   14.6400  -35.0384 H   0  0  0  0  0  0  0  0  0  0  0  0
   -6.4031   12.6793  -32.7819 H   0  0  0  0  0  0  0  0  0  0  0  0
   -5.4721   11.7626  -33.8283 H   0  0  0  0  0  0  0  0  0  0  0  0
   -4.4181   14.6335  -30.7861 H   0  0  0  0  0  0  0  0  0  0  0  0
   -5.4565   13.5143  -30.4962 H   0  0  0  0  0  0  0  0  0  0  0  0
   -2.3798   13.1124  -31.4340 H   0  0  0  0  0  0  0  0  0  0  0  0
   -3.0658   11.7262  -31.2565 H   0  0  0  0  0  0  0  0  0  0  0  0
   -4.4273   15.4364  -33.0191 H   0  0  0  0  0  0  0  0  0  0  0  0
   -3.3459   14.7294  -34.0836 H   0  0  0  0  0  0  0  0  0  0  0  0
   -7.6564   17.0680  -32.6186 H   0  0  0  0  0  0  0  0  0  0  0  0
   -4.4143   20.2466  -32.7149 H   0  0  0  0  0  0  0  0  0  0  0  0
   -1.0088   20.9319  -31.8764 H   0  0  0  0  0  0  0  0  0  0  0  0
   -2.4403   20.2995  -30.9990 H   0  0  0  0  0  0  0  0  0  0  0  0
  1  2  1  0
  2  3  2  0
  2  4  1  0
  4  5  2  0
  5  6  1  0
  6  7  2  0
  7  8  1  0
  8  9  2  0
  9 10  1  0
 10 11  1  0
 11 12  2  0
 12 13  1  0
 13 14  1  0
 14 15  1  0
 15 16  1  0
 16 17  1  0
 17 18  1  0
 18 19  1  0
 17 20  1  0
 13 21  1  0
  9 22  1  0
 22 23  2  0
 23 24  1  0
 24 25  1  0
 25 26  2  0
 25 27  1  0
 27 28  1  0
 28 29  1  0
 29 30  2  0
 29 31  1  0
 24  4  1  0
 23  6  1  0
 21 10  2  0
 20 15  1  0
 19 17  1  0
  1 32  1  0
  5 33  1  0
  7 34  1  0
  8 35  1  0
 11 36  1  0
 12 37  1  0
 14 38  1  0
 14 39  1  0
 16 40  1  0
 16 41  1  0
 18 42  1  0
 18 43  1  0
 19 44  1  0
 19 45  1  0
 20 46  1  0
 20 47  1  0
 21 48  1  0
 22 49  1  0
 28 50  1  0
 28 51  1  0
M  CHG  3   1  -1  12   1  31  -1
M  END
>  <UniqueID>  (43) 
43

>  <SMILES>  (43) 
[NH-]C(=O)c1cc2ccc(-c3c[nH+]n(CN4CC5(CC5)C4)c3)cc2n1C(=O)OCC(=O)[O-]

>  <Energy>  (43) 
489.3958634631137

>  <Genealogy>  (43) 
[NH-]C(=O)c1cc2ccc(-c3c[nH+]n(CN4CC5(CC5)C4)c3)cc2n1C(=O)OCC(=O)[O-] (protonated)
[NH-]C(=O)c1cc2ccc(-c3c[nH+]n(CN4CC5(CC5)C4)c3)cc2n1C(=O)OCC(=O)[O-] (3D coordinates assigned)
[NH-]C(=O)c1cc2ccc(-c3c[nH+]n(CN4CC5(CC5)C4)c3)cc2n1C(=O)OCC(=O)[O-] (nonaromatic ring conformer: 489.3958634631137 kcal/mol)

>  <smiles>  (43) 
NC(=O)c1cc2ccc(-c3cnn(CN4CC5(CC5)C4)c3)cc2n1C(=O)OCC(=O)O

>  <score_type>  (43) 
oracle

>  <origin>  (43) 
adg

>  <m_score__min__energy>  (43) 
-12.84

>  <m_primary>  (43) 
energy

$$$$
43:0
     RDKit          3D

 66 69  0  0  0  0  0  0  0  0999 V2000
   -3.9310   25.2160  -25.9970 C   0  0  0  0  0  0  0  0  0  0  0  0
   -3.2990   24.5090  -27.1900 C   0  0  0  0  0  0  0  0  0  0  0  0
   -2.3040   25.3340  -27.7930 O   0  0  0  0  0  0  0  0  0  0  0  0
   -0.9300   25.1520  -27.6000 C   0  0  0  0  0  0  0  0  0  0  0  0
   -0.1500   25.0230  -28.5820 O   0  0  0  0  0  0  0  0  0  0  0  0
   -0.3820   25.1060  -26.2010 C   0  0  1  0  0  0  0  0  0  0  0  0
   -0.7120   26.4130  -25.4860 C   0  0  0  0  0  0  0  0  0  0  0  0
   -0.9690   24.0360  -25.4820 O   0  0  0  0  0  0  0  0  0  0  0  0
   -0.0680   22.9510  -25.2900 C   0  0  0  0  0  0  0  0  0  0  0  0
    0.9970   22.9580  -26.4120 C   0  0  0  0  0  0  0  0  0  0  0  0
    0.5510   22.1780  -27.6590 C   0  0  0  0  0  0  0  0  0  0  0  0
   -0.9240   22.2090  -27.7680 N   0  0  0  0  0  0  0  0  0  0  0  0
   -1.5080   21.8700  -29.0940 C   0  0  1  0  0  0  0  0  0  0  0  0
   -2.7820   21.0340  -28.9890 C   0  0  0  0  0  0  0  0  0  0  0  0
   -3.5820   22.1760  -29.6290 C   0  0  2  0  0  0  0  0  0  0  0  0
   -4.2690   21.8230  -30.9250 C   0  0  0  0  0  0  0  0  0  0  0  0
   -3.6130   21.2340  -31.8240 O   0  0  0  0  0  0  0  0  0  0  0  0
   -5.6400   22.1840  -31.1790 N   0  0  0  0  0  0  0  0  0  0  0  0
   -6.2200   23.3900  -30.9270 C   0  0  0  0  0  0  0  0  0  0  0  0
   -5.5110   24.6090  -30.4910 C   0  0  0  0  0  0  0  0  0  0  0  0
   -5.8610   25.2750  -29.2770 N   0  0  0  0  0  0  0  0  0  0  0  0
   -4.5480   25.0430  -31.1780 O   0  0  0  0  0  0  0  0  0  0  0  0
   -7.5890   23.3390  -31.1670 C   0  0  0  0  0  0  0  0  0  0  0  0
   -7.8360   22.0540  -31.5910 C   0  0  0  0  0  0  0  0  0  0  0  0
   -9.0320   21.4510  -31.9660 C   0  0  0  0  0  0  0  0  0  0  0  0
   -9.0010   20.0960  -32.3340 C   0  0  0  0  0  0  0  0  0  0  0  0
   -7.7880   19.3680  -32.2960 C   0  0  0  0  0  0  0  0  0  0  0  0
   -7.7560   17.9310  -32.7230 C   0  0  0  0  0  0  0  0  0  0  0  0
   -6.5920   20.0130  -31.9140 C   0  0  0  0  0  0  0  0  0  0  0  0
   -6.6450   21.3720  -31.5820 C   0  0  0  0  0  0  0  0  0  0  0  0
   -2.2890   22.9800  -29.8090 C   0  0  0  0  0  0  0  0  0  0  0  0
   -1.5460   21.4050  -26.6930 C   0  0  0  0  0  0  0  0  0  0  0  0
   -0.8680   21.6380  -25.3220 C   0  0  0  0  0  0  0  0  0  0  0  0
   -3.5420   24.7808  -25.0646 H   0  0  0  0  0  0  0  0  0  0  0  0
   -3.6840   26.2873  -26.0326 H   0  0  0  0  0  0  0  0  0  0  0  0
   -5.0232   25.0902  -26.0326 H   0  0  0  0  0  0  0  0  0  0  0  0
   -2.8341   23.5718  -26.8501 H   0  0  0  0  0  0  0  0  0  0  0  0
   -4.0823   24.2977  -27.9328 H   0  0  0  0  0  0  0  0  0  0  0  0
    0.7074   24.9618  -26.2508 H   0  0  0  0  0  0  0  0  0  0  0  0
   -0.6723   26.2559  -24.3980 H   0  0  0  0  0  0  0  0  0  0  0  0
    0.0200   27.1825  -25.7723 H   0  0  0  0  0  0  0  0  0  0  0  0
   -1.7216   26.7428  -25.7723 H   0  0  0  0  0  0  0  0  0  0  0  0
    0.4433   23.0467  -24.3208 H   0  0  0  0  0  0  0  0  0  0  0  0
    1.1960   24.0004  -26.7016 H   0  0  0  0  0  0  0  0  0  0  0  0
    1.8982   22.4659  -26.0174 H   0  0  0  0  0  0  0  0  0  0  0  0
    0.9932   22.6379  -28.5550 H   0  0  0  0  0  0  0  0  0  0  0  0
    0.8872   21.1341  -27.5741 H   0  0  0  0  0  0  0  0  0  0  0  0
   -0.5946   21.4818  -29.5684 H   0  0  0  0  0  0  0  0  0  0  0  0
   -3.0814   20.7990  -27.9570 H   0  0  0  0  0  0  0  0  0  0  0  0
   -2.8200   20.0203  -29.4143 H   0  0  0  0  0  0  0  0  0  0  0  0
   -4.4443   22.6064  -29.0987 H   0  0  0  0  0  0  0  0  0  0  0  0
   -6.5120   24.8340  -28.5910 H   0  0  0  0  0  0  0  0  0  0  0  0
   -5.3920   26.1700  -29.0170 H   0  0  0  0  0  0  0  0  0  0  0  0
   -8.3187   24.1529  -31.0440 H   0  0  0  0  0  0  0  0  0  0  0  0
   -9.9742   22.0186  -31.9741 H   0  0  0  0  0  0  0  0  0  0  0  0
   -9.9272   19.5965  -32.6544 H   0  0  0  0  0  0  0  0  0  0  0  0
   -7.7416   17.2843  -31.8333 H   0  0  0  0  0  0  0  0  0  0  0  0
   -8.6494   17.7072  -33.3245 H   0  0  0  0  0  0  0  0  0  0  0  0
   -6.8535   17.7472  -33.3245 H   0  0  0  0  0  0  0  0  0  0  0  0
   -5.6412   19.4611  -31.8780 H   0  0  0  0  0  0  0  0  0  0  0  0
   -2.2825   23.9458  -29.2825 H   0  0  0  0  0  0  0  0  0  0  0  0
   -1.9808   23.3273  -30.8062 H   0  0  0  0  0  0  0  0  0  0  0  0
   -2.6081   21.6801  -26.6142 H   0  0  0  0  0  0  0  0  0  0  0  0
   -1.4257   20.3430  -26.9530 H   0  0  0  0  0  0  0  0  0  0  0  0
   -1.6445   21.6764  -24.5439 H   0  0  0  0  0  0  0  0  0  0  0  0
   -0.1671   20.8090  -25.1446 H   0  0  0  0  0  0  0  0  0  0  0  0
  1  2  1  0
  2  3  1  0
  3  4  1  0
  4  5  2  0
  4  6  1  0
  6  7  1  0
  6  8  1  0
  8  9  1  0
  9 10  1  0
 10 11  1  0
 11 12  1  0
 12 13  1  0
 13 14  1  0
 14 15  1  0
 15 16  1  0
 16 17  2  0
 16 18  1  0
 18 19  1  0
 19 20  1  0
 20 21  1  0
 20 22  2  0
 19 23  2  0
 23 24  1  0
 24 25  2  0
 25 26  1  0
 26 27  2  0
 27 28  1  0
 27 29  1  0
 29 30  2  0
 15 31  1  0
 12 32  1  0
 32 33  1  0
 33  9  1  0
 31 13  1  0
 30 18  1  0
 30 24  1  0
  1 34  1  0
  1 35  1  0
  1 36  1  0
  2 37  1  0
  2 38  1  0
  6 39  1  6
  7 40  1  0
  7 41  1  0
  7 42  1  0
  9 43  1  0
 10 44  1  0
 10 45  1  0
 11 46  1  0
 11 47  1  0
 13 48  1  6
 14 49  1  0
 14 50  1  0
 15 51  1  1
 21 52  1  0
 21 53  1  0
 23 54  1  0
 25 55  1  0
 26 56  1  0
 28 57  1  0
 28 58  1  0
 28 59  1  0
 29 60  1  0
 31 61  1  0
 31 62  1  0
 32 63  1  0
 32 64  1  0
 33 65  1  0
 33 66  1  0
M  END
>  <UniqueID>  (44) 
44

>  <SMILES>  (44) 
CCOC(=O)[C@@H](C)OC1CCN(C2CC(C(=O)n3c(C(N)=O)cc4ccc(C)cc43)C2)CC1

>  <Energy>  (44) 
176.17404893397983

>  <Genealogy>  (44) 
CCOC(=O)[C@@H](C)OC1CCN(C2CC(C(=O)n3c(C(N)=O)cc4ccc(C)cc43)C2)CC1 (3D coordinates assigned)
CCOC(=O)[C@@H](C)OC1CCN(C2CC(C(=O)n3c(C(N)=O)cc4ccc(C)cc43)C2)CC1 (nonaromatic ring conformer: 176.17404893397983 kcal/mol)

>  <smiles>  (44) 
CCOC(=O)[C@@H](C)OC1CCN(C2CC(C(=O)n3c(C(N)=O)cc4ccc(C)cc43)C2)CC1

>  <score_type>  (44) 
oracle

>  <origin>  (44) 
adg

>  <m_score__min__energy>  (44) 
-11.289999999999999

>  <m_primary>  (44) 
energy

$$$$
44:0
     RDKit          3D

 41 42  0  0  0  0  0  0  0  0999 V2000
   -1.1440   25.8160  -27.8730 C   0  0  0  0  0  0  0  0  0  0  0  0
   -2.3650   25.2230  -28.2940 O   0  0  0  0  0  0  0  0  0  0  0  0
   -3.0330   24.2570  -27.5370 C   0  0  0  0  0  0  0  0  0  0  0  0
   -4.0620   24.5570  -26.8720 O   0  0  0  0  0  0  0  0  0  0  0  0
   -2.4960   22.8600  -27.4840 C   0  0  0  0  0  0  0  0  0  0  0  0
   -2.8220   22.0760  -28.7620 C   0  0  0  0  0  0  0  0  0  0  0  0
   -1.8370   22.3800  -29.8970 C   0  0  0  0  0  0  0  0  0  0  0  0
   -2.5200   22.9540  -31.0090 O   0  0  0  0  0  0  0  0  0  0  0  0
   -3.3870   22.2330  -31.8400 C   0  0  0  0  0  0  0  0  0  0  0  0
   -2.9280   21.5430  -32.7910 O   0  0  0  0  0  0  0  0  0  0  0  0
   -4.8020   22.2780  -31.6000 N   0  0  0  0  0  0  0  0  0  0  0  0
   -5.5140   23.3080  -31.0620 C   0  0  0  0  0  0  0  0  0  0  0  0
   -4.9460   24.5280  -30.4540 C   0  0  0  0  0  0  0  0  0  0  0  0
   -5.1430   24.8250  -29.0710 N   0  0  0  0  0  0  0  0  0  0  0  0
   -4.3250   25.3490  -31.1790 O   0  0  0  0  0  0  0  0  0  0  0  0
   -6.8790   23.0420  -31.1120 C   0  0  0  0  0  0  0  0  0  0  0  0
   -6.9860   21.7980  -31.6920 C   0  0  0  0  0  0  0  0  0  0  0  0
   -8.1170   21.0460  -31.9900 C   0  0  0  0  0  0  0  0  0  0  0  0
   -7.9360   19.8050  -32.6200 C   0  0  0  0  0  0  0  0  0  0  0  0
   -6.6370   19.3500  -32.9680 C   0  0  0  0  0  0  0  0  0  0  0  0
   -6.4530   18.0000  -33.6140 C   0  0  0  0  0  0  0  0  0  0  0  0
   -5.4040   17.3160  -33.0230 F   0  0  0  0  0  0  0  0  0  0  0  0
   -6.1740   18.1350  -34.9630 F   0  0  0  0  0  0  0  0  0  0  0  0
   -7.6130   17.2630  -33.4650 F   0  0  0  0  0  0  0  0  0  0  0  0
   -5.5100   20.1350  -32.6290 C   0  0  0  0  0  0  0  0  0  0  0  0
   -5.7190   21.3590  -31.9810 C   0  0  0  0  0  0  0  0  0  0  0  0
   -1.1053   25.8348  -26.7738 H   0  0  0  0  0  0  0  0  0  0  0  0
   -0.2984   25.2282  -28.2596 H   0  0  0  0  0  0  0  0  0  0  0  0
   -1.0832   26.8440  -28.2596 H   0  0  0  0  0  0  0  0  0  0  0  0
   -1.4037   22.9027  -27.3612 H   0  0  0  0  0  0  0  0  0  0  0  0
   -2.9690   22.3436  -26.6357 H   0  0  0  0  0  0  0  0  0  0  0  0
   -2.7817   21.0000  -28.5371 H   0  0  0  0  0  0  0  0  0  0  0  0
   -3.8253   22.3787  -29.0964 H   0  0  0  0  0  0  0  0  0  0  0  0
   -1.0751   23.0865  -29.5359 H   0  0  0  0  0  0  0  0  0  0  0  0
   -1.3614   21.4412  -30.2170 H   0  0  0  0  0  0  0  0  0  0  0  0
   -5.7890   24.2550  -28.4830 H   0  0  0  0  0  0  0  0  0  0  0  0
   -4.6990   25.6710  -28.6490 H   0  0  0  0  0  0  0  0  0  0  0  0
   -7.6979   23.6880  -30.7626 H   0  0  0  0  0  0  0  0  0  0  0  0
   -9.1234   21.4127  -31.7395 H   0  0  0  0  0  0  0  0  0  0  0  0
   -8.8107   19.1777  -32.8467 H   0  0  0  0  0  0  0  0  0  0  0  0
   -4.4928   19.7919  -32.8688 H   0  0  0  0  0  0  0  0  0  0  0  0
  1  2  1  0
  2  3  1  0
  3  4  2  0
  3  5  1  0
  5  6  1  0
  6  7  1  0
  7  8  1  0
  8  9  1  0
  9 10  2  0
  9 11  1  0
 11 12  1  0
 12 13  1  0
 13 14  1  0
 13 15  2  0
 12 16  2  0
 16 17  1  0
 17 18  2  0
 18 19  1  0
 19 20  2  0
 20 21  1  0
 21 22  1  0
 21 23  1  0
 21 24  1  0
 20 25  1  0
 25 26  2  0
 26 11  1  0
 26 17  1  0
  1 27  1  0
  1 28  1  0
  1 29  1  0
  5 30  1  0
  5 31  1  0
  6 32  1  0
  6 33  1  0
  7 34  1  0
  7 35  1  0
 14 36  1  0
 14 37  1  0
 16 38  1  0
 18 39  1  0
 19 40  1  0
 25 41  1  0
M  END
>  <UniqueID>  (45) 
45

>  <SMILES>  (45) 
COC(=O)CCCOC(=O)n1c(C(N)=O)cc2ccc(C(F)(F)F)cc21

>  <Energy>  (45) 
72.52695283681317

>  <Genealogy>  (45) 
COC(=O)CCCOC(=O)n1c(C(N)=O)cc2ccc(C(F)(F)F)cc21 (3D coordinates assigned)
COC(=O)CCCOC(=O)n1c(C(N)=O)cc2ccc(C(F)(F)F)cc21 (optimized conformer: 72.52695283681317 kcal/mol)

>  <smiles>  (45) 
COC(=O)CCCOC(=O)n1c(C(N)=O)cc2ccc(C(F)(F)F)cc21

>  <score_type>  (45) 
oracle

>  <origin>  (45) 
adg

>  <m_score__min__energy>  (45) 
-8.3699999999999992

>  <m_primary>  (45) 
energy

$$$$
45:0
     RDKit          3D

 43 44  0  0  0  0  0  0  0  0999 V2000
   -3.4440   18.8690  -34.0110 C   0  0  0  0  0  0  0  0  0  0  0  0
   -4.4120   17.9570  -34.1500 C   0  0  0  0  0  0  0  0  0  0  0  0
   -5.8160   18.3390  -34.5310 C   0  0  0  0  0  0  0  0  0  0  0  0
   -6.6310   18.5510  -33.3250 N   0  0  0  0  0  0  0  0  0  0  0  0
   -7.2280   17.3970  -32.6430 C   0  0  0  0  0  0  0  0  0  0  0  0
   -6.8320   19.8790  -32.7880 C   0  0  0  0  0  0  0  0  0  0  0  0
   -8.1400   20.4250  -32.6740 C   0  0  0  0  0  0  0  0  0  0  0  0
   -8.3430   21.7100  -32.1400 C   0  0  0  0  0  0  0  0  0  0  0  0
   -7.2260   22.4310  -31.7310 C   0  0  0  0  0  0  0  0  0  0  0  0
   -7.1340   23.6750  -31.1460 C   0  0  0  0  0  0  0  0  0  0  0  0
   -5.7720   23.8780  -30.9260 C   0  0  0  0  0  0  0  0  0  0  0  0
   -5.2080   25.1190  -30.3530 C   0  0  0  0  0  0  0  0  0  0  0  0
   -3.9860   25.6640  -30.8450 N   0  0  0  0  0  0  0  0  0  0  0  0
   -5.8290   25.7250  -29.4390 O   0  0  0  0  0  0  0  0  0  0  0  0
   -5.0570   22.8020  -31.3550 N   0  0  0  0  0  0  0  0  0  0  0  0
   -3.6460   22.5720  -31.2360 C   0  0  0  0  0  0  0  0  0  0  0  0
   -2.9690   22.3050  -32.2640 O   0  0  0  0  0  0  0  0  0  0  0  0
   -2.9950   22.5230  -29.8870 C   0  0  0  0  0  0  0  0  0  0  0  0
   -2.0280   23.5640  -29.7750 O   0  0  0  0  0  0  0  0  0  0  0  0
   -2.0550   24.5320  -28.7630 C   0  0  0  0  0  0  0  0  0  0  0  0
   -1.5960   25.6890  -28.9710 O   0  0  0  0  0  0  0  0  0  0  0  0
   -2.6240   24.1750  -27.4550 C   0  0  0  0  0  0  0  0  0  0  0  0
   -3.8640   24.5060  -27.1010 C   0  0  0  0  0  0  0  0  0  0  0  0
   -5.9580   21.9290  -31.8460 C   0  0  0  0  0  0  0  0  0  0  0  0
   -5.7240   20.6520  -32.3620 C   0  0  0  0  0  0  0  0  0  0  0  0
   -2.4278   18.5542  -33.7312 H   0  0  0  0  0  0  0  0  0  0  0  0
   -3.6639   19.9340  -34.1764 H   0  0  0  0  0  0  0  0  0  0  0  0
   -4.1745   16.8964  -33.9808 H   0  0  0  0  0  0  0  0  0  0  0  0
   -5.7924   19.2670  -35.1211 H   0  0  0  0  0  0  0  0  0  0  0  0
   -6.2598   17.5266  -35.1252 H   0  0  0  0  0  0  0  0  0  0  0  0
   -7.1557   17.5368  -31.5543 H   0  0  0  0  0  0  0  0  0  0  0  0
   -8.2856   17.3073  -32.9317 H   0  0  0  0  0  0  0  0  0  0  0  0
   -6.6902   16.4819  -32.9317 H   0  0  0  0  0  0  0  0  0  0  0  0
   -9.0053   19.8338  -33.0083 H   0  0  0  0  0  0  0  0  0  0  0  0
   -9.3546   22.1322  -32.0485 H   0  0  0  0  0  0  0  0  0  0  0  0
   -7.9588   24.3615  -30.9041 H   0  0  0  0  0  0  0  0  0  0  0  0
   -3.0650   25.3000  -30.5140 H   0  0  0  0  0  0  0  0  0  0  0  0
   -3.7608   22.6517  -29.1079 H   0  0  0  0  0  0  0  0  0  0  0  0
   -2.4956   21.5509  -29.7618 H   0  0  0  0  0  0  0  0  0  0  0  0
   -2.0019   23.6135  -26.7424 H   0  0  0  0  0  0  0  0  0  0  0  0
   -4.2489   24.2180  -26.1116 H   0  0  0  0  0  0  0  0  0  0  0  0
   -4.5036   25.0674  -27.7979 H   0  0  0  0  0  0  0  0  0  0  0  0
   -4.7008   20.2551  -32.4359 H   0  0  0  0  0  0  0  0  0  0  0  0
  1  2  2  0
  2  3  1  0
  3  4  1  0
  4  5  1  0
  4  6  1  0
  6  7  2  0
  7  8  1  0
  8  9  2  0
  9 10  1  0
 10 11  2  0
 11 12  1  0
 12 13  1  0
 12 14  2  0
 11 15  1  0
 15 16  1  0
 16 17  2  0
 16 18  1  0
 18 19  1  0
 19 20  1  0
 20 21  2  0
 20 22  1  0
 22 23  2  0
 15 24  1  0
 24 25  2  0
 25  6  1  0
 24  9  1  0
  1 26  1  0
  1 27  1  0
  2 28  1  0
  3 29  1  0
  3 30  1  0
  5 31  1  0
  5 32  1  0
  5 33  1  0
  7 34  1  0
  8 35  1  0
 10 36  1  0
 13 37  1  0
 18 38  1  0
 18 39  1  0
 22 40  1  0
 23 41  1  0
 23 42  1  0
 25 43  1  0
M  CHG  1  13  -1
M  END
>  <UniqueID>  (46) 
46

>  <SMILES>  (46) 
C=CCN(C)c1ccc2cc(C([NH-])=O)n(C(=O)COC(=O)C=C)c2c1

>  <Energy>  (46) 
77.34029911184342

>  <Genealogy>  (46) 
C=CCN(C)c1ccc2cc(C([NH-])=O)n(C(=O)COC(=O)C=C)c2c1 (protonated)
C=CCN(C)c1ccc2cc(C([NH-])=O)n(C(=O)COC(=O)C=C)c2c1 (3D coordinates assigned)
C=CCN(C)c1ccc2cc(C([NH-])=O)n(C(=O)COC(=O)C=C)c2c1 (optimized conformer: 77.34029911184342 kcal/mol)

>  <smiles>  (46) 
C=CCN(C)c1ccc2cc(C(N)=O)n(C(=O)COC(=O)C=C)c2c1

>  <score_type>  (46) 
oracle

>  <origin>  (46) 
adg

>  <m_score__min__energy>  (46) 
-10.44

>  <m_primary>  (46) 
energy

$$$$
46:0
     RDKit          3D

 34 36  0  0  0  0  0  0  0  0999 V2000
   -6.1090   17.2020  -31.1260 C   0  0  0  0  0  0  0  0  0  0  0  0
   -6.0820   17.3520  -32.5830 N   0  0  0  0  0  0  0  0  0  0  0  0
   -5.8550   16.3820  -33.5020 C   0  0  0  0  0  0  0  0  0  0  0  0
   -5.4740   14.9820  -33.2270 C   0  0  0  0  0  0  0  0  0  0  0  0
   -4.6520   14.7240  -32.3090 O   0  0  0  0  0  0  0  0  0  0  0  0
   -6.0280   13.9340  -33.9510 O   0  0  0  0  0  0  0  0  0  0  0  0
   -6.0160   16.9230  -34.7630 C   0  0  0  0  0  0  0  0  0  0  0  0
   -6.3270   18.2240  -34.6330 N   0  0  0  0  0  0  0  0  0  0  0  0
   -6.3470   18.4690  -33.3070 C   0  0  0  0  0  0  0  0  0  0  0  0
   -6.6040   19.8130  -32.7480 C   0  0  0  0  0  0  0  0  0  0  0  0
   -7.9280   20.2480  -32.4950 C   0  0  0  0  0  0  0  0  0  0  0  0
   -8.1720   21.5100  -31.9280 C   0  0  0  0  0  0  0  0  0  0  0  0
   -7.0750   22.3100  -31.6200 C   0  0  0  0  0  0  0  0  0  0  0  0
   -7.0250   23.5550  -31.0390 C   0  0  0  0  0  0  0  0  0  0  0  0
   -5.6700   23.8670  -30.9510 C   0  0  0  0  0  0  0  0  0  0  0  0
   -5.1670   25.1670  -30.4600 C   0  0  0  0  0  0  0  0  0  0  0  0
   -3.8920   25.6580  -30.8620 N   0  0  0  0  0  0  0  0  0  0  0  0
   -5.8950   25.8770  -29.7150 O   0  0  0  0  0  0  0  0  0  0  0  0
   -4.9110   22.8500  -31.4490 N   0  0  0  0  0  0  0  0  0  0  0  0
   -3.4780   22.7430  -31.4490 C   0  0  0  0  0  0  0  0  0  0  0  0
   -2.8780   22.2350  -32.4320 O   0  0  0  0  0  0  0  0  0  0  0  0
   -2.7430   23.1720  -30.3510 O   0  0  0  0  0  0  0  0  0  0  0  0
   -5.7870   21.9050  -31.8580 C   0  0  0  0  0  0  0  0  0  0  0  0
   -5.5160   20.6450  -32.4050 C   0  0  0  0  0  0  0  0  0  0  0  0
   -5.9330   18.1796  -30.6534 H   0  0  0  0  0  0  0  0  0  0  0  0
   -7.0911   16.8160  -30.8153 H   0  0  0  0  0  0  0  0  0  0  0  0
   -5.3232   16.4978  -30.8153 H   0  0  0  0  0  0  0  0  0  0  0  0
   -5.9078   16.3802  -35.7136 H   0  0  0  0  0  0  0  0  0  0  0  0
   -6.4870   18.9070  -35.4070 H   0  0  0  0  0  0  0  0  0  0  0  0
   -8.7740   19.5909  -32.7451 H   0  0  0  0  0  0  0  0  0  0  0  0
   -9.1981   21.8554  -31.7334 H   0  0  0  0  0  0  0  0  0  0  0  0
   -7.8743   24.1734  -30.7129 H   0  0  0  0  0  0  0  0  0  0  0  0
   -3.0140   25.2890  -30.4350 H   0  0  0  0  0  0  0  0  0  0  0  0
   -4.4800   20.3111  -32.5638 H   0  0  0  0  0  0  0  0  0  0  0  0
  1  2  1  0
  2  3  1  0
  3  4  1  0
  4  5  2  0
  4  6  1  0
  3  7  2  0
  7  8  1  0
  8  9  2  0
  9 10  1  0
 10 11  2  0
 11 12  1  0
 12 13  2  0
 13 14  1  0
 14 15  2  0
 15 16  1  0
 16 17  1  0
 16 18  2  0
 15 19  1  0
 19 20  1  0
 20 21  2  0
 20 22  1  0
 19 23  1  0
 23 24  2  0
  9  2  1  0
 24 10  1  0
 23 13  1  0
  1 25  1  0
  1 26  1  0
  1 27  1  0
  7 28  1  0
  8 29  1  0
 11 30  1  0
 12 31  1  0
 14 32  1  0
 17 33  1  0
 24 34  1  0
M  CHG  4   6  -1   8   1  17  -1  22  -1
M  END
>  <UniqueID>  (47) 
47

>  <SMILES>  (47) 
Cn1c(C(=O)[O-])c[nH+]c1-c1ccc2cc(C([NH-])=O)n(C(=O)[O-])c2c1

>  <Energy>  (47) 
113.33447780030042

>  <Genealogy>  (47) 
Cn1c(C(=O)[O-])c[nH+]c1-c1ccc2cc(C([NH-])=O)n(C(=O)[O-])c2c1 (protonated)
Cn1c(C(=O)[O-])c[nH+]c1-c1ccc2cc(C([NH-])=O)n(C(=O)[O-])c2c1 (3D coordinates assigned)
Cn1c(C(=O)[O-])c[nH+]c1-c1ccc2cc(C([NH-])=O)n(C(=O)[O-])c2c1 (optimized conformer: 113.33447780030042 kcal/mol)

>  <smiles>  (47) 
Cn1c(C(=O)O)cnc1-c1ccc2cc(C(N)=O)n(C(=O)O)c2c1

>  <score_type>  (47) 
oracle

>  <origin>  (47) 
adg

>  <m_score__min__energy>  (47) 
-10.43

>  <m_primary>  (47) 
energy

$$$$
47:0
     RDKit          3D

 38 39  0  0  0  0  0  0  0  0999 V2000
   -0.8640   26.8550  -27.7890 C   0  0  0  0  0  0  0  0  0  0  0  0
   -1.4960   26.0580  -28.7840 O   0  0  0  0  0  0  0  0  0  0  0  0
   -1.6480   24.6750  -28.6550 C   0  0  0  0  0  0  0  0  0  0  0  0
   -2.7280   24.1820  -28.2270 O   0  0  0  0  0  0  0  0  0  0  0  0
   -0.5330   23.7730  -29.0660 C   0  0  0  0  0  0  0  0  0  0  0  0
   -1.0690   22.5230  -29.4830 O   0  0  0  0  0  0  0  0  0  0  0  0
   -1.8350   22.3790  -30.6420 C   0  0  0  0  0  0  0  0  0  0  0  0
   -1.2800   22.0840  -31.7380 O   0  0  0  0  0  0  0  0  0  0  0  0
   -3.2520   22.5820  -30.5710 N   0  0  0  0  0  0  0  0  0  0  0  0
   -4.1410   22.4770  -31.6950 C   0  0  0  0  0  0  0  0  0  0  0  0
   -3.7220   22.0480  -32.8050 O   0  0  0  0  0  0  0  0  0  0  0  0
   -5.5170   22.8640  -31.5580 N   0  0  0  0  0  0  0  0  0  0  0  0
   -6.0100   24.0600  -31.1290 C   0  0  0  0  0  0  0  0  0  0  0  0
   -5.2110   25.2660  -30.8260 C   0  0  0  0  0  0  0  0  0  0  0  0
   -3.8360   25.1350  -30.4710 N   0  0  0  0  0  0  0  0  0  0  0  0
   -5.7360   26.4100  -30.8500 O   0  0  0  0  0  0  0  0  0  0  0  0
   -7.4020   24.0210  -31.0730 C   0  0  0  0  0  0  0  0  0  0  0  0
   -7.7500   22.7550  -31.4860 C   0  0  0  0  0  0  0  0  0  0  0  0
   -9.0040   22.1620  -31.5980 C   0  0  0  0  0  0  0  0  0  0  0  0
   -9.0630   20.8200  -32.0120 C   0  0  0  0  0  0  0  0  0  0  0  0
   -7.8770   20.1030  -32.3080 C   0  0  0  0  0  0  0  0  0  0  0  0
   -7.9470   18.6570  -32.6950 C   0  0  0  0  0  0  0  0  0  0  0  0
   -6.6210   20.7330  -32.1660 C   0  0  0  0  0  0  0  0  0  0  0  0
   -6.5940   22.0760  -31.7720 C   0  0  0  0  0  0  0  0  0  0  0  0
   -1.1517   26.4921  -26.7912 H   0  0  0  0  0  0  0  0  0  0  0  0
    0.2279   26.7864  -27.9033 H   0  0  0  0  0  0  0  0  0  0  0  0
   -1.1796   27.9025  -27.9033 H   0  0  0  0  0  0  0  0  0  0  0  0
    0.0222   24.2307  -29.8980 H   0  0  0  0  0  0  0  0  0  0  0  0
    0.1473   23.6171  -28.2158 H   0  0  0  0  0  0  0  0  0  0  0  0
   -3.6590   22.8270  -29.6410 H   0  0  0  0  0  0  0  0  0  0  0  0
   -3.4370   25.6660  -29.6650 H   0  0  0  0  0  0  0  0  0  0  0  0
   -8.0793   24.8308  -30.7641 H   0  0  0  0  0  0  0  0  0  0  0  0
   -9.9205   22.7259  -31.3697 H   0  0  0  0  0  0  0  0  0  0  0  0
  -10.0390   20.3216  -32.1071 H   0  0  0  0  0  0  0  0  0  0  0  0
   -7.9771   18.0357  -31.7878 H   0  0  0  0  0  0  0  0  0  0  0  0
   -8.8547   18.4804  -33.2906 H   0  0  0  0  0  0  0  0  0  0  0  0
   -7.0606   18.3935  -33.2906 H   0  0  0  0  0  0  0  0  0  0  0  0
   -5.6884   20.1828  -32.3599 H   0  0  0  0  0  0  0  0  0  0  0  0
  1  2  1  0
  2  3  1  0
  3  4  2  0
  3  5  1  0
  5  6  1  0
  6  7  1  0
  7  8  2  0
  7  9  1  0
  9 10  1  0
 10 11  2  0
 10 12  1  0
 12 13  1  0
 13 14  1  0
 14 15  1  0
 14 16  2  0
 13 17  2  0
 17 18  1  0
 18 19  2  0
 19 20  1  0
 20 21  2  0
 21 22  1  0
 21 23  1  0
 23 24  2  0
 24 12  1  0
 24 18  1  0
  1 25  1  0
  1 26  1  0
  1 27  1  0
  5 28  1  0
  5 29  1  0
  9 30  1  0
 15 31  1  0
 17 32  1  0
 19 33  1  0
 20 34  1  0
 22 35  1  0
 22 36  1  0
 22 37  1  0
 23 38  1  0
M  CHG  1  15  -1
M  END
>  <UniqueID>  (48) 
48

>  <SMILES>  (48) 
COC(=O)COC(=O)NC(=O)n1c(C([NH-])=O)cc2ccc(C)cc21

>  <Energy>  (48) 
70.75742895925603

>  <Genealogy>  (48) 
COC(=O)COC(=O)NC(=O)n1c(C([NH-])=O)cc2ccc(C)cc21 (protonated)
COC(=O)COC(=O)NC(=O)n1c(C([NH-])=O)cc2ccc(C)cc21 (3D coordinates assigned)
COC(=O)COC(=O)NC(=O)n1c(C([NH-])=O)cc2ccc(C)cc21 (optimized conformer: 70.75742895925603 kcal/mol)

>  <smiles>  (48) 
COC(=O)COC(=O)NC(=O)n1c(C(N)=O)cc2ccc(C)cc21

>  <score_type>  (48) 
oracle

>  <origin>  (48) 
adg

>  <m_score__min__energy>  (48) 
-10.02

>  <m_primary>  (48) 
energy

$$$$
48:0
     RDKit          3D

 38 40  0  0  0  0  0  0  0  0999 V2000
   -1.3560   21.0800  -26.8990 C   0  0  0  0  0  0  0  0  0  0  0  0
   -1.4000   22.1710  -27.9170 C   0  0  0  0  0  0  0  0  0  0  0  0
   -1.0420   23.4140  -27.6970 O   0  0  0  0  0  0  0  0  0  0  0  0
   -1.2240   24.0480  -28.8330 C   0  0  0  0  0  0  0  0  0  0  0  0
   -0.9800   25.2720  -28.9960 O   0  0  0  0  0  0  0  0  0  0  0  0
   -1.6870   23.2640  -29.7800 O   0  0  0  0  0  0  0  0  0  0  0  0
   -1.8070   22.0760  -29.2360 C   0  0  0  0  0  0  0  0  0  0  0  0
   -2.3050   20.8630  -29.9600 C   0  0  0  0  0  0  0  0  0  0  0  0
   -3.6270   21.0900  -30.4390 O   0  0  0  0  0  0  0  0  0  0  0  0
   -3.9730   22.1740  -31.2530 C   0  0  0  0  0  0  0  0  0  0  0  0
   -3.0960   22.7480  -31.9550 O   0  0  0  0  0  0  0  0  0  0  0  0
   -5.3310   22.6400  -31.2810 N   0  0  0  0  0  0  0  0  0  0  0  0
   -5.8040   23.8530  -30.8820 C   0  0  0  0  0  0  0  0  0  0  0  0
   -4.9820   25.0120  -30.4790 C   0  0  0  0  0  0  0  0  0  0  0  0
   -3.6250   24.8500  -30.0630 N   0  0  0  0  0  0  0  0  0  0  0  0
   -5.4690   26.1710  -30.5510 O   0  0  0  0  0  0  0  0  0  0  0  0
   -7.1950   23.8830  -30.9410 C   0  0  0  0  0  0  0  0  0  0  0  0
   -7.5640   22.6400  -31.4040 C   0  0  0  0  0  0  0  0  0  0  0  0
   -8.8320   22.1120  -31.6340 C   0  0  0  0  0  0  0  0  0  0  0  0
   -8.9210   20.7790  -32.0680 C   0  0  0  0  0  0  0  0  0  0  0  0
   -7.7520   20.0000  -32.2540 C   0  0  0  0  0  0  0  0  0  0  0  0
   -7.8510   18.5680  -32.6960 C   0  0  0  0  0  0  0  0  0  0  0  0
   -6.8800   18.3040  -33.6450 F   0  0  0  0  0  0  0  0  0  0  0  0
   -7.6660   17.7320  -31.6090 F   0  0  0  0  0  0  0  0  0  0  0  0
   -6.4830   20.5690  -32.0070 C   0  0  0  0  0  0  0  0  0  0  0  0
   -6.4220   21.9070  -31.5990 C   0  0  0  0  0  0  0  0  0  0  0  0
   -1.3737   21.5187  -25.8904 H   0  0  0  0  0  0  0  0  0  0  0  0
   -2.2284   20.4225  -27.0282 H   0  0  0  0  0  0  0  0  0  0  0  0
   -0.4335   20.4949  -27.0282 H   0  0  0  0  0  0  0  0  0  0  0  0
   -1.6413   20.6483  -30.8105 H   0  0  0  0  0  0  0  0  0  0  0  0
   -2.3135   20.0078  -29.2682 H   0  0  0  0  0  0  0  0  0  0  0  0
   -3.1380   23.9310  -30.1580 H   0  0  0  0  0  0  0  0  0  0  0  0
   -3.0730   25.6760  -29.7430 H   0  0  0  0  0  0  0  0  0  0  0  0
   -7.8570   24.7202  -30.6748 H   0  0  0  0  0  0  0  0  0  0  0  0
   -9.7358   22.7200  -31.4806 H   0  0  0  0  0  0  0  0  0  0  0  0
   -9.9080   20.3354  -32.2655 H   0  0  0  0  0  0  0  0  0  0  0  0
   -8.8463   18.3931  -33.1306 H   0  0  0  0  0  0  0  0  0  0  0  0
   -5.5653   19.9756  -32.1321 H   0  0  0  0  0  0  0  0  0  0  0  0
  1  2  1  0
  2  3  1  0
  3  4  1  0
  4  5  2  0
  4  6  1  0
  6  7  1  0
  7  8  1  0
  8  9  1  0
  9 10  1  0
 10 11  2  0
 10 12  1  0
 12 13  1  0
 13 14  1  0
 14 15  1  0
 14 16  2  0
 13 17  2  0
 17 18  1  0
 18 19  2  0
 19 20  1  0
 20 21  2  0
 21 22  1  0
 22 23  1  0
 22 24  1  0
 21 25  1  0
 25 26  2  0
  7  2  2  0
 26 12  1  0
 26 18  1  0
  1 27  1  0
  1 28  1  0
  1 29  1  0
  8 30  1  0
  8 31  1  0
 15 32  1  0
 15 33  1  0
 17 34  1  0
 19 35  1  0
 20 36  1  0
 22 37  1  0
 25 38  1  0
M  END
>  <UniqueID>  (49) 
49

>  <SMILES>  (49) 
Cc1oc(=O)oc1COC(=O)n1c(C(N)=O)cc2ccc(C(F)F)cc21

>  <Energy>  (49) 
108.55824727225207

>  <Genealogy>  (49) 
Cc1oc(=O)oc1COC(=O)n1c(C(N)=O)cc2ccc(C(F)F)cc21 (3D coordinates assigned)
Cc1oc(=O)oc1COC(=O)n1c(C(N)=O)cc2ccc(C(F)F)cc21 (optimized conformer: 108.55824727225207 kcal/mol)

>  <smiles>  (49) 
Cc1oc(=O)oc1COC(=O)n1c(C(N)=O)cc2ccc(C(F)F)cc21

>  <score_type>  (49) 
oracle

>  <origin>  (49) 
adg

>  <m_score__min__energy>  (49) 
-8.6099999999999994

>  <m_primary>  (49) 
energy

$$$$
49:0
     RDKit          3D

 38 39  0  0  0  0  0  0  0  0999 V2000
   -1.5580   21.1900  -33.4430 C   0  0  0  0  0  0  0  0  0  0  0  0
   -2.8780   21.1140  -33.2790 C   0  0  0  0  0  0  0  0  0  0  0  0
   -3.5770   19.7890  -33.4400 C   0  0  0  0  0  0  0  0  0  0  0  0
   -3.5700   22.2900  -32.9540 O   0  0  0  0  0  0  0  0  0  0  0  0
   -4.0120   22.6640  -31.6770 C   0  0  0  0  0  0  0  0  0  0  0  0
   -3.2250   22.6630  -30.6920 O   0  0  0  0  0  0  0  0  0  0  0  0
   -5.3870   23.0320  -31.4850 N   0  0  0  0  0  0  0  0  0  0  0  0
   -5.8740   24.1680  -30.9110 C   0  0  0  0  0  0  0  0  0  0  0  0
   -5.0830   25.3500  -30.5160 C   0  0  0  0  0  0  0  0  0  0  0  0
   -3.6590   25.2970  -30.4710 N   0  0  0  0  0  0  0  0  0  0  0  0
   -5.6670   26.4370  -30.2610 O   0  0  0  0  0  0  0  0  0  0  0  0
   -7.2630   24.1080  -30.8140 C   0  0  0  0  0  0  0  0  0  0  0  0
   -7.6160   22.8940  -31.3590 C   0  0  0  0  0  0  0  0  0  0  0  0
   -8.8680   22.3090  -31.5070 C   0  0  0  0  0  0  0  0  0  0  0  0
   -8.9320   21.0270  -32.0760 C   0  0  0  0  0  0  0  0  0  0  0  0
   -7.7560   20.3500  -32.4840 C   0  0  0  0  0  0  0  0  0  0  0  0
   -7.8760   19.0280  -33.0480 N   0  0  0  0  0  0  0  0  0  0  0  0
   -6.9190   17.9370  -32.8530 C   0  0  0  0  0  0  0  0  0  0  0  0
   -6.1550   17.6380  -34.1460 C   0  0  0  0  0  0  0  0  0  0  0  0
   -6.0960   18.7660  -34.9740 O   0  0  0  0  0  0  0  0  0  0  0  0
   -6.4980   20.9760  -32.3030 C   0  0  0  0  0  0  0  0  0  0  0  0
   -6.4650   22.2630  -31.7540 C   0  0  0  0  0  0  0  0  0  0  0  0
   -1.0440   22.1555  -33.3263 H   0  0  0  0  0  0  0  0  0  0  0  0
   -0.9822   20.2873  -33.6951 H   0  0  0  0  0  0  0  0  0  0  0  0
   -3.7988   19.3685  -32.4480 H   0  0  0  0  0  0  0  0  0  0  0  0
   -4.5156   19.9346  -33.9948 H   0  0  0  0  0  0  0  0  0  0  0  0
   -2.9269   19.0965  -33.9948 H   0  0  0  0  0  0  0  0  0  0  0  0
   -3.1180   24.7680  -31.1900 H   0  0  0  0  0  0  0  0  0  0  0  0
   -7.9350   24.8695  -30.3914 H   0  0  0  0  0  0  0  0  0  0  0  0
   -9.7805   22.8341  -31.1882 H   0  0  0  0  0  0  0  0  0  0  0  0
   -9.9100   20.5408  -32.2070 H   0  0  0  0  0  0  0  0  0  0  0  0
   -8.6940   18.8310  -33.6690 H   0  0  0  0  0  0  0  0  0  0  0  0
   -6.2018   18.2236  -32.0697 H   0  0  0  0  0  0  0  0  0  0  0  0
   -7.4732   17.0340  -32.5572 H   0  0  0  0  0  0  0  0  0  0  0  0
   -5.1312   17.3250  -33.8932 H   0  0  0  0  0  0  0  0  0  0  0  0
   -6.6841   16.8385  -34.6852 H   0  0  0  0  0  0  0  0  0  0  0  0
   -7.0010   19.1740  -34.9630 H   0  0  0  0  0  0  0  0  0  0  0  0
   -5.5680   20.4620  -32.5876 H   0  0  0  0  0  0  0  0  0  0  0  0
  1  2  2  0
  2  3  1  0
  2  4  1  0
  4  5  1  0
  5  6  2  0
  5  7  1  0
  7  8  1  0
  8  9  1  0
  9 10  1  0
  9 11  2  0
  8 12  2  0
 12 13  1  0
 13 14  2  0
 14 15  1  0
 15 16  2  0
 16 17  1  0
 17 18  1  0
 18 19  1  0
 19 20  1  0
 16 21  1  0
 21 22  2  0
 22  7  1  0
 22 13  1  0
  1 23  1  0
  1 24  1  0
  3 25  1  0
  3 26  1  0
  3 27  1  0
 10 28  1  0
 12 29  1  0
 14 30  1  0
 15 31  1  0
 17 32  1  0
 18 33  1  0
 18 34  1  0
 19 35  1  0
 19 36  1  0
 20 37  1  0
 21 38  1  0
M  CHG  1  10  -1
M  END
>  <UniqueID>  (50) 
50

>  <SMILES>  (50) 
C=C(C)OC(=O)n1c(C([NH-])=O)cc2ccc(NCCO)cc21

>  <Energy>  (50) 
76.13824146425183

>  <Genealogy>  (50) 
C=C(C)OC(=O)n1c(C([NH-])=O)cc2ccc(NCCO)cc21 (protonated)
C=C(C)OC(=O)n1c(C([NH-])=O)cc2ccc(NCCO)cc21 (3D coordinates assigned)
C=C(C)OC(=O)n1c(C([NH-])=O)cc2ccc(NCCO)cc21 (optimized conformer: 76.13824146425183 kcal/mol)

>  <smiles>  (50) 
C=C(C)OC(=O)n1c(C(N)=O)cc2ccc(NCCO)cc21

>  <score_type>  (50) 
oracle

>  <origin>  (50) 
adg

>  <m_score__min__energy>  (50) 
-9.9399999999999995

>  <m_primary>  (50) 
energy

$$$$
50:0
     RDKit          3D

 49 50  0  0  0  0  0  0  0  0999 V2000
   -2.9210   20.8180  -29.0300 C   0  0  0  0  0  0  0  0  0  0  0  0
   -2.5260   21.9070  -29.9280 N   0  0  0  0  0  0  0  0  0  0  0  0
   -1.3250   22.6570  -29.6450 C   0  0  0  0  0  0  0  0  0  0  0  0
   -0.2650   22.0480  -29.3320 O   0  0  0  0  0  0  0  0  0  0  0  0
   -1.3390   24.0570  -29.7210 O   0  0  0  0  0  0  0  0  0  0  0  0
   -0.9920   24.9280  -28.6800 C   0  0  0  0  0  0  0  0  0  0  0  0
   -1.2190   26.1660  -28.7590 O   0  0  0  0  0  0  0  0  0  0  0  0
   -0.3290   24.3690  -27.4470 C   0  0  0  0  0  0  0  0  0  0  0  0
   -1.2840   23.9720  -26.3720 N   0  0  0  0  0  0  0  0  0  0  0  0
   -0.9080   24.5850  -25.0750 C   0  0  0  0  0  0  0  0  0  0  0  0
   -1.2360   22.4980  -26.2270 C   0  0  0  0  0  0  0  0  0  0  0  0
   -2.6700   24.3630  -26.7230 C   0  0  0  0  0  0  0  0  0  0  0  0
   -3.2500   22.0960  -31.1640 C   0  0  0  0  0  0  0  0  0  0  0  0
   -2.6370   22.0280  -32.2640 O   0  0  0  0  0  0  0  0  0  0  0  0
   -4.6680   22.3300  -31.1670 N   0  0  0  0  0  0  0  0  0  0  0  0
   -5.3350   23.4070  -30.6650 C   0  0  0  0  0  0  0  0  0  0  0  0
   -4.7280   24.5280  -29.9160 C   0  0  0  0  0  0  0  0  0  0  0  0
   -3.6700   25.2810  -30.5020 N   0  0  0  0  0  0  0  0  0  0  0  0
   -5.1530   24.8450  -28.7750 O   0  0  0  0  0  0  0  0  0  0  0  0
   -6.7060   23.2730  -30.8770 C   0  0  0  0  0  0  0  0  0  0  0  0
   -6.8580   22.0720  -31.5320 C   0  0  0  0  0  0  0  0  0  0  0  0
   -8.0130   21.4260  -31.9630 C   0  0  0  0  0  0  0  0  0  0  0  0
   -7.8720   20.1830  -32.6030 C   0  0  0  0  0  0  0  0  0  0  0  0
   -6.5870   19.6200  -32.8220 C   0  0  0  0  0  0  0  0  0  0  0  0
   -6.4490   18.2640  -33.4640 C   0  0  0  0  0  0  0  0  0  0  0  0
   -7.6250   17.5440  -33.3510 F   0  0  0  0  0  0  0  0  0  0  0  0
   -5.4330   17.5660  -32.8380 F   0  0  0  0  0  0  0  0  0  0  0  0
   -6.1460   18.3910  -34.8090 F   0  0  0  0  0  0  0  0  0  0  0  0
   -5.4410   20.2990  -32.3500 C   0  0  0  0  0  0  0  0  0  0  0  0
   -5.6130   21.5270  -31.7030 C   0  0  0  0  0  0  0  0  0  0  0  0
   -2.8032   21.1429  -27.9857 H   0  0  0  0  0  0  0  0  0  0  0  0
   -3.9725   20.5532  -29.2152 H   0  0  0  0  0  0  0  0  0  0  0  0
   -2.2838   19.9407  -29.2152 H   0  0  0  0  0  0  0  0  0  0  0  0
    0.2519   23.4816  -27.7387 H   0  0  0  0  0  0  0  0  0  0  0  0
    0.3009   25.1702  -27.0333 H   0  0  0  0  0  0  0  0  0  0  0  0
   -1.2893   23.9634  -24.2514 H   0  0  0  0  0  0  0  0  0  0  0  0
    0.1877   24.6535  -25.0058 H   0  0  0  0  0  0  0  0  0  0  0  0
   -1.3435   25.5927  -25.0058 H   0  0  0  0  0  0  0  0  0  0  0  0
   -1.2274   22.2347  -25.1590 H   0  0  0  0  0  0  0  0  0  0  0  0
   -2.1201   22.0533  -26.7072 H   0  0  0  0  0  0  0  0  0  0  0  0
   -0.3248   22.1118  -26.7072 H   0  0  0  0  0  0  0  0  0  0  0  0
   -3.2492   24.5264  -25.8022 H   0  0  0  0  0  0  0  0  0  0  0  0
   -2.6508   25.2908  -27.3136 H   0  0  0  0  0  0  0  0  0  0  0  0
   -3.1385   23.5620  -27.3136 H   0  0  0  0  0  0  0  0  0  0  0  0
   -2.7200   25.2970  -30.0690 H   0  0  0  0  0  0  0  0  0  0  0  0
   -7.4982   23.9774  -30.5833 H   0  0  0  0  0  0  0  0  0  0  0  0
   -9.0053   21.8745  -31.8075 H   0  0  0  0  0  0  0  0  0  0  0  0
   -8.7677   19.6397  -32.9383 H   0  0  0  0  0  0  0  0  0  0  0  0
   -4.4369   19.8716  -32.4883 H   0  0  0  0  0  0  0  0  0  0  0  0
  1  2  1  0
  2  3  1  0
  3  4  2  0
  3  5  1  0
  5  6  1  0
  6  7  2  0
  6  8  1  0
  8  9  1  0
  9 10  1  0
  9 11  1  0
  9 12  1  0
  2 13  1  0
 13 14  2  0
 13 15  1  0
 15 16  1  0
 16 17  1  0
 17 18  1  0
 17 19  2  0
 16 20  2  0
 20 21  1  0
 21 22  2  0
 22 23  1  0
 23 24  2  0
 24 25  1  0
 25 26  1  0
 25 27  1  0
 25 28  1  0
 24 29  1  0
 29 30  2  0
 30 15  1  0
 30 21  1  0
  1 31  1  0
  1 32  1  0
  1 33  1  0
  8 34  1  0
  8 35  1  0
 10 36  1  0
 10 37  1  0
 10 38  1  0
 11 39  1  0
 11 40  1  0
 11 41  1  0
 12 42  1  0
 12 43  1  0
 12 44  1  0
 18 45  1  0
 20 46  1  0
 22 47  1  0
 23 48  1  0
 29 49  1  0
M  CHG  2   9   1  18  -1
M  END
>  <UniqueID>  (51) 
51

>  <SMILES>  (51) 
CN(C(=O)OC(=O)C[N+](C)(C)C)C(=O)n1c(C([NH-])=O)cc2ccc(C(F)(F)F)cc21

>  <Energy>  (51) 
91.19049899775305

>  <Genealogy>  (51) 
CN(C(=O)OC(=O)C[N+](C)(C)C)C(=O)n1c(C([NH-])=O)cc2ccc(C(F)(F)F)cc21 (protonated)
CN(C(=O)OC(=O)C[N+](C)(C)C)C(=O)n1c(C([NH-])=O)cc2ccc(C(F)(F)F)cc21 (3D coordinates assigned)
CN(C(=O)OC(=O)C[N+](C)(C)C)C(=O)n1c(C([NH-])=O)cc2ccc(C(F)(F)F)cc21 (optimized conformer: 91.19049899775305 kcal/mol)

>  <smiles>  (51) 
CN(C(=O)OC(=O)C[N+](C)(C)C)C(=O)n1c(C(N)=O)cc2ccc(C(F)(F)F)cc21

>  <score_type>  (51) 
oracle

>  <origin>  (51) 
adg

>  <m_score__min__energy>  (51) 
-9.8200000000000003

>  <m_primary>  (51) 
energy

$$$$
51:0
     RDKit          3D

 38 39  0  0  0  0  0  0  0  0999 V2000
   -7.3820   18.5130  -33.0720 C   0  0  0  0  0  0  0  0  0  0  0  0
   -7.4300   19.9080  -32.5240 C   0  0  0  0  0  0  0  0  0  0  0  0
   -8.6720   20.4860  -32.1600 C   0  0  0  0  0  0  0  0  0  0  0  0
   -8.7260   21.7740  -31.6030 C   0  0  0  0  0  0  0  0  0  0  0  0
   -7.5260   22.4550  -31.4170 C   0  0  0  0  0  0  0  0  0  0  0  0
   -7.2870   23.6980  -30.8750 C   0  0  0  0  0  0  0  0  0  0  0  0
   -5.9040   23.8600  -30.9210 C   0  0  0  0  0  0  0  0  0  0  0  0
   -5.2130   25.1030  -30.5140 C   0  0  0  0  0  0  0  0  0  0  0  0
   -3.8700   25.3580  -30.9110 N   0  0  0  0  0  0  0  0  0  0  0  0
   -5.8340   25.9690  -29.8410 O   0  0  0  0  0  0  0  0  0  0  0  0
   -5.3120   22.7580  -31.4600 N   0  0  0  0  0  0  0  0  0  0  0  0
   -3.9070   22.4910  -31.6020 C   0  0  0  0  0  0  0  0  0  0  0  0
   -3.4320   22.2640  -32.7470 O   0  0  0  0  0  0  0  0  0  0  0  0
   -3.0640   22.4540  -30.4390 N   0  0  0  0  0  0  0  0  0  0  0  0
   -1.6400   22.2450  -30.4850 C   0  0  0  0  0  0  0  0  0  0  0  0
   -1.0990   21.8610  -31.5580 O   0  0  0  0  0  0  0  0  0  0  0  0
   -0.8180   22.4570  -29.3160 N   0  0  0  0  0  0  0  0  0  0  0  0
   -0.3730   21.2950  -28.5390 C   0  0  0  0  0  0  0  0  0  0  0  0
   -0.4000   23.8040  -28.9030 C   0  0  0  0  0  0  0  0  0  0  0  0
   -1.5950   24.6870  -28.7140 C   0  0  0  0  0  0  0  0  0  0  0  0
   -2.7000   24.1900  -28.3720 O   0  0  0  0  0  0  0  0  0  0  0  0
   -1.4990   26.0520  -28.9530 O   0  0  0  0  0  0  0  0  0  0  0  0
   -6.3170   21.9090  -31.7630 C   0  0  0  0  0  0  0  0  0  0  0  0
   -6.2320   20.6220  -32.3050 C   0  0  0  0  0  0  0  0  0  0  0  0
   -7.3572   17.7931  -32.2406 H   0  0  0  0  0  0  0  0  0  0  0  0
   -8.2744   18.3304  -33.6887 H   0  0  0  0  0  0  0  0  0  0  0  0
   -6.4792   18.3922  -33.6887 H   0  0  0  0  0  0  0  0  0  0  0  0
   -9.6025   19.9202  -32.3153 H   0  0  0  0  0  0  0  0  0  0  0  0
   -9.6866   22.2307  -31.3224 H   0  0  0  0  0  0  0  0  0  0  0  0
   -8.0298   24.4112  -30.4881 H   0  0  0  0  0  0  0  0  0  0  0  0
   -3.0850   25.2910  -30.2260 H   0  0  0  0  0  0  0  0  0  0  0  0
   -3.5330   22.5650  -29.5150 H   0  0  0  0  0  0  0  0  0  0  0  0
   -0.4582   21.5175  -27.4651 H   0  0  0  0  0  0  0  0  0  0  0  0
   -1.0023   20.4269  -28.7846 H   0  0  0  0  0  0  0  0  0  0  0  0
    0.6752   21.0693  -28.7846 H   0  0  0  0  0  0  0  0  0  0  0  0
    0.1544   23.7367  -27.9553 H   0  0  0  0  0  0  0  0  0  0  0  0
    0.2411   24.2344  -29.6865 H   0  0  0  0  0  0  0  0  0  0  0  0
   -5.2569   20.1779  -32.5541 H   0  0  0  0  0  0  0  0  0  0  0  0
  1  2  1  0
  2  3  2  0
  3  4  1  0
  4  5  2  0
  5  6  1  0
  6  7  2  0
  7  8  1  0
  8  9  1  0
  8 10  2  0
  7 11  1  0
 11 12  1  0
 12 13  2  0
 12 14  1  0
 14 15  1  0
 15 16  2  0
 15 17  1  0
 17 18  1  0
 17 19  1  0
 19 20  1  0
 20 21  2  0
 20 22  1  0
 11 23  1  0
 23 24  2  0
 24  2  1  0
 23  5  1  0
  1 25  1  0
  1 26  1  0
  1 27  1  0
  3 28  1  0
  4 29  1  0
  6 30  1  0
  9 31  1  0
 14 32  1  0
 18 33  1  0
 18 34  1  0
 18 35  1  0
 19 36  1  0
 19 37  1  0
 24 38  1  0
M  CHG  2   9  -1  22  -1
M  END
>  <UniqueID>  (52) 
52

>  <SMILES>  (52) 
Cc1ccc2cc(C([NH-])=O)n(C(=O)NC(=O)N(C)CC(=O)[O-])c2c1

>  <Energy>  (52) 
74.79966261734222

>  <Genealogy>  (52) 
Cc1ccc2cc(C([NH-])=O)n(C(=O)NC(=O)N(C)CC(=O)[O-])c2c1 (protonated)
Cc1ccc2cc(C([NH-])=O)n(C(=O)NC(=O)N(C)CC(=O)[O-])c2c1 (3D coordinates assigned)
Cc1ccc2cc(C([NH-])=O)n(C(=O)NC(=O)N(C)CC(=O)[O-])c2c1 (optimized conformer: 74.79966261734222 kcal/mol)

>  <smiles>  (52) 
Cc1ccc2cc(C(N)=O)n(C(=O)NC(=O)N(C)CC(=O)O)c2c1

>  <score_type>  (52) 
oracle

>  <origin>  (52) 
adg

>  <m_score__min__energy>  (52) 
-12.35

>  <m_primary>  (52) 
energy

$$$$
52:0
     RDKit          3D

 36 37  0  0  0  0  0  0  0  0999 V2000
   -7.3260   18.4170  -32.9050 C   0  0  0  0  0  0  0  0  0  0  0  0
   -7.4520   19.8390  -32.4450 C   0  0  0  0  0  0  0  0  0  0  0  0
   -8.7230   20.4640  -32.3660 C   0  0  0  0  0  0  0  0  0  0  0  0
   -8.8400   21.7950  -31.9270 C   0  0  0  0  0  0  0  0  0  0  0  0
   -7.6740   22.4690  -31.5760 C   0  0  0  0  0  0  0  0  0  0  0  0
   -7.4980   23.7530  -31.1100 C   0  0  0  0  0  0  0  0  0  0  0  0
   -6.1230   23.8910  -30.9150 C   0  0  0  0  0  0  0  0  0  0  0  0
   -5.4610   25.1480  -30.4970 C   0  0  0  0  0  0  0  0  0  0  0  0
   -4.0410   25.2800  -30.5360 N   0  0  0  0  0  0  0  0  0  0  0  0
   -6.1480   26.1160  -30.0790 O   0  0  0  0  0  0  0  0  0  0  0  0
   -5.4800   22.7350  -31.2440 N   0  0  0  0  0  0  0  0  0  0  0  0
   -4.0770   22.4420  -31.1360 C   0  0  0  0  0  0  0  0  0  0  0  0
   -3.3900   22.3200  -32.1870 O   0  0  0  0  0  0  0  0  0  0  0  0
   -3.4510   22.2300  -29.8120 C   0  0  0  0  0  0  0  0  0  0  0  0
   -3.1050   21.0610  -29.4820 O   0  0  0  0  0  0  0  0  0  0  0  0
   -3.2010   23.3360  -28.9120 N   0  0  1  0  0  0  0  0  0  0  0  0
   -4.0590   23.2320  -27.7190 C   0  0  0  0  0  0  0  0  0  0  0  0
   -1.7980   23.3550  -28.5560 C   0  0  0  0  0  0  0  0  0  0  0  0
   -1.2490   22.3250  -28.0730 O   0  0  0  0  0  0  0  0  0  0  0  0
   -0.9630   24.5420  -28.8140 C   0  0  0  0  0  0  0  0  0  0  0  0
    0.2700   24.5290  -28.5610 O   0  0  0  0  0  0  0  0  0  0  0  0
   -1.5390   25.6940  -29.3370 O   0  0  0  0  0  0  0  0  0  0  0  0
   -6.4390   21.8790  -31.6520 C   0  0  0  0  0  0  0  0  0  0  0  0
   -6.2920   20.5540  -32.0750 C   0  0  0  0  0  0  0  0  0  0  0  0
   -7.2671   17.7525  -32.0303 H   0  0  0  0  0  0  0  0  0  0  0  0
   -8.2039   18.1485  -33.5110 H   0  0  0  0  0  0  0  0  0  0  0  0
   -6.4146   18.3071  -33.5110 H   0  0  0  0  0  0  0  0  0  0  0  0
   -9.6251   19.9026  -32.6506 H   0  0  0  0  0  0  0  0  0  0  0  0
   -9.8215   22.2875  -31.8631 H   0  0  0  0  0  0  0  0  0  0  0  0
   -8.2761   24.5093  -30.9297 H   0  0  0  0  0  0  0  0  0  0  0  0
   -3.4960   25.6700  -29.7350 H   0  0  0  0  0  0  0  0  0  0  0  0
   -3.4510   24.2410  -29.3720 H   0  0  0  0  0  0  0  0  0  0  0  0
   -3.4388   23.3072  -26.8136 H   0  0  0  0  0  0  0  0  0  0  0  0
   -4.7975   24.0472  -27.7263 H   0  0  0  0  0  0  0  0  0  0  0  0
   -4.5814   22.2640  -27.7263 H   0  0  0  0  0  0  0  0  0  0  0  0
   -5.2995   20.0817  -32.1183 H   0  0  0  0  0  0  0  0  0  0  0  0
  1  2  1  0
  2  3  2  0
  3  4  1  0
  4  5  2  0
  5  6  1  0
  6  7  2  0
  7  8  1  0
  8  9  1  0
  8 10  2  0
  7 11  1  0
 11 12  1  0
 12 13  2  0
 12 14  1  0
 14 15  2  0
 14 16  1  0
 16 17  1  0
 16 18  1  0
 18 19  2  0
 18 20  1  0
 20 21  2  0
 20 22  1  0
 11 23  1  0
 23 24  2  0
 24  2  1  0
 23  5  1  0
  1 25  1  0
  1 26  1  0
  1 27  1  0
  3 28  1  0
  4 29  1  0
  6 30  1  0
  9 31  1  0
 16 32  1  6
 17 33  1  0
 17 34  1  0
 17 35  1  0
 24 36  1  0
M  CHG  3   9  -1  16   1  22  -1
M  END
>  <UniqueID>  (53) 
53

>  <SMILES>  (53) 
Cc1ccc2cc(C([NH-])=O)n(C(=O)C(=O)[NH+](C)C(=O)C(=O)[O-])c2c1

>  <Energy>  (53) 
78.3358353447915

>  <Genealogy>  (53) 
Cc1ccc2cc(C([NH-])=O)n(C(=O)C(=O)[NH+](C)C(=O)C(=O)[O-])c2c1 (protonated)
Cc1ccc2cc(C([NH-])=O)n(C(=O)C(=O)[NH+](C)C(=O)C(=O)[O-])c2c1 (3D coordinates assigned)
Cc1ccc2cc(C([NH-])=O)n(C(=O)C(=O)[NH+](C)C(=O)C(=O)[O-])c2c1 (optimized conformer: 78.3358353447915 kcal/mol)

>  <smiles>  (53) 
Cc1ccc2cc(C(N)=O)n(C(=O)C(=O)N(C)C(=O)C(=O)O)c2c1

>  <score_type>  (53) 
oracle

>  <origin>  (53) 
adg

>  <m_score__min__energy>  (53) 
-11.42

>  <m_primary>  (53) 
energy

$$$$
53:0
     RDKit          3D

 49 50  0  0  0  0  0  0  0  0999 V2000
   -2.0640   20.8990  -27.3250 C   0  0  0  0  0  0  0  0  0  0  0  0
   -1.5670   22.2880  -27.6990 C   0  0  0  0  0  0  0  0  0  0  0  0
   -2.5410   23.0080  -29.0160 S   0  0  0  0  0  0  0  0  0  0  0  0
   -3.4450   24.0460  -28.4120 O   0  0  0  0  0  0  0  0  0  0  0  0
   -1.6370   23.6790  -30.0130 O   0  0  0  0  0  0  0  0  0  0  0  0
   -3.5610   21.7690  -29.8090 C   0  0  0  0  0  0  0  0  0  0  0  0
   -4.1310   22.2540  -31.1140 C   0  0  0  0  0  0  0  0  0  0  0  0
   -3.4070   22.2530  -32.1460 O   0  0  0  0  0  0  0  0  0  0  0  0
   -5.4920   22.7070  -31.2000 N   0  0  0  0  0  0  0  0  0  0  0  0
   -5.9880   23.9450  -30.9110 C   0  0  0  0  0  0  0  0  0  0  0  0
   -5.2140   25.1170  -30.4440 C   0  0  0  0  0  0  0  0  0  0  0  0
   -3.8680   25.3310  -30.8570 N   0  0  0  0  0  0  0  0  0  0  0  0
   -5.7530   25.9480  -29.6650 O   0  0  0  0  0  0  0  0  0  0  0  0
   -7.3700   23.9670  -31.0870 C   0  0  0  0  0  0  0  0  0  0  0  0
   -7.7070   22.7040  -31.5140 C   0  0  0  0  0  0  0  0  0  0  0  0
   -8.9470   22.1770  -31.8620 C   0  0  0  0  0  0  0  0  0  0  0  0
   -8.9980   20.8450  -32.3040 C   0  0  0  0  0  0  0  0  0  0  0  0
   -7.8100   20.0700  -32.4110 C   0  0  0  0  0  0  0  0  0  0  0  0
   -7.8320   18.7050  -32.8710 N   0  0  0  0  0  0  0  0  0  0  0  0
   -6.8450   17.6870  -32.5140 C   0  0  0  0  0  0  0  0  0  0  0  0
   -5.7270   17.5540  -33.5750 C   0  0  0  0  0  0  0  0  0  0  0  0
   -4.3990   18.0750  -33.1730 N   0  0  0  0  0  0  0  0  0  0  0  0
   -4.0550   19.3610  -33.7970 C   0  0  0  0  0  0  0  0  0  0  0  0
   -3.3100   17.0960  -33.3150 C   0  0  0  0  0  0  0  0  0  0  0  0
   -6.5720   20.6460  -32.0490 C   0  0  0  0  0  0  0  0  0  0  0  0
   -6.5570   21.9650  -31.5810 C   0  0  0  0  0  0  0  0  0  0  0  0
   -2.0979   20.8043  -26.2296 H   0  0  0  0  0  0  0  0  0  0  0  0
   -3.0723   20.7470  -27.7375 H   0  0  0  0  0  0  0  0  0  0  0  0
   -1.3810   20.1418  -27.7375 H   0  0  0  0  0  0  0  0  0  0  0  0
   -1.6280   22.9385  -26.8141 H   0  0  0  0  0  0  0  0  0  0  0  0
   -0.5288   22.1971  -28.0511 H   0  0  0  0  0  0  0  0  0  0  0  0
   -2.9489   20.8752  -29.9999 H   0  0  0  0  0  0  0  0  0  0  0  0
   -4.4014   21.5419  -29.1365 H   0  0  0  0  0  0  0  0  0  0  0  0
   -3.0810   25.2830  -30.1720 H   0  0  0  0  0  0  0  0  0  0  0  0
   -8.0488   24.8162  -30.9196 H   0  0  0  0  0  0  0  0  0  0  0  0
   -9.8605   22.7859  -31.7929 H   0  0  0  0  0  0  0  0  0  0  0  0
   -9.9665   20.3964  -32.5702 H   0  0  0  0  0  0  0  0  0  0  0  0
   -8.5990   18.4140  -33.5190 H   0  0  0  0  0  0  0  0  0  0  0  0
   -6.3881   17.9598  -31.5513 H   0  0  0  0  0  0  0  0  0  0  0  0
   -7.3664   16.7204  -32.4523 H   0  0  0  0  0  0  0  0  0  0  0  0
   -5.6134   16.4866  -33.8153 H   0  0  0  0  0  0  0  0  0  0  0  0
   -6.0467   18.1698  -34.4286 H   0  0  0  0  0  0  0  0  0  0  0  0
   -3.8555   20.1069  -33.0136 H   0  0  0  0  0  0  0  0  0  0  0  0
   -3.1584   19.2370  -34.4221 H   0  0  0  0  0  0  0  0  0  0  0  0
   -4.8937   19.7012  -34.4221 H   0  0  0  0  0  0  0  0  0  0  0  0
   -2.9642   16.7851  -32.3181 H   0  0  0  0  0  0  0  0  0  0  0  0
   -3.6763   16.2175  -33.8665 H   0  0  0  0  0  0  0  0  0  0  0  0
   -2.4754   17.5534  -33.8665 H   0  0  0  0  0  0  0  0  0  0  0  0
   -5.6388   20.0697  -32.1332 H   0  0  0  0  0  0  0  0  0  0  0  0
  1  2  1  0
  2  3  1  0
  3  4  2  0
  3  5  2  0
  3  6  1  0
  6  7  1  0
  7  8  2  0
  7  9  1  0
  9 10  1  0
 10 11  1  0
 11 12  1  0
 11 13  2  0
 10 14  2  0
 14 15  1  0
 15 16  2  0
 16 17  1  0
 17 18  2  0
 18 19  1  0
 19 20  1  0
 20 21  1  0
 21 22  1  0
 22 23  1  0
 22 24  1  0
 18 25  1  0
 25 26  2  0
 26  9  1  0
 26 15  1  0
  1 27  1  0
  1 28  1  0
  1 29  1  0
  2 30  1  0
  2 31  1  0
  6 32  1  0
  6 33  1  0
 12 34  1  0
 14 35  1  0
 16 36  1  0
 17 37  1  0
 19 38  1  0
 20 39  1  0
 20 40  1  0
 21 41  1  0
 21 42  1  0
 23 43  1  0
 23 44  1  0
 23 45  1  0
 24 46  1  0
 24 47  1  0
 24 48  1  0
 25 49  1  0
M  CHG  1  12  -1
M  END
>  <UniqueID>  (54) 
54

>  <SMILES>  (54) 
CCS(=O)(=O)CC(=O)n1c(C([NH-])=O)cc2ccc(NCCN(C)C)cc21

>  <Energy>  (54) 
81.5553290007367

>  <Genealogy>  (54) 
CCS(=O)(=O)CC(=O)n1c(C([NH-])=O)cc2ccc(NCCN(C)C)cc21 (protonated)
CCS(=O)(=O)CC(=O)n1c(C([NH-])=O)cc2ccc(NCCN(C)C)cc21 (3D coordinates assigned)
CCS(=O)(=O)CC(=O)n1c(C([NH-])=O)cc2ccc(NCCN(C)C)cc21 (optimized conformer: 81.5553290007367 kcal/mol)

>  <smiles>  (54) 
CCS(=O)(=O)CC(=O)n1c(C(N)=O)cc2ccc(NCCN(C)C)cc21

>  <score_type>  (54) 
oracle

>  <origin>  (54) 
adg

>  <m_score__min__energy>  (54) 
-10.640000000000001

>  <m_primary>  (54) 
energy

$$$$
54:0
     RDKit          3D

 45 46  0  0  0  0  0  0  0  0999 V2000
   -4.5246   23.0911  -31.3310 H   0  0  0  0  0  0  0  0  0  0  0  0
   -4.0340   22.1250  -31.5210 C   0  0  0  0  0  0  0  0  0  0  0  0
   -4.0910   21.5520  -32.8780 C   0  0  0  0  0  0  0  0  0  0  0  0
   -3.6760   22.2400  -33.8480 O   0  0  0  0  0  0  0  0  0  0  0  0
   -4.6100   20.2340  -33.1180 N   0  0  0  0  0  0  0  0  0  0  0  0
   -3.8990   19.1070  -33.3970 C   0  0  0  0  0  0  0  0  0  0  0  0
   -2.4520   19.0510  -33.6850 C   0  0  0  0  0  0  0  0  0  0  0  0
   -1.7960   18.0260  -33.3590 O   0  0  0  0  0  0  0  0  0  0  0  0
   -1.7890   20.1150  -34.3710 N   0  0  0  0  0  0  0  0  0  0  0  0
   -0.7550   20.0850  -34.5090 H   0  0  0  0  0  0  0  0  0  0  0  0
   -2.3280   20.8770  -34.8370 H   0  0  0  0  0  0  0  0  0  0  0  0
   -4.7330   17.9900  -33.3950 C   0  0  0  0  0  0  0  0  0  0  0  0
   -4.4488   16.9447  -33.5860 H   0  0  0  0  0  0  0  0  0  0  0  0
   -5.9880   18.4740  -33.1030 C   0  0  0  0  0  0  0  0  0  0  0  0
   -7.2000   17.8010  -32.9570 C   0  0  0  0  0  0  0  0  0  0  0  0
   -7.2652   16.7127  -33.1035 H   0  0  0  0  0  0  0  0  0  0  0  0
   -8.3360   18.5550  -32.6170 C   0  0  0  0  0  0  0  0  0  0  0  0
   -9.3098   18.0550  -32.5083 H   0  0  0  0  0  0  0  0  0  0  0  0
   -8.2380   19.9540  -32.4130 C   0  0  0  0  0  0  0  0  0  0  0  0
   -9.4690   20.7560  -32.0950 C   0  0  0  0  0  0  0  0  0  0  0  0
  -10.2857   20.0748  -31.8138 H   0  0  0  0  0  0  0  0  0  0  0  0
   -9.7601   21.3395  -32.9809 H   0  0  0  0  0  0  0  0  0  0  0  0
   -9.1890   21.6890  -30.9610 C   0  0  0  0  0  0  0  0  0  0  0  0
   -9.8170   21.5610  -29.8740 O   0  0  0  0  0  0  0  0  0  0  0  0
   -8.1940   22.6640  -31.1020 O   0  0  0  0  0  0  0  0  0  0  0  0
   -7.1910   22.8840  -30.1190 C   0  0  0  0  0  0  0  0  0  0  0  0
   -7.6328   22.7871  -29.1163 H   0  0  0  0  0  0  0  0  0  0  0  0
   -6.3896   22.1403  -30.2400 H   0  0  0  0  0  0  0  0  0  0  0  0
   -6.7745   23.8949  -30.2400 H   0  0  0  0  0  0  0  0  0  0  0  0
   -6.9940   20.6030  -32.5720 C   0  0  0  0  0  0  0  0  0  0  0  0
   -6.8993   21.6878  -32.4161 H   0  0  0  0  0  0  0  0  0  0  0  0
   -5.8850   19.8300  -32.9330 C   0  0  0  0  0  0  0  0  0  0  0  0
   -3.4060   21.5100  -30.5130 C   0  0  0  0  0  0  0  0  0  0  0  0
   -2.8823   20.5621  -30.7061 H   0  0  0  0  0  0  0  0  0  0  0  0
   -3.3980   22.0800  -29.1270 C   0  0  0  0  0  0  0  0  0  0  0  0
   -4.0007   21.4391  -28.4667 H   0  0  0  0  0  0  0  0  0  0  0  0
   -2.3612   22.1239  -28.7620 H   0  0  0  0  0  0  0  0  0  0  0  0
   -3.9590   23.4280  -29.1350 N   0  0  0  0  0  0  0  0  0  0  0  0
   -3.2730   24.5640  -29.6710 C   0  0  0  0  0  0  0  0  0  0  0  0
   -2.0960   24.8110  -29.2910 O   0  0  0  0  0  0  0  0  0  0  0  0
   -3.8990   25.3830  -30.6140 O   0  0  0  0  0  0  0  0  0  0  0  0
   -5.3080   25.5480  -30.6740 C   0  0  0  0  0  0  0  0  0  0  0  0
   -5.7154   25.5957  -29.6533 H   0  0  0  0  0  0  0  0  0  0  0  0
   -5.5456   26.4801  -31.2076 H   0  0  0  0  0  0  0  0  0  0  0  0
   -5.7546   24.6960  -31.2076 H   0  0  0  0  0  0  0  0  0  0  0  0
  1  2  1  0
  2  3  1  0
  3  4  2  0
  3  5  1  0
  5  6  1  0
  6  7  1  0
  7  8  2  0
  7  9  1  0
  9 10  1  0
  9 11  1  0
  6 12  2  0
 12 13  1  0
 12 14  1  0
 14 15  2  0
 15 16  1  0
 15 17  1  0
 17 18  1  0
 17 19  2  0
 19 20  1  0
 20 21  1  0
 20 22  1  0
 20 23  1  0
 23 24  2  0
 23 25  1  0
 25 26  1  0
 26 27  1  0
 26 28  1  0
 26 29  1  0
 19 30  1  0
 30 31  1  0
 30 32  2  0
  2 33  2  0
 33 34  1  0
 33 35  1  0
 35 36  1  0
 35 37  1  0
 35 38  1  0
 38 39  1  0
 39 40  2  0
 39 41  1  0
 41 42  1  0
 42 43  1  0
 42 44  1  0
 42 45  1  0
 32  5  1  0
 32 14  1  0
M  CHG  1  38  -1
M  END
>  <UniqueID>  (55) 
55

>  <SMILES>  (55) 
COC(=O)Cc1ccc2cc(C(N)=O)n(C(=O)/C=C/C[N-]C(=O)OC)c2c1

>  <Energy>  (55) 
74.11884653196576

>  <Genealogy>  (55) 
COC(=O)Cc1ccc2cc(C(N)=O)n(C(=O)/C=C/C[N-]C(=O)OC)c2c1 (protonated)
COC(=O)Cc1ccc2cc(C(N)=O)n(C(=O)/C=C/C[N-]C(=O)OC)c2c1 (cis-trans isomerization)
COC(=O)Cc1ccc2cc(C(N)=O)n(C(=O)/C=C/C[N-]C(=O)OC)c2c1 (3D coordinates assigned)
COC(=O)Cc1ccc2cc(C(N)=O)n(C(=O)/C=C/C[N-]C(=O)OC)c2c1 (optimized conformer: 74.11884653196576 kcal/mol)

>  <smiles>  (55) 
COC(=O)Cc1ccc2cc(C(N)=O)n(C(=O)/C=C/CNC(=O)OC)c2c1

>  <score_type>  (55) 
oracle

>  <origin>  (55) 
adg

>  <m_score__min__energy>  (55) 
-9.8800000000000008

>  <m_primary>  (55) 
energy

$$$$
55:0
     RDKit          3D

 35 36  0  0  0  0  0  0  0  0999 V2000
   -3.9490   22.7350  -28.4700 C   0  0  0  0  0  0  0  0  0  0  0  0
   -3.3220   23.1410  -29.5820 C   0  0  0  0  0  0  0  0  0  0  0  0
   -2.1180   24.0040  -29.4850 C   0  0  0  0  0  0  0  0  0  0  0  0
   -2.2300   25.2510  -29.3400 O   0  0  0  0  0  0  0  0  0  0  0  0
   -0.8460   23.4520  -29.5670 O   0  0  0  0  0  0  0  0  0  0  0  0
   -3.8290   22.7120  -30.9120 C   0  0  0  0  0  0  0  0  0  0  0  0
   -3.0210   22.3110  -31.7930 O   0  0  0  0  0  0  0  0  0  0  0  0
   -5.2340   22.7450  -31.2180 N   0  0  0  0  0  0  0  0  0  0  0  0
   -6.1060   23.7700  -31.0120 C   0  0  0  0  0  0  0  0  0  0  0  0
   -5.7520   25.1190  -30.5220 C   0  0  0  0  0  0  0  0  0  0  0  0
   -4.4700   25.6680  -30.8200 N   0  0  0  0  0  0  0  0  0  0  0  0
   -6.5630   25.7850  -29.8270 O   0  0  0  0  0  0  0  0  0  0  0  0
   -7.3960   23.3930  -31.3820 C   0  0  0  0  0  0  0  0  0  0  0  0
   -7.2830   22.0920  -31.8210 C   0  0  0  0  0  0  0  0  0  0  0  0
   -8.2550   21.2200  -32.2960 C   0  0  0  0  0  0  0  0  0  0  0  0
   -7.8560   19.9230  -32.6600 C   0  0  0  0  0  0  0  0  0  0  0  0
   -6.4980   19.5080  -32.5400 C   0  0  0  0  0  0  0  0  0  0  0  0
   -6.0970   18.1650  -32.9140 N   0  0  0  0  0  0  0  0  0  0  0  0
   -5.7150   17.8570  -34.2970 C   0  0  0  0  0  0  0  0  0  0  0  0
   -6.0640   17.0910  -31.9130 C   0  0  0  0  0  0  0  0  0  0  0  0
   -5.5450   20.4360  -32.0450 C   0  0  0  0  0  0  0  0  0  0  0  0
   -5.9700   21.7250  -31.7090 C   0  0  0  0  0  0  0  0  0  0  0  0
   -4.8410   22.0956  -28.5438 H   0  0  0  0  0  0  0  0  0  0  0  0
   -3.5719   23.0411  -27.4830 H   0  0  0  0  0  0  0  0  0  0  0  0
   -3.8580   26.0440  -30.0610 H   0  0  0  0  0  0  0  0  0  0  0  0
   -8.3094   24.0040  -31.3338 H   0  0  0  0  0  0  0  0  0  0  0  0
   -9.3050   21.5356  -32.3844 H   0  0  0  0  0  0  0  0  0  0  0  0
   -8.6052   19.2153  -33.0445 H   0  0  0  0  0  0  0  0  0  0  0  0
   -4.8587   17.1666  -34.2958 H   0  0  0  0  0  0  0  0  0  0  0  0
   -6.5637   17.3876  -34.8160 H   0  0  0  0  0  0  0  0  0  0  0  0
   -5.4362   18.7860  -34.8160 H   0  0  0  0  0  0  0  0  0  0  0  0
   -6.0775   17.5294  -30.9042 H   0  0  0  0  0  0  0  0  0  0  0  0
   -6.9426   16.4420  -32.0425 H   0  0  0  0  0  0  0  0  0  0  0  0
   -5.1472   16.4971  -32.0425 H   0  0  0  0  0  0  0  0  0  0  0  0
   -4.4904   20.1462  -31.9277 H   0  0  0  0  0  0  0  0  0  0  0  0
  1  2  2  0
  2  3  1  0
  3  4  2  0
  3  5  1  0
  2  6  1  0
  6  7  2  0
  6  8  1  0
  8  9  1  0
  9 10  1  0
 10 11  1  0
 10 12  2  0
  9 13  2  0
 13 14  1  0
 14 15  2  0
 15 16  1  0
 16 17  2  0
 17 18  1  0
 18 19  1  0
 18 20  1  0
 17 21  1  0
 21 22  2  0
 22  8  1  0
 22 14  1  0
  1 23  1  0
  1 24  1  0
 11 25  1  0
 13 26  1  0
 15 27  1  0
 16 28  1  0
 19 29  1  0
 19 30  1  0
 19 31  1  0
 20 32  1  0
 20 33  1  0
 20 34  1  0
 21 35  1  0
M  CHG  2   5  -1  11  -1
M  END
>  <UniqueID>  (56) 
56

>  <SMILES>  (56) 
C=C(C(=O)[O-])C(=O)n1c(C([NH-])=O)cc2ccc(N(C)C)cc21

>  <Energy>  (56) 
77.16004305203104

>  <Genealogy>  (56) 
C=C(C(=O)[O-])C(=O)n1c(C([NH-])=O)cc2ccc(N(C)C)cc21 (protonated)
C=C(C(=O)[O-])C(=O)n1c(C([NH-])=O)cc2ccc(N(C)C)cc21 (3D coordinates assigned)
C=C(C(=O)[O-])C(=O)n1c(C([NH-])=O)cc2ccc(N(C)C)cc21 (optimized conformer: 77.16004305203104 kcal/mol)

>  <smiles>  (56) 
C=C(C(=O)O)C(=O)n1c(C(N)=O)cc2ccc(N(C)C)cc21

>  <score_type>  (56) 
oracle

>  <origin>  (56) 
adg

>  <m_score__min__energy>  (56) 
-11.81

>  <m_primary>  (56) 
energy

$$$$
56:0
     RDKit          3D

 40 41  0  0  0  0  0  0  0  0999 V2000
   -7.8540   18.5830  -32.3590 C   0  0  0  0  0  0  0  0  0  0  0  0
   -7.7940   20.0350  -31.9890 C   0  0  0  0  0  0  0  0  0  0  0  0
   -8.9840   20.8050  -31.9430 C   0  0  0  0  0  0  0  0  0  0  0  0
   -8.9370   22.1770  -31.6400 C   0  0  0  0  0  0  0  0  0  0  0  0
   -7.6920   22.7490  -31.3990 C   0  0  0  0  0  0  0  0  0  0  0  0
   -7.3530   24.0510  -31.1030 C   0  0  0  0  0  0  0  0  0  0  0  0
   -5.9650   24.0520  -30.9760 C   0  0  0  0  0  0  0  0  0  0  0  0
   -5.1760   25.2390  -30.5870 C   0  0  0  0  0  0  0  0  0  0  0  0
   -3.7730   25.2730  -30.8360 N   0  0  0  0  0  0  0  0  0  0  0  0
   -5.7330   26.2360  -30.0560 O   0  0  0  0  0  0  0  0  0  0  0  0
   -5.4670   22.8030  -31.1950 N   0  0  0  0  0  0  0  0  0  0  0  0
   -4.0940   22.3850  -31.2020 C   0  0  0  0  0  0  0  0  0  0  0  0
   -3.5710   22.0000  -32.2820 O   0  0  0  0  0  0  0  0  0  0  0  0
   -3.2800   22.4560  -29.9690 C   0  0  0  0  0  0  0  0  0  0  0  0
   -3.7550   21.9760  -28.9020 O   0  0  0  0  0  0  0  0  0  0  0  0
   -1.9910   23.1230  -29.9670 N   0  0  2  0  0  0  0  0  0  0  0  0
   -0.9550   22.2740  -30.5930 C   0  0  0  0  0  0  0  0  0  0  0  0
   -1.6400   23.5990  -28.5970 C   0  0  1  0  0  0  0  0  0  0  0  0
   -0.9350   22.5390  -27.7240 C   0  0  0  0  0  0  0  0  0  0  0  0
   -0.8400   24.8790  -28.6520 C   0  0  0  0  0  0  0  0  0  0  0  0
   -1.2420   25.8680  -29.3190 O   0  0  0  0  0  0  0  0  0  0  0  0
    0.3330   24.9870  -27.9130 O   0  0  0  0  0  0  0  0  0  0  0  0
   -6.5340   22.0170  -31.4460 C   0  0  0  0  0  0  0  0  0  0  0  0
   -6.5480   20.6530  -31.7540 C   0  0  0  0  0  0  0  0  0  0  0  0
   -7.8792   17.9723  -31.4444 H   0  0  0  0  0  0  0  0  0  0  0  0
   -8.7608   18.3929  -32.9520 H   0  0  0  0  0  0  0  0  0  0  0  0
   -6.9660   18.3187  -32.9520 H   0  0  0  0  0  0  0  0  0  0  0  0
   -9.9524   20.3245  -32.1462 H   0  0  0  0  0  0  0  0  0  0  0  0
   -9.8562   22.7796  -31.5949 H   0  0  0  0  0  0  0  0  0  0  0  0
   -8.0334   24.9080  -30.9907 H   0  0  0  0  0  0  0  0  0  0  0  0
   -3.0880   25.2900  -30.0470 H   0  0  0  0  0  0  0  0  0  0  0  0
   -2.0770   23.9660  -30.5850 H   0  0  0  0  0  0  0  0  0  0  0  0
   -0.3584   21.7851  -29.8087 H   0  0  0  0  0  0  0  0  0  0  0  0
   -1.4372   21.5079  -31.2180 H   0  0  0  0  0  0  0  0  0  0  0  0
   -0.2986   22.8973  -31.2180 H   0  0  0  0  0  0  0  0  0  0  0  0
   -2.6001   23.8013  -28.0998 H   0  0  0  0  0  0  0  0  0  0  0  0
   -1.0924   22.7756  -26.6613 H   0  0  0  0  0  0  0  0  0  0  0  0
   -1.3530   21.5456  -27.9443 H   0  0  0  0  0  0  0  0  0  0  0  0
    0.1427   22.5404  -27.9443 H   0  0  0  0  0  0  0  0  0  0  0  0
   -5.6124   20.0774  -31.8115 H   0  0  0  0  0  0  0  0  0  0  0  0
  1  2  1  0
  2  3  2  0
  3  4  1  0
  4  5  2  0
  5  6  1  0
  6  7  2  0
  7  8  1  0
  8  9  1  0
  8 10  2  0
  7 11  1  0
 11 12  1  0
 12 13  2  0
 12 14  1  0
 14 15  2  0
 14 16  1  0
 16 17  1  0
 16 18  1  0
 18 19  1  0
 18 20  1  0
 20 21  2  0
 20 22  1  0
 11 23  1  0
 23 24  2  0
 24  2  1  0
 23  5  1  0
  1 25  1  0
  1 26  1  0
  1 27  1  0
  3 28  1  0
  4 29  1  0
  6 30  1  0
  9 31  1  0
 16 32  1  6
 17 33  1  0
 17 34  1  0
 17 35  1  0
 18 36  1  1
 19 37  1  0
 19 38  1  0
 19 39  1  0
 24 40  1  0
M  CHG  3   9  -1  16   1  22  -1
M  END
>  <UniqueID>  (57) 
57

>  <SMILES>  (57) 
Cc1ccc2cc(C([NH-])=O)n(C(=O)C(=O)[N@H+](C)[C@@H](C)C(=O)[O-])c2c1

>  <Energy>  (57) 
84.37185428829419

>  <Genealogy>  (57) 
Cc1ccc2cc(C([NH-])=O)n(C(=O)C(=O)[NH+](C)C(C)C(=O)[O-])c2c1 (protonated)
Cc1ccc2cc(C([NH-])=O)n(C(=O)C(=O)[N@H+](C)[C@@H](C)C(=O)[O-])c2c1 (chirality)
Cc1ccc2cc(C([NH-])=O)n(C(=O)C(=O)[N@H+](C)[C@@H](C)C(=O)[O-])c2c1 (3D coordinates assigned)
Cc1ccc2cc(C([NH-])=O)n(C(=O)C(=O)[N@H+](C)[C@@H](C)C(=O)[O-])c2c1 (optimized conformer: 84.37185428829419 kcal/mol)

>  <smiles>  (57) 
Cc1ccc2cc(C(N)=O)n(C(=O)C(=O)N(C)C(C)C(=O)O)c2c1

>  <score_type>  (57) 
oracle

>  <origin>  (57) 
adg

>  <m_score__min__energy>  (57) 
-11.84

>  <m_primary>  (57) 
energy

$$$$
57:0
     RDKit          3D

 32 33  0  0  0  0  0  0  0  0999 V2000
   -3.3930   20.7600  -33.3130 C   0  0  0  0  0  0  0  0  0  0  0  0
   -3.7780   21.5860  -32.5870 N   0  0  0  0  0  0  0  0  0  0  0  0
   -4.2270   22.5670  -31.7420 C   0  0  0  0  0  0  0  0  0  0  0  0
   -3.2750   23.2470  -31.2200 O   0  0  0  0  0  0  0  0  0  0  0  0
   -5.5390   22.9010  -31.3930 N   0  0  0  0  0  0  0  0  0  0  0  0
   -6.0820   24.0250  -30.9180 C   0  0  0  0  0  0  0  0  0  0  0  0
   -5.4130   25.2320  -30.4340 C   0  0  0  0  0  0  0  0  0  0  0  0
   -6.0420   26.0360  -29.4110 N   0  0  0  0  0  0  0  0  0  0  0  0
   -4.3090   25.6600  -30.8290 O   0  0  0  0  0  0  0  0  0  0  0  0
   -7.4700   23.9140  -30.8270 C   0  0  0  0  0  0  0  0  0  0  0  0
   -7.7670   22.6480  -31.2680 C   0  0  0  0  0  0  0  0  0  0  0  0
   -9.0070   21.9980  -31.3980 C   0  0  0  0  0  0  0  0  0  0  0  0
   -9.0600   20.6860  -31.8860 C   0  0  0  0  0  0  0  0  0  0  0  0
   -7.8720   20.0710  -32.2290 C   0  0  0  0  0  0  0  0  0  0  0  0
   -7.7670   18.7040  -32.7770 C   0  0  0  0  0  0  0  0  0  0  0  0
   -6.4880   18.0230  -32.3840 C   0  0  0  0  0  0  0  0  0  0  0  0
   -6.3300   17.6460  -31.1780 O   0  0  0  0  0  0  0  0  0  0  0  0
   -5.4700   17.8020  -33.3390 O   0  0  0  0  0  0  0  0  0  0  0  0
   -5.6930   18.3160  -34.6310 C   0  0  0  0  0  0  0  0  0  0  0  0
   -6.6550   20.7580  -32.0860 C   0  0  0  0  0  0  0  0  0  0  0  0
   -6.5880   22.0490  -31.6060 C   0  0  0  0  0  0  0  0  0  0  0  0
   -5.6160   26.0260  -28.4570 H   0  0  0  0  0  0  0  0  0  0  0  0
   -6.8810   26.5980  -29.6400 H   0  0  0  0  0  0  0  0  0  0  0  0
   -8.1774   24.6796  -30.4758 H   0  0  0  0  0  0  0  0  0  0  0  0
   -9.9341   22.5190  -31.1169 H   0  0  0  0  0  0  0  0  0  0  0  0
  -10.0205   20.1606  -31.9929 H   0  0  0  0  0  0  0  0  0  0  0  0
   -8.6129   18.1083  -32.4033 H   0  0  0  0  0  0  0  0  0  0  0  0
   -7.7803   18.7821  -33.8741 H   0  0  0  0  0  0  0  0  0  0  0  0
   -6.1298   19.3227  -34.5548 H   0  0  0  0  0  0  0  0  0  0  0  0
   -4.7378   18.3709  -35.1737 H   0  0  0  0  0  0  0  0  0  0  0  0
   -6.3857   17.6559  -35.1737 H   0  0  0  0  0  0  0  0  0  0  0  0
   -5.7219   20.2477  -32.3670 H   0  0  0  0  0  0  0  0  0  0  0  0
  1  2  3  0
  2  3  1  0
  3  4  2  0
  3  5  1  0
  5  6  1  0
  6  7  1  0
  7  8  1  0
  7  9  2  0
  6 10  2  0
 10 11  1  0
 11 12  2  0
 12 13  1  0
 13 14  2  0
 14 15  1  0
 15 16  1  0
 16 17  2  0
 16 18  1  0
 18 19  1  0
 14 20  1  0
 20 21  2  0
 21  5  1  0
 21 11  1  0
  8 22  1  0
  8 23  1  0
 10 24  1  0
 12 25  1  0
 13 26  1  0
 15 27  1  0
 15 28  1  0
 19 29  1  0
 19 30  1  0
 19 31  1  0
 20 32  1  0
M  CHG  2   1  -1   2   1
M  END
>  <smiles>  (58) 
[C-]#[N+]C(=O)n1c(C(N)=O)cc2ccc(CC(=O)OC)cc21

>  <score_type>  (58) 
oracle

>  <origin>  (58) 
adg

>  <m_score__min__energy>  (58) 
-8.1699999999999999

>  <m_primary>  (58) 
energy

$$$$
58:0
     RDKit          3D

 43 45  0  0  0  0  0  0  0  0999 V2000
   -4.1970   25.5080  -30.6670 N   0  0  0  0  0  0  0  0  0  0  0  0
   -5.4680   25.0000  -30.2480 C   0  0  0  0  0  0  0  0  0  0  0  0
   -6.1390   25.6550  -29.4030 O   0  0  0  0  0  0  0  0  0  0  0  0
   -5.9960   23.7030  -30.7420 C   0  0  0  0  0  0  0  0  0  0  0  0
   -7.2330   23.5640  -31.3750 C   0  0  0  0  0  0  0  0  0  0  0  0
   -7.3560   22.2170  -31.6550 C   0  0  0  0  0  0  0  0  0  0  0  0
   -8.3650   21.5200  -32.3170 C   0  0  0  0  0  0  0  0  0  0  0  0
   -8.1910   20.1360  -32.5170 C   0  0  0  0  0  0  0  0  0  0  0  0
   -7.0210   19.4840  -32.0600 C   0  0  0  0  0  0  0  0  0  0  0  0
   -6.8350   18.0830  -32.3070 N   0  0  0  0  0  0  0  0  0  0  0  0
   -6.0220   20.2220  -31.3880 C   0  0  0  0  0  0  0  0  0  0  0  0
   -6.2260   21.5920  -31.1960 C   0  0  0  0  0  0  0  0  0  0  0  0
   -5.3870   22.4860  -30.6330 N   0  0  0  0  0  0  0  0  0  0  0  0
   -4.0580   22.1960  -30.1940 C   0  0  0  0  0  0  0  0  0  0  0  0
   -3.8190   21.0940  -29.6290 O   0  0  0  0  0  0  0  0  0  0  0  0
   -3.0270   23.1080  -30.4600 O   0  0  0  0  0  0  0  0  0  0  0  0
   -1.7370   22.9890  -29.8690 C   0  0  1  0  0  0  0  0  0  0  0  0
   -0.8080   22.5530  -30.8650 O   0  0  0  0  0  0  0  0  0  0  0  0
   -0.6820   21.2310  -31.2960 C   0  0  0  0  0  0  0  0  0  0  0  0
    0.3150   20.5410  -30.9420 O   0  0  0  0  0  0  0  0  0  0  0  0
   -1.7350   20.6340  -32.1480 C   0  0  0  0  0  0  0  0  0  0  0  0
   -1.8310   19.2390  -32.3080 C   0  0  0  0  0  0  0  0  0  0  0  0
   -2.8480   18.6870  -33.0970 C   0  0  0  0  0  0  0  0  0  0  0  0
   -3.7740   19.5170  -33.7320 C   0  0  0  0  0  0  0  0  0  0  0  0
   -3.6770   20.9040  -33.5930 C   0  0  0  0  0  0  0  0  0  0  0  0
   -2.6600   21.4640  -32.8120 C   0  0  0  0  0  0  0  0  0  0  0  0
   -1.3290   24.3230  -29.3300 C   0  0  0  0  0  0  0  0  0  0  0  0
   -2.1370   25.2910  -29.3720 O   0  0  0  0  0  0  0  0  0  0  0  0
   -0.0500   24.5130  -28.8230 O   0  0  0  0  0  0  0  0  0  0  0  0
   -3.8640   26.4270  -30.3040 H   0  0  0  0  0  0  0  0  0  0  0  0
   -3.5140   24.9160  -31.1840 H   0  0  0  0  0  0  0  0  0  0  0  0
   -7.9573   24.3600  -31.6028 H   0  0  0  0  0  0  0  0  0  0  0  0
   -9.2698   22.0346  -32.6726 H   0  0  0  0  0  0  0  0  0  0  0  0
   -8.9714   19.5573  -33.0328 H   0  0  0  0  0  0  0  0  0  0  0  0
   -7.6480   17.4690  -32.5330 H   0  0  0  0  0  0  0  0  0  0  0  0
   -5.8870   17.6510  -32.2350 H   0  0  0  0  0  0  0  0  0  0  0  0
   -5.1067   19.7317  -31.0249 H   0  0  0  0  0  0  0  0  0  0  0  0
   -1.7550   22.2564  -29.0486 H   0  0  0  0  0  0  0  0  0  0  0  0
   -1.1042   18.5795  -31.8113 H   0  0  0  0  0  0  0  0  0  0  0  0
   -2.9175   17.5958  -33.2169 H   0  0  0  0  0  0  0  0  0  0  0  0
   -4.5789   19.0795  -34.3409 H   0  0  0  0  0  0  0  0  0  0  0  0
   -4.4025   21.5578  -34.0992 H   0  0  0  0  0  0  0  0  0  0  0  0
   -2.5823   22.5570  -32.7160 H   0  0  0  0  0  0  0  0  0  0  0  0
  1  2  1  0
  2  3  2  0
  2  4  1  0
  4  5  2  0
  5  6  1  0
  6  7  2  0
  7  8  1  0
  8  9  2  0
  9 10  1  0
  9 11  1  0
 11 12  2  0
 12 13  1  0
 13 14  1  0
 14 15  2  0
 14 16  1  0
 16 17  1  0
 17 18  1  0
 18 19  1  0
 19 20  2  0
 19 21  1  0
 21 22  2  0
 22 23  1  0
 23 24  2  0
 24 25  1  0
 25 26  2  0
 17 27  1  0
 27 28  2  0
 27 29  1  0
 13  4  1  0
 26 21  1  0
 12  6  1  0
  1 30  1  0
  1 31  1  0
  5 32  1  0
  7 33  1  0
  8 34  1  0
 10 35  1  0
 10 36  1  0
 11 37  1  0
 17 38  1  1
 22 39  1  0
 23 40  1  0
 24 41  1  0
 25 42  1  0
 26 43  1  0
M  CHG  1  29  -1
M  END
>  <UniqueID>  (59) 
58

>  <SMILES>  (59) 
NC(=O)c1cc2ccc(N)cc2n1C(=O)O[C@@H](OC(=O)c1ccccc1)C(=O)[O-]

>  <Energy>  (59) 
83.71506177388459

>  <Genealogy>  (59) 
NC(=O)c1cc2ccc(N)cc2n1C(=O)OC(OC(=O)c1ccccc1)C(=O)[O-] (protonated)
NC(=O)c1cc2ccc(N)cc2n1C(=O)O[C@@H](OC(=O)c1ccccc1)C(=O)[O-] (chirality)
NC(=O)c1cc2ccc(N)cc2n1C(=O)O[C@@H](OC(=O)c1ccccc1)C(=O)[O-] (3D coordinates assigned)
NC(=O)c1cc2ccc(N)cc2n1C(=O)O[C@@H](OC(=O)c1ccccc1)C(=O)[O-] (optimized conformer: 83.71506177388459 kcal/mol)

>  <smiles>  (59) 
NC(=O)c1cc2ccc(N)cc2n1C(=O)OC(OC(=O)c1ccccc1)C(=O)O

>  <score_type>  (59) 
oracle

>  <origin>  (59) 
adg

>  <m_score__min__energy>  (59) 
-11.050000000000001

>  <m_primary>  (59) 
energy

$$$$
59:0
     RDKit          3D

 33 34  0  0  0  0  0  0  0  0999 V2000
   -3.8560   25.2270  -30.7190 N   0  0  0  0  0  0  0  0  0  0  0  0
   -4.4590   24.1740  -29.9720 C   0  0  0  0  0  0  0  0  0  0  0  0
   -4.4640   24.2350  -28.7130 O   0  0  0  0  0  0  0  0  0  0  0  0
   -5.1130   23.0360  -30.6530 C   0  0  0  0  0  0  0  0  0  0  0  0
   -6.3270   23.1400  -31.3330 C   0  0  0  0  0  0  0  0  0  0  0  0
   -6.5400   21.8980  -31.8900 C   0  0  0  0  0  0  0  0  0  0  0  0
   -7.5970   21.4330  -32.6680 C   0  0  0  0  0  0  0  0  0  0  0  0
   -7.5620   20.0930  -33.0910 C   0  0  0  0  0  0  0  0  0  0  0  0
   -6.4820   19.2490  -32.7310 C   0  0  0  0  0  0  0  0  0  0  0  0
   -6.4740   17.8150  -33.1800 C   0  0  0  0  0  0  0  0  0  0  0  0
   -6.4390   17.7600  -34.5600 F   0  0  0  0  0  0  0  0  0  0  0  0
   -7.6140   17.1790  -32.7250 F   0  0  0  0  0  0  0  0  0  0  0  0
   -5.4290   19.7570  -31.9370 C   0  0  0  0  0  0  0  0  0  0  0  0
   -5.4850   21.0970  -31.5420 C   0  0  0  0  0  0  0  0  0  0  0  0
   -4.6050   21.7780  -30.7780 N   0  0  0  0  0  0  0  0  0  0  0  0
   -3.4080   21.2410  -30.1950 C   0  0  0  0  0  0  0  0  0  0  0  0
   -3.4550   20.1370  -29.5890 O   0  0  0  0  0  0  0  0  0  0  0  0
   -2.1410   21.9930  -30.2550 C   0  0  0  0  0  0  0  0  0  0  0  0
   -1.3070   21.7300  -31.1610 O   0  0  0  0  0  0  0  0  0  0  0  0
   -1.8550   23.0190  -29.2920 N   0  0  0  0  0  0  0  0  0  0  0  0
   -0.6140   23.7900  -29.3180 C   0  0  0  0  0  0  0  0  0  0  0  0
   -0.8280   25.1440  -28.7180 C   0  0  0  0  0  0  0  0  0  0  0  0
   -1.8900   25.7800  -28.9510 O   0  0  0  0  0  0  0  0  0  0  0  0
    0.1370   25.6980  -27.8840 O   0  0  0  0  0  0  0  0  0  0  0  0
   -2.8180   25.2850  -30.8220 H   0  0  0  0  0  0  0  0  0  0  0  0
   -6.9758   24.0251  -31.4083 H   0  0  0  0  0  0  0  0  0  0  0  0
   -8.4328   22.0933  -32.9428 H   0  0  0  0  0  0  0  0  0  0  0  0
   -8.3814   19.6954  -33.7078 H   0  0  0  0  0  0  0  0  0  0  0  0
   -5.5851   17.3130  -32.7702 H   0  0  0  0  0  0  0  0  0  0  0  0
   -4.5875   19.1150  -31.6376 H   0  0  0  0  0  0  0  0  0  0  0  0
   -2.5570   23.2420  -28.5510 H   0  0  0  0  0  0  0  0  0  0  0  0
    0.1564   23.2562  -28.7423 H   0  0  0  0  0  0  0  0  0  0  0  0
   -0.2904   23.9098  -30.3625 H   0  0  0  0  0  0  0  0  0  0  0  0
  1  2  1  0
  2  3  2  0
  2  4  1  0
  4  5  2  0
  5  6  1  0
  6  7  2  0
  7  8  1  0
  8  9  2  0
  9 10  1  0
 10 11  1  0
 10 12  1  0
  9 13  1  0
 13 14  2  0
 14 15  1  0
 15 16  1  0
 16 17  2  0
 16 18  1  0
 18 19  2  0
 18 20  1  0
 20 21  1  0
 21 22  1  0
 22 23  2  0
 22 24  1  0
 15  4  1  0
 14  6  1  0
  1 25  1  0
  5 26  1  0
  7 27  1  0
  8 28  1  0
 10 29  1  0
 13 30  1  0
 20 31  1  0
 21 32  1  0
 21 33  1  0
M  CHG  2   1  -1  24  -1
M  END
>  <UniqueID>  (60) 
59

>  <SMILES>  (60) 
[NH-]C(=O)c1cc2ccc(C(F)F)cc2n1C(=O)C(=O)NCC(=O)[O-]

>  <Energy>  (60) 
69.61955748889125

>  <Genealogy>  (60) 
[NH-]C(=O)c1cc2ccc(C(F)F)cc2n1C(=O)C(=O)NCC(=O)[O-] (protonated)
[NH-]C(=O)c1cc2ccc(C(F)F)cc2n1C(=O)C(=O)NCC(=O)[O-] (3D coordinates assigned)
[NH-]C(=O)c1cc2ccc(C(F)F)cc2n1C(=O)C(=O)NCC(=O)[O-] (optimized conformer: 69.61955748889125 kcal/mol)

>  <smiles>  (60) 
NC(=O)c1cc2ccc(C(F)F)cc2n1C(=O)C(=O)NCC(=O)O

>  <score_type>  (60) 
oracle

>  <origin>  (60) 
adg

>  <m_score__min__energy>  (60) 
-12.16

>  <m_primary>  (60) 
energy

$$$$
60:0
     RDKit          3D

 40 42  0  0  0  0  0  0  0  0999 V2000
   -4.0430   25.6290  -30.8260 N   0  0  0  0  0  0  0  0  0  0  0  0
   -5.2350   25.1110  -30.2410 C   0  0  0  0  0  0  0  0  0  0  0  0
   -5.7670   25.7260  -29.2790 O   0  0  0  0  0  0  0  0  0  0  0  0
   -5.8070   23.8430  -30.7380 C   0  0  0  0  0  0  0  0  0  0  0  0
   -7.1570   23.6770  -31.0400 C   0  0  0  0  0  0  0  0  0  0  0  0
   -7.2630   22.4000  -31.5440 C   0  0  0  0  0  0  0  0  0  0  0  0
   -8.3850   21.7010  -31.9770 C   0  0  0  0  0  0  0  0  0  0  0  0
   -8.2080   20.3760  -32.4100 C   0  0  0  0  0  0  0  0  0  0  0  0
   -6.9220   19.7770  -32.4110 C   0  0  0  0  0  0  0  0  0  0  0  0
   -6.7570   18.3350  -32.8180 C   0  0  0  0  0  0  0  0  0  0  0  0
   -7.9340   17.6540  -32.5680 F   0  0  0  0  0  0  0  0  0  0  0  0
   -6.4560   18.2380  -34.1650 F   0  0  0  0  0  0  0  0  0  0  0  0
   -5.7310   17.7400  -32.1020 F   0  0  0  0  0  0  0  0  0  0  0  0
   -5.8110   20.5140  -31.9390 C   0  0  0  0  0  0  0  0  0  0  0  0
   -6.0130   21.8390  -31.5310 C   0  0  0  0  0  0  0  0  0  0  0  0
   -5.1070   22.7120  -31.0370 N   0  0  0  0  0  0  0  0  0  0  0  0
   -3.7150   22.4540  -30.7970 C   0  0  0  0  0  0  0  0  0  0  0  0
   -2.8430   23.2690  -31.2060 O   0  0  0  0  0  0  0  0  0  0  0  0
   -3.3310   21.2860  -30.1330 O   0  0  0  0  0  0  0  0  0  0  0  0
   -3.0950   21.2380  -28.7290 C   0  0  0  0  0  0  0  0  0  0  0  0
   -3.6810   22.4930  -28.0450 C   0  0  0  0  0  0  0  0  0  0  0  0
   -2.7730   23.2810  -27.1710 N   0  0  0  0  0  0  0  0  0  0  0  0
   -1.4610   23.6270  -27.7360 C   0  0  0  0  0  0  0  0  0  0  0  0
   -1.7520   25.1170  -27.6840 C   0  0  0  0  0  0  0  0  0  0  0  0
   -1.8630   25.6810  -28.9440 F   0  0  0  0  0  0  0  0  0  0  0  0
   -3.0970   24.7130  -27.1050 C   0  0  0  0  0  0  0  0  0  0  0  0
   -3.1040   25.2940  -30.5160 H   0  0  0  0  0  0  0  0  0  0  0  0
   -7.9659   24.4100  -30.9046 H   0  0  0  0  0  0  0  0  0  0  0  0
   -9.3796   22.1708  -31.9803 H   0  0  0  0  0  0  0  0  0  0  0  0
   -9.0776   19.7959  -32.7525 H   0  0  0  0  0  0  0  0  0  0  0  0
   -4.8113   20.0574  -31.8933 H   0  0  0  0  0  0  0  0  0  0  0  0
   -3.5732   20.3399  -28.3109 H   0  0  0  0  0  0  0  0  0  0  0  0
   -2.0104   21.2051  -28.5488 H   0  0  0  0  0  0  0  0  0  0  0  0
   -4.0401   23.1644  -28.8389 H   0  0  0  0  0  0  0  0  0  0  0  0
   -4.4591   22.1084  -27.3693 H   0  0  0  0  0  0  0  0  0  0  0  0
   -0.6160   23.3229  -27.1008 H   0  0  0  0  0  0  0  0  0  0  0  0
   -1.1575   23.1766  -28.6926 H   0  0  0  0  0  0  0  0  0  0  0  0
   -1.0832   25.8424  -27.1977 H   0  0  0  0  0  0  0  0  0  0  0  0
   -3.2610   25.0786  -26.0806 H   0  0  0  0  0  0  0  0  0  0  0  0
   -4.0158   25.0741  -27.5902 H   0  0  0  0  0  0  0  0  0  0  0  0
  1  2  1  0
  2  3  2  0
  2  4  1  0
  4  5  2  0
  5  6  1  0
  6  7  2  0
  7  8  1  0
  8  9  2  0
  9 10  1  0
 10 11  1  0
 10 12  1  0
 10 13  1  0
  9 14  1  0
 14 15  2  0
 15 16  1  0
 16 17  1  0
 17 18  2  0
 17 19  1  0
 19 20  1  0
 20 21  1  0
 21 22  1  0
 22 23  1  0
 23 24  1  0
 24 25  1  0
 24 26  1  0
 16  4  1  0
 26 22  1  0
 15  6  1  0
  1 27  1  0
  5 28  1  0
  7 29  1  0
  8 30  1  0
 14 31  1  0
 20 32  1  0
 20 33  1  0
 21 34  1  0
 21 35  1  0
 23 36  1  0
 23 37  1  0
 24 38  1  0
 26 39  1  0
 26 40  1  0
M  CHG  1   1  -1
M  END
>  <UniqueID>  (61) 
60

>  <SMILES>  (61) 
[NH-]C(=O)c1cc2ccc(C(F)(F)F)cc2n1C(=O)OCCN1CC(F)C1

>  <Energy>  (61) 
154.57925949819474

>  <Genealogy>  (61) 
[NH-]C(=O)c1cc2ccc(C(F)(F)F)cc2n1C(=O)OCCN1CC(F)C1 (protonated)
[NH-]C(=O)c1cc2ccc(C(F)(F)F)cc2n1C(=O)OCCN1CC(F)C1 (3D coordinates assigned)
[NH-]C(=O)c1cc2ccc(C(F)(F)F)cc2n1C(=O)OCCN1CC(F)C1 (nonaromatic ring conformer: 154.57925949819474 kcal/mol)

>  <smiles>  (61) 
NC(=O)c1cc2ccc(C(F)(F)F)cc2n1C(=O)OCCN1CC(F)C1

>  <score_type>  (61) 
oracle

>  <origin>  (61) 
adg

>  <m_score__min__energy>  (61) 
-10.07

>  <m_primary>  (61) 
energy

$$$$
61:0
     RDKit          3D

 39 41  0  0  0  0  0  0  0  0999 V2000
   -4.2320   23.4560  -27.7280 C   0  0  0  0  0  0  0  0  0  0  0  0
   -3.1570   22.8340  -28.5110 N   0  0  0  0  0  0  0  0  0  0  0  0
   -1.7660   23.1450  -28.1520 C   0  0  0  0  0  0  0  0  0  0  0  0
   -1.3330   24.4250  -28.7960 C   0  0  0  0  0  0  0  0  0  0  0  0
   -0.1100   24.7220  -28.8570 O   0  0  0  0  0  0  0  0  0  0  0  0
   -2.2770   25.2880  -29.3370 O   0  0  0  0  0  0  0  0  0  0  0  0
   -3.4340   22.0680  -29.7100 C   0  0  0  0  0  0  0  0  0  0  0  0
   -3.1620   20.8350  -29.7280 O   0  0  0  0  0  0  0  0  0  0  0  0
   -3.9980   22.6710  -30.9420 C   0  0  0  0  0  0  0  0  0  0  0  0
   -3.2490   23.0610  -31.8750 O   0  0  0  0  0  0  0  0  0  0  0  0
   -5.4200   22.8140  -31.0830 N   0  0  0  0  0  0  0  0  0  0  0  0
   -6.1560   23.9350  -30.8470 C   0  0  0  0  0  0  0  0  0  0  0  0
   -5.6140   25.2070  -30.3240 C   0  0  0  0  0  0  0  0  0  0  0  0
   -4.2730   25.6020  -30.6190 N   0  0  0  0  0  0  0  0  0  0  0  0
   -6.3340   25.9530  -29.6050 O   0  0  0  0  0  0  0  0  0  0  0  0
   -7.4820   23.7350  -31.2160 C   0  0  0  0  0  0  0  0  0  0  0  0
   -7.5370   22.4420  -31.6890 C   0  0  0  0  0  0  0  0  0  0  0  0
   -8.6070   21.7190  -32.2100 C   0  0  0  0  0  0  0  0  0  0  0  0
   -8.3650   20.4050  -32.6480 C   0  0  0  0  0  0  0  0  0  0  0  0
   -7.0680   19.8370  -32.5510 C   0  0  0  0  0  0  0  0  0  0  0  0
   -6.8340   18.4550  -33.0120 C   0  0  0  0  0  0  0  0  0  0  0  0
   -7.3350   17.3570  -32.4130 N   0  0  0  0  0  0  0  0  0  0  0  0
   -6.9070   16.3220  -33.1210 N   0  0  0  0  0  0  0  0  0  0  0  0
   -6.1640   16.8270  -34.1250 C   0  0  0  0  0  0  0  0  0  0  0  0
   -6.1160   18.1360  -34.0630 O   0  0  0  0  0  0  0  0  0  0  0  0
   -6.0060   20.6060  -32.0240 C   0  0  0  0  0  0  0  0  0  0  0  0
   -6.2770   21.9100  -31.6000 C   0  0  0  0  0  0  0  0  0  0  0  0
   -4.0217   23.3343  -26.6552 H   0  0  0  0  0  0  0  0  0  0  0  0
   -4.2900   24.5272  -27.9711 H   0  0  0  0  0  0  0  0  0  0  0  0
   -5.1896   22.9724  -27.9711 H   0  0  0  0  0  0  0  0  0  0  0  0
   -1.6876   23.2447  -27.0593 H   0  0  0  0  0  0  0  0  0  0  0  0
   -1.1163   22.3308  -28.5056 H   0  0  0  0  0  0  0  0  0  0  0  0
   -3.6280   24.9780  -31.1590 H   0  0  0  0  0  0  0  0  0  0  0  0
   -3.8660   26.4360  -30.1410 H   0  0  0  0  0  0  0  0  0  0  0  0
   -8.3102   24.4554  -31.1453 H   0  0  0  0  0  0  0  0  0  0  0  0
   -9.6114   22.1625  -32.2769 H   0  0  0  0  0  0  0  0  0  0  0  0
   -9.1892   19.8113  -33.0701 H   0  0  0  0  0  0  0  0  0  0  0  0
   -5.6637   16.2213  -34.8950 H   0  0  0  0  0  0  0  0  0  0  0  0
   -4.9910   20.1886  -31.9493 H   0  0  0  0  0  0  0  0  0  0  0  0
  1  2  1  0
  2  3  1  0
  3  4  1  0
  4  5  2  0
  4  6  1  0
  2  7  1  0
  7  8  2  0
  7  9  1  0
  9 10  2  0
  9 11  1  0
 11 12  1  0
 12 13  1  0
 13 14  1  0
 13 15  2  0
 12 16  2  0
 16 17  1  0
 17 18  2  0
 18 19  1  0
 19 20  2  0
 20 21  1  0
 21 22  2  0
 22 23  1  0
 23 24  2  0
 24 25  1  0
 20 26  1  0
 26 27  2  0
 27 11  1  0
 27 17  1  0
 25 21  1  0
  1 28  1  0
  1 29  1  0
  1 30  1  0
  3 31  1  0
  3 32  1  0
 14 33  1  0
 14 34  1  0
 16 35  1  0
 18 36  1  0
 19 37  1  0
 24 38  1  0
 26 39  1  0
M  CHG  1   6  -1
M  END
>  <UniqueID>  (62) 
61

>  <SMILES>  (62) 
CN(CC(=O)[O-])C(=O)C(=O)n1c(C(N)=O)cc2ccc(-c3nnco3)cc21

>  <Energy>  (62) 
117.69859691464798

>  <Genealogy>  (62) 
CN(CC(=O)[O-])C(=O)C(=O)n1c(C(N)=O)cc2ccc(-c3nnco3)cc21 (protonated)
CN(CC(=O)[O-])C(=O)C(=O)n1c(C(N)=O)cc2ccc(-c3nnco3)cc21 (3D coordinates assigned)
CN(CC(=O)[O-])C(=O)C(=O)n1c(C(N)=O)cc2ccc(-c3nnco3)cc21 (optimized conformer: 117.69859691464798 kcal/mol)

>  <smiles>  (62) 
CN(CC(=O)O)C(=O)C(=O)n1c(C(N)=O)cc2ccc(-c3nnco3)cc21

>  <score_type>  (62) 
oracle

>  <origin>  (62) 
adg

>  <m_score__min__energy>  (62) 
-11.050000000000001

>  <m_primary>  (62) 
energy

$$$$
62:0
     RDKit          3D

 40 41  0  0  0  0  0  0  0  0999 V2000
   -6.1150   15.6570  -33.8520 C   0  0  0  0  0  0  0  0  0  0  0  0
   -5.5970   16.9040  -34.2960 O   0  0  0  0  0  0  0  0  0  0  0  0
   -6.1230   18.1300  -33.8780 C   0  0  0  0  0  0  0  0  0  0  0  0
   -6.0720   19.1420  -34.6290 O   0  0  0  0  0  0  0  0  0  0  0  0
   -6.7070   18.2510  -32.5070 C   0  0  0  0  0  0  0  0  0  0  0  0
   -6.8880   19.6990  -32.1530 C   0  0  0  0  0  0  0  0  0  0  0  0
   -8.1480   20.3240  -32.3310 C   0  0  0  0  0  0  0  0  0  0  0  0
   -8.3170   21.6900  -32.0460 C   0  0  0  0  0  0  0  0  0  0  0  0
   -7.2110   22.4030  -31.5920 C   0  0  0  0  0  0  0  0  0  0  0  0
   -7.0860   23.7350  -31.2700 C   0  0  0  0  0  0  0  0  0  0  0  0
   -5.7540   23.9010  -30.8960 C   0  0  0  0  0  0  0  0  0  0  0  0
   -5.2020   25.1740  -30.3880 C   0  0  0  0  0  0  0  0  0  0  0  0
   -3.9410   25.6570  -30.8440 N   0  0  0  0  0  0  0  0  0  0  0  0
   -5.8310   25.8220  -29.5110 O   0  0  0  0  0  0  0  0  0  0  0  0
   -5.0810   22.7200  -30.9920 N   0  0  0  0  0  0  0  0  0  0  0  0
   -3.6800   22.4790  -30.7900 C   0  0  0  0  0  0  0  0  0  0  0  0
   -3.1170   21.5330  -31.4020 O   0  0  0  0  0  0  0  0  0  0  0  0
   -2.9180   23.3440  -29.9340 N   0  0  0  0  0  0  0  0  0  0  0  0
   -1.4830   23.1580  -29.6870 C   0  0  1  0  0  0  0  0  0  0  0  0
   -0.8750   24.4450  -29.2010 C   0  0  0  0  0  0  0  0  0  0  0  0
    0.2960   24.4680  -28.7370 O   0  0  0  0  0  0  0  0  0  0  0  0
   -1.6020   25.6270  -29.2770 O   0  0  0  0  0  0  0  0  0  0  0  0
   -1.2580   22.0240  -28.6790 C   0  0  0  0  0  0  0  0  0  0  0  0
   -2.3350   21.1540  -28.6950 F   0  0  0  0  0  0  0  0  0  0  0  0
   -0.1050   21.3200  -28.9850 F   0  0  0  0  0  0  0  0  0  0  0  0
   -1.1370   22.5490  -27.4050 F   0  0  0  0  0  0  0  0  0  0  0  0
   -5.9880   21.8130  -31.4120 C   0  0  0  0  0  0  0  0  0  0  0  0
   -5.7860   20.4580  -31.7000 C   0  0  0  0  0  0  0  0  0  0  0  0
   -6.1243   15.6345  -32.7523 H   0  0  0  0  0  0  0  0  0  0  0  0
   -7.1402   15.5303  -34.2301 H   0  0  0  0  0  0  0  0  0  0  0  0
   -5.4813   14.8412  -34.2301 H   0  0  0  0  0  0  0  0  0  0  0  0
   -7.6831   17.7446  -32.4806 H   0  0  0  0  0  0  0  0  0  0  0  0
   -6.0252   17.7838  -31.7811 H   0  0  0  0  0  0  0  0  0  0  0  0
   -9.0018   19.7341  -32.6957 H   0  0  0  0  0  0  0  0  0  0  0  0
   -9.2928   22.1803  -32.1776 H   0  0  0  0  0  0  0  0  0  0  0  0
   -7.8708   24.5051  -31.3012 H   0  0  0  0  0  0  0  0  0  0  0  0
   -3.0490   25.3030  -30.4310 H   0  0  0  0  0  0  0  0  0  0  0  0
   -3.4260   24.0970  -29.4160 H   0  0  0  0  0  0  0  0  0  0  0  0
   -0.9885   22.8762  -30.6283 H   0  0  0  0  0  0  0  0  0  0  0  0
   -4.7952   19.9964  -31.5768 H   0  0  0  0  0  0  0  0  0  0  0  0
  1  2  1  0
  2  3  1  0
  3  4  2  0
  3  5  1  0
  5  6  1  0
  6  7  2  0
  7  8  1  0
  8  9  2  0
  9 10  1  0
 10 11  2  0
 11 12  1  0
 12 13  1  0
 12 14  2  0
 11 15  1  0
 15 16  1  0
 16 17  2  0
 16 18  1  0
 18 19  1  0
 19 20  1  0
 20 21  2  0
 20 22  1  0
 19 23  1  0
 23 24  1  0
 23 25  1  0
 23 26  1  0
 15 27  1  0
 27 28  2  0
 28  6  1  0
 27  9  1  0
  1 29  1  0
  1 30  1  0
  1 31  1  0
  5 32  1  0
  5 33  1  0
  7 34  1  0
  8 35  1  0
 10 36  1  0
 13 37  1  0
 18 38  1  0
 19 39  1  6
 28 40  1  0
M  CHG  2  13  -1  22  -1
M  END
>  <UniqueID>  (63) 
62

>  <SMILES>  (63) 
COC(=O)Cc1ccc2cc(C([NH-])=O)n(C(=O)N[C@@H](C(=O)[O-])C(F)(F)F)c2c1

>  <Energy>  (63) 
72.42758135705937

>  <Genealogy>  (63) 
COC(=O)Cc1ccc2cc(C([NH-])=O)n(C(=O)NC(C(=O)[O-])C(F)(F)F)c2c1 (protonated)
COC(=O)Cc1ccc2cc(C([NH-])=O)n(C(=O)N[C@@H](C(=O)[O-])C(F)(F)F)c2c1 (chirality)
COC(=O)Cc1ccc2cc(C([NH-])=O)n(C(=O)N[C@@H](C(=O)[O-])C(F)(F)F)c2c1 (3D coordinates assigned)
COC(=O)Cc1ccc2cc(C([NH-])=O)n(C(=O)N[C@@H](C(=O)[O-])C(F)(F)F)c2c1 (optimized conformer: 72.42758135705937 kcal/mol)

>  <smiles>  (63) 
COC(=O)Cc1ccc2cc(C(N)=O)n(C(=O)NC(C(=O)O)C(F)(F)F)c2c1

>  <score_type>  (63) 
oracle

>  <origin>  (63) 
adg

>  <m_score__min__energy>  (63) 
-11.869999999999999

>  <m_primary>  (63) 
energy

$$$$
63:0
     RDKit          3D

 38 39  0  0  0  0  0  0  0  0999 V2000
   -5.0730   16.0490  -33.1130 C   0  0  0  0  0  0  0  0  0  0  0  0
   -5.9000   17.2880  -32.9360 C   0  0  0  0  0  0  0  0  0  0  0  0
   -7.3040   17.1960  -32.7600 C   0  0  0  0  0  0  0  0  0  0  0  0
   -8.0750   18.3530  -32.5530 C   0  0  0  0  0  0  0  0  0  0  0  0
   -7.4170   19.5790  -32.5190 C   0  0  0  0  0  0  0  0  0  0  0  0
   -7.9100   20.8450  -32.2970 C   0  0  0  0  0  0  0  0  0  0  0  0
   -6.7990   21.6890  -32.3430 C   0  0  0  0  0  0  0  0  0  0  0  0
   -6.8610   23.1610  -32.2070 C   0  0  0  0  0  0  0  0  0  0  0  0
   -5.6950   23.9170  -31.8700 N   0  0  0  0  0  0  0  0  0  0  0  0
   -7.9530   23.7660  -32.3730 O   0  0  0  0  0  0  0  0  0  0  0  0
   -5.6680   20.9700  -32.5910 N   0  0  0  0  0  0  0  0  0  0  0  0
   -4.3170   21.4540  -32.6480 C   0  0  0  0  0  0  0  0  0  0  0  0
   -4.0080   22.3290  -33.5020 O   0  0  0  0  0  0  0  0  0  0  0  0
   -3.3150   20.9460  -31.7440 N   0  0  0  0  0  0  0  0  0  0  0  0
   -2.4560   19.8340  -32.1600 C   0  0  0  0  0  0  0  0  0  0  0  0
   -3.1690   21.4950  -30.4200 C   0  0  0  0  0  0  0  0  0  0  0  0
   -2.2290   21.1090  -29.6720 O   0  0  0  0  0  0  0  0  0  0  0  0
   -4.0730   22.5090  -29.9590 N   0  0  0  0  0  0  0  0  0  0  0  0
   -3.7060   23.5450  -29.0010 C   0  0  0  0  0  0  0  0  0  0  0  0
   -3.1670   24.7420  -29.7150 C   0  0  0  0  0  0  0  0  0  0  0  0
   -2.1110   25.2990  -29.3130 O   0  0  0  0  0  0  0  0  0  0  0  0
   -3.8560   25.2720  -30.7990 O   0  0  0  0  0  0  0  0  0  0  0  0
   -6.0600   19.6810  -32.6900 C   0  0  0  0  0  0  0  0  0  0  0  0
   -5.2650   18.5460  -32.8850 C   0  0  0  0  0  0  0  0  0  0  0  0
   -4.8029   15.6444  -32.1264 H   0  0  0  0  0  0  0  0  0  0  0  0
   -5.6519   15.2984  -33.6712 H   0  0  0  0  0  0  0  0  0  0  0  0
   -4.1578   16.2957  -33.6712 H   0  0  0  0  0  0  0  0  0  0  0  0
   -7.7937   16.2114  -32.7857 H   0  0  0  0  0  0  0  0  0  0  0  0
   -9.1654   18.2913  -32.4219 H   0  0  0  0  0  0  0  0  0  0  0  0
   -8.9574   21.1310  -32.1207 H   0  0  0  0  0  0  0  0  0  0  0  0
   -5.7620   24.9500  -31.7420 H   0  0  0  0  0  0  0  0  0  0  0  0
   -4.7590   23.4670  -31.7770 H   0  0  0  0  0  0  0  0  0  0  0  0
   -2.0611   19.3228  -31.2697 H   0  0  0  0  0  0  0  0  0  0  0  0
   -3.0418   19.1232  -32.7613 H   0  0  0  0  0  0  0  0  0  0  0  0
   -1.6203   20.2213  -32.7613 H   0  0  0  0  0  0  0  0  0  0  0  0
   -4.5953   23.8368  -28.4231 H   0  0  0  0  0  0  0  0  0  0  0  0
   -2.9316   23.1512  -28.3262 H   0  0  0  0  0  0  0  0  0  0  0  0
   -4.1740   18.6328  -32.9955 H   0  0  0  0  0  0  0  0  0  0  0  0
  1  2  1  0
  2  3  2  0
  3  4  1  0
  4  5  2  0
  5  6  1  0
  6  7  2  0
  7  8  1  0
  8  9  1  0
  8 10  2  0
  7 11  1  0
 11 12  1  0
 12 13  2  0
 12 14  1  0
 14 15  1  0
 14 16  1  0
 16 17  2  0
 16 18  1  0
 18 19  1  0
 19 20  1  0
 20 21  2  0
 20 22  1  0
 11 23  1  0
 23 24  2  0
 24  2  1  0
 23  5  1  0
  1 25  1  0
  1 26  1  0
  1 27  1  0
  3 28  1  0
  4 29  1  0
  6 30  1  0
  9 31  1  0
  9 32  1  0
 15 33  1  0
 15 34  1  0
 15 35  1  0
 19 36  1  0
 19 37  1  0
 24 38  1  0
M  CHG  2  18  -1  22  -1
M  END
>  <UniqueID>  (64) 
63

>  <SMILES>  (64) 
Cc1ccc2cc(C(N)=O)n(C(=O)N(C)C(=O)[N-]CC(=O)[O-])c2c1

>  <Energy>  (64) 
75.1061016683384

>  <Genealogy>  (64) 
Cc1ccc2cc(C(N)=O)n(C(=O)N(C)C(=O)[N-]CC(=O)[O-])c2c1 (protonated)
Cc1ccc2cc(C(N)=O)n(C(=O)N(C)C(=O)[N-]CC(=O)[O-])c2c1 (3D coordinates assigned)
Cc1ccc2cc(C(N)=O)n(C(=O)N(C)C(=O)[N-]CC(=O)[O-])c2c1 (optimized conformer: 75.1061016683384 kcal/mol)

>  <smiles>  (64) 
Cc1ccc2cc(C(N)=O)n(C(=O)N(C)C(=O)NCC(=O)O)c2c1

>  <score_type>  (64) 
oracle

>  <origin>  (64) 
adg

>  <m_score__min__energy>  (64) 
-11.85

>  <m_primary>  (64) 
energy

$$$$
64:0
     RDKit          3D

 45 46  0  0  0  0  0  0  0  0999 V2000
   -5.2850   16.4710  -33.0320 C   0  0  0  0  0  0  0  0  0  0  0  0
   -5.9410   17.7450  -33.4970 C   0  0  0  0  0  0  0  0  0  0  0  0
   -5.7530   18.1980  -34.8540 S   0  0  0  0  0  0  0  0  0  0  0  0
   -4.9810   17.5160  -35.7210 O   0  0  0  0  0  0  0  0  0  0  0  0
   -6.8330   18.5030  -32.5830 C   0  0  0  0  0  0  0  0  0  0  0  0
   -7.7800   17.9190  -31.9870 O   0  0  0  0  0  0  0  0  0  0  0  0
   -6.6590   19.9160  -32.3930 N   0  0  0  0  0  0  0  0  0  0  0  0
   -7.6240   20.8630  -32.2300 C   0  0  0  0  0  0  0  0  0  0  0  0
   -9.0820   20.6220  -32.3270 C   0  0  0  0  0  0  0  0  0  0  0  0
   -9.5940   19.4920  -33.0340 N   0  0  0  0  0  0  0  0  0  0  0  0
   -9.8900   21.4120  -31.7700 O   0  0  0  0  0  0  0  0  0  0  0  0
   -7.0430   22.1160  -32.0340 C   0  0  0  0  0  0  0  0  0  0  0  0
   -5.6830   21.9000  -32.0900 C   0  0  0  0  0  0  0  0  0  0  0  0
   -4.6270   22.7940  -31.9580 C   0  0  0  0  0  0  0  0  0  0  0  0
   -3.3180   22.2880  -32.0510 C   0  0  0  0  0  0  0  0  0  0  0  0
   -3.0880   20.9020  -32.2760 C   0  0  0  0  0  0  0  0  0  0  0  0
   -1.7570   20.3570  -32.3690 N   0  0  0  0  0  0  0  0  0  0  0  0
   -0.5550   21.0000  -31.8360 C   0  0  0  0  0  0  0  0  0  0  0  0
    0.0300   20.1750  -30.6870 C   0  0  0  0  0  0  0  0  0  0  0  0
   -0.4930   20.6390  -29.4070 N   0  0  0  0  0  0  0  0  0  0  0  0
   -1.7330   21.3360  -29.2650 C   0  0  0  0  0  0  0  0  0  0  0  0
   -2.8220   20.7000  -29.2400 O   0  0  0  0  0  0  0  0  0  0  0  0
   -1.7200   22.7310  -29.1580 O   0  0  0  0  0  0  0  0  0  0  0  0
   -2.8760   23.5010  -28.8360 C   0  0  0  0  0  0  0  0  0  0  0  0
   -2.7670   24.8760  -29.4140 C   0  0  0  0  0  0  0  0  0  0  0  0
   -1.9120   25.6830  -28.9660 O   0  0  0  0  0  0  0  0  0  0  0  0
   -3.5880   25.2570  -30.4680 O   0  0  0  0  0  0  0  0  0  0  0  0
   -4.1920   20.0300  -32.4000 C   0  0  0  0  0  0  0  0  0  0  0  0
   -5.4810   20.5660  -32.3110 C   0  0  0  0  0  0  0  0  0  0  0  0
   -5.2719   16.4455  -31.9324 H   0  0  0  0  0  0  0  0  0  0  0  0
   -5.8506   15.6075  -33.4121 H   0  0  0  0  0  0  0  0  0  0  0  0
   -4.2536   16.4298  -33.4121 H   0  0  0  0  0  0  0  0  0  0  0  0
  -10.6240   19.3180  -33.0660 H   0  0  0  0  0  0  0  0  0  0  0  0
   -8.9670   18.8480  -33.5630 H   0  0  0  0  0  0  0  0  0  0  0  0
   -7.5603   23.0728  -31.8697 H   0  0  0  0  0  0  0  0  0  0  0  0
   -4.8095   23.8650  -31.7860 H   0  0  0  0  0  0  0  0  0  0  0  0
   -2.4623   22.9716  -31.9486 H   0  0  0  0  0  0  0  0  0  0  0  0
   -1.6310   19.4330  -32.8440 H   0  0  0  0  0  0  0  0  0  0  0  0
    0.1941   21.0874  -32.6368 H   0  0  0  0  0  0  0  0  0  0  0  0
   -0.8234   21.9972  -31.4571 H   0  0  0  0  0  0  0  0  0  0  0  0
   -0.2399   19.1178  -30.8265 H   0  0  0  0  0  0  0  0  0  0  0  0
    1.1239   20.2904  -30.6872 H   0  0  0  0  0  0  0  0  0  0  0  0
   -3.7675   23.0050  -29.2474 H   0  0  0  0  0  0  0  0  0  0  0  0
   -2.9572   23.5804  -27.7419 H   0  0  0  0  0  0  0  0  0  0  0  0
   -4.0415   18.9526  -32.5630 H   0  0  0  0  0  0  0  0  0  0  0  0
  1  2  1  0
  2  3  2  0
  3  4  2  0
  2  5  1  0
  5  6  2  0
  5  7  1  0
  7  8  1  0
  8  9  1  0
  9 10  1  0
  9 11  2  0
  8 12  2  0
 12 13  1  0
 13 14  2  0
 14 15  1  0
 15 16  2  0
 16 17  1  0
 17 18  1  0
 18 19  1  0
 19 20  1  0
 20 21  1  0
 21 22  2  0
 21 23  1  0
 23 24  1  0
 24 25  1  0
 25 26  2  0
 25 27  1  0
 16 28  1  0
 28 29  2  0
 29  7  1  0
 29 13  1  0
  1 30  1  0
  1 31  1  0
  1 32  1  0
 10 33  1  0
 10 34  1  0
 12 35  1  0
 14 36  1  0
 15 37  1  0
 17 38  1  0
 18 39  1  0
 18 40  1  0
 19 41  1  0
 19 42  1  0
 24 43  1  0
 24 44  1  0
 28 45  1  0
M  CHG  2  20  -1  27  -1
M  END
>  <UniqueID>  (65) 
64

>  <SMILES>  (65) 
CC(=S=O)C(=O)n1c(C(N)=O)cc2ccc(NCC[N-]C(=O)OCC(=O)[O-])cc21

>  <Energy>  (65) 
78.00250599549064

>  <Genealogy>  (65) 
CC(=S=O)C(=O)n1c(C(N)=O)cc2ccc(NCC[N-]C(=O)OCC(=O)[O-])cc21 (protonated)
CC(=S=O)C(=O)n1c(C(N)=O)cc2ccc(NCC[N-]C(=O)OCC(=O)[O-])cc21 (3D coordinates assigned)
CC(=S=O)C(=O)n1c(C(N)=O)cc2ccc(NCC[N-]C(=O)OCC(=O)[O-])cc21 (optimized conformer: 78.00250599549064 kcal/mol)

>  <smiles>  (65) 
CC(=S=O)C(=O)n1c(C(N)=O)cc2ccc(NCCNC(=O)OCC(=O)O)cc21

>  <score_type>  (65) 
oracle

>  <origin>  (65) 
adg

>  <m_score__min__energy>  (65) 
-10.51

>  <m_primary>  (65) 
energy

$$$$
65:0
     RDKit          3D

 50 52  0  0  0  0  0  0  0  0999 V2000
   -7.6120   17.4140  -32.4340 C   0  0  0  0  0  0  0  0  0  0  0  0
   -6.9210   18.5360  -33.0860 N   0  0  0  0  0  0  0  0  0  0  0  0
   -6.0960   18.2650  -34.2690 C   0  0  0  0  0  0  0  0  0  0  0  0
   -7.0720   19.8900  -32.5830 C   0  0  0  0  0  0  0  0  0  0  0  0
   -8.3640   20.4440  -32.3540 C   0  0  0  0  0  0  0  0  0  0  0  0
   -8.5190   21.7470  -31.8510 C   0  0  0  0  0  0  0  0  0  0  0  0
   -7.3720   22.4770  -31.5690 C   0  0  0  0  0  0  0  0  0  0  0  0
   -7.2360   23.7600  -31.0900 C   0  0  0  0  0  0  0  0  0  0  0  0
   -5.8620   23.9820  -31.0170 C   0  0  0  0  0  0  0  0  0  0  0  0
   -5.2600   25.2310  -30.5000 C   0  0  0  0  0  0  0  0  0  0  0  0
   -3.9240   25.5760  -30.8550 N   0  0  0  0  0  0  0  0  0  0  0  0
   -5.9180   26.0040  -29.7550 O   0  0  0  0  0  0  0  0  0  0  0  0
   -5.1780   22.8770  -31.4350 N   0  0  0  0  0  0  0  0  0  0  0  0
   -3.7540   22.7290  -31.5590 C   0  0  0  0  0  0  0  0  0  0  0  0
   -3.2380   22.6180  -32.7040 O   0  0  0  0  0  0  0  0  0  0  0  0
   -2.8850   22.7130  -30.3720 C   0  0  0  0  0  0  0  0  0  0  0  0
   -1.7270   22.2230  -30.4470 O   0  0  0  0  0  0  0  0  0  0  0  0
   -3.3760   23.2430  -29.1310 N   0  0  0  0  0  0  0  0  0  0  0  0
   -2.7960   23.0530  -27.7960 C   0  0  2  0  0  0  0  0  0  0  0  0
   -1.8900   24.2450  -27.3790 C   0  0  0  0  0  0  0  0  0  0  0  0
   -1.0520   24.8360  -28.4780 C   0  0  0  0  0  0  0  0  0  0  0  0
   -1.5380   25.7060  -29.2480 O   0  0  0  0  0  0  0  0  0  0  0  0
    0.2850   24.4870  -28.6040 O   0  0  0  0  0  0  0  0  0  0  0  0
   -2.2020   21.6590  -27.6190 C   0  0  0  0  0  0  0  0  0  0  0  0
   -2.9670   20.5510  -27.2050 C   0  0  0  0  0  0  0  0  0  0  0  0
   -2.3660   19.3040  -27.0130 C   0  0  0  0  0  0  0  0  0  0  0  0
   -0.9970   19.1430  -27.2250 C   0  0  0  0  0  0  0  0  0  0  0  0
   -0.2230   20.2330  -27.6320 C   0  0  0  0  0  0  0  0  0  0  0  0
    1.5020   20.0310  -27.8880 Cl  0  0  0  0  0  0  0  0  0  0  0  0
   -0.8180   21.4850  -27.8220 C   0  0  0  0  0  0  0  0  0  0  0  0
   -6.1190   21.9680  -31.7720 C   0  0  0  0  0  0  0  0  0  0  0  0
   -5.9330   20.6860  -32.2980 C   0  0  0  0  0  0  0  0  0  0  0  0
   -7.5431   17.5258  -31.3419 H   0  0  0  0  0  0  0  0  0  0  0  0
   -8.6697   17.4093  -32.7362 H   0  0  0  0  0  0  0  0  0  0  0  0
   -7.1402   16.4674  -32.7362 H   0  0  0  0  0  0  0  0  0  0  0  0
   -5.0956   17.9364  -33.9509 H   0  0  0  0  0  0  0  0  0  0  0  0
   -6.5673   17.4745  -34.8714 H   0  0  0  0  0  0  0  0  0  0  0  0
   -6.0067   19.1810  -34.8714 H   0  0  0  0  0  0  0  0  0  0  0  0
   -9.2569   19.8408  -32.5749 H   0  0  0  0  0  0  0  0  0  0  0  0
   -9.5185   22.1756  -31.6857 H   0  0  0  0  0  0  0  0  0  0  0  0
   -8.0403   24.4609  -30.8219 H   0  0  0  0  0  0  0  0  0  0  0  0
   -3.1110   25.0830  -30.4270 H   0  0  0  0  0  0  0  0  0  0  0  0
   -3.6094   23.0775  -27.0559 H   0  0  0  0  0  0  0  0  0  0  0  0
   -2.5378   25.0403  -26.9817 H   0  0  0  0  0  0  0  0  0  0  0  0
   -1.1804   23.8416  -26.6417 H   0  0  0  0  0  0  0  0  0  0  0  0
   -4.0468   20.6683  -27.0313 H   0  0  0  0  0  0  0  0  0  0  0  0
   -2.9753   18.4458  -26.6933 H   0  0  0  0  0  0  0  0  0  0  0  0
   -0.5275   18.1601  -27.0722 H   0  0  0  0  0  0  0  0  0  0  0  0
   -0.2005   22.3408  -28.1324 H   0  0  0  0  0  0  0  0  0  0  0  0
   -4.9202   20.3010  -32.4877 H   0  0  0  0  0  0  0  0  0  0  0  0
  1  2  1  0
  2  3  1  0
  2  4  1  0
  4  5  2  0
  5  6  1  0
  6  7  2  0
  7  8  1  0
  8  9  2  0
  9 10  1  0
 10 11  1  0
 10 12  2  0
  9 13  1  0
 13 14  1  0
 14 15  2  0
 14 16  1  0
 16 17  2  0
 16 18  1  0
 18 19  1  0
 19 20  1  0
 20 21  1  0
 21 22  2  0
 21 23  1  0
 19 24  1  0
 24 25  2  0
 25 26  1  0
 26 27  2  0
 27 28  1  0
 28 29  1  0
 28 30  2  0
 13 31  1  0
 31 32  2  0
 32  4  1  0
 31  7  1  0
 30 24  1  0
  1 33  1  0
  1 34  1  0
  1 35  1  0
  3 36  1  0
  3 37  1  0
  3 38  1  0
  5 39  1  0
  6 40  1  0
  8 41  1  0
 11 42  1  0
 19 43  1  1
 20 44  1  0
 20 45  1  0
 25 46  1  0
 26 47  1  0
 27 48  1  0
 30 49  1  0
 32 50  1  0
M  CHG  3  11  -1  18  -1  23  -1
M  END
>  <UniqueID>  (66) 
65

>  <SMILES>  (66) 
CN(C)c1ccc2cc(C([NH-])=O)n(C(=O)C(=O)[N-][C@H](CC(=O)[O-])c3cccc(Cl)c3)c2c1

>  <Energy>  (66) 
96.60057149541167

>  <Genealogy>  (66) 
CN(C)c1ccc2cc(C([NH-])=O)n(C(=O)C(=O)[N-]C(CC(=O)[O-])c3cccc(Cl)c3)c2c1 (protonated)
CN(C)c1ccc2cc(C([NH-])=O)n(C(=O)C(=O)[N-][C@H](CC(=O)[O-])c3cccc(Cl)c3)c2c1 (chirality)
CN(C)c1ccc2cc(C([NH-])=O)n(C(=O)C(=O)[N-][C@H](CC(=O)[O-])c3cccc(Cl)c3)c2c1 (3D coordinates assigned)
CN(C)c1ccc2cc(C([NH-])=O)n(C(=O)C(=O)[N-][C@H](CC(=O)[O-])c3cccc(Cl)c3)c2c1 (optimized conformer: 96.60057149541167 kcal/mol)

>  <smiles>  (66) 
CN(C)c1ccc2cc(C(N)=O)n(C(=O)C(=O)NC(CC(=O)O)c3cccc(Cl)c3)c2c1

>  <score_type>  (66) 
oracle

>  <origin>  (66) 
adg

>  <m_score__min__energy>  (66) 
-14.82

>  <m_primary>  (66) 
energy

$$$$
66:0
     RDKit          3D

 41 42  0  0  0  0  0  0  0  0999 V2000
   -6.8540   17.2840  -32.7170 C   0  0  0  0  0  0  0  0  0  0  0  0
   -6.9770   18.4540  -32.4670 C   0  0  0  0  0  0  0  0  0  0  0  0
   -7.1210   19.8550  -32.1580 C   0  0  0  0  0  0  0  0  0  0  0  0
   -8.4030   20.4540  -32.1770 C   0  0  0  0  0  0  0  0  0  0  0  0
   -8.5590   21.8210  -31.8910 C   0  0  0  0  0  0  0  0  0  0  0  0
   -7.4160   22.5550  -31.5820 C   0  0  0  0  0  0  0  0  0  0  0  0
   -7.2760   23.8810  -31.2300 C   0  0  0  0  0  0  0  0  0  0  0  0
   -5.9160   24.0490  -30.9750 C   0  0  0  0  0  0  0  0  0  0  0  0
   -5.3220   25.2930  -30.4500 C   0  0  0  0  0  0  0  0  0  0  0  0
   -4.0020   25.6720  -30.8350 N   0  0  0  0  0  0  0  0  0  0  0  0
   -5.9800   26.0320  -29.6700 O   0  0  0  0  0  0  0  0  0  0  0  0
   -5.2460   22.8830  -31.1840 N   0  0  0  0  0  0  0  0  0  0  0  0
   -3.8540   22.6250  -30.9630 C   0  0  0  0  0  0  0  0  0  0  0  0
   -2.9950   23.3090  -31.5840 O   0  0  0  0  0  0  0  0  0  0  0  0
   -3.4340   21.5900  -30.0560 N   0  0  0  0  0  0  0  0  0  0  0  0
   -2.9040   20.3470  -30.6020 C   0  0  0  0  0  0  0  0  0  0  0  0
   -3.0240   21.9960  -28.4110 S   0  0  0  0  0  0  0  0  0  0  0  0
   -2.4580   20.7970  -27.7040 O   0  0  0  0  0  0  0  0  0  0  0  0
   -4.2710   22.4260  -27.6910 O   0  0  0  0  0  0  0  0  0  0  0  0
   -1.8360   23.3340  -28.3570 C   0  0  0  0  0  0  0  0  0  0  0  0
   -2.5120   24.6960  -28.2780 C   0  0  0  0  0  0  0  0  0  0  0  0
   -1.7080   25.6590  -28.9320 O   0  0  0  0  0  0  0  0  0  0  0  0
   -0.8580   26.2940  -27.9950 C   0  0  0  0  0  0  0  0  0  0  0  0
   -6.1730   21.9760  -31.5390 C   0  0  0  0  0  0  0  0  0  0  0  0
   -5.9860   20.6250  -31.8410 C   0  0  0  0  0  0  0  0  0  0  0  0
   -6.7415   16.2139  -32.9456 H   0  0  0  0  0  0  0  0  0  0  0  0
   -9.2859   19.8437  -32.4180 H   0  0  0  0  0  0  0  0  0  0  0  0
   -9.5510   22.2958  -31.9105 H   0  0  0  0  0  0  0  0  0  0  0  0
   -8.0673   24.6423  -31.1645 H   0  0  0  0  0  0  0  0  0  0  0  0
   -3.1670   25.1780  -30.4680 H   0  0  0  0  0  0  0  0  0  0  0  0
   -2.6183   19.6769  -29.7778 H   0  0  0  0  0  0  0  0  0  0  0  0
   -3.6730   19.8607  -31.2201 H   0  0  0  0  0  0  0  0  0  0  0  0
   -2.0207   20.5652  -31.2201 H   0  0  0  0  0  0  0  0  0  0  0  0
   -1.1951   23.2041  -27.4725 H   0  0  0  0  0  0  0  0  0  0  0  0
   -1.2461   23.3015  -29.2849 H   0  0  0  0  0  0  0  0  0  0  0  0
   -3.4959   24.6462  -28.7673 H   0  0  0  0  0  0  0  0  0  0  0  0
   -2.6416   24.9810  -27.2235 H   0  0  0  0  0  0  0  0  0  0  0  0
   -1.1878   26.0476  -26.9749 H   0  0  0  0  0  0  0  0  0  0  0  0
    0.1747   25.9444  -28.1410 H   0  0  0  0  0  0  0  0  0  0  0  0
   -0.9004   27.3835  -28.1410 H   0  0  0  0  0  0  0  0  0  0  0  0
   -4.9818   20.1762  -31.8314 H   0  0  0  0  0  0  0  0  0  0  0  0
  1  2  3  0
  2  3  1  0
  3  4  2  0
  4  5  1  0
  5  6  2  0
  6  7  1  0
  7  8  2  0
  8  9  1  0
  9 10  1  0
  9 11  2  0
  8 12  1  0
 12 13  1  0
 13 14  2  0
 13 15  1  0
 15 16  1  0
 15 17  1  0
 17 18  2  0
 17 19  2  0
 17 20  1  0
 20 21  1  0
 21 22  1  0
 22 23  1  0
 12 24  1  0
 24 25  2  0
 25  3  1  0
 24  6  1  0
  1 26  1  0
  4 27  1  0
  5 28  1  0
  7 29  1  0
 10 30  1  0
 16 31  1  0
 16 32  1  0
 16 33  1  0
 20 34  1  0
 20 35  1  0
 21 36  1  0
 21 37  1  0
 23 38  1  0
 23 39  1  0
 23 40  1  0
 25 41  1  0
M  CHG  1  10  -1
M  END
>  <UniqueID>  (67) 
66

>  <SMILES>  (67) 
C#Cc1ccc2cc(C([NH-])=O)n(C(=O)N(C)S(=O)(=O)CCOC)c2c1

>  <Energy>  (67) 
76.22166025109925

>  <Genealogy>  (67) 
C#Cc1ccc2cc(C([NH-])=O)n(C(=O)N(C)S(=O)(=O)CCOC)c2c1 (protonated)
C#Cc1ccc2cc(C([NH-])=O)n(C(=O)N(C)S(=O)(=O)CCOC)c2c1 (3D coordinates assigned)
C#Cc1ccc2cc(C([NH-])=O)n(C(=O)N(C)S(=O)(=O)CCOC)c2c1 (optimized conformer: 76.22166025109925 kcal/mol)

>  <smiles>  (67) 
C#Cc1ccc2cc(C(N)=O)n(C(=O)N(C)S(=O)(=O)CCOC)c2c1

>  <score_type>  (67) 
oracle

>  <origin>  (67) 
adg

>  <m_score__min__energy>  (67) 
-11.380000000000001

>  <m_primary>  (67) 
energy

$$$$
67:0
     RDKit          3D

 39 41  0  0  0  0  0  0  0  0999 V2000
   -4.1820   25.6780  -30.8390 N   0  0  0  0  0  0  0  0  0  0  0  0
   -5.3600   25.0640  -30.3230 C   0  0  0  0  0  0  0  0  0  0  0  0
   -5.9150   25.5520  -29.3020 O   0  0  0  0  0  0  0  0  0  0  0  0
   -5.9040   23.8320  -30.9320 C   0  0  0  0  0  0  0  0  0  0  0  0
   -7.2670   23.5850  -31.0770 C   0  0  0  0  0  0  0  0  0  0  0  0
   -7.3550   22.3150  -31.5960 C   0  0  0  0  0  0  0  0  0  0  0  0
   -8.4730   21.5680  -31.9510 C   0  0  0  0  0  0  0  0  0  0  0  0
   -8.2690   20.2900  -32.4960 C   0  0  0  0  0  0  0  0  0  0  0  0
   -6.9530   19.7850  -32.6890 C   0  0  0  0  0  0  0  0  0  0  0  0
   -6.7190   18.4840  -33.2620 N   0  0  0  0  0  0  0  0  0  0  0  0
   -5.5550   18.1440  -34.0820 C   0  0  0  0  0  0  0  0  0  0  0  0
   -5.4420   16.6960  -34.2260 N   0  0  0  0  0  0  0  0  0  0  0  0
   -4.3320   16.0190  -34.5730 C   0  0  0  0  0  0  0  0  0  0  0  0
   -4.6260   14.6730  -34.5660 C   0  0  0  0  0  0  0  0  0  0  0  0
   -5.9540   14.6050  -34.1890 C   0  0  0  0  0  0  0  0  0  0  0  0
   -6.4300   15.8490  -33.9820 N   0  0  0  0  0  0  0  0  0  0  0  0
   -5.8450   20.5750  -32.3110 C   0  0  0  0  0  0  0  0  0  0  0  0
   -6.0800   21.8360  -31.7530 C   0  0  0  0  0  0  0  0  0  0  0  0
   -5.1760   22.7580  -31.3520 N   0  0  0  0  0  0  0  0  0  0  0  0
   -3.7490   22.6530  -31.4560 C   0  0  0  0  0  0  0  0  0  0  0  0
   -3.2340   21.7510  -32.1730 O   0  0  0  0  0  0  0  0  0  0  0  0
   -2.9340   23.5680  -30.7790 O   0  0  0  0  0  0  0  0  0  0  0  0
   -2.1660   23.2290  -29.6270 C   0  0  0  0  0  0  0  0  0  0  0  0
   -1.2100   24.3290  -29.2950 C   0  0  0  0  0  0  0  0  0  0  0  0
   -0.0220   24.0590  -28.9740 O   0  0  0  0  0  0  0  0  0  0  0  0
   -1.6350   25.6510  -29.3110 O   0  0  0  0  0  0  0  0  0  0  0  0
   -3.2360   25.3040  -30.6090 H   0  0  0  0  0  0  0  0  0  0  0  0
   -8.0972   24.2626  -30.8288 H   0  0  0  0  0  0  0  0  0  0  0  0
   -9.4882   21.9669  -31.8089 H   0  0  0  0  0  0  0  0  0  0  0  0
   -9.1355   19.6731  -32.7765 H   0  0  0  0  0  0  0  0  0  0  0  0
   -7.3960   17.7160  -33.0540 H   0  0  0  0  0  0  0  0  0  0  0  0
   -5.6664   18.5999  -35.0768 H   0  0  0  0  0  0  0  0  0  0  0  0
   -4.6478   18.5265  -33.5914 H   0  0  0  0  0  0  0  0  0  0  0  0
   -3.3568   16.4641  -34.8200 H   0  0  0  0  0  0  0  0  0  0  0  0
   -3.9527   13.8372  -34.8071 H   0  0  0  0  0  0  0  0  0  0  0  0
   -6.5340   13.6773  -34.0752 H   0  0  0  0  0  0  0  0  0  0  0  0
   -4.8183   20.2063  -32.4525 H   0  0  0  0  0  0  0  0  0  0  0  0
   -2.8428   23.0677  -28.7750 H   0  0  0  0  0  0  0  0  0  0  0  0
   -1.5956   22.3120  -29.8360 H   0  0  0  0  0  0  0  0  0  0  0  0
  1  2  1  0
  2  3  2  0
  2  4  1  0
  4  5  2  0
  5  6  1  0
  6  7  2  0
  7  8  1  0
  8  9  2  0
  9 10  1  0
 10 11  1  0
 11 12  1  0
 12 13  1  0
 13 14  2  0
 14 15  1  0
 15 16  2  0
  9 17  1  0
 17 18  2  0
 18 19  1  0
 19 20  1  0
 20 21  2  0
 20 22  1  0
 22 23  1  0
 23 24  1  0
 24 25  2  0
 24 26  1  0
 19  4  1  0
 18  6  1  0
 16 12  1  0
  1 27  1  0
  5 28  1  0
  7 29  1  0
  8 30  1  0
 10 31  1  0
 11 32  1  0
 11 33  1  0
 13 34  1  0
 14 35  1  0
 15 36  1  0
 17 37  1  0
 23 38  1  0
 23 39  1  0
M  CHG  2   1  -1  26  -1
M  END
>  <UniqueID>  (68) 
67

>  <SMILES>  (68) 
[NH-]C(=O)c1cc2ccc(NCn3cccn3)cc2n1C(=O)OCC(=O)[O-]

>  <Energy>  (68) 
106.2976048440646

>  <Genealogy>  (68) 
[NH-]C(=O)c1cc2ccc(NCn3cccn3)cc2n1C(=O)OCC(=O)[O-] (protonated)
[NH-]C(=O)c1cc2ccc(NCn3cccn3)cc2n1C(=O)OCC(=O)[O-] (3D coordinates assigned)
[NH-]C(=O)c1cc2ccc(NCn3cccn3)cc2n1C(=O)OCC(=O)[O-] (optimized conformer: 106.2976048440646 kcal/mol)

>  <smiles>  (68) 
NC(=O)c1cc2ccc(NCn3cccn3)cc2n1C(=O)OCC(=O)O

>  <score_type>  (68) 
oracle

>  <origin>  (68) 
adg

>  <m_score__min__energy>  (68) 
-12.08

>  <m_primary>  (68) 
energy

$$$$
68:0
     RDKit          3D

 32 33  0  0  0  0  0  0  0  0999 V2000
   -3.7670   22.4440  -28.3030 C   0  0  0  0  0  0  0  0  0  0  0  0
   -3.1550   22.9600  -29.5310 N   0  0  0  0  0  0  0  0  0  0  0  0
   -2.0510   23.8820  -29.4410 C   0  0  0  0  0  0  0  0  0  0  0  0
   -0.8650   23.4560  -29.4220 O   0  0  0  0  0  0  0  0  0  0  0  0
   -2.2740   25.2510  -29.3500 O   0  0  0  0  0  0  0  0  0  0  0  0
   -3.7030   22.5930  -30.8150 C   0  0  0  0  0  0  0  0  0  0  0  0
   -2.9420   22.1720  -31.7280 O   0  0  0  0  0  0  0  0  0  0  0  0
   -5.1180   22.6600  -31.0560 N   0  0  0  0  0  0  0  0  0  0  0  0
   -5.9460   23.7270  -30.8710 C   0  0  0  0  0  0  0  0  0  0  0  0
   -5.5110   25.0890  -30.4850 C   0  0  0  0  0  0  0  0  0  0  0  0
   -4.1670   25.5190  -30.7050 N   0  0  0  0  0  0  0  0  0  0  0  0
   -6.3260   25.8800  -29.9390 O   0  0  0  0  0  0  0  0  0  0  0  0
   -7.2610   23.3790  -31.1800 C   0  0  0  0  0  0  0  0  0  0  0  0
   -7.2080   22.0580  -31.5670 C   0  0  0  0  0  0  0  0  0  0  0  0
   -8.2250   21.2030  -31.9810 C   0  0  0  0  0  0  0  0  0  0  0  0
   -7.8790   19.8810  -32.3100 C   0  0  0  0  0  0  0  0  0  0  0  0
   -6.5350   19.4410  -32.2170 C   0  0  0  0  0  0  0  0  0  0  0  0
   -6.1890   18.0230  -32.5710 C   0  0  0  0  0  0  0  0  0  0  0  0
   -6.9170   17.6270  -33.6770 F   0  0  0  0  0  0  0  0  0  0  0  0
   -6.4870   17.1900  -31.5060 F   0  0  0  0  0  0  0  0  0  0  0  0
   -5.5290   20.3390  -31.7960 C   0  0  0  0  0  0  0  0  0  0  0  0
   -5.9020   21.6510  -31.4860 C   0  0  0  0  0  0  0  0  0  0  0  0
   -3.2559   22.8750  -27.4295 H   0  0  0  0  0  0  0  0  0  0  0  0
   -4.8311   22.7216  -28.2790 H   0  0  0  0  0  0  0  0  0  0  0  0
   -3.6733   21.3483  -28.2790 H   0  0  0  0  0  0  0  0  0  0  0  0
   -3.8650   26.4700  -30.3950 H   0  0  0  0  0  0  0  0  0  0  0  0
   -3.4790   24.9220  -31.2140 H   0  0  0  0  0  0  0  0  0  0  0  0
   -8.1513   24.0228  -31.1261 H   0  0  0  0  0  0  0  0  0  0  0  0
   -9.2664   21.5507  -32.0486 H   0  0  0  0  0  0  0  0  0  0  0  0
   -8.6593   19.1808  -32.6430 H   0  0  0  0  0  0  0  0  0  0  0  0
   -5.1143   17.9612  -32.7972 H   0  0  0  0  0  0  0  0  0  0  0  0
   -4.4809   20.0153  -31.7142 H   0  0  0  0  0  0  0  0  0  0  0  0
  1  2  1  0
  2  3  1  0
  3  4  2  0
  3  5  1  0
  2  6  1  0
  6  7  2  0
  6  8  1  0
  8  9  1  0
  9 10  1  0
 10 11  1  0
 10 12  2  0
  9 13  2  0
 13 14  1  0
 14 15  2  0
 15 16  1  0
 16 17  2  0
 17 18  1  0
 18 19  1  0
 18 20  1  0
 17 21  1  0
 21 22  2  0
 22  8  1  0
 22 14  1  0
  1 23  1  0
  1 24  1  0
  1 25  1  0
 11 26  1  0
 11 27  1  0
 13 28  1  0
 15 29  1  0
 16 30  1  0
 18 31  1  0
 21 32  1  0
M  CHG  1   5  -1
M  END
>  <UniqueID>  (69) 
68

>  <SMILES>  (69) 
CN(C(=O)[O-])C(=O)n1c(C(N)=O)cc2ccc(C(F)F)cc21

>  <Energy>  (69) 
72.53773157429053

>  <Genealogy>  (69) 
CN(C(=O)[O-])C(=O)n1c(C(N)=O)cc2ccc(C(F)F)cc21 (protonated)
CN(C(=O)[O-])C(=O)n1c(C(N)=O)cc2ccc(C(F)F)cc21 (3D coordinates assigned)
CN(C(=O)[O-])C(=O)n1c(C(N)=O)cc2ccc(C(F)F)cc21 (optimized conformer: 72.53773157429053 kcal/mol)

>  <smiles>  (69) 
CN(C(=O)O)C(=O)n1c(C(N)=O)cc2ccc(C(F)F)cc21

>  <score_type>  (69) 
oracle

>  <origin>  (69) 
adg

>  <m_score__min__energy>  (69) 
-9.75

>  <m_primary>  (69) 
energy

$$$$
69:0
     RDKit          3D

 33 34  0  0  0  0  0  0  0  0999 V2000
   -6.0980   18.2900  -34.0890 C   0  0  0  0  0  0  0  0  0  0  0  0
   -6.7070   18.3350  -32.6900 C   0  0  0  0  0  0  0  0  0  0  0  0
   -7.9160   17.6590  -32.7000 F   0  0  0  0  0  0  0  0  0  0  0  0
   -5.8630   17.6810  -31.8080 F   0  0  0  0  0  0  0  0  0  0  0  0
   -6.9110   19.7690  -32.2540 C   0  0  0  0  0  0  0  0  0  0  0  0
   -8.1960   20.3660  -32.3330 C   0  0  0  0  0  0  0  0  0  0  0  0
   -8.3910   21.7060  -31.9600 C   0  0  0  0  0  0  0  0  0  0  0  0
   -7.2830   22.4320  -31.5360 C   0  0  0  0  0  0  0  0  0  0  0  0
   -7.1920   23.7370  -31.1070 C   0  0  0  0  0  0  0  0  0  0  0  0
   -5.8450   23.9360  -30.8130 C   0  0  0  0  0  0  0  0  0  0  0  0
   -5.2860   25.2400  -30.3970 C   0  0  0  0  0  0  0  0  0  0  0  0
   -4.0140   25.6550  -30.8900 N   0  0  0  0  0  0  0  0  0  0  0  0
   -5.9030   25.9770  -29.5840 O   0  0  0  0  0  0  0  0  0  0  0  0
   -5.1320   22.7960  -31.0440 N   0  0  0  0  0  0  0  0  0  0  0  0
   -3.7320   22.5700  -30.8190 C   0  0  0  0  0  0  0  0  0  0  0  0
   -3.1740   21.5480  -31.3060 O   0  0  0  0  0  0  0  0  0  0  0  0
   -2.9890   23.4970  -30.0790 O   0  0  0  0  0  0  0  0  0  0  0  0
   -1.7510   23.1820  -29.4470 C   0  0  0  0  0  0  0  0  0  0  0  0
   -1.0060   24.4350  -29.1140 C   0  0  0  0  0  0  0  0  0  0  0  0
    0.1460   24.3740  -28.6100 O   0  0  0  0  0  0  0  0  0  0  0  0
   -1.5970   25.6730  -29.3360 O   0  0  0  0  0  0  0  0  0  0  0  0
   -6.0270   21.8870  -31.4890 C   0  0  0  0  0  0  0  0  0  0  0  0
   -5.8070   20.5490  -31.8370 C   0  0  0  0  0  0  0  0  0  0  0  0
   -5.0038   18.2092  -34.0102 H   0  0  0  0  0  0  0  0  0  0  0  0
   -6.4918   17.4185  -34.6325 H   0  0  0  0  0  0  0  0  0  0  0  0
   -6.3595   19.2099  -34.6325 H   0  0  0  0  0  0  0  0  0  0  0  0
   -9.0499   19.7720  -32.6908 H   0  0  0  0  0  0  0  0  0  0  0  0
   -9.3889   22.1669  -32.0019 H   0  0  0  0  0  0  0  0  0  0  0  0
   -8.0094   24.4674  -31.0158 H   0  0  0  0  0  0  0  0  0  0  0  0
   -3.1310   25.3010  -30.4590 H   0  0  0  0  0  0  0  0  0  0  0  0
   -1.9481   22.6201  -28.5221 H   0  0  0  0  0  0  0  0  0  0  0  0
   -1.1425   22.5751  -30.1335 H   0  0  0  0  0  0  0  0  0  0  0  0
   -4.7980   20.1138  -31.7873 H   0  0  0  0  0  0  0  0  0  0  0  0
  1  2  1  0
  2  3  1  0
  2  4  1  0
  2  5  1  0
  5  6  2  0
  6  7  1  0
  7  8  2  0
  8  9  1  0
  9 10  2  0
 10 11  1  0
 11 12  1  0
 11 13  2  0
 10 14  1  0
 14 15  1  0
 15 16  2  0
 15 17  1  0
 17 18  1  0
 18 19  1  0
 19 20  2  0
 19 21  1  0
 14 22  1  0
 22 23  2  0
 23  5  1  0
 22  8  1  0
  1 24  1  0
  1 25  1  0
  1 26  1  0
  6 27  1  0
  7 28  1  0
  9 29  1  0
 12 30  1  0
 18 31  1  0
 18 32  1  0
 23 33  1  0
M  CHG  2  12  -1  21  -1
M  END
>  <UniqueID>  (70) 
69

>  <SMILES>  (70) 
CC(F)(F)c1ccc2cc(C([NH-])=O)n(C(=O)OCC(=O)[O-])c2c1

>  <Energy>  (70) 
67.99592007076691

>  <Genealogy>  (70) 
CC(F)(F)c1ccc2cc(C([NH-])=O)n(C(=O)OCC(=O)[O-])c2c1 (protonated)
CC(F)(F)c1ccc2cc(C([NH-])=O)n(C(=O)OCC(=O)[O-])c2c1 (3D coordinates assigned)
CC(F)(F)c1ccc2cc(C([NH-])=O)n(C(=O)OCC(=O)[O-])c2c1 (optimized conformer: 67.99592007076691 kcal/mol)

>  <smiles>  (70) 
CC(F)(F)c1ccc2cc(C(N)=O)n(C(=O)OCC(=O)O)c2c1

>  <score_type>  (70) 
oracle

>  <origin>  (70) 
adg

>  <m_score__min__energy>  (70) 
-12.119999999999999

>  <m_primary>  (70) 
energy

$$$$
70:0
     RDKit          3D

 42 43  0  0  0  0  0  0  0  0999 V2000
   -7.2300   17.3520  -32.6790 C   0  0  0  0  0  0  0  0  0  0  0  0
   -6.6410   18.5300  -33.3260 N   0  0  0  0  0  0  0  0  0  0  0  0
   -5.8540   18.3470  -34.5510 C   0  0  0  0  0  0  0  0  0  0  0  0
   -6.8350   19.8550  -32.7650 C   0  0  0  0  0  0  0  0  0  0  0  0
   -8.1450   20.3670  -32.5450 C   0  0  0  0  0  0  0  0  0  0  0  0
   -8.3420   21.6460  -31.9960 C   0  0  0  0  0  0  0  0  0  0  0  0
   -7.2190   22.4020  -31.6830 C   0  0  0  0  0  0  0  0  0  0  0  0
   -7.1220   23.6560  -31.1210 C   0  0  0  0  0  0  0  0  0  0  0  0
   -5.7550   23.9100  -31.0190 C   0  0  0  0  0  0  0  0  0  0  0  0
   -5.1910   25.1760  -30.5070 C   0  0  0  0  0  0  0  0  0  0  0  0
   -3.8650   25.5800  -30.8410 N   0  0  0  0  0  0  0  0  0  0  0  0
   -5.9000   25.9290  -29.7870 O   0  0  0  0  0  0  0  0  0  0  0  0
   -5.0400   22.8540  -31.5010 N   0  0  0  0  0  0  0  0  0  0  0  0
   -3.6130   22.6940  -31.5100 C   0  0  0  0  0  0  0  0  0  0  0  0
   -3.0370   22.3000  -32.5590 O   0  0  0  0  0  0  0  0  0  0  0  0
   -2.8160   22.9760  -30.3090 C   0  0  0  0  0  0  0  0  0  0  0  0
   -1.5580   22.9010  -30.3570 O   0  0  0  0  0  0  0  0  0  0  0  0
   -3.4660   23.3370  -29.1230 O   0  0  0  0  0  0  0  0  0  0  0  0
   -2.8420   23.3220  -27.8390 C   0  0  0  0  0  0  0  0  0  0  0  0
   -2.5590   24.7470  -27.3460 C   0  0  0  0  0  0  0  0  0  0  0  0
   -1.2920   25.3570  -27.9500 C   0  0  0  0  0  0  0  0  0  0  0  0
   -1.4950   25.6560  -29.3030 O   0  0  0  0  0  0  0  0  0  0  0  0
   -5.9500   21.9410  -31.8990 C   0  0  0  0  0  0  0  0  0  0  0  0
   -5.7200   20.6660  -32.4240 C   0  0  0  0  0  0  0  0  0  0  0  0
   -7.1727   17.4666  -31.5865 H   0  0  0  0  0  0  0  0  0  0  0  0
   -8.2828   17.2548  -32.9827 H   0  0  0  0  0  0  0  0  0  0  0  0
   -6.6761   16.4515  -32.9827 H   0  0  0  0  0  0  0  0  0  0  0  0
   -4.8141   18.1052  -34.2861 H   0  0  0  0  0  0  0  0  0  0  0  0
   -6.2824   17.5245  -35.1426 H   0  0  0  0  0  0  0  0  0  0  0  0
   -5.8756   19.2741  -35.1426 H   0  0  0  0  0  0  0  0  0  0  0  0
   -9.0176   19.7515  -32.8090 H   0  0  0  0  0  0  0  0  0  0  0  0
   -9.3550   22.0367  -31.8195 H   0  0  0  0  0  0  0  0  0  0  0  0
   -7.9476   24.3165  -30.8173 H   0  0  0  0  0  0  0  0  0  0  0  0
   -3.0360   25.0910  -30.4360 H   0  0  0  0  0  0  0  0  0  0  0  0
   -3.5076   22.8193  -27.1219 H   0  0  0  0  0  0  0  0  0  0  0  0
   -1.8859   22.7844  -27.9214 H   0  0  0  0  0  0  0  0  0  0  0  0
   -3.4147   25.3848  -27.6125 H   0  0  0  0  0  0  0  0  0  0  0  0
   -2.4063   24.6907  -26.2581 H   0  0  0  0  0  0  0  0  0  0  0  0
   -1.0396   26.2803  -27.4080 H   0  0  0  0  0  0  0  0  0  0  0  0
   -0.4689   24.6325  -27.8628 H   0  0  0  0  0  0  0  0  0  0  0  0
   -2.0570   24.9220  -29.6650 H   0  0  0  0  0  0  0  0  0  0  0  0
   -4.6940   20.2975  -32.5704 H   0  0  0  0  0  0  0  0  0  0  0  0
  1  2  1  0
  2  3  1  0
  2  4  1  0
  4  5  2  0
  5  6  1  0
  6  7  2  0
  7  8  1  0
  8  9  2  0
  9 10  1  0
 10 11  1  0
 10 12  2  0
  9 13  1  0
 13 14  1  0
 14 15  2  0
 14 16  1  0
 16 17  2  0
 16 18  1  0
 18 19  1  0
 19 20  1  0
 20 21  1  0
 21 22  1  0
 13 23  1  0
 23 24  2  0
 24  4  1  0
 23  7  1  0
  1 25  1  0
  1 26  1  0
  1 27  1  0
  3 28  1  0
  3 29  1  0
  3 30  1  0
  5 31  1  0
  6 32  1  0
  8 33  1  0
 11 34  1  0
 19 35  1  0
 19 36  1  0
 20 37  1  0
 20 38  1  0
 21 39  1  0
 21 40  1  0
 22 41  1  0
 24 42  1  0
M  CHG  1  11  -1
M  END
>  <UniqueID>  (71) 
70

>  <SMILES>  (71) 
CN(C)c1ccc2cc(C([NH-])=O)n(C(=O)C(=O)OCCCO)c2c1

>  <Energy>  (71) 
77.65493063163683

>  <Genealogy>  (71) 
CN(C)c1ccc2cc(C([NH-])=O)n(C(=O)C(=O)OCCCO)c2c1 (protonated)
CN(C)c1ccc2cc(C([NH-])=O)n(C(=O)C(=O)OCCCO)c2c1 (3D coordinates assigned)
CN(C)c1ccc2cc(C([NH-])=O)n(C(=O)C(=O)OCCCO)c2c1 (optimized conformer: 77.65493063163683 kcal/mol)

>  <smiles>  (71) 
CN(C)c1ccc2cc(C(N)=O)n(C(=O)C(=O)OCCCO)c2c1

>  <score_type>  (71) 
oracle

>  <origin>  (71) 
adg

>  <m_score__min__energy>  (71) 
-10.300000000000001

>  <m_primary>  (71) 
energy

$$$$
71:0
     RDKit          3D

 36 37  0  0  0  0  0  0  0  0999 V2000
   -3.8720   25.5830  -30.8960 N   0  0  0  0  0  0  0  0  0  0  0  0
   -5.1660   25.1340  -30.5020 C   0  0  0  0  0  0  0  0  0  0  0  0
   -5.8940   25.8880  -29.8040 O   0  0  0  0  0  0  0  0  0  0  0  0
   -5.6840   23.8240  -30.9480 C   0  0  0  0  0  0  0  0  0  0  0  0
   -7.0400   23.5020  -30.9670 C   0  0  0  0  0  0  0  0  0  0  0  0
   -7.1090   22.2450  -31.5220 C   0  0  0  0  0  0  0  0  0  0  0  0
   -8.2140   21.4340  -31.7690 C   0  0  0  0  0  0  0  0  0  0  0  0
   -7.9860   20.1630  -32.3240 C   0  0  0  0  0  0  0  0  0  0  0  0
   -6.6710   19.7330  -32.6110 C   0  0  0  0  0  0  0  0  0  0  0  0
   -6.4500   18.4240  -33.1670 C   0  0  0  0  0  0  0  0  0  0  0  0
   -6.2660   17.3270  -33.6330 C   0  0  0  0  0  0  0  0  0  0  0  0
   -6.0420   15.9940  -34.1980 C   0  0  0  0  0  0  0  0  0  0  0  0
   -7.2410   15.2690  -34.2080 O   0  0  0  0  0  0  0  0  0  0  0  0
   -5.5730   20.5770  -32.3500 C   0  0  0  0  0  0  0  0  0  0  0  0
   -5.8300   21.8450  -31.8130 C   0  0  0  0  0  0  0  0  0  0  0  0
   -4.9420   22.8030  -31.4640 N   0  0  0  0  0  0  0  0  0  0  0  0
   -3.5120   22.7040  -31.5280 C   0  0  0  0  0  0  0  0  0  0  0  0
   -2.9670   22.0930  -32.4870 O   0  0  0  0  0  0  0  0  0  0  0  0
   -2.7310   23.2690  -30.5140 O   0  0  0  0  0  0  0  0  0  0  0  0
   -2.7570   22.8230  -29.1590 C   0  0  0  0  0  0  0  0  0  0  0  0
   -2.4880   23.9890  -28.2080 C   0  0  0  0  0  0  0  0  0  0  0  0
   -1.3860   24.8530  -28.7340 C   0  0  0  0  0  0  0  0  0  0  0  0
   -1.5940   26.0730  -28.9670 O   0  0  0  0  0  0  0  0  0  0  0  0
   -0.1150   24.3240  -28.9190 O   0  0  0  0  0  0  0  0  0  0  0  0
   -3.0190   25.2870  -30.3720 H   0  0  0  0  0  0  0  0  0  0  0  0
   -7.8773   24.1215  -30.6133 H   0  0  0  0  0  0  0  0  0  0  0  0
   -9.2330   21.7773  -31.5370 H   0  0  0  0  0  0  0  0  0  0  0  0
   -8.8367   19.4988  -32.5363 H   0  0  0  0  0  0  0  0  0  0  0  0
   -5.6679   16.0932  -35.2277 H   0  0  0  0  0  0  0  0  0  0  0  0
   -5.3032   15.4606  -33.5818 H   0  0  0  0  0  0  0  0  0  0  0  0
   -7.3730   14.9490  -35.1390 H   0  0  0  0  0  0  0  0  0  0  0  0
   -4.5444   20.2497  -32.5617 H   0  0  0  0  0  0  0  0  0  0  0  0
   -3.7459   22.3954  -28.9373 H   0  0  0  0  0  0  0  0  0  0  0  0
   -1.9755   22.0616  -29.0193 H   0  0  0  0  0  0  0  0  0  0  0  0
   -3.4028   24.5914  -28.1066 H   0  0  0  0  0  0  0  0  0  0  0  0
   -2.1873   23.5867  -27.2294 H   0  0  0  0  0  0  0  0  0  0  0  0
  1  2  1  0
  2  3  2  0
  2  4  1  0
  4  5  2  0
  5  6  1  0
  6  7  2  0
  7  8  1  0
  8  9  2  0
  9 10  1  0
 10 11  3  0
 11 12  1  0
 12 13  1  0
  9 14  1  0
 14 15  2  0
 15 16  1  0
 16 17  1  0
 17 18  2  0
 17 19  1  0
 19 20  1  0
 20 21  1  0
 21 22  1  0
 22 23  2  0
 22 24  1  0
 16  4  1  0
 15  6  1  0
  1 25  1  0
  5 26  1  0
  7 27  1  0
  8 28  1  0
 12 29  1  0
 12 30  1  0
 13 31  1  0
 14 32  1  0
 20 33  1  0
 20 34  1  0
 21 35  1  0
 21 36  1  0
M  CHG  2   1  -1  24  -1
M  END
>  <UniqueID>  (72) 
71

>  <SMILES>  (72) 
[NH-]C(=O)c1cc2ccc(C#CCO)cc2n1C(=O)OCCC(=O)[O-]

>  <Energy>  (72) 
66.23641872683534

>  <Genealogy>  (72) 
[NH-]C(=O)c1cc2ccc(C#CCO)cc2n1C(=O)OCCC(=O)[O-] (protonated)
[NH-]C(=O)c1cc2ccc(C#CCO)cc2n1C(=O)OCCC(=O)[O-] (3D coordinates assigned)
[NH-]C(=O)c1cc2ccc(C#CCO)cc2n1C(=O)OCCC(=O)[O-] (optimized conformer: 66.23641872683534 kcal/mol)

>  <smiles>  (72) 
NC(=O)c1cc2ccc(C#CCO)cc2n1C(=O)OCCC(=O)O

>  <score_type>  (72) 
oracle

>  <origin>  (72) 
adg

>  <m_score__min__energy>  (72) 
-12.52

>  <m_primary>  (72) 
energy

$$$$
72:0
     RDKit          3D

 51 54  0  0  0  0  0  0  0  0999 V2000
   -6.6050   18.2410  -32.3360 C   0  0  0  0  0  0  0  0  0  0  0  0
   -6.8260   19.6950  -32.0430 C   0  0  0  0  0  0  0  0  0  0  0  0
   -8.1180   20.2590  -32.1760 C   0  0  0  0  0  0  0  0  0  0  0  0
   -8.3270   21.6300  -31.9480 C   0  0  0  0  0  0  0  0  0  0  0  0
   -7.2270   22.4070  -31.5960 C   0  0  0  0  0  0  0  0  0  0  0  0
   -7.1410   23.7570  -31.3420 C   0  0  0  0  0  0  0  0  0  0  0  0
   -5.7990   23.9950  -31.0520 C   0  0  0  0  0  0  0  0  0  0  0  0
   -5.2780   25.3140  -30.6350 C   0  0  0  0  0  0  0  0  0  0  0  0
   -3.9040   25.6320  -30.8460 N   0  0  0  0  0  0  0  0  0  0  0  0
   -6.0380   26.1760  -30.1230 O   0  0  0  0  0  0  0  0  0  0  0  0
   -5.0810   22.8390  -31.1310 N   0  0  0  0  0  0  0  0  0  0  0  0
   -3.6640   22.6630  -30.9490 C   0  0  0  0  0  0  0  0  0  0  0  0
   -2.8900   22.8090  -31.9320 O   0  0  0  0  0  0  0  0  0  0  0  0
   -3.1330   22.3700  -29.6400 N   0  0  0  0  0  0  0  0  0  0  0  0
   -2.6040   21.0370  -29.4680 C   0  0  0  0  0  0  0  0  0  0  0  0
   -2.2360   20.6210  -28.3390 O   0  0  0  0  0  0  0  0  0  0  0  0
   -2.4520   20.2010  -30.5690 O   0  0  0  0  0  0  0  0  0  0  0  0
   -3.1280   23.3640  -28.5270 C   0  0  0  0  0  0  0  0  0  0  0  0
   -1.9750   24.3360  -28.4170 C   0  0  0  0  0  0  0  0  0  0  0  0
   -1.9300   25.2930  -29.2360 O   0  0  0  0  0  0  0  0  0  0  0  0
   -0.9100   24.1610  -27.4500 N   0  0  0  0  0  0  0  0  0  0  0  0
    0.2480   25.0660  -27.4440 C   0  0  0  0  0  0  0  0  0  0  0  0
    1.5710   24.2720  -27.3750 C   0  0  0  0  0  0  0  0  0  0  0  0
    1.4540   22.9620  -26.7030 N   0  0  0  0  0  0  0  0  0  0  0  0
    0.3680   22.9340  -25.7170 C   0  0  0  0  0  0  0  0  0  0  0  0
   -0.9880   23.1230  -26.4090 C   0  0  0  0  0  0  0  0  0  0  0  0
   -4.4830   23.9850  -28.1600 C   0  0  0  0  0  0  0  0  0  0  0  0
   -3.8360   22.9610  -27.2360 C   0  0  0  0  0  0  0  0  0  0  0  0
   -5.9700   21.8760  -31.4620 C   0  0  0  0  0  0  0  0  0  0  0  0
   -5.7320   20.5180  -31.7020 C   0  0  0  0  0  0  0  0  0  0  0  0
   -6.5205   17.6852  -31.3905 H   0  0  0  0  0  0  0  0  0  0  0  0
   -7.4541   17.8507  -32.9162 H   0  0  0  0  0  0  0  0  0  0  0  0
   -5.6782   18.1206  -32.9162 H   0  0  0  0  0  0  0  0  0  0  0  0
   -8.9658   19.6183  -32.4603 H   0  0  0  0  0  0  0  0  0  0  0  0
   -9.3283   22.0750  -32.0447 H   0  0  0  0  0  0  0  0  0  0  0  0
   -7.9587   24.4925  -31.3634 H   0  0  0  0  0  0  0  0  0  0  0  0
   -3.1860   24.8790  -30.9340 H   0  0  0  0  0  0  0  0  0  0  0  0
    0.2380   25.6690  -28.3639 H   0  0  0  0  0  0  0  0  0  0  0  0
    0.1816   25.7140  -26.5576 H   0  0  0  0  0  0  0  0  0  0  0  0
    1.9262   24.1027  -28.4022 H   0  0  0  0  0  0  0  0  0  0  0  0
    2.2711   24.8738  -26.7769 H   0  0  0  0  0  0  0  0  0  0  0  0
    1.2660   22.2260  -27.4250 H   0  0  0  0  0  0  0  0  0  0  0  0
    0.3769   21.9655  -25.1955 H   0  0  0  0  0  0  0  0  0  0  0  0
    0.5184   23.7523  -24.9974 H   0  0  0  0  0  0  0  0  0  0  0  0
   -1.2913   22.1721  -26.8714 H   0  0  0  0  0  0  0  0  0  0  0  0
   -1.7247   23.4378  -25.6553 H   0  0  0  0  0  0  0  0  0  0  0  0
   -4.5405   25.0409  -27.8570 H   0  0  0  0  0  0  0  0  0  0  0  0
   -5.4587   24.0758  -28.6598 H   0  0  0  0  0  0  0  0  0  0  0  0
   -3.4287   23.2783  -26.2647 H   0  0  0  0  0  0  0  0  0  0  0  0
   -4.1551   22.0064  -26.7923 H   0  0  0  0  0  0  0  0  0  0  0  0
   -4.7164   20.1022  -31.6266 H   0  0  0  0  0  0  0  0  0  0  0  0
  1  2  1  0
  2  3  2  0
  3  4  1  0
  4  5  2  0
  5  6  1  0
  6  7  2  0
  7  8  1  0
  8  9  1  0
  8 10  2  0
  7 11  1  0
 11 12  1  0
 12 13  2  0
 12 14  1  0
 14 15  1  0
 15 16  2  0
 15 17  1  0
 14 18  1  0
 18 19  1  0
 19 20  2  0
 19 21  1  0
 21 22  1  0
 22 23  1  0
 23 24  1  0
 24 25  1  0
 25 26  1  0
 18 27  1  0
 27 28  1  0
 11 29  1  0
 29 30  2  0
 30  2  1  0
 29  5  1  0
 28 18  1  0
 26 21  1  0
  1 31  1  0
  1 32  1  0
  1 33  1  0
  3 34  1  0
  4 35  1  0
  6 36  1  0
  9 37  1  0
 22 38  1  0
 22 39  1  0
 23 40  1  0
 23 41  1  0
 24 42  1  0
 25 43  1  0
 25 44  1  0
 26 45  1  0
 26 46  1  0
 27 47  1  0
 27 48  1  0
 28 49  1  0
 28 50  1  0
 30 51  1  0
M  CHG  2   9  -1  17  -1
M  END
>  <UniqueID>  (73) 
72

>  <SMILES>  (73) 
Cc1ccc2cc(C([NH-])=O)n(C(=O)N(C(=O)[O-])C3(C(=O)N4CCNCC4)CC3)c2c1

>  <Energy>  (73) 
376.01207758816406

>  <Genealogy>  (73) 
Cc1ccc2cc(C([NH-])=O)n(C(=O)N(C(=O)[O-])C3(C(=O)N4CCNCC4)CC3)c2c1 (protonated)
Cc1ccc2cc(C([NH-])=O)n(C(=O)N(C(=O)[O-])C3(C(=O)N4CCNCC4)CC3)c2c1 (3D coordinates assigned)
Cc1ccc2cc(C([NH-])=O)n(C(=O)N(C(=O)[O-])C3(C(=O)N4CCNCC4)CC3)c2c1 (nonaromatic ring conformer: 376.01207758816406 kcal/mol)

>  <smiles>  (73) 
Cc1ccc2cc(C(N)=O)n(C(=O)N(C(=O)O)C3(C(=O)N4CCNCC4)CC3)c2c1

>  <score_type>  (73) 
oracle

>  <origin>  (73) 
adg

>  <m_score__min__energy>  (73) 
-12.65

>  <m_primary>  (73) 
energy

$$$$
73:0
     RDKit          3D

 35 37  0  0  0  0  0  0  0  0999 V2000
   -3.4290   19.1170  -33.2050 C   0  0  0  0  0  0  0  0  0  0  0  0
   -4.8380   19.3030  -33.5830 N   0  0  0  0  0  0  0  0  0  0  0  0
   -5.5800   20.3650  -32.9450 C   0  0  0  0  0  0  0  0  0  0  0  0
   -6.9980   20.3490  -32.9530 C   0  0  0  0  0  0  0  0  0  0  0  0
   -7.7320   21.3740  -32.3320 C   0  0  0  0  0  0  0  0  0  0  0  0
   -7.0260   22.4050  -31.7230 C   0  0  0  0  0  0  0  0  0  0  0  0
   -7.4870   23.4980  -31.0260 C   0  0  0  0  0  0  0  0  0  0  0  0
   -6.3450   24.1890  -30.6320 C   0  0  0  0  0  0  0  0  0  0  0  0
   -6.3860   25.4760  -29.9080 C   0  0  0  0  0  0  0  0  0  0  0  0
   -5.5450   26.5660  -30.2860 N   0  0  0  0  0  0  0  0  0  0  0  0
   -7.2190   25.6360  -28.9760 O   0  0  0  0  0  0  0  0  0  0  0  0
   -5.2190   23.5440  -31.0530 N   0  0  0  0  0  0  0  0  0  0  0  0
   -3.8540   23.8800  -30.7520 C   0  0  0  0  0  0  0  0  0  0  0  0
   -2.9690   22.9830  -30.7290 O   0  0  0  0  0  0  0  0  0  0  0  0
   -3.4960   25.1930  -30.4700 O   0  0  0  0  0  0  0  0  0  0  0  0
   -5.6550   22.4530  -31.7230 C   0  0  0  0  0  0  0  0  0  0  0  0
   -4.9000   21.4360  -32.3170 C   0  0  0  0  0  0  0  0  0  0  0  0
   -5.5500   18.3770  -34.4900 C   0  0  0  0  0  0  0  0  0  0  0  0
   -6.3520   17.3200  -33.7680 C   0  0  0  0  0  0  0  0  0  0  0  0
   -5.5280   16.2780  -34.2410 O   0  0  0  0  0  0  0  0  0  0  0  0
   -4.7390   17.1910  -34.9700 C   0  0  0  0  0  0  0  0  0  0  0  0
   -3.3420   19.1055  -32.1085 H   0  0  0  0  0  0  0  0  0  0  0  0
   -3.0631   18.1628  -33.6119 H   0  0  0  0  0  0  0  0  0  0  0  0
   -2.8280   19.9436  -33.6119 H   0  0  0  0  0  0  0  0  0  0  0  0
   -7.5296   19.5247  -33.4510 H   0  0  0  0  0  0  0  0  0  0  0  0
   -8.8319   21.3608  -32.3280 H   0  0  0  0  0  0  0  0  0  0  0  0
   -8.5340   23.7679  -30.8235 H   0  0  0  0  0  0  0  0  0  0  0  0
   -4.9580   26.5190  -31.1460 H   0  0  0  0  0  0  0  0  0  0  0  0
   -5.5670   27.4600  -29.7450 H   0  0  0  0  0  0  0  0  0  0  0  0
   -3.8007   21.4679  -32.2965 H   0  0  0  0  0  0  0  0  0  0  0  0
   -5.9766   19.1291  -35.1700 H   0  0  0  0  0  0  0  0  0  0  0  0
   -6.3363   17.4290  -32.6735 H   0  0  0  0  0  0  0  0  0  0  0  0
   -7.4366   17.2625  -33.9423 H   0  0  0  0  0  0  0  0  0  0  0  0
   -3.6877   17.2183  -34.6473 H   0  0  0  0  0  0  0  0  0  0  0  0
   -4.6054   17.0374  -36.0510 H   0  0  0  0  0  0  0  0  0  0  0  0
  1  2  1  0
  2  3  1  0
  3  4  2  0
  4  5  1  0
  5  6  2  0
  6  7  1  0
  7  8  2  0
  8  9  1  0
  9 10  1  0
  9 11  2  0
  8 12  1  0
 12 13  1  0
 13 14  2  0
 13 15  1  0
 12 16  1  0
 16 17  2  0
  2 18  1  0
 18 19  1  0
 19 20  1  0
 20 21  1  0
 17  3  1  0
 21 18  1  0
 16  6  1  0
  1 22  1  0
  1 23  1  0
  1 24  1  0
  4 25  1  0
  5 26  1  0
  7 27  1  0
 10 28  1  0
 10 29  1  0
 17 30  1  0
 18 31  1  0
 19 32  1  0
 19 33  1  0
 21 34  1  0
 21 35  1  0
M  CHG  1  15  -1
M  END
>  <UniqueID>  (74) 
73

>  <SMILES>  (74) 
CN(c1ccc2cc(C(N)=O)n(C(=O)[O-])c2c1)C1COC1

>  <Energy>  (74) 
146.027744333685

>  <Genealogy>  (74) 
CN(c1ccc2cc(C(N)=O)n(C(=O)[O-])c2c1)C1COC1 (protonated)
CN(c1ccc2cc(C(N)=O)n(C(=O)[O-])c2c1)C1COC1 (3D coordinates assigned)
CN(c1ccc2cc(C(N)=O)n(C(=O)[O-])c2c1)C1COC1 (nonaromatic ring conformer: 146.027744333685 kcal/mol)

>  <smiles>  (74) 
CN(c1ccc2cc(C(N)=O)n(C(=O)O)c2c1)C1COC1

>  <score_type>  (74) 
oracle

>  <origin>  (74) 
adg

>  <m_score__min__energy>  (74) 
-8.9100000000000001

>  <m_primary>  (74) 
energy

$$$$
74:0
     RDKit          3D

 44 46  0  0  0  0  0  0  0  0999 V2000
   -3.5010   26.0180  -31.2110 H   0  0  0  0  0  0  0  0  0  0  0  0
   -3.8660   25.3630  -30.4850 N   0  0  0  0  0  0  0  0  0  0  0  0
   -5.2640   25.1140  -30.3570 C   0  0  0  0  0  0  0  0  0  0  0  0
   -5.9950   25.9780  -29.8040 O   0  0  0  0  0  0  0  0  0  0  0  0
   -5.8360   23.8490  -30.8590 C   0  0  0  0  0  0  0  0  0  0  0  0
   -7.2020   23.6220  -31.0210 C   0  0  0  0  0  0  0  0  0  0  0  0
   -8.0258   24.3074  -30.7730 H   0  0  0  0  0  0  0  0  0  0  0  0
   -7.3010   22.3560  -31.5580 C   0  0  0  0  0  0  0  0  0  0  0  0
   -8.4230   21.6200  -31.9260 C   0  0  0  0  0  0  0  0  0  0  0  0
   -9.4357   22.0343  -31.8129 H   0  0  0  0  0  0  0  0  0  0  0  0
   -8.2210   20.3300  -32.4470 C   0  0  0  0  0  0  0  0  0  0  0  0
   -9.0864   19.7234  -32.7523 H   0  0  0  0  0  0  0  0  0  0  0  0
   -6.9130   19.8050  -32.5820 C   0  0  0  0  0  0  0  0  0  0  0  0
   -6.7230   18.4850  -33.0910 N   0  0  0  0  0  0  0  0  0  0  0  0
   -7.1300   17.1110  -32.7410 C   0  0  0  0  0  0  0  0  0  0  0  0
   -8.2192   16.9653  -32.7895 H   0  0  0  0  0  0  0  0  0  0  0  0
   -6.9023   16.7649  -31.7220 H   0  0  0  0  0  0  0  0  0  0  0  0
   -6.4070   16.4410  -33.8660 C   0  0  0  0  0  0  0  0  0  0  0  0
   -6.8693   15.7476  -34.5839 H   0  0  0  0  0  0  0  0  0  0  0  0
   -5.2970   15.6040  -33.4010 N   0  0  0  0  0  0  0  0  0  0  0  0
   -4.4140   16.0380  -33.0540 H   0  0  0  0  0  0  0  0  0  0  0  0
   -5.3670   14.1760  -33.4570 C   0  0  0  0  0  0  0  0  0  0  0  0
   -6.3840   13.6070  -33.9410 O   0  0  0  0  0  0  0  0  0  0  0  0
   -4.2950   13.4190  -32.9740 O   0  0  0  0  0  0  0  0  0  0  0  0
   -4.2290   12.9550  -31.6290 C   0  0  0  0  0  0  0  0  0  0  0  0
   -4.3499   13.8051  -30.9415 H   0  0  0  0  0  0  0  0  0  0  0  0
   -5.0322   12.2243  -31.4534 H   0  0  0  0  0  0  0  0  0  0  0  0
   -3.2539   12.4772  -31.4534 H   0  0  0  0  0  0  0  0  0  0  0  0
   -6.0050   17.8440  -34.2070 C   0  0  0  0  0  0  0  0  0  0  0  0
   -6.3761   18.1651  -35.1915 H   0  0  0  0  0  0  0  0  0  0  0  0
   -4.9281   18.0502  -34.2955 H   0  0  0  0  0  0  0  0  0  0  0  0
   -5.7990   20.5790  -32.2020 C   0  0  0  0  0  0  0  0  0  0  0  0
   -4.7765   20.1851  -32.2988 H   0  0  0  0  0  0  0  0  0  0  0  0
   -6.0310   21.8630  -31.6980 C   0  0  0  0  0  0  0  0  0  0  0  0
   -5.1240   22.7620  -31.2690 N   0  0  0  0  0  0  0  0  0  0  0  0
   -3.6980   22.5890  -31.2740 C   0  0  0  0  0  0  0  0  0  0  0  0
   -3.1110   22.3430  -32.3600 O   0  0  0  0  0  0  0  0  0  0  0  0
   -2.9030   22.6650  -30.0340 C   0  0  0  0  0  0  0  0  0  0  0  0
   -3.2689   22.1431  -29.1375 H   0  0  0  0  0  0  0  0  0  0  0  0
   -1.7520   23.3460  -29.9590 C   0  0  0  0  0  0  0  0  0  0  0  0
   -1.3803   23.8620  -30.8565 H   0  0  0  0  0  0  0  0  0  0  0  0
   -0.9690   23.4270  -28.7180 C   0  0  0  0  0  0  0  0  0  0  0  0
   -1.2675   22.8172  -27.8525 H   0  0  0  0  0  0  0  0  0  0  0  0
    0.0370   24.1800  -28.6240 O   0  0  0  0  0  0  0  0  0  0  0  0
  1  2  1  0
  2  3  1  0
  3  4  2  0
  3  5  1  0
  5  6  2  0
  6  7  1  0
  6  8  1  0
  8  9  2  0
  9 10  1  0
  9 11  1  0
 11 12  1  0
 11 13  2  0
 13 14  1  0
 14 15  1  0
 15 16  1  0
 15 17  1  0
 15 18  1  0
 18 19  1  0
 18 20  1  0
 20 21  1  0
 20 22  1  0
 22 23  2  0
 22 24  1  0
 24 25  1  0
 25 26  1  0
 25 27  1  0
 25 28  1  0
 18 29  1  0
 29 30  1  0
 29 31  1  0
 13 32  1  0
 32 33  1  0
 32 34  2  0
 34 35  1  0
 35 36  1  0
 36 37  2  0
 36 38  1  0
 38 39  1  0
 38 40  2  0
 40 41  1  0
 40 42  1  0
 42 43  1  0
 42 44  2  0
 35  5  1  0
 34  8  1  0
 29 14  1  0
M  CHG  1   2  -1
M  END
>  <UniqueID>  (75) 
74

>  <SMILES>  (75) 
COC(=O)NC1CN(c2ccc3cc(C([NH-])=O)n(C(=O)/C=C/C=O)c3c2)C1

>  <Energy>  (75) 
123.7088749152624

>  <Genealogy>  (75) 
COC(=O)NC1CN(c2ccc3cc(C([NH-])=O)n(C(=O)C=CC=O)c3c2)C1 (protonated)
COC(=O)NC1CN(c2ccc3cc(C([NH-])=O)n(C(=O)/C=C/C=O)c3c2)C1 (cis-trans isomerization)
COC(=O)NC1CN(c2ccc3cc(C([NH-])=O)n(C(=O)/C=C/C=O)c3c2)C1 (3D coordinates assigned)
COC(=O)NC1CN(c2ccc3cc(C([NH-])=O)n(C(=O)/C=C/C=O)c3c2)C1 (nonaromatic ring conformer: 123.7088749152624 kcal/mol)

>  <smiles>  (75) 
COC(=O)NC1CN(c2ccc3cc(C(N)=O)n(C(=O)C=CC=O)c3c2)C1

>  <score_type>  (75) 
oracle

>  <origin>  (75) 
adg

>  <m_score__min__energy>  (75) 
-10.800000000000001

>  <m_primary>  (75) 
energy

$$$$
75:0
     RDKit          3D

 35 36  0  0  0  0  0  0  0  0999 V2000
   -1.4520   20.6840  -31.2070 C   0  0  0  0  0  0  0  0  0  0  0  0
   -1.9890   21.1680  -32.4830 N   0  0  0  0  0  0  0  0  0  0  0  0
   -1.3250   20.7900  -33.7360 C   0  0  0  0  0  0  0  0  0  0  0  0
   -3.2120   21.9380  -32.5540 C   0  0  0  0  0  0  0  0  0  0  0  0
   -3.8370   21.9940  -33.6490 O   0  0  0  0  0  0  0  0  0  0  0  0
   -3.7750   22.6730  -31.3940 C   0  0  0  0  0  0  0  0  0  0  0  0
   -3.0280   23.1320  -30.4910 O   0  0  0  0  0  0  0  0  0  0  0  0
   -5.1900   22.8860  -31.2970 N   0  0  0  0  0  0  0  0  0  0  0  0
   -5.8360   24.0270  -30.9290 C   0  0  0  0  0  0  0  0  0  0  0  0
   -5.1930   25.2700  -30.4490 C   0  0  0  0  0  0  0  0  0  0  0  0
   -3.8670   25.6100  -30.8440 N   0  0  0  0  0  0  0  0  0  0  0  0
   -5.8160   26.0300  -29.6620 O   0  0  0  0  0  0  0  0  0  0  0  0
   -7.2170   23.8570  -31.0280 C   0  0  0  0  0  0  0  0  0  0  0  0
   -7.3950   22.5670  -31.4750 C   0  0  0  0  0  0  0  0  0  0  0  0
   -8.5650   21.8680  -31.7620 C   0  0  0  0  0  0  0  0  0  0  0  0
   -8.4450   20.5490  -32.2340 C   0  0  0  0  0  0  0  0  0  0  0  0
   -7.1690   19.9630  -32.4270 C   0  0  0  0  0  0  0  0  0  0  0  0
   -7.0540   18.5460  -32.9110 C   0  0  0  0  0  0  0  0  0  0  0  0
   -6.0970   18.4710  -34.0190 C   0  0  0  0  0  0  0  0  0  0  0  0
   -5.3410   18.4130  -34.8930 N   0  0  0  0  0  0  0  0  0  0  0  0
   -6.0050   20.7010  -32.1190 C   0  0  0  0  0  0  0  0  0  0  0  0
   -6.1550   22.0050  -31.6340 C   0  0  0  0  0  0  0  0  0  0  0  0
   -1.9880   21.1671  -30.3768 H   0  0  0  0  0  0  0  0  0  0  0  0
   -1.5839   19.5938  -31.1436 H   0  0  0  0  0  0  0  0  0  0  0  0
   -0.3813   20.9281  -31.1436 H   0  0  0  0  0  0  0  0  0  0  0  0
   -0.3896   20.2575  -33.5091 H   0  0  0  0  0  0  0  0  0  0  0  0
   -1.9882   20.1341  -34.3190 H   0  0  0  0  0  0  0  0  0  0  0  0
   -1.0995   21.6951  -34.3190 H   0  0  0  0  0  0  0  0  0  0  0  0
   -3.0420   25.2920  -30.2890 H   0  0  0  0  0  0  0  0  0  0  0  0
   -7.9980   24.5966  -30.7978 H   0  0  0  0  0  0  0  0  0  0  0  0
   -9.5521   22.3333  -31.6237 H   0  0  0  0  0  0  0  0  0  0  0  0
   -9.3509   19.9658  -32.4558 H   0  0  0  0  0  0  0  0  0  0  0  0
   -6.7072   17.9063  -32.0861 H   0  0  0  0  0  0  0  0  0  0  0  0
   -8.0389   18.2027  -33.2605 H   0  0  0  0  0  0  0  0  0  0  0  0
   -5.0059   20.2620  -32.2568 H   0  0  0  0  0  0  0  0  0  0  0  0
  1  2  1  0
  2  3  1  0
  2  4  1  0
  4  5  2  0
  4  6  1  0
  6  7  2  0
  6  8  1  0
  8  9  1  0
  9 10  1  0
 10 11  1  0
 10 12  2  0
  9 13  2  0
 13 14  1  0
 14 15  2  0
 15 16  1  0
 16 17  2  0
 17 18  1  0
 18 19  1  0
 19 20  3  0
 17 21  1  0
 21 22  2  0
 22  8  1  0
 22 14  1  0
  1 23  1  0
  1 24  1  0
  1 25  1  0
  3 26  1  0
  3 27  1  0
  3 28  1  0
 11 29  1  0
 13 30  1  0
 15 31  1  0
 16 32  1  0
 18 33  1  0
 18 34  1  0
 21 35  1  0
M  CHG  1  11  -1
M  END
>  <UniqueID>  (76) 
75

>  <SMILES>  (76) 
CN(C)C(=O)C(=O)n1c(C([NH-])=O)cc2ccc(CC#N)cc21

>  <Energy>  (76) 
73.37514891481868

>  <Genealogy>  (76) 
CN(C)C(=O)C(=O)n1c(C([NH-])=O)cc2ccc(CC#N)cc21 (protonated)
CN(C)C(=O)C(=O)n1c(C([NH-])=O)cc2ccc(CC#N)cc21 (3D coordinates assigned)
CN(C)C(=O)C(=O)n1c(C([NH-])=O)cc2ccc(CC#N)cc21 (optimized conformer: 73.37514891481868 kcal/mol)

>  <smiles>  (76) 
CN(C)C(=O)C(=O)n1c(C(N)=O)cc2ccc(CC#N)cc21

>  <score_type>  (76) 
oracle

>  <origin>  (76) 
adg

>  <m_score__min__energy>  (76) 
-10.359999999999999

>  <m_primary>  (76) 
energy

$$$$
76:0
     RDKit          3D

 39 40  0  0  0  0  0  0  0  0999 V2000
   -4.2400   25.5360  -30.6630 N   0  0  0  0  0  0  0  0  0  0  0  0
   -5.5990   25.1730  -30.4100 C   0  0  0  0  0  0  0  0  0  0  0  0
   -6.3400   25.9730  -29.7810 O   0  0  0  0  0  0  0  0  0  0  0  0
   -6.1210   23.8600  -30.8460 C   0  0  0  0  0  0  0  0  0  0  0  0
   -7.4540   23.6300  -31.1800 C   0  0  0  0  0  0  0  0  0  0  0  0
   -7.5000   22.3230  -31.6080 C   0  0  0  0  0  0  0  0  0  0  0  0
   -8.5850   21.5640  -32.0360 C   0  0  0  0  0  0  0  0  0  0  0  0
   -8.3550   20.2230  -32.3840 C   0  0  0  0  0  0  0  0  0  0  0  0
   -7.0510   19.6680  -32.3090 C   0  0  0  0  0  0  0  0  0  0  0  0
   -6.8280   18.2100  -32.6220 C   0  0  0  0  0  0  0  0  0  0  0  0
   -6.4720   18.0440  -33.9490 F   0  0  0  0  0  0  0  0  0  0  0  0
   -7.9930   17.5080  -32.3770 F   0  0  0  0  0  0  0  0  0  0  0  0
   -5.8140   17.6910  -31.8340 F   0  0  0  0  0  0  0  0  0  0  0  0
   -5.9800   20.4660  -31.8450 C   0  0  0  0  0  0  0  0  0  0  0  0
   -6.2340   21.8060  -31.5250 C   0  0  0  0  0  0  0  0  0  0  0  0
   -5.3730   22.7390  -31.0570 N   0  0  0  0  0  0  0  0  0  0  0  0
   -3.9810   22.5530  -30.7470 C   0  0  0  0  0  0  0  0  0  0  0  0
   -3.0930   22.9850  -31.5310 O   0  0  0  0  0  0  0  0  0  0  0  0
   -3.6170   21.8830  -29.5760 O   0  0  0  0  0  0  0  0  0  0  0  0
   -4.0590   22.2820  -28.2830 C   0  0  0  0  0  0  0  0  0  0  0  0
   -3.3610   23.4570  -27.8850 O   0  0  0  0  0  0  0  0  0  0  0  0
   -2.0980   23.4210  -27.2840 C   0  0  0  0  0  0  0  0  0  0  0  0
   -1.7340   22.4190  -26.6090 O   0  0  0  0  0  0  0  0  0  0  0  0
   -1.1950   24.6070  -27.4020 C   0  0  0  0  0  0  0  0  0  0  0  0
   -0.9800   24.9860  -28.8700 C   0  0  0  0  0  0  0  0  0  0  0  0
   -2.1960   24.9830  -29.5710 O   0  0  0  0  0  0  0  0  0  0  0  0
   -3.8710   26.4520  -30.3250 H   0  0  0  0  0  0  0  0  0  0  0  0
   -3.6100   24.9190  -31.2220 H   0  0  0  0  0  0  0  0  0  0  0  0
   -8.2907   24.3412  -31.1154 H   0  0  0  0  0  0  0  0  0  0  0  0
   -9.5924   22.0012  -32.0998 H   0  0  0  0  0  0  0  0  0  0  0  0
   -9.1947   19.5960  -32.7183 H   0  0  0  0  0  0  0  0  0  0  0  0
   -4.9698   20.0440  -31.7377 H   0  0  0  0  0  0  0  0  0  0  0  0
   -5.1389   22.4892  -28.3123 H   0  0  0  0  0  0  0  0  0  0  0  0
   -3.8600   21.4753  -27.5622 H   0  0  0  0  0  0  0  0  0  0  0  0
   -1.6477   25.4585  -26.8728 H   0  0  0  0  0  0  0  0  0  0  0  0
   -0.2211   24.3528  -26.9583 H   0  0  0  0  0  0  0  0  0  0  0  0
   -0.5372   25.9916  -28.9213 H   0  0  0  0  0  0  0  0  0  0  0  0
   -0.3076   24.2464  -29.3292 H   0  0  0  0  0  0  0  0  0  0  0  0
   -2.4250   24.0320  -29.7370 H   0  0  0  0  0  0  0  0  0  0  0  0
  1  2  1  0
  2  3  2  0
  2  4  1  0
  4  5  2  0
  5  6  1  0
  6  7  2  0
  7  8  1  0
  8  9  2  0
  9 10  1  0
 10 11  1  0
 10 12  1  0
 10 13  1  0
  9 14  1  0
 14 15  2  0
 15 16  1  0
 16 17  1  0
 17 18  2  0
 17 19  1  0
 19 20  1  0
 20 21  1  0
 21 22  1  0
 22 23  2  0
 22 24  1  0
 24 25  1  0
 25 26  1  0
 16  4  1  0
 15  6  1  0
  1 27  1  0
  1 28  1  0
  5 29  1  0
  7 30  1  0
  8 31  1  0
 14 32  1  0
 20 33  1  0
 20 34  1  0
 24 35  1  0
 24 36  1  0
 25 37  1  0
 25 38  1  0
 26 39  1  0
M  END
>  <UniqueID>  (77) 
76

>  <SMILES>  (77) 
NC(=O)c1cc2ccc(C(F)(F)F)cc2n1C(=O)OCOC(=O)CCO

>  <Energy>  (77) 
70.87738257644345

>  <Genealogy>  (77) 
NC(=O)c1cc2ccc(C(F)(F)F)cc2n1C(=O)OCOC(=O)CCO (3D coordinates assigned)
NC(=O)c1cc2ccc(C(F)(F)F)cc2n1C(=O)OCOC(=O)CCO (optimized conformer: 70.87738257644345 kcal/mol)

>  <smiles>  (77) 
NC(=O)c1cc2ccc(C(F)(F)F)cc2n1C(=O)OCOC(=O)CCO

>  <score_type>  (77) 
oracle

>  <origin>  (77) 
adg

>  <m_score__min__energy>  (77) 
-8.0099999999999998

>  <m_primary>  (77) 
energy

$$$$
77:0
     RDKit          3D

 41 42  0  0  0  0  0  0  0  0999 V2000
    0.2480   20.5930  -32.3390 C   0  0  0  0  0  0  0  0  0  0  0  0
   -0.8800   21.5500  -31.9330 C   0  0  2  0  0  0  0  0  0  0  0  0
   -0.7850   21.9250  -30.4440 C   0  0  0  0  0  0  0  0  0  0  0  0
   -1.1040   23.2770  -30.2540 O   0  0  0  0  0  0  0  0  0  0  0  0
   -2.2030   20.9830  -32.2680 N   0  0  0  0  0  0  0  0  0  0  0  0
   -2.3100   19.5390  -32.4910 C   0  0  0  0  0  0  0  0  0  0  0  0
   -3.3880   21.8080  -32.2950 C   0  0  0  0  0  0  0  0  0  0  0  0
   -3.8520   22.1960  -33.4000 O   0  0  0  0  0  0  0  0  0  0  0  0
   -4.0690   22.2270  -31.0510 C   0  0  0  0  0  0  0  0  0  0  0  0
   -3.4770   22.1500  -29.9410 O   0  0  0  0  0  0  0  0  0  0  0  0
   -5.4030   22.7540  -31.0970 N   0  0  0  0  0  0  0  0  0  0  0  0
   -5.7910   24.0530  -30.9690 C   0  0  0  0  0  0  0  0  0  0  0  0
   -4.9060   25.1930  -30.6500 C   0  0  0  0  0  0  0  0  0  0  0  0
   -3.5030   25.0100  -30.4790 N   0  0  0  0  0  0  0  0  0  0  0  0
   -5.3980   26.3440  -30.5020 O   0  0  0  0  0  0  0  0  0  0  0  0
   -7.1700   24.1670  -31.1440 C   0  0  0  0  0  0  0  0  0  0  0  0
   -7.6150   22.8860  -31.3880 C   0  0  0  0  0  0  0  0  0  0  0  0
   -8.8950   22.4170  -31.6620 C   0  0  0  0  0  0  0  0  0  0  0  0
   -9.0540   21.0430  -31.9130 C   0  0  0  0  0  0  0  0  0  0  0  0
   -7.9400   20.1650  -31.8780 C   0  0  0  0  0  0  0  0  0  0  0  0
   -8.1120   18.7040  -32.2060 C   0  0  0  0  0  0  0  0  0  0  0  0
   -7.4840   18.3920  -33.3990 F   0  0  0  0  0  0  0  0  0  0  0  0
   -7.5680   17.9130  -31.2100 F   0  0  0  0  0  0  0  0  0  0  0  0
   -9.4610   18.4200  -32.3200 F   0  0  0  0  0  0  0  0  0  0  0  0
   -6.6510   20.6870  -31.6220 C   0  0  0  0  0  0  0  0  0  0  0  0
   -6.5270   22.0540  -31.3580 C   0  0  0  0  0  0  0  0  0  0  0  0
    0.7269   20.1867  -31.4359 H   0  0  0  0  0  0  0  0  0  0  0  0
   -0.1681   19.7682  -32.9361 H   0  0  0  0  0  0  0  0  0  0  0  0
    0.9940   21.1379  -32.9361 H   0  0  0  0  0  0  0  0  0  0  0  0
   -0.7608   22.4778  -32.5118 H   0  0  0  0  0  0  0  0  0  0  0  0
   -1.4875   21.3036  -29.8692 H   0  0  0  0  0  0  0  0  0  0  0  0
    0.2454   21.7521  -30.0999 H   0  0  0  0  0  0  0  0  0  0  0  0
   -2.0930   23.3460  -30.2930 H   0  0  0  0  0  0  0  0  0  0  0  0
   -2.3484   19.0202  -31.5218 H   0  0  0  0  0  0  0  0  0  0  0  0
   -3.2266   19.3227  -33.0593 H   0  0  0  0  0  0  0  0  0  0  0  0
   -1.4353   19.1899  -33.0593 H   0  0  0  0  0  0  0  0  0  0  0  0
   -3.0300   24.1360  -30.8030 H   0  0  0  0  0  0  0  0  0  0  0  0
   -7.7742   25.0850  -31.0972 H   0  0  0  0  0  0  0  0  0  0  0  0
   -9.7568   23.1002  -31.6818 H   0  0  0  0  0  0  0  0  0  0  0  0
  -10.0538   20.6439  -32.1392 H   0  0  0  0  0  0  0  0  0  0  0  0
   -5.7668   20.0327  -31.6304 H   0  0  0  0  0  0  0  0  0  0  0  0
  1  2  1  0
  2  3  1  0
  3  4  1  0
  2  5  1  0
  5  6  1  0
  5  7  1  0
  7  8  2  0
  7  9  1  0
  9 10  2  0
  9 11  1  0
 11 12  1  0
 12 13  1  0
 13 14  1  0
 13 15  2  0
 12 16  2  0
 16 17  1  0
 17 18  2  0
 18 19  1  0
 19 20  2  0
 20 21  1  0
 21 22  1  0
 21 23  1  0
 21 24  1  0
 20 25  1  0
 25 26  2  0
 26 11  1  0
 26 17  1  0
  1 27  1  0
  1 28  1  0
  1 29  1  0
  2 30  1  6
  3 31  1  0
  3 32  1  0
  4 33  1  0
  6 34  1  0
  6 35  1  0
  6 36  1  0
 14 37  1  0
 16 38  1  0
 18 39  1  0
 19 40  1  0
 25 41  1  0
M  CHG  1  14  -1
M  END
>  <UniqueID>  (78) 
77

>  <SMILES>  (78) 
C[C@H](CO)N(C)C(=O)C(=O)n1c(C([NH-])=O)cc2ccc(C(F)(F)F)cc21

>  <Energy>  (78) 
80.08840308613559

>  <Genealogy>  (78) 
CC(CO)N(C)C(=O)C(=O)n1c(C([NH-])=O)cc2ccc(C(F)(F)F)cc21 (protonated)
C[C@H](CO)N(C)C(=O)C(=O)n1c(C([NH-])=O)cc2ccc(C(F)(F)F)cc21 (chirality)
C[C@H](CO)N(C)C(=O)C(=O)n1c(C([NH-])=O)cc2ccc(C(F)(F)F)cc21 (3D coordinates assigned)
C[C@H](CO)N(C)C(=O)C(=O)n1c(C([NH-])=O)cc2ccc(C(F)(F)F)cc21 (optimized conformer: 80.08840308613559 kcal/mol)

>  <smiles>  (78) 
CC(CO)N(C)C(=O)C(=O)n1c(C(N)=O)cc2ccc(C(F)(F)F)cc21

>  <score_type>  (78) 
oracle

>  <origin>  (78) 
adg

>  <m_score__min__energy>  (78) 
-10.449999999999999

>  <m_primary>  (78) 
energy

$$$$
78:0
     RDKit          3D

 36 37  0  0  0  0  0  0  0  0999 V2000
   -8.7510   21.4430  -31.9230 C   0  0  0  0  0  0  0  0  0  0  0  0
   -8.5860   20.2440  -32.6710 O   0  0  0  0  0  0  0  0  0  0  0  0
   -8.3700   19.0030  -32.0650 C   0  0  0  0  0  0  0  0  0  0  0  0
   -9.3140   18.1780  -31.9330 O   0  0  0  0  0  0  0  0  0  0  0  0
   -6.9990   18.6520  -31.5820 C   0  0  0  0  0  0  0  0  0  0  0  0
   -6.2170   18.1230  -32.6490 O   0  0  0  0  0  0  0  0  0  0  0  0
   -5.6230   18.9200  -33.6340 C   0  0  0  0  0  0  0  0  0  0  0  0
   -5.0630   18.3990  -34.6370 O   0  0  0  0  0  0  0  0  0  0  0  0
   -5.6080   20.4050  -33.4640 C   0  0  0  0  0  0  0  0  0  0  0  0
   -4.4090   20.8170  -32.6570 C   0  0  0  0  0  0  0  0  0  0  0  0
   -3.2460   20.0060  -32.6500 C   0  0  0  0  0  0  0  0  0  0  0  0
   -2.1100   20.3920  -31.9180 C   0  0  0  0  0  0  0  0  0  0  0  0
   -2.1610   21.5960  -31.2220 C   0  0  0  0  0  0  0  0  0  0  0  0
   -1.2140   22.1970  -30.4240 C   0  0  0  0  0  0  0  0  0  0  0  0
   -1.7990   23.3810  -29.9840 C   0  0  0  0  0  0  0  0  0  0  0  0
   -1.0870   24.3840  -29.1640 C   0  0  0  0  0  0  0  0  0  0  0  0
   -1.6630   25.6710  -28.9600 N   0  0  0  0  0  0  0  0  0  0  0  0
    0.0090   24.1020  -28.6090 O   0  0  0  0  0  0  0  0  0  0  0  0
   -3.0620   23.5070  -30.4850 N   0  0  0  0  0  0  0  0  0  0  0  0
   -4.0160   24.5460  -30.2120 C   0  0  0  0  0  0  0  0  0  0  0  0
   -3.9190   25.6650  -30.7830 O   0  0  0  0  0  0  0  0  0  0  0  0
   -5.0700   24.3190  -29.3360 O   0  0  0  0  0  0  0  0  0  0  0  0
   -3.2660   22.4060  -31.2430 C   0  0  0  0  0  0  0  0  0  0  0  0
   -4.4180   22.0380  -31.9490 C   0  0  0  0  0  0  0  0  0  0  0  0
   -8.7192   21.2119  -30.8480 H   0  0  0  0  0  0  0  0  0  0  0  0
   -7.9409   22.1445  -32.1713 H   0  0  0  0  0  0  0  0  0  0  0  0
   -9.7204   21.8996  -32.1713 H   0  0  0  0  0  0  0  0  0  0  0  0
   -6.5109   19.5558  -31.1884 H   0  0  0  0  0  0  0  0  0  0  0  0
   -7.0830   17.8927  -30.7905 H   0  0  0  0  0  0  0  0  0  0  0  0
   -5.5640   20.8846  -34.4530 H   0  0  0  0  0  0  0  0  0  0  0  0
   -6.5223   20.7179  -32.9385 H   0  0  0  0  0  0  0  0  0  0  0  0
   -3.2327   19.0667  -33.2223 H   0  0  0  0  0  0  0  0  0  0  0  0
   -1.2086   19.7620  -31.8959 H   0  0  0  0  0  0  0  0  0  0  0  0
   -0.2082   21.8213  -30.1847 H   0  0  0  0  0  0  0  0  0  0  0  0
   -2.6980   25.8040  -28.9750 H   0  0  0  0  0  0  0  0  0  0  0  0
   -5.3079   22.6845  -31.9517 H   0  0  0  0  0  0  0  0  0  0  0  0
  1  2  1  0
  2  3  1  0
  3  4  2  0
  3  5  1  0
  5  6  1  0
  6  7  1  0
  7  8  2  0
  7  9  1  0
  9 10  1  0
 10 11  2  0
 11 12  1  0
 12 13  2  0
 13 14  1  0
 14 15  2  0
 15 16  1  0
 16 17  1  0
 16 18  2  0
 15 19  1  0
 19 20  1  0
 20 21  2  0
 20 22  1  0
 19 23  1  0
 23 24  2  0
 24 10  1  0
 23 13  1  0
  1 25  1  0
  1 26  1  0
  1 27  1  0
  5 28  1  0
  5 29  1  0
  9 30  1  0
  9 31  1  0
 11 32  1  0
 12 33  1  0
 14 34  1  0
 17 35  1  0
 24 36  1  0
M  CHG  2  17  -1  22  -1
M  END
>  <UniqueID>  (79) 
78

>  <SMILES>  (79) 
COC(=O)COC(=O)Cc1ccc2cc(C([NH-])=O)n(C(=O)[O-])c2c1

>  <Energy>  (79) 
68.88491533973078

>  <Genealogy>  (79) 
COC(=O)COC(=O)Cc1ccc2cc(C([NH-])=O)n(C(=O)[O-])c2c1 (protonated)
COC(=O)COC(=O)Cc1ccc2cc(C([NH-])=O)n(C(=O)[O-])c2c1 (3D coordinates assigned)
COC(=O)COC(=O)Cc1ccc2cc(C([NH-])=O)n(C(=O)[O-])c2c1 (optimized conformer: 68.88491533973078 kcal/mol)

>  <smiles>  (79) 
COC(=O)COC(=O)Cc1ccc2cc(C(N)=O)n(C(=O)O)c2c1

>  <score_type>  (79) 
oracle

>  <origin>  (79) 
adg

>  <m_score__min__energy>  (79) 
-10.619999999999999

>  <m_primary>  (79) 
energy

$$$$
79:0
     RDKit          3D

 34 35  0  0  0  0  0  0  0  0999 V2000
   -7.6610   18.5160  -32.9930 C   0  0  0  0  0  0  0  0  0  0  0  0
   -7.6280   19.8930  -32.4010 C   0  0  0  0  0  0  0  0  0  0  0  0
   -8.8350   20.6040  -32.1940 C   0  0  0  0  0  0  0  0  0  0  0  0
   -8.8160   21.9140  -31.6850 C   0  0  0  0  0  0  0  0  0  0  0  0
   -7.5790   22.4850  -31.4020 C   0  0  0  0  0  0  0  0  0  0  0  0
   -7.2720   23.7430  -30.9370 C   0  0  0  0  0  0  0  0  0  0  0  0
   -5.8810   23.7780  -30.8600 C   0  0  0  0  0  0  0  0  0  0  0  0
   -5.1270   24.9310  -30.3240 C   0  0  0  0  0  0  0  0  0  0  0  0
   -3.8560   25.2870  -30.8590 N   0  0  0  0  0  0  0  0  0  0  0  0
   -5.5900   25.5790  -29.3470 O   0  0  0  0  0  0  0  0  0  0  0  0
   -5.3480   22.5930  -31.2690 N   0  0  0  0  0  0  0  0  0  0  0  0
   -3.9580   22.2700  -31.4350 C   0  0  0  0  0  0  0  0  0  0  0  0
   -3.4310   22.3160  -32.5810 O   0  0  0  0  0  0  0  0  0  0  0  0
   -3.1900   21.9220  -30.3200 O   0  0  0  0  0  0  0  0  0  0  0  0
   -1.8440   21.4680  -30.4210 C   0  0  0  0  0  0  0  0  0  0  0  0
   -0.9150   22.4750  -29.7580 C   0  0  0  0  0  0  0  0  0  0  0  0
   -1.4020   23.7720  -29.9800 O   0  0  0  0  0  0  0  0  0  0  0  0
   -1.2160   24.6350  -28.5150 S   0  0  0  0  0  0  0  0  0  0  0  0
    0.2910   24.6430  -28.3050 O   0  0  0  0  0  0  0  0  0  0  0  0
   -1.5670   26.2390  -28.9570 O   0  0  0  0  0  0  0  0  0  0  0  0
   -6.4000   21.8100  -31.5960 C   0  0  0  0  0  0  0  0  0  0  0  0
   -6.3910   20.5110  -32.1190 C   0  0  0  0  0  0  0  0  0  0  0  0
   -7.6789   17.7698  -32.1850 H   0  0  0  0  0  0  0  0  0  0  0  0
   -8.5621   18.4054  -33.6142 H   0  0  0  0  0  0  0  0  0  0  0  0
   -6.7663   18.3624  -33.6142 H   0  0  0  0  0  0  0  0  0  0  0  0
   -9.7965   20.1266  -32.4338 H   0  0  0  0  0  0  0  0  0  0  0  0
   -9.7497   22.4704  -31.5157 H   0  0  0  0  0  0  0  0  0  0  0  0
   -7.9748   24.5494  -30.6806 H   0  0  0  0  0  0  0  0  0  0  0  0
   -2.9980   25.2650  -30.2650 H   0  0  0  0  0  0  0  0  0  0  0  0
   -1.7473   20.4943  -29.9184 H   0  0  0  0  0  0  0  0  0  0  0  0
   -1.5722   21.3631  -31.4817 H   0  0  0  0  0  0  0  0  0  0  0  0
   -0.8722   22.2788  -28.6765 H   0  0  0  0  0  0  0  0  0  0  0  0
    0.0942   22.3823  -30.1858 H   0  0  0  0  0  0  0  0  0  0  0  0
   -5.4430   19.9852  -32.3054 H   0  0  0  0  0  0  0  0  0  0  0  0
  1  2  1  0
  2  3  2  0
  3  4  1  0
  4  5  2  0
  5  6  1  0
  6  7  2  0
  7  8  1  0
  8  9  1  0
  8 10  2  0
  7 11  1  0
 11 12  1  0
 12 13  2  0
 12 14  1  0
 14 15  1  0
 15 16  1  0
 16 17  1  0
 17 18  1  0
 18 19  2  0
 18 20  1  6
 11 21  1  0
 21 22  2  0
 22  2  1  0
 21  5  1  0
  1 23  1  0
  1 24  1  0
  1 25  1  0
  3 26  1  0
  4 27  1  0
  6 28  1  0
  9 29  1  0
 15 30  1  0
 15 31  1  0
 16 32  1  0
 16 33  1  0
 22 34  1  0
M  CHG  2   9  -1  20  -1
M  END
>  <UniqueID>  (80) 
79

>  <SMILES>  (80) 
Cc1ccc2cc(C([NH-])=O)n(C(=O)OCCO[S@@](=O)[O-])c2c1

>  <Energy>  (80) 
67.26631794799341

>  <Genealogy>  (80) 
Cc1ccc2cc(C([NH-])=O)n(C(=O)OCCOS(=O)[O-])c2c1 (protonated)
Cc1ccc2cc(C([NH-])=O)n(C(=O)OCCO[S@@](=O)[O-])c2c1 (chirality)
Cc1ccc2cc(C([NH-])=O)n(C(=O)OCCO[S@@](=O)[O-])c2c1 (3D coordinates assigned)
Cc1ccc2cc(C([NH-])=O)n(C(=O)OCCO[S@@](=O)[O-])c2c1 (optimized conformer: 67.26631794799341 kcal/mol)

>  <smiles>  (80) 
Cc1ccc2cc(C(N)=O)n(C(=O)OCCOS(=O)O)c2c1

>  <score_type>  (80) 
oracle

>  <origin>  (80) 
adg

>  <m_score__min__energy>  (80) 
-12.779999999999999

>  <m_primary>  (80) 
energy

$$$$
80:0
     RDKit          3D

 42 43  0  0  0  0  0  0  0  0999 V2000
   -2.3960   25.6390  -25.8120 C   0  0  0  0  0  0  0  0  0  0  0  0
   -3.3820   24.9340  -26.3640 C   0  0  0  0  0  0  0  0  0  0  0  0
   -3.2640   24.3070  -27.6890 C   0  0  0  0  0  0  0  0  0  0  0  0
   -4.2640   23.7620  -28.2330 O   0  0  0  0  0  0  0  0  0  0  0  0
   -2.0210   24.3200  -28.3340 O   0  0  0  0  0  0  0  0  0  0  0  0
   -0.9110   23.5200  -27.9290 C   0  0  0  0  0  0  0  0  0  0  0  0
   -0.8620   22.2050  -28.7100 C   0  0  0  0  0  0  0  0  0  0  0  0
   -0.6120   22.4360  -30.0960 O   0  0  0  0  0  0  0  0  0  0  0  0
   -1.5800   22.2720  -31.0940 C   0  0  0  0  0  0  0  0  0  0  0  0
   -1.2940   21.6790  -32.1710 O   0  0  0  0  0  0  0  0  0  0  0  0
   -2.9050   22.7680  -30.8650 N   0  0  0  0  0  0  0  0  0  0  0  0
   -3.9990   22.5850  -31.7750 C   0  0  0  0  0  0  0  0  0  0  0  0
   -3.7960   22.1710  -32.9480 O   0  0  0  0  0  0  0  0  0  0  0  0
   -5.3420   22.8610  -31.3450 N   0  0  0  0  0  0  0  0  0  0  0  0
   -5.8650   24.0550  -30.9470 C   0  0  0  0  0  0  0  0  0  0  0  0
   -5.1060   25.3040  -30.7240 C   0  0  0  0  0  0  0  0  0  0  0  0
   -3.7080   25.2750  -30.4500 N   0  0  0  0  0  0  0  0  0  0  0  0
   -5.7080   26.4100  -30.7400 O   0  0  0  0  0  0  0  0  0  0  0  0
   -7.2330   23.9330  -30.7110 C   0  0  0  0  0  0  0  0  0  0  0  0
   -7.5340   22.6150  -30.9760 C   0  0  0  0  0  0  0  0  0  0  0  0
   -8.7530   21.9480  -30.9300 C   0  0  0  0  0  0  0  0  0  0  0  0
   -8.7760   20.5910  -31.2980 C   0  0  0  0  0  0  0  0  0  0  0  0
   -7.5880   19.9320  -31.7030 C   0  0  0  0  0  0  0  0  0  0  0  0
   -7.6370   18.4910  -32.1220 C   0  0  0  0  0  0  0  0  0  0  0  0
   -8.9100   17.9930  -31.9190 F   0  0  0  0  0  0  0  0  0  0  0  0
   -6.7330   17.7520  -31.3800 F   0  0  0  0  0  0  0  0  0  0  0  0
   -6.3700   20.6470  -31.7470 C   0  0  0  0  0  0  0  0  0  0  0  0
   -6.3750   21.9910  -31.3570 C   0  0  0  0  0  0  0  0  0  0  0  0
   -2.5317   26.0893  -24.8176 H   0  0  0  0  0  0  0  0  0  0  0  0
   -1.4459   25.7709  -26.3505 H   0  0  0  0  0  0  0  0  0  0  0  0
   -4.3227   24.8160  -25.8062 H   0  0  0  0  0  0  0  0  0  0  0  0
    0.0190   24.0792  -28.1093 H   0  0  0  0  0  0  0  0  0  0  0  0
   -1.0221   23.2861  -26.8599 H   0  0  0  0  0  0  0  0  0  0  0  0
   -0.0588   21.5746  -28.3009 H   0  0  0  0  0  0  0  0  0  0  0  0
   -1.8367   21.7049  -28.6109 H   0  0  0  0  0  0  0  0  0  0  0  0
   -3.0920   23.2480  -29.9560 H   0  0  0  0  0  0  0  0  0  0  0  0
   -3.3480   25.4120  -29.4800 H   0  0  0  0  0  0  0  0  0  0  0  0
   -7.9257   24.7219  -30.3827 H   0  0  0  0  0  0  0  0  0  0  0  0
   -9.6711   22.4658  -30.6155 H   0  0  0  0  0  0  0  0  0  0  0  0
   -9.7250   20.0354  -31.2714 H   0  0  0  0  0  0  0  0  0  0  0  0
   -7.3765   18.4188  -33.1883 H   0  0  0  0  0  0  0  0  0  0  0  0
   -5.4416   20.1596  -32.0793 H   0  0  0  0  0  0  0  0  0  0  0  0
  1  2  2  0
  2  3  1  0
  3  4  2  0
  3  5  1  0
  5  6  1  0
  6  7  1  0
  7  8  1  0
  8  9  1  0
  9 10  2  0
  9 11  1  0
 11 12  1  0
 12 13  2  0
 12 14  1  0
 14 15  1  0
 15 16  1  0
 16 17  1  0
 16 18  2  0
 15 19  2  0
 19 20  1  0
 20 21  2  0
 21 22  1  0
 22 23  2  0
 23 24  1  0
 24 25  1  0
 24 26  1  0
 23 27  1  0
 27 28  2  0
 28 14  1  0
 28 20  1  0
  1 29  1  0
  1 30  1  0
  2 31  1  0
  6 32  1  0
  6 33  1  0
  7 34  1  0
  7 35  1  0
 11 36  1  0
 17 37  1  0
 19 38  1  0
 21 39  1  0
 22 40  1  0
 24 41  1  0
 27 42  1  0
M  CHG  1  17  -1
M  END
>  <UniqueID>  (81) 
80

>  <SMILES>  (81) 
C=CC(=O)OCCOC(=O)NC(=O)n1c(C([NH-])=O)cc2ccc(C(F)F)cc21

>  <Energy>  (81) 
73.88735565120786

>  <Genealogy>  (81) 
C=CC(=O)OCCOC(=O)NC(=O)n1c(C([NH-])=O)cc2ccc(C(F)F)cc21 (protonated)
C=CC(=O)OCCOC(=O)NC(=O)n1c(C([NH-])=O)cc2ccc(C(F)F)cc21 (3D coordinates assigned)
C=CC(=O)OCCOC(=O)NC(=O)n1c(C([NH-])=O)cc2ccc(C(F)F)cc21 (optimized conformer: 73.88735565120786 kcal/mol)

>  <smiles>  (81) 
C=CC(=O)OCCOC(=O)NC(=O)n1c(C(N)=O)cc2ccc(C(F)F)cc21

>  <score_type>  (81) 
oracle

>  <origin>  (81) 
adg

>  <m_score__min__energy>  (81) 
-10.039999999999999

>  <m_primary>  (81) 
energy

$$$$
81:0
     RDKit          3D

 43 44  0  0  0  0  0  0  0  0999 V2000
   -4.9600   15.9780  -33.5320 C   0  0  0  0  0  0  0  0  0  0  0  0
   -5.3470   17.0600  -34.4300 N   0  0  0  0  0  0  0  0  0  0  0  0
   -6.0980   18.2190  -34.0450 C   0  0  0  0  0  0  0  0  0  0  0  0
   -6.1140   19.2130  -34.8190 O   0  0  0  0  0  0  0  0  0  0  0  0
   -6.8500   18.2980  -32.7450 C   0  0  0  0  0  0  0  0  0  0  0  0
   -7.0850   19.7360  -32.3670 C   0  0  0  0  0  0  0  0  0  0  0  0
   -8.3970   20.2720  -32.3850 C   0  0  0  0  0  0  0  0  0  0  0  0
   -8.6350   21.5980  -31.9870 C   0  0  0  0  0  0  0  0  0  0  0  0
   -7.5450   22.3640  -31.5830 C   0  0  0  0  0  0  0  0  0  0  0  0
   -7.4920   23.6610  -31.1220 C   0  0  0  0  0  0  0  0  0  0  0  0
   -6.1460   23.9010  -30.8450 C   0  0  0  0  0  0  0  0  0  0  0  0
   -5.6030   25.1910  -30.3610 C   0  0  0  0  0  0  0  0  0  0  0  0
   -4.2450   25.5600  -30.6160 N   0  0  0  0  0  0  0  0  0  0  0  0
   -6.3350   25.9750  -29.7010 O   0  0  0  0  0  0  0  0  0  0  0  0
   -5.4000   22.7980  -31.1340 N   0  0  0  0  0  0  0  0  0  0  0  0
   -3.9890   22.6250  -30.9370 C   0  0  0  0  0  0  0  0  0  0  0  0
   -3.1910   23.3390  -31.6000 O   0  0  0  0  0  0  0  0  0  0  0  0
   -3.4920   21.6260  -29.9590 C   0  0  0  0  0  0  0  0  0  0  0  0
   -3.5250   20.4100  -30.2910 O   0  0  0  0  0  0  0  0  0  0  0  0
   -2.9800   21.9800  -28.6500 N   0  0  0  0  0  0  0  0  0  0  0  0
   -2.4070   20.9080  -27.8260 C   0  0  0  0  0  0  0  0  0  0  0  0
   -2.9360   23.3690  -28.1590 C   0  0  0  0  0  0  0  0  0  0  0  0
   -1.9170   24.1740  -28.9060 C   0  0  0  0  0  0  0  0  0  0  0  0
   -2.2250   25.2940  -29.3930 O   0  0  0  0  0  0  0  0  0  0  0  0
   -0.6420   23.6620  -29.1100 O   0  0  0  0  0  0  0  0  0  0  0  0
   -6.2700   21.8640  -31.5740 C   0  0  0  0  0  0  0  0  0  0  0  0
   -6.0040   20.5410  -31.9420 C   0  0  0  0  0  0  0  0  0  0  0  0
   -5.0778   16.3073  -32.4891 H   0  0  0  0  0  0  0  0  0  0  0  0
   -5.6008   15.1028  -33.7148 H   0  0  0  0  0  0  0  0  0  0  0  0
   -3.9095   15.7078  -33.7148 H   0  0  0  0  0  0  0  0  0  0  0  0
   -7.8185   17.7880  -32.8539 H   0  0  0  0  0  0  0  0  0  0  0  0
   -6.2562   17.8121  -31.9568 H   0  0  0  0  0  0  0  0  0  0  0  0
   -9.2375   19.6432  -32.7140 H   0  0  0  0  0  0  0  0  0  0  0  0
   -9.6515   22.0182  -31.9943 H   0  0  0  0  0  0  0  0  0  0  0  0
   -8.3328   24.3594  -30.9985 H   0  0  0  0  0  0  0  0  0  0  0  0
   -3.6240   24.9770  -31.2190 H   0  0  0  0  0  0  0  0  0  0  0  0
   -3.8660   26.4530  -30.2310 H   0  0  0  0  0  0  0  0  0  0  0  0
   -2.5383   21.1536  -26.7618 H   0  0  0  0  0  0  0  0  0  0  0  0
   -2.9189   19.9603  -28.0495 H   0  0  0  0  0  0  0  0  0  0  0  0
   -1.3347   20.8071  -28.0495 H   0  0  0  0  0  0  0  0  0  0  0  0
   -3.9261   23.8290  -28.2937 H   0  0  0  0  0  0  0  0  0  0  0  0
   -2.6575   23.3544  -27.0949 H   0  0  0  0  0  0  0  0  0  0  0  0
   -4.9812   20.1381  -31.9017 H   0  0  0  0  0  0  0  0  0  0  0  0
  1  2  1  0
  2  3  1  0
  3  4  2  0
  3  5  1  0
  5  6  1  0
  6  7  2  0
  7  8  1  0
  8  9  2  0
  9 10  1  0
 10 11  2  0
 11 12  1  0
 12 13  1  0
 12 14  2  0
 11 15  1  0
 15 16  1  0
 16 17  2  0
 16 18  1  0
 18 19  2  0
 18 20  1  0
 20 21  1  0
 20 22  1  0
 22 23  1  0
 23 24  2  0
 23 25  1  0
 15 26  1  0
 26 27  2  0
 27  6  1  0
 26  9  1  0
  1 28  1  0
  1 29  1  0
  1 30  1  0
  5 31  1  0
  5 32  1  0
  7 33  1  0
  8 34  1  0
 10 35  1  0
 13 36  1  0
 13 37  1  0
 21 38  1  0
 21 39  1  0
 21 40  1  0
 22 41  1  0
 22 42  1  0
 27 43  1  0
M  CHG  2   2  -1  25  -1
M  END
>  <UniqueID>  (82) 
81

>  <SMILES>  (82) 
C[N-]C(=O)Cc1ccc2cc(C(N)=O)n(C(=O)C(=O)N(C)CC(=O)[O-])c2c1

>  <Energy>  (82) 
80.35754298439133

>  <Genealogy>  (82) 
C[N-]C(=O)Cc1ccc2cc(C(N)=O)n(C(=O)C(=O)N(C)CC(=O)[O-])c2c1 (protonated)
C[N-]C(=O)Cc1ccc2cc(C(N)=O)n(C(=O)C(=O)N(C)CC(=O)[O-])c2c1 (3D coordinates assigned)
C[N-]C(=O)Cc1ccc2cc(C(N)=O)n(C(=O)C(=O)N(C)CC(=O)[O-])c2c1 (optimized conformer: 80.35754298439133 kcal/mol)

>  <smiles>  (82) 
CNC(=O)Cc1ccc2cc(C(N)=O)n(C(=O)C(=O)N(C)CC(=O)O)c2c1

>  <score_type>  (82) 
oracle

>  <origin>  (82) 
adg

>  <m_score__min__energy>  (82) 
-10.94

>  <m_primary>  (82) 
energy

$$$$
82:0
     RDKit          3D

 42 44  0  0  0  0  0  0  0  0999 V2000
   -2.6350   24.2020  -26.9910 C   0  0  0  0  0  0  0  0  0  0  0  0
   -1.5660   23.8950  -28.0600 C   0  0  2  0  0  0  0  0  0  0  0  0
   -2.2240   23.6420  -29.3590 N   0  0  0  0  0  0  0  0  0  0  0  0
   -3.1390   22.5580  -29.6150 C   0  0  0  0  0  0  0  0  0  0  0  0
   -3.4130   21.7260  -28.7070 O   0  0  0  0  0  0  0  0  0  0  0  0
   -3.7660   22.4040  -30.9400 C   0  0  0  0  0  0  0  0  0  0  0  0
   -3.0770   22.0170  -31.9220 O   0  0  0  0  0  0  0  0  0  0  0  0
   -5.1710   22.6460  -31.1160 N   0  0  0  0  0  0  0  0  0  0  0  0
   -5.8630   23.7940  -30.8710 C   0  0  0  0  0  0  0  0  0  0  0  0
   -5.2730   25.0880  -30.4680 C   0  0  0  0  0  0  0  0  0  0  0  0
   -3.8690   25.2990  -30.5970 N   0  0  0  0  0  0  0  0  0  0  0  0
   -5.9930   26.0030  -29.9880 O   0  0  0  0  0  0  0  0  0  0  0  0
   -7.2200   23.6080  -31.1270 C   0  0  0  0  0  0  0  0  0  0  0  0
   -7.3360   22.3030  -31.5510 C   0  0  0  0  0  0  0  0  0  0  0  0
   -8.4580   21.5850  -31.9500 C   0  0  0  0  0  0  0  0  0  0  0  0
   -8.2810   20.2440  -32.3330 C   0  0  0  0  0  0  0  0  0  0  0  0
   -6.9970   19.6410  -32.2930 C   0  0  0  0  0  0  0  0  0  0  0  0
   -6.8130   18.2160  -32.7480 C   0  0  0  0  0  0  0  0  0  0  0  0
   -5.7980   17.6010  -32.0350 F   0  0  0  0  0  0  0  0  0  0  0  0
   -6.4910   18.2050  -34.0920 F   0  0  0  0  0  0  0  0  0  0  0  0
   -7.9760   17.4880  -32.5570 F   0  0  0  0  0  0  0  0  0  0  0  0
   -5.8770   20.4130  -31.9040 C   0  0  0  0  0  0  0  0  0  0  0  0
   -6.0840   21.7470  -31.5370 C   0  0  0  0  0  0  0  0  0  0  0  0
   -0.7030   22.7120  -27.6380 C   0  0  0  0  0  0  0  0  0  0  0  0
    0.6890   23.3020  -27.5020 C   0  0  0  0  0  0  0  0  0  0  0  0
    0.7380   24.5180  -28.2070 O   0  0  0  0  0  0  0  0  0  0  0  0
   -0.5610   25.0540  -28.1620 C   0  0  0  0  0  0  0  0  0  0  0  0
   -2.1983   24.0766  -25.9892 H   0  0  0  0  0  0  0  0  0  0  0  0
   -2.9865   25.2374  -27.1108 H   0  0  0  0  0  0  0  0  0  0  0  0
   -3.4824   23.5109  -27.1108 H   0  0  0  0  0  0  0  0  0  0  0  0
   -2.0180   24.2930  -30.1500 H   0  0  0  0  0  0  0  0  0  0  0  0
   -3.4920   26.0320  -31.2370 H   0  0  0  0  0  0  0  0  0  0  0  0
   -8.0272   24.3467  -31.0143 H   0  0  0  0  0  0  0  0  0  0  0  0
   -9.4538   22.0521  -31.9655 H   0  0  0  0  0  0  0  0  0  0  0  0
   -9.1479   19.6553  -32.6676 H   0  0  0  0  0  0  0  0  0  0  0  0
   -4.8681   19.9750  -31.8905 H   0  0  0  0  0  0  0  0  0  0  0  0
   -1.0480   22.2991  -26.6786 H   0  0  0  0  0  0  0  0  0  0  0  0
   -0.7420   21.8816  -28.3583 H   0  0  0  0  0  0  0  0  0  0  0  0
    0.9121   23.4814  -26.4399 H   0  0  0  0  0  0  0  0  0  0  0  0
    1.4325   22.6026  -27.9120 H   0  0  0  0  0  0  0  0  0  0  0  0
   -0.6612   25.7098  -27.2846 H   0  0  0  0  0  0  0  0  0  0  0  0
   -0.7566   25.6425  -29.0705 H   0  0  0  0  0  0  0  0  0  0  0  0
  1  2  1  0
  2  3  1  6
  3  4  1  0
  4  5  2  0
  4  6  1  0
  6  7  2  0
  6  8  1  0
  8  9  1  0
  9 10  1  0
 10 11  1  0
 10 12  2  0
  9 13  2  0
 13 14  1  0
 14 15  2  0
 15 16  1  0
 16 17  2  0
 17 18  1  0
 18 19  1  0
 18 20  1  0
 18 21  1  0
 17 22  1  0
 22 23  2  0
  2 24  1  0
 24 25  1  0
 25 26  1  0
 26 27  1  0
 27  2  1  0
 23  8  1  0
 23 14  1  0
  1 28  1  0
  1 29  1  0
  1 30  1  0
  3 31  1  0
 11 32  1  0
 13 33  1  0
 15 34  1  0
 16 35  1  0
 22 36  1  0
 24 37  1  0
 24 38  1  0
 25 39  1  0
 25 40  1  0
 27 41  1  0
 27 42  1  0
M  CHG  1  11  -1
M  END
>  <UniqueID>  (83) 
82

>  <SMILES>  (83) 
C[C@]1(NC(=O)C(=O)n2c(C([NH-])=O)cc3ccc(C(F)(F)F)cc32)CCOC1

>  <Energy>  (83) 
84.24604049550378

>  <Genealogy>  (83) 
CC1(NC(=O)C(=O)n2c(C([NH-])=O)cc3ccc(C(F)(F)F)cc32)CCOC1 (protonated)
C[C@]1(NC(=O)C(=O)n2c(C([NH-])=O)cc3ccc(C(F)(F)F)cc32)CCOC1 (chirality)
C[C@]1(NC(=O)C(=O)n2c(C([NH-])=O)cc3ccc(C(F)(F)F)cc32)CCOC1 (3D coordinates assigned)
C[C@]1(NC(=O)C(=O)n2c(C([NH-])=O)cc3ccc(C(F)(F)F)cc32)CCOC1 (nonaromatic ring conformer: 84.24604049550378 kcal/mol)

>  <smiles>  (83) 
CC1(NC(=O)C(=O)n2c(C(N)=O)cc3ccc(C(F)(F)F)cc32)CCOC1

>  <score_type>  (83) 
oracle

>  <origin>  (83) 
adg

>  <m_score__min__energy>  (83) 
-11.220000000000001

>  <m_primary>  (83) 
energy

$$$$
83:0
     RDKit          3D

 56 58  0  0  0  0  0  0  0  0999 V2000
   -2.4010   21.8200  -31.2690 C   0  0  0  0  0  0  0  0  0  0  0  0
   -2.5360   21.1400  -32.6440 C   0  0  0  0  0  0  0  0  0  0  0  0
   -1.2250   21.2600  -33.4440 C   0  0  0  0  0  0  0  0  0  0  0  0
   -3.6630   21.8270  -33.4330 C   0  0  0  0  0  0  0  0  0  0  0  0
   -2.9120   19.7630  -32.4870 O   0  0  0  0  0  0  0  0  0  0  0  0
   -3.4400   18.9240  -33.4780 C   0  0  0  0  0  0  0  0  0  0  0  0
   -2.8440   18.7730  -34.5800 O   0  0  0  0  0  0  0  0  0  0  0  0
   -4.6610   18.2070  -33.2210 N   0  0  0  0  0  0  0  0  0  0  0  0
   -4.8760   16.8680  -33.3720 C   0  0  0  0  0  0  0  0  0  0  0  0
   -3.8330   15.8530  -33.6420 C   0  0  0  0  0  0  0  0  0  0  0  0
   -2.9780   15.9720  -34.7810 N   0  0  0  0  0  0  0  0  0  0  0  0
   -3.7130   14.8530  -32.8880 O   0  0  0  0  0  0  0  0  0  0  0  0
   -6.2130   16.5560  -33.1380 C   0  0  0  0  0  0  0  0  0  0  0  0
   -6.8170   17.7510  -32.8280 C   0  0  0  0  0  0  0  0  0  0  0  0
   -8.1440   18.0220  -32.5180 C   0  0  0  0  0  0  0  0  0  0  0  0
   -8.5000   19.3540  -32.2550 C   0  0  0  0  0  0  0  0  0  0  0  0
   -7.5310   20.3900  -32.2980 C   0  0  0  0  0  0  0  0  0  0  0  0
   -7.9720   21.8180  -32.0230 C   0  0  1  0  0  0  0  0  0  0  0  0
   -9.4730   21.9680  -31.9250 C   0  0  0  0  0  0  0  0  0  0  0  0
  -10.0270   21.9030  -30.8380 O   0  0  0  0  0  0  0  0  0  0  0  0
   -7.2510   22.4270  -30.8000 C   0  0  0  0  0  0  0  0  0  0  0  0
   -6.9050   23.8540  -30.9970 N   0  0  0  0  0  0  0  0  0  0  0  0
   -7.0300   24.6670  -29.7710 C   0  0  0  0  0  0  0  0  0  0  0  0
   -5.7350   25.4490  -29.5810 C   0  0  0  0  0  0  0  0  0  0  0  0
   -5.0120   25.3250  -30.9050 C   0  0  1  0  0  0  0  0  0  0  0  0
   -3.6200   25.2920  -30.7320 O   0  0  0  0  0  0  0  0  0  0  0  0
   -5.5170   24.0090  -31.4600 C   0  0  0  0  0  0  0  0  0  0  0  0
   -6.1910   20.0730  -32.6360 C   0  0  0  0  0  0  0  0  0  0  0  0
   -5.8610   18.7330  -32.8800 C   0  0  0  0  0  0  0  0  0  0  0  0
   -2.5492   21.0736  -30.4747 H   0  0  0  0  0  0  0  0  0  0  0  0
   -1.3977   22.2612  -31.1750 H   0  0  0  0  0  0  0  0  0  0  0  0
   -3.1596   22.6110  -31.1750 H   0  0  0  0  0  0  0  0  0  0  0  0
   -0.3766   21.3377  -32.7481 H   0  0  0  0  0  0  0  0  0  0  0  0
   -1.0993   20.3696  -34.0776 H   0  0  0  0  0  0  0  0  0  0  0  0
   -1.2630   22.1584  -34.0776 H   0  0  0  0  0  0  0  0  0  0  0  0
   -4.3861   22.2678  -32.7310 H   0  0  0  0  0  0  0  0  0  0  0  0
   -3.2371   22.6192  -34.0662 H   0  0  0  0  0  0  0  0  0  0  0  0
   -4.1720   21.0854  -34.0662 H   0  0  0  0  0  0  0  0  0  0  0  0
   -3.0270   16.8000  -35.4120 H   0  0  0  0  0  0  0  0  0  0  0  0
   -2.2470   15.2480  -34.9630 H   0  0  0  0  0  0  0  0  0  0  0  0
   -6.6853   15.5639  -33.1902 H   0  0  0  0  0  0  0  0  0  0  0  0
   -8.8928   17.2171  -32.4798 H   0  0  0  0  0  0  0  0  0  0  0  0
   -9.5447   19.5983  -32.0122 H   0  0  0  0  0  0  0  0  0  0  0  0
   -7.6641   22.4001  -32.9041 H   0  0  0  0  0  0  0  0  0  0  0  0
  -10.0680   22.1361  -32.8348 H   0  0  0  0  0  0  0  0  0  0  0  0
   -7.9102   22.3417  -29.9235 H   0  0  0  0  0  0  0  0  0  0  0  0
   -6.3120   21.8726  -30.6558 H   0  0  0  0  0  0  0  0  0  0  0  0
   -7.8744   25.3647  -29.8719 H   0  0  0  0  0  0  0  0  0  0  0  0
   -7.2112   24.0172  -28.9022 H   0  0  0  0  0  0  0  0  0  0  0  0
   -5.9489   26.5037  -29.3533 H   0  0  0  0  0  0  0  0  0  0  0  0
   -5.1360   25.0638  -28.7426 H   0  0  0  0  0  0  0  0  0  0  0  0
   -5.2029   26.1794  -31.5710 H   0  0  0  0  0  0  0  0  0  0  0  0
   -3.2240   25.5820  -31.5950 H   0  0  0  0  0  0  0  0  0  0  0  0
   -5.4846   24.0248  -32.5594 H   0  0  0  0  0  0  0  0  0  0  0  0
   -4.8918   23.1714  -31.1171 H   0  0  0  0  0  0  0  0  0  0  0  0
   -5.4272   20.8615  -32.7052 H   0  0  0  0  0  0  0  0  0  0  0  0
  1  2  1  0
  2  3  1  0
  2  4  1  0
  2  5  1  0
  5  6  1  0
  6  7  2  0
  6  8  1  0
  8  9  1  0
  9 10  1  0
 10 11  1  0
 10 12  2  0
  9 13  2  0
 13 14  1  0
 14 15  2  0
 15 16  1  0
 16 17  2  0
 17 18  1  0
 18 19  1  0
 19 20  2  0
 18 21  1  0
 21 22  1  0
 22 23  1  0
 23 24  1  0
 24 25  1  0
 25 26  1  0
 25 27  1  0
 17 28  1  0
 28 29  2  0
 29  8  1  0
 29 14  1  0
 27 22  1  0
  1 30  1  0
  1 31  1  0
  1 32  1  0
  3 33  1  0
  3 34  1  0
  3 35  1  0
  4 36  1  0
  4 37  1  0
  4 38  1  0
 11 39  1  0
 11 40  1  0
 13 41  1  0
 15 42  1  0
 16 43  1  0
 18 44  1  6
 19 45  1  0
 21 46  1  0
 21 47  1  0
 23 48  1  0
 23 49  1  0
 24 50  1  0
 24 51  1  0
 25 52  1  6
 26 53  1  0
 27 54  1  0
 27 55  1  0
 28 56  1  0
M  END
>  <UniqueID>  (84) 
83

>  <SMILES>  (84) 
CC(C)(C)OC(=O)n1c(C(N)=O)cc2ccc([C@@H](C=O)CN3CC[C@@H](O)C3)cc21

>  <Energy>  (84) 
93.99866984521645

>  <Genealogy>  (84) 
CC(C)(C)OC(=O)n1c(C(N)=O)cc2ccc([C@@H](C=O)CN3CC[C@@H](O)C3)cc21 (chirality)
CC(C)(C)OC(=O)n1c(C(N)=O)cc2ccc([C@@H](C=O)CN3CC[C@@H](O)C3)cc21 (3D coordinates assigned)
CC(C)(C)OC(=O)n1c(C(N)=O)cc2ccc([C@@H](C=O)CN3CC[C@@H](O)C3)cc21 (nonaromatic ring conformer: 93.99866984521645 kcal/mol)

>  <smiles>  (84) 
CC(C)(C)OC(=O)n1c(C(N)=O)cc2ccc(C(C=O)CN3CCC(O)C3)cc21

>  <score_type>  (84) 
oracle

>  <origin>  (84) 
adg

>  <m_score__min__energy>  (84) 
-9.7599999999999998

>  <m_primary>  (84) 
energy

$$$$
84:0
     RDKit          3D

 33 34  0  0  0  0  0  0  0  0999 V2000
   -3.7780   18.5560  -26.4920 C   0  0  0  0  0  0  0  0  0  0  0  0
   -2.7240   19.5300  -26.9280 C   0  0  0  0  0  0  0  0  0  0  0  0
   -1.3720   19.1150  -27.0280 C   0  0  0  0  0  0  0  0  0  0  0  0
   -0.3690   20.0290  -27.3920 C   0  0  0  0  0  0  0  0  0  0  0  0
   -0.7460   21.3440  -27.6470 C   0  0  0  0  0  0  0  0  0  0  0  0
    0.0200   22.4410  -27.9760 C   0  0  0  0  0  0  0  0  0  0  0  0
   -0.8770   23.5040  -28.0710 C   0  0  0  0  0  0  0  0  0  0  0  0
   -0.4790   24.8870  -28.4160 C   0  0  0  0  0  0  0  0  0  0  0  0
   -1.2390   25.6650  -29.3360 N   0  0  0  0  0  0  0  0  0  0  0  0
    0.5600   25.3810  -27.9040 O   0  0  0  0  0  0  0  0  0  0  0  0
   -2.1480   23.0760  -27.8250 N   0  0  0  0  0  0  0  0  0  0  0  0
   -3.3400   23.8700  -27.7300 C   0  0  0  0  0  0  0  0  0  0  0  0
   -3.3220   24.9380  -27.0630 O   0  0  0  0  0  0  0  0  0  0  0  0
   -4.5640   23.4550  -28.3470 N   0  0  0  0  0  0  0  0  0  0  0  0
   -5.1280   24.0190  -29.5730 C   0  0  1  0  0  0  0  0  0  0  0  0
   -4.0060   24.4690  -30.4650 C   0  0  0  0  0  0  0  0  0  0  0  0
   -3.9230   25.6720  -30.8300 O   0  0  0  0  0  0  0  0  0  0  0  0
   -3.0360   23.5620  -30.8690 O   0  0  0  0  0  0  0  0  0  0  0  0
   -6.0090   22.9850  -30.2900 C   0  0  0  0  0  0  0  0  0  0  0  0
   -7.1000   22.6690  -29.5050 F   0  0  0  0  0  0  0  0  0  0  0  0
   -6.4680   23.5030  -31.4880 F   0  0  0  0  0  0  0  0  0  0  0  0
   -5.2890   21.8290  -30.5430 F   0  0  0  0  0  0  0  0  0  0  0  0
   -2.0490   21.7580  -27.5540 C   0  0  0  0  0  0  0  0  0  0  0  0
   -3.0650   20.8770  -27.1720 C   0  0  0  0  0  0  0  0  0  0  0  0
   -3.8143   18.5225  -25.3931 H   0  0  0  0  0  0  0  0  0  0  0  0
   -4.7559   18.8752  -26.8816 H   0  0  0  0  0  0  0  0  0  0  0  0
   -3.5368   17.5560  -26.8816 H   0  0  0  0  0  0  0  0  0  0  0  0
   -1.1060   18.0683  -26.8188 H   0  0  0  0  0  0  0  0  0  0  0  0
    0.6820   19.7148  -27.4729 H   0  0  0  0  0  0  0  0  0  0  0  0
    1.1086   22.4716  -28.1309 H   0  0  0  0  0  0  0  0  0  0  0  0
   -2.0100   25.2350  -29.8940 H   0  0  0  0  0  0  0  0  0  0  0  0
   -5.7627   24.8812  -29.3205 H   0  0  0  0  0  0  0  0  0  0  0  0
   -4.1030   21.2249  -27.0645 H   0  0  0  0  0  0  0  0  0  0  0  0
  1  2  1  0
  2  3  2  0
  3  4  1  0
  4  5  2  0
  5  6  1  0
  6  7  2  0
  7  8  1  0
  8  9  1  0
  8 10  2  0
  7 11  1  0
 11 12  1  0
 12 13  2  0
 12 14  1  0
 14 15  1  0
 15 16  1  0
 16 17  2  0
 16 18  1  0
 15 19  1  0
 19 20  1  0
 19 21  1  0
 19 22  1  0
 11 23  1  0
 23 24  2  0
 24  2  1  0
 23  5  1  0
  1 25  1  0
  1 26  1  0
  1 27  1  0
  3 28  1  0
  4 29  1  0
  6 30  1  0
  9 31  1  0
 15 32  1  1
 24 33  1  0
M  CHG  3   9  -1  14  -1  18  -1
M  END
>  <UniqueID>  (85) 
84

>  <SMILES>  (85) 
Cc1ccc2cc(C([NH-])=O)n(C(=O)[N-][C@@H](C(=O)[O-])C(F)(F)F)c2c1

>  <Energy>  (85) 
69.29097842012985

>  <Genealogy>  (85) 
Cc1ccc2cc(C([NH-])=O)n(C(=O)[N-]C(C(=O)[O-])C(F)(F)F)c2c1 (protonated)
Cc1ccc2cc(C([NH-])=O)n(C(=O)[N-][C@@H](C(=O)[O-])C(F)(F)F)c2c1 (chirality)
Cc1ccc2cc(C([NH-])=O)n(C(=O)[N-][C@@H](C(=O)[O-])C(F)(F)F)c2c1 (3D coordinates assigned)
Cc1ccc2cc(C([NH-])=O)n(C(=O)[N-][C@@H](C(=O)[O-])C(F)(F)F)c2c1 (optimized conformer: 69.29097842012985 kcal/mol)

>  <smiles>  (85) 
Cc1ccc2cc(C(N)=O)n(C(=O)NC(C(=O)O)C(F)(F)F)c2c1

>  <score_type>  (85) 
oracle

>  <origin>  (85) 
adg

>  <m_score__min__energy>  (85) 
-12.210000000000001

>  <m_primary>  (85) 
energy

$$$$
85:0
     RDKit          3D

 39 40  0  0  0  0  0  0  0  0999 V2000
   -0.8360   26.5520  -27.8510 C   0  0  0  0  0  0  0  0  0  0  0  0
   -1.6100   26.0670  -28.9210 O   0  0  0  0  0  0  0  0  0  0  0  0
   -1.7740   24.7300  -28.7160 N   0  0  0  0  0  0  0  0  0  0  0  0
   -2.7860   24.2680  -27.7660 C   0  0  0  0  0  0  0  0  0  0  0  0
   -0.8720   23.7890  -29.3250 C   0  0  0  0  0  0  0  0  0  0  0  0
    0.3480   23.7880  -29.0030 O   0  0  0  0  0  0  0  0  0  0  0  0
   -1.3580   22.7850  -30.3240 C   0  0  0  0  0  0  0  0  0  0  0  0
   -2.6810   23.1170  -30.7330 O   0  0  0  0  0  0  0  0  0  0  0  0
   -3.8140   22.4950  -30.1990 C   0  0  0  0  0  0  0  0  0  0  0  0
   -3.7110   21.7030  -29.2240 O   0  0  0  0  0  0  0  0  0  0  0  0
   -5.1010   22.7600  -30.7690 N   0  0  0  0  0  0  0  0  0  0  0  0
   -5.7540   23.9540  -30.8540 C   0  0  0  0  0  0  0  0  0  0  0  0
   -5.2110   25.2690  -30.4560 C   0  0  0  0  0  0  0  0  0  0  0  0
   -3.9000   25.6740  -30.8430 N   0  0  0  0  0  0  0  0  0  0  0  0
   -5.9280   26.0640  -29.7900 O   0  0  0  0  0  0  0  0  0  0  0  0
   -7.0060   23.7800  -31.4430 C   0  0  0  0  0  0  0  0  0  0  0  0
   -7.0970   22.4350  -31.7200 C   0  0  0  0  0  0  0  0  0  0  0  0
   -8.1270   21.7060  -32.3060 C   0  0  0  0  0  0  0  0  0  0  0  0
   -7.9540   20.3190  -32.4490 C   0  0  0  0  0  0  0  0  0  0  0  0
   -6.7750   19.6820  -31.9790 C   0  0  0  0  0  0  0  0  0  0  0  0
   -6.5820   18.1970  -32.1570 C   0  0  0  0  0  0  0  0  0  0  0  0
   -7.7790   17.5920  -32.4970 F   0  0  0  0  0  0  0  0  0  0  0  0
   -5.6640   17.9350  -33.1590 F   0  0  0  0  0  0  0  0  0  0  0  0
   -6.1210   17.6540  -30.9720 F   0  0  0  0  0  0  0  0  0  0  0  0
   -5.7430   20.4620  -31.4080 C   0  0  0  0  0  0  0  0  0  0  0  0
   -5.9350   21.8430  -31.3020 C   0  0  0  0  0  0  0  0  0  0  0  0
   -1.3027   26.2596  -26.8988 H   0  0  0  0  0  0  0  0  0  0  0  0
    0.1768   26.1267  -27.9088 H   0  0  0  0  0  0  0  0  0  0  0  0
   -0.7770   27.6489  -27.9088 H   0  0  0  0  0  0  0  0  0  0  0  0
   -2.4270   24.4319  -26.7392 H   0  0  0  0  0  0  0  0  0  0  0  0
   -3.7190   24.8294  -27.9222 H   0  0  0  0  0  0  0  0  0  0  0  0
   -2.9730   23.1953  -27.9222 H   0  0  0  0  0  0  0  0  0  0  0  0
   -0.6926   22.7890  -31.1999 H   0  0  0  0  0  0  0  0  0  0  0  0
   -1.3585   21.7852  -29.8652 H   0  0  0  0  0  0  0  0  0  0  0  0
   -3.0550   25.2730  -30.3800 H   0  0  0  0  0  0  0  0  0  0  0  0
   -7.7612   24.5542  -31.6438 H   0  0  0  0  0  0  0  0  0  0  0  0
   -9.0486   22.2004  -32.6469 H   0  0  0  0  0  0  0  0  0  0  0  0
   -8.7408   19.7197  -32.9305 H   0  0  0  0  0  0  0  0  0  0  0  0
   -4.8120   19.9939  -31.0558 H   0  0  0  0  0  0  0  0  0  0  0  0
  1  2  1  0
  2  3  1  0
  3  4  1  0
  3  5  1  0
  5  6  2  0
  5  7  1  0
  7  8  1  0
  8  9  1  0
  9 10  2  0
  9 11  1  0
 11 12  1  0
 12 13  1  0
 13 14  1  0
 13 15  2  0
 12 16  2  0
 16 17  1  0
 17 18  2  0
 18 19  1  0
 19 20  2  0
 20 21  1  0
 21 22  1  0
 21 23  1  0
 21 24  1  0
 20 25  1  0
 25 26  2  0
 26 11  1  0
 26 17  1  0
  1 27  1  0
  1 28  1  0
  1 29  1  0
  4 30  1  0
  4 31  1  0
  4 32  1  0
  7 33  1  0
  7 34  1  0
 14 35  1  0
 16 36  1  0
 18 37  1  0
 19 38  1  0
 25 39  1  0
M  CHG  1  14  -1
M  END
>  <UniqueID>  (86) 
85

>  <SMILES>  (86) 
CON(C)C(=O)COC(=O)n1c(C([NH-])=O)cc2ccc(C(F)(F)F)cc21

>  <Energy>  (86) 
71.6656060744933

>  <Genealogy>  (86) 
CON(C)C(=O)COC(=O)n1c(C([NH-])=O)cc2ccc(C(F)(F)F)cc21 (protonated)
CON(C)C(=O)COC(=O)n1c(C([NH-])=O)cc2ccc(C(F)(F)F)cc21 (3D coordinates assigned)
CON(C)C(=O)COC(=O)n1c(C([NH-])=O)cc2ccc(C(F)(F)F)cc21 (optimized conformer: 71.6656060744933 kcal/mol)

>  <smiles>  (86) 
CON(C)C(=O)COC(=O)n1c(C(N)=O)cc2ccc(C(F)(F)F)cc21

>  <score_type>  (86) 
oracle

>  <origin>  (86) 
adg

>  <m_score__min__energy>  (86) 
-10.26

>  <m_primary>  (86) 
energy

$$$$
86:0
     RDKit          3D

 69 71  0  0  0  0  0  0  0  0999 V2000
   -1.3910   18.7450  -27.3900 C   0  0  0  0  0  0  0  0  0  0  0  0
   -0.4250   19.0990  -28.5380 C   0  0  0  0  0  0  0  0  0  0  0  0
   -0.0170   17.8330  -29.3150 C   0  0  0  0  0  0  0  0  0  0  0  0
    0.8360   19.7480  -27.9450 C   0  0  0  0  0  0  0  0  0  0  0  0
   -1.0170   20.0590  -29.4250 O   0  0  0  0  0  0  0  0  0  0  0  0
   -0.5250   21.3440  -29.7060 C   0  0  0  0  0  0  0  0  0  0  0  0
    0.2470   21.5400  -30.6830 O   0  0  0  0  0  0  0  0  0  0  0  0
   -0.9080   22.4460  -28.8680 N   0  0  0  0  0  0  0  0  0  0  0  0
   -1.5260   22.1940  -27.5600 C   0  0  0  0  0  0  0  0  0  0  0  0
   -1.2700   23.3750  -26.6110 C   0  0  0  0  0  0  0  0  0  0  0  0
   -1.6820   24.6790  -27.1860 N   0  0  0  0  0  0  0  0  0  0  0  0
   -2.8700   25.2930  -26.5470 C   0  0  0  0  0  0  0  0  0  0  0  0
   -4.1880   24.5490  -26.8290 C   0  0  0  0  0  0  0  0  0  0  0  0
   -4.0450   23.7960  -28.0200 O   0  0  0  0  0  0  0  0  0  0  0  0
   -4.9760   24.2170  -29.0030 C   0  0  0  0  0  0  0  0  0  0  0  0
   -4.3210   24.4850  -30.3270 C   0  0  0  0  0  0  0  0  0  0  0  0
   -4.1230   25.6760  -30.6940 O   0  0  0  0  0  0  0  0  0  0  0  0
   -3.8780   23.3960  -31.1410 N   0  0  0  0  0  0  0  0  0  0  0  0
   -4.7590   22.3120  -31.5470 C   0  0  0  0  0  0  0  0  0  0  0  0
   -4.0950   20.9930  -31.3130 C   0  0  0  0  0  0  0  0  0  0  0  0
   -3.4440   20.7970  -30.2520 O   0  0  0  0  0  0  0  0  0  0  0  0
   -4.2840   19.9110  -32.2340 N   0  0  0  0  0  0  0  0  0  0  0  0
   -3.4310   19.4640  -33.1990 C   0  0  0  0  0  0  0  0  0  0  0  0
   -2.0540   19.9440  -33.4340 C   0  0  0  0  0  0  0  0  0  0  0  0
   -1.2880   20.5670  -32.4030 N   0  0  0  0  0  0  0  0  0  0  0  0
   -1.5220   19.7590  -34.5640 O   0  0  0  0  0  0  0  0  0  0  0  0
   -4.0470   18.4830  -33.9730 C   0  0  0  0  0  0  0  0  0  0  0  0
   -5.3110   18.3380  -33.4420 C   0  0  0  0  0  0  0  0  0  0  0  0
   -6.3620   17.5120  -33.8310 C   0  0  0  0  0  0  0  0  0  0  0  0
   -7.5680   17.6020  -33.1140 C   0  0  0  0  0  0  0  0  0  0  0  0
   -7.7010   18.5130  -32.0370 C   0  0  0  0  0  0  0  0  0  0  0  0
   -8.9360   18.6000  -31.3220 N   0  0  0  0  0  0  0  0  0  0  0  0
   -6.6150   19.3360  -31.6730 C   0  0  0  0  0  0  0  0  0  0  0  0
   -5.4260   19.2150  -32.3960 C   0  0  0  0  0  0  0  0  0  0  0  0
   -1.7160   24.7570  -28.6640 C   0  0  0  0  0  0  0  0  0  0  0  0
   -0.6830   23.8280  -29.3080 C   0  0  0  0  0  0  0  0  0  0  0  0
   -0.8956   18.9265  -26.4248 H   0  0  0  0  0  0  0  0  0  0  0  0
   -2.2924   19.3712  -27.4630 H   0  0  0  0  0  0  0  0  0  0  0  0
   -1.6743   17.6846  -27.4630 H   0  0  0  0  0  0  0  0  0  0  0  0
    0.2406   17.0338  -28.6044 H   0  0  0  0  0  0  0  0  0  0  0  0
   -0.8550   17.5051  -29.9477 H   0  0  0  0  0  0  0  0  0  0  0  0
    0.8547   18.0561  -29.9477 H   0  0  0  0  0  0  0  0  0  0  0  0
    0.7811   19.7197  -26.8467 H   0  0  0  0  0  0  0  0  0  0  0  0
    1.7257   19.1958  -28.2820 H   0  0  0  0  0  0  0  0  0  0  0  0
    0.9036   20.7929  -28.2820 H   0  0  0  0  0  0  0  0  0  0  0  0
   -2.6102   22.0623  -27.6906 H   0  0  0  0  0  0  0  0  0  0  0  0
   -1.0847   21.2848  -27.1257 H   0  0  0  0  0  0  0  0  0  0  0  0
   -1.8346   23.2072  -25.6820 H   0  0  0  0  0  0  0  0  0  0  0  0
   -0.1862   23.4227  -26.4292 H   0  0  0  0  0  0  0  0  0  0  0  0
   -2.7079   25.3091  -25.4591 H   0  0  0  0  0  0  0  0  0  0  0  0
   -2.9759   26.3009  -26.9747 H   0  0  0  0  0  0  0  0  0  0  0  0
   -4.4175   23.8743  -25.9911 H   0  0  0  0  0  0  0  0  0  0  0  0
   -5.0076   25.2737  -26.9429 H   0  0  0  0  0  0  0  0  0  0  0  0
   -5.7323   23.4292  -29.1350 H   0  0  0  0  0  0  0  0  0  0  0  0
   -5.4321   25.1559  -28.6558 H   0  0  0  0  0  0  0  0  0  0  0  0
   -5.6885   22.3601  -30.9608 H   0  0  0  0  0  0  0  0  0  0  0  0
   -4.9855   22.4152  -32.6185 H   0  0  0  0  0  0  0  0  0  0  0  0
   -0.3360   20.9370  -32.6160 H   0  0  0  0  0  0  0  0  0  0  0  0
   -1.6000   20.5570  -31.4080 H   0  0  0  0  0  0  0  0  0  0  0  0
   -3.6162   17.9394  -34.8268 H   0  0  0  0  0  0  0  0  0  0  0  0
   -6.2524   16.8116  -34.6721 H   0  0  0  0  0  0  0  0  0  0  0  0
   -8.4163   16.9591  -33.3918 H   0  0  0  0  0  0  0  0  0  0  0  0
   -9.4620   19.5040  -31.2710 H   0  0  0  0  0  0  0  0  0  0  0  0
   -9.3280   17.7680  -30.8260 H   0  0  0  0  0  0  0  0  0  0  0  0
   -6.7019   20.0529  -30.8432 H   0  0  0  0  0  0  0  0  0  0  0  0
   -2.7190   24.4697  -29.0124 H   0  0  0  0  0  0  0  0  0  0  0  0
   -1.4756   25.7897  -28.9568 H   0  0  0  0  0  0  0  0  0  0  0  0
   -0.7770   23.8817  -30.4027 H   0  0  0  0  0  0  0  0  0  0  0  0
    0.3260   24.1440  -29.0044 H   0  0  0  0  0  0  0  0  0  0  0  0
  1  2  1  0
  2  3  1  0
  2  4  1  0
  2  5  1  0
  5  6  1  0
  6  7  2  0
  6  8  1  0
  8  9  1  0
  9 10  1  0
 10 11  1  0
 11 12  1  0
 12 13  1  0
 13 14  1  0
 14 15  1  0
 15 16  1  0
 16 17  2  0
 16 18  1  0
 18 19  1  0
 19 20  1  0
 20 21  2  0
 20 22  1  0
 22 23  1  0
 23 24  1  0
 24 25  1  0
 24 26  2  0
 23 27  2  0
 27 28  1  0
 28 29  2  0
 29 30  1  0
 30 31  2  0
 31 32  1  0
 31 33  1  0
 33 34  2  0
 11 35  1  0
 35 36  1  0
 36  8  1  0
 34 22  1  0
 34 28  1  0
  1 37  1  0
  1 38  1  0
  1 39  1  0
  3 40  1  0
  3 41  1  0
  3 42  1  0
  4 43  1  0
  4 44  1  0
  4 45  1  0
  9 46  1  0
  9 47  1  0
 10 48  1  0
 10 49  1  0
 12 50  1  0
 12 51  1  0
 13 52  1  0
 13 53  1  0
 15 54  1  0
 15 55  1  0
 19 56  1  0
 19 57  1  0
 25 58  1  0
 25 59  1  0
 27 60  1  0
 29 61  1  0
 30 62  1  0
 32 63  1  0
 32 64  1  0
 33 65  1  0
 35 66  1  0
 35 67  1  0
 36 68  1  0
 36 69  1  0
M  CHG  1  18  -1
M  END
>  <UniqueID>  (87) 
86

>  <SMILES>  (87) 
CC(C)(C)OC(=O)N1CCN(CCOCC(=O)[N-]CC(=O)n2c(C(N)=O)cc3ccc(N)cc32)CC1

>  <Energy>  (87) 
111.23051505556698

>  <Genealogy>  (87) 
CC(C)(C)OC(=O)N1CCN(CCOCC(=O)[N-]CC(=O)n2c(C(N)=O)cc3ccc(N)cc32)CC1 (protonated)
CC(C)(C)OC(=O)N1CCN(CCOCC(=O)[N-]CC(=O)n2c(C(N)=O)cc3ccc(N)cc32)CC1 (3D coordinates assigned)
CC(C)(C)OC(=O)N1CCN(CCOCC(=O)[N-]CC(=O)n2c(C(N)=O)cc3ccc(N)cc32)CC1 (nonaromatic ring conformer: 111.23051505556698 kcal/mol)

>  <smiles>  (87) 
CC(C)(C)OC(=O)N1CCN(CCOCC(=O)NCC(=O)n2c(C(N)=O)cc3ccc(N)cc32)CC1

>  <score_type>  (87) 
oracle

>  <origin>  (87) 
adg

>  <m_score__min__energy>  (87) 
-10.02

>  <m_primary>  (87) 
energy

$$$$
87:0
     RDKit          3D

 45 46  0  0  0  0  0  0  0  0999 V2000
   -1.4500   20.1220  -27.5180 C   0  0  0  0  0  0  0  0  0  0  0  0
   -1.5090   21.3570  -28.3080 N   0  0  0  0  0  0  0  0  0  0  0  0
   -0.2700   22.0920  -28.6090 C   0  0  0  0  0  0  0  0  0  0  0  0
   -0.4690   23.5890  -28.3720 C   0  0  0  0  0  0  0  0  0  0  0  0
   -0.8540   24.2010  -29.5780 O   0  0  0  0  0  0  0  0  0  0  0  0
   -2.0470   24.8030  -29.3320 N   0  0  0  0  0  0  0  0  0  0  0  0
   -2.7820   21.8840  -28.7470 C   0  0  0  0  0  0  0  0  0  0  0  0
   -3.3450   22.7930  -28.0730 O   0  0  0  0  0  0  0  0  0  0  0  0
   -3.4880   21.3190  -29.9550 C   0  0  0  0  0  0  0  0  0  0  0  0
   -3.9140   22.3950  -30.9140 C   0  0  0  0  0  0  0  0  0  0  0  0
   -3.0390   23.0610  -31.5300 O   0  0  0  0  0  0  0  0  0  0  0  0
   -5.3030   22.7240  -31.0710 N   0  0  0  0  0  0  0  0  0  0  0  0
   -5.9050   23.9360  -30.9090 C   0  0  0  0  0  0  0  0  0  0  0  0
   -5.2640   25.1590  -30.3780 C   0  0  0  0  0  0  0  0  0  0  0  0
   -3.9940   25.5910  -30.8610 N   0  0  0  0  0  0  0  0  0  0  0  0
   -5.8300   25.8150  -29.4640 O   0  0  0  0  0  0  0  0  0  0  0  0
   -7.2560   23.8560  -31.2410 C   0  0  0  0  0  0  0  0  0  0  0  0
   -7.4650   22.5440  -31.6060 C   0  0  0  0  0  0  0  0  0  0  0  0
   -8.6260   21.9030  -32.0280 C   0  0  0  0  0  0  0  0  0  0  0  0
   -8.5460   20.5360  -32.3450 C   0  0  0  0  0  0  0  0  0  0  0  0
   -7.3140   19.8420  -32.2460 C   0  0  0  0  0  0  0  0  0  0  0  0
   -7.2500   18.3700  -32.5410 C   0  0  0  0  0  0  0  0  0  0  0  0
   -6.0580   18.0710  -33.3940 C   0  0  0  0  0  0  0  0  0  0  0  0
   -5.0150   17.5910  -32.8790 O   0  0  0  0  0  0  0  0  0  0  0  0
   -6.1190   18.2670  -34.7670 O   0  0  0  0  0  0  0  0  0  0  0  0
   -6.1570   20.5250  -31.8050 C   0  0  0  0  0  0  0  0  0  0  0  0
   -6.2710   21.8820  -31.4900 C   0  0  0  0  0  0  0  0  0  0  0  0
   -1.4619   20.3711  -26.4466 H   0  0  0  0  0  0  0  0  0  0  0  0
   -2.3191   19.4916  -27.7575 H   0  0  0  0  0  0  0  0  0  0  0  0
   -0.5248   19.5773  -27.7575 H   0  0  0  0  0  0  0  0  0  0  0  0
    0.5366   21.7256  -27.9569 H   0  0  0  0  0  0  0  0  0  0  0  0
   -0.0054   21.9293  -29.6642 H   0  0  0  0  0  0  0  0  0  0  0  0
   -1.2532   23.7407  -27.6157 H   0  0  0  0  0  0  0  0  0  0  0  0
    0.4711   24.0348  -28.0151 H   0  0  0  0  0  0  0  0  0  0  0  0
   -2.0720   25.6720  -29.9140 H   0  0  0  0  0  0  0  0  0  0  0  0
   -2.7890   24.1690  -29.7110 H   0  0  0  0  0  0  0  0  0  0  0  0
   -2.8059   20.6301  -30.4747 H   0  0  0  0  0  0  0  0  0  0  0  0
   -4.3918   20.7977  -29.6067 H   0  0  0  0  0  0  0  0  0  0  0  0
   -3.1220   25.0660  -30.6250 H   0  0  0  0  0  0  0  0  0  0  0  0
   -7.9979   24.6678  -31.2168 H   0  0  0  0  0  0  0  0  0  0  0  0
   -9.5771   22.4494  -32.1109 H   0  0  0  0  0  0  0  0  0  0  0  0
   -9.4484   19.9994  -32.6732 H   0  0  0  0  0  0  0  0  0  0  0  0
   -7.1711   17.8121  -31.5962 H   0  0  0  0  0  0  0  0  0  0  0  0
   -8.1623   18.0689  -33.0767 H   0  0  0  0  0  0  0  0  0  0  0  0
   -5.1934   20.0025  -31.7124 H   0  0  0  0  0  0  0  0  0  0  0  0
  1  2  1  0
  2  3  1  0
  3  4  1  0
  4  5  1  0
  5  6  1  0
  2  7  1  0
  7  8  2  0
  7  9  1  0
  9 10  1  0
 10 11  2  0
 10 12  1  0
 12 13  1  0
 13 14  1  0
 14 15  1  0
 14 16  2  0
 13 17  2  0
 17 18  1  0
 18 19  2  0
 19 20  1  0
 20 21  2  0
 21 22  1  0
 22 23  1  0
 23 24  2  0
 23 25  1  0
 21 26  1  0
 26 27  2  0
 27 12  1  0
 27 18  1  0
  1 28  1  0
  1 29  1  0
  1 30  1  0
  3 31  1  0
  3 32  1  0
  4 33  1  0
  4 34  1  0
  6 35  1  0
  6 36  1  0
  9 37  1  0
  9 38  1  0
 15 39  1  0
 17 40  1  0
 19 41  1  0
 20 42  1  0
 22 43  1  0
 22 44  1  0
 26 45  1  0
M  CHG  2  15  -1  25  -1
M  END
>  <UniqueID>  (88) 
87

>  <SMILES>  (88) 
CN(CCON)C(=O)CC(=O)n1c(C([NH-])=O)cc2ccc(CC(=O)[O-])cc21

>  <Energy>  (88) 
77.27162271411093

>  <Genealogy>  (88) 
CN(CCON)C(=O)CC(=O)n1c(C([NH-])=O)cc2ccc(CC(=O)[O-])cc21 (protonated)
CN(CCON)C(=O)CC(=O)n1c(C([NH-])=O)cc2ccc(CC(=O)[O-])cc21 (3D coordinates assigned)
CN(CCON)C(=O)CC(=O)n1c(C([NH-])=O)cc2ccc(CC(=O)[O-])cc21 (optimized conformer: 77.27162271411093 kcal/mol)

>  <smiles>  (88) 
CN(CCON)C(=O)CC(=O)n1c(C(N)=O)cc2ccc(CC(=O)O)cc21

>  <score_type>  (88) 
oracle

>  <origin>  (88) 
adg

>  <m_score__min__energy>  (88) 
-10.09

>  <m_primary>  (88) 
energy

$$$$
88:0
     RDKit          3D

 39 40  0  0  0  0  0  0  0  0999 V2000
   -1.0370   22.8380  -29.5720 C   0  0  0  0  0  0  0  0  0  0  0  0
   -2.4850   22.9830  -29.3810 N   0  0  0  0  0  0  0  0  0  0  0  0
   -3.3770   21.8950  -29.8120 C   0  0  0  0  0  0  0  0  0  0  0  0
   -4.0620   22.2690  -31.0930 C   0  0  0  0  0  0  0  0  0  0  0  0
   -3.3810   22.5290  -32.1200 O   0  0  0  0  0  0  0  0  0  0  0  0
   -5.4900   22.3840  -31.1400 N   0  0  0  0  0  0  0  0  0  0  0  0
   -6.2450   23.4950  -30.9170 C   0  0  0  0  0  0  0  0  0  0  0  0
   -5.7270   24.7850  -30.4110 C   0  0  0  0  0  0  0  0  0  0  0  0
   -5.7460   25.0880  -29.0150 N   0  0  0  0  0  0  0  0  0  0  0  0
   -5.2470   25.6300  -31.2140 O   0  0  0  0  0  0  0  0  0  0  0  0
   -7.5860   23.2300  -31.1950 C   0  0  0  0  0  0  0  0  0  0  0  0
   -7.6210   21.9140  -31.6040 C   0  0  0  0  0  0  0  0  0  0  0  0
   -8.6880   21.1370  -32.0440 C   0  0  0  0  0  0  0  0  0  0  0  0
   -8.4190   19.8200  -32.4540 C   0  0  0  0  0  0  0  0  0  0  0  0
   -7.1000   19.2980  -32.4030 C   0  0  0  0  0  0  0  0  0  0  0  0
   -6.8110   17.9070  -32.9060 C   0  0  0  0  0  0  0  0  0  0  0  0
   -6.5110   17.9300  -34.2580 F   0  0  0  0  0  0  0  0  0  0  0  0
   -7.9230   17.1110  -32.7060 F   0  0  0  0  0  0  0  0  0  0  0  0
   -5.7340   17.3570  -32.2330 F   0  0  0  0  0  0  0  0  0  0  0  0
   -6.0410   20.1270  -31.9670 C   0  0  0  0  0  0  0  0  0  0  0  0
   -6.3420   21.4300  -31.5600 C   0  0  0  0  0  0  0  0  0  0  0  0
   -2.9770   24.1370  -28.6620 C   0  0  0  0  0  0  0  0  0  0  0  0
   -3.0900   25.2420  -29.2600 O   0  0  0  0  0  0  0  0  0  0  0  0
   -3.3620   24.0740  -27.2090 C   0  0  0  0  0  0  0  0  0  0  0  0
   -4.4700   24.8940  -26.9590 O   0  0  0  0  0  0  0  0  0  0  0  0
   -0.5410   22.7883  -28.5914 H   0  0  0  0  0  0  0  0  0  0  0  0
   -0.8319   21.9148  -30.1339 H   0  0  0  0  0  0  0  0  0  0  0  0
   -0.6529   23.7022  -30.1339 H   0  0  0  0  0  0  0  0  0  0  0  0
   -2.7863   20.9803  -29.9685 H   0  0  0  0  0  0  0  0  0  0  0  0
   -4.1357   21.7213  -29.0347 H   0  0  0  0  0  0  0  0  0  0  0  0
   -5.3460   25.9890  -28.6700 H   0  0  0  0  0  0  0  0  0  0  0  0
   -6.1920   24.4470  -28.3230 H   0  0  0  0  0  0  0  0  0  0  0  0
   -8.4351   23.9237  -31.1066 H   0  0  0  0  0  0  0  0  0  0  0  0
   -9.7107   21.5411  -32.0701 H   0  0  0  0  0  0  0  0  0  0  0  0
   -9.2405   19.1860  -32.8189 H   0  0  0  0  0  0  0  0  0  0  0  0
   -5.0057   19.7558  -31.9485 H   0  0  0  0  0  0  0  0  0  0  0  0
   -3.6132   23.0359  -26.9458 H   0  0  0  0  0  0  0  0  0  0  0  0
   -2.5152   24.4251  -26.6010 H   0  0  0  0  0  0  0  0  0  0  0  0
   -4.3870   25.6750  -27.5650 H   0  0  0  0  0  0  0  0  0  0  0  0
  1  2  1  0
  2  3  1  0
  3  4  1  0
  4  5  2  0
  4  6  1  0
  6  7  1  0
  7  8  1  0
  8  9  1  0
  8 10  2  0
  7 11  2  0
 11 12  1  0
 12 13  2  0
 13 14  1  0
 14 15  2  0
 15 16  1  0
 16 17  1  0
 16 18  1  0
 16 19  1  0
 15 20  1  0
 20 21  2  0
  2 22  1  0
 22 23  2  0
 22 24  1  0
 24 25  1  0
 21  6  1  0
 21 12  1  0
  1 26  1  0
  1 27  1  0
  1 28  1  0
  3 29  1  0
  3 30  1  0
  9 31  1  0
  9 32  1  0
 11 33  1  0
 13 34  1  0
 14 35  1  0
 20 36  1  0
 24 37  1  0
 24 38  1  0
 25 39  1  0
M  END
>  <UniqueID>  (89) 
88

>  <SMILES>  (89) 
CN(CC(=O)n1c(C(N)=O)cc2ccc(C(F)(F)F)cc21)C(=O)CO

>  <Energy>  (89) 
74.79597383564287

>  <Genealogy>  (89) 
CN(CC(=O)n1c(C(N)=O)cc2ccc(C(F)(F)F)cc21)C(=O)CO (3D coordinates assigned)
CN(CC(=O)n1c(C(N)=O)cc2ccc(C(F)(F)F)cc21)C(=O)CO (optimized conformer: 74.79597383564287 kcal/mol)

>  <smiles>  (89) 
CN(CC(=O)n1c(C(N)=O)cc2ccc(C(F)(F)F)cc21)C(=O)CO

>  <score_type>  (89) 
oracle

>  <origin>  (89) 
adg

>  <m_score__min__energy>  (89) 
-8.5299999999999994

>  <m_primary>  (89) 
energy

$$$$
89:0
     RDKit          3D

 52 55  0  0  0  0  0  0  0  0999 V2000
   -4.0040   25.6720  -30.8400 N   0  0  0  0  0  0  0  0  0  0  0  0
   -5.2850   25.2920  -30.3460 C   0  0  0  0  0  0  0  0  0  0  0  0
   -5.9140   26.0830  -29.5930 O   0  0  0  0  0  0  0  0  0  0  0  0
   -5.9000   24.0080  -30.7370 C   0  0  0  0  0  0  0  0  0  0  0  0
   -7.2570   23.8560  -31.0190 C   0  0  0  0  0  0  0  0  0  0  0  0
   -7.4040   22.5440  -31.4070 C   0  0  0  0  0  0  0  0  0  0  0  0
   -8.5410   21.8480  -31.8050 C   0  0  0  0  0  0  0  0  0  0  0  0
   -8.4000   20.4910  -32.1400 C   0  0  0  0  0  0  0  0  0  0  0  0
   -7.1360   19.8490  -32.0500 C   0  0  0  0  0  0  0  0  0  0  0  0
   -6.9900   18.4030  -32.4530 C   0  0  0  0  0  0  0  0  0  0  0  0
   -5.9740   17.8260  -31.7140 F   0  0  0  0  0  0  0  0  0  0  0  0
   -8.1660   17.7100  -32.2230 F   0  0  0  0  0  0  0  0  0  0  0  0
   -6.6830   18.2990  -33.7990 F   0  0  0  0  0  0  0  0  0  0  0  0
   -6.0010   20.5990  -31.6640 C   0  0  0  0  0  0  0  0  0  0  0  0
   -6.1730   21.9500  -31.3480 C   0  0  0  0  0  0  0  0  0  0  0  0
   -5.2390   22.8320  -30.9350 N   0  0  0  0  0  0  0  0  0  0  0  0
   -3.8570   22.5340  -30.6840 C   0  0  0  0  0  0  0  0  0  0  0  0
   -2.9620   23.2350  -31.2270 O   0  0  0  0  0  0  0  0  0  0  0  0
   -3.4520   21.3700  -29.8280 C   0  0  0  0  0  0  0  0  0  0  0  0
   -2.0960   21.5110  -29.4090 O   0  0  0  0  0  0  0  0  0  0  0  0
   -1.6550   22.4170  -28.4340 C   0  0  0  0  0  0  0  0  0  0  0  0
   -1.6180   23.8050  -28.6540 C   0  0  0  0  0  0  0  0  0  0  0  0
   -1.1730   24.6660  -27.6470 C   0  0  0  0  0  0  0  0  0  0  0  0
   -0.7570   24.1590  -26.4020 C   0  0  0  0  0  0  0  0  0  0  0  0
   -0.2940   25.0490  -25.3610 N   0  0  0  0  0  0  0  0  0  0  0  0
   -1.1520   26.1390  -24.8770 C   0  0  0  0  0  0  0  0  0  0  0  0
   -0.7590   26.5300  -23.4490 C   0  0  0  0  0  0  0  0  0  0  0  0
    0.6590   26.9210  -23.3430 N   0  0  0  0  0  0  0  0  0  0  0  0
    1.5750   26.2020  -24.2510 C   0  0  0  0  0  0  0  0  0  0  0  0
    1.0220   24.8570  -24.7380 C   0  0  0  0  0  0  0  0  0  0  0  0
   -0.7950   22.7690  -26.1900 C   0  0  0  0  0  0  0  0  0  0  0  0
   -1.2410   21.9100  -27.1990 C   0  0  0  0  0  0  0  0  0  0  0  0
   -3.1310   25.2580  -30.4450 H   0  0  0  0  0  0  0  0  0  0  0  0
   -8.0430   24.6221  -30.9467 H   0  0  0  0  0  0  0  0  0  0  0  0
   -9.5209   22.3453  -31.8558 H   0  0  0  0  0  0  0  0  0  0  0  0
   -9.2779   19.9194  -32.4756 H   0  0  0  0  0  0  0  0  0  0  0  0
   -5.0069   20.1308  -31.6136 H   0  0  0  0  0  0  0  0  0  0  0  0
   -4.1028   21.3273  -28.9422 H   0  0  0  0  0  0  0  0  0  0  0  0
   -3.5508   20.4441  -30.4136 H   0  0  0  0  0  0  0  0  0  0  0  0
   -1.9405   24.2150  -29.6224 H   0  0  0  0  0  0  0  0  0  0  0  0
   -1.1477   25.7505  -27.8294 H   0  0  0  0  0  0  0  0  0  0  0  0
   -1.0373   27.0116  -25.5369 H   0  0  0  0  0  0  0  0  0  0  0  0
   -2.1983   25.7995  -24.8802 H   0  0  0  0  0  0  0  0  0  0  0  0
   -1.3838   27.3773  -23.1302 H   0  0  0  0  0  0  0  0  0  0  0  0
   -0.9133   25.6508  -22.8061 H   0  0  0  0  0  0  0  0  0  0  0  0
    0.9660   26.7540  -22.3560 H   0  0  0  0  0  0  0  0  0  0  0  0
    1.7663   26.8379  -25.1279 H   0  0  0  0  0  0  0  0  0  0  0  0
    2.4923   25.9883  -23.6828 H   0  0  0  0  0  0  0  0  0  0  0  0
    1.7142   24.4244  -25.4754 H   0  0  0  0  0  0  0  0  0  0  0  0
    0.9184   24.1777  -23.8790 H   0  0  0  0  0  0  0  0  0  0  0  0
   -0.4716   22.3549  -25.2236 H   0  0  0  0  0  0  0  0  0  0  0  0
   -1.2663   20.8251  -27.0192 H   0  0  0  0  0  0  0  0  0  0  0  0
  1  2  1  0
  2  3  2  0
  2  4  1  0
  4  5  2  0
  5  6  1  0
  6  7  2  0
  7  8  1  0
  8  9  2  0
  9 10  1  0
 10 11  1  0
 10 12  1  0
 10 13  1  0
  9 14  1  0
 14 15  2  0
 15 16  1  0
 16 17  1  0
 17 18  2  0
 17 19  1  0
 19 20  1  0
 20 21  1  0
 21 22  2  0
 22 23  1  0
 23 24  2  0
 24 25  1  0
 25 26  1  0
 26 27  1  0
 27 28  1  0
 28 29  1  0
 29 30  1  0
 24 31  1  0
 31 32  2  0
 16  4  1  0
 32 21  1  0
 15  6  1  0
 30 25  1  0
  1 33  1  0
  5 34  1  0
  7 35  1  0
  8 36  1  0
 14 37  1  0
 19 38  1  0
 19 39  1  0
 22 40  1  0
 23 41  1  0
 26 42  1  0
 26 43  1  0
 27 44  1  0
 27 45  1  0
 28 46  1  0
 29 47  1  0
 29 48  1  0
 30 49  1  0
 30 50  1  0
 31 51  1  0
 32 52  1  0
M  CHG  1   1  -1
M  END
>  <UniqueID>  (90) 
89

>  <SMILES>  (90) 
[NH-]C(=O)c1cc2ccc(C(F)(F)F)cc2n1C(=O)COc1ccc(N2CCNCC2)cc1

>  <Energy>  (90) 
102.7758268656151

>  <Genealogy>  (90) 
[NH-]C(=O)c1cc2ccc(C(F)(F)F)cc2n1C(=O)COc1ccc(N2CCNCC2)cc1 (protonated)
[NH-]C(=O)c1cc2ccc(C(F)(F)F)cc2n1C(=O)COc1ccc(N2CCNCC2)cc1 (3D coordinates assigned)
[NH-]C(=O)c1cc2ccc(C(F)(F)F)cc2n1C(=O)COc1ccc(N2CCNCC2)cc1 (nonaromatic ring conformer: 102.7758268656151 kcal/mol)

>  <smiles>  (90) 
NC(=O)c1cc2ccc(C(F)(F)F)cc2n1C(=O)COc1ccc(N2CCNCC2)cc1

>  <score_type>  (90) 
oracle

>  <origin>  (90) 
adg

>  <m_score__min__energy>  (90) 
-12.119999999999999

>  <m_primary>  (90) 
energy

$$$$
90:0
     RDKit          3D

 40 41  0  0  0  0  0  0  0  0999 V2000
   -7.3640   18.5160  -32.7850 C   0  0  0  0  0  0  0  0  0  0  0  0
   -7.4160   19.9130  -32.2460 C   0  0  0  0  0  0  0  0  0  0  0  0
   -8.6650   20.5510  -32.0480 C   0  0  0  0  0  0  0  0  0  0  0  0
   -8.7260   21.8780  -31.5880 C   0  0  0  0  0  0  0  0  0  0  0  0
   -7.5260   22.5380  -31.3390 C   0  0  0  0  0  0  0  0  0  0  0  0
   -7.2930   23.8290  -30.9210 C   0  0  0  0  0  0  0  0  0  0  0  0
   -5.9060   23.9560  -30.8690 C   0  0  0  0  0  0  0  0  0  0  0  0
   -5.2080   25.1810  -30.4240 C   0  0  0  0  0  0  0  0  0  0  0  0
   -3.8670   25.4260  -30.8460 N   0  0  0  0  0  0  0  0  0  0  0  0
   -5.7880   26.0240  -29.6910 O   0  0  0  0  0  0  0  0  0  0  0  0
   -5.3080   22.7890  -31.2360 N   0  0  0  0  0  0  0  0  0  0  0  0
   -3.9020   22.5290  -31.3630 C   0  0  0  0  0  0  0  0  0  0  0  0
   -3.4120   22.2810  -32.4980 O   0  0  0  0  0  0  0  0  0  0  0  0
   -3.0210   22.5530  -30.1870 C   0  0  0  0  0  0  0  0  0  0  0  0
   -3.2590   21.7960  -29.2060 O   0  0  0  0  0  0  0  0  0  0  0  0
   -1.9320   23.4310  -30.1580 O   0  0  0  0  0  0  0  0  0  0  0  0
   -1.0530   23.5510  -29.0400 C   0  0  0  0  0  0  0  0  0  0  0  0
   -1.3070   24.8280  -28.2790 C   0  0  0  0  0  0  0  0  0  0  0  0
   -1.4900   25.8960  -28.9260 O   0  0  0  0  0  0  0  0  0  0  0  0
   -1.2870   24.8620  -26.8350 N   0  0  0  0  0  0  0  0  0  0  0  0
   -0.9810   23.6550  -26.0600 C   0  0  0  0  0  0  0  0  0  0  0  0
   -1.5610   26.1270  -26.1480 C   0  0  0  0  0  0  0  0  0  0  0  0
   -6.3110   21.9330  -31.5250 C   0  0  0  0  0  0  0  0  0  0  0  0
   -6.2190   20.6200  -31.9990 C   0  0  0  0  0  0  0  0  0  0  0  0
   -7.3374   17.8013  -31.9492 H   0  0  0  0  0  0  0  0  0  0  0  0
   -8.2557   18.3271  -33.4007 H   0  0  0  0  0  0  0  0  0  0  0  0
   -6.4607   18.3939  -33.4007 H   0  0  0  0  0  0  0  0  0  0  0  0
   -9.5958   20.0031  -32.2561 H   0  0  0  0  0  0  0  0  0  0  0  0
   -9.6922   22.3793  -31.4297 H   0  0  0  0  0  0  0  0  0  0  0  0
   -8.0424   24.5971  -30.6794 H   0  0  0  0  0  0  0  0  0  0  0  0
   -3.0660   25.2840  -30.1930 H   0  0  0  0  0  0  0  0  0  0  0  0
   -1.2102   22.6953  -28.3669 H   0  0  0  0  0  0  0  0  0  0  0  0
   -0.0179   23.5680  -29.4119 H   0  0  0  0  0  0  0  0  0  0  0  0
   -1.0392   23.8845  -24.9858 H   0  0  0  0  0  0  0  0  0  0  0  0
   -1.7078   22.8669  -26.3065 H   0  0  0  0  0  0  0  0  0  0  0  0
    0.0334   23.3084  -26.3065 H   0  0  0  0  0  0  0  0  0  0  0  0
   -1.5266   25.9683  -25.0600 H   0  0  0  0  0  0  0  0  0  0  0  0
   -0.8032   26.8713  -26.4341 H   0  0  0  0  0  0  0  0  0  0  0  0
   -2.5588   26.4910  -26.4341 H   0  0  0  0  0  0  0  0  0  0  0  0
   -5.2398   20.1507  -32.1747 H   0  0  0  0  0  0  0  0  0  0  0  0
  1  2  1  0
  2  3  2  0
  3  4  1  0
  4  5  2  0
  5  6  1  0
  6  7  2  0
  7  8  1  0
  8  9  1  0
  8 10  2  0
  7 11  1  0
 11 12  1  0
 12 13  2  0
 12 14  1  0
 14 15  2  0
 14 16  1  0
 16 17  1  0
 17 18  1  0
 18 19  2  0
 18 20  1  0
 20 21  1  0
 20 22  1  0
 11 23  1  0
 23 24  2  0
 24  2  1  0
 23  5  1  0
  1 25  1  0
  1 26  1  0
  1 27  1  0
  3 28  1  0
  4 29  1  0
  6 30  1  0
  9 31  1  0
 17 32  1  0
 17 33  1  0
 21 34  1  0
 21 35  1  0
 21 36  1  0
 22 37  1  0
 22 38  1  0
 22 39  1  0
 24 40  1  0
M  CHG  1   9  -1
M  END
>  <UniqueID>  (91) 
90

>  <SMILES>  (91) 
Cc1ccc2cc(C([NH-])=O)n(C(=O)C(=O)OCC(=O)N(C)C)c2c1

>  <Energy>  (91) 
73.9869429256851

>  <Genealogy>  (91) 
Cc1ccc2cc(C([NH-])=O)n(C(=O)C(=O)OCC(=O)N(C)C)c2c1 (protonated)
Cc1ccc2cc(C([NH-])=O)n(C(=O)C(=O)OCC(=O)N(C)C)c2c1 (3D coordinates assigned)
Cc1ccc2cc(C([NH-])=O)n(C(=O)C(=O)OCC(=O)N(C)C)c2c1 (optimized conformer: 73.9869429256851 kcal/mol)

>  <smiles>  (91) 
Cc1ccc2cc(C(N)=O)n(C(=O)C(=O)OCC(=O)N(C)C)c2c1

>  <score_type>  (91) 
oracle

>  <origin>  (91) 
adg

>  <m_score__min__energy>  (91) 
-10.300000000000001

>  <m_primary>  (91) 
energy

$$$$
91:0
     RDKit          3D

 39 41  0  0  0  0  0  0  0  0999 V2000
   -7.5130   13.7060  -34.6130 C   0  0  0  0  0  0  0  0  0  0  0  0
   -6.1390   13.5260  -34.9360 O   0  0  0  0  0  0  0  0  0  0  0  0
   -5.1260   14.3260  -34.3990 C   0  0  0  0  0  0  0  0  0  0  0  0
   -3.9490   13.8860  -34.2970 O   0  0  0  0  0  0  0  0  0  0  0  0
   -5.4400   15.6880  -33.9530 C   0  0  0  0  0  0  0  0  0  0  0  0
   -5.7130   15.9340  -32.6440 N   0  0  0  0  0  0  0  0  0  0  0  0
   -6.0050   17.1880  -32.2110 C   0  0  0  0  0  0  0  0  0  0  0  0
   -6.0320   18.2590  -33.1160 C   0  0  0  0  0  0  0  0  0  0  0  0
   -6.3480   19.6390  -32.6670 C   0  0  0  0  0  0  0  0  0  0  0  0
   -7.6850   20.1150  -32.6960 C   0  0  0  0  0  0  0  0  0  0  0  0
   -7.9930   21.4210  -32.2850 C   0  0  0  0  0  0  0  0  0  0  0  0
   -6.9520   22.2290  -31.8400 C   0  0  0  0  0  0  0  0  0  0  0  0
   -6.9670   23.5360  -31.4110 C   0  0  0  0  0  0  0  0  0  0  0  0
   -5.6430   23.8380  -31.1010 C   0  0  0  0  0  0  0  0  0  0  0  0
   -5.2180   25.1280  -30.5160 C   0  0  0  0  0  0  0  0  0  0  0  0
   -3.9440   25.6740  -30.8530 N   0  0  0  0  0  0  0  0  0  0  0  0
   -5.9820   25.7710  -29.7520 O   0  0  0  0  0  0  0  0  0  0  0  0
   -4.8390   22.7630  -31.3370 N   0  0  0  0  0  0  0  0  0  0  0  0
   -3.4100   22.6920  -31.2140 C   0  0  0  0  0  0  0  0  0  0  0  0
   -2.8430   23.1420  -30.1810 O   0  0  0  0  0  0  0  0  0  0  0  0
   -2.6530   22.1030  -32.2310 O   0  0  0  0  0  0  0  0  0  0  0  0
   -1.8500   20.9480  -32.0190 C   0  0  0  0  0  0  0  0  0  0  0  0
   -5.6570   21.7850  -31.7860 C   0  0  0  0  0  0  0  0  0  0  0  0
   -5.3170   20.4930  -32.2080 C   0  0  0  0  0  0  0  0  0  0  0  0
   -5.7470   17.9790  -34.4610 C   0  0  0  0  0  0  0  0  0  0  0  0
   -5.4580   16.7100  -34.8480 N   0  0  0  0  0  0  0  0  0  0  0  0
   -7.6336   13.7218  -33.5197 H   0  0  0  0  0  0  0  0  0  0  0  0
   -7.8671   14.6582  -35.0348 H   0  0  0  0  0  0  0  0  0  0  0  0
   -8.1005   12.8771  -35.0348 H   0  0  0  0  0  0  0  0  0  0  0  0
   -6.2210   17.3640  -31.1469 H   0  0  0  0  0  0  0  0  0  0  0  0
   -8.4900   19.4516  -33.0451 H   0  0  0  0  0  0  0  0  0  0  0  0
   -9.0272   21.7946  -32.3139 H   0  0  0  0  0  0  0  0  0  0  0  0
   -7.8393   24.2013  -31.3300 H   0  0  0  0  0  0  0  0  0  0  0  0
   -3.0660   25.2710  -30.4580 H   0  0  0  0  0  0  0  0  0  0  0  0
   -1.7313   20.7772  -30.9388 H   0  0  0  0  0  0  0  0  0  0  0  0
   -2.3364   20.0742  -32.4771 H   0  0  0  0  0  0  0  0  0  0  0  0
   -0.8615   21.0995  -32.4771 H   0  0  0  0  0  0  0  0  0  0  0  0
   -4.2721   20.1501  -32.1831 H   0  0  0  0  0  0  0  0  0  0  0  0
   -5.7577   18.7899  -35.2041 H   0  0  0  0  0  0  0  0  0  0  0  0
  1  2  1  0
  2  3  1  0
  3  4  2  0
  3  5  1  0
  5  6  2  0
  6  7  1  0
  7  8  2  0
  8  9  1  0
  9 10  2  0
 10 11  1  0
 11 12  2  0
 12 13  1  0
 13 14  2  0
 14 15  1  0
 15 16  1  0
 15 17  2  0
 14 18  1  0
 18 19  1  0
 19 20  2  0
 19 21  1  0
 21 22  1  0
 18 23  1  0
 23 24  2  0
  8 25  1  0
 25 26  2  0
 26  5  1  0
 24  9  1  0
 23 12  1  0
  1 27  1  0
  1 28  1  0
  1 29  1  0
  7 30  1  0
 10 31  1  0
 11 32  1  0
 13 33  1  0
 16 34  1  0
 22 35  1  0
 22 36  1  0
 22 37  1  0
 24 38  1  0
 25 39  1  0
M  CHG  1  16  -1
M  END
>  <UniqueID>  (92) 
91

>  <SMILES>  (92) 
COC(=O)c1ncc(-c2ccc3cc(C([NH-])=O)n(C(=O)OC)c3c2)cn1

>  <Energy>  (92) 
81.25816837704284

>  <Genealogy>  (92) 
COC(=O)c1ncc(-c2ccc3cc(C([NH-])=O)n(C(=O)OC)c3c2)cn1 (protonated)
COC(=O)c1ncc(-c2ccc3cc(C([NH-])=O)n(C(=O)OC)c3c2)cn1 (3D coordinates assigned)
COC(=O)c1ncc(-c2ccc3cc(C([NH-])=O)n(C(=O)OC)c3c2)cn1 (optimized conformer: 81.25816837704284 kcal/mol)

>  <smiles>  (92) 
COC(=O)c1ncc(-c2ccc3cc(C(N)=O)n(C(=O)OC)c3c2)cn1

>  <score_type>  (92) 
oracle

>  <origin>  (92) 
adg

>  <m_score__min__energy>  (92) 
-9.7200000000000006

>  <m_primary>  (92) 
energy

$$$$
92:0
     RDKit          3D

 61 65  0  0  0  0  0  0  0  0999 V2000
   -4.3210   24.3370  -28.4370 C   0  0  0  0  0  0  0  0  0  0  0  0
   -3.5090   24.1360  -29.4750 C   0  0  0  0  0  0  0  0  0  0  0  0
   -4.0070   24.4120  -30.7560 O   0  0  0  0  0  0  0  0  0  0  0  0
   -5.3360   24.2340  -31.1590 C   0  0  0  0  0  0  0  0  0  0  0  0
   -6.1030   25.2270  -31.2790 O   0  0  0  0  0  0  0  0  0  0  0  0
   -5.8210   22.8800  -31.5020 C   0  0  0  0  0  0  0  0  0  0  0  0
   -7.1330   22.4990  -31.2020 C   0  0  0  0  0  0  0  0  0  0  0  0
   -7.5790   21.2170  -31.5280 C   0  0  0  0  0  0  0  0  0  0  0  0
   -6.7440   20.3100  -32.1330 N   0  0  0  0  0  0  0  0  0  0  0  0
   -7.1850   19.0450  -32.4400 C   0  0  0  0  0  0  0  0  0  0  0  0
   -8.3750   18.7080  -32.1800 O   0  0  0  0  0  0  0  0  0  0  0  0
   -6.3170   18.1080  -33.0420 C   0  0  0  0  0  0  0  0  0  0  0  0
   -6.8150   16.7420  -33.3510 C   0  0  0  0  0  0  0  0  0  0  0  0
   -6.8910   16.3090  -34.5310 O   0  0  0  0  0  0  0  0  0  0  0  0
   -4.9960   18.5230  -33.3210 C   0  0  0  0  0  0  0  0  0  0  0  0
   -4.0330   17.6480  -33.9220 N   0  0  0  0  0  0  0  0  0  0  0  0
   -2.9140   17.1680  -33.1000 C   0  0  0  0  0  0  0  0  0  0  0  0
   -2.1620   16.0080  -33.7590 C   0  0  0  0  0  0  0  0  0  0  0  0
   -2.0690   16.1870  -35.1560 O   0  0  0  0  0  0  0  0  0  0  0  0
   -3.3590   16.0690  -35.7180 C   0  0  0  0  0  0  0  0  0  0  0  0
   -4.2320   17.2590  -35.3250 C   0  0  0  0  0  0  0  0  0  0  0  0
   -4.6090   19.7830  -33.0100 N   0  0  0  0  0  0  0  0  0  0  0  0
   -5.4500   20.6710  -32.4280 C   0  0  0  0  0  0  0  0  0  0  0  0
   -4.9780   21.9530  -32.1280 C   0  0  0  0  0  0  0  0  0  0  0  0
   -2.1040   23.7030  -29.2640 C   0  0  0  0  0  0  0  0  0  0  0  0
   -1.3720   23.4520  -30.2580 O   0  0  0  0  0  0  0  0  0  0  0  0
   -1.5320   23.6500  -27.9490 N   0  0  0  0  0  0  0  0  0  0  0  0
   -0.8340   24.6180  -27.2910 C   0  0  0  0  0  0  0  0  0  0  0  0
   -0.5670   25.9860  -27.7840 C   0  0  0  0  0  0  0  0  0  0  0  0
   -1.2250   26.4940  -28.9400 N   0  0  0  0  0  0  0  0  0  0  0  0
    0.2420   26.7270  -27.1660 O   0  0  0  0  0  0  0  0  0  0  0  0
   -0.4090   24.1470  -26.0480 C   0  0  0  0  0  0  0  0  0  0  0  0
   -0.8710   22.8530  -25.9690 C   0  0  0  0  0  0  0  0  0  0  0  0
   -0.7110   21.9000  -24.9670 C   0  0  0  0  0  0  0  0  0  0  0  0
   -1.2690   20.6270  -25.1720 C   0  0  0  0  0  0  0  0  0  0  0  0
   -1.9870   20.3330  -26.3630 C   0  0  0  0  0  0  0  0  0  0  0  0
   -2.5510   18.9560  -26.6070 C   0  0  0  0  0  0  0  0  0  0  0  0
   -3.0400   18.3990  -25.4390 F   0  0  0  0  0  0  0  0  0  0  0  0
   -3.5870   19.0260  -27.5210 F   0  0  0  0  0  0  0  0  0  0  0  0
   -1.5570   18.1390  -27.1130 F   0  0  0  0  0  0  0  0  0  0  0  0
   -2.1120   21.3240  -27.3620 C   0  0  0  0  0  0  0  0  0  0  0  0
   -1.5490   22.5800  -27.1270 C   0  0  0  0  0  0  0  0  0  0  0  0
   -3.9685   24.1325  -27.4153 H   0  0  0  0  0  0  0  0  0  0  0  0
   -5.3435   24.7074  -28.6022 H   0  0  0  0  0  0  0  0  0  0  0  0
   -7.8132   23.2094  -30.7093 H   0  0  0  0  0  0  0  0  0  0  0  0
   -8.6151   20.9289  -31.2967 H   0  0  0  0  0  0  0  0  0  0  0  0
   -7.1270   16.0888  -32.5228 H   0  0  0  0  0  0  0  0  0  0  0  0
   -2.2113   17.9990  -32.9397 H   0  0  0  0  0  0  0  0  0  0  0  0
   -3.3287   16.8022  -32.1491 H   0  0  0  0  0  0  0  0  0  0  0  0
   -1.1480   15.9517  -33.3363 H   0  0  0  0  0  0  0  0  0  0  0  0
   -2.7163   15.0782  -33.5635 H   0  0  0  0  0  0  0  0  0  0  0  0
   -3.2729   16.0311  -36.8140 H   0  0  0  0  0  0  0  0  0  0  0  0
   -3.8262   15.1482  -35.3388 H   0  0  0  0  0  0  0  0  0  0  0  0
   -3.9789   18.1135  -35.9698 H   0  0  0  0  0  0  0  0  0  0  0  0
   -5.2844   16.9644  -35.4500 H   0  0  0  0  0  0  0  0  0  0  0  0
   -3.9454   22.2330  -32.3835 H   0  0  0  0  0  0  0  0  0  0  0  0
   -1.2400   25.9540  -29.8340 H   0  0  0  0  0  0  0  0  0  0  0  0
    0.1723   24.6943  -25.2913 H   0  0  0  0  0  0  0  0  0  0  0  0
   -0.1641   22.1365  -24.0424 H   0  0  0  0  0  0  0  0  0  0  0  0
   -1.1490   19.8498  -24.4029 H   0  0  0  0  0  0  0  0  0  0  0  0
   -2.6405   21.1112  -28.3030 H   0  0  0  0  0  0  0  0  0  0  0  0
  1  2  2  0
  2  3  1  0
  3  4  1  0
  4  5  2  0
  4  6  1  0
  6  7  1  0
  7  8  2  0
  8  9  1  0
  9 10  1  0
 10 11  2  0
 10 12  1  0
 12 13  1  0
 13 14  2  0
 12 15  2  0
 15 16  1  0
 16 17  1  0
 17 18  1  0
 18 19  1  0
 19 20  1  0
 20 21  1  0
 15 22  1  0
 22 23  2  0
 23 24  1  0
  2 25  1  0
 25 26  2  0
 25 27  1  0
 27 28  1  0
 28 29  1  0
 29 30  1  0
 29 31  2  0
 28 32  2  0
 32 33  1  0
 33 34  2  0
 34 35  1  0
 35 36  2  0
 36 37  1  0
 37 38  1  0
 37 39  1  0
 37 40  1  0
 36 41  1  0
 41 42  2  0
 24  6  2  0
 42 27  1  0
 23  9  1  0
 42 33  1  0
 21 16  1  0
  1 43  1  0
  1 44  1  0
  7 45  1  0
  8 46  1  0
 13 47  1  0
 17 48  1  0
 17 49  1  0
 18 50  1  0
 18 51  1  0
 20 52  1  0
 20 53  1  0
 21 54  1  0
 21 55  1  0
 24 56  1  0
 30 57  1  0
 32 58  1  0
 34 59  1  0
 35 60  1  0
 41 61  1  0
M  CHG  1  30  -1
M  END
>  <UniqueID>  (93) 
92

>  <SMILES>  (93) 
C=C(OC(=O)c1ccn2c(=O)c(C=O)c(N3CCOCC3)nc2c1)C(=O)n1c(C([NH-])=O)cc2ccc(C(F)(F)F)cc21

>  <Energy>  (93) 
130.1793432451404

>  <Genealogy>  (93) 
C=C(OC(=O)c1ccn2c(=O)c(C=O)c(N3CCOCC3)nc2c1)C(=O)n1c(C([NH-])=O)cc2ccc(C(F)(F)F)cc21 (protonated)
C=C(OC(=O)c1ccn2c(=O)c(C=O)c(N3CCOCC3)nc2c1)C(=O)n1c(C([NH-])=O)cc2ccc(C(F)(F)F)cc21 (3D coordinates assigned)
C=C(OC(=O)c1ccn2c(=O)c(C=O)c(N3CCOCC3)nc2c1)C(=O)n1c(C([NH-])=O)cc2ccc(C(F)(F)F)cc21 (nonaromatic ring conformer: 130.1793432451404 kcal/mol)

>  <smiles>  (93) 
C=C(OC(=O)c1ccn2c(=O)c(C=O)c(N3CCOCC3)nc2c1)C(=O)n1c(C(N)=O)cc2ccc(C(F)(F)F)cc21

>  <score_type>  (93) 
oracle

>  <origin>  (93) 
adg

>  <m_score__min__energy>  (93) 
-12.49

>  <m_primary>  (93) 
energy

$$$$
93:0
     RDKit          3D

 44 46  0  0  0  0  0  0  0  0999 V2000
   -6.7000   18.4010  -33.4570 C   0  0  0  0  0  0  0  0  0  0  0  0
   -6.7930   19.7410  -32.7910 C   0  0  0  0  0  0  0  0  0  0  0  0
   -8.0550   20.3630  -32.6260 C   0  0  0  0  0  0  0  0  0  0  0  0
   -8.1640   21.5950  -31.9630 C   0  0  0  0  0  0  0  0  0  0  0  0
   -6.9990   22.1790  -31.4750 C   0  0  0  0  0  0  0  0  0  0  0  0
   -6.8200   23.3500  -30.7750 C   0  0  0  0  0  0  0  0  0  0  0  0
   -5.4510   23.4310  -30.5310 C   0  0  0  0  0  0  0  0  0  0  0  0
   -4.8070   24.5900  -29.8790 C   0  0  0  0  0  0  0  0  0  0  0  0
   -3.8630   25.3960  -30.5800 N   0  0  0  0  0  0  0  0  0  0  0  0
   -5.1320   24.9050  -28.7030 O   0  0  0  0  0  0  0  0  0  0  0  0
   -4.8080   22.3460  -31.0500 N   0  0  0  0  0  0  0  0  0  0  0  0
   -3.4160   22.0130  -30.9470 C   0  0  0  0  0  0  0  0  0  0  0  0
   -3.0640   20.8050  -30.8580 O   0  0  0  0  0  0  0  0  0  0  0  0
   -2.4560   23.0300  -30.9740 O   0  0  0  0  0  0  0  0  0  0  0  0
   -1.3850   23.1220  -30.0360 C   0  0  0  0  0  0  0  0  0  0  0  0
   -1.6770   24.1830  -29.0060 C   0  0  0  0  0  0  0  0  0  0  0  0
   -1.1630   25.2850  -29.1450 O   0  0  0  0  0  0  0  0  0  0  0  0
   -2.5130   23.9000  -27.8490 N   0  0  0  0  0  0  0  0  0  0  0  0
   -2.8390   22.4530  -27.7500 C   0  0  0  0  0  0  0  0  0  0  0  0
   -1.9250   21.7010  -26.7650 C   0  0  0  0  0  0  0  0  0  0  0  0
   -0.6440   22.2890  -26.7330 O   0  0  0  0  0  0  0  0  0  0  0  0
   -0.7110   23.5640  -26.1210 C   0  0  0  0  0  0  0  0  0  0  0  0
   -1.9070   24.4210  -26.6060 C   0  0  0  0  0  0  0  0  0  0  0  0
   -5.7680   21.5920  -31.6290 C   0  0  0  0  0  0  0  0  0  0  0  0
   -5.6330   20.3550  -32.2690 C   0  0  0  0  0  0  0  0  0  0  0  0
   -6.6454   17.6137  -32.6907 H   0  0  0  0  0  0  0  0  0  0  0  0
   -7.5892   18.2409  -34.0845 H   0  0  0  0  0  0  0  0  0  0  0  0
   -5.7972   18.3653  -34.0845 H   0  0  0  0  0  0  0  0  0  0  0  0
   -8.9583   19.8755  -33.0214 H   0  0  0  0  0  0  0  0  0  0  0  0
   -9.1406   22.0842  -31.8330 H   0  0  0  0  0  0  0  0  0  0  0  0
   -7.5944   24.0701  -30.4721 H   0  0  0  0  0  0  0  0  0  0  0  0
   -2.8380   25.2100  -30.5080 H   0  0  0  0  0  0  0  0  0  0  0  0
   -1.2606   22.1522  -29.5319 H   0  0  0  0  0  0  0  0  0  0  0  0
   -0.4632   23.3905  -30.5728 H   0  0  0  0  0  0  0  0  0  0  0  0
   -3.4200   24.4080  -27.9730 H   0  0  0  0  0  0  0  0  0  0  0  0
   -3.8806   22.3498  -27.4116 H   0  0  0  0  0  0  0  0  0  0  0  0
   -2.6875   22.0107  -28.7457 H   0  0  0  0  0  0  0  0  0  0  0  0
   -2.3669   21.7410  -25.7585 H   0  0  0  0  0  0  0  0  0  0  0  0
   -1.8288   20.6563  -27.0956 H   0  0  0  0  0  0  0  0  0  0  0  0
   -0.8015   23.4238  -25.0337 H   0  0  0  0  0  0  0  0  0  0  0  0
    0.2067   24.1039  -26.3975 H   0  0  0  0  0  0  0  0  0  0  0  0
   -2.6744   24.4326  -25.8180 H   0  0  0  0  0  0  0  0  0  0  0  0
   -1.5280   25.4315  -26.8185 H   0  0  0  0  0  0  0  0  0  0  0  0
   -4.6487   19.8731  -32.3632 H   0  0  0  0  0  0  0  0  0  0  0  0
  1  2  1  0
  2  3  2  0
  3  4  1  0
  4  5  2  0
  5  6  1  0
  6  7  2  0
  7  8  1  0
  8  9  1  0
  8 10  2  0
  7 11  1  0
 11 12  1  0
 12 13  2  0
 12 14  1  0
 14 15  1  0
 15 16  1  0
 16 17  2  0
 16 18  1  0
 18 19  1  0
 19 20  1  0
 20 21  1  0
 21 22  1  0
 22 23  1  0
 11 24  1  0
 24 25  2  0
 25  2  1  0
 24  5  1  0
 23 18  1  0
  1 26  1  0
  1 27  1  0
  1 28  1  0
  3 29  1  0
  4 30  1  0
  6 31  1  0
  9 32  1  0
 15 33  1  0
 15 34  1  0
 18 35  1  0
 19 36  1  0
 19 37  1  0
 20 38  1  0
 20 39  1  0
 22 40  1  0
 22 41  1  0
 23 42  1  0
 23 43  1  0
 25 44  1  0
M  CHG  2   9  -1  18   1
M  END
>  <UniqueID>  (94) 
93

>  <SMILES>  (94) 
Cc1ccc2cc(C([NH-])=O)n(C(=O)OCC(=O)[NH+]3CCOCC3)c2c1

>  <Energy>  (94) 
93.38845850758814

>  <Genealogy>  (94) 
Cc1ccc2cc(C([NH-])=O)n(C(=O)OCC(=O)[NH+]3CCOCC3)c2c1 (protonated)
Cc1ccc2cc(C([NH-])=O)n(C(=O)OCC(=O)[NH+]3CCOCC3)c2c1 (3D coordinates assigned)
Cc1ccc2cc(C([NH-])=O)n(C(=O)OCC(=O)[NH+]3CCOCC3)c2c1 (nonaromatic ring conformer: 93.38845850758814 kcal/mol)

>  <smiles>  (94) 
Cc1ccc2cc(C(N)=O)n(C(=O)OCC(=O)N3CCOCC3)c2c1

>  <score_type>  (94) 
oracle

>  <origin>  (94) 
adg

>  <m_score__min__energy>  (94) 
-9.0399999999999991

>  <m_primary>  (94) 
energy

$$$$
94:0
     RDKit          3D

 36 37  0  0  0  0  0  0  0  0999 V2000
   -7.6410   18.4610  -32.7480 C   0  0  0  0  0  0  0  0  0  0  0  0
   -7.6470   19.8820  -32.2680 C   0  0  0  0  0  0  0  0  0  0  0  0
   -8.8740   20.5690  -32.1030 C   0  0  0  0  0  0  0  0  0  0  0  0
   -8.8900   21.9160  -31.7020 C   0  0  0  0  0  0  0  0  0  0  0  0
   -7.6690   22.5460  -31.4810 C   0  0  0  0  0  0  0  0  0  0  0  0
   -7.3970   23.8460  -31.1200 C   0  0  0  0  0  0  0  0  0  0  0  0
   -6.0070   23.9300  -31.0630 C   0  0  0  0  0  0  0  0  0  0  0  0
   -5.2830   25.1420  -30.6270 C   0  0  0  0  0  0  0  0  0  0  0  0
   -3.8780   25.2670  -30.8230 N   0  0  0  0  0  0  0  0  0  0  0  0
   -5.9070   26.0590  -30.0290 O   0  0  0  0  0  0  0  0  0  0  0  0
   -5.4410   22.7320  -31.3850 N   0  0  0  0  0  0  0  0  0  0  0  0
   -4.0450   22.4350  -31.5360 C   0  0  0  0  0  0  0  0  0  0  0  0
   -3.5370   22.3890  -32.6900 O   0  0  0  0  0  0  0  0  0  0  0  0
   -3.2580   22.2220  -30.3950 O   0  0  0  0  0  0  0  0  0  0  0  0
   -1.8890   21.9320  -30.4040 C   0  0  0  0  0  0  0  0  0  0  0  0
   -1.3850   21.1920  -31.2950 O   0  0  0  0  0  0  0  0  0  0  0  0
   -1.0820   22.4780  -29.4010 O   0  0  0  0  0  0  0  0  0  0  0  0
   -1.5560   23.4190  -28.4360 C   0  0  1  0  0  0  0  0  0  0  0  0
   -1.1780   22.9370  -27.0390 C   0  0  0  0  0  0  0  0  0  0  0  0
   -0.9560   24.7700  -28.6920 C   0  0  0  0  0  0  0  0  0  0  0  0
   -1.6080   25.6430  -29.3230 O   0  0  0  0  0  0  0  0  0  0  0  0
    0.3050   25.0800  -28.1970 O   0  0  0  0  0  0  0  0  0  0  0  0
   -6.4720   21.8940  -31.6350 C   0  0  0  0  0  0  0  0  0  0  0  0
   -6.4260   20.5580  -32.0520 C   0  0  0  0  0  0  0  0  0  0  0  0
   -7.6381   17.7817  -31.8828 H   0  0  0  0  0  0  0  0  0  0  0  0
   -8.5384   18.2758  -33.3566 H   0  0  0  0  0  0  0  0  0  0  0  0
   -6.7421   18.2834  -33.3566 H   0  0  0  0  0  0  0  0  0  0  0  0
   -9.8225   20.0442  -32.2902 H   0  0  0  0  0  0  0  0  0  0  0  0
   -9.8389   22.4558  -31.5670 H   0  0  0  0  0  0  0  0  0  0  0  0
   -8.1224   24.6481  -30.9192 H   0  0  0  0  0  0  0  0  0  0  0  0
   -3.2130   24.5780  -30.4070 H   0  0  0  0  0  0  0  0  0  0  0  0
   -2.6501   23.5017  -28.5140 H   0  0  0  0  0  0  0  0  0  0  0  0
   -1.6733   23.5685  -26.2867 H   0  0  0  0  0  0  0  0  0  0  0  0
   -1.5008   21.8932  -26.9114 H   0  0  0  0  0  0  0  0  0  0  0  0
   -0.0873   23.0017  -26.9114 H   0  0  0  0  0  0  0  0  0  0  0  0
   -5.4637   20.0482  -32.2073 H   0  0  0  0  0  0  0  0  0  0  0  0
  1  2  1  0
  2  3  2  0
  3  4  1  0
  4  5  2  0
  5  6  1  0
  6  7  2  0
  7  8  1  0
  8  9  1  0
  8 10  2  0
  7 11  1  0
 11 12  1  0
 12 13  2  0
 12 14  1  0
 14 15  1  0
 15 16  2  0
 15 17  1  0
 17 18  1  0
 18 19  1  0
 18 20  1  0
 20 21  2  0
 20 22  1  0
 11 23  1  0
 23 24  2  0
 24  2  1  0
 23  5  1  0
  1 25  1  0
  1 26  1  0
  1 27  1  0
  3 28  1  0
  4 29  1  0
  6 30  1  0
  9 31  1  0
 18 32  1  1
 19 33  1  0
 19 34  1  0
 19 35  1  0
 24 36  1  0
M  CHG  2   9  -1  22  -1
M  END
>  <UniqueID>  (95) 
94

>  <SMILES>  (95) 
Cc1ccc2cc(C([NH-])=O)n(C(=O)OC(=O)O[C@@H](C)C(=O)[O-])c2c1

>  <Energy>  (95) 
71.50352752423181

>  <Genealogy>  (95) 
Cc1ccc2cc(C([NH-])=O)n(C(=O)OC(=O)OC(C)C(=O)[O-])c2c1 (protonated)
Cc1ccc2cc(C([NH-])=O)n(C(=O)OC(=O)O[C@@H](C)C(=O)[O-])c2c1 (chirality)
Cc1ccc2cc(C([NH-])=O)n(C(=O)OC(=O)O[C@@H](C)C(=O)[O-])c2c1 (3D coordinates assigned)
Cc1ccc2cc(C([NH-])=O)n(C(=O)OC(=O)O[C@@H](C)C(=O)[O-])c2c1 (optimized conformer: 71.50352752423181 kcal/mol)

>  <smiles>  (95) 
Cc1ccc2cc(C(N)=O)n(C(=O)OC(=O)OC(C)C(=O)O)c2c1

>  <score_type>  (95) 
oracle

>  <origin>  (95) 
adg

>  <m_score__min__energy>  (95) 
-12.119999999999999

>  <m_primary>  (95) 
energy

$$$$
95:0
     RDKit          3D

 39 40  0  0  0  0  0  0  0  0999 V2000
   -0.8690   24.4970  -29.3180 C   0  0  0  0  0  0  0  0  0  0  0  0
   -1.7920   25.4770  -28.9000 O   0  0  0  0  0  0  0  0  0  0  0  0
   -1.9100   25.4400  -27.4940 C   0  0  0  0  0  0  0  0  0  0  0  0
   -2.8140   24.2760  -27.0910 C   0  0  0  0  0  0  0  0  0  0  0  0
   -3.3660   23.6010  -28.2660 N   0  0  0  0  0  0  0  0  0  0  0  0
   -3.3400   22.1760  -28.3930 C   0  0  0  0  0  0  0  0  0  0  0  0
   -2.9030   21.4660  -27.4460 O   0  0  0  0  0  0  0  0  0  0  0  0
   -3.7780   21.5930  -29.5890 O   0  0  0  0  0  0  0  0  0  0  0  0
   -4.0570   22.2940  -30.7690 C   0  0  0  0  0  0  0  0  0  0  0  0
   -3.1410   22.5570  -31.5970 O   0  0  0  0  0  0  0  0  0  0  0  0
   -5.4080   22.6890  -31.0550 N   0  0  0  0  0  0  0  0  0  0  0  0
   -5.9670   23.9220  -30.8900 C   0  0  0  0  0  0  0  0  0  0  0  0
   -5.2470   25.1610  -30.5300 C   0  0  0  0  0  0  0  0  0  0  0  0
   -3.8660   25.3250  -30.8430 N   0  0  0  0  0  0  0  0  0  0  0  0
   -5.8710   26.1070  -29.9780 O   0  0  0  0  0  0  0  0  0  0  0  0
   -7.3250   23.8880  -31.1980 C   0  0  0  0  0  0  0  0  0  0  0  0
   -7.5840   22.5890  -31.5680 C   0  0  0  0  0  0  0  0  0  0  0  0
   -8.7770   21.9910  -31.9650 C   0  0  0  0  0  0  0  0  0  0  0  0
   -8.7590   20.6170  -32.2610 C   0  0  0  0  0  0  0  0  0  0  0  0
   -7.5570   19.8750  -32.1610 C   0  0  0  0  0  0  0  0  0  0  0  0
   -7.5620   18.3990  -32.4300 C   0  0  0  0  0  0  0  0  0  0  0  0
   -6.3690   20.5110  -31.7430 C   0  0  0  0  0  0  0  0  0  0  0  0
   -6.4110   21.8840  -31.4720 C   0  0  0  0  0  0  0  0  0  0  0  0
   -0.4181   24.0182  -28.4363 H   0  0  0  0  0  0  0  0  0  0  0  0
   -1.3882   23.7382  -29.9220 H   0  0  0  0  0  0  0  0  0  0  0  0
   -0.0805   24.9698  -29.9220 H   0  0  0  0  0  0  0  0  0  0  0  0
   -0.9148   25.3040  -27.0456 H   0  0  0  0  0  0  0  0  0  0  0  0
   -2.3461   26.3846  -27.1369 H   0  0  0  0  0  0  0  0  0  0  0  0
   -2.2277   23.5531  -26.5048 H   0  0  0  0  0  0  0  0  0  0  0  0
   -3.6484   24.6742  -26.4950 H   0  0  0  0  0  0  0  0  0  0  0  0
   -3.7770   24.1560  -29.0500 H   0  0  0  0  0  0  0  0  0  0  0  0
   -3.1470   24.6710  -30.4610 H   0  0  0  0  0  0  0  0  0  0  0  0
   -8.0392   24.7235  -31.1545 H   0  0  0  0  0  0  0  0  0  0  0  0
   -9.7052   22.5759  -32.0446 H   0  0  0  0  0  0  0  0  0  0  0  0
   -9.6862   20.1140  -32.5729 H   0  0  0  0  0  0  0  0  0  0  0  0
   -7.5639   17.8523  -31.4755 H   0  0  0  0  0  0  0  0  0  0  0  0
   -8.4610   18.1343  -33.0059 H   0  0  0  0  0  0  0  0  0  0  0  0
   -6.6648   18.1282  -33.0059 H   0  0  0  0  0  0  0  0  0  0  0  0
   -5.4337   19.9427  -31.6328 H   0  0  0  0  0  0  0  0  0  0  0  0
  1  2  1  0
  2  3  1  0
  3  4  1  0
  4  5  1  0
  5  6  1  0
  6  7  2  0
  6  8  1  0
  8  9  1  0
  9 10  2  0
  9 11  1  0
 11 12  1  0
 12 13  1  0
 13 14  1  0
 13 15  2  0
 12 16  2  0
 16 17  1  0
 17 18  2  0
 18 19  1  0
 19 20  2  0
 20 21  1  0
 20 22  1  0
 22 23  2  0
 23 11  1  0
 23 17  1  0
  1 24  1  0
  1 25  1  0
  1 26  1  0
  3 27  1  0
  3 28  1  0
  4 29  1  0
  4 30  1  0
  5 31  1  0
 14 32  1  0
 16 33  1  0
 18 34  1  0
 19 35  1  0
 21 36  1  0
 21 37  1  0
 21 38  1  0
 22 39  1  0
M  CHG  1  14  -1
M  END
>  <UniqueID>  (96) 
95

>  <SMILES>  (96) 
COCCNC(=O)OC(=O)n1c(C([NH-])=O)cc2ccc(C)cc21

>  <Energy>  (96) 
74.60928843649374

>  <Genealogy>  (96) 
COCCNC(=O)OC(=O)n1c(C([NH-])=O)cc2ccc(C)cc21 (protonated)
COCCNC(=O)OC(=O)n1c(C([NH-])=O)cc2ccc(C)cc21 (3D coordinates assigned)
COCCNC(=O)OC(=O)n1c(C([NH-])=O)cc2ccc(C)cc21 (optimized conformer: 74.60928843649374 kcal/mol)

>  <smiles>  (96) 
COCCNC(=O)OC(=O)n1c(C(N)=O)cc2ccc(C)cc21

>  <score_type>  (96) 
oracle

>  <origin>  (96) 
adg

>  <m_score__min__energy>  (96) 
-10.369999999999999

>  <m_primary>  (96) 
energy

$$$$
96:0
     RDKit          3D

 31 32  0  0  0  0  0  0  0  0999 V2000
   -4.1920   25.5340  -30.7740 N   0  0  0  0  0  0  0  0  0  0  0  0
   -5.5480   25.1170  -30.6120 C   0  0  0  0  0  0  0  0  0  0  0  0
   -6.3420   25.8400  -29.9520 O   0  0  0  0  0  0  0  0  0  0  0  0
   -6.0190   23.8240  -31.1460 C   0  0  0  0  0  0  0  0  0  0  0  0
   -7.3510   23.5640  -31.4550 C   0  0  0  0  0  0  0  0  0  0  0  0
   -7.3820   22.2480  -31.8520 C   0  0  0  0  0  0  0  0  0  0  0  0
   -8.4530   21.4690  -32.2740 C   0  0  0  0  0  0  0  0  0  0  0  0
   -8.1940   20.1420  -32.6550 C   0  0  0  0  0  0  0  0  0  0  0  0
   -6.8710   19.6280  -32.6380 C   0  0  0  0  0  0  0  0  0  0  0  0
   -6.6080   18.1910  -33.0110 C   0  0  0  0  0  0  0  0  0  0  0  0
   -6.3230   18.1160  -34.3610 F   0  0  0  0  0  0  0  0  0  0  0  0
   -7.7170   17.4080  -32.7400 F   0  0  0  0  0  0  0  0  0  0  0  0
   -5.5370   17.6840  -32.2940 F   0  0  0  0  0  0  0  0  0  0  0  0
   -5.8110   20.4470  -32.1830 C   0  0  0  0  0  0  0  0  0  0  0  0
   -6.1020   21.7590  -31.7870 C   0  0  0  0  0  0  0  0  0  0  0  0
   -5.2510   22.7180  -31.3560 N   0  0  0  0  0  0  0  0  0  0  0  0
   -3.8170   22.6320  -31.2810 C   0  0  0  0  0  0  0  0  0  0  0  0
   -3.1470   22.3000  -32.2980 O   0  0  0  0  0  0  0  0  0  0  0  0
   -3.1680   22.9220  -30.0770 O   0  0  0  0  0  0  0  0  0  0  0  0
   -1.7540   23.0320  -29.9720 C   0  0  0  0  0  0  0  0  0  0  0  0
   -1.4080   24.3410  -29.3450 C   0  0  0  0  0  0  0  0  0  0  0  0
   -2.2290   25.2970  -29.3730 O   0  0  0  0  0  0  0  0  0  0  0  0
   -0.1590   24.5190  -28.7590 O   0  0  0  0  0  0  0  0  0  0  0  0
   -3.4720   24.8880  -31.1670 H   0  0  0  0  0  0  0  0  0  0  0  0
   -3.8860   26.4690  -30.4250 H   0  0  0  0  0  0  0  0  0  0  0  0
   -8.1985   24.2627  -31.3945 H   0  0  0  0  0  0  0  0  0  0  0  0
   -9.4730   21.8794  -32.3086 H   0  0  0  0  0  0  0  0  0  0  0  0
   -9.0254   19.4942  -32.9699 H   0  0  0  0  0  0  0  0  0  0  0  0
   -4.7813   20.0623  -32.1411 H   0  0  0  0  0  0  0  0  0  0  0  0
   -1.3666   22.2122  -29.3493 H   0  0  0  0  0  0  0  0  0  0  0  0
   -1.3037   22.9720  -30.9738 H   0  0  0  0  0  0  0  0  0  0  0  0
  1  2  1  0
  2  3  2  0
  2  4  1  0
  4  5  2  0
  5  6  1  0
  6  7  2  0
  7  8  1  0
  8  9  2  0
  9 10  1  0
 10 11  1  0
 10 12  1  0
 10 13  1  0
  9 14  1  0
 14 15  2  0
 15 16  1  0
 16 17  1  0
 17 18  2  0
 17 19  1  0
 19 20  1  0
 20 21  1  0
 21 22  2  0
 21 23  1  0
 16  4  1  0
 15  6  1  0
  1 24  1  0
  1 25  1  0
  5 26  1  0
  7 27  1  0
  8 28  1  0
 14 29  1  0
 20 30  1  0
 20 31  1  0
M  CHG  1  23  -1
M  END
>  <UniqueID>  (97) 
96

>  <SMILES>  (97) 
NC(=O)c1cc2ccc(C(F)(F)F)cc2n1C(=O)OCC(=O)[O-]

>  <Energy>  (97) 
68.15669315455716

>  <Genealogy>  (97) 
NC(=O)c1cc2ccc(C(F)(F)F)cc2n1C(=O)OCC(=O)[O-] (protonated)
NC(=O)c1cc2ccc(C(F)(F)F)cc2n1C(=O)OCC(=O)[O-] (3D coordinates assigned)
NC(=O)c1cc2ccc(C(F)(F)F)cc2n1C(=O)OCC(=O)[O-] (optimized conformer: 68.15669315455716 kcal/mol)

>  <smiles>  (97) 
NC(=O)c1cc2ccc(C(F)(F)F)cc2n1C(=O)OCC(=O)O

>  <score_type>  (97) 
oracle

>  <origin>  (97) 
adg

>  <m_score__min__energy>  (97) 
-9.7599999999999998

>  <m_primary>  (97) 
energy

$$$$
97:0
     RDKit          3D

 44 45  0  0  0  0  0  0  0  0999 V2000
   -4.5160   13.7220  -31.6250 C   0  0  0  0  0  0  0  0  0  0  0  0
   -4.9390   13.9670  -33.0680 C   0  0  0  0  0  0  0  0  0  0  0  0
   -5.0610   15.3640  -33.3270 O   0  0  0  0  0  0  0  0  0  0  0  0
   -6.2750   15.9860  -33.6380 C   0  0  0  0  0  0  0  0  0  0  0  0
   -7.1820   15.3690  -34.2570 O   0  0  0  0  0  0  0  0  0  0  0  0
   -6.4920   17.3460  -33.2370 C   0  0  0  0  0  0  0  0  0  0  0  0
   -6.6730   18.4890  -32.9000 C   0  0  0  0  0  0  0  0  0  0  0  0
   -6.8900   19.8540  -32.4980 C   0  0  0  0  0  0  0  0  0  0  0  0
   -8.1860   20.4160  -32.5800 C   0  0  0  0  0  0  0  0  0  0  0  0
   -8.4110   21.7450  -32.1850 C   0  0  0  0  0  0  0  0  0  0  0  0
   -7.3230   22.4800  -31.7190 C   0  0  0  0  0  0  0  0  0  0  0  0
   -7.2570   23.7780  -31.2630 C   0  0  0  0  0  0  0  0  0  0  0  0
   -5.9200   23.9840  -30.9270 C   0  0  0  0  0  0  0  0  0  0  0  0
   -5.3790   25.2800  -30.4660 C   0  0  0  0  0  0  0  0  0  0  0  0
   -4.0570   25.6690  -30.8320 N   0  0  0  0  0  0  0  0  0  0  0  0
   -6.0630   26.0380  -29.7300 O   0  0  0  0  0  0  0  0  0  0  0  0
   -5.1930   22.8540  -31.1560 N   0  0  0  0  0  0  0  0  0  0  0  0
   -3.7960   22.6330  -30.9080 C   0  0  0  0  0  0  0  0  0  0  0  0
   -3.0140   22.4680  -31.8810 O   0  0  0  0  0  0  0  0  0  0  0  0
   -3.2810   22.5480  -29.5280 C   0  0  0  0  0  0  0  0  0  0  0  0
   -2.9030   21.4330  -29.0760 O   0  0  0  0  0  0  0  0  0  0  0  0
   -3.1990   23.7200  -28.7040 N   0  0  0  0  0  0  0  0  0  0  0  0
   -2.6840   23.6510  -27.3350 C   0  0  0  0  0  0  0  0  0  0  0  0
   -1.7920   24.8540  -27.0070 C   0  0  0  0  0  0  0  0  0  0  0  0
   -1.0030   25.2910  -28.2020 C   0  0  0  0  0  0  0  0  0  0  0  0
   -1.5940   25.6740  -29.2470 O   0  0  0  0  0  0  0  0  0  0  0  0
    0.3840   25.2450  -28.1740 O   0  0  0  0  0  0  0  0  0  0  0  0
   -6.0630   21.9470  -31.6450 C   0  0  0  0  0  0  0  0  0  0  0  0
   -5.8100   20.6250  -32.0240 C   0  0  0  0  0  0  0  0  0  0  0  0
   -5.2642   14.1553  -30.9450 H   0  0  0  0  0  0  0  0  0  0  0  0
   -4.4394   12.6397  -31.4441 H   0  0  0  0  0  0  0  0  0  0  0  0
   -3.5391   14.1941  -31.4441 H   0  0  0  0  0  0  0  0  0  0  0  0
   -4.1835   13.5391  -33.7434 H   0  0  0  0  0  0  0  0  0  0  0  0
   -5.9155   13.4894  -33.2363 H   0  0  0  0  0  0  0  0  0  0  0  0
   -9.0225   19.8083  -32.9554 H   0  0  0  0  0  0  0  0  0  0  0  0
   -9.4147   22.1915  -32.2418 H   0  0  0  0  0  0  0  0  0  0  0  0
   -8.0838   24.4989  -31.1813 H   0  0  0  0  0  0  0  0  0  0  0  0
   -3.2260   25.1530  -30.4680 H   0  0  0  0  0  0  0  0  0  0  0  0
   -3.5300   24.6340  -29.0890 H   0  0  0  0  0  0  0  0  0  0  0  0
   -3.5322   23.6339  -26.6348 H   0  0  0  0  0  0  0  0  0  0  0  0
   -2.0786   22.7375  -27.2405 H   0  0  0  0  0  0  0  0  0  0  0  0
   -2.4255   25.6884  -26.6718 H   0  0  0  0  0  0  0  0  0  0  0  0
   -1.0871   24.5570  -26.2165 H   0  0  0  0  0  0  0  0  0  0  0  0
   -4.7980   20.1996  -31.9542 H   0  0  0  0  0  0  0  0  0  0  0  0
  1  2  1  0
  2  3  1  0
  3  4  1  0
  4  5  2  0
  4  6  1  0
  6  7  3  0
  7  8  1  0
  8  9  2  0
  9 10  1  0
 10 11  2  0
 11 12  1  0
 12 13  2  0
 13 14  1  0
 14 15  1  0
 14 16  2  0
 13 17  1  0
 17 18  1  0
 18 19  2  0
 18 20  1  0
 20 21  2  0
 20 22  1  0
 22 23  1  0
 23 24  1  0
 24 25  1  0
 25 26  2  0
 25 27  1  0
 17 28  1  0
 28 29  2  0
 29  8  1  0
 28 11  1  0
  1 30  1  0
  1 31  1  0
  1 32  1  0
  2 33  1  0
  2 34  1  0
  9 35  1  0
 10 36  1  0
 12 37  1  0
 15 38  1  0
 22 39  1  0
 23 40  1  0
 23 41  1  0
 24 42  1  0
 24 43  1  0
 29 44  1  0
M  CHG  2  15  -1  27  -1
M  END
>  <UniqueID>  (98) 
97

>  <SMILES>  (98) 
CCOC(=O)C#Cc1ccc2cc(C([NH-])=O)n(C(=O)C(=O)NCCC(=O)[O-])c2c1

>  <Energy>  (98) 
70.13011063994081

>  <Genealogy>  (98) 
CCOC(=O)C#Cc1ccc2cc(C([NH-])=O)n(C(=O)C(=O)NCCC(=O)[O-])c2c1 (protonated)
CCOC(=O)C#Cc1ccc2cc(C([NH-])=O)n(C(=O)C(=O)NCCC(=O)[O-])c2c1 (3D coordinates assigned)
CCOC(=O)C#Cc1ccc2cc(C([NH-])=O)n(C(=O)C(=O)NCCC(=O)[O-])c2c1 (optimized conformer: 70.13011063994081 kcal/mol)

>  <smiles>  (98) 
CCOC(=O)C#Cc1ccc2cc(C(N)=O)n(C(=O)C(=O)NCCC(=O)O)c2c1

>  <score_type>  (98) 
oracle

>  <origin>  (98) 
adg

>  <m_score__min__energy>  (98) 
-13.56

>  <m_primary>  (98) 
energy

$$$$
98:0
     RDKit          3D

 42 43  0  0  0  0  0  0  0  0999 V2000
    1.3340   20.6420  -35.9140 C   0  0  0  0  0  0  0  0  0  0  0  0
    1.0060   21.8900  -35.0890 C   0  0  0  0  0  0  0  0  0  0  0  0
    1.4760   23.1520  -35.8190 C   0  0  0  0  0  0  0  0  0  0  0  0
   -0.4360   21.9580  -34.8310 N   0  0  0  0  0  0  0  0  0  0  0  0
   -1.0910   21.0960  -33.8890 C   0  0  0  0  0  0  0  0  0  0  0  0
   -0.4170   20.2680  -33.2180 O   0  0  0  0  0  0  0  0  0  0  0  0
   -2.5150   21.1810  -33.7220 N   0  0  0  0  0  0  0  0  0  0  0  0
   -3.2640   20.3930  -32.7850 C   0  0  0  0  0  0  0  0  0  0  0  0
   -2.6710   19.7040  -31.9100 O   0  0  0  0  0  0  0  0  0  0  0  0
   -4.6990   20.4070  -32.8200 N   0  0  0  0  0  0  0  0  0  0  0  0
   -5.5220   19.5170  -33.4410 C   0  0  0  0  0  0  0  0  0  0  0  0
   -5.1010   18.2610  -34.0950 C   0  0  0  0  0  0  0  0  0  0  0  0
   -3.8890   17.6020  -33.7250 N   0  0  0  0  0  0  0  0  0  0  0  0
   -5.8490   17.7360  -34.9620 O   0  0  0  0  0  0  0  0  0  0  0  0
   -6.8480   19.9360  -33.3590 C   0  0  0  0  0  0  0  0  0  0  0  0
   -6.8140   21.1190  -32.6560 C   0  0  0  0  0  0  0  0  0  0  0  0
   -7.8480   21.9770  -32.2980 C   0  0  0  0  0  0  0  0  0  0  0  0
   -7.5160   23.1570  -31.6080 C   0  0  0  0  0  0  0  0  0  0  0  0
   -6.1640   23.4640  -31.3140 C   0  0  0  0  0  0  0  0  0  0  0  0
   -5.8220   24.7210  -30.5640 C   0  0  0  0  0  0  0  0  0  0  0  0
   -4.4370   24.6240  -30.0090 C   0  0  0  0  0  0  0  0  0  0  0  0
   -3.5040   25.3000  -30.5140 O   0  0  0  0  0  0  0  0  0  0  0  0
   -4.1870   23.8250  -28.9000 O   0  0  0  0  0  0  0  0  0  0  0  0
   -5.1420   22.5660  -31.6890 C   0  0  0  0  0  0  0  0  0  0  0  0
   -5.5040   21.3850  -32.3470 C   0  0  0  0  0  0  0  0  0  0  0  0
    1.5545   19.8029  -35.2377 H   0  0  0  0  0  0  0  0  0  0  0  0
    0.4729   20.3851  -36.5484 H   0  0  0  0  0  0  0  0  0  0  0  0
    2.2102   20.8417  -36.5484 H   0  0  0  0  0  0  0  0  0  0  0  0
    1.5359   21.8265  -34.1271 H   0  0  0  0  0  0  0  0  0  0  0  0
    1.7610   23.9172  -35.0820 H   0  0  0  0  0  0  0  0  0  0  0  0
    2.3439   22.9090  -36.4496 H   0  0  0  0  0  0  0  0  0  0  0  0
    0.6606   23.5360  -36.4496 H   0  0  0  0  0  0  0  0  0  0  0  0
   -1.0150   22.6710  -35.3320 H   0  0  0  0  0  0  0  0  0  0  0  0
   -3.0380   21.8630  -34.3160 H   0  0  0  0  0  0  0  0  0  0  0  0
   -3.5850   16.7430  -34.2350 H   0  0  0  0  0  0  0  0  0  0  0  0
   -3.3430   17.9030  -32.8880 H   0  0  0  0  0  0  0  0  0  0  0  0
   -7.7340   19.4292  -33.7690 H   0  0  0  0  0  0  0  0  0  0  0  0
   -8.8931   21.7404  -32.5466 H   0  0  0  0  0  0  0  0  0  0  0  0
   -8.3126   23.8474  -31.2939 H   0  0  0  0  0  0  0  0  0  0  0  0
   -5.8812   25.5807  -31.2476 H   0  0  0  0  0  0  0  0  0  0  0  0
   -6.5344   24.8530  -29.7364 H   0  0  0  0  0  0  0  0  0  0  0  0
   -4.0873   22.7887  -31.4696 H   0  0  0  0  0  0  0  0  0  0  0  0
  1  2  1  0
  2  3  1  0
  2  4  1  0
  4  5  1  0
  5  6  2  0
  5  7  1  0
  7  8  1  0
  8  9  2  0
  8 10  1  0
 10 11  1  0
 11 12  1  0
 12 13  1  0
 12 14  2  0
 11 15  2  0
 15 16  1  0
 16 17  2  0
 17 18  1  0
 18 19  2  0
 19 20  1  0
 20 21  1  0
 21 22  2  0
 21 23  1  0
 19 24  1  0
 24 25  2  0
 25 10  1  0
 25 16  1  0
  1 26  1  0
  1 27  1  0
  1 28  1  0
  2 29  1  0
  3 30  1  0
  3 31  1  0
  3 32  1  0
  4 33  1  0
  7 34  1  0
 13 35  1  0
 13 36  1  0
 15 37  1  0
 17 38  1  0
 18 39  1  0
 20 40  1  0
 20 41  1  0
 24 42  1  0
M  CHG  1  23  -1
M  END
>  <UniqueID>  (99) 
98

>  <SMILES>  (99) 
CC(C)NC(=O)NC(=O)n1c(C(N)=O)cc2ccc(CC(=O)[O-])cc21

>  <Energy>  (99) 
73.58433565354153

>  <Genealogy>  (99) 
CC(C)NC(=O)NC(=O)n1c(C(N)=O)cc2ccc(CC(=O)[O-])cc21 (protonated)
CC(C)NC(=O)NC(=O)n1c(C(N)=O)cc2ccc(CC(=O)[O-])cc21 (3D coordinates assigned)
CC(C)NC(=O)NC(=O)n1c(C(N)=O)cc2ccc(CC(=O)[O-])cc21 (optimized conformer: 73.58433565354153 kcal/mol)

>  <smiles>  (99) 
CC(C)NC(=O)NC(=O)n1c(C(N)=O)cc2ccc(CC(=O)O)cc21

>  <score_type>  (99) 
oracle

>  <origin>  (99) 
adg

>  <m_score__min__energy>  (99) 
-10.949999999999999

>  <m_primary>  (99) 
energy

$$$$
99:0
     RDKit          3D

 46 47  0  0  0  0  0  0  0  0999 V2000
   -2.8720   25.2930  -26.0710 C   0  0  0  0  0  0  0  0  0  0  0  0
   -3.2040   24.5710  -27.2510 O   0  0  0  0  0  0  0  0  0  0  0  0
   -2.3360   24.4590  -28.3400 C   0  0  0  0  0  0  0  0  0  0  0  0
   -2.3780   25.2950  -29.2840 O   0  0  0  0  0  0  0  0  0  0  0  0
   -1.3270   23.3540  -28.3700 C   0  0  0  0  0  0  0  0  0  0  0  0
   -2.0000   22.0550  -28.5040 N   0  0  0  0  0  0  0  0  0  0  0  0
   -1.2000   20.8310  -28.4580 C   0  0  0  0  0  0  0  0  0  0  0  0
   -3.3790   22.0190  -28.9210 C   0  0  0  0  0  0  0  0  0  0  0  0
   -4.2850   22.2320  -28.0720 O   0  0  0  0  0  0  0  0  0  0  0  0
   -3.7470   21.8030  -30.3370 C   0  0  0  0  0  0  0  0  0  0  0  0
   -2.8690   21.4500  -31.1690 O   0  0  0  0  0  0  0  0  0  0  0  0
   -5.0870   22.0490  -30.7890 N   0  0  0  0  0  0  0  0  0  0  0  0
   -5.7490   23.2380  -30.8470 C   0  0  0  0  0  0  0  0  0  0  0  0
   -5.2430   24.5370  -30.3610 C   0  0  0  0  0  0  0  0  0  0  0  0
   -4.9960   24.7690  -28.9740 N   0  0  0  0  0  0  0  0  0  0  0  0
   -5.0590   25.4750  -31.1800 O   0  0  0  0  0  0  0  0  0  0  0  0
   -6.9950   23.0740  -31.4500 C   0  0  0  0  0  0  0  0  0  0  0  0
   -7.0730   21.7360  -31.7610 C   0  0  0  0  0  0  0  0  0  0  0  0
   -8.0770   21.0250  -32.4020 C   0  0  0  0  0  0  0  0  0  0  0  0
   -7.8640   19.6600  -32.6530 C   0  0  0  0  0  0  0  0  0  0  0  0
   -6.6520   19.0160  -32.2690 C   0  0  0  0  0  0  0  0  0  0  0  0
   -6.4200   17.6110  -32.5780 N   0  0  0  0  0  0  0  0  0  0  0  0
   -6.8230   17.0530  -33.8760 C   0  0  0  0  0  0  0  0  0  0  0  0
   -5.7460   16.7310  -31.6130 C   0  0  0  0  0  0  0  0  0  0  0  0
   -5.6630   19.7860  -31.5950 C   0  0  0  0  0  0  0  0  0  0  0  0
   -5.9100   21.1410  -31.3530 C   0  0  0  0  0  0  0  0  0  0  0  0
   -3.1458   24.6975  -25.1876 H   0  0  0  0  0  0  0  0  0  0  0  0
   -1.7907   25.4946  -26.0565 H   0  0  0  0  0  0  0  0  0  0  0  0
   -3.4227   26.2451  -26.0565 H   0  0  0  0  0  0  0  0  0  0  0  0
   -0.6508   23.5027  -29.2248 H   0  0  0  0  0  0  0  0  0  0  0  0
   -0.7541   23.3659  -27.4310 H   0  0  0  0  0  0  0  0  0  0  0  0
   -1.0173   20.5515  -27.4099 H   0  0  0  0  0  0  0  0  0  0  0  0
   -1.7424   20.0192  -28.9648 H   0  0  0  0  0  0  0  0  0  0  0  0
   -0.2388   21.0020  -28.9648 H   0  0  0  0  0  0  0  0  0  0  0  0
   -5.3560   24.1220  -28.2390 H   0  0  0  0  0  0  0  0  0  0  0  0
   -4.5140   25.6440  -28.6720 H   0  0  0  0  0  0  0  0  0  0  0  0
   -7.7535   23.8484  -31.6371 H   0  0  0  0  0  0  0  0  0  0  0  0
   -9.0133   21.5165  -32.7050 H   0  0  0  0  0  0  0  0  0  0  0  0
   -8.6485   19.0758  -33.1562 H   0  0  0  0  0  0  0  0  0  0  0  0
   -7.4600   16.1710  -33.7141 H   0  0  0  0  0  0  0  0  0  0  0  0
   -7.3835   17.8110  -34.4429 H   0  0  0  0  0  0  0  0  0  0  0  0
   -5.9272   16.7593  -34.4429 H   0  0  0  0  0  0  0  0  0  0  0  0
   -5.9919   17.0521  -30.5900 H   0  0  0  0  0  0  0  0  0  0  0  0
   -6.0838   15.6950  -31.7633 H   0  0  0  0  0  0  0  0  0  0  0  0
   -4.6578   16.7873  -31.7633 H   0  0  0  0  0  0  0  0  0  0  0  0
   -4.7197   19.3229  -31.2697 H   0  0  0  0  0  0  0  0  0  0  0  0
  1  2  1  0
  2  3  1  0
  3  4  2  0
  3  5  1  0
  5  6  1  0
  6  7  1  0
  6  8  1  0
  8  9  2  0
  8 10  1  0
 10 11  2  0
 10 12  1  0
 12 13  1  0
 13 14  1  0
 14 15  1  0
 14 16  2  0
 13 17  2  0
 17 18  1  0
 18 19  2  0
 19 20  1  0
 20 21  2  0
 21 22  1  0
 22 23  1  0
 22 24  1  0
 21 25  1  0
 25 26  2  0
 26 12  1  0
 26 18  1  0
  1 27  1  0
  1 28  1  0
  1 29  1  0
  5 30  1  0
  5 31  1  0
  7 32  1  0
  7 33  1  0
  7 34  1  0
 15 35  1  0
 15 36  1  0
 17 37  1  0
 19 38  1  0
 20 39  1  0
 23 40  1  0
 23 41  1  0
 23 42  1  0
 24 43  1  0
 24 44  1  0
 24 45  1  0
 25 46  1  0
M  END
>  <UniqueID>  (100) 
99

>  <SMILES>  (100) 
COC(=O)CN(C)C(=O)C(=O)n1c(C(N)=O)cc2ccc(N(C)C)cc21

>  <Energy>  (100) 
85.52568499601527

>  <Genealogy>  (100) 
COC(=O)CN(C)C(=O)C(=O)n1c(C(N)=O)cc2ccc(N(C)C)cc21 (3D coordinates assigned)
COC(=O)CN(C)C(=O)C(=O)n1c(C(N)=O)cc2ccc(N(C)C)cc21 (optimized conformer: 85.52568499601527 kcal/mol)

>  <smiles>  (100) 
COC(=O)CN(C)C(=O)C(=O)n1c(C(N)=O)cc2ccc(N(C)C)cc21

>  <score_type>  (100) 
oracle

>  <origin>  (100) 
adg

>  <m_score__min__energy>  (100) 
-9.2699999999999996

>  <m_primary>  (100) 
energy

$$$$
