0:0
     RDKit          3D

 41 42  0  0  0  0  0  0  0  0999 V2000
   -1.6640   22.4130  -30.4780 C   0  0  0  0  0  0  0  0  0  0  0  0
   -3.0540   22.8420  -30.2190 N   0  0  2  0  0  0  0  0  0  0  0  0
   -3.5560   22.5150  -28.8540 C   0  0  0  0  0  0  0  0  0  0  0  0
   -3.4580   23.6290  -27.7660 C   0  0  2  0  0  0  0  0  0  0  0  0
   -4.5260   24.5300  -27.9400 O   0  0  0  0  0  0  0  0  0  0  0  0
   -2.1490   24.4390  -27.7920 C   0  0  0  0  0  0  0  0  0  0  0  0
   -2.1230   25.3450  -28.8620 O   0  0  0  0  0  0  0  0  0  0  0  0
   -3.9520   22.4300  -31.2790 C   0  0  0  0  0  0  0  0  0  0  0  0
   -3.5110   21.8530  -32.3120 O   0  0  0  0  0  0  0  0  0  0  0  0
   -5.3560   22.7190  -31.1880 N   0  0  0  0  0  0  0  0  0  0  0  0
   -5.9490   23.9090  -30.8900 C   0  0  0  0  0  0  0  0  0  0  0  0
   -5.2500   25.1520  -30.5040 C   0  0  0  0  0  0  0  0  0  0  0  0
   -3.8780   25.3320  -30.8470 N   0  0  0  0  0  0  0  0  0  0  0  0
   -5.8520   26.0610  -29.8770 O   0  0  0  0  0  0  0  0  0  0  0  0
   -7.3360   23.7970  -30.9920 C   0  0  0  0  0  0  0  0  0  0  0  0
   -7.5730   22.4900  -31.3620 C   0  0  0  0  0  0  0  0  0  0  0  0
   -8.7730   21.8240  -31.5950 C   0  0  0  0  0  0  0  0  0  0  0  0
   -8.7140   20.4640  -31.9530 C   0  0  0  0  0  0  0  0  0  0  0  0
   -7.4660   19.7990  -32.0870 C   0  0  0  0  0  0  0  0  0  0  0  0
   -7.4160   18.3290  -32.4240 C   0  0  0  0  0  0  0  0  0  0  0  0
   -6.9340   18.1350  -33.7080 F   0  0  0  0  0  0  0  0  0  0  0  0
   -8.6900   17.8000  -32.3360 F   0  0  0  0  0  0  0  0  0  0  0  0
   -6.5880   17.6530  -31.5440 F   0  0  0  0  0  0  0  0  0  0  0  0
   -6.2690   20.5100  -31.8240 C   0  0  0  0  0  0  0  0  0  0  0  0
   -6.3600   21.8620  -31.4730 C   0  0  0  0  0  0  0  0  0  0  0  0
   -1.1454   22.2529  -29.5212 H   0  0  0  0  0  0  0  0  0  0  0  0
   -1.6708   21.4751  -31.0528 H   0  0  0  0  0  0  0  0  0  0  0  0
   -1.1410   23.1915  -31.0528 H   0  0  0  0  0  0  0  0  0  0  0  0
   -3.0240   23.8920  -30.2470 H   0  0  0  0  0  0  0  0  0  0  0  0
   -4.6168   22.2401  -28.9498 H   0  0  0  0  0  0  0  0  0  0  0  0
   -2.8935   21.7133  -28.4957 H   0  0  0  0  0  0  0  0  0  0  0  0
   -3.4914   23.1069  -26.7984 H   0  0  0  0  0  0  0  0  0  0  0  0
   -4.2740   25.1470  -28.6760 H   0  0  0  0  0  0  0  0  0  0  0  0
   -2.0563   24.9977  -26.8490 H   0  0  0  0  0  0  0  0  0  0  0  0
   -1.3122   23.7360  -27.9164 H   0  0  0  0  0  0  0  0  0  0  0  0
   -3.0370   25.7260  -28.9410 H   0  0  0  0  0  0  0  0  0  0  0  0
   -3.1290   25.2630  -30.1220 H   0  0  0  0  0  0  0  0  0  0  0  0
   -8.0828   24.5850  -30.8147 H   0  0  0  0  0  0  0  0  0  0  0  0
   -9.7376   22.3445  -31.5022 H   0  0  0  0  0  0  0  0  0  0  0  0
   -9.6467   19.9088  -32.1314 H   0  0  0  0  0  0  0  0  0  0  0  0
   -5.2911   20.0112  -31.8940 H   0  0  0  0  0  0  0  0  0  0  0  0
  1  2  1  0
  2  3  1  0
  3  4  1  0
  4  5  1  0
  4  6  1  0
  6  7  1  0
  2  8  1  0
  8  9  2  0
  8 10  1  0
 10 11  1  0
 11 12  1  0
 12 13  1  0
 12 14  2  0
 11 15  2  0
 15 16  1  0
 16 17  2  0
 17 18  1  0
 18 19  2  0
 19 20  1  0
 20 21  1  0
 20 22  1  0
 20 23  1  0
 19 24  1  0
 24 25  2  0
 25 10  1  0
 25 16  1  0
  1 26  1  0
  1 27  1  0
  1 28  1  0
  2 29  1  1
  3 30  1  0
  3 31  1  0
  4 32  1  1
  5 33  1  0
  6 34  1  0
  6 35  1  0
  7 36  1  0
 13 37  1  0
 15 38  1  0
 17 39  1  0
 18 40  1  0
 24 41  1  0
M  CHG  2   2   1  13  -1
M  END
>  <UniqueID>  (1) 
1

>  <SMILES>  (1) 
C[N@H+](C[C@H](O)CO)C(=O)n1c(C([NH-])=O)cc2ccc(C(F)(F)F)cc21

>  <Energy>  (1) 
90.80223757668207

>  <Genealogy>  (1) 
C[NH+](CC(O)CO)C(=O)n1c(C([NH-])=O)cc2ccc(C(F)(F)F)cc21 (protonated)
C[N@H+](C[C@H](O)CO)C(=O)n1c(C([NH-])=O)cc2ccc(C(F)(F)F)cc21 (chirality)
C[N@H+](C[C@H](O)CO)C(=O)n1c(C([NH-])=O)cc2ccc(C(F)(F)F)cc21 (3D coordinates assigned)
C[N@H+](C[C@H](O)CO)C(=O)n1c(C([NH-])=O)cc2ccc(C(F)(F)F)cc21 (optimized conformer: 90.80223757668207 kcal/mol)

>  <smiles>  (1) 
CN(CC(O)CO)C(=O)n1c(C(N)=O)cc2ccc(C(F)(F)F)cc21

>  <score_type>  (1) 
oracle

>  <origin>  (1) 
adg

>  <m_score__min__energy>  (1) 
-8.5399999999999991

>  <m_primary>  (1) 
energy

$$$$
1:0
     RDKit          3D

 39 41  0  0  0  0  0  0  0  0999 V2000
   -4.0360   25.2970  -30.5000 N   0  0  0  0  0  0  0  0  0  0  0  0
   -5.4440   25.1280  -30.3730 C   0  0  0  0  0  0  0  0  0  0  0  0
   -6.1480   26.0910  -29.9640 O   0  0  0  0  0  0  0  0  0  0  0  0
   -6.0950   23.8600  -30.7620 C   0  0  0  0  0  0  0  0  0  0  0  0
   -7.4240   23.7710  -31.1720 C   0  0  0  0  0  0  0  0  0  0  0  0
   -7.6060   22.4560  -31.5360 C   0  0  0  0  0  0  0  0  0  0  0  0
   -8.7390   21.8070  -32.0190 C   0  0  0  0  0  0  0  0  0  0  0  0
   -8.6420   20.4340  -32.2970 C   0  0  0  0  0  0  0  0  0  0  0  0
   -7.4300   19.7350  -32.0710 C   0  0  0  0  0  0  0  0  0  0  0  0
   -7.3320   18.2740  -32.3960 C   0  0  0  0  0  0  0  0  0  0  0  0
   -5.8330   17.9630  -33.8860 I   0  0  0  0  0  0  0  0  0  0  0  0
   -6.2970   20.4290  -31.5910 C   0  0  0  0  0  0  0  0  0  0  0  0
   -6.4190   21.8000  -31.3400 C   0  0  0  0  0  0  0  0  0  0  0  0
   -5.4830   22.6470  -30.8620 N   0  0  0  0  0  0  0  0  0  0  0  0
   -4.1510   22.2930  -30.4580 C   0  0  0  0  0  0  0  0  0  0  0  0
   -3.5730   21.3150  -31.0060 O   0  0  0  0  0  0  0  0  0  0  0  0
   -3.5030   23.0140  -29.4000 N   0  0  0  0  0  0  0  0  0  0  0  0
   -2.1920   22.6130  -28.8740 C   0  0  2  0  0  0  0  0  0  0  0  0
   -2.1300   22.8270  -27.3480 C   0  0  0  0  0  0  0  0  0  0  0  0
   -1.8050   24.2900  -27.0650 C   0  0  0  0  0  0  0  0  0  0  0  0
   -0.7870   24.8000  -28.4140 S   0  0  0  0  0  0  0  0  0  0  0  0
    0.6580   24.8800  -28.0140 O   0  0  0  0  0  0  0  0  0  0  0  0
   -1.2510   26.1060  -28.9950 O   0  0  0  0  0  0  0  0  0  0  0  0
   -1.0760   23.4480  -29.5180 C   0  0  0  0  0  0  0  0  0  0  0  0
   -3.4690   25.6710  -29.7080 H   0  0  0  0  0  0  0  0  0  0  0  0
   -8.1692   24.5797  -31.1990 H   0  0  0  0  0  0  0  0  0  0  0  0
   -9.6808   22.3527  -32.1779 H   0  0  0  0  0  0  0  0  0  0  0  0
   -9.5153   19.8957  -32.6941 H   0  0  0  0  0  0  0  0  0  0  0  0
   -7.0650   17.7148  -31.4871 H   0  0  0  0  0  0  0  0  0  0  0  0
   -8.3016   17.9209  -32.7770 H   0  0  0  0  0  0  0  0  0  0  0  0
   -5.3448   19.9057  -31.4193 H   0  0  0  0  0  0  0  0  0  0  0  0
   -4.0360   23.7820  -28.9320 H   0  0  0  0  0  0  0  0  0  0  0  0
   -2.0518   21.5478  -29.1101 H   0  0  0  0  0  0  0  0  0  0  0  0
   -3.1016   22.5716  -26.8999 H   0  0  0  0  0  0  0  0  0  0  0  0
   -1.3517   22.1824  -26.9135 H   0  0  0  0  0  0  0  0  0  0  0  0
   -2.7259   24.8904  -27.0268 H   0  0  0  0  0  0  0  0  0  0  0  0
   -1.3030   24.4220  -26.0952 H   0  0  0  0  0  0  0  0  0  0  0  0
   -1.3953   23.8193  -30.5030 H   0  0  0  0  0  0  0  0  0  0  0  0
   -0.1647   22.8525  -29.6760 H   0  0  0  0  0  0  0  0  0  0  0  0
  1  2  1  0
  2  3  2  0
  2  4  1  0
  4  5  2  0
  5  6  1  0
  6  7  2  0
  7  8  1  0
  8  9  2  0
  9 10  1  0
 10 11  1  0
  9 12  1  0
 12 13  2  0
 13 14  1  0
 14 15  1  0
 15 16  2  0
 15 17  1  0
 17 18  1  0
 18 19  1  0
 19 20  1  0
 20 21  1  0
 21 22  2  0
 21 23  2  0
 21 24  1  0
 14  4  1  0
 24 18  1  0
 13  6  1  0
  1 25  1  0
  5 26  1  0
  7 27  1  0
  8 28  1  0
 10 29  1  0
 10 30  1  0
 12 31  1  0
 17 32  1  0
 18 33  1  1
 19 34  1  0
 19 35  1  0
 20 36  1  0
 20 37  1  0
 24 38  1  0
 24 39  1  0
M  CHG  1   1  -1
M  END
>  <UniqueID>  (2) 
2

>  <SMILES>  (2) 
[NH-]C(=O)c1cc2ccc(CI)cc2n1C(=O)N[C@@H]1CCS(=O)(=O)C1

>  <Energy>  (2) 
74.00858010906884

>  <Genealogy>  (2) 
[NH-]C(=O)c1cc2ccc(CI)cc2n1C(=O)N[C@@H]1CCS(=O)(=O)C1 (protonated)
[NH-]C(=O)c1cc2ccc(CI)cc2n1C(=O)N[C@@H]1CCS(=O)(=O)C1 (3D coordinates assigned)
[NH-]C(=O)c1cc2ccc(CI)cc2n1C(=O)N[C@@H]1CCS(=O)(=O)C1 (nonaromatic ring conformer: 74.00858010906884 kcal/mol)

>  <smiles>  (2) 
NC(=O)c1cc2ccc(CI)cc2n1C(=O)N[C@@H]1CCS(=O)(=O)C1

>  <score_type>  (2) 
oracle

>  <origin>  (2) 
adg

>  <m_score__min__energy>  (2) 
-12.9

>  <m_primary>  (2) 
energy

$$$$
2:0
     RDKit          3D

 46 47  0  0  0  0  0  0  0  0999 V2000
   -7.9940   18.7600  -32.6710 C   0  0  0  0  0  0  0  0  0  0  0  0
   -7.6700   20.1140  -32.1120 C   0  0  0  0  0  0  0  0  0  0  0  0
   -8.7050   21.0570  -31.9040 C   0  0  0  0  0  0  0  0  0  0  0  0
   -8.4250   22.3100  -31.3360 C   0  0  0  0  0  0  0  0  0  0  0  0
   -7.1050   22.5950  -31.0010 C   0  0  0  0  0  0  0  0  0  0  0  0
   -6.5680   23.7060  -30.3910 C   0  0  0  0  0  0  0  0  0  0  0  0
   -5.2080   23.4360  -30.2600 C   0  0  0  0  0  0  0  0  0  0  0  0
   -4.2410   24.3820  -29.6620 C   0  0  0  0  0  0  0  0  0  0  0  0
   -3.4960   25.2620  -30.5020 N   0  0  0  0  0  0  0  0  0  0  0  0
   -4.0490   24.4120  -28.4190 O   0  0  0  0  0  0  0  0  0  0  0  0
   -4.9110   22.2130  -30.7870 N   0  0  0  0  0  0  0  0  0  0  0  0
   -3.6190   21.5880  -30.8610 C   0  0  0  0  0  0  0  0  0  0  0  0
   -2.9340   21.7030  -31.9130 O   0  0  0  0  0  0  0  0  0  0  0  0
   -3.0780   20.7740  -29.7160 C   0  0  0  0  0  0  0  0  0  0  0  0
   -2.7190   21.6300  -28.4920 C   0  0  0  0  0  0  0  0  0  0  0  0
   -1.2930   21.9980  -28.4490 N   0  0  0  0  0  0  0  0  0  0  0  0
   -0.3100   21.0620  -27.8940 C   0  0  0  0  0  0  0  0  0  0  0  0
   -0.8180   23.1960  -29.0950 C   0  0  0  0  0  0  0  0  0  0  0  0
   -1.3610   23.5940  -30.1630 O   0  0  0  0  0  0  0  0  0  0  0  0
    0.2430   23.9180  -28.5400 O   0  0  0  0  0  0  0  0  0  0  0  0
    0.1200   24.6910  -27.3500 C   0  0  2  0  0  0  0  0  0  0  0  0
   -0.5800   23.9690  -26.3970 F   0  0  0  0  0  0  0  0  0  0  0  0
   -0.6260   25.9880  -27.6690 C   0  0  0  0  0  0  0  0  0  0  0  0
   -1.2920   25.9250  -28.9690 N   0  0  0  0  0  0  0  0  0  0  0  0
   -6.0870   21.7020  -31.2160 C   0  0  0  0  0  0  0  0  0  0  0  0
   -6.3450   20.4270  -31.7360 C   0  0  0  0  0  0  0  0  0  0  0  0
   -8.1631   18.0533  -31.8452 H   0  0  0  0  0  0  0  0  0  0  0  0
   -8.9017   18.8260  -33.2888 H   0  0  0  0  0  0  0  0  0  0  0  0
   -7.1547   18.4080  -33.2888 H   0  0  0  0  0  0  0  0  0  0  0  0
   -9.7372   20.8060  -32.1897 H   0  0  0  0  0  0  0  0  0  0  0  0
   -9.2251   23.0443  -31.1611 H   0  0  0  0  0  0  0  0  0  0  0  0
   -7.1004   24.6149  -30.0740 H   0  0  0  0  0  0  0  0  0  0  0  0
   -2.4540   25.2940  -30.4550 H   0  0  0  0  0  0  0  0  0  0  0  0
   -3.8389   20.0375  -29.4184 H   0  0  0  0  0  0  0  0  0  0  0  0
   -2.1534   20.2894  -30.0629 H   0  0  0  0  0  0  0  0  0  0  0  0
   -3.3188   22.5517  -28.5200 H   0  0  0  0  0  0  0  0  0  0  0  0
   -2.9326   21.0301  -27.5951 H   0  0  0  0  0  0  0  0  0  0  0  0
   -0.3485   21.0986  -26.7953 H   0  0  0  0  0  0  0  0  0  0  0  0
   -0.5414   20.0422  -28.2352 H   0  0  0  0  0  0  0  0  0  0  0  0
    0.6973   21.3431  -28.2352 H   0  0  0  0  0  0  0  0  0  0  0  0
    1.1195   24.9292  -26.9573 H   0  0  0  0  0  0  0  0  0  0  0  0
   -1.3819   26.1650  -26.8898 H   0  0  0  0  0  0  0  0  0  0  0  0
    0.1084   26.8063  -27.7001 H   0  0  0  0  0  0  0  0  0  0  0  0
   -2.0840   25.2430  -28.9120 H   0  0  0  0  0  0  0  0  0  0  0  0
   -0.6120   25.5720  -29.6820 H   0  0  0  0  0  0  0  0  0  0  0  0
   -5.5370   19.6891  -31.8485 H   0  0  0  0  0  0  0  0  0  0  0  0
  1  2  1  0
  2  3  2  0
  3  4  1  0
  4  5  2  0
  5  6  1  0
  6  7  2  0
  7  8  1  0
  8  9  1  0
  8 10  2  0
  7 11  1  0
 11 12  1  0
 12 13  2  0
 12 14  1  0
 14 15  1  0
 15 16  1  0
 16 17  1  0
 16 18  1  0
 18 19  2  0
 18 20  1  0
 20 21  1  0
 21 22  1  0
 21 23  1  0
 23 24  1  0
 11 25  1  0
 25 26  2  0
 26  2  1  0
 25  5  1  0
  1 27  1  0
  1 28  1  0
  1 29  1  0
  3 30  1  0
  4 31  1  0
  6 32  1  0
  9 33  1  0
 14 34  1  0
 14 35  1  0
 15 36  1  0
 15 37  1  0
 17 38  1  0
 17 39  1  0
 17 40  1  0
 21 41  1  1
 23 42  1  0
 23 43  1  0
 24 44  1  0
 24 45  1  0
 26 46  1  0
M  CHG  1   9  -1
M  END
>  <UniqueID>  (3) 
3

>  <SMILES>  (3) 
Cc1ccc2cc(C([NH-])=O)n(C(=O)CCN(C)C(=O)O[C@H](F)CN)c2c1

>  <Energy>  (3) 
70.93616625392623

>  <Genealogy>  (3) 
Cc1ccc2cc(C([NH-])=O)n(C(=O)CCN(C)C(=O)OC(F)CN)c2c1 (protonated)
Cc1ccc2cc(C([NH-])=O)n(C(=O)CCN(C)C(=O)O[C@H](F)CN)c2c1 (chirality)
Cc1ccc2cc(C([NH-])=O)n(C(=O)CCN(C)C(=O)O[C@H](F)CN)c2c1 (3D coordinates assigned)
Cc1ccc2cc(C([NH-])=O)n(C(=O)CCN(C)C(=O)O[C@H](F)CN)c2c1 (optimized conformer: 70.93616625392623 kcal/mol)

>  <smiles>  (3) 
Cc1ccc2cc(C(N)=O)n(C(=O)CCN(C)C(=O)OC(F)CN)c2c1

>  <score_type>  (3) 
oracle

>  <origin>  (3) 
adg

>  <m_score__min__energy>  (3) 
-9.9600000000000009

>  <m_primary>  (3) 
energy

$$$$
3:0
     RDKit          3D

 59 61  0  0  0  0  0  0  0  0999 V2000
    0.9430   23.8090  -24.8170 C   0  0  0  0  0  0  0  0  0  0  0  0
    2.2530   24.1790  -24.4480 O   0  0  0  0  0  0  0  0  0  0  0  0
    2.6270   25.3440  -25.1560 C   0  0  0  0  0  0  0  0  0  0  0  0
    2.6770   26.5200  -24.1880 C   0  0  0  0  0  0  0  0  0  0  0  0
    1.6100   27.4320  -24.4490 O   0  0  0  0  0  0  0  0  0  0  0  0
    0.2600   27.1190  -24.2520 C   0  0  0  0  0  0  0  0  0  0  0  0
   -0.2350   27.1600  -23.0920 O   0  0  0  0  0  0  0  0  0  0  0  0
   -0.5550   26.7400  -25.3780 N   0  0  0  0  0  0  0  0  0  0  0  0
    0.0620   26.6740  -26.7130 C   0  0  0  0  0  0  0  0  0  0  0  0
   -0.9530   26.2710  -27.7900 C   0  0  0  0  0  0  0  0  0  0  0  0
   -1.7610   25.1340  -27.3230 N   0  0  0  0  0  0  0  0  0  0  0  0
   -2.0250   24.0070  -28.1800 C   0  0  0  0  0  0  0  0  0  0  0  0
   -1.5930   23.9900  -29.3640 O   0  0  0  0  0  0  0  0  0  0  0  0
   -2.7570   22.9180  -27.6880 O   0  0  0  0  0  0  0  0  0  0  0  0
   -3.6950   22.2000  -28.4820 C   0  0  0  0  0  0  0  0  0  0  0  0
   -3.0540   21.7720  -29.6810 O   0  0  0  0  0  0  0  0  0  0  0  0
   -3.4670   22.1590  -30.9590 C   0  0  0  0  0  0  0  0  0  0  0  0
   -2.5990   22.3910  -31.8510 O   0  0  0  0  0  0  0  0  0  0  0  0
   -4.8740   22.3440  -31.2420 N   0  0  0  0  0  0  0  0  0  0  0  0
   -5.6580   23.3990  -30.8630 C   0  0  0  0  0  0  0  0  0  0  0  0
   -5.1850   24.6700  -30.2820 C   0  0  0  0  0  0  0  0  0  0  0  0
   -5.7050   25.1410  -29.0360 N   0  0  0  0  0  0  0  0  0  0  0  0
   -4.2470   25.3020  -30.8460 O   0  0  0  0  0  0  0  0  0  0  0  0
   -6.9920   23.1660  -31.1670 C   0  0  0  0  0  0  0  0  0  0  0  0
   -7.0150   21.9390  -31.7830 C   0  0  0  0  0  0  0  0  0  0  0  0
   -8.0890   21.2410  -32.3240 C   0  0  0  0  0  0  0  0  0  0  0  0
   -7.8350   20.0000  -32.9300 C   0  0  0  0  0  0  0  0  0  0  0  0
   -6.5200   19.4700  -32.9670 C   0  0  0  0  0  0  0  0  0  0  0  0
   -6.2360   18.1690  -33.6780 C   0  0  0  0  0  0  0  0  0  0  0  0
   -5.0830   17.5870  -33.1740 F   0  0  0  0  0  0  0  0  0  0  0  0
   -7.2800   17.2750  -33.5190 F   0  0  0  0  0  0  0  0  0  0  0  0
   -6.0620   18.4180  -35.0270 F   0  0  0  0  0  0  0  0  0  0  0  0
   -5.4520   20.2160  -32.4210 C   0  0  0  0  0  0  0  0  0  0  0  0
   -5.7280   21.4590  -31.8220 C   0  0  0  0  0  0  0  0  0  0  0  0
   -2.3340   25.1470  -25.9650 C   0  0  0  0  0  0  0  0  0  0  0  0
   -1.9870   26.4390  -25.2160 C   0  0  0  0  0  0  0  0  0  0  0  0
    0.3413   23.6391  -23.9120 H   0  0  0  0  0  0  0  0  0  0  0  0
    0.4889   24.6140  -25.4134 H   0  0  0  0  0  0  0  0  0  0  0  0
    0.9771   22.8854  -25.4134 H   0  0  0  0  0  0  0  0  0  0  0  0
    3.6185   25.1974  -25.6093 H   0  0  0  0  0  0  0  0  0  0  0  0
    1.8930   25.5476  -25.9496 H   0  0  0  0  0  0  0  0  0  0  0  0
    2.5876   26.1443  -23.1580 H   0  0  0  0  0  0  0  0  0  0  0  0
    3.6337   27.0468  -24.3194 H   0  0  0  0  0  0  0  0  0  0  0  0
    0.4741   27.6625  -26.9641 H   0  0  0  0  0  0  0  0  0  0  0  0
    0.8538   25.9108  -26.6865 H   0  0  0  0  0  0  0  0  0  0  0  0
   -1.6142   27.1236  -28.0040 H   0  0  0  0  0  0  0  0  0  0  0  0
   -0.4127   25.9781  -28.7023 H   0  0  0  0  0  0  0  0  0  0  0  0
   -4.0569   21.3239  -27.9239 H   0  0  0  0  0  0  0  0  0  0  0  0
   -4.5489   22.8486  -28.7273 H   0  0  0  0  0  0  0  0  0  0  0  0
   -5.3700   26.0470  -28.6370 H   0  0  0  0  0  0  0  0  0  0  0  0
   -6.3880   24.5700  -28.4850 H   0  0  0  0  0  0  0  0  0  0  0  0
   -7.8485   23.8241  -30.9588 H   0  0  0  0  0  0  0  0  0  0  0  0
   -9.1093   21.6496  -32.2785 H   0  0  0  0  0  0  0  0  0  0  0  0
   -8.6636   19.4337  -33.3802 H   0  0  0  0  0  0  0  0  0  0  0  0
   -4.4221   19.8318  -32.4633 H   0  0  0  0  0  0  0  0  0  0  0  0
   -3.4281   25.0605  -26.0388 H   0  0  0  0  0  0  0  0  0  0  0  0
   -1.9088   24.3010  -25.4051 H   0  0  0  0  0  0  0  0  0  0  0  0
   -2.5830   27.2688  -25.6237 H   0  0  0  0  0  0  0  0  0  0  0  0
   -2.2126   26.3109  -24.1470 H   0  0  0  0  0  0  0  0  0  0  0  0
  1  2  1  0
  2  3  1  0
  3  4  1  0
  4  5  1  0
  5  6  1  0
  6  7  2  0
  6  8  1  0
  8  9  1  0
  9 10  1  0
 10 11  1  0
 11 12  1  0
 12 13  2  0
 12 14  1  0
 14 15  1  0
 15 16  1  0
 16 17  1  0
 17 18  2  0
 17 19  1  0
 19 20  1  0
 20 21  1  0
 21 22  1  0
 21 23  2  0
 20 24  2  0
 24 25  1  0
 25 26  2  0
 26 27  1  0
 27 28  2  0
 28 29  1  0
 29 30  1  0
 29 31  1  0
 29 32  1  0
 28 33  1  0
 33 34  2  0
 11 35  1  0
 35 36  1  0
 36  8  1  0
 34 19  1  0
 34 25  1  0
  1 37  1  0
  1 38  1  0
  1 39  1  0
  3 40  1  0
  3 41  1  0
  4 42  1  0
  4 43  1  0
  9 44  1  0
  9 45  1  0
 10 46  1  0
 10 47  1  0
 15 48  1  0
 15 49  1  0
 22 50  1  0
 22 51  1  0
 24 52  1  0
 26 53  1  0
 27 54  1  0
 33 55  1  0
 35 56  1  0
 35 57  1  0
 36 58  1  0
 36 59  1  0
M  END
>  <UniqueID>  (4) 
4

>  <SMILES>  (4) 
COCCOC(=O)N1CCN(C(=O)OCOC(=O)n2c(C(N)=O)cc3ccc(C(F)(F)F)cc32)CC1

>  <Energy>  (4) 
92.95242440275241

>  <Genealogy>  (4) 
COCCOC(=O)N1CCN(C(=O)OCOC(=O)n2c(C(N)=O)cc3ccc(C(F)(F)F)cc32)CC1 (3D coordinates assigned)
COCCOC(=O)N1CCN(C(=O)OCOC(=O)n2c(C(N)=O)cc3ccc(C(F)(F)F)cc32)CC1 (nonaromatic ring conformer: 92.95242440275241 kcal/mol)

>  <smiles>  (4) 
COCCOC(=O)N1CCN(C(=O)OCOC(=O)n2c(C(N)=O)cc3ccc(C(F)(F)F)cc32)CC1

>  <score_type>  (4) 
oracle

>  <origin>  (4) 
adg

>  <m_score__min__energy>  (4) 
-8.75

>  <m_primary>  (4) 
energy

$$$$
4:0
     RDKit          3D

 43 44  0  0  0  0  0  0  0  0999 V2000
   -3.2120   25.2740  -30.5660 H   0  0  0  0  0  0  0  0  0  0  0  0
   -4.1330   25.6760  -30.8480 N   0  0  0  0  0  0  0  0  0  0  0  0
   -5.3510   25.1540  -30.3250 C   0  0  0  0  0  0  0  0  0  0  0  0
   -5.8960   25.7290  -29.3460 O   0  0  0  0  0  0  0  0  0  0  0  0
   -5.9540   23.9230  -30.8790 C   0  0  0  0  0  0  0  0  0  0  0  0
   -7.3080   23.8100  -31.1870 C   0  0  0  0  0  0  0  0  0  0  0  0
   -8.0662   24.6066  -31.1635 H   0  0  0  0  0  0  0  0  0  0  0  0
   -7.4950   22.4890  -31.5270 C   0  0  0  0  0  0  0  0  0  0  0  0
   -8.6480   21.8210  -31.9270 C   0  0  0  0  0  0  0  0  0  0  0  0
   -9.6114   22.3468  -31.9999 H   0  0  0  0  0  0  0  0  0  0  0  0
   -8.5440   20.4540  -32.2350 C   0  0  0  0  0  0  0  0  0  0  0  0
   -9.4363   19.9021  -32.5654 H   0  0  0  0  0  0  0  0  0  0  0  0
   -7.3020   19.7770  -32.1250 C   0  0  0  0  0  0  0  0  0  0  0  0
   -7.1900   18.3250  -32.5160 C   0  0  0  0  0  0  0  0  0  0  0  0
   -6.8350   18.2060  -33.8490 F   0  0  0  0  0  0  0  0  0  0  0  0
   -8.3970   17.6740  -32.3290 F   0  0  0  0  0  0  0  0  0  0  0  0
   -6.2240   17.7180  -31.7360 F   0  0  0  0  0  0  0  0  0  0  0  0
   -6.1490   20.4980  -31.7350 C   0  0  0  0  0  0  0  0  0  0  0  0
   -5.1684   20.0029  -31.6769 H   0  0  0  0  0  0  0  0  0  0  0  0
   -6.2850   21.8550  -31.4250 C   0  0  0  0  0  0  0  0  0  0  0  0
   -5.3230   22.7260  -31.0510 N   0  0  0  0  0  0  0  0  0  0  0  0
   -3.9270   22.4230  -30.8890 C   0  0  0  0  0  0  0  0  0  0  0  0
   -3.0640   23.2220  -31.3420 O   0  0  0  0  0  0  0  0  0  0  0  0
   -3.4660   21.1700  -30.2550 C   0  0  0  0  0  0  0  0  0  0  0  0
   -4.0521   20.2604  -30.4530 H   0  0  0  0  0  0  0  0  0  0  0  0
   -2.3940   21.0480  -29.4590 C   0  0  0  0  0  0  0  0  0  0  0  0
   -2.2771   20.1034  -28.9076 H   0  0  0  0  0  0  0  0  0  0  0  0
   -1.3560   22.0840  -29.2640 C   0  0  0  0  0  0  0  0  0  0  0  0
   -0.6640   22.4660  -30.2440 O   0  0  0  0  0  0  0  0  0  0  0  0
   -1.0510   22.6090  -27.9670 N   0  0  0  0  0  0  0  0  0  0  0  0
   -1.4520   23.9170  -27.4470 C   0  0  1  0  0  0  0  0  0  0  0  0
   -1.0932   24.0435  -26.4149 H   0  0  0  0  0  0  0  0  0  0  0  0
   -0.8330   24.9870  -28.3030 C   0  0  0  0  0  0  0  0  0  0  0  0
    0.3840   25.2820  -28.1630 O   0  0  0  0  0  0  0  0  0  0  0  0
   -1.6000   25.6780  -29.2330 O   0  0  0  0  0  0  0  0  0  0  0  0
   -2.9970   24.0290  -27.4020 C   0  0  2  0  0  0  0  0  0  0  0  0
   -3.3662   23.0586  -27.0385 H   0  0  0  0  0  0  0  0  0  0  0  0
   -3.5350   24.2500  -28.6840 O   0  0  0  0  0  0  0  0  0  0  0  0
   -3.7100   25.2220  -28.7790 H   0  0  0  0  0  0  0  0  0  0  0  0
   -3.4890   25.0880  -26.4040 C   0  0  0  0  0  0  0  0  0  0  0  0
   -3.3225   24.7297  -25.3774 H   0  0  0  0  0  0  0  0  0  0  0  0
   -2.9339   26.0247  -26.5600 H   0  0  0  0  0  0  0  0  0  0  0  0
   -4.5629   25.2679  -26.5600 H   0  0  0  0  0  0  0  0  0  0  0  0
  1  2  1  0
  2  3  1  0
  3  4  2  0
  3  5  1  0
  5  6  2  0
  6  7  1  0
  6  8  1  0
  8  9  2  0
  9 10  1  0
  9 11  1  0
 11 12  1  0
 11 13  2  0
 13 14  1  0
 14 15  1  0
 14 16  1  0
 14 17  1  0
 13 18  1  0
 18 19  1  0
 18 20  2  0
 20 21  1  0
 21 22  1  0
 22 23  2  0
 22 24  1  0
 24 25  1  0
 24 26  2  0
 26 27  1  0
 26 28  1  0
 28 29  2  0
 28 30  1  0
 30 31  1  0
 31 32  1  1
 31 33  1  0
 33 34  2  0
 33 35  1  0
 31 36  1  0
 36 37  1  1
 36 38  1  0
 38 39  1  0
 36 40  1  0
 40 41  1  0
 40 42  1  0
 40 43  1  0
 21  5  1  0
 20  8  1  0
M  CHG  3   2  -1  30  -1  35  -1
M  END
>  <UniqueID>  (5) 
5

>  <SMILES>  (5) 
C[C@@H](O)[C@@H]([N-]C(=O)/C=C\C(=O)n1c(C([NH-])=O)cc2ccc(C(F)(F)F)cc21)C(=O)[O-]

>  <Energy>  (5) 
85.15334759960982

>  <Genealogy>  (5) 
CC(O)C([N-]C(=O)/C=C\C(=O)n1c(C([NH-])=O)cc2ccc(C(F)(F)F)cc21)C(=O)[O-] (protonated)
C[C@@H](O)[C@@H]([N-]C(=O)/C=C\C(=O)n1c(C([NH-])=O)cc2ccc(C(F)(F)F)cc21)C(=O)[O-] (chirality)
C[C@@H](O)[C@@H]([N-]C(=O)/C=C\C(=O)n1c(C([NH-])=O)cc2ccc(C(F)(F)F)cc21)C(=O)[O-] (cis-trans isomerization)
C[C@@H](O)[C@@H]([N-]C(=O)/C=C\C(=O)n1c(C([NH-])=O)cc2ccc(C(F)(F)F)cc21)C(=O)[O-] (3D coordinates assigned)
C[C@@H](O)[C@@H]([N-]C(=O)/C=C\C(=O)n1c(C([NH-])=O)cc2ccc(C(F)(F)F)cc21)C(=O)[O-] (optimized conformer: 85.15334759960982 kcal/mol)

>  <smiles>  (5) 
CC(O)C(NC(=O)/C=C\C(=O)n1c(C(N)=O)cc2ccc(C(F)(F)F)cc21)C(=O)O

>  <score_type>  (5) 
oracle

>  <origin>  (5) 
adg

>  <m_score__min__energy>  (5) 
-13.279999999999999

>  <m_primary>  (5) 
energy

$$$$
5:0
     RDKit          3D

 36 37  0  0  0  0  0  0  0  0999 V2000
   -2.9840   17.1060  -34.9280 N   0  0  0  0  0  0  0  0  0  0  0  0
   -3.9660   18.0930  -34.6230 C   0  0  0  0  0  0  0  0  0  0  0  0
   -5.0310   18.1330  -35.2970 O   0  0  0  0  0  0  0  0  0  0  0  0
   -3.7310   19.1020  -33.5690 C   0  0  0  0  0  0  0  0  0  0  0  0
   -4.7090   19.5040  -32.6620 C   0  0  0  0  0  0  0  0  0  0  0  0
   -4.1280   20.5100  -31.9220 C   0  0  0  0  0  0  0  0  0  0  0  0
   -4.6460   21.2630  -30.8750 C   0  0  0  0  0  0  0  0  0  0  0  0
   -3.8110   22.2220  -30.2760 C   0  0  0  0  0  0  0  0  0  0  0  0
   -2.4760   22.4060  -30.7230 C   0  0  0  0  0  0  0  0  0  0  0  0
   -1.5980   23.4390  -30.0490 C   0  0  0  0  0  0  0  0  0  0  0  0
   -2.5890   24.8090  -29.3570 P   0  0  0  0  0  0  0  0  0  0  0  0
   -3.3250   24.3660  -28.1130 O   0  0  0  0  0  0  0  0  0  0  0  0
   -3.7100   25.3230  -30.5140 O   0  0  0  0  0  0  0  0  0  0  0  0
   -1.5670   26.0990  -28.9670 O   0  0  0  0  0  0  0  0  0  0  0  0
   -0.5400   22.6830  -28.7650 P   0  0  0  0  0  0  0  0  0  0  0  0
   -1.3510   22.4720  -27.5070 O   0  0  0  0  0  0  0  0  0  0  0  0
    0.7490   23.7230  -28.4240 O   0  0  0  0  0  0  0  0  0  0  0  0
    0.0710   21.1930  -29.2850 O   0  0  0  0  0  0  0  0  0  0  0  0
   -1.9890   21.6140  -31.7920 C   0  0  0  0  0  0  0  0  0  0  0  0
   -2.8490   20.6830  -32.3820 C   0  0  0  0  0  0  0  0  0  0  0  0
   -2.5880   19.8240  -33.3910 N   0  0  0  0  0  0  0  0  0  0  0  0
   -1.3300   19.6690  -34.0670 C   0  0  0  0  0  0  0  0  0  0  0  0
   -0.8080   18.5240  -34.1690 O   0  0  0  0  0  0  0  0  0  0  0  0
   -0.6790   20.7930  -34.5870 O   0  0  0  0  0  0  0  0  0  0  0  0
    0.7370   20.8900  -34.7120 C   0  0  0  0  0  0  0  0  0  0  0  0
    1.0990   21.9010  -35.7520 C   0  0  0  0  0  0  0  0  0  0  0  0
    1.7710   21.5580  -36.7600 O   0  0  0  0  0  0  0  0  0  0  0  0
    0.7190   23.2290  -35.5960 O   0  0  0  0  0  0  0  0  0  0  0  0
   -2.1070   17.3590  -35.4350 H   0  0  0  0  0  0  0  0  0  0  0  0
   -5.7282   19.1033  -32.5588 H   0  0  0  0  0  0  0  0  0  0  0  0
   -5.6782   21.1130  -30.5257 H   0  0  0  0  0  0  0  0  0  0  0  0
   -4.1968   22.8379  -29.4503 H   0  0  0  0  0  0  0  0  0  0  0  0
   -0.9379   23.8595  -30.8219 H   0  0  0  0  0  0  0  0  0  0  0  0
   -0.9554   21.7292  -32.1504 H   0  0  0  0  0  0  0  0  0  0  0  0
    1.1664   21.1938  -33.7459 H   0  0  0  0  0  0  0  0  0  0  0  0
    1.1373   19.9102  -35.0115 H   0  0  0  0  0  0  0  0  0  0  0  0
  1  2  1  0
  2  3  2  0
  2  4  1  0
  4  5  2  0
  5  6  1  0
  6  7  2  0
  7  8  1  0
  8  9  2  0
  9 10  1  0
 10 11  1  0
 11 12  2  0
 11 13  1  0
 11 14  1  0
 10 15  1  0
 15 16  2  0
 15 17  1  0
 15 18  1  0
  9 19  1  0
 19 20  2  0
 20 21  1  0
 21 22  1  0
 22 23  2  0
 22 24  1  0
 24 25  1  0
 25 26  1  0
 26 27  2  0
 26 28  1  0
 21  4  1  0
 20  6  1  0
  1 29  1  0
  5 30  1  0
  7 31  1  0
  8 32  1  0
 10 33  1  0
 19 34  1  0
 25 35  1  0
 25 36  1  0
M  CHG  6   1  -1  13  -1  14  -1  17  -1  18  -1  28  -1
M  END
>  <UniqueID>  (6) 
6

>  <SMILES>  (6) 
[NH-]C(=O)c1cc2ccc(C(P(=O)([O-])[O-])P(=O)([O-])[O-])cc2n1C(=O)OCC(=O)[O-]

>  <Energy>  (6) 
66.5751389093773

>  <Genealogy>  (6) 
[NH-]C(=O)c1cc2ccc(C(P(=O)([O-])[O-])P(=O)([O-])[O-])cc2n1C(=O)OCC(=O)[O-] (protonated)
[NH-]C(=O)c1cc2ccc(C(P(=O)([O-])[O-])P(=O)([O-])[O-])cc2n1C(=O)OCC(=O)[O-] (3D coordinates assigned)
[NH-]C(=O)c1cc2ccc(C(P(=O)([O-])[O-])P(=O)([O-])[O-])cc2n1C(=O)OCC(=O)[O-] (optimized conformer: 66.5751389093773 kcal/mol)

>  <smiles>  (6) 
NC(=O)c1cc2ccc(C(P(=O)(O)O)P(=O)(O)O)cc2n1C(=O)OCC(=O)O

>  <score_type>  (6) 
oracle

>  <origin>  (6) 
adg

>  <m_score__min__energy>  (6) 
-12.49

>  <m_primary>  (6) 
energy

$$$$
6:0
     RDKit          3D

 33 34  0  0  0  0  0  0  0  0999 V2000
   -7.3070   18.2620  -32.1770 C   0  0  0  0  0  0  0  0  0  0  0  0
   -7.3560   19.7500  -32.0010 C   0  0  0  0  0  0  0  0  0  0  0  0
   -8.5830   20.4430  -32.1510 C   0  0  0  0  0  0  0  0  0  0  0  0
   -8.6470   21.8330  -31.9640 C   0  0  0  0  0  0  0  0  0  0  0  0
   -7.4760   22.4980  -31.6100 C   0  0  0  0  0  0  0  0  0  0  0  0
   -7.2530   23.8380  -31.3840 C   0  0  0  0  0  0  0  0  0  0  0  0
   -5.9020   23.9370  -31.0590 C   0  0  0  0  0  0  0  0  0  0  0  0
   -5.2600   25.2020  -30.6460 C   0  0  0  0  0  0  0  0  0  0  0  0
   -3.8610   25.4080  -30.8270 N   0  0  0  0  0  0  0  0  0  0  0  0
   -5.9460   26.0940  -30.0790 O   0  0  0  0  0  0  0  0  0  0  0  0
   -5.3090   22.7100  -31.0940 N   0  0  0  0  0  0  0  0  0  0  0  0
   -3.9220   22.3930  -30.8970 C   0  0  0  0  0  0  0  0  0  0  0  0
   -3.0560   22.8160  -31.7110 O   0  0  0  0  0  0  0  0  0  0  0  0
   -3.5410   21.5980  -29.8130 O   0  0  0  0  0  0  0  0  0  0  0  0
   -3.2150   22.1380  -28.5350 C   0  0  0  0  0  0  0  0  0  0  0  0
   -3.1750   23.5440  -28.6020 O   0  0  0  0  0  0  0  0  0  0  0  0
   -1.5730   24.0440  -28.9210 P   0  0  2  0  0  0  0  0  0  0  0  0
   -0.7200   23.8660  -27.6850 O   0  0  0  0  0  0  0  0  0  0  0  0
   -1.5870   25.6800  -29.3460 O   0  0  0  0  0  0  0  0  0  0  0  0
   -0.9100   23.1500  -30.1970 O   0  0  0  0  0  0  0  0  0  0  0  0
   -6.2870   21.8380  -31.4290 C   0  0  0  0  0  0  0  0  0  0  0  0
   -6.1910   20.4550  -31.6280 C   0  0  0  0  0  0  0  0  0  0  0  0
   -7.2910   17.7764  -31.1901 H   0  0  0  0  0  0  0  0  0  0  0  0
   -8.1947   17.9293  -32.7350 H   0  0  0  0  0  0  0  0  0  0  0  0
   -6.3994   17.9885  -32.7350 H   0  0  0  0  0  0  0  0  0  0  0  0
   -9.4940   19.8866  -32.4165 H   0  0  0  0  0  0  0  0  0  0  0  0
   -9.5928   22.3797  -32.0931 H   0  0  0  0  0  0  0  0  0  0  0  0
   -7.9857   24.6561  -31.4467 H   0  0  0  0  0  0  0  0  0  0  0  0
   -3.1680   24.6910  -30.5120 H   0  0  0  0  0  0  0  0  0  0  0  0
   -3.9771   21.8297  -27.8041 H   0  0  0  0  0  0  0  0  0  0  0  0
   -2.2282   21.7631  -28.2258 H   0  0  0  0  0  0  0  0  0  0  0  0
   -1.6110   22.4910  -30.4330 H   0  0  0  0  0  0  0  0  0  0  0  0
   -5.2325   19.9315  -31.4970 H   0  0  0  0  0  0  0  0  0  0  0  0
  1  2  1  0
  2  3  2  0
  3  4  1  0
  4  5  2  0
  5  6  1  0
  6  7  2  0
  7  8  1  0
  8  9  1  0
  8 10  2  0
  7 11  1  0
 11 12  1  0
 12 13  2  0
 12 14  1  0
 14 15  1  0
 15 16  1  0
 16 17  1  0
 17 18  2  0
 17 19  1  6
 17 20  1  0
 11 21  1  0
 21 22  2  0
 22  2  1  0
 21  5  1  0
  1 23  1  0
  1 24  1  0
  1 25  1  0
  3 26  1  0
  4 27  1  0
  6 28  1  0
  9 29  1  0
 15 30  1  0
 15 31  1  0
 20 32  1  0
 22 33  1  0
M  CHG  2   9  -1  19  -1
M  END
>  <UniqueID>  (7) 
7

>  <SMILES>  (7) 
Cc1ccc2cc(C([NH-])=O)n(C(=O)OCO[P@](=O)([O-])O)c2c1

>  <Energy>  (7) 
68.33297793718945

>  <Genealogy>  (7) 
Cc1ccc2cc(C([NH-])=O)n(C(=O)OCOP(=O)([O-])O)c2c1 (protonated)
Cc1ccc2cc(C([NH-])=O)n(C(=O)OCO[P@](=O)([O-])O)c2c1 (chirality)
Cc1ccc2cc(C([NH-])=O)n(C(=O)OCO[P@](=O)([O-])O)c2c1 (3D coordinates assigned)
Cc1ccc2cc(C([NH-])=O)n(C(=O)OCO[P@](=O)([O-])O)c2c1 (optimized conformer: 68.33297793718945 kcal/mol)

>  <smiles>  (7) 
Cc1ccc2cc(C(N)=O)n(C(=O)OCOP(=O)(O)O)c2c1

>  <score_type>  (7) 
oracle

>  <origin>  (7) 
adg

>  <m_score__min__energy>  (7) 
-12.01

>  <m_primary>  (7) 
energy

$$$$
7:0
     RDKit          3D

 40 41  0  0  0  0  0  0  0  0999 V2000
   -4.1100   24.4840  -27.2720 C   0  0  0  0  0  0  0  0  0  0  0  0
   -3.0870   23.4090  -27.6300 C   0  0  0  0  0  0  0  0  0  0  0  0
   -2.7660   23.4320  -29.0810 N   0  0  0  0  0  0  0  0  0  0  0  0
   -1.3100   23.6020  -29.3160 C   0  0  0  0  0  0  0  0  0  0  0  0
   -0.8430   24.9120  -28.7650 C   0  0  0  0  0  0  0  0  0  0  0  0
    0.2610   24.9910  -28.1660 O   0  0  0  0  0  0  0  0  0  0  0  0
   -1.6060   26.0590  -28.9560 O   0  0  0  0  0  0  0  0  0  0  0  0
   -3.2690   22.2070  -29.7420 C   0  0  0  0  0  0  0  0  0  0  0  0
   -3.8900   22.5490  -31.0660 C   0  0  0  0  0  0  0  0  0  0  0  0
   -3.1570   22.6420  -32.0860 O   0  0  0  0  0  0  0  0  0  0  0  0
   -5.2890   22.8490  -31.1670 N   0  0  0  0  0  0  0  0  0  0  0  0
   -5.9100   24.0460  -30.9730 C   0  0  0  0  0  0  0  0  0  0  0  0
   -5.2710   25.2790  -30.4720 C   0  0  0  0  0  0  0  0  0  0  0  0
   -3.9250   25.5800  -30.8370 N   0  0  0  0  0  0  0  0  0  0  0  0
   -5.9100   26.0900  -29.7520 O   0  0  0  0  0  0  0  0  0  0  0  0
   -7.2770   23.9320  -31.2260 C   0  0  0  0  0  0  0  0  0  0  0  0
   -7.4740   22.6150  -31.5800 C   0  0  0  0  0  0  0  0  0  0  0  0
   -8.6370   21.9490  -31.9570 C   0  0  0  0  0  0  0  0  0  0  0  0
   -8.5360   20.5920  -32.3040 C   0  0  0  0  0  0  0  0  0  0  0  0
   -7.2850   19.9260  -32.2570 C   0  0  0  0  0  0  0  0  0  0  0  0
   -7.1780   18.4910  -32.6800 C   0  0  0  0  0  0  0  0  0  0  0  0
   -6.1250   20.6350  -31.8790 C   0  0  0  0  0  0  0  0  0  0  0  0
   -6.2580   21.9840  -31.5320 C   0  0  0  0  0  0  0  0  0  0  0  0
   -4.1881   24.5660  -26.1778 H   0  0  0  0  0  0  0  0  0  0  0  0
   -3.7889   25.4495  -27.6901 H   0  0  0  0  0  0  0  0  0  0  0  0
   -5.0902   24.2112  -27.6901 H   0  0  0  0  0  0  0  0  0  0  0  0
   -2.1654   23.5859  -27.0561 H   0  0  0  0  0  0  0  0  0  0  0  0
   -3.5153   22.4260  -27.3843 H   0  0  0  0  0  0  0  0  0  0  0  0
   -0.7649   22.7852  -28.8203 H   0  0  0  0  0  0  0  0  0  0  0  0
   -1.1183   23.5814  -30.3990 H   0  0  0  0  0  0  0  0  0  0  0  0
   -2.4324   21.5110  -29.9022 H   0  0  0  0  0  0  0  0  0  0  0  0
   -4.0294   21.7391  -29.0994 H   0  0  0  0  0  0  0  0  0  0  0  0
   -3.1260   25.2580  -30.2470 H   0  0  0  0  0  0  0  0  0  0  0  0
   -8.0363   24.7249  -31.1575 H   0  0  0  0  0  0  0  0  0  0  0  0
   -9.6055   22.4699  -31.9823 H   0  0  0  0  0  0  0  0  0  0  0  0
   -9.4356   20.0406  -32.6151 H   0  0  0  0  0  0  0  0  0  0  0  0
   -7.1301   17.8485  -31.7884 H   0  0  0  0  0  0  0  0  0  0  0  0
   -8.0584   18.2192  -33.2809 H   0  0  0  0  0  0  0  0  0  0  0  0
   -6.2671   18.3528  -33.2809 H   0  0  0  0  0  0  0  0  0  0  0  0
   -5.1426   20.1405  -31.8577 H   0  0  0  0  0  0  0  0  0  0  0  0
  1  2  1  0
  2  3  1  0
  3  4  1  0
  4  5  1  0
  5  6  2  0
  5  7  1  0
  3  8  1  0
  8  9  1  0
  9 10  2  0
  9 11  1  0
 11 12  1  0
 12 13  1  0
 13 14  1  0
 13 15  2  0
 12 16  2  0
 16 17  1  0
 17 18  2  0
 18 19  1  0
 19 20  2  0
 20 21  1  0
 20 22  1  0
 22 23  2  0
 23 11  1  0
 23 17  1  0
  1 24  1  0
  1 25  1  0
  1 26  1  0
  2 27  1  0
  2 28  1  0
  4 29  1  0
  4 30  1  0
  8 31  1  0
  8 32  1  0
 14 33  1  0
 16 34  1  0
 18 35  1  0
 19 36  1  0
 21 37  1  0
 21 38  1  0
 21 39  1  0
 22 40  1  0
M  CHG  2   7  -1  14  -1
M  END
>  <UniqueID>  (8) 
8

>  <SMILES>  (8) 
CCN(CC(=O)[O-])CC(=O)n1c(C([NH-])=O)cc2ccc(C)cc21

>  <Energy>  (8) 
78.94969476558418

>  <Genealogy>  (8) 
CCN(CC(=O)[O-])CC(=O)n1c(C([NH-])=O)cc2ccc(C)cc21 (protonated)
CCN(CC(=O)[O-])CC(=O)n1c(C([NH-])=O)cc2ccc(C)cc21 (3D coordinates assigned)
CCN(CC(=O)[O-])CC(=O)n1c(C([NH-])=O)cc2ccc(C)cc21 (optimized conformer: 78.94969476558418 kcal/mol)

>  <smiles>  (8) 
CCN(CC(=O)O)CC(=O)n1c(C(N)=O)cc2ccc(C)cc21

>  <score_type>  (8) 
oracle

>  <origin>  (8) 
adg

>  <m_score__min__energy>  (8) 
-12.75

>  <m_primary>  (8) 
energy

$$$$
8:0
     RDKit          3D

 34 35  0  0  0  0  0  0  0  0999 V2000
   -1.0440   18.7470  -33.9110 C   0  0  0  0  0  0  0  0  0  0  0  0
   -2.2450   17.9350  -33.4410 C   0  0  0  0  0  0  0  0  0  0  0  0
   -3.4380   18.8260  -33.2250 C   0  0  0  0  0  0  0  0  0  0  0  0
   -4.5810   18.6990  -34.0540 C   0  0  0  0  0  0  0  0  0  0  0  0
   -5.6940   19.5370  -33.8710 C   0  0  0  0  0  0  0  0  0  0  0  0
   -5.6260   20.5030  -32.8710 C   0  0  0  0  0  0  0  0  0  0  0  0
   -6.5670   21.4200  -32.4590 C   0  0  0  0  0  0  0  0  0  0  0  0
   -5.9700   22.1180  -31.4100 C   0  0  0  0  0  0  0  0  0  0  0  0
   -6.6140   23.2330  -30.6710 C   0  0  0  0  0  0  0  0  0  0  0  0
   -6.1250   23.6490  -29.3950 N   0  0  0  0  0  0  0  0  0  0  0  0
   -7.6130   23.8230  -31.1620 O   0  0  0  0  0  0  0  0  0  0  0  0
   -4.7050   21.6580  -31.1950 N   0  0  0  0  0  0  0  0  0  0  0  0
   -3.7750   22.0940  -30.1910 C   0  0  0  0  0  0  0  0  0  0  0  0
   -3.8930   21.6780  -29.0070 O   0  0  0  0  0  0  0  0  0  0  0  0
   -2.6990   23.0850  -30.5220 C   0  0  0  0  0  0  0  0  0  0  0  0
   -3.0470   24.6790  -29.7230 P   0  0  0  0  0  0  0  0  0  0  0  0
   -3.8520   24.4590  -28.4630 O   0  0  0  0  0  0  0  0  0  0  0  0
   -3.9170   25.6670  -30.7840 O   0  0  0  0  0  0  0  0  0  0  0  0
   -1.5860   25.4340  -29.3280 O   0  0  0  0  0  0  0  0  0  0  0  0
   -4.5140   20.6620  -32.0870 C   0  0  0  0  0  0  0  0  0  0  0  0
   -3.4030   19.8250  -32.2270 C   0  0  0  0  0  0  0  0  0  0  0  0
   -0.4901   19.1215  -33.0375 H   0  0  0  0  0  0  0  0  0  0  0  0
   -0.3845   18.1087  -34.5173 H   0  0  0  0  0  0  0  0  0  0  0  0
   -1.3906   19.5968  -34.5173 H   0  0  0  0  0  0  0  0  0  0  0  0
   -2.4911   17.1805  -34.2027 H   0  0  0  0  0  0  0  0  0  0  0  0
   -1.9910   17.4471  -32.4884 H   0  0  0  0  0  0  0  0  0  0  0  0
   -4.5967   17.9375  -34.8477 H   0  0  0  0  0  0  0  0  0  0  0  0
   -6.5914   19.4329  -34.4986 H   0  0  0  0  0  0  0  0  0  0  0  0
   -7.5761   21.5701  -32.8704 H   0  0  0  0  0  0  0  0  0  0  0  0
   -6.6120   24.4110  -28.8730 H   0  0  0  0  0  0  0  0  0  0  0  0
   -5.2600   23.2410  -28.9790 H   0  0  0  0  0  0  0  0  0  0  0  0
   -1.7311   22.7032  -30.1650 H   0  0  0  0  0  0  0  0  0  0  0  0
   -2.6668   23.2293  -31.6120 H   0  0  0  0  0  0  0  0  0  0  0  0
   -2.5237   19.9415  -31.5764 H   0  0  0  0  0  0  0  0  0  0  0  0
  1  2  1  0
  2  3  1  0
  3  4  2  0
  4  5  1  0
  5  6  2  0
  6  7  1  0
  7  8  2  0
  8  9  1  0
  9 10  1  0
  9 11  2  0
  8 12  1  0
 12 13  1  0
 13 14  2  0
 13 15  1  0
 15 16  1  0
 16 17  2  0
 16 18  1  0
 16 19  1  0
 12 20  1  0
 20 21  2  0
 21  3  1  0
 20  6  1  0
  1 22  1  0
  1 23  1  0
  1 24  1  0
  2 25  1  0
  2 26  1  0
  4 27  1  0
  5 28  1  0
  7 29  1  0
 10 30  1  0
 10 31  1  0
 15 32  1  0
 15 33  1  0
 21 34  1  0
M  CHG  2  18  -1  19  -1
M  END
>  <UniqueID>  (9) 
9

>  <SMILES>  (9) 
CCc1ccc2cc(C(N)=O)n(C(=O)CP(=O)([O-])[O-])c2c1

>  <Energy>  (9) 
64.96107899465996

>  <Genealogy>  (9) 
CCc1ccc2cc(C(N)=O)n(C(=O)CP(=O)([O-])[O-])c2c1 (protonated)
CCc1ccc2cc(C(N)=O)n(C(=O)CP(=O)([O-])[O-])c2c1 (3D coordinates assigned)
CCc1ccc2cc(C(N)=O)n(C(=O)CP(=O)([O-])[O-])c2c1 (optimized conformer: 64.96107899465996 kcal/mol)

>  <smiles>  (9) 
CCc1ccc2cc(C(N)=O)n(C(=O)CP(=O)(O)O)c2c1

>  <score_type>  (9) 
oracle

>  <origin>  (9) 
adg

>  <m_score__min__energy>  (9) 
-12.84

>  <m_primary>  (9) 
energy

$$$$
9:0
     RDKit          3D

 41 42  0  0  0  0  0  0  0  0999 V2000
   -4.0750   25.6740  -30.8410 N   0  0  0  0  0  0  0  0  0  0  0  0
   -5.2470   25.0460  -30.3260 C   0  0  0  0  0  0  0  0  0  0  0  0
   -5.9340   25.6420  -29.4540 O   0  0  0  0  0  0  0  0  0  0  0  0
   -5.6960   23.7370  -30.8430 C   0  0  0  0  0  0  0  0  0  0  0  0
   -7.0370   23.3860  -30.9760 C   0  0  0  0  0  0  0  0  0  0  0  0
   -7.0330   22.1440  -31.5680 C   0  0  0  0  0  0  0  0  0  0  0  0
   -8.0950   21.3190  -31.9270 C   0  0  0  0  0  0  0  0  0  0  0  0
   -7.7960   20.0730  -32.5020 C   0  0  0  0  0  0  0  0  0  0  0  0
   -6.4510   19.6710  -32.6950 C   0  0  0  0  0  0  0  0  0  0  0  0
   -6.1470   18.3370  -33.3280 C   0  0  0  0  0  0  0  0  0  0  0  0
   -4.6520   17.9830  -33.2460 C   0  0  0  0  0  0  0  0  0  0  0  0
   -3.7590   18.8000  -34.2000 C   0  0  0  0  0  0  0  0  0  0  0  0
   -2.8600   19.7040  -33.4790 N   0  0  0  0  0  0  0  0  0  0  0  0
   -5.3980   20.5350  -32.3190 C   0  0  0  0  0  0  0  0  0  0  0  0
   -5.7260   21.7800  -31.7680 C   0  0  0  0  0  0  0  0  0  0  0  0
   -4.8920   22.7480  -31.3260 N   0  0  0  0  0  0  0  0  0  0  0  0
   -3.4580   22.6850  -31.2830 C   0  0  0  0  0  0  0  0  0  0  0  0
   -2.8450   21.8140  -31.9590 O   0  0  0  0  0  0  0  0  0  0  0  0
   -2.7480   23.5800  -30.4770 O   0  0  0  0  0  0  0  0  0  0  0  0
   -2.4970   23.3400  -29.0960 C   0  0  0  0  0  0  0  0  0  0  0  0
   -2.1880   24.6550  -28.3940 C   0  0  0  0  0  0  0  0  0  0  0  0
   -1.5200   25.5160  -29.2740 O   0  0  0  0  0  0  0  0  0  0  0  0
   -3.1280   25.2770  -30.6560 H   0  0  0  0  0  0  0  0  0  0  0  0
   -7.9138   23.9766  -30.6721 H   0  0  0  0  0  0  0  0  0  0  0  0
   -9.1367   21.6333  -31.7653 H   0  0  0  0  0  0  0  0  0  0  0  0
   -8.6138   19.4028  -32.8054 H   0  0  0  0  0  0  0  0  0  0  0  0
   -6.7246   17.5583  -32.8084 H   0  0  0  0  0  0  0  0  0  0  0  0
   -6.4224   18.3967  -34.3913 H   0  0  0  0  0  0  0  0  0  0  0  0
   -4.3107   18.1614  -32.2156 H   0  0  0  0  0  0  0  0  0  0  0  0
   -4.5583   16.9294  -33.5480 H   0  0  0  0  0  0  0  0  0  0  0  0
   -3.1547   18.1051  -34.8016 H   0  0  0  0  0  0  0  0  0  0  0  0
   -4.4157   19.4128  -34.8350 H   0  0  0  0  0  0  0  0  0  0  0  0
   -3.1160   19.6980  -32.4660 H   0  0  0  0  0  0  0  0  0  0  0  0
   -2.9550   20.6800  -33.8430 H   0  0  0  0  0  0  0  0  0  0  0  0
   -1.8700   19.3820  -33.5690 H   0  0  0  0  0  0  0  0  0  0  0  0
   -4.3479   20.2374  -32.4556 H   0  0  0  0  0  0  0  0  0  0  0  0
   -3.3852   22.8807  -28.6375 H   0  0  0  0  0  0  0  0  0  0  0  0
   -1.6365   22.6623  -28.9948 H   0  0  0  0  0  0  0  0  0  0  0  0
   -3.1276   25.1241  -28.0668 H   0  0  0  0  0  0  0  0  0  0  0  0
   -1.5482   24.4595  -27.5208 H   0  0  0  0  0  0  0  0  0  0  0  0
   -2.1380   25.6620  -30.0360 H   0  0  0  0  0  0  0  0  0  0  0  0
  1  2  1  0
  2  3  2  0
  2  4  1  0
  4  5  2  0
  5  6  1  0
  6  7  2  0
  7  8  1  0
  8  9  2  0
  9 10  1  0
 10 11  1  0
 11 12  1  0
 12 13  1  0
  9 14  1  0
 14 15  2  0
 15 16  1  0
 16 17  1  0
 17 18  2  0
 17 19  1  0
 19 20  1  0
 20 21  1  0
 21 22  1  0
 16  4  1  0
 15  6  1  0
  1 23  1  0
  5 24  1  0
  7 25  1  0
  8 26  1  0
 10 27  1  0
 10 28  1  0
 11 29  1  0
 11 30  1  0
 12 31  1  0
 12 32  1  0
 13 33  1  0
 13 34  1  0
 13 35  1  0
 14 36  1  0
 20 37  1  0
 20 38  1  0
 21 39  1  0
 21 40  1  0
 22 41  1  0
M  CHG  2   1  -1  13   1
M  END
>  <UniqueID>  (10) 
10

>  <SMILES>  (10) 
[NH-]C(=O)c1cc2ccc(CCC[NH3+])cc2n1C(=O)OCCO

>  <Energy>  (10) 
69.98569764977807

>  <Genealogy>  (10) 
[NH-]C(=O)c1cc2ccc(CCC[NH3+])cc2n1C(=O)OCCO (protonated)
[NH-]C(=O)c1cc2ccc(CCC[NH3+])cc2n1C(=O)OCCO (3D coordinates assigned)
[NH-]C(=O)c1cc2ccc(CCC[NH3+])cc2n1C(=O)OCCO (optimized conformer: 69.98569764977807 kcal/mol)

>  <smiles>  (10) 
NCCCc1ccc2cc(C(N)=O)n(C(=O)OCCO)c2c1

>  <score_type>  (10) 
oracle

>  <origin>  (10) 
adg

>  <m_score__min__energy>  (10) 
-9.0099999999999998

>  <m_primary>  (10) 
energy

$$$$
10:0
     RDKit          3D

 40 41  0  0  0  0  0  0  0  0999 V2000
   -2.6380   22.5100  -27.6340 C   0  0  0  0  0  0  0  0  0  0  0  0
   -2.6950   23.1060  -29.0420 C   0  0  1  0  0  0  0  0  0  0  0  0
   -1.3010   23.5690  -29.5190 C   0  0  0  0  0  0  0  0  0  0  0  0
   -0.8450   24.8370  -28.8630 C   0  0  0  0  0  0  0  0  0  0  0  0
    0.2350   24.8660  -28.2160 O   0  0  0  0  0  0  0  0  0  0  0  0
   -1.6170   25.9880  -28.9640 O   0  0  0  0  0  0  0  0  0  0  0  0
   -3.2790   22.1430  -29.9240 O   0  0  0  0  0  0  0  0  0  0  0  0
   -3.8860   22.4650  -31.1440 C   0  0  0  0  0  0  0  0  0  0  0  0
   -3.1920   22.5490  -32.1930 O   0  0  0  0  0  0  0  0  0  0  0  0
   -5.2990   22.7430  -31.1910 N   0  0  0  0  0  0  0  0  0  0  0  0
   -5.9220   23.9400  -30.9830 C   0  0  0  0  0  0  0  0  0  0  0  0
   -5.2920   25.1800  -30.4890 C   0  0  0  0  0  0  0  0  0  0  0  0
   -3.9060   25.4290  -30.6960 N   0  0  0  0  0  0  0  0  0  0  0  0
   -5.9740   26.0030  -29.8220 O   0  0  0  0  0  0  0  0  0  0  0  0
   -7.2860   23.8360  -31.2410 C   0  0  0  0  0  0  0  0  0  0  0  0
   -7.4890   22.5300  -31.6110 C   0  0  0  0  0  0  0  0  0  0  0  0
   -8.6600   21.8850  -31.9940 C   0  0  0  0  0  0  0  0  0  0  0  0
   -8.5760   20.5340  -32.3670 C   0  0  0  0  0  0  0  0  0  0  0  0
   -7.3340   19.8530  -32.3620 C   0  0  0  0  0  0  0  0  0  0  0  0
   -7.2950   18.4700  -32.7650 N   0  0  0  0  0  0  0  0  0  0  0  0
   -6.3350   17.4870  -32.2650 C   0  0  0  0  0  0  0  0  0  0  0  0
   -6.2570   16.3130  -33.1900 C   0  0  0  0  0  0  0  0  0  0  0  0
   -5.3530   15.4490  -33.0430 O   0  0  0  0  0  0  0  0  0  0  0  0
   -7.1660   16.1860  -34.2320 O   0  0  0  0  0  0  0  0  0  0  0  0
   -6.1620   20.5480  -31.9700 C   0  0  0  0  0  0  0  0  0  0  0  0
   -6.2770   21.8890  -31.5790 C   0  0  0  0  0  0  0  0  0  0  0  0
   -2.7152   23.3172  -26.8907 H   0  0  0  0  0  0  0  0  0  0  0  0
   -3.4730   21.8066  -27.4995 H   0  0  0  0  0  0  0  0  0  0  0  0
   -1.6848   21.9776  -27.4995 H   0  0  0  0  0  0  0  0  0  0  0  0
   -3.3239   24.0085  -29.0359 H   0  0  0  0  0  0  0  0  0  0  0  0
   -0.5727   22.7764  -29.2925 H   0  0  0  0  0  0  0  0  0  0  0  0
   -1.3733   23.7666  -30.5987 H   0  0  0  0  0  0  0  0  0  0  0  0
   -3.2500   24.6520  -30.9360 H   0  0  0  0  0  0  0  0  0  0  0  0
   -8.0413   24.6321  -31.1645 H   0  0  0  0  0  0  0  0  0  0  0  0
   -9.6227   22.4170  -32.0044 H   0  0  0  0  0  0  0  0  0  0  0  0
   -9.4877   19.9968  -32.6674 H   0  0  0  0  0  0  0  0  0  0  0  0
   -8.0000   18.1340  -33.4630 H   0  0  0  0  0  0  0  0  0  0  0  0
   -5.3426   17.9556  -32.1904 H   0  0  0  0  0  0  0  0  0  0  0  0
   -6.6653   17.1387  -31.2752 H   0  0  0  0  0  0  0  0  0  0  0  0
   -5.1835   20.0455  -31.9727 H   0  0  0  0  0  0  0  0  0  0  0  0
  1  2  1  0
  2  3  1  0
  3  4  1  0
  4  5  2  0
  4  6  1  0
  2  7  1  0
  7  8  1  0
  8  9  2  0
  8 10  1  0
 10 11  1  0
 11 12  1  0
 12 13  1  0
 12 14  2  0
 11 15  2  0
 15 16  1  0
 16 17  2  0
 17 18  1  0
 18 19  2  0
 19 20  1  0
 20 21  1  0
 21 22  1  0
 22 23  2  0
 22 24  1  0
 19 25  1  0
 25 26  2  0
 26 10  1  0
 26 16  1  0
  1 27  1  0
  1 28  1  0
  1 29  1  0
  2 30  1  1
  3 31  1  0
  3 32  1  0
 13 33  1  0
 15 34  1  0
 17 35  1  0
 18 36  1  0
 20 37  1  0
 21 38  1  0
 21 39  1  0
 25 40  1  0
M  CHG  3   6  -1  13  -1  24  -1
M  END
>  <UniqueID>  (11) 
11

>  <SMILES>  (11) 
C[C@@H](CC(=O)[O-])OC(=O)n1c(C([NH-])=O)cc2ccc(NCC(=O)[O-])cc21

>  <Energy>  (11) 
73.53531510304911

>  <Genealogy>  (11) 
CC(CC(=O)[O-])OC(=O)n1c(C([NH-])=O)cc2ccc(NCC(=O)[O-])cc21 (protonated)
C[C@@H](CC(=O)[O-])OC(=O)n1c(C([NH-])=O)cc2ccc(NCC(=O)[O-])cc21 (chirality)
C[C@@H](CC(=O)[O-])OC(=O)n1c(C([NH-])=O)cc2ccc(NCC(=O)[O-])cc21 (3D coordinates assigned)
C[C@@H](CC(=O)[O-])OC(=O)n1c(C([NH-])=O)cc2ccc(NCC(=O)[O-])cc21 (optimized conformer: 73.53531510304911 kcal/mol)

>  <smiles>  (11) 
CC(CC(=O)O)OC(=O)n1c(C(N)=O)cc2ccc(NCC(=O)O)cc21

>  <score_type>  (11) 
oracle

>  <origin>  (11) 
adg

>  <m_score__min__energy>  (11) 
-12.460000000000001

>  <m_primary>  (11) 
energy

$$$$
11:0
     RDKit          3D

 58 59  0  0  0  0  0  0  0  0999 V2000
    2.0840   19.3040  -31.0920 C   0  0  0  0  0  0  0  0  0  0  0  0
    0.6490   19.4470  -30.8340 N   0  0  0  0  0  0  0  0  0  0  0  0
    0.1760   19.8800  -29.5130 C   0  0  0  0  0  0  0  0  0  0  0  0
   -0.8450   18.8840  -28.9450 C   0  0  0  0  0  0  0  0  0  0  0  0
   -1.8190   19.5630  -28.0800 N   0  0  0  0  0  0  0  0  0  0  0  0
   -1.9610   19.1460  -26.6810 C   0  0  0  0  0  0  0  0  0  0  0  0
   -2.6470   20.6300  -28.5790 C   0  0  0  0  0  0  0  0  0  0  0  0
   -3.4730   20.4010  -29.5070 O   0  0  0  0  0  0  0  0  0  0  0  0
   -2.5660   21.9100  -28.0170 O   0  0  0  0  0  0  0  0  0  0  0  0
   -1.4420   22.7660  -28.2100 C   0  0  0  0  0  0  0  0  0  0  0  0
   -1.5770   23.4840  -29.4160 O   0  0  0  0  0  0  0  0  0  0  0  0
   -2.4260   24.9330  -29.1080 P   0  0  0  0  0  0  0  0  0  0  0  0
   -3.2170   24.8250  -27.8260 O   0  0  0  0  0  0  0  0  0  0  0  0
   -3.4790   25.2580  -30.3910 O   0  0  0  0  0  0  0  0  0  0  0  0
   -1.3160   26.2020  -28.9670 O   0  0  0  0  0  0  0  0  0  0  0  0
   -0.2970   19.1000  -31.8620 C   0  0  0  0  0  0  0  0  0  0  0  0
   -0.8760   17.9790  -31.8350 O   0  0  0  0  0  0  0  0  0  0  0  0
   -0.5710   20.0050  -32.8950 O   0  0  0  0  0  0  0  0  0  0  0  0
   -1.2410   21.2430  -32.6820 C   0  0  0  0  0  0  0  0  0  0  0  0
   -2.6420   21.0680  -32.8700 O   0  0  0  0  0  0  0  0  0  0  0  0
   -3.5950   21.7310  -32.0890 C   0  0  0  0  0  0  0  0  0  0  0  0
   -3.2980   22.8140  -31.5140 O   0  0  0  0  0  0  0  0  0  0  0  0
   -4.9060   21.1640  -31.9220 N   0  0  0  0  0  0  0  0  0  0  0  0
   -5.9670   21.7120  -31.2650 C   0  0  0  0  0  0  0  0  0  0  0  0
   -5.9260   22.9370  -30.4370 C   0  0  0  0  0  0  0  0  0  0  0  0
   -4.8120   23.2000  -29.5830 N   0  0  0  0  0  0  0  0  0  0  0  0
   -6.8630   23.7750  -30.5030 O   0  0  0  0  0  0  0  0  0  0  0  0
   -7.1020   20.9180  -31.4190 C   0  0  0  0  0  0  0  0  0  0  0  0
   -6.7010   19.8580  -32.1990 C   0  0  0  0  0  0  0  0  0  0  0  0
   -7.4400   18.7930  -32.7020 C   0  0  0  0  0  0  0  0  0  0  0  0
   -6.7880   17.8790  -33.5480 C   0  0  0  0  0  0  0  0  0  0  0  0
   -5.4140   18.0360  -33.8630 C   0  0  0  0  0  0  0  0  0  0  0  0
   -4.7510   17.0980  -34.8390 C   0  0  0  0  0  0  0  0  0  0  0  0
   -5.2960   15.8360  -34.6990 F   0  0  0  0  0  0  0  0  0  0  0  0
   -3.3900   17.0310  -34.6000 F   0  0  0  0  0  0  0  0  0  0  0  0
   -4.9410   17.5280  -36.1410 F   0  0  0  0  0  0  0  0  0  0  0  0
   -4.7010   19.1400  -33.3400 C   0  0  0  0  0  0  0  0  0  0  0  0
   -5.3730   20.0290  -32.4910 C   0  0  0  0  0  0  0  0  0  0  0  0
    2.6249   19.2501  -30.1357 H   0  0  0  0  0  0  0  0  0  0  0  0
    2.2632   18.3835  -31.6670 H   0  0  0  0  0  0  0  0  0  0  0  0
    2.4413   20.1710  -31.6670 H   0  0  0  0  0  0  0  0  0  0  0  0
    1.0336   19.9475  -28.8274 H   0  0  0  0  0  0  0  0  0  0  0  0
   -0.3098   20.8614  -29.6172 H   0  0  0  0  0  0  0  0  0  0  0  0
   -1.3783   18.4017  -29.7775 H   0  0  0  0  0  0  0  0  0  0  0  0
   -0.3071   18.1347  -28.3457 H   0  0  0  0  0  0  0  0  0  0  0  0
   -1.6776   19.9782  -26.0198 H   0  0  0  0  0  0  0  0  0  0  0  0
   -3.0061   18.8631  -26.4870 H   0  0  0  0  0  0  0  0  0  0  0  0
   -1.3057   18.2840  -26.4870 H   0  0  0  0  0  0  0  0  0  0  0  0
   -1.3767   23.4744  -27.3710 H   0  0  0  0  0  0  0  0  0  0  0  0
   -0.5292   22.1540  -28.2574 H   0  0  0  0  0  0  0  0  0  0  0  0
   -1.0501   21.5905  -31.6559 H   0  0  0  0  0  0  0  0  0  0  0  0
   -0.8670   21.9883  -33.3994 H   0  0  0  0  0  0  0  0  0  0  0  0
   -4.7750   24.0850  -29.0280 H   0  0  0  0  0  0  0  0  0  0  0  0
   -4.0440   22.5040  -29.4630 H   0  0  0  0  0  0  0  0  0  0  0  0
   -8.1048   21.1000  -31.0051 H   0  0  0  0  0  0  0  0  0  0  0  0
   -8.5026   18.6694  -32.4457 H   0  0  0  0  0  0  0  0  0  0  0  0
   -7.3496   17.0327  -33.9703 H   0  0  0  0  0  0  0  0  0  0  0  0
   -3.6424   19.2971  -33.5942 H   0  0  0  0  0  0  0  0  0  0  0  0
  1  2  1  0
  2  3  1  0
  3  4  1  0
  4  5  1  0
  5  6  1  0
  5  7  1  0
  7  8  2  0
  7  9  1  0
  9 10  1  0
 10 11  1  0
 11 12  1  0
 12 13  2  0
 12 14  1  0
 12 15  1  0
  2 16  1  0
 16 17  2  0
 16 18  1  0
 18 19  1  0
 19 20  1  0
 20 21  1  0
 21 22  2  0
 21 23  1  0
 23 24  1  0
 24 25  1  0
 25 26  1  0
 25 27  2  0
 24 28  2  0
 28 29  1  0
 29 30  2  0
 30 31  1  0
 31 32  2  0
 32 33  1  0
 33 34  1  0
 33 35  1  0
 33 36  1  0
 32 37  1  0
 37 38  2  0
 38 23  1  0
 38 29  1  0
  1 39  1  0
  1 40  1  0
  1 41  1  0
  3 42  1  0
  3 43  1  0
  4 44  1  0
  4 45  1  0
  6 46  1  0
  6 47  1  0
  6 48  1  0
 10 49  1  0
 10 50  1  0
 19 51  1  0
 19 52  1  0
 26 53  1  0
 26 54  1  0
 28 55  1  0
 30 56  1  0
 31 57  1  0
 37 58  1  0
M  CHG  2  14  -1  15  -1
M  END
>  <UniqueID>  (12) 
12

>  <SMILES>  (12) 
CN(CCN(C)C(=O)OCOP(=O)([O-])[O-])C(=O)OCOC(=O)n1c(C(N)=O)cc2ccc(C(F)(F)F)cc21

>  <Energy>  (12) 
76.33795819485591

>  <Genealogy>  (12) 
CN(CCN(C)C(=O)OCOP(=O)([O-])[O-])C(=O)OCOC(=O)n1c(C(N)=O)cc2ccc(C(F)(F)F)cc21 (protonated)
CN(CCN(C)C(=O)OCOP(=O)([O-])[O-])C(=O)OCOC(=O)n1c(C(N)=O)cc2ccc(C(F)(F)F)cc21 (3D coordinates assigned)
CN(CCN(C)C(=O)OCOP(=O)([O-])[O-])C(=O)OCOC(=O)n1c(C(N)=O)cc2ccc(C(F)(F)F)cc21 (optimized conformer: 76.33795819485591 kcal/mol)

>  <smiles>  (12) 
CN(CCN(C)C(=O)OCOP(=O)(O)O)C(=O)OCOC(=O)n1c(C(N)=O)cc2ccc(C(F)(F)F)cc21

>  <score_type>  (12) 
oracle

>  <origin>  (12) 
adg

>  <m_score__min__energy>  (12) 
-12.07

>  <m_primary>  (12) 
energy

$$$$
12:0
     RDKit          3D

 39 40  0  0  0  0  0  0  0  0999 V2000
    0.5430   23.9600  -27.2250 C   0  0  0  0  0  0  0  0  0  0  0  0
   -0.7240   23.9780  -28.0890 C   0  0  2  0  0  0  0  0  0  0  0  0
   -0.3930   23.6910  -29.4990 N   0  0  0  0  0  0  0  0  0  0  0  0
   -1.2270   22.6370  -30.0180 C   0  0  0  0  0  0  0  0  0  0  0  0
   -0.7260   21.4990  -30.2340 O   0  0  0  0  0  0  0  0  0  0  0  0
   -2.6230   22.8780  -30.2570 N   0  0  0  0  0  0  0  0  0  0  0  0
   -3.5530   21.8700  -30.6820 C   0  0  0  0  0  0  0  0  0  0  0  0
   -3.1910   20.6660  -30.7880 O   0  0  0  0  0  0  0  0  0  0  0  0
   -4.9100   22.2300  -30.9850 N   0  0  0  0  0  0  0  0  0  0  0  0
   -5.5470   23.3990  -30.6970 C   0  0  0  0  0  0  0  0  0  0  0  0
   -4.9250   24.5990  -30.0990 C   0  0  0  0  0  0  0  0  0  0  0  0
   -3.8850   25.2810  -30.7930 N   0  0  0  0  0  0  0  0  0  0  0  0
   -5.2850   25.0150  -28.9650 O   0  0  0  0  0  0  0  0  0  0  0  0
   -6.8760   23.3440  -31.1130 C   0  0  0  0  0  0  0  0  0  0  0  0
   -7.0330   22.0940  -31.6680 C   0  0  0  0  0  0  0  0  0  0  0  0
   -8.1550   21.5020  -32.2400 C   0  0  0  0  0  0  0  0  0  0  0  0
   -8.0340   20.1860  -32.7180 C   0  0  0  0  0  0  0  0  0  0  0  0
   -6.8100   19.4780  -32.5930 C   0  0  0  0  0  0  0  0  0  0  0  0
   -6.6820   18.0800  -33.1430 C   0  0  0  0  0  0  0  0  0  0  0  0
   -7.8500   17.3840  -32.8910 F   0  0  0  0  0  0  0  0  0  0  0  0
   -6.4600   18.1100  -34.5090 F   0  0  0  0  0  0  0  0  0  0  0  0
   -5.6240   17.4150  -32.5470 F   0  0  0  0  0  0  0  0  0  0  0  0
   -5.6860   20.1240  -32.0260 C   0  0  0  0  0  0  0  0  0  0  0  0
   -5.8330   21.4420  -31.5760 C   0  0  0  0  0  0  0  0  0  0  0  0
   -1.4190   25.3110  -27.9470 C   0  0  0  0  0  0  0  0  0  0  0  0
   -1.5880   26.0550  -28.9500 O   0  0  0  0  0  0  0  0  0  0  0  0
   -1.8900   25.7190  -26.7060 O   0  0  0  0  0  0  0  0  0  0  0  0
    0.2617   23.9640  -26.1616 H   0  0  0  0  0  0  0  0  0  0  0  0
    1.1253   23.0535  -27.4469 H   0  0  0  0  0  0  0  0  0  0  0  0
    1.1508   24.8496  -27.4469 H   0  0  0  0  0  0  0  0  0  0  0  0
   -1.4102   23.1910  -27.7429 H   0  0  0  0  0  0  0  0  0  0  0  0
   -0.5000   24.5500  -30.0860 H   0  0  0  0  0  0  0  0  0  0  0  0
    0.6040   23.3790  -29.5680 H   0  0  0  0  0  0  0  0  0  0  0  0
   -2.9930   23.8390  -30.0870 H   0  0  0  0  0  0  0  0  0  0  0  0
   -2.9050   25.2790  -30.4310 H   0  0  0  0  0  0  0  0  0  0  0  0
   -7.6377   24.1320  -31.0181 H   0  0  0  0  0  0  0  0  0  0  0  0
   -9.1073   22.0473  -32.3157 H   0  0  0  0  0  0  0  0  0  0  0  0
   -8.8976   19.6990  -33.1944 H   0  0  0  0  0  0  0  0  0  0  0  0
   -4.7205   19.6038  -31.9408 H   0  0  0  0  0  0  0  0  0  0  0  0
  1  2  1  0
  2  3  1  0
  3  4  1  0
  4  5  2  0
  4  6  1  0
  6  7  1  0
  7  8  2  0
  7  9  1  0
  9 10  1  0
 10 11  1  0
 11 12  1  0
 11 13  2  0
 10 14  2  0
 14 15  1  0
 15 16  2  0
 16 17  1  0
 17 18  2  0
 18 19  1  0
 19 20  1  0
 19 21  1  0
 19 22  1  0
 18 23  1  0
 23 24  2  0
  2 25  1  0
 25 26  2  0
 25 27  1  0
 24  9  1  0
 24 15  1  0
  1 28  1  0
  1 29  1  0
  1 30  1  0
  2 31  1  1
  3 32  1  0
  3 33  1  0
  6 34  1  0
 12 35  1  0
 14 36  1  0
 16 37  1  0
 17 38  1  0
 23 39  1  0
M  CHG  3   3   1  12  -1  27  -1
M  END
>  <UniqueID>  (13) 
13

>  <SMILES>  (13) 
C[C@H]([NH2+]C(=O)NC(=O)n1c(C([NH-])=O)cc2ccc(C(F)(F)F)cc21)C(=O)[O-]

>  <Energy>  (13) 
77.19357527498424

>  <Genealogy>  (13) 
CC([NH2+]C(=O)NC(=O)n1c(C([NH-])=O)cc2ccc(C(F)(F)F)cc21)C(=O)[O-] (protonated)
C[C@H]([NH2+]C(=O)NC(=O)n1c(C([NH-])=O)cc2ccc(C(F)(F)F)cc21)C(=O)[O-] (chirality)
C[C@H]([NH2+]C(=O)NC(=O)n1c(C([NH-])=O)cc2ccc(C(F)(F)F)cc21)C(=O)[O-] (3D coordinates assigned)
C[C@H]([NH2+]C(=O)NC(=O)n1c(C([NH-])=O)cc2ccc(C(F)(F)F)cc21)C(=O)[O-] (optimized conformer: 77.19357527498424 kcal/mol)

>  <smiles>  (13) 
CC(NC(=O)NC(=O)n1c(C(N)=O)cc2ccc(C(F)(F)F)cc21)C(=O)O

>  <score_type>  (13) 
oracle

>  <origin>  (13) 
adg

>  <m_score__min__energy>  (13) 
-11.84

>  <m_primary>  (13) 
energy

$$$$
13:0
     RDKit          3D

 32 33  0  0  0  0  0  0  0  0999 V2000
   -3.5079   22.4492  -28.7682 H   0  0  0  0  0  0  0  0  0  0  0  0
   -3.3170   22.6960  -29.8230 C   0  0  0  0  0  0  0  0  0  0  0  0
   -4.1050   22.0120  -30.8640 C   0  0  0  0  0  0  0  0  0  0  0  0
   -3.5350   21.1630  -31.6000 O   0  0  0  0  0  0  0  0  0  0  0  0
   -5.5040   22.2850  -31.0550 N   0  0  0  0  0  0  0  0  0  0  0  0
   -6.1380   23.4830  -30.9180 C   0  0  0  0  0  0  0  0  0  0  0  0
   -5.5080   24.7270  -30.4170 C   0  0  0  0  0  0  0  0  0  0  0  0
   -4.6310   25.3120  -31.1070 O   0  0  0  0  0  0  0  0  0  0  0  0
   -5.8690   25.2740  -29.1470 N   0  0  0  0  0  0  0  0  0  0  0  0
   -5.3900   26.1310  -28.7930 H   0  0  0  0  0  0  0  0  0  0  0  0
   -6.6350   24.8630  -28.5710 H   0  0  0  0  0  0  0  0  0  0  0  0
   -7.4840   23.3600  -31.2660 C   0  0  0  0  0  0  0  0  0  0  0  0
   -8.2508   24.1485  -31.2510 H   0  0  0  0  0  0  0  0  0  0  0  0
   -7.6490   22.0430  -31.6320 C   0  0  0  0  0  0  0  0  0  0  0  0
   -8.7800   21.3730  -32.0870 C   0  0  0  0  0  0  0  0  0  0  0  0
   -9.7459   21.8908  -32.1810 H   0  0  0  0  0  0  0  0  0  0  0  0
   -8.6510   20.0140  -32.4230 C   0  0  0  0  0  0  0  0  0  0  0  0
   -9.5260   19.4580  -32.7909 H   0  0  0  0  0  0  0  0  0  0  0  0
   -7.4040   19.3540  -32.2920 C   0  0  0  0  0  0  0  0  0  0  0  0
   -7.2680   17.9170  -32.6970 C   0  0  0  0  0  0  0  0  0  0  0  0
   -7.2083   17.2866  -31.7975 H   0  0  0  0  0  0  0  0  0  0  0  0
   -8.1421   17.6204  -33.2953 H   0  0  0  0  0  0  0  0  0  0  0  0
   -6.3538   17.7896  -33.2953 H   0  0  0  0  0  0  0  0  0  0  0  0
   -6.2740   20.0710  -31.8430 C   0  0  0  0  0  0  0  0  0  0  0  0
   -5.2910   19.5836  -31.7640 H   0  0  0  0  0  0  0  0  0  0  0  0
   -6.4370   21.4180  -31.5010 C   0  0  0  0  0  0  0  0  0  0  0  0
   -2.3810   23.6030  -30.1100 C   0  0  0  0  0  0  0  0  0  0  0  0
   -2.1755   23.8616  -31.1592 H   0  0  0  0  0  0  0  0  0  0  0  0
   -1.4760   24.3860  -28.8280 S   0  0  0  0  0  0  0  0  0  0  0  0
   -2.0260   23.9540  -27.4990 O   0  0  0  0  0  0  0  0  0  0  0  0
   -0.0280   23.9910  -28.9170 O   0  0  0  0  0  0  0  0  0  0  0  0
   -1.6210   26.0530  -28.9690 O   0  0  0  0  0  0  0  0  0  0  0  0
  1  2  1  0
  2  3  1  0
  3  4  2  0
  3  5  1  0
  5  6  1  0
  6  7  1  0
  7  8  2  0
  7  9  1  0
  9 10  1  0
  9 11  1  0
  6 12  2  0
 12 13  1  0
 12 14  1  0
 14 15  2  0
 15 16  1  0
 15 17  1  0
 17 18  1  0
 17 19  2  0
 19 20  1  0
 20 21  1  0
 20 22  1  0
 20 23  1  0
 19 24  1  0
 24 25  1  0
 24 26  2  0
  2 27  2  0
 27 28  1  0
 27 29  1  0
 29 30  2  0
 29 31  2  0
 29 32  1  0
 26  5  1  0
 26 14  1  0
M  CHG  1  32  -1
M  END
>  <UniqueID>  (14) 
14

>  <SMILES>  (14) 
Cc1ccc2cc(C(N)=O)n(C(=O)/C=C/S(=O)(=O)[O-])c2c1

>  <Energy>  (14) 
69.9833263395094

>  <Genealogy>  (14) 
Cc1ccc2cc(C(N)=O)n(C(=O)/C=C/S(=O)(=O)[O-])c2c1 (protonated)
Cc1ccc2cc(C(N)=O)n(C(=O)/C=C/S(=O)(=O)[O-])c2c1 (cis-trans isomerization)
Cc1ccc2cc(C(N)=O)n(C(=O)/C=C/S(=O)(=O)[O-])c2c1 (3D coordinates assigned)
Cc1ccc2cc(C(N)=O)n(C(=O)/C=C/S(=O)(=O)[O-])c2c1 (optimized conformer: 69.9833263395094 kcal/mol)

>  <smiles>  (14) 
Cc1ccc2cc(C(N)=O)n(C(=O)/C=C/S(=O)(=O)O)c2c1

>  <score_type>  (14) 
oracle

>  <origin>  (14) 
adg

>  <m_score__min__energy>  (14) 
-11.73

>  <m_primary>  (14) 
energy

$$$$
14:0
     RDKit          3D

 45 47  0  0  0  0  0  0  0  0999 V2000
   -7.3140   23.4360  -32.0420 C   0  0  0  0  0  0  0  0  0  0  0  0
   -7.1920   23.2890  -30.7190 C   0  0  0  0  0  0  0  0  0  0  0  0
   -6.6180   24.3770  -29.8640 C   0  0  0  0  0  0  0  0  0  0  0  0
   -5.2760   24.0550  -29.5190 O   0  0  0  0  0  0  0  0  0  0  0  0
   -4.1880   24.3670  -30.3400 C   0  0  0  0  0  0  0  0  0  0  0  0
   -4.0840   25.5170  -30.8480 O   0  0  0  0  0  0  0  0  0  0  0  0
   -3.1740   23.3790  -30.5840 N   0  0  0  0  0  0  0  0  0  0  0  0
   -1.9100   23.3290  -30.0730 C   0  0  0  0  0  0  0  0  0  0  0  0
   -1.2620   24.3740  -29.2530 C   0  0  0  0  0  0  0  0  0  0  0  0
   -1.9570   25.5850  -28.9700 N   0  0  0  0  0  0  0  0  0  0  0  0
   -0.1130   24.1940  -28.7680 O   0  0  0  0  0  0  0  0  0  0  0  0
   -1.2560   22.1750  -30.5010 C   0  0  0  0  0  0  0  0  0  0  0  0
   -2.1610   21.5200  -31.3030 C   0  0  0  0  0  0  0  0  0  0  0  0
   -2.0440   20.3130  -31.9830 C   0  0  0  0  0  0  0  0  0  0  0  0
   -3.1510   19.8580  -32.7180 C   0  0  0  0  0  0  0  0  0  0  0  0
   -4.3580   20.6080  -32.7620 C   0  0  0  0  0  0  0  0  0  0  0  0
   -5.5280   20.1650  -33.4890 N   0  0  0  0  0  0  0  0  0  0  0  0
   -6.2450   18.8780  -33.3920 C   0  0  1  0  0  0  0  0  0  0  0  0
   -5.4960   17.8250  -32.6020 C   0  0  0  0  0  0  0  0  0  0  0  0
   -6.4980   17.3850  -31.5450 C   0  0  0  0  0  0  0  0  0  0  0  0
   -7.5190   18.3500  -31.4460 O   0  0  0  0  0  0  0  0  0  0  0  0
   -7.6210   18.9490  -32.7150 C   0  0  1  0  0  0  0  0  0  0  0  0
   -8.2240   20.3530  -32.6040 C   0  0  0  0  0  0  0  0  0  0  0  0
   -4.4340   21.8250  -32.0450 C   0  0  0  0  0  0  0  0  0  0  0  0
   -3.3100   22.2640  -31.3370 C   0  0  0  0  0  0  0  0  0  0  0  0
   -7.7386   22.6227  -32.6489 H   0  0  0  0  0  0  0  0  0  0  0  0
   -6.9898   24.3702  -32.5238 H   0  0  0  0  0  0  0  0  0  0  0  0
   -7.5197   22.3502  -30.2486 H   0  0  0  0  0  0  0  0  0  0  0  0
   -6.6355   25.3265  -30.4191 H   0  0  0  0  0  0  0  0  0  0  0  0
   -7.2174   24.4755  -28.9469 H   0  0  0  0  0  0  0  0  0  0  0  0
   -2.9640   25.6990  -29.2230 H   0  0  0  0  0  0  0  0  0  0  0  0
   -0.2335   21.8560  -30.2506 H   0  0  0  0  0  0  0  0  0  0  0  0
   -1.1112   19.7311  -31.9464 H   0  0  0  0  0  0  0  0  0  0  0  0
   -3.0831   18.9076  -33.2676 H   0  0  0  0  0  0  0  0  0  0  0  0
   -5.8570   20.7890  -34.2610 H   0  0  0  0  0  0  0  0  0  0  0  0
   -6.3444   18.6140  -34.4552 H   0  0  0  0  0  0  0  0  0  0  0  0
   -5.2100   16.9808  -33.2467 H   0  0  0  0  0  0  0  0  0  0  0  0
   -4.5588   18.2042  -32.1687 H   0  0  0  0  0  0  0  0  0  0  0  0
   -6.9336   16.4163  -31.8313 H   0  0  0  0  0  0  0  0  0  0  0  0
   -5.9907   17.2821  -30.5744 H   0  0  0  0  0  0  0  0  0  0  0  0
   -8.3228   18.4068  -33.3658 H   0  0  0  0  0  0  0  0  0  0  0  0
   -8.3387   20.6200  -31.5431 H   0  0  0  0  0  0  0  0  0  0  0  0
   -7.5579   21.0780  -33.0946 H   0  0  0  0  0  0  0  0  0  0  0  0
   -9.2084   20.3691  -33.0946 H   0  0  0  0  0  0  0  0  0  0  0  0
   -5.3615   22.4164  -32.0441 H   0  0  0  0  0  0  0  0  0  0  0  0
  1  2  2  0
  2  3  1  0
  3  4  1  0
  4  5  1  0
  5  6  2  0
  5  7  1  0
  7  8  1  0
  8  9  1  0
  9 10  1  0
  9 11  2  0
  8 12  2  0
 12 13  1  0
 13 14  2  0
 14 15  1  0
 15 16  2  0
 16 17  1  0
 17 18  1  0
 18 19  1  0
 19 20  1  0
 20 21  1  0
 21 22  1  0
 22 23  1  0
 16 24  1  0
 24 25  2  0
 25  7  1  0
 25 13  1  0
 22 18  1  0
  1 26  1  0
  1 27  1  0
  2 28  1  0
  3 29  1  0
  3 30  1  0
 10 31  1  0
 12 32  1  0
 14 33  1  0
 15 34  1  0
 17 35  1  0
 18 36  1  6
 19 37  1  0
 19 38  1  0
 20 39  1  0
 20 40  1  0
 22 41  1  6
 23 42  1  0
 23 43  1  0
 23 44  1  0
 24 45  1  0
M  CHG  1  10  -1
M  END
>  <UniqueID>  (15) 
15

>  <SMILES>  (15) 
C=CCOC(=O)n1c(C([NH-])=O)cc2ccc(N[C@H]3CCO[C@H]3C)cc21

>  <Energy>  (15) 
85.80330176063887

>  <Genealogy>  (15) 
C=CCOC(=O)n1c(C([NH-])=O)cc2ccc(NC3CCOC3C)cc21 (protonated)
C=CCOC(=O)n1c(C([NH-])=O)cc2ccc(N[C@H]3CCO[C@H]3C)cc21 (chirality)
C=CCOC(=O)n1c(C([NH-])=O)cc2ccc(N[C@H]3CCO[C@H]3C)cc21 (3D coordinates assigned)
C=CCOC(=O)n1c(C([NH-])=O)cc2ccc(N[C@H]3CCO[C@H]3C)cc21 (nonaromatic ring conformer: 85.80330176063887 kcal/mol)

>  <smiles>  (15) 
C=CCOC(=O)n1c(C(N)=O)cc2ccc(NC3CCOC3C)cc21

>  <score_type>  (15) 
oracle

>  <origin>  (15) 
adg

>  <m_score__min__energy>  (15) 
-11.02

>  <m_primary>  (15) 
energy

$$$$
15:0
     RDKit          3D

 38 40  0  0  0  0  0  0  0  0999 V2000
   -0.9050   26.7500  -27.1250 C   0  0  0  0  0  0  0  0  0  0  0  0
   -1.5560   25.7060  -27.9070 N   0  0  0  0  0  0  0  0  0  0  0  0
   -0.8270   24.5820  -28.4180 C   0  0  0  0  0  0  0  0  0  0  0  0
    0.4120   24.4810  -28.2010 O   0  0  0  0  0  0  0  0  0  0  0  0
   -1.5130   23.5440  -29.2010 C   0  0  0  0  0  0  0  0  0  0  0  0
   -1.2650   22.1830  -29.1460 C   0  0  0  0  0  0  0  0  0  0  0  0
   -2.1420   21.6350  -30.0590 C   0  0  0  0  0  0  0  0  0  0  0  0
   -2.8570   22.6330  -30.6150 N   0  0  0  0  0  0  0  0  0  0  0  0
   -3.8830   22.4900  -31.6060 C   0  0  0  0  0  0  0  0  0  0  0  0
   -3.5740   22.2620  -32.8060 O   0  0  0  0  0  0  0  0  0  0  0  0
   -5.2670   22.6100  -31.2390 N   0  0  0  0  0  0  0  0  0  0  0  0
   -5.8520   23.5980  -30.5060 C   0  0  0  0  0  0  0  0  0  0  0  0
   -5.1800   24.8180  -30.0100 C   0  0  0  0  0  0  0  0  0  0  0  0
   -4.2550   25.5090  -30.8490 N   0  0  0  0  0  0  0  0  0  0  0  0
   -5.3980   25.2470  -28.8470 O   0  0  0  0  0  0  0  0  0  0  0  0
   -7.2090   23.3330  -30.3280 C   0  0  0  0  0  0  0  0  0  0  0  0
   -7.4370   22.1410  -30.9790 C   0  0  0  0  0  0  0  0  0  0  0  0
   -8.6070   21.3990  -31.1100 C   0  0  0  0  0  0  0  0  0  0  0  0
   -8.5420   20.1850  -31.8150 C   0  0  0  0  0  0  0  0  0  0  0  0
   -7.3180   19.7410  -32.3770 C   0  0  0  0  0  0  0  0  0  0  0  0
   -7.2510   18.4230  -33.0860 C   0  0  0  0  0  0  0  0  0  0  0  0
   -6.1470   20.5110  -32.2070 C   0  0  0  0  0  0  0  0  0  0  0  0
   -6.2470   21.7250  -31.5180 C   0  0  0  0  0  0  0  0  0  0  0  0
   -2.4870   23.7940  -30.0980 N   0  0  0  0  0  0  0  0  0  0  0  0
   -1.0356   26.5405  -26.0531 H   0  0  0  0  0  0  0  0  0  0  0  0
    0.1680   26.7734  -27.3659 H   0  0  0  0  0  0  0  0  0  0  0  0
   -1.3562   27.7238  -27.3659 H   0  0  0  0  0  0  0  0  0  0  0  0
   -2.5800   25.7910  -28.0990 H   0  0  0  0  0  0  0  0  0  0  0  0
   -0.5330   21.6568  -28.5158 H   0  0  0  0  0  0  0  0  0  0  0  0
   -2.2410   20.5648  -30.2935 H   0  0  0  0  0  0  0  0  0  0  0  0
   -3.2320   25.3030  -30.8020 H   0  0  0  0  0  0  0  0  0  0  0  0
   -7.9421   23.9459  -29.7832 H   0  0  0  0  0  0  0  0  0  0  0  0
   -9.5537   21.7519  -30.6750 H   0  0  0  0  0  0  0  0  0  0  0  0
   -9.4489   19.5735  -31.9320 H   0  0  0  0  0  0  0  0  0  0  0  0
   -7.2097   17.6102  -32.3459 H   0  0  0  0  0  0  0  0  0  0  0  0
   -8.1440   18.2999  -33.7163 H   0  0  0  0  0  0  0  0  0  0  0  0
   -6.3501   18.3911  -33.7163 H   0  0  0  0  0  0  0  0  0  0  0  0
   -5.1816   20.1659  -32.6055 H   0  0  0  0  0  0  0  0  0  0  0  0
  1  2  1  0
  2  3  1  0
  3  4  2  0
  3  5  1  0
  5  6  1  0
  6  7  2  0
  7  8  1  0
  8  9  1  0
  9 10  2  0
  9 11  1  0
 11 12  1  0
 12 13  1  0
 13 14  1  0
 13 15  2  0
 12 16  2  0
 16 17  1  0
 17 18  2  0
 18 19  1  0
 19 20  2  0
 20 21  1  0
 20 22  1  0
 22 23  2  0
  8 24  1  0
 24  5  2  0
 23 11  1  0
 23 17  1  0
  1 25  1  0
  1 26  1  0
  1 27  1  0
  2 28  1  0
  6 29  1  0
  7 30  1  0
 14 31  1  0
 16 32  1  0
 18 33  1  0
 19 34  1  0
 21 35  1  0
 21 36  1  0
 21 37  1  0
 22 38  1  0
M  CHG  1  14  -1
M  END
>  <UniqueID>  (16) 
16

>  <SMILES>  (16) 
CNC(=O)c1ccn(C(=O)n2c(C([NH-])=O)cc3ccc(C)cc32)n1

>  <Energy>  (16) 
103.82895680783652

>  <Genealogy>  (16) 
CNC(=O)c1ccn(C(=O)n2c(C([NH-])=O)cc3ccc(C)cc32)n1 (protonated)
CNC(=O)c1ccn(C(=O)n2c(C([NH-])=O)cc3ccc(C)cc32)n1 (3D coordinates assigned)
CNC(=O)c1ccn(C(=O)n2c(C([NH-])=O)cc3ccc(C)cc32)n1 (optimized conformer: 103.82895680783652 kcal/mol)

>  <smiles>  (16) 
CNC(=O)c1ccn(C(=O)n2c(C(N)=O)cc3ccc(C)cc32)n1

>  <score_type>  (16) 
oracle

>  <origin>  (16) 
adg

>  <m_score__min__energy>  (16) 
-11

>  <m_primary>  (16) 
energy

$$$$
16:0
     RDKit          3D

 39 40  0  0  0  0  0  0  0  0999 V2000
   -3.9160   25.6440  -30.8590 N   0  0  0  0  0  0  0  0  0  0  0  0
   -5.2290   25.2750  -30.4440 C   0  0  0  0  0  0  0  0  0  0  0  0
   -5.8870   26.0560  -29.7070 O   0  0  0  0  0  0  0  0  0  0  0  0
   -5.8140   23.9970  -30.9030 C   0  0  0  0  0  0  0  0  0  0  0  0
   -7.1680   23.8190  -31.1750 C   0  0  0  0  0  0  0  0  0  0  0  0
   -7.3010   22.4920  -31.5180 C   0  0  0  0  0  0  0  0  0  0  0  0
   -8.4260   21.7790  -31.9160 C   0  0  0  0  0  0  0  0  0  0  0  0
   -8.2620   20.4260  -32.2590 C   0  0  0  0  0  0  0  0  0  0  0  0
   -6.9860   19.8090  -32.1900 C   0  0  0  0  0  0  0  0  0  0  0  0
   -6.8050   18.3760  -32.6210 C   0  0  0  0  0  0  0  0  0  0  0  0
   -6.4800   18.3110  -33.9640 F   0  0  0  0  0  0  0  0  0  0  0  0
   -5.7910   17.7700  -31.9000 F   0  0  0  0  0  0  0  0  0  0  0  0
   -7.9840   17.6850  -32.4080 F   0  0  0  0  0  0  0  0  0  0  0  0
   -5.8620   20.5770  -31.8060 C   0  0  0  0  0  0  0  0  0  0  0  0
   -6.0590   21.9160  -31.4490 C   0  0  0  0  0  0  0  0  0  0  0  0
   -5.1350   22.8270  -31.0740 N   0  0  0  0  0  0  0  0  0  0  0  0
   -3.7200   22.6090  -30.9680 C   0  0  0  0  0  0  0  0  0  0  0  0
   -3.1570   21.7740  -31.7260 O   0  0  0  0  0  0  0  0  0  0  0  0
   -2.9520   23.3280  -29.9950 N   0  0  0  0  0  0  0  0  0  0  0  0
   -1.5300   23.0620  -29.7960 C   0  0  0  0  0  0  0  0  0  0  0  0
   -0.8640   24.2250  -29.1120 C   0  0  0  0  0  0  0  0  0  0  0  0
   -1.4990   25.3060  -29.0070 O   0  0  0  0  0  0  0  0  0  0  0  0
    0.4800   24.1630  -28.6110 N   0  0  0  0  0  0  0  0  0  0  0  0
    0.8870   24.0030  -27.2180 C   0  0  0  0  0  0  0  0  0  0  0  0
    0.9770   25.3550  -26.5130 C   0  0  0  0  0  0  0  0  0  0  0  0
    0.6940   26.3760  -27.4300 O   0  0  0  0  0  0  0  0  0  0  0  0
   -3.0750   25.3010  -30.3420 H   0  0  0  0  0  0  0  0  0  0  0  0
   -7.9630   24.5777  -31.1262 H   0  0  0  0  0  0  0  0  0  0  0  0
   -9.4146   22.2592  -31.9611 H   0  0  0  0  0  0  0  0  0  0  0  0
   -9.1330   19.8384  -32.5848 H   0  0  0  0  0  0  0  0  0  0  0  0
   -4.8561   20.1322  -31.7883 H   0  0  0  0  0  0  0  0  0  0  0  0
   -3.4270   24.0800  -29.4440 H   0  0  0  0  0  0  0  0  0  0  0  0
   -1.4142   22.1622  -29.1739 H   0  0  0  0  0  0  0  0  0  0  0  0
   -1.0571   22.9098  -30.7774 H   0  0  0  0  0  0  0  0  0  0  0  0
    0.1488   23.3750  -26.6978 H   0  0  0  0  0  0  0  0  0  0  0  0
    1.8802   23.5306  -27.1961 H   0  0  0  0  0  0  0  0  0  0  0  0
    0.2488   25.3889  -25.6893 H   0  0  0  0  0  0  0  0  0  0  0  0
    1.9910   25.4931  -26.1096 H   0  0  0  0  0  0  0  0  0  0  0  0
    0.4430   25.9230  -28.2770 H   0  0  0  0  0  0  0  0  0  0  0  0
  1  2  1  0
  2  3  2  0
  2  4  1  0
  4  5  2  0
  5  6  1  0
  6  7  2  0
  7  8  1  0
  8  9  2  0
  9 10  1  0
 10 11  1  0
 10 12  1  0
 10 13  1  0
  9 14  1  0
 14 15  2  0
 15 16  1  0
 16 17  1  0
 17 18  2  0
 17 19  1  0
 19 20  1  0
 20 21  1  0
 21 22  2  0
 21 23  1  0
 23 24  1  0
 24 25  1  0
 25 26  1  0
 16  4  1  0
 15  6  1  0
  1 27  1  0
  5 28  1  0
  7 29  1  0
  8 30  1  0
 14 31  1  0
 19 32  1  0
 20 33  1  0
 20 34  1  0
 24 35  1  0
 24 36  1  0
 25 37  1  0
 25 38  1  0
 26 39  1  0
M  CHG  2   1  -1  23  -1
M  END
>  <UniqueID>  (17) 
17

>  <SMILES>  (17) 
[NH-]C(=O)c1cc2ccc(C(F)(F)F)cc2n1C(=O)NCC(=O)[N-]CCO

>  <Energy>  (17) 
71.91276761573707

>  <Genealogy>  (17) 
[NH-]C(=O)c1cc2ccc(C(F)(F)F)cc2n1C(=O)NCC(=O)[N-]CCO (protonated)
[NH-]C(=O)c1cc2ccc(C(F)(F)F)cc2n1C(=O)NCC(=O)[N-]CCO (3D coordinates assigned)
[NH-]C(=O)c1cc2ccc(C(F)(F)F)cc2n1C(=O)NCC(=O)[N-]CCO (optimized conformer: 71.91276761573707 kcal/mol)

>  <smiles>  (17) 
NC(=O)c1cc2ccc(C(F)(F)F)cc2n1C(=O)NCC(=O)NCCO

>  <score_type>  (17) 
oracle

>  <origin>  (17) 
adg

>  <m_score__min__energy>  (17) 
-10.94

>  <m_primary>  (17) 
energy

$$$$
17:0
     RDKit          3D

 41 42  0  0  0  0  0  0  0  0999 V2000
   -1.6290   26.1270  -25.4750 C   0  0  0  0  0  0  0  0  0  0  0  0
   -2.9450   25.6300  -25.5980 O   0  0  0  0  0  0  0  0  0  0  0  0
   -3.0610   24.8030  -26.7430 C   0  0  0  0  0  0  0  0  0  0  0  0
   -1.9860   23.7210  -26.7190 C   0  0  0  0  0  0  0  0  0  0  0  0
   -1.0120   23.9870  -27.7220 O   0  0  0  0  0  0  0  0  0  0  0  0
   -1.3430   24.4830  -28.9860 C   0  0  0  0  0  0  0  0  0  0  0  0
   -1.2390   25.7110  -29.2410 O   0  0  0  0  0  0  0  0  0  0  0  0
   -1.7990   23.5920  -30.0040 N   0  0  0  0  0  0  0  0  0  0  0  0
   -2.9790   22.7590  -29.8310 C   0  0  0  0  0  0  0  0  0  0  0  0
   -3.6930   22.6390  -31.1420 C   0  0  0  0  0  0  0  0  0  0  0  0
   -3.0660   22.2170  -32.1510 O   0  0  0  0  0  0  0  0  0  0  0  0
   -5.1080   22.8660  -31.2250 N   0  0  0  0  0  0  0  0  0  0  0  0
   -5.8000   23.9880  -30.8790 C   0  0  0  0  0  0  0  0  0  0  0  0
   -5.2040   25.2730  -30.4590 C   0  0  0  0  0  0  0  0  0  0  0  0
   -3.8850   25.6160  -30.8790 N   0  0  0  0  0  0  0  0  0  0  0  0
   -5.8370   26.0590  -29.7040 O   0  0  0  0  0  0  0  0  0  0  0  0
   -7.1700   23.7860  -31.0510 C   0  0  0  0  0  0  0  0  0  0  0  0
   -7.2930   22.5010  -31.5310 C   0  0  0  0  0  0  0  0  0  0  0  0
   -8.4270   21.7730  -31.8740 C   0  0  0  0  0  0  0  0  0  0  0  0
   -8.2540   20.4570  -32.3380 C   0  0  0  0  0  0  0  0  0  0  0  0
   -6.9550   19.8980  -32.4610 C   0  0  0  0  0  0  0  0  0  0  0  0
   -6.7810   18.4680  -32.9050 C   0  0  0  0  0  0  0  0  0  0  0  0
   -5.7730   17.8500  -32.1850 F   0  0  0  0  0  0  0  0  0  0  0  0
   -7.9490   17.7520  -32.7160 F   0  0  0  0  0  0  0  0  0  0  0  0
   -6.4520   18.4450  -34.2470 F   0  0  0  0  0  0  0  0  0  0  0  0
   -5.8280   20.6600  -32.0740 C   0  0  0  0  0  0  0  0  0  0  0  0
   -6.0320   21.9700  -31.6300 C   0  0  0  0  0  0  0  0  0  0  0  0
   -1.3718   26.2241  -24.4099 H   0  0  0  0  0  0  0  0  0  0  0  0
   -0.9277   25.4318  -25.9596 H   0  0  0  0  0  0  0  0  0  0  0  0
   -1.5623   27.1122  -25.9596 H   0  0  0  0  0  0  0  0  0  0  0  0
   -4.0538   24.3294  -26.7507 H   0  0  0  0  0  0  0  0  0  0  0  0
   -2.9328   25.4180  -27.6459 H   0  0  0  0  0  0  0  0  0  0  0  0
   -1.5004   23.7105  -25.7320 H   0  0  0  0  0  0  0  0  0  0  0  0
   -2.4505   22.7431  -26.9139 H   0  0  0  0  0  0  0  0  0  0  0  0
   -2.6765   21.7600  -29.4839 H   0  0  0  0  0  0  0  0  0  0  0  0
   -3.6477   23.2152  -29.0862 H   0  0  0  0  0  0  0  0  0  0  0  0
   -3.0500   25.3000  -30.3370 H   0  0  0  0  0  0  0  0  0  0  0  0
   -7.9801   24.5015  -30.8465 H   0  0  0  0  0  0  0  0  0  0  0  0
   -9.4308   22.2140  -31.7849 H   0  0  0  0  0  0  0  0  0  0  0  0
   -9.1339   19.8548  -32.6083 H   0  0  0  0  0  0  0  0  0  0  0  0
   -4.8156   20.2324  -32.1212 H   0  0  0  0  0  0  0  0  0  0  0  0
  1  2  1  0
  2  3  1  0
  3  4  1  0
  4  5  1  0
  5  6  1  0
  6  7  2  0
  6  8  1  0
  8  9  1  0
  9 10  1  0
 10 11  2  0
 10 12  1  0
 12 13  1  0
 13 14  1  0
 14 15  1  0
 14 16  2  0
 13 17  2  0
 17 18  1  0
 18 19  2  0
 19 20  1  0
 20 21  2  0
 21 22  1  0
 22 23  1  0
 22 24  1  0
 22 25  1  0
 21 26  1  0
 26 27  2  0
 27 12  1  0
 27 18  1  0
  1 28  1  0
  1 29  1  0
  1 30  1  0
  3 31  1  0
  3 32  1  0
  4 33  1  0
  4 34  1  0
  9 35  1  0
  9 36  1  0
 15 37  1  0
 17 38  1  0
 19 39  1  0
 20 40  1  0
 26 41  1  0
M  CHG  2   8  -1  15  -1
M  END
>  <UniqueID>  (18) 
18

>  <SMILES>  (18) 
COCCOC(=O)[N-]CC(=O)n1c(C([NH-])=O)cc2ccc(C(F)(F)F)cc21

>  <Energy>  (18) 
75.29199782945365

>  <Genealogy>  (18) 
COCCOC(=O)[N-]CC(=O)n1c(C([NH-])=O)cc2ccc(C(F)(F)F)cc21 (protonated)
COCCOC(=O)[N-]CC(=O)n1c(C([NH-])=O)cc2ccc(C(F)(F)F)cc21 (3D coordinates assigned)
COCCOC(=O)[N-]CC(=O)n1c(C([NH-])=O)cc2ccc(C(F)(F)F)cc21 (optimized conformer: 75.29199782945365 kcal/mol)

>  <smiles>  (18) 
COCCOC(=O)NCC(=O)n1c(C(N)=O)cc2ccc(C(F)(F)F)cc21

>  <score_type>  (18) 
oracle

>  <origin>  (18) 
adg

>  <m_score__min__energy>  (18) 
-10.6

>  <m_primary>  (18) 
energy

$$$$
18:0
     RDKit          3D

 37 38  0  0  0  0  0  0  0  0999 V2000
   -7.7870   18.2850  -32.7500 C   0  0  0  0  0  0  0  0  0  0  0  0
   -7.8180   19.6930  -32.2340 C   0  0  0  0  0  0  0  0  0  0  0  0
   -9.0190   20.2310  -31.7100 C   0  0  0  0  0  0  0  0  0  0  0  0
   -9.0500   21.5330  -31.1810 C   0  0  0  0  0  0  0  0  0  0  0  0
   -7.8660   22.2660  -31.1870 C   0  0  0  0  0  0  0  0  0  0  0  0
   -7.6040   23.5300  -30.7090 C   0  0  0  0  0  0  0  0  0  0  0  0
   -6.2470   23.7440  -30.9520 C   0  0  0  0  0  0  0  0  0  0  0  0
   -5.5450   25.0050  -30.6330 C   0  0  0  0  0  0  0  0  0  0  0  0
   -4.2250   25.2530  -31.1100 N   0  0  0  0  0  0  0  0  0  0  0  0
   -6.1300   25.8890  -29.9520 O   0  0  0  0  0  0  0  0  0  0  0  0
   -5.6970   22.6540  -31.5580 N   0  0  0  0  0  0  0  0  0  0  0  0
   -4.3190   22.4460  -31.9040 C   0  0  0  0  0  0  0  0  0  0  0  0
   -3.9840   22.4090  -33.1190 O   0  0  0  0  0  0  0  0  0  0  0  0
   -3.2990   22.2710  -30.8530 C   0  0  0  0  0  0  0  0  0  0  0  0
   -2.9680   21.1050  -30.5030 O   0  0  0  0  0  0  0  0  0  0  0  0
   -2.6760   23.4100  -30.2400 N   0  0  0  0  0  0  0  0  0  0  0  0
   -1.6110   23.2760  -29.2410 C   0  0  1  0  0  0  0  0  0  0  0  0
   -0.5450   22.2910  -29.7440 C   0  0  0  0  0  0  0  0  0  0  0  0
   -0.6980   21.0390  -29.1310 O   0  0  0  0  0  0  0  0  0  0  0  0
   -1.0120   24.6230  -28.9450 C   0  0  0  0  0  0  0  0  0  0  0  0
   -1.5920   25.6790  -29.3170 O   0  0  0  0  0  0  0  0  0  0  0  0
    0.1890   24.7110  -28.2520 O   0  0  0  0  0  0  0  0  0  0  0  0
   -6.6980   21.7590  -31.6910 C   0  0  0  0  0  0  0  0  0  0  0  0
   -6.6330   20.4600  -32.2070 C   0  0  0  0  0  0  0  0  0  0  0  0
   -7.7716   17.5841  -31.9024 H   0  0  0  0  0  0  0  0  0  0  0  0
   -8.6813   18.0994  -33.3630 H   0  0  0  0  0  0  0  0  0  0  0  0
   -6.8854   18.1389  -33.3630 H   0  0  0  0  0  0  0  0  0  0  0  0
   -9.9364   19.6240  -31.7171 H   0  0  0  0  0  0  0  0  0  0  0  0
   -9.9795   21.9591  -30.7754 H   0  0  0  0  0  0  0  0  0  0  0  0
   -8.3141   24.2242  -30.2358 H   0  0  0  0  0  0  0  0  0  0  0  0
   -3.4860   25.6300  -30.4750 H   0  0  0  0  0  0  0  0  0  0  0  0
   -2.9200   24.3650  -30.5910 H   0  0  0  0  0  0  0  0  0  0  0  0
   -2.0324   22.8777  -28.3063 H   0  0  0  0  0  0  0  0  0  0  0  0
   -0.6463   22.1745  -30.8331 H   0  0  0  0  0  0  0  0  0  0  0  0
    0.4497   22.6882  -29.4934 H   0  0  0  0  0  0  0  0  0  0  0  0
   -1.6220   20.7320  -29.3290 H   0  0  0  0  0  0  0  0  0  0  0  0
   -5.6844   20.0476  -32.5814 H   0  0  0  0  0  0  0  0  0  0  0  0
  1  2  1  0
  2  3  2  0
  3  4  1  0
  4  5  2  0
  5  6  1  0
  6  7  2  0
  7  8  1  0
  8  9  1  0
  8 10  2  0
  7 11  1  0
 11 12  1  0
 12 13  2  0
 12 14  1  0
 14 15  2  0
 14 16  1  0
 16 17  1  0
 17 18  1  0
 18 19  1  0
 17 20  1  0
 20 21  2  0
 20 22  1  0
 11 23  1  0
 23 24  2  0
 24  2  1  0
 23  5  1  0
  1 25  1  0
  1 26  1  0
  1 27  1  0
  3 28  1  0
  4 29  1  0
  6 30  1  0
  9 31  1  0
 16 32  1  0
 17 33  1  1
 18 34  1  0
 18 35  1  0
 19 36  1  0
 24 37  1  0
M  CHG  2   9  -1  22  -1
M  END
>  <UniqueID>  (19) 
19

>  <SMILES>  (19) 
Cc1ccc2cc(C([NH-])=O)n(C(=O)C(=O)N[C@@H](CO)C(=O)[O-])c2c1

>  <Energy>  (19) 
73.05353804639054

>  <Genealogy>  (19) 
Cc1ccc2cc(C([NH-])=O)n(C(=O)C(=O)NC(CO)C(=O)[O-])c2c1 (protonated)
Cc1ccc2cc(C([NH-])=O)n(C(=O)C(=O)N[C@@H](CO)C(=O)[O-])c2c1 (chirality)
Cc1ccc2cc(C([NH-])=O)n(C(=O)C(=O)N[C@@H](CO)C(=O)[O-])c2c1 (3D coordinates assigned)
Cc1ccc2cc(C([NH-])=O)n(C(=O)C(=O)N[C@@H](CO)C(=O)[O-])c2c1 (optimized conformer: 73.05353804639054 kcal/mol)

>  <smiles>  (19) 
Cc1ccc2cc(C(N)=O)n(C(=O)C(=O)NC(CO)C(=O)O)c2c1

>  <score_type>  (19) 
oracle

>  <origin>  (19) 
adg

>  <m_score__min__energy>  (19) 
-11.98

>  <m_primary>  (19) 
energy

$$$$
19:0
     RDKit          3D

 44 45  0  0  0  0  0  0  0  0999 V2000
   -6.5030   18.3340  -33.4790 C   0  0  0  0  0  0  0  0  0  0  0  0
   -6.7140   19.7040  -32.9110 C   0  0  0  0  0  0  0  0  0  0  0  0
   -8.0280   20.2000  -32.7280 C   0  0  0  0  0  0  0  0  0  0  0  0
   -8.2420   21.4640  -32.1520 C   0  0  0  0  0  0  0  0  0  0  0  0
   -7.1260   22.2000  -31.7630 C   0  0  0  0  0  0  0  0  0  0  0  0
   -7.0490   23.4330  -31.1540 C   0  0  0  0  0  0  0  0  0  0  0  0
   -5.6890   23.6720  -30.9770 C   0  0  0  0  0  0  0  0  0  0  0  0
   -5.1510   24.9320  -30.4230 C   0  0  0  0  0  0  0  0  0  0  0  0
   -3.8700   25.4000  -30.8410 N   0  0  0  0  0  0  0  0  0  0  0  0
   -5.7910   25.5840  -29.5570 O   0  0  0  0  0  0  0  0  0  0  0  0
   -4.9520   22.6260  -31.4500 N   0  0  0  0  0  0  0  0  0  0  0  0
   -3.5260   22.4550  -31.3990 C   0  0  0  0  0  0  0  0  0  0  0  0
   -2.9300   21.8350  -32.3220 O   0  0  0  0  0  0  0  0  0  0  0  0
   -2.8010   23.0110  -30.3420 O   0  0  0  0  0  0  0  0  0  0  0  0
   -1.4310   22.7060  -30.1000 C   0  0  0  0  0  0  0  0  0  0  0  0
   -1.1110   23.0050  -28.7470 O   0  0  0  0  0  0  0  0  0  0  0  0
   -0.8100   24.2980  -28.3040 C   0  0  0  0  0  0  0  0  0  0  0  0
    0.3880   24.6790  -28.2090 O   0  0  0  0  0  0  0  0  0  0  0  0
   -1.9210   25.2220  -27.8750 C   0  0  1  0  0  0  0  0  0  0  0  0
   -3.2180   24.7290  -28.3640 N   0  0  0  0  0  0  0  0  0  0  0  0
   -1.8960   25.3860  -26.3350 C   0  0  1  0  0  0  0  0  0  0  0  0
   -1.1910   26.6770  -25.9020 C   0  0  0  0  0  0  0  0  0  0  0  0
   -3.2050   25.3610  -25.8210 O   0  0  0  0  0  0  0  0  0  0  0  0
   -5.8480   21.7350  -31.9310 C   0  0  0  0  0  0  0  0  0  0  0  0
   -5.6070   20.4720  -32.4900 C   0  0  0  0  0  0  0  0  0  0  0  0
   -6.3915   17.6100  -32.6584 H   0  0  0  0  0  0  0  0  0  0  0  0
   -7.3690   18.0563  -34.0979 H   0  0  0  0  0  0  0  0  0  0  0  0
   -5.5936   18.3297  -34.0979 H   0  0  0  0  0  0  0  0  0  0  0  0
   -8.8889   19.5903  -33.0396 H   0  0  0  0  0  0  0  0  0  0  0  0
   -9.2590   21.8593  -32.0129 H   0  0  0  0  0  0  0  0  0  0  0  0
   -7.8843   24.0892  -30.8683 H   0  0  0  0  0  0  0  0  0  0  0  0
   -3.0120   25.1790  -30.2900 H   0  0  0  0  0  0  0  0  0  0  0  0
   -1.2539   21.6373  -30.2912 H   0  0  0  0  0  0  0  0  0  0  0  0
   -0.7976   23.3078  -30.7684 H   0  0  0  0  0  0  0  0  0  0  0  0
   -1.7694   26.2163  -28.3204 H   0  0  0  0  0  0  0  0  0  0  0  0
   -3.0740   24.0970  -29.1840 H   0  0  0  0  0  0  0  0  0  0  0  0
   -3.8430   25.5200  -28.6420 H   0  0  0  0  0  0  0  0  0  0  0  0
   -3.6870   24.1690  -27.6160 H   0  0  0  0  0  0  0  0  0  0  0  0
   -1.3227   24.5404  -25.9272 H   0  0  0  0  0  0  0  0  0  0  0  0
   -1.1628   26.7287  -24.8036 H   0  0  0  0  0  0  0  0  0  0  0  0
   -0.1640   26.6838  -26.2959 H   0  0  0  0  0  0  0  0  0  0  0  0
   -1.7405   27.5447  -26.2959 H   0  0  0  0  0  0  0  0  0  0  0  0
   -3.7300   26.0230  -26.3420 H   0  0  0  0  0  0  0  0  0  0  0  0
   -4.5814   20.0893  -32.5978 H   0  0  0  0  0  0  0  0  0  0  0  0
  1  2  1  0
  2  3  2  0
  3  4  1  0
  4  5  2  0
  5  6  1  0
  6  7  2  0
  7  8  1  0
  8  9  1  0
  8 10  2  0
  7 11  1  0
 11 12  1  0
 12 13  2  0
 12 14  1  0
 14 15  1  0
 15 16  1  0
 16 17  1  0
 17 18  2  0
 17 19  1  0
 19 20  1  0
 19 21  1  0
 21 22  1  0
 21 23  1  0
 11 24  1  0
 24 25  2  0
 25  2  1  0
 24  5  1  0
  1 26  1  0
  1 27  1  0
  1 28  1  0
  3 29  1  0
  4 30  1  0
  6 31  1  0
  9 32  1  0
 15 33  1  0
 15 34  1  0
 19 35  1  6
 20 36  1  0
 20 37  1  0
 20 38  1  0
 21 39  1  1
 22 40  1  0
 22 41  1  0
 22 42  1  0
 23 43  1  0
 25 44  1  0
M  CHG  2   9  -1  20   1
M  END
>  <UniqueID>  (20) 
20

>  <SMILES>  (20) 
Cc1ccc2cc(C([NH-])=O)n(C(=O)OCOC(=O)[C@@H]([NH3+])[C@@H](C)O)c2c1

>  <Energy>  (20) 
74.63824040351507

>  <Genealogy>  (20) 
Cc1ccc2cc(C([NH-])=O)n(C(=O)OCOC(=O)[C@@H]([NH3+])C(C)O)c2c1 (protonated)
Cc1ccc2cc(C([NH-])=O)n(C(=O)OCOC(=O)[C@@H]([NH3+])[C@@H](C)O)c2c1 (chirality)
Cc1ccc2cc(C([NH-])=O)n(C(=O)OCOC(=O)[C@@H]([NH3+])[C@@H](C)O)c2c1 (3D coordinates assigned)
Cc1ccc2cc(C([NH-])=O)n(C(=O)OCOC(=O)[C@@H]([NH3+])[C@@H](C)O)c2c1 (optimized conformer: 74.63824040351507 kcal/mol)

>  <smiles>  (20) 
Cc1ccc2cc(C(N)=O)n(C(=O)OCOC(=O)[C@@H](N)C(C)O)c2c1

>  <score_type>  (20) 
oracle

>  <origin>  (20) 
adg

>  <m_score__min__energy>  (20) 
-8.2100000000000009

>  <m_primary>  (20) 
energy

$$$$
20:0
     RDKit          3D

 41 42  0  0  0  0  0  0  0  0999 V2000
   -3.9220   23.0740  -27.4560 C   0  0  0  0  0  0  0  0  0  0  0  0
   -2.4640   23.1390  -27.5990 N   0  0  0  0  0  0  0  0  0  0  0  0
   -1.7820   24.4070  -27.2970 C   0  0  0  0  0  0  0  0  0  0  0  0
   -1.0370   24.8940  -28.5000 C   0  0  0  0  0  0  0  0  0  0  0  0
   -1.5930   25.6770  -29.3150 O   0  0  0  0  0  0  0  0  0  0  0  0
    0.2770   24.4990  -28.7150 O   0  0  0  0  0  0  0  0  0  0  0  0
   -1.7660   21.9780  -28.1070 C   0  0  0  0  0  0  0  0  0  0  0  0
   -0.8330   21.4690  -27.4270 O   0  0  0  0  0  0  0  0  0  0  0  0
   -2.1070   21.3450  -29.4280 C   0  0  0  0  0  0  0  0  0  0  0  0
   -3.5080   21.5820  -29.7740 N   0  0  0  0  0  0  0  0  0  0  0  0
   -3.8840   22.5640  -30.7470 C   0  0  0  0  0  0  0  0  0  0  0  0
   -2.9990   23.2260  -31.3550 O   0  0  0  0  0  0  0  0  0  0  0  0
   -5.2700   22.7990  -31.0320 N   0  0  0  0  0  0  0  0  0  0  0  0
   -5.9770   23.9500  -30.8520 C   0  0  0  0  0  0  0  0  0  0  0  0
   -5.4210   25.2530  -30.4270 C   0  0  0  0  0  0  0  0  0  0  0  0
   -4.1250   25.6720  -30.8460 N   0  0  0  0  0  0  0  0  0  0  0  0
   -6.1140   26.0220  -29.7090 O   0  0  0  0  0  0  0  0  0  0  0  0
   -7.3150   23.7560  -31.1900 C   0  0  0  0  0  0  0  0  0  0  0  0
   -7.4050   22.4410  -31.5860 C   0  0  0  0  0  0  0  0  0  0  0  0
   -8.5050   21.7090  -32.0230 C   0  0  0  0  0  0  0  0  0  0  0  0
   -8.3100   20.3550  -32.3420 C   0  0  0  0  0  0  0  0  0  0  0  0
   -7.0340   19.7500  -32.1940 C   0  0  0  0  0  0  0  0  0  0  0  0
   -6.8340   18.3040  -32.5710 C   0  0  0  0  0  0  0  0  0  0  0  0
   -8.0190   17.6180  -32.3850 F   0  0  0  0  0  0  0  0  0  0  0  0
   -6.4480   18.1900  -33.8950 F   0  0  0  0  0  0  0  0  0  0  0  0
   -5.8510   17.7290  -31.7830 F   0  0  0  0  0  0  0  0  0  0  0  0
   -5.9380   20.5350  -31.7680 C   0  0  0  0  0  0  0  0  0  0  0  0
   -6.1580   21.8860  -31.4790 C   0  0  0  0  0  0  0  0  0  0  0  0
   -4.1855   23.0623  -26.3881 H   0  0  0  0  0  0  0  0  0  0  0  0
   -4.3771   23.9527  -27.9363 H   0  0  0  0  0  0  0  0  0  0  0  0
   -4.2971   22.1582  -27.9363 H   0  0  0  0  0  0  0  0  0  0  0  0
   -2.5283   25.1596  -27.0029 H   0  0  0  0  0  0  0  0  0  0  0  0
   -1.0687   24.2435  -26.4757 H   0  0  0  0  0  0  0  0  0  0  0  0
   -1.4649   21.7760  -30.2103 H   0  0  0  0  0  0  0  0  0  0  0  0
   -1.9427   20.2601  -29.3507 H   0  0  0  0  0  0  0  0  0  0  0  0
   -4.2600   21.0010  -29.3380 H   0  0  0  0  0  0  0  0  0  0  0  0
   -3.2660   25.2050  -30.4810 H   0  0  0  0  0  0  0  0  0  0  0  0
   -8.1271   24.4969  -31.1490 H   0  0  0  0  0  0  0  0  0  0  0  0
   -9.4965   22.1763  -32.1157 H   0  0  0  0  0  0  0  0  0  0  0  0
   -9.1559   19.7563  -32.7108 H   0  0  0  0  0  0  0  0  0  0  0  0
   -4.9356   20.0937  -31.6662 H   0  0  0  0  0  0  0  0  0  0  0  0
  1  2  1  0
  2  3  1  0
  3  4  1  0
  4  5  2  0
  4  6  1  0
  2  7  1  0
  7  8  2  0
  7  9  1  0
  9 10  1  0
 10 11  1  0
 11 12  2  0
 11 13  1  0
 13 14  1  0
 14 15  1  0
 15 16  1  0
 15 17  2  0
 14 18  2  0
 18 19  1  0
 19 20  2  0
 20 21  1  0
 21 22  2  0
 22 23  1  0
 23 24  1  0
 23 25  1  0
 23 26  1  0
 22 27  1  0
 27 28  2  0
 28 13  1  0
 28 19  1  0
  1 29  1  0
  1 30  1  0
  1 31  1  0
  3 32  1  0
  3 33  1  0
  9 34  1  0
  9 35  1  0
 10 36  1  0
 16 37  1  0
 18 38  1  0
 20 39  1  0
 21 40  1  0
 27 41  1  0
M  CHG  2   6  -1  16  -1
M  END
>  <UniqueID>  (21) 
21

>  <SMILES>  (21) 
CN(CC(=O)[O-])C(=O)CNC(=O)n1c(C([NH-])=O)cc2ccc(C(F)(F)F)cc21

>  <Energy>  (21) 
75.37864815685646

>  <Genealogy>  (21) 
CN(CC(=O)[O-])C(=O)CNC(=O)n1c(C([NH-])=O)cc2ccc(C(F)(F)F)cc21 (protonated)
CN(CC(=O)[O-])C(=O)CNC(=O)n1c(C([NH-])=O)cc2ccc(C(F)(F)F)cc21 (3D coordinates assigned)
CN(CC(=O)[O-])C(=O)CNC(=O)n1c(C([NH-])=O)cc2ccc(C(F)(F)F)cc21 (optimized conformer: 75.37864815685646 kcal/mol)

>  <smiles>  (21) 
CN(CC(=O)O)C(=O)CNC(=O)n1c(C(N)=O)cc2ccc(C(F)(F)F)cc21

>  <score_type>  (21) 
oracle

>  <origin>  (21) 
adg

>  <m_score__min__energy>  (21) 
-12.109999999999999

>  <m_primary>  (21) 
energy

$$$$
21:0
     RDKit          3D

 31 32  0  0  0  0  0  0  0  0999 V2000
   -6.2120   24.0340  -29.6900 N   0  0  0  0  0  0  0  0  0  0  0  0
   -6.8100   22.8130  -30.1240 C   0  0  0  0  0  0  0  0  0  0  0  0
   -7.9570   22.5090  -29.7000 O   0  0  0  0  0  0  0  0  0  0  0  0
   -6.1390   21.9240  -31.0960 C   0  0  0  0  0  0  0  0  0  0  0  0
   -6.8210   21.2430  -32.0990 C   0  0  0  0  0  0  0  0  0  0  0  0
   -5.8650   20.5010  -32.7510 C   0  0  0  0  0  0  0  0  0  0  0  0
   -6.0030   19.5960  -33.7990 C   0  0  0  0  0  0  0  0  0  0  0  0
   -4.8600   18.9000  -34.2230 C   0  0  0  0  0  0  0  0  0  0  0  0
   -3.6130   19.1030  -33.5830 C   0  0  0  0  0  0  0  0  0  0  0  0
   -2.4110   18.3170  -34.0230 C   0  0  0  0  0  0  0  0  0  0  0  0
   -1.4790   19.1660  -34.5940 F   0  0  0  0  0  0  0  0  0  0  0  0
   -2.7930   17.3680  -34.9530 F   0  0  0  0  0  0  0  0  0  0  0  0
   -3.5140   20.0200  -32.5130 C   0  0  0  0  0  0  0  0  0  0  0  0
   -4.6600   20.7340  -32.1380 C   0  0  0  0  0  0  0  0  0  0  0  0
   -4.8080   21.6230  -31.1270 N   0  0  0  0  0  0  0  0  0  0  0  0
   -3.8020   22.0310  -30.1820 C   0  0  0  0  0  0  0  0  0  0  0  0
   -3.7690   21.4970  -29.0400 O   0  0  0  0  0  0  0  0  0  0  0  0
   -2.7670   23.0600  -30.5440 C   0  0  0  0  0  0  0  0  0  0  0  0
   -3.1140   24.6690  -29.7620 P   0  0  0  0  0  0  0  0  0  0  0  0
   -3.9490   24.4790  -28.5170 O   0  0  0  0  0  0  0  0  0  0  0  0
   -3.9360   25.6680  -30.8510 O   0  0  0  0  0  0  0  0  0  0  0  0
   -1.6490   25.4020  -29.3420 O   0  0  0  0  0  0  0  0  0  0  0  0
   -6.6790   24.6170  -28.9610 H   0  0  0  0  0  0  0  0  0  0  0  0
   -5.3610   24.4120  -30.1580 H   0  0  0  0  0  0  0  0  0  0  0  0
   -7.8970   21.2886  -32.3229 H   0  0  0  0  0  0  0  0  0  0  0  0
   -6.9781   19.4310  -34.2806 H   0  0  0  0  0  0  0  0  0  0  0  0
   -4.9336   18.1903  -35.0602 H   0  0  0  0  0  0  0  0  0  0  0  0
   -1.9660   17.8199  -33.1484 H   0  0  0  0  0  0  0  0  0  0  0  0
   -2.5599   20.1700  -31.9866 H   0  0  0  0  0  0  0  0  0  0  0  0
   -1.7805   22.7064  -30.2095 H   0  0  0  0  0  0  0  0  0  0  0  0
   -2.7872   23.1976  -31.6352 H   0  0  0  0  0  0  0  0  0  0  0  0
  1  2  1  0
  2  3  2  0
  2  4  1  0
  4  5  2  0
  5  6  1  0
  6  7  2  0
  7  8  1  0
  8  9  2  0
  9 10  1  0
 10 11  1  0
 10 12  1  0
  9 13  1  0
 13 14  2  0
 14 15  1  0
 15 16  1  0
 16 17  2  0
 16 18  1  0
 18 19  1  0
 19 20  2  0
 19 21  1  0
 19 22  1  0
 15  4  1  0
 14  6  1  0
  1 23  1  0
  1 24  1  0
  5 25  1  0
  7 26  1  0
  8 27  1  0
 10 28  1  0
 13 29  1  0
 18 30  1  0
 18 31  1  0
M  CHG  2  21  -1  22  -1
M  END
>  <UniqueID>  (22) 
22

>  <SMILES>  (22) 
NC(=O)c1cc2ccc(C(F)F)cc2n1C(=O)CP(=O)([O-])[O-]

>  <Energy>  (22) 
67.38914305415324

>  <Genealogy>  (22) 
NC(=O)c1cc2ccc(C(F)F)cc2n1C(=O)CP(=O)([O-])[O-] (protonated)
NC(=O)c1cc2ccc(C(F)F)cc2n1C(=O)CP(=O)([O-])[O-] (3D coordinates assigned)
NC(=O)c1cc2ccc(C(F)F)cc2n1C(=O)CP(=O)([O-])[O-] (optimized conformer: 67.38914305415324 kcal/mol)

>  <smiles>  (22) 
NC(=O)c1cc2ccc(C(F)F)cc2n1C(=O)CP(=O)(O)O

>  <score_type>  (22) 
oracle

>  <origin>  (22) 
adg

>  <m_score__min__energy>  (22) 
-11.630000000000001

>  <m_primary>  (22) 
energy

$$$$
22:0
     RDKit          3D

 43 44  0  0  0  0  0  0  0  0999 V2000
   -3.5770   24.7730  -30.0130 N   0  0  0  0  0  0  0  0  0  0  0  0
   -4.8390   24.7720  -30.6800 C   0  0  0  0  0  0  0  0  0  0  0  0
   -5.3880   25.8660  -30.9790 O   0  0  0  0  0  0  0  0  0  0  0  0
   -5.4660   23.5060  -31.0970 C   0  0  0  0  0  0  0  0  0  0  0  0
   -6.8400   23.3130  -31.0880 C   0  0  0  0  0  0  0  0  0  0  0  0
   -7.0280   22.0390  -31.5650 C   0  0  0  0  0  0  0  0  0  0  0  0
   -8.2100   21.3360  -31.7650 C   0  0  0  0  0  0  0  0  0  0  0  0
   -8.1220   20.0280  -32.2700 C   0  0  0  0  0  0  0  0  0  0  0  0
   -6.8640   19.4560  -32.5880 C   0  0  0  0  0  0  0  0  0  0  0  0
   -6.7800   18.0360  -33.0890 C   0  0  0  0  0  0  0  0  0  0  0  0
   -7.9760   17.3710  -32.8750 F   0  0  0  0  0  0  0  0  0  0  0  0
   -5.7690   17.3760  -32.4170 F   0  0  0  0  0  0  0  0  0  0  0  0
   -6.5100   18.0110  -34.4460 F   0  0  0  0  0  0  0  0  0  0  0  0
   -5.6810   20.1960  -32.3480 C   0  0  0  0  0  0  0  0  0  0  0  0
   -5.7940   21.4980  -31.8320 C   0  0  0  0  0  0  0  0  0  0  0  0
   -4.8110   22.3900  -31.5370 N   0  0  0  0  0  0  0  0  0  0  0  0
   -3.3830   22.1690  -31.5450 C   0  0  0  0  0  0  0  0  0  0  0  0
   -2.7620   22.0320  -32.6330 O   0  0  0  0  0  0  0  0  0  0  0  0
   -2.6830   22.0600  -30.3410 O   0  0  0  0  0  0  0  0  0  0  0  0
   -1.2620   22.0110  -30.2710 C   0  0  0  0  0  0  0  0  0  0  0  0
   -0.8050   22.4270  -28.8660 C   0  0  2  0  0  0  0  0  0  0  0  0
   -1.3130   21.5450  -27.8960 O   0  0  0  0  0  0  0  0  0  0  0  0
   -1.1990   23.8420  -28.5400 C   0  0  0  0  0  0  0  0  0  0  0  0
   -1.0850   24.7490  -29.4100 O   0  0  0  0  0  0  0  0  0  0  0  0
   -1.7840   24.1340  -27.2660 N   0  0  0  0  0  0  0  0  0  0  0  0
   -3.0700   24.8050  -27.1050 C   0  0  0  0  0  0  0  0  0  0  0  0
   -4.2120   23.7930  -27.1590 C   0  0  0  0  0  0  0  0  0  0  0  0
   -3.9620   22.8610  -28.1730 O   0  0  0  0  0  0  0  0  0  0  0  0
   -3.1170   25.6720  -29.7550 H   0  0  0  0  0  0  0  0  0  0  0  0
   -3.0720   23.8760  -29.8260 H   0  0  0  0  0  0  0  0  0  0  0  0
   -7.6128   24.0272  -30.7676 H   0  0  0  0  0  0  0  0  0  0  0  0
   -9.1851   21.7900  -31.5348 H   0  0  0  0  0  0  0  0  0  0  0  0
   -9.0398   19.4406  -32.4205 H   0  0  0  0  0  0  0  0  0  0  0  0
   -4.6936   19.7605  -32.5611 H   0  0  0  0  0  0  0  0  0  0  0  0
   -0.9196   20.9867  -30.4798 H   0  0  0  0  0  0  0  0  0  0  0  0
   -0.8340   22.6991  -31.0148 H   0  0  0  0  0  0  0  0  0  0  0  0
    0.2938   22.3767  -28.8555 H   0  0  0  0  0  0  0  0  0  0  0  0
   -2.0790   21.9940  -27.4510 H   0  0  0  0  0  0  0  0  0  0  0  0
   -3.0897   25.3215  -26.1340 H   0  0  0  0  0  0  0  0  0  0  0  0
   -3.1979   25.5295  -27.9227 H   0  0  0  0  0  0  0  0  0  0  0  0
   -4.2866   23.2725  -26.1928 H   0  0  0  0  0  0  0  0  0  0  0  0
   -5.1566   24.3168  -27.3672 H   0  0  0  0  0  0  0  0  0  0  0  0
   -2.9830   22.8950  -28.3450 H   0  0  0  0  0  0  0  0  0  0  0  0
  1  2  1  0
  2  3  2  0
  2  4  1  0
  4  5  2  0
  5  6  1  0
  6  7  2  0
  7  8  1  0
  8  9  2  0
  9 10  1  0
 10 11  1  0
 10 12  1  0
 10 13  1  0
  9 14  1  0
 14 15  2  0
 15 16  1  0
 16 17  1  0
 17 18  2  0
 17 19  1  0
 19 20  1  0
 20 21  1  0
 21 22  1  0
 21 23  1  0
 23 24  2  0
 23 25  1  0
 25 26  1  0
 26 27  1  0
 27 28  1  0
 16  4  1  0
 15  6  1  0
  1 29  1  0
  1 30  1  0
  5 31  1  0
  7 32  1  0
  8 33  1  0
 14 34  1  0
 20 35  1  0
 20 36  1  0
 21 37  1  6
 22 38  1  0
 26 39  1  0
 26 40  1  0
 27 41  1  0
 27 42  1  0
 28 43  1  0
M  CHG  1  25  -1
M  END
>  <UniqueID>  (23) 
23

>  <SMILES>  (23) 
NC(=O)c1cc2ccc(C(F)(F)F)cc2n1C(=O)OC[C@H](O)C(=O)[N-]CCO

>  <Energy>  (23) 
77.10698676400017

>  <Genealogy>  (23) 
NC(=O)c1cc2ccc(C(F)(F)F)cc2n1C(=O)OC[C@H](O)C(=O)[N-]CCO (protonated)
NC(=O)c1cc2ccc(C(F)(F)F)cc2n1C(=O)OC[C@H](O)C(=O)[N-]CCO (3D coordinates assigned)
NC(=O)c1cc2ccc(C(F)(F)F)cc2n1C(=O)OC[C@H](O)C(=O)[N-]CCO (optimized conformer: 77.10698676400017 kcal/mol)

>  <smiles>  (23) 
NC(=O)c1cc2ccc(C(F)(F)F)cc2n1C(=O)OC[C@H](O)C(=O)NCCO

>  <score_type>  (23) 
oracle

>  <origin>  (23) 
adg

>  <m_score__min__energy>  (23) 
-8.1699999999999999

>  <m_primary>  (23) 
energy

$$$$
23:0
     RDKit          3D

 30 31  0  0  0  0  0  0  0  0999 V2000
   -0.5280   21.9100  -34.0640 N   0  0  0  0  0  0  0  0  0  0  0  0
   -1.1670   21.5150  -32.8520 C   0  0  0  0  0  0  0  0  0  0  0  0
   -0.5620   21.6650  -31.7580 O   0  0  0  0  0  0  0  0  0  0  0  0
   -2.5360   20.9610  -32.8880 C   0  0  0  0  0  0  0  0  0  0  0  0
   -2.8760   19.7690  -33.5240 C   0  0  0  0  0  0  0  0  0  0  0  0
   -4.2430   19.6600  -33.3890 C   0  0  0  0  0  0  0  0  0  0  0  0
   -5.1150   18.6690  -33.8310 C   0  0  0  0  0  0  0  0  0  0  0  0
   -6.4820   18.8140  -33.5350 C   0  0  0  0  0  0  0  0  0  0  0  0
   -6.9460   19.9320  -32.7970 C   0  0  0  0  0  0  0  0  0  0  0  0
   -8.4090   20.0900  -32.5100 C   0  0  0  0  0  0  0  0  0  0  0  0
   -8.9950   18.6840  -31.5870 Cl  0  0  0  0  0  0  0  0  0  0  0  0
   -6.0330   20.9250  -32.3780 C   0  0  0  0  0  0  0  0  0  0  0  0
   -4.6830   20.7570  -32.6950 C   0  0  0  0  0  0  0  0  0  0  0  0
   -3.6470   21.5600  -32.3780 N   0  0  0  0  0  0  0  0  0  0  0  0
   -3.7250   22.7650  -31.6040 C   0  0  0  0  0  0  0  0  0  0  0  0
   -4.7110   23.5360  -31.7460 O   0  0  0  0  0  0  0  0  0  0  0  0
   -2.7070   23.0520  -30.5430 C   0  0  0  0  0  0  0  0  0  0  0  0
   -3.0780   24.6410  -29.7430 P   0  0  0  0  0  0  0  0  0  0  0  0
   -3.9630   24.4120  -28.5390 O   0  0  0  0  0  0  0  0  0  0  0  0
   -1.6330   25.3660  -29.2460 O   0  0  0  0  0  0  0  0  0  0  0  0
   -3.8680   25.6610  -30.8370 O   0  0  0  0  0  0  0  0  0  0  0  0
   -1.0880   22.2250  -34.8880 H   0  0  0  0  0  0  0  0  0  0  0  0
   -2.1973   19.0645  -34.0271 H   0  0  0  0  0  0  0  0  0  0  0  0
   -4.7461   17.7993  -34.3945 H   0  0  0  0  0  0  0  0  0  0  0  0
   -7.1979   18.0530  -33.8792 H   0  0  0  0  0  0  0  0  0  0  0  0
   -8.5695   21.0059  -31.9223 H   0  0  0  0  0  0  0  0  0  0  0  0
   -8.9610   20.1585  -33.4590 H   0  0  0  0  0  0  0  0  0  0  0  0
   -6.3759   21.8069  -31.8171 H   0  0  0  0  0  0  0  0  0  0  0  0
   -2.7293   22.2506  -29.7899 H   0  0  0  0  0  0  0  0  0  0  0  0
   -1.7091   23.1025  -31.0030 H   0  0  0  0  0  0  0  0  0  0  0  0
  1  2  1  0
  2  3  2  0
  2  4  1  0
  4  5  2  0
  5  6  1  0
  6  7  2  0
  7  8  1  0
  8  9  2  0
  9 10  1  0
 10 11  1  0
  9 12  1  0
 12 13  2  0
 13 14  1  0
 14 15  1  0
 15 16  2  0
 15 17  1  0
 17 18  1  0
 18 19  2  0
 18 20  1  0
 18 21  1  0
 14  4  1  0
 13  6  1  0
  1 22  1  0
  5 23  1  0
  7 24  1  0
  8 25  1  0
 10 26  1  0
 10 27  1  0
 12 28  1  0
 17 29  1  0
 17 30  1  0
M  CHG  3   1  -1  20  -1  21  -1
M  END
>  <UniqueID>  (24) 
24

>  <SMILES>  (24) 
[NH-]C(=O)c1cc2ccc(CCl)cc2n1C(=O)CP(=O)([O-])[O-]

>  <Energy>  (24) 
63.29475624110088

>  <Genealogy>  (24) 
[NH-]C(=O)c1cc2ccc(CCl)cc2n1C(=O)CP(=O)([O-])[O-] (protonated)
[NH-]C(=O)c1cc2ccc(CCl)cc2n1C(=O)CP(=O)([O-])[O-] (3D coordinates assigned)
[NH-]C(=O)c1cc2ccc(CCl)cc2n1C(=O)CP(=O)([O-])[O-] (optimized conformer: 63.29475624110088 kcal/mol)

>  <smiles>  (24) 
NC(=O)c1cc2ccc(CCl)cc2n1C(=O)CP(=O)(O)O

>  <score_type>  (24) 
oracle

>  <origin>  (24) 
adg

>  <m_score__min__energy>  (24) 
-12.9

>  <m_primary>  (24) 
energy

$$$$
24:0
     RDKit          3D

 38 39  0  0  0  0  0  0  0  0999 V2000
   -3.8700   25.5070  -30.8000 N   0  0  0  0  0  0  0  0  0  0  0  0
   -5.2320   25.2690  -30.4490 C   0  0  0  0  0  0  0  0  0  0  0  0
   -5.8600   26.1390  -29.7910 O   0  0  0  0  0  0  0  0  0  0  0  0
   -5.8970   24.0230  -30.8840 C   0  0  0  0  0  0  0  0  0  0  0  0
   -7.2610   23.9280  -31.1580 C   0  0  0  0  0  0  0  0  0  0  0  0
   -7.4850   22.5990  -31.4370 C   0  0  0  0  0  0  0  0  0  0  0  0
   -8.6630   21.9370  -31.7660 C   0  0  0  0  0  0  0  0  0  0  0  0
   -8.5980   20.5530  -32.0070 C   0  0  0  0  0  0  0  0  0  0  0  0
   -7.3600   19.8620  -31.9350 C   0  0  0  0  0  0  0  0  0  0  0  0
   -7.3100   18.3710  -32.1520 C   0  0  0  0  0  0  0  0  0  0  0  0
   -6.8870   18.0790  -33.4370 F   0  0  0  0  0  0  0  0  0  0  0  0
   -6.4340   17.7760  -31.2620 F   0  0  0  0  0  0  0  0  0  0  0  0
   -8.5730   17.8420  -31.9630 F   0  0  0  0  0  0  0  0  0  0  0  0
   -6.1880   20.5670  -31.5740 C   0  0  0  0  0  0  0  0  0  0  0  0
   -6.2880   21.9410  -31.3320 C   0  0  0  0  0  0  0  0  0  0  0  0
   -5.3030   22.8020  -31.0000 N   0  0  0  0  0  0  0  0  0  0  0  0
   -3.9140   22.4740  -30.8390 C   0  0  0  0  0  0  0  0  0  0  0  0
   -3.0760   22.8880  -31.6850 O   0  0  0  0  0  0  0  0  0  0  0  0
   -3.4530   21.6960  -29.6820 C   0  0  0  0  0  0  0  0  0  0  0  0
   -3.4290   20.4360  -29.7390 O   0  0  0  0  0  0  0  0  0  0  0  0
   -3.0430   22.3710  -28.4880 N   0  0  0  0  0  0  0  0  0  0  0  0
   -1.6520   22.4820  -28.0610 C   0  0  0  0  0  0  0  0  0  0  0  0
   -0.9650   23.6760  -28.7510 C   0  0  1  0  0  0  0  0  0  0  0  0
   -1.3100   23.7280  -30.1130 O   0  0  0  0  0  0  0  0  0  0  0  0
   -1.3130   25.0050  -28.0630 C   0  0  0  0  0  0  0  0  0  0  0  0
   -2.2860   25.6900  -28.8030 O   0  0  0  0  0  0  0  0  0  0  0  0
   -3.1320   24.7980  -30.5960 H   0  0  0  0  0  0  0  0  0  0  0  0
   -8.0007   24.7422  -31.1524 H   0  0  0  0  0  0  0  0  0  0  0  0
   -9.6172   22.4798  -31.8356 H   0  0  0  0  0  0  0  0  0  0  0  0
   -9.5163   20.0000  -32.2539 H   0  0  0  0  0  0  0  0  0  0  0  0
   -5.2223   20.0478  -31.4858 H   0  0  0  0  0  0  0  0  0  0  0  0
   -1.6192   22.6268  -26.9711 H   0  0  0  0  0  0  0  0  0  0  0  0
   -1.1216   21.5593  -28.3391 H   0  0  0  0  0  0  0  0  0  0  0  0
    0.1212   23.5257  -28.6645 H   0  0  0  0  0  0  0  0  0  0  0  0
   -2.2630   24.0030  -30.1700 H   0  0  0  0  0  0  0  0  0  0  0  0
   -1.6999   24.8017  -27.0535 H   0  0  0  0  0  0  0  0  0  0  0  0
   -0.4068   25.6252  -27.9987 H   0  0  0  0  0  0  0  0  0  0  0  0
   -1.9810   25.6680  -29.7460 H   0  0  0  0  0  0  0  0  0  0  0  0
  1  2  1  0
  2  3  2  0
  2  4  1  0
  4  5  2  0
  5  6  1  0
  6  7  2  0
  7  8  1  0
  8  9  2  0
  9 10  1  0
 10 11  1  0
 10 12  1  0
 10 13  1  0
  9 14  1  0
 14 15  2  0
 15 16  1  0
 16 17  1  0
 17 18  2  0
 17 19  1  0
 19 20  2  0
 19 21  1  0
 21 22  1  0
 22 23  1  0
 23 24  1  0
 23 25  1  0
 25 26  1  0
 16  4  1  0
 15  6  1  0
  1 27  1  0
  5 28  1  0
  7 29  1  0
  8 30  1  0
 14 31  1  0
 22 32  1  0
 22 33  1  0
 23 34  1  6
 24 35  1  0
 25 36  1  0
 25 37  1  0
 26 38  1  0
M  CHG  2   1  -1  21  -1
M  END
>  <UniqueID>  (25) 
25

>  <SMILES>  (25) 
[NH-]C(=O)c1cc2ccc(C(F)(F)F)cc2n1C(=O)C(=O)[N-]C[C@@H](O)CO

>  <Energy>  (25) 
72.71723275119686

>  <Genealogy>  (25) 
[NH-]C(=O)c1cc2ccc(C(F)(F)F)cc2n1C(=O)C(=O)[N-]C[C@@H](O)CO (protonated)
[NH-]C(=O)c1cc2ccc(C(F)(F)F)cc2n1C(=O)C(=O)[N-]C[C@@H](O)CO (3D coordinates assigned)
[NH-]C(=O)c1cc2ccc(C(F)(F)F)cc2n1C(=O)C(=O)[N-]C[C@@H](O)CO (optimized conformer: 72.71723275119686 kcal/mol)

>  <smiles>  (25) 
NC(=O)c1cc2ccc(C(F)(F)F)cc2n1C(=O)C(=O)NC[C@@H](O)CO

>  <score_type>  (25) 
oracle

>  <origin>  (25) 
adg

>  <m_score__min__energy>  (25) 
-10.42

>  <m_primary>  (25) 
energy

$$$$
25:0
     RDKit          3D

 32 33  0  0  0  0  0  0  0  0999 V2000
   -3.9010   25.3420  -30.8490 N   0  0  0  0  0  0  0  0  0  0  0  0
   -5.2800   25.2090  -30.5130 C   0  0  0  0  0  0  0  0  0  0  0  0
   -5.8520   26.1370  -29.8830 O   0  0  0  0  0  0  0  0  0  0  0  0
   -6.0060   23.9710  -30.8670 C   0  0  0  0  0  0  0  0  0  0  0  0
   -7.3620   23.9400  -31.1840 C   0  0  0  0  0  0  0  0  0  0  0  0
   -7.6230   22.6380  -31.5420 C   0  0  0  0  0  0  0  0  0  0  0  0
   -8.8160   22.0420  -31.9430 C   0  0  0  0  0  0  0  0  0  0  0  0
   -8.8010   20.6670  -32.2320 C   0  0  0  0  0  0  0  0  0  0  0  0
   -7.6050   19.9170  -32.1100 C   0  0  0  0  0  0  0  0  0  0  0  0
   -7.5970   18.4440  -32.4030 C   0  0  0  0  0  0  0  0  0  0  0  0
   -6.5590   17.8370  -31.7190 F   0  0  0  0  0  0  0  0  0  0  0  0
   -8.7960   17.8840  -32.0020 F   0  0  0  0  0  0  0  0  0  0  0  0
   -6.4140   20.5550  -31.6970 C   0  0  0  0  0  0  0  0  0  0  0  0
   -6.4550   21.9300  -31.4330 C   0  0  0  0  0  0  0  0  0  0  0  0
   -5.4520   22.7330  -31.0150 N   0  0  0  0  0  0  0  0  0  0  0  0
   -4.1010   22.3320  -30.7410 C   0  0  0  0  0  0  0  0  0  0  0  0
   -3.3870   21.8510  -31.6630 O   0  0  0  0  0  0  0  0  0  0  0  0
   -3.5780   22.4930  -29.4540 O   0  0  0  0  0  0  0  0  0  0  0  0
   -2.1800   22.5740  -29.1860 C   0  0  0  0  0  0  0  0  0  0  0  0
   -1.5990   23.6590  -29.8770 O   0  0  0  0  0  0  0  0  0  0  0  0
   -0.9700   24.7700  -28.7440 P   0  0  0  0  0  0  0  0  0  0  0  0
   -1.6670   24.6040  -27.4120 O   0  0  0  0  0  0  0  0  0  0  0  0
    0.6950   24.5410  -28.5420 O   0  0  0  0  0  0  0  0  0  0  0  0
   -1.2400   26.3390  -29.3130 O   0  0  0  0  0  0  0  0  0  0  0  0
   -3.1610   25.2980  -30.1130 H   0  0  0  0  0  0  0  0  0  0  0  0
   -8.0731   24.7787  -31.1543 H   0  0  0  0  0  0  0  0  0  0  0  0
   -9.7417   22.6296  -32.0308 H   0  0  0  0  0  0  0  0  0  0  0  0
   -9.7263   20.1682  -32.5560 H   0  0  0  0  0  0  0  0  0  0  0  0
   -7.4622   18.2928  -33.4842 H   0  0  0  0  0  0  0  0  0  0  0  0
   -5.4788   19.9867  -31.5857 H   0  0  0  0  0  0  0  0  0  0  0  0
   -2.0274   22.7114  -28.1053 H   0  0  0  0  0  0  0  0  0  0  0  0
   -1.7016   21.6433  -29.5251 H   0  0  0  0  0  0  0  0  0  0  0  0
  1  2  1  0
  2  3  2  0
  2  4  1  0
  4  5  2  0
  5  6  1  0
  6  7  2  0
  7  8  1  0
  8  9  2  0
  9 10  1  0
 10 11  1  0
 10 12  1  0
  9 13  1  0
 13 14  2  0
 14 15  1  0
 15 16  1  0
 16 17  2  0
 16 18  1  0
 18 19  1  0
 19 20  1  0
 20 21  1  0
 21 22  2  0
 21 23  1  0
 21 24  1  0
 15  4  1  0
 14  6  1  0
  1 25  1  0
  5 26  1  0
  7 27  1  0
  8 28  1  0
 10 29  1  0
 13 30  1  0
 19 31  1  0
 19 32  1  0
M  CHG  3   1  -1  23  -1  24  -1
M  END
>  <UniqueID>  (26) 
26

>  <SMILES>  (26) 
[NH-]C(=O)c1cc2ccc(C(F)F)cc2n1C(=O)OCOP(=O)([O-])[O-]

>  <Energy>  (26) 
68.81444647356639

>  <Genealogy>  (26) 
[NH-]C(=O)c1cc2ccc(C(F)F)cc2n1C(=O)OCOP(=O)([O-])[O-] (protonated)
[NH-]C(=O)c1cc2ccc(C(F)F)cc2n1C(=O)OCOP(=O)([O-])[O-] (3D coordinates assigned)
[NH-]C(=O)c1cc2ccc(C(F)F)cc2n1C(=O)OCOP(=O)([O-])[O-] (optimized conformer: 68.81444647356639 kcal/mol)

>  <smiles>  (26) 
NC(=O)c1cc2ccc(C(F)F)cc2n1C(=O)OCOP(=O)(O)O

>  <score_type>  (26) 
oracle

>  <origin>  (26) 
adg

>  <m_score__min__energy>  (26) 
-13.109999999999999

>  <m_primary>  (26) 
energy

$$$$
26:0
     RDKit          3D

 52 53  0  0  0  0  0  0  0  0999 V2000
   -5.3510   24.8540  -28.9210 N   0  0  0  0  0  0  0  0  0  0  0  0
   -4.9730   24.5290  -30.2610 C   0  0  0  0  0  0  0  0  0  0  0  0
   -4.1260   25.2510  -30.8510 O   0  0  0  0  0  0  0  0  0  0  0  0
   -5.5390   23.3410  -30.9370 C   0  0  0  0  0  0  0  0  0  0  0  0
   -6.9030   23.1300  -31.1270 C   0  0  0  0  0  0  0  0  0  0  0  0
   -7.0040   21.8810  -31.6950 C   0  0  0  0  0  0  0  0  0  0  0  0
   -8.1290   21.1760  -32.1100 C   0  0  0  0  0  0  0  0  0  0  0  0
   -7.9380   19.9140  -32.6960 C   0  0  0  0  0  0  0  0  0  0  0  0
   -6.6340   19.3750  -32.8480 C   0  0  0  0  0  0  0  0  0  0  0  0
   -6.4430   18.0490  -33.5410 C   0  0  0  0  0  0  0  0  0  0  0  0
   -6.1610   18.2700  -34.8760 F   0  0  0  0  0  0  0  0  0  0  0  0
   -5.3990   17.3410  -32.9700 F   0  0  0  0  0  0  0  0  0  0  0  0
   -7.5910   17.2810  -33.4430 F   0  0  0  0  0  0  0  0  0  0  0  0
   -5.5150   20.1320  -32.4330 C   0  0  0  0  0  0  0  0  0  0  0  0
   -5.7370   21.3780  -31.8340 C   0  0  0  0  0  0  0  0  0  0  0  0
   -4.8240   22.2640  -31.3750 N   0  0  0  0  0  0  0  0  0  0  0  0
   -3.3960   22.1090  -31.3990 C   0  0  0  0  0  0  0  0  0  0  0  0
   -2.7520   22.0480  -30.3160 O   0  0  0  0  0  0  0  0  0  0  0  0
   -2.7250   22.0410  -32.6250 O   0  0  0  0  0  0  0  0  0  0  0  0
   -2.7970   20.9190  -33.5010 C   0  0  0  0  0  0  0  0  0  0  0  0
   -1.8680   19.8020  -33.0140 C   0  0  0  0  0  0  0  0  0  0  0  0
   -0.3900   20.1240  -33.2480 C   0  0  0  0  0  0  0  0  0  0  0  0
   -0.0740   20.1010  -34.6390 O   0  0  0  0  0  0  0  0  0  0  0  0
    0.5830   21.1420  -35.3060 C   0  0  0  0  0  0  0  0  0  0  0  0
    0.3960   22.3440  -34.9730 O   0  0  0  0  0  0  0  0  0  0  0  0
    1.4890   20.8260  -36.4540 C   0  0  0  0  0  0  0  0  0  0  0  0
    2.8720   21.1470  -36.1180 N   0  0  0  0  0  0  0  0  0  0  0  0
    3.4810   22.4090  -36.4040 C   0  0  0  0  0  0  0  0  0  0  0  0
    4.1160   22.5790  -37.4810 O   0  0  0  0  0  0  0  0  0  0  0  0
    3.3690   23.4440  -35.4710 O   0  0  0  0  0  0  0  0  0  0  0  0
    3.3080   24.8260  -35.8250 C   0  0  0  0  0  0  0  0  0  0  0  0
    1.9170   25.1950  -36.3430 C   0  0  0  0  0  0  0  0  0  0  0  0
    1.3700   24.1570  -37.1100 O   0  0  0  0  0  0  0  0  0  0  0  0
   -6.0870   24.3130  -28.4180 H   0  0  0  0  0  0  0  0  0  0  0  0
   -4.9160   25.6730  -28.4400 H   0  0  0  0  0  0  0  0  0  0  0  0
   -7.7250   23.8166  -30.8760 H   0  0  0  0  0  0  0  0  0  0  0  0
   -9.1383   21.5945  -31.9830 H   0  0  0  0  0  0  0  0  0  0  0  0
   -8.8087   19.3370  -33.0409 H   0  0  0  0  0  0  0  0  0  0  0  0
   -4.4932   19.7511  -32.5772 H   0  0  0  0  0  0  0  0  0  0  0  0
   -3.8311   20.5450  -33.5270 H   0  0  0  0  0  0  0  0  0  0  0  0
   -2.4830   21.2312  -34.5080 H   0  0  0  0  0  0  0  0  0  0  0  0
   -2.0301   19.6533  -31.9362 H   0  0  0  0  0  0  0  0  0  0  0  0
   -2.1070   18.8948  -33.5883 H   0  0  0  0  0  0  0  0  0  0  0  0
   -0.1723   21.1247  -32.8465 H   0  0  0  0  0  0  0  0  0  0  0  0
    0.2187   19.3625  -32.7385 H   0  0  0  0  0  0  0  0  0  0  0  0
    1.4134   19.7543  -36.6902 H   0  0  0  0  0  0  0  0  0  0  0  0
    1.1853   21.4286  -37.3227 H   0  0  0  0  0  0  0  0  0  0  0  0
    3.5356   25.4355  -34.9380 H   0  0  0  0  0  0  0  0  0  0  0  0
    4.0423   25.0179  -36.6213 H   0  0  0  0  0  0  0  0  0  0  0  0
    1.2564   25.3947  -35.4864 H   0  0  0  0  0  0  0  0  0  0  0  0
    2.0077   26.0878  -36.9792 H   0  0  0  0  0  0  0  0  0  0  0  0
    2.0900   23.4830  -37.2280 H   0  0  0  0  0  0  0  0  0  0  0  0
  1  2  1  0
  2  3  2  0
  2  4  1  0
  4  5  2  0
  5  6  1  0
  6  7  2  0
  7  8  1  0
  8  9  2  0
  9 10  1  0
 10 11  1  0
 10 12  1  0
 10 13  1  0
  9 14  1  0
 14 15  2  0
 15 16  1  0
 16 17  1  0
 17 18  2  0
 17 19  1  0
 19 20  1  0
 20 21  1  0
 21 22  1  0
 22 23  1  0
 23 24  1  0
 24 25  2  0
 24 26  1  0
 26 27  1  0
 27 28  1  0
 28 29  2  0
 28 30  1  0
 30 31  1  0
 31 32  1  0
 32 33  1  0
 16  4  1  0
 15  6  1  0
  1 34  1  0
  1 35  1  0
  5 36  1  0
  7 37  1  0
  8 38  1  0
 14 39  1  0
 20 40  1  0
 20 41  1  0
 21 42  1  0
 21 43  1  0
 22 44  1  0
 22 45  1  0
 26 46  1  0
 26 47  1  0
 31 48  1  0
 31 49  1  0
 32 50  1  0
 32 51  1  0
 33 52  1  0
M  CHG  1  27  -1
M  END
>  <UniqueID>  (27) 
27

>  <SMILES>  (27) 
NC(=O)c1cc2ccc(C(F)(F)F)cc2n1C(=O)OCCCOC(=O)C[N-]C(=O)OCCO

>  <Energy>  (27) 
79.46323329093048

>  <Genealogy>  (27) 
NC(=O)c1cc2ccc(C(F)(F)F)cc2n1C(=O)OCCCOC(=O)C[N-]C(=O)OCCO (protonated)
NC(=O)c1cc2ccc(C(F)(F)F)cc2n1C(=O)OCCCOC(=O)C[N-]C(=O)OCCO (3D coordinates assigned)
NC(=O)c1cc2ccc(C(F)(F)F)cc2n1C(=O)OCCCOC(=O)C[N-]C(=O)OCCO (optimized conformer: 79.46323329093048 kcal/mol)

>  <smiles>  (27) 
NC(=O)c1cc2ccc(C(F)(F)F)cc2n1C(=O)OCCCOC(=O)CNC(=O)OCCO

>  <score_type>  (27) 
oracle

>  <origin>  (27) 
adg

>  <m_score__min__energy>  (27) 
-9.0099999999999998

>  <m_primary>  (27) 
energy

$$$$
27:0
     RDKit          3D

 34 35  0  0  0  0  0  0  0  0999 V2000
   -2.6980   20.7390  -27.7150 C   0  0  0  0  0  0  0  0  0  0  0  0
   -3.2100   21.8300  -28.6240 C   0  0  0  0  0  0  0  0  0  0  0  0
   -3.5230   21.5330  -29.8980 C   0  0  0  0  0  0  0  0  0  0  0  0
   -4.0170   22.5070  -30.8980 C   0  0  0  0  0  0  0  0  0  0  0  0
   -3.2150   23.1880  -31.5920 O   0  0  0  0  0  0  0  0  0  0  0  0
   -5.4300   22.7050  -31.0620 N   0  0  0  0  0  0  0  0  0  0  0  0
   -6.1300   23.8620  -30.8910 C   0  0  0  0  0  0  0  0  0  0  0  0
   -5.5680   25.1310  -30.3730 C   0  0  0  0  0  0  0  0  0  0  0  0
   -4.2320   25.5250  -30.6900 N   0  0  0  0  0  0  0  0  0  0  0  0
   -6.2760   25.8900  -29.6580 O   0  0  0  0  0  0  0  0  0  0  0  0
   -7.4760   23.6670  -31.2020 C   0  0  0  0  0  0  0  0  0  0  0  0
   -7.5760   22.3470  -31.5780 C   0  0  0  0  0  0  0  0  0  0  0  0
   -8.6850   21.6170  -31.9980 C   0  0  0  0  0  0  0  0  0  0  0  0
   -8.4910   20.2710  -32.3520 C   0  0  0  0  0  0  0  0  0  0  0  0
   -7.2010   19.6900  -32.3000 C   0  0  0  0  0  0  0  0  0  0  0  0
   -7.0110   18.2460  -32.6570 C   0  0  0  0  0  0  0  0  0  0  0  0
   -6.1020   20.4560  -31.8560 C   0  0  0  0  0  0  0  0  0  0  0  0
   -6.3280   21.7890  -31.4890 C   0  0  0  0  0  0  0  0  0  0  0  0
   -3.2920   23.1860  -28.1540 N   0  0  0  0  0  0  0  0  0  0  0  0
   -2.7560   24.1710  -28.7570 C   0  0  0  0  0  0  0  0  0  0  0  0
   -2.2350   25.1280  -29.3440 O   0  0  0  0  0  0  0  0  0  0  0  0
   -2.8390   21.0393  -26.6662 H   0  0  0  0  0  0  0  0  0  0  0  0
   -3.2540   19.8098  -27.9082 H   0  0  0  0  0  0  0  0  0  0  0  0
   -1.6279   20.5729  -27.9082 H   0  0  0  0  0  0  0  0  0  0  0  0
   -3.4030   20.4884  -30.2212 H   0  0  0  0  0  0  0  0  0  0  0  0
   -3.5900   24.8970  -31.2220 H   0  0  0  0  0  0  0  0  0  0  0  0
   -3.8620   26.4400  -30.3490 H   0  0  0  0  0  0  0  0  0  0  0  0
   -8.2854   24.4105  -31.1563 H   0  0  0  0  0  0  0  0  0  0  0  0
   -9.6816   22.0795  -32.0510 H   0  0  0  0  0  0  0  0  0  0  0  0
   -9.3497   19.6629  -32.6726 H   0  0  0  0  0  0  0  0  0  0  0  0
   -6.9323   17.6481  -31.7370 H   0  0  0  0  0  0  0  0  0  0  0  0
   -7.8711   17.8981  -33.2479 H   0  0  0  0  0  0  0  0  0  0  0  0
   -6.0902   18.1325  -33.2479 H   0  0  0  0  0  0  0  0  0  0  0  0
   -5.0946   20.0180  -31.7996 H   0  0  0  0  0  0  0  0  0  0  0  0
  1  2  1  0
  2  3  2  3
  3  4  1  0
  4  5  2  0
  4  6  1  0
  6  7  1  0
  7  8  1  0
  8  9  1  0
  8 10  2  0
  7 11  2  0
 11 12  1  0
 12 13  2  0
 13 14  1  0
 14 15  2  0
 15 16  1  0
 15 17  1  0
 17 18  2  0
  2 19  1  0
 19 20  2  0
 20 21  2  0
 18  6  1  0
 18 12  1  0
  1 22  1  0
  1 23  1  0
  1 24  1  0
  3 25  1  0
  9 26  1  0
  9 27  1  0
 11 28  1  0
 13 29  1  0
 14 30  1  0
 16 31  1  0
 16 32  1  0
 16 33  1  0
 17 34  1  0
M  END
>  <UniqueID>  (28) 
28

>  <SMILES>  (28) 
CC(=CC(=O)n1c(C(N)=O)cc2ccc(C)cc21)N=C=O

>  <Energy>  (28) 
73.36643695809676

>  <Genealogy>  (28) 
CC(=CC(=O)n1c(C(N)=O)cc2ccc(C)cc21)N=C=O (3D coordinates assigned)
CC(=CC(=O)n1c(C(N)=O)cc2ccc(C)cc21)N=C=O (optimized conformer: 73.36643695809676 kcal/mol)

>  <smiles>  (28) 
CC(=CC(=O)n1c(C(N)=O)cc2ccc(C)cc21)N=C=O

>  <score_type>  (28) 
oracle

>  <origin>  (28) 
adg

>  <m_score__min__energy>  (28) 
-9.0800000000000001

>  <m_primary>  (28) 
energy

$$$$
28:0
     RDKit          3D

 50 51  0  0  0  0  0  0  0  0999 V2000
   -3.0430   24.5510  -27.9550 C   0  0  0  0  0  0  0  0  0  0  0  0
   -1.8260   24.8310  -28.6380 O   0  0  0  0  0  0  0  0  0  0  0  0
   -0.6880   24.0280  -28.5080 C   0  0  0  0  0  0  0  0  0  0  0  0
    0.4660   24.5340  -28.5620 O   0  0  0  0  0  0  0  0  0  0  0  0
   -0.8450   22.5490  -28.3540 C   0  0  0  0  0  0  0  0  0  0  0  0
   -0.5110   21.8380  -29.6680 C   0  0  0  0  0  0  0  0  0  0  0  0
   -1.1360   20.4390  -29.7120 C   0  0  0  0  0  0  0  0  0  0  0  0
   -0.9710   19.8500  -31.0500 N   0  0  0  0  0  0  0  0  0  0  0  0
    0.1210   18.9020  -31.2960 C   0  0  0  0  0  0  0  0  0  0  0  0
   -1.9070   20.1820  -32.0990 C   0  0  0  0  0  0  0  0  0  0  0  0
   -2.7110   19.3030  -32.5220 O   0  0  0  0  0  0  0  0  0  0  0  0
   -1.9090   21.5390  -32.7580 C   0  0  0  0  0  0  0  0  0  0  0  0
   -3.2370   22.1420  -32.7140 N   0  0  0  0  0  0  0  0  0  0  0  0
   -3.7750   22.7730  -31.5470 C   0  0  0  0  0  0  0  0  0  0  0  0
   -3.0070   23.1490  -30.6190 O   0  0  0  0  0  0  0  0  0  0  0  0
   -5.1930   22.9630  -31.4240 N   0  0  0  0  0  0  0  0  0  0  0  0
   -5.8520   24.0370  -30.9040 C   0  0  0  0  0  0  0  0  0  0  0  0
   -5.2330   25.3060  -30.4650 C   0  0  0  0  0  0  0  0  0  0  0  0
   -3.9040   25.6240  -30.8710 N   0  0  0  0  0  0  0  0  0  0  0  0
   -5.8520   26.1000  -29.7090 O   0  0  0  0  0  0  0  0  0  0  0  0
   -7.2280   23.8130  -30.9030 C   0  0  0  0  0  0  0  0  0  0  0  0
   -7.3930   22.5610  -31.4480 C   0  0  0  0  0  0  0  0  0  0  0  0
   -8.5560   21.8270  -31.6680 C   0  0  0  0  0  0  0  0  0  0  0  0
   -8.4290   20.5390  -32.2160 C   0  0  0  0  0  0  0  0  0  0  0  0
   -7.1510   20.0160  -32.5360 C   0  0  0  0  0  0  0  0  0  0  0  0
   -7.0260   18.6200  -33.0700 C   0  0  0  0  0  0  0  0  0  0  0  0
   -5.9930   20.7820  -32.2840 C   0  0  0  0  0  0  0  0  0  0  0  0
   -6.1510   22.0690  -31.7550 C   0  0  0  0  0  0  0  0  0  0  0  0
   -2.8715   24.5905  -26.8692 H   0  0  0  0  0  0  0  0  0  0  0  0
   -3.8004   25.2984  -28.2340 H   0  0  0  0  0  0  0  0  0  0  0  0
   -3.3976   23.5478  -28.2340 H   0  0  0  0  0  0  0  0  0  0  0  0
   -0.1655   22.1924  -27.5659 H   0  0  0  0  0  0  0  0  0  0  0  0
   -1.8876   22.3268  -28.0827 H   0  0  0  0  0  0  0  0  0  0  0  0
   -0.9009   22.4324  -30.5074 H   0  0  0  0  0  0  0  0  0  0  0  0
    0.5817   21.7353  -29.7421 H   0  0  0  0  0  0  0  0  0  0  0  0
   -0.6411   19.7966  -28.9688 H   0  0  0  0  0  0  0  0  0  0  0  0
   -2.2094   20.5184  -29.4850 H   0  0  0  0  0  0  0  0  0  0  0  0
    0.5253   18.5510  -30.3351 H   0  0  0  0  0  0  0  0  0  0  0  0
   -0.2605   18.0438  -31.8687 H   0  0  0  0  0  0  0  0  0  0  0  0
    0.9171   19.4003  -31.8687 H   0  0  0  0  0  0  0  0  0  0  0  0
   -1.1991   22.1947  -32.2326 H   0  0  0  0  0  0  0  0  0  0  0  0
   -1.6154   21.4166  -33.8110 H   0  0  0  0  0  0  0  0  0  0  0  0
   -3.0800   25.2950  -30.3210 H   0  0  0  0  0  0  0  0  0  0  0  0
   -8.0143   24.4928  -30.5430 H   0  0  0  0  0  0  0  0  0  0  0  0
   -9.5439   22.2427  -31.4204 H   0  0  0  0  0  0  0  0  0  0  0  0
   -9.3282   19.9322  -32.3980 H   0  0  0  0  0  0  0  0  0  0  0  0
   -6.9625   17.9110  -32.2314 H   0  0  0  0  0  0  0  0  0  0  0  0
   -7.9065   18.3825  -33.6851 H   0  0  0  0  0  0  0  0  0  0  0  0
   -6.1173   18.5427  -33.6851 H   0  0  0  0  0  0  0  0  0  0  0  0
   -4.9921   20.3787  -32.4975 H   0  0  0  0  0  0  0  0  0  0  0  0
  1  2  1  0
  2  3  1  0
  3  4  2  0
  3  5  1  0
  5  6  1  0
  6  7  1  0
  7  8  1  0
  8  9  1  0
  8 10  1  0
 10 11  2  0
 10 12  1  0
 12 13  1  0
 13 14  1  0
 14 15  2  0
 14 16  1  0
 16 17  1  0
 17 18  1  0
 18 19  1  0
 18 20  2  0
 17 21  2  0
 21 22  1  0
 22 23  2  0
 23 24  1  0
 24 25  2  0
 25 26  1  0
 25 27  1  0
 27 28  2  0
 28 16  1  0
 28 22  1  0
  1 29  1  0
  1 30  1  0
  1 31  1  0
  5 32  1  0
  5 33  1  0
  6 34  1  0
  6 35  1  0
  7 36  1  0
  7 37  1  0
  9 38  1  0
  9 39  1  0
  9 40  1  0
 12 41  1  0
 12 42  1  0
 19 43  1  0
 21 44  1  0
 23 45  1  0
 24 46  1  0
 26 47  1  0
 26 48  1  0
 26 49  1  0
 27 50  1  0
M  CHG  2  13  -1  19  -1
M  END
>  <UniqueID>  (29) 
29

>  <SMILES>  (29) 
COC(=O)CCCN(C)C(=O)C[N-]C(=O)n1c(C([NH-])=O)cc2ccc(C)cc21

>  <Energy>  (29) 
76.13144239582917

>  <Genealogy>  (29) 
COC(=O)CCCN(C)C(=O)C[N-]C(=O)n1c(C([NH-])=O)cc2ccc(C)cc21 (protonated)
COC(=O)CCCN(C)C(=O)C[N-]C(=O)n1c(C([NH-])=O)cc2ccc(C)cc21 (3D coordinates assigned)
COC(=O)CCCN(C)C(=O)C[N-]C(=O)n1c(C([NH-])=O)cc2ccc(C)cc21 (optimized conformer: 76.13144239582917 kcal/mol)

>  <smiles>  (29) 
COC(=O)CCCN(C)C(=O)CNC(=O)n1c(C(N)=O)cc2ccc(C)cc21

>  <score_type>  (29) 
oracle

>  <origin>  (29) 
adg

>  <m_score__min__energy>  (29) 
-10.949999999999999

>  <m_primary>  (29) 
energy

$$$$
29:0
     RDKit          3D

 37 38  0  0  0  0  0  0  0  0999 V2000
   -0.5060   21.1670  -32.0000 N   0  0  0  0  0  0  0  0  0  0  0  0
   -1.2320   20.3320  -32.8990 C   0  0  0  0  0  0  0  0  0  0  0  0
   -0.5910   19.6470  -33.7440 O   0  0  0  0  0  0  0  0  0  0  0  0
   -2.7120   20.2600  -32.8830 C   0  0  0  0  0  0  0  0  0  0  0  0
   -3.4540   19.5690  -33.8390 C   0  0  0  0  0  0  0  0  0  0  0  0
   -4.7640   19.6680  -33.4280 C   0  0  0  0  0  0  0  0  0  0  0  0
   -5.9220   19.1400  -33.9890 C   0  0  0  0  0  0  0  0  0  0  0  0
   -7.1340   19.3460  -33.3080 C   0  0  0  0  0  0  0  0  0  0  0  0
   -7.1660   20.0420  -32.0710 C   0  0  0  0  0  0  0  0  0  0  0  0
   -8.4790   20.2720  -31.3680 C   0  0  0  0  0  0  0  0  0  0  0  0
   -8.3330   21.2230  -30.3740 F   0  0  0  0  0  0  0  0  0  0  0  0
   -9.4430   20.7210  -32.2550 F   0  0  0  0  0  0  0  0  0  0  0  0
   -8.9060   19.0860  -30.7980 F   0  0  0  0  0  0  0  0  0  0  0  0
   -5.9690   20.5790  -31.5460 C   0  0  0  0  0  0  0  0  0  0  0  0
   -4.7820   20.3830  -32.2620 C   0  0  0  0  0  0  0  0  0  0  0  0
   -3.5350   20.7750  -31.9290 N   0  0  0  0  0  0  0  0  0  0  0  0
   -3.1600   21.4770  -30.7350 C   0  0  0  0  0  0  0  0  0  0  0  0
   -2.2550   20.9900  -30.0040 O   0  0  0  0  0  0  0  0  0  0  0  0
   -3.7590   22.7510  -30.3980 N   0  0  0  0  0  0  0  0  0  0  0  0
   -4.7680   23.3780  -31.2650 C   0  0  0  0  0  0  0  0  0  0  0  0
   -4.9970   24.8080  -30.8840 C   0  0  0  0  0  0  0  0  0  0  0  0
   -6.1620   25.2190  -30.6350 O   0  0  0  0  0  0  0  0  0  0  0  0
   -3.9260   25.6920  -30.8260 O   0  0  0  0  0  0  0  0  0  0  0  0
   -3.3930   23.4330  -29.1450 C   0  0  0  0  0  0  0  0  0  0  0  0
   -2.0840   24.1430  -29.2910 C   0  0  0  0  0  0  0  0  0  0  0  0
   -1.9790   25.3620  -28.9840 O   0  0  0  0  0  0  0  0  0  0  0  0
   -0.9600   23.4420  -29.7130 O   0  0  0  0  0  0  0  0  0  0  0  0
   -0.9750   21.9290  -31.4600 H   0  0  0  0  0  0  0  0  0  0  0  0
    0.5400   21.1210  -31.9770 H   0  0  0  0  0  0  0  0  0  0  0  0
   -3.0733   19.0534  -34.7330 H   0  0  0  0  0  0  0  0  0  0  0  0
   -5.8902   18.5794  -34.9349 H   0  0  0  0  0  0  0  0  0  0  0  0
   -8.0706   18.9628  -33.7393 H   0  0  0  0  0  0  0  0  0  0  0  0
   -5.9698   21.1372  -30.5982 H   0  0  0  0  0  0  0  0  0  0  0  0
   -4.4208   23.3358  -32.3079 H   0  0  0  0  0  0  0  0  0  0  0  0
   -5.7152   22.8309  -31.1487 H   0  0  0  0  0  0  0  0  0  0  0  0
   -4.1741   24.1647  -28.8909 H   0  0  0  0  0  0  0  0  0  0  0  0
   -3.2999   22.6809  -28.3477 H   0  0  0  0  0  0  0  0  0  0  0  0
  1  2  1  0
  2  3  2  0
  2  4  1  0
  4  5  2  0
  5  6  1  0
  6  7  2  0
  7  8  1  0
  8  9  2  0
  9 10  1  0
 10 11  1  0
 10 12  1  0
 10 13  1  0
  9 14  1  0
 14 15  2  0
 15 16  1  0
 16 17  1  0
 17 18  2  0
 17 19  1  0
 19 20  1  0
 20 21  1  0
 21 22  2  0
 21 23  1  0
 19 24  1  0
 24 25  1  0
 25 26  2  0
 25 27  1  0
 16  4  1  0
 15  6  1  0
  1 28  1  0
  1 29  1  0
  5 30  1  0
  7 31  1  0
  8 32  1  0
 14 33  1  0
 20 34  1  0
 20 35  1  0
 24 36  1  0
 24 37  1  0
M  CHG  2  23  -1  27  -1
M  END
>  <UniqueID>  (30) 
30

>  <SMILES>  (30) 
NC(=O)c1cc2ccc(C(F)(F)F)cc2n1C(=O)N(CC(=O)[O-])CC(=O)[O-]

>  <Energy>  (30) 
76.07251508361713

>  <Genealogy>  (30) 
NC(=O)c1cc2ccc(C(F)(F)F)cc2n1C(=O)N(CC(=O)[O-])CC(=O)[O-] (protonated)
NC(=O)c1cc2ccc(C(F)(F)F)cc2n1C(=O)N(CC(=O)[O-])CC(=O)[O-] (3D coordinates assigned)
NC(=O)c1cc2ccc(C(F)(F)F)cc2n1C(=O)N(CC(=O)[O-])CC(=O)[O-] (optimized conformer: 76.07251508361713 kcal/mol)

>  <smiles>  (30) 
NC(=O)c1cc2ccc(C(F)(F)F)cc2n1C(=O)N(CC(=O)O)CC(=O)O

>  <score_type>  (30) 
oracle

>  <origin>  (30) 
adg

>  <m_score__min__energy>  (30) 
-9.8399999999999999

>  <m_primary>  (30) 
energy

$$$$
30:0
     RDKit          3D

 39 40  0  0  0  0  0  0  0  0999 V2000
   -3.0740   24.8720  -26.9670 C   0  0  0  0  0  0  0  0  0  0  0  0
   -1.6180   25.0260  -26.9550 N   0  0  0  0  0  0  0  0  0  0  0  0
   -0.9100   25.3840  -25.7230 C   0  0  0  0  0  0  0  0  0  0  0  0
   -0.8800   24.8170  -28.1700 C   0  0  0  0  0  0  0  0  0  0  0  0
    0.3780   24.9280  -28.1750 O   0  0  0  0  0  0  0  0  0  0  0  0
   -1.5590   24.4870  -29.3470 O   0  0  0  0  0  0  0  0  0  0  0  0
   -1.6590   23.1540  -29.8360 C   0  0  0  0  0  0  0  0  0  0  0  0
   -3.0310   22.8010  -29.9790 O   0  0  0  0  0  0  0  0  0  0  0  0
   -3.6530   22.6710  -31.2250 C   0  0  0  0  0  0  0  0  0  0  0  0
   -2.9730   22.3970  -32.2520 O   0  0  0  0  0  0  0  0  0  0  0  0
   -5.0700   22.8680  -31.3360 N   0  0  0  0  0  0  0  0  0  0  0  0
   -5.7910   23.9730  -30.9910 C   0  0  0  0  0  0  0  0  0  0  0  0
   -5.2350   25.2770  -30.5720 C   0  0  0  0  0  0  0  0  0  0  0  0
   -3.8760   25.6150  -30.8380 N   0  0  0  0  0  0  0  0  0  0  0  0
   -5.9820   26.1240  -30.0150 O   0  0  0  0  0  0  0  0  0  0  0  0
   -7.1530   23.7410  -31.1660 C   0  0  0  0  0  0  0  0  0  0  0  0
   -7.2460   22.4540  -31.6440 C   0  0  0  0  0  0  0  0  0  0  0  0
   -8.3680   21.7020  -31.9780 C   0  0  0  0  0  0  0  0  0  0  0  0
   -8.1690   20.3820  -32.4180 C   0  0  0  0  0  0  0  0  0  0  0  0
   -6.8620   19.8440  -32.5170 C   0  0  0  0  0  0  0  0  0  0  0  0
   -6.6650   18.4180  -32.9420 C   0  0  0  0  0  0  0  0  0  0  0  0
   -5.7520   18.3670  -34.4690 Cl  0  0  0  0  0  0  0  0  0  0  0  0
   -5.7470   20.6330  -32.1560 C   0  0  0  0  0  0  0  0  0  0  0  0
   -5.9740   21.9490  -31.7390 C   0  0  0  0  0  0  0  0  0  0  0  0
   -3.4471   24.8325  -25.9329 H   0  0  0  0  0  0  0  0  0  0  0  0
   -3.5289   25.7270  -27.4885 H   0  0  0  0  0  0  0  0  0  0  0  0
   -3.3399   23.9407  -27.4885 H   0  0  0  0  0  0  0  0  0  0  0  0
   -1.5110   25.0801  -24.8532 H   0  0  0  0  0  0  0  0  0  0  0  0
    0.0615   24.8688  -25.6955 H   0  0  0  0  0  0  0  0  0  0  0  0
   -0.7491   26.4718  -25.6955 H   0  0  0  0  0  0  0  0  0  0  0  0
   -1.1588   23.0837  -30.8132 H   0  0  0  0  0  0  0  0  0  0  0  0
   -1.1763   22.4665  -29.1259 H   0  0  0  0  0  0  0  0  0  0  0  0
   -3.0980   24.9780  -30.5560 H   0  0  0  0  0  0  0  0  0  0  0  0
   -7.9793   24.4387  -30.9648 H   0  0  0  0  0  0  0  0  0  0  0  0
   -9.3794   22.1273  -31.9001 H   0  0  0  0  0  0  0  0  0  0  0  0
   -9.0359   19.7610  -32.6879 H   0  0  0  0  0  0  0  0  0  0  0  0
   -6.1057   17.8785  -32.1635 H   0  0  0  0  0  0  0  0  0  0  0  0
   -7.6463   17.9430  -33.0886 H   0  0  0  0  0  0  0  0  0  0  0  0
   -4.7272   20.2233  -32.2016 H   0  0  0  0  0  0  0  0  0  0  0  0
  1  2  1  0
  2  3  1  0
  2  4  1  0
  4  5  2  0
  4  6  1  0
  6  7  1  0
  7  8  1  0
  8  9  1  0
  9 10  2  0
  9 11  1  0
 11 12  1  0
 12 13  1  0
 13 14  1  0
 13 15  2  0
 12 16  2  0
 16 17  1  0
 17 18  2  0
 18 19  1  0
 19 20  2  0
 20 21  1  0
 21 22  1  0
 20 23  1  0
 23 24  2  0
 24 11  1  0
 24 17  1  0
  1 25  1  0
  1 26  1  0
  1 27  1  0
  3 28  1  0
  3 29  1  0
  3 30  1  0
  7 31  1  0
  7 32  1  0
 14 33  1  0
 16 34  1  0
 18 35  1  0
 19 36  1  0
 21 37  1  0
 21 38  1  0
 23 39  1  0
M  CHG  1  14  -1
M  END
>  <UniqueID>  (31) 
31

>  <SMILES>  (31) 
CN(C)C(=O)OCOC(=O)n1c(C([NH-])=O)cc2ccc(CCl)cc21

>  <Energy>  (31) 
69.81366221652671

>  <Genealogy>  (31) 
CN(C)C(=O)OCOC(=O)n1c(C([NH-])=O)cc2ccc(CCl)cc21 (protonated)
CN(C)C(=O)OCOC(=O)n1c(C([NH-])=O)cc2ccc(CCl)cc21 (3D coordinates assigned)
CN(C)C(=O)OCOC(=O)n1c(C([NH-])=O)cc2ccc(CCl)cc21 (optimized conformer: 69.81366221652671 kcal/mol)

>  <smiles>  (31) 
CN(C)C(=O)OCOC(=O)n1c(C(N)=O)cc2ccc(CCl)cc21

>  <score_type>  (31) 
oracle

>  <origin>  (31) 
adg

>  <m_score__min__energy>  (31) 
-10.369999999999999

>  <m_primary>  (31) 
energy

$$$$
31:0
     RDKit          3D

 45 46  0  0  0  0  0  0  0  0999 V2000
   -7.4220   22.7280  -29.7870 C   0  0  0  0  0  0  0  0  0  0  0  0
   -7.1340   23.7460  -30.9110 C   0  0  0  0  0  0  0  0  0  0  0  0
   -8.0220   23.4060  -32.1240 C   0  0  0  0  0  0  0  0  0  0  0  0
   -5.6130   23.7700  -31.2800 C   0  0  1  0  0  0  0  0  0  0  0  0
   -4.8830   24.9790  -30.7210 C   0  0  0  0  0  0  0  0  0  0  0  0
   -5.4910   26.0780  -30.5880 O   0  0  0  0  0  0  0  0  0  0  0  0
   -3.4860   24.9020  -30.3960 N   0  0  0  0  0  0  0  0  0  0  0  0
   -2.9730   24.8270  -29.0320 C   0  0  0  0  0  0  0  0  0  0  0  0
   -1.5400   25.2430  -28.9790 C   0  0  0  0  0  0  0  0  0  0  0  0
   -1.2480   26.4670  -28.9360 O   0  0  0  0  0  0  0  0  0  0  0  0
   -0.5210   24.3000  -29.0070 O   0  0  0  0  0  0  0  0  0  0  0  0
   -4.9180   22.4960  -30.8340 C   0  0  0  0  0  0  0  0  0  0  0  0
   -4.6050   22.3580  -29.6180 O   0  0  0  0  0  0  0  0  0  0  0  0
   -4.6330   21.4320  -31.7620 N   0  0  0  0  0  0  0  0  0  0  0  0
   -3.4370   21.1110  -32.3290 C   0  0  0  0  0  0  0  0  0  0  0  0
   -2.1660   21.7810  -32.0440 C   0  0  0  0  0  0  0  0  0  0  0  0
   -2.0640   22.6750  -30.9370 N   0  0  0  0  0  0  0  0  0  0  0  0
   -1.1660   21.5660  -32.7800 O   0  0  0  0  0  0  0  0  0  0  0  0
   -3.5490   19.9790  -33.1290 C   0  0  0  0  0  0  0  0  0  0  0  0
   -4.8670   19.6010  -33.0280 C   0  0  0  0  0  0  0  0  0  0  0  0
   -5.5350   18.5240  -33.6030 C   0  0  0  0  0  0  0  0  0  0  0  0
   -6.9090   18.3770  -33.3380 C   0  0  0  0  0  0  0  0  0  0  0  0
   -7.5870   19.3070  -32.5020 C   0  0  0  0  0  0  0  0  0  0  0  0
   -9.0680   19.1850  -32.2270 C   0  0  0  0  0  0  0  0  0  0  0  0
   -9.7620   19.2970  -33.4160 F   0  0  0  0  0  0  0  0  0  0  0  0
   -9.3850   17.9680  -31.6400 F   0  0  0  0  0  0  0  0  0  0  0  0
   -9.4650   20.2040  -31.3740 F   0  0  0  0  0  0  0  0  0  0  0  0
   -6.8660   20.3790  -31.9230 C   0  0  0  0  0  0  0  0  0  0  0  0
   -5.4970   20.4890  -32.1940 C   0  0  0  0  0  0  0  0  0  0  0  0
   -7.2848   23.2128  -28.8092 H   0  0  0  0  0  0  0  0  0  0  0  0
   -8.4574   22.3673  -29.8754 H   0  0  0  0  0  0  0  0  0  0  0  0
   -6.7290   21.8784  -29.8754 H   0  0  0  0  0  0  0  0  0  0  0  0
   -7.3793   24.7610  -30.5652 H   0  0  0  0  0  0  0  0  0  0  0  0
   -8.9955   23.0333  -31.7728 H   0  0  0  0  0  0  0  0  0  0  0  0
   -8.1733   24.3098  -32.7325 H   0  0  0  0  0  0  0  0  0  0  0  0
   -7.5310   22.6323  -32.7325 H   0  0  0  0  0  0  0  0  0  0  0  0
   -5.5723   23.8415  -32.3769 H   0  0  0  0  0  0  0  0  0  0  0  0
   -3.5655   25.4926  -28.3871 H   0  0  0  0  0  0  0  0  0  0  0  0
   -3.0504   23.7865  -28.6837 H   0  0  0  0  0  0  0  0  0  0  0  0
   -1.2050   23.2400  -30.7730 H   0  0  0  0  0  0  0  0  0  0  0  0
   -2.8750   22.7980  -30.2920 H   0  0  0  0  0  0  0  0  0  0  0  0
   -2.7557   19.4920  -33.7151 H   0  0  0  0  0  0  0  0  0  0  0  0
   -5.0036   17.8076  -34.2467 H   0  0  0  0  0  0  0  0  0  0  0  0
   -7.4632   17.5363  -33.7808 H   0  0  0  0  0  0  0  0  0  0  0  0
   -7.3707   21.1099  -31.2741 H   0  0  0  0  0  0  0  0  0  0  0  0
  1  2  1  0
  2  3  1  0
  2  4  1  0
  4  5  1  0
  5  6  2  0
  5  7  1  0
  7  8  1  0
  8  9  1  0
  9 10  2  0
  9 11  1  0
  4 12  1  0
 12 13  2  0
 12 14  1  0
 14 15  1  0
 15 16  1  0
 16 17  1  0
 16 18  2  0
 15 19  2  0
 19 20  1  0
 20 21  2  0
 21 22  1  0
 22 23  2  0
 23 24  1  0
 24 25  1  0
 24 26  1  0
 24 27  1  0
 23 28  1  0
 28 29  2  0
 29 14  1  0
 29 20  1  0
  1 30  1  0
  1 31  1  0
  1 32  1  0
  2 33  1  0
  3 34  1  0
  3 35  1  0
  3 36  1  0
  4 37  1  6
  8 38  1  0
  8 39  1  0
 17 40  1  0
 17 41  1  0
 19 42  1  0
 21 43  1  0
 22 44  1  0
 28 45  1  0
M  CHG  2   7  -1  11  -1
M  END
>  <UniqueID>  (32) 
32

>  <SMILES>  (32) 
CC(C)[C@@H](C(=O)[N-]CC(=O)[O-])C(=O)n1c(C(N)=O)cc2ccc(C(F)(F)F)cc21

>  <Energy>  (32) 
86.096534878831

>  <Genealogy>  (32) 
CC(C)C(C(=O)[N-]CC(=O)[O-])C(=O)n1c(C(N)=O)cc2ccc(C(F)(F)F)cc21 (protonated)
CC(C)[C@@H](C(=O)[N-]CC(=O)[O-])C(=O)n1c(C(N)=O)cc2ccc(C(F)(F)F)cc21 (chirality)
CC(C)[C@@H](C(=O)[N-]CC(=O)[O-])C(=O)n1c(C(N)=O)cc2ccc(C(F)(F)F)cc21 (3D coordinates assigned)
CC(C)[C@@H](C(=O)[N-]CC(=O)[O-])C(=O)n1c(C(N)=O)cc2ccc(C(F)(F)F)cc21 (optimized conformer: 86.096534878831 kcal/mol)

>  <smiles>  (32) 
CC(C)C(C(=O)NCC(=O)O)C(=O)n1c(C(N)=O)cc2ccc(C(F)(F)F)cc21

>  <score_type>  (32) 
oracle

>  <origin>  (32) 
adg

>  <m_score__min__energy>  (32) 
-11.98

>  <m_primary>  (32) 
energy

$$$$
32:0
     RDKit          3D

 40 41  0  0  0  0  0  0  0  0999 V2000
   -0.7360   26.6150  -27.6210 C   0  0  0  0  0  0  0  0  0  0  0  0
   -1.6010   26.1040  -28.6040 O   0  0  0  0  0  0  0  0  0  0  0  0
   -1.7120   24.7640  -28.3790 N   0  0  0  0  0  0  0  0  0  0  0  0
   -2.6530   24.2990  -27.3620 C   0  0  0  0  0  0  0  0  0  0  0  0
   -0.8080   23.8620  -29.0470 C   0  0  0  0  0  0  0  0  0  0  0  0
    0.4300   23.9540  -28.8250 O   0  0  0  0  0  0  0  0  0  0  0  0
   -1.2870   22.8370  -30.0370 C   0  0  0  0  0  0  0  0  0  0  0  0
   -2.7100   22.8580  -30.1160 O   0  0  0  0  0  0  0  0  0  0  0  0
   -3.4140   22.4870  -31.2680 C   0  0  0  0  0  0  0  0  0  0  0  0
   -2.7980   22.0680  -32.2860 O   0  0  0  0  0  0  0  0  0  0  0  0
   -4.8460   22.5520  -31.2750 N   0  0  0  0  0  0  0  0  0  0  0  0
   -5.6300   23.4730  -30.6510 C   0  0  0  0  0  0  0  0  0  0  0  0
   -5.1380   24.6950  -29.9810 C   0  0  0  0  0  0  0  0  0  0  0  0
   -3.8330   25.2090  -30.2590 N   0  0  0  0  0  0  0  0  0  0  0  0
   -5.8570   25.2790  -29.1280 O   0  0  0  0  0  0  0  0  0  0  0  0
   -6.9790   23.1690  -30.8330 C   0  0  0  0  0  0  0  0  0  0  0  0
   -6.9930   22.0270  -31.6030 C   0  0  0  0  0  0  0  0  0  0  0  0
   -8.0660   21.2780  -32.0750 C   0  0  0  0  0  0  0  0  0  0  0  0
   -7.7830   20.1260  -32.8300 C   0  0  0  0  0  0  0  0  0  0  0  0
   -6.4440   19.7500  -33.1100 C   0  0  0  0  0  0  0  0  0  0  0  0
   -6.1590   18.4800  -33.8720 C   0  0  0  0  0  0  0  0  0  0  0  0
   -7.1610   17.5490  -33.6530 F   0  0  0  0  0  0  0  0  0  0  0  0
   -4.9530   17.9550  -33.4470 F   0  0  0  0  0  0  0  0  0  0  0  0
   -6.0910   18.7270  -35.2330 F   0  0  0  0  0  0  0  0  0  0  0  0
   -5.3810   20.5280  -32.5930 C   0  0  0  0  0  0  0  0  0  0  0  0
   -5.6930   21.6760  -31.8570 C   0  0  0  0  0  0  0  0  0  0  0  0
   -1.1348   26.3794  -26.6233 H   0  0  0  0  0  0  0  0  0  0  0  0
    0.2587   26.1595  -27.7352 H   0  0  0  0  0  0  0  0  0  0  0  0
   -0.6549   27.7060  -27.7352 H   0  0  0  0  0  0  0  0  0  0  0  0
   -2.2421   24.5021  -26.3620 H   0  0  0  0  0  0  0  0  0  0  0  0
   -3.6105   24.8277  -27.4793 H   0  0  0  0  0  0  0  0  0  0  0  0
   -2.8147   23.2173  -27.4793 H   0  0  0  0  0  0  0  0  0  0  0  0
   -0.8645   23.0627  -31.0272 H   0  0  0  0  0  0  0  0  0  0  0  0
   -0.9599   21.8395  -29.7083 H   0  0  0  0  0  0  0  0  0  0  0  0
   -3.2260   24.7810  -30.9930 H   0  0  0  0  0  0  0  0  0  0  0  0
   -3.4850   26.0510  -29.7500 H   0  0  0  0  0  0  0  0  0  0  0  0
   -7.8464   23.7229  -30.4446 H   0  0  0  0  0  0  0  0  0  0  0  0
   -9.1032   21.5775  -31.8642 H   0  0  0  0  0  0  0  0  0  0  0  0
   -8.6107   19.5082  -33.2085 H   0  0  0  0  0  0  0  0  0  0  0  0
   -4.3343   20.2370  -32.7657 H   0  0  0  0  0  0  0  0  0  0  0  0
  1  2  1  0
  2  3  1  0
  3  4  1  0
  3  5  1  0
  5  6  2  0
  5  7  1  0
  7  8  1  0
  8  9  1  0
  9 10  2  0
  9 11  1  0
 11 12  1  0
 12 13  1  0
 13 14  1  0
 13 15  2  0
 12 16  2  0
 16 17  1  0
 17 18  2  0
 18 19  1  0
 19 20  2  0
 20 21  1  0
 21 22  1  0
 21 23  1  0
 21 24  1  0
 20 25  1  0
 25 26  2  0
 26 11  1  0
 26 17  1  0
  1 27  1  0
  1 28  1  0
  1 29  1  0
  4 30  1  0
  4 31  1  0
  4 32  1  0
  7 33  1  0
  7 34  1  0
 14 35  1  0
 14 36  1  0
 16 37  1  0
 18 38  1  0
 19 39  1  0
 25 40  1  0
M  END
>  <UniqueID>  (33) 
33

>  <SMILES>  (33) 
CON(C)C(=O)COC(=O)n1c(C(N)=O)cc2ccc(C(F)(F)F)cc21

>  <Energy>  (33) 
73.55924428292847

>  <Genealogy>  (33) 
CON(C)C(=O)COC(=O)n1c(C(N)=O)cc2ccc(C(F)(F)F)cc21 (3D coordinates assigned)
CON(C)C(=O)COC(=O)n1c(C(N)=O)cc2ccc(C(F)(F)F)cc21 (optimized conformer: 73.55924428292847 kcal/mol)

>  <smiles>  (33) 
CON(C)C(=O)COC(=O)n1c(C(N)=O)cc2ccc(C(F)(F)F)cc21

>  <score_type>  (33) 
oracle

>  <origin>  (33) 
adg

>  <m_score__min__energy>  (33) 
-8.2799999999999994

>  <m_primary>  (33) 
energy

$$$$
33:0
     RDKit          3D

 36 37  0  0  0  0  0  0  0  0999 V2000
   -4.0610   25.6620  -30.8160 N   0  0  0  0  0  0  0  0  0  0  0  0
   -5.2630   25.1480  -30.2470 C   0  0  0  0  0  0  0  0  0  0  0  0
   -5.8280   25.7860  -29.3190 O   0  0  0  0  0  0  0  0  0  0  0  0
   -5.8440   23.8910  -30.7640 C   0  0  0  0  0  0  0  0  0  0  0  0
   -7.1950   23.7260  -31.0610 C   0  0  0  0  0  0  0  0  0  0  0  0
   -7.3240   22.4160  -31.4620 C   0  0  0  0  0  0  0  0  0  0  0  0
   -8.4460   21.7180  -31.8980 C   0  0  0  0  0  0  0  0  0  0  0  0
   -8.2800   20.3780  -32.2850 C   0  0  0  0  0  0  0  0  0  0  0  0
   -7.0050   19.7570  -32.2220 C   0  0  0  0  0  0  0  0  0  0  0  0
   -6.8250   18.3370  -32.6970 C   0  0  0  0  0  0  0  0  0  0  0  0
   -8.0310   17.6570  -32.6680 F   0  0  0  0  0  0  0  0  0  0  0  0
   -6.3450   18.3130  -33.9950 F   0  0  0  0  0  0  0  0  0  0  0  0
   -5.9240   17.6910  -31.8710 F   0  0  0  0  0  0  0  0  0  0  0  0
   -5.8850   20.5090  -31.7990 C   0  0  0  0  0  0  0  0  0  0  0  0
   -6.0840   21.8350  -31.4010 C   0  0  0  0  0  0  0  0  0  0  0  0
   -5.1640   22.7280  -30.9730 N   0  0  0  0  0  0  0  0  0  0  0  0
   -3.7550   22.5030  -30.8140 C   0  0  0  0  0  0  0  0  0  0  0  0
   -2.9460   23.4310  -31.0850 O   0  0  0  0  0  0  0  0  0  0  0  0
   -3.2620   21.2180  -30.2100 C   0  0  0  0  0  0  0  0  0  0  0  0
   -2.7620   21.4080  -28.4560 S   0  0  0  0  0  0  0  0  0  0  0  0
   -3.9350   22.7420  -28.0130 C   0  0  0  0  0  0  0  0  0  0  0  0
   -3.2170   23.9950  -27.5040 C   0  0  0  0  0  0  0  0  0  0  0  0
   -2.9410   24.9160  -28.6030 N   0  0  0  0  0  0  0  0  0  0  0  0
   -3.1280   25.3030  -30.5150 H   0  0  0  0  0  0  0  0  0  0  0  0
   -7.9902   24.4827  -30.9900 H   0  0  0  0  0  0  0  0  0  0  0  0
   -9.4334   22.2011  -31.9384 H   0  0  0  0  0  0  0  0  0  0  0  0
   -9.1478   19.8033  -32.6409 H   0  0  0  0  0  0  0  0  0  0  0  0
   -4.8802   20.0616  -31.7833 H   0  0  0  0  0  0  0  0  0  0  0  0
   -4.0667   20.4703  -30.2677 H   0  0  0  0  0  0  0  0  0  0  0  0
   -2.3735   20.9032  -30.7770 H   0  0  0  0  0  0  0  0  0  0  0  0
   -4.5231   23.0075  -28.9039 H   0  0  0  0  0  0  0  0  0  0  0  0
   -4.5813   22.3700  -27.2044 H   0  0  0  0  0  0  0  0  0  0  0  0
   -3.8535   24.4992  -26.7620 H   0  0  0  0  0  0  0  0  0  0  0  0
   -2.2625   23.6939  -27.0477 H   0  0  0  0  0  0  0  0  0  0  0  0
   -3.7610   25.5600  -28.6920 H   0  0  0  0  0  0  0  0  0  0  0  0
   -2.9060   24.3670  -29.4920 H   0  0  0  0  0  0  0  0  0  0  0  0
  1  2  1  0
  2  3  2  0
  2  4  1  0
  4  5  2  0
  5  6  1  0
  6  7  2  0
  7  8  1  0
  8  9  2  0
  9 10  1  0
 10 11  1  0
 10 12  1  0
 10 13  1  0
  9 14  1  0
 14 15  2  0
 15 16  1  0
 16 17  1  0
 17 18  2  0
 17 19  1  0
 19 20  1  0
 20 21  1  0
 21 22  1  0
 22 23  1  0
 16  4  1  0
 15  6  1  0
  1 24  1  0
  5 25  1  0
  7 26  1  0
  8 27  1  0
 14 28  1  0
 19 29  1  0
 19 30  1  0
 21 31  1  0
 21 32  1  0
 22 33  1  0
 22 34  1  0
 23 35  1  0
 23 36  1  0
M  CHG  1   1  -1
M  END
>  <UniqueID>  (34) 
34

>  <SMILES>  (34) 
[NH-]C(=O)c1cc2ccc(C(F)(F)F)cc2n1C(=O)CSCCN

>  <Energy>  (34) 
70.47982167165142

>  <Genealogy>  (34) 
[NH-]C(=O)c1cc2ccc(C(F)(F)F)cc2n1C(=O)CSCCN (protonated)
[NH-]C(=O)c1cc2ccc(C(F)(F)F)cc2n1C(=O)CSCCN (3D coordinates assigned)
[NH-]C(=O)c1cc2ccc(C(F)(F)F)cc2n1C(=O)CSCCN (optimized conformer: 70.47982167165142 kcal/mol)

>  <smiles>  (34) 
NCCSCC(=O)n1c(C(N)=O)cc2ccc(C(F)(F)F)cc21

>  <score_type>  (34) 
oracle

>  <origin>  (34) 
adg

>  <m_score__min__energy>  (34) 
-9.5800000000000001

>  <m_primary>  (34) 
energy

$$$$
34:0
     RDKit          3D

 44 46  0  0  0  0  0  0  0  0999 V2000
   -3.8720   25.6020  -30.8450 N   0  0  0  0  0  0  0  0  0  0  0  0
   -5.2210   25.2880  -30.5090 C   0  0  0  0  0  0  0  0  0  0  0  0
   -5.9210   26.1470  -29.9090 O   0  0  0  0  0  0  0  0  0  0  0  0
   -5.8160   23.9850  -30.8730 C   0  0  0  0  0  0  0  0  0  0  0  0
   -7.1530   23.8170  -31.2410 C   0  0  0  0  0  0  0  0  0  0  0  0
   -7.2830   22.4820  -31.5550 C   0  0  0  0  0  0  0  0  0  0  0  0
   -8.3940   21.7660  -31.9990 C   0  0  0  0  0  0  0  0  0  0  0  0
   -8.2320   20.3920  -32.2470 C   0  0  0  0  0  0  0  0  0  0  0  0
   -6.9790   19.7610  -32.0300 C   0  0  0  0  0  0  0  0  0  0  0  0
   -6.8230   18.2890  -32.2830 C   0  0  0  0  0  0  0  0  0  0  0  0
   -6.0890   18.0240  -33.8850 Cl  0  0  0  0  0  0  0  0  0  0  0  0
   -5.8710   20.5240  -31.5970 C   0  0  0  0  0  0  0  0  0  0  0  0
   -6.0590   21.8910  -31.3700 C   0  0  0  0  0  0  0  0  0  0  0  0
   -5.1530   22.7940  -30.9420 N   0  0  0  0  0  0  0  0  0  0  0  0
   -3.7750   22.5280  -30.6440 C   0  0  0  0  0  0  0  0  0  0  0  0
   -3.2510   23.0670  -29.6300 O   0  0  0  0  0  0  0  0  0  0  0  0
   -2.9750   21.7170  -31.5290 N   0  0  0  0  0  0  0  0  0  0  0  0
   -3.4250   21.4850  -32.9110 C   0  0  0  0  0  0  0  0  0  0  0  0
   -2.3730   20.7180  -33.7260 C   0  0  0  0  0  0  0  0  0  0  0  0
   -0.9860   21.3650  -33.5640 C   0  0  0  0  0  0  0  0  0  0  0  0
   -0.0410   20.5660  -34.2540 O   0  0  0  0  0  0  0  0  0  0  0  0
    0.5760   21.4170  -35.6060 P   0  0  2  0  0  0  0  0  0  0  0  0
   -0.0390   20.8740  -36.8780 O   0  0  0  0  0  0  0  0  0  0  0  0
    2.2540   21.1930  -35.6740 O   0  0  0  0  0  0  0  0  0  0  0  0
    0.2390   23.0750  -35.4790 O   0  0  0  0  0  0  0  0  0  0  0  0
   -0.5760   21.5070  -32.0700 C   0  0  0  0  0  0  0  0  0  0  0  0
   -1.6960   21.1470  -31.0810 C   0  0  0  0  0  0  0  0  0  0  0  0
   -3.0730   25.1550  -30.3410 H   0  0  0  0  0  0  0  0  0  0  0  0
   -7.9368   24.5881  -31.2733 H   0  0  0  0  0  0  0  0  0  0  0  0
   -9.3651   22.2601  -32.1502 H   0  0  0  0  0  0  0  0  0  0  0  0
   -9.0841   19.8001  -32.6126 H   0  0  0  0  0  0  0  0  0  0  0  0
   -6.1756   17.8523  -31.5083 H   0  0  0  0  0  0  0  0  0  0  0  0
   -7.8125   17.8095  -32.2540 H   0  0  0  0  0  0  0  0  0  0  0  0
   -4.8878   20.0555  -31.4428 H   0  0  0  0  0  0  0  0  0  0  0  0
   -4.3564   20.9002  -32.8899 H   0  0  0  0  0  0  0  0  0  0  0  0
   -3.5860   22.4623  -33.3895 H   0  0  0  0  0  0  0  0  0  0  0  0
   -2.3301   19.6772  -33.3726 H   0  0  0  0  0  0  0  0  0  0  0  0
   -2.6565   20.7473  -34.7884 H   0  0  0  0  0  0  0  0  0  0  0  0
   -1.0193   22.3815  -33.9830 H   0  0  0  0  0  0  0  0  0  0  0  0
   -0.7160   23.1550  -35.7320 H   0  0  0  0  0  0  0  0  0  0  0  0
    0.2801   20.8426  -31.8809 H   0  0  0  0  0  0  0  0  0  0  0  0
   -0.3320   22.5668  -31.9047 H   0  0  0  0  0  0  0  0  0  0  0  0
   -1.7881   20.0526  -31.0197 H   0  0  0  0  0  0  0  0  0  0  0  0
   -1.4469   21.5601  -30.0924 H   0  0  0  0  0  0  0  0  0  0  0  0
  1  2  1  0
  2  3  2  0
  2  4  1  0
  4  5  2  0
  5  6  1  0
  6  7  2  0
  7  8  1  0
  8  9  2  0
  9 10  1  0
 10 11  1  0
  9 12  1  0
 12 13  2  0
 13 14  1  0
 14 15  1  0
 15 16  2  0
 15 17  1  0
 17 18  1  0
 18 19  1  0
 19 20  1  0
 20 21  1  0
 21 22  1  0
 22 23  2  0
 22 24  1  6
 22 25  1  0
 20 26  1  0
 26 27  1  0
 14  4  1  0
 27 17  1  0
 13  6  1  0
  1 28  1  0
  5 29  1  0
  7 30  1  0
  8 31  1  0
 10 32  1  0
 10 33  1  0
 12 34  1  0
 18 35  1  0
 18 36  1  0
 19 37  1  0
 19 38  1  0
 20 39  1  0
 25 40  1  0
 26 41  1  0
 26 42  1  0
 27 43  1  0
 27 44  1  0
M  CHG  2   1  -1  24  -1
M  END
>  <UniqueID>  (35) 
35

>  <SMILES>  (35) 
[NH-]C(=O)c1cc2ccc(CCl)cc2n1C(=O)N1CCC(O[P@](=O)([O-])O)CC1

>  <Energy>  (35) 
85.25680425482258

>  <Genealogy>  (35) 
[NH-]C(=O)c1cc2ccc(CCl)cc2n1C(=O)N1CCC(OP(=O)([O-])O)CC1 (protonated)
[NH-]C(=O)c1cc2ccc(CCl)cc2n1C(=O)N1CCC(O[P@](=O)([O-])O)CC1 (chirality)
[NH-]C(=O)c1cc2ccc(CCl)cc2n1C(=O)N1CCC(O[P@](=O)([O-])O)CC1 (3D coordinates assigned)
[NH-]C(=O)c1cc2ccc(CCl)cc2n1C(=O)N1CCC(O[P@](=O)([O-])O)CC1 (nonaromatic ring conformer: 85.25680425482258 kcal/mol)

>  <smiles>  (35) 
NC(=O)c1cc2ccc(CCl)cc2n1C(=O)N1CCC(OP(=O)(O)O)CC1

>  <score_type>  (35) 
oracle

>  <origin>  (35) 
adg

>  <m_score__min__energy>  (35) 
-12.869999999999999

>  <m_primary>  (35) 
energy

$$$$
35:0
     RDKit          3D

 48 49  0  0  0  0  0  0  0  0999 V2000
   -0.9460   21.6720  -26.0560 C   0  0  0  0  0  0  0  0  0  0  0  0
   -1.1450   22.8210  -26.9460 N   0  0  0  0  0  0  0  0  0  0  0  0
   -0.3600   24.0440  -26.7060 C   0  0  0  0  0  0  0  0  0  0  0  0
   -1.2690   25.2870  -26.5730 C   0  0  2  0  0  0  0  0  0  0  0  0
   -2.6250   24.9140  -26.5990 O   0  0  0  0  0  0  0  0  0  0  0  0
   -0.9850   26.3630  -27.6350 C   0  0  0  0  0  0  0  0  0  0  0  0
   -1.6170   26.0590  -28.8510 O   0  0  0  0  0  0  0  0  0  0  0  0
   -2.0610   22.7490  -28.0650 C   0  0  0  0  0  0  0  0  0  0  0  0
   -1.9480   23.5700  -29.0160 O   0  0  0  0  0  0  0  0  0  0  0  0
   -3.1370   21.6900  -28.1620 C   0  0  0  0  0  0  0  0  0  0  0  0
   -3.0780   20.9200  -29.4890 C   0  0  0  0  0  0  0  0  0  0  0  0
   -3.4850   21.7900  -30.6470 C   0  0  0  0  0  0  0  0  0  0  0  0
   -2.6820   21.9680  -31.6020 O   0  0  0  0  0  0  0  0  0  0  0  0
   -4.8180   22.3130  -30.7340 N   0  0  0  0  0  0  0  0  0  0  0  0
   -5.2970   23.4800  -30.2200 C   0  0  0  0  0  0  0  0  0  0  0  0
   -4.4800   24.5740  -29.6580 C   0  0  0  0  0  0  0  0  0  0  0  0
   -3.5680   25.3010  -30.4770 N   0  0  0  0  0  0  0  0  0  0  0  0
   -4.6150   24.8950  -28.4460 O   0  0  0  0  0  0  0  0  0  0  0  0
   -6.6830   23.5430  -30.3670 C   0  0  0  0  0  0  0  0  0  0  0  0
   -7.0360   22.3710  -30.9970 C   0  0  0  0  0  0  0  0  0  0  0  0
   -8.2900   21.8920  -31.3660 C   0  0  0  0  0  0  0  0  0  0  0  0
   -8.3590   20.6230  -31.9660 C   0  0  0  0  0  0  0  0  0  0  0  0
   -7.1840   19.8590  -32.1770 C   0  0  0  0  0  0  0  0  0  0  0  0
   -7.2660   18.5060  -32.8180 C   0  0  0  0  0  0  0  0  0  0  0  0
   -5.7340   18.3100  -34.2920 I   0  0  0  0  0  0  0  0  0  0  0  0
   -5.9290   20.3870  -31.8060 C   0  0  0  0  0  0  0  0  0  0  0  0
   -5.8910   21.6510  -31.2130 C   0  0  0  0  0  0  0  0  0  0  0  0
   -1.0036   22.0048  -25.0091 H   0  0  0  0  0  0  0  0  0  0  0  0
   -1.7275   20.9215  -26.2457 H   0  0  0  0  0  0  0  0  0  0  0  0
    0.0424   21.2281  -26.2457 H   0  0  0  0  0  0  0  0  0  0  0  0
    0.2159   23.9219  -25.7768 H   0  0  0  0  0  0  0  0  0  0  0  0
    0.3089   24.1975  -27.5656 H   0  0  0  0  0  0  0  0  0  0  0  0
   -1.0345   25.7404  -25.5986 H   0  0  0  0  0  0  0  0  0  0  0  0
   -2.9090   24.8710  -27.5490 H   0  0  0  0  0  0  0  0  0  0  0  0
   -1.3560   27.3325  -27.2709 H   0  0  0  0  0  0  0  0  0  0  0  0
    0.1006   26.4018  -27.8082 H   0  0  0  0  0  0  0  0  0  0  0  0
   -2.4870   25.6390  -28.6280 H   0  0  0  0  0  0  0  0  0  0  0  0
   -3.0082   20.9778  -27.3336 H   0  0  0  0  0  0  0  0  0  0  0  0
   -4.1126   22.1953  -28.1090 H   0  0  0  0  0  0  0  0  0  0  0  0
   -2.0494   20.5656  -29.6517 H   0  0  0  0  0  0  0  0  0  0  0  0
   -3.7777   20.0733  -29.4294 H   0  0  0  0  0  0  0  0  0  0  0  0
   -2.5450   25.3000  -30.2720 H   0  0  0  0  0  0  0  0  0  0  0  0
   -7.3514   24.3561  -30.0475 H   0  0  0  0  0  0  0  0  0  0  0  0
   -9.1983   22.4880  -31.1934 H   0  0  0  0  0  0  0  0  0  0  0  0
   -9.3343   20.2188  -32.2748 H   0  0  0  0  0  0  0  0  0  0  0  0
   -7.1352   17.7295  -32.0499 H   0  0  0  0  0  0  0  0  0  0  0  0
   -8.2489   18.3906  -33.2982 H   0  0  0  0  0  0  0  0  0  0  0  0
   -5.0040   19.8175  -31.9795 H   0  0  0  0  0  0  0  0  0  0  0  0
  1  2  1  0
  2  3  1  0
  3  4  1  0
  4  5  1  0
  4  6  1  0
  6  7  1  0
  2  8  1  0
  8  9  2  0
  8 10  1  0
 10 11  1  0
 11 12  1  0
 12 13  2  0
 12 14  1  0
 14 15  1  0
 15 16  1  0
 16 17  1  0
 16 18  2  0
 15 19  2  0
 19 20  1  0
 20 21  2  0
 21 22  1  0
 22 23  2  0
 23 24  1  0
 24 25  1  0
 23 26  1  0
 26 27  2  0
 27 14  1  0
 27 20  1  0
  1 28  1  0
  1 29  1  0
  1 30  1  0
  3 31  1  0
  3 32  1  0
  4 33  1  1
  5 34  1  0
  6 35  1  0
  6 36  1  0
  7 37  1  0
 10 38  1  0
 10 39  1  0
 11 40  1  0
 11 41  1  0
 17 42  1  0
 19 43  1  0
 21 44  1  0
 22 45  1  0
 24 46  1  0
 24 47  1  0
 26 48  1  0
M  CHG  1  17  -1
M  END
>  <UniqueID>  (36) 
36

>  <SMILES>  (36) 
CN(C[C@H](O)CO)C(=O)CCC(=O)n1c(C([NH-])=O)cc2ccc(CI)cc21

>  <Energy>  (36) 
76.51959322033159

>  <Genealogy>  (36) 
CN(CC(O)CO)C(=O)CCC(=O)n1c(C([NH-])=O)cc2ccc(CI)cc21 (protonated)
CN(C[C@H](O)CO)C(=O)CCC(=O)n1c(C([NH-])=O)cc2ccc(CI)cc21 (chirality)
CN(C[C@H](O)CO)C(=O)CCC(=O)n1c(C([NH-])=O)cc2ccc(CI)cc21 (3D coordinates assigned)
CN(C[C@H](O)CO)C(=O)CCC(=O)n1c(C([NH-])=O)cc2ccc(CI)cc21 (optimized conformer: 76.51959322033159 kcal/mol)

>  <smiles>  (36) 
CN(CC(O)CO)C(=O)CCC(=O)n1c(C(N)=O)cc2ccc(CI)cc21

>  <score_type>  (36) 
oracle

>  <origin>  (36) 
adg

>  <m_score__min__energy>  (36) 
-10.69

>  <m_primary>  (36) 
energy

$$$$
36:0
     RDKit          3D

 43 44  0  0  0  0  0  0  0  0999 V2000
   -1.3540   21.5300  -27.6280 C   0  0  0  0  0  0  0  0  0  0  0  0
   -2.0690   22.7630  -28.0040 N   0  0  2  0  0  0  0  0  0  0  0  0
   -2.2700   23.6700  -26.8450 C   0  0  0  0  0  0  0  0  0  0  0  0
   -1.9840   25.1520  -27.1610 C   0  0  0  0  0  0  0  0  0  0  0  0
   -1.1120   25.3180  -28.3670 C   0  0  0  0  0  0  0  0  0  0  0  0
   -0.2510   24.4440  -28.6500 O   0  0  0  0  0  0  0  0  0  0  0  0
   -1.2380   26.4430  -29.1730 O   0  0  0  0  0  0  0  0  0  0  0  0
   -3.3500   22.4010  -28.5840 C   0  0  0  0  0  0  0  0  0  0  0  0
   -4.3940   22.7190  -28.0270 O   0  0  0  0  0  0  0  0  0  0  0  0
   -3.4210   21.6020  -29.8610 C   0  0  0  0  0  0  0  0  0  0  0  0
   -3.9500   22.4250  -31.0040 C   0  0  0  0  0  0  0  0  0  0  0  0
   -3.1710   22.7670  -31.9320 O   0  0  0  0  0  0  0  0  0  0  0  0
   -5.3260   22.8290  -31.0520 N   0  0  0  0  0  0  0  0  0  0  0  0
   -5.8570   24.0630  -30.8220 C   0  0  0  0  0  0  0  0  0  0  0  0
   -5.1000   25.3000  -30.5380 C   0  0  0  0  0  0  0  0  0  0  0  0
   -3.6740   25.2950  -30.4750 N   0  0  0  0  0  0  0  0  0  0  0  0
   -5.7220   26.3840  -30.3620 O   0  0  0  0  0  0  0  0  0  0  0  0
   -7.2450   24.0240  -30.9440 C   0  0  0  0  0  0  0  0  0  0  0  0
   -7.5470   22.7200  -31.2640 C   0  0  0  0  0  0  0  0  0  0  0  0
   -8.7790   22.1120  -31.4790 C   0  0  0  0  0  0  0  0  0  0  0  0
   -8.7910   20.7400  -31.7790 C   0  0  0  0  0  0  0  0  0  0  0  0
   -7.5790   20.0060  -31.8760 C   0  0  0  0  0  0  0  0  0  0  0  0
   -7.5990   18.5260  -32.1600 C   0  0  0  0  0  0  0  0  0  0  0  0
   -7.2320   18.2690  -33.4720 F   0  0  0  0  0  0  0  0  0  0  0  0
   -8.8750   18.0360  -31.9460 F   0  0  0  0  0  0  0  0  0  0  0  0
   -6.7160   17.8630  -31.3240 F   0  0  0  0  0  0  0  0  0  0  0  0
   -6.3490   20.6580  -31.6210 C   0  0  0  0  0  0  0  0  0  0  0  0
   -6.3710   22.0230  -31.3310 C   0  0  0  0  0  0  0  0  0  0  0  0
   -1.3089   21.4521  -26.5317 H   0  0  0  0  0  0  0  0  0  0  0  0
   -1.8868   20.6583  -28.0359 H   0  0  0  0  0  0  0  0  0  0  0  0
   -0.3328   21.5594  -28.0359 H   0  0  0  0  0  0  0  0  0  0  0  0
   -1.5040   23.2570  -28.7320 H   0  0  0  0  0  0  0  0  0  0  0  0
   -3.3145   23.5813  -26.5116 H   0  0  0  0  0  0  0  0  0  0  0  0
   -1.5541   23.3629  -26.0684 H   0  0  0  0  0  0  0  0  0  0  0  0
   -2.9396   25.6659  -27.3420 H   0  0  0  0  0  0  0  0  0  0  0  0
   -1.4527   25.5832  -26.2997 H   0  0  0  0  0  0  0  0  0  0  0  0
   -2.4117   21.2460  -30.1153 H   0  0  0  0  0  0  0  0  0  0  0  0
   -4.1078   20.7581  -29.6996 H   0  0  0  0  0  0  0  0  0  0  0  0
   -3.1090   24.8040  -31.2040 H   0  0  0  0  0  0  0  0  0  0  0  0
   -7.9495   24.8585  -30.8124 H   0  0  0  0  0  0  0  0  0  0  0  0
   -9.7144   22.6873  -31.4161 H   0  0  0  0  0  0  0  0  0  0  0  0
   -9.7509   20.2277  -31.9408 H   0  0  0  0  0  0  0  0  0  0  0  0
   -5.3997   20.1030  -31.6506 H   0  0  0  0  0  0  0  0  0  0  0  0
  1  2  1  0
  2  3  1  0
  3  4  1  0
  4  5  1  0
  5  6  2  0
  5  7  1  0
  2  8  1  0
  8  9  2  0
  8 10  1  0
 10 11  1  0
 11 12  2  0
 11 13  1  0
 13 14  1  0
 14 15  1  0
 15 16  1  0
 15 17  2  0
 14 18  2  0
 18 19  1  0
 19 20  2  0
 20 21  1  0
 21 22  2  0
 22 23  1  0
 23 24  1  0
 23 25  1  0
 23 26  1  0
 22 27  1  0
 27 28  2  0
 28 13  1  0
 28 19  1  0
  1 29  1  0
  1 30  1  0
  1 31  1  0
  2 32  1  6
  3 33  1  0
  3 34  1  0
  4 35  1  0
  4 36  1  0
 10 37  1  0
 10 38  1  0
 16 39  1  0
 18 40  1  0
 20 41  1  0
 21 42  1  0
 27 43  1  0
M  CHG  3   2   1   7  -1  16  -1
M  END
>  <UniqueID>  (37) 
37

>  <SMILES>  (37) 
C[N@H+](CCC(=O)[O-])C(=O)CC(=O)n1c(C([NH-])=O)cc2ccc(C(F)(F)F)cc21

>  <Energy>  (37) 
79.2768923108494

>  <Genealogy>  (37) 
C[NH+](CCC(=O)[O-])C(=O)CC(=O)n1c(C([NH-])=O)cc2ccc(C(F)(F)F)cc21 (protonated)
C[N@H+](CCC(=O)[O-])C(=O)CC(=O)n1c(C([NH-])=O)cc2ccc(C(F)(F)F)cc21 (chirality)
C[N@H+](CCC(=O)[O-])C(=O)CC(=O)n1c(C([NH-])=O)cc2ccc(C(F)(F)F)cc21 (3D coordinates assigned)
C[N@H+](CCC(=O)[O-])C(=O)CC(=O)n1c(C([NH-])=O)cc2ccc(C(F)(F)F)cc21 (optimized conformer: 79.2768923108494 kcal/mol)

>  <smiles>  (37) 
CN(CCC(=O)O)C(=O)CC(=O)n1c(C(N)=O)cc2ccc(C(F)(F)F)cc21

>  <score_type>  (37) 
oracle

>  <origin>  (37) 
adg

>  <m_score__min__energy>  (37) 
-11.56

>  <m_primary>  (37) 
energy

$$$$
37:0
     RDKit          3D

 45 46  0  0  0  0  0  0  0  0999 V2000
   -3.7370   17.5890  -34.8200 C   0  0  0  0  0  0  0  0  0  0  0  0
   -4.9120   18.1530  -34.0790 C   0  0  0  0  0  0  0  0  0  0  0  0
   -6.0550   17.3500  -33.8430 C   0  0  0  0  0  0  0  0  0  0  0  0
   -7.1410   17.8530  -33.1070 C   0  0  0  0  0  0  0  0  0  0  0  0
   -7.0540   19.1540  -32.6190 C   0  0  0  0  0  0  0  0  0  0  0  0
   -7.9410   19.8720  -31.8510 C   0  0  0  0  0  0  0  0  0  0  0  0
   -7.3270   21.1050  -31.6320 C   0  0  0  0  0  0  0  0  0  0  0  0
   -7.9490   22.2280  -30.8920 C   0  0  0  0  0  0  0  0  0  0  0  0
   -7.4760   23.5680  -31.0560 N   0  0  0  0  0  0  0  0  0  0  0  0
   -8.8980   22.0110  -30.0930 O   0  0  0  0  0  0  0  0  0  0  0  0
   -6.1120   21.1460  -32.2470 N   0  0  0  0  0  0  0  0  0  0  0  0
   -5.1560   22.2190  -32.2070 C   0  0  0  0  0  0  0  0  0  0  0  0
   -5.4310   23.3170  -32.7630 O   0  0  0  0  0  0  0  0  0  0  0  0
   -3.7980   22.0160  -31.5940 C   0  0  0  0  0  0  0  0  0  0  0  0
   -3.9010   21.4260  -30.1780 C   0  0  0  0  0  0  0  0  0  0  0  0
   -3.0440   22.1560  -29.1700 C   0  0  0  0  0  0  0  0  0  0  0  0
   -2.0110   21.5940  -28.7110 O   0  0  0  0  0  0  0  0  0  0  0  0
   -3.3980   23.4810  -28.7070 N   0  0  0  0  0  0  0  0  0  0  0  0
   -2.4010   24.2910  -27.9900 C   0  0  0  0  0  0  0  0  0  0  0  0
   -1.3210   24.7310  -28.9270 C   0  0  0  0  0  0  0  0  0  0  0  0
   -0.5120   23.8890  -29.3990 O   0  0  0  0  0  0  0  0  0  0  0  0
   -1.2330   26.0620  -29.3130 O   0  0  0  0  0  0  0  0  0  0  0  0
   -4.7510   24.0260  -28.9020 C   0  0  0  0  0  0  0  0  0  0  0  0
   -4.7920   24.9420  -30.0870 C   0  0  0  0  0  0  0  0  0  0  0  0
   -5.8950   25.3670  -30.5220 O   0  0  0  0  0  0  0  0  0  0  0  0
   -3.6160   25.3000  -30.7340 O   0  0  0  0  0  0  0  0  0  0  0  0
   -5.9560   19.9440  -32.8420 C   0  0  0  0  0  0  0  0  0  0  0  0
   -4.8520   19.4620  -33.5540 C   0  0  0  0  0  0  0  0  0  0  0  0
   -2.9875   17.2293  -34.0997 H   0  0  0  0  0  0  0  0  0  0  0  0
   -4.0693   16.7523  -35.4520 H   0  0  0  0  0  0  0  0  0  0  0  0
   -3.2920   18.3717  -35.4520 H   0  0  0  0  0  0  0  0  0  0  0  0
   -6.0926   16.3245  -34.2391 H   0  0  0  0  0  0  0  0  0  0  0  0
   -8.0335   17.2372  -32.9218 H   0  0  0  0  0  0  0  0  0  0  0  0
   -8.9256   19.5435  -31.4869 H   0  0  0  0  0  0  0  0  0  0  0  0
   -7.8970   24.3430  -30.4970 H   0  0  0  0  0  0  0  0  0  0  0  0
   -6.7400   23.8050  -31.7570 H   0  0  0  0  0  0  0  0  0  0  0  0
   -3.2196   21.3270  -32.2270 H   0  0  0  0  0  0  0  0  0  0  0  0
   -3.3011   22.9949  -31.5245 H   0  0  0  0  0  0  0  0  0  0  0  0
   -4.9499   21.4805  -29.8511 H   0  0  0  0  0  0  0  0  0  0  0  0
   -3.5393   20.3883  -30.2270 H   0  0  0  0  0  0  0  0  0  0  0  0
   -2.8929   25.1766  -27.5613 H   0  0  0  0  0  0  0  0  0  0  0  0
   -1.9549   23.6837  -27.1886 H   0  0  0  0  0  0  0  0  0  0  0  0
   -5.4540   23.1956  -29.0640 H   0  0  0  0  0  0  0  0  0  0  0  0
   -5.0325   24.5978  -28.0055 H   0  0  0  0  0  0  0  0  0  0  0  0
   -3.9593   20.0877  -33.7010 H   0  0  0  0  0  0  0  0  0  0  0  0
  1  2  1  0
  2  3  2  0
  3  4  1  0
  4  5  2  0
  5  6  1  0
  6  7  2  0
  7  8  1  0
  8  9  1  0
  8 10  2  0
  7 11  1  0
 11 12  1  0
 12 13  2  0
 12 14  1  0
 14 15  1  0
 15 16  1  0
 16 17  2  0
 16 18  1  0
 18 19  1  0
 19 20  1  0
 20 21  2  0
 20 22  1  0
 18 23  1  0
 23 24  1  0
 24 25  2  0
 24 26  1  0
 11 27  1  0
 27 28  2  0
 28  2  1  0
 27  5  1  0
  1 29  1  0
  1 30  1  0
  1 31  1  0
  3 32  1  0
  4 33  1  0
  6 34  1  0
  9 35  1  0
  9 36  1  0
 14 37  1  0
 14 38  1  0
 15 39  1  0
 15 40  1  0
 19 41  1  0
 19 42  1  0
 23 43  1  0
 23 44  1  0
 28 45  1  0
M  CHG  2  22  -1  26  -1
M  END
>  <UniqueID>  (38) 
38

>  <SMILES>  (38) 
Cc1ccc2cc(C(N)=O)n(C(=O)CCC(=O)N(CC(=O)[O-])CC(=O)[O-])c2c1

>  <Energy>  (38) 
79.60451057148404

>  <Genealogy>  (38) 
Cc1ccc2cc(C(N)=O)n(C(=O)CCC(=O)N(CC(=O)[O-])CC(=O)[O-])c2c1 (protonated)
Cc1ccc2cc(C(N)=O)n(C(=O)CCC(=O)N(CC(=O)[O-])CC(=O)[O-])c2c1 (3D coordinates assigned)
Cc1ccc2cc(C(N)=O)n(C(=O)CCC(=O)N(CC(=O)[O-])CC(=O)[O-])c2c1 (optimized conformer: 79.60451057148404 kcal/mol)

>  <smiles>  (38) 
Cc1ccc2cc(C(N)=O)n(C(=O)CCC(=O)N(CC(=O)O)CC(=O)O)c2c1

>  <score_type>  (38) 
oracle

>  <origin>  (38) 
adg

>  <m_score__min__energy>  (38) 
-12.470000000000001

>  <m_primary>  (38) 
energy

$$$$
38:0
     RDKit          3D

 40 42  0  0  0  0  0  0  0  0999 V2000
   -4.1910   25.5650  -30.8300 N   0  0  0  0  0  0  0  0  0  0  0  0
   -5.5250   25.1420  -30.5400 C   0  0  0  0  0  0  0  0  0  0  0  0
   -6.2820   25.9110  -29.8920 O   0  0  0  0  0  0  0  0  0  0  0  0
   -6.0250   23.8260  -31.0000 C   0  0  0  0  0  0  0  0  0  0  0  0
   -7.3710   23.5040  -31.1860 C   0  0  0  0  0  0  0  0  0  0  0  0
   -7.3800   22.1840  -31.5770 C   0  0  0  0  0  0  0  0  0  0  0  0
   -8.4470   21.3460  -31.8880 C   0  0  0  0  0  0  0  0  0  0  0  0
   -8.1570   20.0220  -32.2610 C   0  0  0  0  0  0  0  0  0  0  0  0
   -6.8150   19.5640  -32.3350 C   0  0  0  0  0  0  0  0  0  0  0  0
   -6.5200   18.1290  -32.6920 C   0  0  0  0  0  0  0  0  0  0  0  0
   -6.2120   17.3980  -31.5580 F   0  0  0  0  0  0  0  0  0  0  0  0
   -7.6150   17.5420  -33.3020 F   0  0  0  0  0  0  0  0  0  0  0  0
   -5.4440   18.0900  -33.5600 F   0  0  0  0  0  0  0  0  0  0  0  0
   -5.7610   20.4410  -31.9850 C   0  0  0  0  0  0  0  0  0  0  0  0
   -6.0820   21.7490  -31.6170 C   0  0  0  0  0  0  0  0  0  0  0  0
   -5.2420   22.7440  -31.2670 N   0  0  0  0  0  0  0  0  0  0  0  0
   -3.8100   22.6660  -31.2460 C   0  0  0  0  0  0  0  0  0  0  0  0
   -3.1810   22.6960  -32.3380 O   0  0  0  0  0  0  0  0  0  0  0  0
   -3.0500   22.6770  -29.9290 C   0  0  2  0  0  0  0  0  0  0  0  0
   -2.3580   23.8980  -29.7810 O   0  0  0  0  0  0  0  0  0  0  0  0
   -2.0590   21.4780  -29.8810 C   0  0  0  0  0  0  0  0  0  0  0  0
   -1.8490   20.9520  -28.4520 C   0  0  0  0  0  0  0  0  0  0  0  0
   -2.1040   22.0570  -27.4140 C   0  0  0  0  0  0  0  0  0  0  0  0
   -3.4070   22.6310  -27.4670 O   0  0  0  0  0  0  0  0  0  0  0  0
   -4.0330   22.5510  -28.7420 C   0  0  0  0  0  0  0  0  0  0  0  0
   -3.8660   26.5090  -30.5250 H   0  0  0  0  0  0  0  0  0  0  0  0
   -3.5080   24.9370  -31.3050 H   0  0  0  0  0  0  0  0  0  0  0  0
   -8.2397   24.1648  -31.0492 H   0  0  0  0  0  0  0  0  0  0  0  0
   -9.4846   21.7084  -31.8433 H   0  0  0  0  0  0  0  0  0  0  0  0
   -8.9801   19.3321  -32.4986 H   0  0  0  0  0  0  0  0  0  0  0  0
   -4.7151   20.1007  -32.0024 H   0  0  0  0  0  0  0  0  0  0  0  0
   -2.3440   24.1380  -28.8170 H   0  0  0  0  0  0  0  0  0  0  0  0
   -2.4589   20.6634  -30.5027 H   0  0  0  0  0  0  0  0  0  0  0  0
   -1.0867   21.8296  -30.2566 H   0  0  0  0  0  0  0  0  0  0  0  0
   -2.5447   20.1197  -28.2694 H   0  0  0  0  0  0  0  0  0  0  0  0
   -0.8072   20.6129  -28.3534 H   0  0  0  0  0  0  0  0  0  0  0  0
   -1.9591   21.6267  -26.4121 H   0  0  0  0  0  0  0  0  0  0  0  0
   -1.3965   22.8679  -27.6416 H   0  0  0  0  0  0  0  0  0  0  0  0
   -4.5445   21.5800  -28.8169 H   0  0  0  0  0  0  0  0  0  0  0  0
   -4.7290   23.4000  -28.8110 H   0  0  0  0  0  0  0  0  0  0  0  0
  1  2  1  0
  2  3  2  0
  2  4  1  0
  4  5  2  0
  5  6  1  0
  6  7  2  0
  7  8  1  0
  8  9  2  0
  9 10  1  0
 10 11  1  0
 10 12  1  0
 10 13  1  0
  9 14  1  0
 14 15  2  0
 15 16  1  0
 16 17  1  0
 17 18  2  0
 17 19  1  0
 19 20  1  1
 19 21  1  0
 21 22  1  0
 22 23  1  0
 23 24  1  0
 24 25  1  0
 16  4  1  0
 25 19  1  0
 15  6  1  0
  1 26  1  0
  1 27  1  0
  5 28  1  0
  7 29  1  0
  8 30  1  0
 14 31  1  0
 20 32  1  0
 21 33  1  0
 21 34  1  0
 22 35  1  0
 22 36  1  0
 23 37  1  0
 23 38  1  0
 25 39  1  0
 25 40  1  0
M  END
>  <UniqueID>  (39) 
39

>  <SMILES>  (39) 
NC(=O)c1cc2ccc(C(F)(F)F)cc2n1C(=O)[C@]1(O)CCCOC1

>  <Energy>  (39) 
95.05128243992694

>  <Genealogy>  (39) 
NC(=O)c1cc2ccc(C(F)(F)F)cc2n1C(=O)[C@]1(O)CCCOC1 (3D coordinates assigned)
NC(=O)c1cc2ccc(C(F)(F)F)cc2n1C(=O)[C@]1(O)CCCOC1 (nonaromatic ring conformer: 95.05128243992694 kcal/mol)

>  <smiles>  (39) 
NC(=O)c1cc2ccc(C(F)(F)F)cc2n1C(=O)[C@]1(O)CCCOC1

>  <score_type>  (39) 
oracle

>  <origin>  (39) 
adg

>  <m_score__min__energy>  (39) 
-9.1899999999999995

>  <m_primary>  (39) 
energy

$$$$
39:0
     RDKit          3D

 34 36  0  0  0  0  0  0  0  0999 V2000
   -1.5190   25.9770  -28.9550 N   0  0  0  0  0  0  0  0  0  0  0  0
   -0.8670   24.7090  -28.9660 C   0  0  0  0  0  0  0  0  0  0  0  0
    0.2690   24.5960  -28.4350 O   0  0  0  0  0  0  0  0  0  0  0  0
   -1.4790   23.5460  -29.6410 C   0  0  0  0  0  0  0  0  0  0  0  0
   -0.7720   22.3920  -29.9680 C   0  0  0  0  0  0  0  0  0  0  0  0
   -1.6620   21.6020  -30.6570 C   0  0  0  0  0  0  0  0  0  0  0  0
   -1.4930   20.3370  -31.2070 C   0  0  0  0  0  0  0  0  0  0  0  0
   -2.5950   19.7390  -31.8410 C   0  0  0  0  0  0  0  0  0  0  0  0
   -3.8500   20.4050  -31.9080 C   0  0  0  0  0  0  0  0  0  0  0  0
   -4.9820   19.7760  -32.5530 N   0  0  0  0  0  0  0  0  0  0  0  0
   -4.9170   19.1220  -33.8530 C   0  0  0  0  0  0  0  0  0  0  0  0
   -6.3530   18.7750  -34.2170 C   0  0  0  0  0  0  0  0  0  0  0  0
   -7.1290   18.8160  -32.9000 C   0  0  2  0  0  0  0  0  0  0  0  0
   -8.4250   19.3210  -33.0850 O   0  0  0  0  0  0  0  0  0  0  0  0
   -6.3210   19.7280  -31.9830 C   0  0  0  0  0  0  0  0  0  0  0  0
   -3.9750   21.6940  -31.3310 C   0  0  0  0  0  0  0  0  0  0  0  0
   -2.8550   22.2710  -30.7230 C   0  0  0  0  0  0  0  0  0  0  0  0
   -2.7600   23.4680  -30.1010 N   0  0  0  0  0  0  0  0  0  0  0  0
   -3.8280   24.4070  -29.8880 C   0  0  0  0  0  0  0  0  0  0  0  0
   -3.8920   25.4630  -30.5710 O   0  0  0  0  0  0  0  0  0  0  0  0
   -4.8140   24.1450  -28.9450 O   0  0  0  0  0  0  0  0  0  0  0  0
   -2.5610   26.0450  -28.9680 H   0  0  0  0  0  0  0  0  0  0  0  0
    0.2760   22.1612  -29.7265 H   0  0  0  0  0  0  0  0  0  0  0  0
   -0.5245   19.8189  -31.1477 H   0  0  0  0  0  0  0  0  0  0  0  0
   -2.4857   18.7417  -32.2919 H   0  0  0  0  0  0  0  0  0  0  0  0
   -4.4859   19.8021  -34.6024 H   0  0  0  0  0  0  0  0  0  0  0  0
   -4.2799   18.2258  -33.8230 H   0  0  0  0  0  0  0  0  0  0  0  0
   -6.7589   19.5120  -34.9256 H   0  0  0  0  0  0  0  0  0  0  0  0
   -6.4247   17.7906  -34.7027 H   0  0  0  0  0  0  0  0  0  0  0  0
   -7.2520   17.8084  -32.4761 H   0  0  0  0  0  0  0  0  0  0  0  0
   -8.4460   19.7110  -33.9980 H   0  0  0  0  0  0  0  0  0  0  0  0
   -6.7631   20.7349  -31.9576 H   0  0  0  0  0  0  0  0  0  0  0  0
   -6.3081   19.3543  -30.9485 H   0  0  0  0  0  0  0  0  0  0  0  0
   -4.9349   22.2304  -31.3609 H   0  0  0  0  0  0  0  0  0  0  0  0
  1  2  1  0
  2  3  2  0
  2  4  1  0
  4  5  2  0
  5  6  1  0
  6  7  2  0
  7  8  1  0
  8  9  2  0
  9 10  1  0
 10 11  1  0
 11 12  1  0
 12 13  1  0
 13 14  1  0
 13 15  1  0
  9 16  1  0
 16 17  2  0
 17 18  1  0
 18 19  1  0
 19 20  2  0
 19 21  1  0
 18  4  1  0
 17  6  1  0
 15 10  1  0
  1 22  1  0
  5 23  1  0
  7 24  1  0
  8 25  1  0
 11 26  1  0
 11 27  1  0
 12 28  1  0
 12 29  1  0
 13 30  1  1
 14 31  1  0
 15 32  1  0
 15 33  1  0
 16 34  1  0
M  CHG  2   1  -1  21  -1
M  END
>  <UniqueID>  (40) 
40

>  <SMILES>  (40) 
[NH-]C(=O)c1cc2ccc(N3CC[C@H](O)C3)cc2n1C(=O)[O-]

>  <Energy>  (40) 
77.30155881657596

>  <Genealogy>  (40) 
[NH-]C(=O)c1cc2ccc(N3CCC(O)C3)cc2n1C(=O)[O-] (protonated)
[NH-]C(=O)c1cc2ccc(N3CC[C@H](O)C3)cc2n1C(=O)[O-] (chirality)
[NH-]C(=O)c1cc2ccc(N3CC[C@H](O)C3)cc2n1C(=O)[O-] (3D coordinates assigned)
[NH-]C(=O)c1cc2ccc(N3CC[C@H](O)C3)cc2n1C(=O)[O-] (nonaromatic ring conformer: 77.30155881657596 kcal/mol)

>  <smiles>  (40) 
NC(=O)c1cc2ccc(N3CCC(O)C3)cc2n1C(=O)O

>  <score_type>  (40) 
oracle

>  <origin>  (40) 
adg

>  <m_score__min__energy>  (40) 
-11.09

>  <m_primary>  (40) 
energy

$$$$
40:0
     RDKit          3D

 37 38  0  0  0  0  0  0  0  0999 V2000
   -6.8820   18.2990  -32.8140 C   0  0  0  0  0  0  0  0  0  0  0  0
   -7.1050   19.6910  -32.3020 C   0  0  0  0  0  0  0  0  0  0  0  0
   -8.4150   20.2260  -32.2570 C   0  0  0  0  0  0  0  0  0  0  0  0
   -8.6310   21.5470  -31.8330 C   0  0  0  0  0  0  0  0  0  0  0  0
   -7.5240   22.3050  -31.4630 C   0  0  0  0  0  0  0  0  0  0  0  0
   -7.4540   23.6100  -31.0390 C   0  0  0  0  0  0  0  0  0  0  0  0
   -6.1000   23.8570  -30.8410 C   0  0  0  0  0  0  0  0  0  0  0  0
   -5.5830   25.1510  -30.3670 C   0  0  0  0  0  0  0  0  0  0  0  0
   -4.2320   25.5340  -30.6210 N   0  0  0  0  0  0  0  0  0  0  0  0
   -6.3620   25.9590  -29.7940 O   0  0  0  0  0  0  0  0  0  0  0  0
   -5.3550   22.7440  -31.1020 N   0  0  0  0  0  0  0  0  0  0  0  0
   -3.9460   22.5580  -30.8520 C   0  0  0  0  0  0  0  0  0  0  0  0
   -3.0900   23.1020  -31.6000 O   0  0  0  0  0  0  0  0  0  0  0  0
   -3.5110   21.7940  -29.7220 N   0  0  0  0  0  0  0  0  0  0  0  0
   -2.7130   22.3350  -28.6240 C   0  0  0  0  0  0  0  0  0  0  0  0
   -1.2320   22.0190  -28.8800 C   0  0  0  0  0  0  0  0  0  0  0  0
   -0.8540   22.3940  -30.1770 O   0  0  0  0  0  0  0  0  0  0  0  0
   -2.9560   23.8510  -28.4800 C   0  0  0  0  0  0  0  0  0  0  0  0
   -2.3080   24.5670  -29.4980 O   0  0  0  0  0  0  0  0  0  0  0  0
   -6.2460   21.8020  -31.4950 C   0  0  0  0  0  0  0  0  0  0  0  0
   -6.0030   20.4930  -31.9360 C   0  0  0  0  0  0  0  0  0  0  0  0
   -6.7715   17.6091  -31.9644 H   0  0  0  0  0  0  0  0  0  0  0  0
   -7.7423   17.9914  -33.4266 H   0  0  0  0  0  0  0  0  0  0  0  0
   -5.9686   18.2756  -33.4266 H   0  0  0  0  0  0  0  0  0  0  0  0
   -9.2700   19.6021  -32.5565 H   0  0  0  0  0  0  0  0  0  0  0  0
   -9.6455   21.9704  -31.7944 H   0  0  0  0  0  0  0  0  0  0  0  0
   -8.2897   24.3093  -30.8885 H   0  0  0  0  0  0  0  0  0  0  0  0
   -3.8690   26.4480  -30.2710 H   0  0  0  0  0  0  0  0  0  0  0  0
   -3.6090   24.9340  -31.2070 H   0  0  0  0  0  0  0  0  0  0  0  0
   -3.0129   21.8666  -27.6750 H   0  0  0  0  0  0  0  0  0  0  0  0
   -0.6162   22.5688  -28.1530 H   0  0  0  0  0  0  0  0  0  0  0  0
   -1.0817   20.9347  -28.7714 H   0  0  0  0  0  0  0  0  0  0  0  0
   -1.6700   22.7480  -30.6200 H   0  0  0  0  0  0  0  0  0  0  0  0
   -4.0368   24.0481  -28.5346 H   0  0  0  0  0  0  0  0  0  0  0  0
   -2.5509   24.1786  -27.5112 H   0  0  0  0  0  0  0  0  0  0  0  0
   -2.2960   23.9800  -30.2990 H   0  0  0  0  0  0  0  0  0  0  0  0
   -4.9771   20.1005  -31.9952 H   0  0  0  0  0  0  0  0  0  0  0  0
  1  2  1  0
  2  3  2  0
  3  4  1  0
  4  5  2  0
  5  6  1  0
  6  7  2  0
  7  8  1  0
  8  9  1  0
  8 10  2  0
  7 11  1  0
 11 12  1  0
 12 13  2  0
 12 14  1  0
 14 15  1  0
 15 16  1  0
 16 17  1  0
 15 18  1  0
 18 19  1  0
 11 20  1  0
 20 21  2  0
 21  2  1  0
 20  5  1  0
  1 22  1  0
  1 23  1  0
  1 24  1  0
  3 25  1  0
  4 26  1  0
  6 27  1  0
  9 28  1  0
  9 29  1  0
 15 30  1  0
 16 31  1  0
 16 32  1  0
 17 33  1  0
 18 34  1  0
 18 35  1  0
 19 36  1  0
 21 37  1  0
M  CHG  1  14  -1
M  END
>  <UniqueID>  (41) 
41

>  <SMILES>  (41) 
Cc1ccc2cc(C(N)=O)n(C(=O)[N-]C(CO)CO)c2c1

>  <Energy>  (41) 
73.80882804169023

>  <Genealogy>  (41) 
Cc1ccc2cc(C(N)=O)n(C(=O)[N-]C(CO)CO)c2c1 (protonated)
Cc1ccc2cc(C(N)=O)n(C(=O)[N-]C(CO)CO)c2c1 (3D coordinates assigned)
Cc1ccc2cc(C(N)=O)n(C(=O)[N-]C(CO)CO)c2c1 (optimized conformer: 73.80882804169023 kcal/mol)

>  <smiles>  (41) 
Cc1ccc2cc(C(N)=O)n(C(=O)NC(CO)CO)c2c1

>  <score_type>  (41) 
oracle

>  <origin>  (41) 
adg

>  <m_score__min__energy>  (41) 
-9.0700000000000003

>  <m_primary>  (41) 
energy

$$$$
41:0
     RDKit          3D

 35 36  0  0  0  0  0  0  0  0999 V2000
   -6.4830   18.1700  -33.5420 C   0  0  0  0  0  0  0  0  0  0  0  0
   -6.7170   19.5180  -32.9280 C   0  0  0  0  0  0  0  0  0  0  0  0
   -8.0390   19.9740  -32.7000 C   0  0  0  0  0  0  0  0  0  0  0  0
   -8.2720   21.2130  -32.0810 C   0  0  0  0  0  0  0  0  0  0  0  0
   -7.1670   21.9690  -31.6990 C   0  0  0  0  0  0  0  0  0  0  0  0
   -7.1040   23.1820  -31.0510 C   0  0  0  0  0  0  0  0  0  0  0  0
   -5.7420   23.4490  -30.8970 C   0  0  0  0  0  0  0  0  0  0  0  0
   -5.1930   24.6820  -30.2870 C   0  0  0  0  0  0  0  0  0  0  0  0
   -5.7380   25.2090  -29.0750 N   0  0  0  0  0  0  0  0  0  0  0  0
   -4.2440   25.2940  -30.8440 O   0  0  0  0  0  0  0  0  0  0  0  0
   -4.9990   22.4440  -31.4370 N   0  0  0  0  0  0  0  0  0  0  0  0
   -3.5680   22.3150  -31.4250 C   0  0  0  0  0  0  0  0  0  0  0  0
   -2.9280   22.5690  -30.3690 O   0  0  0  0  0  0  0  0  0  0  0  0
   -2.8360   21.9080  -32.6330 C   0  0  0  0  0  0  0  0  0  0  0  0
   -3.4110   21.9300  -33.7550 O   0  0  0  0  0  0  0  0  0  0  0  0
   -1.5000   21.5060  -32.5250 O   0  0  0  0  0  0  0  0  0  0  0  0
   -0.9610   20.3780  -33.2110 C   0  0  0  0  0  0  0  0  0  0  0  0
   -0.1300   20.8240  -34.4140 C   0  0  0  0  0  0  0  0  0  0  0  0
   -0.4490   22.1440  -34.7620 O   0  0  0  0  0  0  0  0  0  0  0  0
   -5.8830   21.5430  -31.9160 C   0  0  0  0  0  0  0  0  0  0  0  0
   -5.6210   20.3040  -32.5110 C   0  0  0  0  0  0  0  0  0  0  0  0
   -6.3532   17.4220  -32.7459 H   0  0  0  0  0  0  0  0  0  0  0  0
   -7.3470   17.8960  -34.1652 H   0  0  0  0  0  0  0  0  0  0  0  0
   -5.5772   18.2032  -34.1652 H   0  0  0  0  0  0  0  0  0  0  0  0
   -8.8911   19.3516  -33.0108 H   0  0  0  0  0  0  0  0  0  0  0  0
   -9.2955   21.5748  -31.9035 H   0  0  0  0  0  0  0  0  0  0  0  0
   -7.9474   23.8079  -30.7240 H   0  0  0  0  0  0  0  0  0  0  0  0
   -5.3630   26.0990  -28.6770 H   0  0  0  0  0  0  0  0  0  0  0  0
   -6.4780   24.7020  -28.5420 H   0  0  0  0  0  0  0  0  0  0  0  0
   -0.3211   19.8079  -32.5215 H   0  0  0  0  0  0  0  0  0  0  0  0
   -1.7914   19.7508  -33.5676 H   0  0  0  0  0  0  0  0  0  0  0  0
    0.9385   20.7637  -34.1596 H   0  0  0  0  0  0  0  0  0  0  0  0
   -0.3516   20.1652  -35.2666 H   0  0  0  0  0  0  0  0  0  0  0  0
   -1.4130   22.2640  -34.5640 H   0  0  0  0  0  0  0  0  0  0  0  0
   -4.5883   19.9517  -32.6502 H   0  0  0  0  0  0  0  0  0  0  0  0
  1  2  1  0
  2  3  2  0
  3  4  1  0
  4  5  2  0
  5  6  1  0
  6  7  2  0
  7  8  1  0
  8  9  1  0
  8 10  2  0
  7 11  1  0
 11 12  1  0
 12 13  2  0
 12 14  1  0
 14 15  2  0
 14 16  1  0
 16 17  1  0
 17 18  1  0
 18 19  1  0
 11 20  1  0
 20 21  2  0
 21  2  1  0
 20  5  1  0
  1 22  1  0
  1 23  1  0
  1 24  1  0
  3 25  1  0
  4 26  1  0
  6 27  1  0
  9 28  1  0
  9 29  1  0
 17 30  1  0
 17 31  1  0
 18 32  1  0
 18 33  1  0
 19 34  1  0
 21 35  1  0
M  END
>  <UniqueID>  (42) 
42

>  <SMILES>  (42) 
Cc1ccc2cc(C(N)=O)n(C(=O)C(=O)OCCO)c2c1

>  <Energy>  (42) 
69.47924832042696

>  <Genealogy>  (42) 
Cc1ccc2cc(C(N)=O)n(C(=O)C(=O)OCCO)c2c1 (3D coordinates assigned)
Cc1ccc2cc(C(N)=O)n(C(=O)C(=O)OCCO)c2c1 (optimized conformer: 69.47924832042696 kcal/mol)

>  <smiles>  (42) 
Cc1ccc2cc(C(N)=O)n(C(=O)C(=O)OCCO)c2c1

>  <score_type>  (42) 
oracle

>  <origin>  (42) 
adg

>  <m_score__min__energy>  (42) 
-7.9800000000000004

>  <m_primary>  (42) 
energy

$$$$
42:0
     RDKit          3D

 62 64  0  0  0  0  0  0  0  0999 V2000
   -3.8700   25.3550  -30.7020 N   0  0  0  0  0  0  0  0  0  0  0  0
   -4.6960   24.3860  -30.0610 C   0  0  0  0  0  0  0  0  0  0  0  0
   -4.9700   24.5230  -28.8370 O   0  0  0  0  0  0  0  0  0  0  0  0
   -5.2410   23.2560  -30.8480 C   0  0  0  0  0  0  0  0  0  0  0  0
   -6.6030   23.0660  -31.0870 C   0  0  0  0  0  0  0  0  0  0  0  0
   -6.6910   21.8910  -31.8010 C   0  0  0  0  0  0  0  0  0  0  0  0
   -7.8080   21.2350  -32.3140 C   0  0  0  0  0  0  0  0  0  0  0  0
   -7.6020   20.0470  -33.0390 C   0  0  0  0  0  0  0  0  0  0  0  0
   -6.2890   19.5530  -33.2630 C   0  0  0  0  0  0  0  0  0  0  0  0
   -6.0920   18.2520  -34.0040 C   0  0  0  0  0  0  0  0  0  0  0  0
   -6.0610   18.4650  -35.3740 F   0  0  0  0  0  0  0  0  0  0  0  0
   -4.8970   17.6800  -33.6070 F   0  0  0  0  0  0  0  0  0  0  0  0
   -7.1270   17.3730  -33.7260 F   0  0  0  0  0  0  0  0  0  0  0  0
   -5.1790   20.2440  -32.7130 C   0  0  0  0  0  0  0  0  0  0  0  0
   -5.4180   21.4100  -31.9730 C   0  0  0  0  0  0  0  0  0  0  0  0
   -4.5180   22.2360  -31.3900 N   0  0  0  0  0  0  0  0  0  0  0  0
   -3.0860   22.1000  -31.4170 C   0  0  0  0  0  0  0  0  0  0  0  0
   -2.3620   23.1090  -31.2070 O   0  0  0  0  0  0  0  0  0  0  0  0
   -2.4430   20.7670  -31.6630 C   0  0  0  0  0  0  0  0  0  0  0  0
   -1.1750   20.7030  -31.0360 O   0  0  0  0  0  0  0  0  0  0  0  0
   -0.6950   19.3720  -31.0370 C   0  0  0  0  0  0  0  0  0  0  0  0
   -0.1260   19.0340  -29.6590 C   0  0  0  0  0  0  0  0  0  0  0  0
   -0.7430   19.8720  -28.6250 N   0  0  0  0  0  0  0  0  0  0  0  0
   -1.2320   19.3480  -27.3720 C   0  0  0  0  0  0  0  0  0  0  0  0
   -1.0060   18.1480  -27.0440 O   0  0  0  0  0  0  0  0  0  0  0  0
   -2.0080   20.2370  -26.4340 C   0  0  0  0  0  0  0  0  0  0  0  0
   -1.5270   21.7030  -26.5120 C   0  0  1  0  0  0  0  0  0  0  0  0
   -0.1150   21.7040  -26.6430 O   0  0  0  0  0  0  0  0  0  0  0  0
    0.4500   23.0040  -26.5000 C   0  0  2  0  0  0  0  0  0  0  0  0
    0.7010   23.3690  -25.0170 C   0  0  0  0  0  0  0  0  0  0  0  0
   -0.0210   22.5420  -24.1430 O   0  0  0  0  0  0  0  0  0  0  0  0
   -0.3010   24.1100  -27.3010 C   0  0  1  0  0  0  0  0  0  0  0  0
    0.6380   24.9480  -27.9310 O   0  0  0  0  0  0  0  0  0  0  0  0
   -1.2040   23.4540  -28.3550 C   0  0  2  0  0  0  0  0  0  0  0  0
   -1.8880   24.4490  -29.0760 O   0  0  0  0  0  0  0  0  0  0  0  0
   -2.2150   22.5130  -27.6640 C   0  0  1  0  0  0  0  0  0  0  0  0
   -2.7930   21.6650  -28.6500 O   0  0  0  0  0  0  0  0  0  0  0  0
   -2.8320   25.2350  -30.7430 H   0  0  0  0  0  0  0  0  0  0  0  0
   -7.4316   23.7172  -30.7717 H   0  0  0  0  0  0  0  0  0  0  0  0
   -8.8209   21.6341  -32.1568 H   0  0  0  0  0  0  0  0  0  0  0  0
   -8.4665   19.4950  -33.4365 H   0  0  0  0  0  0  0  0  0  0  0  0
   -4.1544   19.8733  -32.8638 H   0  0  0  0  0  0  0  0  0  0  0  0
   -3.0879   19.9739  -31.2567 H   0  0  0  0  0  0  0  0  0  0  0  0
   -2.3105   20.6313  -32.7465 H   0  0  0  0  0  0  0  0  0  0  0  0
   -1.5212   18.6845  -31.2712 H   0  0  0  0  0  0  0  0  0  0  0  0
    0.0950   19.2679  -31.7953 H   0  0  0  0  0  0  0  0  0  0  0  0
   -0.3273   17.9761  -29.4345 H   0  0  0  0  0  0  0  0  0  0  0  0
    0.9578   19.2221  -29.6674 H   0  0  0  0  0  0  0  0  0  0  0  0
   -0.7440   20.9050  -28.7800 H   0  0  0  0  0  0  0  0  0  0  0  0
   -3.0738   20.1961  -26.7032 H   0  0  0  0  0  0  0  0  0  0  0  0
   -1.8482   19.8765  -25.4071 H   0  0  0  0  0  0  0  0  0  0  0  0
   -1.8198   22.2178  -25.5850 H   0  0  0  0  0  0  0  0  0  0  0  0
    1.4408   22.9584  -26.9756 H   0  0  0  0  0  0  0  0  0  0  0  0
    1.7744   23.2622  -24.8017 H   0  0  0  0  0  0  0  0  0  0  0  0
    0.3651   24.4047  -24.8603 H   0  0  0  0  0  0  0  0  0  0  0  0
   -0.1610   21.6740  -24.6000 H   0  0  0  0  0  0  0  0  0  0  0  0
   -0.9202   24.7080  -26.6162 H   0  0  0  0  0  0  0  0  0  0  0  0
    0.2200   25.2860  -28.7650 H   0  0  0  0  0  0  0  0  0  0  0  0
   -0.5859   22.8664  -29.0497 H   0  0  0  0  0  0  0  0  0  0  0  0
   -2.7800   24.0730  -29.3040 H   0  0  0  0  0  0  0  0  0  0  0  0
   -3.0165   23.0998  -27.1915 H   0  0  0  0  0  0  0  0  0  0  0  0
   -2.2550   21.7820  -29.4920 H   0  0  0  0  0  0  0  0  0  0  0  0
  1  2  1  0
  2  3  2  0
  2  4  1  0
  4  5  2  0
  5  6  1  0
  6  7  2  0
  7  8  1  0
  8  9  2  0
  9 10  1  0
 10 11  1  0
 10 12  1  0
 10 13  1  0
  9 14  1  0
 14 15  2  0
 15 16  1  0
 16 17  1  0
 17 18  2  0
 17 19  1  0
 19 20  1  0
 20 21  1  0
 21 22  1  0
 22 23  1  0
 23 24  1  0
 24 25  2  0
 24 26  1  0
 26 27  1  0
 27 28  1  0
 28 29  1  0
 29 30  1  0
 30 31  1  0
 29 32  1  0
 32 33  1  0
 32 34  1  0
 34 35  1  0
 34 36  1  0
 36 37  1  0
 16  4  1  0
 36 27  1  0
 15  6  1  0
  1 38  1  0
  5 39  1  0
  7 40  1  0
  8 41  1  0
 14 42  1  0
 19 43  1  0
 19 44  1  0
 21 45  1  0
 21 46  1  0
 22 47  1  0
 22 48  1  0
 23 49  1  0
 26 50  1  0
 26 51  1  0
 27 52  1  1
 29 53  1  6
 30 54  1  0
 30 55  1  0
 31 56  1  0
 32 57  1  1
 33 58  1  0
 34 59  1  6
 35 60  1  0
 36 61  1  1
 37 62  1  0
M  CHG  1   1  -1
M  END
>  <UniqueID>  (43) 
43

>  <SMILES>  (43) 
[NH-]C(=O)c1cc2ccc(C(F)(F)F)cc2n1C(=O)COCCNC(=O)C[C@H]1O[C@H](CO)[C@@H](O)[C@H](O)[C@H]1O

>  <Energy>  (43) 
110.29836908792048

>  <Genealogy>  (43) 
[NH-]C(=O)c1cc2ccc(C(F)(F)F)cc2n1C(=O)COCCNC(=O)C[C@H]1O[C@H](CO)[C@@H](O)[C@H](O)[C@H]1O (protonated)
[NH-]C(=O)c1cc2ccc(C(F)(F)F)cc2n1C(=O)COCCNC(=O)C[C@H]1O[C@H](CO)[C@@H](O)[C@H](O)[C@H]1O (3D coordinates assigned)
[NH-]C(=O)c1cc2ccc(C(F)(F)F)cc2n1C(=O)COCCNC(=O)C[C@H]1O[C@H](CO)[C@@H](O)[C@H](O)[C@H]1O (nonaromatic ring conformer: 110.29836908792048 kcal/mol)

>  <smiles>  (43) 
NC(=O)c1cc2ccc(C(F)(F)F)cc2n1C(=O)COCCNC(=O)C[C@H]1O[C@H](CO)[C@@H](O)[C@H](O)[C@H]1O

>  <score_type>  (43) 
oracle

>  <origin>  (43) 
adg

>  <m_score__min__energy>  (43) 
-10.73

>  <m_primary>  (43) 
energy

$$$$
43:0
     RDKit          3D

 56 58  0  0  0  0  0  0  0  0999 V2000
   -3.1300   24.9860  -30.5160 H   0  0  0  0  0  0  0  0  0  0  0  0
   -3.9720   25.5110  -30.8470 N   0  0  0  0  0  0  0  0  0  0  0  0
   -5.2690   25.1330  -30.3840 C   0  0  0  0  0  0  0  0  0  0  0  0
   -5.8410   25.8060  -29.4810 O   0  0  0  0  0  0  0  0  0  0  0  0
   -5.9280   23.9570  -30.9590 C   0  0  0  0  0  0  0  0  0  0  0  0
   -7.2730   23.9450  -31.3140 C   0  0  0  0  0  0  0  0  0  0  0  0
   -7.9645   24.8000  -31.3414 H   0  0  0  0  0  0  0  0  0  0  0  0
   -7.5520   22.6360  -31.6230 C   0  0  0  0  0  0  0  0  0  0  0  0
   -8.7560   22.0450  -31.9820 C   0  0  0  0  0  0  0  0  0  0  0  0
   -9.6691   22.6464  -32.1028 H   0  0  0  0  0  0  0  0  0  0  0  0
   -8.7720   20.6560  -32.1860 C   0  0  0  0  0  0  0  0  0  0  0  0
   -9.7130   20.1572  -32.4611 H   0  0  0  0  0  0  0  0  0  0  0  0
   -7.5860   19.8880  -32.0410 C   0  0  0  0  0  0  0  0  0  0  0  0
   -7.6420   18.3950  -32.1960 C   0  0  0  0  0  0  0  0  0  0  0  0
   -7.6597   17.9236  -31.2023 H   0  0  0  0  0  0  0  0  0  0  0  0
   -8.5512   18.1177  -32.7496 H   0  0  0  0  0  0  0  0  0  0  0  0
   -6.7562   18.0504  -32.7496 H   0  0  0  0  0  0  0  0  0  0  0  0
   -6.3810   20.5210  -31.6720 C   0  0  0  0  0  0  0  0  0  0  0  0
   -5.4549   19.9400  -31.5503 H   0  0  0  0  0  0  0  0  0  0  0  0
   -6.3900   21.9060  -31.4640 C   0  0  0  0  0  0  0  0  0  0  0  0
   -5.3760   22.7140  -31.0680 N   0  0  0  0  0  0  0  0  0  0  0  0
   -3.9950   22.3430  -30.8240 C   0  0  0  0  0  0  0  0  0  0  0  0
   -3.0710   22.9780  -31.4030 O   0  0  0  0  0  0  0  0  0  0  0  0
   -3.6450   21.2910  -29.8370 C   0  0  0  0  0  0  0  0  0  0  0  0
   -3.6266   20.2548  -30.2056 H   0  0  0  0  0  0  0  0  0  0  0  0
   -3.3480   21.4750  -28.5380 C   0  0  0  0  0  0  0  0  0  0  0  0
   -3.0536   20.5840  -27.9641 H   0  0  0  0  0  0  0  0  0  0  0  0
   -3.3800   22.7880  -27.7920 C   0  0  0  0  0  0  0  0  0  0  0  0
   -2.7612   22.7027  -26.8865 H   0  0  0  0  0  0  0  0  0  0  0  0
   -4.4228   23.0149  -27.5254 H   0  0  0  0  0  0  0  0  0  0  0  0
   -2.8600   23.8830  -28.6300 N   0  0  0  0  0  0  0  0  0  0  0  0
   -3.6610   24.2430  -29.2110 H   0  0  0  0  0  0  0  0  0  0  0  0
   -2.3530   25.0090  -27.8260 C   0  0  0  0  0  0  0  0  0  0  0  0
   -2.2529   24.6823  -26.7804 H   0  0  0  0  0  0  0  0  0  0  0  0
   -3.0678   25.8402  -27.9160 H   0  0  0  0  0  0  0  0  0  0  0  0
   -1.0160   25.4910  -28.3140 C   0  0  0  0  0  0  0  0  0  0  0  0
   -0.8780   26.7180  -28.5860 O   0  0  0  0  0  0  0  0  0  0  0  0
    0.1080   24.6010  -28.3850 N   0  0  0  0  0  0  0  0  0  0  0  0
    0.0730   23.1730  -28.5470 C   0  0  0  0  0  0  0  0  0  0  0  0
   -0.3310   22.5720  -29.7570 C   0  0  0  0  0  0  0  0  0  0  0  0
   -0.6153   23.2049  -30.6106 H   0  0  0  0  0  0  0  0  0  0  0  0
   -0.3740   21.1840  -29.8830 C   0  0  0  0  0  0  0  0  0  0  0  0
   -0.6763   20.7277  -30.8372 H   0  0  0  0  0  0  0  0  0  0  0  0
   -0.0340   20.3740  -28.8000 C   0  0  0  0  0  0  0  0  0  0  0  0
   -0.0591   19.2792  -28.9036 H   0  0  0  0  0  0  0  0  0  0  0  0
    0.3390   20.9520  -27.5820 C   0  0  0  0  0  0  0  0  0  0  0  0
    0.5967   20.3082  -26.7282 H   0  0  0  0  0  0  0  0  0  0  0  0
    0.3870   22.3550  -27.4410 C   0  0  0  0  0  0  0  0  0  0  0  0
    0.7470   22.9800  -26.2300 O   0  0  0  0  0  0  0  0  0  0  0  0
   -0.0750   23.0780  -25.0670 C   0  0  0  0  0  0  0  0  0  0  0  0
    0.4774   22.6836  -24.2013 H   0  0  0  0  0  0  0  0  0  0  0  0
   -0.9927   22.4953  -25.2352 H   0  0  0  0  0  0  0  0  0  0  0  0
   -0.4620   24.5290  -24.7940 C   0  0  0  0  0  0  0  0  0  0  0  0
   -0.5072   24.6983  -23.7081 H   0  0  0  0  0  0  0  0  0  0  0  0
    0.2889   25.1986  -25.2386 H   0  0  0  0  0  0  0  0  0  0  0  0
   -1.4467   24.7357  -25.2386 H   0  0  0  0  0  0  0  0  0  0  0  0
  1  2  1  0
  2  3  1  0
  3  4  2  0
  3  5  1  0
  5  6  2  0
  6  7  1  0
  6  8  1  0
  8  9  2  0
  9 10  1  0
  9 11  1  0
 11 12  1  0
 11 13  2  0
 13 14  1  0
 14 15  1  0
 14 16  1  0
 14 17  1  0
 13 18  1  0
 18 19  1  0
 18 20  2  0
 20 21  1  0
 21 22  1  0
 22 23  2  0
 22 24  1  0
 24 25  1  0
 24 26  2  0
 26 27  1  0
 26 28  1  0
 28 29  1  0
 28 30  1  0
 28 31  1  0
 31 32  1  0
 31 33  1  0
 33 34  1  0
 33 35  1  0
 33 36  1  0
 36 37  2  0
 36 38  1  0
 38 39  1  0
 39 40  2  0
 40 41  1  0
 40 42  1  0
 42 43  1  0
 42 44  2  0
 44 45  1  0
 44 46  1  0
 46 47  1  0
 46 48  2  0
 48 49  1  0
 49 50  1  0
 50 51  1  0
 50 52  1  0
 50 53  1  0
 53 54  1  0
 53 55  1  0
 53 56  1  0
 21  5  1  0
 48 39  1  0
 20  8  1  0
M  CHG  2   2  -1  38  -1
M  END
>  <UniqueID>  (44) 
44

>  <SMILES>  (44) 
CCOc1ccccc1[N-]C(=O)CNC/C=C\C(=O)n1c(C([NH-])=O)cc2ccc(C)cc21

>  <Energy>  (44) 
101.26394449849778

>  <Genealogy>  (44) 
CCOc1ccccc1[N-]C(=O)CNCC=CC(=O)n1c(C([NH-])=O)cc2ccc(C)cc21 (protonated)
CCOc1ccccc1[N-]C(=O)CNC/C=C\C(=O)n1c(C([NH-])=O)cc2ccc(C)cc21 (cis-trans isomerization)
CCOc1ccccc1[N-]C(=O)CNC/C=C\C(=O)n1c(C([NH-])=O)cc2ccc(C)cc21 (3D coordinates assigned)
CCOc1ccccc1[N-]C(=O)CNC/C=C\C(=O)n1c(C([NH-])=O)cc2ccc(C)cc21 (optimized conformer: 101.26394449849778 kcal/mol)

>  <smiles>  (44) 
CCOc1ccccc1NC(=O)CNCC=CC(=O)n1c(C(N)=O)cc2ccc(C)cc21

>  <score_type>  (44) 
oracle

>  <origin>  (44) 
adg

>  <m_score__min__energy>  (44) 
-12.42

>  <m_primary>  (44) 
energy

$$$$
44:0
     RDKit          3D

 54 56  0  0  0  0  0  0  0  0999 V2000
   -6.7680   18.4090  -32.7200 C   0  0  0  0  0  0  0  0  0  0  0  0
   -6.9430   19.8450  -32.3280 C   0  0  0  0  0  0  0  0  0  0  0  0
   -8.2280   20.4420  -32.3560 C   0  0  0  0  0  0  0  0  0  0  0  0
   -8.3970   21.7940  -32.0080 C   0  0  0  0  0  0  0  0  0  0  0  0
   -7.2660   22.5230  -31.6530 C   0  0  0  0  0  0  0  0  0  0  0  0
   -7.1480   23.8260  -31.2280 C   0  0  0  0  0  0  0  0  0  0  0  0
   -5.7930   24.0020  -30.9570 C   0  0  0  0  0  0  0  0  0  0  0  0
   -5.2050   25.2810  -30.5290 C   0  0  0  0  0  0  0  0  0  0  0  0
   -3.8640   25.6160  -30.8840 N   0  0  0  0  0  0  0  0  0  0  0  0
   -5.9020   26.1060  -29.8810 O   0  0  0  0  0  0  0  0  0  0  0  0
   -5.1020   22.8530  -31.1910 N   0  0  0  0  0  0  0  0  0  0  0  0
   -3.7480   22.5450  -30.8110 C   0  0  0  0  0  0  0  0  0  0  0  0
   -3.2030   23.1960  -29.8810 O   0  0  0  0  0  0  0  0  0  0  0  0
   -2.9570   21.4700  -31.5190 C   0  0  0  0  0  0  0  0  0  0  0  0
   -1.4620   21.4820  -31.1520 C   0  0  0  0  0  0  0  0  0  0  0  0
   -1.2170   21.0000  -29.7130 C   0  0  0  0  0  0  0  0  0  0  0  0
   -1.2800   22.0520  -28.6590 N   0  0  1  0  0  0  0  0  0  0  0  0
   -1.3290   21.5360  -27.2600 C   0  0  0  0  0  0  0  0  0  0  0  0
   -0.3640   22.1650  -26.2370 C   0  0  0  0  0  0  0  0  0  0  0  0
   -0.7640   23.5990  -25.8540 C   0  0  0  0  0  0  0  0  0  0  0  0
   -1.6630   24.2890  -26.8900 C   0  0  0  0  0  0  0  0  0  0  0  0
   -0.9750   24.5880  -28.2350 C   0  0  2  0  0  0  0  0  0  0  0  0
   -1.9100   25.3080  -29.1030 N   0  0  0  0  0  0  0  0  0  0  0  0
   -0.4990   23.2900  -28.9440 C   0  0  0  0  0  0  0  0  0  0  0  0
   -6.0140   21.9610  -31.6320 C   0  0  0  0  0  0  0  0  0  0  0  0
   -5.8200   20.6180  -31.9680 C   0  0  0  0  0  0  0  0  0  0  0  0
   -6.6924   17.7884  -31.8149 H   0  0  0  0  0  0  0  0  0  0  0  0
   -7.6331   18.0837  -33.3164 H   0  0  0  0  0  0  0  0  0  0  0  0
   -5.8500   18.3010  -33.3164 H   0  0  0  0  0  0  0  0  0  0  0  0
   -9.1012   19.8424  -32.6526 H   0  0  0  0  0  0  0  0  0  0  0  0
   -9.3929   22.2611  -32.0161 H   0  0  0  0  0  0  0  0  0  0  0  0
   -7.9517   24.5698  -31.1243 H   0  0  0  0  0  0  0  0  0  0  0  0
   -3.0550   25.2930  -30.3110 H   0  0  0  0  0  0  0  0  0  0  0  0
   -3.3766   20.4901  -31.2476 H   0  0  0  0  0  0  0  0  0  0  0  0
   -3.0319   21.6642  -32.5991 H   0  0  0  0  0  0  0  0  0  0  0  0
   -0.9212   20.8205  -31.8448 H   0  0  0  0  0  0  0  0  0  0  0  0
   -1.1023   22.5187  -31.2283 H   0  0  0  0  0  0  0  0  0  0  0  0
   -1.9763   20.2398  -29.4774 H   0  0  0  0  0  0  0  0  0  0  0  0
   -0.1848   20.6201  -29.6959 H   0  0  0  0  0  0  0  0  0  0  0  0
   -2.2620   22.3970  -28.7970 H   0  0  0  0  0  0  0  0  0  0  0  0
   -2.3521   21.6913  -26.8869 H   0  0  0  0  0  0  0  0  0  0  0  0
   -1.0113   20.4857  -27.3368 H   0  0  0  0  0  0  0  0  0  0  0  0
   -0.3604   21.5452  -25.3282 H   0  0  0  0  0  0  0  0  0  0  0  0
    0.6324   22.2088  -26.7009 H   0  0  0  0  0  0  0  0  0  0  0  0
   -1.3026   23.5646  -24.8955 H   0  0  0  0  0  0  0  0  0  0  0  0
    0.1646   24.1856  -25.7942 H   0  0  0  0  0  0  0  0  0  0  0  0
   -2.5271   23.6365  -27.0838 H   0  0  0  0  0  0  0  0  0  0  0  0
   -1.9457   25.2614  -26.4604 H   0  0  0  0  0  0  0  0  0  0  0  0
   -0.0852   25.2029  -28.0345 H   0  0  0  0  0  0  0  0  0  0  0  0
   -2.8830   25.0990  -28.7820 H   0  0  0  0  0  0  0  0  0  0  0  0
   -1.8400   24.9120  -30.0710 H   0  0  0  0  0  0  0  0  0  0  0  0
   -0.5386   23.4679  -30.0288 H   0  0  0  0  0  0  0  0  0  0  0  0
    0.5093   23.0956  -28.5496 H   0  0  0  0  0  0  0  0  0  0  0  0
   -4.8137   20.1741  -31.9519 H   0  0  0  0  0  0  0  0  0  0  0  0
  1  2  1  0
  2  3  2  0
  3  4  1  0
  4  5  2  0
  5  6  1  0
  6  7  2  0
  7  8  1  0
  8  9  1  0
  8 10  2  0
  7 11  1  0
 11 12  1  0
 12 13  2  0
 12 14  1  0
 14 15  1  0
 15 16  1  0
 16 17  1  0
 17 18  1  0
 18 19  1  0
 19 20  1  0
 20 21  1  0
 21 22  1  0
 22 23  1  0
 22 24  1  0
 11 25  1  0
 25 26  2  0
 26  2  1  0
 25  5  1  0
 24 17  1  0
  1 27  1  0
  1 28  1  0
  1 29  1  0
  3 30  1  0
  4 31  1  0
  6 32  1  0
  9 33  1  0
 14 34  1  0
 14 35  1  0
 15 36  1  0
 15 37  1  0
 16 38  1  0
 16 39  1  0
 17 40  1  6
 18 41  1  0
 18 42  1  0
 19 43  1  0
 19 44  1  0
 20 45  1  0
 20 46  1  0
 21 47  1  0
 21 48  1  0
 22 49  1  1
 23 50  1  0
 23 51  1  0
 24 52  1  0
 24 53  1  0
 26 54  1  0
M  CHG  2   9  -1  17   1
M  END
>  <UniqueID>  (45) 
45

>  <SMILES>  (45) 
Cc1ccc2cc(C([NH-])=O)n(C(=O)CCC[N@H+]3CCCC[C@H](N)C3)c2c1

>  <Energy>  (45) 
112.71662141194294

>  <Genealogy>  (45) 
Cc1ccc2cc(C([NH-])=O)n(C(=O)CCC[NH+]3CCCCC(N)C3)c2c1 (protonated)
Cc1ccc2cc(C([NH-])=O)n(C(=O)CCC[N@H+]3CCCC[C@H](N)C3)c2c1 (chirality)
Cc1ccc2cc(C([NH-])=O)n(C(=O)CCC[N@H+]3CCCC[C@H](N)C3)c2c1 (3D coordinates assigned)
Cc1ccc2cc(C([NH-])=O)n(C(=O)CCC[N@H+]3CCCC[C@H](N)C3)c2c1 (nonaromatic ring conformer: 112.71662141194294 kcal/mol)

>  <smiles>  (45) 
Cc1ccc2cc(C(N)=O)n(C(=O)CCCN3CCCCC(N)C3)c2c1

>  <score_type>  (45) 
oracle

>  <origin>  (45) 
adg

>  <m_score__min__energy>  (45) 
-8.3599999999999994

>  <m_primary>  (45) 
energy

$$$$
45:0
     RDKit          3D

 46 47  0  0  0  0  0  0  0  0999 V2000
   -4.1270   24.4920  -27.2490 C   0  0  0  0  0  0  0  0  0  0  0  0
   -2.8420   23.9890  -27.7660 N   0  0  1  0  0  0  0  0  0  0  0  0
   -1.6640   24.5380  -27.0530 C   0  0  0  0  0  0  0  0  0  0  0  0
   -0.8230   25.5520  -27.8550 C   0  0  0  0  0  0  0  0  0  0  0  0
   -1.5430   26.0100  -28.9660 O   0  0  0  0  0  0  0  0  0  0  0  0
   -2.8180   22.5390  -27.8210 C   0  0  0  0  0  0  0  0  0  0  0  0
   -2.3020   21.8900  -26.9190 O   0  0  0  0  0  0  0  0  0  0  0  0
   -3.4980   21.8130  -28.9560 C   0  0  0  0  0  0  0  0  0  0  0  0
   -2.9560   22.2310  -30.2590 N   0  0  0  0  0  0  0  0  0  0  0  0
   -1.5630   22.5860  -30.3620 C   0  0  0  0  0  0  0  0  0  0  0  0
   -1.1750   23.7550  -30.0990 O   0  0  0  0  0  0  0  0  0  0  0  0
   -0.6240   21.6440  -30.7690 O   0  0  0  0  0  0  0  0  0  0  0  0
   -3.8470   22.4310  -31.3790 C   0  0  0  0  0  0  0  0  0  0  0  0
   -3.4220   22.2910  -32.5580 O   0  0  0  0  0  0  0  0  0  0  0  0
   -5.2190   22.8040  -31.1740 N   0  0  0  0  0  0  0  0  0  0  0  0
   -5.7110   24.0380  -30.8710 C   0  0  0  0  0  0  0  0  0  0  0  0
   -4.9030   25.2360  -30.5630 C   0  0  0  0  0  0  0  0  0  0  0  0
   -3.5850   25.0890  -30.0390 N   0  0  0  0  0  0  0  0  0  0  0  0
   -5.3530   26.3930  -30.7770 O   0  0  0  0  0  0  0  0  0  0  0  0
   -7.1040   24.0070  -30.8220 C   0  0  0  0  0  0  0  0  0  0  0  0
   -7.4500   22.7060  -31.1150 C   0  0  0  0  0  0  0  0  0  0  0  0
   -8.7030   22.1120  -31.2180 C   0  0  0  0  0  0  0  0  0  0  0  0
   -8.7610   20.7500  -31.5590 C   0  0  0  0  0  0  0  0  0  0  0  0
   -7.5730   20.0050  -31.7760 C   0  0  0  0  0  0  0  0  0  0  0  0
   -7.6480   18.5580  -32.1900 C   0  0  0  0  0  0  0  0  0  0  0  0
   -7.2190   18.4000  -33.4970 F   0  0  0  0  0  0  0  0  0  0  0  0
   -6.8510   17.7730  -31.3760 F   0  0  0  0  0  0  0  0  0  0  0  0
   -8.9570   18.1250  -32.0900 F   0  0  0  0  0  0  0  0  0  0  0  0
   -6.3190   20.6530  -31.6830 C   0  0  0  0  0  0  0  0  0  0  0  0
   -6.2940   22.0040  -31.3300 C   0  0  0  0  0  0  0  0  0  0  0  0
   -4.1079   24.4845  -26.1492 H   0  0  0  0  0  0  0  0  0  0  0  0
   -4.2888   25.5198  -27.6059 H   0  0  0  0  0  0  0  0  0  0  0  0
   -4.9435   23.8471  -27.6059 H   0  0  0  0  0  0  0  0  0  0  0  0
   -2.7730   24.3440  -28.7500 H   0  0  0  0  0  0  0  0  0  0  0  0
   -2.0214   25.0386  -26.1410 H   0  0  0  0  0  0  0  0  0  0  0  0
   -1.0018   23.6823  -26.8548 H   0  0  0  0  0  0  0  0  0  0  0  0
   -0.5708   26.4058  -27.2089 H   0  0  0  0  0  0  0  0  0  0  0  0
    0.0963   25.0584  -28.2031 H   0  0  0  0  0  0  0  0  0  0  0  0
   -1.4750   25.2950  -29.6500 H   0  0  0  0  0  0  0  0  0  0  0  0
   -3.3424   20.7310  -28.8336 H   0  0  0  0  0  0  0  0  0  0  0  0
   -4.5703   22.0571  -28.9315 H   0  0  0  0  0  0  0  0  0  0  0  0
   -2.7470   25.2770  -30.6320 H   0  0  0  0  0  0  0  0  0  0  0  0
   -7.7824   24.8432  -30.5973 H   0  0  0  0  0  0  0  0  0  0  0  0
   -9.6210   22.6907  -31.0380 H   0  0  0  0  0  0  0  0  0  0  0  0
   -9.7386   20.2557  -31.6589 H   0  0  0  0  0  0  0  0  0  0  0  0
   -5.3860   20.1060  -31.8839 H   0  0  0  0  0  0  0  0  0  0  0  0
  1  2  1  0
  2  3  1  0
  3  4  1  0
  4  5  1  0
  2  6  1  0
  6  7  2  0
  6  8  1  0
  8  9  1  0
  9 10  1  0
 10 11  2  0
 10 12  1  0
  9 13  1  0
 13 14  2  0
 13 15  1  0
 15 16  1  0
 16 17  1  0
 17 18  1  0
 17 19  2  0
 16 20  2  0
 20 21  1  0
 21 22  2  0
 22 23  1  0
 23 24  2  0
 24 25  1  0
 25 26  1  0
 25 27  1  0
 25 28  1  0
 24 29  1  0
 29 30  2  0
 30 15  1  0
 30 21  1  0
  1 31  1  0
  1 32  1  0
  1 33  1  0
  2 34  1  6
  3 35  1  0
  3 36  1  0
  4 37  1  0
  4 38  1  0
  5 39  1  0
  8 40  1  0
  8 41  1  0
 18 42  1  0
 20 43  1  0
 22 44  1  0
 23 45  1  0
 29 46  1  0
M  CHG  3   2   1  12  -1  18  -1
M  END
>  <UniqueID>  (46) 
46

>  <SMILES>  (46) 
C[N@@H+](CCO)C(=O)CN(C(=O)[O-])C(=O)n1c(C([NH-])=O)cc2ccc(C(F)(F)F)cc21

>  <Energy>  (46) 
88.37105484334569

>  <Genealogy>  (46) 
C[NH+](CCO)C(=O)CN(C(=O)[O-])C(=O)n1c(C([NH-])=O)cc2ccc(C(F)(F)F)cc21 (protonated)
C[N@@H+](CCO)C(=O)CN(C(=O)[O-])C(=O)n1c(C([NH-])=O)cc2ccc(C(F)(F)F)cc21 (chirality)
C[N@@H+](CCO)C(=O)CN(C(=O)[O-])C(=O)n1c(C([NH-])=O)cc2ccc(C(F)(F)F)cc21 (3D coordinates assigned)
C[N@@H+](CCO)C(=O)CN(C(=O)[O-])C(=O)n1c(C([NH-])=O)cc2ccc(C(F)(F)F)cc21 (optimized conformer: 88.37105484334569 kcal/mol)

>  <smiles>  (46) 
CN(CCO)C(=O)CN(C(=O)O)C(=O)n1c(C(N)=O)cc2ccc(C(F)(F)F)cc21

>  <score_type>  (46) 
oracle

>  <origin>  (46) 
adg

>  <m_score__min__energy>  (46) 
-9.4499999999999993

>  <m_primary>  (46) 
energy

$$$$
46:0
     RDKit          3D

 37 38  0  0  0  0  0  0  0  0999 V2000
   -6.6220   18.0350  -32.3120 C   0  0  0  0  0  0  0  0  0  0  0  0
   -6.7910   19.4960  -32.0180 C   0  0  0  0  0  0  0  0  0  0  0  0
   -8.0470   20.1200  -32.2210 C   0  0  0  0  0  0  0  0  0  0  0  0
   -8.2100   21.4950  -31.9790 C   0  0  0  0  0  0  0  0  0  0  0  0
   -7.1000   22.2190  -31.5520 C   0  0  0  0  0  0  0  0  0  0  0  0
   -6.9760   23.5540  -31.2380 C   0  0  0  0  0  0  0  0  0  0  0  0
   -5.6400   23.7250  -30.8790 C   0  0  0  0  0  0  0  0  0  0  0  0
   -5.0450   25.0330  -30.5400 C   0  0  0  0  0  0  0  0  0  0  0  0
   -3.6730   25.2880  -30.8370 N   0  0  0  0  0  0  0  0  0  0  0  0
   -5.7280   25.9220  -29.9660 O   0  0  0  0  0  0  0  0  0  0  0  0
   -4.9690   22.5430  -30.9620 N   0  0  0  0  0  0  0  0  0  0  0  0
   -3.5990   22.2740  -30.6290 C   0  0  0  0  0  0  0  0  0  0  0  0
   -2.7410   22.2090  -31.5510 O   0  0  0  0  0  0  0  0  0  0  0  0
   -3.2180   21.9240  -29.2150 C   0  0  0  0  0  0  0  0  0  0  0  0
   -3.5110   23.0590  -28.2160 C   0  0  0  0  0  0  0  0  0  0  0  0
   -2.2480   23.6160  -27.5340 C   0  0  0  0  0  0  0  0  0  0  0  0
   -1.1390   24.4630  -28.7110 P   0  0  2  0  0  0  0  0  0  0  0  0
    0.2600   24.4870  -28.1380 O   0  0  0  0  0  0  0  0  0  0  0  0
   -1.6520   26.0530  -28.9700 O   0  0  0  0  0  0  0  0  0  0  0  0
   -1.1230   23.6360  -30.1870 O   0  0  0  0  0  0  0  0  0  0  0  0
   -5.8740   21.6320  -31.3790 C   0  0  0  0  0  0  0  0  0  0  0  0
   -5.6830   20.2650  -31.6020 C   0  0  0  0  0  0  0  0  0  0  0  0
   -6.5573   17.4759  -31.3669 H   0  0  0  0  0  0  0  0  0  0  0  0
   -7.4846   17.6756  -32.8924 H   0  0  0  0  0  0  0  0  0  0  0  0
   -5.7002   17.8820  -32.8924 H   0  0  0  0  0  0  0  0  0  0  0  0
   -8.9020   19.5230  -32.5711 H   0  0  0  0  0  0  0  0  0  0  0  0
   -9.1848   21.9841  -32.1226 H   0  0  0  0  0  0  0  0  0  0  0  0
   -7.7633   24.3217  -31.2648 H   0  0  0  0  0  0  0  0  0  0  0  0
   -2.9120   24.8630  -30.2630 H   0  0  0  0  0  0  0  0  0  0  0  0
   -3.7852   21.0324  -28.9093 H   0  0  0  0  0  0  0  0  0  0  0  0
   -2.1329   21.7442  -29.2008 H   0  0  0  0  0  0  0  0  0  0  0  0
   -4.0060   23.8795  -28.7561 H   0  0  0  0  0  0  0  0  0  0  0  0
   -4.1480   22.6377  -27.4243 H   0  0  0  0  0  0  0  0  0  0  0  0
   -2.5527   24.3327  -26.7572 H   0  0  0  0  0  0  0  0  0  0  0  0
   -1.6962   22.7669  -27.1043 H   0  0  0  0  0  0  0  0  0  0  0  0
   -1.8990   23.9940  -30.6880 H   0  0  0  0  0  0  0  0  0  0  0  0
   -4.6960   19.8014  -31.4572 H   0  0  0  0  0  0  0  0  0  0  0  0
  1  2  1  0
  2  3  2  0
  3  4  1  0
  4  5  2  0
  5  6  1  0
  6  7  2  0
  7  8  1  0
  8  9  1  0
  8 10  2  0
  7 11  1  0
 11 12  1  0
 12 13  2  0
 12 14  1  0
 14 15  1  0
 15 16  1  0
 16 17  1  0
 17 18  2  0
 17 19  1  6
 17 20  1  0
 11 21  1  0
 21 22  2  0
 22  2  1  0
 21  5  1  0
  1 23  1  0
  1 24  1  0
  1 25  1  0
  3 26  1  0
  4 27  1  0
  6 28  1  0
  9 29  1  0
 14 30  1  0
 14 31  1  0
 15 32  1  0
 15 33  1  0
 16 34  1  0
 16 35  1  0
 20 36  1  0
 22 37  1  0
M  CHG  2   9  -1  19  -1
M  END
>  <UniqueID>  (47) 
47

>  <SMILES>  (47) 
Cc1ccc2cc(C([NH-])=O)n(C(=O)CCC[P@](=O)([O-])O)c2c1

>  <Energy>  (47) 
70.31649518582786

>  <Genealogy>  (47) 
Cc1ccc2cc(C([NH-])=O)n(C(=O)CCCP(=O)([O-])O)c2c1 (protonated)
Cc1ccc2cc(C([NH-])=O)n(C(=O)CCC[P@](=O)([O-])O)c2c1 (chirality)
Cc1ccc2cc(C([NH-])=O)n(C(=O)CCC[P@](=O)([O-])O)c2c1 (3D coordinates assigned)
Cc1ccc2cc(C([NH-])=O)n(C(=O)CCC[P@](=O)([O-])O)c2c1 (optimized conformer: 70.31649518582786 kcal/mol)

>  <smiles>  (47) 
Cc1ccc2cc(C(N)=O)n(C(=O)CCCP(=O)(O)O)c2c1

>  <score_type>  (47) 
oracle

>  <origin>  (47) 
adg

>  <m_score__min__energy>  (47) 
-12.42

>  <m_primary>  (47) 
energy

$$$$
47:0
     RDKit          3D

 61 62  0  0  0  0  0  0  0  0999 V2000
   -0.4240   29.2060  -26.1870 C   0  0  0  0  0  0  0  0  0  0  0  0
   -1.1680   28.6490  -25.1240 O   0  0  0  0  0  0  0  0  0  0  0  0
   -0.4070   27.6750  -24.4340 C   0  0  0  0  0  0  0  0  0  0  0  0
   -1.1280   26.3250  -24.4380 C   0  0  0  0  0  0  0  0  0  0  0  0
   -0.7880   25.6260  -25.6190 O   0  0  0  0  0  0  0  0  0  0  0  0
   -1.6210   26.0220  -26.6840 C   0  0  0  0  0  0  0  0  0  0  0  0
   -0.9730   25.5710  -27.9480 C   0  0  0  0  0  0  0  0  0  0  0  0
   -1.5900   25.6760  -29.0440 O   0  0  0  0  0  0  0  0  0  0  0  0
    0.3920   25.1510  -27.9240 N   0  0  0  0  0  0  0  0  0  0  0  0
    0.7930   23.8350  -27.4440 C   0  0  0  0  0  0  0  0  0  0  0  0
   -0.4550   22.9780  -27.2220 C   0  0  0  0  0  0  0  0  0  0  0  0
   -0.9300   22.3030  -28.5280 C   0  0  0  0  0  0  0  0  0  0  0  0
   -2.4030   22.2870  -28.7050 N   0  0  0  0  0  0  0  0  0  0  0  0
   -3.1120   22.8320  -27.5340 C   0  0  0  0  0  0  0  0  0  0  0  0
   -2.9590   20.9800  -29.1260 C   0  0  0  0  0  0  0  0  0  0  0  0
   -3.4110   21.0320  -30.5920 C   0  0  0  0  0  0  0  0  0  0  0  0
   -3.8590   22.4130  -30.9910 C   0  0  0  0  0  0  0  0  0  0  0  0
   -3.0070   23.2850  -31.3100 O   0  0  0  0  0  0  0  0  0  0  0  0
   -5.2570   22.7210  -31.1020 N   0  0  0  0  0  0  0  0  0  0  0  0
   -5.8880   23.8690  -30.7420 C   0  0  0  0  0  0  0  0  0  0  0  0
   -5.2330   25.0890  -30.2260 C   0  0  0  0  0  0  0  0  0  0  0  0
   -4.0470   25.6000  -30.8290 N   0  0  0  0  0  0  0  0  0  0  0  0
   -5.7470   25.7140  -29.2610 O   0  0  0  0  0  0  0  0  0  0  0  0
   -7.2600   23.7620  -30.9650 C   0  0  0  0  0  0  0  0  0  0  0  0
   -7.4490   22.5020  -31.4780 C   0  0  0  0  0  0  0  0  0  0  0  0
   -8.6170   21.8630  -31.8850 C   0  0  0  0  0  0  0  0  0  0  0  0
   -8.5110   20.5480  -32.3750 C   0  0  0  0  0  0  0  0  0  0  0  0
   -7.2520   19.9010  -32.4420 C   0  0  0  0  0  0  0  0  0  0  0  0
   -7.1620   18.5020  -32.9740 C   0  0  0  0  0  0  0  0  0  0  0  0
   -6.0900   20.5750  -32.0050 C   0  0  0  0  0  0  0  0  0  0  0  0
   -6.2230   21.8920  -31.5460 C   0  0  0  0  0  0  0  0  0  0  0  0
    0.3942   29.8186  -25.7804 H   0  0  0  0  0  0  0  0  0  0  0  0
   -0.0050   28.3977  -26.8044 H   0  0  0  0  0  0  0  0  0  0  0  0
   -1.0816   29.8357  -26.8044 H   0  0  0  0  0  0  0  0  0  0  0  0
    0.5702   27.5642  -24.9267 H   0  0  0  0  0  0  0  0  0  0  0  0
   -0.2734   28.0023  -23.3924 H   0  0  0  0  0  0  0  0  0  0  0  0
   -0.8184   25.7388  -23.5602 H   0  0  0  0  0  0  0  0  0  0  0  0
   -2.2158   26.4841  -24.4000 H   0  0  0  0  0  0  0  0  0  0  0  0
   -2.6110   25.5537  -26.5812 H   0  0  0  0  0  0  0  0  0  0  0  0
   -1.7573   27.1135  -26.6854 H   0  0  0  0  0  0  0  0  0  0  0  0
    1.4420   23.3533  -28.1902 H   0  0  0  0  0  0  0  0  0  0  0  0
    1.3428   23.9390  -26.4970 H   0  0  0  0  0  0  0  0  0  0  0  0
   -0.2235   22.1976  -26.4821 H   0  0  0  0  0  0  0  0  0  0  0  0
   -1.2613   23.6358  -26.8654 H   0  0  0  0  0  0  0  0  0  0  0  0
   -0.4867   22.8443  -29.3768 H   0  0  0  0  0  0  0  0  0  0  0  0
   -0.6071   21.2528  -28.4758 H   0  0  0  0  0  0  0  0  0  0  0  0
   -2.6350   22.4653  -26.6131 H   0  0  0  0  0  0  0  0  0  0  0  0
   -3.0678   23.9309  -27.5573 H   0  0  0  0  0  0  0  0  0  0  0  0
   -4.1625   22.5067  -27.5573 H   0  0  0  0  0  0  0  0  0  0  0  0
   -2.1863   20.2052  -29.0132 H   0  0  0  0  0  0  0  0  0  0  0  0
   -3.8287   20.7448  -28.4949 H   0  0  0  0  0  0  0  0  0  0  0  0
   -2.5704   20.7310  -31.2345 H   0  0  0  0  0  0  0  0  0  0  0  0
   -4.2645   20.3483  -30.7108 H   0  0  0  0  0  0  0  0  0  0  0  0
   -3.1040   25.2870  -30.5090 H   0  0  0  0  0  0  0  0  0  0  0  0
   -8.0283   24.5250  -30.7712 H   0  0  0  0  0  0  0  0  0  0  0  0
   -9.5915   22.3697  -31.8255 H   0  0  0  0  0  0  0  0  0  0  0  0
   -9.4145   20.0171  -32.7093 H   0  0  0  0  0  0  0  0  0  0  0  0
   -7.1164   17.7927  -32.1345 H   0  0  0  0  0  0  0  0  0  0  0  0
   -8.0481   18.2858  -33.5889 H   0  0  0  0  0  0  0  0  0  0  0  0
   -6.2555   18.4012  -33.5889 H   0  0  0  0  0  0  0  0  0  0  0  0
   -5.1081   20.0796  -32.0245 H   0  0  0  0  0  0  0  0  0  0  0  0
  1  2  1  0
  2  3  1  0
  3  4  1  0
  4  5  1  0
  5  6  1  0
  6  7  1  0
  7  8  2  0
  7  9  1  0
  9 10  1  0
 10 11  1  0
 11 12  1  0
 12 13  1  0
 13 14  1  0
 13 15  1  0
 15 16  1  0
 16 17  1  0
 17 18  2  0
 17 19  1  0
 19 20  1  0
 20 21  1  0
 21 22  1  0
 21 23  2  0
 20 24  2  0
 24 25  1  0
 25 26  2  0
 26 27  1  0
 27 28  2  0
 28 29  1  0
 28 30  1  0
 30 31  2  0
 31 19  1  0
 31 25  1  0
  1 32  1  0
  1 33  1  0
  1 34  1  0
  3 35  1  0
  3 36  1  0
  4 37  1  0
  4 38  1  0
  6 39  1  0
  6 40  1  0
 10 41  1  0
 10 42  1  0
 11 43  1  0
 11 44  1  0
 12 45  1  0
 12 46  1  0
 14 47  1  0
 14 48  1  0
 14 49  1  0
 15 50  1  0
 15 51  1  0
 16 52  1  0
 16 53  1  0
 22 54  1  0
 24 55  1  0
 26 56  1  0
 27 57  1  0
 29 58  1  0
 29 59  1  0
 29 60  1  0
 30 61  1  0
M  CHG  2   9  -1  22  -1
M  END
>  <UniqueID>  (48) 
48

>  <SMILES>  (48) 
COCCOCC(=O)[N-]CCCN(C)CCC(=O)n1c(C([NH-])=O)cc2ccc(C)cc21

>  <Energy>  (48) 
96.21061334718274

>  <Genealogy>  (48) 
COCCOCC(=O)[N-]CCCN(C)CCC(=O)n1c(C([NH-])=O)cc2ccc(C)cc21 (protonated)
COCCOCC(=O)[N-]CCCN(C)CCC(=O)n1c(C([NH-])=O)cc2ccc(C)cc21 (3D coordinates assigned)
COCCOCC(=O)[N-]CCCN(C)CCC(=O)n1c(C([NH-])=O)cc2ccc(C)cc21 (optimized conformer: 96.21061334718274 kcal/mol)

>  <smiles>  (48) 
COCCOCC(=O)NCCCN(C)CCC(=O)n1c(C(N)=O)cc2ccc(C)cc21

>  <score_type>  (48) 
oracle

>  <origin>  (48) 
adg

>  <m_score__min__energy>  (48) 
-12.119999999999999

>  <m_primary>  (48) 
energy

$$$$
48:0
     RDKit          3D

 52 53  0  0  0  0  0  0  0  0999 V2000
   -6.8740   17.3470  -33.1050 C   0  0  0  0  0  0  0  0  0  0  0  0
   -6.9790   18.4950  -32.7510 C   0  0  0  0  0  0  0  0  0  0  0  0
   -7.1040   19.8650  -32.3300 C   0  0  0  0  0  0  0  0  0  0  0  0
   -8.3840   20.4620  -32.2410 C   0  0  0  0  0  0  0  0  0  0  0  0
   -8.5190   21.7960  -31.8180 C   0  0  0  0  0  0  0  0  0  0  0  0
   -7.3610   22.5010  -31.5010 C   0  0  0  0  0  0  0  0  0  0  0  0
   -7.2030   23.7880  -31.0410 C   0  0  0  0  0  0  0  0  0  0  0  0
   -5.8290   23.9550  -30.8750 C   0  0  0  0  0  0  0  0  0  0  0  0
   -5.2010   25.2170  -30.4290 C   0  0  0  0  0  0  0  0  0  0  0  0
   -3.8630   25.5220  -30.8170 N   0  0  0  0  0  0  0  0  0  0  0  0
   -5.8280   26.0240  -29.6930 O   0  0  0  0  0  0  0  0  0  0  0  0
   -5.1650   22.8190  -31.2260 N   0  0  0  0  0  0  0  0  0  0  0  0
   -3.7530   22.5690  -31.1480 C   0  0  0  0  0  0  0  0  0  0  0  0
   -3.0890   22.4110  -32.2080 O   0  0  0  0  0  0  0  0  0  0  0  0
   -3.0710   22.4970  -29.8490 C   0  0  0  0  0  0  0  0  0  0  0  0
   -3.1350   23.4690  -29.0470 O   0  0  0  0  0  0  0  0  0  0  0  0
   -2.3600   21.3440  -29.5130 O   0  0  0  0  0  0  0  0  0  0  0  0
   -2.7520   20.4750  -28.4560 C   0  0  0  0  0  0  0  0  0  0  0  0
   -1.9070   20.7440  -27.1940 C   0  0  0  0  0  0  0  0  0  0  0  0
   -1.0200   21.9370  -27.2640 N   0  0  2  0  0  0  0  0  0  0  0  0
    0.2430   21.6400  -27.9660 C   0  0  0  0  0  0  0  0  0  0  0  0
   -0.7360   22.5750  -25.9540 C   0  0  0  0  0  0  0  0  0  0  0  0
   -0.8770   24.1130  -25.9680 C   0  0  0  0  0  0  0  0  0  0  0  0
   -1.7940   24.5780  -27.0320 N   0  0  0  0  0  0  0  0  0  0  0  0
   -1.2160   25.7090  -27.7770 C   0  0  0  0  0  0  0  0  0  0  0  0
   -3.0830   24.9830  -26.4470 C   0  0  0  0  0  0  0  0  0  0  0  0
   -6.1150   21.9360  -31.6010 C   0  0  0  0  0  0  0  0  0  0  0  0
   -5.9510   20.6060  -32.0000 C   0  0  0  0  0  0  0  0  0  0  0  0
   -6.7782   16.2998  -33.4279 H   0  0  0  0  0  0  0  0  0  0  0  0
   -9.2787   19.8788  -32.5044 H   0  0  0  0  0  0  0  0  0  0  0  0
   -9.5094   22.2683  -31.7399 H   0  0  0  0  0  0  0  0  0  0  0  0
   -7.9931   24.5280  -30.8457 H   0  0  0  0  0  0  0  0  0  0  0  0
   -3.0580   25.2980  -30.1910 H   0  0  0  0  0  0  0  0  0  0  0  0
   -3.8138   20.6439  -28.2235 H   0  0  0  0  0  0  0  0  0  0  0  0
   -2.5944   19.4339  -28.7744 H   0  0  0  0  0  0  0  0  0  0  0  0
   -2.5955   20.8818  -26.3472 H   0  0  0  0  0  0  0  0  0  0  0  0
   -1.2405   19.8759  -27.0839 H   0  0  0  0  0  0  0  0  0  0  0  0
   -1.5160   22.6410  -27.8620 H   0  0  0  0  0  0  0  0  0  0  0  0
    1.0373   21.4532  -27.2283 H   0  0  0  0  0  0  0  0  0  0  0  0
    0.1111   20.7484  -28.5966 H   0  0  0  0  0  0  0  0  0  0  0  0
    0.5223   22.4970  -28.5966 H   0  0  0  0  0  0  0  0  0  0  0  0
   -1.4378   22.1688  -25.2107 H   0  0  0  0  0  0  0  0  0  0  0  0
    0.3125   22.3509  -25.7083 H   0  0  0  0  0  0  0  0  0  0  0  0
   -1.2679   24.4423  -24.9939 H   0  0  0  0  0  0  0  0  0  0  0  0
    0.1163   24.5425  -26.1652 H   0  0  0  0  0  0  0  0  0  0  0  0
   -0.8333   26.4579  -27.0679 H   0  0  0  0  0  0  0  0  0  0  0  0
   -0.3917   25.3483  -28.4098 H   0  0  0  0  0  0  0  0  0  0  0  0
   -1.9912   26.1657  -28.4098 H   0  0  0  0  0  0  0  0  0  0  0  0
   -3.0109   24.9603  -25.3496 H   0  0  0  0  0  0  0  0  0  0  0  0
   -3.3314   26.0025  -26.7772 H   0  0  0  0  0  0  0  0  0  0  0  0
   -3.8698   24.2888  -26.7772 H   0  0  0  0  0  0  0  0  0  0  0  0
   -4.9510   20.1509  -32.0548 H   0  0  0  0  0  0  0  0  0  0  0  0
  1  2  3  0
  2  3  1  0
  3  4  2  0
  4  5  1  0
  5  6  2  0
  6  7  1  0
  7  8  2  0
  8  9  1  0
  9 10  1  0
  9 11  2  0
  8 12  1  0
 12 13  1  0
 13 14  2  0
 13 15  1  0
 15 16  2  0
 15 17  1  0
 17 18  1  0
 18 19  1  0
 19 20  1  0
 20 21  1  0
 20 22  1  0
 22 23  1  0
 23 24  1  0
 24 25  1  0
 24 26  1  0
 12 27  1  0
 27 28  2  0
 28  3  1  0
 27  6  1  0
  1 29  1  0
  4 30  1  0
  5 31  1  0
  7 32  1  0
 10 33  1  0
 18 34  1  0
 18 35  1  0
 19 36  1  0
 19 37  1  0
 20 38  1  6
 21 39  1  0
 21 40  1  0
 21 41  1  0
 22 42  1  0
 22 43  1  0
 23 44  1  0
 23 45  1  0
 25 46  1  0
 25 47  1  0
 25 48  1  0
 26 49  1  0
 26 50  1  0
 26 51  1  0
 28 52  1  0
M  CHG  2  10  -1  20   1
M  END
>  <UniqueID>  (49) 
49

>  <SMILES>  (49) 
C#Cc1ccc2cc(C([NH-])=O)n(C(=O)C(=O)OCC[N@H+](C)CCN(C)C)c2c1

>  <Energy>  (49) 
89.83041838502632

>  <Genealogy>  (49) 
C#Cc1ccc2cc(C([NH-])=O)n(C(=O)C(=O)OCC[NH+](C)CCN(C)C)c2c1 (protonated)
C#Cc1ccc2cc(C([NH-])=O)n(C(=O)C(=O)OCC[N@H+](C)CCN(C)C)c2c1 (chirality)
C#Cc1ccc2cc(C([NH-])=O)n(C(=O)C(=O)OCC[N@H+](C)CCN(C)C)c2c1 (3D coordinates assigned)
C#Cc1ccc2cc(C([NH-])=O)n(C(=O)C(=O)OCC[N@H+](C)CCN(C)C)c2c1 (optimized conformer: 89.83041838502632 kcal/mol)

>  <smiles>  (49) 
C#Cc1ccc2cc(C(N)=O)n(C(=O)C(=O)OCCN(C)CCN(C)C)c2c1

>  <score_type>  (49) 
oracle

>  <origin>  (49) 
adg

>  <m_score__min__energy>  (49) 
-9.3399999999999999

>  <m_primary>  (49) 
energy

$$$$
49:0
     RDKit          3D

 52 53  0  0  0  0  0  0  0  0999 V2000
   -6.5150   24.3470  -30.9830 C   0  0  0  0  0  0  0  0  0  0  0  0
   -7.0290   23.0070  -31.4310 C   0  0  0  0  0  0  0  0  0  0  0  0
   -8.3870   22.6640  -31.2270 C   0  0  0  0  0  0  0  0  0  0  0  0
   -8.8720   21.4060  -31.6220 C   0  0  0  0  0  0  0  0  0  0  0  0
   -7.9760   20.5080  -32.1910 C   0  0  0  0  0  0  0  0  0  0  0  0
   -8.1930   19.2430  -32.6750 C   0  0  0  0  0  0  0  0  0  0  0  0
   -6.9580   18.8180  -33.1500 C   0  0  0  0  0  0  0  0  0  0  0  0
   -6.7470   17.4810  -33.7130 C   0  0  0  0  0  0  0  0  0  0  0  0
   -6.1260   17.3320  -34.9860 N   0  0  0  0  0  0  0  0  0  0  0  0
   -7.1810   16.4600  -33.1160 O   0  0  0  0  0  0  0  0  0  0  0  0
   -6.0010   19.7810  -32.9790 N   0  0  0  0  0  0  0  0  0  0  0  0
   -4.6120   19.7410  -33.3830 C   0  0  0  0  0  0  0  0  0  0  0  0
   -4.0590   20.7910  -33.8200 O   0  0  0  0  0  0  0  0  0  0  0  0
   -3.7970   18.4690  -33.2840 C   0  0  0  0  0  0  0  0  0  0  0  0
   -2.5160   18.4910  -34.1300 C   0  0  0  0  0  0  0  0  0  0  0  0
   -1.4090   18.8050  -33.3130 O   0  0  0  0  0  0  0  0  0  0  0  0
   -1.8390   19.3580  -32.0820 C   0  0  0  0  0  0  0  0  0  0  0  0
   -1.2280   20.7470  -31.8360 C   0  0  0  0  0  0  0  0  0  0  0  0
   -2.0650   21.5380  -30.9240 N   0  0  0  0  0  0  0  0  0  0  0  0
   -3.1050   22.4240  -31.4680 C   0  0  0  0  0  0  0  0  0  0  0  0
   -1.8470   21.5040  -29.5020 C   0  0  0  0  0  0  0  0  0  0  0  0
   -2.7860   21.1770  -28.7230 O   0  0  0  0  0  0  0  0  0  0  0  0
   -0.5970   21.8570  -28.9760 O   0  0  0  0  0  0  0  0  0  0  0  0
   -0.3160   23.1320  -28.3940 C   0  0  0  0  0  0  0  0  0  0  0  0
   -0.4380   24.1520  -29.3530 O   0  0  0  0  0  0  0  0  0  0  0  0
   -1.7400   25.1730  -28.9330 P   0  0  0  0  0  0  0  0  0  0  0  0
   -2.2730   24.8340  -27.5560 O   0  0  0  0  0  0  0  0  0  0  0  0
   -1.2410   26.7900  -28.9650 O   0  0  0  0  0  0  0  0  0  0  0  0
   -2.9760   24.9660  -30.0670 O   0  0  0  0  0  0  0  0  0  0  0  0
   -6.6470   20.8140  -32.3790 C   0  0  0  0  0  0  0  0  0  0  0  0
   -6.1450   22.0690  -32.0050 C   0  0  0  0  0  0  0  0  0  0  0  0
   -6.5003   24.3853  -29.8838 H   0  0  0  0  0  0  0  0  0  0  0  0
   -5.4957   24.4964  -31.3687 H   0  0  0  0  0  0  0  0  0  0  0  0
   -7.1729   25.1397  -31.3687 H   0  0  0  0  0  0  0  0  0  0  0  0
   -9.0679   23.3880  -30.7556 H   0  0  0  0  0  0  0  0  0  0  0  0
   -9.9303   21.1392  -31.4850 H   0  0  0  0  0  0  0  0  0  0  0  0
   -9.1408   18.6849  -32.6850 H   0  0  0  0  0  0  0  0  0  0  0  0
   -6.3620   17.9560  -35.7880 H   0  0  0  0  0  0  0  0  0  0  0  0
   -3.5158   18.3175  -32.2314 H   0  0  0  0  0  0  0  0  0  0  0  0
   -4.4249   17.6532  -33.6715 H   0  0  0  0  0  0  0  0  0  0  0  0
   -2.3635   17.5024  -34.5875 H   0  0  0  0  0  0  0  0  0  0  0  0
   -2.6139   19.2527  -34.9176 H   0  0  0  0  0  0  0  0  0  0  0  0
   -2.9352   19.4485  -32.0959 H   0  0  0  0  0  0  0  0  0  0  0  0
   -1.5077   18.6905  -31.2729 H   0  0  0  0  0  0  0  0  0  0  0  0
   -0.2283   20.6266  -31.3931 H   0  0  0  0  0  0  0  0  0  0  0  0
   -1.1629   21.2759  -32.7983 H   0  0  0  0  0  0  0  0  0  0  0  0
   -3.6564   22.8937  -30.6401 H   0  0  0  0  0  0  0  0  0  0  0  0
   -2.6358   23.2042  -32.0854 H   0  0  0  0  0  0  0  0  0  0  0  0
   -3.8007   21.8368  -32.0854 H   0  0  0  0  0  0  0  0  0  0  0  0
   -1.0256   23.3195  -27.5747 H   0  0  0  0  0  0  0  0  0  0  0  0
    0.7152   23.1272  -28.0111 H   0  0  0  0  0  0  0  0  0  0  0  0
   -5.0840   22.3169  -32.1560 H   0  0  0  0  0  0  0  0  0  0  0  0
  1  2  1  0
  2  3  2  0
  3  4  1  0
  4  5  2  0
  5  6  1  0
  6  7  2  0
  7  8  1  0
  8  9  1  0
  8 10  2  0
  7 11  1  0
 11 12  1  0
 12 13  2  0
 12 14  1  0
 14 15  1  0
 15 16  1  0
 16 17  1  0
 17 18  1  0
 18 19  1  0
 19 20  1  0
 19 21  1  0
 21 22  2  0
 21 23  1  0
 23 24  1  0
 24 25  1  0
 25 26  1  0
 26 27  2  0
 26 28  1  0
 26 29  1  0
 11 30  1  0
 30 31  2  0
 31  2  1  0
 30  5  1  0
  1 32  1  0
  1 33  1  0
  1 34  1  0
  3 35  1  0
  4 36  1  0
  6 37  1  0
  9 38  1  0
 14 39  1  0
 14 40  1  0
 15 41  1  0
 15 42  1  0
 17 43  1  0
 17 44  1  0
 18 45  1  0
 18 46  1  0
 20 47  1  0
 20 48  1  0
 20 49  1  0
 24 50  1  0
 24 51  1  0
 31 52  1  0
M  CHG  3   9  -1  28  -1  29  -1
M  END
>  <UniqueID>  (50) 
50

>  <SMILES>  (50) 
Cc1ccc2cc(C([NH-])=O)n(C(=O)CCOCCN(C)C(=O)OCOP(=O)([O-])[O-])c2c1

>  <Energy>  (50) 
88.52002496917373

>  <Genealogy>  (50) 
Cc1ccc2cc(C([NH-])=O)n(C(=O)CCOCCN(C)C(=O)OCOP(=O)([O-])[O-])c2c1 (protonated)
Cc1ccc2cc(C([NH-])=O)n(C(=O)CCOCCN(C)C(=O)OCOP(=O)([O-])[O-])c2c1 (3D coordinates assigned)
Cc1ccc2cc(C([NH-])=O)n(C(=O)CCOCCN(C)C(=O)OCOP(=O)([O-])[O-])c2c1 (optimized conformer: 88.52002496917373 kcal/mol)

>  <smiles>  (50) 
Cc1ccc2cc(C(N)=O)n(C(=O)CCOCCN(C)C(=O)OCOP(=O)(O)O)c2c1

>  <score_type>  (50) 
oracle

>  <origin>  (50) 
adg

>  <m_score__min__energy>  (50) 
-13.029999999999999

>  <m_primary>  (50) 
energy

$$$$
50:0
     RDKit          3D

 41 42  0  0  0  0  0  0  0  0999 V2000
   -7.4250   18.4660  -32.7460 C   0  0  0  0  0  0  0  0  0  0  0  0
   -7.4660   19.9080  -32.3350 C   0  0  0  0  0  0  0  0  0  0  0  0
   -8.7090   20.5740  -32.2030 C   0  0  0  0  0  0  0  0  0  0  0  0
   -8.7600   21.9170  -31.7920 C   0  0  0  0  0  0  0  0  0  0  0  0
   -7.5590   22.5540  -31.4960 C   0  0  0  0  0  0  0  0  0  0  0  0
   -7.3150   23.8510  -31.1060 C   0  0  0  0  0  0  0  0  0  0  0  0
   -5.9320   23.9450  -30.9690 C   0  0  0  0  0  0  0  0  0  0  0  0
   -5.2380   25.1870  -30.5580 C   0  0  0  0  0  0  0  0  0  0  0  0
   -3.8720   25.4190  -30.8910 N   0  0  0  0  0  0  0  0  0  0  0  0
   -5.8590   26.0520  -29.8850 O   0  0  0  0  0  0  0  0  0  0  0  0
   -5.3440   22.7450  -31.2440 N   0  0  0  0  0  0  0  0  0  0  0  0
   -3.9420   22.4340  -31.2980 C   0  0  0  0  0  0  0  0  0  0  0  0
   -3.3950   22.2680  -32.4230 O   0  0  0  0  0  0  0  0  0  0  0  0
   -3.1730   22.2550  -30.0910 N   0  0  0  0  0  0  0  0  0  0  0  0
   -3.8540   22.2860  -28.7950 C   0  0  0  0  0  0  0  0  0  0  0  0
   -1.7330   22.2580  -30.1180 C   0  0  0  0  0  0  0  0  0  0  0  0
   -1.1390   22.0020  -31.2020 O   0  0  0  0  0  0  0  0  0  0  0  0
   -0.9610   22.5680  -28.9390 N   0  0  0  0  0  0  0  0  0  0  0  0
   -0.9030   21.6380  -27.8080 C   0  0  0  0  0  0  0  0  0  0  0  0
   -0.3700   23.9020  -28.7740 C   0  0  0  0  0  0  0  0  0  0  0  0
   -1.4350   24.9500  -28.7800 C   0  0  0  0  0  0  0  0  0  0  0  0
   -1.2360   26.0550  -29.3490 O   0  0  0  0  0  0  0  0  0  0  0  0
   -2.6400   24.7160  -28.1300 O   0  0  0  0  0  0  0  0  0  0  0  0
   -6.3520   21.9110  -31.5810 C   0  0  0  0  0  0  0  0  0  0  0  0
   -6.2690   20.5840  -32.0170 C   0  0  0  0  0  0  0  0  0  0  0  0
   -7.4069   17.8295  -31.8491 H   0  0  0  0  0  0  0  0  0  0  0  0
   -8.3168   18.2300  -33.3452 H   0  0  0  0  0  0  0  0  0  0  0  0
   -6.5212   18.2811  -33.3452 H   0  0  0  0  0  0  0  0  0  0  0  0
   -9.6424   20.0355  -32.4240 H   0  0  0  0  0  0  0  0  0  0  0  0
   -9.7196   22.4480  -31.7070 H   0  0  0  0  0  0  0  0  0  0  0  0
   -8.0562   24.6462  -30.9378 H   0  0  0  0  0  0  0  0  0  0  0  0
   -3.1140   25.2580  -30.1930 H   0  0  0  0  0  0  0  0  0  0  0  0
   -3.1076   22.2520  -27.9877 H   0  0  0  0  0  0  0  0  0  0  0  0
   -4.4421   23.2118  -28.7119 H   0  0  0  0  0  0  0  0  0  0  0  0
   -4.5238   21.4174  -28.7119 H   0  0  0  0  0  0  0  0  0  0  0  0
   -0.9383   22.2042  -26.8656 H   0  0  0  0  0  0  0  0  0  0  0  0
   -1.7600   20.9500  -27.8547 H   0  0  0  0  0  0  0  0  0  0  0  0
    0.0328   21.0618  -27.8547 H   0  0  0  0  0  0  0  0  0  0  0  0
    0.1721   23.9421  -27.8177 H   0  0  0  0  0  0  0  0  0  0  0  0
    0.3204   24.0913  -29.6092 H   0  0  0  0  0  0  0  0  0  0  0  0
   -5.2953   20.0806  -32.1095 H   0  0  0  0  0  0  0  0  0  0  0  0
  1  2  1  0
  2  3  2  0
  3  4  1  0
  4  5  2  0
  5  6  1  0
  6  7  2  0
  7  8  1  0
  8  9  1  0
  8 10  2  0
  7 11  1  0
 11 12  1  0
 12 13  2  0
 12 14  1  0
 14 15  1  0
 14 16  1  0
 16 17  2  0
 16 18  1  0
 18 19  1  0
 18 20  1  0
 20 21  1  0
 21 22  2  0
 21 23  1  0
 11 24  1  0
 24 25  2  0
 25  2  1  0
 24  5  1  0
  1 26  1  0
  1 27  1  0
  1 28  1  0
  3 29  1  0
  4 30  1  0
  6 31  1  0
  9 32  1  0
 15 33  1  0
 15 34  1  0
 15 35  1  0
 19 36  1  0
 19 37  1  0
 19 38  1  0
 20 39  1  0
 20 40  1  0
 25 41  1  0
M  CHG  2   9  -1  23  -1
M  END
>  <UniqueID>  (51) 
51

>  <SMILES>  (51) 
Cc1ccc2cc(C([NH-])=O)n(C(=O)N(C)C(=O)N(C)CC(=O)[O-])c2c1

>  <Energy>  (51) 
78.81323603637603

>  <Genealogy>  (51) 
Cc1ccc2cc(C([NH-])=O)n(C(=O)N(C)C(=O)N(C)CC(=O)[O-])c2c1 (protonated)
Cc1ccc2cc(C([NH-])=O)n(C(=O)N(C)C(=O)N(C)CC(=O)[O-])c2c1 (3D coordinates assigned)
Cc1ccc2cc(C([NH-])=O)n(C(=O)N(C)C(=O)N(C)CC(=O)[O-])c2c1 (optimized conformer: 78.81323603637603 kcal/mol)

>  <smiles>  (51) 
Cc1ccc2cc(C(N)=O)n(C(=O)N(C)C(=O)N(C)CC(=O)O)c2c1

>  <score_type>  (51) 
oracle

>  <origin>  (51) 
adg

>  <m_score__min__energy>  (51) 
-13.01

>  <m_primary>  (51) 
energy

$$$$
51:0
     RDKit          3D

 51 52  0  0  0  0  0  0  0  0999 V2000
   -7.0800   18.4600  -33.0680 C   0  0  0  0  0  0  0  0  0  0  0  0
   -7.2870   19.8430  -32.5240 C   0  0  0  0  0  0  0  0  0  0  0  0
   -8.5850   20.2730  -32.1520 C   0  0  0  0  0  0  0  0  0  0  0  0
   -8.7850   21.5480  -31.5920 C   0  0  0  0  0  0  0  0  0  0  0  0
   -7.6700   22.3610  -31.4100 C   0  0  0  0  0  0  0  0  0  0  0  0
   -7.5660   23.6190  -30.8570 C   0  0  0  0  0  0  0  0  0  0  0  0
   -6.2080   23.9300  -30.8960 C   0  0  0  0  0  0  0  0  0  0  0  0
   -5.6490   25.2240  -30.4510 C   0  0  0  0  0  0  0  0  0  0  0  0
   -4.3740   25.6690  -30.9080 N   0  0  0  0  0  0  0  0  0  0  0  0
   -6.3200   25.9630  -29.6810 O   0  0  0  0  0  0  0  0  0  0  0  0
   -5.5030   22.9040  -31.4490 N   0  0  0  0  0  0  0  0  0  0  0  0
   -4.0810   22.7820  -31.5900 C   0  0  0  0  0  0  0  0  0  0  0  0
   -3.3180   23.4200  -30.8150 O   0  0  0  0  0  0  0  0  0  0  0  0
   -3.4960   22.0010  -32.7270 C   0  0  0  0  0  0  0  0  0  0  0  0
   -2.7810   20.7550  -32.2050 C   0  0  0  0  0  0  0  0  0  0  0  0
   -1.8520   21.1250  -31.0940 C   0  0  0  0  0  0  0  0  0  0  0  0
   -0.9030   21.9270  -31.3160 O   0  0  0  0  0  0  0  0  0  0  0  0
   -2.0120   20.5300  -29.8370 O   0  0  0  0  0  0  0  0  0  0  0  0
   -2.6780   21.1570  -28.7410 C   0  0  0  0  0  0  0  0  0  0  0  0
   -1.7400   22.1320  -28.0090 C   0  0  1  0  0  0  0  0  0  0  0  0
   -0.6390   21.3980  -27.2300 C   0  0  0  0  0  0  0  0  0  0  0  0
   -0.8310   20.0050  -27.3190 O   0  0  0  0  0  0  0  0  0  0  0  0
    0.3430   19.3680  -28.3800 P   0  0  2  0  0  0  0  0  0  0  0  0
   -0.1480   18.0650  -28.9700 O   0  0  0  0  0  0  0  0  0  0  0  0
    1.7640   19.0790  -27.5110 O   0  0  0  0  0  0  0  0  0  0  0  0
    0.6730   20.4680  -29.6240 O   0  0  0  0  0  0  0  0  0  0  0  0
   -1.1210   22.9790  -28.9610 O   0  0  0  0  0  0  0  0  0  0  0  0
   -0.9040   24.5450  -28.3140 P   0  0  0  0  0  0  0  0  0  0  0  0
   -1.5460   24.6440  -26.9480 O   0  0  0  0  0  0  0  0  0  0  0  0
   -1.6260   25.6720  -29.3470 O   0  0  0  0  0  0  0  0  0  0  0  0
    0.7480   24.8900  -28.1890 O   0  0  0  0  0  0  0  0  0  0  0  0
   -6.4100   21.9540  -31.7610 C   0  0  0  0  0  0  0  0  0  0  0  0
   -6.1780   20.6890  -32.3080 C   0  0  0  0  0  0  0  0  0  0  0  0
   -6.9738   17.7502  -32.2344 H   0  0  0  0  0  0  0  0  0  0  0  0
   -7.9455   18.1750  -33.6842 H   0  0  0  0  0  0  0  0  0  0  0  0
   -6.1690   18.4409  -33.6842 H   0  0  0  0  0  0  0  0  0  0  0  0
   -9.4446   19.6033  -32.3026 H   0  0  0  0  0  0  0  0  0  0  0  0
   -9.7904   21.8914  -31.3071 H   0  0  0  0  0  0  0  0  0  0  0  0
   -8.3821   24.2452  -30.4673 H   0  0  0  0  0  0  0  0  0  0  0  0
   -3.5200   25.5440  -30.3220 H   0  0  0  0  0  0  0  0  0  0  0  0
   -4.3023   21.6966  -33.4105 H   0  0  0  0  0  0  0  0  0  0  0  0
   -2.7693   22.6335  -33.2579 H   0  0  0  0  0  0  0  0  0  0  0  0
   -3.5263   20.0368  -31.8325 H   0  0  0  0  0  0  0  0  0  0  0  0
   -2.2021   20.3020  -33.0233 H   0  0  0  0  0  0  0  0  0  0  0  0
   -3.5490   21.7120  -29.1196 H   0  0  0  0  0  0  0  0  0  0  0  0
   -2.9950   20.3778  -28.0322 H   0  0  0  0  0  0  0  0  0  0  0  0
   -2.3476   22.7058  -27.2938 H   0  0  0  0  0  0  0  0  0  0  0  0
    0.3421   21.6581  -27.6540 H   0  0  0  0  0  0  0  0  0  0  0  0
   -0.6817   21.7011  -26.1734 H   0  0  0  0  0  0  0  0  0  0  0  0
   -0.0140   21.1750  -29.5290 H   0  0  0  0  0  0  0  0  0  0  0  0
   -5.1593   20.3617  -32.5631 H   0  0  0  0  0  0  0  0  0  0  0  0
  1  2  1  0
  2  3  2  0
  3  4  1  0
  4  5  2  0
  5  6  1  0
  6  7  2  0
  7  8  1  0
  8  9  1  0
  8 10  2  0
  7 11  1  0
 11 12  1  0
 12 13  2  0
 12 14  1  0
 14 15  1  0
 15 16  1  0
 16 17  2  0
 16 18  1  0
 18 19  1  0
 19 20  1  0
 20 21  1  0
 21 22  1  0
 22 23  1  0
 23 24  2  0
 23 25  1  1
 23 26  1  0
 20 27  1  0
 27 28  1  0
 28 29  2  0
 28 30  1  0
 28 31  1  0
 11 32  1  0
 32 33  2  0
 33  2  1  0
 32  5  1  0
  1 34  1  0
  1 35  1  0
  1 36  1  0
  3 37  1  0
  4 38  1  0
  6 39  1  0
  9 40  1  0
 14 41  1  0
 14 42  1  0
 15 43  1  0
 15 44  1  0
 19 45  1  0
 19 46  1  0
 20 47  1  1
 21 48  1  0
 21 49  1  0
 26 50  1  0
 33 51  1  0
M  CHG  4   9  -1  25  -1  30  -1  31  -1
M  END
>  <UniqueID>  (52) 
52

>  <SMILES>  (52) 
Cc1ccc2cc(C([NH-])=O)n(C(=O)CCC(=O)OC[C@@H](CO[P@](=O)([O-])O)OP(=O)([O-])[O-])c2c1

>  <Energy>  (52) 
79.41573387773568

>  <Genealogy>  (52) 
Cc1ccc2cc(C([NH-])=O)n(C(=O)CCC(=O)OCC(COP(=O)([O-])O)OP(=O)([O-])[O-])c2c1 (protonated)
Cc1ccc2cc(C([NH-])=O)n(C(=O)CCC(=O)OC[C@@H](CO[P@](=O)([O-])O)OP(=O)([O-])[O-])c2c1 (chirality)
Cc1ccc2cc(C([NH-])=O)n(C(=O)CCC(=O)OC[C@@H](CO[P@](=O)([O-])O)OP(=O)([O-])[O-])c2c1 (3D coordinates assigned)
Cc1ccc2cc(C([NH-])=O)n(C(=O)CCC(=O)OC[C@@H](CO[P@](=O)([O-])O)OP(=O)([O-])[O-])c2c1 (optimized conformer: 79.41573387773568 kcal/mol)

>  <smiles>  (52) 
Cc1ccc2cc(C(N)=O)n(C(=O)CCC(=O)OCC(COP(=O)(O)O)OP(=O)(O)O)c2c1

>  <score_type>  (52) 
oracle

>  <origin>  (52) 
adg

>  <m_score__min__energy>  (52) 
-14.26

>  <m_primary>  (52) 
energy

$$$$
52:0
     RDKit          3D

 50 52  0  0  0  0  0  0  0  0999 V2000
   -5.3460   19.6590  -31.6690 C   0  0  0  0  0  0  0  0  0  0  0  0
   -6.6160   19.7960  -32.3990 N   0  0  0  0  0  0  0  0  0  0  0  0
   -7.7380   19.2350  -31.6170 C   0  0  0  0  0  0  0  0  0  0  0  0
   -9.0830   19.7640  -32.1120 C   0  0  0  0  0  0  0  0  0  0  0  0
   -9.1780   21.2800  -31.8900 C   0  0  0  0  0  0  0  0  0  0  0  0
   -7.8280   22.0210  -32.0770 C   0  0  1  0  0  0  0  0  0  0  0  0
   -7.2070   22.4750  -30.7270 C   0  0  0  0  0  0  0  0  0  0  0  0
   -6.8520   23.9720  -30.6840 C   0  0  0  0  0  0  0  0  0  0  0  0
   -5.8010   24.2870  -29.7190 N   0  0  0  0  0  0  0  0  0  0  0  0
   -4.4240   24.4730  -30.0690 C   0  0  0  0  0  0  0  0  0  0  0  0
   -4.0980   25.4330  -30.8160 O   0  0  0  0  0  0  0  0  0  0  0  0
   -3.4120   23.5950  -29.5290 N   0  0  0  0  0  0  0  0  0  0  0  0
   -2.8190   23.6740  -28.3040 C   0  0  0  0  0  0  0  0  0  0  0  0
   -3.2420   24.5440  -27.1940 C   0  0  0  0  0  0  0  0  0  0  0  0
   -4.6120   24.9080  -27.0400 N   0  0  0  0  0  0  0  0  0  0  0  0
   -2.3980   24.9160  -26.3370 O   0  0  0  0  0  0  0  0  0  0  0  0
   -1.7730   22.7650  -28.1950 C   0  0  0  0  0  0  0  0  0  0  0  0
   -1.7410   22.1070  -29.4000 C   0  0  0  0  0  0  0  0  0  0  0  0
   -0.8880   21.0990  -29.8380 C   0  0  0  0  0  0  0  0  0  0  0  0
   -1.0530   20.6190  -31.1460 C   0  0  0  0  0  0  0  0  0  0  0  0
   -2.0420   21.1680  -32.0000 C   0  0  0  0  0  0  0  0  0  0  0  0
   -2.2330   20.6200  -33.3920 C   0  0  0  0  0  0  0  0  0  0  0  0
   -3.4910   20.9380  -33.8740 F   0  0  0  0  0  0  0  0  0  0  0  0
   -1.2930   21.1450  -34.2610 F   0  0  0  0  0  0  0  0  0  0  0  0
   -2.0990   19.2440  -33.3610 F   0  0  0  0  0  0  0  0  0  0  0  0
   -2.9050   22.1770  -31.5110 C   0  0  0  0  0  0  0  0  0  0  0  0
   -2.7340   22.6260  -30.1930 C   0  0  0  0  0  0  0  0  0  0  0  0
   -6.8300   21.1750  -32.9100 C   0  0  0  0  0  0  0  0  0  0  0  0
   -5.5411   19.6800  -30.5866 H   0  0  0  0  0  0  0  0  0  0  0  0
   -4.8700   18.7043  -31.9373 H   0  0  0  0  0  0  0  0  0  0  0  0
   -4.6774   20.4902  -31.9373 H   0  0  0  0  0  0  0  0  0  0  0  0
   -7.7277   18.1392  -31.7121 H   0  0  0  0  0  0  0  0  0  0  0  0
   -7.6128   19.5373  -30.5668 H   0  0  0  0  0  0  0  0  0  0  0  0
   -9.1840   19.5482  -33.1859 H   0  0  0  0  0  0  0  0  0  0  0  0
   -9.8889   19.2704  -31.5490 H   0  0  0  0  0  0  0  0  0  0  0  0
   -9.9030   21.6918  -32.6075 H   0  0  0  0  0  0  0  0  0  0  0  0
   -9.4887   21.4342  -30.8461 H   0  0  0  0  0  0  0  0  0  0  0  0
   -8.0449   22.9380  -32.6445 H   0  0  0  0  0  0  0  0  0  0  0  0
   -7.9293   22.2658  -29.9242 H   0  0  0  0  0  0  0  0  0  0  0  0
   -6.2674   21.9171  -30.6006 H   0  0  0  0  0  0  0  0  0  0  0  0
   -6.5121   24.2795  -31.6839 H   0  0  0  0  0  0  0  0  0  0  0  0
   -7.7566   24.5135  -30.3704 H   0  0  0  0  0  0  0  0  0  0  0  0
   -4.9020   25.5580  -26.2760 H   0  0  0  0  0  0  0  0  0  0  0  0
   -5.3440   24.4580  -27.6310 H   0  0  0  0  0  0  0  0  0  0  0  0
   -1.1128   22.6067  -27.3295 H   0  0  0  0  0  0  0  0  0  0  0  0
   -0.1078   20.6907  -29.1788 H   0  0  0  0  0  0  0  0  0  0  0  0
   -0.4075   19.8074  -31.5129 H   0  0  0  0  0  0  0  0  0  0  0  0
   -3.6933   22.6004  -32.1508 H   0  0  0  0  0  0  0  0  0  0  0  0
   -7.2138   21.1048  -33.9385 H   0  0  0  0  0  0  0  0  0  0  0  0
   -5.8580   21.6863  -32.8481 H   0  0  0  0  0  0  0  0  0  0  0  0
  1  2  1  0
  2  3  1  0
  3  4  1  0
  4  5  1  0
  5  6  1  0
  6  7  1  0
  7  8  1  0
  8  9  1  0
  9 10  1  0
 10 11  2  0
 10 12  1  0
 12 13  1  0
 13 14  1  0
 14 15  1  0
 14 16  2  0
 13 17  2  0
 17 18  1  0
 18 19  2  0
 19 20  1  0
 20 21  2  0
 21 22  1  0
 22 23  1  0
 22 24  1  0
 22 25  1  0
 21 26  1  0
 26 27  2  0
  6 28  1  0
 28  2  1  0
 27 12  1  0
 27 18  1  0
  1 29  1  0
  1 30  1  0
  1 31  1  0
  3 32  1  0
  3 33  1  0
  4 34  1  0
  4 35  1  0
  5 36  1  0
  5 37  1  0
  6 38  1  6
  7 39  1  0
  7 40  1  0
  8 41  1  0
  8 42  1  0
 15 43  1  0
 15 44  1  0
 17 45  1  0
 19 46  1  0
 20 47  1  0
 26 48  1  0
 28 49  1  0
 28 50  1  0
M  CHG  1   9  -1
M  END
>  <UniqueID>  (53) 
53

>  <SMILES>  (53) 
CN1CCC[C@@H](CC[N-]C(=O)n2c(C(N)=O)cc3ccc(C(F)(F)F)cc32)C1

>  <Energy>  (53) 
99.55290570703859

>  <Genealogy>  (53) 
CN1CCCC(CC[N-]C(=O)n2c(C(N)=O)cc3ccc(C(F)(F)F)cc32)C1 (protonated)
CN1CCC[C@@H](CC[N-]C(=O)n2c(C(N)=O)cc3ccc(C(F)(F)F)cc32)C1 (chirality)
CN1CCC[C@@H](CC[N-]C(=O)n2c(C(N)=O)cc3ccc(C(F)(F)F)cc32)C1 (3D coordinates assigned)
CN1CCC[C@@H](CC[N-]C(=O)n2c(C(N)=O)cc3ccc(C(F)(F)F)cc32)C1 (nonaromatic ring conformer: 99.55290570703859 kcal/mol)

>  <smiles>  (53) 
CN1CCCC(CCNC(=O)n2c(C(N)=O)cc3ccc(C(F)(F)F)cc32)C1

>  <score_type>  (53) 
oracle

>  <origin>  (53) 
adg

>  <m_score__min__energy>  (53) 
-10.19

>  <m_primary>  (53) 
energy

$$$$
53:0
     RDKit          3D

 44 45  0  0  0  0  0  0  0  0999 V2000
   -4.3660   25.6790  -30.7870 N   0  0  0  0  0  0  0  0  0  0  0  0
   -5.5550   25.0270  -30.3470 C   0  0  0  0  0  0  0  0  0  0  0  0
   -6.2130   25.5250  -29.3940 O   0  0  0  0  0  0  0  0  0  0  0  0
   -6.0070   23.7620  -30.9650 C   0  0  0  0  0  0  0  0  0  0  0  0
   -7.3430   23.4670  -31.2280 C   0  0  0  0  0  0  0  0  0  0  0  0
   -7.3420   22.1900  -31.7390 C   0  0  0  0  0  0  0  0  0  0  0  0
   -8.3980   21.4060  -32.1910 C   0  0  0  0  0  0  0  0  0  0  0  0
   -8.1010   20.1300  -32.7010 C   0  0  0  0  0  0  0  0  0  0  0  0
   -6.7630   19.6590  -32.7400 C   0  0  0  0  0  0  0  0  0  0  0  0
   -6.4490   18.3120  -33.3420 C   0  0  0  0  0  0  0  0  0  0  0  0
   -5.4010   17.7370  -32.6470 F   0  0  0  0  0  0  0  0  0  0  0  0
   -6.0910   18.4430  -34.6720 F   0  0  0  0  0  0  0  0  0  0  0  0
   -7.5510   17.4780  -33.2700 F   0  0  0  0  0  0  0  0  0  0  0  0
   -5.7160   20.4980  -32.2950 C   0  0  0  0  0  0  0  0  0  0  0  0
   -6.0430   21.7550  -31.7760 C   0  0  0  0  0  0  0  0  0  0  0  0
   -5.2120   22.7090  -31.3020 N   0  0  0  0  0  0  0  0  0  0  0  0
   -3.7780   22.6410  -31.2420 C   0  0  0  0  0  0  0  0  0  0  0  0
   -3.1060   23.7080  -31.2210 O   0  0  0  0  0  0  0  0  0  0  0  0
   -3.0820   21.3150  -31.0980 C   0  0  0  0  0  0  0  0  0  0  0  0
   -2.0420   21.3380  -29.9580 C   0  0  0  0  0  0  0  0  0  0  0  0
   -2.1370   22.5040  -29.0410 N   0  0  2  0  0  0  0  0  0  0  0  0
   -0.8360   23.0180  -28.5300 C   0  0  0  0  0  0  0  0  0  0  0  0
   -0.6330   24.5070  -28.6740 C   0  0  0  0  0  0  0  0  0  0  0  0
    0.3640   25.0640  -28.1410 O   0  0  0  0  0  0  0  0  0  0  0  0
   -1.5740   25.2850  -29.3340 O   0  0  0  0  0  0  0  0  0  0  0  0
   -3.1480   22.3250  -28.0080 C   0  0  0  0  0  0  0  0  0  0  0  0
   -3.2590   21.2530  -27.4280 O   0  0  0  0  0  0  0  0  0  0  0  0
   -4.0810   23.4590  -27.6610 C   0  0  0  0  0  0  0  0  0  0  0  0
   -3.6890   24.6530  -28.2860 O   0  0  0  0  0  0  0  0  0  0  0  0
   -3.4840   25.6190  -30.2330 H   0  0  0  0  0  0  0  0  0  0  0  0
   -8.2143   24.1177  -31.0621 H   0  0  0  0  0  0  0  0  0  0  0  0
   -9.4341   21.7731  -32.1507 H   0  0  0  0  0  0  0  0  0  0  0  0
   -8.9143   19.4900  -33.0737 H   0  0  0  0  0  0  0  0  0  0  0  0
   -4.6679   20.1698  -32.3555 H   0  0  0  0  0  0  0  0  0  0  0  0
   -3.8321   20.5402  -30.8809 H   0  0  0  0  0  0  0  0  0  0  0  0
   -2.5549   21.1000  -32.0392 H   0  0  0  0  0  0  0  0  0  0  0  0
   -2.1709   20.4234  -29.3607 H   0  0  0  0  0  0  0  0  0  0  0  0
   -1.0573   21.4094  -30.4431 H   0  0  0  0  0  0  0  0  0  0  0  0
   -2.4960   23.2740  -29.6570 H   0  0  0  0  0  0  0  0  0  0  0  0
   -0.7667   22.7667  -27.4613 H   0  0  0  0  0  0  0  0  0  0  0  0
   -0.0570   22.5425  -29.1441 H   0  0  0  0  0  0  0  0  0  0  0  0
   -5.0980   23.1995  -27.9904 H   0  0  0  0  0  0  0  0  0  0  0  0
   -4.0510   23.6117  -26.5721 H   0  0  0  0  0  0  0  0  0  0  0  0
   -3.6130   24.4540  -29.2550 H   0  0  0  0  0  0  0  0  0  0  0  0
  1  2  1  0
  2  3  2  0
  2  4  1  0
  4  5  2  0
  5  6  1  0
  6  7  2  0
  7  8  1  0
  8  9  2  0
  9 10  1  0
 10 11  1  0
 10 12  1  0
 10 13  1  0
  9 14  1  0
 14 15  2  0
 15 16  1  0
 16 17  1  0
 17 18  2  0
 17 19  1  0
 19 20  1  0
 20 21  1  0
 21 22  1  0
 22 23  1  0
 23 24  2  0
 23 25  1  0
 21 26  1  0
 26 27  2  0
 26 28  1  0
 28 29  1  0
 16  4  1  0
 15  6  1  0
  1 30  1  0
  5 31  1  0
  7 32  1  0
  8 33  1  0
 14 34  1  0
 19 35  1  0
 19 36  1  0
 20 37  1  0
 20 38  1  0
 21 39  1  6
 22 40  1  0
 22 41  1  0
 28 42  1  0
 28 43  1  0
 29 44  1  0
M  CHG  3   1  -1  21   1  25  -1
M  END
>  <UniqueID>  (54) 
54

>  <SMILES>  (54) 
[NH-]C(=O)c1cc2ccc(C(F)(F)F)cc2n1C(=O)CC[N@H+](CC(=O)[O-])C(=O)CO

>  <Energy>  (54) 
93.97638054552328

>  <Genealogy>  (54) 
[NH-]C(=O)c1cc2ccc(C(F)(F)F)cc2n1C(=O)CC[NH+](CC(=O)[O-])C(=O)CO (protonated)
[NH-]C(=O)c1cc2ccc(C(F)(F)F)cc2n1C(=O)CC[N@H+](CC(=O)[O-])C(=O)CO (chirality)
[NH-]C(=O)c1cc2ccc(C(F)(F)F)cc2n1C(=O)CC[N@H+](CC(=O)[O-])C(=O)CO (3D coordinates assigned)
[NH-]C(=O)c1cc2ccc(C(F)(F)F)cc2n1C(=O)CC[N@H+](CC(=O)[O-])C(=O)CO (optimized conformer: 93.97638054552328 kcal/mol)

>  <smiles>  (54) 
NC(=O)c1cc2ccc(C(F)(F)F)cc2n1C(=O)CCN(CC(=O)O)C(=O)CO

>  <score_type>  (54) 
oracle

>  <origin>  (54) 
adg

>  <m_score__min__energy>  (54) 
-11.130000000000001

>  <m_primary>  (54) 
energy

$$$$
54:0
     RDKit          3D

 39 40  0  0  0  0  0  0  0  0999 V2000
   -1.7240   20.5530  -29.8380 C   0  0  0  0  0  0  0  0  0  0  0  0
   -3.0330   20.9670  -29.1680 C   0  0  0  0  0  0  0  0  0  0  0  0
   -3.3850   22.3550  -29.5040 N   0  0  0  0  0  0  0  0  0  0  0  0
   -3.3040   23.3870  -28.4570 C   0  0  0  0  0  0  0  0  0  0  0  0
   -1.8840   23.5850  -28.0130 C   0  0  0  0  0  0  0  0  0  0  0  0
   -1.4190   22.8690  -27.0870 O   0  0  0  0  0  0  0  0  0  0  0  0
   -1.0200   24.5790  -28.6670 C   0  0  0  0  0  0  0  0  0  0  0  0
    0.2320   24.4530  -28.6250 O   0  0  0  0  0  0  0  0  0  0  0  0
   -1.5740   25.6620  -29.3380 O   0  0  0  0  0  0  0  0  0  0  0  0
   -3.9100   22.6590  -30.8160 C   0  0  0  0  0  0  0  0  0  0  0  0
   -3.1280   22.7830  -31.7960 O   0  0  0  0  0  0  0  0  0  0  0  0
   -5.3190   22.8250  -31.0340 N   0  0  0  0  0  0  0  0  0  0  0  0
   -6.0670   23.9520  -30.8710 C   0  0  0  0  0  0  0  0  0  0  0  0
   -5.5670   25.2500  -30.3710 C   0  0  0  0  0  0  0  0  0  0  0  0
   -4.2350   25.6590  -30.6670 N   0  0  0  0  0  0  0  0  0  0  0  0
   -6.3120   26.0100  -29.6970 O   0  0  0  0  0  0  0  0  0  0  0  0
   -7.3990   23.7040  -31.1990 C   0  0  0  0  0  0  0  0  0  0  0  0
   -7.4440   22.3750  -31.5570 C   0  0  0  0  0  0  0  0  0  0  0  0
   -8.5160   21.5930  -31.9810 C   0  0  0  0  0  0  0  0  0  0  0  0
   -8.2640   20.2470  -32.2980 C   0  0  0  0  0  0  0  0  0  0  0  0
   -6.9590   19.7080  -32.1730 C   0  0  0  0  0  0  0  0  0  0  0  0
   -6.6940   18.2830  -32.5580 C   0  0  0  0  0  0  0  0  0  0  0  0
   -5.8940   20.5330  -31.7510 C   0  0  0  0  0  0  0  0  0  0  0  0
   -6.1760   21.8670  -31.4410 C   0  0  0  0  0  0  0  0  0  0  0  0
   -0.9762   20.3165  -29.0668 H   0  0  0  0  0  0  0  0  0  0  0  0
   -1.8975   19.6659  -30.4648 H   0  0  0  0  0  0  0  0  0  0  0  0
   -1.3558   21.3785  -30.4648 H   0  0  0  0  0  0  0  0  0  0  0  0
   -3.8380   20.2997  -29.5096 H   0  0  0  0  0  0  0  0  0  0  0  0
   -2.9056   20.8934  -28.0779 H   0  0  0  0  0  0  0  0  0  0  0  0
   -3.6931   24.3358  -28.8549 H   0  0  0  0  0  0  0  0  0  0  0  0
   -3.9015   23.0606  -27.5930 H   0  0  0  0  0  0  0  0  0  0  0  0
   -3.5000   25.6740  -29.9240 H   0  0  0  0  0  0  0  0  0  0  0  0
   -8.2357   24.4177  -31.1766 H   0  0  0  0  0  0  0  0  0  0  0  0
   -9.5281   22.0156  -32.0651 H   0  0  0  0  0  0  0  0  0  0  0  0
   -9.0872   19.6059  -32.6463 H   0  0  0  0  0  0  0  0  0  0  0  0
   -6.5805   17.6728  -31.6498 H   0  0  0  0  0  0  0  0  0  0  0  0
   -7.5366   17.9013  -33.1533 H   0  0  0  0  0  0  0  0  0  0  0  0
   -5.7705   18.2297  -33.1533 H   0  0  0  0  0  0  0  0  0  0  0  0
   -4.8709   20.1375  -31.6684 H   0  0  0  0  0  0  0  0  0  0  0  0
  1  2  1  0
  2  3  1  0
  3  4  1  0
  4  5  1  0
  5  6  2  0
  5  7  1  0
  7  8  2  0
  7  9  1  0
  3 10  1  0
 10 11  2  0
 10 12  1  0
 12 13  1  0
 13 14  1  0
 14 15  1  0
 14 16  2  0
 13 17  2  0
 17 18  1  0
 18 19  2  0
 19 20  1  0
 20 21  2  0
 21 22  1  0
 21 23  1  0
 23 24  2  0
 24 12  1  0
 24 18  1  0
  1 25  1  0
  1 26  1  0
  1 27  1  0
  2 28  1  0
  2 29  1  0
  4 30  1  0
  4 31  1  0
 15 32  1  0
 17 33  1  0
 19 34  1  0
 20 35  1  0
 22 36  1  0
 22 37  1  0
 22 38  1  0
 23 39  1  0
M  CHG  2   9  -1  15  -1
M  END
>  <UniqueID>  (55) 
55

>  <SMILES>  (55) 
CCN(CC(=O)C(=O)[O-])C(=O)n1c(C([NH-])=O)cc2ccc(C)cc21

>  <Energy>  (55) 
71.95551758041158

>  <Genealogy>  (55) 
CCN(CC(=O)C(=O)[O-])C(=O)n1c(C([NH-])=O)cc2ccc(C)cc21 (protonated)
CCN(CC(=O)C(=O)[O-])C(=O)n1c(C([NH-])=O)cc2ccc(C)cc21 (3D coordinates assigned)
CCN(CC(=O)C(=O)[O-])C(=O)n1c(C([NH-])=O)cc2ccc(C)cc21 (optimized conformer: 71.95551758041158 kcal/mol)

>  <smiles>  (55) 
CCN(CC(=O)C(=O)O)C(=O)n1c(C(N)=O)cc2ccc(C)cc21

>  <score_type>  (55) 
oracle

>  <origin>  (55) 
adg

>  <m_score__min__energy>  (55) 
-12.710000000000001

>  <m_primary>  (55) 
energy

$$$$
55:0
     RDKit          3D

 38 40  0  0  0  0  0  0  0  0999 V2000
   -3.5270   25.6720  -29.8500 H   0  0  0  0  0  0  0  0  0  0  0  0
   -4.2450   25.5830  -30.6020 N   0  0  0  0  0  0  0  0  0  0  0  0
   -5.5910   25.2310  -30.2930 C   0  0  0  0  0  0  0  0  0  0  0  0
   -6.2660   25.9770  -29.5350 O   0  0  0  0  0  0  0  0  0  0  0  0
   -6.1820   23.9760  -30.7990 C   0  0  0  0  0  0  0  0  0  0  0  0
   -7.5000   23.8750  -31.2390 C   0  0  0  0  0  0  0  0  0  0  0  0
   -8.2311   24.6897  -31.3475 H   0  0  0  0  0  0  0  0  0  0  0  0
   -7.6930   22.5400  -31.5090 C   0  0  0  0  0  0  0  0  0  0  0  0
   -8.8230   21.8730  -31.9710 C   0  0  0  0  0  0  0  0  0  0  0  0
   -9.7604   22.4146  -32.1660 H   0  0  0  0  0  0  0  0  0  0  0  0
   -8.7310   20.4870  -32.1810 C   0  0  0  0  0  0  0  0  0  0  0  0
   -9.6121   19.9290  -32.5307 H   0  0  0  0  0  0  0  0  0  0  0  0
   -7.5110   19.8000  -31.9460 C   0  0  0  0  0  0  0  0  0  0  0  0
   -7.4090   18.3800  -32.1470 N   0  0  0  0  0  0  0  0  0  0  0  0
   -8.0580   17.7620  -31.6090 H   0  0  0  0  0  0  0  0  0  0  0  0
   -6.4700   17.7460  -33.0310 C   0  0  0  0  0  0  0  0  0  0  0  0
   -5.9650   16.5270  -32.6960 N   0  0  0  0  0  0  0  0  0  0  0  0
   -5.0510   15.8870  -33.4730 C   0  0  0  0  0  0  0  0  0  0  0  0
   -4.6735   14.8977  -33.1749 H   0  0  0  0  0  0  0  0  0  0  0  0
   -4.5910   16.4830  -34.6480 C   0  0  0  0  0  0  0  0  0  0  0  0
   -3.8575   15.9661  -35.2843 H   0  0  0  0  0  0  0  0  0  0  0  0
   -5.0730   17.7430  -35.0060 C   0  0  0  0  0  0  0  0  0  0  0  0
   -4.7151   18.2287  -35.9258 H   0  0  0  0  0  0  0  0  0  0  0  0
   -6.0100   18.3860  -34.1950 C   0  0  0  0  0  0  0  0  0  0  0  0
   -6.3849   19.3844  -34.4644 H   0  0  0  0  0  0  0  0  0  0  0  0
   -6.3950   20.5070  -31.4530 C   0  0  0  0  0  0  0  0  0  0  0  0
   -5.4486   19.9881  -31.2409 H   0  0  0  0  0  0  0  0  0  0  0  0
   -6.5200   21.8840  -31.2400 C   0  0  0  0  0  0  0  0  0  0  0  0
   -5.5750   22.7540  -30.8210 N   0  0  0  0  0  0  0  0  0  0  0  0
   -4.2090   22.4300  -30.4960 C   0  0  0  0  0  0  0  0  0  0  0  0
   -3.4060   22.1470  -31.4250 O   0  0  0  0  0  0  0  0  0  0  0  0
   -3.7280   22.3480  -29.1000 C   0  0  0  0  0  0  0  0  0  0  0  0
   -4.2280   21.6243  -28.4394 H   0  0  0  0  0  0  0  0  0  0  0  0
   -2.7370   23.0770  -28.5680 C   0  0  0  0  0  0  0  0  0  0  0  0
   -2.6199   23.0467  -27.4747 H   0  0  0  0  0  0  0  0  0  0  0  0
   -1.7920   23.9150  -29.3250 C   0  0  0  0  0  0  0  0  0  0  0  0
   -0.9490   23.3680  -30.0810 O   0  0  0  0  0  0  0  0  0  0  0  0
   -1.8790   25.3020  -29.2960 O   0  0  0  0  0  0  0  0  0  0  0  0
  1  2  1  0
  2  3  1  0
  3  4  2  0
  3  5  1  0
  5  6  2  0
  6  7  1  0
  6  8  1  0
  8  9  2  0
  9 10  1  0
  9 11  1  0
 11 12  1  0
 11 13  2  0
 13 14  1  0
 14 15  1  0
 14 16  1  0
 16 17  2  0
 17 18  1  0
 18 19  1  0
 18 20  2  0
 20 21  1  0
 20 22  1  0
 22 23  1  0
 22 24  2  0
 24 25  1  0
 13 26  1  0
 26 27  1  0
 26 28  2  0
 28 29  1  0
 29 30  1  0
 30 31  2  0
 30 32  1  0
 32 33  1  0
 32 34  2  0
 34 35  1  0
 34 36  1  0
 36 37  2  0
 36 38  1  0
 29  5  1  0
 28  8  1  0
 24 16  1  0
M  CHG  2   2  -1  38  -1
M  END
>  <UniqueID>  (56) 
56

>  <SMILES>  (56) 
[NH-]C(=O)c1cc2ccc(Nc3ccccn3)cc2n1C(=O)/C=C\C(=O)[O-]

>  <Energy>  (56) 
92.28307549260252

>  <Genealogy>  (56) 
[NH-]C(=O)c1cc2ccc(Nc3ccccn3)cc2n1C(=O)/C=C\C(=O)[O-] (protonated)
[NH-]C(=O)c1cc2ccc(Nc3ccccn3)cc2n1C(=O)/C=C\C(=O)[O-] (cis-trans isomerization)
[NH-]C(=O)c1cc2ccc(Nc3ccccn3)cc2n1C(=O)/C=C\C(=O)[O-] (3D coordinates assigned)
[NH-]C(=O)c1cc2ccc(Nc3ccccn3)cc2n1C(=O)/C=C\C(=O)[O-] (optimized conformer: 92.28307549260252 kcal/mol)

>  <smiles>  (56) 
NC(=O)c1cc2ccc(Nc3ccccn3)cc2n1C(=O)/C=C\C(=O)O

>  <score_type>  (56) 
oracle

>  <origin>  (56) 
adg

>  <m_score__min__energy>  (56) 
-12.76

>  <m_primary>  (56) 
energy

$$$$
56:0
     RDKit          3D

 42 43  0  0  0  0  0  0  0  0999 V2000
   -7.4440   21.5650  -30.8490 C   0  0  0  0  0  0  0  0  0  0  0  0
   -7.1170   20.5800  -31.8870 N   0  0  0  0  0  0  0  0  0  0  0  0
   -6.2850   20.9920  -33.0280 C   0  0  0  0  0  0  0  0  0  0  0  0
   -5.3820   19.8340  -33.4830 C   0  0  0  0  0  0  0  0  0  0  0  0
   -4.7150   19.1730  -32.3480 N   0  0  0  0  0  0  0  0  0  0  0  0
   -3.5940   19.9470  -31.8700 C   0  0  0  0  0  0  0  0  0  0  0  0
   -2.2670   19.5470  -32.1830 C   0  0  0  0  0  0  0  0  0  0  0  0
   -1.1660   20.2930  -31.7280 C   0  0  0  0  0  0  0  0  0  0  0  0
   -1.4180   21.4290  -30.9650 C   0  0  0  0  0  0  0  0  0  0  0  0
   -0.5450   22.3270  -30.3880 C   0  0  0  0  0  0  0  0  0  0  0  0
   -1.3530   23.2620  -29.7410 C   0  0  0  0  0  0  0  0  0  0  0  0
   -0.8350   24.4410  -29.0180 C   0  0  0  0  0  0  0  0  0  0  0  0
   -1.5640   25.6660  -29.0390 N   0  0  0  0  0  0  0  0  0  0  0  0
    0.2420   24.3750  -28.3690 O   0  0  0  0  0  0  0  0  0  0  0  0
   -2.6670   22.9510  -29.9130 N   0  0  0  0  0  0  0  0  0  0  0  0
   -3.8090   23.6550  -29.4120 C   0  0  0  0  0  0  0  0  0  0  0  0
   -4.1690   23.4900  -28.2140 O   0  0  0  0  0  0  0  0  0  0  0  0
   -4.5490   24.5840  -30.2760 C   0  0  0  0  0  0  0  0  0  0  0  0
   -5.7690   24.3900  -30.5220 O   0  0  0  0  0  0  0  0  0  0  0  0
   -3.9000   25.6710  -30.8500 O   0  0  0  0  0  0  0  0  0  0  0  0
   -2.6920   21.8320  -30.6620 C   0  0  0  0  0  0  0  0  0  0  0  0
   -3.8080   21.1120  -31.0970 C   0  0  0  0  0  0  0  0  0  0  0  0
   -7.6580   19.2440  -31.7680 C   0  0  0  0  0  0  0  0  0  0  0  0
   -6.8930   18.2960  -31.4380 O   0  0  0  0  0  0  0  0  0  0  0  0
   -9.0860   18.9100  -32.1000 C   0  0  0  0  0  0  0  0  0  0  0  0
   -9.5350   19.7540  -33.0950 F   0  0  0  0  0  0  0  0  0  0  0  0
   -7.2946   21.1150  -29.8564 H   0  0  0  0  0  0  0  0  0  0  0  0
   -6.7888   22.4420  -30.9564 H   0  0  0  0  0  0  0  0  0  0  0  0
   -8.4936   21.8761  -30.9564 H   0  0  0  0  0  0  0  0  0  0  0  0
   -6.9370   21.2915  -33.8618 H   0  0  0  0  0  0  0  0  0  0  0  0
   -5.6514   21.8365  -32.7192 H   0  0  0  0  0  0  0  0  0  0  0  0
   -5.9967   19.0924  -34.0141 H   0  0  0  0  0  0  0  0  0  0  0  0
   -4.6027   20.2494  -34.1389 H   0  0  0  0  0  0  0  0  0  0  0  0
   -5.4040   18.9990  -31.5780 H   0  0  0  0  0  0  0  0  0  0  0  0
   -4.3670   18.2370  -32.6630 H   0  0  0  0  0  0  0  0  0  0  0  0
   -2.0995   18.6437  -32.7880 H   0  0  0  0  0  0  0  0  0  0  0  0
   -0.1367   19.9881  -31.9678 H   0  0  0  0  0  0  0  0  0  0  0  0
    0.5541   22.3097  -30.4292 H   0  0  0  0  0  0  0  0  0  0  0  0
   -2.5900   25.6770  -29.2320 H   0  0  0  0  0  0  0  0  0  0  0  0
   -4.8263   21.4427  -30.8448 H   0  0  0  0  0  0  0  0  0  0  0  0
   -9.1480   17.8680  -32.4470 H   0  0  0  0  0  0  0  0  0  0  0  0
   -9.7104   19.0348  -31.2031 H   0  0  0  0  0  0  0  0  0  0  0  0
  1  2  1  0
  2  3  1  0
  3  4  1  0
  4  5  1  0
  5  6  1  0
  6  7  2  0
  7  8  1  0
  8  9  2  0
  9 10  1  0
 10 11  2  0
 11 12  1  0
 12 13  1  0
 12 14  2  0
 11 15  1  0
 15 16  1  0
 16 17  2  0
 16 18  1  0
 18 19  2  0
 18 20  1  0
 15 21  1  0
 21 22  2  0
  2 23  1  0
 23 24  2  0
 23 25  1  0
 25 26  1  0
 22  6  1  0
 21  9  1  0
  1 27  1  0
  1 28  1  0
  1 29  1  0
  3 30  1  0
  3 31  1  0
  4 32  1  0
  4 33  1  0
  5 34  1  0
  5 35  1  0
  7 36  1  0
  8 37  1  0
 10 38  1  0
 13 39  1  0
 22 40  1  0
 25 41  1  0
 25 42  1  0
M  CHG  3   5   1  13  -1  20  -1
M  END
>  <UniqueID>  (57) 
57

>  <SMILES>  (57) 
CN(CC[NH2+]c1ccc2cc(C([NH-])=O)n(C(=O)C(=O)[O-])c2c1)C(=O)CF

>  <Energy>  (57) 
79.05488047097337

>  <Genealogy>  (57) 
CN(CC[NH2+]c1ccc2cc(C([NH-])=O)n(C(=O)C(=O)[O-])c2c1)C(=O)CF (protonated)
CN(CC[NH2+]c1ccc2cc(C([NH-])=O)n(C(=O)C(=O)[O-])c2c1)C(=O)CF (3D coordinates assigned)
CN(CC[NH2+]c1ccc2cc(C([NH-])=O)n(C(=O)C(=O)[O-])c2c1)C(=O)CF (optimized conformer: 79.05488047097337 kcal/mol)

>  <smiles>  (57) 
CN(CCNc1ccc2cc(C(N)=O)n(C(=O)C(=O)O)c2c1)C(=O)CF

>  <score_type>  (57) 
oracle

>  <origin>  (57) 
adg

>  <m_score__min__energy>  (57) 
-9.7300000000000004

>  <m_primary>  (57) 
energy

$$$$
57:0
     RDKit          3D

 45 46  0  0  0  0  0  0  0  0999 V2000
   -8.4440   19.0560  -32.9680 C   0  0  0  0  0  0  0  0  0  0  0  0
   -8.1010   20.2330  -32.1040 C   0  0  0  0  0  0  0  0  0  0  0  0
   -9.1020   20.8500  -31.3140 C   0  0  0  0  0  0  0  0  0  0  0  0
   -8.7850   21.9450  -30.4920 C   0  0  0  0  0  0  0  0  0  0  0  0
   -7.4610   22.3860  -30.4680 C   0  0  0  0  0  0  0  0  0  0  0  0
   -6.8900   23.4410  -29.7940 C   0  0  0  0  0  0  0  0  0  0  0  0
   -5.5410   23.4230  -30.1490 C   0  0  0  0  0  0  0  0  0  0  0  0
   -4.5390   24.3600  -29.5980 C   0  0  0  0  0  0  0  0  0  0  0  0
   -3.8470   25.2490  -30.4700 N   0  0  0  0  0  0  0  0  0  0  0  0
   -4.3140   24.4110  -28.3610 O   0  0  0  0  0  0  0  0  0  0  0  0
   -5.2860   22.3960  -31.0080 N   0  0  0  0  0  0  0  0  0  0  0  0
   -4.0470   22.0780  -31.6600 C   0  0  0  0  0  0  0  0  0  0  0  0
   -4.0520   21.3480  -32.6900 O   0  0  0  0  0  0  0  0  0  0  0  0
   -2.8430   22.5930  -31.1650 O   0  0  0  0  0  0  0  0  0  0  0  0
   -1.7270   21.7780  -30.8120 C   0  0  0  0  0  0  0  0  0  0  0  0
   -1.0510   22.3370  -29.5970 C   0  0  0  0  0  0  0  0  0  0  0  0
   -0.0380   21.7400  -29.1270 O   0  0  0  0  0  0  0  0  0  0  0  0
   -1.5790   23.5080  -28.9490 N   0  0  0  0  0  0  0  0  0  0  0  0
   -1.1090   23.9660  -27.6370 C   0  0  0  0  0  0  0  0  0  0  0  0
   -1.3680   25.4760  -27.4440 C   0  0  0  0  0  0  0  0  0  0  0  0
   -2.3170   25.6730  -26.2440 C   0  0  0  0  0  0  0  0  0  0  0  0
   -0.0380   26.2120  -27.1830 C   0  0  0  0  0  0  0  0  0  0  0  0
   -1.9730   25.9800  -28.6090 O   0  0  0  0  0  0  0  0  0  0  0  0
   -6.4740   21.7730  -31.1970 C   0  0  0  0  0  0  0  0  0  0  0  0
   -6.7650   20.6910  -32.0380 C   0  0  0  0  0  0  0  0  0  0  0  0
   -8.6950   18.1947  -32.3315 H   0  0  0  0  0  0  0  0  0  0  0  0
   -9.3066   19.3063  -33.6031 H   0  0  0  0  0  0  0  0  0  0  0  0
   -7.5820   18.8038  -33.6031 H   0  0  0  0  0  0  0  0  0  0  0  0
  -10.1337   20.4697  -31.3441 H   0  0  0  0  0  0  0  0  0  0  0  0
   -9.5577   22.4399  -29.8854 H   0  0  0  0  0  0  0  0  0  0  0  0
   -7.3914   24.1492  -29.1179 H   0  0  0  0  0  0  0  0  0  0  0  0
   -2.8030   25.3000  -30.4700 H   0  0  0  0  0  0  0  0  0  0  0  0
   -2.0745   20.7564  -30.5985 H   0  0  0  0  0  0  0  0  0  0  0  0
   -1.0125   21.7606  -31.6481 H   0  0  0  0  0  0  0  0  0  0  0  0
   -2.4020   23.9970  -29.3760 H   0  0  0  0  0  0  0  0  0  0  0  0
   -1.6398   23.4081  -26.8515 H   0  0  0  0  0  0  0  0  0  0  0  0
   -0.0251   23.7890  -27.5753 H   0  0  0  0  0  0  0  0  0  0  0  0
   -1.7526   25.5558  -25.3071 H   0  0  0  0  0  0  0  0  0  0  0  0
   -2.7550   26.6812  -26.2846 H   0  0  0  0  0  0  0  0  0  0  0  0
   -3.1201   24.9224  -26.2846 H   0  0  0  0  0  0  0  0  0  0  0  0
    0.1246   26.3020  -26.0988 H   0  0  0  0  0  0  0  0  0  0  0  0
    0.7898   25.6436  -27.6320 H   0  0  0  0  0  0  0  0  0  0  0  0
   -0.0799   27.2153  -27.6320 H   0  0  0  0  0  0  0  0  0  0  0  0
   -2.9280   25.7100  -28.5990 H   0  0  0  0  0  0  0  0  0  0  0  0
   -5.9740   20.2099  -32.6320 H   0  0  0  0  0  0  0  0  0  0  0  0
  1  2  1  0
  2  3  2  0
  3  4  1  0
  4  5  2  0
  5  6  1  0
  6  7  2  0
  7  8  1  0
  8  9  1  0
  8 10  2  0
  7 11  1  0
 11 12  1  0
 12 13  2  0
 12 14  1  0
 14 15  1  0
 15 16  1  0
 16 17  2  0
 16 18  1  0
 18 19  1  0
 19 20  1  0
 20 21  1  0
 20 22  1  0
 20 23  1  0
 11 24  1  0
 24 25  2  0
 25  2  1  0
 24  5  1  0
  1 26  1  0
  1 27  1  0
  1 28  1  0
  3 29  1  0
  4 30  1  0
  6 31  1  0
  9 32  1  0
 15 33  1  0
 15 34  1  0
 18 35  1  0
 19 36  1  0
 19 37  1  0
 21 38  1  0
 21 39  1  0
 21 40  1  0
 22 41  1  0
 22 42  1  0
 22 43  1  0
 23 44  1  0
 25 45  1  0
M  CHG  1   9  -1
M  END
>  <UniqueID>  (58) 
58

>  <SMILES>  (58) 
Cc1ccc2cc(C([NH-])=O)n(C(=O)OCC(=O)NCC(C)(C)O)c2c1

>  <Energy>  (58) 
76.10222398718305

>  <Genealogy>  (58) 
Cc1ccc2cc(C([NH-])=O)n(C(=O)OCC(=O)NCC(C)(C)O)c2c1 (protonated)
Cc1ccc2cc(C([NH-])=O)n(C(=O)OCC(=O)NCC(C)(C)O)c2c1 (3D coordinates assigned)
Cc1ccc2cc(C([NH-])=O)n(C(=O)OCC(=O)NCC(C)(C)O)c2c1 (optimized conformer: 76.10222398718305 kcal/mol)

>  <smiles>  (58) 
Cc1ccc2cc(C(N)=O)n(C(=O)OCC(=O)NCC(C)(C)O)c2c1

>  <score_type>  (58) 
oracle

>  <origin>  (58) 
adg

>  <m_score__min__energy>  (58) 
-11.050000000000001

>  <m_primary>  (58) 
energy

$$$$
58:0
     RDKit          3D

 49 51  0  0  0  0  0  0  0  0999 V2000
   -3.9670   25.6550  -30.8300 N   0  0  0  0  0  0  0  0  0  0  0  0
   -5.2710   25.2720  -30.3880 C   0  0  0  0  0  0  0  0  0  0  0  0
   -5.9210   26.0490  -29.6380 O   0  0  0  0  0  0  0  0  0  0  0  0
   -5.8500   23.9860  -30.8300 C   0  0  0  0  0  0  0  0  0  0  0  0
   -7.1920   23.8050  -31.1550 C   0  0  0  0  0  0  0  0  0  0  0  0
   -7.3160   22.4680  -31.4650 C   0  0  0  0  0  0  0  0  0  0  0  0
   -8.4260   21.7400  -31.8890 C   0  0  0  0  0  0  0  0  0  0  0  0
   -8.2470   20.3780  -32.1850 C   0  0  0  0  0  0  0  0  0  0  0  0
   -6.9750   19.7620  -32.0370 C   0  0  0  0  0  0  0  0  0  0  0  0
   -6.7820   18.3220  -32.4360 C   0  0  0  0  0  0  0  0  0  0  0  0
   -5.8570   17.7010  -31.6140 F   0  0  0  0  0  0  0  0  0  0  0  0
   -6.3310   18.2680  -33.7430 F   0  0  0  0  0  0  0  0  0  0  0  0
   -7.9780   17.6290  -32.3430 F   0  0  0  0  0  0  0  0  0  0  0  0
   -5.8720   20.5380  -31.6120 C   0  0  0  0  0  0  0  0  0  0  0  0
   -6.0850   21.8890  -31.3220 C   0  0  0  0  0  0  0  0  0  0  0  0
   -5.1750   22.8060  -30.9370 N   0  0  0  0  0  0  0  0  0  0  0  0
   -3.7770   22.5720  -30.7300 C   0  0  0  0  0  0  0  0  0  0  0  0
   -2.9290   23.3430  -31.2560 O   0  0  0  0  0  0  0  0  0  0  0  0
   -3.3180   21.4780  -29.8130 C   0  0  0  0  0  0  0  0  0  0  0  0
   -1.7970   21.5380  -29.6300 C   0  0  0  0  0  0  0  0  0  0  0  0
   -1.4530   22.0420  -28.2810 N   0  0  0  0  0  0  0  0  0  0  0  0
   -0.0590   21.7030  -27.8980 C   0  0  0  0  0  0  0  0  0  0  0  0
    0.3590   22.3520  -26.5610 C   0  0  0  0  0  0  0  0  0  0  0  0
   -0.8530   22.8590  -25.7760 C   0  0  0  0  0  0  0  0  0  0  0  0
   -1.6500   23.8800  -26.6000 C   0  0  0  0  0  0  0  0  0  0  0  0
   -1.7720   23.4830  -28.0990 C   0  0  1  0  0  0  0  0  0  0  0  0
   -0.9180   24.4060  -29.0050 C   0  0  0  0  0  0  0  0  0  0  0  0
   -1.5260   25.6650  -29.1070 O   0  0  0  0  0  0  0  0  0  0  0  0
   -3.1110   25.2730  -30.3720 H   0  0  0  0  0  0  0  0  0  0  0  0
   -7.9848   24.5675  -31.1626 H   0  0  0  0  0  0  0  0  0  0  0  0
   -9.4122   22.2169  -31.9889 H   0  0  0  0  0  0  0  0  0  0  0  0
   -9.1020   19.7813  -32.5356 H   0  0  0  0  0  0  0  0  0  0  0  0
   -4.8722   20.0903  -31.5121 H   0  0  0  0  0  0  0  0  0  0  0  0
   -3.8059   21.5967  -28.8343 H   0  0  0  0  0  0  0  0  0  0  0  0
   -3.5866   20.5065  -30.2536 H   0  0  0  0  0  0  0  0  0  0  0  0
   -1.3778   20.5289  -29.7565 H   0  0  0  0  0  0  0  0  0  0  0  0
   -1.3765   22.2222  -30.3817 H   0  0  0  0  0  0  0  0  0  0  0  0
    0.0250   20.6104  -27.8017 H   0  0  0  0  0  0  0  0  0  0  0  0
    0.6078   22.0913  -28.6820 H   0  0  0  0  0  0  0  0  0  0  0  0
    0.8909   21.6054  -25.9530 H   0  0  0  0  0  0  0  0  0  0  0  0
    1.0076   23.2119  -26.7846 H   0  0  0  0  0  0  0  0  0  0  0  0
   -1.5045   22.0076  -25.5295 H   0  0  0  0  0  0  0  0  0  0  0  0
   -0.4975   23.3487  -24.8574 H   0  0  0  0  0  0  0  0  0  0  0  0
   -2.6612   23.9618  -26.1749 H   0  0  0  0  0  0  0  0  0  0  0  0
   -1.1088   24.8366  -26.5542 H   0  0  0  0  0  0  0  0  0  0  0  0
   -2.8151   23.6292  -28.4163 H   0  0  0  0  0  0  0  0  0  0  0  0
    0.0854   24.5192  -28.5687 H   0  0  0  0  0  0  0  0  0  0  0  0
   -0.8380   23.9588  -30.0068 H   0  0  0  0  0  0  0  0  0  0  0  0
   -1.9920   25.6800  -29.9850 H   0  0  0  0  0  0  0  0  0  0  0  0
  1  2  1  0
  2  3  2  0
  2  4  1  0
  4  5  2  0
  5  6  1  0
  6  7  2  0
  7  8  1  0
  8  9  2  0
  9 10  1  0
 10 11  1  0
 10 12  1  0
 10 13  1  0
  9 14  1  0
 14 15  2  0
 15 16  1  0
 16 17  1  0
 17 18  2  0
 17 19  1  0
 19 20  1  0
 20 21  1  0
 21 22  1  0
 22 23  1  0
 23 24  1  0
 24 25  1  0
 25 26  1  0
 26 27  1  0
 27 28  1  0
 16  4  1  0
 26 21  1  0
 15  6  1  0
  1 29  1  0
  5 30  1  0
  7 31  1  0
  8 32  1  0
 14 33  1  0
 19 34  1  0
 19 35  1  0
 20 36  1  0
 20 37  1  0
 22 38  1  0
 22 39  1  0
 23 40  1  0
 23 41  1  0
 24 42  1  0
 24 43  1  0
 25 44  1  0
 25 45  1  0
 26 46  1  6
 27 47  1  0
 27 48  1  0
 28 49  1  0
M  CHG  1   1  -1
M  END
>  <UniqueID>  (59) 
59

>  <SMILES>  (59) 
[NH-]C(=O)c1cc2ccc(C(F)(F)F)cc2n1C(=O)CCN1CCCC[C@H]1CO

>  <Energy>  (59) 
95.45484360014196

>  <Genealogy>  (59) 
[NH-]C(=O)c1cc2ccc(C(F)(F)F)cc2n1C(=O)CCN1CCCC[C@H]1CO (protonated)
[NH-]C(=O)c1cc2ccc(C(F)(F)F)cc2n1C(=O)CCN1CCCC[C@H]1CO (3D coordinates assigned)
[NH-]C(=O)c1cc2ccc(C(F)(F)F)cc2n1C(=O)CCN1CCCC[C@H]1CO (nonaromatic ring conformer: 95.45484360014196 kcal/mol)

>  <smiles>  (59) 
NC(=O)c1cc2ccc(C(F)(F)F)cc2n1C(=O)CCN1CCCC[C@H]1CO

>  <score_type>  (59) 
oracle

>  <origin>  (59) 
adg

>  <m_score__min__energy>  (59) 
-11.390000000000001

>  <m_primary>  (59) 
energy

$$$$
59:0
     RDKit          3D

 40 41  0  0  0  0  0  0  0  0999 V2000
   -3.5150   25.1110  -30.5010 N   0  0  0  0  0  0  0  0  0  0  0  0
   -4.9400   25.1290  -30.5060 C   0  0  0  0  0  0  0  0  0  0  0  0
   -5.5450   26.1910  -30.2020 O   0  0  0  0  0  0  0  0  0  0  0  0
   -5.6890   23.8940  -30.8220 C   0  0  0  0  0  0  0  0  0  0  0  0
   -7.0540   23.8760  -31.1040 C   0  0  0  0  0  0  0  0  0  0  0  0
   -7.3420   22.5720  -31.4320 C   0  0  0  0  0  0  0  0  0  0  0  0
   -8.5520   21.9870  -31.7900 C   0  0  0  0  0  0  0  0  0  0  0  0
   -8.5650   20.6060  -32.0530 C   0  0  0  0  0  0  0  0  0  0  0  0
   -7.3770   19.8410  -31.9470 C   0  0  0  0  0  0  0  0  0  0  0  0
   -7.3960   18.3620  -32.2110 C   0  0  0  0  0  0  0  0  0  0  0  0
   -7.0290   18.1190  -33.5210 F   0  0  0  0  0  0  0  0  0  0  0  0
   -8.6690   17.8650  -31.9930 F   0  0  0  0  0  0  0  0  0  0  0  0
   -6.1670   20.4700  -31.5770 C   0  0  0  0  0  0  0  0  0  0  0  0
   -6.1810   21.8500  -31.3400 C   0  0  0  0  0  0  0  0  0  0  0  0
   -5.1560   22.6470  -30.9630 N   0  0  0  0  0  0  0  0  0  0  0  0
   -3.8050   22.2290  -30.7120 C   0  0  0  0  0  0  0  0  0  0  0  0
   -2.8530   22.7460  -31.3590 O   0  0  0  0  0  0  0  0  0  0  0  0
   -3.5490   21.2660  -29.7310 O   0  0  0  0  0  0  0  0  0  0  0  0
   -3.5110   21.5720  -28.3410 C   0  0  0  0  0  0  0  0  0  0  0  0
   -2.0770   21.9400  -27.9350 C   0  0  1  0  0  0  0  0  0  0  0  0
   -1.2660   22.0970  -29.0740 O   0  0  0  0  0  0  0  0  0  0  0  0
   -2.0370   23.2100  -27.0710 C   0  0  0  0  0  0  0  0  0  0  0  0
   -2.4360   24.3190  -27.8430 O   0  0  0  0  0  0  0  0  0  0  0  0
   -1.0610   24.9490  -28.6320 P   0  0  2  0  0  0  0  0  0  0  0  0
    0.1620   24.7710  -27.7610 O   0  0  0  0  0  0  0  0  0  0  0  0
   -1.2790   26.5930  -28.9730 O   0  0  0  0  0  0  0  0  0  0  0  0
   -0.8300   24.1110  -30.0840 O   0  0  0  0  0  0  0  0  0  0  0  0
   -2.9890   24.3900  -29.9590 H   0  0  0  0  0  0  0  0  0  0  0  0
   -7.7527   24.7250  -31.0711 H   0  0  0  0  0  0  0  0  0  0  0  0
   -9.4710   22.5868  -31.8651 H   0  0  0  0  0  0  0  0  0  0  0  0
   -9.5055   20.1151  -32.3436 H   0  0  0  0  0  0  0  0  0  0  0  0
   -6.6871   17.8656  -31.5320 H   0  0  0  0  0  0  0  0  0  0  0  0
   -5.2375   19.8902  -31.4776 H   0  0  0  0  0  0  0  0  0  0  0  0
   -4.1795   22.4208  -28.1344 H   0  0  0  0  0  0  0  0  0  0  0  0
   -3.8409   20.6953  -27.7643 H   0  0  0  0  0  0  0  0  0  0  0  0
   -1.6835   21.1114  -27.3279 H   0  0  0  0  0  0  0  0  0  0  0  0
   -1.8020   22.5760  -29.7600 H   0  0  0  0  0  0  0  0  0  0  0  0
   -2.7203   23.0935  -26.2169 H   0  0  0  0  0  0  0  0  0  0  0  0
   -1.0126   23.3700  -26.7035 H   0  0  0  0  0  0  0  0  0  0  0  0
   -1.7400   23.8420  -30.3650 H   0  0  0  0  0  0  0  0  0  0  0  0
  1  2  1  0
  2  3  2  0
  2  4  1  0
  4  5  2  0
  5  6  1  0
  6  7  2  0
  7  8  1  0
  8  9  2  0
  9 10  1  0
 10 11  1  0
 10 12  1  0
  9 13  1  0
 13 14  2  0
 14 15  1  0
 15 16  1  0
 16 17  2  0
 16 18  1  0
 18 19  1  0
 19 20  1  0
 20 21  1  0
 20 22  1  0
 22 23  1  0
 23 24  1  0
 24 25  2  0
 24 26  1  6
 24 27  1  0
 15  4  1  0
 14  6  1  0
  1 28  1  0
  5 29  1  0
  7 30  1  0
  8 31  1  0
 10 32  1  0
 13 33  1  0
 19 34  1  0
 19 35  1  0
 20 36  1  1
 21 37  1  0
 22 38  1  0
 22 39  1  0
 27 40  1  0
M  CHG  2   1  -1  26  -1
M  END
>  <UniqueID>  (60) 
60

>  <SMILES>  (60) 
[NH-]C(=O)c1cc2ccc(C(F)F)cc2n1C(=O)OC[C@@H](O)CO[P@](=O)([O-])O

>  <Energy>  (60) 
71.1280414392767

>  <Genealogy>  (60) 
[NH-]C(=O)c1cc2ccc(C(F)F)cc2n1C(=O)OCC(O)COP(=O)([O-])O (protonated)
[NH-]C(=O)c1cc2ccc(C(F)F)cc2n1C(=O)OC[C@@H](O)CO[P@](=O)([O-])O (chirality)
[NH-]C(=O)c1cc2ccc(C(F)F)cc2n1C(=O)OC[C@@H](O)CO[P@](=O)([O-])O (3D coordinates assigned)
[NH-]C(=O)c1cc2ccc(C(F)F)cc2n1C(=O)OC[C@@H](O)CO[P@](=O)([O-])O (optimized conformer: 71.1280414392767 kcal/mol)

>  <smiles>  (60) 
NC(=O)c1cc2ccc(C(F)F)cc2n1C(=O)OCC(O)COP(=O)(O)O

>  <score_type>  (60) 
oracle

>  <origin>  (60) 
adg

>  <m_score__min__energy>  (60) 
-11.17

>  <m_primary>  (60) 
energy

$$$$
60:0
     RDKit          3D

 37 39  0  0  0  0  0  0  0  0999 V2000
   -3.9390   25.6620  -30.8940 N   0  0  0  0  0  0  0  0  0  0  0  0
   -5.2570   25.1940  -30.6170 C   0  0  0  0  0  0  0  0  0  0  0  0
   -6.0800   25.9650  -30.0570 O   0  0  0  0  0  0  0  0  0  0  0  0
   -5.6550   23.8300  -31.0250 C   0  0  0  0  0  0  0  0  0  0  0  0
   -6.9560   23.4860  -31.3840 C   0  0  0  0  0  0  0  0  0  0  0  0
   -6.9270   22.1280  -31.6050 C   0  0  0  0  0  0  0  0  0  0  0  0
   -7.9440   21.2640  -32.0010 C   0  0  0  0  0  0  0  0  0  0  0  0
   -7.6220   19.9090  -32.1840 C   0  0  0  0  0  0  0  0  0  0  0  0
   -6.2990   19.4420  -31.9690 C   0  0  0  0  0  0  0  0  0  0  0  0
   -5.9730   18.0590  -32.2040 N   0  0  0  0  0  0  0  0  0  0  0  0
   -6.4040   17.6870  -33.5590 C   0  0  0  0  0  0  0  0  0  0  0  0
   -5.3330   17.0430  -34.4290 C   0  0  0  0  0  0  0  0  0  0  0  0
   -5.7360   18.4920  -34.6630 C   0  0  0  0  0  0  0  0  0  0  0  0
   -5.2920   20.3540  -31.5760 C   0  0  0  0  0  0  0  0  0  0  0  0
   -5.6450   21.6950  -31.3860 C   0  0  0  0  0  0  0  0  0  0  0  0
   -4.8500   22.7290  -31.0320 N   0  0  0  0  0  0  0  0  0  0  0  0
   -3.4370   22.6670  -30.7820 C   0  0  0  0  0  0  0  0  0  0  0  0
   -2.6810   22.0520  -31.5830 O   0  0  0  0  0  0  0  0  0  0  0  0
   -2.9100   23.2710  -29.6340 O   0  0  0  0  0  0  0  0  0  0  0  0
   -1.5600   23.1020  -29.2110 C   0  0  0  0  0  0  0  0  0  0  0  0
   -0.8990   24.4330  -29.0400 C   0  0  0  0  0  0  0  0  0  0  0  0
    0.3200   24.5040  -28.7330 O   0  0  0  0  0  0  0  0  0  0  0  0
   -1.6240   25.5990  -29.2530 O   0  0  0  0  0  0  0  0  0  0  0  0
   -3.1140   25.2690  -30.3910 H   0  0  0  0  0  0  0  0  0  0  0  0
   -7.8229   24.1574  -31.4722 H   0  0  0  0  0  0  0  0  0  0  0  0
   -8.9679   21.6309  -32.1655 H   0  0  0  0  0  0  0  0  0  0  0  0
   -8.4040   19.2018  -32.4975 H   0  0  0  0  0  0  0  0  0  0  0  0
   -4.9370   17.9280  -32.1400 H   0  0  0  0  0  0  0  0  0  0  0  0
   -6.4100   17.4600  -31.4640 H   0  0  0  0  0  0  0  0  0  0  0  0
   -7.4383   17.4280  -33.2886 H   0  0  0  0  0  0  0  0  0  0  0  0
   -4.3462   16.8082  -34.0034 H   0  0  0  0  0  0  0  0  0  0  0  0
   -5.2778   16.1399  -35.0546 H   0  0  0  0  0  0  0  0  0  0  0  0
   -5.0401   19.3045  -34.4070 H   0  0  0  0  0  0  0  0  0  0  0  0
   -6.0925   19.0698  -35.5285 H   0  0  0  0  0  0  0  0  0  0  0  0
   -4.2560   20.0174  -31.4233 H   0  0  0  0  0  0  0  0  0  0  0  0
   -1.5449   22.5635  -28.2519 H   0  0  0  0  0  0  0  0  0  0  0  0
   -1.0151   22.5273  -29.9745 H   0  0  0  0  0  0  0  0  0  0  0  0
  1  2  1  0
  2  3  2  0
  2  4  1  0
  4  5  2  0
  5  6  1  0
  6  7  2  0
  7  8  1  0
  8  9  2  0
  9 10  1  0
 10 11  1  0
 11 12  1  0
 12 13  1  0
  9 14  1  0
 14 15  2  0
 15 16  1  0
 16 17  1  0
 17 18  2  0
 17 19  1  0
 19 20  1  0
 20 21  1  0
 21 22  2  0
 21 23  1  0
 16  4  1  0
 15  6  1  0
 13 11  1  0
  1 24  1  0
  5 25  1  0
  7 26  1  0
  8 27  1  0
 10 28  1  0
 10 29  1  0
 11 30  1  0
 12 31  1  0
 12 32  1  0
 13 33  1  0
 13 34  1  0
 14 35  1  0
 20 36  1  0
 20 37  1  0
M  CHG  3   1  -1  10   1  23  -1
M  END
>  <UniqueID>  (61) 
61

>  <SMILES>  (61) 
[NH-]C(=O)c1cc2ccc([NH2+]C3CC3)cc2n1C(=O)OCC(=O)[O-]

>  <Energy>  (61) 
340.63581013147865

>  <Genealogy>  (61) 
[NH-]C(=O)c1cc2ccc([NH2+]C3CC3)cc2n1C(=O)OCC(=O)[O-] (protonated)
[NH-]C(=O)c1cc2ccc([NH2+]C3CC3)cc2n1C(=O)OCC(=O)[O-] (3D coordinates assigned)
[NH-]C(=O)c1cc2ccc([NH2+]C3CC3)cc2n1C(=O)OCC(=O)[O-] (nonaromatic ring conformer: 340.63581013147865 kcal/mol)

>  <smiles>  (61) 
NC(=O)c1cc2ccc(NC3CC3)cc2n1C(=O)OCC(=O)O

>  <score_type>  (61) 
oracle

>  <origin>  (61) 
adg

>  <m_score__min__energy>  (61) 
-11.800000000000001

>  <m_primary>  (61) 
energy

$$$$
61:0
     RDKit          3D

 32 33  0  0  0  0  0  0  0  0999 V2000
   -5.5090   24.4430  -29.0210 N   0  0  0  0  0  0  0  0  0  0  0  0
   -6.5820   24.3050  -29.9540 C   0  0  0  0  0  0  0  0  0  0  0  0
   -7.3790   25.2660  -30.1230 O   0  0  0  0  0  0  0  0  0  0  0  0
   -6.8120   23.0380  -30.6740 C   0  0  0  0  0  0  0  0  0  0  0  0
   -8.0780   22.5150  -30.9200 C   0  0  0  0  0  0  0  0  0  0  0  0
   -7.8580   21.3130  -31.5550 C   0  0  0  0  0  0  0  0  0  0  0  0
   -8.7680   20.3880  -32.0550 C   0  0  0  0  0  0  0  0  0  0  0  0
   -8.2620   19.2550  -32.7130 C   0  0  0  0  0  0  0  0  0  0  0  0
   -6.8640   19.0620  -32.8530 C   0  0  0  0  0  0  0  0  0  0  0  0
   -6.3350   17.8750  -33.6200 C   0  0  0  0  0  0  0  0  0  0  0  0
   -6.0920   18.2150  -34.9400 F   0  0  0  0  0  0  0  0  0  0  0  0
   -5.1560   17.4480  -33.0400 F   0  0  0  0  0  0  0  0  0  0  0  0
   -7.2490   16.8360  -33.6020 F   0  0  0  0  0  0  0  0  0  0  0  0
   -5.9710   20.0400  -32.3550 C   0  0  0  0  0  0  0  0  0  0  0  0
   -6.5030   21.1480  -31.6830 C   0  0  0  0  0  0  0  0  0  0  0  0
   -5.8450   22.2020  -31.1480 N   0  0  0  0  0  0  0  0  0  0  0  0
   -4.4300   22.4490  -31.1980 C   0  0  0  0  0  0  0  0  0  0  0  0
   -3.8700   22.6870  -32.3030 O   0  0  0  0  0  0  0  0  0  0  0  0
   -3.6800   22.4200  -30.0170 O   0  0  0  0  0  0  0  0  0  0  0  0
   -2.4440   23.1100  -29.8520 C   0  0  0  0  0  0  0  0  0  0  0  0
   -2.7450   24.8270  -29.3320 P   0  0  0  0  0  0  0  0  0  0  0  0
   -3.3190   24.8340  -27.9350 O   0  0  0  0  0  0  0  0  0  0  0  0
   -3.8450   25.5500  -30.3930 O   0  0  0  0  0  0  0  0  0  0  0  0
   -1.2970   25.7020  -29.3450 O   0  0  0  0  0  0  0  0  0  0  0  0
   -4.9360   23.6200  -28.7320 H   0  0  0  0  0  0  0  0  0  0  0  0
   -5.3370   25.3600  -28.5520 H   0  0  0  0  0  0  0  0  0  0  0  0
   -9.0477   22.9657  -30.6622 H   0  0  0  0  0  0  0  0  0  0  0  0
   -9.8514   20.5391  -31.9387 H   0  0  0  0  0  0  0  0  0  0  0  0
   -8.9579   18.5090  -33.1244 H   0  0  0  0  0  0  0  0  0  0  0  0
   -4.8849   19.9328  -32.4923 H   0  0  0  0  0  0  0  0  0  0  0  0
   -1.8424   22.5989  -29.0860 H   0  0  0  0  0  0  0  0  0  0  0  0
   -1.9060   23.1155  -30.8115 H   0  0  0  0  0  0  0  0  0  0  0  0
  1  2  1  0
  2  3  2  0
  2  4  1  0
  4  5  2  0
  5  6  1  0
  6  7  2  0
  7  8  1  0
  8  9  2  0
  9 10  1  0
 10 11  1  0
 10 12  1  0
 10 13  1  0
  9 14  1  0
 14 15  2  0
 15 16  1  0
 16 17  1  0
 17 18  2  0
 17 19  1  0
 19 20  1  0
 20 21  1  0
 21 22  2  0
 21 23  1  0
 21 24  1  0
 16  4  1  0
 15  6  1  0
  1 25  1  0
  1 26  1  0
  5 27  1  0
  7 28  1  0
  8 29  1  0
 14 30  1  0
 20 31  1  0
 20 32  1  0
M  CHG  2  23  -1  24  -1
M  END
>  <UniqueID>  (62) 
62

>  <SMILES>  (62) 
NC(=O)c1cc2ccc(C(F)(F)F)cc2n1C(=O)OCP(=O)([O-])[O-]

>  <Energy>  (62) 
67.29257873500184

>  <Genealogy>  (62) 
NC(=O)c1cc2ccc(C(F)(F)F)cc2n1C(=O)OCP(=O)([O-])[O-] (protonated)
NC(=O)c1cc2ccc(C(F)(F)F)cc2n1C(=O)OCP(=O)([O-])[O-] (3D coordinates assigned)
NC(=O)c1cc2ccc(C(F)(F)F)cc2n1C(=O)OCP(=O)([O-])[O-] (optimized conformer: 67.29257873500184 kcal/mol)

>  <smiles>  (62) 
NC(=O)c1cc2ccc(C(F)(F)F)cc2n1C(=O)OCP(=O)(O)O

>  <score_type>  (62) 
oracle

>  <origin>  (62) 
adg

>  <m_score__min__energy>  (62) 
-11.85

>  <m_primary>  (62) 
energy

$$$$
62:0
     RDKit          3D

 38 39  0  0  0  0  0  0  0  0999 V2000
   -3.2830   25.2210  -30.7870 H   0  0  0  0  0  0  0  0  0  0  0  0
   -4.2200   25.6770  -30.8490 N   0  0  0  0  0  0  0  0  0  0  0  0
   -5.3790   25.0440  -30.3110 C   0  0  0  0  0  0  0  0  0  0  0  0
   -6.0530   25.6390  -29.4310 O   0  0  0  0  0  0  0  0  0  0  0  0
   -5.7700   23.7000  -30.7850 C   0  0  0  0  0  0  0  0  0  0  0  0
   -7.0770   23.3410  -31.1120 C   0  0  0  0  0  0  0  0  0  0  0  0
   -7.9779   23.9682  -31.0416 H   0  0  0  0  0  0  0  0  0  0  0  0
   -7.0010   22.0340  -31.5420 C   0  0  0  0  0  0  0  0  0  0  0  0
   -8.0000   21.1770  -31.9920 C   0  0  0  0  0  0  0  0  0  0  0  0
   -9.0465   21.5099  -32.0554 H   0  0  0  0  0  0  0  0  0  0  0  0
   -7.6310   19.8730  -32.3630 C   0  0  0  0  0  0  0  0  0  0  0  0
   -8.3952   19.1766  -32.7384 H   0  0  0  0  0  0  0  0  0  0  0  0
   -6.2820   19.4460  -32.2580 C   0  0  0  0  0  0  0  0  0  0  0  0
   -5.8950   18.0570  -32.6790 C   0  0  0  0  0  0  0  0  0  0  0  0
   -5.0628   17.7050  -32.0517 H   0  0  0  0  0  0  0  0  0  0  0  0
   -6.7611   17.3895  -32.5596 H   0  0  0  0  0  0  0  0  0  0  0  0
   -5.4690   18.0560  -34.1130 C   0  0  0  0  0  0  0  0  0  0  0  0
   -4.5750   17.2640  -34.5080 O   0  0  0  0  0  0  0  0  0  0  0  0
   -6.0950   18.8990  -35.0230 O   0  0  0  0  0  0  0  0  0  0  0  0
   -5.2940   20.3470  -31.8050 C   0  0  0  0  0  0  0  0  0  0  0  0
   -4.2420   20.0364  -31.7224 H   0  0  0  0  0  0  0  0  0  0  0  0
   -5.6880   21.6450  -31.4640 C   0  0  0  0  0  0  0  0  0  0  0  0
   -4.9230   22.6570  -31.0050 N   0  0  0  0  0  0  0  0  0  0  0  0
   -3.5010   22.6330  -30.8140 C   0  0  0  0  0  0  0  0  0  0  0  0
   -2.7560   23.2990  -31.5820 O   0  0  0  0  0  0  0  0  0  0  0  0
   -2.8930   21.7630  -29.7560 C   0  0  0  0  0  0  0  0  0  0  0  0
   -2.1707   21.0757  -30.2207 H   0  0  0  0  0  0  0  0  0  0  0  0
   -3.6894   21.1889  -29.2599 H   0  0  0  0  0  0  0  0  0  0  0  0
   -2.1840   22.6140  -28.7300 C   0  0  0  0  0  0  0  0  0  0  0  0
   -2.1580   22.2660  -27.4790 N   0  0  0  0  0  0  0  0  0  0  0  0
   -2.7400   21.1020  -27.0290 O   0  0  0  0  0  0  0  0  0  0  0  0
   -1.9370   19.9780  -26.7070 C   0  0  0  0  0  0  0  0  0  0  0  0
   -1.8663   19.8790  -25.6137 H   0  0  0  0  0  0  0  0  0  0  0  0
   -2.3918   19.0696  -27.1288 H   0  0  0  0  0  0  0  0  0  0  0  0
   -0.9302   20.1138  -27.1288 H   0  0  0  0  0  0  0  0  0  0  0  0
   -1.5840   23.9050  -29.1160 C   0  0  0  0  0  0  0  0  0  0  0  0
   -2.3040   24.9250  -29.2780 O   0  0  0  0  0  0  0  0  0  0  0  0
   -0.2110   24.0060  -29.2980 O   0  0  0  0  0  0  0  0  0  0  0  0
  1  2  1  0
  2  3  1  0
  3  4  2  0
  3  5  1  0
  5  6  2  0
  6  7  1  0
  6  8  1  0
  8  9  2  0
  9 10  1  0
  9 11  1  0
 11 12  1  0
 11 13  2  0
 13 14  1  0
 14 15  1  0
 14 16  1  0
 14 17  1  0
 17 18  2  0
 17 19  1  0
 13 20  1  0
 20 21  1  0
 20 22  2  0
 22 23  1  0
 23 24  1  0
 24 25  2  0
 24 26  1  0
 26 27  1  0
 26 28  1  0
 26 29  1  0
 29 30  2  0
 30 31  1  0
 31 32  1  0
 32 33  1  0
 32 34  1  0
 32 35  1  0
 29 36  1  0
 36 37  2  0
 36 38  1  0
 23  5  1  0
 22  8  1  0
M  CHG  3   2  -1  19  -1  38  -1
M  END
>  <UniqueID>  (63) 
63

>  <SMILES>  (63) 
CO/N=C(\CC(=O)n1c(C([NH-])=O)cc2ccc(CC(=O)[O-])cc21)C(=O)[O-]

>  <Energy>  (63) 
69.00300731638934

>  <Genealogy>  (63) 
CO/N=C(\CC(=O)n1c(C([NH-])=O)cc2ccc(CC(=O)[O-])cc21)C(=O)[O-] (protonated)
CO/N=C(\CC(=O)n1c(C([NH-])=O)cc2ccc(CC(=O)[O-])cc21)C(=O)[O-] (cis-trans isomerization)
CO/N=C(\CC(=O)n1c(C([NH-])=O)cc2ccc(CC(=O)[O-])cc21)C(=O)[O-] (3D coordinates assigned)
CO/N=C(\CC(=O)n1c(C([NH-])=O)cc2ccc(CC(=O)[O-])cc21)C(=O)[O-] (optimized conformer: 69.00300731638934 kcal/mol)

>  <smiles>  (63) 
CO/N=C(\CC(=O)n1c(C(N)=O)cc2ccc(CC(=O)O)cc21)C(=O)O

>  <score_type>  (63) 
oracle

>  <origin>  (63) 
adg

>  <m_score__min__energy>  (63) 
-12.26

>  <m_primary>  (63) 
energy

$$$$
63:0
     RDKit          3D

 47 48  0  0  0  0  0  0  0  0999 V2000
   -4.5000   16.4490  -33.1380 C   0  0  0  0  0  0  0  0  0  0  0  0
   -4.6660   17.9140  -33.2070 N   0  0  1  0  0  0  0  0  0  0  0  0
   -3.6090   18.5590  -34.0250 C   0  0  0  0  0  0  0  0  0  0  0  0
   -2.8970   19.7170  -33.2970 C   0  0  0  0  0  0  0  0  0  0  0  0
   -3.1360   19.6740  -31.9150 O   0  0  0  0  0  0  0  0  0  0  0  0
   -5.9690   18.2200  -33.7720 C   0  0  0  0  0  0  0  0  0  0  0  0
   -6.0970   18.3590  -34.9820 O   0  0  0  0  0  0  0  0  0  0  0  0
   -7.1730   18.4150  -32.8810 C   0  0  0  0  0  0  0  0  0  0  0  0
   -7.2630   19.8420  -32.4060 C   0  0  0  0  0  0  0  0  0  0  0  0
   -8.5220   20.4940  -32.3530 C   0  0  0  0  0  0  0  0  0  0  0  0
   -8.6180   21.8320  -31.9360 C   0  0  0  0  0  0  0  0  0  0  0  0
   -7.4430   22.4930  -31.5870 C   0  0  0  0  0  0  0  0  0  0  0  0
   -7.2520   23.7770  -31.1270 C   0  0  0  0  0  0  0  0  0  0  0  0
   -5.8770   23.8980  -30.9240 C   0  0  0  0  0  0  0  0  0  0  0  0
   -5.2260   25.1560  -30.4970 C   0  0  0  0  0  0  0  0  0  0  0  0
   -3.8610   25.4230  -30.8130 N   0  0  0  0  0  0  0  0  0  0  0  0
   -5.8990   26.0260  -29.8790 O   0  0  0  0  0  0  0  0  0  0  0  0
   -5.2440   22.7320  -31.2400 N   0  0  0  0  0  0  0  0  0  0  0  0
   -3.8520   22.4160  -31.0830 C   0  0  0  0  0  0  0  0  0  0  0  0
   -3.0420   22.6580  -32.0180 O   0  0  0  0  0  0  0  0  0  0  0  0
   -3.4040   21.8210  -29.9000 O   0  0  0  0  0  0  0  0  0  0  0  0
   -3.4650   22.4820  -28.6390 C   0  0  0  0  0  0  0  0  0  0  0  0
   -2.1940   23.3000  -28.4180 C   0  0  0  0  0  0  0  0  0  0  0  0
   -1.9440   24.1430  -29.5120 O   0  0  0  0  0  0  0  0  0  0  0  0
   -6.2160   21.8840  -31.6480 C   0  0  0  0  0  0  0  0  0  0  0  0
   -6.0920   20.5480  -32.0470 C   0  0  0  0  0  0  0  0  0  0  0  0
   -4.4642   16.1332  -32.0849 H   0  0  0  0  0  0  0  0  0  0  0  0
   -5.3485   15.9599  -33.6388 H   0  0  0  0  0  0  0  0  0  0  0  0
   -3.5636   16.1621  -33.6388 H   0  0  0  0  0  0  0  0  0  0  0  0
   -4.6160   18.2900  -32.2320 H   0  0  0  0  0  0  0  0  0  0  0  0
   -2.8591   17.7988  -34.2891 H   0  0  0  0  0  0  0  0  0  0  0  0
   -4.0983   18.9842  -34.9137 H   0  0  0  0  0  0  0  0  0  0  0  0
   -1.8143   19.6410  -33.4759 H   0  0  0  0  0  0  0  0  0  0  0  0
   -3.2903   20.6670  -33.6880 H   0  0  0  0  0  0  0  0  0  0  0  0
   -2.7990   20.5330  -31.5410 H   0  0  0  0  0  0  0  0  0  0  0  0
   -8.0834   18.1649  -33.4455 H   0  0  0  0  0  0  0  0  0  0  0  0
   -7.0726   17.7579  -32.0046 H   0  0  0  0  0  0  0  0  0  0  0  0
   -9.4316   19.9466  -32.6412 H   0  0  0  0  0  0  0  0  0  0  0  0
   -9.5914   22.3420  -31.8867 H   0  0  0  0  0  0  0  0  0  0  0  0
   -8.0209   24.5448  -30.9558 H   0  0  0  0  0  0  0  0  0  0  0  0
   -3.2200   24.6520  -31.1100 H   0  0  0  0  0  0  0  0  0  0  0  0
   -4.3375   23.1517  -28.6202 H   0  0  0  0  0  0  0  0  0  0  0  0
   -3.5552   21.7307  -27.8406 H   0  0  0  0  0  0  0  0  0  0  0  0
   -2.3126   23.9119  -27.5116 H   0  0  0  0  0  0  0  0  0  0  0  0
   -1.3460   22.6083  -28.3065 H   0  0  0  0  0  0  0  0  0  0  0  0
   -2.5310   23.8290  -30.2470 H   0  0  0  0  0  0  0  0  0  0  0  0
   -5.1071   20.0592  -32.0804 H   0  0  0  0  0  0  0  0  0  0  0  0
  1  2  1  0
  2  3  1  0
  3  4  1  0
  4  5  1  0
  2  6  1  0
  6  7  2  0
  6  8  1  0
  8  9  1  0
  9 10  2  0
 10 11  1  0
 11 12  2  0
 12 13  1  0
 13 14  2  0
 14 15  1  0
 15 16  1  0
 15 17  2  0
 14 18  1  0
 18 19  1  0
 19 20  2  0
 19 21  1  0
 21 22  1  0
 22 23  1  0
 23 24  1  0
 18 25  1  0
 25 26  2  0
 26  9  1  0
 25 12  1  0
  1 27  1  0
  1 28  1  0
  1 29  1  0
  2 30  1  1
  3 31  1  0
  3 32  1  0
  4 33  1  0
  4 34  1  0
  5 35  1  0
  8 36  1  0
  8 37  1  0
 10 38  1  0
 11 39  1  0
 13 40  1  0
 16 41  1  0
 22 42  1  0
 22 43  1  0
 23 44  1  0
 23 45  1  0
 24 46  1  0
 26 47  1  0
M  CHG  2   2   1  16  -1
M  END
>  <UniqueID>  (64) 
64

>  <SMILES>  (64) 
C[N@@H+](CCO)C(=O)Cc1ccc2cc(C([NH-])=O)n(C(=O)OCCO)c2c1

>  <Energy>  (64) 
80.46951504017265

>  <Genealogy>  (64) 
C[NH+](CCO)C(=O)Cc1ccc2cc(C([NH-])=O)n(C(=O)OCCO)c2c1 (protonated)
C[N@@H+](CCO)C(=O)Cc1ccc2cc(C([NH-])=O)n(C(=O)OCCO)c2c1 (chirality)
C[N@@H+](CCO)C(=O)Cc1ccc2cc(C([NH-])=O)n(C(=O)OCCO)c2c1 (3D coordinates assigned)
C[N@@H+](CCO)C(=O)Cc1ccc2cc(C([NH-])=O)n(C(=O)OCCO)c2c1 (optimized conformer: 80.46951504017265 kcal/mol)

>  <smiles>  (64) 
CN(CCO)C(=O)Cc1ccc2cc(C(N)=O)n(C(=O)OCCO)c2c1

>  <score_type>  (64) 
oracle

>  <origin>  (64) 
adg

>  <m_score__min__energy>  (64) 
-9.0099999999999998

>  <m_primary>  (64) 
energy

$$$$
64:0
     RDKit          3D

 45 46  0  0  0  0  0  0  0  0999 V2000
   -4.1400   23.3590  -27.5310 C   0  0  0  0  0  0  0  0  0  0  0  0
   -2.7240   23.1150  -27.8640 N   0  0  0  0  0  0  0  0  0  0  0  0
   -1.8500   24.1690  -27.3010 C   0  0  0  0  0  0  0  0  0  0  0  0
   -1.0880   24.8620  -28.3900 C   0  0  0  0  0  0  0  0  0  0  0  0
    0.0090   24.3990  -28.7980 O   0  0  0  0  0  0  0  0  0  0  0  0
   -1.6080   26.0150  -28.9690 O   0  0  0  0  0  0  0  0  0  0  0  0
   -2.2880   21.7330  -27.5430 C   0  0  0  0  0  0  0  0  0  0  0  0
   -1.0780   21.2670  -28.3130 C   0  0  0  0  0  0  0  0  0  0  0  0
    0.0640   21.3430  -27.7780 O   0  0  0  0  0  0  0  0  0  0  0  0
   -1.2170   20.8010  -29.6280 O   0  0  0  0  0  0  0  0  0  0  0  0
   -1.6510   21.6340  -30.7010 C   0  0  0  0  0  0  0  0  0  0  0  0
   -3.0060   22.0260  -30.4940 O   0  0  0  0  0  0  0  0  0  0  0  0
   -3.9410   22.0830  -31.5340 C   0  0  0  0  0  0  0  0  0  0  0  0
   -3.5980   21.8030  -32.7150 O   0  0  0  0  0  0  0  0  0  0  0  0
   -5.2980   22.4630  -31.2550 N   0  0  0  0  0  0  0  0  0  0  0  0
   -5.7380   23.6560  -30.7670 C   0  0  0  0  0  0  0  0  0  0  0  0
   -4.9170   24.8690  -30.5870 C   0  0  0  0  0  0  0  0  0  0  0  0
   -3.6090   24.8000  -30.0140 N   0  0  0  0  0  0  0  0  0  0  0  0
   -5.3550   25.9760  -30.9960 O   0  0  0  0  0  0  0  0  0  0  0  0
   -7.1070   23.6060  -30.5100 C   0  0  0  0  0  0  0  0  0  0  0  0
   -7.4980   22.3380  -30.8760 C   0  0  0  0  0  0  0  0  0  0  0  0
   -8.7520   21.7360  -30.8190 C   0  0  0  0  0  0  0  0  0  0  0  0
   -8.8640   20.4020  -31.2400 C   0  0  0  0  0  0  0  0  0  0  0  0
   -7.7300   19.6950  -31.7190 C   0  0  0  0  0  0  0  0  0  0  0  0
   -7.8510   18.2500  -32.1400 C   0  0  0  0  0  0  0  0  0  0  0  0
   -7.5130   18.1030  -33.4780 F   0  0  0  0  0  0  0  0  0  0  0  0
   -6.9950   17.4790  -31.3720 F   0  0  0  0  0  0  0  0  0  0  0  0
   -9.1480   17.7950  -31.9710 F   0  0  0  0  0  0  0  0  0  0  0  0
   -6.4670   20.3310  -31.7310 C   0  0  0  0  0  0  0  0  0  0  0  0
   -6.3890   21.6670  -31.3230 C   0  0  0  0  0  0  0  0  0  0  0  0
   -4.2613   23.3799  -26.4379 H   0  0  0  0  0  0  0  0  0  0  0  0
   -4.4549   24.3246  -27.9534 H   0  0  0  0  0  0  0  0  0  0  0  0
   -4.7599   22.5544  -27.9534 H   0  0  0  0  0  0  0  0  0  0  0  0
   -2.4695   24.9057  -26.7685 H   0  0  0  0  0  0  0  0  0  0  0  0
   -1.1333   23.7023  -26.6092 H   0  0  0  0  0  0  0  0  0  0  0  0
   -2.0514   21.6874  -26.4697 H   0  0  0  0  0  0  0  0  0  0  0  0
   -3.1167   21.0681  -27.8279 H   0  0  0  0  0  0  0  0  0  0  0  0
   -1.0150   22.5303  -30.7470 H   0  0  0  0  0  0  0  0  0  0  0  0
   -1.5760   21.0757  -31.6458 H   0  0  0  0  0  0  0  0  0  0  0  0
   -3.0750   25.6790  -29.8150 H   0  0  0  0  0  0  0  0  0  0  0  0
   -3.1280   23.8800  -29.8610 H   0  0  0  0  0  0  0  0  0  0  0  0
   -7.7395   24.4081  -30.1020 H   0  0  0  0  0  0  0  0  0  0  0  0
   -9.6296   22.2900  -30.4545 H   0  0  0  0  0  0  0  0  0  0  0  0
   -9.8412   19.8987  -31.1984 H   0  0  0  0  0  0  0  0  0  0  0  0
   -5.5666   19.7878  -32.0537 H   0  0  0  0  0  0  0  0  0  0  0  0
  1  2  1  0
  2  3  1  0
  3  4  1  0
  4  5  2  0
  4  6  1  0
  2  7  1  0
  7  8  1  0
  8  9  2  0
  8 10  1  0
 10 11  1  0
 11 12  1  0
 12 13  1  0
 13 14  2  0
 13 15  1  0
 15 16  1  0
 16 17  1  0
 17 18  1  0
 17 19  2  0
 16 20  2  0
 20 21  1  0
 21 22  2  0
 22 23  1  0
 23 24  2  0
 24 25  1  0
 25 26  1  0
 25 27  1  0
 25 28  1  0
 24 29  1  0
 29 30  2  0
 30 15  1  0
 30 21  1  0
  1 31  1  0
  1 32  1  0
  1 33  1  0
  3 34  1  0
  3 35  1  0
  7 36  1  0
  7 37  1  0
 11 38  1  0
 11 39  1  0
 18 40  1  0
 18 41  1  0
 20 42  1  0
 22 43  1  0
 23 44  1  0
 29 45  1  0
M  CHG  1   6  -1
M  END
>  <UniqueID>  (65) 
65

>  <SMILES>  (65) 
CN(CC(=O)[O-])CC(=O)OCOC(=O)n1c(C(N)=O)cc2ccc(C(F)(F)F)cc21

>  <Energy>  (65) 
84.72404508677847

>  <Genealogy>  (65) 
CN(CC(=O)[O-])CC(=O)OCOC(=O)n1c(C(N)=O)cc2ccc(C(F)(F)F)cc21 (protonated)
CN(CC(=O)[O-])CC(=O)OCOC(=O)n1c(C(N)=O)cc2ccc(C(F)(F)F)cc21 (3D coordinates assigned)
CN(CC(=O)[O-])CC(=O)OCOC(=O)n1c(C(N)=O)cc2ccc(C(F)(F)F)cc21 (optimized conformer: 84.72404508677847 kcal/mol)

>  <smiles>  (65) 
CN(CC(=O)O)CC(=O)OCOC(=O)n1c(C(N)=O)cc2ccc(C(F)(F)F)cc21

>  <score_type>  (65) 
oracle

>  <origin>  (65) 
adg

>  <m_score__min__energy>  (65) 
-9.5199999999999996

>  <m_primary>  (65) 
energy

$$$$
65:0
     RDKit          3D

 37 39  0  0  0  0  0  0  0  0999 V2000
   -3.8830   25.3310  -30.5360 N   0  0  0  0  0  0  0  0  0  0  0  0
   -3.3890   23.9970  -30.4510 C   0  0  0  0  0  0  0  0  0  0  0  0
   -2.3340   23.7710  -29.8000 O   0  0  0  0  0  0  0  0  0  0  0  0
   -4.1230   22.8740  -31.0710 C   0  0  0  0  0  0  0  0  0  0  0  0
   -5.5020   22.7040  -30.9610 C   0  0  0  0  0  0  0  0  0  0  0  0
   -5.7980   21.6110  -31.7430 C   0  0  0  0  0  0  0  0  0  0  0  0
   -7.0200   20.9990  -32.0000 C   0  0  0  0  0  0  0  0  0  0  0  0
   -7.0280   19.8690  -32.8360 C   0  0  0  0  0  0  0  0  0  0  0  0
   -5.8200   19.3580  -33.3770 C   0  0  0  0  0  0  0  0  0  0  0  0
   -5.8460   18.1690  -34.3040 C   0  0  0  0  0  0  0  0  0  0  0  0
   -6.8470   17.2860  -33.9380 F   0  0  0  0  0  0  0  0  0  0  0  0
   -6.0800   18.6040  -35.5960 F   0  0  0  0  0  0  0  0  0  0  0  0
   -4.6390   17.4940  -34.2680 F   0  0  0  0  0  0  0  0  0  0  0  0
   -4.6010   20.0240  -33.1100 C   0  0  0  0  0  0  0  0  0  0  0  0
   -4.6260   21.1560  -32.2870 C   0  0  0  0  0  0  0  0  0  0  0  0
   -3.5880   21.9190  -31.8810 N   0  0  0  0  0  0  0  0  0  0  0  0
   -2.2020   21.6970  -32.1820 C   0  0  0  0  0  0  0  0  0  0  0  0
   -1.3650   21.6150  -31.2420 O   0  0  0  0  0  0  0  0  0  0  0  0
   -1.7640   21.6450  -33.5490 N   0  0  0  0  0  0  0  0  0  0  0  0
   -0.4740   21.1700  -33.9670 C   0  0  0  0  0  0  0  0  0  0  0  0
    0.0880   20.0000  -33.4290 C   0  0  0  0  0  0  0  0  0  0  0  0
    1.3320   19.5610  -33.8850 C   0  0  0  0  0  0  0  0  0  0  0  0
    1.9880   20.2560  -34.8520 N   0  0  0  0  0  0  0  0  0  0  0  0
    1.4680   21.3830  -35.4090 C   0  0  0  0  0  0  0  0  0  0  0  0
    2.2290   22.0830  -36.4580 C   0  0  0  0  0  0  0  0  0  0  0  0
    3.1460   21.4950  -37.0920 O   0  0  0  0  0  0  0  0  0  0  0  0
    1.9390   23.4090  -36.7560 O   0  0  0  0  0  0  0  0  0  0  0  0
    0.2170   21.8540  -34.9770 C   0  0  0  0  0  0  0  0  0  0  0  0
   -3.4910   26.0070  -31.2300 H   0  0  0  0  0  0  0  0  0  0  0  0
   -6.2044   23.3139  -30.3739 H   0  0  0  0  0  0  0  0  0  0  0  0
   -7.9516   21.3872  -31.5626 H   0  0  0  0  0  0  0  0  0  0  0  0
   -7.9818   19.3752  -33.0735 H   0  0  0  0  0  0  0  0  0  0  0  0
   -3.6555   19.6608  -33.5391 H   0  0  0  0  0  0  0  0  0  0  0  0
   -2.4030   22.0440  -34.2730 H   0  0  0  0  0  0  0  0  0  0  0  0
   -0.4488   19.4338  -32.6536 H   0  0  0  0  0  0  0  0  0  0  0  0
    1.7824   18.6512  -33.4613 H   0  0  0  0  0  0  0  0  0  0  0  0
   -0.2190   22.7567  -35.4298 H   0  0  0  0  0  0  0  0  0  0  0  0
  1  2  1  0
  2  3  2  0
  2  4  1  0
  4  5  2  0
  5  6  1  0
  6  7  2  0
  7  8  1  0
  8  9  2  0
  9 10  1  0
 10 11  1  0
 10 12  1  0
 10 13  1  0
  9 14  1  0
 14 15  2  0
 15 16  1  0
 16 17  1  0
 17 18  2  0
 17 19  1  0
 19 20  1  0
 20 21  2  0
 21 22  1  0
 22 23  2  0
 23 24  1  0
 24 25  1  0
 25 26  2  0
 25 27  1  0
 24 28  2  0
 16  4  1  0
 28 20  1  0
 15  6  1  0
  1 29  1  0
  5 30  1  0
  7 31  1  0
  8 32  1  0
 14 33  1  0
 19 34  1  0
 21 35  1  0
 22 36  1  0
 28 37  1  0
M  CHG  2   1  -1  27  -1
M  END
>  <UniqueID>  (66) 
66

>  <SMILES>  (66) 
[NH-]C(=O)c1cc2ccc(C(F)(F)F)cc2n1C(=O)Nc1ccnc(C(=O)[O-])c1

>  <Energy>  (66) 
83.51586454194077

>  <Genealogy>  (66) 
[NH-]C(=O)c1cc2ccc(C(F)(F)F)cc2n1C(=O)Nc1ccnc(C(=O)[O-])c1 (protonated)
[NH-]C(=O)c1cc2ccc(C(F)(F)F)cc2n1C(=O)Nc1ccnc(C(=O)[O-])c1 (3D coordinates assigned)
[NH-]C(=O)c1cc2ccc(C(F)(F)F)cc2n1C(=O)Nc1ccnc(C(=O)[O-])c1 (optimized conformer: 83.51586454194077 kcal/mol)

>  <smiles>  (66) 
NC(=O)c1cc2ccc(C(F)(F)F)cc2n1C(=O)Nc1ccnc(C(=O)O)c1

>  <score_type>  (66) 
oracle

>  <origin>  (66) 
adg

>  <m_score__min__energy>  (66) 
-11.859999999999999

>  <m_primary>  (66) 
energy

$$$$
66:0
     RDKit          3D

 33 34  0  0  0  0  0  0  0  0999 V2000
   -6.3470   18.1220  -32.1790 C   0  0  0  0  0  0  0  0  0  0  0  0
   -6.5980   19.5890  -31.9990 C   0  0  0  0  0  0  0  0  0  0  0  0
   -7.8950   20.1190  -32.2140 C   0  0  0  0  0  0  0  0  0  0  0  0
   -8.1490   21.4890  -32.0210 C   0  0  0  0  0  0  0  0  0  0  0  0
   -7.0960   22.2940  -31.5970 C   0  0  0  0  0  0  0  0  0  0  0  0
   -7.0540   23.6490  -31.3520 C   0  0  0  0  0  0  0  0  0  0  0  0
   -5.7430   23.9150  -30.9600 C   0  0  0  0  0  0  0  0  0  0  0  0
   -5.2650   25.2530  -30.5510 C   0  0  0  0  0  0  0  0  0  0  0  0
   -3.9330   25.6750  -30.8320 N   0  0  0  0  0  0  0  0  0  0  0  0
   -6.0350   26.0240  -29.9180 O   0  0  0  0  0  0  0  0  0  0  0  0
   -5.0060   22.7680  -30.9600 N   0  0  0  0  0  0  0  0  0  0  0  0
   -3.6020   22.6250  -30.6950 C   0  0  0  0  0  0  0  0  0  0  0  0
   -2.7710   23.0590  -31.5380 O   0  0  0  0  0  0  0  0  0  0  0  0
   -3.1300   21.9940  -29.4400 C   0  0  0  0  0  0  0  0  0  0  0  0
   -2.7620   20.3950  -29.4440 S   0  0  0  0  0  0  0  0  0  0  0  0
   -3.0150   22.7250  -28.2070 N   0  0  0  0  0  0  0  0  0  0  0  0
   -3.0190   24.1870  -28.1390 C   0  0  0  0  0  0  0  0  0  0  0  0
   -1.6940   24.7370  -28.5640 C   0  0  0  0  0  0  0  0  0  0  0  0
   -0.6810   23.9890  -28.6040 O   0  0  0  0  0  0  0  0  0  0  0  0
   -1.5880   26.0610  -28.9680 O   0  0  0  0  0  0  0  0  0  0  0  0
   -5.8440   21.7880  -31.3570 C   0  0  0  0  0  0  0  0  0  0  0  0
   -5.5570   20.4340  -31.5550 C   0  0  0  0  0  0  0  0  0  0  0  0
   -6.2646   17.6405  -31.1934 H   0  0  0  0  0  0  0  0  0  0  0  0
   -7.1814   17.6731  -32.7378 H   0  0  0  0  0  0  0  0  0  0  0  0
   -5.4108   17.9760  -32.7378 H   0  0  0  0  0  0  0  0  0  0  0  0
   -8.7099   19.4532  -32.5345 H   0  0  0  0  0  0  0  0  0  0  0  0
   -9.1490   21.9110  -32.1997 H   0  0  0  0  0  0  0  0  0  0  0  0
   -7.8804   24.3689  -31.4459 H   0  0  0  0  0  0  0  0  0  0  0  0
   -3.1130   25.1490  -30.4560 H   0  0  0  0  0  0  0  0  0  0  0  0
   -2.8230   22.1810  -27.3350 H   0  0  0  0  0  0  0  0  0  0  0  0
   -3.8030   24.5778  -28.8043 H   0  0  0  0  0  0  0  0  0  0  0  0
   -3.2139   24.4934  -27.1007 H   0  0  0  0  0  0  0  0  0  0  0  0
   -4.5477   20.0376  -31.3700 H   0  0  0  0  0  0  0  0  0  0  0  0
  1  2  1  0
  2  3  2  0
  3  4  1  0
  4  5  2  0
  5  6  1  0
  6  7  2  0
  7  8  1  0
  8  9  1  0
  8 10  2  0
  7 11  1  0
 11 12  1  0
 12 13  2  0
 12 14  1  0
 14 15  2  0
 14 16  1  0
 16 17  1  0
 17 18  1  0
 18 19  2  0
 18 20  1  0
 11 21  1  0
 21 22  2  0
 22  2  1  0
 21  5  1  0
  1 23  1  0
  1 24  1  0
  1 25  1  0
  3 26  1  0
  4 27  1  0
  6 28  1  0
  9 29  1  0
 16 30  1  0
 17 31  1  0
 17 32  1  0
 22 33  1  0
M  CHG  2   9  -1  20  -1
M  END
>  <UniqueID>  (67) 
67

>  <SMILES>  (67) 
Cc1ccc2cc(C([NH-])=O)n(C(=O)C(=S)NCC(=O)[O-])c2c1

>  <Energy>  (67) 
72.10466673360351

>  <Genealogy>  (67) 
Cc1ccc2cc(C([NH-])=O)n(C(=O)C(=S)NCC(=O)[O-])c2c1 (protonated)
Cc1ccc2cc(C([NH-])=O)n(C(=O)C(=S)NCC(=O)[O-])c2c1 (3D coordinates assigned)
Cc1ccc2cc(C([NH-])=O)n(C(=O)C(=S)NCC(=O)[O-])c2c1 (optimized conformer: 72.10466673360351 kcal/mol)

>  <smiles>  (67) 
Cc1ccc2cc(C(N)=O)n(C(=O)C(=S)NCC(=O)O)c2c1

>  <score_type>  (67) 
oracle

>  <origin>  (67) 
adg

>  <m_score__min__energy>  (67) 
-12.01

>  <m_primary>  (67) 
energy

$$$$
67:0
     RDKit          3D

 55 56  0  0  0  0  0  0  0  0999 V2000
   -7.6000   17.6440  -32.7040 C   0  0  0  0  0  0  0  0  0  0  0  0
   -7.5650   18.8060  -32.3880 C   0  0  0  0  0  0  0  0  0  0  0  0
   -7.5220   20.1940  -32.0100 C   0  0  0  0  0  0  0  0  0  0  0  0
   -8.7220   20.9340  -31.9060 C   0  0  0  0  0  0  0  0  0  0  0  0
   -8.6890   22.2970  -31.5630 C   0  0  0  0  0  0  0  0  0  0  0  0
   -7.4470   22.8770  -31.3140 C   0  0  0  0  0  0  0  0  0  0  0  0
   -7.1250   24.1740  -30.9890 C   0  0  0  0  0  0  0  0  0  0  0  0
   -5.7380   24.1920  -30.8600 C   0  0  0  0  0  0  0  0  0  0  0  0
   -4.9680   25.3910  -30.4680 C   0  0  0  0  0  0  0  0  0  0  0  0
   -3.6050   25.2600  -30.0690 N   0  0  0  0  0  0  0  0  0  0  0  0
   -5.4930   26.5340  -30.4960 O   0  0  0  0  0  0  0  0  0  0  0  0
   -5.2220   22.9500  -31.0870 N   0  0  0  0  0  0  0  0  0  0  0  0
   -3.8440   22.5510  -31.0120 C   0  0  0  0  0  0  0  0  0  0  0  0
   -2.9620   23.2720  -31.5540 O   0  0  0  0  0  0  0  0  0  0  0  0
   -3.4380   21.3200  -30.2280 C   0  0  2  0  0  0  0  0  0  0  0  0
   -3.1800   21.6550  -28.7460 C   0  0  0  0  0  0  0  0  0  0  0  0
   -2.1610   22.7540  -28.5820 C   0  0  0  0  0  0  0  0  0  0  0  0
   -1.0970   22.6990  -29.2550 O   0  0  0  0  0  0  0  0  0  0  0  0
   -2.3870   23.8660  -27.6900 N   0  0  0  0  0  0  0  0  0  0  0  0
   -3.7350   24.1540  -27.1910 C   0  0  0  0  0  0  0  0  0  0  0  0
   -1.2460   24.6290  -27.1680 C   0  0  0  0  0  0  0  0  0  0  0  0
   -1.0840   25.9440  -27.9320 C   0  0  0  0  0  0  0  0  0  0  0  0
   -1.2520   25.7280  -29.3070 O   0  0  0  0  0  0  0  0  0  0  0  0
   -2.2280   20.7260  -30.8110 N   0  0  0  0  0  0  0  0  0  0  0  0
   -2.1880   20.2030  -32.1510 C   0  0  0  0  0  0  0  0  0  0  0  0
   -3.2120   20.2960  -32.8840 O   0  0  0  0  0  0  0  0  0  0  0  0
   -0.9990   19.5690  -32.6710 N   0  0  0  0  0  0  0  0  0  0  0  0
    0.1830   19.3760  -31.8250 C   0  0  0  0  0  0  0  0  0  0  0  0
   -0.9930   19.0940  -34.0590 C   0  0  0  0  0  0  0  0  0  0  0  0
   -6.2800   22.1600  -31.3770 C   0  0  0  0  0  0  0  0  0  0  0  0
   -6.2820   20.8120  -31.7530 C   0  0  0  0  0  0  0  0  0  0  0  0
   -7.6320   16.5830  -32.9925 H   0  0  0  0  0  0  0  0  0  0  0  0
   -9.6869   20.4406  -32.0945 H   0  0  0  0  0  0  0  0  0  0  0  0
   -9.6148   22.8870  -31.4934 H   0  0  0  0  0  0  0  0  0  0  0  0
   -7.8169   25.0191  -30.8584 H   0  0  0  0  0  0  0  0  0  0  0  0
   -2.8340   25.2990  -30.7710 H   0  0  0  0  0  0  0  0  0  0  0  0
   -4.2690   20.6013  -30.2821 H   0  0  0  0  0  0  0  0  0  0  0  0
   -4.1257   21.9765  -28.2852 H   0  0  0  0  0  0  0  0  0  0  0  0
   -2.7852   20.7515  -28.2583 H   0  0  0  0  0  0  0  0  0  0  0  0
   -3.7269   24.1523  -26.0910 H   0  0  0  0  0  0  0  0  0  0  0  0
   -4.0571   25.1412  -27.5538 H   0  0  0  0  0  0  0  0  0  0  0  0
   -4.4324   23.3846  -27.5538 H   0  0  0  0  0  0  0  0  0  0  0  0
   -1.4140   24.8477  -26.1031 H   0  0  0  0  0  0  0  0  0  0  0  0
   -0.3316   24.0306  -27.2935 H   0  0  0  0  0  0  0  0  0  0  0  0
   -1.8392   26.6631  -27.5821 H   0  0  0  0  0  0  0  0  0  0  0  0
   -0.0747   26.3424  -27.7516 H   0  0  0  0  0  0  0  0  0  0  0  0
   -1.6100   24.8070  -29.4080 H   0  0  0  0  0  0  0  0  0  0  0  0
   -1.3460   20.7900  -30.2560 H   0  0  0  0  0  0  0  0  0  0  0  0
   -0.1120   19.4242  -30.7664 H   0  0  0  0  0  0  0  0  0  0  0  0
    0.6291   18.3931  -32.0370 H   0  0  0  0  0  0  0  0  0  0  0  0
    0.9186   20.1659  -32.0370 H   0  0  0  0  0  0  0  0  0  0  0  0
   -0.9791   17.9941  -34.0701 H   0  0  0  0  0  0  0  0  0  0  0  0
   -1.8958   19.4545  -34.5738 H   0  0  0  0  0  0  0  0  0  0  0  0
   -0.0996   19.4772  -34.5738 H   0  0  0  0  0  0  0  0  0  0  0  0
   -5.3409   20.2500  -31.8454 H   0  0  0  0  0  0  0  0  0  0  0  0
  1  2  3  0
  2  3  1  0
  3  4  2  0
  4  5  1  0
  5  6  2  0
  6  7  1  0
  7  8  2  0
  8  9  1  0
  9 10  1  0
  9 11  2  0
  8 12  1  0
 12 13  1  0
 13 14  2  0
 13 15  1  0
 15 16  1  0
 16 17  1  0
 17 18  2  0
 17 19  1  0
 19 20  1  0
 19 21  1  0
 21 22  1  0
 22 23  1  0
 15 24  1  0
 24 25  1  0
 25 26  2  0
 25 27  1  0
 27 28  1  0
 27 29  1  0
 12 30  1  0
 30 31  2  0
 31  3  1  0
 30  6  1  0
  1 32  1  0
  4 33  1  0
  5 34  1  0
  7 35  1  0
 10 36  1  0
 15 37  1  1
 16 38  1  0
 16 39  1  0
 20 40  1  0
 20 41  1  0
 20 42  1  0
 21 43  1  0
 21 44  1  0
 22 45  1  0
 22 46  1  0
 23 47  1  0
 24 48  1  0
 28 49  1  0
 28 50  1  0
 28 51  1  0
 29 52  1  0
 29 53  1  0
 29 54  1  0
 31 55  1  0
M  CHG  1  10  -1
M  END
>  <UniqueID>  (68) 
68

>  <SMILES>  (68) 
C#Cc1ccc2cc(C([NH-])=O)n(C(=O)[C@H](CC(=O)N(C)CCO)NC(=O)N(C)C)c2c1

>  <Energy>  (68) 
80.30923073113671

>  <Genealogy>  (68) 
C#Cc1ccc2cc(C([NH-])=O)n(C(=O)[C@H](CC(=O)N(C)CCO)NC(=O)N(C)C)c2c1 (protonated)
C#Cc1ccc2cc(C([NH-])=O)n(C(=O)[C@H](CC(=O)N(C)CCO)NC(=O)N(C)C)c2c1 (3D coordinates assigned)
C#Cc1ccc2cc(C([NH-])=O)n(C(=O)[C@H](CC(=O)N(C)CCO)NC(=O)N(C)C)c2c1 (optimized conformer: 80.30923073113671 kcal/mol)

>  <smiles>  (68) 
C#Cc1ccc2cc(C(N)=O)n(C(=O)[C@H](CC(=O)N(C)CCO)NC(=O)N(C)C)c2c1

>  <score_type>  (68) 
oracle

>  <origin>  (68) 
adg

>  <m_score__min__energy>  (68) 
-11.58

>  <m_primary>  (68) 
energy

$$$$
68:0
     RDKit          3D

 53 54  0  0  0  0  0  0  0  0999 V2000
   -0.9850   24.8780  -28.2460 C   0  0  0  0  0  0  0  0  0  0  0  0
   -1.9560   23.8520  -28.6660 N   0  0  0  0  0  0  0  0  0  0  0  0
   -3.1740   23.9590  -27.8480 C   0  0  0  0  0  0  0  0  0  0  0  0
   -1.3750   22.4950  -28.5560 C   0  0  0  0  0  0  0  0  0  0  0  0
   -0.6410   22.1020  -29.8460 C   0  0  0  0  0  0  0  0  0  0  0  0
   -1.2670   20.8630  -30.4960 C   0  0  0  0  0  0  0  0  0  0  0  0
   -0.7700   20.6890  -31.8690 N   0  0  0  0  0  0  0  0  0  0  0  0
    0.5070   20.0000  -32.0800 C   0  0  0  0  0  0  0  0  0  0  0  0
   -1.5080   21.1600  -33.0230 C   0  0  0  0  0  0  0  0  0  0  0  0
   -0.9430   21.9220  -33.8540 O   0  0  0  0  0  0  0  0  0  0  0  0
   -2.9480   20.7900  -33.2670 C   0  0  0  0  0  0  0  0  0  0  0  0
   -3.8630   21.9230  -33.1020 N   0  0  0  0  0  0  0  0  0  0  0  0
   -4.0970   22.6010  -31.8590 C   0  0  0  0  0  0  0  0  0  0  0  0
   -3.1350   22.8930  -31.0980 O   0  0  0  0  0  0  0  0  0  0  0  0
   -5.4330   22.9670  -31.4830 N   0  0  0  0  0  0  0  0  0  0  0  0
   -5.8520   24.1280  -30.9050 C   0  0  0  0  0  0  0  0  0  0  0  0
   -5.0260   25.3330  -30.6810 C   0  0  0  0  0  0  0  0  0  0  0  0
   -3.6110   25.2950  -30.8440 N   0  0  0  0  0  0  0  0  0  0  0  0
   -5.5820   26.4220  -30.3760 O   0  0  0  0  0  0  0  0  0  0  0  0
   -7.2100   24.0540  -30.5960 C   0  0  0  0  0  0  0  0  0  0  0  0
   -7.6100   22.8020  -31.0060 C   0  0  0  0  0  0  0  0  0  0  0  0
   -8.8530   22.1840  -30.9140 C   0  0  0  0  0  0  0  0  0  0  0  0
   -8.9690   20.8640  -31.3810 C   0  0  0  0  0  0  0  0  0  0  0  0
   -7.8500   20.1880  -31.9330 C   0  0  0  0  0  0  0  0  0  0  0  0
   -7.9940   18.7560  -32.3850 C   0  0  0  0  0  0  0  0  0  0  0  0
   -7.1840   18.5230  -33.4820 F   0  0  0  0  0  0  0  0  0  0  0  0
   -9.3090   18.5180  -32.7380 F   0  0  0  0  0  0  0  0  0  0  0  0
   -7.6320   17.8740  -31.3820 F   0  0  0  0  0  0  0  0  0  0  0  0
   -6.5990   20.8450  -31.9890 C   0  0  0  0  0  0  0  0  0  0  0  0
   -6.5190   22.1660  -31.5360 C   0  0  0  0  0  0  0  0  0  0  0  0
   -0.9466   24.9186  -27.1474 H   0  0  0  0  0  0  0  0  0  0  0  0
    0.0105   24.6232  -28.6385 H   0  0  0  0  0  0  0  0  0  0  0  0
   -1.2942   25.8580  -28.6385 H   0  0  0  0  0  0  0  0  0  0  0  0
   -2.9031   23.9352  -26.7821 H   0  0  0  0  0  0  0  0  0  0  0  0
   -3.6862   24.9056  -28.0751 H   0  0  0  0  0  0  0  0  0  0  0  0
   -3.8434   23.1162  -28.0751 H   0  0  0  0  0  0  0  0  0  0  0  0
   -0.6632   22.4758  -27.7175 H   0  0  0  0  0  0  0  0  0  0  0  0
   -2.1917   21.7779  -28.3863 H   0  0  0  0  0  0  0  0  0  0  0  0
   -0.6914   22.9413  -30.5553 H   0  0  0  0  0  0  0  0  0  0  0  0
    0.4025   21.8663  -29.5901 H   0  0  0  0  0  0  0  0  0  0  0  0
   -1.0074   19.9739  -29.9026 H   0  0  0  0  0  0  0  0  0  0  0  0
   -2.3586   20.9945  -30.5291 H   0  0  0  0  0  0  0  0  0  0  0  0
    0.9577   19.7568  -31.1065 H   0  0  0  0  0  0  0  0  0  0  0  0
    0.3342   19.0727  -32.6459 H   0  0  0  0  0  0  0  0  0  0  0  0
    1.1871   20.6536  -32.6459 H   0  0  0  0  0  0  0  0  0  0  0  0
   -3.0433   20.4084  -34.2943 H   0  0  0  0  0  0  0  0  0  0  0  0
   -3.2249   20.0303  -32.5212 H   0  0  0  0  0  0  0  0  0  0  0  0
   -4.6080   22.0170  -33.8300 H   0  0  0  0  0  0  0  0  0  0  0  0
   -3.0010   24.8370  -30.1320 H   0  0  0  0  0  0  0  0  0  0  0  0
   -7.8299   24.8310  -30.1248 H   0  0  0  0  0  0  0  0  0  0  0  0
   -9.7187   22.7128  -30.4886 H   0  0  0  0  0  0  0  0  0  0  0  0
   -9.9387   20.3484  -31.3180 H   0  0  0  0  0  0  0  0  0  0  0  0
   -5.7095   20.3292  -32.3797 H   0  0  0  0  0  0  0  0  0  0  0  0
  1  2  1  0
  2  3  1  0
  2  4  1  0
  4  5  1  0
  5  6  1  0
  6  7  1  0
  7  8  1  0
  7  9  1  0
  9 10  2  0
  9 11  1  0
 11 12  1  0
 12 13  1  0
 13 14  2  0
 13 15  1  0
 15 16  1  0
 16 17  1  0
 17 18  1  0
 17 19  2  0
 16 20  2  0
 20 21  1  0
 21 22  2  0
 22 23  1  0
 23 24  2  0
 24 25  1  0
 25 26  1  0
 25 27  1  0
 25 28  1  0
 24 29  1  0
 29 30  2  0
 30 15  1  0
 30 21  1  0
  1 31  1  0
  1 32  1  0
  1 33  1  0
  3 34  1  0
  3 35  1  0
  3 36  1  0
  4 37  1  0
  4 38  1  0
  5 39  1  0
  5 40  1  0
  6 41  1  0
  6 42  1  0
  8 43  1  0
  8 44  1  0
  8 45  1  0
 11 46  1  0
 11 47  1  0
 12 48  1  0
 18 49  1  0
 20 50  1  0
 22 51  1  0
 23 52  1  0
 29 53  1  0
M  CHG  1  18  -1
M  END
>  <UniqueID>  (69) 
69

>  <SMILES>  (69) 
CN(C)CCCN(C)C(=O)CNC(=O)n1c(C([NH-])=O)cc2ccc(C(F)(F)F)cc21

>  <Energy>  (69) 
87.9376608500942

>  <Genealogy>  (69) 
CN(C)CCCN(C)C(=O)CNC(=O)n1c(C([NH-])=O)cc2ccc(C(F)(F)F)cc21 (protonated)
CN(C)CCCN(C)C(=O)CNC(=O)n1c(C([NH-])=O)cc2ccc(C(F)(F)F)cc21 (3D coordinates assigned)
CN(C)CCCN(C)C(=O)CNC(=O)n1c(C([NH-])=O)cc2ccc(C(F)(F)F)cc21 (optimized conformer: 87.9376608500942 kcal/mol)

>  <smiles>  (69) 
CN(C)CCCN(C)C(=O)CNC(=O)n1c(C(N)=O)cc2ccc(C(F)(F)F)cc21

>  <score_type>  (69) 
oracle

>  <origin>  (69) 
adg

>  <m_score__min__energy>  (69) 
-10.720000000000001

>  <m_primary>  (69) 
energy

$$$$
69:0
     RDKit          3D

 34 35  0  0  0  0  0  0  0  0999 V2000
   -7.1420   17.3300  -33.1270 C   0  0  0  0  0  0  0  0  0  0  0  0
   -7.2220   18.4810  -32.7750 C   0  0  0  0  0  0  0  0  0  0  0  0
   -7.3180   19.8530  -32.3540 C   0  0  0  0  0  0  0  0  0  0  0  0
   -8.5730   20.5040  -32.3570 C   0  0  0  0  0  0  0  0  0  0  0  0
   -8.6830   21.8410  -31.9350 C   0  0  0  0  0  0  0  0  0  0  0  0
   -7.5220   22.4930  -31.5280 C   0  0  0  0  0  0  0  0  0  0  0  0
   -7.3480   23.7720  -31.0500 C   0  0  0  0  0  0  0  0  0  0  0  0
   -5.9850   23.8850  -30.7850 C   0  0  0  0  0  0  0  0  0  0  0  0
   -5.3380   25.1360  -30.3330 C   0  0  0  0  0  0  0  0  0  0  0  0
   -3.9290   25.1850  -30.1030 N   0  0  0  0  0  0  0  0  0  0  0  0
   -6.0330   26.1640  -30.1160 O   0  0  0  0  0  0  0  0  0  0  0  0
   -5.3400   22.7210  -31.0850 N   0  0  0  0  0  0  0  0  0  0  0  0
   -3.9520   22.4110  -30.8690 C   0  0  0  0  0  0  0  0  0  0  0  0
   -3.0790   22.8230  -31.6800 O   0  0  0  0  0  0  0  0  0  0  0  0
   -3.5640   21.6150  -29.7480 N   0  0  0  0  0  0  0  0  0  0  0  0
   -2.6860   22.0990  -28.6890 C   0  0  0  0  0  0  0  0  0  0  0  0
   -2.9850   23.4460  -28.3750 O   0  0  0  0  0  0  0  0  0  0  0  0
   -1.9670   24.0290  -27.5820 C   0  0  0  0  0  0  0  0  0  0  0  0
   -1.0900   24.8920  -28.4330 C   0  0  0  0  0  0  0  0  0  0  0  0
   -1.5950   25.6530  -29.3000 O   0  0  0  0  0  0  0  0  0  0  0  0
    0.2900   24.8330  -28.2890 O   0  0  0  0  0  0  0  0  0  0  0  0
   -6.2950   21.8790  -31.5390 C   0  0  0  0  0  0  0  0  0  0  0  0
   -6.1620   20.5420  -31.9360 C   0  0  0  0  0  0  0  0  0  0  0  0
   -7.0690   16.2804  -33.4480 H   0  0  0  0  0  0  0  0  0  0  0  0
   -9.4693   19.9612  -32.6916 H   0  0  0  0  0  0  0  0  0  0  0  0
   -9.6553   22.3553  -31.9267 H   0  0  0  0  0  0  0  0  0  0  0  0
   -8.1210   24.5415  -30.9075 H   0  0  0  0  0  0  0  0  0  0  0  0
   -3.3170   24.3680  -30.3180 H   0  0  0  0  0  0  0  0  0  0  0  0
   -3.4860   26.0630  -29.7510 H   0  0  0  0  0  0  0  0  0  0  0  0
   -2.8251   21.4785  -27.7914 H   0  0  0  0  0  0  0  0  0  0  0  0
   -1.6436   22.0370  -29.0347 H   0  0  0  0  0  0  0  0  0  0  0  0
   -2.4259   24.6419  -26.7922 H   0  0  0  0  0  0  0  0  0  0  0  0
   -1.3600   23.2316  -27.1284 H   0  0  0  0  0  0  0  0  0  0  0  0
   -5.1815   20.0435  -31.9218 H   0  0  0  0  0  0  0  0  0  0  0  0
  1  2  3  0
  2  3  1  0
  3  4  2  0
  4  5  1  0
  5  6  2  0
  6  7  1  0
  7  8  2  0
  8  9  1  0
  9 10  1  0
  9 11  2  0
  8 12  1  0
 12 13  1  0
 13 14  2  0
 13 15  1  0
 15 16  1  0
 16 17  1  0
 17 18  1  0
 18 19  1  0
 19 20  2  0
 19 21  1  0
 12 22  1  0
 22 23  2  0
 23  3  1  0
 22  6  1  0
  1 24  1  0
  4 25  1  0
  5 26  1  0
  7 27  1  0
 10 28  1  0
 10 29  1  0
 16 30  1  0
 16 31  1  0
 18 32  1  0
 18 33  1  0
 23 34  1  0
M  CHG  2  15  -1  21  -1
M  END
>  <UniqueID>  (70) 
70

>  <SMILES>  (70) 
C#Cc1ccc2cc(C(N)=O)n(C(=O)[N-]COCC(=O)[O-])c2c1

>  <Energy>  (70) 
71.55608000267809

>  <Genealogy>  (70) 
C#Cc1ccc2cc(C(N)=O)n(C(=O)[N-]COCC(=O)[O-])c2c1 (protonated)
C#Cc1ccc2cc(C(N)=O)n(C(=O)[N-]COCC(=O)[O-])c2c1 (3D coordinates assigned)
C#Cc1ccc2cc(C(N)=O)n(C(=O)[N-]COCC(=O)[O-])c2c1 (optimized conformer: 71.55608000267809 kcal/mol)

>  <smiles>  (70) 
C#Cc1ccc2cc(C(N)=O)n(C(=O)NCOCC(=O)O)c2c1

>  <score_type>  (70) 
oracle

>  <origin>  (70) 
adg

>  <m_score__min__energy>  (70) 
-10.81

>  <m_primary>  (70) 
energy

$$$$
70:0
     RDKit          3D

 47 48  0  0  0  0  0  0  0  0999 V2000
   -6.1010   15.9080  -33.8300 C   0  0  0  0  0  0  0  0  0  0  0  0
   -5.4060   16.6540  -34.8220 O   0  0  0  0  0  0  0  0  0  0  0  0
   -5.0330   17.9910  -34.6370 C   0  0  0  0  0  0  0  0  0  0  0  0
   -5.7720   18.9190  -35.0690 O   0  0  0  0  0  0  0  0  0  0  0  0
   -3.8050   18.3020  -33.9530 N   0  0  0  0  0  0  0  0  0  0  0  0
   -2.5410   17.8060  -34.5010 C   0  0  0  0  0  0  0  0  0  0  0  0
   -3.8200   19.0740  -32.7010 C   0  0  0  0  0  0  0  0  0  0  0  0
   -2.4070   19.5250  -32.3140 C   0  0  0  0  0  0  0  0  0  0  0  0
   -2.2270   20.9650  -32.5480 N   0  0  0  0  0  0  0  0  0  0  0  0
   -0.9190   21.4870  -32.8470 C   0  0  0  0  0  0  0  0  0  0  0  0
   -0.6380   21.8800  -34.0120 O   0  0  0  0  0  0  0  0  0  0  0  0
    0.0620   21.5430  -31.8640 O   0  0  0  0  0  0  0  0  0  0  0  0
   -3.3870   21.8230  -32.5440 C   0  0  0  0  0  0  0  0  0  0  0  0
   -4.0210   22.0090  -33.6180 O   0  0  0  0  0  0  0  0  0  0  0  0
   -3.8810   22.4520  -31.3010 C   0  0  0  0  0  0  0  0  0  0  0  0
   -3.1100   22.6110  -30.3160 O   0  0  0  0  0  0  0  0  0  0  0  0
   -5.2550   22.8520  -31.1870 N   0  0  0  0  0  0  0  0  0  0  0  0
   -5.7410   24.0730  -30.8290 C   0  0  0  0  0  0  0  0  0  0  0  0
   -4.9350   25.2890  -30.5870 C   0  0  0  0  0  0  0  0  0  0  0  0
   -3.5200   25.2140  -30.4300 N   0  0  0  0  0  0  0  0  0  0  0  0
   -5.5010   26.4130  -30.5400 O   0  0  0  0  0  0  0  0  0  0  0  0
   -7.1330   24.0380  -30.7550 C   0  0  0  0  0  0  0  0  0  0  0  0
   -7.4840   22.7450  -31.0740 C   0  0  0  0  0  0  0  0  0  0  0  0
   -8.7360   22.1460  -31.1460 C   0  0  0  0  0  0  0  0  0  0  0  0
   -8.7960   20.7810  -31.4760 C   0  0  0  0  0  0  0  0  0  0  0  0
   -7.6100   20.0350  -31.7000 C   0  0  0  0  0  0  0  0  0  0  0  0
   -7.6880   18.5810  -32.0910 C   0  0  0  0  0  0  0  0  0  0  0  0
   -8.8780   18.0220  -31.6590 F   0  0  0  0  0  0  0  0  0  0  0  0
   -7.6130   18.4760  -33.4670 F   0  0  0  0  0  0  0  0  0  0  0  0
   -6.6450   17.8670  -31.5260 F   0  0  0  0  0  0  0  0  0  0  0  0
   -6.3570   20.6870  -31.6380 C   0  0  0  0  0  0  0  0  0  0  0  0
   -6.3310   22.0490  -31.3250 C   0  0  0  0  0  0  0  0  0  0  0  0
   -5.7872   16.2449  -32.8310 H   0  0  0  0  0  0  0  0  0  0  0  0
   -7.1838   16.0634  -33.9460 H   0  0  0  0  0  0  0  0  0  0  0  0
   -5.8695   14.8389  -33.9460 H   0  0  0  0  0  0  0  0  0  0  0  0
   -1.8632   17.5400  -33.6765 H   0  0  0  0  0  0  0  0  0  0  0  0
   -2.7332   16.9166  -35.1191 H   0  0  0  0  0  0  0  0  0  0  0  0
   -2.0771   18.5888  -35.1191 H   0  0  0  0  0  0  0  0  0  0  0  0
   -4.4566   19.9612  -32.8336 H   0  0  0  0  0  0  0  0  0  0  0  0
   -4.2138   18.4320  -31.8993 H   0  0  0  0  0  0  0  0  0  0  0  0
   -2.2413   19.3111  -31.2478 H   0  0  0  0  0  0  0  0  0  0  0  0
   -1.6835   18.9775  -32.9359 H   0  0  0  0  0  0  0  0  0  0  0  0
   -2.9380   24.6340  -31.0730 H   0  0  0  0  0  0  0  0  0  0  0  0
   -7.8078   24.8674  -30.4966 H   0  0  0  0  0  0  0  0  0  0  0  0
   -9.6522   22.7226  -30.9507 H   0  0  0  0  0  0  0  0  0  0  0  0
   -9.7742   20.2851  -31.5616 H   0  0  0  0  0  0  0  0  0  0  0  0
   -5.4250   20.1357  -31.8314 H   0  0  0  0  0  0  0  0  0  0  0  0
  1  2  1  0
  2  3  1  0
  3  4  2  0
  3  5  1  0
  5  6  1  0
  5  7  1  0
  7  8  1  0
  8  9  1  0
  9 10  1  0
 10 11  2  0
 10 12  1  0
  9 13  1  0
 13 14  2  0
 13 15  1  0
 15 16  2  0
 15 17  1  0
 17 18  1  0
 18 19  1  0
 19 20  1  0
 19 21  2  0
 18 22  2  0
 22 23  1  0
 23 24  2  0
 24 25  1  0
 25 26  2  0
 26 27  1  0
 27 28  1  0
 27 29  1  0
 27 30  1  0
 26 31  1  0
 31 32  2  0
 32 17  1  0
 32 23  1  0
  1 33  1  0
  1 34  1  0
  1 35  1  0
  6 36  1  0
  6 37  1  0
  6 38  1  0
  7 39  1  0
  7 40  1  0
  8 41  1  0
  8 42  1  0
 20 43  1  0
 22 44  1  0
 24 45  1  0
 25 46  1  0
 31 47  1  0
M  CHG  2  12  -1  20  -1
M  END
>  <UniqueID>  (71) 
71

>  <SMILES>  (71) 
COC(=O)N(C)CCN(C(=O)[O-])C(=O)C(=O)n1c(C([NH-])=O)cc2ccc(C(F)(F)F)cc21

>  <Energy>  (71) 
82.78599684884257

>  <Genealogy>  (71) 
COC(=O)N(C)CCN(C(=O)[O-])C(=O)C(=O)n1c(C([NH-])=O)cc2ccc(C(F)(F)F)cc21 (protonated)
COC(=O)N(C)CCN(C(=O)[O-])C(=O)C(=O)n1c(C([NH-])=O)cc2ccc(C(F)(F)F)cc21 (3D coordinates assigned)
COC(=O)N(C)CCN(C(=O)[O-])C(=O)C(=O)n1c(C([NH-])=O)cc2ccc(C(F)(F)F)cc21 (optimized conformer: 82.78599684884257 kcal/mol)

>  <smiles>  (71) 
COC(=O)N(C)CCN(C(=O)O)C(=O)C(=O)n1c(C(N)=O)cc2ccc(C(F)(F)F)cc21

>  <score_type>  (71) 
oracle

>  <origin>  (71) 
adg

>  <m_score__min__energy>  (71) 
-12.44

>  <m_primary>  (71) 
energy

$$$$
71:0
     RDKit          3D

 46 47  0  0  0  0  0  0  0  0999 V2000
   -6.0330   18.7210  -34.2430 C   0  0  0  0  0  0  0  0  0  0  0  0
   -6.5650   19.7590  -33.3000 C   0  0  0  0  0  0  0  0  0  0  0  0
   -7.9500   19.8160  -33.0100 C   0  0  0  0  0  0  0  0  0  0  0  0
   -8.4580   20.8010  -32.1450 C   0  0  0  0  0  0  0  0  0  0  0  0
   -7.5640   21.7220  -31.6080 C   0  0  0  0  0  0  0  0  0  0  0  0
   -7.7870   22.7630  -30.7370 C   0  0  0  0  0  0  0  0  0  0  0  0
   -6.5420   23.3570  -30.5480 C   0  0  0  0  0  0  0  0  0  0  0  0
   -6.3420   24.5760  -29.7410 C   0  0  0  0  0  0  0  0  0  0  0  0
   -5.1150   24.8080  -29.0470 N   0  0  0  0  0  0  0  0  0  0  0  0
   -7.2440   25.4540  -29.7110 O   0  0  0  0  0  0  0  0  0  0  0  0
   -5.5800   22.7000  -31.2560 N   0  0  0  0  0  0  0  0  0  0  0  0
   -4.1650   22.9510  -31.2530 C   0  0  0  0  0  0  0  0  0  0  0  0
   -3.7330   24.1360  -31.2130 O   0  0  0  0  0  0  0  0  0  0  0  0
   -3.2710   21.8790  -31.2910 O   0  0  0  0  0  0  0  0  0  0  0  0
   -2.7410   21.2620  -30.1240 C   0  0  0  0  0  0  0  0  0  0  0  0
   -1.5810   22.1000  -29.5460 C   0  0  0  0  0  0  0  0  0  0  0  0
   -1.5430   22.2450  -28.0530 N   0  0  0  0  0  0  0  0  0  0  0  0
   -2.3540   21.1970  -27.3790 C   0  0  0  0  0  0  0  0  0  0  0  0
   -0.1460   22.1610  -27.5540 C   0  0  0  0  0  0  0  0  0  0  0  0
   -2.0640   23.5990  -27.6780 C   0  0  0  0  0  0  0  0  0  0  0  0
   -1.6090   24.7090  -28.5900 C   0  0  0  0  0  0  0  0  0  0  0  0
   -2.4350   25.2990  -29.3360 O   0  0  0  0  0  0  0  0  0  0  0  0
   -0.2730   25.0890  -28.6140 O   0  0  0  0  0  0  0  0  0  0  0  0
   -6.2250   21.7020  -31.9050 C   0  0  0  0  0  0  0  0  0  0  0  0
   -5.6890   20.7150  -32.7450 C   0  0  0  0  0  0  0  0  0  0  0  0
   -5.6056   17.8870  -33.6670 H   0  0  0  0  0  0  0  0  0  0  0  0
   -6.8509   18.3477  -34.8768 H   0  0  0  0  0  0  0  0  0  0  0  0
   -5.2524   19.1670  -34.8768 H   0  0  0  0  0  0  0  0  0  0  0  0
   -8.6335   19.0840  -33.4650 H   0  0  0  0  0  0  0  0  0  0  0  0
   -9.5296   20.8423  -31.9002 H   0  0  0  0  0  0  0  0  0  0  0  0
   -8.7446   23.0623  -30.2860 H   0  0  0  0  0  0  0  0  0  0  0  0
   -5.0000   25.6610  -28.4560 H   0  0  0  0  0  0  0  0  0  0  0  0
   -4.2910   24.1820  -29.1850 H   0  0  0  0  0  0  0  0  0  0  0  0
   -3.5357   21.1750  -29.3684 H   0  0  0  0  0  0  0  0  0  0  0  0
   -2.3598   20.2655  -30.3916 H   0  0  0  0  0  0  0  0  0  0  0  0
   -0.6382   21.6287  -29.8607 H   0  0  0  0  0  0  0  0  0  0  0  0
   -1.7331   23.1176  -29.9350 H   0  0  0  0  0  0  0  0  0  0  0  0
   -2.2663   21.3104  -26.2884 H   0  0  0  0  0  0  0  0  0  0  0  0
   -3.4082   21.3023  -27.6750 H   0  0  0  0  0  0  0  0  0  0  0  0
   -1.9876   20.2029  -27.6750 H   0  0  0  0  0  0  0  0  0  0  0  0
   -0.1489   22.1612  -26.4540 H   0  0  0  0  0  0  0  0  0  0  0  0
    0.3187   21.2333  -27.9193 H   0  0  0  0  0  0  0  0  0  0  0  0
    0.4265   23.0263  -27.9193 H   0  0  0  0  0  0  0  0  0  0  0  0
   -3.1632   23.5638  -27.6989 H   0  0  0  0  0  0  0  0  0  0  0  0
   -1.6644   23.8264  -26.6787 H   0  0  0  0  0  0  0  0  0  0  0  0
   -4.6117   20.6872  -32.9656 H   0  0  0  0  0  0  0  0  0  0  0  0
  1  2  1  0
  2  3  2  0
  3  4  1  0
  4  5  2  0
  5  6  1  0
  6  7  2  0
  7  8  1  0
  8  9  1  0
  8 10  2  0
  7 11  1  0
 11 12  1  0
 12 13  2  0
 12 14  1  0
 14 15  1  0
 15 16  1  0
 16 17  1  0
 17 18  1  0
 17 19  1  0
 17 20  1  0
 20 21  1  0
 21 22  2  0
 21 23  1  0
 11 24  1  0
 24 25  2  0
 25  2  1  0
 24  5  1  0
  1 26  1  0
  1 27  1  0
  1 28  1  0
  3 29  1  0
  4 30  1  0
  6 31  1  0
  9 32  1  0
  9 33  1  0
 15 34  1  0
 15 35  1  0
 16 36  1  0
 16 37  1  0
 18 38  1  0
 18 39  1  0
 18 40  1  0
 19 41  1  0
 19 42  1  0
 19 43  1  0
 20 44  1  0
 20 45  1  0
 25 46  1  0
M  CHG  2  17   1  23  -1
M  END
>  <UniqueID>  (72) 
72

>  <SMILES>  (72) 
Cc1ccc2cc(C(N)=O)n(C(=O)OCC[N+](C)(C)CC(=O)[O-])c2c1

>  <Energy>  (72) 
91.5610624681182

>  <Genealogy>  (72) 
Cc1ccc2cc(C(N)=O)n(C(=O)OCC[N+](C)(C)CC(=O)[O-])c2c1 (protonated)
Cc1ccc2cc(C(N)=O)n(C(=O)OCC[N+](C)(C)CC(=O)[O-])c2c1 (3D coordinates assigned)
Cc1ccc2cc(C(N)=O)n(C(=O)OCC[N+](C)(C)CC(=O)[O-])c2c1 (optimized conformer: 91.5610624681182 kcal/mol)

>  <smiles>  (72) 
Cc1ccc2cc(C(N)=O)n(C(=O)OCC[N+](C)(C)CC(=O)O)c2c1

>  <score_type>  (72) 
oracle

>  <origin>  (72) 
adg

>  <m_score__min__energy>  (72) 
-10.039999999999999

>  <m_primary>  (72) 
energy

$$$$
72:0
     RDKit          3D

 33 34  0  0  0  0  0  0  0  0999 V2000
   -6.1020   16.6920  -33.1160 C   0  0  0  0  0  0  0  0  0  0  0  0
   -5.2800   17.7380  -32.5180 N   0  0  0  0  0  0  0  0  0  0  0  0
   -5.6940   19.1130  -32.4130 C   0  0  0  0  0  0  0  0  0  0  0  0
   -6.8040   19.6150  -33.1480 C   0  0  0  0  0  0  0  0  0  0  0  0
   -7.1870   20.9620  -33.0400 C   0  0  0  0  0  0  0  0  0  0  0  0
   -6.4530   21.7840  -32.1920 C   0  0  0  0  0  0  0  0  0  0  0  0
   -6.5900   23.1260  -31.9150 C   0  0  0  0  0  0  0  0  0  0  0  0
   -5.5750   23.4210  -31.0050 C   0  0  0  0  0  0  0  0  0  0  0  0
   -5.3930   24.7460  -30.3790 C   0  0  0  0  0  0  0  0  0  0  0  0
   -4.2280   25.5260  -30.6400 N   0  0  0  0  0  0  0  0  0  0  0  0
   -6.2590   25.1830  -29.5760 O   0  0  0  0  0  0  0  0  0  0  0  0
   -4.8380   22.3060  -30.7410 N   0  0  0  0  0  0  0  0  0  0  0  0
   -3.6550   22.1980  -29.9360 C   0  0  0  0  0  0  0  0  0  0  0  0
   -3.5670   21.2810  -29.0770 O   0  0  0  0  0  0  0  0  0  0  0  0
   -2.4800   23.0890  -30.1930 C   0  0  0  0  0  0  0  0  0  0  0  0
   -2.2490   24.2220  -28.7900 P   0  0  1  0  0  0  0  0  0  0  0  0
   -1.3050   23.5950  -27.7890 O   0  0  0  0  0  0  0  0  0  0  0  0
   -1.5900   25.6790  -29.3410 O   0  0  0  0  0  0  0  0  0  0  0  0
   -3.7370   24.5270  -28.0430 O   0  0  0  0  0  0  0  0  0  0  0  0
   -5.3900   21.3140  -31.4680 C   0  0  0  0  0  0  0  0  0  0  0  0
   -4.9780   19.9820  -31.5620 C   0  0  0  0  0  0  0  0  0  0  0  0
   -6.5714   16.0947  -32.3204 H   0  0  0  0  0  0  0  0  0  0  0  0
   -6.8835   17.1512  -33.7393 H   0  0  0  0  0  0  0  0  0  0  0  0
   -5.4711   16.0413  -33.7393 H   0  0  0  0  0  0  0  0  0  0  0  0
   -4.3410   17.4650  -32.1480 H   0  0  0  0  0  0  0  0  0  0  0  0
   -7.3687   18.9405  -33.8084 H   0  0  0  0  0  0  0  0  0  0  0  0
   -8.0422   21.3550  -33.6093 H   0  0  0  0  0  0  0  0  0  0  0  0
   -7.3405   23.8182  -32.3244 H   0  0  0  0  0  0  0  0  0  0  0  0
   -3.5110   25.6860  -29.8990 H   0  0  0  0  0  0  0  0  0  0  0  0
   -1.5763   22.4746  -30.3191 H   0  0  0  0  0  0  0  0  0  0  0  0
   -2.6604   23.6741  -31.1069 H   0  0  0  0  0  0  0  0  0  0  0  0
   -4.2060   25.1510  -28.6540 H   0  0  0  0  0  0  0  0  0  0  0  0
   -4.1146   19.6187  -30.9854 H   0  0  0  0  0  0  0  0  0  0  0  0
  1  2  1  0
  2  3  1  0
  3  4  2  0
  4  5  1  0
  5  6  2  0
  6  7  1  0
  7  8  2  0
  8  9  1  0
  9 10  1  0
  9 11  2  0
  8 12  1  0
 12 13  1  0
 13 14  2  0
 13 15  1  0
 15 16  1  0
 16 17  2  0
 16 18  1  6
 16 19  1  0
 12 20  1  0
 20 21  2  0
 21  3  1  0
 20  6  1  0
  1 22  1  0
  1 23  1  0
  1 24  1  0
  2 25  1  0
  4 26  1  0
  5 27  1  0
  7 28  1  0
 10 29  1  0
 15 30  1  0
 15 31  1  0
 19 32  1  0
 21 33  1  0
M  CHG  2  10  -1  18  -1
M  END
>  <UniqueID>  (73) 
73

>  <SMILES>  (73) 
CNc1ccc2cc(C([NH-])=O)n(C(=O)C[P@@](=O)([O-])O)c2c1

>  <Energy>  (73) 
64.72638083142577

>  <Genealogy>  (73) 
CNc1ccc2cc(C([NH-])=O)n(C(=O)CP(=O)([O-])O)c2c1 (protonated)
CNc1ccc2cc(C([NH-])=O)n(C(=O)C[P@@](=O)([O-])O)c2c1 (chirality)
CNc1ccc2cc(C([NH-])=O)n(C(=O)C[P@@](=O)([O-])O)c2c1 (3D coordinates assigned)
CNc1ccc2cc(C([NH-])=O)n(C(=O)C[P@@](=O)([O-])O)c2c1 (optimized conformer: 64.72638083142577 kcal/mol)

>  <smiles>  (73) 
CNc1ccc2cc(C(N)=O)n(C(=O)CP(=O)(O)O)c2c1

>  <score_type>  (73) 
oracle

>  <origin>  (73) 
adg

>  <m_score__min__energy>  (73) 
-11.119999999999999

>  <m_primary>  (73) 
energy

$$$$
73:0
     RDKit          3D

 36 37  0  0  0  0  0  0  0  0999 V2000
   -4.1820   23.2510  -27.8560 C   0  0  0  0  0  0  0  0  0  0  0  0
   -3.7550   22.3670  -28.7560 C   0  0  0  0  0  0  0  0  0  0  0  0
   -3.0780   22.7680  -29.9650 N   0  0  0  0  0  0  0  0  0  0  0  0
   -1.6290   23.0320  -29.9540 C   0  0  0  0  0  0  0  0  0  0  0  0
   -1.3510   24.3550  -29.3160 C   0  0  0  0  0  0  0  0  0  0  0  0
   -2.2040   25.2800  -29.3780 O   0  0  0  0  0  0  0  0  0  0  0  0
   -0.1630   24.5610  -28.6240 O   0  0  0  0  0  0  0  0  0  0  0  0
   -3.7670   22.6230  -31.2250 C   0  0  0  0  0  0  0  0  0  0  0  0
   -3.1130   22.4190  -32.2850 O   0  0  0  0  0  0  0  0  0  0  0  0
   -5.2000   22.6890  -31.2930 N   0  0  0  0  0  0  0  0  0  0  0  0
   -5.9950   23.7620  -31.0280 C   0  0  0  0  0  0  0  0  0  0  0  0
   -5.5240   25.0580  -30.4860 C   0  0  0  0  0  0  0  0  0  0  0  0
   -4.1900   25.5140  -30.7230 N   0  0  0  0  0  0  0  0  0  0  0  0
   -6.3050   25.7800  -29.8120 O   0  0  0  0  0  0  0  0  0  0  0  0
   -7.3300   23.4520  -31.2970 C   0  0  0  0  0  0  0  0  0  0  0  0
   -7.3190   22.1510  -31.7500 C   0  0  0  0  0  0  0  0  0  0  0  0
   -8.3660   21.3430  -32.1850 C   0  0  0  0  0  0  0  0  0  0  0  0
   -8.0550   20.0460  -32.6310 C   0  0  0  0  0  0  0  0  0  0  0  0
   -6.7150   19.5840  -32.6280 C   0  0  0  0  0  0  0  0  0  0  0  0
   -6.3910   18.2150  -33.1490 C   0  0  0  0  0  0  0  0  0  0  0  0
   -5.6780   20.4390  -32.1970 C   0  0  0  0  0  0  0  0  0  0  0  0
   -6.0200   21.7180  -31.7440 C   0  0  0  0  0  0  0  0  0  0  0  0
   -4.6944   22.9056  -26.9460 H   0  0  0  0  0  0  0  0  0  0  0  0
   -4.0223   24.3265  -28.0227 H   0  0  0  0  0  0  0  0  0  0  0  0
   -3.9241   21.2959  -28.5713 H   0  0  0  0  0  0  0  0  0  0  0  0
   -1.1195   22.2400  -29.3855 H   0  0  0  0  0  0  0  0  0  0  0  0
   -1.2588   23.0477  -30.9897 H   0  0  0  0  0  0  0  0  0  0  0  0
   -3.8840   26.4430  -30.3580 H   0  0  0  0  0  0  0  0  0  0  0  0
   -3.4870   24.9220  -31.2170 H   0  0  0  0  0  0  0  0  0  0  0  0
   -8.2046   24.1075  -31.1734 H   0  0  0  0  0  0  0  0  0  0  0  0
   -9.4038   21.7076  -32.1800 H   0  0  0  0  0  0  0  0  0  0  0  0
   -8.8589   19.3841  -32.9854 H   0  0  0  0  0  0  0  0  0  0  0  0
   -6.2289   17.5299  -32.3038 H   0  0  0  0  0  0  0  0  0  0  0  0
   -7.2273   17.8488  -33.7626 H   0  0  0  0  0  0  0  0  0  0  0  0
   -5.4793   18.2625  -33.7626 H   0  0  0  0  0  0  0  0  0  0  0  0
   -4.6289   20.1087  -32.2167 H   0  0  0  0  0  0  0  0  0  0  0  0
  1  2  2  0
  2  3  1  0
  3  4  1  0
  4  5  1  0
  5  6  2  0
  5  7  1  0
  3  8  1  0
  8  9  2  0
  8 10  1  0
 10 11  1  0
 11 12  1  0
 12 13  1  0
 12 14  2  0
 11 15  2  0
 15 16  1  0
 16 17  2  0
 17 18  1  0
 18 19  2  0
 19 20  1  0
 19 21  1  0
 21 22  2  0
 22 10  1  0
 22 16  1  0
  1 23  1  0
  1 24  1  0
  2 25  1  0
  4 26  1  0
  4 27  1  0
 13 28  1  0
 13 29  1  0
 15 30  1  0
 17 31  1  0
 18 32  1  0
 20 33  1  0
 20 34  1  0
 20 35  1  0
 21 36  1  0
M  CHG  1   7  -1
M  END
>  <UniqueID>  (74) 
74

>  <SMILES>  (74) 
C=CN(CC(=O)[O-])C(=O)n1c(C(N)=O)cc2ccc(C)cc21

>  <Energy>  (74) 
76.34986244574351

>  <Genealogy>  (74) 
C=CN(CC(=O)[O-])C(=O)n1c(C(N)=O)cc2ccc(C)cc21 (protonated)
C=CN(CC(=O)[O-])C(=O)n1c(C(N)=O)cc2ccc(C)cc21 (3D coordinates assigned)
C=CN(CC(=O)[O-])C(=O)n1c(C(N)=O)cc2ccc(C)cc21 (optimized conformer: 76.34986244574351 kcal/mol)

>  <smiles>  (74) 
C=CN(CC(=O)O)C(=O)n1c(C(N)=O)cc2ccc(C)cc21

>  <score_type>  (74) 
oracle

>  <origin>  (74) 
adg

>  <m_score__min__energy>  (74) 
-10.69

>  <m_primary>  (74) 
energy

$$$$
74:0
     RDKit          3D

 45 47  0  0  0  0  0  0  0  0999 V2000
   -2.9940   25.3010  -30.4150 H   0  0  0  0  0  0  0  0  0  0  0  0
   -3.8780   25.6500  -30.8470 N   0  0  0  0  0  0  0  0  0  0  0  0
   -5.1440   25.1400  -30.4370 C   0  0  0  0  0  0  0  0  0  0  0  0
   -5.8020   25.7580  -29.5570 O   0  0  0  0  0  0  0  0  0  0  0  0
   -5.6750   23.8780  -30.9950 C   0  0  0  0  0  0  0  0  0  0  0  0
   -7.0350   23.6130  -31.1430 C   0  0  0  0  0  0  0  0  0  0  0  0
   -7.8739   24.2890  -30.9212 H   0  0  0  0  0  0  0  0  0  0  0  0
   -7.1060   22.3250  -31.6260 C   0  0  0  0  0  0  0  0  0  0  0  0
   -8.2140   21.5570  -31.9710 C   0  0  0  0  0  0  0  0  0  0  0  0
   -9.2349   21.9491  -31.8528 H   0  0  0  0  0  0  0  0  0  0  0  0
   -7.9880   20.2650  -32.4750 C   0  0  0  0  0  0  0  0  0  0  0  0
   -8.8440   19.6331  -32.7542 H   0  0  0  0  0  0  0  0  0  0  0  0
   -6.6690   19.7660  -32.6280 C   0  0  0  0  0  0  0  0  0  0  0  0
   -6.4460   18.4460  -33.1620 N   0  0  0  0  0  0  0  0  0  0  0  0
   -6.1000   18.2710  -34.5780 C   0  0  0  0  0  0  0  0  0  0  0  0
   -5.4050   19.0679  -34.8813 H   0  0  0  0  0  0  0  0  0  0  0  0
   -7.0215   18.3210  -35.1767 H   0  0  0  0  0  0  0  0  0  0  0  0
   -5.4340   16.9060  -34.8080 C   0  0  0  0  0  0  0  0  0  0  0  0
   -4.8237   16.9484  -35.7222 H   0  0  0  0  0  0  0  0  0  0  0  0
   -6.2144   16.1381  -34.9141 H   0  0  0  0  0  0  0  0  0  0  0  0
   -4.5700   16.5620  -33.6590 N   0  0  0  0  0  0  0  0  0  0  0  0
   -3.9050   17.3560  -33.4940 H   0  0  0  0  0  0  0  0  0  0  0  0
   -3.7600   15.3720  -33.9650 C   0  0  0  0  0  0  0  0  0  0  0  0
   -3.4369   14.8973  -33.0268 H   0  0  0  0  0  0  0  0  0  0  0  0
   -4.3613   14.6593  -34.5485 H   0  0  0  0  0  0  0  0  0  0  0  0
   -2.8764   15.6700  -34.5485 H   0  0  0  0  0  0  0  0  0  0  0  0
   -5.3620   16.3450  -32.4190 C   0  0  0  0  0  0  0  0  0  0  0  0
   -4.7154   16.5457  -31.5520 H   0  0  0  0  0  0  0  0  0  0  0  0
   -5.7185   15.3046  -32.4378 H   0  0  0  0  0  0  0  0  0  0  0  0
   -6.6060   17.2530  -32.3230 C   0  0  0  0  0  0  0  0  0  0  0  0
   -6.7459   17.5637  -31.2771 H   0  0  0  0  0  0  0  0  0  0  0  0
   -7.4823   16.6891  -32.6753 H   0  0  0  0  0  0  0  0  0  0  0  0
   -5.5700   20.5840  -32.2790 C   0  0  0  0  0  0  0  0  0  0  0  0
   -4.5381   20.2277  -32.4140 H   0  0  0  0  0  0  0  0  0  0  0  0
   -5.8250   21.8570  -31.7580 C   0  0  0  0  0  0  0  0  0  0  0  0
   -4.9340   22.7980  -31.3740 N   0  0  0  0  0  0  0  0  0  0  0  0
   -3.5040   22.6930  -31.4410 C   0  0  0  0  0  0  0  0  0  0  0  0
   -2.7960   23.2810  -30.5790 O   0  0  0  0  0  0  0  0  0  0  0  0
   -2.8720   21.9020  -32.5160 C   0  0  0  0  0  0  0  0  0  0  0  0
   -2.6056   22.4042  -33.4577 H   0  0  0  0  0  0  0  0  0  0  0  0
   -2.6120   20.5960  -32.3850 C   0  0  0  0  0  0  0  0  0  0  0  0
   -2.8864   20.0917  -31.4467 H   0  0  0  0  0  0  0  0  0  0  0  0
   -1.9720   19.8110  -33.4520 C   0  0  0  0  0  0  0  0  0  0  0  0
   -0.9210   20.2160  -34.0190 O   0  0  0  0  0  0  0  0  0  0  0  0
   -2.5330   18.6010  -33.8410 O   0  0  0  0  0  0  0  0  0  0  0  0
  1  2  1  0
  2  3  1  0
  3  4  2  0
  3  5  1  0
  5  6  2  0
  6  7  1  0
  6  8  1  0
  8  9  2  0
  9 10  1  0
  9 11  1  0
 11 12  1  0
 11 13  2  0
 13 14  1  0
 14 15  1  0
 15 16  1  0
 15 17  1  0
 15 18  1  0
 18 19  1  0
 18 20  1  0
 18 21  1  0
 21 22  1  0
 21 23  1  0
 23 24  1  0
 23 25  1  0
 23 26  1  0
 21 27  1  0
 27 28  1  0
 27 29  1  0
 27 30  1  0
 30 31  1  0
 30 32  1  0
 13 33  1  0
 33 34  1  0
 33 35  2  0
 35 36  1  0
 36 37  1  0
 37 38  2  0
 37 39  1  0
 39 40  1  0
 39 41  2  0
 41 42  1  0
 41 43  1  0
 43 44  2  0
 43 45  1  0
 36  5  1  0
 35  8  1  0
 30 14  1  0
M  CHG  3   2  -1  21   1  45  -1
M  END
>  <UniqueID>  (75) 
75

>  <SMILES>  (75) 
C[NH+]1CCN(c2ccc3cc(C([NH-])=O)n(C(=O)/C=C/C(=O)[O-])c3c2)CC1

>  <Energy>  (75) 
93.48021067093926

>  <Genealogy>  (75) 
C[NH+]1CCN(c2ccc3cc(C([NH-])=O)n(C(=O)/C=C/C(=O)[O-])c3c2)CC1 (protonated)
C[NH+]1CCN(c2ccc3cc(C([NH-])=O)n(C(=O)/C=C/C(=O)[O-])c3c2)CC1 (cis-trans isomerization)
C[NH+]1CCN(c2ccc3cc(C([NH-])=O)n(C(=O)/C=C/C(=O)[O-])c3c2)CC1 (3D coordinates assigned)
C[NH+]1CCN(c2ccc3cc(C([NH-])=O)n(C(=O)/C=C/C(=O)[O-])c3c2)CC1 (nonaromatic ring conformer: 93.48021067093926 kcal/mol)

>  <smiles>  (75) 
CN1CCN(c2ccc3cc(C(N)=O)n(C(=O)/C=C/C(=O)O)c3c2)CC1

>  <score_type>  (75) 
oracle

>  <origin>  (75) 
adg

>  <m_score__min__energy>  (75) 
-11.98

>  <m_primary>  (75) 
energy

$$$$
75:0
     RDKit          3D

 60 61  0  0  0  0  0  0  0  0999 V2000
   -8.2810   18.6420  -32.6290 C   0  0  0  0  0  0  0  0  0  0  0  0
   -7.9500   19.9450  -31.9650 C   0  0  0  0  0  0  0  0  0  0  0  0
   -8.9660   20.6740  -31.3020 C   0  0  0  0  0  0  0  0  0  0  0  0
   -8.6710   21.8870  -30.6550 C   0  0  0  0  0  0  0  0  0  0  0  0
   -7.3510   22.3280  -30.6670 C   0  0  0  0  0  0  0  0  0  0  0  0
   -6.7980   23.4790  -30.1560 C   0  0  0  0  0  0  0  0  0  0  0  0
   -5.4440   23.4150  -30.4780 C   0  0  0  0  0  0  0  0  0  0  0  0
   -4.4570   24.4430  -30.0860 C   0  0  0  0  0  0  0  0  0  0  0  0
   -4.3740   25.6630  -30.8210 N   0  0  0  0  0  0  0  0  0  0  0  0
   -3.7030   24.2690  -29.0940 O   0  0  0  0  0  0  0  0  0  0  0  0
   -5.1680   22.2560  -31.1440 N   0  0  0  0  0  0  0  0  0  0  0  0
   -3.9030   21.8290  -31.6790 C   0  0  0  0  0  0  0  0  0  0  0  0
   -2.9730   21.5090  -30.8920 O   0  0  0  0  0  0  0  0  0  0  0  0
   -3.6240   21.8600  -33.1310 C   0  0  0  0  0  0  0  0  0  0  0  0
   -2.6270   21.2060  -33.7490 C   0  0  0  0  0  0  0  0  0  0  0  0
   -1.5010   20.5220  -33.0680 C   0  0  0  0  0  0  0  0  0  0  0  0
   -0.4300   21.1590  -32.8720 O   0  0  0  0  0  0  0  0  0  0  0  0
   -1.5690   19.1230  -32.7010 N   0  0  0  0  0  0  0  0  0  0  0  0
   -2.7100   18.3280  -33.1700 C   0  0  0  0  0  0  0  0  0  0  0  0
   -0.4900   18.4580  -31.9510 C   0  0  0  0  0  0  0  0  0  0  0  0
    0.8470   18.6470  -32.6700 C   0  0  0  0  0  0  0  0  0  0  0  0
    0.6530   18.6600  -34.1240 N   0  0  0  0  0  0  0  0  0  0  0  0
    0.1040   17.4820  -34.8020 C   0  0  0  0  0  0  0  0  0  0  0  0
    1.0430   19.8120  -34.8920 C   0  0  0  0  0  0  0  0  0  0  0  0
    0.3290   20.1950  -35.8600 O   0  0  0  0  0  0  0  0  0  0  0  0
    2.2150   20.5070  -34.5620 O   0  0  0  0  0  0  0  0  0  0  0  0
    2.9420   21.2950  -35.4990 C   0  0  0  0  0  0  0  0  0  0  0  0
    2.0550   21.8840  -36.4480 O   0  0  0  0  0  0  0  0  0  0  0  0
    1.6930   23.2340  -36.4180 C   0  0  0  0  0  0  0  0  0  0  0  0
    2.4880   24.1260  -36.8270 O   0  0  0  0  0  0  0  0  0  0  0  0
    0.3450   23.6200  -35.8950 C   0  0  0  0  0  0  0  0  0  0  0  0
   -0.1460   22.5890  -34.9850 N   0  0  0  0  0  0  0  0  0  0  0  0
   -6.3490   21.6110  -31.2680 C   0  0  0  0  0  0  0  0  0  0  0  0
   -6.6190   20.4180  -31.9480 C   0  0  0  0  0  0  0  0  0  0  0  0
   -8.4750   17.8782  -31.8615 H   0  0  0  0  0  0  0  0  0  0  0  0
   -9.1759   18.7671  -33.2563 H   0  0  0  0  0  0  0  0  0  0  0  0
   -7.4349   18.3248  -33.2563 H   0  0  0  0  0  0  0  0  0  0  0  0
   -9.9960   20.2880  -31.2928 H   0  0  0  0  0  0  0  0  0  0  0  0
   -9.4590   22.4693  -30.1549 H   0  0  0  0  0  0  0  0  0  0  0  0
   -7.3154   24.2807  -29.6087 H   0  0  0  0  0  0  0  0  0  0  0  0
   -3.4650   25.9890  -31.2150 H   0  0  0  0  0  0  0  0  0  0  0  0
   -4.2899   22.4708  -33.7583 H   0  0  0  0  0  0  0  0  0  0  0  0
   -2.6472   21.1752  -34.8484 H   0  0  0  0  0  0  0  0  0  0  0  0
   -3.2670   17.9399  -32.3045 H   0  0  0  0  0  0  0  0  0  0  0  0
   -3.3726   18.9610  -33.7785 H   0  0  0  0  0  0  0  0  0  0  0  0
   -2.3457   17.4872  -33.7785 H   0  0  0  0  0  0  0  0  0  0  0  0
   -0.4256   18.8943  -30.9433 H   0  0  0  0  0  0  0  0  0  0  0  0
   -0.7112   17.3827  -31.8811 H   0  0  0  0  0  0  0  0  0  0  0  0
    1.2946   19.6016  -32.3563 H   0  0  0  0  0  0  0  0  0  0  0  0
    1.5122   17.8110  -32.4081 H   0  0  0  0  0  0  0  0  0  0  0  0
   -0.2360   16.7526  -34.0521 H   0  0  0  0  0  0  0  0  0  0  0  0
   -0.7461   17.7841  -35.4313 H   0  0  0  0  0  0  0  0  0  0  0  0
    0.8821   17.0253  -35.4313 H   0  0  0  0  0  0  0  0  0  0  0  0
    3.4798   22.0909  -34.9630 H   0  0  0  0  0  0  0  0  0  0  0  0
    3.6555   20.6486  -36.0311 H   0  0  0  0  0  0  0  0  0  0  0  0
    0.4223   24.5759  -35.3563 H   0  0  0  0  0  0  0  0  0  0  0  0
   -0.3550   23.7247  -36.7370 H   0  0  0  0  0  0  0  0  0  0  0  0
   -0.8190   21.9880  -35.5150 H   0  0  0  0  0  0  0  0  0  0  0  0
    0.6590   21.9760  -34.7190 H   0  0  0  0  0  0  0  0  0  0  0  0
   -5.8161   19.8634  -32.4557 H   0  0  0  0  0  0  0  0  0  0  0  0
  1  2  1  0
  2  3  2  0
  3  4  1  0
  4  5  2  0
  5  6  1  0
  6  7  2  0
  7  8  1  0
  8  9  1  0
  8 10  2  0
  7 11  1  0
 11 12  1  0
 12 13  2  0
 12 14  1  0
 14 15  2  3
 15 16  1  0
 16 17  2  0
 16 18  1  0
 18 19  1  0
 18 20  1  0
 20 21  1  0
 21 22  1  0
 22 23  1  0
 22 24  1  0
 24 25  2  0
 24 26  1  0
 26 27  1  0
 27 28  1  0
 28 29  1  0
 29 30  2  0
 29 31  1  0
 31 32  1  0
 11 33  1  0
 33 34  2  0
 34  2  1  0
 33  5  1  0
  1 35  1  0
  1 36  1  0
  1 37  1  0
  3 38  1  0
  4 39  1  0
  6 40  1  0
  9 41  1  0
 14 42  1  0
 15 43  1  0
 19 44  1  0
 19 45  1  0
 19 46  1  0
 20 47  1  0
 20 48  1  0
 21 49  1  0
 21 50  1  0
 23 51  1  0
 23 52  1  0
 23 53  1  0
 27 54  1  0
 27 55  1  0
 31 56  1  0
 31 57  1  0
 32 58  1  0
 32 59  1  0
 34 60  1  0
M  CHG  1   9  -1
M  END
>  <UniqueID>  (76) 
76

>  <SMILES>  (76) 
Cc1ccc2cc(C([NH-])=O)n(C(=O)C=CC(=O)N(C)CCN(C)C(=O)OCOC(=O)CN)c2c1

>  <Energy>  (76) 
85.51988512209476

>  <Genealogy>  (76) 
Cc1ccc2cc(C([NH-])=O)n(C(=O)C=CC(=O)N(C)CCN(C)C(=O)OCOC(=O)CN)c2c1 (protonated)
Cc1ccc2cc(C([NH-])=O)n(C(=O)C=CC(=O)N(C)CCN(C)C(=O)OCOC(=O)CN)c2c1 (3D coordinates assigned)
Cc1ccc2cc(C([NH-])=O)n(C(=O)C=CC(=O)N(C)CCN(C)C(=O)OCOC(=O)CN)c2c1 (optimized conformer: 85.51988512209476 kcal/mol)

>  <smiles>  (76) 
Cc1ccc2cc(C(N)=O)n(C(=O)C=CC(=O)N(C)CCN(C)C(=O)OCOC(=O)CN)c2c1

>  <score_type>  (76) 
oracle

>  <origin>  (76) 
adg

>  <m_score__min__energy>  (76) 
-10.4

>  <m_primary>  (76) 
energy

$$$$
76:0
     RDKit          3D

 44 45  0  0  0  0  0  0  0  0999 V2000
   -4.0760   24.7170  -26.7260 C   0  0  0  0  0  0  0  0  0  0  0  0
   -2.9660   24.3600  -27.6680 C   0  0  0  0  0  0  0  0  0  0  0  0
   -2.3640   25.2890  -28.2700 O   0  0  0  0  0  0  0  0  0  0  0  0
   -2.5850   22.9880  -27.9040 N   0  0  0  0  0  0  0  0  0  0  0  0
   -1.1590   22.6320  -27.9030 C   0  0  0  0  0  0  0  0  0  0  0  0
   -0.5480   22.8680  -29.2840 C   0  0  0  0  0  0  0  0  0  0  0  0
   -0.8210   24.1720  -29.7180 O   0  0  0  0  0  0  0  0  0  0  0  0
   -3.5960   21.9530  -28.1910 C   0  0  0  0  0  0  0  0  0  0  0  0
   -3.4050   21.3480  -29.5880 C   0  0  0  0  0  0  0  0  0  0  0  0
   -3.7110   22.3410  -30.6770 C   0  0  0  0  0  0  0  0  0  0  0  0
   -2.7700   22.7740  -31.3950 O   0  0  0  0  0  0  0  0  0  0  0  0
   -5.0660   22.7210  -30.9730 N   0  0  0  0  0  0  0  0  0  0  0  0
   -5.6510   23.9430  -30.8160 C   0  0  0  0  0  0  0  0  0  0  0  0
   -4.9440   25.2080  -30.5370 C   0  0  0  0  0  0  0  0  0  0  0  0
   -3.5320   25.2870  -30.7220 N   0  0  0  0  0  0  0  0  0  0  0  0
   -5.5700   26.2070  -30.0960 O   0  0  0  0  0  0  0  0  0  0  0  0
   -7.0170   23.8690  -31.0830 C   0  0  0  0  0  0  0  0  0  0  0  0
   -7.2480   22.5590  -31.4350 C   0  0  0  0  0  0  0  0  0  0  0  0
   -8.4350   21.9220  -31.7850 C   0  0  0  0  0  0  0  0  0  0  0  0
   -8.3840   20.5490  -32.0760 C   0  0  0  0  0  0  0  0  0  0  0  0
   -7.1520   19.8430  -32.0390 C   0  0  0  0  0  0  0  0  0  0  0  0
   -7.1110   18.3580  -32.2900 C   0  0  0  0  0  0  0  0  0  0  0  0
   -8.3620   17.7910  -32.1240 F   0  0  0  0  0  0  0  0  0  0  0  0
   -6.2300   17.7720  -31.4020 F   0  0  0  0  0  0  0  0  0  0  0  0
   -6.6870   18.1010  -33.5820 F   0  0  0  0  0  0  0  0  0  0  0  0
   -5.9710   20.5270  -31.6700 C   0  0  0  0  0  0  0  0  0  0  0  0
   -6.0540   21.8920  -31.3760 C   0  0  0  0  0  0  0  0  0  0  0  0
   -3.7271   24.6048  -25.6889 H   0  0  0  0  0  0  0  0  0  0  0  0
   -4.3828   25.7591  -26.8989 H   0  0  0  0  0  0  0  0  0  0  0  0
   -4.9327   24.0491  -26.8989 H   0  0  0  0  0  0  0  0  0  0  0  0
   -0.6316   23.2518  -27.1630 H   0  0  0  0  0  0  0  0  0  0  0  0
   -1.0581   21.5671  -27.6463 H   0  0  0  0  0  0  0  0  0  0  0  0
    0.5411   22.7241  -29.2288 H   0  0  0  0  0  0  0  0  0  0  0  0
   -0.9858   22.1537  -29.9968 H   0  0  0  0  0  0  0  0  0  0  0  0
   -1.7600   24.1740  -30.0410 H   0  0  0  0  0  0  0  0  0  0  0  0
   -3.5106   21.1530  -27.4409 H   0  0  0  0  0  0  0  0  0  0  0  0
   -4.5897   22.4232  -28.1529 H   0  0  0  0  0  0  0  0  0  0  0  0
   -2.3613   21.0165  -29.6922 H   0  0  0  0  0  0  0  0  0  0  0  0
   -4.1020   20.5033  -29.6916 H   0  0  0  0  0  0  0  0  0  0  0  0
   -2.8900   24.6160  -30.2440 H   0  0  0  0  0  0  0  0  0  0  0  0
   -7.7534   24.6841  -31.0247 H   0  0  0  0  0  0  0  0  0  0  0  0
   -9.3837   22.4768  -31.8322 H   0  0  0  0  0  0  0  0  0  0  0  0
   -9.3093   20.0139  -32.3357 H   0  0  0  0  0  0  0  0  0  0  0  0
   -5.0083   19.9976  -31.6153 H   0  0  0  0  0  0  0  0  0  0  0  0
  1  2  1  0
  2  3  2  0
  2  4  1  0
  4  5  1  0
  5  6  1  0
  6  7  1  0
  4  8  1  0
  8  9  1  0
  9 10  1  0
 10 11  2  0
 10 12  1  0
 12 13  1  0
 13 14  1  0
 14 15  1  0
 14 16  2  0
 13 17  2  0
 17 18  1  0
 18 19  2  0
 19 20  1  0
 20 21  2  0
 21 22  1  0
 22 23  1  0
 22 24  1  0
 22 25  1  0
 21 26  1  0
 26 27  2  0
 27 12  1  0
 27 18  1  0
  1 28  1  0
  1 29  1  0
  1 30  1  0
  5 31  1  0
  5 32  1  0
  6 33  1  0
  6 34  1  0
  7 35  1  0
  8 36  1  0
  8 37  1  0
  9 38  1  0
  9 39  1  0
 15 40  1  0
 17 41  1  0
 19 42  1  0
 20 43  1  0
 26 44  1  0
M  CHG  1  15  -1
M  END
>  <UniqueID>  (77) 
77

>  <SMILES>  (77) 
CC(=O)N(CCO)CCC(=O)n1c(C([NH-])=O)cc2ccc(C(F)(F)F)cc21

>  <Energy>  (77) 
74.62743961892609

>  <Genealogy>  (77) 
CC(=O)N(CCO)CCC(=O)n1c(C([NH-])=O)cc2ccc(C(F)(F)F)cc21 (protonated)
CC(=O)N(CCO)CCC(=O)n1c(C([NH-])=O)cc2ccc(C(F)(F)F)cc21 (3D coordinates assigned)
CC(=O)N(CCO)CCC(=O)n1c(C([NH-])=O)cc2ccc(C(F)(F)F)cc21 (optimized conformer: 74.62743961892609 kcal/mol)

>  <smiles>  (77) 
CC(=O)N(CCO)CCC(=O)n1c(C(N)=O)cc2ccc(C(F)(F)F)cc21

>  <score_type>  (77) 
oracle

>  <origin>  (77) 
adg

>  <m_score__min__energy>  (77) 
-10.19

>  <m_primary>  (77) 
energy

$$$$
77:0
     RDKit          3D

 31 32  0  0  0  0  0  0  0  0999 V2000
   -4.1990   25.6070  -30.7850 N   0  0  0  0  0  0  0  0  0  0  0  0
   -5.5340   25.1900  -30.4920 C   0  0  0  0  0  0  0  0  0  0  0  0
   -6.2680   25.9300  -29.7840 O   0  0  0  0  0  0  0  0  0  0  0  0
   -6.0470   23.8840  -30.9500 C   0  0  0  0  0  0  0  0  0  0  0  0
   -7.3810   23.6560  -31.2780 C   0  0  0  0  0  0  0  0  0  0  0  0
   -7.4530   22.3190  -31.5960 C   0  0  0  0  0  0  0  0  0  0  0  0
   -8.5400   21.5570  -32.0130 C   0  0  0  0  0  0  0  0  0  0  0  0
   -8.3190   20.2040  -32.3160 C   0  0  0  0  0  0  0  0  0  0  0  0
   -7.0240   19.6420  -32.2080 C   0  0  0  0  0  0  0  0  0  0  0  0
   -6.8050   18.1980  -32.5590 C   0  0  0  0  0  0  0  0  0  0  0  0
   -7.9580   17.4770  -32.3090 F   0  0  0  0  0  0  0  0  0  0  0  0
   -6.4800   18.0900  -33.8990 F   0  0  0  0  0  0  0  0  0  0  0  0
   -5.9410   20.4480  -31.7860 C   0  0  0  0  0  0  0  0  0  0  0  0
   -6.1950   21.7880  -31.4680 C   0  0  0  0  0  0  0  0  0  0  0  0
   -5.3180   22.7380  -31.0730 N   0  0  0  0  0  0  0  0  0  0  0  0
   -3.8970   22.5930  -30.9320 C   0  0  0  0  0  0  0  0  0  0  0  0
   -3.1350   22.9160  -31.8840 O   0  0  0  0  0  0  0  0  0  0  0  0
   -3.3450   22.0920  -29.7100 N   0  0  0  0  0  0  0  0  0  0  0  0
   -2.8610   22.9480  -28.6340 C   0  0  0  0  0  0  0  0  0  0  0  0
   -1.9090   23.9670  -29.1730 C   0  0  0  0  0  0  0  0  0  0  0  0
   -0.7150   23.6500  -29.4190 O   0  0  0  0  0  0  0  0  0  0  0  0
   -2.3270   25.2770  -29.3700 O   0  0  0  0  0  0  0  0  0  0  0  0
   -3.5090   24.9500  -31.2130 H   0  0  0  0  0  0  0  0  0  0  0  0
   -3.8690   26.5530  -30.4920 H   0  0  0  0  0  0  0  0  0  0  0  0
   -8.2019   24.3882  -31.2820 H   0  0  0  0  0  0  0  0  0  0  0  0
   -9.5423   22.0013  -32.1026 H   0  0  0  0  0  0  0  0  0  0  0  0
   -9.1605   19.5743  -32.6406 H   0  0  0  0  0  0  0  0  0  0  0  0
   -5.9829   17.7986  -31.9470 H   0  0  0  0  0  0  0  0  0  0  0  0
   -4.9252   20.0329  -31.7095 H   0  0  0  0  0  0  0  0  0  0  0  0
   -3.7143   23.4601  -28.1654 H   0  0  0  0  0  0  0  0  0  0  0  0
   -2.3397   22.3284  -27.8895 H   0  0  0  0  0  0  0  0  0  0  0  0
  1  2  1  0
  2  3  2  0
  2  4  1  0
  4  5  2  0
  5  6  1  0
  6  7  2  0
  7  8  1  0
  8  9  2  0
  9 10  1  0
 10 11  1  0
 10 12  1  0
  9 13  1  0
 13 14  2  0
 14 15  1  0
 15 16  1  0
 16 17  2  0
 16 18  1  0
 18 19  1  0
 19 20  1  0
 20 21  2  0
 20 22  1  0
 15  4  1  0
 14  6  1  0
  1 23  1  0
  1 24  1  0
  5 25  1  0
  7 26  1  0
  8 27  1  0
 10 28  1  0
 13 29  1  0
 19 30  1  0
 19 31  1  0
M  CHG  2  18  -1  22  -1
M  END
>  <UniqueID>  (78) 
78

>  <SMILES>  (78) 
NC(=O)c1cc2ccc(C(F)F)cc2n1C(=O)[N-]CC(=O)[O-]

>  <Energy>  (78) 
67.81752430358858

>  <Genealogy>  (78) 
NC(=O)c1cc2ccc(C(F)F)cc2n1C(=O)[N-]CC(=O)[O-] (protonated)
NC(=O)c1cc2ccc(C(F)F)cc2n1C(=O)[N-]CC(=O)[O-] (3D coordinates assigned)
NC(=O)c1cc2ccc(C(F)F)cc2n1C(=O)[N-]CC(=O)[O-] (optimized conformer: 67.81752430358858 kcal/mol)

>  <smiles>  (78) 
NC(=O)c1cc2ccc(C(F)F)cc2n1C(=O)NCC(=O)O

>  <score_type>  (78) 
oracle

>  <origin>  (78) 
adg

>  <m_score__min__energy>  (78) 
-10.35

>  <m_primary>  (78) 
energy

$$$$
78:0
     RDKit          3D

 68 71  0  0  0  0  0  0  0  0999 V2000
   -6.1180   17.8050  -31.0010 C   0  0  0  0  0  0  0  0  0  0  0  0
   -6.4150   18.7370  -32.1860 C   0  0  0  0  0  0  0  0  0  0  0  0
   -7.5870   18.1530  -32.9980 C   0  0  0  0  0  0  0  0  0  0  0  0
   -6.7720   20.1350  -31.6440 C   0  0  0  0  0  0  0  0  0  0  0  0
   -5.2260   18.7950  -32.9860 O   0  0  0  0  0  0  0  0  0  0  0  0
   -4.9970   18.1100  -34.1920 C   0  0  0  0  0  0  0  0  0  0  0  0
   -5.5000   18.5230  -35.2720 O   0  0  0  0  0  0  0  0  0  0  0  0
   -4.1740   16.9290  -34.1840 N   0  0  0  0  0  0  0  0  0  0  0  0
   -3.8060   16.2420  -35.4270 C   0  0  0  0  0  0  0  0  0  0  0  0
   -2.2960   15.9500  -35.4460 C   0  0  0  0  0  0  0  0  0  0  0  0
   -1.7520   15.4980  -34.1360 N   0  0  0  0  0  0  0  0  0  0  0  0
   -0.5740   16.2480  -33.6250 C   0  0  2  0  0  0  0  0  0  0  0  0
    0.3020   15.4670  -32.6270 C   0  0  0  0  0  0  0  0  0  0  0  0
    0.6070   16.4230  -31.4800 C   0  0  0  0  0  0  0  0  0  0  0  0
   -0.2140   17.6070  -31.6890 N   0  0  0  0  0  0  0  0  0  0  0  0
   -0.2580   18.7240  -30.7670 C   0  0  0  0  0  0  0  0  0  0  0  0
    0.6010   18.7610  -29.6330 C   0  0  0  0  0  0  0  0  0  0  0  0
    0.5720   19.8440  -28.7390 C   0  0  0  0  0  0  0  0  0  0  0  0
   -0.3210   20.8780  -28.9920 C   0  0  0  0  0  0  0  0  0  0  0  0
   -0.5380   22.0490  -28.3040 C   0  0  0  0  0  0  0  0  0  0  0  0
   -1.5370   22.7150  -29.0110 C   0  0  0  0  0  0  0  0  0  0  0  0
   -2.1400   23.9890  -28.5660 C   0  0  0  0  0  0  0  0  0  0  0  0
   -1.9380   25.1740  -29.3320 N   0  0  0  0  0  0  0  0  0  0  0  0
   -2.8040   24.0510  -27.4980 O   0  0  0  0  0  0  0  0  0  0  0  0
   -1.9170   21.9850  -30.0970 N   0  0  0  0  0  0  0  0  0  0  0  0
   -2.8760   22.3380  -31.1050 C   0  0  0  0  0  0  0  0  0  0  0  0
   -3.1560   21.5180  -32.0230 O   0  0  0  0  0  0  0  0  0  0  0  0
   -3.5090   23.5850  -31.0540 O   0  0  0  0  0  0  0  0  0  0  0  0
   -4.8870   23.7500  -30.7250 C   0  0  0  0  0  0  0  0  0  0  0  0
   -5.1820   25.1820  -30.4130 C   0  0  0  0  0  0  0  0  0  0  0  0
   -4.2690   26.0470  -30.4780 O   0  0  0  0  0  0  0  0  0  0  0  0
   -6.4740   25.5700  -30.0800 O   0  0  0  0  0  0  0  0  0  0  0  0
   -1.1670   20.8610  -30.0680 C   0  0  0  0  0  0  0  0  0  0  0  0
   -1.1540   19.8020  -30.9840 C   0  0  0  0  0  0  0  0  0  0  0  0
   -0.9830   17.5470  -32.9230 C   0  0  0  0  0  0  0  0  0  0  0  0
   -2.7680   15.2000  -33.1030 C   0  0  0  0  0  0  0  0  0  0  0  0
   -3.7440   16.3660  -32.9000 C   0  0  0  0  0  0  0  0  0  0  0  0
   -6.2900   18.3446  -30.0580 H   0  0  0  0  0  0  0  0  0  0  0  0
   -6.7815   16.9289  -31.0483 H   0  0  0  0  0  0  0  0  0  0  0  0
   -5.0700   17.4743  -31.0483 H   0  0  0  0  0  0  0  0  0  0  0  0
   -8.3551   17.7703  -32.3099 H   0  0  0  0  0  0  0  0  0  0  0  0
   -8.0219   18.9398  -33.6319 H   0  0  0  0  0  0  0  0  0  0  0  0
   -7.2208   17.3320  -33.6319 H   0  0  0  0  0  0  0  0  0  0  0  0
   -6.7667   20.1142  -30.5442 H   0  0  0  0  0  0  0  0  0  0  0  0
   -6.0318   20.8665  -32.0005 H   0  0  0  0  0  0  0  0  0  0  0  0
   -7.7723   20.4220  -32.0005 H   0  0  0  0  0  0  0  0  0  0  0  0
   -4.3602   15.2943  -35.4960 H   0  0  0  0  0  0  0  0  0  0  0  0
   -4.0574   16.8874  -36.2816 H   0  0  0  0  0  0  0  0  0  0  0  0
   -2.1049   15.1630  -36.1904 H   0  0  0  0  0  0  0  0  0  0  0  0
   -1.7912   16.8959  -35.6919 H   0  0  0  0  0  0  0  0  0  0  0  0
    0.0117   16.4432  -34.5354 H   0  0  0  0  0  0  0  0  0  0  0  0
   -0.2404   14.5859  -32.2535 H   0  0  0  0  0  0  0  0  0  0  0  0
    1.2265   15.1094  -33.1038 H   0  0  0  0  0  0  0  0  0  0  0  0
    0.3552   15.9527  -30.5180 H   0  0  0  0  0  0  0  0  0  0  0  0
    1.6756   16.6830  -31.4567 H   0  0  0  0  0  0  0  0  0  0  0  0
    1.2980   17.9291  -29.4539 H   0  0  0  0  0  0  0  0  0  0  0  0
    1.2373   19.8727  -27.8635 H   0  0  0  0  0  0  0  0  0  0  0  0
   -0.0302   22.3881  -27.3890 H   0  0  0  0  0  0  0  0  0  0  0  0
   -2.3820   25.2890  -30.2700 H   0  0  0  0  0  0  0  0  0  0  0  0
   -5.5038   23.4307  -31.5780 H   0  0  0  0  0  0  0  0  0  0  0  0
   -5.1178   23.1379  -29.8406 H   0  0  0  0  0  0  0  0  0  0  0  0
   -1.8257   19.8060  -31.8551 H   0  0  0  0  0  0  0  0  0  0  0  0
   -2.0601   17.5360  -32.6999 H   0  0  0  0  0  0  0  0  0  0  0  0
   -0.7859   18.4229  -33.5586 H   0  0  0  0  0  0  0  0  0  0  0  0
   -3.3372   14.3107  -33.4115 H   0  0  0  0  0  0  0  0  0  0  0  0
   -2.2433   15.0280  -32.1516 H   0  0  0  0  0  0  0  0  0  0  0  0
   -4.6272   16.0033  -32.3537 H   0  0  0  0  0  0  0  0  0  0  0  0
   -3.2306   17.1539  -32.3293 H   0  0  0  0  0  0  0  0  0  0  0  0
  1  2  1  0
  2  3  1  0
  2  4  1  0
  2  5  1  0
  5  6  1  0
  6  7  2  0
  6  8  1  0
  8  9  1  0
  9 10  1  0
 10 11  1  0
 11 12  1  0
 12 13  1  0
 13 14  1  0
 14 15  1  0
 15 16  1  0
 16 17  2  0
 17 18  1  0
 18 19  2  0
 19 20  1  0
 20 21  2  0
 21 22  1  0
 22 23  1  0
 22 24  2  0
 21 25  1  0
 25 26  1  0
 26 27  2  0
 26 28  1  0
 28 29  1  0
 29 30  1  0
 30 31  2  0
 30 32  1  0
 25 33  1  0
 33 34  2  0
 15 35  1  0
 11 36  1  0
 36 37  1  0
 37  8  1  0
 35 12  1  0
 34 16  1  0
 33 19  1  0
  1 38  1  0
  1 39  1  0
  1 40  1  0
  3 41  1  0
  3 42  1  0
  3 43  1  0
  4 44  1  0
  4 45  1  0
  4 46  1  0
  9 47  1  0
  9 48  1  0
 10 49  1  0
 10 50  1  0
 12 51  1  6
 13 52  1  0
 13 53  1  0
 14 54  1  0
 14 55  1  0
 17 56  1  0
 18 57  1  0
 20 58  1  0
 23 59  1  0
 29 60  1  0
 29 61  1  0
 34 62  1  0
 35 63  1  0
 35 64  1  0
 36 65  1  0
 36 66  1  0
 37 67  1  0
 37 68  1  0
M  CHG  2  23  -1  32  -1
M  END
>  <UniqueID>  (79) 
79

>  <SMILES>  (79) 
CC(C)(C)OC(=O)N1CCN([C@@H]2CCN(c3ccc4cc(C([NH-])=O)n(C(=O)OCC(=O)[O-])c4c3)C2)CC1

>  <Energy>  (79) 
116.46199652588028

>  <Genealogy>  (79) 
CC(C)(C)OC(=O)N1CCN(C2CCN(c3ccc4cc(C([NH-])=O)n(C(=O)OCC(=O)[O-])c4c3)C2)CC1 (protonated)
CC(C)(C)OC(=O)N1CCN([C@@H]2CCN(c3ccc4cc(C([NH-])=O)n(C(=O)OCC(=O)[O-])c4c3)C2)CC1 (chirality)
CC(C)(C)OC(=O)N1CCN([C@@H]2CCN(c3ccc4cc(C([NH-])=O)n(C(=O)OCC(=O)[O-])c4c3)C2)CC1 (3D coordinates assigned)
CC(C)(C)OC(=O)N1CCN([C@@H]2CCN(c3ccc4cc(C([NH-])=O)n(C(=O)OCC(=O)[O-])c4c3)C2)CC1 (nonaromatic ring conformer: 116.46199652588028 kcal/mol)

>  <smiles>  (79) 
CC(C)(C)OC(=O)N1CCN(C2CCN(c3ccc4cc(C(N)=O)n(C(=O)OCC(=O)O)c4c3)C2)CC1

>  <score_type>  (79) 
oracle

>  <origin>  (79) 
adg

>  <m_score__min__energy>  (79) 
-13.69

>  <m_primary>  (79) 
energy

$$$$
79:0
     RDKit          3D

 39 40  0  0  0  0  0  0  0  0999 V2000
   -3.8670   25.4280  -30.8140 N   0  0  0  0  0  0  0  0  0  0  0  0
   -5.2610   25.2020  -30.6050 C   0  0  0  0  0  0  0  0  0  0  0  0
   -5.9620   26.1130  -30.0920 O   0  0  0  0  0  0  0  0  0  0  0  0
   -5.8690   23.9240  -31.0300 C   0  0  0  0  0  0  0  0  0  0  0  0
   -7.2170   23.7900  -31.3570 C   0  0  0  0  0  0  0  0  0  0  0  0
   -7.4020   22.4500  -31.6020 C   0  0  0  0  0  0  0  0  0  0  0  0
   -8.5490   21.7600  -31.9840 C   0  0  0  0  0  0  0  0  0  0  0  0
   -8.4450   20.3760  -32.1970 C   0  0  0  0  0  0  0  0  0  0  0  0
   -7.2060   19.7100  -32.0230 C   0  0  0  0  0  0  0  0  0  0  0  0
   -7.0970   18.2380  -32.2970 C   0  0  0  0  0  0  0  0  0  0  0  0
   -6.2000   17.9730  -33.8110 Cl  0  0  0  0  0  0  0  0  0  0  0  0
   -6.0590   20.4450  -31.6500 C   0  0  0  0  0  0  0  0  0  0  0  0
   -6.1950   21.8210  -31.4260 C   0  0  0  0  0  0  0  0  0  0  0  0
   -5.2410   22.7140  -31.0830 N   0  0  0  0  0  0  0  0  0  0  0  0
   -3.8440   22.4320  -30.8810 C   0  0  0  0  0  0  0  0  0  0  0  0
   -2.9970   22.8350  -31.7240 O   0  0  0  0  0  0  0  0  0  0  0  0
   -3.4390   21.6760  -29.7760 O   0  0  0  0  0  0  0  0  0  0  0  0
   -3.0750   22.2390  -28.5180 C   0  0  0  0  0  0  0  0  0  0  0  0
   -3.3260   23.6430  -28.5240 O   0  0  0  0  0  0  0  0  0  0  0  0
   -3.4790   24.4050  -27.3630 C   0  0  0  0  0  0  0  0  0  0  0  0
   -4.5810   24.9520  -27.0860 O   0  0  0  0  0  0  0  0  0  0  0  0
   -2.3160   24.5630  -26.4320 C   0  0  0  0  0  0  0  0  0  0  0  0
   -1.3070   25.5880  -26.9650 C   0  0  0  0  0  0  0  0  0  0  0  0
   -0.8890   25.2860  -28.3730 C   0  0  0  0  0  0  0  0  0  0  0  0
   -1.5890   25.6830  -29.3410 O   0  0  0  0  0  0  0  0  0  0  0  0
    0.2640   24.5490  -28.6160 O   0  0  0  0  0  0  0  0  0  0  0  0
   -3.1580   24.7320  -30.4930 H   0  0  0  0  0  0  0  0  0  0  0  0
   -7.9729   24.5875  -31.4082 H   0  0  0  0  0  0  0  0  0  0  0  0
   -9.5078   22.2831  -32.1150 H   0  0  0  0  0  0  0  0  0  0  0  0
   -9.3334   19.8033  -32.5017 H   0  0  0  0  0  0  0  0  0  0  0  0
   -6.5650   17.7502  -31.4669 H   0  0  0  0  0  0  0  0  0  0  0  0
   -8.1059   17.8101  -32.3923 H   0  0  0  0  0  0  0  0  0  0  0  0
   -5.0834   19.9493  -31.5382 H   0  0  0  0  0  0  0  0  0  0  0  0
   -3.6678   21.7658  -27.7213 H   0  0  0  0  0  0  0  0  0  0  0  0
   -2.0041   22.0632  -28.3387 H   0  0  0  0  0  0  0  0  0  0  0  0
   -2.6852   24.9005  -25.4523 H   0  0  0  0  0  0  0  0  0  0  0  0
   -1.8084   23.5911  -26.3445 H   0  0  0  0  0  0  0  0  0  0  0  0
   -1.7674   26.5866  -26.9378 H   0  0  0  0  0  0  0  0  0  0  0  0
   -0.4110   25.5451  -26.3283 H   0  0  0  0  0  0  0  0  0  0  0  0
  1  2  1  0
  2  3  2  0
  2  4  1  0
  4  5  2  0
  5  6  1  0
  6  7  2  0
  7  8  1  0
  8  9  2  0
  9 10  1  0
 10 11  1  0
  9 12  1  0
 12 13  2  0
 13 14  1  0
 14 15  1  0
 15 16  2  0
 15 17  1  0
 17 18  1  0
 18 19  1  0
 19 20  1  0
 20 21  2  0
 20 22  1  0
 22 23  1  0
 23 24  1  0
 24 25  2  0
 24 26  1  0
 14  4  1  0
 13  6  1  0
  1 27  1  0
  5 28  1  0
  7 29  1  0
  8 30  1  0
 10 31  1  0
 10 32  1  0
 12 33  1  0
 18 34  1  0
 18 35  1  0
 22 36  1  0
 22 37  1  0
 23 38  1  0
 23 39  1  0
M  CHG  2   1  -1  26  -1
M  END
>  <UniqueID>  (80) 
80

>  <SMILES>  (80) 
[NH-]C(=O)c1cc2ccc(CCl)cc2n1C(=O)OCOC(=O)CCC(=O)[O-]

>  <Energy>  (80) 
70.97046714175714

>  <Genealogy>  (80) 
[NH-]C(=O)c1cc2ccc(CCl)cc2n1C(=O)OCOC(=O)CCC(=O)[O-] (protonated)
[NH-]C(=O)c1cc2ccc(CCl)cc2n1C(=O)OCOC(=O)CCC(=O)[O-] (3D coordinates assigned)
[NH-]C(=O)c1cc2ccc(CCl)cc2n1C(=O)OCOC(=O)CCC(=O)[O-] (optimized conformer: 70.97046714175714 kcal/mol)

>  <smiles>  (80) 
NC(=O)c1cc2ccc(CCl)cc2n1C(=O)OCOC(=O)CCC(=O)O

>  <score_type>  (80) 
oracle

>  <origin>  (80) 
adg

>  <m_score__min__energy>  (80) 
-12.460000000000001

>  <m_primary>  (80) 
energy

$$$$
80:0
     RDKit          3D

 33 34  0  0  0  0  0  0  0  0999 V2000
   -1.9257   22.4300  -27.7515 H   0  0  0  0  0  0  0  0  0  0  0  0
   -2.2760   22.8740  -28.6950 C   0  0  0  0  0  0  0  0  0  0  0  0
   -1.6080   24.1050  -29.1510 C   0  0  0  0  0  0  0  0  0  0  0  0
   -0.3560   24.1150  -29.2850 O   0  0  0  0  0  0  0  0  0  0  0  0
   -2.3210   25.2800  -29.3520 O   0  0  0  0  0  0  0  0  0  0  0  0
   -3.2750   22.2500  -29.3340 C   0  0  0  0  0  0  0  0  0  0  0  0
   -3.7975   21.4493  -28.7901 H   0  0  0  0  0  0  0  0  0  0  0  0
   -3.7350   22.5460  -30.7080 C   0  0  0  0  0  0  0  0  0  0  0  0
   -2.8680   22.7760  -31.5910 O   0  0  0  0  0  0  0  0  0  0  0  0
   -5.1320   22.6550  -31.0420 N   0  0  0  0  0  0  0  0  0  0  0  0
   -5.9440   23.7460  -30.9220 C   0  0  0  0  0  0  0  0  0  0  0  0
   -5.5160   25.1090  -30.5490 C   0  0  0  0  0  0  0  0  0  0  0  0
   -6.3710   25.9290  -30.1220 O   0  0  0  0  0  0  0  0  0  0  0  0
   -4.1630   25.5310  -30.7190 N   0  0  0  0  0  0  0  0  0  0  0  0
   -3.4700   24.9320  -31.2210 H   0  0  0  0  0  0  0  0  0  0  0  0
   -3.8690   26.4830  -30.4090 H   0  0  0  0  0  0  0  0  0  0  0  0
   -7.2550   23.4230  -31.2650 C   0  0  0  0  0  0  0  0  0  0  0  0
   -8.1319   24.0869  -31.2489 H   0  0  0  0  0  0  0  0  0  0  0  0
   -7.2190   22.0970  -31.6280 C   0  0  0  0  0  0  0  0  0  0  0  0
   -8.2460   21.2550  -32.0440 C   0  0  0  0  0  0  0  0  0  0  0  0
   -9.2752   21.6275  -32.1533 H   0  0  0  0  0  0  0  0  0  0  0  0
   -7.9280   19.9150  -32.3200 C   0  0  0  0  0  0  0  0  0  0  0  0
   -8.7183   19.2241  -32.6487 H   0  0  0  0  0  0  0  0  0  0  0  0
   -6.5990   19.4450  -32.1790 C   0  0  0  0  0  0  0  0  0  0  0  0
   -6.2800   17.9970  -32.4300 C   0  0  0  0  0  0  0  0  0  0  0  0
   -5.2993   17.7592  -31.9921 H   0  0  0  0  0  0  0  0  0  0  0  0
   -7.0577   17.3713  -31.9676 H   0  0  0  0  0  0  0  0  0  0  0  0
   -6.2440   17.7270  -33.8990 C   0  0  0  0  0  0  0  0  0  0  0  0
   -6.6930   16.6430  -34.3550 O   0  0  0  0  0  0  0  0  0  0  0  0
   -5.7610   18.6940  -34.7720 O   0  0  0  0  0  0  0  0  0  0  0  0
   -5.5850   20.3250  -31.7430 C   0  0  0  0  0  0  0  0  0  0  0  0
   -4.5525   19.9717  -31.6049 H   0  0  0  0  0  0  0  0  0  0  0  0
   -5.9270   21.6580  -31.4910 C   0  0  0  0  0  0  0  0  0  0  0  0
  1  2  1  0
  2  3  1  0
  3  4  2  0
  3  5  1  0
  2  6  2  0
  6  7  1  0
  6  8  1  0
  8  9  2  0
  8 10  1  0
 10 11  1  0
 11 12  1  0
 12 13  2  0
 12 14  1  0
 14 15  1  0
 14 16  1  0
 11 17  2  0
 17 18  1  0
 17 19  1  0
 19 20  2  0
 20 21  1  0
 20 22  1  0
 22 23  1  0
 22 24  2  0
 24 25  1  0
 25 26  1  0
 25 27  1  0
 25 28  1  0
 28 29  2  0
 28 30  1  0
 24 31  1  0
 31 32  1  0
 31 33  2  0
 33 10  1  0
 33 19  1  0
M  CHG  2   5  -1  30  -1
M  END
>  <UniqueID>  (81) 
81

>  <SMILES>  (81) 
NC(=O)c1cc2ccc(CC(=O)[O-])cc2n1C(=O)/C=C\C(=O)[O-]

>  <Energy>  (81) 
77.05435918175404

>  <Genealogy>  (81) 
NC(=O)c1cc2ccc(CC(=O)[O-])cc2n1C(=O)/C=C\C(=O)[O-] (protonated)
NC(=O)c1cc2ccc(CC(=O)[O-])cc2n1C(=O)/C=C\C(=O)[O-] (cis-trans isomerization)
NC(=O)c1cc2ccc(CC(=O)[O-])cc2n1C(=O)/C=C\C(=O)[O-] (3D coordinates assigned)
NC(=O)c1cc2ccc(CC(=O)[O-])cc2n1C(=O)/C=C\C(=O)[O-] (optimized conformer: 77.05435918175404 kcal/mol)

>  <smiles>  (81) 
NC(=O)c1cc2ccc(CC(=O)O)cc2n1C(=O)/C=C\C(=O)O

>  <score_type>  (81) 
oracle

>  <origin>  (81) 
adg

>  <m_score__min__energy>  (81) 
-10.6

>  <m_primary>  (81) 
energy

$$$$
81:0
     RDKit          3D

 32 33  0  0  0  0  0  0  0  0999 V2000
   -6.8310   18.4440  -33.3990 C   0  0  0  0  0  0  0  0  0  0  0  0
   -6.9680   19.8060  -32.7910 C   0  0  0  0  0  0  0  0  0  0  0  0
   -8.2540   20.3600  -32.5740 C   0  0  0  0  0  0  0  0  0  0  0  0
   -8.3970   21.6260  -31.9810 C   0  0  0  0  0  0  0  0  0  0  0  0
   -7.2410   22.3020  -31.6000 C   0  0  0  0  0  0  0  0  0  0  0  0
   -7.0910   23.5420  -31.0230 C   0  0  0  0  0  0  0  0  0  0  0  0
   -5.7170   23.7110  -30.8620 C   0  0  0  0  0  0  0  0  0  0  0  0
   -5.1140   24.8830  -30.1930 C   0  0  0  0  0  0  0  0  0  0  0  0
   -4.0900   25.6260  -30.8510 N   0  0  0  0  0  0  0  0  0  0  0  0
   -5.5170   25.2590  -29.0610 O   0  0  0  0  0  0  0  0  0  0  0  0
   -5.0440   22.6200  -31.3280 N   0  0  0  0  0  0  0  0  0  0  0  0
   -3.6230   22.4220  -31.3940 C   0  0  0  0  0  0  0  0  0  0  0  0
   -3.1560   21.4030  -31.9720 O   0  0  0  0  0  0  0  0  0  0  0  0
   -2.7650   23.3510  -30.7940 O   0  0  0  0  0  0  0  0  0  0  0  0
   -1.8710   23.0200  -29.7340 C   0  0  0  0  0  0  0  0  0  0  0  0
   -1.4050   24.2630  -29.0380 C   0  0  0  0  0  0  0  0  0  0  0  0
   -2.3310   25.2920  -28.6900 N   0  0  0  0  0  0  0  0  0  0  0  0
   -0.1890   24.3880  -28.7330 O   0  0  0  0  0  0  0  0  0  0  0  0
   -5.9910   21.7650  -31.7720 C   0  0  0  0  0  0  0  0  0  0  0  0
   -5.8180   20.5140  -32.3760 C   0  0  0  0  0  0  0  0  0  0  0  0
   -6.7553   17.6917  -32.6000 H   0  0  0  0  0  0  0  0  0  0  0  0
   -7.7122   18.2301  -34.0217 H   0  0  0  0  0  0  0  0  0  0  0  0
   -5.9249   18.4099  -34.0217 H   0  0  0  0  0  0  0  0  0  0  0  0
   -9.1487   19.7939  -32.8725 H   0  0  0  0  0  0  0  0  0  0  0  0
   -9.3913   22.0691  -31.8228 H   0  0  0  0  0  0  0  0  0  0  0  0
   -7.8867   24.2498  -30.7473 H   0  0  0  0  0  0  0  0  0  0  0  0
   -3.1020   25.2900  -30.8550 H   0  0  0  0  0  0  0  0  0  0  0  0
   -2.3891   22.3723  -29.0115 H   0  0  0  0  0  0  0  0  0  0  0  0
   -0.9988   22.4963  -30.1524 H   0  0  0  0  0  0  0  0  0  0  0  0
   -3.3450   25.2020  -28.9240 H   0  0  0  0  0  0  0  0  0  0  0  0
   -2.0030   26.1500  -28.1920 H   0  0  0  0  0  0  0  0  0  0  0  0
   -4.8125   20.0931  -32.5237 H   0  0  0  0  0  0  0  0  0  0  0  0
  1  2  1  0
  2  3  2  0
  3  4  1  0
  4  5  2  0
  5  6  1  0
  6  7  2  0
  7  8  1  0
  8  9  1  0
  8 10  2  0
  7 11  1  0
 11 12  1  0
 12 13  2  0
 12 14  1  0
 14 15  1  0
 15 16  1  0
 16 17  1  0
 16 18  2  0
 11 19  1  0
 19 20  2  0
 20  2  1  0
 19  5  1  0
  1 21  1  0
  1 22  1  0
  1 23  1  0
  3 24  1  0
  4 25  1  0
  6 26  1  0
  9 27  1  0
 15 28  1  0
 15 29  1  0
 17 30  1  0
 17 31  1  0
 20 32  1  0
M  CHG  1   9  -1
M  END
>  <UniqueID>  (82) 
82

>  <SMILES>  (82) 
Cc1ccc2cc(C([NH-])=O)n(C(=O)OCC(N)=O)c2c1

>  <Energy>  (82) 
66.52330560728068

>  <Genealogy>  (82) 
Cc1ccc2cc(C([NH-])=O)n(C(=O)OCC(N)=O)c2c1 (protonated)
Cc1ccc2cc(C([NH-])=O)n(C(=O)OCC(N)=O)c2c1 (3D coordinates assigned)
Cc1ccc2cc(C([NH-])=O)n(C(=O)OCC(N)=O)c2c1 (optimized conformer: 66.52330560728068 kcal/mol)

>  <smiles>  (82) 
Cc1ccc2cc(C(N)=O)n(C(=O)OCC(N)=O)c2c1

>  <score_type>  (82) 
oracle

>  <origin>  (82) 
adg

>  <m_score__min__energy>  (82) 
-9.8800000000000008

>  <m_primary>  (82) 
energy

$$$$
82:0
     RDKit          3D

 37 38  0  0  0  0  0  0  0  0999 V2000
   -7.2520   18.4620  -33.0930 C   0  0  0  0  0  0  0  0  0  0  0  0
   -7.3420   19.8570  -32.5510 C   0  0  0  0  0  0  0  0  0  0  0  0
   -8.6010   20.3980  -32.1970 C   0  0  0  0  0  0  0  0  0  0  0  0
   -8.6980   21.6860  -31.6410 C   0  0  0  0  0  0  0  0  0  0  0  0
   -7.5200   22.4020  -31.4480 C   0  0  0  0  0  0  0  0  0  0  0  0
   -7.3230   23.6520  -30.9070 C   0  0  0  0  0  0  0  0  0  0  0  0
   -5.9450   23.8580  -30.9450 C   0  0  0  0  0  0  0  0  0  0  0  0
   -5.3000   25.1230  -30.5370 C   0  0  0  0  0  0  0  0  0  0  0  0
   -3.8890   25.2770  -30.6760 N   0  0  0  0  0  0  0  0  0  0  0  0
   -5.9760   26.0610  -30.0360 O   0  0  0  0  0  0  0  0  0  0  0  0
   -5.3150   22.7740  -31.4800 N   0  0  0  0  0  0  0  0  0  0  0  0
   -3.9030   22.5680  -31.6460 C   0  0  0  0  0  0  0  0  0  0  0  0
   -3.1300   22.7070  -30.6610 O   0  0  0  0  0  0  0  0  0  0  0  0
   -3.4020   22.1780  -32.8920 O   0  0  0  0  0  0  0  0  0  0  0  0
   -2.6290   20.9990  -33.1020 C   0  0  0  0  0  0  0  0  0  0  0  0
   -1.2420   21.3290  -33.1490 O   0  0  0  0  0  0  0  0  0  0  0  0
   -0.4420   21.1920  -34.2900 C   0  0  0  0  0  0  0  0  0  0  0  0
   -0.5710   20.1990  -35.0540 O   0  0  0  0  0  0  0  0  0  0  0  0
    0.5190   22.1970  -34.6110 N   0  0  0  0  0  0  0  0  0  0  0  0
    0.3740   23.0690  -35.7680 C   0  0  0  0  0  0  0  0  0  0  0  0
    1.6830   23.1690  -36.4780 C   0  0  0  0  0  0  0  0  0  0  0  0
    2.4840   22.1980  -36.4690 O   0  0  0  0  0  0  0  0  0  0  0  0
    1.9990   24.3170  -37.1930 O   0  0  0  0  0  0  0  0  0  0  0  0
   -6.2930   21.8930  -31.7880 C   0  0  0  0  0  0  0  0  0  0  0  0
   -6.1660   20.6070  -32.3250 C   0  0  0  0  0  0  0  0  0  0  0  0
   -7.2059   17.7467  -32.2586 H   0  0  0  0  0  0  0  0  0  0  0  0
   -8.1383   18.2501  -33.7090 H   0  0  0  0  0  0  0  0  0  0  0  0
   -6.3458   18.3657  -33.7090 H   0  0  0  0  0  0  0  0  0  0  0  0
   -9.5131   19.8048  -32.3585 H   0  0  0  0  0  0  0  0  0  0  0  0
   -9.6736   22.1140  -31.3673 H   0  0  0  0  0  0  0  0  0  0  0  0
   -8.0901   24.3420  -30.5256 H   0  0  0  0  0  0  0  0  0  0  0  0
   -3.4870   26.0450  -31.2600 H   0  0  0  0  0  0  0  0  0  0  0  0
   -2.8082   20.2938  -32.2771 H   0  0  0  0  0  0  0  0  0  0  0  0
   -2.9239   20.5382  -34.0563 H   0  0  0  0  0  0  0  0  0  0  0  0
   -0.3826   22.6526  -36.4493 H   0  0  0  0  0  0  0  0  0  0  0  0
    0.0567   24.0692  -35.4379 H   0  0  0  0  0  0  0  0  0  0  0  0
   -5.1764   20.1908  -32.5649 H   0  0  0  0  0  0  0  0  0  0  0  0
  1  2  1  0
  2  3  2  0
  3  4  1  0
  4  5  2  0
  5  6  1  0
  6  7  2  0
  7  8  1  0
  8  9  1  0
  8 10  2  0
  7 11  1  0
 11 12  1  0
 12 13  2  0
 12 14  1  0
 14 15  1  0
 15 16  1  0
 16 17  1  0
 17 18  2  0
 17 19  1  0
 19 20  1  0
 20 21  1  0
 21 22  2  0
 21 23  1  0
 11 24  1  0
 24 25  2  0
 25  2  1  0
 24  5  1  0
  1 26  1  0
  1 27  1  0
  1 28  1  0
  3 29  1  0
  4 30  1  0
  6 31  1  0
  9 32  1  0
 15 33  1  0
 15 34  1  0
 20 35  1  0
 20 36  1  0
 25 37  1  0
M  CHG  3   9  -1  19  -1  23  -1
M  END
>  <UniqueID>  (83) 
83

>  <SMILES>  (83) 
Cc1ccc2cc(C([NH-])=O)n(C(=O)OCOC(=O)[N-]CC(=O)[O-])c2c1

>  <Energy>  (83) 
70.2612586185558

>  <Genealogy>  (83) 
Cc1ccc2cc(C([NH-])=O)n(C(=O)OCOC(=O)[N-]CC(=O)[O-])c2c1 (protonated)
Cc1ccc2cc(C([NH-])=O)n(C(=O)OCOC(=O)[N-]CC(=O)[O-])c2c1 (3D coordinates assigned)
Cc1ccc2cc(C([NH-])=O)n(C(=O)OCOC(=O)[N-]CC(=O)[O-])c2c1 (optimized conformer: 70.2612586185558 kcal/mol)

>  <smiles>  (83) 
Cc1ccc2cc(C(N)=O)n(C(=O)OCOC(=O)NCC(=O)O)c2c1

>  <score_type>  (83) 
oracle

>  <origin>  (83) 
adg

>  <m_score__min__energy>  (83) 
-12.369999999999999

>  <m_primary>  (83) 
energy

$$$$
83:0
     RDKit          3D

 40 41  0  0  0  0  0  0  0  0999 V2000
   -2.6080   21.5550  -27.4840 C   0  0  0  0  0  0  0  0  0  0  0  0
   -2.8470   22.9400  -27.9010 N   0  0  0  0  0  0  0  0  0  0  0  0
   -1.6880   23.7930  -27.6060 C   0  0  0  0  0  0  0  0  0  0  0  0
   -0.7780   23.8690  -28.7910 C   0  0  0  0  0  0  0  0  0  0  0  0
    0.4440   24.1370  -28.6280 O   0  0  0  0  0  0  0  0  0  0  0  0
   -1.3010   23.6650  -30.0710 O   0  0  0  0  0  0  0  0  0  0  0  0
   -1.6410   22.3750  -30.5670 C   0  0  0  0  0  0  0  0  0  0  0  0
   -3.0470   22.1840  -30.4560 O   0  0  0  0  0  0  0  0  0  0  0  0
   -3.9170   22.2740  -31.5450 C   0  0  0  0  0  0  0  0  0  0  0  0
   -3.5010   22.0290  -32.7110 O   0  0  0  0  0  0  0  0  0  0  0  0
   -5.2920   22.6390  -31.3320 N   0  0  0  0  0  0  0  0  0  0  0  0
   -5.7780   23.8530  -30.9470 C   0  0  0  0  0  0  0  0  0  0  0  0
   -4.9720   25.0120  -30.5170 C   0  0  0  0  0  0  0  0  0  0  0  0
   -3.6420   24.8440  -30.0230 N   0  0  0  0  0  0  0  0  0  0  0  0
   -5.4850   26.1630  -30.5290 O   0  0  0  0  0  0  0  0  0  0  0  0
   -7.1690   23.8510  -30.9510 C   0  0  0  0  0  0  0  0  0  0  0  0
   -7.5290   22.5800  -31.3370 C   0  0  0  0  0  0  0  0  0  0  0  0
   -8.7930   22.0270  -31.5200 C   0  0  0  0  0  0  0  0  0  0  0  0
   -8.8720   20.6950  -31.9590 C   0  0  0  0  0  0  0  0  0  0  0  0
   -7.6950   19.9460  -32.2020 C   0  0  0  0  0  0  0  0  0  0  0  0
   -7.7980   18.5430  -32.7220 C   0  0  0  0  0  0  0  0  0  0  0  0
   -6.4300   20.5440  -32.0230 C   0  0  0  0  0  0  0  0  0  0  0  0
   -6.3780   21.8670  -31.5630 C   0  0  0  0  0  0  0  0  0  0  0  0
   -2.5984   21.4993  -26.3855 H   0  0  0  0  0  0  0  0  0  0  0  0
   -3.4082   20.9105  -27.8768 H   0  0  0  0  0  0  0  0  0  0  0  0
   -1.6381   21.2160  -27.8768 H   0  0  0  0  0  0  0  0  0  0  0  0
   -2.9760   22.9320  -28.9400 H   0  0  0  0  0  0  0  0  0  0  0  0
   -2.0382   24.8046  -27.3531 H   0  0  0  0  0  0  0  0  0  0  0  0
   -1.1344   23.3605  -26.7596 H   0  0  0  0  0  0  0  0  0  0  0  0
   -1.3417   22.2966  -31.6226 H   0  0  0  0  0  0  0  0  0  0  0  0
   -1.1171   21.6052  -29.9814 H   0  0  0  0  0  0  0  0  0  0  0  0
   -3.0730   25.6790  -29.7580 H   0  0  0  0  0  0  0  0  0  0  0  0
   -3.2490   23.8940  -29.8430 H   0  0  0  0  0  0  0  0  0  0  0  0
   -7.8384   24.6869  -30.6994 H   0  0  0  0  0  0  0  0  0  0  0  0
   -9.7023   22.6150  -31.3268 H   0  0  0  0  0  0  0  0  0  0  0  0
   -9.8565   20.2298  -32.1153 H   0  0  0  0  0  0  0  0  0  0  0  0
   -7.8495   17.8414  -31.8764 H   0  0  0  0  0  0  0  0  0  0  0  0
   -8.7058   18.4451  -33.3355 H   0  0  0  0  0  0  0  0  0  0  0  0
   -6.9143   18.3135  -33.3355 H   0  0  0  0  0  0  0  0  0  0  0  0
   -5.5071   19.9858  -32.2391 H   0  0  0  0  0  0  0  0  0  0  0  0
  1  2  1  0
  2  3  1  0
  3  4  1  0
  4  5  2  0
  4  6  1  0
  6  7  1  0
  7  8  1  0
  8  9  1  0
  9 10  2  0
  9 11  1  0
 11 12  1  0
 12 13  1  0
 13 14  1  0
 13 15  2  0
 12 16  2  0
 16 17  1  0
 17 18  2  0
 18 19  1  0
 19 20  2  0
 20 21  1  0
 20 22  1  0
 22 23  2  0
 23 11  1  0
 23 17  1  0
  1 24  1  0
  1 25  1  0
  1 26  1  0
  2 27  1  0
  3 28  1  0
  3 29  1  0
  7 30  1  0
  7 31  1  0
 14 32  1  0
 14 33  1  0
 16 34  1  0
 18 35  1  0
 19 36  1  0
 21 37  1  0
 21 38  1  0
 21 39  1  0
 22 40  1  0
M  END
>  <UniqueID>  (84) 
84

>  <SMILES>  (84) 
CNCC(=O)OCOC(=O)n1c(C(N)=O)cc2ccc(C)cc21

>  <Energy>  (84) 
71.69653153114136

>  <Genealogy>  (84) 
CNCC(=O)OCOC(=O)n1c(C(N)=O)cc2ccc(C)cc21 (3D coordinates assigned)
CNCC(=O)OCOC(=O)n1c(C(N)=O)cc2ccc(C)cc21 (optimized conformer: 71.69653153114136 kcal/mol)

>  <smiles>  (84) 
CNCC(=O)OCOC(=O)n1c(C(N)=O)cc2ccc(C)cc21

>  <score_type>  (84) 
oracle

>  <origin>  (84) 
adg

>  <m_score__min__energy>  (84) 
-7.8799999999999999

>  <m_primary>  (84) 
energy

$$$$
84:0
     RDKit          3D

 33 34  0  0  0  0  0  0  0  0999 V2000
   -2.0900   25.2590  -28.5200 N   0  0  0  0  0  0  0  0  0  0  0  0
   -1.3130   24.2230  -29.1210 C   0  0  0  0  0  0  0  0  0  0  0  0
   -0.0670   24.1950  -28.9290 O   0  0  0  0  0  0  0  0  0  0  0  0
   -1.9310   23.2240  -30.0160 C   0  0  0  0  0  0  0  0  0  0  0  0
   -1.3020   22.0400  -30.3890 C   0  0  0  0  0  0  0  0  0  0  0  0
   -2.1700   21.4300  -31.2640 C   0  0  0  0  0  0  0  0  0  0  0  0
   -2.0590   20.2100  -31.9270 C   0  0  0  0  0  0  0  0  0  0  0  0
   -3.1300   19.8020  -32.7390 C   0  0  0  0  0  0  0  0  0  0  0  0
   -4.2860   20.6120  -32.8700 C   0  0  0  0  0  0  0  0  0  0  0  0
   -5.4490   20.1430  -33.7040 C   0  0  0  0  0  0  0  0  0  0  0  0
   -6.4430   19.3150  -32.8670 C   0  0  2  0  0  0  0  0  0  0  0  0
   -6.9860   18.2820  -33.6510 O   0  0  0  0  0  0  0  0  0  0  0  0
   -7.5930   20.1880  -32.3500 C   0  0  0  0  0  0  0  0  0  0  0  0
   -8.7810   19.9070  -33.0430 O   0  0  0  0  0  0  0  0  0  0  0  0
   -4.3670   21.8380  -32.1730 C   0  0  0  0  0  0  0  0  0  0  0  0
   -3.2770   22.2310  -31.3880 C   0  0  0  0  0  0  0  0  0  0  0  0
   -3.1450   23.3390  -30.6220 N   0  0  0  0  0  0  0  0  0  0  0  0
   -4.1400   24.3550  -30.4050 C   0  0  0  0  0  0  0  0  0  0  0  0
   -5.2350   24.0650  -29.8550 O   0  0  0  0  0  0  0  0  0  0  0  0
   -3.9060   25.6660  -30.8000 O   0  0  0  0  0  0  0  0  0  0  0  0
   -3.0850   25.4120  -28.7920 H   0  0  0  0  0  0  0  0  0  0  0  0
   -1.6420   25.9340  -27.8590 H   0  0  0  0  0  0  0  0  0  0  0  0
   -0.3208   21.6711  -30.0554 H   0  0  0  0  0  0  0  0  0  0  0  0
   -1.1602   19.5853  -31.8180 H   0  0  0  0  0  0  0  0  0  0  0  0
   -3.0712   18.8451  -33.2783 H   0  0  0  0  0  0  0  0  0  0  0  0
   -5.9708   21.0195  -34.1156 H   0  0  0  0  0  0  0  0  0  0  0  0
   -5.0609   19.5051  -34.5117 H   0  0  0  0  0  0  0  0  0  0  0  0
   -5.8925   18.8981  -32.0107 H   0  0  0  0  0  0  0  0  0  0  0  0
   -7.9580   18.4620  -33.7380 H   0  0  0  0  0  0  0  0  0  0  0  0
   -7.7442   19.9884  -31.2789 H   0  0  0  0  0  0  0  0  0  0  0  0
   -7.3330   21.2450  -32.5089 H   0  0  0  0  0  0  0  0  0  0  0  0
   -8.5340   19.7630  -33.9930 H   0  0  0  0  0  0  0  0  0  0  0  0
   -5.2653   22.4687  -32.2455 H   0  0  0  0  0  0  0  0  0  0  0  0
  1  2  1  0
  2  3  2  0
  2  4  1  0
  4  5  2  0
  5  6  1  0
  6  7  2  0
  7  8  1  0
  8  9  2  0
  9 10  1  0
 10 11  1  0
 11 12  1  0
 11 13  1  0
 13 14  1  0
  9 15  1  0
 15 16  2  0
 16 17  1  0
 17 18  1  0
 18 19  2  0
 18 20  1  0
 17  4  1  0
 16  6  1  0
  1 21  1  0
  1 22  1  0
  5 23  1  0
  7 24  1  0
  8 25  1  0
 10 26  1  0
 10 27  1  0
 11 28  1  1
 12 29  1  0
 13 30  1  0
 13 31  1  0
 14 32  1  0
 15 33  1  0
M  CHG  1  20  -1
M  END
>  <UniqueID>  (85) 
85

>  <SMILES>  (85) 
NC(=O)c1cc2ccc(C[C@H](O)CO)cc2n1C(=O)[O-]

>  <Energy>  (85) 
69.85883818728074

>  <Genealogy>  (85) 
NC(=O)c1cc2ccc(CC(O)CO)cc2n1C(=O)[O-] (protonated)
NC(=O)c1cc2ccc(C[C@H](O)CO)cc2n1C(=O)[O-] (chirality)
NC(=O)c1cc2ccc(C[C@H](O)CO)cc2n1C(=O)[O-] (3D coordinates assigned)
NC(=O)c1cc2ccc(C[C@H](O)CO)cc2n1C(=O)[O-] (optimized conformer: 69.85883818728074 kcal/mol)

>  <smiles>  (85) 
NC(=O)c1cc2ccc(CC(O)CO)cc2n1C(=O)O

>  <score_type>  (85) 
oracle

>  <origin>  (85) 
adg

>  <m_score__min__energy>  (85) 
-8.1199999999999992

>  <m_primary>  (85) 
energy

$$$$
85:0
     RDKit          3D

 40 41  0  0  0  0  0  0  0  0999 V2000
   -3.5480   25.0360  -30.4580 N   0  0  0  0  0  0  0  0  0  0  0  0
   -4.9330   25.2460  -30.7220 C   0  0  0  0  0  0  0  0  0  0  0  0
   -5.4200   26.3990  -30.5740 O   0  0  0  0  0  0  0  0  0  0  0  0
   -5.8130   24.1240  -31.1070 C   0  0  0  0  0  0  0  0  0  0  0  0
   -7.1740   24.0810  -30.8090 C   0  0  0  0  0  0  0  0  0  0  0  0
   -7.6030   22.8490  -31.2490 C   0  0  0  0  0  0  0  0  0  0  0  0
   -8.8720   22.2820  -31.2130 C   0  0  0  0  0  0  0  0  0  0  0  0
   -9.0370   21.0030  -31.7690 C   0  0  0  0  0  0  0  0  0  0  0  0
   -7.9450   20.3180  -32.3560 C   0  0  0  0  0  0  0  0  0  0  0  0
   -8.1670   19.0100  -32.9220 N   0  0  0  0  0  0  0  0  0  0  0  0
   -7.3330   17.8360  -32.6570 C   0  0  0  0  0  0  0  0  0  0  0  0
   -6.3070   17.6390  -33.7830 C   0  0  0  0  0  0  0  0  0  0  0  0
   -4.8630   17.8840  -33.3150 C   0  0  0  0  0  0  0  0  0  0  0  0
   -4.3170   19.2470  -33.7730 C   0  0  0  0  0  0  0  0  0  0  0  0
   -2.7860   19.2500  -33.8460 C   0  0  0  0  0  0  0  0  0  0  0  0
   -2.2650   20.6130  -33.8010 N   0  0  0  0  0  0  0  0  0  0  0  0
   -6.6650   20.9290  -32.3680 C   0  0  0  0  0  0  0  0  0  0  0  0
   -6.5270   22.1980  -31.7910 C   0  0  0  0  0  0  0  0  0  0  0  0
   -5.4190   22.9690  -31.7150 N   0  0  0  0  0  0  0  0  0  0  0  0
   -4.1260   22.6620  -32.2620 C   0  0  0  0  0  0  0  0  0  0  0  0
   -3.9860   22.4800  -33.5000 O   0  0  0  0  0  0  0  0  0  0  0  0
   -3.0140   22.5900  -31.4340 O   0  0  0  0  0  0  0  0  0  0  0  0
   -2.8920   24.7590  -31.2210 H   0  0  0  0  0  0  0  0  0  0  0  0
   -7.7765   24.8641  -30.3256 H   0  0  0  0  0  0  0  0  0  0  0  0
   -9.7203   22.8185  -30.7630 H   0  0  0  0  0  0  0  0  0  0  0  0
  -10.0282   20.5265  -31.7483 H   0  0  0  0  0  0  0  0  0  0  0  0
   -8.9950   18.8720  -33.5440 H   0  0  0  0  0  0  0  0  0  0  0  0
   -6.8019   17.9770  -31.7041 H   0  0  0  0  0  0  0  0  0  0  0  0
   -7.9779   16.9464  -32.6040 H   0  0  0  0  0  0  0  0  0  0  0  0
   -6.3865   16.6072  -34.1558 H   0  0  0  0  0  0  0  0  0  0  0  0
   -6.5314   18.3729  -34.5711 H   0  0  0  0  0  0  0  0  0  0  0  0
   -4.8373   17.8453  -32.2160 H   0  0  0  0  0  0  0  0  0  0  0  0
   -4.2302   17.1036  -33.7629 H   0  0  0  0  0  0  0  0  0  0  0  0
   -4.7217   19.4762  -34.7698 H   0  0  0  0  0  0  0  0  0  0  0  0
   -4.6263   20.0044  -33.0377 H   0  0  0  0  0  0  0  0  0  0  0  0
   -2.3837   18.6823  -32.9940 H   0  0  0  0  0  0  0  0  0  0  0  0
   -2.4785   18.7874  -34.7954 H   0  0  0  0  0  0  0  0  0  0  0  0
   -2.6000   21.0520  -32.9130 H   0  0  0  0  0  0  0  0  0  0  0  0
   -2.6990   21.1550  -34.5830 H   0  0  0  0  0  0  0  0  0  0  0  0
   -5.8015   20.4186  -32.8195 H   0  0  0  0  0  0  0  0  0  0  0  0
  1  2  1  0
  2  3  2  0
  2  4  1  0
  4  5  2  0
  5  6  1  0
  6  7  2  0
  7  8  1  0
  8  9  2  0
  9 10  1  0
 10 11  1  0
 11 12  1  0
 12 13  1  0
 13 14  1  0
 14 15  1  0
 15 16  1  0
  9 17  1  0
 17 18  2  0
 18 19  1  0
 19 20  1  0
 20 21  2  0
 20 22  1  0
 19  4  1  0
 18  6  1  0
  1 23  1  0
  5 24  1  0
  7 25  1  0
  8 26  1  0
 10 27  1  0
 11 28  1  0
 11 29  1  0
 12 30  1  0
 12 31  1  0
 13 32  1  0
 13 33  1  0
 14 34  1  0
 14 35  1  0
 15 36  1  0
 15 37  1  0
 16 38  1  0
 16 39  1  0
 17 40  1  0
M  CHG  2   1  -1  22  -1
M  END
>  <UniqueID>  (86) 
86

>  <SMILES>  (86) 
[NH-]C(=O)c1cc2ccc(NCCCCCN)cc2n1C(=O)[O-]

>  <Energy>  (86) 
71.0244563196852

>  <Genealogy>  (86) 
[NH-]C(=O)c1cc2ccc(NCCCCCN)cc2n1C(=O)[O-] (protonated)
[NH-]C(=O)c1cc2ccc(NCCCCCN)cc2n1C(=O)[O-] (3D coordinates assigned)
[NH-]C(=O)c1cc2ccc(NCCCCCN)cc2n1C(=O)[O-] (optimized conformer: 71.0244563196852 kcal/mol)

>  <smiles>  (86) 
NCCCCCNc1ccc2cc(C(N)=O)n(C(=O)O)c2c1

>  <score_type>  (86) 
oracle

>  <origin>  (86) 
adg

>  <m_score__min__energy>  (86) 
-11.07

>  <m_primary>  (86) 
energy

$$$$
86:0
     RDKit          3D

 57 59  0  0  1  0  0  0  0  0999 V2000
   -1.8530   24.7350  -26.8220 C   0  0  0  0  0  0  0  0  0  0  0  0
   -2.7470   24.7430  -28.1490 B   0  0  0  0  0  0  0  0  0  0  0  0
   -2.0660   25.2840  -29.3460 O   0  0  0  0  0  0  0  0  0  0  0  0
   -3.8930   23.7940  -28.3340 N   0  0  0  0  0  0  0  0  0  0  0  0
   -3.6080   22.4490  -27.9540 C   0  0  0  0  0  0  0  0  0  0  0  0
   -2.3070   21.9210  -28.3530 C   0  0  0  0  0  0  0  0  0  0  0  0
   -1.3710   21.9470  -27.4900 O   0  0  0  0  0  0  0  0  0  0  0  0
   -1.9820   21.3760  -29.6200 N   0  0  0  0  0  0  0  0  0  0  0  0
   -0.6460   20.8820  -29.8970 C   0  0  1  0  0  0  0  0  0  0  0  0
   -0.4340   19.6220  -29.1200 C   0  0  0  0  0  0  0  0  0  0  0  0
   -0.4440   20.7180  -31.3690 C   0  0  0  0  0  0  0  0  0  0  0  0
    0.6630   20.8040  -31.9300 O   0  0  0  0  0  0  0  0  0  0  0  0
   -1.5730   20.4560  -32.1250 O   0  0  0  0  0  0  0  0  0  0  0  0
   -2.3970   21.3780  -32.7490 C   0  0  0  0  0  0  0  0  0  0  0  0
   -3.6950   21.4970  -32.2680 O   0  0  0  0  0  0  0  0  0  0  0  0
   -4.2340   22.5130  -31.5350 C   0  0  0  0  0  0  0  0  0  0  0  0
   -3.3740   23.3080  -31.0070 O   0  0  0  0  0  0  0  0  0  0  0  0
   -5.6050   22.7700  -31.3100 N   0  0  0  0  0  0  0  0  0  0  0  0
   -6.1620   23.8770  -30.7860 C   0  0  0  0  0  0  0  0  0  0  0  0
   -5.5830   25.1050  -30.3040 C   0  0  0  0  0  0  0  0  0  0  0  0
   -6.0950   25.9750  -29.3210 N   0  0  0  0  0  0  0  0  0  0  0  0
   -4.4630   25.4860  -30.8080 O   0  0  0  0  0  0  0  0  0  0  0  0
   -7.5390   23.6490  -30.7690 C   0  0  0  0  0  0  0  0  0  0  0  0
   -7.8040   22.4070  -31.2840 C   0  0  0  0  0  0  0  0  0  0  0  0
   -8.9870   21.7260  -31.4800 C   0  0  0  0  0  0  0  0  0  0  0  0
   -8.9980   20.4680  -32.0230 C   0  0  0  0  0  0  0  0  0  0  0  0
   -7.7910   19.9000  -32.3680 C   0  0  0  0  0  0  0  0  0  0  0  0
   -7.7700   18.5370  -32.9580 C   0  0  0  0  0  0  0  0  0  0  0  0
   -6.9600   17.4740  -32.2460 C   0  0  0  0  0  0  0  0  0  0  0  0
   -6.5170   18.0190  -33.6150 C   0  0  0  0  0  0  0  0  0  0  0  0
   -6.5990   20.6030  -32.1640 C   0  0  0  0  0  0  0  0  0  0  0  0
   -6.5920   21.8700  -31.6170 C   0  0  0  0  0  0  0  0  0  0  0  0
   -2.5082   24.7409  -25.9384 H   0  0  0  0  0  0  0  0  0  0  0  0
   -1.2261   23.8312  -26.8076 H   0  0  0  0  0  0  0  0  0  0  0  0
   -1.2101   25.6274  -26.8076 H   0  0  0  0  0  0  0  0  0  0  0  0
   -2.4930   24.8740  -30.1360 H   0  0  0  0  0  0  0  0  0  0  0  0
   -4.2970   23.8360  -29.2940 H   0  0  0  0  0  0  0  0  0  0  0  0
   -3.6699   22.3914  -26.8573 H   0  0  0  0  0  0  0  0  0  0  0  0
   -4.3477   21.8332  -28.4865 H   0  0  0  0  0  0  0  0  0  0  0  0
   -2.7150   21.3280  -30.3590 H   0  0  0  0  0  0  0  0  0  0  0  0
    0.1158   21.6061  -29.5724 H   0  0  0  0  0  0  0  0  0  0  0  0
   -0.4714   19.8444  -28.0434 H   0  0  0  0  0  0  0  0  0  0  0  0
   -1.2230   18.8983  -29.3725 H   0  0  0  0  0  0  0  0  0  0  0  0
    0.5484   19.1964  -29.3725 H   0  0  0  0  0  0  0  0  0  0  0  0
   -1.9186   22.3643  -32.6580 H   0  0  0  0  0  0  0  0  0  0  0  0
   -2.5089   21.0073  -33.7786 H   0  0  0  0  0  0  0  0  0  0  0  0
   -6.7370   26.7720  -29.6120 H   0  0  0  0  0  0  0  0  0  0  0  0
   -5.8290   25.8360  -28.3010 H   0  0  0  0  0  0  0  0  0  0  0  0
   -8.2951   24.3572  -30.3992 H   0  0  0  0  0  0  0  0  0  0  0  0
   -9.9377   22.2006  -31.1957 H   0  0  0  0  0  0  0  0  0  0  0  0
   -9.9431   19.9272  -32.1790 H   0  0  0  0  0  0  0  0  0  0  0  0
   -8.8137   18.6359  -33.2909 H   0  0  0  0  0  0  0  0  0  0  0  0
   -6.3906   17.7280  -31.3398 H   0  0  0  0  0  0  0  0  0  0  0  0
   -7.1696   16.4772  -31.8308 H   0  0  0  0  0  0  0  0  0  0  0  0
   -5.6280   18.6624  -33.6905 H   0  0  0  0  0  0  0  0  0  0  0  0
   -6.2753   17.5730  -34.5910 H   0  0  0  0  0  0  0  0  0  0  0  0
   -5.6445   20.1348  -32.4463 H   0  0  0  0  0  0  0  0  0  0  0  0
  1  2  1  0
  2  3  1  0
  2  4  1  0
  4  5  1  0
  5  6  1  0
  6  7  2  0
  6  8  1  0
  8  9  1  0
  9 10  1  0
  9 11  1  0
 11 12  2  0
 11 13  1  0
 13 14  1  0
 14 15  1  0
 15 16  1  0
 16 17  2  0
 16 18  1  0
 18 19  1  0
 19 20  1  0
 20 21  1  0
 20 22  2  0
 19 23  2  0
 23 24  1  0
 24 25  2  0
 25 26  1  0
 26 27  2  0
 27 28  1  0
 28 29  1  0
 29 30  1  0
 27 31  1  0
 31 32  2  0
 32 18  1  0
 32 24  1  0
 30 28  1  0
  1 33  1  0
  1 34  1  0
  1 35  1  0
  3 36  1  0
  4 37  1  0
  5 38  1  0
  5 39  1  0
  8 40  1  0
  9 41  1  1
 10 42  1  0
 10 43  1  0
 10 44  1  0
 14 45  1  0
 14 46  1  0
 21 47  1  0
 21 48  1  0
 23 49  1  0
 25 50  1  0
 26 51  1  0
 28 52  1  0
 29 53  1  0
 29 54  1  0
 30 55  1  0
 30 56  1  0
 31 57  1  0
M  END
>  <smiles>  (87) 
CB(O)NCC(=O)NC(C)C(=O)OCOC(=O)n1c(C(N)=O)cc2ccc(C3CC3)cc21

>  <score_type>  (87) 
oracle

>  <origin>  (87) 
adg

>  <m_score__min__energy>  (87) 
-10.300000000000001

>  <m_primary>  (87) 
energy

$$$$
87:0
     RDKit          3D

 35 36  0  0  0  0  0  0  0  0999 V2000
   -8.9760   21.4140  -31.9290 C   0  0  0  0  0  0  0  0  0  0  0  0
   -8.4310   20.1070  -32.3180 N   0  0  0  0  0  0  0  0  0  0  0  0
   -9.3280   18.9440  -32.3470 C   0  0  0  0  0  0  0  0  0  0  0  0
   -7.0300   19.9670  -32.6720 C   0  0  0  0  0  0  0  0  0  0  0  0
   -6.5720   18.8320  -33.4000 C   0  0  0  0  0  0  0  0  0  0  0  0
   -5.2160   18.6810  -33.7320 C   0  0  0  0  0  0  0  0  0  0  0  0
   -4.3310   19.6750  -33.3330 C   0  0  0  0  0  0  0  0  0  0  0  0
   -2.9660   19.7710  -33.4970 C   0  0  0  0  0  0  0  0  0  0  0  0
   -2.6050   20.9690  -32.8830 C   0  0  0  0  0  0  0  0  0  0  0  0
   -1.2280   21.5070  -32.8760 C   0  0  0  0  0  0  0  0  0  0  0  0
   -0.5920   21.9100  -34.0860 N   0  0  0  0  0  0  0  0  0  0  0  0
   -0.5920   21.5820  -31.7900 O   0  0  0  0  0  0  0  0  0  0  0  0
   -3.7020   21.5820  -32.3580 N   0  0  0  0  0  0  0  0  0  0  0  0
   -3.7550   22.7840  -31.5770 C   0  0  0  0  0  0  0  0  0  0  0  0
   -4.7240   23.5770  -31.7190 O   0  0  0  0  0  0  0  0  0  0  0  0
   -2.7360   23.0410  -30.5120 C   0  0  0  0  0  0  0  0  0  0  0  0
   -3.0610   24.6440  -29.7190 P   0  0  0  0  0  0  0  0  0  0  0  0
   -3.9190   24.4310  -28.4940 O   0  0  0  0  0  0  0  0  0  0  0  0
   -1.5990   25.3610  -29.2610 O   0  0  0  0  0  0  0  0  0  0  0  0
   -3.8730   25.6600  -30.8000 O   0  0  0  0  0  0  0  0  0  0  0  0
   -4.7480   20.7810  -32.6450 C   0  0  0  0  0  0  0  0  0  0  0  0
   -6.0880   20.9580  -32.2920 C   0  0  0  0  0  0  0  0  0  0  0  0
   -9.0063   21.4868  -30.8318 H   0  0  0  0  0  0  0  0  0  0  0  0
   -8.3360   22.2128  -32.3319 H   0  0  0  0  0  0  0  0  0  0  0  0
   -9.9939   21.5214  -32.3319 H   0  0  0  0  0  0  0  0  0  0  0  0
   -9.5644   18.6375  -31.3173 H   0  0  0  0  0  0  0  0  0  0  0  0
  -10.2568   19.2103  -32.8727 H   0  0  0  0  0  0  0  0  0  0  0  0
   -8.8345   18.1133  -32.8727 H   0  0  0  0  0  0  0  0  0  0  0  0
   -7.2929   18.0602  -33.7076 H   0  0  0  0  0  0  0  0  0  0  0  0
   -4.8647   17.8015  -34.2916 H   0  0  0  0  0  0  0  0  0  0  0  0
   -2.3029   19.0548  -34.0043 H   0  0  0  0  0  0  0  0  0  0  0  0
   -1.1530   22.1670  -34.9280 H   0  0  0  0  0  0  0  0  0  0  0  0
   -2.7886   22.2431  -29.7567 H   0  0  0  0  0  0  0  0  0  0  0  0
   -1.7341   23.0579  -30.9658 H   0  0  0  0  0  0  0  0  0  0  0  0
   -6.4068   21.8484  -31.7303 H   0  0  0  0  0  0  0  0  0  0  0  0
  1  2  1  0
  2  3  1  0
  2  4  1  0
  4  5  2  0
  5  6  1  0
  6  7  2  0
  7  8  1  0
  8  9  2  0
  9 10  1  0
 10 11  1  0
 10 12  2  0
  9 13  1  0
 13 14  1  0
 14 15  2  0
 14 16  1  0
 16 17  1  0
 17 18  2  0
 17 19  1  0
 17 20  1  0
 13 21  1  0
 21 22  2  0
 22  4  1  0
 21  7  1  0
  1 23  1  0
  1 24  1  0
  1 25  1  0
  3 26  1  0
  3 27  1  0
  3 28  1  0
  5 29  1  0
  6 30  1  0
  8 31  1  0
 11 32  1  0
 16 33  1  0
 16 34  1  0
 22 35  1  0
M  CHG  3  11  -1  19  -1  20  -1
M  END
>  <UniqueID>  (88) 
87

>  <SMILES>  (88) 
CN(C)c1ccc2cc(C([NH-])=O)n(C(=O)CP(=O)([O-])[O-])c2c1

>  <Energy>  (88) 
70.4745995760444

>  <Genealogy>  (88) 
CN(C)c1ccc2cc(C([NH-])=O)n(C(=O)CP(=O)([O-])[O-])c2c1 (protonated)
CN(C)c1ccc2cc(C([NH-])=O)n(C(=O)CP(=O)([O-])[O-])c2c1 (3D coordinates assigned)
CN(C)c1ccc2cc(C([NH-])=O)n(C(=O)CP(=O)([O-])[O-])c2c1 (optimized conformer: 70.4745995760444 kcal/mol)

>  <smiles>  (88) 
CN(C)c1ccc2cc(C(N)=O)n(C(=O)CP(=O)(O)O)c2c1

>  <score_type>  (88) 
oracle

>  <origin>  (88) 
adg

>  <m_score__min__energy>  (88) 
-12.82

>  <m_primary>  (88) 
energy

$$$$
88:0
     RDKit          3D

 30 31  0  0  0  0  0  0  0  0999 V2000
   -0.7590   21.6450  -34.0340 N   0  0  0  0  0  0  0  0  0  0  0  0
   -1.3940   21.2960  -32.8070 C   0  0  0  0  0  0  0  0  0  0  0  0
   -0.7390   21.3580  -31.7330 O   0  0  0  0  0  0  0  0  0  0  0  0
   -2.7950   20.8250  -32.7850 C   0  0  0  0  0  0  0  0  0  0  0  0
   -3.2150   19.6180  -33.3440 C   0  0  0  0  0  0  0  0  0  0  0  0
   -4.5830   19.5960  -33.1790 C   0  0  0  0  0  0  0  0  0  0  0  0
   -5.5130   18.6230  -33.5270 C   0  0  0  0  0  0  0  0  0  0  0  0
   -6.8620   18.8560  -33.2050 C   0  0  0  0  0  0  0  0  0  0  0  0
   -7.2570   20.0550  -32.5570 C   0  0  0  0  0  0  0  0  0  0  0  0
   -8.6960   20.2660  -32.1610 C   0  0  0  0  0  0  0  0  0  0  0  0
   -8.9530   19.6930  -30.9290 F   0  0  0  0  0  0  0  0  0  0  0  0
   -9.5470   19.6940  -33.0910 F   0  0  0  0  0  0  0  0  0  0  0  0
   -8.9540   21.6230  -32.0900 F   0  0  0  0  0  0  0  0  0  0  0  0
   -6.2760   21.0090  -32.2000 C   0  0  0  0  0  0  0  0  0  0  0  0
   -4.9450   20.7540  -32.5430 C   0  0  0  0  0  0  0  0  0  0  0  0
   -3.8600   21.5130  -32.2890 N   0  0  0  0  0  0  0  0  0  0  0  0
   -3.8530   22.7490  -31.5630 C   0  0  0  0  0  0  0  0  0  0  0  0
   -4.8050   23.5630  -31.7060 O   0  0  0  0  0  0  0  0  0  0  0  0
   -2.7890   23.0270  -30.5460 C   0  0  0  0  0  0  0  0  0  0  0  0
   -3.0970   24.6300  -29.7470 P   0  0  0  0  0  0  0  0  0  0  0  0
   -3.9760   24.4370  -28.5320 O   0  0  0  0  0  0  0  0  0  0  0  0
   -1.6290   25.3240  -29.2750 O   0  0  0  0  0  0  0  0  0  0  0  0
   -3.8740   25.6590  -30.8420 O   0  0  0  0  0  0  0  0  0  0  0  0
   -1.2370   22.2590  -34.7310 H   0  0  0  0  0  0  0  0  0  0  0  0
   -2.5877   18.8476  -33.8161 H   0  0  0  0  0  0  0  0  0  0  0  0
   -5.2033   17.6996  -34.0383 H   0  0  0  0  0  0  0  0  0  0  0  0
   -7.6198   18.1000  -33.4584 H   0  0  0  0  0  0  0  0  0  0  0  0
   -6.5535   21.9294  -31.6654 H   0  0  0  0  0  0  0  0  0  0  0  0
   -2.7964   22.2331  -29.7847 H   0  0  0  0  0  0  0  0  0  0  0  0
   -1.8097   23.0550  -31.0462 H   0  0  0  0  0  0  0  0  0  0  0  0
  1  2  1  0
  2  3  2  0
  2  4  1  0
  4  5  2  0
  5  6  1  0
  6  7  2  0
  7  8  1  0
  8  9  2  0
  9 10  1  0
 10 11  1  0
 10 12  1  0
 10 13  1  0
  9 14  1  0
 14 15  2  0
 15 16  1  0
 16 17  1  0
 17 18  2  0
 17 19  1  0
 19 20  1  0
 20 21  2  0
 20 22  1  0
 20 23  1  0
 16  4  1  0
 15  6  1  0
  1 24  1  0
  5 25  1  0
  7 26  1  0
  8 27  1  0
 14 28  1  0
 19 29  1  0
 19 30  1  0
M  CHG  3   1  -1  22  -1  23  -1
M  END
>  <UniqueID>  (89) 
88

>  <SMILES>  (89) 
[NH-]C(=O)c1cc2ccc(C(F)(F)F)cc2n1C(=O)CP(=O)([O-])[O-]

>  <Energy>  (89) 
65.34136745573818

>  <Genealogy>  (89) 
[NH-]C(=O)c1cc2ccc(C(F)(F)F)cc2n1C(=O)CP(=O)([O-])[O-] (protonated)
[NH-]C(=O)c1cc2ccc(C(F)(F)F)cc2n1C(=O)CP(=O)([O-])[O-] (3D coordinates assigned)
[NH-]C(=O)c1cc2ccc(C(F)(F)F)cc2n1C(=O)CP(=O)([O-])[O-] (optimized conformer: 65.34136745573818 kcal/mol)

>  <smiles>  (89) 
NC(=O)c1cc2ccc(C(F)(F)F)cc2n1C(=O)CP(=O)(O)O

>  <score_type>  (89) 
oracle

>  <origin>  (89) 
adg

>  <m_score__min__energy>  (89) 
-12.49

>  <m_primary>  (89) 
energy

$$$$
89:0
     RDKit          3D

 47 48  0  0  0  0  0  0  0  0999 V2000
   -1.7670   21.2010  -27.7280 C   0  0  0  0  0  0  0  0  0  0  0  0
   -2.7530   20.4210  -28.5920 C   0  0  0  0  0  0  0  0  0  0  0  0
   -2.5760   20.7460  -29.9690 O   0  0  0  0  0  0  0  0  0  0  0  0
   -2.5940   22.0570  -30.4610 C   0  0  0  0  0  0  0  0  0  0  0  0
   -1.5960   22.5300  -31.0690 O   0  0  0  0  0  0  0  0  0  0  0  0
   -3.8240   22.8920  -30.2870 C   0  0  0  0  0  0  0  0  0  0  0  0
   -4.6610   22.7840  -31.4370 O   0  0  0  0  0  0  0  0  0  0  0  0
   -4.3840   21.9410  -32.5190 C   0  0  0  0  0  0  0  0  0  0  0  0
   -3.5130   22.2830  -33.3630 O   0  0  0  0  0  0  0  0  0  0  0  0
   -5.1130   20.7060  -32.6850 N   0  0  0  0  0  0  0  0  0  0  0  0
   -4.5940   19.4810  -32.9850 C   0  0  0  0  0  0  0  0  0  0  0  0
   -3.1940   19.1990  -33.3310 C   0  0  0  0  0  0  0  0  0  0  0  0
   -2.1400   20.0020  -32.8050 N   0  0  0  0  0  0  0  0  0  0  0  0
   -2.9310   18.2810  -34.1510 O   0  0  0  0  0  0  0  0  0  0  0  0
   -5.5640   18.4910  -32.9040 C   0  0  0  0  0  0  0  0  0  0  0  0
   -6.7230   19.1470  -32.5670 C   0  0  0  0  0  0  0  0  0  0  0  0
   -8.0040   18.6420  -32.3630 C   0  0  0  0  0  0  0  0  0  0  0  0
   -9.0230   19.5440  -32.0280 C   0  0  0  0  0  0  0  0  0  0  0  0
   -8.7490   20.9280  -31.9210 C   0  0  0  0  0  0  0  0  0  0  0  0
   -9.8420   21.8790  -31.5350 C   0  0  0  0  0  0  0  0  0  0  0  0
   -7.4360   21.4050  -32.1180 C   0  0  0  0  0  0  0  0  0  0  0  0
   -6.4300   20.4820  -32.4410 C   0  0  0  0  0  0  0  0  0  0  0  0
   -3.4250   24.3200  -30.0960 C   0  0  0  0  0  0  0  0  0  0  0  0
   -2.5340   24.6170  -29.2540 O   0  0  0  0  0  0  0  0  0  0  0  0
   -4.0770   25.3190  -30.8260 O   0  0  0  0  0  0  0  0  0  0  0  0
   -5.4940   25.4720  -30.8510 C   0  0  0  0  0  0  0  0  0  0  0  0
   -6.0770   25.2970  -29.4540 C   0  0  0  0  0  0  0  0  0  0  0  0
   -1.9907   21.0241  -26.6656 H   0  0  0  0  0  0  0  0  0  0  0  0
   -0.7424   20.8663  -27.9477 H   0  0  0  0  0  0  0  0  0  0  0  0
   -1.8569   22.2751  -27.9477 H   0  0  0  0  0  0  0  0  0  0  0  0
   -2.5850   19.3432  -28.4499 H   0  0  0  0  0  0  0  0  0  0  0  0
   -3.7772   20.6878  -28.2923 H   0  0  0  0  0  0  0  0  0  0  0  0
   -4.3797   22.5358  -29.4070 H   0  0  0  0  0  0  0  0  0  0  0  0
   -2.3490   20.8160  -32.1860 H   0  0  0  0  0  0  0  0  0  0  0  0
   -1.1510   19.8190  -33.0770 H   0  0  0  0  0  0  0  0  0  0  0  0
   -5.4326   17.4121  -33.0734 H   0  0  0  0  0  0  0  0  0  0  0  0
   -8.2105   17.5661  -32.4619 H   0  0  0  0  0  0  0  0  0  0  0  0
  -10.0428   19.1735  -31.8470 H   0  0  0  0  0  0  0  0  0  0  0  0
   -9.9079   21.9363  -30.4385 H   0  0  0  0  0  0  0  0  0  0  0  0
   -9.6205   22.8768  -31.9417 H   0  0  0  0  0  0  0  0  0  0  0  0
  -10.7996   21.5216  -31.9417 H   0  0  0  0  0  0  0  0  0  0  0  0
   -7.2062   22.4763  -32.0206 H   0  0  0  0  0  0  0  0  0  0  0  0
   -5.7426   26.4768  -31.2232 H   0  0  0  0  0  0  0  0  0  0  0  0
   -5.9220   24.7045  -31.5126 H   0  0  0  0  0  0  0  0  0  0  0  0
   -5.3067   25.5282  -28.7036 H   0  0  0  0  0  0  0  0  0  0  0  0
   -6.9308   25.9784  -29.3250 H   0  0  0  0  0  0  0  0  0  0  0  0
   -6.4144   24.2580  -29.3250 H   0  0  0  0  0  0  0  0  0  0  0  0
  1  2  1  0
  2  3  1  0
  3  4  1  0
  4  5  2  0
  4  6  1  0
  6  7  1  0
  7  8  1  0
  8  9  2  0
  8 10  1  0
 10 11  1  0
 11 12  1  0
 12 13  1  0
 12 14  2  0
 11 15  2  0
 15 16  1  0
 16 17  2  0
 17 18  1  0
 18 19  2  0
 19 20  1  0
 19 21  1  0
 21 22  2  0
  6 23  1  0
 23 24  2  0
 23 25  1  0
 25 26  1  0
 26 27  1  0
 22 10  1  0
 22 16  1  0
  1 28  1  0
  1 29  1  0
  1 30  1  0
  2 31  1  0
  2 32  1  0
  6 33  1  0
 13 34  1  0
 13 35  1  0
 15 36  1  0
 17 37  1  0
 18 38  1  0
 20 39  1  0
 20 40  1  0
 20 41  1  0
 21 42  1  0
 26 43  1  0
 26 44  1  0
 27 45  1  0
 27 46  1  0
 27 47  1  0
M  END
>  <UniqueID>  (90) 
89

>  <SMILES>  (90) 
CCOC(=O)C(OC(=O)n1c(C(N)=O)cc2ccc(C)cc21)C(=O)OCC

>  <Energy>  (90) 
75.84101247522578

>  <Genealogy>  (90) 
CCOC(=O)C(OC(=O)n1c(C(N)=O)cc2ccc(C)cc21)C(=O)OCC (3D coordinates assigned)
CCOC(=O)C(OC(=O)n1c(C(N)=O)cc2ccc(C)cc21)C(=O)OCC (optimized conformer: 75.84101247522578 kcal/mol)

>  <smiles>  (90) 
CCOC(=O)C(OC(=O)n1c(C(N)=O)cc2ccc(C)cc21)C(=O)OCC

>  <score_type>  (90) 
oracle

>  <origin>  (90) 
adg

>  <m_score__min__energy>  (90) 
-8.4800000000000004

>  <m_primary>  (90) 
energy

$$$$
90:0
     RDKit          3D

 44 45  0  0  0  0  0  0  0  0999 V2000
   -8.3600   18.5770  -32.6880 C   0  0  0  0  0  0  0  0  0  0  0  0
   -8.1410   20.0120  -32.3120 C   0  0  0  0  0  0  0  0  0  0  0  0
   -9.2460   20.8350  -31.9840 C   0  0  0  0  0  0  0  0  0  0  0  0
   -9.0510   22.1640  -31.5670 C   0  0  0  0  0  0  0  0  0  0  0  0
   -7.7430   22.6330  -31.4780 C   0  0  0  0  0  0  0  0  0  0  0  0
   -7.2630   23.8460  -31.0380 C   0  0  0  0  0  0  0  0  0  0  0  0
   -5.8750   23.7360  -31.0960 C   0  0  0  0  0  0  0  0  0  0  0  0
   -4.9490   24.8360  -30.7670 C   0  0  0  0  0  0  0  0  0  0  0  0
   -3.5880   24.5500  -30.4530 N   0  0  0  0  0  0  0  0  0  0  0  0
   -5.3560   26.0270  -30.7250 O   0  0  0  0  0  0  0  0  0  0  0  0
   -5.5130   22.5050  -31.5490 N   0  0  0  0  0  0  0  0  0  0  0  0
   -4.1960   21.9360  -31.6060 C   0  0  0  0  0  0  0  0  0  0  0  0
   -3.3420   22.4230  -32.3920 O   0  0  0  0  0  0  0  0  0  0  0  0
   -3.8380   20.7460  -30.7610 C   0  0  0  0  0  0  0  0  0  0  0  0
   -3.0020   21.1340  -29.6720 O   0  0  0  0  0  0  0  0  0  0  0  0
   -3.3110   22.1920  -28.8060 C   0  0  0  0  0  0  0  0  0  0  0  0
   -4.4770   22.3000  -28.3290 O   0  0  0  0  0  0  0  0  0  0  0  0
   -2.3070   23.1850  -28.5110 N   0  0  2  0  0  0  0  0  0  0  0  0
   -0.9660   22.6490  -28.8090 C   0  0  0  0  0  0  0  0  0  0  0  0
   -2.4460   23.6070  -27.1000 C   0  0  0  0  0  0  0  0  0  0  0  0
   -1.7540   24.9470  -26.8070 C   0  0  0  0  0  0  0  0  0  0  0  0
   -1.0060   25.4170  -28.0140 C   0  0  0  0  0  0  0  0  0  0  0  0
   -1.6140   25.9920  -28.9540 O   0  0  0  0  0  0  0  0  0  0  0  0
    0.3570   25.1670  -28.1290 O   0  0  0  0  0  0  0  0  0  0  0  0
   -6.6650   21.8440  -31.7860 C   0  0  0  0  0  0  0  0  0  0  0  0
   -6.8280   20.5200  -32.2020 C   0  0  0  0  0  0  0  0  0  0  0  0
   -8.4528   17.9690  -31.7760 H   0  0  0  0  0  0  0  0  0  0  0  0
   -9.2818   18.4901  -33.2819 H   0  0  0  0  0  0  0  0  0  0  0  0
   -7.5061   18.2191  -33.2819 H   0  0  0  0  0  0  0  0  0  0  0  0
  -10.2665   20.4309  -32.0561 H   0  0  0  0  0  0  0  0  0  0  0  0
   -9.9045   22.8121  -31.3191 H   0  0  0  0  0  0  0  0  0  0  0  0
   -7.8501   24.7166  -30.7104 H   0  0  0  0  0  0  0  0  0  0  0  0
   -2.8510   25.2840  -30.5430 H   0  0  0  0  0  0  0  0  0  0  0  0
   -4.7594   20.2936  -30.3655 H   0  0  0  0  0  0  0  0  0  0  0  0
   -3.2937   20.0209  -31.3838 H   0  0  0  0  0  0  0  0  0  0  0  0
   -2.4760   24.0110  -29.1350 H   0  0  0  0  0  0  0  0  0  0  0  0
   -0.4379   22.4379  -27.8674 H   0  0  0  0  0  0  0  0  0  0  0  0
   -1.0632   21.7206  -29.3909 H   0  0  0  0  0  0  0  0  0  0  0  0
   -0.3965   23.3886  -29.3909 H   0  0  0  0  0  0  0  0  0  0  0  0
   -3.5164   23.7062  -26.8669 H   0  0  0  0  0  0  0  0  0  0  0  0
   -1.9611   22.8413  -26.4766 H   0  0  0  0  0  0  0  0  0  0  0  0
   -2.5125   25.6959  -26.5352 H   0  0  0  0  0  0  0  0  0  0  0  0
   -1.0458   24.8111  -25.9763 H   0  0  0  0  0  0  0  0  0  0  0  0
   -5.9572   19.8905  -32.4374 H   0  0  0  0  0  0  0  0  0  0  0  0
  1  2  1  0
  2  3  2  0
  3  4  1  0
  4  5  2  0
  5  6  1  0
  6  7  2  0
  7  8  1  0
  8  9  1  0
  8 10  2  0
  7 11  1  0
 11 12  1  0
 12 13  2  0
 12 14  1  0
 14 15  1  0
 15 16  1  0
 16 17  2  0
 16 18  1  0
 18 19  1  0
 18 20  1  0
 20 21  1  0
 21 22  1  0
 22 23  2  0
 22 24  1  0
 11 25  1  0
 25 26  2  0
 26  2  1  0
 25  5  1  0
  1 27  1  0
  1 28  1  0
  1 29  1  0
  3 30  1  0
  4 31  1  0
  6 32  1  0
  9 33  1  0
 14 34  1  0
 14 35  1  0
 18 36  1  6
 19 37  1  0
 19 38  1  0
 19 39  1  0
 20 40  1  0
 20 41  1  0
 21 42  1  0
 21 43  1  0
 26 44  1  0
M  CHG  3   9  -1  18   1  24  -1
M  END
>  <UniqueID>  (91) 
90

>  <SMILES>  (91) 
Cc1ccc2cc(C([NH-])=O)n(C(=O)COC(=O)[N@H+](C)CCC(=O)[O-])c2c1

>  <Energy>  (91) 
76.64034641794306

>  <Genealogy>  (91) 
Cc1ccc2cc(C([NH-])=O)n(C(=O)COC(=O)[NH+](C)CCC(=O)[O-])c2c1 (protonated)
Cc1ccc2cc(C([NH-])=O)n(C(=O)COC(=O)[N@H+](C)CCC(=O)[O-])c2c1 (chirality)
Cc1ccc2cc(C([NH-])=O)n(C(=O)COC(=O)[N@H+](C)CCC(=O)[O-])c2c1 (3D coordinates assigned)
Cc1ccc2cc(C([NH-])=O)n(C(=O)COC(=O)[N@H+](C)CCC(=O)[O-])c2c1 (optimized conformer: 76.64034641794306 kcal/mol)

>  <smiles>  (91) 
Cc1ccc2cc(C(N)=O)n(C(=O)COC(=O)N(C)CCC(=O)O)c2c1

>  <score_type>  (91) 
oracle

>  <origin>  (91) 
adg

>  <m_score__min__energy>  (91) 
-11.35

>  <m_primary>  (91) 
energy

$$$$
91:0
     RDKit          3D

 37 38  0  0  0  0  0  0  0  0999 V2000
   -1.8670   23.3450  -29.5690 C   0  0  0  0  0  0  0  0  0  0  0  0
   -3.1770   23.0710  -29.6310 C   0  0  0  0  0  0  0  0  0  0  0  0
   -3.9970   23.1410  -28.3980 C   0  0  0  0  0  0  0  0  0  0  0  0
   -4.5720   24.3760  -27.9660 N   0  0  0  0  0  0  0  0  0  0  0  0
   -4.2090   22.0970  -27.7220 O   0  0  0  0  0  0  0  0  0  0  0  0
   -3.7970   22.7200  -30.9350 C   0  0  0  0  0  0  0  0  0  0  0  0
   -3.0770   22.2910  -31.8780 O   0  0  0  0  0  0  0  0  0  0  0  0
   -5.2160   22.8450  -31.1430 N   0  0  0  0  0  0  0  0  0  0  0  0
   -6.0130   23.9200  -30.8790 C   0  0  0  0  0  0  0  0  0  0  0  0
   -5.5530   25.2480  -30.4230 C   0  0  0  0  0  0  0  0  0  0  0  0
   -4.2090   25.6560  -30.6650 N   0  0  0  0  0  0  0  0  0  0  0  0
   -6.3290   26.0160  -29.7950 O   0  0  0  0  0  0  0  0  0  0  0  0
   -7.3410   23.6230  -31.1770 C   0  0  0  0  0  0  0  0  0  0  0  0
   -7.3290   22.3300  -31.6490 C   0  0  0  0  0  0  0  0  0  0  0  0
   -8.3750   21.5270  -32.0860 C   0  0  0  0  0  0  0  0  0  0  0  0
   -8.0740   20.2180  -32.5000 C   0  0  0  0  0  0  0  0  0  0  0  0
   -6.7390   19.7260  -32.4670 C   0  0  0  0  0  0  0  0  0  0  0  0
   -6.4410   18.3690  -32.8840 N   0  0  0  0  0  0  0  0  0  0  0  0
   -6.0960   18.0760  -34.2800 C   0  0  0  0  0  0  0  0  0  0  0  0
   -6.4820   17.2660  -31.9160 C   0  0  0  0  0  0  0  0  0  0  0  0
   -5.7050   20.5850  -32.0140 C   0  0  0  0  0  0  0  0  0  0  0  0
   -6.0350   21.8860  -31.6220 C   0  0  0  0  0  0  0  0  0  0  0  0
   -1.2511   23.2955  -30.4790 H   0  0  0  0  0  0  0  0  0  0  0  0
   -1.4074   23.6195  -28.6081 H   0  0  0  0  0  0  0  0  0  0  0  0
   -4.5530   25.2240  -28.5760 H   0  0  0  0  0  0  0  0  0  0  0  0
   -5.0950   24.4230  -27.0640 H   0  0  0  0  0  0  0  0  0  0  0  0
   -3.5080   25.6800  -29.8920 H   0  0  0  0  0  0  0  0  0  0  0  0
   -8.2140   24.2819  -31.0600 H   0  0  0  0  0  0  0  0  0  0  0  0
   -9.4080   21.9044  -32.1074 H   0  0  0  0  0  0  0  0  0  0  0  0
   -8.8834   19.5632  -32.8553 H   0  0  0  0  0  0  0  0  0  0  0  0
   -5.2579   17.3642  -34.3089 H   0  0  0  0  0  0  0  0  0  0  0  0
   -6.9672   17.6375  -34.7887 H   0  0  0  0  0  0  0  0  0  0  0  0
   -5.8044   19.0067  -34.7887 H   0  0  0  0  0  0  0  0  0  0  0  0
   -6.4668   17.6739  -30.8945 H   0  0  0  0  0  0  0  0  0  0  0  0
   -7.4025   16.6822  -32.0641 H   0  0  0  0  0  0  0  0  0  0  0  0
   -5.6074   16.6155  -32.0641 H   0  0  0  0  0  0  0  0  0  0  0  0
   -4.6633   20.2343  -31.9719 H   0  0  0  0  0  0  0  0  0  0  0  0
  1  2  2  0
  2  3  1  0
  3  4  1  0
  3  5  2  0
  2  6  1  0
  6  7  2  0
  6  8  1  0
  8  9  1  0
  9 10  1  0
 10 11  1  0
 10 12  2  0
  9 13  2  0
 13 14  1  0
 14 15  2  0
 15 16  1  0
 16 17  2  0
 17 18  1  0
 18 19  1  0
 18 20  1  0
 17 21  1  0
 21 22  2  0
 22  8  1  0
 22 14  1  0
  1 23  1  0
  1 24  1  0
  4 25  1  0
  4 26  1  0
 11 27  1  0
 13 28  1  0
 15 29  1  0
 16 30  1  0
 19 31  1  0
 19 32  1  0
 19 33  1  0
 20 34  1  0
 20 35  1  0
 20 36  1  0
 21 37  1  0
M  CHG  1  11  -1
M  END
>  <UniqueID>  (92) 
91

>  <SMILES>  (92) 
C=C(C(N)=O)C(=O)n1c(C([NH-])=O)cc2ccc(N(C)C)cc21

>  <Energy>  (92) 
79.15415275916182

>  <Genealogy>  (92) 
C=C(C(N)=O)C(=O)n1c(C([NH-])=O)cc2ccc(N(C)C)cc21 (protonated)
C=C(C(N)=O)C(=O)n1c(C([NH-])=O)cc2ccc(N(C)C)cc21 (3D coordinates assigned)
C=C(C(N)=O)C(=O)n1c(C([NH-])=O)cc2ccc(N(C)C)cc21 (optimized conformer: 79.15415275916182 kcal/mol)

>  <smiles>  (92) 
C=C(C(N)=O)C(=O)n1c(C(N)=O)cc2ccc(N(C)C)cc21

>  <score_type>  (92) 
oracle

>  <origin>  (92) 
adg

>  <m_score__min__energy>  (92) 
-10.52

>  <m_primary>  (92) 
energy

$$$$
92:0
     RDKit          3D

 50 51  0  0  0  0  0  0  0  0999 V2000
   -5.9740   17.7460  -32.3360 C   0  0  0  0  0  0  0  0  0  0  0  0
   -6.2500   19.2070  -32.1430 C   0  0  0  0  0  0  0  0  0  0  0  0
   -7.5210   19.7390  -32.4700 C   0  0  0  0  0  0  0  0  0  0  0  0
   -7.7840   21.1120  -32.3200 C   0  0  0  0  0  0  0  0  0  0  0  0
   -6.7510   21.9260  -31.8630 C   0  0  0  0  0  0  0  0  0  0  0  0
   -6.7390   23.2770  -31.5970 C   0  0  0  0  0  0  0  0  0  0  0  0
   -5.4490   23.5520  -31.1500 C   0  0  0  0  0  0  0  0  0  0  0  0
   -4.9870   24.9010  -30.7660 C   0  0  0  0  0  0  0  0  0  0  0  0
   -3.7670   25.0920  -30.0470 N   0  0  0  0  0  0  0  0  0  0  0  0
   -5.6590   25.9070  -31.1160 O   0  0  0  0  0  0  0  0  0  0  0  0
   -4.6930   22.4190  -31.1410 N   0  0  0  0  0  0  0  0  0  0  0  0
   -3.3660   22.2650  -30.6100 C   0  0  0  0  0  0  0  0  0  0  0  0
   -2.3930   22.7630  -31.2380 O   0  0  0  0  0  0  0  0  0  0  0  0
   -3.1340   21.5480  -29.3790 N   0  0  0  0  0  0  0  0  0  0  0  0
   -2.1910   20.4250  -29.3260 C   0  0  0  0  0  0  0  0  0  0  0  0
   -3.7690   21.9830  -28.1250 C   0  0  0  0  0  0  0  0  0  0  0  0
   -2.9480   23.0940  -27.4360 C   0  0  2  0  0  0  0  0  0  0  0  0
   -3.8120   24.3120  -27.0980 C   0  0  0  0  0  0  0  0  0  0  0  0
   -1.8630   23.5240  -28.3150 N   0  0  0  0  0  0  0  0  0  0  0  0
   -1.3020   24.8430  -28.3040 C   0  0  0  0  0  0  0  0  0  0  0  0
   -1.4340   25.5910  -29.3120 O   0  0  0  0  0  0  0  0  0  0  0  0
   -0.5790   25.3100  -27.1510 N   0  0  0  0  0  0  0  0  0  0  0  0
   -0.4230   24.4310  -25.9900 C   0  0  0  0  0  0  0  0  0  0  0  0
   -0.0110   26.6610  -27.1490 C   0  0  0  0  0  0  0  0  0  0  0  0
   -5.5060   21.4300  -31.5730 C   0  0  0  0  0  0  0  0  0  0  0  0
   -5.2240   20.0650  -31.6930 C   0  0  0  0  0  0  0  0  0  0  0  0
   -5.8817   17.2575  -31.3547 H   0  0  0  0  0  0  0  0  0  0  0  0
   -6.8014   17.2876  -32.8974 H   0  0  0  0  0  0  0  0  0  0  0  0
   -5.0364   17.6210  -32.8974 H   0  0  0  0  0  0  0  0  0  0  0  0
   -8.3105   19.0713  -32.8452 H   0  0  0  0  0  0  0  0  0  0  0  0
   -8.7739   21.5296  -32.5561 H   0  0  0  0  0  0  0  0  0  0  0  0
   -7.5708   23.9874  -31.7128 H   0  0  0  0  0  0  0  0  0  0  0  0
   -3.4870   26.0510  -29.7390 H   0  0  0  0  0  0  0  0  0  0  0  0
   -3.0920   24.3100  -29.9070 H   0  0  0  0  0  0  0  0  0  0  0  0
   -1.9795   20.1731  -28.2763 H   0  0  0  0  0  0  0  0  0  0  0  0
   -2.6311   19.5525  -29.8310 H   0  0  0  0  0  0  0  0  0  0  0  0
   -1.2555   20.7076  -29.8310 H   0  0  0  0  0  0  0  0  0  0  0  0
   -4.7755   22.3670  -28.3475 H   0  0  0  0  0  0  0  0  0  0  0  0
   -3.8231   21.1195  -27.4457 H   0  0  0  0  0  0  0  0  0  0  0  0
   -2.5482   22.6755  -26.5006 H   0  0  0  0  0  0  0  0  0  0  0  0
   -3.8864   24.4169  -26.0056 H   0  0  0  0  0  0  0  0  0  0  0  0
   -3.3526   25.2167  -27.5228 H   0  0  0  0  0  0  0  0  0  0  0  0
   -4.8177   24.1774  -27.5228 H   0  0  0  0  0  0  0  0  0  0  0  0
   -0.5276   25.0204  -25.0672 H   0  0  0  0  0  0  0  0  0  0  0  0
   -1.1964   23.6492  -26.0154 H   0  0  0  0  0  0  0  0  0  0  0  0
    0.5722   23.9631  -26.0154 H   0  0  0  0  0  0  0  0  0  0  0  0
    0.1306   26.9977  -26.1114 H   0  0  0  0  0  0  0  0  0  0  0  0
    0.9593   26.6516  -27.6670 H   0  0  0  0  0  0  0  0  0  0  0  0
   -0.6966   27.3478  -27.6670 H   0  0  0  0  0  0  0  0  0  0  0  0
   -4.2280   19.6706  -31.4430 H   0  0  0  0  0  0  0  0  0  0  0  0
  1  2  1  0
  2  3  2  0
  3  4  1  0
  4  5  2  0
  5  6  1  0
  6  7  2  0
  7  8  1  0
  8  9  1  0
  8 10  2  0
  7 11  1  0
 11 12  1  0
 12 13  2  0
 12 14  1  0
 14 15  1  0
 14 16  1  0
 16 17  1  0
 17 18  1  0
 17 19  1  0
 19 20  1  0
 20 21  2  0
 20 22  1  0
 22 23  1  0
 22 24  1  0
 11 25  1  0
 25 26  2  0
 26  2  1  0
 25  5  1  0
  1 27  1  0
  1 28  1  0
  1 29  1  0
  3 30  1  0
  4 31  1  0
  6 32  1  0
  9 33  1  0
  9 34  1  0
 15 35  1  0
 15 36  1  0
 15 37  1  0
 16 38  1  0
 16 39  1  0
 17 40  1  1
 18 41  1  0
 18 42  1  0
 18 43  1  0
 23 44  1  0
 23 45  1  0
 23 46  1  0
 24 47  1  0
 24 48  1  0
 24 49  1  0
 26 50  1  0
M  CHG  1  19  -1
M  END
>  <UniqueID>  (93) 
92

>  <SMILES>  (93) 
Cc1ccc2cc(C(N)=O)n(C(=O)N(C)C[C@H](C)[N-]C(=O)N(C)C)c2c1

>  <Energy>  (93) 
79.18584844636409

>  <Genealogy>  (93) 
Cc1ccc2cc(C(N)=O)n(C(=O)N(C)C[C@H](C)[N-]C(=O)N(C)C)c2c1 (protonated)
Cc1ccc2cc(C(N)=O)n(C(=O)N(C)C[C@H](C)[N-]C(=O)N(C)C)c2c1 (3D coordinates assigned)
Cc1ccc2cc(C(N)=O)n(C(=O)N(C)C[C@H](C)[N-]C(=O)N(C)C)c2c1 (optimized conformer: 79.18584844636409 kcal/mol)

>  <smiles>  (93) 
Cc1ccc2cc(C(N)=O)n(C(=O)N(C)C[C@H](C)NC(=O)N(C)C)c2c1

>  <score_type>  (93) 
oracle

>  <origin>  (93) 
adg

>  <m_score__min__energy>  (93) 
-10.039999999999999

>  <m_primary>  (93) 
energy

$$$$
93:0
     RDKit          3D

 44 46  0  0  0  0  0  0  0  0999 V2000
   -4.1940   25.6660  -30.5580 N   0  0  0  0  0  0  0  0  0  0  0  0
   -5.5530   25.2700  -30.3920 C   0  0  0  0  0  0  0  0  0  0  0  0
   -6.3560   26.0490  -29.8080 O   0  0  0  0  0  0  0  0  0  0  0  0
   -6.0170   23.9420  -30.8480 C   0  0  0  0  0  0  0  0  0  0  0  0
   -7.2470   23.7240  -31.4690 C   0  0  0  0  0  0  0  0  0  0  0  0
   -7.3230   22.3620  -31.6620 C   0  0  0  0  0  0  0  0  0  0  0  0
   -8.3250   21.5930  -32.2470 C   0  0  0  0  0  0  0  0  0  0  0  0
   -8.1170   20.2080  -32.3480 C   0  0  0  0  0  0  0  0  0  0  0  0
   -6.9100   19.6200  -31.8890 C   0  0  0  0  0  0  0  0  0  0  0  0
   -6.7140   18.1240  -31.9740 C   0  0  0  0  0  0  0  0  0  0  0  0
   -5.7550   17.8120  -32.9220 F   0  0  0  0  0  0  0  0  0  0  0  0
   -7.9120   17.5280  -32.3290 F   0  0  0  0  0  0  0  0  0  0  0  0
   -6.2980   17.6130  -30.7540 F   0  0  0  0  0  0  0  0  0  0  0  0
   -5.9300   20.4320  -31.2730 C   0  0  0  0  0  0  0  0  0  0  0  0
   -6.1710   21.8060  -31.1720 C   0  0  0  0  0  0  0  0  0  0  0  0
   -5.3600   22.7620  -30.6690 N   0  0  0  0  0  0  0  0  0  0  0  0
   -4.0310   22.5590  -30.1690 C   0  0  0  0  0  0  0  0  0  0  0  0
   -3.1430   22.0880  -30.9300 O   0  0  0  0  0  0  0  0  0  0  0  0
   -3.7010   22.9390  -28.8260 N   0  0  0  0  0  0  0  0  0  0  0  0
   -2.3190   22.9130  -28.3310 C   0  0  2  0  0  0  0  0  0  0  0  0
   -1.3570   23.6190  -29.3100 C   0  0  0  0  0  0  0  0  0  0  0  0
   -0.8480   24.9390  -28.8040 C   0  0  0  0  0  0  0  0  0  0  0  0
   -1.5260   25.9870  -28.9730 O   0  0  0  0  0  0  0  0  0  0  0  0
    0.3850   25.0150  -28.1670 O   0  0  0  0  0  0  0  0  0  0  0  0
   -1.8710   21.4940  -28.0240 C   0  0  0  0  0  0  0  0  0  0  0  0
   -0.7250   20.9370  -28.6240 C   0  0  0  0  0  0  0  0  0  0  0  0
   -0.3370   19.6280  -28.3240 C   0  0  0  0  0  0  0  0  0  0  0  0
   -1.0720   18.8660  -27.4130 C   0  0  0  0  0  0  0  0  0  0  0  0
   -2.1950   19.4170  -26.7910 C   0  0  0  0  0  0  0  0  0  0  0  0
   -3.1120   18.4650  -25.6350 Cl  0  0  0  0  0  0  0  0  0  0  0  0
   -2.5920   20.7260  -27.0920 C   0  0  0  0  0  0  0  0  0  0  0  0
   -3.5330   25.6750  -29.7500 H   0  0  0  0  0  0  0  0  0  0  0  0
   -7.9971   24.4794  -31.7459 H   0  0  0  0  0  0  0  0  0  0  0  0
   -9.2511   22.0559  -32.6187 H   0  0  0  0  0  0  0  0  0  0  0  0
   -8.8988   19.5715  -32.7880 H   0  0  0  0  0  0  0  0  0  0  0  0
   -4.9999   19.9934  -30.8824 H   0  0  0  0  0  0  0  0  0  0  0  0
   -4.4510   23.3760  -28.2440 H   0  0  0  0  0  0  0  0  0  0  0  0
   -2.2906   23.4762  -27.3866 H   0  0  0  0  0  0  0  0  0  0  0  0
   -0.4953   22.9588  -29.4881 H   0  0  0  0  0  0  0  0  0  0  0  0
   -1.9243   23.8226  -30.2302 H   0  0  0  0  0  0  0  0  0  0  0  0
   -0.1324   21.5349  -29.3321 H   0  0  0  0  0  0  0  0  0  0  0  0
    0.5515   19.1960  -28.8077 H   0  0  0  0  0  0  0  0  0  0  0  0
   -0.7671   17.8338  -27.1857 H   0  0  0  0  0  0  0  0  0  0  0  0
   -3.4742   21.1566  -26.5958 H   0  0  0  0  0  0  0  0  0  0  0  0
  1  2  1  0
  2  3  2  0
  2  4  1  0
  4  5  2  0
  5  6  1  0
  6  7  2  0
  7  8  1  0
  8  9  2  0
  9 10  1  0
 10 11  1  0
 10 12  1  0
 10 13  1  0
  9 14  1  0
 14 15  2  0
 15 16  1  0
 16 17  1  0
 17 18  2  0
 17 19  1  0
 19 20  1  0
 20 21  1  0
 21 22  1  0
 22 23  2  0
 22 24  1  0
 20 25  1  0
 25 26  2  0
 26 27  1  0
 27 28  2  0
 28 29  1  0
 29 30  1  0
 29 31  2  0
 16  4  1  0
 31 25  1  0
 15  6  1  0
  1 32  1  0
  5 33  1  0
  7 34  1  0
  8 35  1  0
 14 36  1  0
 19 37  1  0
 20 38  1  1
 21 39  1  0
 21 40  1  0
 26 41  1  0
 27 42  1  0
 28 43  1  0
 31 44  1  0
M  CHG  2   1  -1  24  -1
M  END
>  <UniqueID>  (94) 
93

>  <SMILES>  (94) 
[NH-]C(=O)c1cc2ccc(C(F)(F)F)cc2n1C(=O)N[C@H](CC(=O)[O-])c1cccc(Cl)c1

>  <Energy>  (94) 
83.72309283137074

>  <Genealogy>  (94) 
[NH-]C(=O)c1cc2ccc(C(F)(F)F)cc2n1C(=O)NC(CC(=O)[O-])c1cccc(Cl)c1 (protonated)
[NH-]C(=O)c1cc2ccc(C(F)(F)F)cc2n1C(=O)N[C@H](CC(=O)[O-])c1cccc(Cl)c1 (chirality)
[NH-]C(=O)c1cc2ccc(C(F)(F)F)cc2n1C(=O)N[C@H](CC(=O)[O-])c1cccc(Cl)c1 (3D coordinates assigned)
[NH-]C(=O)c1cc2ccc(C(F)(F)F)cc2n1C(=O)N[C@H](CC(=O)[O-])c1cccc(Cl)c1 (optimized conformer: 83.72309283137074 kcal/mol)

>  <smiles>  (94) 
NC(=O)c1cc2ccc(C(F)(F)F)cc2n1C(=O)NC(CC(=O)O)c1cccc(Cl)c1

>  <score_type>  (94) 
oracle

>  <origin>  (94) 
adg

>  <m_score__min__energy>  (94) 
-13.859999999999999

>  <m_primary>  (94) 
energy

$$$$
94:0
     RDKit          3D

 51 53  0  0  0  0  0  0  0  0999 V2000
   -7.3160   18.3440  -32.5920 C   0  0  0  0  0  0  0  0  0  0  0  0
   -7.4320   19.8000  -32.2520 C   0  0  0  0  0  0  0  0  0  0  0  0
   -8.6840   20.4530  -32.3590 C   0  0  0  0  0  0  0  0  0  0  0  0
   -8.8130   21.8100  -32.0240 C   0  0  0  0  0  0  0  0  0  0  0  0
   -7.6820   22.4790  -31.5660 C   0  0  0  0  0  0  0  0  0  0  0  0
   -7.5230   23.7980  -31.2060 C   0  0  0  0  0  0  0  0  0  0  0  0
   -6.1850   23.9190  -30.8420 C   0  0  0  0  0  0  0  0  0  0  0  0
   -5.5950   25.1750  -30.3360 C   0  0  0  0  0  0  0  0  0  0  0  0
   -4.2700   25.5680  -30.6990 N   0  0  0  0  0  0  0  0  0  0  0  0
   -6.2500   25.8850  -29.5280 O   0  0  0  0  0  0  0  0  0  0  0  0
   -5.5360   22.7290  -30.9790 N   0  0  0  0  0  0  0  0  0  0  0  0
   -4.1260   22.4890  -30.8280 C   0  0  0  0  0  0  0  0  0  0  0  0
   -3.3000   23.0450  -31.6040 O   0  0  0  0  0  0  0  0  0  0  0  0
   -3.6750   21.6400  -29.8160 O   0  0  0  0  0  0  0  0  0  0  0  0
   -3.0100   22.1080  -28.6480 C   0  0  0  0  0  0  0  0  0  0  0  0
   -3.6030   23.4490  -28.1950 C   0  0  0  0  0  0  0  0  0  0  0  0
   -2.6020   24.6240  -28.1600 C   0  0  2  0  0  0  0  0  0  0  0  0
   -2.3090   25.0420  -29.4700 O   0  0  0  0  0  0  0  0  0  0  0  0
   -1.3020   24.2660  -27.4110 C   0  0  0  0  0  0  0  0  0  0  0  0
   -1.3830   24.6620  -25.9890 N   0  0  0  0  0  0  0  0  0  0  0  0
   -0.0840   24.6040  -25.3010 C   0  0  0  0  0  0  0  0  0  0  0  0
   -0.0730   25.7090  -24.2510 C   0  0  0  0  0  0  0  0  0  0  0  0
   -1.3230   26.5300  -24.5060 C   0  0  0  0  0  0  0  0  0  0  0  0
   -1.8380   26.0460  -25.8470 C   0  0  0  0  0  0  0  0  0  0  0  0
   -6.4690   21.8550  -31.4230 C   0  0  0  0  0  0  0  0  0  0  0  0
   -6.3080   20.5060  -31.7710 C   0  0  0  0  0  0  0  0  0  0  0  0
   -7.2690   17.7536  -31.6650 H   0  0  0  0  0  0  0  0  0  0  0  0
   -8.1923   18.0339  -33.1802 H   0  0  0  0  0  0  0  0  0  0  0  0
   -6.4017   18.1765  -33.1802 H   0  0  0  0  0  0  0  0  0  0  0  0
   -9.5634   19.8917  -32.7078 H   0  0  0  0  0  0  0  0  0  0  0  0
   -9.7783   22.3286  -32.1205 H   0  0  0  0  0  0  0  0  0  0  0  0
   -8.2892   24.5873  -31.2060 H   0  0  0  0  0  0  0  0  0  0  0  0
   -3.6460   24.9260  -31.2360 H   0  0  0  0  0  0  0  0  0  0  0  0
   -3.8850   26.4810  -30.3690 H   0  0  0  0  0  0  0  0  0  0  0  0
   -3.1291   21.3685  -27.8424 H   0  0  0  0  0  0  0  0  0  0  0  0
   -1.9435   22.2491  -28.8773 H   0  0  0  0  0  0  0  0  0  0  0  0
   -4.4166   23.7138  -28.8863 H   0  0  0  0  0  0  0  0  0  0  0  0
   -3.9423   23.3019  -27.1590 H   0  0  0  0  0  0  0  0  0  0  0  0
   -3.0782   25.4463  -27.6059 H   0  0  0  0  0  0  0  0  0  0  0  0
   -2.3720   24.2400  -30.0510 H   0  0  0  0  0  0  0  0  0  0  0  0
   -1.1386   23.1800  -27.4731 H   0  0  0  0  0  0  0  0  0  0  0  0
   -0.4675   24.8089  -27.8787 H   0  0  0  0  0  0  0  0  0  0  0  0
    0.0413   23.6243  -24.8168 H   0  0  0  0  0  0  0  0  0  0  0  0
    0.7403   24.7407  -26.0165 H   0  0  0  0  0  0  0  0  0  0  0  0
   -0.0974   25.2772  -23.2396 H   0  0  0  0  0  0  0  0  0  0  0  0
    0.8369   26.3234  -24.3177 H   0  0  0  0  0  0  0  0  0  0  0  0
   -2.0697   26.3538  -23.7177 H   0  0  0  0  0  0  0  0  0  0  0  0
   -1.1170   27.6105  -24.5060 H   0  0  0  0  0  0  0  0  0  0  0  0
   -2.9369   26.0896  -25.8708 H   0  0  0  0  0  0  0  0  0  0  0  0
   -1.4644   26.6750  -26.6684 H   0  0  0  0  0  0  0  0  0  0  0  0
   -5.3309   20.0106  -31.6717 H   0  0  0  0  0  0  0  0  0  0  0  0
  1  2  1  0
  2  3  2  0
  3  4  1  0
  4  5  2  0
  5  6  1  0
  6  7  2  0
  7  8  1  0
  8  9  1  0
  8 10  2  0
  7 11  1  0
 11 12  1  0
 12 13  2  0
 12 14  1  0
 14 15  1  0
 15 16  1  0
 16 17  1  0
 17 18  1  0
 17 19  1  0
 19 20  1  0
 20 21  1  0
 21 22  1  0
 22 23  1  0
 23 24  1  0
 11 25  1  0
 25 26  2  0
 26  2  1  0
 25  5  1  0
 24 20  1  0
  1 27  1  0
  1 28  1  0
  1 29  1  0
  3 30  1  0
  4 31  1  0
  6 32  1  0
  9 33  1  0
  9 34  1  0
 15 35  1  0
 15 36  1  0
 16 37  1  0
 16 38  1  0
 17 39  1  1
 18 40  1  0
 19 41  1  0
 19 42  1  0
 21 43  1  0
 21 44  1  0
 22 45  1  0
 22 46  1  0
 23 47  1  0
 23 48  1  0
 24 49  1  0
 24 50  1  0
 26 51  1  0
M  END
>  <UniqueID>  (95) 
94

>  <SMILES>  (95) 
Cc1ccc2cc(C(N)=O)n(C(=O)OCC[C@H](O)CN3CCCC3)c2c1

>  <Energy>  (95) 
86.53709187859566

>  <Genealogy>  (95) 
Cc1ccc2cc(C(N)=O)n(C(=O)OCC[C@H](O)CN3CCCC3)c2c1 (3D coordinates assigned)
Cc1ccc2cc(C(N)=O)n(C(=O)OCC[C@H](O)CN3CCCC3)c2c1 (nonaromatic ring conformer: 86.53709187859566 kcal/mol)

>  <smiles>  (95) 
Cc1ccc2cc(C(N)=O)n(C(=O)OCC[C@H](O)CN3CCCC3)c2c1

>  <score_type>  (95) 
oracle

>  <origin>  (95) 
adg

>  <m_score__min__energy>  (95) 
-9.5

>  <m_primary>  (95) 
energy

$$$$
95:0
     RDKit          3D

 59 61  0  0  0  0  0  0  0  0999 V2000
   -4.1850   24.2370  -27.4810 C   0  0  0  0  0  0  0  0  0  0  0  0
   -3.8250   23.6550  -28.8630 C   0  0  0  0  0  0  0  0  0  0  0  0
   -5.0990   23.1460  -29.5780 C   0  0  0  0  0  0  0  0  0  0  0  0
   -2.7960   22.5890  -28.7430 N   0  0  0  0  0  0  0  0  0  0  0  0
   -2.3640   21.7230  -30.2370 P   0  0  2  0  0  0  0  0  0  0  0  0
   -1.7640   22.6830  -31.2370 O   0  0  0  0  0  0  0  0  0  0  0  0
   -3.7280   21.0160  -30.9920 O   0  0  0  0  0  0  0  0  0  0  0  0
   -3.9380   21.6090  -32.2490 C   0  0  0  0  0  0  0  0  0  0  0  0
   -4.0040   20.5300  -33.2830 C   0  0  0  0  0  0  0  0  0  0  0  0
   -3.1270   20.4860  -34.1870 O   0  0  0  0  0  0  0  0  0  0  0  0
   -5.0830   19.5820  -33.2910 N   0  0  0  0  0  0  0  0  0  0  0  0
   -5.0480   18.2740  -33.6710 C   0  0  0  0  0  0  0  0  0  0  0  0
   -3.8880   17.5950  -34.2900 C   0  0  0  0  0  0  0  0  0  0  0  0
   -2.5530   17.9190  -33.8950 N   0  0  0  0  0  0  0  0  0  0  0  0
   -4.0690   16.7020  -35.1600 O   0  0  0  0  0  0  0  0  0  0  0  0
   -6.2950   17.6790  -33.4810 C   0  0  0  0  0  0  0  0  0  0  0  0
   -7.1000   18.6750  -32.9750 C   0  0  0  0  0  0  0  0  0  0  0  0
   -8.4370   18.6390  -32.5910 C   0  0  0  0  0  0  0  0  0  0  0  0
   -9.0060   19.8160  -32.0770 C   0  0  0  0  0  0  0  0  0  0  0  0
   -8.2400   21.0060  -31.9650 C   0  0  0  0  0  0  0  0  0  0  0  0
   -8.8500   22.2420  -31.3560 C   0  0  0  0  0  0  0  0  0  0  0  0
   -9.8170   21.8990  -30.4270 F   0  0  0  0  0  0  0  0  0  0  0  0
   -9.4450   23.0290  -32.3260 F   0  0  0  0  0  0  0  0  0  0  0  0
   -7.8620   22.9730  -30.7270 F   0  0  0  0  0  0  0  0  0  0  0  0
   -6.8790   20.9940  -32.3480 C   0  0  0  0  0  0  0  0  0  0  0  0
   -6.3440   19.8120  -32.8690 C   0  0  0  0  0  0  0  0  0  0  0  0
   -1.2090   20.5110  -29.9050 O   0  0  0  0  0  0  0  0  0  0  0  0
   -0.1900   20.5690  -30.8760 C   0  0  0  0  0  0  0  0  0  0  0  0
   -0.7820   20.3080  -32.2640 C   0  0  1  0  0  0  0  0  0  0  0  0
   -0.1290   21.1730  -33.3720 C   0  0  0  0  0  0  0  0  0  0  0  0
    0.4050   20.2100  -34.4400 C   0  0  0  0  0  0  0  0  0  0  0  0
    0.0950   18.8800  -33.8840 C   0  0  0  0  0  0  0  0  0  0  0  0
    0.3960   17.7990  -34.4520 O   0  0  0  0  0  0  0  0  0  0  0  0
   -0.5760   18.9210  -32.6430 N   0  0  0  0  0  0  0  0  0  0  0  0
   -3.2180   24.7900  -29.6690 C   0  0  0  0  0  0  0  0  0  0  0  0
   -3.8710   25.3520  -30.5900 O   0  0  0  0  0  0  0  0  0  0  0  0
   -1.9600   25.2830  -29.3420 O   0  0  0  0  0  0  0  0  0  0  0  0
   -3.7817   23.5850  -26.6922 H   0  0  0  0  0  0  0  0  0  0  0  0
   -3.7512   25.2430  -27.3825 H   0  0  0  0  0  0  0  0  0  0  0  0
   -5.2789   24.2981  -27.3825 H   0  0  0  0  0  0  0  0  0  0  0  0
   -5.8460   22.8475  -28.8278 H   0  0  0  0  0  0  0  0  0  0  0  0
   -5.5116   23.9483  -30.2073 H   0  0  0  0  0  0  0  0  0  0  0  0
   -4.8452   22.2802  -30.2073 H   0  0  0  0  0  0  0  0  0  0  0  0
   -1.9170   23.0190  -28.3760 H   0  0  0  0  0  0  0  0  0  0  0  0
   -4.8834   22.1712  -32.2398 H   0  0  0  0  0  0  0  0  0  0  0  0
   -3.1137   22.2998  -32.4801 H   0  0  0  0  0  0  0  0  0  0  0  0
   -2.3600   18.6970  -33.2270 H   0  0  0  0  0  0  0  0  0  0  0  0
   -1.7450   17.4080  -34.3130 H   0  0  0  0  0  0  0  0  0  0  0  0
   -6.5756   16.6363  -33.6907 H   0  0  0  0  0  0  0  0  0  0  0  0
   -9.0299   17.7175  -32.6870 H   0  0  0  0  0  0  0  0  0  0  0  0
  -10.0585   19.8156  -31.7572 H   0  0  0  0  0  0  0  0  0  0  0  0
   -6.2556   21.8937  -32.2386 H   0  0  0  0  0  0  0  0  0  0  0  0
    0.2749   21.5658  -30.8586 H   0  0  0  0  0  0  0  0  0  0  0  0
    0.5678   19.8032  -30.6540 H   0  0  0  0  0  0  0  0  0  0  0  0
   -1.8493   20.5624  -32.1860 H   0  0  0  0  0  0  0  0  0  0  0  0
   -0.8767   21.8486  -33.8131 H   0  0  0  0  0  0  0  0  0  0  0  0
    0.6832   21.7897  -32.9596 H   0  0  0  0  0  0  0  0  0  0  0  0
   -0.1073   20.3643  -35.4011 H   0  0  0  0  0  0  0  0  0  0  0  0
    1.4759   20.3500  -34.6487 H   0  0  0  0  0  0  0  0  0  0  0  0
  1  2  1  0
  2  3  1  0
  2  4  1  0
  4  5  1  0
  5  6  2  0
  5  7  1  6
  7  8  1  0
  8  9  1  0
  9 10  2  0
  9 11  1  0
 11 12  1  0
 12 13  1  0
 13 14  1  0
 13 15  2  0
 12 16  2  0
 16 17  1  0
 17 18  2  0
 18 19  1  0
 19 20  2  0
 20 21  1  0
 21 22  1  0
 21 23  1  0
 21 24  1  0
 20 25  1  0
 25 26  2  0
  5 27  1  0
 27 28  1  0
 28 29  1  0
 29 30  1  0
 30 31  1  0
 31 32  1  0
 32 33  2  0
 32 34  1  0
  2 35  1  0
 35 36  2  0
 35 37  1  0
 26 11  1  0
 34 29  1  0
 26 17  1  0
  1 38  1  0
  1 39  1  0
  1 40  1  0
  3 41  1  0
  3 42  1  0
  3 43  1  0
  4 44  1  0
  8 45  1  0
  8 46  1  0
 14 47  1  0
 14 48  1  0
 16 49  1  0
 18 50  1  0
 19 51  1  0
 25 52  1  0
 28 53  1  0
 28 54  1  0
 29 55  1  1
 30 56  1  0
 30 57  1  0
 31 58  1  0
 31 59  1  0
M  CHG  2  34  -1  37  -1
M  END
>  <UniqueID>  (96) 
95

>  <SMILES>  (96) 
CC(C)(N[P@](=O)(OCC(=O)n1c(C(N)=O)cc2ccc(C(F)(F)F)cc21)OC[C@H]1CCC(=O)[N-]1)C(=O)[O-]

>  <Energy>  (96) 
107.27071731595933

>  <Genealogy>  (96) 
CC(C)(NP(=O)(OCC(=O)n1c(C(N)=O)cc2ccc(C(F)(F)F)cc21)OCC1CCC(=O)[N-]1)C(=O)[O-] (protonated)
CC(C)(N[P@](=O)(OCC(=O)n1c(C(N)=O)cc2ccc(C(F)(F)F)cc21)OC[C@H]1CCC(=O)[N-]1)C(=O)[O-] (chirality)
CC(C)(N[P@](=O)(OCC(=O)n1c(C(N)=O)cc2ccc(C(F)(F)F)cc21)OC[C@H]1CCC(=O)[N-]1)C(=O)[O-] (3D coordinates assigned)
CC(C)(N[P@](=O)(OCC(=O)n1c(C(N)=O)cc2ccc(C(F)(F)F)cc21)OC[C@H]1CCC(=O)[N-]1)C(=O)[O-] (nonaromatic ring conformer: 107.27071731595933 kcal/mol)

>  <smiles>  (96) 
CC(C)(NP(=O)(OCC(=O)n1c(C(N)=O)cc2ccc(C(F)(F)F)cc21)OCC1CCC(=O)N1)C(=O)O

>  <score_type>  (96) 
oracle

>  <origin>  (96) 
adg

>  <m_score__min__energy>  (96) 
-12.529999999999999

>  <m_primary>  (96) 
energy

$$$$
96:0
     RDKit          3D

 48 49  0  0  0  0  0  0  0  0999 V2000
   -2.8830   25.2720  -30.0380 H   0  0  0  0  0  0  0  0  0  0  0  0
   -3.5080   24.9180  -30.7960 N   0  0  0  0  0  0  0  0  0  0  0  0
   -4.9200   25.0630  -30.7140 C   0  0  0  0  0  0  0  0  0  0  0  0
   -5.4080   26.1900  -30.4340 O   0  0  0  0  0  0  0  0  0  0  0  0
   -5.8200   23.9200  -30.9820 C   0  0  0  0  0  0  0  0  0  0  0  0
   -7.2120   24.0110  -30.9560 C   0  0  0  0  0  0  0  0  0  0  0  0
   -7.8185   24.8929  -30.7023 H   0  0  0  0  0  0  0  0  0  0  0  0
   -7.6650   22.7600  -31.3160 C   0  0  0  0  0  0  0  0  0  0  0  0
   -8.9650   22.2970  -31.5000 C   0  0  0  0  0  0  0  0  0  0  0  0
   -9.8314   22.9489  -31.3145 H   0  0  0  0  0  0  0  0  0  0  0  0
   -9.1350   20.9680  -31.9310 C   0  0  0  0  0  0  0  0  0  0  0  0
  -10.1489   20.5711  -32.0875 H   0  0  0  0  0  0  0  0  0  0  0  0
   -8.0120   20.1370  -32.1650 C   0  0  0  0  0  0  0  0  0  0  0  0
   -8.2050   18.7470  -32.6920 C   0  0  0  0  0  0  0  0  0  0  0  0
   -8.3024   18.0459  -31.8500 H   0  0  0  0  0  0  0  0  0  0  0  0
   -9.1167   18.7111  -33.3064 H   0  0  0  0  0  0  0  0  0  0  0  0
   -7.3375   18.4640  -33.3064 H   0  0  0  0  0  0  0  0  0  0  0  0
   -6.7100   20.6490  -31.9830 C   0  0  0  0  0  0  0  0  0  0  0  0
   -5.8264   20.0258  -32.1849 H   0  0  0  0  0  0  0  0  0  0  0  0
   -6.5700   21.9670  -31.5400 C   0  0  0  0  0  0  0  0  0  0  0  0
   -5.4320   22.6600  -31.3230 N   0  0  0  0  0  0  0  0  0  0  0  0
   -4.0940   22.1450  -31.3830 C   0  0  0  0  0  0  0  0  0  0  0  0
   -3.7220   21.5280  -32.4180 O   0  0  0  0  0  0  0  0  0  0  0  0
   -3.1670   22.3950  -30.2950 N   0  0  2  0  0  0  0  0  0  0  0  0
   -3.0620   23.4350  -30.2130 H   0  0  0  0  0  0  0  0  0  0  0  0
   -1.8220   21.8750  -30.6080 C   0  0  0  0  0  0  0  0  0  0  0  0
   -1.2826   21.6665  -29.6723 H   0  0  0  0  0  0  0  0  0  0  0  0
   -1.9143   20.9477  -31.1925 H   0  0  0  0  0  0  0  0  0  0  0  0
   -1.2665   22.6232  -31.1925 H   0  0  0  0  0  0  0  0  0  0  0  0
   -3.6630   21.9280  -28.9760 C   0  0  0  0  0  0  0  0  0  0  0  0
   -2.9562   21.1762  -28.5949 H   0  0  0  0  0  0  0  0  0  0  0  0
   -4.6745   21.5347  -29.1557 H   0  0  0  0  0  0  0  0  0  0  0  0
   -3.8190   23.0220  -27.9000 C   0  0  0  0  0  0  0  0  0  0  0  0
   -3.5791   22.5978  -26.9138 H   0  0  0  0  0  0  0  0  0  0  0  0
   -4.8560   23.3887  -27.9105 H   0  0  0  0  0  0  0  0  0  0  0  0
   -2.9200   24.1350  -28.1760 N   0  0  0  0  0  0  0  0  0  0  0  0
   -1.6340   24.0470  -28.0350 C   0  0  0  0  0  0  0  0  0  0  0  0
   -1.1814   23.0982  -27.7111 H   0  0  0  0  0  0  0  0  0  0  0  0
   -0.7820   25.2080  -28.3060 C   0  0  0  0  0  0  0  0  0  0  0  0
   -1.2390   26.1880  -28.9600 O   0  0  0  0  0  0  0  0  0  0  0  0
    0.5300   25.2180  -27.8260 O   0  0  0  0  0  0  0  0  0  0  0  0
    0.8640   25.4380  -26.4550 C   0  0  0  0  0  0  0  0  0  0  0  0
    1.7959   26.0198  -26.3994 H   0  0  0  0  0  0  0  0  0  0  0  0
    0.9923   24.4632  -25.9617 H   0  0  0  0  0  0  0  0  0  0  0  0
   -0.2490   26.2050  -25.7440 C   0  0  0  0  0  0  0  0  0  0  0  0
   -0.1187   26.1152  -24.6554 H   0  0  0  0  0  0  0  0  0  0  0  0
   -0.2053   27.2657  -26.0322 H   0  0  0  0  0  0  0  0  0  0  0  0
   -1.2246   25.7866  -26.0322 H   0  0  0  0  0  0  0  0  0  0  0  0
  1  2  1  0
  2  3  1  0
  3  4  2  0
  3  5  1  0
  5  6  2  0
  6  7  1  0
  6  8  1  0
  8  9  2  0
  9 10  1  0
  9 11  1  0
 11 12  1  0
 11 13  2  0
 13 14  1  0
 14 15  1  0
 14 16  1  0
 14 17  1  0
 13 18  1  0
 18 19  1  0
 18 20  2  0
 20 21  1  0
 21 22  1  0
 22 23  2  0
 22 24  1  0
 24 25  1  1
 24 26  1  0
 26 27  1  0
 26 28  1  0
 26 29  1  0
 24 30  1  0
 30 31  1  0
 30 32  1  0
 30 33  1  0
 33 34  1  0
 33 35  1  0
 33 36  1  0
 36 37  2  0
 37 38  1  0
 37 39  1  0
 39 40  2  0
 39 41  1  0
 41 42  1  0
 42 43  1  0
 42 44  1  0
 42 45  1  0
 45 46  1  0
 45 47  1  0
 45 48  1  0
 21  5  1  0
 20  8  1  0
M  CHG  2   2  -1  24   1
M  END
>  <UniqueID>  (97) 
96

>  <SMILES>  (97) 
CCOC(=O)/C=N/CC[N@@H+](C)C(=O)n1c(C([NH-])=O)cc2ccc(C)cc21

>  <Energy>  (97) 
84.7052118883749

>  <Genealogy>  (97) 
CCOC(=O)/C=N/CC[NH+](C)C(=O)n1c(C([NH-])=O)cc2ccc(C)cc21 (protonated)
CCOC(=O)/C=N/CC[N@@H+](C)C(=O)n1c(C([NH-])=O)cc2ccc(C)cc21 (chirality)
CCOC(=O)/C=N/CC[N@@H+](C)C(=O)n1c(C([NH-])=O)cc2ccc(C)cc21 (cis-trans isomerization)
CCOC(=O)/C=N/CC[N@@H+](C)C(=O)n1c(C([NH-])=O)cc2ccc(C)cc21 (3D coordinates assigned)
CCOC(=O)/C=N/CC[N@@H+](C)C(=O)n1c(C([NH-])=O)cc2ccc(C)cc21 (optimized conformer: 84.7052118883749 kcal/mol)

>  <smiles>  (97) 
CCOC(=O)/C=N/CCN(C)C(=O)n1c(C(N)=O)cc2ccc(C)cc21

>  <score_type>  (97) 
oracle

>  <origin>  (97) 
adg

>  <m_score__min__energy>  (97) 
-9.5700000000000003

>  <m_primary>  (97) 
energy

$$$$
97:0
     RDKit          3D

 30 31  0  0  0  0  0  0  0  0999 V2000
   -4.2470   25.5840  -30.5410 N   0  0  0  0  0  0  0  0  0  0  0  0
   -5.3880   24.8860  -30.0400 C   0  0  0  0  0  0  0  0  0  0  0  0
   -5.9030   25.2480  -28.9490 O   0  0  0  0  0  0  0  0  0  0  0  0
   -5.9350   23.7080  -30.7450 C   0  0  0  0  0  0  0  0  0  0  0  0
   -7.2960   23.5120  -30.9640 C   0  0  0  0  0  0  0  0  0  0  0  0
   -7.3920   22.2840  -31.5760 C   0  0  0  0  0  0  0  0  0  0  0  0
   -8.5150   21.5970  -32.0290 C   0  0  0  0  0  0  0  0  0  0  0  0
   -8.3170   20.3570  -32.6600 C   0  0  0  0  0  0  0  0  0  0  0  0
   -7.0130   19.8390  -32.8350 C   0  0  0  0  0  0  0  0  0  0  0  0
   -6.8250   18.5830  -33.4920 N   0  0  0  0  0  0  0  0  0  0  0  0
   -5.8970   20.5630  -32.3660 C   0  0  0  0  0  0  0  0  0  0  0  0
   -6.1210   21.7860  -31.7200 C   0  0  0  0  0  0  0  0  0  0  0  0
   -5.2140   22.6530  -31.2170 N   0  0  0  0  0  0  0  0  0  0  0  0
   -3.7830   22.5250  -31.2740 C   0  0  0  0  0  0  0  0  0  0  0  0
   -3.2630   21.5480  -31.8800 O   0  0  0  0  0  0  0  0  0  0  0  0
   -2.9730   23.4830  -30.6590 O   0  0  0  0  0  0  0  0  0  0  0  0
   -2.2670   23.2320  -29.4490 C   0  0  0  0  0  0  0  0  0  0  0  0
   -1.4640   24.4360  -29.0890 C   0  0  0  0  0  0  0  0  0  0  0  0
   -0.2260   24.3360  -28.8830 O   0  0  0  0  0  0  0  0  0  0  0  0
   -2.0820   25.6760  -28.9830 O   0  0  0  0  0  0  0  0  0  0  0  0
   -3.7000   25.2120  -31.3470 H   0  0  0  0  0  0  0  0  0  0  0  0
   -3.8950   26.4350  -30.0480 H   0  0  0  0  0  0  0  0  0  0  0  0
   -8.1189   24.1938  -30.7032 H   0  0  0  0  0  0  0  0  0  0  0  0
   -9.5253   22.0117  -31.8972 H   0  0  0  0  0  0  0  0  0  0  0  0
   -9.1841   19.7844  -33.0209 H   0  0  0  0  0  0  0  0  0  0  0  0
   -6.9080   18.5050  -34.5310 H   0  0  0  0  0  0  0  0  0  0  0  0
   -6.6020   17.7210  -32.9450 H   0  0  0  0  0  0  0  0  0  0  0  0
   -4.8762   20.1771  -32.5040 H   0  0  0  0  0  0  0  0  0  0  0  0
   -2.9838   23.0139  -28.6436 H   0  0  0  0  0  0  0  0  0  0  0  0
   -1.5979   22.3694  -29.5845 H   0  0  0  0  0  0  0  0  0  0  0  0
  1  2  1  0
  2  3  2  0
  2  4  1  0
  4  5  2  0
  5  6  1  0
  6  7  2  0
  7  8  1  0
  8  9  2  0
  9 10  1  0
  9 11  1  0
 11 12  2  0
 12 13  1  0
 13 14  1  0
 14 15  2  0
 14 16  1  0
 16 17  1  0
 17 18  1  0
 18 19  2  0
 18 20  1  0
 13  4  1  0
 12  6  1  0
  1 21  1  0
  1 22  1  0
  5 23  1  0
  7 24  1  0
  8 25  1  0
 10 26  1  0
 10 27  1  0
 11 28  1  0
 17 29  1  0
 17 30  1  0
M  CHG  1  20  -1
M  END
>  <UniqueID>  (98) 
97

>  <SMILES>  (98) 
NC(=O)c1cc2ccc(N)cc2n1C(=O)OCC(=O)[O-]

>  <Energy>  (98) 
65.99720043387174

>  <Genealogy>  (98) 
NC(=O)c1cc2ccc(N)cc2n1C(=O)OCC(=O)[O-] (protonated)
NC(=O)c1cc2ccc(N)cc2n1C(=O)OCC(=O)[O-] (3D coordinates assigned)
NC(=O)c1cc2ccc(N)cc2n1C(=O)OCC(=O)[O-] (optimized conformer: 65.99720043387174 kcal/mol)

>  <smiles>  (98) 
NC(=O)c1cc2ccc(N)cc2n1C(=O)OCC(=O)O

>  <score_type>  (98) 
oracle

>  <origin>  (98) 
adg

>  <m_score__min__energy>  (98) 
-9.4499999999999993

>  <m_primary>  (98) 
energy

$$$$
98:0
     RDKit          3D

 53 54  0  0  0  0  0  0  0  0999 V2000
   -6.9500   18.4030  -32.8200 C   0  0  0  0  0  0  0  0  0  0  0  0
   -7.0880   19.8350  -32.3990 C   0  0  0  0  0  0  0  0  0  0  0  0
   -8.3720   20.4230  -32.2780 C   0  0  0  0  0  0  0  0  0  0  0  0
   -8.5130   21.7570  -31.8600 C   0  0  0  0  0  0  0  0  0  0  0  0
   -7.3570   22.4680  -31.5520 C   0  0  0  0  0  0  0  0  0  0  0  0
   -7.2020   23.7740  -31.1500 C   0  0  0  0  0  0  0  0  0  0  0  0
   -5.8290   23.9560  -30.9990 C   0  0  0  0  0  0  0  0  0  0  0  0
   -5.2240   25.2120  -30.5090 C   0  0  0  0  0  0  0  0  0  0  0  0
   -3.8840   25.5660  -30.8390 N   0  0  0  0  0  0  0  0  0  0  0  0
   -5.8890   25.9660  -29.7480 O   0  0  0  0  0  0  0  0  0  0  0  0
   -5.1610   22.8060  -31.3010 N   0  0  0  0  0  0  0  0  0  0  0  0
   -3.7420   22.6060  -31.3700 C   0  0  0  0  0  0  0  0  0  0  0  0
   -3.2020   22.3010  -32.4690 O   0  0  0  0  0  0  0  0  0  0  0  0
   -2.9620   22.7870  -30.2250 O   0  0  0  0  0  0  0  0  0  0  0  0
   -3.2540   22.1570  -28.9820 C   0  0  0  0  0  0  0  0  0  0  0  0
   -2.2630   21.1740  -28.7070 O   0  0  0  0  0  0  0  0  0  0  0  0
   -2.2690   20.4040  -27.5400 C   0  0  0  0  0  0  0  0  0  0  0  0
   -2.8050   19.2610  -27.5240 O   0  0  0  0  0  0  0  0  0  0  0  0
   -1.5990   20.9250  -26.3080 C   0  0  0  0  0  0  0  0  0  0  0  0
   -0.6260   22.0630  -26.6390 C   0  0  0  0  0  0  0  0  0  0  0  0
   -0.4070   22.9870  -25.4610 C   0  0  0  0  0  0  0  0  0  0  0  0
   -0.4580   22.5230  -24.3280 O   0  0  0  0  0  0  0  0  0  0  0  0
   -0.1950   24.4100  -25.6550 N   0  0  2  0  0  0  0  0  0  0  0  0
    0.5890   24.9500  -24.5290 C   0  0  0  0  0  0  0  0  0  0  0  0
   -1.5070   25.0940  -25.7870 C   0  0  0  0  0  0  0  0  0  0  0  0
   -1.5540   26.0860  -26.9650 C   0  0  0  0  0  0  0  0  0  0  0  0
   -0.9570   25.5230  -28.2230 C   0  0  0  0  0  0  0  0  0  0  0  0
   -1.5500   25.6480  -29.3280 O   0  0  0  0  0  0  0  0  0  0  0  0
    0.2950   24.9210  -28.1840 O   0  0  0  0  0  0  0  0  0  0  0  0
   -6.1100   21.9050  -31.6360 C   0  0  0  0  0  0  0  0  0  0  0  0
   -5.9390   20.5840  -32.0660 C   0  0  0  0  0  0  0  0  0  0  0  0
   -6.8883   17.7628  -31.9276 H   0  0  0  0  0  0  0  0  0  0  0  0
   -7.8242   18.1115  -33.4207 H   0  0  0  0  0  0  0  0  0  0  0  0
   -6.0362   18.2838  -33.4207 H   0  0  0  0  0  0  0  0  0  0  0  0
   -9.2672   19.8289  -32.5138 H   0  0  0  0  0  0  0  0  0  0  0  0
   -9.5054   22.2245  -31.7788 H   0  0  0  0  0  0  0  0  0  0  0  0
   -7.9948   24.5180  -30.9829 H   0  0  0  0  0  0  0  0  0  0  0  0
   -3.0860   24.9440  -30.5830 H   0  0  0  0  0  0  0  0  0  0  0  0
   -3.2564   22.9102  -28.1803 H   0  0  0  0  0  0  0  0  0  0  0  0
   -4.2425   21.6776  -29.0360 H   0  0  0  0  0  0  0  0  0  0  0  0
   -2.3663   21.3004  -25.6149 H   0  0  0  0  0  0  0  0  0  0  0  0
   -1.0281   20.1035  -25.8506 H   0  0  0  0  0  0  0  0  0  0  0  0
    0.3408   21.6285  -26.9332 H   0  0  0  0  0  0  0  0  0  0  0  0
   -1.0635   22.6550  -27.4564 H   0  0  0  0  0  0  0  0  0  0  0  0
    0.3660   24.5560  -26.5270 H   0  0  0  0  0  0  0  0  0  0  0  0
    0.1317   24.6350  -23.5794 H   0  0  0  0  0  0  0  0  0  0  0  0
    1.6195   24.5692  -24.5838 H   0  0  0  0  0  0  0  0  0  0  0  0
    0.6006   26.0486  -24.5838 H   0  0  0  0  0  0  0  0  0  0  0  0
   -2.2856   24.3320  -25.9393 H   0  0  0  0  0  0  0  0  0  0  0  0
   -1.6711   25.6708  -24.8649 H   0  0  0  0  0  0  0  0  0  0  0  0
   -2.6038   26.3494  -27.1612 H   0  0  0  0  0  0  0  0  0  0  0  0
   -0.9591   26.9666  -26.6809 H   0  0  0  0  0  0  0  0  0  0  0  0
   -4.9350   20.1410  -32.1424 H   0  0  0  0  0  0  0  0  0  0  0  0
  1  2  1  0
  2  3  2  0
  3  4  1  0
  4  5  2  0
  5  6  1  0
  6  7  2  0
  7  8  1  0
  8  9  1  0
  8 10  2  0
  7 11  1  0
 11 12  1  0
 12 13  2  0
 12 14  1  0
 14 15  1  0
 15 16  1  0
 16 17  1  0
 17 18  2  0
 17 19  1  0
 19 20  1  0
 20 21  1  0
 21 22  2  0
 21 23  1  0
 23 24  1  0
 23 25  1  0
 25 26  1  0
 26 27  1  0
 27 28  2  0
 27 29  1  0
 11 30  1  0
 30 31  2  0
 31  2  1  0
 30  5  1  0
  1 32  1  0
  1 33  1  0
  1 34  1  0
  3 35  1  0
  4 36  1  0
  6 37  1  0
  9 38  1  0
 15 39  1  0
 15 40  1  0
 19 41  1  0
 19 42  1  0
 20 43  1  0
 20 44  1  0
 23 45  1  6
 24 46  1  0
 24 47  1  0
 24 48  1  0
 25 49  1  0
 25 50  1  0
 26 51  1  0
 26 52  1  0
 31 53  1  0
M  CHG  3   9  -1  23   1  29  -1
M  END
>  <UniqueID>  (99) 
98

>  <SMILES>  (99) 
Cc1ccc2cc(C([NH-])=O)n(C(=O)OCOC(=O)CCC(=O)[N@H+](C)CCC(=O)[O-])c2c1

>  <Energy>  (99) 
79.94473323713204

>  <Genealogy>  (99) 
Cc1ccc2cc(C([NH-])=O)n(C(=O)OCOC(=O)CCC(=O)[NH+](C)CCC(=O)[O-])c2c1 (protonated)
Cc1ccc2cc(C([NH-])=O)n(C(=O)OCOC(=O)CCC(=O)[N@H+](C)CCC(=O)[O-])c2c1 (chirality)
Cc1ccc2cc(C([NH-])=O)n(C(=O)OCOC(=O)CCC(=O)[N@H+](C)CCC(=O)[O-])c2c1 (3D coordinates assigned)
Cc1ccc2cc(C([NH-])=O)n(C(=O)OCOC(=O)CCC(=O)[N@H+](C)CCC(=O)[O-])c2c1 (optimized conformer: 79.94473323713204 kcal/mol)

>  <smiles>  (99) 
Cc1ccc2cc(C(N)=O)n(C(=O)OCOC(=O)CCC(=O)N(C)CCC(=O)O)c2c1

>  <score_type>  (99) 
oracle

>  <origin>  (99) 
adg

>  <m_score__min__energy>  (99) 
-11.720000000000001

>  <m_primary>  (99) 
energy

$$$$
