0:0
     RDKit          3D

 30 31  0  0  0  0  0  0  0  0999 V2000
    1.8220   20.2000  -36.9530 N   0  0  0  0  0  0  0  0  0  0  0  0
    0.9280   19.2280  -36.4180 C   0  0  0  0  0  0  0  0  0  0  0  0
    0.8870   18.0780  -36.9330 O   0  0  0  0  0  0  0  0  0  0  0  0
    0.0080   19.5670  -35.3130 C   0  0  0  0  0  0  0  0  0  0  0  0
   -0.8860   18.6560  -34.7530 C   0  0  0  0  0  0  0  0  0  0  0  0
   -1.6150   19.3770  -33.8360 C   0  0  0  0  0  0  0  0  0  0  0  0
   -2.6380   18.9670  -32.9860 C   0  0  0  0  0  0  0  0  0  0  0  0
   -3.1960   19.9210  -32.1200 C   0  0  0  0  0  0  0  0  0  0  0  0
   -2.7210   21.2570  -32.1140 C   0  0  0  0  0  0  0  0  0  0  0  0
   -3.3320   22.2760  -31.1870 C   0  0  0  0  0  0  0  0  0  0  0  0
   -2.2740   23.0280  -30.3680 C   0  0  0  0  0  0  0  0  0  0  0  0
   -2.9060   24.6010  -29.6930 P   0  0  0  0  0  0  0  0  0  0  0  0
   -3.7020   24.3390  -28.4340 O   0  0  0  0  0  0  0  0  0  0  0  0
   -1.5990   25.6080  -29.3250 O   0  0  0  0  0  0  0  0  0  0  0  0
   -3.8900   25.3700  -30.8330 O   0  0  0  0  0  0  0  0  0  0  0  0
   -1.6800   21.6350  -32.9910 C   0  0  0  0  0  0  0  0  0  0  0  0
   -1.1550   20.6680  -33.8560 C   0  0  0  0  0  0  0  0  0  0  0  0
   -0.1550   20.8010  -34.7560 N   0  0  0  0  0  0  0  0  0  0  0  0
    0.6300   21.9820  -34.9910 C   0  0  0  0  0  0  0  0  0  0  0  0
    1.8120   22.0560  -34.5660 O   0  0  0  0  0  0  0  0  0  0  0  0
    0.1000   23.0430  -35.7150 O   0  0  0  0  0  0  0  0  0  0  0  0
    1.8750   21.1610  -36.5500 H   0  0  0  0  0  0  0  0  0  0  0  0
   -0.9871   17.5873  -34.9933 H   0  0  0  0  0  0  0  0  0  0  0  0
   -2.9982   17.9277  -32.9925 H   0  0  0  0  0  0  0  0  0  0  0  0
   -4.0095   19.6291  -31.4396 H   0  0  0  0  0  0  0  0  0  0  0  0
   -3.8987   23.0040  -31.7860 H   0  0  0  0  0  0  0  0  0  0  0  0
   -3.9847   21.7404  -30.4820 H   0  0  0  0  0  0  0  0  0  0  0  0
   -1.9536   22.3883  -29.5324 H   0  0  0  0  0  0  0  0  0  0  0  0
   -1.4352   23.2639  -31.0394 H   0  0  0  0  0  0  0  0  0  0  0  0
   -1.2915   22.6641  -32.9940 H   0  0  0  0  0  0  0  0  0  0  0  0
  1  2  1  0
  2  3  2  0
  2  4  1  0
  4  5  2  0
  5  6  1  0
  6  7  2  0
  7  8  1  0
  8  9  2  0
  9 10  1  0
 10 11  1  0
 11 12  1  0
 12 13  2  0
 12 14  1  0
 12 15  1  0
  9 16  1  0
 16 17  2  0
 17 18  1  0
 18 19  1  0
 19 20  2  0
 19 21  1  0
 18  4  1  0
 17  6  1  0
  1 22  1  0
  5 23  1  0
  7 24  1  0
  8 25  1  0
 10 26  1  0
 10 27  1  0
 11 28  1  0
 11 29  1  0
 16 30  1  0
M  CHG  4   1  -1  14  -1  15  -1  21  -1
M  END
>  <UniqueID>  (1) 
1

>  <SMILES>  (1) 
[NH-]C(=O)c1cc2ccc(CCP(=O)([O-])[O-])cc2n1C(=O)[O-]

>  <Energy>  (1) 
64.23191141693742

>  <Genealogy>  (1) 
[NH-]C(=O)c1cc2ccc(CCP(=O)([O-])[O-])cc2n1C(=O)[O-] (protonated)
[NH-]C(=O)c1cc2ccc(CCP(=O)([O-])[O-])cc2n1C(=O)[O-] (3D coordinates assigned)
[NH-]C(=O)c1cc2ccc(CCP(=O)([O-])[O-])cc2n1C(=O)[O-] (optimized conformer: 64.23191141693742 kcal/mol)

>  <smiles>  (1) 
NC(=O)c1cc2ccc(CCP(=O)(O)O)cc2n1C(=O)O

>  <score_type>  (1) 
oracle

>  <origin>  (1) 
adg

>  <m_score__min__energy>  (1) 
-11.539999999999999

>  <m_primary>  (1) 
energy

$$$$
2:0
     RDKit          3D

 37 39  0  0  0  0  0  0  0  0999 V2000
   -1.2880   25.8590  -28.9640 N   0  0  0  0  0  0  0  0  0  0  0  0
   -0.7890   24.5300  -29.0990 C   0  0  0  0  0  0  0  0  0  0  0  0
    0.3600   24.2550  -28.6630 O   0  0  0  0  0  0  0  0  0  0  0  0
   -1.6040   23.5050  -29.7840 C   0  0  0  0  0  0  0  0  0  0  0  0
   -1.0870   22.2990  -30.2480 C   0  0  0  0  0  0  0  0  0  0  0  0
   -2.1700   21.6010  -30.7320 C   0  0  0  0  0  0  0  0  0  0  0  0
   -2.2310   20.3440  -31.3130 C   0  0  0  0  0  0  0  0  0  0  0  0
   -3.4810   19.8740  -31.7450 C   0  0  0  0  0  0  0  0  0  0  0  0
   -4.6650   20.6640  -31.6090 C   0  0  0  0  0  0  0  0  0  0  0  0
   -5.9630   20.1700  -32.0730 N   0  0  0  0  0  0  0  0  0  0  0  0
   -7.1020   21.1180  -32.1320 C   0  0  0  0  0  0  0  0  0  0  0  0
   -8.4010   20.5520  -32.7150 C   0  0  0  0  0  0  0  0  0  0  0  0
   -8.6210   19.1070  -32.2920 C   0  0  0  0  0  0  0  0  0  0  0  0
   -9.8370   18.6370  -32.8090 O   0  0  0  0  0  0  0  0  0  0  0  0
   -7.4820   18.2840  -32.8650 C   0  0  0  0  0  0  0  0  0  0  0  0
   -6.1300   18.7110  -32.2870 C   0  0  0  0  0  0  0  0  0  0  0  0
   -4.5400   21.9460  -30.9960 C   0  0  0  0  0  0  0  0  0  0  0  0
   -3.2820   22.3770  -30.5600 C   0  0  0  0  0  0  0  0  0  0  0  0
   -2.9530   23.5530  -29.9790 N   0  0  0  0  0  0  0  0  0  0  0  0
   -3.8410   24.6480  -29.6990 C   0  0  0  0  0  0  0  0  0  0  0  0
   -3.8820   25.6450  -30.4660 O   0  0  0  0  0  0  0  0  0  0  0  0
   -4.6450   24.6280  -28.5660 O   0  0  0  0  0  0  0  0  0  0  0  0
   -2.3150   26.0480  -28.9580 H   0  0  0  0  0  0  0  0  0  0  0  0
   -0.0365   21.9731  -30.2314 H   0  0  0  0  0  0  0  0  0  0  0  0
   -1.3249   19.7318  -31.4322 H   0  0  0  0  0  0  0  0  0  0  0  0
   -3.5514   18.8745  -32.1988 H   0  0  0  0  0  0  0  0  0  0  0  0
   -7.3111   21.4608  -31.1079 H   0  0  0  0  0  0  0  0  0  0  0  0
   -6.7903   21.9230  -32.8138 H   0  0  0  0  0  0  0  0  0  0  0  0
   -9.2463   21.1604  -32.3609 H   0  0  0  0  0  0  0  0  0  0  0  0
   -8.3280   20.5824  -33.8122 H   0  0  0  0  0  0  0  0  0  0  0  0
   -8.6511   19.0297  -31.1951 H   0  0  0  0  0  0  0  0  0  0  0  0
   -9.8590   18.8940  -33.7670 H   0  0  0  0  0  0  0  0  0  0  0  0
   -7.6530   17.2238  -32.6268 H   0  0  0  0  0  0  0  0  0  0  0  0
   -7.4563   18.4437  -33.9530 H   0  0  0  0  0  0  0  0  0  0  0  0
   -6.0014   18.2085  -31.3170 H   0  0  0  0  0  0  0  0  0  0  0  0
   -5.3760   18.4255  -33.0353 H   0  0  0  0  0  0  0  0  0  0  0  0
   -5.4232   22.5890  -30.8674 H   0  0  0  0  0  0  0  0  0  0  0  0
  1  2  1  0
  2  3  2  0
  2  4  1  0
  4  5  2  0
  5  6  1  0
  6  7  2  0
  7  8  1  0
  8  9  2  0
  9 10  1  0
 10 11  1  0
 11 12  1  0
 12 13  1  0
 13 14  1  0
 13 15  1  0
 15 16  1  0
  9 17  1  0
 17 18  2  0
 18 19  1  0
 19 20  1  0
 20 21  2  0
 20 22  1  0
 19  4  1  0
 18  6  1  0
 16 10  1  0
  1 23  1  0
  5 24  1  0
  7 25  1  0
  8 26  1  0
 11 27  1  0
 11 28  1  0
 12 29  1  0
 12 30  1  0
 13 31  1  0
 14 32  1  0
 15 33  1  0
 15 34  1  0
 16 35  1  0
 16 36  1  0
 17 37  1  0
M  CHG  2   1  -1  22  -1
M  END
>  <UniqueID>  (2) 
2

>  <SMILES>  (2) 
[NH-]C(=O)c1cc2ccc(N3CCC(O)CC3)cc2n1C(=O)[O-]

>  <Energy>  (2) 
83.89946480329213

>  <Genealogy>  (2) 
[NH-]C(=O)c1cc2ccc(N3CCC(O)CC3)cc2n1C(=O)[O-] (protonated)
[NH-]C(=O)c1cc2ccc(N3CCC(O)CC3)cc2n1C(=O)[O-] (3D coordinates assigned)
[NH-]C(=O)c1cc2ccc(N3CCC(O)CC3)cc2n1C(=O)[O-] (nonaromatic ring conformer: 83.89946480329213 kcal/mol)

>  <smiles>  (2) 
NC(=O)c1cc2ccc(N3CCC(O)CC3)cc2n1C(=O)O

>  <score_type>  (2) 
oracle

>  <origin>  (2) 
adg

>  <m_score__min__energy>  (2) 
-11.130000000000001

>  <m_primary>  (2) 
energy

$$$$
3:0
     RDKit          3D

 39 40  0  0  0  0  0  0  0  0999 V2000
   -3.4050   17.5720  -34.2730 C   0  0  0  0  0  0  0  0  0  0  0  0
   -4.7180   17.0340  -34.3690 O   0  0  0  0  0  0  0  0  0  0  0  0
   -5.8670   17.8300  -34.3190 C   0  0  0  0  0  0  0  0  0  0  0  0
   -6.0650   18.7310  -35.1790 O   0  0  0  0  0  0  0  0  0  0  0  0
   -6.8390   17.6460  -33.1960 C   0  0  0  0  0  0  0  0  0  0  0  0
   -7.2760   18.9800  -32.6540 C   0  0  0  0  0  0  0  0  0  0  0  0
   -8.6500   19.3180  -32.5990 C   0  0  0  0  0  0  0  0  0  0  0  0
   -9.0610   20.5500  -32.0660 C   0  0  0  0  0  0  0  0  0  0  0  0
   -8.0800   21.4270  -31.6120 C   0  0  0  0  0  0  0  0  0  0  0  0
   -8.2140   22.6690  -31.0430 C   0  0  0  0  0  0  0  0  0  0  0  0
   -6.9180   23.0860  -30.7660 C   0  0  0  0  0  0  0  0  0  0  0  0
   -6.6220   24.3520  -30.0700 C   0  0  0  0  0  0  0  0  0  0  0  0
   -5.3690   24.5490  -29.4150 N   0  0  0  0  0  0  0  0  0  0  0  0
   -7.5120   25.2390  -29.9900 O   0  0  0  0  0  0  0  0  0  0  0  0
   -6.0010   22.1590  -31.1770 N   0  0  0  0  0  0  0  0  0  0  0  0
   -4.5650   22.3220  -31.2430 C   0  0  0  0  0  0  0  0  0  0  0  0
   -4.0460   23.0420  -32.1390 O   0  0  0  0  0  0  0  0  0  0  0  0
   -3.7350   21.6300  -30.3570 O   0  0  0  0  0  0  0  0  0  0  0  0
   -3.1250   22.2340  -29.2200 C   0  0  0  0  0  0  0  0  0  0  0  0
   -2.0730   23.0720  -29.6360 O   0  0  0  0  0  0  0  0  0  0  0  0
   -2.5080   24.6960  -29.3440 P   0  0  0  0  0  0  0  0  0  0  0  0
   -3.2570   24.7780  -28.0340 O   0  0  0  0  0  0  0  0  0  0  0  0
   -3.5000   25.2900  -30.5810 O   0  0  0  0  0  0  0  0  0  0  0  0
   -1.1120   25.6460  -29.2410 O   0  0  0  0  0  0  0  0  0  0  0  0
   -6.7410   21.1310  -31.6730 C   0  0  0  0  0  0  0  0  0  0  0  0
   -6.3090   19.8960  -32.1820 C   0  0  0  0  0  0  0  0  0  0  0  0
   -3.1313   17.6842  -33.2135 H   0  0  0  0  0  0  0  0  0  0  0  0
   -2.6936   16.8929  -34.7656 H   0  0  0  0  0  0  0  0  0  0  0  0
   -3.3746   18.5551  -34.7656 H   0  0  0  0  0  0  0  0  0  0  0  0
   -7.7192   17.0991  -33.5649 H   0  0  0  0  0  0  0  0  0  0  0  0
   -6.3497   17.0778  -32.3912 H   0  0  0  0  0  0  0  0  0  0  0  0
   -9.4016   18.6093  -32.9771 H   0  0  0  0  0  0  0  0  0  0  0  0
  -10.1272   20.8146  -32.0088 H   0  0  0  0  0  0  0  0  0  0  0  0
   -9.1477   23.2169  -30.8481 H   0  0  0  0  0  0  0  0  0  0  0  0
   -5.1600   25.4590  -28.9450 H   0  0  0  0  0  0  0  0  0  0  0  0
   -4.6680   23.7770  -29.3550 H   0  0  0  0  0  0  0  0  0  0  0  0
   -3.8735   22.8290  -28.6762 H   0  0  0  0  0  0  0  0  0  0  0  0
   -2.7269   21.4493  -28.5599 H   0  0  0  0  0  0  0  0  0  0  0  0
   -5.2382   19.6461  -32.2128 H   0  0  0  0  0  0  0  0  0  0  0  0
  1  2  1  0
  2  3  1  0
  3  4  2  0
  3  5  1  0
  5  6  1  0
  6  7  2  0
  7  8  1  0
  8  9  2  0
  9 10  1  0
 10 11  2  0
 11 12  1  0
 12 13  1  0
 12 14  2  0
 11 15  1  0
 15 16  1  0
 16 17  2  0
 16 18  1  0
 18 19  1  0
 19 20  1  0
 20 21  1  0
 21 22  2  0
 21 23  1  0
 21 24  1  0
 15 25  1  0
 25 26  2  0
 26  6  1  0
 25  9  1  0
  1 27  1  0
  1 28  1  0
  1 29  1  0
  5 30  1  0
  5 31  1  0
  7 32  1  0
  8 33  1  0
 10 34  1  0
 13 35  1  0
 13 36  1  0
 19 37  1  0
 19 38  1  0
 26 39  1  0
M  CHG  2  23  -1  24  -1
M  END
>  <UniqueID>  (3) 
3

>  <SMILES>  (3) 
COC(=O)Cc1ccc2cc(C(N)=O)n(C(=O)OCOP(=O)([O-])[O-])c2c1

>  <Energy>  (3) 
73.39918721603111

>  <Genealogy>  (3) 
COC(=O)Cc1ccc2cc(C(N)=O)n(C(=O)OCOP(=O)([O-])[O-])c2c1 (protonated)
COC(=O)Cc1ccc2cc(C(N)=O)n(C(=O)OCOP(=O)([O-])[O-])c2c1 (3D coordinates assigned)
COC(=O)Cc1ccc2cc(C(N)=O)n(C(=O)OCOP(=O)([O-])[O-])c2c1 (optimized conformer: 73.39918721603111 kcal/mol)

>  <smiles>  (3) 
COC(=O)Cc1ccc2cc(C(N)=O)n(C(=O)OCOP(=O)(O)O)c2c1

>  <score_type>  (3) 
oracle

>  <origin>  (3) 
adg

>  <m_score__min__energy>  (3) 
-12.6

>  <m_primary>  (3) 
energy

$$$$
4:0
     RDKit          3D

 31 32  0  0  0  0  0  0  0  0999 V2000
   -2.6570   17.7600  -33.4950 C   0  0  0  0  0  0  0  0  0  0  0  0
   -3.7450   18.7750  -33.3080 C   0  0  0  0  0  0  0  0  0  0  0  0
   -4.9290   18.6970  -34.0830 C   0  0  0  0  0  0  0  0  0  0  0  0
   -5.9780   19.6090  -33.8790 C   0  0  0  0  0  0  0  0  0  0  0  0
   -5.8150   20.5840  -32.8990 C   0  0  0  0  0  0  0  0  0  0  0  0
   -6.6830   21.5590  -32.4660 C   0  0  0  0  0  0  0  0  0  0  0  0
   -6.0140   22.2240  -31.4380 C   0  0  0  0  0  0  0  0  0  0  0  0
   -6.5650   23.3780  -30.6880 C   0  0  0  0  0  0  0  0  0  0  0  0
   -6.1590   23.6450  -29.3440 N   0  0  0  0  0  0  0  0  0  0  0  0
   -7.4130   24.1370  -31.2290 O   0  0  0  0  0  0  0  0  0  0  0  0
   -4.7750   21.6850  -31.2560 N   0  0  0  0  0  0  0  0  0  0  0  0
   -3.7930   22.0610  -30.2770 C   0  0  0  0  0  0  0  0  0  0  0  0
   -3.8560   21.5810  -29.1140 O   0  0  0  0  0  0  0  0  0  0  0  0
   -2.7290   23.0640  -30.6060 C   0  0  0  0  0  0  0  0  0  0  0  0
   -3.0820   24.6430  -29.7770 P   0  0  0  0  0  0  0  0  0  0  0  0
   -3.9070   24.3830  -28.5370 O   0  0  0  0  0  0  0  0  0  0  0  0
   -3.9430   25.6560  -30.8220 O   0  0  0  0  0  0  0  0  0  0  0  0
   -1.6290   25.3880  -29.3360 O   0  0  0  0  0  0  0  0  0  0  0  0
   -4.6720   20.6770  -32.1480 C   0  0  0  0  0  0  0  0  0  0  0  0
   -3.6230   19.7650  -32.3100 C   0  0  0  0  0  0  0  0  0  0  0  0
   -2.2964   17.4236  -32.5117 H   0  0  0  0  0  0  0  0  0  0  0  0
   -3.0509   16.8992  -34.0552 H   0  0  0  0  0  0  0  0  0  0  0  0
   -1.8256   18.2127  -34.0552 H   0  0  0  0  0  0  0  0  0  0  0  0
   -5.0275   17.9156  -34.8509 H   0  0  0  0  0  0  0  0  0  0  0  0
   -6.9004   19.5542  -34.4758 H   0  0  0  0  0  0  0  0  0  0  0  0
   -7.6922   21.7701  -32.8494 H   0  0  0  0  0  0  0  0  0  0  0  0
   -5.4090   23.0910  -28.8770 H   0  0  0  0  0  0  0  0  0  0  0  0
   -6.5850   24.4410  -28.8180 H   0  0  0  0  0  0  0  0  0  0  0  0
   -1.7539   22.6847  -30.2665 H   0  0  0  0  0  0  0  0  0  0  0  0
   -2.7095   23.2248  -31.6940 H   0  0  0  0  0  0  0  0  0  0  0  0
   -2.7261   19.8186  -31.6754 H   0  0  0  0  0  0  0  0  0  0  0  0
  1  2  1  0
  2  3  2  0
  3  4  1  0
  4  5  2  0
  5  6  1  0
  6  7  2  0
  7  8  1  0
  8  9  1  0
  8 10  2  0
  7 11  1  0
 11 12  1  0
 12 13  2  0
 12 14  1  0
 14 15  1  0
 15 16  2  0
 15 17  1  0
 15 18  1  0
 11 19  1  0
 19 20  2  0
 20  2  1  0
 19  5  1  0
  1 21  1  0
  1 22  1  0
  1 23  1  0
  3 24  1  0
  4 25  1  0
  6 26  1  0
  9 27  1  0
  9 28  1  0
 14 29  1  0
 14 30  1  0
 20 31  1  0
M  CHG  2  17  -1  18  -1
M  END
>  <UniqueID>  (4) 
4

>  <SMILES>  (4) 
Cc1ccc2cc(C(N)=O)n(C(=O)CP(=O)([O-])[O-])c2c1

>  <Energy>  (4) 
64.72543315273643

>  <Genealogy>  (4) 
Cc1ccc2cc(C(N)=O)n(C(=O)CP(=O)([O-])[O-])c2c1 (protonated)
Cc1ccc2cc(C(N)=O)n(C(=O)CP(=O)([O-])[O-])c2c1 (3D coordinates assigned)
Cc1ccc2cc(C(N)=O)n(C(=O)CP(=O)([O-])[O-])c2c1 (optimized conformer: 64.72543315273643 kcal/mol)

>  <smiles>  (4) 
Cc1ccc2cc(C(N)=O)n(C(=O)CP(=O)(O)O)c2c1

>  <score_type>  (4) 
oracle

>  <origin>  (4) 
adg

>  <m_score__min__energy>  (4) 
-11.81

>  <m_primary>  (4) 
energy

$$$$
5:0
     RDKit          3D

 57 58  0  0  0  0  0  0  0  0999 V2000
   -7.9000   17.6020  -32.2910 C   0  0  0  0  0  0  0  0  0  0  0  0
   -6.6340   18.3310  -32.3940 N   0  0  0  0  0  0  0  0  0  0  0  0
   -6.8340   19.7230  -32.0750 C   0  0  0  0  0  0  0  0  0  0  0  0
   -8.1120   20.3160  -32.2460 C   0  0  0  0  0  0  0  0  0  0  0  0
   -8.3060   21.6830  -31.9960 C   0  0  0  0  0  0  0  0  0  0  0  0
   -7.2100   22.4340  -31.5800 C   0  0  0  0  0  0  0  0  0  0  0  0
   -7.1060   23.7820  -31.3210 C   0  0  0  0  0  0  0  0  0  0  0  0
   -5.7710   23.9920  -30.9770 C   0  0  0  0  0  0  0  0  0  0  0  0
   -5.2370   25.3020  -30.5530 C   0  0  0  0  0  0  0  0  0  0  0  0
   -3.8880   25.6690  -30.8250 N   0  0  0  0  0  0  0  0  0  0  0  0
   -5.9670   26.0880  -29.8950 O   0  0  0  0  0  0  0  0  0  0  0  0
   -5.0760   22.8210  -31.0290 N   0  0  0  0  0  0  0  0  0  0  0  0
   -3.6650   22.6270  -30.8420 C   0  0  0  0  0  0  0  0  0  0  0  0
   -3.1070   23.0360  -29.7870 O   0  0  0  0  0  0  0  0  0  0  0  0
   -2.9200   21.9740  -31.8290 O   0  0  0  0  0  0  0  0  0  0  0  0
   -1.6120   21.4610  -31.5940 C   0  0  0  0  0  0  0  0  0  0  0  0
   -0.8630   21.4960  -32.8040 O   0  0  0  0  0  0  0  0  0  0  0  0
   -1.2330   20.7780  -33.9470 C   0  0  0  0  0  0  0  0  0  0  0  0
   -0.3890   20.5320  -34.8510 O   0  0  0  0  0  0  0  0  0  0  0  0
   -2.6520   20.3350  -34.1200 C   0  0  0  0  0  0  0  0  0  0  0  0
   -2.7870   18.9110  -33.7820 N   0  0  0  0  0  0  0  0  0  0  0  0
   -1.6660   18.2060  -33.1590 C   0  0  0  0  0  0  0  0  0  0  0  0
   -4.0380   18.2220  -33.9510 C   0  0  0  0  0  0  0  0  0  0  0  0
   -4.8190   18.5510  -34.8860 O   0  0  0  0  0  0  0  0  0  0  0  0
   -4.3790   17.1870  -33.0650 O   0  0  0  0  0  0  0  0  0  0  0  0
   -4.5650   15.8040  -33.4020 C   0  0  0  0  0  0  0  0  0  0  0  0
   -5.9070   15.6910  -34.1410 C   0  0  0  0  0  0  0  0  0  0  0  0
   -4.6250   14.9410  -32.1260 C   0  0  0  0  0  0  0  0  0  0  0  0
   -3.4400   15.3180  -34.3370 C   0  0  0  0  0  0  0  0  0  0  0  0
   -5.9710   21.8780  -31.3980 C   0  0  0  0  0  0  0  0  0  0  0  0
   -5.7440   20.5210  -31.6570 C   0  0  0  0  0  0  0  0  0  0  0  0
   -8.1538   17.4559  -31.2307 H   0  0  0  0  0  0  0  0  0  0  0  0
   -8.6968   18.1796  -32.7825 H   0  0  0  0  0  0  0  0  0  0  0  0
   -7.8004   16.6230  -32.7825 H   0  0  0  0  0  0  0  0  0  0  0  0
   -6.2580   18.2340  -33.3660 H   0  0  0  0  0  0  0  0  0  0  0  0
   -5.9380   17.9100  -31.7340 H   0  0  0  0  0  0  0  0  0  0  0  0
   -8.9591   19.6977  -32.5779 H   0  0  0  0  0  0  0  0  0  0  0  0
   -9.2947   22.1475  -32.1249 H   0  0  0  0  0  0  0  0  0  0  0  0
   -7.9067   24.5344  -31.3741 H   0  0  0  0  0  0  0  0  0  0  0  0
   -3.0910   25.1270  -30.4280 H   0  0  0  0  0  0  0  0  0  0  0  0
   -1.1084   22.0757  -30.8334 H   0  0  0  0  0  0  0  0  0  0  0  0
   -1.6843   20.4227  -31.2380 H   0  0  0  0  0  0  0  0  0  0  0  0
   -3.3004   20.9280  -33.4583 H   0  0  0  0  0  0  0  0  0  0  0  0
   -2.9476   20.4832  -35.1691 H   0  0  0  0  0  0  0  0  0  0  0  0
   -1.7589   18.2644  -32.0645 H   0  0  0  0  0  0  0  0  0  0  0  0
   -1.6764   17.1516  -33.4721 H   0  0  0  0  0  0  0  0  0  0  0  0
   -0.7201   18.6721  -33.4721 H   0  0  0  0  0  0  0  0  0  0  0  0
   -6.7245   15.6222  -33.4082 H   0  0  0  0  0  0  0  0  0  0  0  0
   -6.0541   16.5799  -34.7720 H   0  0  0  0  0  0  0  0  0  0  0  0
   -5.9034   14.7900  -34.7720 H   0  0  0  0  0  0  0  0  0  0  0  0
   -4.5797   15.5921  -31.2405 H   0  0  0  0  0  0  0  0  0  0  0  0
   -5.5650   14.3699  -32.1135 H   0  0  0  0  0  0  0  0  0  0  0  0
   -3.7731   14.2453  -32.1135 H   0  0  0  0  0  0  0  0  0  0  0  0
   -2.5949   14.9529  -33.7349 H   0  0  0  0  0  0  0  0  0  0  0  0
   -3.8173   14.5026  -34.9717 H   0  0  0  0  0  0  0  0  0  0  0  0
   -3.1050   16.1516  -34.9717 H   0  0  0  0  0  0  0  0  0  0  0  0
   -4.7409   20.0856  -31.5381 H   0  0  0  0  0  0  0  0  0  0  0  0
  1  2  1  0
  2  3  1  0
  3  4  2  0
  4  5  1  0
  5  6  2  0
  6  7  1  0
  7  8  2  0
  8  9  1  0
  9 10  1  0
  9 11  2  0
  8 12  1  0
 12 13  1  0
 13 14  2  0
 13 15  1  0
 15 16  1  0
 16 17  1  0
 17 18  1  0
 18 19  2  0
 18 20  1  0
 20 21  1  0
 21 22  1  0
 21 23  1  0
 23 24  2  0
 23 25  1  0
 25 26  1  0
 26 27  1  0
 26 28  1  0
 26 29  1  0
 12 30  1  0
 30 31  2  0
 31  3  1  0
 30  6  1  0
  1 32  1  0
  1 33  1  0
  1 34  1  0
  2 35  1  0
  2 36  1  0
  4 37  1  0
  5 38  1  0
  7 39  1  0
 10 40  1  0
 16 41  1  0
 16 42  1  0
 20 43  1  0
 20 44  1  0
 22 45  1  0
 22 46  1  0
 22 47  1  0
 27 48  1  0
 27 49  1  0
 27 50  1  0
 28 51  1  0
 28 52  1  0
 28 53  1  0
 29 54  1  0
 29 55  1  0
 29 56  1  0
 31 57  1  0
M  CHG  2   2   1  10  -1
M  END
>  <UniqueID>  (5) 
5

>  <SMILES>  (5) 
C[NH2+]c1ccc2cc(C([NH-])=O)n(C(=O)OCOC(=O)CN(C)C(=O)OC(C)(C)C)c2c1

>  <Energy>  (5) 
83.20167470346537

>  <Genealogy>  (5) 
C[NH2+]c1ccc2cc(C([NH-])=O)n(C(=O)OCOC(=O)CN(C)C(=O)OC(C)(C)C)c2c1 (protonated)
C[NH2+]c1ccc2cc(C([NH-])=O)n(C(=O)OCOC(=O)CN(C)C(=O)OC(C)(C)C)c2c1 (3D coordinates assigned)
C[NH2+]c1ccc2cc(C([NH-])=O)n(C(=O)OCOC(=O)CN(C)C(=O)OC(C)(C)C)c2c1 (optimized conformer: 83.20167470346537 kcal/mol)

>  <smiles>  (5) 
CNc1ccc2cc(C(N)=O)n(C(=O)OCOC(=O)CN(C)C(=O)OC(C)(C)C)c2c1

>  <score_type>  (5) 
oracle

>  <origin>  (5) 
adg

>  <m_score__min__energy>  (5) 
-10.27

>  <m_primary>  (5) 
energy

$$$$
6:0
     RDKit          3D

 47 49  0  0  0  0  0  0  0  0999 V2000
   -5.7550   18.1960  -34.5510 C   0  0  0  0  0  0  0  0  0  0  0  0
   -6.1680   18.3540  -33.1520 N   0  0  0  0  0  0  0  0  0  0  0  0
   -6.2850   17.1590  -32.3060 C   0  0  0  0  0  0  0  0  0  0  0  0
   -6.4460   19.6690  -32.6080 C   0  0  0  0  0  0  0  0  0  0  0  0
   -7.7860   20.1390  -32.4920 C   0  0  0  0  0  0  0  0  0  0  0  0
   -8.0650   21.4230  -31.9920 C   0  0  0  0  0  0  0  0  0  0  0  0
   -6.9940   22.2200  -31.6050 C   0  0  0  0  0  0  0  0  0  0  0  0
   -6.9730   23.5150  -31.1370 C   0  0  0  0  0  0  0  0  0  0  0  0
   -5.6250   23.8170  -30.9480 C   0  0  0  0  0  0  0  0  0  0  0  0
   -5.1390   25.1070  -30.4140 C   0  0  0  0  0  0  0  0  0  0  0  0
   -3.9000   25.6620  -30.8490 N   0  0  0  0  0  0  0  0  0  0  0  0
   -5.8120   25.7140  -29.5390 O   0  0  0  0  0  0  0  0  0  0  0  0
   -4.8500   22.7490  -31.2800 N   0  0  0  0  0  0  0  0  0  0  0  0
   -3.4200   22.6730  -31.3210 C   0  0  0  0  0  0  0  0  0  0  0  0
   -2.8490   22.1700  -32.3270 O   0  0  0  0  0  0  0  0  0  0  0  0
   -2.6680   23.2270  -30.2810 O   0  0  0  0  0  0  0  0  0  0  0  0
   -2.9040   22.9060  -28.9130 C   0  0  0  0  0  0  0  0  0  0  0  0
   -1.8950   23.4950  -28.0960 O   0  0  0  0  0  0  0  0  0  0  0  0
   -1.7300   24.8780  -27.9700 C   0  0  0  0  0  0  0  0  0  0  0  0
   -1.9530   25.6330  -28.9580 O   0  0  0  0  0  0  0  0  0  0  0  0
   -1.2710   25.4520  -26.6880 C   0  0  0  0  0  0  0  0  0  0  0  0
   -0.9100   26.8060  -26.6000 C   0  0  0  0  0  0  0  0  0  0  0  0
   -0.5050   27.3480  -25.3790 C   0  0  0  0  0  0  0  0  0  0  0  0
   -0.4630   26.5290  -24.2460 C   0  0  0  0  0  0  0  0  0  0  0  0
   -0.0600   27.0610  -22.9830 N   0  0  0  0  0  0  0  0  0  0  0  0
   -0.8140   25.2190  -24.3450 N   0  0  0  0  0  0  0  0  0  0  0  0
   -1.2130   24.6690  -25.5230 C   0  0  0  0  0  0  0  0  0  0  0  0
   -5.7010   21.7830  -31.6850 C   0  0  0  0  0  0  0  0  0  0  0  0
   -5.3890   20.5180  -32.1950 C   0  0  0  0  0  0  0  0  0  0  0  0
   -4.7282   17.8032  -34.5881 H   0  0  0  0  0  0  0  0  0  0  0  0
   -6.4345   17.4943  -35.0569 H   0  0  0  0  0  0  0  0  0  0  0  0
   -5.7927   19.1720  -35.0569 H   0  0  0  0  0  0  0  0  0  0  0  0
   -6.2560   17.4552  -31.2470 H   0  0  0  0  0  0  0  0  0  0  0  0
   -7.2372   16.6510  -32.5187 H   0  0  0  0  0  0  0  0  0  0  0  0
   -5.4494   16.4759  -32.5187 H   0  0  0  0  0  0  0  0  0  0  0  0
   -8.6164   19.4861  -32.7989 H   0  0  0  0  0  0  0  0  0  0  0  0
   -9.1001   21.7861  -31.9095 H   0  0  0  0  0  0  0  0  0  0  0  0
   -7.8360   24.1714  -30.9517 H   0  0  0  0  0  0  0  0  0  0  0  0
   -2.9910   25.2980  -30.4860 H   0  0  0  0  0  0  0  0  0  0  0  0
   -3.8889   23.2927  -28.6121 H   0  0  0  0  0  0  0  0  0  0  0  0
   -2.8798   21.8134  -28.7877 H   0  0  0  0  0  0  0  0  0  0  0  0
   -0.9465   27.4421  -27.4967 H   0  0  0  0  0  0  0  0  0  0  0  0
   -0.2217   28.4086  -25.3086 H   0  0  0  0  0  0  0  0  0  0  0  0
   -0.4550   27.9610  -22.6290 H   0  0  0  0  0  0  0  0  0  0  0  0
    0.6350   26.5510  -22.3950 H   0  0  0  0  0  0  0  0  0  0  0  0
   -1.4917   23.6057  -25.5639 H   0  0  0  0  0  0  0  0  0  0  0  0
   -4.3425   20.1885  -32.2740 H   0  0  0  0  0  0  0  0  0  0  0  0
  1  2  1  0
  2  3  1  0
  2  4  1  0
  4  5  2  0
  5  6  1  0
  6  7  2  0
  7  8  1  0
  8  9  2  0
  9 10  1  0
 10 11  1  0
 10 12  2  0
  9 13  1  0
 13 14  1  0
 14 15  2  0
 14 16  1  0
 16 17  1  0
 17 18  1  0
 18 19  1  0
 19 20  2  0
 19 21  1  0
 21 22  2  0
 22 23  1  0
 23 24  2  0
 24 25  1  0
 24 26  1  0
 26 27  2  0
 13 28  1  0
 28 29  2  0
 29  4  1  0
 28  7  1  0
 27 21  1  0
  1 30  1  0
  1 31  1  0
  1 32  1  0
  3 33  1  0
  3 34  1  0
  3 35  1  0
  5 36  1  0
  6 37  1  0
  8 38  1  0
 11 39  1  0
 17 40  1  0
 17 41  1  0
 22 42  1  0
 23 43  1  0
 25 44  1  0
 25 45  1  0
 27 46  1  0
 29 47  1  0
M  CHG  1  11  -1
M  END
>  <UniqueID>  (6) 
6

>  <SMILES>  (6) 
CN(C)c1ccc2cc(C([NH-])=O)n(C(=O)OCOC(=O)c3ccc(N)nc3)c2c1

>  <Energy>  (6) 
84.62811224466557

>  <Genealogy>  (6) 
CN(C)c1ccc2cc(C([NH-])=O)n(C(=O)OCOC(=O)c3ccc(N)nc3)c2c1 (protonated)
CN(C)c1ccc2cc(C([NH-])=O)n(C(=O)OCOC(=O)c3ccc(N)nc3)c2c1 (3D coordinates assigned)
CN(C)c1ccc2cc(C([NH-])=O)n(C(=O)OCOC(=O)c3ccc(N)nc3)c2c1 (optimized conformer: 84.62811224466557 kcal/mol)

>  <smiles>  (6) 
CN(C)c1ccc2cc(C(N)=O)n(C(=O)OCOC(=O)c3ccc(N)nc3)c2c1

>  <score_type>  (6) 
oracle

>  <origin>  (6) 
adg

>  <m_score__min__energy>  (6) 
-11.52

>  <m_primary>  (6) 
energy

$$$$
7:0
     RDKit          3D

 35 36  0  0  0  0  0  0  0  0999 V2000
   -4.2030   25.5950  -30.6980 N   0  0  0  0  0  0  0  0  0  0  0  0
   -5.5640   25.2150  -30.4920 C   0  0  0  0  0  0  0  0  0  0  0  0
   -6.3510   26.0300  -29.9410 O   0  0  0  0  0  0  0  0  0  0  0  0
   -6.0470   23.8730  -30.8950 C   0  0  0  0  0  0  0  0  0  0  0  0
   -7.3630   23.5920  -31.2570 C   0  0  0  0  0  0  0  0  0  0  0  0
   -7.3660   22.2680  -31.6260 C   0  0  0  0  0  0  0  0  0  0  0  0
   -8.4120   21.4660  -32.0750 C   0  0  0  0  0  0  0  0  0  0  0  0
   -8.1320   20.1230  -32.3720 C   0  0  0  0  0  0  0  0  0  0  0  0
   -6.8270   19.6020  -32.1940 C   0  0  0  0  0  0  0  0  0  0  0  0
   -6.5290   18.1680  -32.5480 C   0  0  0  0  0  0  0  0  0  0  0  0
   -6.0770   18.0420  -34.0030 C   0  0  0  0  0  0  0  0  0  0  0  0
   -6.0770   19.3000  -34.6180 O   0  0  0  0  0  0  0  0  0  0  0  0
   -5.7900   20.4450  -31.7380 C   0  0  0  0  0  0  0  0  0  0  0  0
   -6.0900   21.7880  -31.4810 C   0  0  0  0  0  0  0  0  0  0  0  0
   -5.2630   22.7670  -31.0490 N   0  0  0  0  0  0  0  0  0  0  0  0
   -3.8650   22.6400  -30.7240 C   0  0  0  0  0  0  0  0  0  0  0  0
   -3.0030   22.8530  -31.6190 O   0  0  0  0  0  0  0  0  0  0  0  0
   -3.3930   22.3580  -29.3510 C   0  0  0  0  0  0  0  0  0  0  0  0
   -2.3890   22.9850  -28.7170 C   0  0  0  0  0  0  0  0  0  0  0  0
   -1.7020   24.2020  -29.1800 C   0  0  0  0  0  0  0  0  0  0  0  0
   -2.3290   25.2800  -29.3570 O   0  0  0  0  0  0  0  0  0  0  0  0
   -0.3240   24.1840  -29.3420 O   0  0  0  0  0  0  0  0  0  0  0  0
   -3.5350   24.9760  -31.2070 H   0  0  0  0  0  0  0  0  0  0  0  0
   -3.8670   26.5290  -30.3750 H   0  0  0  0  0  0  0  0  0  0  0  0
   -8.2184   24.2835  -31.2491 H   0  0  0  0  0  0  0  0  0  0  0  0
   -9.4272   21.8727  -32.1934 H   0  0  0  0  0  0  0  0  0  0  0  0
   -8.9334   19.4692  -32.7464 H   0  0  0  0  0  0  0  0  0  0  0  0
   -5.7305   17.7942  -31.8902 H   0  0  0  0  0  0  0  0  0  0  0  0
   -7.4476   17.5776  -32.4155 H   0  0  0  0  0  0  0  0  0  0  0  0
   -5.0606   17.6224  -34.0331 H   0  0  0  0  0  0  0  0  0  0  0  0
   -6.7718   17.3792  -34.5395 H   0  0  0  0  0  0  0  0  0  0  0  0
   -6.8760   19.3180  -35.2070 H   0  0  0  0  0  0  0  0  0  0  0  0
   -4.7719   20.0561  -31.5885 H   0  0  0  0  0  0  0  0  0  0  0  0
   -3.9123   21.5612  -28.7983 H   0  0  0  0  0  0  0  0  0  0  0  0
   -2.0491   22.5499  -27.7656 H   0  0  0  0  0  0  0  0  0  0  0  0
  1  2  1  0
  2  3  2  0
  2  4  1  0
  4  5  2  0
  5  6  1  0
  6  7  2  0
  7  8  1  0
  8  9  2  0
  9 10  1  0
 10 11  1  0
 11 12  1  0
  9 13  1  0
 13 14  2  0
 14 15  1  0
 15 16  1  0
 16 17  2  0
 16 18  1  0
 18 19  2  3
 19 20  1  0
 20 21  2  0
 20 22  1  0
 15  4  1  0
 14  6  1  0
  1 23  1  0
  1 24  1  0
  5 25  1  0
  7 26  1  0
  8 27  1  0
 10 28  1  0
 10 29  1  0
 11 30  1  0
 11 31  1  0
 12 32  1  0
 13 33  1  0
 18 34  1  0
 19 35  1  0
M  CHG  1  22  -1
M  END
>  <UniqueID>  (7) 
7

>  <SMILES>  (7) 
NC(=O)c1cc2ccc(CCO)cc2n1C(=O)C=CC(=O)[O-]

>  <Energy>  (7) 
76.01419502761958

>  <Genealogy>  (7) 
NC(=O)c1cc2ccc(CCO)cc2n1C(=O)C=CC(=O)[O-] (protonated)
NC(=O)c1cc2ccc(CCO)cc2n1C(=O)C=CC(=O)[O-] (3D coordinates assigned)
NC(=O)c1cc2ccc(CCO)cc2n1C(=O)C=CC(=O)[O-] (optimized conformer: 76.01419502761958 kcal/mol)

>  <smiles>  (7) 
NC(=O)c1cc2ccc(CCO)cc2n1C(=O)C=CC(=O)O

>  <score_type>  (7) 
oracle

>  <origin>  (7) 
adg

>  <m_score__min__energy>  (7) 
-10.76

>  <m_primary>  (7) 
energy

$$$$
8:0
     RDKit          3D

 42 43  0  0  0  0  0  0  0  0999 V2000
   -0.6610   27.2020  -27.1630 C   0  0  0  0  0  0  0  0  0  0  0  0
   -1.3500   25.9200  -26.9800 N   0  0  0  0  0  0  0  0  0  0  0  0
   -1.6170   25.4150  -25.6290 C   0  0  0  0  0  0  0  0  0  0  0  0
   -1.7600   25.1740  -28.1470 C   0  0  0  0  0  0  0  0  0  0  0  0
   -1.5410   25.6400  -29.2980 O   0  0  0  0  0  0  0  0  0  0  0  0
   -2.4250   23.8270  -28.0370 C   0  0  0  0  0  0  0  0  0  0  0  0
   -2.1600   23.0470  -29.1880 O   0  0  0  0  0  0  0  0  0  0  0  0
   -2.6040   21.7180  -29.0040 C   0  0  0  0  0  0  0  0  0  0  0  0
   -3.6490   21.4250  -29.9280 O   0  0  0  0  0  0  0  0  0  0  0  0
   -4.0400   22.3140  -30.9330 C   0  0  0  0  0  0  0  0  0  0  0  0
   -3.1910   22.7680  -31.7460 O   0  0  0  0  0  0  0  0  0  0  0  0
   -5.4220   22.6890  -31.0520 N   0  0  0  0  0  0  0  0  0  0  0  0
   -5.9660   23.9350  -30.9290 C   0  0  0  0  0  0  0  0  0  0  0  0
   -5.2520   25.1580  -30.5090 C   0  0  0  0  0  0  0  0  0  0  0  0
   -3.8610   25.2990  -30.7910 N   0  0  0  0  0  0  0  0  0  0  0  0
   -5.8630   26.0980  -29.9350 O   0  0  0  0  0  0  0  0  0  0  0  0
   -7.3380   23.8940  -31.1730 C   0  0  0  0  0  0  0  0  0  0  0  0
   -7.6220   22.5750  -31.4420 C   0  0  0  0  0  0  0  0  0  0  0  0
   -8.8340   21.9650  -31.7470 C   0  0  0  0  0  0  0  0  0  0  0  0
   -8.8340   20.5830  -31.9930 C   0  0  0  0  0  0  0  0  0  0  0  0
   -7.6250   19.8400  -31.9580 C   0  0  0  0  0  0  0  0  0  0  0  0
   -7.6440   18.3500  -32.1840 C   0  0  0  0  0  0  0  0  0  0  0  0
   -8.9260   17.8740  -31.9770 F   0  0  0  0  0  0  0  0  0  0  0  0
   -6.7810   17.7120  -31.3100 F   0  0  0  0  0  0  0  0  0  0  0  0
   -7.2530   18.0450  -33.4770 F   0  0  0  0  0  0  0  0  0  0  0  0
   -6.4160   20.4930  -31.6230 C   0  0  0  0  0  0  0  0  0  0  0  0
   -6.4500   21.8680  -31.3630 C   0  0  0  0  0  0  0  0  0  0  0  0
   -0.4275   27.6364  -26.1798 H   0  0  0  0  0  0  0  0  0  0  0  0
    0.2717   27.0403  -27.7232 H   0  0  0  0  0  0  0  0  0  0  0  0
   -1.3105   27.8907  -27.7232 H   0  0  0  0  0  0  0  0  0  0  0  0
   -1.2373   26.1332  -24.8874 H   0  0  0  0  0  0  0  0  0  0  0  0
   -2.7010   25.2863  -25.4932 H   0  0  0  0  0  0  0  0  0  0  0  0
   -1.1130   24.4467  -25.4932 H   0  0  0  0  0  0  0  0  0  0  0  0
   -2.0394   23.3045  -27.1492 H   0  0  0  0  0  0  0  0  0  0  0  0
   -3.5117   23.9732  -27.9492 H   0  0  0  0  0  0  0  0  0  0  0  0
   -1.7649   21.0264  -29.1705 H   0  0  0  0  0  0  0  0  0  0  0  0
   -2.9833   21.6009  -27.9781 H   0  0  0  0  0  0  0  0  0  0  0  0
   -3.1660   24.6150  -30.4180 H   0  0  0  0  0  0  0  0  0  0  0  0
   -8.0438   24.7375  -31.1544 H   0  0  0  0  0  0  0  0  0  0  0  0
   -9.7654   22.5484  -31.7941 H   0  0  0  0  0  0  0  0  0  0  0  0
   -9.7814   20.0701  -32.2154 H   0  0  0  0  0  0  0  0  0  0  0  0
   -5.4707   19.9332  -31.5680 H   0  0  0  0  0  0  0  0  0  0  0  0
  1  2  1  0
  2  3  1  0
  2  4  1  0
  4  5  2  0
  4  6  1  0
  6  7  1  0
  7  8  1  0
  8  9  1  0
  9 10  1  0
 10 11  2  0
 10 12  1  0
 12 13  1  0
 13 14  1  0
 14 15  1  0
 14 16  2  0
 13 17  2  0
 17 18  1  0
 18 19  2  0
 19 20  1  0
 20 21  2  0
 21 22  1  0
 22 23  1  0
 22 24  1  0
 22 25  1  0
 21 26  1  0
 26 27  2  0
 27 12  1  0
 27 18  1  0
  1 28  1  0
  1 29  1  0
  1 30  1  0
  3 31  1  0
  3 32  1  0
  3 33  1  0
  6 34  1  0
  6 35  1  0
  8 36  1  0
  8 37  1  0
 15 38  1  0
 17 39  1  0
 19 40  1  0
 20 41  1  0
 26 42  1  0
M  CHG  1  15  -1
M  END
>  <UniqueID>  (8) 
8

>  <SMILES>  (8) 
CN(C)C(=O)COCOC(=O)n1c(C([NH-])=O)cc2ccc(C(F)(F)F)cc21

>  <Energy>  (8) 
79.12236187167855

>  <Genealogy>  (8) 
CN(C)C(=O)COCOC(=O)n1c(C([NH-])=O)cc2ccc(C(F)(F)F)cc21 (protonated)
CN(C)C(=O)COCOC(=O)n1c(C([NH-])=O)cc2ccc(C(F)(F)F)cc21 (3D coordinates assigned)
CN(C)C(=O)COCOC(=O)n1c(C([NH-])=O)cc2ccc(C(F)(F)F)cc21 (optimized conformer: 79.12236187167855 kcal/mol)

>  <smiles>  (8) 
CN(C)C(=O)COCOC(=O)n1c(C(N)=O)cc2ccc(C(F)(F)F)cc21

>  <score_type>  (8) 
oracle

>  <origin>  (8) 
adg

>  <m_score__min__energy>  (8) 
-10.119999999999999

>  <m_primary>  (8) 
energy

$$$$
9:0
     RDKit          3D

 36 37  0  0  0  0  0  0  0  0999 V2000
   -6.5200   17.4990  -32.2040 C   0  0  0  0  0  0  0  0  0  0  0  0
   -7.2470   18.5370  -32.9270 N   0  0  0  0  0  0  0  0  0  0  0  0
   -7.3620   19.8960  -32.4660 C   0  0  0  0  0  0  0  0  0  0  0  0
   -8.6430   20.5010  -32.4200 C   0  0  0  0  0  0  0  0  0  0  0  0
   -8.8010   21.8210  -31.9670 C   0  0  0  0  0  0  0  0  0  0  0  0
   -7.6620   22.5150  -31.5720 C   0  0  0  0  0  0  0  0  0  0  0  0
   -7.5300   23.7920  -31.0750 C   0  0  0  0  0  0  0  0  0  0  0  0
   -6.1650   23.9580  -30.8430 C   0  0  0  0  0  0  0  0  0  0  0  0
   -5.5660   25.2280  -30.3840 C   0  0  0  0  0  0  0  0  0  0  0  0
   -4.2780   25.6360  -30.8390 N   0  0  0  0  0  0  0  0  0  0  0  0
   -6.2170   25.9840  -29.6150 O   0  0  0  0  0  0  0  0  0  0  0  0
   -5.4840   22.8260  -31.1740 N   0  0  0  0  0  0  0  0  0  0  0  0
   -4.0830   22.5540  -31.0050 C   0  0  0  0  0  0  0  0  0  0  0  0
   -3.5570   21.5890  -31.6240 O   0  0  0  0  0  0  0  0  0  0  0  0
   -3.2990   23.3460  -30.1010 N   0  0  0  0  0  0  0  0  0  0  0  0
   -1.8850   23.0590  -29.8400 C   0  0  2  0  0  0  0  0  0  0  0  0
   -1.7430   21.9210  -28.8250 C   0  0  0  0  0  0  0  0  0  0  0  0
   -1.1900   24.2920  -29.3380 C   0  0  0  0  0  0  0  0  0  0  0  0
   -1.7950   25.3970  -29.3040 O   0  0  0  0  0  0  0  0  0  0  0  0
    0.1260   24.2180  -28.9000 O   0  0  0  0  0  0  0  0  0  0  0  0
   -6.4130   21.9540  -31.6230 C   0  0  0  0  0  0  0  0  0  0  0  0
   -6.2270   20.6370  -32.0550 C   0  0  0  0  0  0  0  0  0  0  0  0
   -6.6321   17.6591  -31.1215 H   0  0  0  0  0  0  0  0  0  0  0  0
   -6.9255   16.5124  -32.4727 H   0  0  0  0  0  0  0  0  0  0  0  0
   -5.4542   17.5429  -32.4727 H   0  0  0  0  0  0  0  0  0  0  0  0
   -7.7040   18.2700  -33.8290 H   0  0  0  0  0  0  0  0  0  0  0  0
   -9.5252   19.9290  -32.7434 H   0  0  0  0  0  0  0  0  0  0  0  0
   -9.7945   22.2914  -31.9258 H   0  0  0  0  0  0  0  0  0  0  0  0
   -8.3307   24.5253  -30.8985 H   0  0  0  0  0  0  0  0  0  0  0  0
   -3.4660   25.6800  -30.1840 H   0  0  0  0  0  0  0  0  0  0  0  0
   -3.7810   24.1040  -29.5660 H   0  0  0  0  0  0  0  0  0  0  0  0
   -1.4143   22.7439  -30.7829 H   0  0  0  0  0  0  0  0  0  0  0  0
   -1.7941   22.3306  -27.8054 H   0  0  0  0  0  0  0  0  0  0  0  0
   -2.5577   21.1963  -28.9703 H   0  0  0  0  0  0  0  0  0  0  0  0
   -0.7752   21.4187  -28.9703 H   0  0  0  0  0  0  0  0  0  0  0  0
   -5.2233   20.1873  -32.0751 H   0  0  0  0  0  0  0  0  0  0  0  0
  1  2  1  0
  2  3  1  0
  3  4  2  0
  4  5  1  0
  5  6  2  0
  6  7  1  0
  7  8  2  0
  8  9  1  0
  9 10  1  0
  9 11  2  0
  8 12  1  0
 12 13  1  0
 13 14  2  0
 13 15  1  0
 15 16  1  0
 16 17  1  0
 16 18  1  0
 18 19  2  0
 18 20  1  0
 12 21  1  0
 21 22  2  0
 22  3  1  0
 21  6  1  0
  1 23  1  0
  1 24  1  0
  1 25  1  0
  2 26  1  0
  4 27  1  0
  5 28  1  0
  7 29  1  0
 10 30  1  0
 15 31  1  0
 16 32  1  6
 17 33  1  0
 17 34  1  0
 17 35  1  0
 22 36  1  0
M  CHG  2  10  -1  20  -1
M  END
>  <UniqueID>  (9) 
9

>  <SMILES>  (9) 
CNc1ccc2cc(C([NH-])=O)n(C(=O)N[C@H](C)C(=O)[O-])c2c1

>  <Energy>  (9) 
69.83460538716804

>  <Genealogy>  (9) 
CNc1ccc2cc(C([NH-])=O)n(C(=O)NC(C)C(=O)[O-])c2c1 (protonated)
CNc1ccc2cc(C([NH-])=O)n(C(=O)N[C@H](C)C(=O)[O-])c2c1 (chirality)
CNc1ccc2cc(C([NH-])=O)n(C(=O)N[C@H](C)C(=O)[O-])c2c1 (3D coordinates assigned)
CNc1ccc2cc(C([NH-])=O)n(C(=O)N[C@H](C)C(=O)[O-])c2c1 (optimized conformer: 69.83460538716804 kcal/mol)

>  <smiles>  (9) 
CNc1ccc2cc(C(N)=O)n(C(=O)NC(C)C(=O)O)c2c1

>  <score_type>  (9) 
oracle

>  <origin>  (9) 
adg

>  <m_score__min__energy>  (9) 
-11.94

>  <m_primary>  (9) 
energy

$$$$
10:0
     RDKit          3D

 45 46  0  0  0  0  0  0  0  0999 V2000
   -5.0300   24.5760  -29.1990 N   0  0  0  0  0  0  0  0  0  0  0  0
   -6.2820   24.3940  -29.8590 C   0  0  0  0  0  0  0  0  0  0  0  0
   -7.1260   25.3280  -29.8590 O   0  0  0  0  0  0  0  0  0  0  0  0
   -6.5630   23.1620  -30.6150 C   0  0  0  0  0  0  0  0  0  0  0  0
   -7.8480   22.6630  -30.7970 C   0  0  0  0  0  0  0  0  0  0  0  0
   -7.6860   21.5060  -31.5210 C   0  0  0  0  0  0  0  0  0  0  0  0
   -8.6400   20.6060  -31.9850 C   0  0  0  0  0  0  0  0  0  0  0  0
   -8.1960   19.4930  -32.7150 C   0  0  0  0  0  0  0  0  0  0  0  0
   -6.8160   19.3110  -32.9920 C   0  0  0  0  0  0  0  0  0  0  0  0
   -6.3480   18.0930  -33.7480 C   0  0  0  0  0  0  0  0  0  0  0  0
   -6.1220   18.4030  -35.0790 F   0  0  0  0  0  0  0  0  0  0  0  0
   -7.2970   17.0870  -33.6940 F   0  0  0  0  0  0  0  0  0  0  0  0
   -5.1710   17.6330  -33.1880 F   0  0  0  0  0  0  0  0  0  0  0  0
   -5.8750   20.2350  -32.4810 C   0  0  0  0  0  0  0  0  0  0  0  0
   -6.3430   21.3300  -31.7410 C   0  0  0  0  0  0  0  0  0  0  0  0
   -5.6330   22.3360  -31.1770 N   0  0  0  0  0  0  0  0  0  0  0  0
   -4.1990   22.4200  -31.0490 C   0  0  0  0  0  0  0  0  0  0  0  0
   -3.5140   22.9910  -31.9390 O   0  0  0  0  0  0  0  0  0  0  0  0
   -3.5650   21.8930  -29.9200 O   0  0  0  0  0  0  0  0  0  0  0  0
   -3.0080   20.5840  -29.8840 C   0  0  0  0  0  0  0  0  0  0  0  0
   -2.0380   20.5050  -28.8430 O   0  0  0  0  0  0  0  0  0  0  0  0
   -2.2540   21.0440  -27.5730 C   0  0  0  0  0  0  0  0  0  0  0  0
   -2.3350   20.2940  -26.5620 O   0  0  0  0  0  0  0  0  0  0  0  0
   -2.3880   22.5270  -27.4060 C   0  0  0  0  0  0  0  0  0  0  0  0
   -1.0310   23.2490  -27.5060 C   0  0  0  0  0  0  0  0  0  0  0  0
   -0.8090   23.9580  -28.8580 C   0  0  1  0  0  0  0  0  0  0  0  0
   -1.2220   23.0730  -29.9490 N   0  0  0  0  0  0  0  0  0  0  0  0
   -1.5480   25.2670  -28.9420 C   0  0  0  0  0  0  0  0  0  0  0  0
   -2.7420   25.2900  -29.3450 O   0  0  0  0  0  0  0  0  0  0  0  0
   -0.9410   26.4470  -28.5300 O   0  0  0  0  0  0  0  0  0  0  0  0
   -4.8450   25.4440  -28.6490 H   0  0  0  0  0  0  0  0  0  0  0  0
   -4.2650   23.8710  -29.3020 H   0  0  0  0  0  0  0  0  0  0  0  0
   -8.7916   23.1003  -30.4385 H   0  0  0  0  0  0  0  0  0  0  0  0
   -9.7104   20.7623  -31.7856 H   0  0  0  0  0  0  0  0  0  0  0  0
   -8.9255   18.7534  -33.0766 H   0  0  0  0  0  0  0  0  0  0  0  0
   -4.7985   20.0974  -32.6604 H   0  0  0  0  0  0  0  0  0  0  0  0
   -3.8068   19.8514  -29.6963 H   0  0  0  0  0  0  0  0  0  0  0  0
   -2.5268   20.3654  -30.8487 H   0  0  0  0  0  0  0  0  0  0  0  0
   -3.0535   22.9133  -28.1921 H   0  0  0  0  0  0  0  0  0  0  0  0
   -2.7990   22.7181  -26.4037 H   0  0  0  0  0  0  0  0  0  0  0  0
   -0.9772   24.0014  -26.7054 H   0  0  0  0  0  0  0  0  0  0  0  0
   -0.2486   22.4817  -27.4109 H   0  0  0  0  0  0  0  0  0  0  0  0
    0.2636   24.1856  -28.9463 H   0  0  0  0  0  0  0  0  0  0  0  0
   -2.1070   23.4440  -30.3660 H   0  0  0  0  0  0  0  0  0  0  0  0
   -1.4300   22.1210  -29.5680 H   0  0  0  0  0  0  0  0  0  0  0  0
  1  2  1  0
  2  3  2  0
  2  4  1  0
  4  5  2  0
  5  6  1  0
  6  7  2  0
  7  8  1  0
  8  9  2  0
  9 10  1  0
 10 11  1  0
 10 12  1  0
 10 13  1  0
  9 14  1  0
 14 15  2  0
 15 16  1  0
 16 17  1  0
 17 18  2  0
 17 19  1  0
 19 20  1  0
 20 21  1  0
 21 22  1  0
 22 23  2  0
 22 24  1  0
 24 25  1  0
 25 26  1  0
 26 27  1  0
 26 28  1  0
 28 29  2  0
 28 30  1  0
 16  4  1  0
 15  6  1  0
  1 31  1  0
  1 32  1  0
  5 33  1  0
  7 34  1  0
  8 35  1  0
 14 36  1  0
 20 37  1  0
 20 38  1  0
 24 39  1  0
 24 40  1  0
 25 41  1  0
 25 42  1  0
 26 43  1  6
 27 44  1  0
 27 45  1  0
M  CHG  1  30  -1
M  END
>  <UniqueID>  (10) 
10

>  <SMILES>  (10) 
NC(=O)c1cc2ccc(C(F)(F)F)cc2n1C(=O)OCOC(=O)CC[C@@H](N)C(=O)[O-]

>  <Energy>  (10) 
79.90222173508269

>  <Genealogy>  (10) 
NC(=O)c1cc2ccc(C(F)(F)F)cc2n1C(=O)OCOC(=O)CC[C@@H](N)C(=O)[O-] (protonated)
NC(=O)c1cc2ccc(C(F)(F)F)cc2n1C(=O)OCOC(=O)CC[C@@H](N)C(=O)[O-] (3D coordinates assigned)
NC(=O)c1cc2ccc(C(F)(F)F)cc2n1C(=O)OCOC(=O)CC[C@@H](N)C(=O)[O-] (optimized conformer: 79.90222173508269 kcal/mol)

>  <smiles>  (10) 
NC(=O)c1cc2ccc(C(F)(F)F)cc2n1C(=O)OCOC(=O)CC[C@@H](N)C(=O)O

>  <score_type>  (10) 
oracle

>  <origin>  (10) 
adg

>  <m_score__min__energy>  (10) 
-9.2200000000000006

>  <m_primary>  (10) 
energy

$$$$
11:0
     RDKit          3D

 43 44  0  0  0  0  0  0  0  0999 V2000
   -4.0120   25.5370  -30.7720 N   0  0  0  0  0  0  0  0  0  0  0  0
   -5.2560   25.0970  -30.2340 C   0  0  0  0  0  0  0  0  0  0  0  0
   -5.8100   25.7720  -29.3270 O   0  0  0  0  0  0  0  0  0  0  0  0
   -5.9010   23.8810  -30.7720 C   0  0  0  0  0  0  0  0  0  0  0  0
   -7.2290   23.8390  -31.1970 C   0  0  0  0  0  0  0  0  0  0  0  0
   -7.4610   22.5260  -31.5380 C   0  0  0  0  0  0  0  0  0  0  0  0
   -8.6140   21.9190  -32.0290 C   0  0  0  0  0  0  0  0  0  0  0  0
   -8.5620   20.5450  -32.3150 C   0  0  0  0  0  0  0  0  0  0  0  0
   -7.3660   19.8110  -32.1210 C   0  0  0  0  0  0  0  0  0  0  0  0
   -7.3410   18.3330  -32.3990 C   0  0  0  0  0  0  0  0  0  0  0  0
   -6.0120   17.9120  -32.8680 N   0  0  0  0  0  0  0  0  0  0  0  0
   -5.7300   18.3430  -34.2510 C   0  0  0  0  0  0  0  0  0  0  0  0
   -4.6990   17.4260  -34.9170 C   0  0  0  0  0  0  0  0  0  0  0  0
   -4.7630   15.7290  -34.2520 P   0  0  0  0  0  0  0  0  0  0  0  0
   -4.1720   15.6980  -32.8610 O   0  0  0  0  0  0  0  0  0  0  0  0
   -6.3670   15.1970  -34.1970 O   0  0  0  0  0  0  0  0  0  0  0  0
   -3.8690   14.7060  -35.2580 O   0  0  0  0  0  0  0  0  0  0  0  0
   -6.2160   20.4610  -31.6200 C   0  0  0  0  0  0  0  0  0  0  0  0
   -6.3020   21.8260  -31.3240 C   0  0  0  0  0  0  0  0  0  0  0  0
   -5.3360   22.6440  -30.8520 N   0  0  0  0  0  0  0  0  0  0  0  0
   -3.9730   22.2810  -30.5770 C   0  0  0  0  0  0  0  0  0  0  0  0
   -3.7030   21.1150  -30.1790 O   0  0  0  0  0  0  0  0  0  0  0  0
   -2.9530   23.2190  -30.7710 O   0  0  0  0  0  0  0  0  0  0  0  0
   -1.7280   23.2080  -30.0420 C   0  0  0  0  0  0  0  0  0  0  0  0
   -1.7630   24.4700  -28.7310 P   0  0  1  0  0  0  0  0  0  0  0  0
   -0.8500   24.0460  -27.6030 O   0  0  0  0  0  0  0  0  0  0  0  0
   -1.2380   25.9560  -29.3430 O   0  0  0  0  0  0  0  0  0  0  0  0
   -3.3430   24.6340  -28.1460 O   0  0  0  0  0  0  0  0  0  0  0  0
   -3.1110   25.3090  -30.2960 H   0  0  0  0  0  0  0  0  0  0  0  0
   -7.9396   24.6771  -31.2486 H   0  0  0  0  0  0  0  0  0  0  0  0
   -9.5362   22.4972  -32.1878 H   0  0  0  0  0  0  0  0  0  0  0  0
   -9.4592   20.0335  -32.6936 H   0  0  0  0  0  0  0  0  0  0  0  0
   -7.5868   17.7882  -31.4756 H   0  0  0  0  0  0  0  0  0  0  0  0
   -8.0789   18.1093  -33.1836 H   0  0  0  0  0  0  0  0  0  0  0  0
   -5.9970   16.8650  -32.8490 H   0  0  0  0  0  0  0  0  0  0  0  0
   -6.6632   18.3160  -34.8327 H   0  0  0  0  0  0  0  0  0  0  0  0
   -5.3212   19.3638  -34.2215 H   0  0  0  0  0  0  0  0  0  0  0  0
   -4.9001   17.3916  -35.9979 H   0  0  0  0  0  0  0  0  0  0  0  0
   -3.6984   17.8340  -34.7111 H   0  0  0  0  0  0  0  0  0  0  0  0
   -5.2773   19.9084  -31.4666 H   0  0  0  0  0  0  0  0  0  0  0  0
   -1.5848   22.2165  -29.5877 H   0  0  0  0  0  0  0  0  0  0  0  0
   -0.8994   23.4298  -30.7306 H   0  0  0  0  0  0  0  0  0  0  0  0
   -3.7630   25.3110  -28.7350 H   0  0  0  0  0  0  0  0  0  0  0  0
  1  2  1  0
  2  3  2  0
  2  4  1  0
  4  5  2  0
  5  6  1  0
  6  7  2  0
  7  8  1  0
  8  9  2  0
  9 10  1  0
 10 11  1  0
 11 12  1  0
 12 13  1  0
 13 14  1  0
 14 15  2  0
 14 16  1  0
 14 17  1  0
  9 18  1  0
 18 19  2  0
 19 20  1  0
 20 21  1  0
 21 22  2  0
 21 23  1  0
 23 24  1  0
 24 25  1  0
 25 26  2  0
 25 27  1  6
 25 28  1  0
 20  4  1  0
 19  6  1  0
  1 29  1  0
  5 30  1  0
  7 31  1  0
  8 32  1  0
 10 33  1  0
 10 34  1  0
 11 35  1  0
 12 36  1  0
 12 37  1  0
 13 38  1  0
 13 39  1  0
 18 40  1  0
 24 41  1  0
 24 42  1  0
 28 43  1  0
M  CHG  4   1  -1  16  -1  17  -1  27  -1
M  END
>  <UniqueID>  (11) 
11

>  <SMILES>  (11) 
[NH-]C(=O)c1cc2ccc(CNCCP(=O)([O-])[O-])cc2n1C(=O)OC[P@@](=O)([O-])O

>  <Energy>  (11) 
69.42856957337975

>  <Genealogy>  (11) 
[NH-]C(=O)c1cc2ccc(CNCCP(=O)([O-])[O-])cc2n1C(=O)OCP(=O)([O-])O (protonated)
[NH-]C(=O)c1cc2ccc(CNCCP(=O)([O-])[O-])cc2n1C(=O)OC[P@@](=O)([O-])O (chirality)
[NH-]C(=O)c1cc2ccc(CNCCP(=O)([O-])[O-])cc2n1C(=O)OC[P@@](=O)([O-])O (3D coordinates assigned)
[NH-]C(=O)c1cc2ccc(CNCCP(=O)([O-])[O-])cc2n1C(=O)OC[P@@](=O)([O-])O (optimized conformer: 69.42856957337975 kcal/mol)

>  <smiles>  (11) 
NC(=O)c1cc2ccc(CNCCP(=O)(O)O)cc2n1C(=O)OCP(=O)(O)O

>  <score_type>  (11) 
oracle

>  <origin>  (11) 
adg

>  <m_score__min__energy>  (11) 
-12.02

>  <m_primary>  (11) 
energy

$$$$
12:0
     RDKit          3D

 39 40  0  0  0  0  0  0  0  0999 V2000
   -3.9040   25.6200  -30.8470 N   0  0  0  0  0  0  0  0  0  0  0  0
   -5.1150   25.0650  -30.3410 C   0  0  0  0  0  0  0  0  0  0  0  0
   -5.7270   25.6580  -29.4130 O   0  0  0  0  0  0  0  0  0  0  0  0
   -5.6900   23.8370  -30.9290 C   0  0  0  0  0  0  0  0  0  0  0  0
   -7.0590   23.5870  -30.9980 C   0  0  0  0  0  0  0  0  0  0  0  0
   -7.1800   22.4030  -31.6870 C   0  0  0  0  0  0  0  0  0  0  0  0
   -8.3180   21.6840  -32.0370 C   0  0  0  0  0  0  0  0  0  0  0  0
   -8.1450   20.4730  -32.7280 C   0  0  0  0  0  0  0  0  0  0  0  0
   -6.8460   19.9980  -33.0460 C   0  0  0  0  0  0  0  0  0  0  0  0
   -6.6840   18.7530  -33.7590 N   0  0  0  0  0  0  0  0  0  0  0  0
   -7.1910   17.6130  -32.9770 C   0  0  0  0  0  0  0  0  0  0  0  0
   -6.5080   16.2920  -33.3640 C   0  0  0  0  0  0  0  0  0  0  0  0
   -5.6650   16.4900  -34.4660 O   0  0  0  0  0  0  0  0  0  0  0  0
   -5.7140   20.7590  -32.6730 C   0  0  0  0  0  0  0  0  0  0  0  0
   -5.9170   21.9720  -32.0030 C   0  0  0  0  0  0  0  0  0  0  0  0
   -4.9910   22.8410  -31.5430 N   0  0  0  0  0  0  0  0  0  0  0  0
   -3.5650   22.6820  -31.6020 C   0  0  0  0  0  0  0  0  0  0  0  0
   -2.8420   23.1810  -30.6980 O   0  0  0  0  0  0  0  0  0  0  0  0
   -2.9930   21.9980  -32.6830 O   0  0  0  0  0  0  0  0  0  0  0  0
   -2.4610   20.7040  -32.6260 C   0  0  0  0  0  0  0  0  0  0  0  0
   -2.0290   20.2210  -31.5440 O   0  0  0  0  0  0  0  0  0  0  0  0
   -2.4510   19.8680  -33.8630 C   0  0  0  0  0  0  0  0  0  0  0  0
   -3.5900   18.9010  -33.8330 C   0  0  0  0  0  0  0  0  0  0  0  0
   -3.8680   18.2820  -32.7720 O   0  0  0  0  0  0  0  0  0  0  0  0
   -4.3760   18.7160  -34.9640 O   0  0  0  0  0  0  0  0  0  0  0  0
   -2.9760   25.2980  -30.4920 H   0  0  0  0  0  0  0  0  0  0  0  0
   -7.8710   24.2056  -30.5882 H   0  0  0  0  0  0  0  0  0  0  0  0
   -9.3224   22.0521  -31.7807 H   0  0  0  0  0  0  0  0  0  0  0  0
   -9.0265   19.8863  -33.0259 H   0  0  0  0  0  0  0  0  0  0  0  0
   -7.1650   18.7930  -34.6880 H   0  0  0  0  0  0  0  0  0  0  0  0
   -5.6660   18.6020  -33.9460 H   0  0  0  0  0  0  0  0  0  0  0  0
   -7.0081   17.8066  -31.9097 H   0  0  0  0  0  0  0  0  0  0  0  0
   -8.2658   17.5111  -33.1878 H   0  0  0  0  0  0  0  0  0  0  0  0
   -5.9145   15.9264  -32.5130 H   0  0  0  0  0  0  0  0  0  0  0  0
   -7.2783   15.5526  -33.6285 H   0  0  0  0  0  0  0  0  0  0  0  0
   -4.8480   16.9370  -34.1210 H   0  0  0  0  0  0  0  0  0  0  0  0
   -4.6979   20.4065  -32.9037 H   0  0  0  0  0  0  0  0  0  0  0  0
   -2.5487   20.5193  -34.7441 H   0  0  0  0  0  0  0  0  0  0  0  0
   -1.5042   19.3106  -33.9155 H   0  0  0  0  0  0  0  0  0  0  0  0
  1  2  1  0
  2  3  2  0
  2  4  1  0
  4  5  2  0
  5  6  1  0
  6  7  2  0
  7  8  1  0
  8  9  2  0
  9 10  1  0
 10 11  1  0
 11 12  1  0
 12 13  1  0
  9 14  1  0
 14 15  2  0
 15 16  1  0
 16 17  1  0
 17 18  2  0
 17 19  1  0
 19 20  1  0
 20 21  2  0
 20 22  1  0
 22 23  1  0
 23 24  2  0
 23 25  1  0
 16  4  1  0
 15  6  1  0
  1 26  1  0
  5 27  1  0
  7 28  1  0
  8 29  1  0
 10 30  1  0
 10 31  1  0
 11 32  1  0
 11 33  1  0
 12 34  1  0
 12 35  1  0
 13 36  1  0
 14 37  1  0
 22 38  1  0
 22 39  1  0
M  CHG  3   1  -1  10   1  25  -1
M  END
>  <UniqueID>  (12) 
12

>  <SMILES>  (12) 
[NH-]C(=O)c1cc2ccc([NH2+]CCO)cc2n1C(=O)OC(=O)CC(=O)[O-]

>  <Energy>  (12) 
75.57948258847793

>  <Genealogy>  (12) 
[NH-]C(=O)c1cc2ccc([NH2+]CCO)cc2n1C(=O)OC(=O)CC(=O)[O-] (protonated)
[NH-]C(=O)c1cc2ccc([NH2+]CCO)cc2n1C(=O)OC(=O)CC(=O)[O-] (3D coordinates assigned)
[NH-]C(=O)c1cc2ccc([NH2+]CCO)cc2n1C(=O)OC(=O)CC(=O)[O-] (optimized conformer: 75.57948258847793 kcal/mol)

>  <smiles>  (12) 
NC(=O)c1cc2ccc(NCCO)cc2n1C(=O)OC(=O)CC(=O)O

>  <score_type>  (12) 
oracle

>  <origin>  (12) 
adg

>  <m_score__min__energy>  (12) 
-8.6199999999999992

>  <m_primary>  (12) 
energy

$$$$
13:0
     RDKit          3D

 44 45  0  0  0  0  0  0  0  0999 V2000
   -3.7460   25.2880  -30.6350 N   0  0  0  0  0  0  0  0  0  0  0  0
   -5.0140   24.8180  -30.1800 C   0  0  0  0  0  0  0  0  0  0  0  0
   -5.6210   25.4540  -29.2780 O   0  0  0  0  0  0  0  0  0  0  0  0
   -5.6170   23.6190  -30.7970 C   0  0  0  0  0  0  0  0  0  0  0  0
   -6.9850   23.4810  -31.0280 C   0  0  0  0  0  0  0  0  0  0  0  0
   -7.1420   22.2090  -31.5280 C   0  0  0  0  0  0  0  0  0  0  0  0
   -8.2960   21.5450  -31.9340 C   0  0  0  0  0  0  0  0  0  0  0  0
   -8.1630   20.2410  -32.4370 C   0  0  0  0  0  0  0  0  0  0  0  0
   -6.8860   19.6330  -32.5510 C   0  0  0  0  0  0  0  0  0  0  0  0
   -6.7600   18.2190  -33.0600 C   0  0  0  0  0  0  0  0  0  0  0  0
   -6.4780   18.2460  -34.4130 F   0  0  0  0  0  0  0  0  0  0  0  0
   -5.7430   17.5510  -32.4000 F   0  0  0  0  0  0  0  0  0  0  0  0
   -7.9380   17.5200  -32.8570 F   0  0  0  0  0  0  0  0  0  0  0  0
   -5.7400   20.3320  -32.1040 C   0  0  0  0  0  0  0  0  0  0  0  0
   -5.9050   21.6250  -31.5900 C   0  0  0  0  0  0  0  0  0  0  0  0
   -4.9560   22.4790  -31.1440 N   0  0  0  0  0  0  0  0  0  0  0  0
   -3.5370   22.2520  -31.1330 C   0  0  0  0  0  0  0  0  0  0  0  0
   -2.7550   23.1260  -31.5980 O   0  0  0  0  0  0  0  0  0  0  0  0
   -3.0290   21.0700  -30.5880 O   0  0  0  0  0  0  0  0  0  0  0  0
   -3.1140   20.7620  -29.2000 C   0  0  0  0  0  0  0  0  0  0  0  0
   -1.8090   20.7360  -28.6360 O   0  0  0  0  0  0  0  0  0  0  0  0
   -1.3740   21.6680  -27.6850 C   0  0  0  0  0  0  0  0  0  0  0  0
   -1.0760   21.2940  -26.5170 O   0  0  0  0  0  0  0  0  0  0  0  0
   -1.2860   23.1330  -28.0340 C   0  0  1  0  0  0  0  0  0  0  0  0
   -1.3610   23.3650  -29.4800 N   0  0  0  0  0  0  0  0  0  0  0  0
   -2.3280   23.9840  -27.2720 C   0  0  0  0  0  0  0  0  0  0  0  0
   -1.9330   25.4470  -26.9940 C   0  0  0  0  0  0  0  0  0  0  0  0
   -0.9370   25.9770  -27.9790 C   0  0  0  0  0  0  0  0  0  0  0  0
    0.1700   26.4270  -27.5810 O   0  0  0  0  0  0  0  0  0  0  0  0
   -1.2370   25.9920  -29.3360 O   0  0  0  0  0  0  0  0  0  0  0  0
   -2.8600   24.8640  -30.2820 H   0  0  0  0  0  0  0  0  0  0  0  0
   -7.7710   24.2294  -30.8487 H   0  0  0  0  0  0  0  0  0  0  0  0
   -9.2821   22.0272  -31.8629 H   0  0  0  0  0  0  0  0  0  0  0  0
   -9.0596   19.6839  -32.7465 H   0  0  0  0  0  0  0  0  0  0  0  0
   -4.7427   19.8711  -32.1587 H   0  0  0  0  0  0  0  0  0  0  0  0
   -3.7174   21.5283  -28.6913 H   0  0  0  0  0  0  0  0  0  0  0  0
   -3.5864   19.7768  -29.0729 H   0  0  0  0  0  0  0  0  0  0  0  0
   -0.2918   23.4662  -27.7016 H   0  0  0  0  0  0  0  0  0  0  0  0
   -2.1390   24.0280  -29.7010 H   0  0  0  0  0  0  0  0  0  0  0  0
   -1.5930   22.4570  -29.9480 H   0  0  0  0  0  0  0  0  0  0  0  0
   -3.2542   23.9925  -27.8654 H   0  0  0  0  0  0  0  0  0  0  0  0
   -2.4305   23.5119  -26.2838 H   0  0  0  0  0  0  0  0  0  0  0  0
   -2.8383   26.0702  -27.0399 H   0  0  0  0  0  0  0  0  0  0  0  0
   -1.4645   25.4800  -25.9993 H   0  0  0  0  0  0  0  0  0  0  0  0
  1  2  1  0
  2  3  2  0
  2  4  1  0
  4  5  2  0
  5  6  1  0
  6  7  2  0
  7  8  1  0
  8  9  2  0
  9 10  1  0
 10 11  1  0
 10 12  1  0
 10 13  1  0
  9 14  1  0
 14 15  2  0
 15 16  1  0
 16 17  1  0
 17 18  2  0
 17 19  1  0
 19 20  1  0
 20 21  1  0
 21 22  1  0
 22 23  2  0
 22 24  1  0
 24 25  1  0
 24 26  1  0
 26 27  1  0
 27 28  1  0
 28 29  2  0
 28 30  1  0
 16  4  1  0
 15  6  1  0
  1 31  1  0
  5 32  1  0
  7 33  1  0
  8 34  1  0
 14 35  1  0
 20 36  1  0
 20 37  1  0
 24 38  1  1
 25 39  1  0
 25 40  1  0
 26 41  1  0
 26 42  1  0
 27 43  1  0
 27 44  1  0
M  CHG  2   1  -1  30  -1
M  END
>  <UniqueID>  (13) 
13

>  <SMILES>  (13) 
[NH-]C(=O)c1cc2ccc(C(F)(F)F)cc2n1C(=O)OCOC(=O)[C@@H](N)CCC(=O)[O-]

>  <Energy>  (13) 
77.69783519266267

>  <Genealogy>  (13) 
[NH-]C(=O)c1cc2ccc(C(F)(F)F)cc2n1C(=O)OCOC(=O)[C@@H](N)CCC(=O)[O-] (protonated)
[NH-]C(=O)c1cc2ccc(C(F)(F)F)cc2n1C(=O)OCOC(=O)[C@@H](N)CCC(=O)[O-] (3D coordinates assigned)
[NH-]C(=O)c1cc2ccc(C(F)(F)F)cc2n1C(=O)OCOC(=O)[C@@H](N)CCC(=O)[O-] (optimized conformer: 77.69783519266267 kcal/mol)

>  <smiles>  (13) 
NC(=O)c1cc2ccc(C(F)(F)F)cc2n1C(=O)OCOC(=O)[C@@H](N)CCC(=O)O

>  <score_type>  (13) 
oracle

>  <origin>  (13) 
adg

>  <m_score__min__energy>  (13) 
-12.01

>  <m_primary>  (13) 
energy

$$$$
14:0
     RDKit          3D

 46 47  0  0  0  0  0  0  0  0999 V2000
   -1.5650   21.2320  -34.0060 N   0  0  0  0  0  0  0  0  0  0  0  0
   -1.9140   19.9520  -33.4780 C   0  0  0  0  0  0  0  0  0  0  0  0
   -0.9990   19.1430  -33.1740 O   0  0  0  0  0  0  0  0  0  0  0  0
   -3.3310   19.5900  -33.2520 C   0  0  0  0  0  0  0  0  0  0  0  0
   -3.9060   18.3970  -33.6860 C   0  0  0  0  0  0  0  0  0  0  0  0
   -5.2400   18.4950  -33.3640 C   0  0  0  0  0  0  0  0  0  0  0  0
   -6.2710   17.5770  -33.5400 C   0  0  0  0  0  0  0  0  0  0  0  0
   -7.5470   17.9200  -33.0630 C   0  0  0  0  0  0  0  0  0  0  0  0
   -7.7680   19.1680  -32.4290 C   0  0  0  0  0  0  0  0  0  0  0  0
   -9.1230   19.4910  -31.8580 C   0  0  0  0  0  0  0  0  0  0  0  0
   -9.5490   20.9400  -32.1480 C   0  0  0  0  0  0  0  0  0  0  0  0
   -8.9080   21.9710  -31.1970 C   0  0  0  0  0  0  0  0  0  0  0  0
   -8.0640   23.0140  -31.9460 C   0  0  0  0  0  0  0  0  0  0  0  0
   -6.8480   23.3270  -31.1900 N   0  0  0  0  0  0  0  0  0  0  0  0
   -5.9700   23.9750  -32.0090 O   0  0  0  0  0  0  0  0  0  0  0  0
   -6.6980   20.0760  -32.2740 C   0  0  0  0  0  0  0  0  0  0  0  0
   -5.4380   19.7110  -32.7610 C   0  0  0  0  0  0  0  0  0  0  0  0
   -4.2740   20.3940  -32.6810 N   0  0  0  0  0  0  0  0  0  0  0  0
   -4.0730   21.6640  -32.0360 C   0  0  0  0  0  0  0  0  0  0  0  0
   -3.4680   22.5910  -32.6420 O   0  0  0  0  0  0  0  0  0  0  0  0
   -4.5260   21.8590  -30.7290 O   0  0  0  0  0  0  0  0  0  0  0  0
   -3.6840   22.3300  -29.6810 C   0  0  0  0  0  0  0  0  0  0  0  0
   -4.1910   23.6790  -29.1760 C   0  0  0  0  0  0  0  0  0  0  0  0
   -3.4660   24.8090  -29.8370 C   0  0  0  0  0  0  0  0  0  0  0  0
   -3.9590   25.3710  -30.8510 O   0  0  0  0  0  0  0  0  0  0  0  0
   -2.2690   25.2730  -29.3070 O   0  0  0  0  0  0  0  0  0  0  0  0
   -0.5600   21.4930  -34.1240 H   0  0  0  0  0  0  0  0  0  0  0  0
   -2.2950   21.9080  -34.3200 H   0  0  0  0  0  0  0  0  0  0  0  0
   -3.4002   17.5550  -34.1813 H   0  0  0  0  0  0  0  0  0  0  0  0
   -6.0922   16.6123  -34.0374 H   0  0  0  0  0  0  0  0  0  0  0  0
   -8.3818   17.2138  -33.1826 H   0  0  0  0  0  0  0  0  0  0  0  0
   -9.8646   18.8092  -32.2998 H   0  0  0  0  0  0  0  0  0  0  0  0
   -9.0654   19.3696  -30.7662 H   0  0  0  0  0  0  0  0  0  0  0  0
   -9.2576   21.1890  -33.1791 H   0  0  0  0  0  0  0  0  0  0  0  0
  -10.6374   20.9938  -31.9978 H   0  0  0  0  0  0  0  0  0  0  0  0
   -9.7076   22.4911  -30.6492 H   0  0  0  0  0  0  0  0  0  0  0  0
   -8.2394   21.4266  -30.5139 H   0  0  0  0  0  0  0  0  0  0  0  0
   -7.7847   22.6138  -32.9318 H   0  0  0  0  0  0  0  0  0  0  0  0
   -8.6564   23.9332  -32.0647 H   0  0  0  0  0  0  0  0  0  0  0  0
   -6.4140   22.4290  -30.8630 H   0  0  0  0  0  0  0  0  0  0  0  0
   -5.0540   23.7620  -31.6890 H   0  0  0  0  0  0  0  0  0  0  0  0
   -6.8513   21.0477  -31.7818 H   0  0  0  0  0  0  0  0  0  0  0  0
   -3.6902   21.6048  -28.8539 H   0  0  0  0  0  0  0  0  0  0  0  0
   -2.6594   22.4475  -30.0637 H   0  0  0  0  0  0  0  0  0  0  0  0
   -5.2655   23.7641  -29.3958 H   0  0  0  0  0  0  0  0  0  0  0  0
   -4.0123   23.7358  -28.0921 H   0  0  0  0  0  0  0  0  0  0  0  0
  1  2  1  0
  2  3  2  0
  2  4  1  0
  4  5  2  0
  5  6  1  0
  6  7  2  0
  7  8  1  0
  8  9  2  0
  9 10  1  0
 10 11  1  0
 11 12  1  0
 12 13  1  0
 13 14  1  0
 14 15  1  0
  9 16  1  0
 16 17  2  0
 17 18  1  0
 18 19  1  0
 19 20  2  0
 19 21  1  0
 21 22  1  0
 22 23  1  0
 23 24  1  0
 24 25  2  0
 24 26  1  0
 18  4  1  0
 17  6  1  0
  1 27  1  0
  1 28  1  0
  5 29  1  0
  7 30  1  0
  8 31  1  0
 10 32  1  0
 10 33  1  0
 11 34  1  0
 11 35  1  0
 12 36  1  0
 12 37  1  0
 13 38  1  0
 13 39  1  0
 14 40  1  0
 15 41  1  0
 16 42  1  0
 22 43  1  0
 22 44  1  0
 23 45  1  0
 23 46  1  0
M  CHG  1  26  -1
M  END
>  <UniqueID>  (14) 
14

>  <SMILES>  (14) 
NC(=O)c1cc2ccc(CCCCNO)cc2n1C(=O)OCCC(=O)[O-]

>  <Energy>  (14) 
73.87378917189365

>  <Genealogy>  (14) 
NC(=O)c1cc2ccc(CCCCNO)cc2n1C(=O)OCCC(=O)[O-] (protonated)
NC(=O)c1cc2ccc(CCCCNO)cc2n1C(=O)OCCC(=O)[O-] (3D coordinates assigned)
NC(=O)c1cc2ccc(CCCCNO)cc2n1C(=O)OCCC(=O)[O-] (optimized conformer: 73.87378917189365 kcal/mol)

>  <smiles>  (14) 
NC(=O)c1cc2ccc(CCCCNO)cc2n1C(=O)OCCC(=O)O

>  <score_type>  (14) 
oracle

>  <origin>  (14) 
adg

>  <m_score__min__energy>  (14) 
-10.49

>  <m_primary>  (14) 
energy

$$$$
15:0
     RDKit          3D

 38 39  0  0  0  0  0  0  0  0999 V2000
   -9.0970   19.7856  -33.0380 H   0  0  0  0  0  0  0  0  0  0  0  0
   -8.2230   20.3690  -32.7130 C   0  0  0  0  0  0  0  0  0  0  0  0
   -6.9200   19.8970  -33.0050 C   0  0  0  0  0  0  0  0  0  0  0  0
   -6.7680   18.6650  -33.7320 N   0  0  0  0  0  0  0  0  0  0  0  0
   -6.8890   18.6720  -34.7710 H   0  0  0  0  0  0  0  0  0  0  0  0
   -6.4750   17.3850  -33.0950 C   0  0  0  0  0  0  0  0  0  0  0  0
   -6.5024   17.5047  -32.0019 H   0  0  0  0  0  0  0  0  0  0  0  0
   -7.2264   16.6424  -33.4015 H   0  0  0  0  0  0  0  0  0  0  0  0
   -5.4754   17.0432  -33.4015 H   0  0  0  0  0  0  0  0  0  0  0  0
   -5.7970   20.6490  -32.5810 C   0  0  0  0  0  0  0  0  0  0  0  0
   -4.7759   20.3145  -32.8164 H   0  0  0  0  0  0  0  0  0  0  0  0
   -6.0140   21.8270  -31.8560 C   0  0  0  0  0  0  0  0  0  0  0  0
   -7.2860   22.2750  -31.6050 C   0  0  0  0  0  0  0  0  0  0  0  0
   -8.4140   21.5720  -32.0140 C   0  0  0  0  0  0  0  0  0  0  0  0
   -9.4251   21.9468  -31.7966 H   0  0  0  0  0  0  0  0  0  0  0  0
   -7.1880   23.4800  -30.9510 C   0  0  0  0  0  0  0  0  0  0  0  0
   -8.0128   24.1219  -30.6081 H   0  0  0  0  0  0  0  0  0  0  0  0
   -5.8230   23.7150  -30.8150 C   0  0  0  0  0  0  0  0  0  0  0  0
   -5.2710   24.9070  -30.1380 C   0  0  0  0  0  0  0  0  0  0  0  0
   -5.7030   25.2250  -28.9980 O   0  0  0  0  0  0  0  0  0  0  0  0
   -4.2180   25.6730  -30.7240 N   0  0  0  0  0  0  0  0  0  0  0  0
   -3.8730   26.5370  -30.2500 H   0  0  0  0  0  0  0  0  0  0  0  0
   -3.7170   25.3380  -31.5730 H   0  0  0  0  0  0  0  0  0  0  0  0
   -5.1010   22.7000  -31.3670 N   0  0  0  0  0  0  0  0  0  0  0  0
   -3.6690   22.6290  -31.5180 C   0  0  0  0  0  0  0  0  0  0  0  0
   -3.1590   21.6750  -32.1610 O   0  0  0  0  0  0  0  0  0  0  0  0
   -2.7970   23.5550  -30.8540 N   0  0  0  0  0  0  0  0  0  0  0  0
   -2.1590   23.3910  -29.7290 C   0  0  0  0  0  0  0  0  0  0  0  0
   -1.2480   24.4670  -29.2940 C   0  0  0  0  0  0  0  0  0  0  0  0
   -1.6160   25.6710  -29.3200 O   0  0  0  0  0  0  0  0  0  0  0  0
    0.0280   24.1580  -28.8370 O   0  0  0  0  0  0  0  0  0  0  0  0
   -2.4120   22.2190  -28.8010 C   0  0  0  0  0  0  0  0  0  0  0  0
   -1.5851   22.1442  -28.0794 H   0  0  0  0  0  0  0  0  0  0  0  0
   -2.4778   21.2994  -29.4010 H   0  0  0  0  0  0  0  0  0  0  0  0
   -3.7240   22.4070  -28.0430 C   0  0  0  0  0  0  0  0  0  0  0  0
   -3.5294   22.3791  -26.9607 H   0  0  0  0  0  0  0  0  0  0  0  0
   -4.1665   23.3777  -28.3111 H   0  0  0  0  0  0  0  0  0  0  0  0
   -4.4213   21.5996  -28.3111 H   0  0  0  0  0  0  0  0  0  0  0  0
  1  2  1  0
  2  3  2  0
  3  4  1  0
  4  5  1  0
  4  6  1  0
  6  7  1  0
  6  8  1  0
  6  9  1  0
  3 10  1  0
 10 11  1  0
 10 12  2  0
 12 13  1  0
 13 14  2  0
 14 15  1  0
 13 16  1  0
 16 17  1  0
 16 18  2  0
 18 19  1  0
 19 20  2  0
 19 21  1  0
 21 22  1  0
 21 23  1  0
 18 24  1  0
 24 25  1  0
 25 26  2  0
 25 27  1  0
 27 28  2  0
 28 29  1  0
 29 30  2  0
 29 31  1  0
 28 32  1  0
 32 33  1  0
 32 34  1  0
 32 35  1  0
 35 36  1  0
 35 37  1  0
 35 38  1  0
 14  2  1  0
 24 12  1  0
M  CHG  1  31  -1
M  END
>  <UniqueID>  (15) 
15

>  <SMILES>  (15) 
CC/C(=N\C(=O)n1c(C(N)=O)cc2ccc(NC)cc21)C(=O)[O-]

>  <Energy>  (15) 
78.71015761049657

>  <Genealogy>  (15) 
CC/C(=N\C(=O)n1c(C(N)=O)cc2ccc(NC)cc21)C(=O)[O-] (protonated)
CC/C(=N\C(=O)n1c(C(N)=O)cc2ccc(NC)cc21)C(=O)[O-] (cis-trans isomerization)
CC/C(=N\C(=O)n1c(C(N)=O)cc2ccc(NC)cc21)C(=O)[O-] (3D coordinates assigned)
CC/C(=N\C(=O)n1c(C(N)=O)cc2ccc(NC)cc21)C(=O)[O-] (optimized conformer: 78.71015761049657 kcal/mol)

>  <smiles>  (15) 
CC/C(=N\C(=O)n1c(C(N)=O)cc2ccc(NC)cc21)C(=O)O

>  <score_type>  (15) 
oracle

>  <origin>  (15) 
adg

>  <m_score__min__energy>  (15) 
-10.66

>  <m_primary>  (15) 
energy

$$$$
16:0
     RDKit          3D

 45 46  0  0  0  0  0  0  0  0999 V2000
   -5.7380   17.6670  -34.9430 C   0  0  0  0  0  0  0  0  0  0  0  0
   -5.0010   17.9710  -33.7050 N   0  0  0  0  0  0  0  0  0  0  0  0
   -4.6600   16.7280  -32.9700 C   0  0  0  0  0  0  0  0  0  0  0  0
   -5.7120   16.4540  -31.8950 C   0  0  0  0  0  0  0  0  0  0  0  0
   -6.1070   17.6460  -31.2710 O   0  0  0  0  0  0  0  0  0  0  0  0
   -3.8090   18.7930  -34.0050 C   0  0  0  0  0  0  0  0  0  0  0  0
   -3.5540   19.8280  -32.8980 C   0  0  0  0  0  0  0  0  0  0  0  0
   -2.8310   21.0750  -33.4140 C   0  0  0  0  0  0  0  0  0  0  0  0
   -3.6380   22.2290  -33.2020 O   0  0  0  0  0  0  0  0  0  0  0  0
   -3.8910   22.7520  -31.9310 C   0  0  0  0  0  0  0  0  0  0  0  0
   -2.9380   22.9780  -31.1350 O   0  0  0  0  0  0  0  0  0  0  0  0
   -5.2400   23.0560  -31.5420 N   0  0  0  0  0  0  0  0  0  0  0  0
   -5.7110   24.1980  -30.9660 C   0  0  0  0  0  0  0  0  0  0  0  0
   -4.8930   25.3330  -30.4920 C   0  0  0  0  0  0  0  0  0  0  0  0
   -3.5370   25.1180  -30.1050 N   0  0  0  0  0  0  0  0  0  0  0  0
   -5.3640   26.5000  -30.4590 O   0  0  0  0  0  0  0  0  0  0  0  0
   -7.0930   24.1270  -30.7970 C   0  0  0  0  0  0  0  0  0  0  0  0
   -7.4560   22.8910  -31.2800 C   0  0  0  0  0  0  0  0  0  0  0  0
   -8.7120   22.2960  -31.3620 C   0  0  0  0  0  0  0  0  0  0  0  0
   -8.7970   21.0140  -31.9300 C   0  0  0  0  0  0  0  0  0  0  0  0
   -7.6360   20.3600  -32.4070 C   0  0  0  0  0  0  0  0  0  0  0  0
   -7.7390   19.0590  -32.9930 N   0  0  0  0  0  0  0  0  0  0  0  0
   -6.3790   20.9920  -32.3090 C   0  0  0  0  0  0  0  0  0  0  0  0
   -6.3200   22.2630  -31.7230 C   0  0  0  0  0  0  0  0  0  0  0  0
   -6.7276   17.2588  -34.6898 H   0  0  0  0  0  0  0  0  0  0  0  0
   -5.8610   18.5878  -35.5320 H   0  0  0  0  0  0  0  0  0  0  0  0
   -5.1760   16.9273  -35.5320 H   0  0  0  0  0  0  0  0  0  0  0  0
   -4.6303   15.8840  -33.6748 H   0  0  0  0  0  0  0  0  0  0  0  0
   -3.6765   16.8481  -32.4921 H   0  0  0  0  0  0  0  0  0  0  0  0
   -6.5898   15.9826  -32.3610 H   0  0  0  0  0  0  0  0  0  0  0  0
   -5.2766   15.7862  -31.1371 H   0  0  0  0  0  0  0  0  0  0  0  0
   -5.5580   18.3720  -31.6680 H   0  0  0  0  0  0  0  0  0  0  0  0
   -2.9316   18.1350  -34.0898 H   0  0  0  0  0  0  0  0  0  0  0  0
   -3.9847   19.3293  -34.9492 H   0  0  0  0  0  0  0  0  0  0  0  0
   -4.5208   20.1326  -32.4709 H   0  0  0  0  0  0  0  0  0  0  0  0
   -2.9078   19.3564  -32.1430 H   0  0  0  0  0  0  0  0  0  0  0  0
   -1.8788   21.1927  -32.8761 H   0  0  0  0  0  0  0  0  0  0  0  0
   -2.6396   20.9614  -34.4912 H   0  0  0  0  0  0  0  0  0  0  0  0
   -2.7640   25.1780  -30.8030 H   0  0  0  0  0  0  0  0  0  0  0  0
   -7.7529   24.8958  -30.3686 H   0  0  0  0  0  0  0  0  0  0  0  0
   -9.6099   22.8137  -30.9935 H   0  0  0  0  0  0  0  0  0  0  0  0
   -9.7741   20.5142  -32.0047 H   0  0  0  0  0  0  0  0  0  0  0  0
   -8.5910   18.7790  -33.5250 H   0  0  0  0  0  0  0  0  0  0  0  0
   -6.9610   18.3680  -32.8980 H   0  0  0  0  0  0  0  0  0  0  0  0
   -5.4690   20.4999  -32.6828 H   0  0  0  0  0  0  0  0  0  0  0  0
  1  2  1  0
  2  3  1  0
  3  4  1  0
  4  5  1  0
  2  6  1  0
  6  7  1  0
  7  8  1  0
  8  9  1  0
  9 10  1  0
 10 11  2  0
 10 12  1  0
 12 13  1  0
 13 14  1  0
 14 15  1  0
 14 16  2  0
 13 17  2  0
 17 18  1  0
 18 19  2  0
 19 20  1  0
 20 21  2  0
 21 22  1  0
 21 23  1  0
 23 24  2  0
 24 12  1  0
 24 18  1  0
  1 25  1  0
  1 26  1  0
  1 27  1  0
  3 28  1  0
  3 29  1  0
  4 30  1  0
  4 31  1  0
  5 32  1  0
  6 33  1  0
  6 34  1  0
  7 35  1  0
  7 36  1  0
  8 37  1  0
  8 38  1  0
 15 39  1  0
 17 40  1  0
 19 41  1  0
 20 42  1  0
 22 43  1  0
 22 44  1  0
 23 45  1  0
M  CHG  1  15  -1
M  END
>  <UniqueID>  (16) 
16

>  <SMILES>  (16) 
CN(CCO)CCCOC(=O)n1c(C([NH-])=O)cc2ccc(N)cc21

>  <Energy>  (16) 
77.43534068464348

>  <Genealogy>  (16) 
CN(CCO)CCCOC(=O)n1c(C([NH-])=O)cc2ccc(N)cc21 (protonated)
CN(CCO)CCCOC(=O)n1c(C([NH-])=O)cc2ccc(N)cc21 (3D coordinates assigned)
CN(CCO)CCCOC(=O)n1c(C([NH-])=O)cc2ccc(N)cc21 (optimized conformer: 77.43534068464348 kcal/mol)

>  <smiles>  (16) 
CN(CCO)CCCOC(=O)n1c(C(N)=O)cc2ccc(N)cc21

>  <score_type>  (16) 
oracle

>  <origin>  (16) 
adg

>  <m_score__min__energy>  (16) 
-9.2699999999999996

>  <m_primary>  (16) 
energy

$$$$
17:0
     RDKit          3D

 39 40  0  0  0  0  0  0  0  0999 V2000
   -4.2170   25.5360  -30.5480 N   0  0  0  0  0  0  0  0  0  0  0  0
   -5.5750   25.1440  -30.3410 C   0  0  0  0  0  0  0  0  0  0  0  0
   -6.3640   25.9360  -29.7590 O   0  0  0  0  0  0  0  0  0  0  0  0
   -6.0860   23.8560  -30.8500 C   0  0  0  0  0  0  0  0  0  0  0  0
   -7.4320   23.6050  -31.1070 C   0  0  0  0  0  0  0  0  0  0  0  0
   -7.4740   22.3180  -31.5950 C   0  0  0  0  0  0  0  0  0  0  0  0
   -8.5620   21.5380  -31.9780 C   0  0  0  0  0  0  0  0  0  0  0  0
   -8.3120   20.2160  -32.3880 C   0  0  0  0  0  0  0  0  0  0  0  0
   -6.9900   19.7030  -32.4080 C   0  0  0  0  0  0  0  0  0  0  0  0
   -6.7470   18.2770  -32.8130 C   0  0  0  0  0  0  0  0  0  0  0  0
   -6.4720   18.2130  -34.1670 F   0  0  0  0  0  0  0  0  0  0  0  0
   -7.8710   17.5200  -32.5370 F   0  0  0  0  0  0  0  0  0  0  0  0
   -5.9140   20.5240  -32.0100 C   0  0  0  0  0  0  0  0  0  0  0  0
   -6.1910   21.8370  -31.6180 C   0  0  0  0  0  0  0  0  0  0  0  0
   -5.3290   22.7670  -31.1590 N   0  0  0  0  0  0  0  0  0  0  0  0
   -3.9400   22.5440  -30.8730 C   0  0  0  0  0  0  0  0  0  0  0  0
   -3.0750   23.3290  -31.3460 O   0  0  0  0  0  0  0  0  0  0  0  0
   -3.4960   21.3580  -30.0590 C   0  0  0  0  0  0  0  0  0  0  0  0
   -2.7590   21.7800  -28.7810 C   0  0  0  0  0  0  0  0  0  0  0  0
   -3.1500   23.0780  -28.3700 O   0  0  0  0  0  0  0  0  0  0  0  0
   -2.1560   23.6650  -27.5570 C   0  0  0  0  0  0  0  0  0  0  0  0
   -1.9630   25.1180  -27.9700 C   0  0  0  0  0  0  0  0  0  0  0  0
   -2.1500   25.2490  -29.3510 O   0  0  0  0  0  0  0  0  0  0  0  0
   -3.8650   26.4320  -30.1480 H   0  0  0  0  0  0  0  0  0  0  0  0
   -3.5810   24.9770  -31.1580 H   0  0  0  0  0  0  0  0  0  0  0  0
   -8.2799   24.2886  -30.9530 H   0  0  0  0  0  0  0  0  0  0  0  0
   -9.5846   21.9429  -31.9605 H   0  0  0  0  0  0  0  0  0  0  0  0
   -9.1501   19.5737  -32.6962 H   0  0  0  0  0  0  0  0  0  0  0  0
   -5.8886   17.8834  -32.2489 H   0  0  0  0  0  0  0  0  0  0  0  0
   -4.8830   20.1407  -32.0082 H   0  0  0  0  0  0  0  0  0  0  0  0
   -4.3812   20.7677  -29.7798 H   0  0  0  0  0  0  0  0  0  0  0  0
   -2.8002   20.7668  -30.6724 H   0  0  0  0  0  0  0  0  0  0  0  0
   -2.9923   21.0641  -27.9791 H   0  0  0  0  0  0  0  0  0  0  0  0
   -1.6789   21.7906  -28.9888 H   0  0  0  0  0  0  0  0  0  0  0  0
   -2.4693   23.6207  -26.5035 H   0  0  0  0  0  0  0  0  0  0  0  0
   -1.2094   23.1180  -27.6786 H   0  0  0  0  0  0  0  0  0  0  0  0
   -2.6939   25.7477  -27.4415 H   0  0  0  0  0  0  0  0  0  0  0  0
   -0.9424   25.4360  -27.7107 H   0  0  0  0  0  0  0  0  0  0  0  0
   -2.0560   24.3370  -29.7300 H   0  0  0  0  0  0  0  0  0  0  0  0
  1  2  1  0
  2  3  2  0
  2  4  1  0
  4  5  2  0
  5  6  1  0
  6  7  2  0
  7  8  1  0
  8  9  2  0
  9 10  1  0
 10 11  1  0
 10 12  1  0
  9 13  1  0
 13 14  2  0
 14 15  1  0
 15 16  1  0
 16 17  2  0
 16 18  1  0
 18 19  1  0
 19 20  1  0
 20 21  1  0
 21 22  1  0
 22 23  1  0
 15  4  1  0
 14  6  1  0
  1 24  1  0
  1 25  1  0
  5 26  1  0
  7 27  1  0
  8 28  1  0
 10 29  1  0
 13 30  1  0
 18 31  1  0
 18 32  1  0
 19 33  1  0
 19 34  1  0
 21 35  1  0
 21 36  1  0
 22 37  1  0
 22 38  1  0
 23 39  1  0
M  END
>  <UniqueID>  (17) 
17

>  <SMILES>  (17) 
NC(=O)c1cc2ccc(C(F)F)cc2n1C(=O)CCOCCO

>  <Energy>  (17) 
74.48932256623878

>  <Genealogy>  (17) 
NC(=O)c1cc2ccc(C(F)F)cc2n1C(=O)CCOCCO (3D coordinates assigned)
NC(=O)c1cc2ccc(C(F)F)cc2n1C(=O)CCOCCO (optimized conformer: 74.48932256623878 kcal/mol)

>  <smiles>  (17) 
NC(=O)c1cc2ccc(C(F)F)cc2n1C(=O)CCOCCO

>  <score_type>  (17) 
oracle

>  <origin>  (17) 
adg

>  <m_score__min__energy>  (17) 
-7.6100000000000003

>  <m_primary>  (17) 
energy

$$$$
18:0
     RDKit          3D

 40 41  0  0  0  0  0  0  0  0999 V2000
   -6.0720   18.3860  -34.2070 C   0  0  0  0  0  0  0  0  0  0  0  0
   -6.9280   18.3610  -32.9450 C   0  0  0  0  0  0  0  0  0  0  0  0
   -7.1380   19.7550  -32.4170 C   0  0  0  0  0  0  0  0  0  0  0  0
   -8.4270   20.3410  -32.4570 C   0  0  0  0  0  0  0  0  0  0  0  0
   -8.6270   21.6570  -32.0100 C   0  0  0  0  0  0  0  0  0  0  0  0
   -7.5250   22.3590  -31.5300 C   0  0  0  0  0  0  0  0  0  0  0  0
   -7.4330   23.6540  -31.0790 C   0  0  0  0  0  0  0  0  0  0  0  0
   -6.0940   23.8360  -30.7510 C   0  0  0  0  0  0  0  0  0  0  0  0
   -5.5620   25.0860  -30.1720 C   0  0  0  0  0  0  0  0  0  0  0  0
   -6.1540   25.6740  -29.0140 N   0  0  0  0  0  0  0  0  0  0  0  0
   -4.6030   25.6730  -30.7410 O   0  0  0  0  0  0  0  0  0  0  0  0
   -5.3770   22.7030  -31.0020 N   0  0  0  0  0  0  0  0  0  0  0  0
   -3.9500   22.5430  -30.9140 C   0  0  0  0  0  0  0  0  0  0  0  0
   -3.2260   22.7280  -31.9300 O   0  0  0  0  0  0  0  0  0  0  0  0
   -3.3700   22.1800  -29.6960 O   0  0  0  0  0  0  0  0  0  0  0  0
   -2.0530   22.5650  -29.3190 C   0  0  0  0  0  0  0  0  0  0  0  0
   -2.0640   23.9880  -28.7400 C   0  0  1  0  0  0  0  0  0  0  0  0
   -2.4840   24.9040  -29.7190 O   0  0  0  0  0  0  0  0  0  0  0  0
   -2.9560   24.1050  -27.4880 C   0  0  0  0  0  0  0  0  0  0  0  0
   -4.1010   24.8710  -27.7530 O   0  0  0  0  0  0  0  0  0  0  0  0
   -6.2710   21.8050  -31.4780 C   0  0  0  0  0  0  0  0  0  0  0  0
   -6.0390   20.5020  -31.9380 C   0  0  0  0  0  0  0  0  0  0  0  0
   -5.0084   18.4171  -33.9281 H   0  0  0  0  0  0  0  0  0  0  0  0
   -6.2689   17.4817  -34.8016 H   0  0  0  0  0  0  0  0  0  0  0  0
   -6.3213   19.2772  -34.8016 H   0  0  0  0  0  0  0  0  0  0  0  0
   -7.9047   17.9129  -33.1800 H   0  0  0  0  0  0  0  0  0  0  0  0
   -6.4100   17.7665  -32.1780 H   0  0  0  0  0  0  0  0  0  0  0  0
   -9.2784   19.7603  -32.8415 H   0  0  0  0  0  0  0  0  0  0  0  0
   -9.6247   22.1194  -32.0383 H   0  0  0  0  0  0  0  0  0  0  0  0
   -8.2460   24.3902  -30.9953 H   0  0  0  0  0  0  0  0  0  0  0  0
   -5.7380   26.5340  -28.5910 H   0  0  0  0  0  0  0  0  0  0  0  0
   -7.0440   25.3010  -28.6140 H   0  0  0  0  0  0  0  0  0  0  0  0
   -1.6731   21.8661  -28.5593 H   0  0  0  0  0  0  0  0  0  0  0  0
   -1.4035   22.5426  -30.2065 H   0  0  0  0  0  0  0  0  0  0  0  0
   -1.0348   24.2226  -28.4306 H   0  0  0  0  0  0  0  0  0  0  0  0
   -2.8880   24.3850  -30.4640 H   0  0  0  0  0  0  0  0  0  0  0  0
   -3.2633   23.0976  -27.1705 H   0  0  0  0  0  0  0  0  0  0  0  0
   -2.3796   24.6019  -26.6937 H   0  0  0  0  0  0  0  0  0  0  0  0
   -3.9650   25.2880  -28.6430 H   0  0  0  0  0  0  0  0  0  0  0  0
   -5.0267   20.0717  -31.9264 H   0  0  0  0  0  0  0  0  0  0  0  0
  1  2  1  0
  2  3  1  0
  3  4  2  0
  4  5  1  0
  5  6  2  0
  6  7  1  0
  7  8  2  0
  8  9  1  0
  9 10  1  0
  9 11  2  0
  8 12  1  0
 12 13  1  0
 13 14  2  0
 13 15  1  0
 15 16  1  0
 16 17  1  0
 17 18  1  0
 17 19  1  0
 19 20  1  0
 12 21  1  0
 21 22  2  0
 22  3  1  0
 21  6  1  0
  1 23  1  0
  1 24  1  0
  1 25  1  0
  2 26  1  0
  2 27  1  0
  4 28  1  0
  5 29  1  0
  7 30  1  0
 10 31  1  0
 10 32  1  0
 16 33  1  0
 16 34  1  0
 17 35  1  1
 18 36  1  0
 19 37  1  0
 19 38  1  0
 20 39  1  0
 22 40  1  0
M  END
>  <UniqueID>  (18) 
18

>  <SMILES>  (18) 
CCc1ccc2cc(C(N)=O)n(C(=O)OC[C@@H](O)CO)c2c1

>  <Energy>  (18) 
70.599087312701

>  <Genealogy>  (18) 
CCc1ccc2cc(C(N)=O)n(C(=O)OC[C@@H](O)CO)c2c1 (chirality)
CCc1ccc2cc(C(N)=O)n(C(=O)OC[C@@H](O)CO)c2c1 (3D coordinates assigned)
CCc1ccc2cc(C(N)=O)n(C(=O)OC[C@@H](O)CO)c2c1 (optimized conformer: 70.599087312701 kcal/mol)

>  <smiles>  (18) 
CCc1ccc2cc(C(N)=O)n(C(=O)OCC(O)CO)c2c1

>  <score_type>  (18) 
oracle

>  <origin>  (18) 
adg

>  <m_score__min__energy>  (18) 
-8.8300000000000001

>  <m_primary>  (18) 
energy

$$$$
19:0
     RDKit          3D

 40 41  0  0  0  0  0  0  0  0999 V2000
   -3.5560   24.1720  -27.7440 C   0  0  0  0  0  0  0  0  0  0  0  0
   -2.4070   24.0370  -28.6570 N   0  0  0  0  0  0  0  0  0  0  0  0
   -1.5320   25.2130  -28.5220 C   0  0  0  0  0  0  0  0  0  0  0  0
   -1.6570   22.7860  -28.3930 C   0  0  0  0  0  0  0  0  0  0  0  0
   -2.0350   21.7150  -29.4130 C   0  0  0  0  0  0  0  0  0  0  0  0
   -3.4210   21.7990  -29.7200 O   0  0  0  0  0  0  0  0  0  0  0  0
   -3.9150   22.4680  -30.8430 C   0  0  0  0  0  0  0  0  0  0  0  0
   -3.1200   22.9080  -31.7180 O   0  0  0  0  0  0  0  0  0  0  0  0
   -5.3320   22.6470  -31.0020 N   0  0  0  0  0  0  0  0  0  0  0  0
   -6.0470   23.7980  -30.8530 C   0  0  0  0  0  0  0  0  0  0  0  0
   -5.5240   25.0810  -30.3430 C   0  0  0  0  0  0  0  0  0  0  0  0
   -4.2210   25.5450  -30.7020 N   0  0  0  0  0  0  0  0  0  0  0  0
   -6.2140   25.7510  -29.5290 O   0  0  0  0  0  0  0  0  0  0  0  0
   -7.3810   23.5990  -31.1920 C   0  0  0  0  0  0  0  0  0  0  0  0
   -7.4710   22.2700  -31.5420 C   0  0  0  0  0  0  0  0  0  0  0  0
   -8.5680   21.5360  -31.9790 C   0  0  0  0  0  0  0  0  0  0  0  0
   -8.3690   20.1840  -32.3060 C   0  0  0  0  0  0  0  0  0  0  0  0
   -7.0860   19.5900  -32.1840 C   0  0  0  0  0  0  0  0  0  0  0  0
   -6.8700   18.1550  -32.5920 C   0  0  0  0  0  0  0  0  0  0  0  0
   -6.5420   18.0700  -33.9340 F   0  0  0  0  0  0  0  0  0  0  0  0
   -5.8410   17.6190  -31.8420 F   0  0  0  0  0  0  0  0  0  0  0  0
   -8.0180   17.4110  -32.3790 F   0  0  0  0  0  0  0  0  0  0  0  0
   -5.9900   20.3800  -31.7650 C   0  0  0  0  0  0  0  0  0  0  0  0
   -6.2220   21.7180  -31.4210 C   0  0  0  0  0  0  0  0  0  0  0  0
   -3.2038   24.1306  -26.7027 H   0  0  0  0  0  0  0  0  0  0  0  0
   -4.0561   25.1351  -27.9239 H   0  0  0  0  0  0  0  0  0  0  0  0
   -4.2657   23.3511  -27.9239 H   0  0  0  0  0  0  0  0  0  0  0  0
   -1.3708   25.4296  -27.4557 H   0  0  0  0  0  0  0  0  0  0  0  0
   -0.5651   25.0079  -29.0047 H   0  0  0  0  0  0  0  0  0  0  0  0
   -2.0062   26.0802  -29.0047 H   0  0  0  0  0  0  0  0  0  0  0  0
   -0.5780   22.9884  -28.4627 H   0  0  0  0  0  0  0  0  0  0  0  0
   -1.9088   22.4243  -27.3851 H   0  0  0  0  0  0  0  0  0  0  0  0
   -1.4492   21.8650  -30.3319 H   0  0  0  0  0  0  0  0  0  0  0  0
   -1.8199   20.7229  -28.9893 H   0  0  0  0  0  0  0  0  0  0  0  0
   -3.8820   26.4710  -30.3620 H   0  0  0  0  0  0  0  0  0  0  0  0
   -3.5620   24.9360  -31.2360 H   0  0  0  0  0  0  0  0  0  0  0  0
   -8.1907   24.3435  -31.1826 H   0  0  0  0  0  0  0  0  0  0  0  0
   -9.5617   21.9997  -32.0661 H   0  0  0  0  0  0  0  0  0  0  0  0
   -9.2169   19.5795  -32.6604 H   0  0  0  0  0  0  0  0  0  0  0  0
   -4.9777   19.9531  -31.7105 H   0  0  0  0  0  0  0  0  0  0  0  0
  1  2  1  0
  2  3  1  0
  2  4  1  0
  4  5  1  0
  5  6  1  0
  6  7  1  0
  7  8  2  0
  7  9  1  0
  9 10  1  0
 10 11  1  0
 11 12  1  0
 11 13  2  0
 10 14  2  0
 14 15  1  0
 15 16  2  0
 16 17  1  0
 17 18  2  0
 18 19  1  0
 19 20  1  0
 19 21  1  0
 19 22  1  0
 18 23  1  0
 23 24  2  0
 24  9  1  0
 24 15  1  0
  1 25  1  0
  1 26  1  0
  1 27  1  0
  3 28  1  0
  3 29  1  0
  3 30  1  0
  4 31  1  0
  4 32  1  0
  5 33  1  0
  5 34  1  0
 12 35  1  0
 12 36  1  0
 14 37  1  0
 16 38  1  0
 17 39  1  0
 23 40  1  0
M  END
>  <UniqueID>  (19) 
19

>  <SMILES>  (19) 
CN(C)CCOC(=O)n1c(C(N)=O)cc2ccc(C(F)(F)F)cc21

>  <Energy>  (19) 
76.62287003988244

>  <Genealogy>  (19) 
CN(C)CCOC(=O)n1c(C(N)=O)cc2ccc(C(F)(F)F)cc21 (3D coordinates assigned)
CN(C)CCOC(=O)n1c(C(N)=O)cc2ccc(C(F)(F)F)cc21 (optimized conformer: 76.62287003988244 kcal/mol)

>  <smiles>  (19) 
CN(C)CCOC(=O)n1c(C(N)=O)cc2ccc(C(F)(F)F)cc21

>  <score_type>  (19) 
oracle

>  <origin>  (19) 
adg

>  <m_score__min__energy>  (19) 
-7.8200000000000003

>  <m_primary>  (19) 
energy

$$$$
20:0
     RDKit          3D

 38 39  0  0  0  0  0  0  0  0999 V2000
   -7.2430   17.2690  -33.0380 C   0  0  0  0  0  0  0  0  0  0  0  0
   -7.2990   18.4370  -32.7450 C   0  0  0  0  0  0  0  0  0  0  0  0
   -7.3630   19.8310  -32.3870 C   0  0  0  0  0  0  0  0  0  0  0  0
   -8.6130   20.4920  -32.3360 C   0  0  0  0  0  0  0  0  0  0  0  0
   -8.6870   21.8400  -31.9460 C   0  0  0  0  0  0  0  0  0  0  0  0
   -7.4990   22.4980  -31.6370 C   0  0  0  0  0  0  0  0  0  0  0  0
   -7.2890   23.7780  -31.1770 C   0  0  0  0  0  0  0  0  0  0  0  0
   -5.9120   23.8830  -30.9930 C   0  0  0  0  0  0  0  0  0  0  0  0
   -5.2430   25.1150  -30.5280 C   0  0  0  0  0  0  0  0  0  0  0  0
   -3.9110   25.4190  -30.9260 N   0  0  0  0  0  0  0  0  0  0  0  0
   -5.8680   25.9270  -29.7920 O   0  0  0  0  0  0  0  0  0  0  0  0
   -5.2930   22.7170  -31.3280 N   0  0  0  0  0  0  0  0  0  0  0  0
   -3.9030   22.3870  -31.1650 C   0  0  0  0  0  0  0  0  0  0  0  0
   -3.1750   22.2060  -32.1810 O   0  0  0  0  0  0  0  0  0  0  0  0
   -3.3730   22.2310  -29.8800 O   0  0  0  0  0  0  0  0  0  0  0  0
   -2.4530   23.1500  -29.2940 C   0  0  0  0  0  0  0  0  0  0  0  0
   -3.1450   24.2290  -28.6670 O   0  0  0  0  0  0  0  0  0  0  0  0
   -3.2890   24.3410  -27.2800 C   0  0  0  0  0  0  0  0  0  0  0  0
   -4.4230   24.1940  -26.7410 O   0  0  0  0  0  0  0  0  0  0  0  0
   -2.0630   24.5650  -26.4400 C   0  0  0  0  0  0  0  0  0  0  0  0
   -1.1640   25.7010  -26.9540 C   0  0  0  0  0  0  0  0  0  0  0  0
   -0.6980   25.4410  -28.3570 C   0  0  0  0  0  0  0  0  0  0  0  0
   -1.2330   26.0380  -29.3260 O   0  0  0  0  0  0  0  0  0  0  0  0
    0.3510   24.5570  -28.5920 O   0  0  0  0  0  0  0  0  0  0  0  0
   -6.2770   21.8770  -31.7190 C   0  0  0  0  0  0  0  0  0  0  0  0
   -6.1760   20.5260  -32.0750 C   0  0  0  0  0  0  0  0  0  0  0  0
   -7.1919   16.2032  -33.3054 H   0  0  0  0  0  0  0  0  0  0  0  0
   -9.5311   19.9481  -32.6029 H   0  0  0  0  0  0  0  0  0  0  0  0
   -9.6545   22.3601  -31.8865 H   0  0  0  0  0  0  0  0  0  0  0  0
   -8.0473   24.5535  -30.9936 H   0  0  0  0  0  0  0  0  0  0  0  0
   -3.1130   25.3020  -30.2630 H   0  0  0  0  0  0  0  0  0  0  0  0
   -1.8477   22.6238  -28.5412 H   0  0  0  0  0  0  0  0  0  0  0  0
   -1.8084   23.5576  -30.0867 H   0  0  0  0  0  0  0  0  0  0  0  0
   -2.3828   24.8106  -25.4166 H   0  0  0  0  0  0  0  0  0  0  0  0
   -1.4696   23.6398  -26.4822 H   0  0  0  0  0  0  0  0  0  0  0  0
   -1.7318   26.6429  -26.9346 H   0  0  0  0  0  0  0  0  0  0  0  0
   -0.2799   25.7635  -26.3024 H   0  0  0  0  0  0  0  0  0  0  0  0
   -5.1991   20.0216  -32.1102 H   0  0  0  0  0  0  0  0  0  0  0  0
  1  2  3  0
  2  3  1  0
  3  4  2  0
  4  5  1  0
  5  6  2  0
  6  7  1  0
  7  8  2  0
  8  9  1  0
  9 10  1  0
  9 11  2  0
  8 12  1  0
 12 13  1  0
 13 14  2  0
 13 15  1  0
 15 16  1  0
 16 17  1  0
 17 18  1  0
 18 19  2  0
 18 20  1  0
 20 21  1  0
 21 22  1  0
 22 23  2  0
 22 24  1  0
 12 25  1  0
 25 26  2  0
 26  3  1  0
 25  6  1  0
  1 27  1  0
  4 28  1  0
  5 29  1  0
  7 30  1  0
 10 31  1  0
 16 32  1  0
 16 33  1  0
 20 34  1  0
 20 35  1  0
 21 36  1  0
 21 37  1  0
 26 38  1  0
M  CHG  2  10  -1  24  -1
M  END
>  <UniqueID>  (20) 
20

>  <SMILES>  (20) 
C#Cc1ccc2cc(C([NH-])=O)n(C(=O)OCOC(=O)CCC(=O)[O-])c2c1

>  <Energy>  (20) 
70.2013058581204

>  <Genealogy>  (20) 
C#Cc1ccc2cc(C([NH-])=O)n(C(=O)OCOC(=O)CCC(=O)[O-])c2c1 (protonated)
C#Cc1ccc2cc(C([NH-])=O)n(C(=O)OCOC(=O)CCC(=O)[O-])c2c1 (3D coordinates assigned)
C#Cc1ccc2cc(C([NH-])=O)n(C(=O)OCOC(=O)CCC(=O)[O-])c2c1 (optimized conformer: 70.2013058581204 kcal/mol)

>  <smiles>  (20) 
C#Cc1ccc2cc(C(N)=O)n(C(=O)OCOC(=O)CCC(=O)O)c2c1

>  <score_type>  (20) 
oracle

>  <origin>  (20) 
adg

>  <m_score__min__energy>  (20) 
-12.57

>  <m_primary>  (20) 
energy

$$$$
21:0
     RDKit          3D

 39 41  0  0  0  0  0  0  0  0999 V2000
   -7.0300   17.7210  -32.4690 C   0  0  0  0  0  0  0  0  0  0  0  0
   -7.9530   18.7590  -32.9140 N   0  0  0  0  0  0  0  0  0  0  0  0
   -7.9040   20.1200  -32.4450 C   0  0  0  0  0  0  0  0  0  0  0  0
   -9.0760   20.9180  -32.3560 C   0  0  0  0  0  0  0  0  0  0  0  0
   -9.0090   22.2420  -31.8870 C   0  0  0  0  0  0  0  0  0  0  0  0
   -7.7650   22.7430  -31.5230 C   0  0  0  0  0  0  0  0  0  0  0  0
   -7.4210   23.9770  -31.0190 C   0  0  0  0  0  0  0  0  0  0  0  0
   -6.0420   23.9290  -30.8330 C   0  0  0  0  0  0  0  0  0  0  0  0
   -5.2420   25.0900  -30.3900 C   0  0  0  0  0  0  0  0  0  0  0  0
   -3.9020   25.2730  -30.8380 N   0  0  0  0  0  0  0  0  0  0  0  0
   -5.7670   25.9590  -29.6430 O   0  0  0  0  0  0  0  0  0  0  0  0
   -5.5520   22.7080  -31.1940 N   0  0  0  0  0  0  0  0  0  0  0  0
   -4.2030   22.2280  -31.0840 C   0  0  0  0  0  0  0  0  0  0  0  0
   -3.3010   22.7230  -31.8150 O   0  0  0  0  0  0  0  0  0  0  0  0
   -3.8990   21.2380  -30.1420 O   0  0  0  0  0  0  0  0  0  0  0  0
   -3.0670   21.4080  -29.0260 C   0  0  0  0  0  0  0  0  0  0  0  0
   -2.8890   20.4630  -28.2080 O   0  0  0  0  0  0  0  0  0  0  0  0
   -2.3990   22.7100  -28.8100 C   0  0  0  0  0  0  0  0  0  0  0  0
   -1.1600   22.9910  -29.4160 C   0  0  0  0  0  0  0  0  0  0  0  0
   -0.5350   24.2260  -29.2090 C   0  0  0  0  0  0  0  0  0  0  0  0
   -1.1390   25.1900  -28.3980 C   0  0  0  0  0  0  0  0  0  0  0  0
   -0.5170   26.4170  -28.1950 O   0  0  0  0  0  0  0  0  0  0  0  0
   -2.3700   24.9210  -27.7920 C   0  0  0  0  0  0  0  0  0  0  0  0
   -2.9980   23.6890  -27.9960 C   0  0  0  0  0  0  0  0  0  0  0  0
   -6.6200   21.9960  -31.6190 C   0  0  0  0  0  0  0  0  0  0  0  0
   -6.6600   20.6690  -32.0630 C   0  0  0  0  0  0  0  0  0  0  0  0
   -7.0082   17.6965  -31.3695 H   0  0  0  0  0  0  0  0  0  0  0  0
   -7.3640   16.7450  -32.8510 H   0  0  0  0  0  0  0  0  0  0  0  0
   -6.0217   17.9386  -32.8510 H   0  0  0  0  0  0  0  0  0  0  0  0
   -8.6870   18.4890  -33.6080 H   0  0  0  0  0  0  0  0  0  0  0  0
  -10.0461   20.4957  -32.6571 H   0  0  0  0  0  0  0  0  0  0  0  0
   -9.9141   22.8624  -31.8106 H   0  0  0  0  0  0  0  0  0  0  0  0
   -8.0931   24.8218  -30.8080 H   0  0  0  0  0  0  0  0  0  0  0  0
   -3.1980   24.5070  -30.7540 H   0  0  0  0  0  0  0  0  0  0  0  0
   -0.6803   22.2357  -30.0558 H   0  0  0  0  0  0  0  0  0  0  0  0
    0.4334   24.4380  -29.6856 H   0  0  0  0  0  0  0  0  0  0  0  0
   -2.8451   25.6803  -27.1535 H   0  0  0  0  0  0  0  0  0  0  0  0
   -3.9667   23.4835  -27.5171 H   0  0  0  0  0  0  0  0  0  0  0  0
   -5.7413   20.0661  -32.1134 H   0  0  0  0  0  0  0  0  0  0  0  0
  1  2  1  0
  2  3  1  0
  3  4  2  0
  4  5  1  0
  5  6  2  0
  6  7  1  0
  7  8  2  0
  8  9  1  0
  9 10  1  0
  9 11  2  0
  8 12  1  0
 12 13  1  0
 13 14  2  0
 13 15  1  0
 15 16  1  0
 16 17  2  0
 16 18  1  0
 18 19  2  0
 19 20  1  0
 20 21  2  0
 21 22  1  0
 21 23  1  0
 23 24  2  0
 12 25  1  0
 25 26  2  0
 26  3  1  0
 25  6  1  0
 24 18  1  0
  1 27  1  0
  1 28  1  0
  1 29  1  0
  2 30  1  0
  4 31  1  0
  5 32  1  0
  7 33  1  0
 10 34  1  0
 19 35  1  0
 20 36  1  0
 23 37  1  0
 24 38  1  0
 26 39  1  0
M  CHG  2  10  -1  22  -1
M  END
>  <UniqueID>  (21) 
21

>  <SMILES>  (21) 
CNc1ccc2cc(C([NH-])=O)n(C(=O)OC(=O)c3ccc([O-])cc3)c2c1

>  <Energy>  (21) 
81.00215100011492

>  <Genealogy>  (21) 
CNc1ccc2cc(C([NH-])=O)n(C(=O)OC(=O)c3ccc([O-])cc3)c2c1 (protonated)
CNc1ccc2cc(C([NH-])=O)n(C(=O)OC(=O)c3ccc([O-])cc3)c2c1 (3D coordinates assigned)
CNc1ccc2cc(C([NH-])=O)n(C(=O)OC(=O)c3ccc([O-])cc3)c2c1 (optimized conformer: 81.00215100011492 kcal/mol)

>  <smiles>  (21) 
CNc1ccc2cc(C(N)=O)n(C(=O)OC(=O)c3ccc(O)cc3)c2c1

>  <score_type>  (21) 
oracle

>  <origin>  (21) 
adg

>  <m_score__min__energy>  (21) 
-11.9

>  <m_primary>  (21) 
energy

$$$$
22:0
     RDKit          3D

 31 32  0  0  0  0  0  0  0  0999 V2000
   -3.9680   24.1560  -27.2960 C   0  0  0  0  0  0  0  0  0  0  0  0
   -3.5130   23.3970  -28.1140 C   0  0  0  0  0  0  0  0  0  0  0  0
   -2.9610   22.4780  -29.1110 C   0  0  0  0  0  0  0  0  0  0  0  0
   -2.9690   23.1090  -30.3850 O   0  0  0  0  0  0  0  0  0  0  0  0
   -3.8390   22.7300  -31.4110 C   0  0  0  0  0  0  0  0  0  0  0  0
   -3.3890   22.1930  -32.4600 O   0  0  0  0  0  0  0  0  0  0  0  0
   -5.2460   22.9810  -31.2790 N   0  0  0  0  0  0  0  0  0  0  0  0
   -5.8580   24.0940  -30.7800 C   0  0  0  0  0  0  0  0  0  0  0  0
   -5.1910   25.3590  -30.4090 C   0  0  0  0  0  0  0  0  0  0  0  0
   -3.8660   25.6490  -30.8480 N   0  0  0  0  0  0  0  0  0  0  0  0
   -5.8180   26.2200  -29.7360 O   0  0  0  0  0  0  0  0  0  0  0  0
   -7.2380   23.9170  -30.7410 C   0  0  0  0  0  0  0  0  0  0  0  0
   -7.4600   22.6550  -31.2440 C   0  0  0  0  0  0  0  0  0  0  0  0
   -8.6520   21.9640  -31.4330 C   0  0  0  0  0  0  0  0  0  0  0  0
   -8.5830   20.6600  -31.9530 C   0  0  0  0  0  0  0  0  0  0  0  0
   -7.3300   20.0720  -32.2570 C   0  0  0  0  0  0  0  0  0  0  0  0
   -7.2680   18.6870  -32.8330 C   0  0  0  0  0  0  0  0  0  0  0  0
   -5.6930   18.4790  -33.8040 P   0  0  0  0  0  0  0  0  0  0  0  0
   -5.7430   18.4020  -35.3520 O   0  0  0  0  0  0  0  0  0  0  0  0
   -6.1410   20.8080  -32.0620 C   0  0  0  0  0  0  0  0  0  0  0  0
   -6.2420   22.1120  -31.5610 C   0  0  0  0  0  0  0  0  0  0  0  0
   -4.3833   24.8488  -26.5493 H   0  0  0  0  0  0  0  0  0  0  0  0
   -1.9285   22.2154  -28.8372 H   0  0  0  0  0  0  0  0  0  0  0  0
   -3.5714   21.5637  -29.1481 H   0  0  0  0  0  0  0  0  0  0  0  0
   -3.0360   25.2890  -30.3280 H   0  0  0  0  0  0  0  0  0  0  0  0
   -7.9919   24.6340  -30.3838 H   0  0  0  0  0  0  0  0  0  0  0  0
   -9.6195   22.4240  -31.1831 H   0  0  0  0  0  0  0  0  0  0  0  0
   -9.5088   20.0915  -32.1253 H   0  0  0  0  0  0  0  0  0  0  0  0
   -7.2939   17.9503  -32.0166 H   0  0  0  0  0  0  0  0  0  0  0  0
   -8.1292   18.5314  -33.4994 H   0  0  0  0  0  0  0  0  0  0  0  0
   -5.1605   20.3685  -32.2975 H   0  0  0  0  0  0  0  0  0  0  0  0
  1  2  3  0
  2  3  1  0
  3  4  1  0
  4  5  1  0
  5  6  2  0
  5  7  1  0
  7  8  1  0
  8  9  1  0
  9 10  1  0
  9 11  2  0
  8 12  2  0
 12 13  1  0
 13 14  2  0
 14 15  1  0
 15 16  2  0
 16 17  1  0
 17 18  1  0
 18 19  2  0
 16 20  1  0
 20 21  2  0
 21  7  1  0
 21 13  1  0
  1 22  1  0
  3 23  1  0
  3 24  1  0
 10 25  1  0
 12 26  1  0
 14 27  1  0
 15 28  1  0
 17 29  1  0
 17 30  1  0
 20 31  1  0
M  CHG  1  10  -1
M  END
>  <UniqueID>  (22) 
22

>  <SMILES>  (22) 
C#CCOC(=O)n1c(C([NH-])=O)cc2ccc(CP=O)cc21

>  <Energy>  (22) 
63.52938860544285

>  <Genealogy>  (22) 
C#CCOC(=O)n1c(C([NH-])=O)cc2ccc(CP=O)cc21 (protonated)
C#CCOC(=O)n1c(C([NH-])=O)cc2ccc(CP=O)cc21 (3D coordinates assigned)
C#CCOC(=O)n1c(C([NH-])=O)cc2ccc(CP=O)cc21 (optimized conformer: 63.52938860544285 kcal/mol)

>  <smiles>  (22) 
C#CCOC(=O)n1c(C(N)=O)cc2ccc(CP=O)cc21

>  <score_type>  (22) 
oracle

>  <origin>  (22) 
adg

>  <m_score__min__energy>  (22) 
-10.06

>  <m_primary>  (22) 
energy

$$$$
23:0
     RDKit          3D

 35 36  0  0  0  0  0  0  0  0999 V2000
   -2.7270   19.6290  -33.7730 C   0  0  0  0  0  0  0  0  0  0  0  0
   -2.6680   18.1790  -33.3170 C   0  0  0  0  0  0  0  0  0  0  0  0
   -3.5220   17.3620  -34.1700 N   0  0  0  0  0  0  0  0  0  0  0  0
   -4.9540   17.4050  -34.1550 C   0  0  0  0  0  0  0  0  0  0  0  0
   -5.5890   16.4280  -33.6770 O   0  0  0  0  0  0  0  0  0  0  0  0
   -5.7140   18.6030  -34.6520 C   0  0  0  0  0  0  0  0  0  0  0  0
   -6.8800   18.8660  -33.8050 N   0  0  0  0  0  0  0  0  0  0  0  0
   -7.0510   20.0800  -33.0520 C   0  0  0  0  0  0  0  0  0  0  0  0
   -8.3370   20.5270  -32.6410 C   0  0  0  0  0  0  0  0  0  0  0  0
   -8.4840   21.7140  -31.9050 C   0  0  0  0  0  0  0  0  0  0  0  0
   -7.3360   22.4360  -31.5940 C   0  0  0  0  0  0  0  0  0  0  0  0
   -7.1910   23.6070  -30.8870 C   0  0  0  0  0  0  0  0  0  0  0  0
   -5.8230   23.8720  -30.8860 C   0  0  0  0  0  0  0  0  0  0  0  0
   -5.2410   25.1060  -30.3180 C   0  0  0  0  0  0  0  0  0  0  0  0
   -4.0240   25.6250  -30.8510 N   0  0  0  0  0  0  0  0  0  0  0  0
   -5.7780   25.6810  -29.3360 O   0  0  0  0  0  0  0  0  0  0  0  0
   -5.1460   22.8920  -31.5530 N   0  0  0  0  0  0  0  0  0  0  0  0
   -3.7280   22.7290  -31.7160 C   0  0  0  0  0  0  0  0  0  0  0  0
   -2.9190   23.1820  -30.8630 O   0  0  0  0  0  0  0  0  0  0  0  0
   -6.0890   22.0270  -31.9870 C   0  0  0  0  0  0  0  0  0  0  0  0
   -5.9120   20.8440  -32.7120 C   0  0  0  0  0  0  0  0  0  0  0  0
   -2.7539   20.2891  -32.8935 H   0  0  0  0  0  0  0  0  0  0  0  0
   -1.8375   19.8597  -34.3776 H   0  0  0  0  0  0  0  0  0  0  0  0
   -3.6323   19.7867  -34.3776 H   0  0  0  0  0  0  0  0  0  0  0  0
   -1.6314   17.8167  -33.3826 H   0  0  0  0  0  0  0  0  0  0  0  0
   -3.0179   18.1092  -32.2765 H   0  0  0  0  0  0  0  0  0  0  0  0
   -5.0522   19.4815  -34.6379 H   0  0  0  0  0  0  0  0  0  0  0  0
   -6.0600   18.4015  -35.6765 H   0  0  0  0  0  0  0  0  0  0  0  0
   -7.6240   18.1330  -33.7330 H   0  0  0  0  0  0  0  0  0  0  0  0
   -9.2271   19.9360  -32.9027 H   0  0  0  0  0  0  0  0  0  0  0  0
   -9.4768   22.0624  -31.5841 H   0  0  0  0  0  0  0  0  0  0  0  0
   -7.9865   24.2071  -30.4211 H   0  0  0  0  0  0  0  0  0  0  0  0
   -3.1000   25.3060  -30.4840 H   0  0  0  0  0  0  0  0  0  0  0  0
   -3.3423   22.2000  -32.6000 H   0  0  0  0  0  0  0  0  0  0  0  0
   -4.9060   20.5149  -33.0116 H   0  0  0  0  0  0  0  0  0  0  0  0
  1  2  1  0
  2  3  1  0
  3  4  1  0
  4  5  2  0
  4  6  1  0
  6  7  1  0
  7  8  1  0
  8  9  2  0
  9 10  1  0
 10 11  2  0
 11 12  1  0
 12 13  2  0
 13 14  1  0
 14 15  1  0
 14 16  2  0
 13 17  1  0
 17 18  1  0
 18 19  2  0
 17 20  1  0
 20 21  2  0
 21  8  1  0
 20 11  1  0
  1 22  1  0
  1 23  1  0
  1 24  1  0
  2 25  1  0
  2 26  1  0
  6 27  1  0
  6 28  1  0
  7 29  1  0
  9 30  1  0
 10 31  1  0
 12 32  1  0
 15 33  1  0
 18 34  1  0
 21 35  1  0
M  CHG  2   3  -1  15  -1
M  END
>  <UniqueID>  (23) 
23

>  <SMILES>  (23) 
CC[N-]C(=O)CNc1ccc2cc(C([NH-])=O)n(C=O)c2c1

>  <Energy>  (23) 
67.00316526085564

>  <Genealogy>  (23) 
CC[N-]C(=O)CNc1ccc2cc(C([NH-])=O)n(C=O)c2c1 (protonated)
CC[N-]C(=O)CNc1ccc2cc(C([NH-])=O)n(C=O)c2c1 (3D coordinates assigned)
CC[N-]C(=O)CNc1ccc2cc(C([NH-])=O)n(C=O)c2c1 (optimized conformer: 67.00316526085564 kcal/mol)

>  <smiles>  (23) 
CCNC(=O)CNc1ccc2cc(C(N)=O)n(C=O)c2c1

>  <score_type>  (23) 
oracle

>  <origin>  (23) 
adg

>  <m_score__min__energy>  (23) 
-9.4700000000000006

>  <m_primary>  (23) 
energy

$$$$
24:0
     RDKit          3D

 44 45  0  0  0  0  0  0  0  0999 V2000
   -5.7550   18.5460  -34.7880 C   0  0  0  0  0  0  0  0  0  0  0  0
   -6.5740   18.6370  -33.5730 N   0  0  0  0  0  0  0  0  0  0  0  0
   -7.1520   17.4020  -33.0220 C   0  0  0  0  0  0  0  0  0  0  0  0
   -6.5090   16.1960  -33.6350 C   0  0  0  0  0  0  0  0  0  0  0  0
   -5.3410   15.8630  -33.3010 O   0  0  0  0  0  0  0  0  0  0  0  0
   -7.2110   15.4150  -34.5440 O   0  0  0  0  0  0  0  0  0  0  0  0
   -6.7770   19.9190  -32.9240 C   0  0  0  0  0  0  0  0  0  0  0  0
   -8.0920   20.3920  -32.6530 C   0  0  0  0  0  0  0  0  0  0  0  0
   -8.3030   21.6260  -32.0160 C   0  0  0  0  0  0  0  0  0  0  0  0
   -7.1890   22.3790  -31.6670 C   0  0  0  0  0  0  0  0  0  0  0  0
   -7.1080   23.5920  -31.0210 C   0  0  0  0  0  0  0  0  0  0  0  0
   -5.7450   23.8670  -30.9250 C   0  0  0  0  0  0  0  0  0  0  0  0
   -5.2050   25.1220  -30.3620 C   0  0  0  0  0  0  0  0  0  0  0  0
   -3.9680   25.6420  -30.8450 N   0  0  0  0  0  0  0  0  0  0  0  0
   -5.8060   25.7230  -29.4330 O   0  0  0  0  0  0  0  0  0  0  0  0
   -5.0140   22.8610  -31.4830 N   0  0  0  0  0  0  0  0  0  0  0  0
   -3.5850   22.7320  -31.5180 C   0  0  0  0  0  0  0  0  0  0  0  0
   -3.0310   22.2000  -32.5180 O   0  0  0  0  0  0  0  0  0  0  0  0
   -2.8250   23.1790  -30.4270 O   0  0  0  0  0  0  0  0  0  0  0  0
   -2.6920   22.5240  -29.1570 C   0  0  0  0  0  0  0  0  0  0  0  0
   -1.3340   22.8630  -28.5130 C   0  0  0  0  0  0  0  0  0  0  0  0
   -2.7520   21.0120  -29.4200 C   0  0  0  0  0  0  0  0  0  0  0  0
   -3.8520   22.9130  -28.2210 C   0  0  0  0  0  0  0  0  0  0  0  0
   -5.9140   21.9580  -31.9340 C   0  0  0  0  0  0  0  0  0  0  0  0
   -5.6720   20.7250  -32.5480 C   0  0  0  0  0  0  0  0  0  0  0  0
   -4.6974   18.4285  -34.5093 H   0  0  0  0  0  0  0  0  0  0  0  0
   -6.0762   17.6780  -35.3825 H   0  0  0  0  0  0  0  0  0  0  0  0
   -5.8778   19.4633  -35.3825 H   0  0  0  0  0  0  0  0  0  0  0  0
   -6.9917   17.3827  -31.9339 H   0  0  0  0  0  0  0  0  0  0  0  0
   -8.2279   17.3831  -33.2502 H   0  0  0  0  0  0  0  0  0  0  0  0
   -8.9578   19.7807  -32.9475 H   0  0  0  0  0  0  0  0  0  0  0  0
   -9.3199   21.9854  -31.8000 H   0  0  0  0  0  0  0  0  0  0  0  0
   -7.9411   24.2118  -30.6581 H   0  0  0  0  0  0  0  0  0  0  0  0
   -3.0580   25.2950  -30.4710 H   0  0  0  0  0  0  0  0  0  0  0  0
   -1.4314   22.8387  -27.4176 H   0  0  0  0  0  0  0  0  0  0  0  0
   -0.5830   22.1248  -28.8308 H   0  0  0  0  0  0  0  0  0  0  0  0
   -1.0181   23.8676  -28.8308 H   0  0  0  0  0  0  0  0  0  0  0  0
   -2.7734   20.4736  -28.4610 H   0  0  0  0  0  0  0  0  0  0  0  0
   -3.6602   20.7754  -29.9937 H   0  0  0  0  0  0  0  0  0  0  0  0
   -1.8654   20.7041  -29.9937 H   0  0  0  0  0  0  0  0  0  0  0  0
   -3.5307   22.8052  -27.1745 H   0  0  0  0  0  0  0  0  0  0  0  0
   -4.1413   23.9573  -28.4101 H   0  0  0  0  0  0  0  0  0  0  0  0
   -4.7124   22.2542  -28.4101 H   0  0  0  0  0  0  0  0  0  0  0  0
   -4.6426   20.3861  -32.7361 H   0  0  0  0  0  0  0  0  0  0  0  0
  1  2  1  0
  2  3  1  0
  3  4  1  0
  4  5  2  0
  4  6  1  0
  2  7  1  0
  7  8  2  0
  8  9  1  0
  9 10  2  0
 10 11  1  0
 11 12  2  0
 12 13  1  0
 13 14  1  0
 13 15  2  0
 12 16  1  0
 16 17  1  0
 17 18  2  0
 17 19  1  0
 19 20  1  0
 20 21  1  0
 20 22  1  0
 20 23  1  0
 16 24  1  0
 24 25  2  0
 25  7  1  0
 24 10  1  0
  1 26  1  0
  1 27  1  0
  1 28  1  0
  3 29  1  0
  3 30  1  0
  8 31  1  0
  9 32  1  0
 11 33  1  0
 14 34  1  0
 21 35  1  0
 21 36  1  0
 21 37  1  0
 22 38  1  0
 22 39  1  0
 22 40  1  0
 23 41  1  0
 23 42  1  0
 23 43  1  0
 25 44  1  0
M  CHG  2   6  -1  14  -1
M  END
>  <UniqueID>  (24) 
24

>  <SMILES>  (24) 
CN(CC(=O)[O-])c1ccc2cc(C([NH-])=O)n(C(=O)OC(C)(C)C)c2c1

>  <Energy>  (24) 
78.8690009461194

>  <Genealogy>  (24) 
CN(CC(=O)[O-])c1ccc2cc(C([NH-])=O)n(C(=O)OC(C)(C)C)c2c1 (protonated)
CN(CC(=O)[O-])c1ccc2cc(C([NH-])=O)n(C(=O)OC(C)(C)C)c2c1 (3D coordinates assigned)
CN(CC(=O)[O-])c1ccc2cc(C([NH-])=O)n(C(=O)OC(C)(C)C)c2c1 (optimized conformer: 78.8690009461194 kcal/mol)

>  <smiles>  (24) 
CN(CC(=O)O)c1ccc2cc(C(N)=O)n(C(=O)OC(C)(C)C)c2c1

>  <score_type>  (24) 
oracle

>  <origin>  (24) 
adg

>  <m_score__min__energy>  (24) 
-9.9499999999999993

>  <m_primary>  (24) 
energy

$$$$
25:0
     RDKit          3D

 35 36  0  0  0  0  0  0  0  0999 V2000
   -3.9050   23.9940  -27.3570 C   0  0  0  0  0  0  0  0  0  0  0  0
   -2.6300   23.7550  -27.6550 C   0  0  0  0  0  0  0  0  0  0  0  0
   -1.9690   24.3720  -28.8150 C   0  0  0  0  0  0  0  0  0  0  0  0
   -1.9630   25.6280  -28.9220 O   0  0  0  0  0  0  0  0  0  0  0  0
   -1.3560   23.5730  -29.7870 O   0  0  0  0  0  0  0  0  0  0  0  0
   -1.8720   22.3070  -30.1900 C   0  0  0  0  0  0  0  0  0  0  0  0
   -3.2970   22.3370  -30.2030 O   0  0  0  0  0  0  0  0  0  0  0  0
   -4.0410   22.4630  -31.3800 C   0  0  0  0  0  0  0  0  0  0  0  0
   -3.4910   22.2960  -32.5040 O   0  0  0  0  0  0  0  0  0  0  0  0
   -5.4350   22.7930  -31.3090 N   0  0  0  0  0  0  0  0  0  0  0  0
   -5.9960   23.9620  -30.8900 C   0  0  0  0  0  0  0  0  0  0  0  0
   -5.2680   25.2070  -30.5660 C   0  0  0  0  0  0  0  0  0  0  0  0
   -3.8750   25.3350  -30.8410 N   0  0  0  0  0  0  0  0  0  0  0  0
   -5.8940   26.1890  -30.0830 O   0  0  0  0  0  0  0  0  0  0  0  0
   -7.3860   23.8640  -30.8900 C   0  0  0  0  0  0  0  0  0  0  0  0
   -7.6620   22.5920  -31.3380 C   0  0  0  0  0  0  0  0  0  0  0  0
   -8.8850   21.9560  -31.5350 C   0  0  0  0  0  0  0  0  0  0  0  0
   -8.8700   20.6270  -31.9900 C   0  0  0  0  0  0  0  0  0  0  0  0
   -7.6430   19.9560  -32.2190 C   0  0  0  0  0  0  0  0  0  0  0  0
   -7.6410   18.5450  -32.7290 C   0  0  0  0  0  0  0  0  0  0  0  0
   -8.5470   17.7930  -32.0070 F   0  0  0  0  0  0  0  0  0  0  0  0
   -6.4220   20.6370  -32.0210 C   0  0  0  0  0  0  0  0  0  0  0  0
   -6.4670   21.9660  -31.5840 C   0  0  0  0  0  0  0  0  0  0  0  0
   -4.3644   23.5135  -26.4806 H   0  0  0  0  0  0  0  0  0  0  0  0
   -4.4993   24.6720  -27.9871 H   0  0  0  0  0  0  0  0  0  0  0  0
   -2.0520   23.0740  -27.0130 H   0  0  0  0  0  0  0  0  0  0  0  0
   -1.5045   22.0696  -31.1992 H   0  0  0  0  0  0  0  0  0  0  0  0
   -1.5360   21.5394  -29.4773 H   0  0  0  0  0  0  0  0  0  0  0  0
   -3.1920   24.6240  -30.4950 H   0  0  0  0  0  0  0  0  0  0  0  0
   -8.1091   24.6386  -30.5947 H   0  0  0  0  0  0  0  0  0  0  0  0
   -9.8335   22.4781  -31.3404 H   0  0  0  0  0  0  0  0  0  0  0  0
   -9.8198   20.1022  -32.1702 H   0  0  0  0  0  0  0  0  0  0  0  0
   -7.9241   18.5389  -33.7919 H   0  0  0  0  0  0  0  0  0  0  0  0
   -6.6348   18.1154  -32.6150 H   0  0  0  0  0  0  0  0  0  0  0  0
   -5.4602   20.1360  -32.2054 H   0  0  0  0  0  0  0  0  0  0  0  0
  1  2  2  0
  2  3  1  0
  3  4  2  0
  3  5  1  0
  5  6  1  0
  6  7  1  0
  7  8  1  0
  8  9  2  0
  8 10  1  0
 10 11  1  0
 11 12  1  0
 12 13  1  0
 12 14  2  0
 11 15  2  0
 15 16  1  0
 16 17  2  0
 17 18  1  0
 18 19  2  0
 19 20  1  0
 20 21  1  0
 19 22  1  0
 22 23  2  0
 23 10  1  0
 23 16  1  0
  1 24  1  0
  1 25  1  0
  2 26  1  0
  6 27  1  0
  6 28  1  0
 13 29  1  0
 15 30  1  0
 17 31  1  0
 18 32  1  0
 20 33  1  0
 20 34  1  0
 22 35  1  0
M  CHG  1  13  -1
M  END
>  <UniqueID>  (25) 
25

>  <SMILES>  (25) 
C=CC(=O)OCOC(=O)n1c(C([NH-])=O)cc2ccc(CF)cc21

>  <Energy>  (25) 
67.76758606883145

>  <Genealogy>  (25) 
C=CC(=O)OCOC(=O)n1c(C([NH-])=O)cc2ccc(CF)cc21 (protonated)
C=CC(=O)OCOC(=O)n1c(C([NH-])=O)cc2ccc(CF)cc21 (3D coordinates assigned)
C=CC(=O)OCOC(=O)n1c(C([NH-])=O)cc2ccc(CF)cc21 (optimized conformer: 67.76758606883145 kcal/mol)

>  <smiles>  (25) 
C=CC(=O)OCOC(=O)n1c(C(N)=O)cc2ccc(CF)cc21

>  <score_type>  (25) 
oracle

>  <origin>  (25) 
adg

>  <m_score__min__energy>  (25) 
-9.5299999999999994

>  <m_primary>  (25) 
energy

$$$$
26:0
     RDKit          3D

 41 42  0  0  0  0  0  0  0  0999 V2000
   -0.6950   22.2990  -30.3430 C   0  0  0  0  0  0  0  0  0  0  0  0
   -1.6330   22.8780  -29.3600 N   0  0  1  0  0  0  0  0  0  0  0  0
   -2.6470   21.8910  -28.9150 C   0  0  0  0  0  0  0  0  0  0  0  0
   -3.5850   21.3890  -30.0370 C   0  0  0  0  0  0  0  0  0  0  0  0
   -3.9880   22.5100  -30.9530 C   0  0  0  0  0  0  0  0  0  0  0  0
   -3.1220   23.0580  -31.6870 O   0  0  0  0  0  0  0  0  0  0  0  0
   -5.3650   22.9110  -31.0580 N   0  0  0  0  0  0  0  0  0  0  0  0
   -5.8870   24.1460  -30.8180 C   0  0  0  0  0  0  0  0  0  0  0  0
   -5.1140   25.3630  -30.4930 C   0  0  0  0  0  0  0  0  0  0  0  0
   -3.7390   25.2540  -30.1300 N   0  0  0  0  0  0  0  0  0  0  0  0
   -5.6580   26.4980  -30.5080 O   0  0  0  0  0  0  0  0  0  0  0  0
   -7.2710   24.1300  -30.9790 C   0  0  0  0  0  0  0  0  0  0  0  0
   -7.5820   22.8360  -31.3300 C   0  0  0  0  0  0  0  0  0  0  0  0
   -8.8190   22.2520  -31.5890 C   0  0  0  0  0  0  0  0  0  0  0  0
   -8.8490   20.8810  -31.8950 C   0  0  0  0  0  0  0  0  0  0  0  0
   -7.6500   20.1230  -31.9480 C   0  0  0  0  0  0  0  0  0  0  0  0
   -7.6970   18.6410  -32.2190 C   0  0  0  0  0  0  0  0  0  0  0  0
   -6.9300   17.9520  -31.2950 F   0  0  0  0  0  0  0  0  0  0  0  0
   -9.0060   18.2030  -32.1330 F   0  0  0  0  0  0  0  0  0  0  0  0
   -7.2100   18.3580  -33.4830 F   0  0  0  0  0  0  0  0  0  0  0  0
   -6.4170   20.7490  -31.6520 C   0  0  0  0  0  0  0  0  0  0  0  0
   -6.4150   22.1190  -31.3690 C   0  0  0  0  0  0  0  0  0  0  0  0
   -0.9150   23.4940  -28.2170 C   0  0  0  0  0  0  0  0  0  0  0  0
   -0.6510   24.9540  -28.4520 C   0  0  0  0  0  0  0  0  0  0  0  0
    0.2710   25.5400  -27.8270 O   0  0  0  0  0  0  0  0  0  0  0  0
   -1.4450   25.6720  -29.3380 O   0  0  0  0  0  0  0  0  0  0  0  0
    0.1252   21.7927  -29.8130 H   0  0  0  0  0  0  0  0  0  0  0  0
   -1.2276   21.5723  -30.9741 H   0  0  0  0  0  0  0  0  0  0  0  0
   -0.2841   23.1008  -30.9741 H   0  0  0  0  0  0  0  0  0  0  0  0
   -2.1660   23.6350  -29.8540 H   0  0  0  0  0  0  0  0  0  0  0  0
   -2.1199   21.0226  -28.4930 H   0  0  0  0  0  0  0  0  0  0  0  0
   -3.2838   22.4048  -28.1798 H   0  0  0  0  0  0  0  0  0  0  0  0
   -3.0629   20.6178  -30.6224 H   0  0  0  0  0  0  0  0  0  0  0  0
   -4.4927   20.9764  -29.5725 H   0  0  0  0  0  0  0  0  0  0  0  0
   -3.0000   25.1320  -30.8560 H   0  0  0  0  0  0  0  0  0  0  0  0
   -7.9670   24.9724  -30.8525 H   0  0  0  0  0  0  0  0  0  0  0  0
   -9.7444   22.8457  -31.5551 H   0  0  0  0  0  0  0  0  0  0  0  0
   -9.8124   20.3895  -32.0957 H   0  0  0  0  0  0  0  0  0  0  0  0
   -5.4807   20.1718  -31.6445 H   0  0  0  0  0  0  0  0  0  0  0  0
   -1.5269   23.3834  -27.3096 H   0  0  0  0  0  0  0  0  0  0  0  0
    0.0526   22.9834  -28.1029 H   0  0  0  0  0  0  0  0  0  0  0  0
  1  2  1  0
  2  3  1  0
  3  4  1  0
  4  5  1  0
  5  6  2  0
  5  7  1  0
  7  8  1  0
  8  9  1  0
  9 10  1  0
  9 11  2  0
  8 12  2  0
 12 13  1  0
 13 14  2  0
 14 15  1  0
 15 16  2  0
 16 17  1  0
 17 18  1  0
 17 19  1  0
 17 20  1  0
 16 21  1  0
 21 22  2  0
  2 23  1  0
 23 24  1  0
 24 25  2  0
 24 26  1  0
 22  7  1  0
 22 13  1  0
  1 27  1  0
  1 28  1  0
  1 29  1  0
  2 30  1  6
  3 31  1  0
  3 32  1  0
  4 33  1  0
  4 34  1  0
 10 35  1  0
 12 36  1  0
 14 37  1  0
 15 38  1  0
 21 39  1  0
 23 40  1  0
 23 41  1  0
M  CHG  3   2   1  10  -1  26  -1
M  END
>  <UniqueID>  (26) 
26

>  <SMILES>  (26) 
C[N@@H+](CCC(=O)n1c(C([NH-])=O)cc2ccc(C(F)(F)F)cc21)CC(=O)[O-]

>  <Energy>  (26) 
82.11811501921282

>  <Genealogy>  (26) 
C[NH+](CCC(=O)n1c(C([NH-])=O)cc2ccc(C(F)(F)F)cc21)CC(=O)[O-] (protonated)
C[N@@H+](CCC(=O)n1c(C([NH-])=O)cc2ccc(C(F)(F)F)cc21)CC(=O)[O-] (chirality)
C[N@@H+](CCC(=O)n1c(C([NH-])=O)cc2ccc(C(F)(F)F)cc21)CC(=O)[O-] (3D coordinates assigned)
C[N@@H+](CCC(=O)n1c(C([NH-])=O)cc2ccc(C(F)(F)F)cc21)CC(=O)[O-] (optimized conformer: 82.11811501921282 kcal/mol)

>  <smiles>  (26) 
CN(CCC(=O)n1c(C(N)=O)cc2ccc(C(F)(F)F)cc21)CC(=O)O

>  <score_type>  (26) 
oracle

>  <origin>  (26) 
adg

>  <m_score__min__energy>  (26) 
-11.19

>  <m_primary>  (26) 
energy

$$$$
27:0
     RDKit          3D

 44 45  0  0  0  0  0  0  0  0999 V2000
   -1.7110   18.6370  -33.0520 C   0  0  0  0  0  0  0  0  0  0  0  0
   -1.4540   20.0800  -33.0070 N   0  0  0  0  0  0  0  0  0  0  0  0
   -0.0710   20.5800  -33.0300 C   0  0  0  0  0  0  0  0  0  0  0  0
    0.3210   21.0320  -34.4370 C   0  0  0  0  0  0  0  0  0  0  0  0
   -0.2570   22.2720  -34.7410 O   0  0  0  0  0  0  0  0  0  0  0  0
   -2.5580   20.9930  -32.8370 C   0  0  0  0  0  0  0  0  0  0  0  0
   -3.1030   21.5230  -33.8430 O   0  0  0  0  0  0  0  0  0  0  0  0
   -3.0330   21.3340  -31.5270 N   0  0  0  0  0  0  0  0  0  0  0  0
   -2.6160   20.5040  -30.3960 C   0  0  0  0  0  0  0  0  0  0  0  0
   -3.7140   22.5860  -31.3150 C   0  0  0  0  0  0  0  0  0  0  0  0
   -3.0570   23.6270  -31.0430 O   0  0  0  0  0  0  0  0  0  0  0  0
   -5.1440   22.6670  -31.3890 N   0  0  0  0  0  0  0  0  0  0  0  0
   -5.9470   23.6580  -30.9130 C   0  0  0  0  0  0  0  0  0  0  0  0
   -5.4680   24.9160  -30.2940 C   0  0  0  0  0  0  0  0  0  0  0  0
   -5.8920   25.3040  -28.9860 N   0  0  0  0  0  0  0  0  0  0  0  0
   -4.6800   25.6690  -30.9270 O   0  0  0  0  0  0  0  0  0  0  0  0
   -7.2880   23.3360  -31.1290 C   0  0  0  0  0  0  0  0  0  0  0  0
   -7.2740   22.1040  -31.7450 C   0  0  0  0  0  0  0  0  0  0  0  0
   -8.3280   21.2950  -32.1600 C   0  0  0  0  0  0  0  0  0  0  0  0
   -8.0160   20.0520  -32.7370 C   0  0  0  0  0  0  0  0  0  0  0  0
   -6.6660   19.6430  -32.8980 C   0  0  0  0  0  0  0  0  0  0  0  0
   -6.3460   18.2840  -33.4640 C   0  0  0  0  0  0  0  0  0  0  0  0
   -6.1030   18.3670  -34.8250 F   0  0  0  0  0  0  0  0  0  0  0  0
   -5.2210   17.7540  -32.8560 F   0  0  0  0  0  0  0  0  0  0  0  0
   -7.4170   17.4380  -33.2490 F   0  0  0  0  0  0  0  0  0  0  0  0
   -5.6260   20.4840  -32.4380 C   0  0  0  0  0  0  0  0  0  0  0  0
   -5.9680   21.7220  -31.8860 C   0  0  0  0  0  0  0  0  0  0  0  0
   -1.7808   18.2449  -32.0266 H   0  0  0  0  0  0  0  0  0  0  0  0
   -2.6567   18.4493  -33.5816 H   0  0  0  0  0  0  0  0  0  0  0  0
   -0.8882   18.1344  -33.5816 H   0  0  0  0  0  0  0  0  0  0  0  0
    0.0155   21.4326  -32.3404 H   0  0  0  0  0  0  0  0  0  0  0  0
    0.6024   19.7670  -32.7210 H   0  0  0  0  0  0  0  0  0  0  0  0
    1.4159   21.1206  -34.4953 H   0  0  0  0  0  0  0  0  0  0  0  0
   -0.0422   20.2871  -35.1604 H   0  0  0  0  0  0  0  0  0  0  0  0
   -1.2400   22.1370  -34.7530 H   0  0  0  0  0  0  0  0  0  0  0  0
   -2.8713   21.0122  -29.4544 H   0  0  0  0  0  0  0  0  0  0  0  0
   -3.1342   19.5348  -30.4417 H   0  0  0  0  0  0  0  0  0  0  0  0
   -1.5291   20.3412  -30.4417 H   0  0  0  0  0  0  0  0  0  0  0  0
   -6.4900   24.6850  -28.3970 H   0  0  0  0  0  0  0  0  0  0  0  0
   -5.5680   26.2100  -28.5800 H   0  0  0  0  0  0  0  0  0  0  0  0
   -8.1692   23.9385  -30.8635 H   0  0  0  0  0  0  0  0  0  0  0  0
   -9.3725   21.6185  -32.0401 H   0  0  0  0  0  0  0  0  0  0  0  0
   -8.8279   19.3877  -33.0680 H   0  0  0  0  0  0  0  0  0  0  0  0
   -4.5739   20.1716  -32.5128 H   0  0  0  0  0  0  0  0  0  0  0  0
  1  2  1  0
  2  3  1  0
  3  4  1  0
  4  5  1  0
  2  6  1  0
  6  7  2  0
  6  8  1  0
  8  9  1  0
  8 10  1  0
 10 11  2  0
 10 12  1  0
 12 13  1  0
 13 14  1  0
 14 15  1  0
 14 16  2  0
 13 17  2  0
 17 18  1  0
 18 19  2  0
 19 20  1  0
 20 21  2  0
 21 22  1  0
 22 23  1  0
 22 24  1  0
 22 25  1  0
 21 26  1  0
 26 27  2  0
 27 12  1  0
 27 18  1  0
  1 28  1  0
  1 29  1  0
  1 30  1  0
  3 31  1  0
  3 32  1  0
  4 33  1  0
  4 34  1  0
  5 35  1  0
  9 36  1  0
  9 37  1  0
  9 38  1  0
 15 39  1  0
 15 40  1  0
 17 41  1  0
 19 42  1  0
 20 43  1  0
 26 44  1  0
M  END
>  <UniqueID>  (27) 
27

>  <SMILES>  (27) 
CN(CCO)C(=O)N(C)C(=O)n1c(C(N)=O)cc2ccc(C(F)(F)F)cc21

>  <Energy>  (27) 
85.05212171689053

>  <Genealogy>  (27) 
CN(CCO)C(=O)N(C)C(=O)n1c(C(N)=O)cc2ccc(C(F)(F)F)cc21 (3D coordinates assigned)
CN(CCO)C(=O)N(C)C(=O)n1c(C(N)=O)cc2ccc(C(F)(F)F)cc21 (optimized conformer: 85.05212171689053 kcal/mol)

>  <smiles>  (27) 
CN(CCO)C(=O)N(C)C(=O)n1c(C(N)=O)cc2ccc(C(F)(F)F)cc21

>  <score_type>  (27) 
oracle

>  <origin>  (27) 
adg

>  <m_score__min__energy>  (27) 
-8.6600000000000001

>  <m_primary>  (27) 
energy

$$$$
28:0
     RDKit          3D

 38 39  0  0  0  0  0  0  0  0999 V2000
   -3.6480   24.1650  -27.4650 C   0  0  0  0  0  0  0  0  0  0  0  0
   -2.3340   24.9100  -27.6720 C   0  0  0  0  0  0  0  0  0  0  0  0
   -1.9230   24.8350  -29.0360 O   0  0  0  0  0  0  0  0  0  0  0  0
   -1.7840   23.6320  -29.7350 C   0  0  0  0  0  0  0  0  0  0  0  0
   -0.7850   22.8870  -29.5330 O   0  0  0  0  0  0  0  0  0  0  0  0
   -2.7720   23.2780  -30.6620 O   0  0  0  0  0  0  0  0  0  0  0  0
   -3.7910   22.3430  -30.4360 C   0  0  0  0  0  0  0  0  0  0  0  0
   -3.5540   21.2580  -29.8380 O   0  0  0  0  0  0  0  0  0  0  0  0
   -5.1280   22.6370  -30.8730 N   0  0  0  0  0  0  0  0  0  0  0  0
   -5.7600   23.8460  -30.8890 C   0  0  0  0  0  0  0  0  0  0  0  0
   -5.2370   25.1080  -30.3270 C   0  0  0  0  0  0  0  0  0  0  0  0
   -4.0260   25.6620  -30.8360 N   0  0  0  0  0  0  0  0  0  0  0  0
   -5.8650   25.7230  -29.4260 O   0  0  0  0  0  0  0  0  0  0  0  0
   -7.0330   23.7230  -31.4430 C   0  0  0  0  0  0  0  0  0  0  0  0
   -7.1670   22.3910  -31.7610 C   0  0  0  0  0  0  0  0  0  0  0  0
   -8.2340   21.7120  -32.3420 C   0  0  0  0  0  0  0  0  0  0  0  0
   -8.0890   20.3350  -32.5770 C   0  0  0  0  0  0  0  0  0  0  0  0
   -6.8830   19.6690  -32.2440 C   0  0  0  0  0  0  0  0  0  0  0  0
   -6.7440   18.1890  -32.4810 C   0  0  0  0  0  0  0  0  0  0  0  0
   -6.5300   17.4280  -31.1700 C   0  0  0  0  0  0  0  0  0  0  0  0
   -5.6670   16.3390  -31.3620 O   0  0  0  0  0  0  0  0  0  0  0  0
   -5.8250   20.3900  -31.6490 C   0  0  0  0  0  0  0  0  0  0  0  0
   -6.0040   21.7570  -31.4080 C   0  0  0  0  0  0  0  0  0  0  0  0
   -3.8415   24.0553  -26.3877 H   0  0  0  0  0  0  0  0  0  0  0  0
   -4.4682   24.7324  -27.9290 H   0  0  0  0  0  0  0  0  0  0  0  0
   -3.5823   23.1698  -27.9290 H   0  0  0  0  0  0  0  0  0  0  0  0
   -2.4691   25.9654  -27.3928 H   0  0  0  0  0  0  0  0  0  0  0  0
   -1.5604   24.4456  -27.0428 H   0  0  0  0  0  0  0  0  0  0  0  0
   -3.0980   25.2960  -30.5310 H   0  0  0  0  0  0  0  0  0  0  0  0
   -7.7739   24.5219  -31.5941 H   0  0  0  0  0  0  0  0  0  0  0  0
   -9.1626   22.2378  -32.6090 H   0  0  0  0  0  0  0  0  0  0  0  0
   -8.9191   19.7681  -33.0237 H   0  0  0  0  0  0  0  0  0  0  0  0
   -7.6592   17.8171  -32.9648 H   0  0  0  0  0  0  0  0  0  0  0  0
   -5.8663   18.0235  -33.1231 H   0  0  0  0  0  0  0  0  0  0  0  0
   -6.0918   18.1086  -30.4252 H   0  0  0  0  0  0  0  0  0  0  0  0
   -7.5016   17.0506  -30.8185 H   0  0  0  0  0  0  0  0  0  0  0  0
   -5.5050   15.9400  -30.4680 H   0  0  0  0  0  0  0  0  0  0  0  0
   -4.8828   19.8895  -31.3813 H   0  0  0  0  0  0  0  0  0  0  0  0
  1  2  1  0
  2  3  1  0
  3  4  1  0
  4  5  2  0
  4  6  1  0
  6  7  1  0
  7  8  2  0
  7  9  1  0
  9 10  1  0
 10 11  1  0
 11 12  1  0
 11 13  2  0
 10 14  2  0
 14 15  1  0
 15 16  2  0
 16 17  1  0
 17 18  2  0
 18 19  1  0
 19 20  1  0
 20 21  1  0
 18 22  1  0
 22 23  2  0
 23  9  1  0
 23 15  1  0
  1 24  1  0
  1 25  1  0
  1 26  1  0
  2 27  1  0
  2 28  1  0
 12 29  1  0
 14 30  1  0
 16 31  1  0
 17 32  1  0
 19 33  1  0
 19 34  1  0
 20 35  1  0
 20 36  1  0
 21 37  1  0
 22 38  1  0
M  CHG  1  12  -1
M  END
>  <UniqueID>  (28) 
28

>  <SMILES>  (28) 
CCOC(=O)OC(=O)n1c(C([NH-])=O)cc2ccc(CCO)cc21

>  <Energy>  (28) 
71.24781862439814

>  <Genealogy>  (28) 
CCOC(=O)OC(=O)n1c(C([NH-])=O)cc2ccc(CCO)cc21 (protonated)
CCOC(=O)OC(=O)n1c(C([NH-])=O)cc2ccc(CCO)cc21 (3D coordinates assigned)
CCOC(=O)OC(=O)n1c(C([NH-])=O)cc2ccc(CCO)cc21 (optimized conformer: 71.24781862439814 kcal/mol)

>  <smiles>  (28) 
CCOC(=O)OC(=O)n1c(C(N)=O)cc2ccc(CCO)cc21

>  <score_type>  (28) 
oracle

>  <origin>  (28) 
adg

>  <m_score__min__energy>  (28) 
-9.6099999999999994

>  <m_primary>  (28) 
energy

$$$$
29:0
     RDKit          3D

 39 41  0  0  0  0  0  0  0  0999 V2000
   -7.1790   17.6490  -32.5390 C   0  0  0  0  0  0  0  0  0  0  0  0
   -8.0390   18.7560  -32.9430 N   0  0  0  0  0  0  0  0  0  0  0  0
   -7.9110   20.0930  -32.4260 C   0  0  0  0  0  0  0  0  0  0  0  0
   -9.0330   20.9600  -32.3210 C   0  0  0  0  0  0  0  0  0  0  0  0
   -8.8870   22.2660  -31.8260 C   0  0  0  0  0  0  0  0  0  0  0  0
   -7.6170   22.6800  -31.4370 C   0  0  0  0  0  0  0  0  0  0  0  0
   -7.1920   23.8920  -30.9450 C   0  0  0  0  0  0  0  0  0  0  0  0
   -5.8220   23.7470  -30.7350 C   0  0  0  0  0  0  0  0  0  0  0  0
   -4.9750   24.7930  -30.1250 C   0  0  0  0  0  0  0  0  0  0  0  0
   -3.8520   25.3020  -30.8410 N   0  0  0  0  0  0  0  0  0  0  0  0
   -5.2510   25.2680  -28.9920 O   0  0  0  0  0  0  0  0  0  0  0  0
   -5.4160   22.4950  -31.0910 N   0  0  0  0  0  0  0  0  0  0  0  0
   -4.0830   21.9620  -31.0760 C   0  0  0  0  0  0  0  0  0  0  0  0
   -3.2720   22.2650  -31.9920 O   0  0  0  0  0  0  0  0  0  0  0  0
   -3.6960   21.0930  -30.0480 O   0  0  0  0  0  0  0  0  0  0  0  0
   -3.2300   21.5460  -28.7790 C   0  0  0  0  0  0  0  0  0  0  0  0
   -2.2450   22.6620  -28.9500 C   0  0  0  0  0  0  0  0  0  0  0  0
   -2.5260   23.9360  -28.8020 O   0  0  0  0  0  0  0  0  0  0  0  0
   -1.4000   24.5790  -29.0140 C   0  0  0  0  0  0  0  0  0  0  0  0
   -1.2920   25.8320  -28.9610 O   0  0  0  0  0  0  0  0  0  0  0  0
   -0.4000   23.7720  -29.2840 O   0  0  0  0  0  0  0  0  0  0  0  0
   -0.8980   22.5580  -29.2460 C   0  0  0  0  0  0  0  0  0  0  0  0
   -0.1190   21.3100  -29.4970 C   0  0  0  0  0  0  0  0  0  0  0  0
   -6.5270   21.8530  -31.5150 C   0  0  0  0  0  0  0  0  0  0  0  0
   -6.6390   20.5530  -32.0190 C   0  0  0  0  0  0  0  0  0  0  0  0
   -7.1390   17.5976  -31.4409 H   0  0  0  0  0  0  0  0  0  0  0  0
   -7.5840   16.7064  -32.9357 H   0  0  0  0  0  0  0  0  0  0  0  0
   -6.1655   17.8084  -32.9357 H   0  0  0  0  0  0  0  0  0  0  0  0
   -8.7870   18.5560  -33.6460 H   0  0  0  0  0  0  0  0  0  0  0  0
  -10.0265   20.6038  -32.6310 H   0  0  0  0  0  0  0  0  0  0  0  0
   -9.7514   22.9419  -31.7481 H   0  0  0  0  0  0  0  0  0  0  0  0
   -7.8040   24.7865  -30.7570 H   0  0  0  0  0  0  0  0  0  0  0  0
   -2.8950   25.2830  -30.4230 H   0  0  0  0  0  0  0  0  0  0  0  0
   -4.0845   21.9049  -28.1865 H   0  0  0  0  0  0  0  0  0  0  0  0
   -2.7350   20.7104  -28.2626 H   0  0  0  0  0  0  0  0  0  0  0  0
    0.1647   20.8554  -28.5363 H   0  0  0  0  0  0  0  0  0  0  0  0
   -0.7357   20.6018  -30.0698 H   0  0  0  0  0  0  0  0  0  0  0  0
    0.7881   21.5529  -30.0698 H   0  0  0  0  0  0  0  0  0  0  0  0
   -5.7552   19.9027  -32.0968 H   0  0  0  0  0  0  0  0  0  0  0  0
  1  2  1  0
  2  3  1  0
  3  4  2  0
  4  5  1  0
  5  6  2  0
  6  7  1  0
  7  8  2  0
  8  9  1  0
  9 10  1  0
  9 11  2  0
  8 12  1  0
 12 13  1  0
 13 14  2  0
 13 15  1  0
 15 16  1  0
 16 17  1  0
 17 18  1  0
 18 19  1  0
 19 20  2  0
 19 21  1  0
 21 22  1  0
 22 23  1  0
 12 24  1  0
 24 25  2  0
 25  3  1  0
 24  6  1  0
 22 17  2  0
  1 26  1  0
  1 27  1  0
  1 28  1  0
  2 29  1  0
  4 30  1  0
  5 31  1  0
  7 32  1  0
 10 33  1  0
 16 34  1  0
 16 35  1  0
 23 36  1  0
 23 37  1  0
 23 38  1  0
 25 39  1  0
M  CHG  1  10  -1
M  END
>  <UniqueID>  (29) 
29

>  <SMILES>  (29) 
CNc1ccc2cc(C([NH-])=O)n(C(=O)OCc3oc(=O)oc3C)c2c1

>  <Energy>  (29) 
108.25908206902204

>  <Genealogy>  (29) 
CNc1ccc2cc(C([NH-])=O)n(C(=O)OCc3oc(=O)oc3C)c2c1 (protonated)
CNc1ccc2cc(C([NH-])=O)n(C(=O)OCc3oc(=O)oc3C)c2c1 (3D coordinates assigned)
CNc1ccc2cc(C([NH-])=O)n(C(=O)OCc3oc(=O)oc3C)c2c1 (optimized conformer: 108.25908206902204 kcal/mol)

>  <smiles>  (29) 
CNc1ccc2cc(C(N)=O)n(C(=O)OCc3oc(=O)oc3C)c2c1

>  <score_type>  (29) 
oracle

>  <origin>  (29) 
adg

>  <m_score__min__energy>  (29) 
-10.619999999999999

>  <m_primary>  (29) 
energy

$$$$
30:0
     RDKit          3D

 34 35  0  0  0  0  0  0  0  0999 V2000
   -4.4730   25.6580  -30.8480 N   0  0  0  0  0  0  0  0  0  0  0  0
   -5.5290   24.8640  -30.3120 C   0  0  0  0  0  0  0  0  0  0  0  0
   -6.0630   25.2020  -29.2220 O   0  0  0  0  0  0  0  0  0  0  0  0
   -5.9650   23.6230  -30.9870 C   0  0  0  0  0  0  0  0  0  0  0  0
   -7.3010   23.2560  -31.1270 C   0  0  0  0  0  0  0  0  0  0  0  0
   -7.2770   22.0140  -31.7180 C   0  0  0  0  0  0  0  0  0  0  0  0
   -8.3270   21.1800  -32.0890 C   0  0  0  0  0  0  0  0  0  0  0  0
   -8.0110   19.9580  -32.7050 C   0  0  0  0  0  0  0  0  0  0  0  0
   -6.6620   19.6020  -32.9650 C   0  0  0  0  0  0  0  0  0  0  0  0
   -6.3350   18.2710  -33.5940 C   0  0  0  0  0  0  0  0  0  0  0  0
   -7.3910   17.4020  -33.3930 F   0  0  0  0  0  0  0  0  0  0  0  0
   -6.1190   18.4130  -34.9540 F   0  0  0  0  0  0  0  0  0  0  0  0
   -5.1930   17.7330  -33.0290 F   0  0  0  0  0  0  0  0  0  0  0  0
   -5.6230   20.4680  -32.5520 C   0  0  0  0  0  0  0  0  0  0  0  0
   -5.9650   21.6710  -31.9230 C   0  0  0  0  0  0  0  0  0  0  0  0
   -5.1470   22.6500  -31.4790 N   0  0  0  0  0  0  0  0  0  0  0  0
   -3.7170   22.6910  -31.6040 C   0  0  0  0  0  0  0  0  0  0  0  0
   -3.1350   21.9190  -32.4130 O   0  0  0  0  0  0  0  0  0  0  0  0
   -2.9860   23.6420  -30.8750 O   0  0  0  0  0  0  0  0  0  0  0  0
   -2.3180   23.4000  -29.6640 C   0  0  0  0  0  0  0  0  0  0  0  0
   -2.5270   22.2440  -28.9970 C   0  0  0  0  0  0  0  0  0  0  0  0
   -1.7060   21.7360  -27.5220 S   0  0  0  0  0  0  0  0  0  0  0  0
   -2.4170   20.5650  -26.9060 O   0  0  0  0  0  0  0  0  0  0  0  0
   -1.6420   22.8750  -26.5430 O   0  0  0  0  0  0  0  0  0  0  0  0
   -0.1380   21.2770  -27.9130 O   0  0  0  0  0  0  0  0  0  0  0  0
   -1.4460   24.4970  -29.1830 C   0  0  0  0  0  0  0  0  0  0  0  0
   -1.8840   25.6550  -28.9620 O   0  0  0  0  0  0  0  0  0  0  0  0
   -0.0890   24.2520  -29.0120 O   0  0  0  0  0  0  0  0  0  0  0  0
   -3.5200   25.6440  -30.4220 H   0  0  0  0  0  0  0  0  0  0  0  0
   -8.1869   23.8358  -30.8286 H   0  0  0  0  0  0  0  0  0  0  0  0
   -9.3724   21.4688  -31.9055 H   0  0  0  0  0  0  0  0  0  0  0  0
   -8.8192   19.2682  -32.9895 H   0  0  0  0  0  0  0  0  0  0  0  0
   -4.5691   20.2021  -32.7213 H   0  0  0  0  0  0  0  0  0  0  0  0
   -3.2785   21.5565  -29.4124 H   0  0  0  0  0  0  0  0  0  0  0  0
  1  2  1  0
  2  3  2  0
  2  4  1  0
  4  5  2  0
  5  6  1  0
  6  7  2  0
  7  8  1  0
  8  9  2  0
  9 10  1  0
 10 11  1  0
 10 12  1  0
 10 13  1  0
  9 14  1  0
 14 15  2  0
 15 16  1  0
 16 17  1  0
 17 18  2  0
 17 19  1  0
 19 20  1  0
 20 21  2  3
 21 22  1  0
 22 23  2  0
 22 24  2  0
 22 25  1  0
 20 26  1  0
 26 27  2  0
 26 28  1  0
 16  4  1  0
 15  6  1  0
  1 29  1  0
  5 30  1  0
  7 31  1  0
  8 32  1  0
 14 33  1  0
 21 34  1  0
M  CHG  3   1  -1  25  -1  28  -1
M  END
>  <UniqueID>  (30) 
30

>  <SMILES>  (30) 
[NH-]C(=O)c1cc2ccc(C(F)(F)F)cc2n1C(=O)OC(=CS(=O)(=O)[O-])C(=O)[O-]

>  <Energy>  (30) 
84.19928076330018

>  <Genealogy>  (30) 
[NH-]C(=O)c1cc2ccc(C(F)(F)F)cc2n1C(=O)OC(=CS(=O)(=O)[O-])C(=O)[O-] (protonated)
[NH-]C(=O)c1cc2ccc(C(F)(F)F)cc2n1C(=O)OC(=CS(=O)(=O)[O-])C(=O)[O-] (3D coordinates assigned)
[NH-]C(=O)c1cc2ccc(C(F)(F)F)cc2n1C(=O)OC(=CS(=O)(=O)[O-])C(=O)[O-] (optimized conformer: 84.19928076330018 kcal/mol)

>  <smiles>  (30) 
NC(=O)c1cc2ccc(C(F)(F)F)cc2n1C(=O)OC(=CS(=O)(=O)O)C(=O)O

>  <score_type>  (30) 
oracle

>  <origin>  (30) 
adg

>  <m_score__min__energy>  (30) 
-12.550000000000001

>  <m_primary>  (30) 
energy

$$$$
31:0
     RDKit          3D

 45 46  0  0  0  0  0  0  0  0999 V2000
   -3.4084   22.1963  -31.1768 H   0  0  0  0  0  0  0  0  0  0  0  0
   -4.0010   23.1190  -31.0900 C   0  0  0  0  0  0  0  0  0  0  0  0
   -3.4210   24.2060  -30.8310 O   0  0  0  0  0  0  0  0  0  0  0  0
   -5.4250   23.0650  -31.2740 N   0  0  0  0  0  0  0  0  0  0  0  0
   -6.3750   23.9050  -30.7720 C   0  0  0  0  0  0  0  0  0  0  0  0
   -6.1230   25.1830  -30.0790 C   0  0  0  0  0  0  0  0  0  0  0  0
   -6.8590   25.5210  -29.1150 O   0  0  0  0  0  0  0  0  0  0  0  0
   -5.1030   26.0760  -30.5290 N   0  0  0  0  0  0  0  0  0  0  0  0
   -4.5830   25.8920  -31.4160 H   0  0  0  0  0  0  0  0  0  0  0  0
   -4.9180   26.9640  -30.0140 H   0  0  0  0  0  0  0  0  0  0  0  0
   -7.6530   23.4310  -31.0550 C   0  0  0  0  0  0  0  0  0  0  0  0
   -8.6128   23.8854  -30.7679 H   0  0  0  0  0  0  0  0  0  0  0  0
   -7.4580   22.2720  -31.7710 C   0  0  0  0  0  0  0  0  0  0  0  0
   -8.3860   21.3870  -32.3100 C   0  0  0  0  0  0  0  0  0  0  0  0
   -9.4664   21.5707  -32.2150 H   0  0  0  0  0  0  0  0  0  0  0  0
   -7.9010   20.2520  -32.9790 C   0  0  0  0  0  0  0  0  0  0  0  0
   -8.6113   19.5395  -33.4237 H   0  0  0  0  0  0  0  0  0  0  0  0
   -6.5090   20.0120  -33.0890 C   0  0  0  0  0  0  0  0  0  0  0  0
   -6.0580   18.8170  -33.7480 N   0  0  0  0  0  0  0  0  0  0  0  0
   -5.5230   18.9200  -34.6420 H   0  0  0  0  0  0  0  0  0  0  0  0
   -6.3660   17.4570  -33.2910 C   0  0  1  0  0  0  0  0  0  0  0  0
   -6.5958   16.8149  -34.1541 H   0  0  0  0  0  0  0  0  0  0  0  0
   -5.1700   16.8750  -32.5740 C   0  0  0  0  0  0  0  0  0  0  0  0
   -5.3396   16.4071  -31.5930 H   0  0  0  0  0  0  0  0  0  0  0  0
   -3.9160   16.8890  -33.0500 C   0  0  0  0  0  0  0  0  0  0  0  0
   -3.1207   16.4915  -32.4023 H   0  0  0  0  0  0  0  0  0  0  0  0
   -3.5220   17.4020  -34.3880 C   0  0  0  0  0  0  0  0  0  0  0  0
   -3.3780   18.7910  -34.5470 O   0  0  0  0  0  0  0  0  0  0  0  0
   -2.6630   19.6540  -33.6660 C   0  0  0  0  0  0  0  0  0  0  0  0
   -2.8880   19.3824  -32.6241 H   0  0  0  0  0  0  0  0  0  0  0  0
   -1.5830   19.5497  -33.8471 H   0  0  0  0  0  0  0  0  0  0  0  0
   -2.9663   20.6958  -33.8471 H   0  0  0  0  0  0  0  0  0  0  0  0
   -3.3370   16.5530  -35.4210 C   0  0  0  0  0  0  0  0  0  0  0  0
   -3.0838   16.9769  -36.4039 H   0  0  0  0  0  0  0  0  0  0  0  0
   -3.4580   15.0640  -35.3010 C   0  0  0  0  0  0  0  0  0  0  0  0
   -3.4809   14.7825  -34.2379 H   0  0  0  0  0  0  0  0  0  0  0  0
   -4.3862   14.7311  -35.7885 H   0  0  0  0  0  0  0  0  0  0  0  0
   -2.5958   14.5856  -35.7885 H   0  0  0  0  0  0  0  0  0  0  0  0
   -7.5860   17.5000  -32.3690 C   0  0  0  0  0  0  0  0  0  0  0  0
   -7.2538   17.4883  -31.3204 H   0  0  0  0  0  0  0  0  0  0  0  0
   -8.1591   18.4189  -32.5618 H   0  0  0  0  0  0  0  0  0  0  0  0
   -8.2224   16.6237  -32.5618 H   0  0  0  0  0  0  0  0  0  0  0  0
   -5.5950   20.9480  -32.5470 C   0  0  0  0  0  0  0  0  0  0  0  0
   -4.5097   20.7943  -32.6391 H   0  0  0  0  0  0  0  0  0  0  0  0
   -6.1070   22.0740  -31.8910 C   0  0  0  0  0  0  0  0  0  0  0  0
  1  2  1  0
  2  3  2  0
  2  4  1  0
  4  5  1  0
  5  6  1  0
  6  7  2  0
  6  8  1  0
  8  9  1  0
  8 10  1  0
  5 11  2  0
 11 12  1  0
 11 13  1  0
 13 14  2  0
 14 15  1  0
 14 16  1  0
 16 17  1  0
 16 18  2  0
 18 19  1  0
 19 20  1  0
 19 21  1  0
 21 22  1  6
 21 23  1  0
 23 24  1  0
 23 25  2  0
 25 26  1  0
 25 27  1  0
 27 28  1  0
 28 29  1  0
 29 30  1  0
 29 31  1  0
 29 32  1  0
 27 33  2  0
 33 34  1  0
 33 35  1  0
 35 36  1  0
 35 37  1  0
 35 38  1  0
 21 39  1  0
 39 40  1  0
 39 41  1  0
 39 42  1  0
 18 43  1  0
 43 44  1  0
 43 45  2  0
 45  4  1  0
 45 13  1  0
M  END
>  <UniqueID>  (31) 
31

>  <SMILES>  (31) 
C/C=C(\C=C/[C@@H](C)Nc1ccc2cc(C(N)=O)n(C=O)c2c1)OC

>  <Energy>  (31) 
80.64324082619608

>  <Genealogy>  (31) 
C/C=C(\C=C/[C@@H](C)Nc1ccc2cc(C(N)=O)n(C=O)c2c1)OC (chirality)
C/C=C(\C=C/[C@@H](C)Nc1ccc2cc(C(N)=O)n(C=O)c2c1)OC (cis-trans isomerization)
C/C=C(\C=C/[C@@H](C)Nc1ccc2cc(C(N)=O)n(C=O)c2c1)OC (3D coordinates assigned)
C/C=C(\C=C/[C@@H](C)Nc1ccc2cc(C(N)=O)n(C=O)c2c1)OC (optimized conformer: 80.64324082619608 kcal/mol)

>  <smiles>  (31) 
C/C=C(\C=C/C(C)Nc1ccc2cc(C(N)=O)n(C=O)c2c1)OC

>  <score_type>  (31) 
oracle

>  <origin>  (31) 
adg

>  <m_score__min__energy>  (31) 
-8.9600000000000009

>  <m_primary>  (31) 
energy

$$$$
32:0
     RDKit          3D

 60 61  0  0  0  0  0  0  0  0999 V2000
    1.7710   16.8520  -27.1170 C   0  0  0  0  0  0  0  0  0  0  0  0
    1.1300   17.6620  -28.2060 C   0  0  0  0  0  0  0  0  0  0  0  0
    1.2850   17.2780  -29.5610 C   0  0  0  0  0  0  0  0  0  0  0  0
    0.7070   18.0450  -30.5910 C   0  0  0  0  0  0  0  0  0  0  0  0
   -0.0060   19.1870  -30.2350 C   0  0  0  0  0  0  0  0  0  0  0  0
   -0.6710   20.0990  -31.0260 C   0  0  0  0  0  0  0  0  0  0  0  0
   -1.1950   21.0440  -30.1410 C   0  0  0  0  0  0  0  0  0  0  0  0
   -1.9060   22.2720  -30.5640 C   0  0  0  0  0  0  0  0  0  0  0  0
   -1.9400   23.4260  -29.7230 N   0  0  0  0  0  0  0  0  0  0  0  0
   -2.5190   22.3020  -31.6640 O   0  0  0  0  0  0  0  0  0  0  0  0
   -0.8690   20.7230  -28.8570 N   0  0  0  0  0  0  0  0  0  0  0  0
   -1.2500   21.4140  -27.6550 C   0  0  0  0  0  0  0  0  0  0  0  0
   -1.9910   20.8440  -26.8060 O   0  0  0  0  0  0  0  0  0  0  0  0
   -0.7920   22.7160  -27.4330 O   0  0  0  0  0  0  0  0  0  0  0  0
    0.5290   23.1390  -27.7490 C   0  0  0  0  0  0  0  0  0  0  0  0
    0.5030   24.4040  -28.4060 O   0  0  0  0  0  0  0  0  0  0  0  0
   -0.4860   25.3680  -28.1630 C   0  0  0  0  0  0  0  0  0  0  0  0
   -1.2430   25.7570  -29.0950 O   0  0  0  0  0  0  0  0  0  0  0  0
   -0.6170   25.9890  -26.8050 C   0  0  0  0  0  0  0  0  0  0  0  0
   -1.5480   25.2240  -25.9640 N   0  0  0  0  0  0  0  0  0  0  0  0
   -1.1330   24.7700  -24.6330 C   0  0  0  0  0  0  0  0  0  0  0  0
   -2.8910   24.9700  -26.4160 C   0  0  0  0  0  0  0  0  0  0  0  0
   -3.8710   25.3150  -25.7010 O   0  0  0  0  0  0  0  0  0  0  0  0
   -3.1100   24.3480  -27.6520 O   0  0  0  0  0  0  0  0  0  0  0  0
   -4.3190   23.6570  -27.9620 C   0  0  0  0  0  0  0  0  0  0  0  0
   -4.4160   23.4590  -29.3720 O   0  0  0  0  0  0  0  0  0  0  0  0
   -4.7970   24.4810  -30.2520 C   0  0  0  0  0  0  0  0  0  0  0  0
   -3.9440   25.2970  -30.6900 O   0  0  0  0  0  0  0  0  0  0  0  0
   -6.2370   24.6280  -30.6680 C   0  0  0  0  0  0  0  0  0  0  0  0
   -6.6270   23.7890  -31.8230 N   0  0  0  0  0  0  0  0  0  0  0  0
   -5.5680   22.8550  -32.2330 C   0  0  0  0  0  0  0  0  0  0  0  0
   -7.9130   23.0860  -31.6280 C   0  0  0  0  0  0  0  0  0  0  0  0
   -0.1400   19.5860  -28.9310 C   0  0  0  0  0  0  0  0  0  0  0  0
    0.4160   18.8370  -27.8840 C   0  0  0  0  0  0  0  0  0  0  0  0
    1.4607   17.2442  -26.1373 H   0  0  0  0  0  0  0  0  0  0  0  0
    1.4568   15.8018  -27.2078 H   0  0  0  0  0  0  0  0  0  0  0  0
    2.8653   16.9165  -27.2078 H   0  0  0  0  0  0  0  0  0  0  0  0
    1.8608   16.3745  -29.8102 H   0  0  0  0  0  0  0  0  0  0  0  0
    0.8155   17.7508  -31.6454 H   0  0  0  0  0  0  0  0  0  0  0  0
   -0.7684   20.0855  -32.1216 H   0  0  0  0  0  0  0  0  0  0  0  0
   -1.4030   23.4660  -28.8300 H   0  0  0  0  0  0  0  0  0  0  0  0
   -2.4820   24.2710  -30.0200 H   0  0  0  0  0  0  0  0  0  0  0  0
    1.1137   23.2246  -26.8212 H   0  0  0  0  0  0  0  0  0  0  0  0
    0.9895   22.3985  -28.4196 H   0  0  0  0  0  0  0  0  0  0  0  0
    0.3710   26.0090  -26.3217 H   0  0  0  0  0  0  0  0  0  0  0  0
   -1.0090   27.0100  -26.9227 H   0  0  0  0  0  0  0  0  0  0  0  0
   -1.6644   25.3513  -23.8651 H   0  0  0  0  0  0  0  0  0  0  0  0
   -1.3746   23.7031  -24.5177 H   0  0  0  0  0  0  0  0  0  0  0  0
   -0.0487   24.9150  -24.5177 H   0  0  0  0  0  0  0  0  0  0  0  0
   -4.3216   22.6806  -27.4553 H   0  0  0  0  0  0  0  0  0  0  0  0
   -5.1765   24.2550  -27.6199 H   0  0  0  0  0  0  0  0  0  0  0  0
   -6.8721   24.3534  -29.8129 H   0  0  0  0  0  0  0  0  0  0  0  0
   -6.3688   25.6744  -30.9806 H   0  0  0  0  0  0  0  0  0  0  0  0
   -5.0870   22.4308  -31.3393 H   0  0  0  0  0  0  0  0  0  0  0  0
   -6.0064   22.0441  -32.8332 H   0  0  0  0  0  0  0  0  0  0  0  0
   -4.8183   23.3913  -32.8332 H   0  0  0  0  0  0  0  0  0  0  0  0
   -8.1119   22.9773  -30.5516 H   0  0  0  0  0  0  0  0  0  0  0  0
   -8.7227   23.6669  -32.0937 H   0  0  0  0  0  0  0  0  0  0  0  0
   -7.8611   22.0908  -32.0937 H   0  0  0  0  0  0  0  0  0  0  0  0
    0.2989   19.1567  -26.8380 H   0  0  0  0  0  0  0  0  0  0  0  0
  1  2  1  0
  2  3  2  0
  3  4  1  0
  4  5  2  0
  5  6  1  0
  6  7  2  0
  7  8  1  0
  8  9  1  0
  8 10  2  0
  7 11  1  0
 11 12  1  0
 12 13  2  0
 12 14  1  0
 14 15  1  0
 15 16  1  0
 16 17  1  0
 17 18  2  0
 17 19  1  0
 19 20  1  0
 20 21  1  0
 20 22  1  0
 22 23  2  0
 22 24  1  0
 24 25  1  0
 25 26  1  0
 26 27  1  0
 27 28  2  0
 27 29  1  0
 29 30  1  0
 30 31  1  0
 30 32  1  0
 11 33  1  0
 33 34  2  0
 34  2  1  0
 33  5  1  0
  1 35  1  0
  1 36  1  0
  1 37  1  0
  3 38  1  0
  4 39  1  0
  6 40  1  0
  9 41  1  0
  9 42  1  0
 15 43  1  0
 15 44  1  0
 19 45  1  0
 19 46  1  0
 21 47  1  0
 21 48  1  0
 21 49  1  0
 25 50  1  0
 25 51  1  0
 29 52  1  0
 29 53  1  0
 31 54  1  0
 31 55  1  0
 31 56  1  0
 32 57  1  0
 32 58  1  0
 32 59  1  0
 34 60  1  0
M  END
>  <UniqueID>  (32) 
32

>  <SMILES>  (32) 
Cc1ccc2cc(C(N)=O)n(C(=O)OCOC(=O)CN(C)C(=O)OCOC(=O)CN(C)C)c2c1

>  <Energy>  (32) 
87.34562651184078

>  <Genealogy>  (32) 
Cc1ccc2cc(C(N)=O)n(C(=O)OCOC(=O)CN(C)C(=O)OCOC(=O)CN(C)C)c2c1 (3D coordinates assigned)
Cc1ccc2cc(C(N)=O)n(C(=O)OCOC(=O)CN(C)C(=O)OCOC(=O)CN(C)C)c2c1 (optimized conformer: 87.34562651184078 kcal/mol)

>  <smiles>  (32) 
Cc1ccc2cc(C(N)=O)n(C(=O)OCOC(=O)CN(C)C(=O)OCOC(=O)CN(C)C)c2c1

>  <score_type>  (32) 
oracle

>  <origin>  (32) 
adg

>  <m_score__min__energy>  (32) 
-9.4499999999999993

>  <m_primary>  (32) 
energy

$$$$
33:0
     RDKit          3D

 49 50  0  0  0  0  0  0  0  0999 V2000
   -5.7430   18.0160  -34.4220 C   0  0  0  0  0  0  0  0  0  0  0  0
   -6.2340   18.2680  -33.0600 N   0  0  0  0  0  0  0  0  0  0  0  0
   -6.4200   17.1270  -32.1530 C   0  0  0  0  0  0  0  0  0  0  0  0
   -6.4990   19.6340  -32.6090 C   0  0  0  0  0  0  0  0  0  0  0  0
   -7.8060   20.2010  -32.7190 C   0  0  0  0  0  0  0  0  0  0  0  0
   -8.0680   21.5120  -32.2800 C   0  0  0  0  0  0  0  0  0  0  0  0
   -7.0160   22.2430  -31.7390 C   0  0  0  0  0  0  0  0  0  0  0  0
   -6.9850   23.5200  -31.2110 C   0  0  0  0  0  0  0  0  0  0  0  0
   -5.6620   23.7270  -30.8090 C   0  0  0  0  0  0  0  0  0  0  0  0
   -5.1630   24.9680  -30.1770 C   0  0  0  0  0  0  0  0  0  0  0  0
   -4.0200   25.6340  -30.7180 N   0  0  0  0  0  0  0  0  0  0  0  0
   -5.7370   25.4460  -29.1610 O   0  0  0  0  0  0  0  0  0  0  0  0
   -4.9140   22.6230  -31.0830 N   0  0  0  0  0  0  0  0  0  0  0  0
   -3.4920   22.4740  -30.9670 C   0  0  0  0  0  0  0  0  0  0  0  0
   -2.7450   23.4540  -31.2170 O   0  0  0  0  0  0  0  0  0  0  0  0
   -2.9260   21.2260  -30.5270 N   0  0  0  0  0  0  0  0  0  0  0  0
   -2.3390   20.2950  -31.5090 C   0  0  0  0  0  0  0  0  0  0  0  0
   -2.1030   20.9820  -32.8160 C   0  0  0  0  0  0  0  0  0  0  0  0
   -0.9950   21.5490  -33.0500 O   0  0  0  0  0  0  0  0  0  0  0  0
   -3.0960   20.9620  -33.7970 O   0  0  0  0  0  0  0  0  0  0  0  0
   -3.0440   20.8150  -29.1180 C   0  0  0  0  0  0  0  0  0  0  0  0
   -2.2500   21.7340  -28.2250 C   0  0  0  0  0  0  0  0  0  0  0  0
   -1.6190   21.2580  -27.2450 O   0  0  0  0  0  0  0  0  0  0  0  0
   -2.1130   23.1310  -28.5100 N   0  0  0  0  0  0  0  0  0  0  0  0
   -2.3970   24.2010  -27.5630 C   0  0  0  0  0  0  0  0  0  0  0  0
   -1.6150   25.4580  -27.9420 C   0  0  0  0  0  0  0  0  0  0  0  0
   -1.5640   25.6010  -29.3340 O   0  0  0  0  0  0  0  0  0  0  0  0
   -5.7500   21.7300  -31.6480 C   0  0  0  0  0  0  0  0  0  0  0  0
   -5.4600   20.4280  -32.0540 C   0  0  0  0  0  0  0  0  0  0  0  0
   -4.7654   17.5142  -34.3723 H   0  0  0  0  0  0  0  0  0  0  0  0
   -6.4582   17.3735  -34.9566 H   0  0  0  0  0  0  0  0  0  0  0  0
   -5.6380   18.9716  -34.9566 H   0  0  0  0  0  0  0  0  0  0  0  0
   -6.3634   17.4741  -31.1107 H   0  0  0  0  0  0  0  0  0  0  0  0
   -7.4044   16.6709  -32.3346 H   0  0  0  0  0  0  0  0  0  0  0  0
   -5.6315   16.3819  -32.3346 H   0  0  0  0  0  0  0  0  0  0  0  0
   -8.6204   19.6030  -33.1539 H   0  0  0  0  0  0  0  0  0  0  0  0
   -9.0755   21.9459  -32.3624 H   0  0  0  0  0  0  0  0  0  0  0  0
   -7.8248   24.2253  -31.1251 H   0  0  0  0  0  0  0  0  0  0  0  0
   -3.0500   25.3010  -30.5020 H   0  0  0  0  0  0  0  0  0  0  0  0
   -1.3809   19.9185  -31.1212 H   0  0  0  0  0  0  0  0  0  0  0  0
   -3.0404   19.4629  -31.6694 H   0  0  0  0  0  0  0  0  0  0  0  0
   -4.1023   20.8480  -28.8200 H   0  0  0  0  0  0  0  0  0  0  0  0
   -2.6490   19.7936  -29.0140 H   0  0  0  0  0  0  0  0  0  0  0  0
   -3.4740   24.4240  -27.5781 H   0  0  0  0  0  0  0  0  0  0  0  0
   -2.0958   23.8795  -26.5551 H   0  0  0  0  0  0  0  0  0  0  0  0
   -2.1099   26.3380  -27.5053 H   0  0  0  0  0  0  0  0  0  0  0  0
   -0.5891   25.3698  -27.5549 H   0  0  0  0  0  0  0  0  0  0  0  0
   -2.1630   24.9020  -29.7100 H   0  0  0  0  0  0  0  0  0  0  0  0
   -4.4432   20.0223  -31.9463 H   0  0  0  0  0  0  0  0  0  0  0  0
  1  2  1  0
  2  3  1  0
  2  4  1  0
  4  5  2  0
  5  6  1  0
  6  7  2  0
  7  8  1  0
  8  9  2  0
  9 10  1  0
 10 11  1  0
 10 12  2  0
  9 13  1  0
 13 14  1  0
 14 15  2  0
 14 16  1  0
 16 17  1  0
 17 18  1  0
 18 19  2  0
 18 20  1  0
 16 21  1  0
 21 22  1  0
 22 23  2  0
 22 24  1  0
 24 25  1  0
 25 26  1  0
 26 27  1  0
 13 28  1  0
 28 29  2  0
 29  4  1  0
 28  7  1  0
  1 30  1  0
  1 31  1  0
  1 32  1  0
  3 33  1  0
  3 34  1  0
  3 35  1  0
  5 36  1  0
  6 37  1  0
  8 38  1  0
 11 39  1  0
 17 40  1  0
 17 41  1  0
 21 42  1  0
 21 43  1  0
 25 44  1  0
 25 45  1  0
 26 46  1  0
 26 47  1  0
 27 48  1  0
 29 49  1  0
M  CHG  3  11  -1  20  -1  24  -1
M  END
>  <UniqueID>  (33) 
33

>  <SMILES>  (33) 
CN(C)c1ccc2cc(C([NH-])=O)n(C(=O)N(CC(=O)[O-])CC(=O)[N-]CCO)c2c1

>  <Energy>  (33) 
83.77465808963451

>  <Genealogy>  (33) 
CN(C)c1ccc2cc(C([NH-])=O)n(C(=O)N(CC(=O)[O-])CC(=O)[N-]CCO)c2c1 (protonated)
CN(C)c1ccc2cc(C([NH-])=O)n(C(=O)N(CC(=O)[O-])CC(=O)[N-]CCO)c2c1 (3D coordinates assigned)
CN(C)c1ccc2cc(C([NH-])=O)n(C(=O)N(CC(=O)[O-])CC(=O)[N-]CCO)c2c1 (optimized conformer: 83.77465808963451 kcal/mol)

>  <smiles>  (33) 
CN(C)c1ccc2cc(C(N)=O)n(C(=O)N(CC(=O)O)CC(=O)NCCO)c2c1

>  <score_type>  (33) 
oracle

>  <origin>  (33) 
adg

>  <m_score__min__energy>  (33) 
-11.539999999999999

>  <m_primary>  (33) 
energy

$$$$
34:0
     RDKit          3D

 33 34  0  0  0  0  0  0  0  0999 V2000
   -5.9090   17.8990  -32.3200 C   0  0  0  0  0  0  0  0  0  0  0  0
   -6.1870   19.3650  -32.1720 C   0  0  0  0  0  0  0  0  0  0  0  0
   -7.4070   19.9070  -32.6460 C   0  0  0  0  0  0  0  0  0  0  0  0
   -7.7020   21.2700  -32.4670 C   0  0  0  0  0  0  0  0  0  0  0  0
   -6.7610   22.0590  -31.8120 C   0  0  0  0  0  0  0  0  0  0  0  0
   -6.8070   23.3930  -31.4720 C   0  0  0  0  0  0  0  0  0  0  0  0
   -5.6110   23.6430  -30.7980 C   0  0  0  0  0  0  0  0  0  0  0  0
   -5.2330   24.9710  -30.2700 C   0  0  0  0  0  0  0  0  0  0  0  0
   -4.1280   25.6710  -30.8360 N   0  0  0  0  0  0  0  0  0  0  0  0
   -5.8670   25.4920  -29.3160 O   0  0  0  0  0  0  0  0  0  0  0  0
   -4.8550   22.5110  -30.7350 N   0  0  0  0  0  0  0  0  0  0  0  0
   -3.5720   22.3460  -30.1120 C   0  0  0  0  0  0  0  0  0  0  0  0
   -3.4290   21.4960  -29.1930 O   0  0  0  0  0  0  0  0  0  0  0  0
   -2.4070   23.1920  -30.5260 C   0  0  0  0  0  0  0  0  0  0  0  0
   -1.6690   24.0130  -29.0800 P   0  0  1  0  0  0  0  0  0  0  0  0
   -2.6440   23.6700  -27.5880 C   0  0  0  0  0  0  0  0  0  0  0  0
   -0.2650   23.4920  -28.8800 O   0  0  0  0  0  0  0  0  0  0  0  0
   -1.6080   25.6830  -29.3440 O   0  0  0  0  0  0  0  0  0  0  0  0
   -5.5750   21.5510  -31.3530 C   0  0  0  0  0  0  0  0  0  0  0  0
   -5.2650   20.1940  -31.4970 C   0  0  0  0  0  0  0  0  0  0  0  0
   -5.8219   17.4399  -31.3242 H   0  0  0  0  0  0  0  0  0  0  0  0
   -6.7330   17.4235  -32.8722 H   0  0  0  0  0  0  0  0  0  0  0  0
   -4.9681   17.7581  -32.8722 H   0  0  0  0  0  0  0  0  0  0  0  0
   -8.1301   19.2556  -33.1587 H   0  0  0  0  0  0  0  0  0  0  0  0
   -8.6464   21.6991  -32.8330 H   0  0  0  0  0  0  0  0  0  0  0  0
   -7.6144   24.1087  -31.6861 H   0  0  0  0  0  0  0  0  0  0  0  0
   -3.1530   25.3080  -30.7360 H   0  0  0  0  0  0  0  0  0  0  0  0
   -1.6496   22.5549  -31.0061 H   0  0  0  0  0  0  0  0  0  0  0  0
   -2.7582   23.9605  -31.2303 H   0  0  0  0  0  0  0  0  0  0  0  0
   -2.0368   23.8836  -26.6960 H   0  0  0  0  0  0  0  0  0  0  0  0
   -3.5411   24.3065  -27.5819 H   0  0  0  0  0  0  0  0  0  0  0  0
   -2.9450   22.6120  -27.5819 H   0  0  0  0  0  0  0  0  0  0  0  0
   -4.3270   19.7838  -31.0946 H   0  0  0  0  0  0  0  0  0  0  0  0
  1  2  1  0
  2  3  2  0
  3  4  1  0
  4  5  2  0
  5  6  1  0
  6  7  2  0
  7  8  1  0
  8  9  1  0
  8 10  2  0
  7 11  1  0
 11 12  1  0
 12 13  2  0
 12 14  1  0
 14 15  1  0
 15 16  1  0
 15 17  2  0
 15 18  1  6
 11 19  1  0
 19 20  2  0
 20  2  1  0
 19  5  1  0
  1 21  1  0
  1 22  1  0
  1 23  1  0
  3 24  1  0
  4 25  1  0
  6 26  1  0
  9 27  1  0
 14 28  1  0
 14 29  1  0
 16 30  1  0
 16 31  1  0
 16 32  1  0
 20 33  1  0
M  CHG  2   9  -1  18  -1
M  END
>  <UniqueID>  (34) 
34

>  <SMILES>  (34) 
Cc1ccc2cc(C([NH-])=O)n(C(=O)C[P@@](C)(=O)[O-])c2c1

>  <Energy>  (34) 
62.901445297399334

>  <Genealogy>  (34) 
Cc1ccc2cc(C([NH-])=O)n(C(=O)CP(C)(=O)[O-])c2c1 (protonated)
Cc1ccc2cc(C([NH-])=O)n(C(=O)C[P@@](C)(=O)[O-])c2c1 (chirality)
Cc1ccc2cc(C([NH-])=O)n(C(=O)C[P@@](C)(=O)[O-])c2c1 (3D coordinates assigned)
Cc1ccc2cc(C([NH-])=O)n(C(=O)C[P@@](C)(=O)[O-])c2c1 (optimized conformer: 62.901445297399334 kcal/mol)

>  <smiles>  (34) 
Cc1ccc2cc(C(N)=O)n(C(=O)CP(C)(=O)O)c2c1

>  <score_type>  (34) 
oracle

>  <origin>  (34) 
adg

>  <m_score__min__energy>  (34) 
-12.359999999999999

>  <m_primary>  (34) 
energy

$$$$
35:0
     RDKit          3D

 47 49  0  0  0  0  0  0  0  0999 V2000
   -4.2240   22.9620  -28.0230 C   0  0  0  0  0  0  0  0  0  0  0  0
   -3.1360   22.1050  -28.6990 C   0  0  0  0  0  0  0  0  0  0  0  0
   -2.7550   20.9080  -27.8060 C   0  0  0  0  0  0  0  0  0  0  0  0
   -1.8880   22.9720  -28.9240 C   0  0  0  0  0  0  0  0  0  0  0  0
   -3.5780   21.6560  -29.9880 O   0  0  0  0  0  0  0  0  0  0  0  0
   -3.9580   22.4690  -31.0670 C   0  0  0  0  0  0  0  0  0  0  0  0
   -3.1190   22.8240  -31.9370 O   0  0  0  0  0  0  0  0  0  0  0  0
   -5.3280   22.8780  -31.1910 N   0  0  0  0  0  0  0  0  0  0  0  0
   -5.8600   24.1020  -30.9090 C   0  0  0  0  0  0  0  0  0  0  0  0
   -5.0970   25.3260  -30.5870 C   0  0  0  0  0  0  0  0  0  0  0  0
   -3.6780   25.2930  -30.4660 N   0  0  0  0  0  0  0  0  0  0  0  0
   -5.7020   26.4230  -30.4660 O   0  0  0  0  0  0  0  0  0  0  0  0
   -7.2480   24.0720  -31.0380 C   0  0  0  0  0  0  0  0  0  0  0  0
   -7.5520   22.7840  -31.4140 C   0  0  0  0  0  0  0  0  0  0  0  0
   -8.7860   22.1940  -31.6670 C   0  0  0  0  0  0  0  0  0  0  0  0
   -8.8070   20.8290  -32.0010 C   0  0  0  0  0  0  0  0  0  0  0  0
   -7.6050   20.0790  -32.0570 C   0  0  0  0  0  0  0  0  0  0  0  0
   -7.6400   18.6170  -32.4220 C   0  0  0  0  0  0  0  0  0  0  0  0
   -6.4840   18.2540  -33.2470 N   0  0  0  0  0  0  0  0  0  0  0  0
   -6.1170   18.8780  -34.3850 C   0  0  0  0  0  0  0  0  0  0  0  0
   -4.9480   18.3100  -34.8410 C   0  0  0  0  0  0  0  0  0  0  0  0
   -4.5820   17.3360  -33.9890 N   0  0  0  0  0  0  0  0  0  0  0  0
   -5.5270   17.3160  -33.0240 C   0  0  0  0  0  0  0  0  0  0  0  0
   -5.4780   16.3790  -31.8840 C   0  0  0  0  0  0  0  0  0  0  0  0
   -6.0740   16.6700  -30.8130 O   0  0  0  0  0  0  0  0  0  0  0  0
   -4.7730   15.1860  -31.9570 O   0  0  0  0  0  0  0  0  0  0  0  0
   -6.3690   20.7200  -31.8140 C   0  0  0  0  0  0  0  0  0  0  0  0
   -6.3770   22.0840  -31.4980 C   0  0  0  0  0  0  0  0  0  0  0  0
   -4.1255   22.8844  -26.9302 H   0  0  0  0  0  0  0  0  0  0  0  0
   -4.1058   24.0122  -28.3282 H   0  0  0  0  0  0  0  0  0  0  0  0
   -5.2173   22.6011  -28.3282 H   0  0  0  0  0  0  0  0  0  0  0  0
   -2.8466   21.1958  -26.7483 H   0  0  0  0  0  0  0  0  0  0  0  0
   -3.4291   20.0645  -28.0162 H   0  0  0  0  0  0  0  0  0  0  0  0
   -1.7174   20.6093  -28.0162 H   0  0  0  0  0  0  0  0  0  0  0  0
   -1.4654   23.2656  -27.9518 H   0  0  0  0  0  0  0  0  0  0  0  0
   -1.1401   22.3980  -29.4907 H   0  0  0  0  0  0  0  0  0  0  0  0
   -2.1649   23.8732  -29.4907 H   0  0  0  0  0  0  0  0  0  0  0  0
   -3.0830   24.8830  -31.2200 H   0  0  0  0  0  0  0  0  0  0  0  0
   -7.9509   24.9021  -30.8739 H   0  0  0  0  0  0  0  0  0  0  0  0
   -9.7165   22.7776  -31.6075 H   0  0  0  0  0  0  0  0  0  0  0  0
   -9.7660   20.3373  -32.2213 H   0  0  0  0  0  0  0  0  0  0  0  0
   -7.6276   18.0158  -31.5009 H   0  0  0  0  0  0  0  0  0  0  0  0
   -8.5568   18.4212  -32.9975 H   0  0  0  0  0  0  0  0  0  0  0  0
   -6.6607   19.7031  -34.8684 H   0  0  0  0  0  0  0  0  0  0  0  0
   -4.4042   18.6042  -35.7508 H   0  0  0  0  0  0  0  0  0  0  0  0
   -3.7370   16.7280  -34.0640 H   0  0  0  0  0  0  0  0  0  0  0  0
   -5.4235   20.1607  -31.8717 H   0  0  0  0  0  0  0  0  0  0  0  0
  1  2  1  0
  2  3  1  0
  2  4  1  0
  2  5  1  0
  5  6  1  0
  6  7  2  0
  6  8  1  0
  8  9  1  0
  9 10  1  0
 10 11  1  0
 10 12  2  0
  9 13  2  0
 13 14  1  0
 14 15  2  0
 15 16  1  0
 16 17  2  0
 17 18  1  0
 18 19  1  0
 19 20  1  0
 20 21  2  0
 21 22  1  0
 22 23  2  0
 23 24  1  0
 24 25  2  0
 24 26  1  0
 17 27  1  0
 27 28  2  0
 28  8  1  0
 28 14  1  0
 23 19  1  0
  1 29  1  0
  1 30  1  0
  1 31  1  0
  3 32  1  0
  3 33  1  0
  3 34  1  0
  4 35  1  0
  4 36  1  0
  4 37  1  0
 11 38  1  0
 13 39  1  0
 15 40  1  0
 16 41  1  0
 18 42  1  0
 18 43  1  0
 20 44  1  0
 21 45  1  0
 22 46  1  0
 27 47  1  0
M  CHG  3  11  -1  22   1  26  -1
M  END
>  <UniqueID>  (35) 
35

>  <SMILES>  (35) 
CC(C)(C)OC(=O)n1c(C([NH-])=O)cc2ccc(Cn3cc[nH+]c3C(=O)[O-])cc21

>  <Energy>  (35) 
113.4620140557655

>  <Genealogy>  (35) 
CC(C)(C)OC(=O)n1c(C([NH-])=O)cc2ccc(Cn3cc[nH+]c3C(=O)[O-])cc21 (protonated)
CC(C)(C)OC(=O)n1c(C([NH-])=O)cc2ccc(Cn3cc[nH+]c3C(=O)[O-])cc21 (3D coordinates assigned)
CC(C)(C)OC(=O)n1c(C([NH-])=O)cc2ccc(Cn3cc[nH+]c3C(=O)[O-])cc21 (optimized conformer: 113.4620140557655 kcal/mol)

>  <smiles>  (35) 
CC(C)(C)OC(=O)n1c(C(N)=O)cc2ccc(Cn3ccnc3C(=O)O)cc21

>  <score_type>  (35) 
oracle

>  <origin>  (35) 
adg

>  <m_score__min__energy>  (35) 
-10.42

>  <m_primary>  (35) 
energy

$$$$
36:0
     RDKit          3D

 38 39  0  0  0  0  0  0  0  0999 V2000
   -2.0040   25.4990  -25.7820 C   0  0  0  0  0  0  0  0  0  0  0  0
   -1.6270   25.7380  -26.9030 C   0  0  0  0  0  0  0  0  0  0  0  0
   -1.1710   26.0280  -28.2670 C   0  0  0  0  0  0  0  0  0  0  0  0
   -1.9610   25.3120  -29.2120 O   0  0  0  0  0  0  0  0  0  0  0  0
   -1.9720   23.9150  -29.3050 C   0  0  0  0  0  0  0  0  0  0  0  0
   -1.0860   23.3070  -29.9680 O   0  0  0  0  0  0  0  0  0  0  0  0
   -3.0660   23.1340  -28.6410 C   0  0  1  0  0  0  0  0  0  0  0  0
   -4.0600   24.0020  -28.1590 O   0  0  0  0  0  0  0  0  0  0  0  0
   -3.6270   22.2060  -29.5710 O   0  0  0  0  0  0  0  0  0  0  0  0
   -4.1260   22.5770  -30.8220 C   0  0  0  0  0  0  0  0  0  0  0  0
   -3.3480   22.7010  -31.8060 O   0  0  0  0  0  0  0  0  0  0  0  0
   -5.5360   22.8090  -30.9870 N   0  0  0  0  0  0  0  0  0  0  0  0
   -6.2080   23.9860  -30.8380 C   0  0  0  0  0  0  0  0  0  0  0  0
   -5.6420   25.2450  -30.3140 C   0  0  0  0  0  0  0  0  0  0  0  0
   -4.2410   25.5090  -30.3790 N   0  0  0  0  0  0  0  0  0  0  0  0
   -6.4020   26.0760  -29.7490 O   0  0  0  0  0  0  0  0  0  0  0  0
   -7.5440   23.8390  -31.1970 C   0  0  0  0  0  0  0  0  0  0  0  0
   -7.6810   22.5190  -31.5610 C   0  0  0  0  0  0  0  0  0  0  0  0
   -8.8020   21.8260  -32.0060 C   0  0  0  0  0  0  0  0  0  0  0  0
   -8.6500   20.4690  -32.3370 C   0  0  0  0  0  0  0  0  0  0  0  0
   -7.3840   19.8410  -32.2410 C   0  0  0  0  0  0  0  0  0  0  0  0
   -7.2390   18.3860  -32.5710 C   0  0  0  0  0  0  0  0  0  0  0  0
   -6.2700   20.5720  -31.7750 C   0  0  0  0  0  0  0  0  0  0  0  0
   -6.4540   21.9180  -31.4290 C   0  0  0  0  0  0  0  0  0  0  0  0
   -2.3477   25.2811  -24.7600 H   0  0  0  0  0  0  0  0  0  0  0  0
   -1.2634   27.1071  -28.4594 H   0  0  0  0  0  0  0  0  0  0  0  0
   -0.1206   25.7173  -28.3682 H   0  0  0  0  0  0  0  0  0  0  0  0
   -2.6457   22.5791  -27.7893 H   0  0  0  0  0  0  0  0  0  0  0  0
   -3.7410   24.9270  -28.3240 H   0  0  0  0  0  0  0  0  0  0  0  0
   -3.5670   24.7730  -30.6850 H   0  0  0  0  0  0  0  0  0  0  0  0
   -3.8630   26.4200  -30.0350 H   0  0  0  0  0  0  0  0  0  0  0  0
   -8.3251   24.6135  -31.1911 H   0  0  0  0  0  0  0  0  0  0  0  0
   -9.7780   22.3253  -32.0960 H   0  0  0  0  0  0  0  0  0  0  0  0
   -9.5220   19.8891  -32.6737 H   0  0  0  0  0  0  0  0  0  0  0  0
   -7.1809   17.8029  -31.6401 H   0  0  0  0  0  0  0  0  0  0  0  0
   -8.1086   18.0546  -33.1575 H   0  0  0  0  0  0  0  0  0  0  0  0
   -6.3211   18.2327  -33.1575 H   0  0  0  0  0  0  0  0  0  0  0  0
   -5.2818   20.0972  -31.6855 H   0  0  0  0  0  0  0  0  0  0  0  0
  1  2  3  0
  2  3  1  0
  3  4  1  0
  4  5  1  0
  5  6  2  0
  5  7  1  0
  7  8  1  0
  7  9  1  0
  9 10  1  0
 10 11  2  0
 10 12  1  0
 12 13  1  0
 13 14  1  0
 14 15  1  0
 14 16  2  0
 13 17  2  0
 17 18  1  0
 18 19  2  0
 19 20  1  0
 20 21  2  0
 21 22  1  0
 21 23  1  0
 23 24  2  0
 24 12  1  0
 24 18  1  0
  1 25  1  0
  3 26  1  0
  3 27  1  0
  7 28  1  1
  8 29  1  0
 15 30  1  0
 15 31  1  0
 17 32  1  0
 19 33  1  0
 20 34  1  0
 22 35  1  0
 22 36  1  0
 22 37  1  0
 23 38  1  0
M  END
>  <UniqueID>  (36) 
36

>  <SMILES>  (36) 
C#CCOC(=O)[C@@H](O)OC(=O)n1c(C(N)=O)cc2ccc(C)cc21

>  <Energy>  (36) 
70.74597799334524

>  <Genealogy>  (36) 
C#CCOC(=O)[C@@H](O)OC(=O)n1c(C(N)=O)cc2ccc(C)cc21 (chirality)
C#CCOC(=O)[C@@H](O)OC(=O)n1c(C(N)=O)cc2ccc(C)cc21 (3D coordinates assigned)
C#CCOC(=O)[C@@H](O)OC(=O)n1c(C(N)=O)cc2ccc(C)cc21 (optimized conformer: 70.74597799334524 kcal/mol)

>  <smiles>  (36) 
C#CCOC(=O)C(O)OC(=O)n1c(C(N)=O)cc2ccc(C)cc21

>  <score_type>  (36) 
oracle

>  <origin>  (36) 
adg

>  <m_score__min__energy>  (36) 
-7.96

>  <m_primary>  (36) 
energy

$$$$
37:0
     RDKit          3D

 49 50  0  0  0  0  0  0  0  0999 V2000
   -1.6610   25.9580  -26.4390 C   0  0  0  0  0  0  0  0  0  0  0  0
   -0.8600   26.6430  -27.5350 C   0  0  0  0  0  0  0  0  0  0  0  0
   -1.1200   26.0110  -28.7830 O   0  0  0  0  0  0  0  0  0  0  0  0
   -0.9390   24.6390  -28.9850 C   0  0  0  0  0  0  0  0  0  0  0  0
    0.1710   24.0940  -28.7320 O   0  0  0  0  0  0  0  0  0  0  0  0
   -2.0550   23.8370  -29.5790 C   0  0  0  0  0  0  0  0  0  0  0  0
   -3.2250   24.6740  -29.8540 N   0  0  0  0  0  0  0  0  0  0  0  0
   -4.5240   24.1640  -30.2110 C   0  0  0  0  0  0  0  0  0  0  0  0
   -5.6580   24.9950  -30.0350 C   0  0  0  0  0  0  0  0  0  0  0  0
   -6.9450   24.5390  -30.3630 C   0  0  0  0  0  0  0  0  0  0  0  0
   -7.0720   23.2450  -30.8590 C   0  0  0  0  0  0  0  0  0  0  0  0
   -8.1940   22.5670  -31.2750 C   0  0  0  0  0  0  0  0  0  0  0  0
   -7.7360   21.3170  -31.6810 C   0  0  0  0  0  0  0  0  0  0  0  0
   -8.6300   20.2360  -32.1410 C   0  0  0  0  0  0  0  0  0  0  0  0
   -8.5070   19.6810  -33.4500 N   0  0  0  0  0  0  0  0  0  0  0  0
   -9.4810   19.7550  -31.3440 O   0  0  0  0  0  0  0  0  0  0  0  0
   -6.3830   21.2290  -31.5390 N   0  0  0  0  0  0  0  0  0  0  0  0
   -5.5290   20.1520  -31.9600 C   0  0  0  0  0  0  0  0  0  0  0  0
   -4.5990   19.7610  -31.2040 O   0  0  0  0  0  0  0  0  0  0  0  0
   -5.7470   19.5410  -33.2020 O   0  0  0  0  0  0  0  0  0  0  0  0
   -5.6260   18.1430  -33.4970 C   0  0  0  0  0  0  0  0  0  0  0  0
   -6.4470   17.3070  -32.4980 C   0  0  0  0  0  0  0  0  0  0  0  0
   -4.1400   17.7790  -33.3510 C   0  0  0  0  0  0  0  0  0  0  0  0
   -6.0700   17.8520  -34.9440 C   0  0  0  0  0  0  0  0  0  0  0  0
   -5.9910   22.4190  -31.0270 C   0  0  0  0  0  0  0  0  0  0  0  0
   -4.6930   22.8560  -30.7300 C   0  0  0  0  0  0  0  0  0  0  0  0
   -1.2860   26.2787  -25.4559 H   0  0  0  0  0  0  0  0  0  0  0  0
   -2.7219   26.2325  -26.5341 H   0  0  0  0  0  0  0  0  0  0  0  0
   -1.5545   24.8673  -26.5341 H   0  0  0  0  0  0  0  0  0  0  0  0
   -1.1511   27.7022  -27.5935 H   0  0  0  0  0  0  0  0  0  0  0  0
    0.2129   26.5679  -27.3043 H   0  0  0  0  0  0  0  0  0  0  0  0
   -1.7093   23.3843  -30.5200 H   0  0  0  0  0  0  0  0  0  0  0  0
   -2.3463   23.0600  -28.8569 H   0  0  0  0  0  0  0  0  0  0  0  0
   -3.1140   25.7050  -29.7180 H   0  0  0  0  0  0  0  0  0  0  0  0
   -5.5284   26.0118  -29.6358 H   0  0  0  0  0  0  0  0  0  0  0  0
   -7.8258   25.1848  -30.2319 H   0  0  0  0  0  0  0  0  0  0  0  0
   -9.2309   22.9340  -31.2847 H   0  0  0  0  0  0  0  0  0  0  0  0
   -7.7090   19.9390  -34.0730 H   0  0  0  0  0  0  0  0  0  0  0  0
   -9.1720   18.9430  -33.7720 H   0  0  0  0  0  0  0  0  0  0  0  0
   -6.1710   17.5880  -31.4709 H   0  0  0  0  0  0  0  0  0  0  0  0
   -7.5190   17.4972  -32.6547 H   0  0  0  0  0  0  0  0  0  0  0  0
   -6.2374   16.2386  -32.6547 H   0  0  0  0  0  0  0  0  0  0  0  0
   -3.8812   17.7156  -32.2838 H   0  0  0  0  0  0  0  0  0  0  0  0
   -3.9513   16.8081  -33.8324 H   0  0  0  0  0  0  0  0  0  0  0  0
   -3.5239   18.5528  -33.8324 H   0  0  0  0  0  0  0  0  0  0  0  0
   -6.9899   17.2491  -34.9310 H   0  0  0  0  0  0  0  0  0  0  0  0
   -6.2608   18.8008  -35.4668 H   0  0  0  0  0  0  0  0  0  0  0  0
   -5.2761   17.2984  -35.4668 H   0  0  0  0  0  0  0  0  0  0  0  0
   -3.8261   22.1995  -30.8957 H   0  0  0  0  0  0  0  0  0  0  0  0
  1  2  1  0
  2  3  1  0
  3  4  1  0
  4  5  2  0
  4  6  1  0
  6  7  1  0
  7  8  1  0
  8  9  2  0
  9 10  1  0
 10 11  2  0
 11 12  1  0
 12 13  2  0
 13 14  1  0
 14 15  1  0
 14 16  2  0
 13 17  1  0
 17 18  1  0
 18 19  2  0
 18 20  1  0
 20 21  1  0
 21 22  1  0
 21 23  1  0
 21 24  1  0
 17 25  1  0
 25 26  2  0
 26  8  1  0
 25 11  1  0
  1 27  1  0
  1 28  1  0
  1 29  1  0
  2 30  1  0
  2 31  1  0
  6 32  1  0
  6 33  1  0
  7 34  1  0
  9 35  1  0
 10 36  1  0
 12 37  1  0
 15 38  1  0
 15 39  1  0
 22 40  1  0
 22 41  1  0
 22 42  1  0
 23 43  1  0
 23 44  1  0
 23 45  1  0
 24 46  1  0
 24 47  1  0
 24 48  1  0
 26 49  1  0
M  END
>  <UniqueID>  (37) 
37

>  <SMILES>  (37) 
CCOC(=O)CNc1ccc2cc(C(N)=O)n(C(=O)OC(C)(C)C)c2c1

>  <Energy>  (37) 
74.36832823962426

>  <Genealogy>  (37) 
CCOC(=O)CNc1ccc2cc(C(N)=O)n(C(=O)OC(C)(C)C)c2c1 (3D coordinates assigned)
CCOC(=O)CNc1ccc2cc(C(N)=O)n(C(=O)OC(C)(C)C)c2c1 (optimized conformer: 74.36832823962426 kcal/mol)

>  <smiles>  (37) 
CCOC(=O)CNc1ccc2cc(C(N)=O)n(C(=O)OC(C)(C)C)c2c1

>  <score_type>  (37) 
oracle

>  <origin>  (37) 
adg

>  <m_score__min__energy>  (37) 
-8.7699999999999996

>  <m_primary>  (37) 
energy

$$$$
38:0
     RDKit          3D

 37 38  0  0  0  0  0  0  0  0999 V2000
   -8.0320   19.0760  -33.0790 N   0  0  0  0  0  0  0  0  0  0  0  0
   -8.6220   20.2060  -32.4340 C   0  0  0  0  0  0  0  0  0  0  0  0
   -9.8740   20.2530  -32.3020 O   0  0  0  0  0  0  0  0  0  0  0  0
   -7.7820   21.3270  -31.9570 C   0  0  0  0  0  0  0  0  0  0  0  0
   -8.2910   22.5440  -31.5080 C   0  0  0  0  0  0  0  0  0  0  0  0
   -7.1980   23.2590  -31.0750 C   0  0  0  0  0  0  0  0  0  0  0  0
   -7.1230   24.5420  -30.5430 C   0  0  0  0  0  0  0  0  0  0  0  0
   -5.8550   25.0450  -30.2080 C   0  0  0  0  0  0  0  0  0  0  0  0
   -4.6850   24.2640  -30.4140 C   0  0  0  0  0  0  0  0  0  0  0  0
   -3.3720   24.7630  -30.0900 N   0  0  0  0  0  0  0  0  0  0  0  0
   -2.4240   24.0850  -29.2080 C   0  0  0  0  0  0  0  0  0  0  0  0
   -1.1940   24.9180  -29.0240 C   0  0  0  0  0  0  0  0  0  0  0  0
   -1.2100   26.1450  -29.3090 O   0  0  0  0  0  0  0  0  0  0  0  0
   -0.0190   24.3340  -28.5680 O   0  0  0  0  0  0  0  0  0  0  0  0
   -4.8080   22.9660  -30.9600 C   0  0  0  0  0  0  0  0  0  0  0  0
   -6.0850   22.4840  -31.2670 C   0  0  0  0  0  0  0  0  0  0  0  0
   -6.4260   21.2930  -31.8070 N   0  0  0  0  0  0  0  0  0  0  0  0
   -5.5300   20.2480  -32.2170 C   0  0  0  0  0  0  0  0  0  0  0  0
   -4.8040   19.6700  -31.3630 O   0  0  0  0  0  0  0  0  0  0  0  0
   -5.4600   19.8810  -33.5670 O   0  0  0  0  0  0  0  0  0  0  0  0
   -4.4520   19.0240  -34.0980 C   0  0  0  0  0  0  0  0  0  0  0  0
   -5.0610   17.6980  -34.5570 C   0  0  0  0  0  0  0  0  0  0  0  0
   -6.4580   17.7980  -34.6100 O   0  0  0  0  0  0  0  0  0  0  0  0
   -6.9960   18.9770  -33.1590 H   0  0  0  0  0  0  0  0  0  0  0  0
   -8.6380   18.3080  -33.4460 H   0  0  0  0  0  0  0  0  0  0  0  0
   -9.3431   22.8649  -31.5012 H   0  0  0  0  0  0  0  0  0  0  0  0
   -8.0300   25.1450  -30.3891 H   0  0  0  0  0  0  0  0  0  0  0  0
   -5.7662   26.0550  -29.7813 H   0  0  0  0  0  0  0  0  0  0  0  0
   -3.0670   25.6700  -30.5110 H   0  0  0  0  0  0  0  0  0  0  0  0
   -2.8968   23.9159  -28.2293 H   0  0  0  0  0  0  0  0  0  0  0  0
   -2.1394   23.1242  -29.6617 H   0  0  0  0  0  0  0  0  0  0  0  0
   -3.9168   22.3468  -31.1400 H   0  0  0  0  0  0  0  0  0  0  0  0
   -3.9725   19.5180  -34.9559 H   0  0  0  0  0  0  0  0  0  0  0  0
   -3.7092   18.8205  -33.3126 H   0  0  0  0  0  0  0  0  0  0  0  0
   -4.6766   17.4488  -35.5571 H   0  0  0  0  0  0  0  0  0  0  0  0
   -4.7851   16.9100  -33.8407 H   0  0  0  0  0  0  0  0  0  0  0  0
   -6.6650   18.7160  -34.9250 H   0  0  0  0  0  0  0  0  0  0  0  0
  1  2  1  0
  2  3  2  0
  2  4  1  0
  4  5  2  0
  5  6  1  0
  6  7  2  0
  7  8  1  0
  8  9  2  0
  9 10  1  0
 10 11  1  0
 11 12  1  0
 12 13  2  0
 12 14  1  0
  9 15  1  0
 15 16  2  0
 16 17  1  0
 17 18  1  0
 18 19  2  0
 18 20  1  0
 20 21  1  0
 21 22  1  0
 22 23  1  0
 17  4  1  0
 16  6  1  0
  1 24  1  0
  1 25  1  0
  5 26  1  0
  7 27  1  0
  8 28  1  0
 10 29  1  0
 11 30  1  0
 11 31  1  0
 15 32  1  0
 21 33  1  0
 21 34  1  0
 22 35  1  0
 22 36  1  0
 23 37  1  0
M  CHG  1  14  -1
M  END
>  <UniqueID>  (38) 
38

>  <SMILES>  (38) 
NC(=O)c1cc2ccc(NCC(=O)[O-])cc2n1C(=O)OCCO

>  <Energy>  (38) 
71.0115255255984

>  <Genealogy>  (38) 
NC(=O)c1cc2ccc(NCC(=O)[O-])cc2n1C(=O)OCCO (protonated)
NC(=O)c1cc2ccc(NCC(=O)[O-])cc2n1C(=O)OCCO (3D coordinates assigned)
NC(=O)c1cc2ccc(NCC(=O)[O-])cc2n1C(=O)OCCO (optimized conformer: 71.0115255255984 kcal/mol)

>  <smiles>  (38) 
NC(=O)c1cc2ccc(NCC(=O)O)cc2n1C(=O)OCCO

>  <score_type>  (38) 
oracle

>  <origin>  (38) 
adg

>  <m_score__min__energy>  (38) 
-9.1899999999999995

>  <m_primary>  (38) 
energy

$$$$
39:0
     RDKit          3D

 50 52  0  0  0  0  0  0  0  0999 V2000
   -2.7040   18.8390  -33.2120 C   0  0  0  0  0  0  0  0  0  0  0  0
   -3.6410   19.1210  -34.2260 O   0  0  0  0  0  0  0  0  0  0  0  0
   -4.3250   17.9360  -34.5760 C   0  0  0  0  0  0  0  0  0  0  0  0
   -5.8000   18.2540  -34.8360 C   0  0  0  0  0  0  0  0  0  0  0  0
   -6.5570   18.3250  -33.5740 N   0  0  0  0  0  0  0  0  0  0  0  0
   -7.0170   17.0620  -32.9790 C   0  0  0  0  0  0  0  0  0  0  0  0
   -6.8550   19.5960  -32.9260 C   0  0  0  0  0  0  0  0  0  0  0  0
   -8.2000   19.9940  -32.6650 C   0  0  0  0  0  0  0  0  0  0  0  0
   -8.4900   21.2110  -32.0270 C   0  0  0  0  0  0  0  0  0  0  0  0
   -7.4280   22.0270  -31.6630 C   0  0  0  0  0  0  0  0  0  0  0  0
   -7.4300   23.2380  -31.0120 C   0  0  0  0  0  0  0  0  0  0  0  0
   -6.0890   23.5960  -30.8950 C   0  0  0  0  0  0  0  0  0  0  0  0
   -5.6230   24.8810  -30.3280 C   0  0  0  0  0  0  0  0  0  0  0  0
   -5.9640   25.2540  -28.9910 N   0  0  0  0  0  0  0  0  0  0  0  0
   -4.9470   25.6760  -31.0320 O   0  0  0  0  0  0  0  0  0  0  0  0
   -5.2910   22.6420  -31.4520 N   0  0  0  0  0  0  0  0  0  0  0  0
   -3.8540   22.6090  -31.4630 C   0  0  0  0  0  0  0  0  0  0  0  0
   -3.2520   21.5950  -31.9090 O   0  0  0  0  0  0  0  0  0  0  0  0
   -3.1370   23.7080  -30.9700 O   0  0  0  0  0  0  0  0  0  0  0  0
   -2.5480   23.7900  -29.7010 C   0  0  0  0  0  0  0  0  0  0  0  0
   -2.2360   24.9080  -29.2070 O   0  0  0  0  0  0  0  0  0  0  0  0
   -2.2920   22.5470  -28.9380 C   0  0  0  0  0  0  0  0  0  0  0  0
   -3.3320   21.9310  -28.2160 C   0  0  0  0  0  0  0  0  0  0  0  0
   -3.0930   20.7590  -27.4930 C   0  0  0  0  0  0  0  0  0  0  0  0
   -1.8180   20.1890  -27.4810 C   0  0  0  0  0  0  0  0  0  0  0  0
   -0.7780   20.7910  -28.1940 C   0  0  0  0  0  0  0  0  0  0  0  0
   -1.0110   21.9640  -28.9190 C   0  0  0  0  0  0  0  0  0  0  0  0
   -6.1280   21.6860  -31.9170 C   0  0  0  0  0  0  0  0  0  0  0  0
   -5.8050   20.4710  -32.5320 C   0  0  0  0  0  0  0  0  0  0  0  0
   -3.1748   18.9807  -32.2280 H   0  0  0  0  0  0  0  0  0  0  0  0
   -2.3617   17.7980  -33.3082 H   0  0  0  0  0  0  0  0  0  0  0  0
   -1.8440   19.5181  -33.3082 H   0  0  0  0  0  0  0  0  0  0  0  0
   -3.8765   17.5090  -35.4851 H   0  0  0  0  0  0  0  0  0  0  0  0
   -4.2465   17.2112  -33.7523 H   0  0  0  0  0  0  0  0  0  0  0  0
   -5.8732   19.2217  -35.3539 H   0  0  0  0  0  0  0  0  0  0  0  0
   -6.2269   17.4513  -35.4552 H   0  0  0  0  0  0  0  0  0  0  0  0
   -6.9881   17.1414  -31.8823 H   0  0  0  0  0  0  0  0  0  0  0  0
   -8.0475   16.8571  -33.3047 H   0  0  0  0  0  0  0  0  0  0  0  0
   -6.3597   16.2424  -33.3047 H   0  0  0  0  0  0  0  0  0  0  0  0
   -9.0261   19.3346  -32.9695 H   0  0  0  0  0  0  0  0  0  0  0  0
   -9.5288   21.5089  -31.8217 H   0  0  0  0  0  0  0  0  0  0  0  0
   -8.3046   23.8038  -30.6587 H   0  0  0  0  0  0  0  0  0  0  0  0
   -5.6600   26.1780  -28.6120 H   0  0  0  0  0  0  0  0  0  0  0  0
   -6.4780   24.6000  -28.3610 H   0  0  0  0  0  0  0  0  0  0  0  0
   -4.3385   22.3747  -28.2210 H   0  0  0  0  0  0  0  0  0  0  0  0
   -3.9114   20.2842  -26.9319 H   0  0  0  0  0  0  0  0  0  0  0  0
   -1.6327   19.2668  -26.9107 H   0  0  0  0  0  0  0  0  0  0  0  0
    0.2259   20.3415  -28.1850 H   0  0  0  0  0  0  0  0  0  0  0  0
   -0.1882   22.4338  -29.4778 H   0  0  0  0  0  0  0  0  0  0  0  0
   -4.7544   20.1967  -32.7081 H   0  0  0  0  0  0  0  0  0  0  0  0
  1  2  1  0
  2  3  1  0
  3  4  1  0
  4  5  1  0
  5  6  1  0
  5  7  1  0
  7  8  2  0
  8  9  1  0
  9 10  2  0
 10 11  1  0
 11 12  2  0
 12 13  1  0
 13 14  1  0
 13 15  2  0
 12 16  1  0
 16 17  1  0
 17 18  2  0
 17 19  1  0
 19 20  1  0
 20 21  2  0
 20 22  1  0
 22 23  2  0
 23 24  1  0
 24 25  2  0
 25 26  1  0
 26 27  2  0
 16 28  1  0
 28 29  2  0
 29  7  1  0
 28 10  1  0
 27 22  1  0
  1 30  1  0
  1 31  1  0
  1 32  1  0
  3 33  1  0
  3 34  1  0
  4 35  1  0
  4 36  1  0
  6 37  1  0
  6 38  1  0
  6 39  1  0
  8 40  1  0
  9 41  1  0
 11 42  1  0
 14 43  1  0
 14 44  1  0
 23 45  1  0
 24 46  1  0
 25 47  1  0
 26 48  1  0
 27 49  1  0
 29 50  1  0
M  END
>  <UniqueID>  (39) 
39

>  <SMILES>  (39) 
COCCN(C)c1ccc2cc(C(N)=O)n(C(=O)OC(=O)c3ccccc3)c2c1

>  <Energy>  (39) 
93.27918753528257

>  <Genealogy>  (39) 
COCCN(C)c1ccc2cc(C(N)=O)n(C(=O)OC(=O)c3ccccc3)c2c1 (3D coordinates assigned)
COCCN(C)c1ccc2cc(C(N)=O)n(C(=O)OC(=O)c3ccccc3)c2c1 (optimized conformer: 93.27918753528257 kcal/mol)

>  <smiles>  (39) 
COCCN(C)c1ccc2cc(C(N)=O)n(C(=O)OC(=O)c3ccccc3)c2c1

>  <score_type>  (39) 
oracle

>  <origin>  (39) 
adg

>  <m_score__min__energy>  (39) 
-9.5099999999999998

>  <m_primary>  (39) 
energy

$$$$
40:0
     RDKit          3D

 50 52  0  0  0  0  0  0  0  0999 V2000
   -7.6110   17.4220  -32.6790 C   0  0  0  0  0  0  0  0  0  0  0  0
   -7.5540   18.5620  -32.2910 C   0  0  0  0  0  0  0  0  0  0  0  0
   -7.4860   19.9230  -31.8270 C   0  0  0  0  0  0  0  0  0  0  0  0
   -8.6460   20.5530  -31.3210 C   0  0  0  0  0  0  0  0  0  0  0  0
   -8.5960   21.8850  -30.8780 C   0  0  0  0  0  0  0  0  0  0  0  0
   -7.3740   22.5510  -30.9490 C   0  0  0  0  0  0  0  0  0  0  0  0
   -7.0520   23.8470  -30.6170 C   0  0  0  0  0  0  0  0  0  0  0  0
   -5.6950   23.9750  -30.9040 C   0  0  0  0  0  0  0  0  0  0  0  0
   -4.9140   25.1950  -30.6120 C   0  0  0  0  0  0  0  0  0  0  0  0
   -3.5000   25.1380  -30.4380 N   0  0  0  0  0  0  0  0  0  0  0  0
   -5.5100   26.2960  -30.4650 O   0  0  0  0  0  0  0  0  0  0  0  0
   -5.1990   22.8080  -31.4040 N   0  0  0  0  0  0  0  0  0  0  0  0
   -3.8770   22.5630  -31.9100 C   0  0  0  0  0  0  0  0  0  0  0  0
   -3.7090   22.3530  -33.1430 O   0  0  0  0  0  0  0  0  0  0  0  0
   -2.7870   22.5830  -31.0300 O   0  0  0  0  0  0  0  0  0  0  0  0
   -1.5980   21.8620  -31.2040 C   0  0  0  0  0  0  0  0  0  0  0  0
   -1.1930   21.5440  -32.3560 O   0  0  0  0  0  0  0  0  0  0  0  0
   -0.8630   21.5030  -30.0700 O   0  0  0  0  0  0  0  0  0  0  0  0
   -1.0000   20.2450  -29.4090 C   0  0  0  0  0  0  0  0  0  0  0  0
   -1.6880   20.4270  -28.0500 C   0  0  0  0  0  0  0  0  0  0  0  0
   -1.3760   21.7890  -27.3910 C   0  0  0  0  0  0  0  0  0  0  0  0
   -2.1630   22.9230  -27.9400 N   0  0  0  0  0  0  0  0  0  0  0  0
   -3.5900   22.8480  -27.5300 C   0  0  0  0  0  0  0  0  0  0  0  0
   -4.2400   24.2420  -27.5000 C   0  0  0  0  0  0  0  0  0  0  0  0
   -3.6280   25.1350  -26.5790 O   0  0  0  0  0  0  0  0  0  0  0  0
   -2.2510   24.8620  -26.3500 C   0  0  0  0  0  0  0  0  0  0  0  0
   -1.5420   24.2220  -27.5570 C   0  0  0  0  0  0  0  0  0  0  0  0
   -6.2390   21.9450  -31.4220 C   0  0  0  0  0  0  0  0  0  0  0  0
   -6.2640   20.6240  -31.8870 C   0  0  0  0  0  0  0  0  0  0  0  0
   -7.6630   16.3818  -33.0330 H   0  0  0  0  0  0  0  0  0  0  0  0
   -9.5937   19.9966  -31.2739 H   0  0  0  0  0  0  0  0  0  0  0  0
   -9.4935   22.3868  -30.4872 H   0  0  0  0  0  0  0  0  0  0  0  0
   -7.7235   24.6180  -30.2112 H   0  0  0  0  0  0  0  0  0  0  0  0
   -2.8840   24.7350  -31.1780 H   0  0  0  0  0  0  0  0  0  0  0  0
   -1.6045   19.5712  -30.0339 H   0  0  0  0  0  0  0  0  0  0  0  0
   -0.0001   19.8158  -29.2480 H   0  0  0  0  0  0  0  0  0  0  0  0
   -2.7756   20.3490  -28.1949 H   0  0  0  0  0  0  0  0  0  0  0  0
   -1.3047   19.6429  -27.3804 H   0  0  0  0  0  0  0  0  0  0  0  0
   -1.5898   21.7091  -26.3149 H   0  0  0  0  0  0  0  0  0  0  0  0
   -0.3181   22.0070  -27.5990 H   0  0  0  0  0  0  0  0  0  0  0  0
   -2.1220   22.8710  -28.9850 H   0  0  0  0  0  0  0  0  0  0  0  0
   -4.1350   22.2144  -28.2453 H   0  0  0  0  0  0  0  0  0  0  0  0
   -3.6369   22.4225  -26.5167 H   0  0  0  0  0  0  0  0  0  0  0  0
   -4.1712   24.6796  -28.5069 H   0  0  0  0  0  0  0  0  0  0  0  0
   -5.2816   24.1055  -27.1737 H   0  0  0  0  0  0  0  0  0  0  0  0
   -1.7439   25.8082  -26.1100 H   0  0  0  0  0  0  0  0  0  0  0  0
   -2.1982   24.1384  -25.5232 H   0  0  0  0  0  0  0  0  0  0  0  0
   -1.6029   24.9113  -28.4120 H   0  0  0  0  0  0  0  0  0  0  0  0
   -0.4958   24.0307  -27.2764 H   0  0  0  0  0  0  0  0  0  0  0  0
   -5.3570   20.1474  -32.2872 H   0  0  0  0  0  0  0  0  0  0  0  0
  1  2  3  0
  2  3  1  0
  3  4  2  0
  4  5  1  0
  5  6  2  0
  6  7  1  0
  7  8  2  0
  8  9  1  0
  9 10  1  0
  9 11  2  0
  8 12  1  0
 12 13  1  0
 13 14  2  0
 13 15  1  0
 15 16  1  0
 16 17  2  0
 16 18  1  0
 18 19  1  0
 19 20  1  0
 20 21  1  0
 21 22  1  0
 22 23  1  0
 23 24  1  0
 24 25  1  0
 25 26  1  0
 26 27  1  0
 12 28  1  0
 28 29  2  0
 29  3  1  0
 28  6  1  0
 27 22  1  0
  1 30  1  0
  4 31  1  0
  5 32  1  0
  7 33  1  0
 10 34  1  0
 19 35  1  0
 19 36  1  0
 20 37  1  0
 20 38  1  0
 21 39  1  0
 21 40  1  0
 22 41  1  0
 23 42  1  0
 23 43  1  0
 24 44  1  0
 24 45  1  0
 26 46  1  0
 26 47  1  0
 27 48  1  0
 27 49  1  0
 29 50  1  0
M  CHG  2  10  -1  22   1
M  END
>  <UniqueID>  (40) 
40

>  <SMILES>  (40) 
C#Cc1ccc2cc(C([NH-])=O)n(C(=O)OC(=O)OCCC[NH+]3CCOCC3)c2c1

>  <Energy>  (40) 
101.70224248716956

>  <Genealogy>  (40) 
C#Cc1ccc2cc(C([NH-])=O)n(C(=O)OC(=O)OCCC[NH+]3CCOCC3)c2c1 (protonated)
C#Cc1ccc2cc(C([NH-])=O)n(C(=O)OC(=O)OCCC[NH+]3CCOCC3)c2c1 (3D coordinates assigned)
C#Cc1ccc2cc(C([NH-])=O)n(C(=O)OC(=O)OCCC[NH+]3CCOCC3)c2c1 (nonaromatic ring conformer: 101.70224248716956 kcal/mol)

>  <smiles>  (40) 
C#Cc1ccc2cc(C(N)=O)n(C(=O)OC(=O)OCCCN3CCOCC3)c2c1

>  <score_type>  (40) 
oracle

>  <origin>  (40) 
adg

>  <m_score__min__energy>  (40) 
-9.7100000000000009

>  <m_primary>  (40) 
energy

$$$$
41:0
     RDKit          3D

 42 43  0  0  0  0  0  0  0  0999 V2000
   -1.4810   15.6780  -34.5910 C   0  0  0  0  0  0  0  0  0  0  0  0
   -1.7300   16.7540  -33.7130 O   0  0  0  0  0  0  0  0  0  0  0  0
   -0.7930   17.7860  -33.9400 C   0  0  0  0  0  0  0  0  0  0  0  0
   -1.2030   18.9600  -33.2690 O   0  0  0  0  0  0  0  0  0  0  0  0
   -1.4640   19.9780  -34.2120 C   0  0  0  0  0  0  0  0  0  0  0  0
   -2.8390   20.3400  -34.1450 O   0  0  0  0  0  0  0  0  0  0  0  0
   -3.5220   20.5230  -32.9370 C   0  0  0  0  0  0  0  0  0  0  0  0
   -2.8830   20.7370  -31.8720 O   0  0  0  0  0  0  0  0  0  0  0  0
   -4.9570   20.4540  -32.9130 N   0  0  0  0  0  0  0  0  0  0  0  0
   -5.7470   19.4660  -33.4220 C   0  0  0  0  0  0  0  0  0  0  0  0
   -5.2770   18.3370  -34.2550 C   0  0  0  0  0  0  0  0  0  0  0  0
   -3.9420   17.8440  -34.1280 N   0  0  0  0  0  0  0  0  0  0  0  0
   -6.0630   17.7780  -35.0640 O   0  0  0  0  0  0  0  0  0  0  0  0
   -7.0870   19.7150  -33.1350 C   0  0  0  0  0  0  0  0  0  0  0  0
   -7.0970   20.8960  -32.4290 C   0  0  0  0  0  0  0  0  0  0  0  0
   -8.1640   21.6090  -31.8930 C   0  0  0  0  0  0  0  0  0  0  0  0
   -7.8800   22.7940  -31.1930 C   0  0  0  0  0  0  0  0  0  0  0  0
   -6.5440   23.2320  -31.0300 C   0  0  0  0  0  0  0  0  0  0  0  0
   -6.2550   24.5160  -30.3010 C   0  0  0  0  0  0  0  0  0  0  0  0
   -5.0960   24.3280  -29.3200 C   0  0  0  0  0  0  0  0  0  0  0  0
   -3.8400   24.9250  -29.8690 C   0  0  0  0  0  0  0  0  0  0  0  0
   -3.8810   25.6520  -30.8980 O   0  0  0  0  0  0  0  0  0  0  0  0
   -2.6270   24.7130  -29.2240 O   0  0  0  0  0  0  0  0  0  0  0  0
   -5.4850   22.4900  -31.6000 C   0  0  0  0  0  0  0  0  0  0  0  0
   -5.7990   21.3230  -32.3080 C   0  0  0  0  0  0  0  0  0  0  0  0
   -1.2708   14.7696  -34.0074 H   0  0  0  0  0  0  0  0  0  0  0  0
   -2.3641   15.5103  -35.2251 H   0  0  0  0  0  0  0  0  0  0  0  0
   -0.6140   15.9152  -35.2251 H   0  0  0  0  0  0  0  0  0  0  0  0
    0.1921   17.4745  -33.5624 H   0  0  0  0  0  0  0  0  0  0  0  0
   -0.7290   17.9878  -35.0194 H   0  0  0  0  0  0  0  0  0  0  0  0
   -0.8414   20.8563  -33.9864 H   0  0  0  0  0  0  0  0  0  0  0  0
   -1.2277   19.6135  -35.2226 H   0  0  0  0  0  0  0  0  0  0  0  0
   -3.2470   18.3170  -33.5100 H   0  0  0  0  0  0  0  0  0  0  0  0
   -3.6310   17.0240  -34.6930 H   0  0  0  0  0  0  0  0  0  0  0  0
   -7.9539   19.0980  -33.4138 H   0  0  0  0  0  0  0  0  0  0  0  0
   -9.1989   21.2561  -32.0133 H   0  0  0  0  0  0  0  0  0  0  0  0
   -8.7035   23.3866  -30.7679 H   0  0  0  0  0  0  0  0  0  0  0  0
   -5.9882   25.2943  -31.0311 H   0  0  0  0  0  0  0  0  0  0  0  0
   -7.1518   24.8143  -29.7381 H   0  0  0  0  0  0  0  0  0  0  0  0
   -5.3444   24.8204  -28.3683 H   0  0  0  0  0  0  0  0  0  0  0  0
   -4.9369   23.2512  -29.1611 H   0  0  0  0  0  0  0  0  0  0  0  0
   -4.4415   22.8203  -31.4905 H   0  0  0  0  0  0  0  0  0  0  0  0
  1  2  1  0
  2  3  1  0
  3  4  1  0
  4  5  1  0
  5  6  1  0
  6  7  1  0
  7  8  2  0
  7  9  1  0
  9 10  1  0
 10 11  1  0
 11 12  1  0
 11 13  2  0
 10 14  2  0
 14 15  1  0
 15 16  2  0
 16 17  1  0
 17 18  2  0
 18 19  1  0
 19 20  1  0
 20 21  1  0
 21 22  2  0
 21 23  1  0
 18 24  1  0
 24 25  2  0
 25  9  1  0
 25 15  1  0
  1 26  1  0
  1 27  1  0
  1 28  1  0
  3 29  1  0
  3 30  1  0
  5 31  1  0
  5 32  1  0
 12 33  1  0
 12 34  1  0
 14 35  1  0
 16 36  1  0
 17 37  1  0
 19 38  1  0
 19 39  1  0
 20 40  1  0
 20 41  1  0
 24 42  1  0
M  CHG  1  23  -1
M  END
>  <UniqueID>  (41) 
41

>  <SMILES>  (41) 
COCOCOC(=O)n1c(C(N)=O)cc2ccc(CCC(=O)[O-])cc21

>  <Energy>  (41) 
77.63006947653027

>  <Genealogy>  (41) 
COCOCOC(=O)n1c(C(N)=O)cc2ccc(CCC(=O)[O-])cc21 (protonated)
COCOCOC(=O)n1c(C(N)=O)cc2ccc(CCC(=O)[O-])cc21 (3D coordinates assigned)
COCOCOC(=O)n1c(C(N)=O)cc2ccc(CCC(=O)[O-])cc21 (optimized conformer: 77.63006947653027 kcal/mol)

>  <smiles>  (41) 
COCOCOC(=O)n1c(C(N)=O)cc2ccc(CCC(=O)O)cc21

>  <score_type>  (41) 
oracle

>  <origin>  (41) 
adg

>  <m_score__min__energy>  (41) 
-8.6400000000000006

>  <m_primary>  (41) 
energy

$$$$
42:0
     RDKit          3D

 41 42  0  0  0  0  0  0  0  0999 V2000
   -4.1510   25.5960  -30.5740 N   0  0  0  0  0  0  0  0  0  0  0  0
   -5.5280   25.2860  -30.3720 C   0  0  0  0  0  0  0  0  0  0  0  0
   -6.2730   26.1300  -29.8070 O   0  0  0  0  0  0  0  0  0  0  0  0
   -6.0580   23.9720  -30.7970 C   0  0  0  0  0  0  0  0  0  0  0  0
   -7.4000   23.7420  -31.0960 C   0  0  0  0  0  0  0  0  0  0  0  0
   -7.4600   22.4320  -31.5190 C   0  0  0  0  0  0  0  0  0  0  0  0
   -8.5500   21.6730  -31.9330 C   0  0  0  0  0  0  0  0  0  0  0  0
   -8.3210   20.3340  -32.2960 C   0  0  0  0  0  0  0  0  0  0  0  0
   -7.0140   19.7830  -32.2500 C   0  0  0  0  0  0  0  0  0  0  0  0
   -6.7960   18.3290  -32.5830 C   0  0  0  0  0  0  0  0  0  0  0  0
   -6.4620   18.1810  -33.9170 F   0  0  0  0  0  0  0  0  0  0  0  0
   -5.7700   17.7980  -31.8190 F   0  0  0  0  0  0  0  0  0  0  0  0
   -7.9570   17.6250  -32.3280 F   0  0  0  0  0  0  0  0  0  0  0  0
   -5.9370   20.5810  -31.7990 C   0  0  0  0  0  0  0  0  0  0  0  0
   -6.1930   21.9160  -31.4620 C   0  0  0  0  0  0  0  0  0  0  0  0
   -5.3190   22.8490  -31.0250 N   0  0  0  0  0  0  0  0  0  0  0  0
   -3.9080   22.6650  -30.8230 C   0  0  0  0  0  0  0  0  0  0  0  0
   -3.1110   22.9060  -31.7710 O   0  0  0  0  0  0  0  0  0  0  0  0
   -3.3940   22.2540  -29.5380 N   0  0  0  0  0  0  0  0  0  0  0  0
   -3.1300   20.8310  -29.2860 C   0  0  0  0  0  0  0  0  0  0  0  0
   -1.6920   20.5220  -29.5490 C   0  0  0  0  0  0  0  0  0  0  0  0
   -1.0790   21.1030  -30.4850 O   0  0  0  0  0  0  0  0  0  0  0  0
   -1.0160   19.6160  -28.7400 O   0  0  0  0  0  0  0  0  0  0  0  0
   -3.1930   23.2080  -28.4720 C   0  0  0  0  0  0  0  0  0  0  0  0
   -4.0420   24.1220  -28.2870 O   0  0  0  0  0  0  0  0  0  0  0  0
   -2.0040   23.1130  -27.5490 C   0  0  0  0  0  0  0  0  0  0  0  0
   -1.5930   24.4860  -27.0100 C   0  0  0  0  0  0  0  0  0  0  0  0
   -0.8480   25.2560  -28.0550 C   0  0  0  0  0  0  0  0  0  0  0  0
    0.4020   25.1470  -28.1520 O   0  0  0  0  0  0  0  0  0  0  0  0
   -1.5400   26.0560  -28.9540 O   0  0  0  0  0  0  0  0  0  0  0  0
   -3.4930   25.6750  -29.7670 H   0  0  0  0  0  0  0  0  0  0  0  0
   -8.2337   24.4547  -31.0121 H   0  0  0  0  0  0  0  0  0  0  0  0
   -9.5599   22.1070  -31.9751 H   0  0  0  0  0  0  0  0  0  0  0  0
   -9.1646   19.7064  -32.6193 H   0  0  0  0  0  0  0  0  0  0  0  0
   -4.9229   20.1633  -31.7150 H   0  0  0  0  0  0  0  0  0  0  0  0
   -3.3667   20.5970  -28.2376 H   0  0  0  0  0  0  0  0  0  0  0  0
   -3.7573   20.2240  -29.9554 H   0  0  0  0  0  0  0  0  0  0  0  0
   -2.2618   22.4603  -26.7019 H   0  0  0  0  0  0  0  0  0  0  0  0
   -1.1586   22.7025  -28.1207 H   0  0  0  0  0  0  0  0  0  0  0  0
   -2.4943   25.0463  -26.7208 H   0  0  0  0  0  0  0  0  0  0  0  0
   -0.9388   24.3450  -26.1370 H   0  0  0  0  0  0  0  0  0  0  0  0
  1  2  1  0
  2  3  2  0
  2  4  1  0
  4  5  2  0
  5  6  1  0
  6  7  2  0
  7  8  1  0
  8  9  2  0
  9 10  1  0
 10 11  1  0
 10 12  1  0
 10 13  1  0
  9 14  1  0
 14 15  2  0
 15 16  1  0
 16 17  1  0
 17 18  2  0
 17 19  1  0
 19 20  1  0
 20 21  1  0
 21 22  2  0
 21 23  1  0
 19 24  1  0
 24 25  2  0
 24 26  1  0
 26 27  1  0
 27 28  1  0
 28 29  2  0
 28 30  1  0
 16  4  1  0
 15  6  1  0
  1 31  1  0
  5 32  1  0
  7 33  1  0
  8 34  1  0
 14 35  1  0
 20 36  1  0
 20 37  1  0
 26 38  1  0
 26 39  1  0
 27 40  1  0
 27 41  1  0
M  CHG  3   1  -1  23  -1  30  -1
M  END
>  <UniqueID>  (42) 
42

>  <SMILES>  (42) 
[NH-]C(=O)c1cc2ccc(C(F)(F)F)cc2n1C(=O)N(CC(=O)[O-])C(=O)CCC(=O)[O-]

>  <Energy>  (42) 
78.0834081861198

>  <Genealogy>  (42) 
[NH-]C(=O)c1cc2ccc(C(F)(F)F)cc2n1C(=O)N(CC(=O)[O-])C(=O)CCC(=O)[O-] (protonated)
[NH-]C(=O)c1cc2ccc(C(F)(F)F)cc2n1C(=O)N(CC(=O)[O-])C(=O)CCC(=O)[O-] (3D coordinates assigned)
[NH-]C(=O)c1cc2ccc(C(F)(F)F)cc2n1C(=O)N(CC(=O)[O-])C(=O)CCC(=O)[O-] (optimized conformer: 78.0834081861198 kcal/mol)

>  <smiles>  (42) 
NC(=O)c1cc2ccc(C(F)(F)F)cc2n1C(=O)N(CC(=O)O)C(=O)CCC(=O)O

>  <score_type>  (42) 
oracle

>  <origin>  (42) 
adg

>  <m_score__min__energy>  (42) 
-12.5

>  <m_primary>  (42) 
energy

$$$$
43:0
     RDKit          3D

 35 36  0  0  0  0  0  0  0  0999 V2000
   -5.9440   17.1010  -32.4440 C   0  0  0  0  0  0  0  0  0  0  0  0
   -5.8200   18.2810  -33.3090 N   0  0  0  0  0  0  0  0  0  0  0  0
   -5.3200   18.1080  -34.6780 C   0  0  0  0  0  0  0  0  0  0  0  0
   -6.1860   19.5970  -32.8180 C   0  0  0  0  0  0  0  0  0  0  0  0
   -7.5460   20.0170  -32.8080 C   0  0  0  0  0  0  0  0  0  0  0  0
   -7.9120   21.2840  -32.3260 C   0  0  0  0  0  0  0  0  0  0  0  0
   -6.9050   22.1240  -31.8650 C   0  0  0  0  0  0  0  0  0  0  0  0
   -6.9830   23.3860  -31.3250 C   0  0  0  0  0  0  0  0  0  0  0  0
   -5.6690   23.7440  -31.0310 C   0  0  0  0  0  0  0  0  0  0  0  0
   -5.2850   25.0730  -30.5110 C   0  0  0  0  0  0  0  0  0  0  0  0
   -4.0440   25.6730  -30.8730 N   0  0  0  0  0  0  0  0  0  0  0  0
   -6.0850   25.7100  -29.7740 O   0  0  0  0  0  0  0  0  0  0  0  0
   -4.8140   22.7370  -31.3670 N   0  0  0  0  0  0  0  0  0  0  0  0
   -3.3950   22.6780  -31.1560 C   0  0  0  0  0  0  0  0  0  0  0  0
   -2.6650   22.0360  -31.9600 O   0  0  0  0  0  0  0  0  0  0  0  0
   -2.8270   23.3550  -30.0700 O   0  0  0  0  0  0  0  0  0  0  0  0
   -1.4830   23.1550  -29.6390 C   0  0  0  0  0  0  0  0  0  0  0  0
   -0.8900   24.4450  -29.1700 C   0  0  0  0  0  0  0  0  0  0  0  0
    0.2570   24.4590  -28.6500 O   0  0  0  0  0  0  0  0  0  0  0  0
   -1.5880   25.6340  -29.3330 O   0  0  0  0  0  0  0  0  0  0  0  0
   -5.5860   21.7540  -31.8800 C   0  0  0  0  0  0  0  0  0  0  0  0
   -5.1930   20.4900  -32.3350 C   0  0  0  0  0  0  0  0  0  0  0  0
   -5.9111   17.4139  -31.3900 H   0  0  0  0  0  0  0  0  0  0  0  0
   -6.9001   16.5964  -32.6470 H   0  0  0  0  0  0  0  0  0  0  0  0
   -5.1137   16.4087  -32.6470 H   0  0  0  0  0  0  0  0  0  0  0  0
   -4.2809   17.7485  -34.6462 H   0  0  0  0  0  0  0  0  0  0  0  0
   -5.9459   17.3742  -35.2069 H   0  0  0  0  0  0  0  0  0  0  0  0
   -5.3585   19.0717  -35.2069 H   0  0  0  0  0  0  0  0  0  0  0  0
   -8.3242   19.3368  -33.1846 H   0  0  0  0  0  0  0  0  0  0  0  0
   -8.9648   21.6025  -32.3136 H   0  0  0  0  0  0  0  0  0  0  0  0
   -7.8903   23.9857  -31.1601 H   0  0  0  0  0  0  0  0  0  0  0  0
   -3.1360   25.2630  -30.5590 H   0  0  0  0  0  0  0  0  0  0  0  0
   -1.4713   22.4289  -28.8128 H   0  0  0  0  0  0  0  0  0  0  0  0
   -0.8896   22.7751  -30.4837 H   0  0  0  0  0  0  0  0  0  0  0  0
   -4.1338   20.1936  -32.3187 H   0  0  0  0  0  0  0  0  0  0  0  0
  1  2  1  0
  2  3  1  0
  2  4  1  0
  4  5  2  0
  5  6  1  0
  6  7  2  0
  7  8  1  0
  8  9  2  0
  9 10  1  0
 10 11  1  0
 10 12  2  0
  9 13  1  0
 13 14  1  0
 14 15  2  0
 14 16  1  0
 16 17  1  0
 17 18  1  0
 18 19  2  0
 18 20  1  0
 13 21  1  0
 21 22  2  0
 22  4  1  0
 21  7  1  0
  1 23  1  0
  1 24  1  0
  1 25  1  0
  3 26  1  0
  3 27  1  0
  3 28  1  0
  5 29  1  0
  6 30  1  0
  8 31  1  0
 11 32  1  0
 17 33  1  0
 17 34  1  0
 22 35  1  0
M  CHG  2  11  -1  20  -1
M  END
>  <UniqueID>  (43) 
43

>  <SMILES>  (43) 
CN(C)c1ccc2cc(C([NH-])=O)n(C(=O)OCC(=O)[O-])c2c1

>  <Energy>  (43) 
73.44573198463017

>  <Genealogy>  (43) 
CN(C)c1ccc2cc(C([NH-])=O)n(C(=O)OCC(=O)[O-])c2c1 (protonated)
CN(C)c1ccc2cc(C([NH-])=O)n(C(=O)OCC(=O)[O-])c2c1 (3D coordinates assigned)
CN(C)c1ccc2cc(C([NH-])=O)n(C(=O)OCC(=O)[O-])c2c1 (optimized conformer: 73.44573198463017 kcal/mol)

>  <smiles>  (43) 
CN(C)c1ccc2cc(C(N)=O)n(C(=O)OCC(=O)O)c2c1

>  <score_type>  (43) 
oracle

>  <origin>  (43) 
adg

>  <m_score__min__energy>  (43) 
-12

>  <m_primary>  (43) 
energy

$$$$
44:0
     RDKit          3D

 70 73  0  0  0  0  0  0  0  0999 V2000
   -9.3710   21.4590  -31.1980 C   0  0  0  0  0  0  0  0  0  0  0  0
   -9.0960   20.0630  -31.2290 O   0  0  0  0  0  0  0  0  0  0  0  0
   -7.9730   19.4940  -31.8460 C   0  0  0  0  0  0  0  0  0  0  0  0
   -7.1750   18.5200  -31.2150 C   0  0  0  0  0  0  0  0  0  0  0  0
   -6.0540   17.9960  -31.8650 C   0  0  0  0  0  0  0  0  0  0  0  0
   -5.7070   18.4410  -33.1500 C   0  0  0  0  0  0  0  0  0  0  0  0
   -4.4610   17.9300  -33.8270 C   0  0  0  0  0  0  0  0  0  0  0  0
   -3.2810   18.6880  -33.3750 N   0  0  0  0  0  0  0  0  0  0  0  0
   -1.9320   18.1440  -33.6150 C   0  0  0  0  0  0  0  0  0  0  0  0
   -0.9210   19.2380  -33.8670 C   0  0  0  0  0  0  0  0  0  0  0  0
   -1.0900   20.1430  -34.9290 C   0  0  0  0  0  0  0  0  0  0  0  0
   -0.1530   21.1530  -35.1580 C   0  0  0  0  0  0  0  0  0  0  0  0
    0.9730   21.2750  -34.3380 C   0  0  0  0  0  0  0  0  0  0  0  0
    1.8840   22.3060  -34.6080 O   0  0  0  0  0  0  0  0  0  0  0  0
    3.0730   22.1480  -35.3750 C   0  0  0  0  0  0  0  0  0  0  0  0
    1.1540   20.3650  -33.2780 C   0  0  0  0  0  0  0  0  0  0  0  0
    0.2140   19.3560  -33.0470 C   0  0  0  0  0  0  0  0  0  0  0  0
   -3.4290   20.0030  -32.7920 C   0  0  0  0  0  0  0  0  0  0  0  0
   -4.1650   21.0170  -33.4610 C   0  0  0  0  0  0  0  0  0  0  0  0
   -4.3250   22.2890  -32.8830 C   0  0  0  0  0  0  0  0  0  0  0  0
   -3.7300   22.5260  -31.6490 C   0  0  0  0  0  0  0  0  0  0  0  0
   -3.7430   23.6510  -30.8550 C   0  0  0  0  0  0  0  0  0  0  0  0
   -2.9850   23.3220  -29.7320 C   0  0  0  0  0  0  0  0  0  0  0  0
   -2.6630   24.2770  -28.6520 C   0  0  0  0  0  0  0  0  0  0  0  0
   -2.0360   25.5270  -28.9370 N   0  0  0  0  0  0  0  0  0  0  0  0
   -2.9870   24.0070  -27.4650 O   0  0  0  0  0  0  0  0  0  0  0  0
   -2.5280   22.0430  -29.8270 N   0  0  0  0  0  0  0  0  0  0  0  0
   -1.7830   21.2910  -28.8590 C   0  0  0  0  0  0  0  0  0  0  0  0
   -0.5520   21.5120  -28.7120 O   0  0  0  0  0  0  0  0  0  0  0  0
   -2.4510   20.3550  -28.0580 O   0  0  0  0  0  0  0  0  0  0  0  0
   -1.9100   19.6560  -26.9280 C   0  0  0  0  0  0  0  0  0  0  0  0
   -1.2870   20.7100  -26.0010 C   0  0  0  0  0  0  0  0  0  0  0  0
   -3.0230   18.9150  -26.1660 C   0  0  0  0  0  0  0  0  0  0  0  0
   -0.8100   18.6740  -27.3750 C   0  0  0  0  0  0  0  0  0  0  0  0
   -2.9900   21.5720  -31.0050 C   0  0  0  0  0  0  0  0  0  0  0  0
   -2.8270   20.2940  -31.5470 C   0  0  0  0  0  0  0  0  0  0  0  0
   -6.5140   19.3950  -33.7860 C   0  0  0  0  0  0  0  0  0  0  0  0
   -7.6360   19.9170  -33.1370 C   0  0  0  0  0  0  0  0  0  0  0  0
   -9.4375   21.7965  -30.1532 H   0  0  0  0  0  0  0  0  0  0  0  0
   -8.5628   22.0033  -31.7084 H   0  0  0  0  0  0  0  0  0  0  0  0
  -10.3252   21.6562  -31.7084 H   0  0  0  0  0  0  0  0  0  0  0  0
   -7.4353   18.1698  -30.2053 H   0  0  0  0  0  0  0  0  0  0  0  0
   -5.4406   17.2308  -31.3668 H   0  0  0  0  0  0  0  0  0  0  0  0
   -4.3248   16.8668  -33.5800 H   0  0  0  0  0  0  0  0  0  0  0  0
   -4.5697   18.0555  -34.9144 H   0  0  0  0  0  0  0  0  0  0  0  0
   -1.6190   17.5667  -32.7325 H   0  0  0  0  0  0  0  0  0  0  0  0
   -1.9754   17.5065  -34.5104 H   0  0  0  0  0  0  0  0  0  0  0  0
   -1.9681   20.0550  -35.5857 H   0  0  0  0  0  0  0  0  0  0  0  0
   -0.3019   21.8576  -35.9895 H   0  0  0  0  0  0  0  0  0  0  0  0
    3.9331   22.0337  -34.6988 H   0  0  0  0  0  0  0  0  0  0  0  0
    2.9840   21.2538  -36.0094 H   0  0  0  0  0  0  0  0  0  0  0  0
    3.2206   23.0344  -36.0094 H   0  0  0  0  0  0  0  0  0  0  0  0
    2.0385   20.4486  -32.6294 H   0  0  0  0  0  0  0  0  0  0  0  0
    0.3641   18.6495  -32.2174 H   0  0  0  0  0  0  0  0  0  0  0  0
   -4.6149   20.8050  -34.4422 H   0  0  0  0  0  0  0  0  0  0  0  0
   -4.9040   23.0735  -33.3923 H   0  0  0  0  0  0  0  0  0  0  0  0
   -4.2453   24.6073  -31.0628 H   0  0  0  0  0  0  0  0  0  0  0  0
   -1.5520   25.6890  -29.8490 H   0  0  0  0  0  0  0  0  0  0  0  0
   -1.4568   20.4227  -24.9528 H   0  0  0  0  0  0  0  0  0  0  0  0
   -0.2058   20.7741  -26.1931 H   0  0  0  0  0  0  0  0  0  0  0  0
   -1.7522   21.6881  -26.1931 H   0  0  0  0  0  0  0  0  0  0  0  0
   -2.8607   19.0230  -25.0834 H   0  0  0  0  0  0  0  0  0  0  0  0
   -3.9996   19.3438  -26.4350 H   0  0  0  0  0  0  0  0  0  0  0  0
   -3.0042   17.8486  -26.4350 H   0  0  0  0  0  0  0  0  0  0  0  0
   -0.3238   18.2400  -26.4889 H   0  0  0  0  0  0  0  0  0  0  0  0
   -1.2586   17.8705  -27.9776 H   0  0  0  0  0  0  0  0  0  0  0  0
   -0.0623   19.2105  -27.9776 H   0  0  0  0  0  0  0  0  0  0  0  0
   -2.2416   19.5297  -31.0149 H   0  0  0  0  0  0  0  0  0  0  0  0
   -6.2625   19.7345  -34.8016 H   0  0  0  0  0  0  0  0  0  0  0  0
   -8.2599   20.6670  -33.6452 H   0  0  0  0  0  0  0  0  0  0  0  0
  1  2  1  0
  2  3  1  0
  3  4  2  0
  4  5  1  0
  5  6  2  0
  6  7  1  0
  7  8  1  0
  8  9  1  0
  9 10  1  0
 10 11  2  0
 11 12  1  0
 12 13  2  0
 13 14  1  0
 14 15  1  0
 13 16  1  0
 16 17  2  0
  8 18  1  0
 18 19  2  0
 19 20  1  0
 20 21  2  0
 21 22  1  0
 22 23  2  0
 23 24  1  0
 24 25  1  0
 24 26  2  0
 23 27  1  0
 27 28  1  0
 28 29  2  0
 28 30  1  0
 30 31  1  0
 31 32  1  0
 31 33  1  0
 31 34  1  0
 27 35  1  0
 35 36  2  0
  6 37  1  0
 37 38  2  0
 38  3  1  0
 17 10  1  0
 36 18  1  0
 35 21  1  0
  1 39  1  0
  1 40  1  0
  1 41  1  0
  4 42  1  0
  5 43  1  0
  7 44  1  0
  7 45  1  0
  9 46  1  0
  9 47  1  0
 11 48  1  0
 12 49  1  0
 15 50  1  0
 15 51  1  0
 15 52  1  0
 16 53  1  0
 17 54  1  0
 19 55  1  0
 20 56  1  0
 22 57  1  0
 25 58  1  0
 32 59  1  0
 32 60  1  0
 32 61  1  0
 33 62  1  0
 33 63  1  0
 33 64  1  0
 34 65  1  0
 34 66  1  0
 34 67  1  0
 36 68  1  0
 37 69  1  0
 38 70  1  0
M  CHG  1  25  -1
M  END
>  <UniqueID>  (44) 
44

>  <SMILES>  (44) 
COc1ccc(CN(Cc2ccc(OC)cc2)c2ccc3cc(C([NH-])=O)n(C(=O)OC(C)(C)C)c3c2)cc1

>  <Energy>  (44) 
105.99397309854174

>  <Genealogy>  (44) 
COc1ccc(CN(Cc2ccc(OC)cc2)c2ccc3cc(C([NH-])=O)n(C(=O)OC(C)(C)C)c3c2)cc1 (protonated)
COc1ccc(CN(Cc2ccc(OC)cc2)c2ccc3cc(C([NH-])=O)n(C(=O)OC(C)(C)C)c3c2)cc1 (3D coordinates assigned)
COc1ccc(CN(Cc2ccc(OC)cc2)c2ccc3cc(C([NH-])=O)n(C(=O)OC(C)(C)C)c3c2)cc1 (optimized conformer: 105.99397309854174 kcal/mol)

>  <smiles>  (44) 
COc1ccc(CN(Cc2ccc(OC)cc2)c2ccc3cc(C(N)=O)n(C(=O)OC(C)(C)C)c3c2)cc1

>  <score_type>  (44) 
oracle

>  <origin>  (44) 
adg

>  <m_score__min__energy>  (44) 
-11.539999999999999

>  <m_primary>  (44) 
energy

$$$$
45:0
     RDKit          3D

 38 39  0  0  0  0  0  0  0  0999 V2000
   -1.1556   23.0218  -30.7241 H   0  0  0  0  0  0  0  0  0  0  0  0
   -1.4320   23.2090  -29.6760 C   0  0  0  0  0  0  0  0  0  0  0  0
   -1.4920   24.5980  -29.1950 C   0  0  0  0  0  0  0  0  0  0  0  0
   -2.5310   25.2950  -29.3450 O   0  0  0  0  0  0  0  0  0  0  0  0
   -0.3840   25.1510  -28.5660 O   0  0  0  0  0  0  0  0  0  0  0  0
   -1.7020   22.1650  -28.8830 C   0  0  0  0  0  0  0  0  0  0  0  0
   -1.9756   22.3526  -27.8342 H   0  0  0  0  0  0  0  0  0  0  0  0
   -1.6460   20.7750  -29.3640 C   0  0  0  0  0  0  0  0  0  0  0  0
   -1.9800   19.8180  -28.6120 O   0  0  0  0  0  0  0  0  0  0  0  0
   -1.2170   20.5310  -30.6720 O   0  0  0  0  0  0  0  0  0  0  0  0
   -2.1110   20.1910  -31.7300 C   0  0  0  0  0  0  0  0  0  0  0  0
   -2.0542   19.1090  -31.9201 H   0  0  0  0  0  0  0  0  0  0  0  0
   -1.8241   20.7470  -32.6347 H   0  0  0  0  0  0  0  0  0  0  0  0
   -3.4470   20.5370  -31.3760 O   0  0  0  0  0  0  0  0  0  0  0  0
   -3.9710   21.8210  -31.5570 C   0  0  0  0  0  0  0  0  0  0  0  0
   -3.2290   22.7600  -31.9590 O   0  0  0  0  0  0  0  0  0  0  0  0
   -5.3600   22.0730  -31.2860 N   0  0  0  0  0  0  0  0  0  0  0  0
   -5.9210   23.2280  -30.8310 C   0  0  0  0  0  0  0  0  0  0  0  0
   -5.1870   24.4200  -30.3620 C   0  0  0  0  0  0  0  0  0  0  0  0
   -4.6110   25.1630  -31.2000 O   0  0  0  0  0  0  0  0  0  0  0  0
   -5.1700   24.7830  -28.9800 N   0  0  0  0  0  0  0  0  0  0  0  0
   -5.7750   24.2930  -28.2860 H   0  0  0  0  0  0  0  0  0  0  0  0
   -4.6120   25.6050  -28.6610 H   0  0  0  0  0  0  0  0  0  0  0  0
   -7.3100   23.1310  -30.8210 C   0  0  0  0  0  0  0  0  0  0  0  0
   -8.0310   23.9031  -30.5144 H   0  0  0  0  0  0  0  0  0  0  0  0
   -7.5880   21.8620  -31.2770 C   0  0  0  0  0  0  0  0  0  0  0  0
   -8.8130   21.2400  -31.4940 C   0  0  0  0  0  0  0  0  0  0  0  0
   -9.7581   21.7523  -31.2610 H   0  0  0  0  0  0  0  0  0  0  0  0
   -8.8060   19.9370  -32.0200 C   0  0  0  0  0  0  0  0  0  0  0  0
   -9.7585   19.4188  -32.2050 H   0  0  0  0  0  0  0  0  0  0  0  0
   -7.5840   19.2850  -32.3140 C   0  0  0  0  0  0  0  0  0  0  0  0
   -7.5900   17.9170  -32.9280 C   0  0  0  0  0  0  0  0  0  0  0  0
   -7.5933   17.1578  -32.1320 H   0  0  0  0  0  0  0  0  0  0  0  0
   -8.4887   17.7988  -33.5512 H   0  0  0  0  0  0  0  0  0  0  0  0
   -6.6924   17.7909  -33.5512 H   0  0  0  0  0  0  0  0  0  0  0  0
   -6.3600   19.9550  -32.0960 C   0  0  0  0  0  0  0  0  0  0  0  0
   -5.4027   19.4751  -32.3478 H   0  0  0  0  0  0  0  0  0  0  0  0
   -6.3940   21.2440  -31.5520 C   0  0  0  0  0  0  0  0  0  0  0  0
  1  2  1  0
  2  3  1  0
  3  4  2  0
  3  5  1  0
  2  6  2  0
  6  7  1  0
  6  8  1  0
  8  9  2  0
  8 10  1  0
 10 11  1  0
 11 12  1  0
 11 13  1  0
 11 14  1  0
 14 15  1  0
 15 16  2  0
 15 17  1  0
 17 18  1  0
 18 19  1  0
 19 20  2  0
 19 21  1  0
 21 22  1  0
 21 23  1  0
 18 24  2  0
 24 25  1  0
 24 26  1  0
 26 27  2  0
 27 28  1  0
 27 29  1  0
 29 30  1  0
 29 31  2  0
 31 32  1  0
 32 33  1  0
 32 34  1  0
 32 35  1  0
 31 36  1  0
 36 37  1  0
 36 38  2  0
 38 17  1  0
 38 26  1  0
M  CHG  1   5  -1
M  END
>  <UniqueID>  (45) 
45

>  <SMILES>  (45) 
Cc1ccc2cc(C(N)=O)n(C(=O)OCOC(=O)/C=C/C(=O)[O-])c2c1

>  <Energy>  (45) 
71.05470280005694

>  <Genealogy>  (45) 
Cc1ccc2cc(C(N)=O)n(C(=O)OCOC(=O)/C=C/C(=O)[O-])c2c1 (protonated)
Cc1ccc2cc(C(N)=O)n(C(=O)OCOC(=O)/C=C/C(=O)[O-])c2c1 (cis-trans isomerization)
Cc1ccc2cc(C(N)=O)n(C(=O)OCOC(=O)/C=C/C(=O)[O-])c2c1 (3D coordinates assigned)
Cc1ccc2cc(C(N)=O)n(C(=O)OCOC(=O)/C=C/C(=O)[O-])c2c1 (optimized conformer: 71.05470280005694 kcal/mol)

>  <smiles>  (45) 
Cc1ccc2cc(C(N)=O)n(C(=O)OCOC(=O)/C=C/C(=O)O)c2c1

>  <score_type>  (45) 
oracle

>  <origin>  (45) 
adg

>  <m_score__min__energy>  (45) 
-10.609999999999999

>  <m_primary>  (45) 
energy

$$$$
46:0
     RDKit          3D

 46 47  0  0  0  0  0  0  0  0999 V2000
   -7.9500   18.7660  -32.2650 C   0  0  0  0  0  0  0  0  0  0  0  0
   -7.7270   20.2240  -31.9980 C   0  0  0  0  0  0  0  0  0  0  0  0
   -8.7950   21.1430  -32.1390 C   0  0  0  0  0  0  0  0  0  0  0  0
   -8.5990   22.5090  -31.8810 C   0  0  0  0  0  0  0  0  0  0  0  0
   -7.3370   22.9200  -31.4610 C   0  0  0  0  0  0  0  0  0  0  0  0
   -6.8700   24.1800  -31.1770 C   0  0  0  0  0  0  0  0  0  0  0  0
   -5.5320   24.0120  -30.8280 C   0  0  0  0  0  0  0  0  0  0  0  0
   -4.6620   25.1330  -30.4050 C   0  0  0  0  0  0  0  0  0  0  0  0
   -3.3540   24.9010  -29.8930 N   0  0  0  0  0  0  0  0  0  0  0  0
   -5.0940   26.3140  -30.4700 O   0  0  0  0  0  0  0  0  0  0  0  0
   -5.1850   22.6920  -30.8860 N   0  0  0  0  0  0  0  0  0  0  0  0
   -3.8850   22.1110  -30.6650 C   0  0  0  0  0  0  0  0  0  0  0  0
   -3.2740   21.5820  -31.6340 O   0  0  0  0  0  0  0  0  0  0  0  0
   -3.2680   22.1690  -29.3560 N   0  0  1  0  0  0  0  0  0  0  0  0
   -4.2590   22.4690  -28.3020 C   0  0  0  0  0  0  0  0  0  0  0  0
   -2.4790   20.9480  -29.0690 C   0  0  0  0  0  0  0  0  0  0  0  0
   -1.2860   21.1860  -28.1780 C   0  0  0  0  0  0  0  0  0  0  0  0
   -1.2420   20.6380  -27.0450 O   0  0  0  0  0  0  0  0  0  0  0  0
   -0.2350   21.9910  -28.6340 O   0  0  0  0  0  0  0  0  0  0  0  0
   -0.3710   23.3040  -29.1040 C   0  0  0  0  0  0  0  0  0  0  0  0
   -1.1310   23.5710  -30.0760 O   0  0  0  0  0  0  0  0  0  0  0  0
    0.3530   24.3180  -28.4690 O   0  0  0  0  0  0  0  0  0  0  0  0
   -0.0800   24.9790  -27.2820 C   0  0  0  0  0  0  0  0  0  0  0  0
   -1.1780   25.9910  -27.5910 C   0  0  0  0  0  0  0  0  0  0  0  0
   -1.2420   26.2300  -28.9720 O   0  0  0  0  0  0  0  0  0  0  0  0
   -6.3010   22.0390  -31.2840 C   0  0  0  0  0  0  0  0  0  0  0  0
   -6.4630   20.6760  -31.5590 C   0  0  0  0  0  0  0  0  0  0  0  0
   -8.0325   18.2267  -31.3098 H   0  0  0  0  0  0  0  0  0  0  0  0
   -8.8784   18.6364  -32.8406 H   0  0  0  0  0  0  0  0  0  0  0  0
   -7.1028   18.3649  -32.8406 H   0  0  0  0  0  0  0  0  0  0  0  0
   -9.7861   20.7838  -32.4532 H   0  0  0  0  0  0  0  0  0  0  0  0
   -9.4178   23.2326  -32.0069 H   0  0  0  0  0  0  0  0  0  0  0  0
   -7.4341   25.1235  -31.2168 H   0  0  0  0  0  0  0  0  0  0  0  0
   -2.5110   25.2650  -30.3890 H   0  0  0  0  0  0  0  0  0  0  0  0
   -2.5840   22.9620  -29.3580 H   0  0  0  0  0  0  0  0  0  0  0  0
   -3.7968   22.3291  -27.3137 H   0  0  0  0  0  0  0  0  0  0  0  0
   -4.5988   23.5102  -28.4038 H   0  0  0  0  0  0  0  0  0  0  0  0
   -5.1192   21.7910  -28.4038 H   0  0  0  0  0  0  0  0  0  0  0  0
   -3.1382   20.2175  -28.5772 H   0  0  0  0  0  0  0  0  0  0  0  0
   -2.0905   20.5855  -30.0322 H   0  0  0  0  0  0  0  0  0  0  0  0
   -0.4683   24.2312  -26.5749 H   0  0  0  0  0  0  0  0  0  0  0  0
    0.7768   25.5131  -26.8453 H   0  0  0  0  0  0  0  0  0  0  0  0
   -2.1445   25.5953  -27.2456 H   0  0  0  0  0  0  0  0  0  0  0  0
   -0.9520   26.9350  -27.0735 H   0  0  0  0  0  0  0  0  0  0  0  0
   -1.2990   25.3370  -29.4040 H   0  0  0  0  0  0  0  0  0  0  0  0
   -5.6255   19.9735  -31.4361 H   0  0  0  0  0  0  0  0  0  0  0  0
  1  2  1  0
  2  3  2  0
  3  4  1  0
  4  5  2  0
  5  6  1  0
  6  7  2  0
  7  8  1  0
  8  9  1  0
  8 10  2  0
  7 11  1  0
 11 12  1  0
 12 13  2  0
 12 14  1  0
 14 15  1  0
 14 16  1  0
 16 17  1  0
 17 18  2  0
 17 19  1  0
 19 20  1  0
 20 21  2  0
 20 22  1  0
 22 23  1  0
 23 24  1  0
 24 25  1  0
 11 26  1  0
 26 27  2  0
 27  2  1  0
 26  5  1  0
  1 28  1  0
  1 29  1  0
  1 30  1  0
  3 31  1  0
  4 32  1  0
  6 33  1  0
  9 34  1  0
 14 35  1  6
 15 36  1  0
 15 37  1  0
 15 38  1  0
 16 39  1  0
 16 40  1  0
 23 41  1  0
 23 42  1  0
 24 43  1  0
 24 44  1  0
 25 45  1  0
 27 46  1  0
M  CHG  2   9  -1  14   1
M  END
>  <UniqueID>  (46) 
46

>  <SMILES>  (46) 
Cc1ccc2cc(C([NH-])=O)n(C(=O)[N@@H+](C)CC(=O)OC(=O)OCCO)c2c1

>  <Energy>  (46) 
86.34229938638258

>  <Genealogy>  (46) 
Cc1ccc2cc(C([NH-])=O)n(C(=O)[NH+](C)CC(=O)OC(=O)OCCO)c2c1 (protonated)
Cc1ccc2cc(C([NH-])=O)n(C(=O)[N@@H+](C)CC(=O)OC(=O)OCCO)c2c1 (chirality)
Cc1ccc2cc(C([NH-])=O)n(C(=O)[N@@H+](C)CC(=O)OC(=O)OCCO)c2c1 (3D coordinates assigned)
Cc1ccc2cc(C([NH-])=O)n(C(=O)[N@@H+](C)CC(=O)OC(=O)OCCO)c2c1 (optimized conformer: 86.34229938638258 kcal/mol)

>  <smiles>  (46) 
Cc1ccc2cc(C(N)=O)n(C(=O)N(C)CC(=O)OC(=O)OCCO)c2c1

>  <score_type>  (46) 
oracle

>  <origin>  (46) 
adg

>  <m_score__min__energy>  (46) 
-9.1300000000000008

>  <m_primary>  (46) 
energy

$$$$
47:0
     RDKit          3D

 65 67  0  0  0  0  0  0  0  0999 V2000
   -1.5790   19.4670  -34.3260 C   0  0  0  0  0  0  0  0  0  0  0  0
   -2.1450   19.3730  -32.9720 N   0  0  0  0  0  0  0  0  0  0  0  0
   -3.1570   18.3370  -32.6960 C   0  0  0  0  0  0  0  0  0  0  0  0
   -3.1230   17.2460  -33.7790 C   0  0  0  0  0  0  0  0  0  0  0  0
   -4.3330   16.2900  -33.7170 C   0  0  0  0  0  0  0  0  0  0  0  0
   -5.4020   16.6030  -34.7060 N   0  0  0  0  0  0  0  0  0  0  0  0
   -6.7320   16.1560  -34.2310 C   0  0  0  0  0  0  0  0  0  0  0  0
   -7.2420   16.9860  -33.0460 C   0  0  0  0  0  0  0  0  0  0  0  0
   -7.1740   18.4220  -33.3500 N   0  0  0  0  0  0  0  0  0  0  0  0
   -8.0880   19.3320  -32.7080 C   0  0  0  0  0  0  0  0  0  0  0  0
   -9.0470   18.8810  -32.0230 O   0  0  0  0  0  0  0  0  0  0  0  0
   -7.9070   20.7160  -32.8530 O   0  0  0  0  0  0  0  0  0  0  0  0
   -7.6140   21.6540  -31.8060 C   0  0  0  0  0  0  0  0  0  0  0  0
   -7.5240   23.0870  -32.3670 C   0  0  0  0  0  0  0  0  0  0  0  0
   -8.6740   21.5720  -30.6930 C   0  0  0  0  0  0  0  0  0  0  0  0
   -6.2480   21.2670  -31.2200 C   0  0  0  0  0  0  0  0  0  0  0  0
   -5.9550   18.9520  -33.9730 C   0  0  0  0  0  0  0  0  0  0  0  0
   -5.4620   18.0310  -35.1010 C   0  0  0  0  0  0  0  0  0  0  0  0
   -1.6800   20.2720  -31.9280 C   0  0  0  0  0  0  0  0  0  0  0  0
   -0.4990   19.9850  -31.1850 C   0  0  0  0  0  0  0  0  0  0  0  0
   -0.0240   20.8710  -30.2060 C   0  0  0  0  0  0  0  0  0  0  0  0
   -0.7450   22.0340  -29.9700 C   0  0  0  0  0  0  0  0  0  0  0  0
   -0.5010   23.0650  -29.0920 C   0  0  0  0  0  0  0  0  0  0  0  0
   -1.5500   23.9630  -29.2760 C   0  0  0  0  0  0  0  0  0  0  0  0
   -1.7260   25.1890  -28.4690 C   0  0  0  0  0  0  0  0  0  0  0  0
   -1.2190   26.4330  -28.9490 N   0  0  0  0  0  0  0  0  0  0  0  0
   -2.2920   25.1470  -27.3450 O   0  0  0  0  0  0  0  0  0  0  0  0
   -2.4060   23.5050  -30.2340 N   0  0  0  0  0  0  0  0  0  0  0  0
   -3.5920   24.1430  -30.7310 C   0  0  0  0  0  0  0  0  0  0  0  0
   -3.8140   25.3540  -30.4720 O   0  0  0  0  0  0  0  0  0  0  0  0
   -4.5170   23.4220  -31.4750 O   0  0  0  0  0  0  0  0  0  0  0  0
   -1.8990   22.3220  -30.6470 C   0  0  0  0  0  0  0  0  0  0  0  0
   -2.3880   21.4680  -31.6410 C   0  0  0  0  0  0  0  0  0  0  0  0
   -0.4959   19.6469  -34.2590 H   0  0  0  0  0  0  0  0  0  0  0  0
   -1.7617   18.5262  -34.8659 H   0  0  0  0  0  0  0  0  0  0  0  0
   -2.0560   20.2982  -34.8659 H   0  0  0  0  0  0  0  0  0  0  0  0
   -2.9499   17.8810  -31.7167 H   0  0  0  0  0  0  0  0  0  0  0  0
   -4.1526   18.8048  -32.6946 H   0  0  0  0  0  0  0  0  0  0  0  0
   -3.1122   17.7327  -34.7654 H   0  0  0  0  0  0  0  0  0  0  0  0
   -2.2200   16.6420  -33.6064 H   0  0  0  0  0  0  0  0  0  0  0  0
   -3.9758   15.2668  -33.9055 H   0  0  0  0  0  0  0  0  0  0  0  0
   -4.7792   16.4048  -32.7181 H   0  0  0  0  0  0  0  0  0  0  0  0
   -5.2150   16.0570  -35.5780 H   0  0  0  0  0  0  0  0  0  0  0  0
   -7.4505   16.2449  -35.0591 H   0  0  0  0  0  0  0  0  0  0  0  0
   -6.6330   15.1144  -33.8915 H   0  0  0  0  0  0  0  0  0  0  0  0
   -8.2859   16.7106  -32.8350 H   0  0  0  0  0  0  0  0  0  0  0  0
   -6.6084   16.7794  -32.1709 H   0  0  0  0  0  0  0  0  0  0  0  0
   -7.4789   23.8045  -31.5345 H   0  0  0  0  0  0  0  0  0  0  0  0
   -6.6180   23.1832  -32.9834 H   0  0  0  0  0  0  0  0  0  0  0  0
   -8.4108   23.2958  -32.9834 H   0  0  0  0  0  0  0  0  0  0  0  0
   -8.1788   21.6103  -29.7115 H   0  0  0  0  0  0  0  0  0  0  0  0
   -9.3696   22.4190  -30.7860 H   0  0  0  0  0  0  0  0  0  0  0  0
   -9.2311   20.6281  -30.7860 H   0  0  0  0  0  0  0  0  0  0  0  0
   -6.3026   21.2825  -30.1215 H   0  0  0  0  0  0  0  0  0  0  0  0
   -5.9764   20.2566  -31.5594 H   0  0  0  0  0  0  0  0  0  0  0  0
   -5.4867   21.9848  -31.5594 H   0  0  0  0  0  0  0  0  0  0  0  0
   -6.1686   19.9473  -34.3899 H   0  0  0  0  0  0  0  0  0  0  0  0
   -5.1697   19.0137  -33.2052 H   0  0  0  0  0  0  0  0  0  0  0  0
   -6.1469   18.1285  -35.9563 H   0  0  0  0  0  0  0  0  0  0  0  0
   -4.4379   18.3433  -35.3535 H   0  0  0  0  0  0  0  0  0  0  0  0
    0.0502   19.0525  -31.3821 H   0  0  0  0  0  0  0  0  0  0  0  0
    0.8939   20.6504  -29.6413 H   0  0  0  0  0  0  0  0  0  0  0  0
    0.3432   23.1600  -28.3932 H   0  0  0  0  0  0  0  0  0  0  0  0
   -0.8870   26.5340  -29.9340 H   0  0  0  0  0  0  0  0  0  0  0  0
   -3.3066   21.7194  -32.1914 H   0  0  0  0  0  0  0  0  0  0  0  0
  1  2  1  0
  2  3  1  0
  3  4  1  0
  4  5  1  0
  5  6  1  0
  6  7  1  0
  7  8  1  0
  8  9  1  0
  9 10  1  0
 10 11  2  0
 10 12  1  0
 12 13  1  0
 13 14  1  0
 13 15  1  0
 13 16  1  0
  9 17  1  0
 17 18  1  0
  2 19  1  0
 19 20  2  0
 20 21  1  0
 21 22  2  0
 22 23  1  0
 23 24  2  0
 24 25  1  0
 25 26  1  0
 25 27  2  0
 24 28  1  0
 28 29  1  0
 29 30  2  0
 29 31  1  0
 28 32  1  0
 32 33  2  0
 18  6  1  0
 33 19  1  0
 32 22  1  0
  1 34  1  0
  1 35  1  0
  1 36  1  0
  3 37  1  0
  3 38  1  0
  4 39  1  0
  4 40  1  0
  5 41  1  0
  5 42  1  0
  6 43  1  0
  7 44  1  0
  7 45  1  0
  8 46  1  0
  8 47  1  0
 14 48  1  0
 14 49  1  0
 14 50  1  0
 15 51  1  0
 15 52  1  0
 15 53  1  0
 16 54  1  0
 16 55  1  0
 16 56  1  0
 17 57  1  0
 17 58  1  0
 18 59  1  0
 18 60  1  0
 20 61  1  0
 21 62  1  0
 23 63  1  0
 26 64  1  0
 33 65  1  0
M  CHG  3   6   1  26  -1  31  -1
M  END
>  <UniqueID>  (47) 
47

>  <SMILES>  (47) 
CN(CCC[NH+]1CCN(C(=O)OC(C)(C)C)CC1)c1ccc2cc(C([NH-])=O)n(C(=O)[O-])c2c1

>  <Energy>  (47) 
105.16495973705058

>  <Genealogy>  (47) 
CN(CCC[NH+]1CCN(C(=O)OC(C)(C)C)CC1)c1ccc2cc(C([NH-])=O)n(C(=O)[O-])c2c1 (protonated)
CN(CCC[NH+]1CCN(C(=O)OC(C)(C)C)CC1)c1ccc2cc(C([NH-])=O)n(C(=O)[O-])c2c1 (3D coordinates assigned)
CN(CCC[NH+]1CCN(C(=O)OC(C)(C)C)CC1)c1ccc2cc(C([NH-])=O)n(C(=O)[O-])c2c1 (nonaromatic ring conformer: 105.16495973705058 kcal/mol)

>  <smiles>  (47) 
CN(CCCN1CCN(C(=O)OC(C)(C)C)CC1)c1ccc2cc(C(N)=O)n(C(=O)O)c2c1

>  <score_type>  (47) 
oracle

>  <origin>  (47) 
adg

>  <m_score__min__energy>  (47) 
-12.1

>  <m_primary>  (47) 
energy

$$$$
48:0
     RDKit          3D

 29 30  0  0  0  0  0  0  0  0999 V2000
   -6.8840   17.2490  -33.2520 C   0  0  0  0  0  0  0  0  0  0  0  0
   -7.0990   18.3480  -32.8970 N   0  0  0  0  0  0  0  0  0  0  0  0
   -7.3330   19.6530  -32.4820 C   0  0  0  0  0  0  0  0  0  0  0  0
   -8.6290   20.1020  -32.4310 C   0  0  0  0  0  0  0  0  0  0  0  0
   -8.8540   21.3940  -32.0130 C   0  0  0  0  0  0  0  0  0  0  0  0
   -7.8010   22.2020  -31.6600 C   0  0  0  0  0  0  0  0  0  0  0  0
   -7.7980   23.4930  -31.2250 C   0  0  0  0  0  0  0  0  0  0  0  0
   -6.4650   23.8740  -30.9940 C   0  0  0  0  0  0  0  0  0  0  0  0
   -6.1250   25.1960  -30.5420 C   0  0  0  0  0  0  0  0  0  0  0  0
   -6.7870   25.6810  -29.3300 N   0  0  0  0  0  0  0  0  0  0  0  0
   -5.3430   26.0230  -31.0240 O   0  0  0  0  0  0  0  0  0  0  0  0
   -5.6640   22.8110  -31.2920 N   0  0  0  0  0  0  0  0  0  0  0  0
   -4.2790   22.6530  -31.2430 C   0  0  0  0  0  0  0  0  0  0  0  0
   -3.6000   22.7450  -32.3390 O   0  0  0  0  0  0  0  0  0  0  0  0
   -3.4090   22.3840  -30.0790 C   0  0  0  0  0  0  0  0  0  0  0  0
   -2.9940   23.7530  -29.5070 C   0  0  0  0  0  0  0  0  0  0  0  0
   -2.5270   23.8340  -28.3460 O   0  0  0  0  0  0  0  0  0  0  0  0
   -3.1560   24.8970  -30.3140 O   0  0  0  0  0  0  0  0  0  0  0  0
   -6.4950   21.7960  -31.6970 C   0  0  0  0  0  0  0  0  0  0  0  0
   -6.2760   20.4920  -32.1190 C   0  0  0  0  0  0  0  0  0  0  0  0
   -9.4653   19.4470  -32.7165 H   0  0  0  0  0  0  0  0  0  0  0  0
   -9.8823   21.7813  -31.9614 H   0  0  0  0  0  0  0  0  0  0  0  0
   -8.6850   24.1272  -31.0798 H   0  0  0  0  0  0  0  0  0  0  0  0
   -6.8860   25.0210  -28.5040 H   0  0  0  0  0  0  0  0  0  0  0  0
   -7.1450   26.6480  -29.2980 H   0  0  0  0  0  0  0  0  0  0  0  0
   -3.9590   21.8077  -29.3204 H   0  0  0  0  0  0  0  0  0  0  0  0
   -2.5273   21.7957  -30.3731 H   0  0  0  0  0  0  0  0  0  0  0  0
   -3.5540   24.8420  -31.2430 H   0  0  0  0  0  0  0  0  0  0  0  0
   -5.2457   20.1098  -32.1689 H   0  0  0  0  0  0  0  0  0  0  0  0
  1  2  3  0
  2  3  1  0
  3  4  2  0
  4  5  1  0
  5  6  2  0
  6  7  1  0
  7  8  2  0
  8  9  1  0
  9 10  1  0
  9 11  2  0
  8 12  1  0
 12 13  1  0
 13 14  2  0
 13 15  1  0
 15 16  1  0
 16 17  2  0
 16 18  1  0
 12 19  1  0
 19 20  2  0
 20  3  1  0
 19  6  1  0
  4 21  1  0
  5 22  1  0
  7 23  1  0
 10 24  1  0
 10 25  1  0
 15 26  1  0
 15 27  1  0
 18 28  1  0
 20 29  1  0
M  CHG  2   1  -1   2   1
M  END
>  <smiles>  (48) 
[C-]#[N+]c1ccc2cc(C(N)=O)n(C(=O)CC(=O)O)c2c1

>  <score_type>  (48) 
oracle

>  <origin>  (48) 
adg

>  <m_score__min__energy>  (48) 
-8.6899999999999995

>  <m_primary>  (48) 
energy

$$$$
49:0
     RDKit          3D

 36 37  0  0  0  0  0  0  0  0999 V2000
   -7.1880   17.5440  -32.4240 C   0  0  0  0  0  0  0  0  0  0  0  0
   -7.8460   18.7550  -32.9050 N   0  0  0  0  0  0  0  0  0  0  0  0
   -7.7390   20.0320  -32.2480 C   0  0  0  0  0  0  0  0  0  0  0  0
   -8.8710   20.5580  -31.5770 C   0  0  0  0  0  0  0  0  0  0  0  0
   -8.8080   21.7950  -30.9170 C   0  0  0  0  0  0  0  0  0  0  0  0
   -7.6040   22.4920  -30.9510 C   0  0  0  0  0  0  0  0  0  0  0  0
   -7.2630   23.6970  -30.3820 C   0  0  0  0  0  0  0  0  0  0  0  0
   -5.9320   23.9080  -30.7330 C   0  0  0  0  0  0  0  0  0  0  0  0
   -5.1920   25.1430  -30.4020 C   0  0  0  0  0  0  0  0  0  0  0  0
   -3.8590   25.3480  -30.8640 N   0  0  0  0  0  0  0  0  0  0  0  0
   -5.7620   26.0530  -29.7420 O   0  0  0  0  0  0  0  0  0  0  0  0
   -5.4640   22.8670  -31.4810 N   0  0  0  0  0  0  0  0  0  0  0  0
   -4.1290   22.6630  -31.9720 C   0  0  0  0  0  0  0  0  0  0  0  0
   -3.9470   22.2760  -33.1590 O   0  0  0  0  0  0  0  0  0  0  0  0
   -3.0360   22.9220  -31.1400 O   0  0  0  0  0  0  0  0  0  0  0  0
   -3.0630   22.6880  -29.7370 C   0  0  0  0  0  0  0  0  0  0  0  0
   -2.0290   23.4370  -29.1070 O   0  0  0  0  0  0  0  0  0  0  0  0
   -2.2750   24.5940  -28.3620 C   0  0  0  0  0  0  0  0  0  0  0  0
   -3.0790   24.5050  -27.1100 C   0  0  0  0  0  0  0  0  0  0  0  0
   -1.7890   25.7040  -28.7140 O   0  0  0  0  0  0  0  0  0  0  0  0
   -6.5020   22.0110  -31.6090 C   0  0  0  0  0  0  0  0  0  0  0  0
   -6.5310   20.7700  -32.2570 C   0  0  0  0  0  0  0  0  0  0  0  0
   -7.1859   17.5401  -31.3240 H   0  0  0  0  0  0  0  0  0  0  0  0
   -7.7303   16.6609  -32.7928 H   0  0  0  0  0  0  0  0  0  0  0  0
   -6.1520   17.5185  -32.7928 H   0  0  0  0  0  0  0  0  0  0  0  0
   -8.4160   18.6820  -33.7780 H   0  0  0  0  0  0  0  0  0  0  0  0
   -9.8123   19.9888  -31.5734 H   0  0  0  0  0  0  0  0  0  0  0  0
   -9.6834   22.2011  -30.3891 H   0  0  0  0  0  0  0  0  0  0  0  0
   -7.9054   24.3545  -29.7779 H   0  0  0  0  0  0  0  0  0  0  0  0
   -3.0430   24.9670  -30.3370 H   0  0  0  0  0  0  0  0  0  0  0  0
   -4.0379   22.9984  -29.3330 H   0  0  0  0  0  0  0  0  0  0  0  0
   -2.9077   21.6165  -29.5427 H   0  0  0  0  0  0  0  0  0  0  0  0
   -2.4110   24.5789  -26.2392 H   0  0  0  0  0  0  0  0  0  0  0  0
   -3.8085   25.3279  -27.0834 H   0  0  0  0  0  0  0  0  0  0  0  0
   -3.6109   23.5425  -27.0834 H   0  0  0  0  0  0  0  0  0  0  0  0
   -5.6357   20.3776  -32.7614 H   0  0  0  0  0  0  0  0  0  0  0  0
  1  2  1  0
  2  3  1  0
  3  4  2  0
  4  5  1  0
  5  6  2  0
  6  7  1  0
  7  8  2  0
  8  9  1  0
  9 10  1  0
  9 11  2  0
  8 12  1  0
 12 13  1  0
 13 14  2  0
 13 15  1  0
 15 16  1  0
 16 17  1  0
 17 18  1  0
 18 19  1  0
 18 20  2  0
 12 21  1  0
 21 22  2  0
 22  3  1  0
 21  6  1  0
  1 23  1  0
  1 24  1  0
  1 25  1  0
  2 26  1  0
  4 27  1  0
  5 28  1  0
  7 29  1  0
 10 30  1  0
 16 31  1  0
 16 32  1  0
 19 33  1  0
 19 34  1  0
 19 35  1  0
 22 36  1  0
M  CHG  1  10  -1
M  END
>  <UniqueID>  (49) 
48

>  <SMILES>  (49) 
CNc1ccc2cc(C([NH-])=O)n(C(=O)OCOC(C)=O)c2c1

>  <Energy>  (49) 
68.55849477305466

>  <Genealogy>  (49) 
CNc1ccc2cc(C([NH-])=O)n(C(=O)OCOC(C)=O)c2c1 (protonated)
CNc1ccc2cc(C([NH-])=O)n(C(=O)OCOC(C)=O)c2c1 (3D coordinates assigned)
CNc1ccc2cc(C([NH-])=O)n(C(=O)OCOC(C)=O)c2c1 (optimized conformer: 68.55849477305466 kcal/mol)

>  <smiles>  (49) 
CNc1ccc2cc(C(N)=O)n(C(=O)OCOC(C)=O)c2c1

>  <score_type>  (49) 
oracle

>  <origin>  (49) 
adg

>  <m_score__min__energy>  (49) 
-9.7100000000000009

>  <m_primary>  (49) 
energy

$$$$
50:0
     RDKit          3D

 43 44  0  0  0  0  0  0  0  0999 V2000
   -4.1820   23.6530  -27.4200 C   0  0  0  0  0  0  0  0  0  0  0  0
   -2.7690   23.8220  -27.8090 N   0  0  1  0  0  0  0  0  0  0  0  0
   -2.1600   25.0250  -27.1940 C   0  0  0  0  0  0  0  0  0  0  0  0
   -0.9740   25.5770  -27.9970 C   0  0  0  0  0  0  0  0  0  0  0  0
   -1.2880   25.6120  -29.3620 O   0  0  0  0  0  0  0  0  0  0  0  0
   -2.0130   22.6470  -27.4190 C   0  0  0  0  0  0  0  0  0  0  0  0
   -1.3130   22.6650  -26.4140 O   0  0  0  0  0  0  0  0  0  0  0  0
   -2.0560   21.4030  -28.2590 C   0  0  0  0  0  0  0  0  0  0  0  0
   -3.1940   21.4610  -29.1110 O   0  0  0  0  0  0  0  0  0  0  0  0
   -3.2580   22.2680  -30.2490 C   0  0  0  0  0  0  0  0  0  0  0  0
   -2.2260   22.8560  -30.6700 O   0  0  0  0  0  0  0  0  0  0  0  0
   -4.5150   22.4430  -30.9240 N   0  0  0  0  0  0  0  0  0  0  0  0
   -5.2770   23.5720  -31.0010 C   0  0  0  0  0  0  0  0  0  0  0  0
   -4.8970   24.9160  -30.5180 C   0  0  0  0  0  0  0  0  0  0  0  0
   -3.5280   25.2780  -30.3570 N   0  0  0  0  0  0  0  0  0  0  0  0
   -5.7920   25.7720  -30.2910 O   0  0  0  0  0  0  0  0  0  0  0  0
   -6.4580   23.3170  -31.6960 C   0  0  0  0  0  0  0  0  0  0  0  0
   -6.3890   21.9930  -32.0610 C   0  0  0  0  0  0  0  0  0  0  0  0
   -7.2950   21.2130  -32.7720 C   0  0  0  0  0  0  0  0  0  0  0  0
   -6.9740   19.8630  -32.9920 C   0  0  0  0  0  0  0  0  0  0  0  0
   -5.7560   19.3190  -32.5090 C   0  0  0  0  0  0  0  0  0  0  0  0
   -5.4480   17.8550  -32.6990 C   0  0  0  0  0  0  0  0  0  0  0  0
   -4.0890   17.6600  -32.8720 F   0  0  0  0  0  0  0  0  0  0  0  0
   -5.8630   17.1550  -31.5820 F   0  0  0  0  0  0  0  0  0  0  0  0
   -6.1000   17.3580  -33.8130 F   0  0  0  0  0  0  0  0  0  0  0  0
   -4.8720   20.1390  -31.7700 C   0  0  0  0  0  0  0  0  0  0  0  0
   -5.2070   21.4870  -31.5850 C   0  0  0  0  0  0  0  0  0  0  0  0
   -4.2617   23.6435  -26.3229 H   0  0  0  0  0  0  0  0  0  0  0  0
   -4.7756   24.4865  -27.8235 H   0  0  0  0  0  0  0  0  0  0  0  0
   -4.5623   22.7030  -27.8235 H   0  0  0  0  0  0  0  0  0  0  0  0
   -2.7330   23.9100  -28.8520 H   0  0  0  0  0  0  0  0  0  0  0  0
   -2.9287   25.8085  -27.1217 H   0  0  0  0  0  0  0  0  0  0  0  0
   -1.7780   24.7303  -26.2055 H   0  0  0  0  0  0  0  0  0  0  0  0
   -0.7435   26.5954  -27.6510 H   0  0  0  0  0  0  0  0  0  0  0  0
   -0.1027   24.9227  -27.8459 H   0  0  0  0  0  0  0  0  0  0  0  0
   -1.5860   24.6950  -29.6000 H   0  0  0  0  0  0  0  0  0  0  0  0
   -1.1421   21.3367  -28.8676 H   0  0  0  0  0  0  0  0  0  0  0  0
   -2.1213   20.5173  -27.6100 H   0  0  0  0  0  0  0  0  0  0  0  0
   -2.7650   24.5920  -30.5540 H   0  0  0  0  0  0  0  0  0  0  0  0
   -7.2728   24.0250  -31.9077 H   0  0  0  0  0  0  0  0  0  0  0  0
   -8.2351   21.6405  -33.1508 H   0  0  0  0  0  0  0  0  0  0  0  0
   -7.6750   19.2205  -33.5450 H   0  0  0  0  0  0  0  0  0  0  0  0
   -3.9423   19.7278  -31.3498 H   0  0  0  0  0  0  0  0  0  0  0  0
  1  2  1  0
  2  3  1  0
  3  4  1  0
  4  5  1  0
  2  6  1  0
  6  7  2  0
  6  8  1  0
  8  9  1  0
  9 10  1  0
 10 11  2  0
 10 12  1  0
 12 13  1  0
 13 14  1  0
 14 15  1  0
 14 16  2  0
 13 17  2  0
 17 18  1  0
 18 19  2  0
 19 20  1  0
 20 21  2  0
 21 22  1  0
 22 23  1  0
 22 24  1  0
 22 25  1  0
 21 26  1  0
 26 27  2  0
 27 12  1  0
 27 18  1  0
  1 28  1  0
  1 29  1  0
  1 30  1  0
  2 31  1  6
  3 32  1  0
  3 33  1  0
  4 34  1  0
  4 35  1  0
  5 36  1  0
  8 37  1  0
  8 38  1  0
 15 39  1  0
 17 40  1  0
 19 41  1  0
 20 42  1  0
 26 43  1  0
M  CHG  2   2   1  15  -1
M  END
>  <UniqueID>  (50) 
49

>  <SMILES>  (50) 
C[N@@H+](CCO)C(=O)COC(=O)n1c(C([NH-])=O)cc2ccc(C(F)(F)F)cc21

>  <Energy>  (50) 
78.42724688495001

>  <Genealogy>  (50) 
C[NH+](CCO)C(=O)COC(=O)n1c(C([NH-])=O)cc2ccc(C(F)(F)F)cc21 (protonated)
C[N@@H+](CCO)C(=O)COC(=O)n1c(C([NH-])=O)cc2ccc(C(F)(F)F)cc21 (chirality)
C[N@@H+](CCO)C(=O)COC(=O)n1c(C([NH-])=O)cc2ccc(C(F)(F)F)cc21 (3D coordinates assigned)
C[N@@H+](CCO)C(=O)COC(=O)n1c(C([NH-])=O)cc2ccc(C(F)(F)F)cc21 (optimized conformer: 78.42724688495001 kcal/mol)

>  <smiles>  (50) 
CN(CCO)C(=O)COC(=O)n1c(C(N)=O)cc2ccc(C(F)(F)F)cc21

>  <score_type>  (50) 
oracle

>  <origin>  (50) 
adg

>  <m_score__min__energy>  (50) 
-9.0700000000000003

>  <m_primary>  (50) 
energy

$$$$
51:0
     RDKit          3D

 37 38  0  0  0  0  0  0  0  0999 V2000
   -4.2460   22.6950  -28.2820 C   0  0  0  0  0  0  0  0  0  0  0  0
   -2.8340   23.0280  -28.8010 C   0  0  0  0  0  0  0  0  0  0  0  0
   -1.9460   21.7820  -28.6550 C   0  0  0  0  0  0  0  0  0  0  0  0
   -2.2130   24.1800  -27.9870 C   0  0  0  0  0  0  0  0  0  0  0  0
   -2.8740   23.3580  -30.1960 O   0  0  0  0  0  0  0  0  0  0  0  0
   -3.6130   22.6960  -31.1880 C   0  0  0  0  0  0  0  0  0  0  0  0
   -3.0460   21.9530  -32.0320 O   0  0  0  0  0  0  0  0  0  0  0  0
   -5.0340   22.8910  -31.2530 N   0  0  0  0  0  0  0  0  0  0  0  0
   -5.7500   23.9890  -30.8760 C   0  0  0  0  0  0  0  0  0  0  0  0
   -5.1880   25.2820  -30.4360 C   0  0  0  0  0  0  0  0  0  0  0  0
   -3.8760   25.6620  -30.8450 N   0  0  0  0  0  0  0  0  0  0  0  0
   -5.8390   26.0420  -29.6720 O   0  0  0  0  0  0  0  0  0  0  0  0
   -7.1150   23.7600  -31.0380 C   0  0  0  0  0  0  0  0  0  0  0  0
   -7.2150   22.4810  -31.5390 C   0  0  0  0  0  0  0  0  0  0  0  0
   -8.3410   21.7350  -31.8710 C   0  0  0  0  0  0  0  0  0  0  0  0
   -8.1480   20.4240  -32.3390 C   0  0  0  0  0  0  0  0  0  0  0  0
   -6.8430   19.8890  -32.4670 C   0  0  0  0  0  0  0  0  0  0  0  0
   -6.6530   18.4710  -32.9180 C   0  0  0  0  0  0  0  0  0  0  0  0
   -7.6850   17.6910  -32.4330 F   0  0  0  0  0  0  0  0  0  0  0  0
   -5.7240   20.6700  -32.1050 C   0  0  0  0  0  0  0  0  0  0  0  0
   -5.9440   21.9790  -31.6600 C   0  0  0  0  0  0  0  0  0  0  0  0
   -4.2420   22.6959  -27.1820 H   0  0  0  0  0  0  0  0  0  0  0  0
   -4.9582   23.4498  -28.6467 H   0  0  0  0  0  0  0  0  0  0  0  0
   -4.5459   21.7015  -28.6467 H   0  0  0  0  0  0  0  0  0  0  0  0
   -1.7913   21.5650  -27.5878 H   0  0  0  0  0  0  0  0  0  0  0  0
   -2.4370   20.9234  -29.1364 H   0  0  0  0  0  0  0  0  0  0  0  0
   -0.9742   21.9659  -29.1364 H   0  0  0  0  0  0  0  0  0  0  0  0
   -2.3252   23.9719  -26.9127 H   0  0  0  0  0  0  0  0  0  0  0  0
   -1.1447   24.2690  -28.2337 H   0  0  0  0  0  0  0  0  0  0  0  0
   -2.7259   25.1213  -28.2337 H   0  0  0  0  0  0  0  0  0  0  0  0
   -3.0320   25.2910  -30.3560 H   0  0  0  0  0  0  0  0  0  0  0  0
   -7.9384   24.4539  -30.8133 H   0  0  0  0  0  0  0  0  0  0  0  0
   -9.3514   22.1581  -31.7704 H   0  0  0  0  0  0  0  0  0  0  0  0
   -9.0185   19.8078  -32.6083 H   0  0  0  0  0  0  0  0  0  0  0  0
   -6.6503   18.4332  -34.0173 H   0  0  0  0  0  0  0  0  0  0  0  0
   -5.6946   18.0900  -32.5355 H   0  0  0  0  0  0  0  0  0  0  0  0
   -4.7052   20.2604  -32.1709 H   0  0  0  0  0  0  0  0  0  0  0  0
  1  2  1  0
  2  3  1  0
  2  4  1  0
  2  5  1  0
  5  6  1  0
  6  7  2  0
  6  8  1  0
  8  9  1  0
  9 10  1  0
 10 11  1  0
 10 12  2  0
  9 13  2  0
 13 14  1  0
 14 15  2  0
 15 16  1  0
 16 17  2  0
 17 18  1  0
 18 19  1  0
 17 20  1  0
 20 21  2  0
 21  8  1  0
 21 14  1  0
  1 22  1  0
  1 23  1  0
  1 24  1  0
  3 25  1  0
  3 26  1  0
  3 27  1  0
  4 28  1  0
  4 29  1  0
  4 30  1  0
 11 31  1  0
 13 32  1  0
 15 33  1  0
 16 34  1  0
 18 35  1  0
 18 36  1  0
 20 37  1  0
M  CHG  1  11  -1
M  END
>  <UniqueID>  (51) 
50

>  <SMILES>  (51) 
CC(C)(C)OC(=O)n1c(C([NH-])=O)cc2ccc(CF)cc21

>  <Energy>  (51) 
70.00790399691509

>  <Genealogy>  (51) 
CC(C)(C)OC(=O)n1c(C([NH-])=O)cc2ccc(CF)cc21 (protonated)
CC(C)(C)OC(=O)n1c(C([NH-])=O)cc2ccc(CF)cc21 (3D coordinates assigned)
CC(C)(C)OC(=O)n1c(C([NH-])=O)cc2ccc(CF)cc21 (optimized conformer: 70.00790399691509 kcal/mol)

>  <smiles>  (51) 
CC(C)(C)OC(=O)n1c(C(N)=O)cc2ccc(CF)cc21

>  <score_type>  (51) 
oracle

>  <origin>  (51) 
adg

>  <m_score__min__energy>  (51) 
-9.7799999999999994

>  <m_primary>  (51) 
energy

$$$$
52:0
     RDKit          3D

 39 41  0  0  0  0  0  0  0  0999 V2000
   -6.4150   25.8110  -29.1560 N   0  0  0  0  0  0  0  0  0  0  0  0
   -5.7580   25.1950  -30.2630 C   0  0  0  0  0  0  0  0  0  0  0  0
   -4.8100   25.7980  -30.8320 O   0  0  0  0  0  0  0  0  0  0  0  0
   -6.1190   23.8350  -30.7010 C   0  0  0  0  0  0  0  0  0  0  0  0
   -7.4180   23.4620  -31.0310 C   0  0  0  0  0  0  0  0  0  0  0  0
   -7.3110   22.1900  -31.5370 C   0  0  0  0  0  0  0  0  0  0  0  0
   -8.2890   21.3570  -32.0680 C   0  0  0  0  0  0  0  0  0  0  0  0
   -7.8920   20.1090  -32.5670 C   0  0  0  0  0  0  0  0  0  0  0  0
   -6.5320   19.7070  -32.5110 C   0  0  0  0  0  0  0  0  0  0  0  0
   -6.1200   18.4020  -33.0750 C   0  0  0  0  0  0  0  0  0  0  0  0
   -5.7590   18.2890  -34.4250 C   0  0  0  0  0  0  0  0  0  0  0  0
   -5.3770   17.0530  -34.9550 C   0  0  0  0  0  0  0  0  0  0  0  0
   -5.3570   15.9040  -34.1450 C   0  0  0  0  0  0  0  0  0  0  0  0
   -4.9710   14.6300  -34.6960 N   0  0  0  0  0  0  0  0  0  0  0  0
   -3.8400   14.4720  -35.2020 O   0  0  0  0  0  0  0  0  0  0  0  0
   -5.8340   13.5580  -34.6460 O   0  0  0  0  0  0  0  0  0  0  0  0
   -5.7250   16.0180  -32.7950 C   0  0  0  0  0  0  0  0  0  0  0  0
   -6.0990   17.2550  -32.2640 C   0  0  0  0  0  0  0  0  0  0  0  0
   -5.5690   20.5720  -31.9450 C   0  0  0  0  0  0  0  0  0  0  0  0
   -5.9890   21.8240  -31.4830 C   0  0  0  0  0  0  0  0  0  0  0  0
   -5.2430   22.8250  -30.9600 N   0  0  0  0  0  0  0  0  0  0  0  0
   -3.8390   22.7930  -30.6480 C   0  0  0  0  0  0  0  0  0  0  0  0
   -3.1230   23.8060  -30.8480 O   0  0  0  0  0  0  0  0  0  0  0  0
   -3.2730   21.6290  -30.1170 O   0  0  0  0  0  0  0  0  0  0  0  0
   -2.2320   20.8940  -30.7580 C   0  0  0  0  0  0  0  0  0  0  0  0
   -1.6610   21.6560  -31.7890 O   0  0  0  0  0  0  0  0  0  0  0  0
   -6.2050   26.8070  -28.9120 H   0  0  0  0  0  0  0  0  0  0  0  0
   -7.1030   25.2830  -28.5810 H   0  0  0  0  0  0  0  0  0  0  0  0
   -8.3346   24.0584  -30.9120 H   0  0  0  0  0  0  0  0  0  0  0  0
   -9.3437   21.6683  -32.0957 H   0  0  0  0  0  0  0  0  0  0  0  0
   -8.6417   19.4345  -33.0063 H   0  0  0  0  0  0  0  0  0  0  0  0
   -5.7764   19.1788  -35.0715 H   0  0  0  0  0  0  0  0  0  0  0  0
   -5.0898   16.9789  -36.0143 H   0  0  0  0  0  0  0  0  0  0  0  0
   -5.7188   15.1267  -32.1504 H   0  0  0  0  0  0  0  0  0  0  0  0
   -6.3791   17.3314  -31.2030 H   0  0  0  0  0  0  0  0  0  0  0  0
   -4.5144   20.2684  -31.8694 H   0  0  0  0  0  0  0  0  0  0  0  0
   -1.4563   20.6442  -30.0192 H   0  0  0  0  0  0  0  0  0  0  0  0
   -2.6554   19.9734  -31.1860 H   0  0  0  0  0  0  0  0  0  0  0  0
   -1.4640   22.5520  -31.4110 H   0  0  0  0  0  0  0  0  0  0  0  0
  1  2  1  0
  2  3  2  0
  2  4  1  0
  4  5  2  0
  5  6  1  0
  6  7  2  0
  7  8  1  0
  8  9  2  0
  9 10  1  0
 10 11  2  0
 11 12  1  0
 12 13  2  0
 13 14  1  0
 14 15  2  0
 14 16  1  0
 13 17  1  0
 17 18  2  0
  9 19  1  0
 19 20  2  0
 20 21  1  0
 21 22  1  0
 22 23  2  0
 22 24  1  0
 24 25  1  0
 25 26  1  0
 21  4  1  0
 20  6  1  0
 18 10  1  0
  1 27  1  0
  1 28  1  0
  5 29  1  0
  7 30  1  0
  8 31  1  0
 11 32  1  0
 12 33  1  0
 17 34  1  0
 18 35  1  0
 19 36  1  0
 25 37  1  0
 25 38  1  0
 26 39  1  0
M  CHG  2  14   1  16  -1
M  END
>  <UniqueID>  (52) 
51

>  <SMILES>  (52) 
NC(=O)c1cc2ccc(-c3ccc([N+](=O)[O-])cc3)cc2n1C(=O)OCO

>  <Energy>  (52) 
86.7798436194863

>  <Genealogy>  (52) 
NC(=O)c1cc2ccc(-c3ccc([N+](=O)[O-])cc3)cc2n1C(=O)OCO (3D coordinates assigned)
NC(=O)c1cc2ccc(-c3ccc([N+](=O)[O-])cc3)cc2n1C(=O)OCO (optimized conformer: 86.7798436194863 kcal/mol)

>  <smiles>  (52) 
NC(=O)c1cc2ccc(-c3ccc([N+](=O)[O-])cc3)cc2n1C(=O)OCO

>  <score_type>  (52) 
oracle

>  <origin>  (52) 
adg

>  <m_score__min__energy>  (52) 
-9.1699999999999999

>  <m_primary>  (52) 
energy

$$$$
53:0
     RDKit          3D

 27 28  0  0  0  0  0  0  0  0999 V2000
   -6.0700   17.3980  -33.7740 C   0  0  0  0  0  0  0  0  0  0  0  0
   -6.3980   18.4590  -33.3060 C   0  0  0  0  0  0  0  0  0  0  0  0
   -6.7910   19.7260  -32.7450 C   0  0  0  0  0  0  0  0  0  0  0  0
   -8.1630   20.0440  -32.6180 C   0  0  0  0  0  0  0  0  0  0  0  0
   -8.5580   21.2830  -32.0840 C   0  0  0  0  0  0  0  0  0  0  0  0
   -7.5610   22.1700  -31.6830 C   0  0  0  0  0  0  0  0  0  0  0  0
   -7.6610   23.4420  -31.1660 C   0  0  0  0  0  0  0  0  0  0  0  0
   -6.3450   23.8660  -30.9710 C   0  0  0  0  0  0  0  0  0  0  0  0
   -5.9640   25.1710  -30.3830 C   0  0  0  0  0  0  0  0  0  0  0  0
   -6.0210   25.3860  -28.9710 N   0  0  0  0  0  0  0  0  0  0  0  0
   -5.5670   26.1060  -31.1260 O   0  0  0  0  0  0  0  0  0  0  0  0
   -5.4720   22.8890  -31.3440 N   0  0  0  0  0  0  0  0  0  0  0  0
   -4.0370   22.9600  -31.3550 C   0  0  0  0  0  0  0  0  0  0  0  0
   -3.4040   22.5570  -32.3660 O   0  0  0  0  0  0  0  0  0  0  0  0
   -3.3000   23.5130  -30.2100 C   0  0  0  0  0  0  0  0  0  0  0  0
   -3.1040   24.9210  -30.0990 N   0  0  0  0  0  0  0  0  0  0  0  0
   -2.8520   22.7490  -29.3140 O   0  0  0  0  0  0  0  0  0  0  0  0
   -6.2300   21.8620  -31.7860 C   0  0  0  0  0  0  0  0  0  0  0  0
   -5.8060   20.6450  -32.3310 C   0  0  0  0  0  0  0  0  0  0  0  0
   -5.7706   16.4296  -34.2012 H   0  0  0  0  0  0  0  0  0  0  0  0
   -8.9250   19.3183  -32.9386 H   0  0  0  0  0  0  0  0  0  0  0  0
   -9.6220   21.5443  -31.9857 H   0  0  0  0  0  0  0  0  0  0  0  0
   -8.5817   24.0046  -30.9521 H   0  0  0  0  0  0  0  0  0  0  0  0
   -5.7160   26.3000  -28.5700 H   0  0  0  0  0  0  0  0  0  0  0  0
   -6.4070   24.6650  -28.3230 H   0  0  0  0  0  0  0  0  0  0  0  0
   -3.4840   25.5740  -30.8180 H   0  0  0  0  0  0  0  0  0  0  0  0
   -4.7357   20.4125  -32.4333 H   0  0  0  0  0  0  0  0  0  0  0  0
  1  2  3  0
  2  3  1  0
  3  4  2  0
  4  5  1  0
  5  6  2  0
  6  7  1  0
  7  8  2  0
  8  9  1  0
  9 10  1  0
  9 11  2  0
  8 12  1  0
 12 13  1  0
 13 14  2  0
 13 15  1  0
 15 16  1  0
 15 17  2  0
 12 18  1  0
 18 19  2  0
 19  3  1  0
 18  6  1  0
  1 20  1  0
  4 21  1  0
  5 22  1  0
  7 23  1  0
 10 24  1  0
 10 25  1  0
 16 26  1  0
 19 27  1  0
M  CHG  1  16  -1
M  END
>  <UniqueID>  (53) 
52

>  <SMILES>  (53) 
C#Cc1ccc2cc(C(N)=O)n(C(=O)C([NH-])=O)c2c1

>  <Energy>  (53) 
64.1858741835239

>  <Genealogy>  (53) 
C#Cc1ccc2cc(C(N)=O)n(C(=O)C([NH-])=O)c2c1 (protonated)
C#Cc1ccc2cc(C(N)=O)n(C(=O)C([NH-])=O)c2c1 (3D coordinates assigned)
C#Cc1ccc2cc(C(N)=O)n(C(=O)C([NH-])=O)c2c1 (optimized conformer: 64.1858741835239 kcal/mol)

>  <smiles>  (53) 
C#Cc1ccc2cc(C(N)=O)n(C(=O)C(N)=O)c2c1

>  <score_type>  (53) 
oracle

>  <origin>  (53) 
adg

>  <m_score__min__energy>  (53) 
-10.300000000000001

>  <m_primary>  (53) 
energy

$$$$
54:0
     RDKit          3D

 43 44  0  0  0  0  0  0  0  0999 V2000
   -3.8780   25.3760  -30.8750 N   0  0  0  0  0  0  0  0  0  0  0  0
   -5.2470   25.1760  -30.5310 C   0  0  0  0  0  0  0  0  0  0  0  0
   -5.8580   26.0710  -29.8890 O   0  0  0  0  0  0  0  0  0  0  0  0
   -5.9420   23.9460  -30.9670 C   0  0  0  0  0  0  0  0  0  0  0  0
   -7.3070   23.8970  -31.2430 C   0  0  0  0  0  0  0  0  0  0  0  0
   -7.5770   22.5780  -31.5230 C   0  0  0  0  0  0  0  0  0  0  0  0
   -8.7770   21.9620  -31.8660 C   0  0  0  0  0  0  0  0  0  0  0  0
   -8.7600   20.5810  -32.1210 C   0  0  0  0  0  0  0  0  0  0  0  0
   -7.5490   19.8490  -32.0480 C   0  0  0  0  0  0  0  0  0  0  0  0
   -7.5470   18.3660  -32.3010 C   0  0  0  0  0  0  0  0  0  0  0  0
   -6.1530   17.8960  -32.7300 C   0  0  0  0  0  0  0  0  0  0  0  0
   -5.9740   17.9580  -34.2510 C   0  0  0  0  0  0  0  0  0  0  0  0
   -6.1020   19.2740  -34.7170 O   0  0  0  0  0  0  0  0  0  0  0  0
   -6.3520   20.5050  -31.6860 C   0  0  0  0  0  0  0  0  0  0  0  0
   -6.4020   21.8790  -31.4180 C   0  0  0  0  0  0  0  0  0  0  0  0
   -5.3880   22.7050  -31.0790 N   0  0  0  0  0  0  0  0  0  0  0  0
   -4.0070   22.3360  -30.9270 C   0  0  0  0  0  0  0  0  0  0  0  0
   -3.2150   22.4470  -31.9010 O   0  0  0  0  0  0  0  0  0  0  0  0
   -3.5560   21.8300  -29.7010 O   0  0  0  0  0  0  0  0  0  0  0  0
   -3.2740   22.6390  -28.5600 C   0  0  0  0  0  0  0  0  0  0  0  0
   -1.9970   23.4690  -28.7720 C   0  0  1  0  0  0  0  0  0  0  0  0
   -1.7490   23.6300  -30.1470 O   0  0  0  0  0  0  0  0  0  0  0  0
   -2.0620   24.8380  -28.0740 C   0  0  0  0  0  0  0  0  0  0  0  0
   -1.6110   25.8500  -28.9330 O   0  0  0  0  0  0  0  0  0  0  0  0
   -3.1250   25.2750  -30.1600 H   0  0  0  0  0  0  0  0  0  0  0  0
   -8.0183   24.7361  -31.2380 H   0  0  0  0  0  0  0  0  0  0  0  0
   -9.7107   22.5394  -31.9353 H   0  0  0  0  0  0  0  0  0  0  0  0
   -9.6953   20.0630  -32.3797 H   0  0  0  0  0  0  0  0  0  0  0  0
   -7.8380   17.8412  -31.3791 H   0  0  0  0  0  0  0  0  0  0  0  0
   -8.2614   18.1419  -33.1069 H   0  0  0  0  0  0  0  0  0  0  0  0
   -5.3984   18.5410  -32.2562 H   0  0  0  0  0  0  0  0  0  0  0  0
   -6.0331   16.8491  -32.4142 H   0  0  0  0  0  0  0  0  0  0  0  0
   -4.9747   17.5793  -34.5117 H   0  0  0  0  0  0  0  0  0  0  0  0
   -6.7537   17.3413  -34.7219 H   0  0  0  0  0  0  0  0  0  0  0  0
   -6.9610   19.3180  -35.2120 H   0  0  0  0  0  0  0  0  0  0  0  0
   -5.4043   19.9510  -31.6162 H   0  0  0  0  0  0  0  0  0  0  0  0
   -4.1200   23.3198  -28.3843 H   0  0  0  0  0  0  0  0  0  0  0  0
   -3.1221   21.9794  -27.6929 H   0  0  0  0  0  0  0  0  0  0  0  0
   -1.1661   22.9144  -28.3115 H   0  0  0  0  0  0  0  0  0  0  0  0
   -2.5690   24.0110  -30.5560 H   0  0  0  0  0  0  0  0  0  0  0  0
   -3.1021   25.0470  -27.7834 H   0  0  0  0  0  0  0  0  0  0  0  0
   -1.4166   24.8139  -27.1836 H   0  0  0  0  0  0  0  0  0  0  0  0
   -2.0120   25.6670  -29.8220 H   0  0  0  0  0  0  0  0  0  0  0  0
  1  2  1  0
  2  3  2  0
  2  4  1  0
  4  5  2  0
  5  6  1  0
  6  7  2  0
  7  8  1  0
  8  9  2  0
  9 10  1  0
 10 11  1  0
 11 12  1  0
 12 13  1  0
  9 14  1  0
 14 15  2  0
 15 16  1  0
 16 17  1  0
 17 18  2  0
 17 19  1  0
 19 20  1  0
 20 21  1  0
 21 22  1  0
 21 23  1  0
 23 24  1  0
 16  4  1  0
 15  6  1  0
  1 25  1  0
  5 26  1  0
  7 27  1  0
  8 28  1  0
 10 29  1  0
 10 30  1  0
 11 31  1  0
 11 32  1  0
 12 33  1  0
 12 34  1  0
 13 35  1  0
 14 36  1  0
 20 37  1  0
 20 38  1  0
 21 39  1  1
 22 40  1  0
 23 41  1  0
 23 42  1  0
 24 43  1  0
M  CHG  1   1  -1
M  END
>  <UniqueID>  (54) 
53

>  <SMILES>  (54) 
[NH-]C(=O)c1cc2ccc(CCCO)cc2n1C(=O)OC[C@@H](O)CO

>  <Energy>  (54) 
73.60995692791836

>  <Genealogy>  (54) 
[NH-]C(=O)c1cc2ccc(CCCO)cc2n1C(=O)OCC(O)CO (protonated)
[NH-]C(=O)c1cc2ccc(CCCO)cc2n1C(=O)OC[C@@H](O)CO (chirality)
[NH-]C(=O)c1cc2ccc(CCCO)cc2n1C(=O)OC[C@@H](O)CO (3D coordinates assigned)
[NH-]C(=O)c1cc2ccc(CCCO)cc2n1C(=O)OC[C@@H](O)CO (optimized conformer: 73.60995692791836 kcal/mol)

>  <smiles>  (54) 
NC(=O)c1cc2ccc(CCCO)cc2n1C(=O)OCC(O)CO

>  <score_type>  (54) 
oracle

>  <origin>  (54) 
adg

>  <m_score__min__energy>  (54) 
-10.119999999999999

>  <m_primary>  (54) 
energy

$$$$
55:0
     RDKit          3D

 30 31  0  0  0  0  0  0  0  0999 V2000
   -3.9110   25.3910  -30.5960 N   0  0  0  0  0  0  0  0  0  0  0  0
   -4.2950   24.0430  -30.8550 C   0  0  0  0  0  0  0  0  0  0  0  0
   -5.4370   23.8080  -31.3320 O   0  0  0  0  0  0  0  0  0  0  0  0
   -3.3450   22.9430  -30.5930 C   0  0  0  0  0  0  0  0  0  0  0  0
   -2.8680   22.0760  -31.5740 C   0  0  0  0  0  0  0  0  0  0  0  0
   -2.0770   21.1680  -30.9050 C   0  0  0  0  0  0  0  0  0  0  0  0
   -1.3360   20.0950  -31.3890 C   0  0  0  0  0  0  0  0  0  0  0  0
   -0.5870   19.3420  -30.4660 C   0  0  0  0  0  0  0  0  0  0  0  0
   -0.6040   19.6620  -29.0830 C   0  0  0  0  0  0  0  0  0  0  0  0
    0.2490   18.8860  -28.1140 C   0  0  0  0  0  0  0  0  0  0  0  0
    1.1950   19.7310  -27.5630 F   0  0  0  0  0  0  0  0  0  0  0  0
    0.8940   17.8440  -28.7570 F   0  0  0  0  0  0  0  0  0  0  0  0
   -0.5260   18.3540  -27.0980 F   0  0  0  0  0  0  0  0  0  0  0  0
   -1.3560   20.7740  -28.6360 C   0  0  0  0  0  0  0  0  0  0  0  0
   -2.0950   21.4970  -29.5760 C   0  0  0  0  0  0  0  0  0  0  0  0
   -2.8620   22.5870  -29.3700 N   0  0  0  0  0  0  0  0  0  0  0  0
   -3.0570   23.2520  -28.1150 C   0  0  0  0  0  0  0  0  0  0  0  0
   -4.2110   23.3120  -27.6120 O   0  0  0  0  0  0  0  0  0  0  0  0
   -1.8840   23.7710  -27.3410 C   0  0  0  0  0  0  0  0  0  0  0  0
   -0.7890   24.7180  -28.4390 P   0  0  0  0  0  0  0  0  0  0  0  0
   -0.4090   23.8720  -29.6340 O   0  0  0  0  0  0  0  0  0  0  0  0
    0.6090   25.1690  -27.6010 O   0  0  0  0  0  0  0  0  0  0  0  0
   -1.5960   26.1050  -28.9700 O   0  0  0  0  0  0  0  0  0  0  0  0
   -3.5010   25.6650  -29.6750 H   0  0  0  0  0  0  0  0  0  0  0  0
   -3.0783   22.1095  -32.6532 H   0  0  0  0  0  0  0  0  0  0  0  0
   -1.3355   19.8430  -32.4597 H   0  0  0  0  0  0  0  0  0  0  0  0
    0.0190   18.4951  -30.8203 H   0  0  0  0  0  0  0  0  0  0  0  0
   -1.3588   21.0623  -27.5745 H   0  0  0  0  0  0  0  0  0  0  0  0
   -2.2414   24.4237  -26.5309 H   0  0  0  0  0  0  0  0  0  0  0  0
   -1.3263   22.9232  -26.9166 H   0  0  0  0  0  0  0  0  0  0  0  0
  1  2  1  0
  2  3  2  0
  2  4  1  0
  4  5  2  0
  5  6  1  0
  6  7  2  0
  7  8  1  0
  8  9  2  0
  9 10  1  0
 10 11  1  0
 10 12  1  0
 10 13  1  0
  9 14  1  0
 14 15  2  0
 15 16  1  0
 16 17  1  0
 17 18  2  0
 17 19  1  0
 19 20  1  0
 20 21  2  0
 20 22  1  0
 20 23  1  0
 16  4  1  0
 15  6  1  0
  1 24  1  0
  5 25  1  0
  7 26  1  0
  8 27  1  0
 14 28  1  0
 19 29  1  0
 19 30  1  0
M  CHG  3   1  -1  22  -1  23  -1
M  END
>  <UniqueID>  (55) 
54

>  <SMILES>  (55) 
[NH-]C(=O)c1cc2ccc(C(F)(F)F)cc2n1C(=O)CP(=O)([O-])[O-]

>  <Energy>  (55) 
64.99621995128172

>  <Genealogy>  (55) 
[NH-]C(=O)c1cc2ccc(C(F)(F)F)cc2n1C(=O)CP(=O)([O-])[O-] (protonated)
[NH-]C(=O)c1cc2ccc(C(F)(F)F)cc2n1C(=O)CP(=O)([O-])[O-] (3D coordinates assigned)
[NH-]C(=O)c1cc2ccc(C(F)(F)F)cc2n1C(=O)CP(=O)([O-])[O-] (optimized conformer: 64.99621995128172 kcal/mol)

>  <smiles>  (55) 
NC(=O)c1cc2ccc(C(F)(F)F)cc2n1C(=O)CP(=O)(O)O

>  <score_type>  (55) 
oracle

>  <origin>  (55) 
adg

>  <m_score__min__energy>  (55) 
-12.460000000000001

>  <m_primary>  (55) 
energy

$$$$
56:0
     RDKit          3D

 33 34  0  0  0  0  0  0  0  0999 V2000
   -6.1660   18.2560  -33.6770 C   0  0  0  0  0  0  0  0  0  0  0  0
   -6.8380   18.3500  -32.3100 C   0  0  0  0  0  0  0  0  0  0  0  0
   -6.0620   17.6830  -31.3770 F   0  0  0  0  0  0  0  0  0  0  0  0
   -8.0700   17.7180  -32.3660 F   0  0  0  0  0  0  0  0  0  0  0  0
   -7.0100   19.7980  -31.9100 C   0  0  0  0  0  0  0  0  0  0  0  0
   -8.3040   20.3790  -31.8550 C   0  0  0  0  0  0  0  0  0  0  0  0
   -8.4710   21.7310  -31.5150 C   0  0  0  0  0  0  0  0  0  0  0  0
   -7.3300   22.4860  -31.2590 C   0  0  0  0  0  0  0  0  0  0  0  0
   -7.2080   23.8070  -30.8950 C   0  0  0  0  0  0  0  0  0  0  0  0
   -5.8370   24.0320  -30.7790 C   0  0  0  0  0  0  0  0  0  0  0  0
   -5.2530   25.3580  -30.4890 C   0  0  0  0  0  0  0  0  0  0  0  0
   -3.9080   25.6620  -30.8490 N   0  0  0  0  0  0  0  0  0  0  0  0
   -5.9660   26.2530  -29.9610 O   0  0  0  0  0  0  0  0  0  0  0  0
   -5.1420   22.8910  -31.0500 N   0  0  0  0  0  0  0  0  0  0  0  0
   -3.7230   22.6830  -30.9690 C   0  0  0  0  0  0  0  0  0  0  0  0
   -3.0260   22.6850  -32.0180 O   0  0  0  0  0  0  0  0  0  0  0  0
   -3.1210   22.4990  -29.7190 O   0  0  0  0  0  0  0  0  0  0  0  0
   -2.8880   23.5630  -28.7990 C   0  0  0  0  0  0  0  0  0  0  0  0
   -1.6120   24.2680  -29.1330 C   0  0  0  0  0  0  0  0  0  0  0  0
   -0.5370   23.6220  -29.2310 O   0  0  0  0  0  0  0  0  0  0  0  0
   -1.6080   25.6470  -29.3070 O   0  0  0  0  0  0  0  0  0  0  0  0
   -6.0710   21.9550  -31.3450 C   0  0  0  0  0  0  0  0  0  0  0  0
   -5.8740   20.6060  -31.6620 C   0  0  0  0  0  0  0  0  0  0  0  0
   -5.0846   18.1047  -33.5443 H   0  0  0  0  0  0  0  0  0  0  0  0
   -6.5890   17.4083  -34.2360 H   0  0  0  0  0  0  0  0  0  0  0  0
   -6.3401   19.1872  -34.2360 H   0  0  0  0  0  0  0  0  0  0  0  0
   -9.1865   19.7626  -32.0815 H   0  0  0  0  0  0  0  0  0  0  0  0
   -9.4733   22.1800  -31.4528 H   0  0  0  0  0  0  0  0  0  0  0  0
   -8.0193   24.5314  -30.7305 H   0  0  0  0  0  0  0  0  0  0  0  0
   -3.1430   24.9650  -30.7060 H   0  0  0  0  0  0  0  0  0  0  0  0
   -3.7223   24.2780  -28.8522 H   0  0  0  0  0  0  0  0  0  0  0  0
   -2.8120   23.1475  -27.7833 H   0  0  0  0  0  0  0  0  0  0  0  0
   -4.8600   20.1833  -31.7172 H   0  0  0  0  0  0  0  0  0  0  0  0
  1  2  1  0
  2  3  1  0
  2  4  1  0
  2  5  1  0
  5  6  2  0
  6  7  1  0
  7  8  2  0
  8  9  1  0
  9 10  2  0
 10 11  1  0
 11 12  1  0
 11 13  2  0
 10 14  1  0
 14 15  1  0
 15 16  2  0
 15 17  1  0
 17 18  1  0
 18 19  1  0
 19 20  2  0
 19 21  1  0
 14 22  1  0
 22 23  2  0
 23  5  1  0
 22  8  1  0
  1 24  1  0
  1 25  1  0
  1 26  1  0
  6 27  1  0
  7 28  1  0
  9 29  1  0
 12 30  1  0
 18 31  1  0
 18 32  1  0
 23 33  1  0
M  CHG  2  12  -1  21  -1
M  END
>  <UniqueID>  (56) 
55

>  <SMILES>  (56) 
CC(F)(F)c1ccc2cc(C([NH-])=O)n(C(=O)OCC(=O)[O-])c2c1

>  <Energy>  (56) 
68.4612036965635

>  <Genealogy>  (56) 
CC(F)(F)c1ccc2cc(C([NH-])=O)n(C(=O)OCC(=O)[O-])c2c1 (protonated)
CC(F)(F)c1ccc2cc(C([NH-])=O)n(C(=O)OCC(=O)[O-])c2c1 (3D coordinates assigned)
CC(F)(F)c1ccc2cc(C([NH-])=O)n(C(=O)OCC(=O)[O-])c2c1 (optimized conformer: 68.4612036965635 kcal/mol)

>  <smiles>  (56) 
CC(F)(F)c1ccc2cc(C(N)=O)n(C(=O)OCC(=O)O)c2c1

>  <score_type>  (56) 
oracle

>  <origin>  (56) 
adg

>  <m_score__min__energy>  (56) 
-12.09

>  <m_primary>  (56) 
energy

$$$$
57:0
     RDKit          3D

 38 39  0  0  0  0  0  0  0  0999 V2000
    0.6490   22.2780  -35.9840 C   0  0  0  0  0  0  0  0  0  0  0  0
    0.5220   22.1090  -34.5900 O   0  0  0  0  0  0  0  0  0  0  0  0
   -0.4710   21.1400  -34.3240 C   0  0  0  0  0  0  0  0  0  0  0  0
   -0.8790   21.2110  -32.8510 C   0  0  0  0  0  0  0  0  0  0  0  0
   -2.3490   20.8420  -32.6500 C   0  0  0  0  0  0  0  0  0  0  0  0
   -3.1440   22.0180  -32.7410 O   0  0  0  0  0  0  0  0  0  0  0  0
   -3.6530   22.6770  -31.6180 C   0  0  0  0  0  0  0  0  0  0  0  0
   -2.8690   23.1770  -30.7660 O   0  0  0  0  0  0  0  0  0  0  0  0
   -5.0740   22.8090  -31.4520 N   0  0  0  0  0  0  0  0  0  0  0  0
   -5.7660   23.8790  -30.9690 C   0  0  0  0  0  0  0  0  0  0  0  0
   -5.1800   25.0890  -30.3540 C   0  0  0  0  0  0  0  0  0  0  0  0
   -3.9440   25.6240  -30.8200 N   0  0  0  0  0  0  0  0  0  0  0  0
   -5.7540   25.6300  -29.3710 O   0  0  0  0  0  0  0  0  0  0  0  0
   -7.1380   23.6490  -31.0490 C   0  0  0  0  0  0  0  0  0  0  0  0
   -7.2670   22.3920  -31.5920 C   0  0  0  0  0  0  0  0  0  0  0  0
   -8.4120   21.6610  -31.8940 C   0  0  0  0  0  0  0  0  0  0  0  0
   -8.2480   20.3910  -32.4720 C   0  0  0  0  0  0  0  0  0  0  0  0
   -6.9530   19.8860  -32.7510 C   0  0  0  0  0  0  0  0  0  0  0  0
   -6.7900   18.5190  -33.3470 C   0  0  0  0  0  0  0  0  0  0  0  0
   -6.4050   17.3470  -32.0640 Cl  0  0  0  0  0  0  0  0  0  0  0  0
   -5.8140   20.6530  -32.4200 C   0  0  0  0  0  0  0  0  0  0  0  0
   -6.0070   21.9060  -31.8270 C   0  0  0  0  0  0  0  0  0  0  0  0
    1.2980   23.1417  -36.1910 H   0  0  0  0  0  0  0  0  0  0  0  0
    1.0920   21.3725  -36.4243 H   0  0  0  0  0  0  0  0  0  0  0  0
   -0.3440   22.4517  -36.4243 H   0  0  0  0  0  0  0  0  0  0  0  0
   -1.3498   21.3337  -34.9566 H   0  0  0  0  0  0  0  0  0  0  0  0
   -0.0714   20.1390  -34.5436 H   0  0  0  0  0  0  0  0  0  0  0  0
   -0.2546   20.5124  -32.2746 H   0  0  0  0  0  0  0  0  0  0  0  0
   -0.7363   22.2459  -32.5065 H   0  0  0  0  0  0  0  0  0  0  0  0
   -2.6585   20.1278  -33.4273 H   0  0  0  0  0  0  0  0  0  0  0  0
   -2.4821   20.3821  -31.6596 H   0  0  0  0  0  0  0  0  0  0  0  0
   -3.0350   25.2960  -30.4250 H   0  0  0  0  0  0  0  0  0  0  0  0
   -7.9467   24.3289  -30.7427 H   0  0  0  0  0  0  0  0  0  0  0  0
   -9.4140   22.0648  -31.6867 H   0  0  0  0  0  0  0  0  0  0  0  0
   -9.1329   19.7826  -32.7104 H   0  0  0  0  0  0  0  0  0  0  0  0
   -7.7256   18.2229  -33.8440 H   0  0  0  0  0  0  0  0  0  0  0  0
   -5.9713   18.5371  -34.0814 H   0  0  0  0  0  0  0  0  0  0  0  0
   -4.8011   20.2752  -32.6231 H   0  0  0  0  0  0  0  0  0  0  0  0
  1  2  1  0
  2  3  1  0
  3  4  1  0
  4  5  1  0
  5  6  1  0
  6  7  1  0
  7  8  2  0
  7  9  1  0
  9 10  1  0
 10 11  1  0
 11 12  1  0
 11 13  2  0
 10 14  2  0
 14 15  1  0
 15 16  2  0
 16 17  1  0
 17 18  2  0
 18 19  1  0
 19 20  1  0
 18 21  1  0
 21 22  2  0
 22  9  1  0
 22 15  1  0
  1 23  1  0
  1 24  1  0
  1 25  1  0
  3 26  1  0
  3 27  1  0
  4 28  1  0
  4 29  1  0
  5 30  1  0
  5 31  1  0
 12 32  1  0
 14 33  1  0
 16 34  1  0
 17 35  1  0
 19 36  1  0
 19 37  1  0
 21 38  1  0
M  CHG  1  12  -1
M  END
>  <UniqueID>  (57) 
56

>  <SMILES>  (57) 
COCCCOC(=O)n1c(C([NH-])=O)cc2ccc(CCl)cc21

>  <Energy>  (57) 
70.34815729931809

>  <Genealogy>  (57) 
COCCCOC(=O)n1c(C([NH-])=O)cc2ccc(CCl)cc21 (protonated)
COCCCOC(=O)n1c(C([NH-])=O)cc2ccc(CCl)cc21 (3D coordinates assigned)
COCCCOC(=O)n1c(C([NH-])=O)cc2ccc(CCl)cc21 (optimized conformer: 70.34815729931809 kcal/mol)

>  <smiles>  (57) 
COCCCOC(=O)n1c(C(N)=O)cc2ccc(CCl)cc21

>  <score_type>  (57) 
oracle

>  <origin>  (57) 
adg

>  <m_score__min__energy>  (57) 
-10.25

>  <m_primary>  (57) 
energy

$$$$
58:0
     RDKit          3D

 37 38  0  0  0  0  0  0  0  0999 V2000
   -1.6360   22.9690  -26.9010 C   0  0  0  0  0  0  0  0  0  0  0  0
   -2.3630   23.7640  -27.6930 C   0  0  0  0  0  0  0  0  0  0  0  0
   -3.7910   24.0720  -27.3330 C   0  0  0  0  0  0  0  0  0  0  0  0
   -1.7550   24.4010  -28.8820 C   0  0  0  0  0  0  0  0  0  0  0  0
   -1.7270   25.6590  -28.9740 O   0  0  0  0  0  0  0  0  0  0  0  0
   -1.2090   23.6120  -29.9030 O   0  0  0  0  0  0  0  0  0  0  0  0
   -1.8110   22.4040  -30.3540 C   0  0  0  0  0  0  0  0  0  0  0  0
   -3.2290   22.5290  -30.3070 O   0  0  0  0  0  0  0  0  0  0  0  0
   -4.0340   22.4390  -31.4470 C   0  0  0  0  0  0  0  0  0  0  0  0
   -3.5350   22.0890  -32.5500 O   0  0  0  0  0  0  0  0  0  0  0  0
   -5.4290   22.7700  -31.3620 N   0  0  0  0  0  0  0  0  0  0  0  0
   -5.9810   23.9690  -31.0190 C   0  0  0  0  0  0  0  0  0  0  0  0
   -5.2490   25.1450  -30.5040 C   0  0  0  0  0  0  0  0  0  0  0  0
   -3.8760   25.3290  -30.8430 N   0  0  0  0  0  0  0  0  0  0  0  0
   -5.8320   26.0090  -29.8010 O   0  0  0  0  0  0  0  0  0  0  0  0
   -7.3680   23.9210  -31.1410 C   0  0  0  0  0  0  0  0  0  0  0  0
   -7.6540   22.6440  -31.5660 C   0  0  0  0  0  0  0  0  0  0  0  0
   -8.8790   22.0510  -31.8600 C   0  0  0  0  0  0  0  0  0  0  0  0
   -8.8750   20.7210  -32.3100 C   0  0  0  0  0  0  0  0  0  0  0  0
   -7.6580   20.0160  -32.4630 C   0  0  0  0  0  0  0  0  0  0  0  0
   -7.6670   18.6650  -32.9330 N   0  0  0  0  0  0  0  0  0  0  0  0
   -6.4340   20.6480  -32.1560 C   0  0  0  0  0  0  0  0  0  0  0  0
   -6.4670   21.9690  -31.6930 C   0  0  0  0  0  0  0  0  0  0  0  0
   -0.5916   22.7410  -27.1601 H   0  0  0  0  0  0  0  0  0  0  0  0
   -2.0824   22.5430  -25.9903 H   0  0  0  0  0  0  0  0  0  0  0  0
   -3.8964   24.0947  -26.2383 H   0  0  0  0  0  0  0  0  0  0  0  0
   -4.0709   25.0512  -27.7487 H   0  0  0  0  0  0  0  0  0  0  0  0
   -4.4497   23.2953  -27.7487 H   0  0  0  0  0  0  0  0  0  0  0  0
   -1.4956   22.2019  -31.3883 H   0  0  0  0  0  0  0  0  0  0  0  0
   -1.4961   21.5745  -29.7037 H   0  0  0  0  0  0  0  0  0  0  0  0
   -3.1330   24.7390  -30.4070 H   0  0  0  0  0  0  0  0  0  0  0  0
   -8.0831   24.7323  -30.9401 H   0  0  0  0  0  0  0  0  0  0  0  0
   -9.8208   22.6073  -31.7433 H   0  0  0  0  0  0  0  0  0  0  0  0
   -9.8269   20.2226  -32.5458 H   0  0  0  0  0  0  0  0  0  0  0  0
   -7.0100   17.9570  -32.5370 H   0  0  0  0  0  0  0  0  0  0  0  0
   -8.3330   18.3650  -33.6800 H   0  0  0  0  0  0  0  0  0  0  0  0
   -5.4786   20.1164  -32.2773 H   0  0  0  0  0  0  0  0  0  0  0  0
  1  2  2  0
  2  3  1  0
  2  4  1  0
  4  5  2  0
  4  6  1  0
  6  7  1  0
  7  8  1  0
  8  9  1  0
  9 10  2  0
  9 11  1  0
 11 12  1  0
 12 13  1  0
 13 14  1  0
 13 15  2  0
 12 16  2  0
 16 17  1  0
 17 18  2  0
 18 19  1  0
 19 20  2  0
 20 21  1  0
 20 22  1  0
 22 23  2  0
 23 11  1  0
 23 17  1  0
  1 24  1  0
  1 25  1  0
  3 26  1  0
  3 27  1  0
  3 28  1  0
  7 29  1  0
  7 30  1  0
 14 31  1  0
 16 32  1  0
 18 33  1  0
 19 34  1  0
 21 35  1  0
 21 36  1  0
 22 37  1  0
M  CHG  1  14  -1
M  END
>  <UniqueID>  (58) 
57

>  <SMILES>  (58) 
C=C(C)C(=O)OCOC(=O)n1c(C([NH-])=O)cc2ccc(N)cc21

>  <Energy>  (58) 
69.74285286017644

>  <Genealogy>  (58) 
C=C(C)C(=O)OCOC(=O)n1c(C([NH-])=O)cc2ccc(N)cc21 (protonated)
C=C(C)C(=O)OCOC(=O)n1c(C([NH-])=O)cc2ccc(N)cc21 (3D coordinates assigned)
C=C(C)C(=O)OCOC(=O)n1c(C([NH-])=O)cc2ccc(N)cc21 (optimized conformer: 69.74285286017644 kcal/mol)

>  <smiles>  (58) 
C=C(C)C(=O)OCOC(=O)n1c(C(N)=O)cc2ccc(N)cc21

>  <score_type>  (58) 
oracle

>  <origin>  (58) 
adg

>  <m_score__min__energy>  (58) 
-9.8000000000000007

>  <m_primary>  (58) 
energy

$$$$
60:0
     RDKit          3D

 39 40  0  0  0  0  0  0  0  0999 V2000
   -0.8580   26.7130  -27.9580 C   0  0  0  0  0  0  0  0  0  0  0  0
   -1.6490   25.9170  -28.8120 O   0  0  0  0  0  0  0  0  0  0  0  0
   -2.1390   24.7810  -28.1210 C   0  0  0  0  0  0  0  0  0  0  0  0
   -1.3460   23.5430  -28.5270 C   0  0  0  0  0  0  0  0  0  0  0  0
   -1.1500   23.5490  -29.9270 O   0  0  0  0  0  0  0  0  0  0  0  0
   -1.7240   22.3940  -30.4990 C   0  0  0  0  0  0  0  0  0  0  0  0
   -3.1450   22.4620  -30.4060 O   0  0  0  0  0  0  0  0  0  0  0  0
   -3.9770   22.5110  -31.5270 C   0  0  0  0  0  0  0  0  0  0  0  0
   -3.5290   22.2040  -32.6650 O   0  0  0  0  0  0  0  0  0  0  0  0
   -5.3540   22.8910  -31.3760 N   0  0  0  0  0  0  0  0  0  0  0  0
   -5.8420   24.0630  -30.8760 C   0  0  0  0  0  0  0  0  0  0  0  0
   -5.0480   25.2650  -30.5480 C   0  0  0  0  0  0  0  0  0  0  0  0
   -3.6400   25.2970  -30.7680 N   0  0  0  0  0  0  0  0  0  0  0  0
   -5.6290   26.2960  -30.1170 O   0  0  0  0  0  0  0  0  0  0  0  0
   -7.2310   24.0140  -30.7820 C   0  0  0  0  0  0  0  0  0  0  0  0
   -7.5850   22.7700  -31.2490 C   0  0  0  0  0  0  0  0  0  0  0  0
   -8.8420   22.1850  -31.3730 C   0  0  0  0  0  0  0  0  0  0  0  0
   -8.9120   20.8700  -31.8620 C   0  0  0  0  0  0  0  0  0  0  0  0
   -7.7310   20.1620  -32.1960 C   0  0  0  0  0  0  0  0  0  0  0  0
   -7.8210   18.7690  -32.7420 C   0  0  0  0  0  0  0  0  0  0  0  0
   -6.4740   20.7920  -32.0730 C   0  0  0  0  0  0  0  0  0  0  0  0
   -6.4350   22.1110  -31.6010 C   0  0  0  0  0  0  0  0  0  0  0  0
   -1.0950   26.4745  -26.9107 H   0  0  0  0  0  0  0  0  0  0  0  0
    0.2061   26.5096  -28.1486 H   0  0  0  0  0  0  0  0  0  0  0  0
   -1.0681   27.7758  -28.1486 H   0  0  0  0  0  0  0  0  0  0  0  0
   -2.0359   24.9408  -27.0376 H   0  0  0  0  0  0  0  0  0  0  0  0
   -3.1985   24.6316  -28.3762 H   0  0  0  0  0  0  0  0  0  0  0  0
   -0.3699   23.5498  -28.0198 H   0  0  0  0  0  0  0  0  0  0  0  0
   -1.9024   22.6392  -28.2378 H   0  0  0  0  0  0  0  0  0  0  0  0
   -1.4304   22.3264  -31.5569 H   0  0  0  0  0  0  0  0  0  0  0  0
   -1.3675   21.5057  -29.9570 H   0  0  0  0  0  0  0  0  0  0  0  0
   -2.9930   24.7230  -30.1840 H   0  0  0  0  0  0  0  0  0  0  0  0
   -7.9023   24.8032  -30.4125 H   0  0  0  0  0  0  0  0  0  0  0  0
   -9.7531   22.7359  -31.0964 H   0  0  0  0  0  0  0  0  0  0  0  0
   -9.8918   20.3859  -31.9867 H   0  0  0  0  0  0  0  0  0  0  0  0
   -7.8674   18.0512  -31.9097 H   0  0  0  0  0  0  0  0  0  0  0  0
   -8.7271   18.6746  -33.3585 H   0  0  0  0  0  0  0  0  0  0  0  0
   -6.9346   18.5588  -33.3585 H   0  0  0  0  0  0  0  0  0  0  0  0
   -5.5485   20.2612  -32.3408 H   0  0  0  0  0  0  0  0  0  0  0  0
  1  2  1  0
  2  3  1  0
  3  4  1  0
  4  5  1  0
  5  6  1  0
  6  7  1  0
  7  8  1  0
  8  9  2  0
  8 10  1  0
 10 11  1  0
 11 12  1  0
 12 13  1  0
 12 14  2  0
 11 15  2  0
 15 16  1  0
 16 17  2  0
 17 18  1  0
 18 19  2  0
 19 20  1  0
 19 21  1  0
 21 22  2  0
 22 10  1  0
 22 16  1  0
  1 23  1  0
  1 24  1  0
  1 25  1  0
  3 26  1  0
  3 27  1  0
  4 28  1  0
  4 29  1  0
  6 30  1  0
  6 31  1  0
 13 32  1  0
 15 33  1  0
 17 34  1  0
 18 35  1  0
 20 36  1  0
 20 37  1  0
 20 38  1  0
 21 39  1  0
M  CHG  1  13  -1
M  END
>  <UniqueID>  (59) 
58

>  <SMILES>  (59) 
COCCOCOC(=O)n1c(C([NH-])=O)cc2ccc(C)cc21

>  <Energy>  (59) 
77.18771670017153

>  <Genealogy>  (59) 
COCCOCOC(=O)n1c(C([NH-])=O)cc2ccc(C)cc21 (protonated)
COCCOCOC(=O)n1c(C([NH-])=O)cc2ccc(C)cc21 (3D coordinates assigned)
COCCOCOC(=O)n1c(C([NH-])=O)cc2ccc(C)cc21 (optimized conformer: 77.18771670017153 kcal/mol)

>  <smiles>  (59) 
COCCOCOC(=O)n1c(C(N)=O)cc2ccc(C)cc21

>  <score_type>  (59) 
oracle

>  <origin>  (59) 
adg

>  <m_score__min__energy>  (59) 
-9.6699999999999999

>  <m_primary>  (59) 
energy

$$$$
62:0
     RDKit          3D

 49 50  0  0  0  0  0  0  0  0999 V2000
   -3.4910   26.0400  -31.2440 H   0  0  0  0  0  0  0  0  0  0  0  0
   -3.8490   25.2670  -30.6380 N   0  0  0  0  0  0  0  0  0  0  0  0
   -5.2390   25.1450  -30.3520 C   0  0  0  0  0  0  0  0  0  0  0  0
   -5.8250   26.0730  -29.7330 O   0  0  0  0  0  0  0  0  0  0  0  0
   -6.0120   23.9740  -30.8160 C   0  0  0  0  0  0  0  0  0  0  0  0
   -7.4020   23.9660  -30.9220 C   0  0  0  0  0  0  0  0  0  0  0  0
   -8.0978   24.7653  -30.6270 H   0  0  0  0  0  0  0  0  0  0  0  0
   -7.7190   22.7460  -31.4740 C   0  0  0  0  0  0  0  0  0  0  0  0
   -8.9590   22.1980  -31.7870 C   0  0  0  0  0  0  0  0  0  0  0  0
   -9.8871   22.7642  -31.6197 H   0  0  0  0  0  0  0  0  0  0  0  0
   -8.9900   20.9000  -32.3230 C   0  0  0  0  0  0  0  0  0  0  0  0
   -9.9565   20.4414  -32.5791 H   0  0  0  0  0  0  0  0  0  0  0  0
   -7.7930   20.1740  -32.5380 C   0  0  0  0  0  0  0  0  0  0  0  0
   -7.8660   18.8400  -33.0730 N   0  0  0  0  0  0  0  0  0  0  0  0
   -8.7950   18.4970  -33.4120 H   0  0  0  0  0  0  0  0  0  0  0  0
   -6.7160   18.0030  -33.2580 C   0  0  0  0  0  0  0  0  0  0  0  0
   -6.6244   17.0688  -32.6846 H   0  0  0  0  0  0  0  0  0  0  0  0
   -5.7550   18.3470  -34.1200 C   0  0  0  0  0  0  0  0  0  0  0  0
   -5.8655   19.2805  -34.6913 H   0  0  0  0  0  0  0  0  0  0  0  0
   -4.5530   17.5230  -34.3340 C   0  0  0  0  0  0  0  0  0  0  0  0
   -4.6480   16.2750  -34.4960 O   0  0  0  0  0  0  0  0  0  0  0  0
   -3.3030   18.1510  -34.3650 O   0  0  0  0  0  0  0  0  0  0  0  0
   -3.0760   19.4730  -33.8770 C   0  0  0  0  0  0  0  0  0  0  0  0
   -3.9763   20.0812  -34.0488 H   0  0  0  0  0  0  0  0  0  0  0  0
   -2.2168   19.9051  -34.4109 H   0  0  0  0  0  0  0  0  0  0  0  0
   -2.7650   19.4490  -32.3840 C   0  0  0  0  0  0  0  0  0  0  0  0
   -3.7024   19.5213  -31.8130 H   0  0  0  0  0  0  0  0  0  0  0  0
   -2.2533   18.5087  -32.1311 H   0  0  0  0  0  0  0  0  0  0  0  0
   -2.1150   20.2997  -32.1311 H   0  0  0  0  0  0  0  0  0  0  0  0
   -6.5510   20.7590  -32.1870 C   0  0  0  0  0  0  0  0  0  0  0  0
   -5.6108   20.2018  -32.3118 H   0  0  0  0  0  0  0  0  0  0  0  0
   -6.5490   22.0620  -31.6780 C   0  0  0  0  0  0  0  0  0  0  0  0
   -5.4920   22.8000  -31.2740 N   0  0  0  0  0  0  0  0  0  0  0  0
   -4.1200   22.3780  -31.2770 C   0  0  0  0  0  0  0  0  0  0  0  0
   -3.3750   22.6760  -32.2500 O   0  0  0  0  0  0  0  0  0  0  0  0
   -3.6200   21.6650  -30.1770 O   0  0  0  0  0  0  0  0  0  0  0  0
   -3.0410   22.2250  -28.9900 C   0  0  0  0  0  0  0  0  0  0  0  0
   -1.8900   23.1840  -29.3470 C   0  0  0  0  0  0  0  0  0  0  0  0
   -1.4313   23.5662  -28.4231 H   0  0  0  0  0  0  0  0  0  0  0  0
   -1.1334   22.6454  -29.9364 H   0  0  0  0  0  0  0  0  0  0  0  0
   -2.2832   24.0254  -29.9364 H   0  0  0  0  0  0  0  0  0  0  0  0
   -4.1150   22.9480  -28.1550 C   0  0  0  0  0  0  0  0  0  0  0  0
   -3.9043   22.8062  -27.0847 H   0  0  0  0  0  0  0  0  0  0  0  0
   -4.1022   24.0221  -28.3920 H   0  0  0  0  0  0  0  0  0  0  0  0
   -5.1053   22.5320  -28.3920 H   0  0  0  0  0  0  0  0  0  0  0  0
   -2.4800   21.0550  -28.1670 C   0  0  0  0  0  0  0  0  0  0  0  0
   -2.5863   21.2767  -27.0948 H   0  0  0  0  0  0  0  0  0  0  0  0
   -3.0359   20.1370  -28.4085 H   0  0  0  0  0  0  0  0  0  0  0  0
   -1.4162   20.9137  -28.4085 H   0  0  0  0  0  0  0  0  0  0  0  0
  1  2  1  0
  2  3  1  0
  3  4  2  0
  3  5  1  0
  5  6  2  0
  6  7  1  0
  6  8  1  0
  8  9  2  0
  9 10  1  0
  9 11  1  0
 11 12  1  0
 11 13  2  0
 13 14  1  0
 14 15  1  0
 14 16  1  0
 16 17  1  0
 16 18  2  0
 18 19  1  0
 18 20  1  0
 20 21  2  0
 20 22  1  0
 22 23  1  0
 23 24  1  0
 23 25  1  0
 23 26  1  0
 26 27  1  0
 26 28  1  0
 26 29  1  0
 13 30  1  0
 30 31  1  0
 30 32  2  0
 32 33  1  0
 33 34  1  0
 34 35  2  0
 34 36  1  0
 36 37  1  0
 37 38  1  0
 38 39  1  0
 38 40  1  0
 38 41  1  0
 37 42  1  0
 42 43  1  0
 42 44  1  0
 42 45  1  0
 37 46  1  0
 46 47  1  0
 46 48  1  0
 46 49  1  0
 33  5  1  0
 32  8  1  0
M  CHG  1   2  -1
M  END
>  <UniqueID>  (60) 
59

>  <SMILES>  (60) 
CCOC(=O)/C=C/Nc1ccc2cc(C([NH-])=O)n(C(=O)OC(C)(C)C)c2c1

>  <Energy>  (60) 
78.01907649309268

>  <Genealogy>  (60) 
CCOC(=O)/C=C/Nc1ccc2cc(C([NH-])=O)n(C(=O)OC(C)(C)C)c2c1 (protonated)
CCOC(=O)/C=C/Nc1ccc2cc(C([NH-])=O)n(C(=O)OC(C)(C)C)c2c1 (cis-trans isomerization)
CCOC(=O)/C=C/Nc1ccc2cc(C([NH-])=O)n(C(=O)OC(C)(C)C)c2c1 (3D coordinates assigned)
CCOC(=O)/C=C/Nc1ccc2cc(C([NH-])=O)n(C(=O)OC(C)(C)C)c2c1 (optimized conformer: 78.01907649309268 kcal/mol)

>  <smiles>  (60) 
CCOC(=O)/C=C/Nc1ccc2cc(C(N)=O)n(C(=O)OC(C)(C)C)c2c1

>  <score_type>  (60) 
oracle

>  <origin>  (60) 
adg

>  <m_score__min__energy>  (60) 
-10.65

>  <m_primary>  (60) 
energy

$$$$
63:0
     RDKit          3D

 38 39  0  0  0  0  0  0  0  0999 V2000
   -6.1280   17.0630  -31.4360 C   0  0  0  0  0  0  0  0  0  0  0  0
   -6.9010   17.3030  -32.7290 C   0  0  0  0  0  0  0  0  0  0  0  0
   -6.4250   18.5200  -33.4070 N   0  0  0  0  0  0  0  0  0  0  0  0
   -5.7320   18.4060  -34.6950 C   0  0  0  0  0  0  0  0  0  0  0  0
   -6.6540   19.8310  -32.8360 C   0  0  0  0  0  0  0  0  0  0  0  0
   -7.9740   20.3330  -32.6830 C   0  0  0  0  0  0  0  0  0  0  0  0
   -8.2020   21.6100  -32.1450 C   0  0  0  0  0  0  0  0  0  0  0  0
   -7.0980   22.3630  -31.7570 C   0  0  0  0  0  0  0  0  0  0  0  0
   -7.0330   23.6340  -31.2350 C   0  0  0  0  0  0  0  0  0  0  0  0
   -5.6750   23.8880  -31.0510 C   0  0  0  0  0  0  0  0  0  0  0  0
   -5.1560   25.1230  -30.4280 C   0  0  0  0  0  0  0  0  0  0  0  0
   -3.8960   25.6490  -30.8390 N   0  0  0  0  0  0  0  0  0  0  0  0
   -5.8300   25.7410  -29.5620 O   0  0  0  0  0  0  0  0  0  0  0  0
   -4.9310   22.8170  -31.4490 N   0  0  0  0  0  0  0  0  0  0  0  0
   -3.5000   22.7100  -31.4900 C   0  0  0  0  0  0  0  0  0  0  0  0
   -2.8120   23.1050  -30.5090 O   0  0  0  0  0  0  0  0  0  0  0  0
   -2.8760   22.1490  -32.6100 O   0  0  0  0  0  0  0  0  0  0  0  0
   -1.7020   21.3430  -32.5320 C   0  0  0  0  0  0  0  0  0  0  0  0
   -1.1470   21.0980  -33.8980 C   0  0  0  0  0  0  0  0  0  0  0  0
   -1.5600   20.1240  -34.5820 O   0  0  0  0  0  0  0  0  0  0  0  0
   -0.1540   21.9240  -34.4070 O   0  0  0  0  0  0  0  0  0  0  0  0
   -5.8180   21.8920  -31.8760 C   0  0  0  0  0  0  0  0  0  0  0  0
   -5.5600   20.6310  -32.4260 C   0  0  0  0  0  0  0  0  0  0  0  0
   -6.7817   17.2660  -30.5749 H   0  0  0  0  0  0  0  0  0  0  0  0
   -5.7887   16.0172  -31.4003 H   0  0  0  0  0  0  0  0  0  0  0  0
   -5.2561   17.7327  -31.4003 H   0  0  0  0  0  0  0  0  0  0  0  0
   -6.7618   16.4405  -33.3973 H   0  0  0  0  0  0  0  0  0  0  0  0
   -7.9656   17.4308  -32.4836 H   0  0  0  0  0  0  0  0  0  0  0  0
   -4.6603   18.2297  -34.5204 H   0  0  0  0  0  0  0  0  0  0  0  0
   -6.1538   17.5652  -35.2652 H   0  0  0  0  0  0  0  0  0  0  0  0
   -5.8622   19.3376  -35.2652 H   0  0  0  0  0  0  0  0  0  0  0  0
   -8.8292   19.7131  -32.9901 H   0  0  0  0  0  0  0  0  0  0  0  0
   -9.2232   22.0034  -32.0336 H   0  0  0  0  0  0  0  0  0  0  0  0
   -7.8739   24.3067  -31.0106 H   0  0  0  0  0  0  0  0  0  0  0  0
   -3.0040   25.2680  -30.4530 H   0  0  0  0  0  0  0  0  0  0  0  0
   -0.9472   21.8601  -31.9214 H   0  0  0  0  0  0  0  0  0  0  0  0
   -1.9617   20.3773  -32.0737 H   0  0  0  0  0  0  0  0  0  0  0  0
   -4.5274   20.2685  -32.5375 H   0  0  0  0  0  0  0  0  0  0  0  0
  1  2  1  0
  2  3  1  0
  3  4  1  0
  3  5  1  0
  5  6  2  0
  6  7  1  0
  7  8  2  0
  8  9  1  0
  9 10  2  0
 10 11  1  0
 11 12  1  0
 11 13  2  0
 10 14  1  0
 14 15  1  0
 15 16  2  0
 15 17  1  0
 17 18  1  0
 18 19  1  0
 19 20  2  0
 19 21  1  0
 14 22  1  0
 22 23  2  0
 23  5  1  0
 22  8  1  0
  1 24  1  0
  1 25  1  0
  1 26  1  0
  2 27  1  0
  2 28  1  0
  4 29  1  0
  4 30  1  0
  4 31  1  0
  6 32  1  0
  7 33  1  0
  9 34  1  0
 12 35  1  0
 18 36  1  0
 18 37  1  0
 23 38  1  0
M  CHG  2  12  -1  21  -1
M  END
>  <UniqueID>  (61) 
60

>  <SMILES>  (61) 
CCN(C)c1ccc2cc(C([NH-])=O)n(C(=O)OCC(=O)[O-])c2c1

>  <Energy>  (61) 
74.25444826452731

>  <Genealogy>  (61) 
CCN(C)c1ccc2cc(C([NH-])=O)n(C(=O)OCC(=O)[O-])c2c1 (protonated)
CCN(C)c1ccc2cc(C([NH-])=O)n(C(=O)OCC(=O)[O-])c2c1 (3D coordinates assigned)
CCN(C)c1ccc2cc(C([NH-])=O)n(C(=O)OCC(=O)[O-])c2c1 (optimized conformer: 74.25444826452731 kcal/mol)

>  <smiles>  (61) 
CCN(C)c1ccc2cc(C(N)=O)n(C(=O)OCC(=O)O)c2c1

>  <score_type>  (61) 
oracle

>  <origin>  (61) 
adg

>  <m_score__min__energy>  (61) 
-12.15

>  <m_primary>  (61) 
energy

$$$$
64:0
     RDKit          3D

 39 40  0  0  0  0  0  0  0  0999 V2000
   -1.2330   21.7820  -28.9840 C   0  0  0  0  0  0  0  0  0  0  0  0
   -1.6600   22.9170  -29.9170 C   0  0  1  0  0  0  0  0  0  0  0  0
   -3.0800   22.9290  -30.0730 O   0  0  0  0  0  0  0  0  0  0  0  0
   -3.7320   22.6470  -31.2790 C   0  0  0  0  0  0  0  0  0  0  0  0
   -3.0650   22.3530  -32.3080 O   0  0  0  0  0  0  0  0  0  0  0  0
   -5.1680   22.7030  -31.3410 N   0  0  0  0  0  0  0  0  0  0  0  0
   -5.9600   23.7730  -31.0540 C   0  0  0  0  0  0  0  0  0  0  0  0
   -5.5110   25.0430  -30.4500 C   0  0  0  0  0  0  0  0  0  0  0  0
   -4.1700   25.5050  -30.6120 N   0  0  0  0  0  0  0  0  0  0  0  0
   -6.3100   25.7030  -29.7330 O   0  0  0  0  0  0  0  0  0  0  0  0
   -7.2880   23.5000  -31.3630 C   0  0  0  0  0  0  0  0  0  0  0  0
   -7.2900   22.2090  -31.8410 C   0  0  0  0  0  0  0  0  0  0  0  0
   -8.3440   21.4350  -32.3090 C   0  0  0  0  0  0  0  0  0  0  0  0
   -8.0570   20.1450  -32.7830 C   0  0  0  0  0  0  0  0  0  0  0  0
   -6.7230   19.6460  -32.7950 C   0  0  0  0  0  0  0  0  0  0  0  0
   -6.4350   18.3150  -33.2990 N   0  0  0  0  0  0  0  0  0  0  0  0
   -6.7690   17.1260  -32.5050 C   0  0  0  0  0  0  0  0  0  0  0  0
   -5.8040   18.1360  -34.6120 C   0  0  0  0  0  0  0  0  0  0  0  0
   -5.6790   20.4770  -32.3090 C   0  0  0  0  0  0  0  0  0  0  0  0
   -6.0000   21.7510  -31.8220 C   0  0  0  0  0  0  0  0  0  0  0  0
   -1.2170   24.2330  -29.3540 C   0  0  0  0  0  0  0  0  0  0  0  0
   -0.0430   24.3780  -28.9220 O   0  0  0  0  0  0  0  0  0  0  0  0
   -2.0880   25.3150  -29.3490 O   0  0  0  0  0  0  0  0  0  0  0  0
   -1.3534   22.1019  -27.9384 H   0  0  0  0  0  0  0  0  0  0  0  0
   -1.8600   20.8978  -29.1714 H   0  0  0  0  0  0  0  0  0  0  0  0
   -0.1787   21.5303  -29.1714 H   0  0  0  0  0  0  0  0  0  0  0  0
   -1.1905   22.7547  -30.8984 H   0  0  0  0  0  0  0  0  0  0  0  0
   -3.4440   24.9000  -31.0550 H   0  0  0  0  0  0  0  0  0  0  0  0
   -3.8810   26.4270  -30.2170 H   0  0  0  0  0  0  0  0  0  0  0  0
   -8.1518   24.1716  -31.2498 H   0  0  0  0  0  0  0  0  0  0  0  0
   -9.3739   21.8215  -32.3083 H   0  0  0  0  0  0  0  0  0  0  0  0
   -8.8758   19.5093  -33.1511 H   0  0  0  0  0  0  0  0  0  0  0  0
   -6.7007   17.3690  -31.4344 H   0  0  0  0  0  0  0  0  0  0  0  0
   -7.7929   16.8020  -32.7429 H   0  0  0  0  0  0  0  0  0  0  0  0
   -6.0636   16.3162  -32.7429 H   0  0  0  0  0  0  0  0  0  0  0  0
   -4.7538   17.8381  -34.4766 H   0  0  0  0  0  0  0  0  0  0  0  0
   -6.3378   17.3538  -35.1717 H   0  0  0  0  0  0  0  0  0  0  0  0
   -5.8475   19.0819  -35.1717 H   0  0  0  0  0  0  0  0  0  0  0  0
   -4.6363   20.1266  -32.3148 H   0  0  0  0  0  0  0  0  0  0  0  0
  1  2  1  0
  2  3  1  0
  3  4  1  0
  4  5  2  0
  4  6  1  0
  6  7  1  0
  7  8  1  0
  8  9  1  0
  8 10  2  0
  7 11  2  0
 11 12  1  0
 12 13  2  0
 13 14  1  0
 14 15  2  0
 15 16  1  0
 16 17  1  0
 16 18  1  0
 15 19  1  0
 19 20  2  0
  2 21  1  0
 21 22  2  0
 21 23  1  0
 20  6  1  0
 20 12  1  0
  1 24  1  0
  1 25  1  0
  1 26  1  0
  2 27  1  6
  9 28  1  0
  9 29  1  0
 11 30  1  0
 13 31  1  0
 14 32  1  0
 17 33  1  0
 17 34  1  0
 17 35  1  0
 18 36  1  0
 18 37  1  0
 18 38  1  0
 19 39  1  0
M  CHG  1  23  -1
M  END
>  <UniqueID>  (62) 
61

>  <SMILES>  (62) 
C[C@@H](OC(=O)n1c(C(N)=O)cc2ccc(N(C)C)cc21)C(=O)[O-]

>  <Energy>  (62) 
75.01857257647117

>  <Genealogy>  (62) 
CC(OC(=O)n1c(C(N)=O)cc2ccc(N(C)C)cc21)C(=O)[O-] (protonated)
C[C@@H](OC(=O)n1c(C(N)=O)cc2ccc(N(C)C)cc21)C(=O)[O-] (chirality)
C[C@@H](OC(=O)n1c(C(N)=O)cc2ccc(N(C)C)cc21)C(=O)[O-] (3D coordinates assigned)
C[C@@H](OC(=O)n1c(C(N)=O)cc2ccc(N(C)C)cc21)C(=O)[O-] (optimized conformer: 75.01857257647117 kcal/mol)

>  <smiles>  (62) 
CC(OC(=O)n1c(C(N)=O)cc2ccc(N(C)C)cc21)C(=O)O

>  <score_type>  (62) 
oracle

>  <origin>  (62) 
adg

>  <m_score__min__energy>  (62) 
-10.76

>  <m_primary>  (62) 
energy

$$$$
65:0
     RDKit          3D

 37 38  0  0  0  0  0  0  0  0999 V2000
   -4.0470   25.6550  -30.8520 N   0  0  0  0  0  0  0  0  0  0  0  0
   -5.2650   25.1110  -30.3500 C   0  0  0  0  0  0  0  0  0  0  0  0
   -5.8400   25.6780  -29.3820 O   0  0  0  0  0  0  0  0  0  0  0  0
   -5.8270   23.8630  -30.9060 C   0  0  0  0  0  0  0  0  0  0  0  0
   -7.1870   23.6750  -31.1390 C   0  0  0  0  0  0  0  0  0  0  0  0
   -7.3060   22.3720  -31.5660 C   0  0  0  0  0  0  0  0  0  0  0  0
   -8.4360   21.6570  -31.9510 C   0  0  0  0  0  0  0  0  0  0  0  0
   -8.2620   20.3320  -32.3820 C   0  0  0  0  0  0  0  0  0  0  0  0
   -6.9690   19.7520  -32.4290 C   0  0  0  0  0  0  0  0  0  0  0  0
   -6.7870   18.3400  -32.9240 C   0  0  0  0  0  0  0  0  0  0  0  0
   -6.0370   18.2810  -34.2620 C   0  0  0  0  0  0  0  0  0  0  0  0
   -4.2340   18.1020  -34.0430 P   0  0  1  0  0  0  0  0  0  0  0  0
   -3.9420   17.3250  -32.7790 O   0  0  0  0  0  0  0  0  0  0  0  0
   -3.5700   17.2900  -35.3690 O   0  0  0  0  0  0  0  0  0  0  0  0
   -3.5310   19.6370  -33.9330 O   0  0  0  0  0  0  0  0  0  0  0  0
   -5.8460   20.5090  -32.0310 C   0  0  0  0  0  0  0  0  0  0  0  0
   -6.0500   21.8210  -31.5880 C   0  0  0  0  0  0  0  0  0  0  0  0
   -5.1300   22.7260  -31.1880 N   0  0  0  0  0  0  0  0  0  0  0  0
   -3.7050   22.5490  -31.1780 C   0  0  0  0  0  0  0  0  0  0  0  0
   -3.1900   21.5460  -31.7460 O   0  0  0  0  0  0  0  0  0  0  0  0
   -2.8910   23.5010  -30.5570 O   0  0  0  0  0  0  0  0  0  0  0  0
   -1.9940   23.1760  -29.5020 C   0  0  0  0  0  0  0  0  0  0  0  0
   -1.1070   24.3460  -29.2350 C   0  0  0  0  0  0  0  0  0  0  0  0
    0.0940   24.1660  -28.9060 O   0  0  0  0  0  0  0  0  0  0  0  0
   -1.6200   25.6350  -29.2950 O   0  0  0  0  0  0  0  0  0  0  0  0
   -3.1230   25.3000  -30.5220 H   0  0  0  0  0  0  0  0  0  0  0  0
   -7.9941   24.4110  -31.0094 H   0  0  0  0  0  0  0  0  0  0  0  0
   -9.4352   22.1158  -31.9187 H   0  0  0  0  0  0  0  0  0  0  0  0
   -9.1368   19.7385  -32.6860 H   0  0  0  0  0  0  0  0  0  0  0  0
   -6.2160   17.7735  -32.1737 H   0  0  0  0  0  0  0  0  0  0  0  0
   -7.7865   17.9080  -33.0805 H   0  0  0  0  0  0  0  0  0  0  0  0
   -6.4098   17.4213  -34.8381 H   0  0  0  0  0  0  0  0  0  0  0  0
   -6.2178   19.2292  -34.7894 H   0  0  0  0  0  0  0  0  0  0  0  0
   -3.4110   19.7930  -32.9610 H   0  0  0  0  0  0  0  0  0  0  0  0
   -4.8346   20.0781  -32.0681 H   0  0  0  0  0  0  0  0  0  0  0  0
   -2.5660   22.9331  -28.5943 H   0  0  0  0  0  0  0  0  0  0  0  0
   -1.3837   22.3073  -29.7899 H   0  0  0  0  0  0  0  0  0  0  0  0
  1  2  1  0
  2  3  2  0
  2  4  1  0
  4  5  2  0
  5  6  1  0
  6  7  2  0
  7  8  1  0
  8  9  2  0
  9 10  1  0
 10 11  1  0
 11 12  1  0
 12 13  2  0
 12 14  1  6
 12 15  1  0
  9 16  1  0
 16 17  2  0
 17 18  1  0
 18 19  1  0
 19 20  2  0
 19 21  1  0
 21 22  1  0
 22 23  1  0
 23 24  2  0
 23 25  1  0
 18  4  1  0
 17  6  1  0
  1 26  1  0
  5 27  1  0
  7 28  1  0
  8 29  1  0
 10 30  1  0
 10 31  1  0
 11 32  1  0
 11 33  1  0
 15 34  1  0
 16 35  1  0
 22 36  1  0
 22 37  1  0
M  CHG  3   1  -1  14  -1  25  -1
M  END
>  <UniqueID>  (63) 
62

>  <SMILES>  (63) 
[NH-]C(=O)c1cc2ccc(CC[P@@](=O)([O-])O)cc2n1C(=O)OCC(=O)[O-]

>  <Energy>  (63) 
65.96581147654601

>  <Genealogy>  (63) 
[NH-]C(=O)c1cc2ccc(CCP(=O)([O-])O)cc2n1C(=O)OCC(=O)[O-] (protonated)
[NH-]C(=O)c1cc2ccc(CC[P@@](=O)([O-])O)cc2n1C(=O)OCC(=O)[O-] (chirality)
[NH-]C(=O)c1cc2ccc(CC[P@@](=O)([O-])O)cc2n1C(=O)OCC(=O)[O-] (3D coordinates assigned)
[NH-]C(=O)c1cc2ccc(CC[P@@](=O)([O-])O)cc2n1C(=O)OCC(=O)[O-] (optimized conformer: 65.96581147654601 kcal/mol)

>  <smiles>  (63) 
NC(=O)c1cc2ccc(CCP(=O)(O)O)cc2n1C(=O)OCC(=O)O

>  <score_type>  (63) 
oracle

>  <origin>  (63) 
adg

>  <m_score__min__energy>  (63) 
-12.390000000000001

>  <m_primary>  (63) 
energy

$$$$
66:0
     RDKit          3D

 47 48  0  0  0  0  0  0  0  0999 V2000
   -6.1310   17.4430  -34.8600 C   0  0  0  0  0  0  0  0  0  0  0  0
   -4.8610   18.0730  -34.3720 C   0  0  0  0  0  0  0  0  0  0  0  0
   -3.6080   17.4940  -34.6940 C   0  0  0  0  0  0  0  0  0  0  0  0
   -2.4150   18.0490  -34.2000 C   0  0  0  0  0  0  0  0  0  0  0  0
   -2.5060   19.1740  -33.3870 C   0  0  0  0  0  0  0  0  0  0  0  0
   -1.5180   19.8880  -32.7440 C   0  0  0  0  0  0  0  0  0  0  0  0
   -2.1850   20.8910  -32.0410 C   0  0  0  0  0  0  0  0  0  0  0  0
   -1.4970   21.9410  -31.2610 C   0  0  0  0  0  0  0  0  0  0  0  0
   -2.2180   23.0550  -30.7400 N   0  0  0  0  0  0  0  0  0  0  0  0
   -0.2490   21.8800  -31.0970 O   0  0  0  0  0  0  0  0  0  0  0  0
   -3.5300   20.7970  -32.2400 N   0  0  0  0  0  0  0  0  0  0  0  0
   -4.5670   21.5570  -31.6090 C   0  0  0  0  0  0  0  0  0  0  0  0
   -4.6330   21.6020  -30.3490 O   0  0  0  0  0  0  0  0  0  0  0  0
   -5.4660   22.2920  -32.3920 O   0  0  0  0  0  0  0  0  0  0  0  0
   -6.2850   23.3230  -31.8510 C   0  0  0  0  0  0  0  0  0  0  0  0
   -5.4880   24.4830  -31.6330 O   0  0  0  0  0  0  0  0  0  0  0  0
   -4.7710   24.7100  -30.4560 C   0  0  0  0  0  0  0  0  0  0  0  0
   -3.6380   25.2640  -30.4880 O   0  0  0  0  0  0  0  0  0  0  0  0
   -5.3820   24.3300  -29.1470 C   0  0  0  0  0  0  0  0  0  0  0  0
   -4.3200   24.2610  -28.0830 C   0  0  0  0  0  0  0  0  0  0  0  0
   -4.5280   24.8000  -27.0060 O   0  0  0  0  0  0  0  0  0  0  0  0
   -3.0900   23.5210  -28.3120 N   0  0  2  0  0  0  0  0  0  0  0  0
   -3.2820   22.0870  -28.0300 C   0  0  0  0  0  0  0  0  0  0  0  0
   -1.9480   24.1020  -27.5670 C   0  0  0  0  0  0  0  0  0  0  0  0
   -1.0610   24.9870  -28.4020 C   0  0  0  0  0  0  0  0  0  0  0  0
   -1.5450   25.6710  -29.3420 O   0  0  0  0  0  0  0  0  0  0  0  0
    0.3030   25.0330  -28.1550 O   0  0  0  0  0  0  0  0  0  0  0  0
   -3.7100   19.7440  -33.0660 C   0  0  0  0  0  0  0  0  0  0  0  0
   -4.9160   19.2030  -33.5280 C   0  0  0  0  0  0  0  0  0  0  0  0
   -6.7440   17.1389  -33.9987 H   0  0  0  0  0  0  0  0  0  0  0  0
   -6.6895   18.1685  -35.4697 H   0  0  0  0  0  0  0  0  0  0  0  0
   -5.8913   16.5593  -35.4697 H   0  0  0  0  0  0  0  0  0  0  0  0
   -3.5689   16.6020  -35.3365 H   0  0  0  0  0  0  0  0  0  0  0  0
   -1.4389   17.6071  -34.4488 H   0  0  0  0  0  0  0  0  0  0  0  0
   -0.4338   19.7056  -32.7780 H   0  0  0  0  0  0  0  0  0  0  0  0
   -3.2410   23.1650  -30.9170 H   0  0  0  0  0  0  0  0  0  0  0  0
   -7.0946   23.5594  -32.5571 H   0  0  0  0  0  0  0  0  0  0  0  0
   -6.7222   22.9886  -30.8986 H   0  0  0  0  0  0  0  0  0  0  0  0
   -6.1330   25.0822  -28.8637 H   0  0  0  0  0  0  0  0  0  0  0  0
   -5.8595   23.3438  -29.2445 H   0  0  0  0  0  0  0  0  0  0  0  0
   -2.8440   23.5940  -29.3270 H   0  0  0  0  0  0  0  0  0  0  0  0
   -3.3034   21.9269  -26.9419 H   0  0  0  0  0  0  0  0  0  0  0  0
   -4.2331   21.7512  -28.4688 H   0  0  0  0  0  0  0  0  0  0  0  0
   -2.4527   21.5128  -28.4688 H   0  0  0  0  0  0  0  0  0  0  0  0
   -2.3462   24.6988  -26.7332 H   0  0  0  0  0  0  0  0  0  0  0  0
   -1.3281   23.2598  -27.2257 H   0  0  0  0  0  0  0  0  0  0  0  0
   -5.8807   19.6468  -33.2408 H   0  0  0  0  0  0  0  0  0  0  0  0
  1  2  1  0
  2  3  2  0
  3  4  1  0
  4  5  2  0
  5  6  1  0
  6  7  2  0
  7  8  1  0
  8  9  1  0
  8 10  2  0
  7 11  1  0
 11 12  1  0
 12 13  2  0
 12 14  1  0
 14 15  1  0
 15 16  1  0
 16 17  1  0
 17 18  2  0
 17 19  1  0
 19 20  1  0
 20 21  2  0
 20 22  1  0
 22 23  1  0
 22 24  1  0
 24 25  1  0
 25 26  2  0
 25 27  1  0
 11 28  1  0
 28 29  2  0
 29  2  1  0
 28  5  1  0
  1 30  1  0
  1 31  1  0
  1 32  1  0
  3 33  1  0
  4 34  1  0
  6 35  1  0
  9 36  1  0
 15 37  1  0
 15 38  1  0
 19 39  1  0
 19 40  1  0
 22 41  1  6
 23 42  1  0
 23 43  1  0
 23 44  1  0
 24 45  1  0
 24 46  1  0
 29 47  1  0
M  CHG  3   9  -1  22   1  27  -1
M  END
>  <UniqueID>  (64) 
63

>  <SMILES>  (64) 
Cc1ccc2cc(C([NH-])=O)n(C(=O)OCOC(=O)CC(=O)[N@H+](C)CC(=O)[O-])c2c1

>  <Energy>  (64) 
80.84326967224517

>  <Genealogy>  (64) 
Cc1ccc2cc(C([NH-])=O)n(C(=O)OCOC(=O)CC(=O)[NH+](C)CC(=O)[O-])c2c1 (protonated)
Cc1ccc2cc(C([NH-])=O)n(C(=O)OCOC(=O)CC(=O)[N@H+](C)CC(=O)[O-])c2c1 (chirality)
Cc1ccc2cc(C([NH-])=O)n(C(=O)OCOC(=O)CC(=O)[N@H+](C)CC(=O)[O-])c2c1 (3D coordinates assigned)
Cc1ccc2cc(C([NH-])=O)n(C(=O)OCOC(=O)CC(=O)[N@H+](C)CC(=O)[O-])c2c1 (optimized conformer: 80.84326967224517 kcal/mol)

>  <smiles>  (64) 
Cc1ccc2cc(C(N)=O)n(C(=O)OCOC(=O)CC(=O)N(C)CC(=O)O)c2c1

>  <score_type>  (64) 
oracle

>  <origin>  (64) 
adg

>  <m_score__min__energy>  (64) 
-11.07

>  <m_primary>  (64) 
energy

$$$$
67:0
     RDKit          3D

 35 36  0  0  0  0  0  0  0  0999 V2000
   -5.8580   17.3360  -34.5570 C   0  0  0  0  0  0  0  0  0  0  0  0
   -6.8510   16.9940  -33.4520 C   0  0  0  0  0  0  0  0  0  0  0  0
   -6.6890   17.8740  -32.3410 O   0  0  0  0  0  0  0  0  0  0  0  0
   -7.2610   19.1500  -32.2790 C   0  0  0  0  0  0  0  0  0  0  0  0
   -8.4630   19.3030  -31.9310 O   0  0  0  0  0  0  0  0  0  0  0  0
   -6.4500   20.3380  -32.6890 C   0  0  0  0  0  0  0  0  0  0  0  0
   -5.0580   19.9530  -32.9310 N   0  0  0  0  0  0  0  0  0  0  0  0
   -3.9430   20.5580  -32.2500 C   0  0  0  0  0  0  0  0  0  0  0  0
   -2.6840   19.9080  -32.2770 C   0  0  0  0  0  0  0  0  0  0  0  0
   -1.5680   20.4690  -31.6360 C   0  0  0  0  0  0  0  0  0  0  0  0
   -1.7390   21.6770  -30.9680 C   0  0  0  0  0  0  0  0  0  0  0  0
   -0.8240   22.4480  -30.2880 C   0  0  0  0  0  0  0  0  0  0  0  0
   -1.5390   23.5530  -29.8320 C   0  0  0  0  0  0  0  0  0  0  0  0
   -0.9520   24.6000  -28.9710 C   0  0  0  0  0  0  0  0  0  0  0  0
   -1.5640   25.8820  -28.8540 N   0  0  0  0  0  0  0  0  0  0  0  0
    0.0780   24.3450  -28.2910 O   0  0  0  0  0  0  0  0  0  0  0  0
   -2.8440   23.4720  -30.2200 N   0  0  0  0  0  0  0  0  0  0  0  0
   -3.8770   24.4520  -30.0310 C   0  0  0  0  0  0  0  0  0  0  0  0
   -4.8210   24.2350  -29.2260 O   0  0  0  0  0  0  0  0  0  0  0  0
   -3.8600   25.6380  -30.7540 O   0  0  0  0  0  0  0  0  0  0  0  0
   -2.9500   22.3150  -30.9120 C   0  0  0  0  0  0  0  0  0  0  0  0
   -4.0740   21.7890  -31.5590 C   0  0  0  0  0  0  0  0  0  0  0  0
   -4.9084   17.6630  -34.1083 H   0  0  0  0  0  0  0  0  0  0  0  0
   -5.6821   16.4467  -35.1800 H   0  0  0  0  0  0  0  0  0  0  0  0
   -6.2670   18.1451  -35.1800 H   0  0  0  0  0  0  0  0  0  0  0  0
   -7.8745   17.0905  -33.8433 H   0  0  0  0  0  0  0  0  0  0  0  0
   -6.6672   15.9625  -33.1170 H   0  0  0  0  0  0  0  0  0  0  0  0
   -6.8729   20.7637  -33.6109 H   0  0  0  0  0  0  0  0  0  0  0  0
   -6.4766   21.0821  -31.8793 H   0  0  0  0  0  0  0  0  0  0  0  0
   -4.8570   19.2010  -33.6300 H   0  0  0  0  0  0  0  0  0  0  0  0
   -2.5797   18.9502  -32.8078 H   0  0  0  0  0  0  0  0  0  0  0  0
   -0.5887   19.9687  -31.6613 H   0  0  0  0  0  0  0  0  0  0  0  0
    0.2448   22.2365  -30.1367 H   0  0  0  0  0  0  0  0  0  0  0  0
   -2.5950   25.9970  -28.9710 H   0  0  0  0  0  0  0  0  0  0  0  0
   -5.0376   22.3189  -31.5320 H   0  0  0  0  0  0  0  0  0  0  0  0
  1  2  1  0
  2  3  1  0
  3  4  1  0
  4  5  2  0
  4  6  1  0
  6  7  1  0
  7  8  1  0
  8  9  2  0
  9 10  1  0
 10 11  2  0
 11 12  1  0
 12 13  2  0
 13 14  1  0
 14 15  1  0
 14 16  2  0
 13 17  1  0
 17 18  1  0
 18 19  2  0
 18 20  1  0
 17 21  1  0
 21 22  2  0
 22  8  1  0
 21 11  1  0
  1 23  1  0
  1 24  1  0
  1 25  1  0
  2 26  1  0
  2 27  1  0
  6 28  1  0
  6 29  1  0
  7 30  1  0
  9 31  1  0
 10 32  1  0
 12 33  1  0
 15 34  1  0
 22 35  1  0
M  CHG  2  15  -1  20  -1
M  END
>  <UniqueID>  (65) 
64

>  <SMILES>  (65) 
CCOC(=O)CNc1ccc2cc(C([NH-])=O)n(C(=O)[O-])c2c1

>  <Energy>  (65) 
69.76174331453966

>  <Genealogy>  (65) 
CCOC(=O)CNc1ccc2cc(C([NH-])=O)n(C(=O)[O-])c2c1 (protonated)
CCOC(=O)CNc1ccc2cc(C([NH-])=O)n(C(=O)[O-])c2c1 (3D coordinates assigned)
CCOC(=O)CNc1ccc2cc(C([NH-])=O)n(C(=O)[O-])c2c1 (optimized conformer: 69.76174331453966 kcal/mol)

>  <smiles>  (65) 
CCOC(=O)CNc1ccc2cc(C(N)=O)n(C(=O)O)c2c1

>  <score_type>  (65) 
oracle

>  <origin>  (65) 
adg

>  <m_score__min__energy>  (65) 
-10.31

>  <m_primary>  (65) 
energy

$$$$
68:0
     RDKit          3D

 44 45  0  0  0  0  0  0  0  0999 V2000
   -6.4160   17.7150  -31.2270 C   0  0  0  0  0  0  0  0  0  0  0  0
   -6.7070   17.7150  -32.7320 C   0  0  0  0  0  0  0  0  0  0  0  0
   -5.4020   17.8730  -33.5200 C   0  0  0  0  0  0  0  0  0  0  0  0
   -7.6370   18.8000  -33.0700 N   0  0  0  0  0  0  0  0  0  0  0  0
   -7.5970   20.1230  -32.4960 C   0  0  0  0  0  0  0  0  0  0  0  0
   -8.8180   20.7580  -32.1550 C   0  0  0  0  0  0  0  0  0  0  0  0
   -8.8330   22.0520  -31.6080 C   0  0  0  0  0  0  0  0  0  0  0  0
   -7.6130   22.6880  -31.4060 C   0  0  0  0  0  0  0  0  0  0  0  0
   -7.3410   23.9470  -30.9210 C   0  0  0  0  0  0  0  0  0  0  0  0
   -5.9530   24.0620  -30.9520 C   0  0  0  0  0  0  0  0  0  0  0  0
   -5.2200   25.2380  -30.4400 C   0  0  0  0  0  0  0  0  0  0  0  0
   -3.8630   25.4510  -30.8220 N   0  0  0  0  0  0  0  0  0  0  0  0
   -5.7890   26.0780  -29.6940 O   0  0  0  0  0  0  0  0  0  0  0  0
   -5.3900   22.9210  -31.4420 N   0  0  0  0  0  0  0  0  0  0  0  0
   -4.0010   22.6650  -31.6970 C   0  0  0  0  0  0  0  0  0  0  0  0
   -3.6280   22.3180  -32.8500 O   0  0  0  0  0  0  0  0  0  0  0  0
   -3.0670   22.8180  -30.6640 O   0  0  0  0  0  0  0  0  0  0  0  0
   -3.3650   22.5900  -29.2880 C   0  0  0  0  0  0  0  0  0  0  0  0
   -2.6970   23.6600  -28.4030 C   0  0  2  0  0  0  0  0  0  0  0  0
   -3.5540   24.7550  -28.2080 O   0  0  0  0  0  0  0  0  0  0  0  0
   -1.3560   24.1320  -28.9950 C   0  0  0  0  0  0  0  0  0  0  0  0
   -1.3910   25.5050  -29.2820 O   0  0  0  0  0  0  0  0  0  0  0  0
   -6.4200   22.0900  -31.7140 C   0  0  0  0  0  0  0  0  0  0  0  0
   -6.3760   20.8100  -32.2790 C   0  0  0  0  0  0  0  0  0  0  0  0
   -6.3464   16.6779  -30.8670 H   0  0  0  0  0  0  0  0  0  0  0  0
   -5.4646   18.2335  -31.0375 H   0  0  0  0  0  0  0  0  0  0  0  0
   -7.2282   18.2335  -30.6965 H   0  0  0  0  0  0  0  0  0  0  0  0
   -7.1719   16.7555  -33.0026 H   0  0  0  0  0  0  0  0  0  0  0  0
   -4.5604   17.9749  -32.8190 H   0  0  0  0  0  0  0  0  0  0  0  0
   -5.2465   16.9871  -34.1533 H   0  0  0  0  0  0  0  0  0  0  0  0
   -5.4624   18.7704  -34.1533 H   0  0  0  0  0  0  0  0  0  0  0  0
   -8.3860   18.6050  -33.7740 H   0  0  0  0  0  0  0  0  0  0  0  0
   -9.7682   20.2293  -32.3213 H   0  0  0  0  0  0  0  0  0  0  0  0
   -9.7804   22.5467  -31.3476 H   0  0  0  0  0  0  0  0  0  0  0  0
   -8.0654   24.7018  -30.5812 H   0  0  0  0  0  0  0  0  0  0  0  0
   -3.0840   24.9580  -30.3320 H   0  0  0  0  0  0  0  0  0  0  0  0
   -4.4547   22.6298  -29.1428 H   0  0  0  0  0  0  0  0  0  0  0  0
   -2.9783   21.6010  -29.0009 H   0  0  0  0  0  0  0  0  0  0  0  0
   -2.4912   23.1939  -27.4281 H   0  0  0  0  0  0  0  0  0  0  0  0
   -3.5770   25.2730  -29.0560 H   0  0  0  0  0  0  0  0  0  0  0  0
   -0.5530   23.9362  -28.2691 H   0  0  0  0  0  0  0  0  0  0  0  0
   -1.1715   23.5822  -29.9297 H   0  0  0  0  0  0  0  0  0  0  0  0
   -2.2580   25.6800  -29.7320 H   0  0  0  0  0  0  0  0  0  0  0  0
   -5.4151   20.3474  -32.5487 H   0  0  0  0  0  0  0  0  0  0  0  0
  1  2  1  0
  2  3  1  0
  2  4  1  0
  4  5  1  0
  5  6  2  0
  6  7  1  0
  7  8  2  0
  8  9  1  0
  9 10  2  0
 10 11  1  0
 11 12  1  0
 11 13  2  0
 10 14  1  0
 14 15  1  0
 15 16  2  0
 15 17  1  0
 17 18  1  0
 18 19  1  0
 19 20  1  0
 19 21  1  0
 21 22  1  0
 14 23  1  0
 23 24  2  0
 24  5  1  0
 23  8  1  0
  1 25  1  0
  1 26  1  0
  1 27  1  0
  2 28  1  0
  3 29  1  0
  3 30  1  0
  3 31  1  0
  4 32  1  0
  6 33  1  0
  7 34  1  0
  9 35  1  0
 12 36  1  0
 18 37  1  0
 18 38  1  0
 19 39  1  1
 20 40  1  0
 21 41  1  0
 21 42  1  0
 22 43  1  0
 24 44  1  0
M  CHG  1  12  -1
M  END
>  <UniqueID>  (66) 
65

>  <SMILES>  (66) 
CC(C)Nc1ccc2cc(C([NH-])=O)n(C(=O)OC[C@H](O)CO)c2c1

>  <Energy>  (66) 
75.14334876976503

>  <Genealogy>  (66) 
CC(C)Nc1ccc2cc(C([NH-])=O)n(C(=O)OCC(O)CO)c2c1 (protonated)
CC(C)Nc1ccc2cc(C([NH-])=O)n(C(=O)OC[C@H](O)CO)c2c1 (chirality)
CC(C)Nc1ccc2cc(C([NH-])=O)n(C(=O)OC[C@H](O)CO)c2c1 (3D coordinates assigned)
CC(C)Nc1ccc2cc(C([NH-])=O)n(C(=O)OC[C@H](O)CO)c2c1 (optimized conformer: 75.14334876976503 kcal/mol)

>  <smiles>  (66) 
CC(C)Nc1ccc2cc(C(N)=O)n(C(=O)OCC(O)CO)c2c1

>  <score_type>  (66) 
oracle

>  <origin>  (66) 
adg

>  <m_score__min__energy>  (66) 
-10.630000000000001

>  <m_primary>  (66) 
energy

$$$$
69:0
     RDKit          3D

 34 36  0  0  0  0  0  0  0  0999 V2000
   -4.6730   14.8710  -34.1920 C   0  0  0  0  0  0  0  0  0  0  0  0
   -4.0090   16.0000  -34.9190 C   0  0  0  0  0  0  0  0  0  0  0  0
   -3.4480   15.7740  -36.0250 O   0  0  0  0  0  0  0  0  0  0  0  0
   -4.0060   17.3290  -34.3730 N   0  0  0  0  0  0  0  0  0  0  0  0
   -2.9420   18.1480  -34.2560 C   0  0  0  0  0  0  0  0  0  0  0  0
   -3.2620   19.3340  -33.7000 N   0  0  0  0  0  0  0  0  0  0  0  0
   -4.5880   19.2500  -33.4590 C   0  0  0  0  0  0  0  0  0  0  0  0
   -5.3810   20.3420  -32.8410 C   0  0  0  0  0  0  0  0  0  0  0  0
   -6.7990   20.2840  -32.8750 C   0  0  0  0  0  0  0  0  0  0  0  0
   -7.5760   21.2940  -32.2880 C   0  0  0  0  0  0  0  0  0  0  0  0
   -6.9160   22.3570  -31.6840 C   0  0  0  0  0  0  0  0  0  0  0  0
   -7.4260   23.4450  -31.0130 C   0  0  0  0  0  0  0  0  0  0  0  0
   -6.3150   24.1760  -30.6020 C   0  0  0  0  0  0  0  0  0  0  0  0
   -6.4100   25.4660  -29.8900 C   0  0  0  0  0  0  0  0  0  0  0  0
   -5.5950   26.5780  -30.2620 N   0  0  0  0  0  0  0  0  0  0  0  0
   -7.2650   25.6050  -28.9750 O   0  0  0  0  0  0  0  0  0  0  0  0
   -5.1620   23.5590  -30.9900 N   0  0  0  0  0  0  0  0  0  0  0  0
   -3.8150   23.9400  -30.6600 C   0  0  0  0  0  0  0  0  0  0  0  0
   -2.9180   23.0640  -30.5440 O   0  0  0  0  0  0  0  0  0  0  0  0
   -3.4860   25.2770  -30.4680 O   0  0  0  0  0  0  0  0  0  0  0  0
   -5.5480   22.4470  -31.6550 C   0  0  0  0  0  0  0  0  0  0  0  0
   -4.7480   21.4410  -32.2110 C   0  0  0  0  0  0  0  0  0  0  0  0
   -5.0500   18.0130  -33.8720 C   0  0  0  0  0  0  0  0  0  0  0  0
   -4.5804   15.0285  -33.1073 H   0  0  0  0  0  0  0  0  0  0  0  0
   -5.7373   14.8331  -34.4674 H   0  0  0  0  0  0  0  0  0  0  0  0
   -4.1889   13.9224  -34.4674 H   0  0  0  0  0  0  0  0  0  0  0  0
   -1.9253   17.8788  -34.5783 H   0  0  0  0  0  0  0  0  0  0  0  0
   -7.2954   19.4354  -33.3684 H   0  0  0  0  0  0  0  0  0  0  0  0
   -8.6748   21.2457  -32.3054 H   0  0  0  0  0  0  0  0  0  0  0  0
   -8.4851   23.6855  -30.8387 H   0  0  0  0  0  0  0  0  0  0  0  0
   -5.0020   26.5490  -31.1200 H   0  0  0  0  0  0  0  0  0  0  0  0
   -5.6480   27.4700  -29.7220 H   0  0  0  0  0  0  0  0  0  0  0  0
   -3.6510   21.5032  -32.1594 H   0  0  0  0  0  0  0  0  0  0  0  0
   -6.0871   17.6529  -33.8029 H   0  0  0  0  0  0  0  0  0  0  0  0
  1  2  1  0
  2  3  2  0
  2  4  1  0
  4  5  1  0
  5  6  2  0
  6  7  1  0
  7  8  1  0
  8  9  2  0
  9 10  1  0
 10 11  2  0
 11 12  1  0
 12 13  2  0
 13 14  1  0
 14 15  1  0
 14 16  2  0
 13 17  1  0
 17 18  1  0
 18 19  2  0
 18 20  1  0
 17 21  1  0
 21 22  2  0
  7 23  2  0
 23  4  1  0
 22  8  1  0
 21 11  1  0
  1 24  1  0
  1 25  1  0
  1 26  1  0
  5 27  1  0
  9 28  1  0
 10 29  1  0
 12 30  1  0
 15 31  1  0
 15 32  1  0
 22 33  1  0
 23 34  1  0
M  CHG  1  20  -1
M  END
>  <UniqueID>  (67) 
66

>  <SMILES>  (67) 
CC(=O)n1cnc(-c2ccc3cc(C(N)=O)n(C(=O)[O-])c3c2)c1

>  <Energy>  (67) 
106.30141747550883

>  <Genealogy>  (67) 
CC(=O)n1cnc(-c2ccc3cc(C(N)=O)n(C(=O)[O-])c3c2)c1 (protonated)
CC(=O)n1cnc(-c2ccc3cc(C(N)=O)n(C(=O)[O-])c3c2)c1 (3D coordinates assigned)
CC(=O)n1cnc(-c2ccc3cc(C(N)=O)n(C(=O)[O-])c3c2)c1 (optimized conformer: 106.30141747550883 kcal/mol)

>  <smiles>  (67) 
CC(=O)n1cnc(-c2ccc3cc(C(N)=O)n(C(=O)O)c3c2)c1

>  <score_type>  (67) 
oracle

>  <origin>  (67) 
adg

>  <m_score__min__energy>  (67) 
-9.5899999999999999

>  <m_primary>  (67) 
energy

$$$$
70:0
     RDKit          3D

 26 27  0  0  0  0  0  0  0  0999 V2000
   -1.6110   25.7010  -28.9700 N   0  0  0  0  0  0  0  0  0  0  0  0
   -1.0070   24.4230  -29.1500 C   0  0  0  0  0  0  0  0  0  0  0  0
    0.1220   24.1970  -28.6380 O   0  0  0  0  0  0  0  0  0  0  0  0
   -1.6580   23.3850  -29.9750 C   0  0  0  0  0  0  0  0  0  0  0  0
   -1.0080   22.2290  -30.4010 C   0  0  0  0  0  0  0  0  0  0  0  0
   -1.9120   21.5790  -31.2100 C   0  0  0  0  0  0  0  0  0  0  0  0
   -1.7970   20.3690  -31.8880 C   0  0  0  0  0  0  0  0  0  0  0  0
   -2.9070   19.9180  -32.6230 C   0  0  0  0  0  0  0  0  0  0  0  0
   -4.1010   20.6800  -32.6670 C   0  0  0  0  0  0  0  0  0  0  0  0
   -5.2950   20.1650  -33.4200 C   0  0  0  0  0  0  0  0  0  0  0  0
   -5.1490   18.6980  -33.6710 C   0  0  0  0  0  0  0  0  0  0  0  0
   -5.2200   17.8810  -32.7150 O   0  0  0  0  0  0  0  0  0  0  0  0
   -4.9810   18.2270  -34.9670 O   0  0  0  0  0  0  0  0  0  0  0  0
   -4.1840   21.8980  -31.9570 C   0  0  0  0  0  0  0  0  0  0  0  0
   -3.0580   22.3320  -31.2480 C   0  0  0  0  0  0  0  0  0  0  0  0
   -2.9190   23.4430  -30.4890 N   0  0  0  0  0  0  0  0  0  0  0  0
   -3.9360   24.4190  -30.2120 C   0  0  0  0  0  0  0  0  0  0  0  0
   -4.8710   24.1540  -29.4110 O   0  0  0  0  0  0  0  0  0  0  0  0
   -3.8830   25.6740  -30.8050 O   0  0  0  0  0  0  0  0  0  0  0  0
   -2.6480   25.8150  -29.0130 H   0  0  0  0  0  0  0  0  0  0  0  0
    0.0114   21.9045  -30.1451 H   0  0  0  0  0  0  0  0  0  0  0  0
   -0.8664   19.7838  -31.8499 H   0  0  0  0  0  0  0  0  0  0  0  0
   -2.8483   18.9649  -33.1690 H   0  0  0  0  0  0  0  0  0  0  0  0
   -6.2042   20.3443  -32.8274 H   0  0  0  0  0  0  0  0  0  0  0  0
   -5.3676   20.6903  -34.3837 H   0  0  0  0  0  0  0  0  0  0  0  0
   -5.1106   22.4908  -31.9611 H   0  0  0  0  0  0  0  0  0  0  0  0
  1  2  1  0
  2  3  2  0
  2  4  1  0
  4  5  2  0
  5  6  1  0
  6  7  2  0
  7  8  1  0
  8  9  2  0
  9 10  1  0
 10 11  1  0
 11 12  2  0
 11 13  1  0
  9 14  1  0
 14 15  2  0
 15 16  1  0
 16 17  1  0
 17 18  2  0
 17 19  1  0
 16  4  1  0
 15  6  1  0
  1 20  1  0
  5 21  1  0
  7 22  1  0
  8 23  1  0
 10 24  1  0
 10 25  1  0
 14 26  1  0
M  CHG  3   1  -1  13  -1  19  -1
M  END
>  <UniqueID>  (68) 
67

>  <SMILES>  (68) 
[NH-]C(=O)c1cc2ccc(CC(=O)[O-])cc2n1C(=O)[O-]

>  <Energy>  (68) 
64.83837092552064

>  <Genealogy>  (68) 
[NH-]C(=O)c1cc2ccc(CC(=O)[O-])cc2n1C(=O)[O-] (protonated)
[NH-]C(=O)c1cc2ccc(CC(=O)[O-])cc2n1C(=O)[O-] (3D coordinates assigned)
[NH-]C(=O)c1cc2ccc(CC(=O)[O-])cc2n1C(=O)[O-] (optimized conformer: 64.83837092552064 kcal/mol)

>  <smiles>  (68) 
NC(=O)c1cc2ccc(CC(=O)O)cc2n1C(=O)O

>  <score_type>  (68) 
oracle

>  <origin>  (68) 
adg

>  <m_score__min__energy>  (68) 
-10.140000000000001

>  <m_primary>  (68) 
energy

$$$$
71:0
     RDKit          3D

 37 38  0  0  0  0  0  0  0  0999 V2000
   -5.4970   23.6220  -30.3780 N   0  0  0  0  0  0  0  0  0  0  0  0
   -6.7110   23.1110  -30.9330 C   0  0  0  0  0  0  0  0  0  0  0  0
   -7.7270   23.8540  -30.9710 O   0  0  0  0  0  0  0  0  0  0  0  0
   -6.7680   21.7420  -31.4920 C   0  0  0  0  0  0  0  0  0  0  0  0
   -7.9100   20.9440  -31.4680 C   0  0  0  0  0  0  0  0  0  0  0  0
   -7.5170   19.7290  -31.9820 C   0  0  0  0  0  0  0  0  0  0  0  0
   -8.2520   18.5670  -32.1910 C   0  0  0  0  0  0  0  0  0  0  0  0
   -7.5940   17.4630  -32.7590 C   0  0  0  0  0  0  0  0  0  0  0  0
   -6.2230   17.5430  -33.1080 C   0  0  0  0  0  0  0  0  0  0  0  0
   -5.5260   16.3660  -33.7310 C   0  0  0  0  0  0  0  0  0  0  0  0
   -6.4580   15.5180  -34.2990 F   0  0  0  0  0  0  0  0  0  0  0  0
   -4.8160   15.6810  -32.7630 F   0  0  0  0  0  0  0  0  0  0  0  0
   -5.5090   18.7410  -32.8830 C   0  0  0  0  0  0  0  0  0  0  0  0
   -6.1860   19.8180  -32.2990 C   0  0  0  0  0  0  0  0  0  0  0  0
   -5.7110   21.0500  -32.0050 N   0  0  0  0  0  0  0  0  0  0  0  0
   -4.3770   21.5310  -32.2410 C   0  0  0  0  0  0  0  0  0  0  0  0
   -4.1700   22.7650  -32.4030 O   0  0  0  0  0  0  0  0  0  0  0  0
   -3.3140   20.6250  -32.3040 O   0  0  0  0  0  0  0  0  0  0  0  0
   -2.0980   20.8090  -31.5850 C   0  0  0  0  0  0  0  0  0  0  0  0
   -2.2990   20.5320  -30.2190 O   0  0  0  0  0  0  0  0  0  0  0  0
   -2.5200   22.0010  -29.3770 P   0  0  1  0  0  0  0  0  0  0  0  0
   -3.8710   21.9860  -28.6960 O   0  0  0  0  0  0  0  0  0  0  0  0
   -1.3000   22.1890  -28.2160 O   0  0  0  0  0  0  0  0  0  0  0  0
   -2.4680   23.2670  -30.5140 O   0  0  0  0  0  0  0  0  0  0  0  0
   -2.9910   24.6880  -29.7360 P   0  0  0  0  0  0  0  0  0  0  0  0
   -3.8450   24.3400  -28.5390 O   0  0  0  0  0  0  0  0  0  0  0  0
   -1.6320   25.5430  -29.2050 O   0  0  0  0  0  0  0  0  0  0  0  0
   -3.8710   25.6780  -30.7920 O   0  0  0  0  0  0  0  0  0  0  0  0
   -4.6500   23.0200  -30.2810 H   0  0  0  0  0  0  0  0  0  0  0  0
   -5.4550   24.6020  -30.0220 H   0  0  0  0  0  0  0  0  0  0  0  0
   -8.9126   21.2252  -31.1136 H   0  0  0  0  0  0  0  0  0  0  0  0
   -9.3167   18.5138  -31.9197 H   0  0  0  0  0  0  0  0  0  0  0  0
   -8.1478   16.5289  -32.9342 H   0  0  0  0  0  0  0  0  0  0  0  0
   -4.8363   16.7262  -34.5086 H   0  0  0  0  0  0  0  0  0  0  0  0
   -4.4477   18.8254  -33.1598 H   0  0  0  0  0  0  0  0  0  0  0  0
   -1.3316   20.1291  -31.9855 H   0  0  0  0  0  0  0  0  0  0  0  0
   -1.7669   21.8520  -31.6968 H   0  0  0  0  0  0  0  0  0  0  0  0
  1  2  1  0
  2  3  2  0
  2  4  1  0
  4  5  2  0
  5  6  1  0
  6  7  2  0
  7  8  1  0
  8  9  2  0
  9 10  1  0
 10 11  1  0
 10 12  1  0
  9 13  1  0
 13 14  2  0
 14 15  1  0
 15 16  1  0
 16 17  2  0
 16 18  1  0
 18 19  1  0
 19 20  1  0
 20 21  1  0
 21 22  2  0
 21 23  1  1
 21 24  1  0
 24 25  1  0
 25 26  2  0
 25 27  1  0
 25 28  1  0
 15  4  1  0
 14  6  1  0
  1 29  1  0
  1 30  1  0
  5 31  1  0
  7 32  1  0
  8 33  1  0
 10 34  1  0
 13 35  1  0
 19 36  1  0
 19 37  1  0
M  CHG  3  23  -1  27  -1  28  -1
M  END
>  <UniqueID>  (69) 
68

>  <SMILES>  (69) 
NC(=O)c1cc2ccc(C(F)F)cc2n1C(=O)OCO[P@@](=O)([O-])OP(=O)([O-])[O-]

>  <Energy>  (69) 
71.82876887663332

>  <Genealogy>  (69) 
NC(=O)c1cc2ccc(C(F)F)cc2n1C(=O)OCOP(=O)([O-])OP(=O)([O-])[O-] (protonated)
NC(=O)c1cc2ccc(C(F)F)cc2n1C(=O)OCO[P@@](=O)([O-])OP(=O)([O-])[O-] (chirality)
NC(=O)c1cc2ccc(C(F)F)cc2n1C(=O)OCO[P@@](=O)([O-])OP(=O)([O-])[O-] (3D coordinates assigned)
NC(=O)c1cc2ccc(C(F)F)cc2n1C(=O)OCO[P@@](=O)([O-])OP(=O)([O-])[O-] (optimized conformer: 71.82876887663332 kcal/mol)

>  <smiles>  (69) 
NC(=O)c1cc2ccc(C(F)F)cc2n1C(=O)OCOP(=O)(O)OP(=O)(O)O

>  <score_type>  (69) 
oracle

>  <origin>  (69) 
adg

>  <m_score__min__energy>  (69) 
-12.52

>  <m_primary>  (69) 
energy

$$$$
72:0
     RDKit          3D

 51 52  0  0  0  0  0  0  0  0999 V2000
   -7.4170   18.4280  -32.7130 C   0  0  0  0  0  0  0  0  0  0  0  0
   -7.4720   19.8660  -32.2890 C   0  0  0  0  0  0  0  0  0  0  0  0
   -8.7210   20.4990  -32.0670 C   0  0  0  0  0  0  0  0  0  0  0  0
   -8.7760   21.8380  -31.6420 C   0  0  0  0  0  0  0  0  0  0  0  0
   -7.5730   22.5080  -31.4350 C   0  0  0  0  0  0  0  0  0  0  0  0
   -7.3320   23.7990  -31.0190 C   0  0  0  0  0  0  0  0  0  0  0  0
   -5.9440   23.9200  -30.9670 C   0  0  0  0  0  0  0  0  0  0  0  0
   -5.2460   25.1150  -30.4470 C   0  0  0  0  0  0  0  0  0  0  0  0
   -3.8480   25.2990  -30.6640 N   0  0  0  0  0  0  0  0  0  0  0  0
   -5.8790   25.9570  -29.7550 O   0  0  0  0  0  0  0  0  0  0  0  0
   -5.3510   22.7560  -31.3490 N   0  0  0  0  0  0  0  0  0  0  0  0
   -3.9480   22.4790  -31.4880 C   0  0  0  0  0  0  0  0  0  0  0  0
   -3.4830   22.1640  -32.6160 O   0  0  0  0  0  0  0  0  0  0  0  0
   -3.0140   22.6530  -30.3180 C   0  0  0  0  0  0  0  0  0  0  0  0
   -3.7450   22.6820  -29.0370 N   0  0  0  0  0  0  0  0  0  0  0  0
   -3.1600   23.6070  -28.0940 C   0  0  0  0  0  0  0  0  0  0  0  0
   -4.1720   24.4720  -27.1190 S   0  0  0  0  0  0  0  0  0  0  0  0
   -1.7190   23.7040  -27.9340 N   0  0  0  0  0  0  0  0  0  0  0  0
   -1.0450   25.0080  -27.9950 C   0  0  0  0  0  0  0  0  0  0  0  0
   -0.8890   22.5140  -27.6820 C   0  0  0  0  0  0  0  0  0  0  0  0
   -1.6010   21.5140  -26.7640 C   0  0  0  0  0  0  0  0  0  0  0  0
   -2.3180   20.5020  -27.5760 N   0  0  0  0  0  0  0  0  0  0  0  0
   -1.4940   20.0300  -28.6990 C   0  0  0  0  0  0  0  0  0  0  0  0
   -2.7580   19.3610  -26.7540 C   0  0  0  0  0  0  0  0  0  0  0  0
   -6.3600   21.8990  -31.6210 C   0  0  0  0  0  0  0  0  0  0  0  0
   -6.2720   20.5720  -32.0530 C   0  0  0  0  0  0  0  0  0  0  0  0
   -7.3924   17.7836  -31.8218 H   0  0  0  0  0  0  0  0  0  0  0  0
   -8.3066   18.1887  -33.3140 H   0  0  0  0  0  0  0  0  0  0  0  0
   -6.5117   18.2573  -33.3140 H   0  0  0  0  0  0  0  0  0  0  0  0
   -9.6536   19.9385  -32.2284 H   0  0  0  0  0  0  0  0  0  0  0  0
   -9.7403   22.3412  -31.4779 H   0  0  0  0  0  0  0  0  0  0  0  0
   -8.0774   24.5714  -30.7786 H   0  0  0  0  0  0  0  0  0  0  0  0
   -3.4970   26.0430  -31.3060 H   0  0  0  0  0  0  0  0  0  0  0  0
   -2.3012   21.8153  -30.3030 H   0  0  0  0  0  0  0  0  0  0  0  0
   -2.4906   23.6132  -30.4364 H   0  0  0  0  0  0  0  0  0  0  0  0
   -4.7500   22.9270  -29.2030 H   0  0  0  0  0  0  0  0  0  0  0  0
   -3.7550   21.7240  -28.6220 H   0  0  0  0  0  0  0  0  0  0  0  0
   -0.8570   25.3717  -26.9740 H   0  0  0  0  0  0  0  0  0  0  0  0
   -0.0888   24.9019  -28.5283 H   0  0  0  0  0  0  0  0  0  0  0  0
   -1.6845   25.7267  -28.5283 H   0  0  0  0  0  0  0  0  0  0  0  0
   -0.6679   22.0232  -28.6413 H   0  0  0  0  0  0  0  0  0  0  0  0
    0.0367   22.8390  -27.1847 H   0  0  0  0  0  0  0  0  0  0  0  0
   -0.8581   21.0108  -26.1277 H   0  0  0  0  0  0  0  0  0  0  0  0
   -2.3259   22.0529  -26.1363 H   0  0  0  0  0  0  0  0  0  0  0  0
   -0.6014   19.5187  -28.3093 H   0  0  0  0  0  0  0  0  0  0  0  0
   -2.0786   19.3298  -29.3138 H   0  0  0  0  0  0  0  0  0  0  0  0
   -1.1857   20.8885  -29.3138 H   0  0  0  0  0  0  0  0  0  0  0  0
   -2.6593   19.6169  -25.6887 H   0  0  0  0  0  0  0  0  0  0  0  0
   -3.8096   19.1303  -26.9798 H   0  0  0  0  0  0  0  0  0  0  0  0
   -2.1336   18.4840  -26.9798 H   0  0  0  0  0  0  0  0  0  0  0  0
   -5.2944   20.0911  -32.2049 H   0  0  0  0  0  0  0  0  0  0  0  0
  1  2  1  0
  2  3  2  0
  3  4  1  0
  4  5  2  0
  5  6  1  0
  6  7  2  0
  7  8  1  0
  8  9  1  0
  8 10  2  0
  7 11  1  0
 11 12  1  0
 12 13  2  0
 12 14  1  0
 14 15  1  0
 15 16  1  0
 16 17  2  0
 16 18  1  0
 18 19  1  0
 18 20  1  0
 20 21  1  0
 21 22  1  0
 22 23  1  0
 22 24  1  0
 11 25  1  0
 25 26  2  0
 26  2  1  0
 25  5  1  0
  1 27  1  0
  1 28  1  0
  1 29  1  0
  3 30  1  0
  4 31  1  0
  6 32  1  0
  9 33  1  0
 14 34  1  0
 14 35  1  0
 15 36  1  0
 15 37  1  0
 19 38  1  0
 19 39  1  0
 19 40  1  0
 20 41  1  0
 20 42  1  0
 21 43  1  0
 21 44  1  0
 23 45  1  0
 23 46  1  0
 23 47  1  0
 24 48  1  0
 24 49  1  0
 24 50  1  0
 26 51  1  0
M  CHG  2   9  -1  15   1
M  END
>  <UniqueID>  (70) 
69

>  <SMILES>  (70) 
Cc1ccc2cc(C([NH-])=O)n(C(=O)C[NH2+]C(=S)N(C)CCN(C)C)c2c1

>  <Energy>  (70) 
91.39856846837954

>  <Genealogy>  (70) 
Cc1ccc2cc(C([NH-])=O)n(C(=O)C[NH2+]C(=S)N(C)CCN(C)C)c2c1 (protonated)
Cc1ccc2cc(C([NH-])=O)n(C(=O)C[NH2+]C(=S)N(C)CCN(C)C)c2c1 (3D coordinates assigned)
Cc1ccc2cc(C([NH-])=O)n(C(=O)C[NH2+]C(=S)N(C)CCN(C)C)c2c1 (optimized conformer: 91.39856846837954 kcal/mol)

>  <smiles>  (70) 
Cc1ccc2cc(C(N)=O)n(C(=O)CNC(=S)N(C)CCN(C)C)c2c1

>  <score_type>  (70) 
oracle

>  <origin>  (70) 
adg

>  <m_score__min__energy>  (70) 
-9.6099999999999994

>  <m_primary>  (70) 
energy

$$$$
73:0
     RDKit          3D

 54 56  0  0  0  0  0  0  0  0999 V2000
    0.9640   23.5860  -27.4990 C   0  0  0  0  0  0  0  0  0  0  0  0
    0.4550   24.5210  -28.4420 O   0  0  0  0  0  0  0  0  0  0  0  0
   -0.8420   24.4410  -28.9590 C   0  0  0  0  0  0  0  0  0  0  0  0
   -1.4640   25.4850  -29.2970 O   0  0  0  0  0  0  0  0  0  0  0  0
   -1.4730   23.1050  -29.1680 C   0  0  0  0  0  0  0  0  0  0  0  0
   -2.7860   23.2760  -29.6900 O   0  0  0  0  0  0  0  0  0  0  0  0
   -3.2510   22.5900  -30.8140 C   0  0  0  0  0  0  0  0  0  0  0  0
   -2.4580   21.9020  -31.5140 O   0  0  0  0  0  0  0  0  0  0  0  0
   -4.6460   22.6410  -31.1510 N   0  0  0  0  0  0  0  0  0  0  0  0
   -5.4790   23.7210  -31.1230 C   0  0  0  0  0  0  0  0  0  0  0  0
   -5.1560   25.0540  -30.5750 C   0  0  0  0  0  0  0  0  0  0  0  0
   -3.9030   25.6760  -30.8470 N   0  0  0  0  0  0  0  0  0  0  0  0
   -5.9780   25.6320  -29.8160 O   0  0  0  0  0  0  0  0  0  0  0  0
   -6.7370   23.3790  -31.6160 C   0  0  0  0  0  0  0  0  0  0  0  0
   -6.6530   22.0440  -31.9380 C   0  0  0  0  0  0  0  0  0  0  0  0
   -7.6080   21.1940  -32.4870 C   0  0  0  0  0  0  0  0  0  0  0  0
   -7.2360   19.8660  -32.7500 C   0  0  0  0  0  0  0  0  0  0  0  0
   -5.9220   19.4100  -32.4580 C   0  0  0  0  0  0  0  0  0  0  0  0
   -5.5130   18.0640  -32.7580 N   0  0  0  0  0  0  0  0  0  0  0  0
   -4.2390   17.7220  -33.3250 C   0  0  0  0  0  0  0  0  0  0  0  0
   -3.4490   18.7200  -33.9190 C   0  0  0  0  0  0  0  0  0  0  0  0
   -2.2240   18.3960  -34.5060 C   0  0  0  0  0  0  0  0  0  0  0  0
   -1.7800   17.0730  -34.5120 C   0  0  0  0  0  0  0  0  0  0  0  0
   -2.5610   16.0710  -33.9320 C   0  0  0  0  0  0  0  0  0  0  0  0
   -3.7920   16.3830  -33.3350 C   0  0  0  0  0  0  0  0  0  0  0  0
   -4.7410   15.1020  -32.5700 S   0  0  0  0  0  0  0  0  0  0  0  0
   -5.3890   15.6600  -31.3330 O   0  0  0  0  0  0  0  0  0  0  0  0
   -5.8170   14.6250  -33.5090 O   0  0  0  0  0  0  0  0  0  0  0  0
   -3.7000   13.7650  -32.1460 N   0  0  0  0  0  0  0  0  0  0  0  0
   -3.6340   12.8180  -33.2670 C   0  0  0  0  0  0  0  0  0  0  0  0
   -4.2260   13.0950  -30.9510 C   0  0  0  0  0  0  0  0  0  0  0  0
   -4.9790   20.3090  -31.9170 C   0  0  0  0  0  0  0  0  0  0  0  0
   -5.3820   21.6220  -31.6490 C   0  0  0  0  0  0  0  0  0  0  0  0
    0.7664   23.9489  -26.4796 H   0  0  0  0  0  0  0  0  0  0  0  0
    0.4708   22.6135  -27.6440 H   0  0  0  0  0  0  0  0  0  0  0  0
    2.0485   23.4724  -27.6440 H   0  0  0  0  0  0  0  0  0  0  0  0
   -0.8692   22.5216  -29.8786 H   0  0  0  0  0  0  0  0  0  0  0  0
   -1.5272   22.5712  -28.2077 H   0  0  0  0  0  0  0  0  0  0  0  0
   -3.0160   25.2890  -30.4550 H   0  0  0  0  0  0  0  0  0  0  0  0
   -7.6117   24.0370  -31.7246 H   0  0  0  0  0  0  0  0  0  0  0  0
   -8.6243   21.5519  -32.7084 H   0  0  0  0  0  0  0  0  0  0  0  0
   -7.9689   19.1715  -33.1864 H   0  0  0  0  0  0  0  0  0  0  0  0
   -6.1730   17.2860  -32.5330 H   0  0  0  0  0  0  0  0  0  0  0  0
   -3.7974   19.7634  -33.9218 H   0  0  0  0  0  0  0  0  0  0  0  0
   -1.6085   19.1843  -34.9640 H   0  0  0  0  0  0  0  0  0  0  0  0
   -0.8144   16.8193  -34.9738 H   0  0  0  0  0  0  0  0  0  0  0  0
   -2.2084   15.0291  -33.9432 H   0  0  0  0  0  0  0  0  0  0  0  0
   -3.5625   11.7921  -32.8766 H   0  0  0  0  0  0  0  0  0  0  0  0
   -4.5410   12.9139  -33.8819 H   0  0  0  0  0  0  0  0  0  0  0  0
   -2.7491   13.0388  -33.8819 H   0  0  0  0  0  0  0  0  0  0  0  0
   -3.8359   13.5919  -30.0505 H   0  0  0  0  0  0  0  0  0  0  0  0
   -5.3246   13.1501  -30.9534 H   0  0  0  0  0  0  0  0  0  0  0  0
   -3.9117   12.0409  -30.9534 H   0  0  0  0  0  0  0  0  0  0  0  0
   -3.9485   19.9847  -31.7102 H   0  0  0  0  0  0  0  0  0  0  0  0
  1  2  1  0
  2  3  1  0
  3  4  2  0
  3  5  1  0
  5  6  1  0
  6  7  1  0
  7  8  2  0
  7  9  1  0
  9 10  1  0
 10 11  1  0
 11 12  1  0
 11 13  2  0
 10 14  2  0
 14 15  1  0
 15 16  2  0
 16 17  1  0
 17 18  2  0
 18 19  1  0
 19 20  1  0
 20 21  2  0
 21 22  1  0
 22 23  2  0
 23 24  1  0
 24 25  2  0
 25 26  1  0
 26 27  2  0
 26 28  2  0
 26 29  1  0
 29 30  1  0
 29 31  1  0
 18 32  1  0
 32 33  2  0
 33  9  1  0
 33 15  1  0
 25 20  1  0
  1 34  1  0
  1 35  1  0
  1 36  1  0
  5 37  1  0
  5 38  1  0
 12 39  1  0
 14 40  1  0
 16 41  1  0
 17 42  1  0
 19 43  1  0
 21 44  1  0
 22 45  1  0
 23 46  1  0
 24 47  1  0
 30 48  1  0
 30 49  1  0
 30 50  1  0
 31 51  1  0
 31 52  1  0
 31 53  1  0
 32 54  1  0
M  CHG  1  12  -1
M  END
>  <UniqueID>  (71) 
70

>  <SMILES>  (71) 
COC(=O)COC(=O)n1c(C([NH-])=O)cc2ccc(Nc3ccccc3S(=O)(=O)N(C)C)cc21

>  <Energy>  (71) 
92.85776703097532

>  <Genealogy>  (71) 
COC(=O)COC(=O)n1c(C([NH-])=O)cc2ccc(Nc3ccccc3S(=O)(=O)N(C)C)cc21 (protonated)
COC(=O)COC(=O)n1c(C([NH-])=O)cc2ccc(Nc3ccccc3S(=O)(=O)N(C)C)cc21 (3D coordinates assigned)
COC(=O)COC(=O)n1c(C([NH-])=O)cc2ccc(Nc3ccccc3S(=O)(=O)N(C)C)cc21 (optimized conformer: 92.85776703097532 kcal/mol)

>  <smiles>  (71) 
COC(=O)COC(=O)n1c(C(N)=O)cc2ccc(Nc3ccccc3S(=O)(=O)N(C)C)cc21

>  <score_type>  (71) 
oracle

>  <origin>  (71) 
adg

>  <m_score__min__energy>  (71) 
-11.83

>  <m_primary>  (71) 
energy

$$$$
74:0
     RDKit          3D

 37 38  0  0  0  0  0  0  0  0999 V2000
   -6.3020   17.1790  -31.9980 C   0  0  0  0  0  0  0  0  0  0  0  0
   -6.1570   18.2730  -32.9670 N   0  0  0  0  0  0  0  0  0  0  0  0
   -5.7150   17.9570  -34.3310 C   0  0  0  0  0  0  0  0  0  0  0  0
   -6.4440   19.6430  -32.5820 C   0  0  0  0  0  0  0  0  0  0  0  0
   -7.7700   20.1560  -32.6590 C   0  0  0  0  0  0  0  0  0  0  0  0
   -8.0570   21.4830  -32.3000 C   0  0  0  0  0  0  0  0  0  0  0  0
   -7.0090   22.2820  -31.8590 C   0  0  0  0  0  0  0  0  0  0  0  0
   -7.0050   23.6030  -31.4760 C   0  0  0  0  0  0  0  0  0  0  0  0
   -5.6830   23.8870  -31.1430 C   0  0  0  0  0  0  0  0  0  0  0  0
   -5.2390   25.1870  -30.5980 C   0  0  0  0  0  0  0  0  0  0  0  0
   -3.9050   25.6340  -30.8300 N   0  0  0  0  0  0  0  0  0  0  0  0
   -6.0340   25.9240  -29.9590 O   0  0  0  0  0  0  0  0  0  0  0  0
   -4.9000   22.7850  -31.3190 N   0  0  0  0  0  0  0  0  0  0  0  0
   -3.4750   22.6860  -31.1600 C   0  0  0  0  0  0  0  0  0  0  0  0
   -2.7560   22.3540  -32.1410 O   0  0  0  0  0  0  0  0  0  0  0  0
   -2.8940   22.9730  -29.9200 O   0  0  0  0  0  0  0  0  0  0  0  0
   -1.5250   23.3370  -29.7590 C   0  0  0  0  0  0  0  0  0  0  0  0
   -1.3790   24.4250  -28.7000 C   0  0  0  0  0  0  0  0  0  0  0  0
   -1.3450   25.6800  -29.3200 O   0  0  0  0  0  0  0  0  0  0  0  0
   -5.7280   21.8100  -31.7570 C   0  0  0  0  0  0  0  0  0  0  0  0
   -5.4080   20.4990  -32.1240 C   0  0  0  0  0  0  0  0  0  0  0  0
   -6.2483   17.5842  -30.9768 H   0  0  0  0  0  0  0  0  0  0  0  0
   -7.2735   16.6847  -32.1457 H   0  0  0  0  0  0  0  0  0  0  0  0
   -5.4928   16.4487  -32.1457 H   0  0  0  0  0  0  0  0  0  0  0  0
   -4.8209   17.3177  -34.2878 H   0  0  0  0  0  0  0  0  0  0  0  0
   -6.5188   17.4276  -34.8635 H   0  0  0  0  0  0  0  0  0  0  0  0
   -5.4742   18.8889  -34.8635 H   0  0  0  0  0  0  0  0  0  0  0  0
   -8.5835   19.5017  -33.0056 H   0  0  0  0  0  0  0  0  0  0  0  0
   -9.0814   21.8784  -32.3659 H   0  0  0  0  0  0  0  0  0  0  0  0
   -7.8638   24.2895  -31.4403 H   0  0  0  0  0  0  0  0  0  0  0  0
   -3.0870   25.0910  -30.4750 H   0  0  0  0  0  0  0  0  0  0  0  0
   -0.9497   22.4520  -29.4495 H   0  0  0  0  0  0  0  0  0  0  0  0
   -1.1457   23.7219  -30.7171 H   0  0  0  0  0  0  0  0  0  0  0  0
   -2.2337   24.3807  -28.0089 H   0  0  0  0  0  0  0  0  0  0  0  0
   -0.4453   24.2679  -28.1400 H   0  0  0  0  0  0  0  0  0  0  0  0
   -2.0710   25.6720  -29.9960 H   0  0  0  0  0  0  0  0  0  0  0  0
   -4.3713   20.1372  -32.0589 H   0  0  0  0  0  0  0  0  0  0  0  0
  1  2  1  0
  2  3  1  0
  2  4  1  0
  4  5  2  0
  5  6  1  0
  6  7  2  0
  7  8  1  0
  8  9  2  0
  9 10  1  0
 10 11  1  0
 10 12  2  0
  9 13  1  0
 13 14  1  0
 14 15  2  0
 14 16  1  0
 16 17  1  0
 17 18  1  0
 18 19  1  0
 13 20  1  0
 20 21  2  0
 21  4  1  0
 20  7  1  0
  1 22  1  0
  1 23  1  0
  1 24  1  0
  3 25  1  0
  3 26  1  0
  3 27  1  0
  5 28  1  0
  6 29  1  0
  8 30  1  0
 11 31  1  0
 17 32  1  0
 17 33  1  0
 18 34  1  0
 18 35  1  0
 19 36  1  0
 21 37  1  0
M  CHG  1  11  -1
M  END
>  <UniqueID>  (72) 
71

>  <SMILES>  (72) 
CN(C)c1ccc2cc(C([NH-])=O)n(C(=O)OCCO)c2c1

>  <Energy>  (72) 
73.077993010445

>  <Genealogy>  (72) 
CN(C)c1ccc2cc(C([NH-])=O)n(C(=O)OCCO)c2c1 (protonated)
CN(C)c1ccc2cc(C([NH-])=O)n(C(=O)OCCO)c2c1 (3D coordinates assigned)
CN(C)c1ccc2cc(C([NH-])=O)n(C(=O)OCCO)c2c1 (optimized conformer: 73.077993010445 kcal/mol)

>  <smiles>  (72) 
CN(C)c1ccc2cc(C(N)=O)n(C(=O)OCCO)c2c1

>  <score_type>  (72) 
oracle

>  <origin>  (72) 
adg

>  <m_score__min__energy>  (72) 
-10.039999999999999

>  <m_primary>  (72) 
energy

$$$$
75:0
     RDKit          3D

 37 38  0  0  0  0  0  0  0  0999 V2000
   -4.2030   22.7580  -28.1800 C   0  0  0  0  0  0  0  0  0  0  0  0
   -3.5020   22.9200  -29.3050 C   0  0  0  0  0  0  0  0  0  0  0  0
   -4.0910   22.5630  -30.6190 C   0  0  0  0  0  0  0  0  0  0  0  0
   -3.3700   22.0400  -31.5130 O   0  0  0  0  0  0  0  0  0  0  0  0
   -5.4790   22.7970  -30.8930 N   0  0  0  0  0  0  0  0  0  0  0  0
   -6.1450   23.9860  -30.8740 C   0  0  0  0  0  0  0  0  0  0  0  0
   -5.5830   25.2830  -30.4420 C   0  0  0  0  0  0  0  0  0  0  0  0
   -4.2590   25.6690  -30.8030 N   0  0  0  0  0  0  0  0  0  0  0  0
   -6.2750   26.0530  -29.7230 O   0  0  0  0  0  0  0  0  0  0  0  0
   -7.4670   23.8070  -31.2760 C   0  0  0  0  0  0  0  0  0  0  0  0
   -7.5870   22.4630  -31.5520 C   0  0  0  0  0  0  0  0  0  0  0  0
   -8.6810   21.7340  -32.0120 C   0  0  0  0  0  0  0  0  0  0  0  0
   -8.5050   20.3580  -32.2390 C   0  0  0  0  0  0  0  0  0  0  0  0
   -7.2510   19.7410  -32.0030 C   0  0  0  0  0  0  0  0  0  0  0  0
   -7.0640   18.2750  -32.2870 C   0  0  0  0  0  0  0  0  0  0  0  0
   -5.7220   18.0310  -32.9820 C   0  0  0  0  0  0  0  0  0  0  0  0
   -5.9370   17.5280  -34.3740 C   0  0  0  0  0  0  0  0  0  0  0  0
   -5.3270   18.0580  -35.3410 O   0  0  0  0  0  0  0  0  0  0  0  0
   -6.7720   16.4420  -34.6010 O   0  0  0  0  0  0  0  0  0  0  0  0
   -6.1610   20.5170  -31.5520 C   0  0  0  0  0  0  0  0  0  0  0  0
   -6.3710   21.8780  -31.3180 C   0  0  0  0  0  0  0  0  0  0  0  0
   -1.8470   23.6250  -29.2080 P   0  0  2  0  0  0  0  0  0  0  0  0
   -1.2160   23.2650  -27.8820 O   0  0  0  0  0  0  0  0  0  0  0  0
   -1.9440   25.3090  -29.3350 O   0  0  0  0  0  0  0  0  0  0  0  0
   -0.8790   23.0200  -30.4570 O   0  0  0  0  0  0  0  0  0  0  0  0
   -3.7571   23.0258  -27.2107 H   0  0  0  0  0  0  0  0  0  0  0  0
   -5.2263   22.3568  -28.2226 H   0  0  0  0  0  0  0  0  0  0  0  0
   -3.4950   25.6950  -30.0930 H   0  0  0  0  0  0  0  0  0  0  0  0
   -8.2492   24.5762  -31.3560 H   0  0  0  0  0  0  0  0  0  0  0  0
   -9.6516   22.2194  -32.1919 H   0  0  0  0  0  0  0  0  0  0  0  0
   -9.3490   19.7540  -32.6035 H   0  0  0  0  0  0  0  0  0  0  0  0
   -7.0879   17.7167  -31.3395 H   0  0  0  0  0  0  0  0  0  0  0  0
   -7.8744   17.9343  -32.9481 H   0  0  0  0  0  0  0  0  0  0  0  0
   -5.1577   18.9744  -33.0211 H   0  0  0  0  0  0  0  0  0  0  0  0
   -5.1591   17.2758  -32.4138 H   0  0  0  0  0  0  0  0  0  0  0  0
   -5.1729   20.0619  -31.3893 H   0  0  0  0  0  0  0  0  0  0  0  0
   -1.4960   22.4850  -31.0190 H   0  0  0  0  0  0  0  0  0  0  0  0
  1  2  2  0
  2  3  1  0
  3  4  2  0
  3  5  1  0
  5  6  1  0
  6  7  1  0
  7  8  1  0
  7  9  2  0
  6 10  2  0
 10 11  1  0
 11 12  2  0
 12 13  1  0
 13 14  2  0
 14 15  1  0
 15 16  1  0
 16 17  1  0
 17 18  2  0
 17 19  1  0
 14 20  1  0
 20 21  2  0
  2 22  1  0
 22 23  2  0
 22 24  1  6
 22 25  1  0
 21  5  1  0
 21 11  1  0
  1 26  1  0
  1 27  1  0
  8 28  1  0
 10 29  1  0
 12 30  1  0
 13 31  1  0
 15 32  1  0
 15 33  1  0
 16 34  1  0
 16 35  1  0
 20 36  1  0
 25 37  1  0
M  CHG  3   8  -1  19  -1  24  -1
M  END
>  <UniqueID>  (73) 
72

>  <SMILES>  (73) 
C=C(C(=O)n1c(C([NH-])=O)cc2ccc(CCC(=O)[O-])cc21)[P@](=O)([O-])O

>  <Energy>  (73) 
68.9012175399408

>  <Genealogy>  (73) 
C=C(C(=O)n1c(C([NH-])=O)cc2ccc(CCC(=O)[O-])cc21)P(=O)([O-])O (protonated)
C=C(C(=O)n1c(C([NH-])=O)cc2ccc(CCC(=O)[O-])cc21)[P@](=O)([O-])O (chirality)
C=C(C(=O)n1c(C([NH-])=O)cc2ccc(CCC(=O)[O-])cc21)[P@](=O)([O-])O (3D coordinates assigned)
C=C(C(=O)n1c(C([NH-])=O)cc2ccc(CCC(=O)[O-])cc21)[P@](=O)([O-])O (optimized conformer: 68.9012175399408 kcal/mol)

>  <smiles>  (73) 
C=C(C(=O)n1c(C(N)=O)cc2ccc(CCC(=O)O)cc21)P(=O)(O)O

>  <score_type>  (73) 
oracle

>  <origin>  (73) 
adg

>  <m_score__min__energy>  (73) 
-12.57

>  <m_primary>  (73) 
energy

$$$$
76:0
     RDKit          3D

 43 44  0  0  0  0  0  0  0  0999 V2000
   -3.6710   24.8370  -30.0420 N   0  0  0  0  0  0  0  0  0  0  0  0
   -4.9770   25.0090  -30.5930 C   0  0  0  0  0  0  0  0  0  0  0  0
   -5.3900   26.1720  -30.8510 O   0  0  0  0  0  0  0  0  0  0  0  0
   -5.8270   23.8470  -30.9220 C   0  0  0  0  0  0  0  0  0  0  0  0
   -7.2150   23.9120  -31.0070 C   0  0  0  0  0  0  0  0  0  0  0  0
   -7.6150   22.6510  -31.3840 C   0  0  0  0  0  0  0  0  0  0  0  0
   -8.8940   22.1440  -31.5900 C   0  0  0  0  0  0  0  0  0  0  0  0
   -9.0190   20.7860  -31.9250 C   0  0  0  0  0  0  0  0  0  0  0  0
   -7.8710   19.9650  -32.0450 C   0  0  0  0  0  0  0  0  0  0  0  0
   -8.0220   18.5000  -32.3590 C   0  0  0  0  0  0  0  0  0  0  0  0
   -6.6900   17.7740  -32.1980 C   0  0  0  0  0  0  0  0  0  0  0  0
   -6.4830   17.4700  -30.8650 F   0  0  0  0  0  0  0  0  0  0  0  0
   -6.5880   20.5090  -31.8140 C   0  0  0  0  0  0  0  0  0  0  0  0
   -6.4920   21.8710  -31.5030 C   0  0  0  0  0  0  0  0  0  0  0  0
   -5.3830   22.5940  -31.2210 N   0  0  0  0  0  0  0  0  0  0  0  0
   -4.0350   22.1050  -31.1210 C   0  0  0  0  0  0  0  0  0  0  0  0
   -3.0940   22.7210  -31.6920 O   0  0  0  0  0  0  0  0  0  0  0  0
   -3.7740   20.9440  -30.3870 O   0  0  0  0  0  0  0  0  0  0  0  0
   -3.0930   20.9590  -29.1360 C   0  0  0  0  0  0  0  0  0  0  0  0
   -2.4290   22.2070  -28.9680 O   0  0  0  0  0  0  0  0  0  0  0  0
   -2.7270   23.0890  -27.9250 C   0  0  0  0  0  0  0  0  0  0  0  0
   -3.8740   23.6050  -27.8250 O   0  0  0  0  0  0  0  0  0  0  0  0
   -1.6820   23.3990  -26.8980 C   0  0  0  0  0  0  0  0  0  0  0  0
   -0.7430   24.5160  -27.3660 C   0  0  0  0  0  0  0  0  0  0  0  0
   -1.1580   25.0610  -28.7000 C   0  0  0  0  0  0  0  0  0  0  0  0
   -1.1210   24.3270  -29.7230 O   0  0  0  0  0  0  0  0  0  0  0  0
   -1.5480   26.3880  -28.8220 O   0  0  0  0  0  0  0  0  0  0  0  0
   -3.2410   23.8890  -29.9630 H   0  0  0  0  0  0  0  0  0  0  0  0
   -3.0960   25.6690  -29.7870 H   0  0  0  0  0  0  0  0  0  0  0  0
   -7.8553   24.7854  -30.8139 H   0  0  0  0  0  0  0  0  0  0  0  0
   -9.7808   22.7876  -31.4934 H   0  0  0  0  0  0  0  0  0  0  0  0
  -10.0170   20.3561  -32.0957 H   0  0  0  0  0  0  0  0  0  0  0  0
   -8.7595   18.0578  -31.6730 H   0  0  0  0  0  0  0  0  0  0  0  0
   -8.3586   18.3945  -33.4009 H   0  0  0  0  0  0  0  0  0  0  0  0
   -6.7065   16.8449  -32.7866 H   0  0  0  0  0  0  0  0  0  0  0  0
   -5.8762   18.4227  -32.5543 H   0  0  0  0  0  0  0  0  0  0  0  0
   -5.6882   19.8794  -31.8767 H   0  0  0  0  0  0  0  0  0  0  0  0
   -3.8195   20.8185  -28.3221 H   0  0  0  0  0  0  0  0  0  0  0  0
   -2.3527   20.1457  -29.1136 H   0  0  0  0  0  0  0  0  0  0  0  0
   -2.1780   23.7159  -25.9687 H   0  0  0  0  0  0  0  0  0  0  0  0
   -1.0818   22.4919  -26.7341 H   0  0  0  0  0  0  0  0  0  0  0  0
   -0.7598   25.3302  -26.6265 H   0  0  0  0  0  0  0  0  0  0  0  0
    0.2692   24.0968  -27.4646 H   0  0  0  0  0  0  0  0  0  0  0  0
  1  2  1  0
  2  3  2  0
  2  4  1  0
  4  5  2  0
  5  6  1  0
  6  7  2  0
  7  8  1  0
  8  9  2  0
  9 10  1  0
 10 11  1  0
 11 12  1  0
  9 13  1  0
 13 14  2  0
 14 15  1  0
 15 16  1  0
 16 17  2  0
 16 18  1  0
 18 19  1  0
 19 20  1  0
 20 21  1  0
 21 22  2  0
 21 23  1  0
 23 24  1  0
 24 25  1  0
 25 26  2  0
 25 27  1  0
 15  4  1  0
 14  6  1  0
  1 28  1  0
  1 29  1  0
  5 30  1  0
  7 31  1  0
  8 32  1  0
 10 33  1  0
 10 34  1  0
 11 35  1  0
 11 36  1  0
 13 37  1  0
 19 38  1  0
 19 39  1  0
 23 40  1  0
 23 41  1  0
 24 42  1  0
 24 43  1  0
M  CHG  1  27  -1
M  END
>  <UniqueID>  (74) 
73

>  <SMILES>  (74) 
NC(=O)c1cc2ccc(CCF)cc2n1C(=O)OCOC(=O)CCC(=O)[O-]

>  <Energy>  (74) 
71.31652925728723

>  <Genealogy>  (74) 
NC(=O)c1cc2ccc(CCF)cc2n1C(=O)OCOC(=O)CCC(=O)[O-] (protonated)
NC(=O)c1cc2ccc(CCF)cc2n1C(=O)OCOC(=O)CCC(=O)[O-] (3D coordinates assigned)
NC(=O)c1cc2ccc(CCF)cc2n1C(=O)OCOC(=O)CCC(=O)[O-] (optimized conformer: 71.31652925728723 kcal/mol)

>  <smiles>  (74) 
NC(=O)c1cc2ccc(CCF)cc2n1C(=O)OCOC(=O)CCC(=O)O

>  <score_type>  (74) 
oracle

>  <origin>  (74) 
adg

>  <m_score__min__energy>  (74) 
-9.8599999999999994

>  <m_primary>  (74) 
energy

$$$$
77:0
     RDKit          3D

 42 43  0  0  0  0  0  0  0  0999 V2000
   -6.8480   18.3910  -32.6890 C   0  0  0  0  0  0  0  0  0  0  0  0
   -7.0460   19.8130  -32.2520 C   0  0  0  0  0  0  0  0  0  0  0  0
   -8.3370   20.3970  -32.2890 C   0  0  0  0  0  0  0  0  0  0  0  0
   -8.5270   21.7390  -31.9160 C   0  0  0  0  0  0  0  0  0  0  0  0
   -7.4100   22.4690  -31.5200 C   0  0  0  0  0  0  0  0  0  0  0  0
   -7.3000   23.7870  -31.1370 C   0  0  0  0  0  0  0  0  0  0  0  0
   -5.9410   23.9890  -30.8910 C   0  0  0  0  0  0  0  0  0  0  0  0
   -5.3720   25.2920  -30.4820 C   0  0  0  0  0  0  0  0  0  0  0  0
   -4.0430   25.6650  -30.8390 N   0  0  0  0  0  0  0  0  0  0  0  0
   -6.0790   26.0970  -29.8160 O   0  0  0  0  0  0  0  0  0  0  0  0
   -5.2480   22.8320  -31.0820 N   0  0  0  0  0  0  0  0  0  0  0  0
   -3.8320   22.6160  -30.9600 C   0  0  0  0  0  0  0  0  0  0  0  0
   -3.1070   22.7440  -31.9840 O   0  0  0  0  0  0  0  0  0  0  0  0
   -3.2360   22.2180  -29.7040 N   0  0  0  0  0  0  0  0  0  0  0  0
   -3.9080   22.5900  -28.4570 C   0  0  0  0  0  0  0  0  0  0  0  0
   -1.9840   21.4490  -29.6330 C   0  0  0  0  0  0  0  0  0  0  0  0
   -0.7610   22.3700  -29.5990 C   0  0  0  0  0  0  0  0  0  0  0  0
   -0.8060   23.2810  -28.4460 N   0  0  0  0  0  0  0  0  0  0  0  0
   -1.0960   22.7250  -27.1210 C   0  0  0  0  0  0  0  0  0  0  0  0
   -0.8490   24.7080  -28.6490 C   0  0  0  0  0  0  0  0  0  0  0  0
    0.0730   25.4470  -28.2070 O   0  0  0  0  0  0  0  0  0  0  0  0
   -1.9020   25.2940  -29.3450 O   0  0  0  0  0  0  0  0  0  0  0  0
   -6.1560   21.9190  -31.4880 C   0  0  0  0  0  0  0  0  0  0  0  0
   -5.9340   20.5910  -31.8640 C   0  0  0  0  0  0  0  0  0  0  0  0
   -6.7580   17.7445  -31.8036 H   0  0  0  0  0  0  0  0  0  0  0  0
   -7.7100   18.0693  -33.2918 H   0  0  0  0  0  0  0  0  0  0  0  0
   -5.9309   18.3170  -33.2918 H   0  0  0  0  0  0  0  0  0  0  0  0
   -9.1984   19.7944  -32.6127 H   0  0  0  0  0  0  0  0  0  0  0  0
   -9.5266   22.1976  -31.9364 H   0  0  0  0  0  0  0  0  0  0  0  0
   -8.1111   24.5243  -31.0445 H   0  0  0  0  0  0  0  0  0  0  0  0
   -3.2890   24.9470  -30.9220 H   0  0  0  0  0  0  0  0  0  0  0  0
   -3.3037   22.2555  -27.6009 H   0  0  0  0  0  0  0  0  0  0  0  0
   -4.0275   23.6827  -28.4168 H   0  0  0  0  0  0  0  0  0  0  0  0
   -4.8975   22.1112  -28.4168 H   0  0  0  0  0  0  0  0  0  0  0  0
   -1.9936   20.8337  -28.7212 H   0  0  0  0  0  0  0  0  0  0  0  0
   -1.9155   20.8173  -30.5309 H   0  0  0  0  0  0  0  0  0  0  0  0
    0.1484   21.7547  -29.5334 H   0  0  0  0  0  0  0  0  0  0  0  0
   -0.7582   22.9750  -30.5177 H   0  0  0  0  0  0  0  0  0  0  0  0
   -0.7350   23.4171  -26.3459 H   0  0  0  0  0  0  0  0  0  0  0  0
   -2.1816   22.5857  -27.0114 H   0  0  0  0  0  0  0  0  0  0  0  0
   -0.5890   21.7550  -27.0114 H   0  0  0  0  0  0  0  0  0  0  0  0
   -4.9203   20.1640  -31.8577 H   0  0  0  0  0  0  0  0  0  0  0  0
  1  2  1  0
  2  3  2  0
  3  4  1  0
  4  5  2  0
  5  6  1  0
  6  7  2  0
  7  8  1  0
  8  9  1  0
  8 10  2  0
  7 11  1  0
 11 12  1  0
 12 13  2  0
 12 14  1  0
 14 15  1  0
 14 16  1  0
 16 17  1  0
 17 18  1  0
 18 19  1  0
 18 20  1  0
 20 21  2  0
 20 22  1  0
 11 23  1  0
 23 24  2  0
 24  2  1  0
 23  5  1  0
  1 25  1  0
  1 26  1  0
  1 27  1  0
  3 28  1  0
  4 29  1  0
  6 30  1  0
  9 31  1  0
 15 32  1  0
 15 33  1  0
 15 34  1  0
 16 35  1  0
 16 36  1  0
 17 37  1  0
 17 38  1  0
 19 39  1  0
 19 40  1  0
 19 41  1  0
 24 42  1  0
M  CHG  2   9  -1  22  -1
M  END
>  <UniqueID>  (75) 
74

>  <SMILES>  (75) 
Cc1ccc2cc(C([NH-])=O)n(C(=O)N(C)CCN(C)C(=O)[O-])c2c1

>  <Energy>  (75) 
73.84201854165194

>  <Genealogy>  (75) 
Cc1ccc2cc(C([NH-])=O)n(C(=O)N(C)CCN(C)C(=O)[O-])c2c1 (protonated)
Cc1ccc2cc(C([NH-])=O)n(C(=O)N(C)CCN(C)C(=O)[O-])c2c1 (3D coordinates assigned)
Cc1ccc2cc(C([NH-])=O)n(C(=O)N(C)CCN(C)C(=O)[O-])c2c1 (optimized conformer: 73.84201854165194 kcal/mol)

>  <smiles>  (75) 
Cc1ccc2cc(C(N)=O)n(C(=O)N(C)CCN(C)C(=O)O)c2c1

>  <score_type>  (75) 
oracle

>  <origin>  (75) 
adg

>  <m_score__min__energy>  (75) 
-12.48

>  <m_primary>  (75) 
energy

$$$$
78:0
     RDKit          3D

 38 40  0  0  0  0  0  0  0  0999 V2000
    0.6160   21.9700  -27.8280 C   0  0  0  0  0  0  0  0  0  0  0  0
   -0.2810   23.0100  -28.4140 C   0  0  0  0  0  0  0  0  0  0  0  0
   -0.1450   24.3020  -28.2390 O   0  0  0  0  0  0  0  0  0  0  0  0
   -1.1140   24.8610  -28.9280 C   0  0  0  0  0  0  0  0  0  0  0  0
   -1.2970   26.1040  -28.9930 O   0  0  0  0  0  0  0  0  0  0  0  0
   -1.8700   23.9810  -29.5440 O   0  0  0  0  0  0  0  0  0  0  0  0
   -1.3720   22.8060  -29.2400 C   0  0  0  0  0  0  0  0  0  0  0  0
   -1.9070   21.5000  -29.7300 C   0  0  0  0  0  0  0  0  0  0  0  0
   -3.3080   21.6170  -29.9440 O   0  0  0  0  0  0  0  0  0  0  0  0
   -3.8540   22.3340  -31.0120 C   0  0  0  0  0  0  0  0  0  0  0  0
   -3.1140   22.7380  -31.9510 O   0  0  0  0  0  0  0  0  0  0  0  0
   -5.2670   22.5970  -31.0440 N   0  0  0  0  0  0  0  0  0  0  0  0
   -5.9100   23.7420  -30.6730 C   0  0  0  0  0  0  0  0  0  0  0  0
   -5.2810   24.9090  -30.0160 C   0  0  0  0  0  0  0  0  0  0  0  0
   -3.8950   25.1960  -30.2110 N   0  0  0  0  0  0  0  0  0  0  0  0
   -5.9730   25.6830  -29.3030 O   0  0  0  0  0  0  0  0  0  0  0  0
   -7.2800   23.6290  -30.9050 C   0  0  0  0  0  0  0  0  0  0  0  0
   -7.4590   22.3690  -31.4300 C   0  0  0  0  0  0  0  0  0  0  0  0
   -8.6230   21.7320  -31.8480 C   0  0  0  0  0  0  0  0  0  0  0  0
   -8.5130   20.4340  -32.3710 C   0  0  0  0  0  0  0  0  0  0  0  0
   -7.2480   19.8020  -32.4730 C   0  0  0  0  0  0  0  0  0  0  0  0
   -7.1500   18.4190  -33.0510 C   0  0  0  0  0  0  0  0  0  0  0  0
   -6.5870   17.5650  -32.1210 F   0  0  0  0  0  0  0  0  0  0  0  0
   -6.3600   18.4430  -34.1860 F   0  0  0  0  0  0  0  0  0  0  0  0
   -6.0870   20.4800  -32.0400 C   0  0  0  0  0  0  0  0  0  0  0  0
   -6.2290   21.7670  -31.5050 C   0  0  0  0  0  0  0  0  0  0  0  0
    0.5704   22.0228  -26.7302 H   0  0  0  0  0  0  0  0  0  0  0  0
    0.2891   20.9739  -28.1610 H   0  0  0  0  0  0  0  0  0  0  0  0
    1.6493   22.1471  -28.1610 H   0  0  0  0  0  0  0  0  0  0  0  0
   -1.4121   21.2314  -30.6749 H   0  0  0  0  0  0  0  0  0  0  0  0
   -1.7125   20.7178  -28.9815 H   0  0  0  0  0  0  0  0  0  0  0  0
   -3.4700   26.0440  -29.7750 H   0  0  0  0  0  0  0  0  0  0  0  0
   -3.2780   24.5500  -30.7510 H   0  0  0  0  0  0  0  0  0  0  0  0
   -8.0538   24.3860  -30.7099 H   0  0  0  0  0  0  0  0  0  0  0  0
   -9.6005   22.2306  -31.7710 H   0  0  0  0  0  0  0  0  0  0  0  0
   -9.4164   19.9024  -32.7047 H   0  0  0  0  0  0  0  0  0  0  0  0
   -8.1582   18.0654  -33.3125 H   0  0  0  0  0  0  0  0  0  0  0  0
   -5.0961   20.0093  -32.1208 H   0  0  0  0  0  0  0  0  0  0  0  0
  1  2  1  0
  2  3  1  0
  3  4  1  0
  4  5  2  0
  4  6  1  0
  6  7  1  0
  7  8  1  0
  8  9  1  0
  9 10  1  0
 10 11  2  0
 10 12  1  0
 12 13  1  0
 13 14  1  0
 14 15  1  0
 14 16  2  0
 13 17  2  0
 17 18  1  0
 18 19  2  0
 19 20  1  0
 20 21  2  0
 21 22  1  0
 22 23  1  0
 22 24  1  0
 21 25  1  0
 25 26  2  0
  7  2  2  0
 26 12  1  0
 26 18  1  0
  1 27  1  0
  1 28  1  0
  1 29  1  0
  8 30  1  0
  8 31  1  0
 15 32  1  0
 15 33  1  0
 17 34  1  0
 19 35  1  0
 20 36  1  0
 22 37  1  0
 25 38  1  0
M  END
>  <UniqueID>  (76) 
75

>  <SMILES>  (76) 
Cc1oc(=O)oc1COC(=O)n1c(C(N)=O)cc2ccc(C(F)F)cc21

>  <Energy>  (76) 
106.97385304967902

>  <Genealogy>  (76) 
Cc1oc(=O)oc1COC(=O)n1c(C(N)=O)cc2ccc(C(F)F)cc21 (3D coordinates assigned)
Cc1oc(=O)oc1COC(=O)n1c(C(N)=O)cc2ccc(C(F)F)cc21 (optimized conformer: 106.97385304967902 kcal/mol)

>  <smiles>  (76) 
Cc1oc(=O)oc1COC(=O)n1c(C(N)=O)cc2ccc(C(F)F)cc21

>  <score_type>  (76) 
oracle

>  <origin>  (76) 
adg

>  <m_score__min__energy>  (76) 
-8.5399999999999991

>  <m_primary>  (76) 
energy

$$$$
79:0
     RDKit          3D

 35 36  0  0  0  0  0  0  0  0999 V2000
   -3.9540   25.6730  -30.8540 N   0  0  0  0  0  0  0  0  0  0  0  0
   -5.2830   25.3040  -30.4930 C   0  0  0  0  0  0  0  0  0  0  0  0
   -5.9610   26.0770  -29.7670 O   0  0  0  0  0  0  0  0  0  0  0  0
   -5.8330   24.0060  -30.9400 C   0  0  0  0  0  0  0  0  0  0  0  0
   -7.1960   23.7630  -31.0890 C   0  0  0  0  0  0  0  0  0  0  0  0
   -7.2880   22.4890  -31.5980 C   0  0  0  0  0  0  0  0  0  0  0  0
   -8.4100   21.7350  -31.9290 C   0  0  0  0  0  0  0  0  0  0  0  0
   -8.2100   20.4310  -32.4110 C   0  0  0  0  0  0  0  0  0  0  0  0
   -6.9010   19.9040  -32.5450 C   0  0  0  0  0  0  0  0  0  0  0  0
   -6.7100   18.5000  -33.0440 C   0  0  0  0  0  0  0  0  0  0  0  0
   -7.8880   17.7910  -32.8990 F   0  0  0  0  0  0  0  0  0  0  0  0
   -6.3530   18.5250  -34.3800 F   0  0  0  0  0  0  0  0  0  0  0  0
   -5.7850   20.6970  -32.1970 C   0  0  0  0  0  0  0  0  0  0  0  0
   -6.0140   22.0010  -31.7370 C   0  0  0  0  0  0  0  0  0  0  0  0
   -5.1080   22.9200  -31.3340 N   0  0  0  0  0  0  0  0  0  0  0  0
   -3.6830   22.7430  -31.2870 C   0  0  0  0  0  0  0  0  0  0  0  0
   -3.0940   22.1310  -32.2180 O   0  0  0  0  0  0  0  0  0  0  0  0
   -2.9540   23.2800  -30.2190 O   0  0  0  0  0  0  0  0  0  0  0  0
   -1.8580   22.6160  -29.5880 C   0  0  0  0  0  0  0  0  0  0  0  0
   -1.3640   23.4050  -28.3710 C   0  0  0  0  0  0  0  0  0  0  0  0
   -0.9100   24.8280  -28.7140 C   0  0  0  0  0  0  0  0  0  0  0  0
   -2.0090   25.6720  -28.9280 O   0  0  0  0  0  0  0  0  0  0  0  0
   -3.1330   25.2990  -30.3310 H   0  0  0  0  0  0  0  0  0  0  0  0
   -8.0244   24.4461  -30.8499 H   0  0  0  0  0  0  0  0  0  0  0  0
   -9.4233   22.1480  -31.8165 H   0  0  0  0  0  0  0  0  0  0  0  0
   -9.0772   19.8131  -32.6870 H   0  0  0  0  0  0  0  0  0  0  0  0
   -5.9141   18.0145  -32.4602 H   0  0  0  0  0  0  0  0  0  0  0  0
   -4.7624   20.3012  -32.2848 H   0  0  0  0  0  0  0  0  0  0  0  0
   -2.1827   21.6171  -29.2613 H   0  0  0  0  0  0  0  0  0  0  0  0
   -1.0335   22.5361  -30.3117 H   0  0  0  0  0  0  0  0  0  0  0  0
   -2.1829   23.4668  -27.6392 H   0  0  0  0  0  0  0  0  0  0  0  0
   -0.4892   22.8718  -27.9705 H   0  0  0  0  0  0  0  0  0  0  0  0
   -0.3100   25.2239  -27.8814 H   0  0  0  0  0  0  0  0  0  0  0  0
   -0.3137   24.7908  -29.6376 H   0  0  0  0  0  0  0  0  0  0  0  0
   -2.7920   25.0830  -29.0850 H   0  0  0  0  0  0  0  0  0  0  0  0
  1  2  1  0
  2  3  2  0
  2  4  1  0
  4  5  2  0
  5  6  1  0
  6  7  2  0
  7  8  1  0
  8  9  2  0
  9 10  1  0
 10 11  1  0
 10 12  1  0
  9 13  1  0
 13 14  2  0
 14 15  1  0
 15 16  1  0
 16 17  2  0
 16 18  1  0
 18 19  1  0
 19 20  1  0
 20 21  1  0
 21 22  1  0
 15  4  1  0
 14  6  1  0
  1 23  1  0
  5 24  1  0
  7 25  1  0
  8 26  1  0
 10 27  1  0
 13 28  1  0
 19 29  1  0
 19 30  1  0
 20 31  1  0
 20 32  1  0
 21 33  1  0
 21 34  1  0
 22 35  1  0
M  CHG  1   1  -1
M  END
>  <UniqueID>  (77) 
76

>  <SMILES>  (77) 
[NH-]C(=O)c1cc2ccc(C(F)F)cc2n1C(=O)OCCCO

>  <Energy>  (77) 
69.38075703237216

>  <Genealogy>  (77) 
[NH-]C(=O)c1cc2ccc(C(F)F)cc2n1C(=O)OCCCO (protonated)
[NH-]C(=O)c1cc2ccc(C(F)F)cc2n1C(=O)OCCCO (3D coordinates assigned)
[NH-]C(=O)c1cc2ccc(C(F)F)cc2n1C(=O)OCCCO (optimized conformer: 69.38075703237216 kcal/mol)

>  <smiles>  (77) 
NC(=O)c1cc2ccc(C(F)F)cc2n1C(=O)OCCCO

>  <score_type>  (77) 
oracle

>  <origin>  (77) 
adg

>  <m_score__min__energy>  (77) 
-9.5899999999999999

>  <m_primary>  (77) 
energy

$$$$
80:0
     RDKit          3D

 34 35  0  0  0  0  0  0  0  0999 V2000
   -1.8810   22.1520  -31.5340 C   0  0  0  0  0  0  0  0  0  0  0  0
   -2.3030   23.0250  -30.4210 N   0  0  2  0  0  0  0  0  0  0  0  0
   -1.3210   23.0150  -29.3170 C   0  0  0  0  0  0  0  0  0  0  0  0
   -0.8590   24.4010  -28.9700 C   0  0  0  0  0  0  0  0  0  0  0  0
    0.2170   24.5710  -28.3390 O   0  0  0  0  0  0  0  0  0  0  0  0
   -1.6340   25.5010  -29.3180 O   0  0  0  0  0  0  0  0  0  0  0  0
   -3.5910   22.6100  -29.9070 C   0  0  0  0  0  0  0  0  0  0  0  0
   -3.7320   22.3320  -28.6830 O   0  0  0  0  0  0  0  0  0  0  0  0
   -4.7550   22.6720  -30.7470 N   0  0  0  0  0  0  0  0  0  0  0  0
   -5.5160   23.7590  -31.0550 C   0  0  0  0  0  0  0  0  0  0  0  0
   -5.2110   25.1570  -30.6910 C   0  0  0  0  0  0  0  0  0  0  0  0
   -3.8850   25.6590  -30.8470 N   0  0  0  0  0  0  0  0  0  0  0  0
   -6.1010   25.9070  -30.2140 O   0  0  0  0  0  0  0  0  0  0  0  0
   -6.6090   23.3830  -31.8340 C   0  0  0  0  0  0  0  0  0  0  0  0
   -6.4890   22.0200  -31.9980 C   0  0  0  0  0  0  0  0  0  0  0  0
   -7.3050   21.1210  -32.6790 C   0  0  0  0  0  0  0  0  0  0  0  0
   -6.9440   19.7630  -32.6630 C   0  0  0  0  0  0  0  0  0  0  0  0
   -5.7870   19.3320  -31.9670 C   0  0  0  0  0  0  0  0  0  0  0  0
   -5.4360   17.9470  -31.9510 N   0  0  0  0  0  0  0  0  0  0  0  0
   -4.9830   20.2720  -31.2900 C   0  0  0  0  0  0  0  0  0  0  0  0
   -5.3590   21.6180  -31.3330 C   0  0  0  0  0  0  0  0  0  0  0  0
   -1.4359   21.2311  -31.1292 H   0  0  0  0  0  0  0  0  0  0  0  0
   -2.7550   21.8963  -32.1511 H   0  0  0  0  0  0  0  0  0  0  0  0
   -1.1377   22.6780  -32.1511 H   0  0  0  0  0  0  0  0  0  0  0  0
   -2.3920   24.0020  -30.7870 H   0  0  0  0  0  0  0  0  0  0  0  0
   -1.7874   22.5624  -28.4295 H   0  0  0  0  0  0  0  0  0  0  0  0
   -0.4456   22.4340  -29.6429 H   0  0  0  0  0  0  0  0  0  0  0  0
   -3.0650   25.0140  -30.8560 H   0  0  0  0  0  0  0  0  0  0  0  0
   -7.3995   24.0356  -32.2331 H   0  0  0  0  0  0  0  0  0  0  0  0
   -8.2040   21.4628  -33.2128 H   0  0  0  0  0  0  0  0  0  0  0  0
   -7.5651   19.0277  -33.1955 H   0  0  0  0  0  0  0  0  0  0  0  0
   -5.5780   17.3690  -31.0920 H   0  0  0  0  0  0  0  0  0  0  0  0
   -5.0330   17.4880  -32.7990 H   0  0  0  0  0  0  0  0  0  0  0  0
   -4.0834   19.9546  -30.7423 H   0  0  0  0  0  0  0  0  0  0  0  0
  1  2  1  0
  2  3  1  0
  3  4  1  0
  4  5  2  0
  4  6  1  0
  2  7  1  0
  7  8  2  0
  7  9  1  0
  9 10  1  0
 10 11  1  0
 11 12  1  0
 11 13  2  0
 10 14  2  0
 14 15  1  0
 15 16  2  0
 16 17  1  0
 17 18  2  0
 18 19  1  0
 18 20  1  0
 20 21  2  0
 21  9  1  0
 21 15  1  0
  1 22  1  0
  1 23  1  0
  1 24  1  0
  2 25  1  6
  3 26  1  0
  3 27  1  0
 12 28  1  0
 14 29  1  0
 16 30  1  0
 17 31  1  0
 19 32  1  0
 19 33  1  0
 20 34  1  0
M  CHG  3   2   1   6  -1  12  -1
M  END
>  <UniqueID>  (78) 
77

>  <SMILES>  (78) 
C[N@H+](CC(=O)[O-])C(=O)n1c(C([NH-])=O)cc2ccc(N)cc21

>  <Energy>  (78) 
74.82733310586241

>  <Genealogy>  (78) 
C[NH+](CC(=O)[O-])C(=O)n1c(C([NH-])=O)cc2ccc(N)cc21 (protonated)
C[N@H+](CC(=O)[O-])C(=O)n1c(C([NH-])=O)cc2ccc(N)cc21 (chirality)
C[N@H+](CC(=O)[O-])C(=O)n1c(C([NH-])=O)cc2ccc(N)cc21 (3D coordinates assigned)
C[N@H+](CC(=O)[O-])C(=O)n1c(C([NH-])=O)cc2ccc(N)cc21 (optimized conformer: 74.82733310586241 kcal/mol)

>  <smiles>  (78) 
CN(CC(=O)O)C(=O)n1c(C(N)=O)cc2ccc(N)cc21

>  <score_type>  (78) 
oracle

>  <origin>  (78) 
adg

>  <m_score__min__energy>  (78) 
-9.4900000000000002

>  <m_primary>  (78) 
energy

$$$$
81:0
     RDKit          3D

 39 40  0  0  0  0  0  0  0  0999 V2000
   -5.2540   24.5570  -29.1440 N   0  0  0  0  0  0  0  0  0  0  0  0
   -6.5070   24.3910  -29.8110 C   0  0  0  0  0  0  0  0  0  0  0  0
   -7.3570   25.3190  -29.7540 O   0  0  0  0  0  0  0  0  0  0  0  0
   -6.8040   23.1590  -30.5790 C   0  0  0  0  0  0  0  0  0  0  0  0
   -8.0890   22.6870  -30.8490 C   0  0  0  0  0  0  0  0  0  0  0  0
   -7.9080   21.4900  -31.5090 C   0  0  0  0  0  0  0  0  0  0  0  0
   -8.8430   20.6030  -32.0330 C   0  0  0  0  0  0  0  0  0  0  0  0
   -8.3660   19.4560  -32.6920 C   0  0  0  0  0  0  0  0  0  0  0  0
   -6.9730   19.2170  -32.8100 C   0  0  0  0  0  0  0  0  0  0  0  0
   -6.4730   18.0210  -33.5660 C   0  0  0  0  0  0  0  0  0  0  0  0
   -5.8670   16.7980  -32.4200 Cl  0  0  0  0  0  0  0  0  0  0  0  0
   -6.0540   20.1480  -32.2760 C   0  0  0  0  0  0  0  0  0  0  0  0
   -6.5590   21.2720  -31.6170 C   0  0  0  0  0  0  0  0  0  0  0  0
   -5.8710   22.2860  -31.0550 N   0  0  0  0  0  0  0  0  0  0  0  0
   -4.4430   22.4270  -31.0350 C   0  0  0  0  0  0  0  0  0  0  0  0
   -3.9110   23.4640  -31.5170 O   0  0  0  0  0  0  0  0  0  0  0  0
   -3.5820   21.3840  -30.3880 C   0  0  0  0  0  0  0  0  0  0  0  0
   -3.0720   21.8690  -29.0680 C   0  0  0  0  0  0  0  0  0  0  0  0
   -3.8640   21.9800  -28.0890 O   0  0  0  0  0  0  0  0  0  0  0  0
   -1.7140   22.1670  -28.9230 O   0  0  0  0  0  0  0  0  0  0  0  0
   -1.2220   23.0190  -27.8940 C   0  0  0  0  0  0  0  0  0  0  0  0
   -2.1870   24.1850  -27.6990 C   0  0  0  0  0  0  0  0  0  0  0  0
   -2.0730   25.1590  -28.8300 C   0  0  0  0  0  0  0  0  0  0  0  0
   -1.0230   25.8400  -28.9760 O   0  0  0  0  0  0  0  0  0  0  0  0
   -3.1130   25.2880  -29.7440 O   0  0  0  0  0  0  0  0  0  0  0  0
   -5.0440   25.4490  -28.6440 H   0  0  0  0  0  0  0  0  0  0  0  0
   -4.5500   23.7880  -29.1010 H   0  0  0  0  0  0  0  0  0  0  0  0
   -9.0439   23.1678  -30.5902 H   0  0  0  0  0  0  0  0  0  0  0  0
   -9.9220   20.7930  -31.9348 H   0  0  0  0  0  0  0  0  0  0  0  0
   -9.0802   18.7372  -33.1201 H   0  0  0  0  0  0  0  0  0  0  0  0
   -7.2952   17.5923  -34.1577 H   0  0  0  0  0  0  0  0  0  0  0  0
   -5.6571   18.3284  -34.2367 H   0  0  0  0  0  0  0  0  0  0  0  0
   -4.9697   19.9921  -32.3764 H   0  0  0  0  0  0  0  0  0  0  0  0
   -4.1749   20.4705  -30.2332 H   0  0  0  0  0  0  0  0  0  0  0  0
   -2.7248   21.1738  -31.0445 H   0  0  0  0  0  0  0  0  0  0  0  0
   -1.1379   22.4510  -26.9558 H   0  0  0  0  0  0  0  0  0  0  0  0
   -0.2315   23.4044  -28.1774 H   0  0  0  0  0  0  0  0  0  0  0  0
   -3.2162   23.7991  -27.6568 H   0  0  0  0  0  0  0  0  0  0  0  0
   -1.9347   24.7006  -26.7606 H   0  0  0  0  0  0  0  0  0  0  0  0
  1  2  1  0
  2  3  2  0
  2  4  1  0
  4  5  2  0
  5  6  1  0
  6  7  2  0
  7  8  1  0
  8  9  2  0
  9 10  1  0
 10 11  1  0
  9 12  1  0
 12 13  2  0
 13 14  1  0
 14 15  1  0
 15 16  2  0
 15 17  1  0
 17 18  1  0
 18 19  2  0
 18 20  1  0
 20 21  1  0
 21 22  1  0
 22 23  1  0
 23 24  2  0
 23 25  1  0
 14  4  1  0
 13  6  1  0
  1 26  1  0
  1 27  1  0
  5 28  1  0
  7 29  1  0
  8 30  1  0
 10 31  1  0
 10 32  1  0
 12 33  1  0
 17 34  1  0
 17 35  1  0
 21 36  1  0
 21 37  1  0
 22 38  1  0
 22 39  1  0
M  CHG  1  25  -1
M  END
>  <UniqueID>  (79) 
78

>  <SMILES>  (79) 
NC(=O)c1cc2ccc(CCl)cc2n1C(=O)CC(=O)OCCC(=O)[O-]

>  <Energy>  (79) 
70.24543730169316

>  <Genealogy>  (79) 
NC(=O)c1cc2ccc(CCl)cc2n1C(=O)CC(=O)OCCC(=O)[O-] (protonated)
NC(=O)c1cc2ccc(CCl)cc2n1C(=O)CC(=O)OCCC(=O)[O-] (3D coordinates assigned)
NC(=O)c1cc2ccc(CCl)cc2n1C(=O)CC(=O)OCCC(=O)[O-] (optimized conformer: 70.24543730169316 kcal/mol)

>  <smiles>  (79) 
NC(=O)c1cc2ccc(CCl)cc2n1C(=O)CC(=O)OCCC(=O)O

>  <score_type>  (79) 
oracle

>  <origin>  (79) 
adg

>  <m_score__min__energy>  (79) 
-10.76

>  <m_primary>  (79) 
energy

$$$$
82:0
     RDKit          3D

 36 37  0  0  0  0  0  0  0  0999 V2000
   -7.9840   19.4310  -33.0610 N   0  0  0  0  0  0  0  0  0  0  0  0
   -8.5350   20.6340  -32.5230 C   0  0  0  0  0  0  0  0  0  0  0  0
   -9.7840   20.7960  -32.5260 O   0  0  0  0  0  0  0  0  0  0  0  0
   -7.6720   21.6610  -31.9050 C   0  0  0  0  0  0  0  0  0  0  0  0
   -8.1680   22.7430  -31.1850 C   0  0  0  0  0  0  0  0  0  0  0  0
   -7.0570   23.4140  -30.7280 C   0  0  0  0  0  0  0  0  0  0  0  0
   -6.9650   24.5750  -29.9670 C   0  0  0  0  0  0  0  0  0  0  0  0
   -5.6850   25.0690  -29.6690 C   0  0  0  0  0  0  0  0  0  0  0  0
   -4.5200   24.4040  -30.1440 C   0  0  0  0  0  0  0  0  0  0  0  0
   -3.1990   24.9020  -29.8620 N   0  0  0  0  0  0  0  0  0  0  0  0
   -2.3620   24.3810  -28.7770 C   0  0  0  0  0  0  0  0  0  0  0  0
   -1.2790   25.3490  -28.4020 C   0  0  0  0  0  0  0  0  0  0  0  0
   -1.1950   26.4210  -28.9810 O   0  0  0  0  0  0  0  0  0  0  0  0
   -4.6600   23.2290  -30.9160 C   0  0  0  0  0  0  0  0  0  0  0  0
   -5.9470   22.7460  -31.1780 C   0  0  0  0  0  0  0  0  0  0  0  0
   -6.3090   21.6660  -31.9080 N   0  0  0  0  0  0  0  0  0  0  0  0
   -5.4320   20.7840  -32.6280 C   0  0  0  0  0  0  0  0  0  0  0  0
   -4.6510   21.2500  -33.5020 O   0  0  0  0  0  0  0  0  0  0  0  0
   -5.4450   19.4140  -32.3560 O   0  0  0  0  0  0  0  0  0  0  0  0
   -4.7730   18.4600  -33.1730 C   0  0  0  0  0  0  0  0  0  0  0  0
   -5.7170   17.7760  -33.9890 O   0  0  0  0  0  0  0  0  0  0  0  0
   -6.5680   16.7840  -33.4970 C   0  0  0  0  0  0  0  0  0  0  0  0
   -7.4970   17.0620  -32.6920 O   0  0  0  0  0  0  0  0  0  0  0  0
   -8.6050   18.7340  -33.5280 H   0  0  0  0  0  0  0  0  0  0  0  0
   -6.9790   19.1880  -32.9210 H   0  0  0  0  0  0  0  0  0  0  0  0
   -9.2228   23.0060  -31.0169 H   0  0  0  0  0  0  0  0  0  0  0  0
   -7.8684   25.0907  -29.6093 H   0  0  0  0  0  0  0  0  0  0  0  0
   -5.5815   25.9802  -29.0616 H   0  0  0  0  0  0  0  0  0  0  0  0
   -2.8300   25.6710  -30.4660 H   0  0  0  0  0  0  0  0  0  0  0  0
   -2.9943   24.1940  -27.8965 H   0  0  0  0  0  0  0  0  0  0  0  0
   -1.8876   23.4513  -29.1243 H   0  0  0  0  0  0  0  0  0  0  0  0
   -0.5623   25.0939  -27.6075 H   0  0  0  0  0  0  0  0  0  0  0  0
   -3.7745   22.7040  -31.3036 H   0  0  0  0  0  0  0  0  0  0  0  0
   -4.0431   18.9769  -33.8134 H   0  0  0  0  0  0  0  0  0  0  0  0
   -4.2530   17.7335  -32.5312 H   0  0  0  0  0  0  0  0  0  0  0  0
   -6.4249   15.7416  -33.8178 H   0  0  0  0  0  0  0  0  0  0  0  0
  1  2  1  0
  2  3  2  0
  2  4  1  0
  4  5  2  0
  5  6  1  0
  6  7  2  0
  7  8  1  0
  8  9  2  0
  9 10  1  0
 10 11  1  0
 11 12  1  0
 12 13  2  0
  9 14  1  0
 14 15  2  0
 15 16  1  0
 16 17  1  0
 17 18  2  0
 17 19  1  0
 19 20  1  0
 20 21  1  0
 21 22  1  0
 22 23  2  0
 16  4  1  0
 15  6  1  0
  1 24  1  0
  1 25  1  0
  5 26  1  0
  7 27  1  0
  8 28  1  0
 10 29  1  0
 11 30  1  0
 11 31  1  0
 12 32  1  0
 14 33  1  0
 20 34  1  0
 20 35  1  0
 22 36  1  0
M  END
>  <UniqueID>  (80) 
79

>  <SMILES>  (80) 
NC(=O)c1cc2ccc(NCC=O)cc2n1C(=O)OCOC=O

>  <Energy>  (80) 
70.76524511160073

>  <Genealogy>  (80) 
NC(=O)c1cc2ccc(NCC=O)cc2n1C(=O)OCOC=O (3D coordinates assigned)
NC(=O)c1cc2ccc(NCC=O)cc2n1C(=O)OCOC=O (optimized conformer: 70.76524511160073 kcal/mol)

>  <smiles>  (80) 
NC(=O)c1cc2ccc(NCC=O)cc2n1C(=O)OCOC=O

>  <score_type>  (80) 
oracle

>  <origin>  (80) 
adg

>  <m_score__min__energy>  (80) 
-6.6799999999999997

>  <m_primary>  (80) 
energy

$$$$
83:0
     RDKit          3D

 40 41  0  0  0  0  0  0  0  0999 V2000
   -8.8210   18.6700  -32.3360 C   0  0  0  0  0  0  0  0  0  0  0  0
   -8.3290   20.0520  -32.0230 C   0  0  0  0  0  0  0  0  0  0  0  0
   -9.2350   21.1400  -31.9870 C   0  0  0  0  0  0  0  0  0  0  0  0
   -8.7790   22.4410  -31.7160 C   0  0  0  0  0  0  0  0  0  0  0  0
   -7.4150   22.6240  -31.5040 C   0  0  0  0  0  0  0  0  0  0  0  0
   -6.7130   23.7670  -31.1960 C   0  0  0  0  0  0  0  0  0  0  0  0
   -5.3820   23.3640  -31.0850 C   0  0  0  0  0  0  0  0  0  0  0  0
   -4.2550   24.2920  -30.8390 C   0  0  0  0  0  0  0  0  0  0  0  0
   -2.9400   23.7920  -30.5850 N   0  0  0  0  0  0  0  0  0  0  0  0
   -4.4520   25.5350  -30.8210 O   0  0  0  0  0  0  0  0  0  0  0  0
   -5.2690   22.0260  -31.3170 N   0  0  0  0  0  0  0  0  0  0  0  0
   -4.0840   21.2200  -31.2230 C   0  0  0  0  0  0  0  0  0  0  0  0
   -3.2270   21.2550  -32.1470 O   0  0  0  0  0  0  0  0  0  0  0  0
   -3.8900   20.4000  -30.1050 O   0  0  0  0  0  0  0  0  0  0  0  0
   -2.8330   20.5700  -29.1640 C   0  0  0  0  0  0  0  0  0  0  0  0
   -1.6740   21.0780  -29.8210 O   0  0  0  0  0  0  0  0  0  0  0  0
   -1.0080   22.2440  -29.4300 C   0  0  0  0  0  0  0  0  0  0  0  0
   -0.4900   23.0130  -30.2840 O   0  0  0  0  0  0  0  0  0  0  0  0
   -0.9660   22.6130  -27.9810 C   0  0  0  0  0  0  0  0  0  0  0  0
   -1.7340   23.9130  -27.7370 C   0  0  0  0  0  0  0  0  0  0  0  0
   -0.9890   25.0770  -28.3100 C   0  0  0  0  0  0  0  0  0  0  0  0
   -1.6010   25.9610  -28.9660 O   0  0  0  0  0  0  0  0  0  0  0  0
    0.3900   25.1630  -28.1610 O   0  0  0  0  0  0  0  0  0  0  0  0
   -6.5220   21.5860  -31.5690 C   0  0  0  0  0  0  0  0  0  0  0  0
   -6.9500   20.2770  -31.8210 C   0  0  0  0  0  0  0  0  0  0  0  0
   -9.0138   18.1283  -31.3982 H   0  0  0  0  0  0  0  0  0  0  0  0
   -9.7511   18.7353  -32.9196 H   0  0  0  0  0  0  0  0  0  0  0  0
   -8.0589   18.1329  -32.9196 H   0  0  0  0  0  0  0  0  0  0  0  0
  -10.3050   20.9649  -32.1728 H   0  0  0  0  0  0  0  0  0  0  0  0
   -9.4782   23.2891  -31.6726 H   0  0  0  0  0  0  0  0  0  0  0  0
   -7.1157   24.7823  -31.0652 H   0  0  0  0  0  0  0  0  0  0  0  0
   -2.1600   24.4530  -30.3760 H   0  0  0  0  0  0  0  0  0  0  0  0
   -2.7240   22.7730  -30.6500 H   0  0  0  0  0  0  0  0  0  0  0  0
   -3.1497   21.2781  -28.3840 H   0  0  0  0  0  0  0  0  0  0  0  0
   -2.5938   19.5974  -28.7091 H   0  0  0  0  0  0  0  0  0  0  0  0
   -1.4224   21.8063  -27.3886 H   0  0  0  0  0  0  0  0  0  0  0  0
    0.0824   22.7573  -27.6808 H   0  0  0  0  0  0  0  0  0  0  0  0
   -2.7223   23.8448  -28.2152 H   0  0  0  0  0  0  0  0  0  0  0  0
   -1.8468   24.0615  -26.6529 H   0  0  0  0  0  0  0  0  0  0  0  0
   -6.2307   19.4457  -31.8606 H   0  0  0  0  0  0  0  0  0  0  0  0
  1  2  1  0
  2  3  2  0
  3  4  1  0
  4  5  2  0
  5  6  1  0
  6  7  2  0
  7  8  1  0
  8  9  1  0
  8 10  2  0
  7 11  1  0
 11 12  1  0
 12 13  2  0
 12 14  1  0
 14 15  1  0
 15 16  1  0
 16 17  1  0
 17 18  2  0
 17 19  1  0
 19 20  1  0
 20 21  1  0
 21 22  2  0
 21 23  1  0
 11 24  1  0
 24 25  2  0
 25  2  1  0
 24  5  1  0
  1 26  1  0
  1 27  1  0
  1 28  1  0
  3 29  1  0
  4 30  1  0
  6 31  1  0
  9 32  1  0
  9 33  1  0
 15 34  1  0
 15 35  1  0
 19 36  1  0
 19 37  1  0
 20 38  1  0
 20 39  1  0
 25 40  1  0
M  CHG  1  23  -1
M  END
>  <UniqueID>  (81) 
80

>  <SMILES>  (81) 
Cc1ccc2cc(C(N)=O)n(C(=O)OCOC(=O)CCC(=O)[O-])c2c1

>  <Energy>  (81) 
72.43382160355844

>  <Genealogy>  (81) 
Cc1ccc2cc(C(N)=O)n(C(=O)OCOC(=O)CCC(=O)[O-])c2c1 (protonated)
Cc1ccc2cc(C(N)=O)n(C(=O)OCOC(=O)CCC(=O)[O-])c2c1 (3D coordinates assigned)
Cc1ccc2cc(C(N)=O)n(C(=O)OCOC(=O)CCC(=O)[O-])c2c1 (optimized conformer: 72.43382160355844 kcal/mol)

>  <smiles>  (81) 
Cc1ccc2cc(C(N)=O)n(C(=O)OCOC(=O)CCC(=O)O)c2c1

>  <score_type>  (81) 
oracle

>  <origin>  (81) 
adg

>  <m_score__min__energy>  (81) 
-9.75

>  <m_primary>  (81) 
energy

$$$$
84:0
     RDKit          3D

 46 47  0  0  0  0  0  0  0  0999 V2000
    0.4450   25.1430  -36.4160 C   0  0  0  0  0  0  0  0  0  0  0  0
    1.2440   24.0630  -36.8440 O   0  0  0  0  0  0  0  0  0  0  0  0
    2.0410   23.6140  -35.7690 C   0  0  0  0  0  0  0  0  0  0  0  0
    1.5730   22.2240  -35.3490 C   0  0  0  0  0  0  0  0  0  0  0  0
    0.2450   22.2810  -34.8550 O   0  0  0  0  0  0  0  0  0  0  0  0
   -0.0650   21.1360  -34.0830 C   0  0  0  0  0  0  0  0  0  0  0  0
   -0.9420   21.5050  -32.9290 C   0  0  0  0  0  0  0  0  0  0  0  0
   -0.4330   21.6860  -31.7890 O   0  0  0  0  0  0  0  0  0  0  0  0
   -2.3240   21.6000  -33.1170 O   0  0  0  0  0  0  0  0  0  0  0  0
   -3.1120   20.5120  -33.5820 C   0  0  0  0  0  0  0  0  0  0  0  0
   -3.8830   19.9970  -32.5020 O   0  0  0  0  0  0  0  0  0  0  0  0
   -4.1300   20.7140  -31.3290 C   0  0  0  0  0  0  0  0  0  0  0  0
   -3.4690   20.4650  -30.2830 O   0  0  0  0  0  0  0  0  0  0  0  0
   -5.1340   21.7440  -31.3200 N   0  0  0  0  0  0  0  0  0  0  0  0
   -4.9440   23.0860  -31.1760 C   0  0  0  0  0  0  0  0  0  0  0  0
   -3.6700   23.7470  -30.8330 C   0  0  0  0  0  0  0  0  0  0  0  0
   -2.4360   23.0270  -30.8450 N   0  0  0  0  0  0  0  0  0  0  0  0
   -3.6770   24.9530  -30.4680 O   0  0  0  0  0  0  0  0  0  0  0  0
   -6.1420   23.7750  -31.3380 C   0  0  0  0  0  0  0  0  0  0  0  0
   -7.0890   22.8040  -31.5720 C   0  0  0  0  0  0  0  0  0  0  0  0
   -8.4550   22.9290  -31.8060 C   0  0  0  0  0  0  0  0  0  0  0  0
   -9.1930   21.7580  -32.0460 C   0  0  0  0  0  0  0  0  0  0  0  0
   -8.5540   20.4960  -32.0630 C   0  0  0  0  0  0  0  0  0  0  0  0
   -9.3630   19.2560  -32.3090 C   0  0  0  0  0  0  0  0  0  0  0  0
   -8.6860   18.1550  -31.8190 F   0  0  0  0  0  0  0  0  0  0  0  0
   -7.1660   20.4040  -31.8120 C   0  0  0  0  0  0  0  0  0  0  0  0
   -6.4570   21.5860  -31.5580 C   0  0  0  0  0  0  0  0  0  0  0  0
    0.4245   25.1708  -35.3165 H   0  0  0  0  0  0  0  0  0  0  0  0
    0.8656   26.0846  -36.7988 H   0  0  0  0  0  0  0  0  0  0  0  0
   -0.5784   25.0162  -36.7988 H   0  0  0  0  0  0  0  0  0  0  0  0
    3.0938   23.5688  -36.0845 H   0  0  0  0  0  0  0  0  0  0  0  0
    1.9470   24.3091  -34.9216 H   0  0  0  0  0  0  0  0  0  0  0  0
    1.6083   21.5510  -36.2184 H   0  0  0  0  0  0  0  0  0  0  0  0
    2.2347   21.8481  -34.5548 H   0  0  0  0  0  0  0  0  0  0  0  0
   -0.5879   20.4035  -34.7155 H   0  0  0  0  0  0  0  0  0  0  0  0
    0.8696   20.7037  -33.6961 H   0  0  0  0  0  0  0  0  0  0  0  0
   -3.7838   20.8593  -34.3808 H   0  0  0  0  0  0  0  0  0  0  0  0
   -2.4556   19.7225  -33.9768 H   0  0  0  0  0  0  0  0  0  0  0  0
   -2.4180   21.9920  -30.9820 H   0  0  0  0  0  0  0  0  0  0  0  0
   -1.5400   23.5190  -30.6350 H   0  0  0  0  0  0  0  0  0  0  0  0
   -6.2987   24.8627  -31.2895 H   0  0  0  0  0  0  0  0  0  0  0  0
   -8.9423   23.9152  -31.8031 H   0  0  0  0  0  0  0  0  0  0  0  0
  -10.2769   21.8229  -32.2222 H   0  0  0  0  0  0  0  0  0  0  0  0
  -10.3337   19.3453  -31.7994 H   0  0  0  0  0  0  0  0  0  0  0  0
   -9.5242   19.1339  -33.3903 H   0  0  0  0  0  0  0  0  0  0  0  0
   -6.6554   19.4297  -31.8159 H   0  0  0  0  0  0  0  0  0  0  0  0
  1  2  1  0
  2  3  1  0
  3  4  1  0
  4  5  1  0
  5  6  1  0
  6  7  1  0
  7  8  2  0
  7  9  1  0
  9 10  1  0
 10 11  1  0
 11 12  1  0
 12 13  2  0
 12 14  1  0
 14 15  1  0
 15 16  1  0
 16 17  1  0
 16 18  2  0
 15 19  2  0
 19 20  1  0
 20 21  2  0
 21 22  1  0
 22 23  2  0
 23 24  1  0
 24 25  1  0
 23 26  1  0
 26 27  2  0
 27 14  1  0
 27 20  1  0
  1 28  1  0
  1 29  1  0
  1 30  1  0
  3 31  1  0
  3 32  1  0
  4 33  1  0
  4 34  1  0
  6 35  1  0
  6 36  1  0
 10 37  1  0
 10 38  1  0
 17 39  1  0
 17 40  1  0
 19 41  1  0
 21 42  1  0
 22 43  1  0
 24 44  1  0
 24 45  1  0
 26 46  1  0
M  END
>  <UniqueID>  (82) 
81

>  <SMILES>  (82) 
COCCOCC(=O)OCOC(=O)n1c(C(N)=O)cc2ccc(CF)cc21

>  <Energy>  (82) 
79.71246579247217

>  <Genealogy>  (82) 
COCCOCC(=O)OCOC(=O)n1c(C(N)=O)cc2ccc(CF)cc21 (3D coordinates assigned)
COCCOCC(=O)OCOC(=O)n1c(C(N)=O)cc2ccc(CF)cc21 (optimized conformer: 79.71246579247217 kcal/mol)

>  <smiles>  (82) 
COCCOCC(=O)OCOC(=O)n1c(C(N)=O)cc2ccc(CF)cc21

>  <score_type>  (82) 
oracle

>  <origin>  (82) 
adg

>  <m_score__min__energy>  (82) 
-7.3600000000000003

>  <m_primary>  (82) 
energy

$$$$
85:0
     RDKit          3D

 36 37  0  0  0  0  0  0  0  0999 V2000
   -4.0340   22.8200  -28.6540 C   0  0  0  0  0  0  0  0  0  0  0  0
   -3.1840   22.7630  -29.8470 N   0  0  0  0  0  0  0  0  0  0  0  0
   -1.7230   22.8690  -29.7190 C   0  0  0  0  0  0  0  0  0  0  0  0
   -1.3370   24.2540  -29.3060 C   0  0  0  0  0  0  0  0  0  0  0  0
   -0.1740   24.4910  -28.8870 O   0  0  0  0  0  0  0  0  0  0  0  0
   -2.2640   25.2860  -29.3870 O   0  0  0  0  0  0  0  0  0  0  0  0
   -3.8050   22.6720  -31.1460 C   0  0  0  0  0  0  0  0  0  0  0  0
   -3.0950   22.5160  -32.1760 O   0  0  0  0  0  0  0  0  0  0  0  0
   -5.2310   22.7540  -31.2900 N   0  0  0  0  0  0  0  0  0  0  0  0
   -6.0360   23.8070  -30.9750 C   0  0  0  0  0  0  0  0  0  0  0  0
   -5.5590   25.1350  -30.5220 C   0  0  0  0  0  0  0  0  0  0  0  0
   -4.1980   25.5300  -30.7000 N   0  0  0  0  0  0  0  0  0  0  0  0
   -6.3570   25.9320  -29.9600 O   0  0  0  0  0  0  0  0  0  0  0  0
   -7.3740   23.4680  -31.1840 C   0  0  0  0  0  0  0  0  0  0  0  0
   -7.3570   22.1620  -31.6230 C   0  0  0  0  0  0  0  0  0  0  0  0
   -8.4070   21.3120  -31.9580 C   0  0  0  0  0  0  0  0  0  0  0  0
   -8.0930   20.0000  -32.3510 C   0  0  0  0  0  0  0  0  0  0  0  0
   -6.7450   19.5640  -32.4040 C   0  0  0  0  0  0  0  0  0  0  0  0
   -6.4230   18.1490  -32.7890 C   0  0  0  0  0  0  0  0  0  0  0  0
   -6.0100   18.0940  -34.1950 C   0  0  0  0  0  0  0  0  0  0  0  0
   -5.6840   18.0510  -35.3050 N   0  0  0  0  0  0  0  0  0  0  0  0
   -5.7070   20.4520  -32.0430 C   0  0  0  0  0  0  0  0  0  0  0  0
   -6.0510   21.7550  -31.6710 C   0  0  0  0  0  0  0  0  0  0  0  0
   -3.4045   22.7778  -27.7529 H   0  0  0  0  0  0  0  0  0  0  0  0
   -4.6076   23.7586  -28.6569 H   0  0  0  0  0  0  0  0  0  0  0  0
   -4.7277   21.9664  -28.6569 H   0  0  0  0  0  0  0  0  0  0  0  0
   -1.3723   22.1533  -28.9609 H   0  0  0  0  0  0  0  0  0  0  0  0
   -1.2614   22.6440  -30.6918 H   0  0  0  0  0  0  0  0  0  0  0  0
   -3.8730   26.4570  -30.3450 H   0  0  0  0  0  0  0  0  0  0  0  0
   -3.5160   24.9340  -31.2160 H   0  0  0  0  0  0  0  0  0  0  0  0
   -8.2554   24.1081  -31.0307 H   0  0  0  0  0  0  0  0  0  0  0  0
   -9.4507   21.6568  -31.9164 H   0  0  0  0  0  0  0  0  0  0  0  0
   -8.9013   19.3041  -32.6203 H   0  0  0  0  0  0  0  0  0  0  0  0
   -5.6058   17.7756  -32.1543 H   0  0  0  0  0  0  0  0  0  0  0  0
   -7.3178   17.5243  -32.6505 H   0  0  0  0  0  0  0  0  0  0  0  0
   -4.6562   20.1268  -32.0543 H   0  0  0  0  0  0  0  0  0  0  0  0
  1  2  1  0
  2  3  1  0
  3  4  1  0
  4  5  2  0
  4  6  1  0
  2  7  1  0
  7  8  2  0
  7  9  1  0
  9 10  1  0
 10 11  1  0
 11 12  1  0
 11 13  2  0
 10 14  2  0
 14 15  1  0
 15 16  2  0
 16 17  1  0
 17 18  2  0
 18 19  1  0
 19 20  1  0
 20 21  3  0
 18 22  1  0
 22 23  2  0
 23  9  1  0
 23 15  1  0
  1 24  1  0
  1 25  1  0
  1 26  1  0
  3 27  1  0
  3 28  1  0
 12 29  1  0
 12 30  1  0
 14 31  1  0
 16 32  1  0
 17 33  1  0
 19 34  1  0
 19 35  1  0
 22 36  1  0
M  CHG  1   6  -1
M  END
>  <UniqueID>  (83) 
82

>  <SMILES>  (83) 
CN(CC(=O)[O-])C(=O)n1c(C(N)=O)cc2ccc(CC#N)cc21

>  <Energy>  (83) 
70.1248514772645

>  <Genealogy>  (83) 
CN(CC(=O)[O-])C(=O)n1c(C(N)=O)cc2ccc(CC#N)cc21 (protonated)
CN(CC(=O)[O-])C(=O)n1c(C(N)=O)cc2ccc(CC#N)cc21 (3D coordinates assigned)
CN(CC(=O)[O-])C(=O)n1c(C(N)=O)cc2ccc(CC#N)cc21 (optimized conformer: 70.1248514772645 kcal/mol)

>  <smiles>  (83) 
CN(CC(=O)O)C(=O)n1c(C(N)=O)cc2ccc(CC#N)cc21

>  <score_type>  (83) 
oracle

>  <origin>  (83) 
adg

>  <m_score__min__energy>  (83) 
-11.039999999999999

>  <m_primary>  (83) 
energy

$$$$
86:0
     RDKit          3D

 36 37  0  0  0  0  0  0  0  0999 V2000
   -3.8640   25.4270  -30.6770 N   0  0  0  0  0  0  0  0  0  0  0  0
   -5.2680   25.2210  -30.5460 C   0  0  0  0  0  0  0  0  0  0  0  0
   -5.9670   26.0890  -29.9570 O   0  0  0  0  0  0  0  0  0  0  0  0
   -5.9030   23.9780  -31.0320 C   0  0  0  0  0  0  0  0  0  0  0  0
   -7.2780   23.8450  -31.2150 C   0  0  0  0  0  0  0  0  0  0  0  0
   -7.4720   22.5300  -31.5710 C   0  0  0  0  0  0  0  0  0  0  0  0
   -8.6490   21.8510  -31.8760 C   0  0  0  0  0  0  0  0  0  0  0  0
   -8.5530   20.4960  -32.2330 C   0  0  0  0  0  0  0  0  0  0  0  0
   -7.2930   19.8500  -32.2840 C   0  0  0  0  0  0  0  0  0  0  0  0
   -7.2090   18.4040  -32.6840 C   0  0  0  0  0  0  0  0  0  0  0  0
   -8.3580   17.7450  -32.2870 F   0  0  0  0  0  0  0  0  0  0  0  0
   -6.1130   17.8150  -32.0800 F   0  0  0  0  0  0  0  0  0  0  0  0
   -6.1190   20.5750  -31.9760 C   0  0  0  0  0  0  0  0  0  0  0  0
   -6.2460   21.9180  -31.6030 C   0  0  0  0  0  0  0  0  0  0  0  0
   -5.2700   22.7960  -31.2790 N   0  0  0  0  0  0  0  0  0  0  0  0
   -3.8570   22.5340  -31.2800 C   0  0  0  0  0  0  0  0  0  0  0  0
   -3.2660   22.2530  -32.3590 O   0  0  0  0  0  0  0  0  0  0  0  0
   -3.1470   22.5620  -30.0760 O   0  0  0  0  0  0  0  0  0  0  0  0
   -1.7400   22.7700  -30.0120 C   0  0  0  0  0  0  0  0  0  0  0  0
   -1.4760   24.1400  -29.7320 O   0  0  0  0  0  0  0  0  0  0  0  0
   -1.2280   24.6130  -28.4400 C   0  0  0  0  0  0  0  0  0  0  0  0
   -0.0650   24.9530  -28.0900 O   0  0  0  0  0  0  0  0  0  0  0  0
   -2.3450   24.6720  -27.4490 C   0  0  0  0  0  0  0  0  0  0  0  0
   -3.5800   24.2050  -28.0690 N   0  0  0  0  0  0  0  0  0  0  0  0
   -3.1810   24.7620  -30.2510 H   0  0  0  0  0  0  0  0  0  0  0  0
   -8.0450   24.6250  -31.0995 H   0  0  0  0  0  0  0  0  0  0  0  0
   -9.6234   22.3600  -31.8385 H   0  0  0  0  0  0  0  0  0  0  0  0
   -9.4650   19.9308  -32.4754 H   0  0  0  0  0  0  0  0  0  0  0  0
   -7.1048   18.3379  -33.7771 H   0  0  0  0  0  0  0  0  0  0  0  0
   -5.1304   20.0955  -32.0282 H   0  0  0  0  0  0  0  0  0  0  0  0
   -1.3125   22.1438  -29.2151 H   0  0  0  0  0  0  0  0  0  0  0  0
   -1.2846   22.4980  -30.9757 H   0  0  0  0  0  0  0  0  0  0  0  0
   -2.1036   24.0315  -26.5879 H   0  0  0  0  0  0  0  0  0  0  0  0
   -2.4776   25.7107  -27.1122 H   0  0  0  0  0  0  0  0  0  0  0  0
   -3.5800   23.1610  -28.0300 H   0  0  0  0  0  0  0  0  0  0  0  0
   -3.5560   24.4640  -29.0820 H   0  0  0  0  0  0  0  0  0  0  0  0
  1  2  1  0
  2  3  2  0
  2  4  1  0
  4  5  2  0
  5  6  1  0
  6  7  2  0
  7  8  1  0
  8  9  2  0
  9 10  1  0
 10 11  1  0
 10 12  1  0
  9 13  1  0
 13 14  2  0
 14 15  1  0
 15 16  1  0
 16 17  2  0
 16 18  1  0
 18 19  1  0
 19 20  1  0
 20 21  1  0
 21 22  2  0
 21 23  1  0
 23 24  1  0
 15  4  1  0
 14  6  1  0
  1 25  1  0
  5 26  1  0
  7 27  1  0
  8 28  1  0
 10 29  1  0
 13 30  1  0
 19 31  1  0
 19 32  1  0
 23 33  1  0
 23 34  1  0
 24 35  1  0
 24 36  1  0
M  CHG  1   1  -1
M  END
>  <UniqueID>  (84) 
83

>  <SMILES>  (84) 
[NH-]C(=O)c1cc2ccc(C(F)F)cc2n1C(=O)OCOC(=O)CN

>  <Energy>  (84) 
68.21143395941446

>  <Genealogy>  (84) 
[NH-]C(=O)c1cc2ccc(C(F)F)cc2n1C(=O)OCOC(=O)CN (protonated)
[NH-]C(=O)c1cc2ccc(C(F)F)cc2n1C(=O)OCOC(=O)CN (3D coordinates assigned)
[NH-]C(=O)c1cc2ccc(C(F)F)cc2n1C(=O)OCOC(=O)CN (optimized conformer: 68.21143395941446 kcal/mol)

>  <smiles>  (84) 
NCC(=O)OCOC(=O)n1c(C(N)=O)cc2ccc(C(F)F)cc21

>  <score_type>  (84) 
oracle

>  <origin>  (84) 
adg

>  <m_score__min__energy>  (84) 
-9.1899999999999995

>  <m_primary>  (84) 
energy

$$$$
87:0
     RDKit          3D

 39 40  0  0  0  0  0  0  0  0999 V2000
   -2.4730   20.7490  -29.6300 C   0  0  0  0  0  0  0  0  0  0  0  0
   -3.2260   22.0020  -29.5320 N   0  0  0  0  0  0  0  0  0  0  0  0
   -3.4600   22.6030  -28.2090 C   0  0  0  0  0  0  0  0  0  0  0  0
   -3.1590   24.1090  -28.2110 C   0  0  0  0  0  0  0  0  0  0  0  0
   -1.6980   24.4220  -28.5440 C   0  0  0  0  0  0  0  0  0  0  0  0
   -1.6200   25.5590  -29.3580 O   0  0  0  0  0  0  0  0  0  0  0  0
   -3.6780   22.6410  -30.7450 C   0  0  0  0  0  0  0  0  0  0  0  0
   -2.8370   22.9940  -31.6160 O   0  0  0  0  0  0  0  0  0  0  0  0
   -5.0770   22.8330  -31.0060 N   0  0  0  0  0  0  0  0  0  0  0  0
   -5.7810   24.0010  -31.0060 C   0  0  0  0  0  0  0  0  0  0  0  0
   -5.2600   25.3340  -30.6300 C   0  0  0  0  0  0  0  0  0  0  0  0
   -3.8940   25.6810  -30.8330 N   0  0  0  0  0  0  0  0  0  0  0  0
   -6.0350   26.1770  -30.1030 O   0  0  0  0  0  0  0  0  0  0  0  0
   -7.1020   23.7710  -31.3860 C   0  0  0  0  0  0  0  0  0  0  0  0
   -7.1830   22.4190  -31.6320 C   0  0  0  0  0  0  0  0  0  0  0  0
   -8.2600   21.6460  -32.0580 C   0  0  0  0  0  0  0  0  0  0  0  0
   -8.0460   20.2710  -32.2570 C   0  0  0  0  0  0  0  0  0  0  0  0
   -6.7670   19.6990  -32.0360 C   0  0  0  0  0  0  0  0  0  0  0  0
   -6.5390   18.2320  -32.2590 C   0  0  0  0  0  0  0  0  0  0  0  0
   -5.8190   17.7060  -31.2010 F   0  0  0  0  0  0  0  0  0  0  0  0
   -5.8300   18.0440  -33.4310 F   0  0  0  0  0  0  0  0  0  0  0  0
   -5.6990   20.5170  -31.6090 C   0  0  0  0  0  0  0  0  0  0  0  0
   -5.9460   21.8780  -31.4020 C   0  0  0  0  0  0  0  0  0  0  0  0
   -2.2488   20.3760  -28.6198 H   0  0  0  0  0  0  0  0  0  0  0  0
   -3.0722   20.0025  -30.1719 H   0  0  0  0  0  0  0  0  0  0  0  0
   -1.5326   20.9278  -30.1719 H   0  0  0  0  0  0  0  0  0  0  0  0
   -4.5125   22.4497  -27.9284 H   0  0  0  0  0  0  0  0  0  0  0  0
   -2.7863   22.1184  -27.4869 H   0  0  0  0  0  0  0  0  0  0  0  0
   -3.8019   24.5948  -28.9598 H   0  0  0  0  0  0  0  0  0  0  0  0
   -3.3557   24.4872  -27.1969 H   0  0  0  0  0  0  0  0  0  0  0  0
   -1.1438   24.6042  -27.6114 H   0  0  0  0  0  0  0  0  0  0  0  0
   -1.2609   23.5665  -29.0798 H   0  0  0  0  0  0  0  0  0  0  0  0
   -2.5180   25.6690  -29.7640 H   0  0  0  0  0  0  0  0  0  0  0  0
   -3.1380   24.9660  -30.7440 H   0  0  0  0  0  0  0  0  0  0  0  0
   -7.9094   24.5131  -31.4713 H   0  0  0  0  0  0  0  0  0  0  0  0
   -9.2477   22.0973  -32.2334 H   0  0  0  0  0  0  0  0  0  0  0  0
   -8.8785   19.6324  -32.5873 H   0  0  0  0  0  0  0  0  0  0  0  0
   -7.5116   17.7232  -32.3313 H   0  0  0  0  0  0  0  0  0  0  0  0
   -4.6970   20.0945  -31.4431 H   0  0  0  0  0  0  0  0  0  0  0  0
  1  2  1  0
  2  3  1  0
  3  4  1  0
  4  5  1  0
  5  6  1  0
  2  7  1  0
  7  8  2  0
  7  9  1  0
  9 10  1  0
 10 11  1  0
 11 12  1  0
 11 13  2  0
 10 14  2  0
 14 15  1  0
 15 16  2  0
 16 17  1  0
 17 18  2  0
 18 19  1  0
 19 20  1  0
 19 21  1  0
 18 22  1  0
 22 23  2  0
 23  9  1  0
 23 15  1  0
  1 24  1  0
  1 25  1  0
  1 26  1  0
  3 27  1  0
  3 28  1  0
  4 29  1  0
  4 30  1  0
  5 31  1  0
  5 32  1  0
  6 33  1  0
 12 34  1  0
 14 35  1  0
 16 36  1  0
 17 37  1  0
 19 38  1  0
 22 39  1  0
M  CHG  1  12  -1
M  END
>  <UniqueID>  (85) 
84

>  <SMILES>  (85) 
CN(CCCO)C(=O)n1c(C([NH-])=O)cc2ccc(C(F)F)cc21

>  <Energy>  (85) 
71.21192848378897

>  <Genealogy>  (85) 
CN(CCCO)C(=O)n1c(C([NH-])=O)cc2ccc(C(F)F)cc21 (protonated)
CN(CCCO)C(=O)n1c(C([NH-])=O)cc2ccc(C(F)F)cc21 (3D coordinates assigned)
CN(CCCO)C(=O)n1c(C([NH-])=O)cc2ccc(C(F)F)cc21 (optimized conformer: 71.21192848378897 kcal/mol)

>  <smiles>  (85) 
CN(CCCO)C(=O)n1c(C(N)=O)cc2ccc(C(F)F)cc21

>  <score_type>  (85) 
oracle

>  <origin>  (85) 
adg

>  <m_score__min__energy>  (85) 
-9.9900000000000002

>  <m_primary>  (85) 
energy

$$$$
88:0
     RDKit          3D

 49 51  0  0  0  0  0  0  0  0999 V2000
   -4.9900   15.6610  -32.3210 C   0  0  0  0  0  0  0  0  0  0  0  0
   -5.3510   15.8660  -33.8140 C   0  0  1  0  0  0  0  0  0  0  0  0
   -6.0680   17.2200  -33.9890 C   0  0  0  0  0  0  0  0  0  0  0  0
   -5.1210   18.3210  -33.7710 N   0  0  0  0  0  0  0  0  0  0  0  0
   -5.5630   19.5730  -33.2040 C   0  0  0  0  0  0  0  0  0  0  0  0
   -6.9360   19.9360  -33.2490 C   0  0  0  0  0  0  0  0  0  0  0  0
   -7.3810   21.1440  -32.6870 C   0  0  0  0  0  0  0  0  0  0  0  0
   -6.4370   21.9750  -32.0950 C   0  0  0  0  0  0  0  0  0  0  0  0
   -6.5980   23.1830  -31.4540 C   0  0  0  0  0  0  0  0  0  0  0  0
   -5.3210   23.5550  -31.0420 C   0  0  0  0  0  0  0  0  0  0  0  0
   -5.0210   24.8400  -30.3760 C   0  0  0  0  0  0  0  0  0  0  0  0
   -3.9460   25.6490  -30.8480 N   0  0  0  0  0  0  0  0  0  0  0  0
   -5.6810   25.2160  -29.3720 O   0  0  0  0  0  0  0  0  0  0  0  0
   -4.4060   22.6120  -31.4090 N   0  0  0  0  0  0  0  0  0  0  0  0
   -3.0020   22.5870  -31.1080 C   0  0  0  0  0  0  0  0  0  0  0  0
   -2.2690   21.6920  -31.6110 O   0  0  0  0  0  0  0  0  0  0  0  0
   -2.4590   23.5420  -30.2420 O   0  0  0  0  0  0  0  0  0  0  0  0
   -2.6330   23.5100  -28.8260 C   0  0  0  0  0  0  0  0  0  0  0  0
   -1.9980   24.7350  -28.1680 C   0  0  0  0  0  0  0  0  0  0  0  0
   -1.6020   25.6650  -29.1400 O   0  0  0  0  0  0  0  0  0  0  0  0
   -5.1060   21.6530  -32.0540 C   0  0  0  0  0  0  0  0  0  0  0  0
   -4.6360   20.4480  -32.5870 C   0  0  0  0  0  0  0  0  0  0  0  0
   -3.7250   18.1560  -34.2000 C   0  0  0  0  0  0  0  0  0  0  0  0
   -3.6040   17.0240  -35.2290 C   0  0  0  0  0  0  0  0  0  0  0  0
   -4.1950   15.7360  -34.7630 N   0  0  1  0  0  0  0  0  0  0  0  0
   -3.1750   14.8190  -34.3020 C   0  0  0  0  0  0  0  0  0  0  0  0
   -3.2380   13.5900  -34.5780 O   0  0  0  0  0  0  0  0  0  0  0  0
   -2.0770   15.3000  -33.5970 O   0  0  0  0  0  0  0  0  0  0  0  0
   -5.7734   16.1059  -31.6899 H   0  0  0  0  0  0  0  0  0  0  0  0
   -4.9137   14.5848  -32.1067 H   0  0  0  0  0  0  0  0  0  0  0  0
   -4.0266   16.1468  -32.1067 H   0  0  0  0  0  0  0  0  0  0  0  0
   -6.0248   15.0405  -34.0868 H   0  0  0  0  0  0  0  0  0  0  0  0
   -6.4764   17.2870  -35.0082 H   0  0  0  0  0  0  0  0  0  0  0  0
   -6.8838   17.2944  -33.2549 H   0  0  0  0  0  0  0  0  0  0  0  0
   -7.6600   19.2621  -33.7303 H   0  0  0  0  0  0  0  0  0  0  0  0
   -8.4444   21.4239  -32.7145 H   0  0  0  0  0  0  0  0  0  0  0  0
   -7.5361   23.7365  -31.3001 H   0  0  0  0  0  0  0  0  0  0  0  0
   -2.9610   25.3050  -30.8170 H   0  0  0  0  0  0  0  0  0  0  0  0
   -3.7086   23.4952  -28.5960 H   0  0  0  0  0  0  0  0  0  0  0  0
   -2.1423   22.6073  -28.4330 H   0  0  0  0  0  0  0  0  0  0  0  0
   -2.7303   25.2046  -27.4948 H   0  0  0  0  0  0  0  0  0  0  0  0
   -1.1119   24.4146  -27.6004 H   0  0  0  0  0  0  0  0  0  0  0  0
   -2.3090   25.6690  -29.8360 H   0  0  0  0  0  0  0  0  0  0  0  0
   -3.5693   20.1858  -32.5281 H   0  0  0  0  0  0  0  0  0  0  0  0
   -3.3730   19.0947  -34.6527 H   0  0  0  0  0  0  0  0  0  0  0  0
   -3.1128   17.9027  -33.3219 H   0  0  0  0  0  0  0  0  0  0  0  0
   -4.1212   17.3324  -36.1495 H   0  0  0  0  0  0  0  0  0  0  0  0
   -2.5308   16.8484  -35.3949 H   0  0  0  0  0  0  0  0  0  0  0  0
   -4.5860   15.2910  -35.6290 H   0  0  0  0  0  0  0  0  0  0  0  0
  1  2  1  0
  2  3  1  0
  3  4  1  0
  4  5  1  0
  5  6  2  0
  6  7  1  0
  7  8  2  0
  8  9  1  0
  9 10  2  0
 10 11  1  0
 11 12  1  0
 11 13  2  0
 10 14  1  0
 14 15  1  0
 15 16  2  0
 15 17  1  0
 17 18  1  0
 18 19  1  0
 19 20  1  0
 14 21  1  0
 21 22  2  0
  4 23  1  0
 23 24  1  0
 24 25  1  0
 25 26  1  0
 26 27  2  0
 26 28  1  0
 25  2  1  0
 22  5  1  0
 21  8  1  0
  1 29  1  0
  1 30  1  0
  1 31  1  0
  2 32  1  6
  3 33  1  0
  3 34  1  0
  6 35  1  0
  7 36  1  0
  9 37  1  0
 12 38  1  0
 18 39  1  0
 18 40  1  0
 19 41  1  0
 19 42  1  0
 20 43  1  0
 22 44  1  0
 23 45  1  0
 23 46  1  0
 24 47  1  0
 24 48  1  0
 25 49  1  6
M  CHG  3  12  -1  25   1  28  -1
M  END
>  <UniqueID>  (86) 
85

>  <SMILES>  (86) 
C[C@H]1CN(c2ccc3cc(C([NH-])=O)n(C(=O)OCCO)c3c2)CC[N@H+]1C(=O)[O-]

>  <Energy>  (86) 
102.31129985829232

>  <Genealogy>  (86) 
C[C@H]1CN(c2ccc3cc(C([NH-])=O)n(C(=O)OCCO)c3c2)CC[NH+]1C(=O)[O-] (protonated)
C[C@H]1CN(c2ccc3cc(C([NH-])=O)n(C(=O)OCCO)c3c2)CC[N@H+]1C(=O)[O-] (chirality)
C[C@H]1CN(c2ccc3cc(C([NH-])=O)n(C(=O)OCCO)c3c2)CC[N@H+]1C(=O)[O-] (3D coordinates assigned)
C[C@H]1CN(c2ccc3cc(C([NH-])=O)n(C(=O)OCCO)c3c2)CC[N@H+]1C(=O)[O-] (nonaromatic ring conformer: 102.31129985829232 kcal/mol)

>  <smiles>  (86) 
C[C@H]1CN(c2ccc3cc(C(N)=O)n(C(=O)OCCO)c3c2)CCN1C(=O)O

>  <score_type>  (86) 
oracle

>  <origin>  (86) 
adg

>  <m_score__min__energy>  (86) 
-10.42

>  <m_primary>  (86) 
energy

$$$$
89:0
     RDKit          3D

 34 35  0  0  0  0  0  0  0  0999 V2000
   -2.0840   22.3480  -27.4080 C   0  0  0  0  0  0  0  0  0  0  0  0
   -2.3910   22.8450  -28.7940 C   0  0  0  0  0  0  0  0  0  0  0  0
   -3.3010   22.1760  -29.5310 C   0  0  0  0  0  0  0  0  0  0  0  0
   -3.8760   22.6320  -30.8150 C   0  0  0  0  0  0  0  0  0  0  0  0
   -3.0930   22.8420  -31.7790 O   0  0  0  0  0  0  0  0  0  0  0  0
   -5.2970   22.7530  -31.0220 N   0  0  0  0  0  0  0  0  0  0  0  0
   -6.0420   23.8950  -30.9780 C   0  0  0  0  0  0  0  0  0  0  0  0
   -5.5430   25.2270  -30.5660 C   0  0  0  0  0  0  0  0  0  0  0  0
   -4.1920   25.6160  -30.8210 N   0  0  0  0  0  0  0  0  0  0  0  0
   -6.3170   26.0440  -30.0010 O   0  0  0  0  0  0  0  0  0  0  0  0
   -7.3700   23.6220  -31.3030 C   0  0  0  0  0  0  0  0  0  0  0  0
   -7.4130   22.2720  -31.5610 C   0  0  0  0  0  0  0  0  0  0  0  0
   -8.4810   21.4720  -31.9560 C   0  0  0  0  0  0  0  0  0  0  0  0
   -8.2330   20.1100  -32.1910 C   0  0  0  0  0  0  0  0  0  0  0  0
   -6.9320   19.5700  -32.0220 C   0  0  0  0  0  0  0  0  0  0  0  0
   -6.6630   18.1200  -32.3350 C   0  0  0  0  0  0  0  0  0  0  0  0
   -6.0250   17.5000  -31.2740 F   0  0  0  0  0  0  0  0  0  0  0  0
   -7.8630   17.4770  -32.5770 F   0  0  0  0  0  0  0  0  0  0  0  0
   -5.8550   18.0050  -33.4530 F   0  0  0  0  0  0  0  0  0  0  0  0
   -5.8670   20.4230  -31.6470 C   0  0  0  0  0  0  0  0  0  0  0  0
   -6.1500   21.7710  -31.3930 C   0  0  0  0  0  0  0  0  0  0  0  0
   -1.6980   24.0640  -29.2650 C   0  0  0  0  0  0  0  0  0  0  0  0
   -0.4660   24.0470  -29.5210 O   0  0  0  0  0  0  0  0  0  0  0  0
   -2.3940   25.2630  -29.3630 O   0  0  0  0  0  0  0  0  0  0  0  0
   -2.5114   23.0399  -26.6673 H   0  0  0  0  0  0  0  0  0  0  0  0
   -2.5222   21.3483  -27.2715 H   0  0  0  0  0  0  0  0  0  0  0  0
   -0.9939   22.2923  -27.2715 H   0  0  0  0  0  0  0  0  0  0  0  0
   -3.6458   21.2061  -29.1431 H   0  0  0  0  0  0  0  0  0  0  0  0
   -3.8660   26.5720  -30.5610 H   0  0  0  0  0  0  0  0  0  0  0  0
   -3.5000   24.9480  -31.2280 H   0  0  0  0  0  0  0  0  0  0  0  0
   -8.2063   24.3354  -31.3443 H   0  0  0  0  0  0  0  0  0  0  0  0
   -9.4892   21.8939  -32.0804 H   0  0  0  0  0  0  0  0  0  0  0  0
   -9.0567   19.4544  -32.5097 H   0  0  0  0  0  0  0  0  0  0  0  0
   -4.8411   20.0365  -31.5571 H   0  0  0  0  0  0  0  0  0  0  0  0
  1  2  1  0
  2  3  2  3
  3  4  1  0
  4  5  2  0
  4  6  1  0
  6  7  1  0
  7  8  1  0
  8  9  1  0
  8 10  2  0
  7 11  2  0
 11 12  1  0
 12 13  2  0
 13 14  1  0
 14 15  2  0
 15 16  1  0
 16 17  1  0
 16 18  1  0
 16 19  1  0
 15 20  1  0
 20 21  2  0
  2 22  1  0
 22 23  2  0
 22 24  1  0
 21  6  1  0
 21 12  1  0
  1 25  1  0
  1 26  1  0
  1 27  1  0
  3 28  1  0
  9 29  1  0
  9 30  1  0
 11 31  1  0
 13 32  1  0
 14 33  1  0
 20 34  1  0
M  CHG  1  24  -1
M  END
>  <UniqueID>  (87) 
86

>  <SMILES>  (87) 
CC(=CC(=O)n1c(C(N)=O)cc2ccc(C(F)(F)F)cc21)C(=O)[O-]

>  <Energy>  (87) 
79.378195513514

>  <Genealogy>  (87) 
CC(=CC(=O)n1c(C(N)=O)cc2ccc(C(F)(F)F)cc21)C(=O)[O-] (protonated)
CC(=CC(=O)n1c(C(N)=O)cc2ccc(C(F)(F)F)cc21)C(=O)[O-] (3D coordinates assigned)
CC(=CC(=O)n1c(C(N)=O)cc2ccc(C(F)(F)F)cc21)C(=O)[O-] (optimized conformer: 79.378195513514 kcal/mol)

>  <smiles>  (87) 
CC(=CC(=O)n1c(C(N)=O)cc2ccc(C(F)(F)F)cc21)C(=O)O

>  <score_type>  (87) 
oracle

>  <origin>  (87) 
adg

>  <m_score__min__energy>  (87) 
-10.880000000000001

>  <m_primary>  (87) 
energy

$$$$
90:0
     RDKit          3D

 35 36  0  0  0  0  0  0  0  0999 V2000
   -6.3870   17.9900  -32.6560 C   0  0  0  0  0  0  0  0  0  0  0  0
   -7.2530   18.9030  -33.4050 N   0  0  0  0  0  0  0  0  0  0  0  0
   -7.3250   20.1790  -32.7380 C   0  0  0  0  0  0  0  0  0  0  0  0
   -8.5830   20.7300  -32.3840 C   0  0  0  0  0  0  0  0  0  0  0  0
   -8.6660   21.9810  -31.7490 C   0  0  0  0  0  0  0  0  0  0  0  0
   -7.4800   22.6630  -31.4940 C   0  0  0  0  0  0  0  0  0  0  0  0
   -7.2710   23.8730  -30.8740 C   0  0  0  0  0  0  0  0  0  0  0  0
   -5.8910   24.0620  -30.8890 C   0  0  0  0  0  0  0  0  0  0  0  0
   -5.2330   25.2880  -30.3920 C   0  0  0  0  0  0  0  0  0  0  0  0
   -3.9370   25.6630  -30.8510 N   0  0  0  0  0  0  0  0  0  0  0  0
   -5.8440   26.0420  -29.5880 O   0  0  0  0  0  0  0  0  0  0  0  0
   -5.2690   23.0070  -31.4880 N   0  0  0  0  0  0  0  0  0  0  0  0
   -3.8580   22.7750  -31.6130 C   0  0  0  0  0  0  0  0  0  0  0  0
   -3.3890   22.3200  -32.6910 O   0  0  0  0  0  0  0  0  0  0  0  0
   -3.0140   23.0420  -30.5290 O   0  0  0  0  0  0  0  0  0  0  0  0
   -3.4370   22.9830  -29.1680 C   0  0  0  0  0  0  0  0  0  0  0  0
   -2.7820   24.0930  -28.3450 C   0  0  0  0  0  0  0  0  0  0  0  0
   -2.0130   24.9280  -29.1680 O   0  0  0  0  0  0  0  0  0  0  0  0
   -6.2570   22.1600  -31.8550 C   0  0  0  0  0  0  0  0  0  0  0  0
   -6.1430   20.9080  -32.4710 C   0  0  0  0  0  0  0  0  0  0  0  0
   -6.5352   18.1463  -31.5773 H   0  0  0  0  0  0  0  0  0  0  0  0
   -6.6393   16.9509  -32.9140 H   0  0  0  0  0  0  0  0  0  0  0  0
   -5.3360   18.1871  -32.9140 H   0  0  0  0  0  0  0  0  0  0  0  0
   -6.8720   19.0240  -34.3730 H   0  0  0  0  0  0  0  0  0  0  0  0
   -8.2100   18.4840  -33.4840 H   0  0  0  0  0  0  0  0  0  0  0  0
   -9.5039   20.1720  -32.6089 H   0  0  0  0  0  0  0  0  0  0  0  0
   -9.6384   22.4079  -31.4624 H   0  0  0  0  0  0  0  0  0  0  0  0
   -8.0320   24.5480  -30.4553 H   0  0  0  0  0  0  0  0  0  0  0  0
   -3.0770   25.2380  -30.4400 H   0  0  0  0  0  0  0  0  0  0  0  0
   -4.5299   23.0998  -29.1250 H   0  0  0  0  0  0  0  0  0  0  0  0
   -3.1380   22.0111  -28.7486 H   0  0  0  0  0  0  0  0  0  0  0  0
   -3.5652   24.6900  -27.8549 H   0  0  0  0  0  0  0  0  0  0  0  0
   -2.1251   23.6353  -27.5907 H   0  0  0  0  0  0  0  0  0  0  0  0
   -2.1160   24.5860  -30.0940 H   0  0  0  0  0  0  0  0  0  0  0  0
   -5.1574   20.5010  -32.7409 H   0  0  0  0  0  0  0  0  0  0  0  0
  1  2  1  0
  2  3  1  0
  3  4  2  0
  4  5  1  0
  5  6  2  0
  6  7  1  0
  7  8  2  0
  8  9  1  0
  9 10  1  0
  9 11  2  0
  8 12  1  0
 12 13  1  0
 13 14  2  0
 13 15  1  0
 15 16  1  0
 16 17  1  0
 17 18  1  0
 12 19  1  0
 19 20  2  0
 20  3  1  0
 19  6  1  0
  1 21  1  0
  1 22  1  0
  1 23  1  0
  2 24  1  0
  2 25  1  0
  4 26  1  0
  5 27  1  0
  7 28  1  0
 10 29  1  0
 16 30  1  0
 16 31  1  0
 17 32  1  0
 17 33  1  0
 18 34  1  0
 20 35  1  0
M  CHG  2   2   1  10  -1
M  END
>  <UniqueID>  (88) 
87

>  <SMILES>  (88) 
C[NH2+]c1ccc2cc(C([NH-])=O)n(C(=O)OCCO)c2c1

>  <Energy>  (88) 
70.48977128119041

>  <Genealogy>  (88) 
C[NH2+]c1ccc2cc(C([NH-])=O)n(C(=O)OCCO)c2c1 (protonated)
C[NH2+]c1ccc2cc(C([NH-])=O)n(C(=O)OCCO)c2c1 (3D coordinates assigned)
C[NH2+]c1ccc2cc(C([NH-])=O)n(C(=O)OCCO)c2c1 (optimized conformer: 70.48977128119041 kcal/mol)

>  <smiles>  (88) 
CNc1ccc2cc(C(N)=O)n(C(=O)OCCO)c2c1

>  <score_type>  (88) 
oracle

>  <origin>  (88) 
adg

>  <m_score__min__energy>  (88) 
-9.4299999999999997

>  <m_primary>  (88) 
energy

$$$$
91:0
     RDKit          3D

 41 42  0  0  0  0  0  0  0  0999 V2000
   -6.0710   18.2540  -34.1000 C   0  0  0  0  0  0  0  0  0  0  0  0
   -6.7640   18.3920  -32.7480 C   0  0  0  0  0  0  0  0  0  0  0  0
   -6.9340   19.8420  -32.3830 C   0  0  0  0  0  0  0  0  0  0  0  0
   -8.2280   20.4210  -32.3550 C   0  0  0  0  0  0  0  0  0  0  0  0
   -8.4010   21.7690  -31.9960 C   0  0  0  0  0  0  0  0  0  0  0  0
   -7.2690   22.5040  -31.6570 C   0  0  0  0  0  0  0  0  0  0  0  0
   -7.1480   23.8240  -31.2920 C   0  0  0  0  0  0  0  0  0  0  0  0
   -5.7860   24.0230  -31.0680 C   0  0  0  0  0  0  0  0  0  0  0  0
   -5.2220   25.2920  -30.5640 C   0  0  0  0  0  0  0  0  0  0  0  0
   -3.8740   25.6570  -30.8450 N   0  0  0  0  0  0  0  0  0  0  0  0
   -5.9250   26.0420  -29.8360 O   0  0  0  0  0  0  0  0  0  0  0  0
   -5.0930   22.8720  -31.2960 N   0  0  0  0  0  0  0  0  0  0  0  0
   -3.6710   22.6760  -31.2530 C   0  0  0  0  0  0  0  0  0  0  0  0
   -3.0910   22.0730  -32.1970 O   0  0  0  0  0  0  0  0  0  0  0  0
   -2.9390   23.1360  -30.1520 O   0  0  0  0  0  0  0  0  0  0  0  0
   -1.5230   23.0110  -30.0470 C   0  0  0  0  0  0  0  0  0  0  0  0
   -0.9580   24.1250  -29.2250 C   0  0  0  0  0  0  0  0  0  0  0  0
    0.2760   24.1440  -28.9650 O   0  0  0  0  0  0  0  0  0  0  0  0
   -1.8030   25.1390  -28.7640 O   0  0  0  0  0  0  0  0  0  0  0  0
   -2.1690   25.2930  -27.3930 C   0  0  0  0  0  0  0  0  0  0  0  0
   -3.4800   24.5630  -27.0930 C   0  0  0  0  0  0  0  0  0  0  0  0
   -4.1530   24.2500  -28.2830 O   0  0  0  0  0  0  0  0  0  0  0  0
   -6.0140   21.9500  -31.6520 C   0  0  0  0  0  0  0  0  0  0  0  0
   -5.8100   20.6160  -32.0230 C   0  0  0  0  0  0  0  0  0  0  0  0
   -5.0030   18.0413  -33.9446 H   0  0  0  0  0  0  0  0  0  0  0  0
   -6.5306   17.4297  -34.6651 H   0  0  0  0  0  0  0  0  0  0  0  0
   -6.1797   19.1914  -34.6651 H   0  0  0  0  0  0  0  0  0  0  0  0
   -7.7534   17.9141  -32.7989 H   0  0  0  0  0  0  0  0  0  0  0  0
   -6.1438   17.9047  -31.9813 H   0  0  0  0  0  0  0  0  0  0  0  0
   -9.1044   19.8098  -32.6166 H   0  0  0  0  0  0  0  0  0  0  0  0
   -9.4003   22.2287  -31.9834 H   0  0  0  0  0  0  0  0  0  0  0  0
   -7.9546   24.5659  -31.1968 H   0  0  0  0  0  0  0  0  0  0  0  0
   -3.0850   25.2810  -30.2730 H   0  0  0  0  0  0  0  0  0  0  0  0
   -1.2788   22.0500  -29.5708 H   0  0  0  0  0  0  0  0  0  0  0  0
   -1.0863   23.0564  -31.0556 H   0  0  0  0  0  0  0  0  0  0  0  0
   -1.3721   24.8777  -26.7586 H   0  0  0  0  0  0  0  0  0  0  0  0
   -2.3072   26.3641  -27.1841 H   0  0  0  0  0  0  0  0  0  0  0  0
   -3.2599   23.6339  -26.5468 H   0  0  0  0  0  0  0  0  0  0  0  0
   -4.1204   25.2187  -26.4848 H   0  0  0  0  0  0  0  0  0  0  0  0
   -3.7930   24.8560  -28.9820 H   0  0  0  0  0  0  0  0  0  0  0  0
   -4.7994   20.1818  -32.0337 H   0  0  0  0  0  0  0  0  0  0  0  0
  1  2  1  0
  2  3  1  0
  3  4  2  0
  4  5  1  0
  5  6  2  0
  6  7  1  0
  7  8  2  0
  8  9  1  0
  9 10  1  0
  9 11  2  0
  8 12  1  0
 12 13  1  0
 13 14  2  0
 13 15  1  0
 15 16  1  0
 16 17  1  0
 17 18  2  0
 17 19  1  0
 19 20  1  0
 20 21  1  0
 21 22  1  0
 12 23  1  0
 23 24  2  0
 24  3  1  0
 23  6  1  0
  1 25  1  0
  1 26  1  0
  1 27  1  0
  2 28  1  0
  2 29  1  0
  4 30  1  0
  5 31  1  0
  7 32  1  0
 10 33  1  0
 16 34  1  0
 16 35  1  0
 20 36  1  0
 20 37  1  0
 21 38  1  0
 21 39  1  0
 22 40  1  0
 24 41  1  0
M  CHG  1  10  -1
M  END
>  <UniqueID>  (89) 
88

>  <SMILES>  (89) 
CCc1ccc2cc(C([NH-])=O)n(C(=O)OCC(=O)OCCO)c2c1

>  <Energy>  (89) 
69.70206206108834

>  <Genealogy>  (89) 
CCc1ccc2cc(C([NH-])=O)n(C(=O)OCC(=O)OCCO)c2c1 (protonated)
CCc1ccc2cc(C([NH-])=O)n(C(=O)OCC(=O)OCCO)c2c1 (3D coordinates assigned)
CCc1ccc2cc(C([NH-])=O)n(C(=O)OCC(=O)OCCO)c2c1 (optimized conformer: 69.70206206108834 kcal/mol)

>  <smiles>  (89) 
CCc1ccc2cc(C(N)=O)n(C(=O)OCC(=O)OCCO)c2c1

>  <score_type>  (89) 
oracle

>  <origin>  (89) 
adg

>  <m_score__min__energy>  (89) 
-9.8000000000000007

>  <m_primary>  (89) 
energy

$$$$
92:0
     RDKit          3D

 30 31  0  0  0  0  0  0  0  0999 V2000
   -0.7190   21.6900  -34.0080 N   0  0  0  0  0  0  0  0  0  0  0  0
   -1.3790   21.3730  -32.7850 C   0  0  0  0  0  0  0  0  0  0  0  0
   -0.7500   21.4810  -31.6980 O   0  0  0  0  0  0  0  0  0  0  0  0
   -2.7730   20.8810  -32.7790 C   0  0  0  0  0  0  0  0  0  0  0  0
   -3.1740   19.6790  -33.3600 C   0  0  0  0  0  0  0  0  0  0  0  0
   -4.5400   19.6340  -33.2010 C   0  0  0  0  0  0  0  0  0  0  0  0
   -5.4590   18.6590  -33.5800 C   0  0  0  0  0  0  0  0  0  0  0  0
   -6.8120   18.8690  -33.2610 C   0  0  0  0  0  0  0  0  0  0  0  0
   -7.2190   20.0400  -32.5720 C   0  0  0  0  0  0  0  0  0  0  0  0
   -8.6630   20.2550  -32.2220 C   0  0  0  0  0  0  0  0  0  0  0  0
   -8.9710   21.6000  -32.3220 F   0  0  0  0  0  0  0  0  0  0  0  0
   -9.4660   19.5380  -33.0900 F   0  0  0  0  0  0  0  0  0  0  0  0
   -6.2570   21.0070  -32.2050 C   0  0  0  0  0  0  0  0  0  0  0  0
   -4.9220   20.7750  -32.5440 C   0  0  0  0  0  0  0  0  0  0  0  0
   -3.8500   21.5450  -32.2740 N   0  0  0  0  0  0  0  0  0  0  0  0
   -3.8630   22.7690  -31.5260 C   0  0  0  0  0  0  0  0  0  0  0  0
   -4.8010   23.5930  -31.6950 O   0  0  0  0  0  0  0  0  0  0  0  0
   -2.8410   23.0180  -30.4600 C   0  0  0  0  0  0  0  0  0  0  0  0
   -3.0970   24.6610  -29.7280 P   0  0  0  0  0  0  0  0  0  0  0  0
   -3.9460   24.5390  -28.4840 O   0  0  0  0  0  0  0  0  0  0  0  0
   -1.5980   25.3290  -29.3180 O   0  0  0  0  0  0  0  0  0  0  0  0
   -3.8720   25.6680  -30.8430 O   0  0  0  0  0  0  0  0  0  0  0  0
   -1.2630   21.9690  -34.8540 H   0  0  0  0  0  0  0  0  0  0  0  0
   -2.5340   18.9260  -33.8432 H   0  0  0  0  0  0  0  0  0  0  0  0
   -5.1363   17.7523  -34.1127 H   0  0  0  0  0  0  0  0  0  0  0  0
   -7.5623   18.1178  -33.5486 H   0  0  0  0  0  0  0  0  0  0  0  0
   -8.8381   19.9121  -31.1916 H   0  0  0  0  0  0  0  0  0  0  0  0
   -6.5517   21.9195  -31.6660 H   0  0  0  0  0  0  0  0  0  0  0  0
   -2.9365   22.2512  -29.6771 H   0  0  0  0  0  0  0  0  0  0  0  0
   -1.8360   22.9728  -30.9048 H   0  0  0  0  0  0  0  0  0  0  0  0
  1  2  1  0
  2  3  2  0
  2  4  1  0
  4  5  2  0
  5  6  1  0
  6  7  2  0
  7  8  1  0
  8  9  2  0
  9 10  1  0
 10 11  1  0
 10 12  1  0
  9 13  1  0
 13 14  2  0
 14 15  1  0
 15 16  1  0
 16 17  2  0
 16 18  1  0
 18 19  1  0
 19 20  2  0
 19 21  1  0
 19 22  1  0
 15  4  1  0
 14  6  1  0
  1 23  1  0
  5 24  1  0
  7 25  1  0
  8 26  1  0
 10 27  1  0
 13 28  1  0
 18 29  1  0
 18 30  1  0
M  CHG  3   1  -1  21  -1  22  -1
M  END
>  <UniqueID>  (90) 
89

>  <SMILES>  (90) 
[NH-]C(=O)c1cc2ccc(C(F)F)cc2n1C(=O)CP(=O)([O-])[O-]

>  <Energy>  (90) 
64.31648730277757

>  <Genealogy>  (90) 
[NH-]C(=O)c1cc2ccc(C(F)F)cc2n1C(=O)CP(=O)([O-])[O-] (protonated)
[NH-]C(=O)c1cc2ccc(C(F)F)cc2n1C(=O)CP(=O)([O-])[O-] (3D coordinates assigned)
[NH-]C(=O)c1cc2ccc(C(F)F)cc2n1C(=O)CP(=O)([O-])[O-] (optimized conformer: 64.31648730277757 kcal/mol)

>  <smiles>  (90) 
NC(=O)c1cc2ccc(C(F)F)cc2n1C(=O)CP(=O)(O)O

>  <score_type>  (90) 
oracle

>  <origin>  (90) 
adg

>  <m_score__min__energy>  (90) 
-12.300000000000001

>  <m_primary>  (90) 
energy

$$$$
93:0
     RDKit          3D

 32 33  0  0  0  0  0  0  0  0999 V2000
   -6.1950   17.4300  -32.0160 C   0  0  0  0  0  0  0  0  0  0  0  0
   -6.6390   18.4910  -32.9120 N   0  0  0  0  0  0  0  0  0  0  0  0
   -6.8870   19.8430  -32.4840 C   0  0  0  0  0  0  0  0  0  0  0  0
   -8.2040   20.3710  -32.4110 C   0  0  0  0  0  0  0  0  0  0  0  0
   -8.4280   21.6880  -31.9800 C   0  0  0  0  0  0  0  0  0  0  0  0
   -7.3210   22.4590  -31.6350 C   0  0  0  0  0  0  0  0  0  0  0  0
   -7.2550   23.7490  -31.1640 C   0  0  0  0  0  0  0  0  0  0  0  0
   -5.8990   24.0040  -30.9750 C   0  0  0  0  0  0  0  0  0  0  0  0
   -5.3680   25.3170  -30.5520 C   0  0  0  0  0  0  0  0  0  0  0  0
   -4.0150   25.6620  -30.8420 N   0  0  0  0  0  0  0  0  0  0  0  0
   -6.0860   26.1250  -29.9050 O   0  0  0  0  0  0  0  0  0  0  0  0
   -5.1560   22.9120  -31.3110 N   0  0  0  0  0  0  0  0  0  0  0  0
   -3.7350   22.7450  -31.1870 C   0  0  0  0  0  0  0  0  0  0  0  0
   -3.0520   22.4090  -32.1920 O   0  0  0  0  0  0  0  0  0  0  0  0
   -3.1180   22.9360  -29.9450 O   0  0  0  0  0  0  0  0  0  0  0  0
   -1.7050   22.8990  -29.7580 C   0  0  0  0  0  0  0  0  0  0  0  0
   -1.2020   24.2400  -29.3280 C   0  0  0  0  0  0  0  0  0  0  0  0
   -1.9660   25.2410  -29.3460 O   0  0  0  0  0  0  0  0  0  0  0  0
    0.1200   24.3890  -28.9300 O   0  0  0  0  0  0  0  0  0  0  0  0
   -6.0420   21.9750  -31.7150 C   0  0  0  0  0  0  0  0  0  0  0  0
   -5.7910   20.6600  -32.1240 C   0  0  0  0  0  0  0  0  0  0  0  0
   -6.3294   17.7511  -30.9725 H   0  0  0  0  0  0  0  0  0  0  0  0
   -6.7888   16.5225  -32.1997 H   0  0  0  0  0  0  0  0  0  0  0  0
   -5.1318   17.2159  -32.1997 H   0  0  0  0  0  0  0  0  0  0  0  0
   -6.7810   18.2470  -33.9190 H   0  0  0  0  0  0  0  0  0  0  0  0
   -9.0588   19.7399  -32.6958 H   0  0  0  0  0  0  0  0  0  0  0  0
   -9.4466   22.0983  -31.9167 H   0  0  0  0  0  0  0  0  0  0  0  0
   -8.0949   24.4341  -30.9763 H   0  0  0  0  0  0  0  0  0  0  0  0
   -3.2660   24.9350  -30.8510 H   0  0  0  0  0  0  0  0  0  0  0  0
   -1.4608   22.1552  -28.9853 H   0  0  0  0  0  0  0  0  0  0  0  0
   -1.2256   22.6259  -30.7096 H   0  0  0  0  0  0  0  0  0  0  0  0
   -4.7630   20.2708  -32.1644 H   0  0  0  0  0  0  0  0  0  0  0  0
  1  2  1  0
  2  3  1  0
  3  4  2  0
  4  5  1  0
  5  6  2  0
  6  7  1  0
  7  8  2  0
  8  9  1  0
  9 10  1  0
  9 11  2  0
  8 12  1  0
 12 13  1  0
 13 14  2  0
 13 15  1  0
 15 16  1  0
 16 17  1  0
 17 18  2  0
 17 19  1  0
 12 20  1  0
 20 21  2  0
 21  3  1  0
 20  6  1  0
  1 22  1  0
  1 23  1  0
  1 24  1  0
  2 25  1  0
  4 26  1  0
  5 27  1  0
  7 28  1  0
 10 29  1  0
 16 30  1  0
 16 31  1  0
 21 32  1  0
M  CHG  2  10  -1  19  -1
M  END
>  <UniqueID>  (91) 
90

>  <SMILES>  (91) 
CNc1ccc2cc(C([NH-])=O)n(C(=O)OCC(=O)[O-])c2c1

>  <Energy>  (91) 
67.53740494896316

>  <Genealogy>  (91) 
CNc1ccc2cc(C([NH-])=O)n(C(=O)OCC(=O)[O-])c2c1 (protonated)
CNc1ccc2cc(C([NH-])=O)n(C(=O)OCC(=O)[O-])c2c1 (3D coordinates assigned)
CNc1ccc2cc(C([NH-])=O)n(C(=O)OCC(=O)[O-])c2c1 (optimized conformer: 67.53740494896316 kcal/mol)

>  <smiles>  (91) 
CNc1ccc2cc(C(N)=O)n(C(=O)OCC(=O)O)c2c1

>  <score_type>  (91) 
oracle

>  <origin>  (91) 
adg

>  <m_score__min__energy>  (91) 
-11.49

>  <m_primary>  (91) 
energy

$$$$
