0:0
     RDKit          3D

 35 36  0  0  0  0  0  0  0  0999 V2000
   -6.0130   23.7450  -29.3990 N   0  0  0  0  0  0  0  0  0  0  0  0
   -6.5550   22.6730  -30.1730 C   0  0  0  0  0  0  0  0  0  0  0  0
   -7.7900   22.4360  -30.1110 O   0  0  0  0  0  0  0  0  0  0  0  0
   -5.6830   21.8320  -31.0240 C   0  0  0  0  0  0  0  0  0  0  0  0
   -6.1150   21.1400  -32.1560 C   0  0  0  0  0  0  0  0  0  0  0  0
   -4.9800   20.5710  -32.6910 C   0  0  0  0  0  0  0  0  0  0  0  0
   -4.8230   19.7660  -33.8140 C   0  0  0  0  0  0  0  0  0  0  0  0
   -3.5310   19.3020  -34.1180 C   0  0  0  0  0  0  0  0  0  0  0  0
   -2.4220   19.6470  -33.2960 C   0  0  0  0  0  0  0  0  0  0  0  0
   -1.0890   19.1760  -33.5820 N   0  0  0  0  0  0  0  0  0  0  0  0
   -0.1790   19.7970  -34.5420 C   0  0  0  0  0  0  0  0  0  0  0  0
    0.2510   21.1470  -34.0610 C   0  0  0  0  0  0  0  0  0  0  0  0
    0.2940   21.3950  -32.8270 O   0  0  0  0  0  0  0  0  0  0  0  0
    0.6270   22.1250  -34.9730 O   0  0  0  0  0  0  0  0  0  0  0  0
   -2.6280   20.4670  -32.1650 C   0  0  0  0  0  0  0  0  0  0  0  0
   -3.9220   20.9200  -31.8950 C   0  0  0  0  0  0  0  0  0  0  0  0
   -4.3380   21.6900  -30.8690 N   0  0  0  0  0  0  0  0  0  0  0  0
   -3.5150   22.1890  -29.8040 C   0  0  0  0  0  0  0  0  0  0  0  0
   -3.7920   21.8930  -28.6110 O   0  0  0  0  0  0  0  0  0  0  0  0
   -2.4050   23.1530  -30.0890 C   0  0  0  0  0  0  0  0  0  0  0  0
   -2.8170   24.7880  -29.4120 P   0  0  0  0  0  0  0  0  0  0  0  0
   -3.4850   24.6310  -28.0650 O   0  0  0  0  0  0  0  0  0  0  0  0
   -1.3990   25.6910  -29.2330 O   0  0  0  0  0  0  0  0  0  0  0  0
   -3.8630   25.5930  -30.4690 O   0  0  0  0  0  0  0  0  0  0  0  0
   -5.0080   24.0150  -29.4710 H   0  0  0  0  0  0  0  0  0  0  0  0
   -6.6360   24.3060  -28.7760 H   0  0  0  0  0  0  0  0  0  0  0  0
   -7.1432   21.0647  -32.5397 H   0  0  0  0  0  0  0  0  0  0  0  0
   -5.6836   19.5003  -34.4454 H   0  0  0  0  0  0  0  0  0  0  0  0
   -3.3758   18.6651  -35.0013 H   0  0  0  0  0  0  0  0  0  0  0  0
   -0.7400   18.3340  -33.0690 H   0  0  0  0  0  0  0  0  0  0  0  0
    0.7076   19.1578  -34.6657 H   0  0  0  0  0  0  0  0  0  0  0  0
   -0.7014   19.9123  -35.5032 H   0  0  0  0  0  0  0  0  0  0  0  0
   -1.7880   20.7432  -31.5107 H   0  0  0  0  0  0  0  0  0  0  0  0
   -1.4772   22.7888  -29.6237 H   0  0  0  0  0  0  0  0  0  0  0  0
   -2.2676   23.2357  -31.1772 H   0  0  0  0  0  0  0  0  0  0  0  0
  1  2  1  0
  2  3  2  0
  2  4  1  0
  4  5  2  0
  5  6  1  0
  6  7  2  0
  7  8  1  0
  8  9  2  0
  9 10  1  0
 10 11  1  0
 11 12  1  0
 12 13  2  0
 12 14  1  0
  9 15  1  0
 15 16  2  0
 16 17  1  0
 17 18  1  0
 18 19  2  0
 18 20  1  0
 20 21  1  0
 21 22  2  0
 21 23  1  0
 21 24  1  0
 17  4  1  0
 16  6  1  0
  1 25  1  0
  1 26  1  0
  5 27  1  0
  7 28  1  0
  8 29  1  0
 10 30  1  0
 11 31  1  0
 11 32  1  0
 15 33  1  0
 20 34  1  0
 20 35  1  0
M  CHG  3  14  -1  23  -1  24  -1
M  END
>  <UniqueID>  (1) 
1

>  <SMILES>  (1) 
NC(=O)c1cc2ccc(NCC(=O)[O-])cc2n1C(=O)CP(=O)([O-])[O-]

>  <Energy>  (1) 
68.15214681449385

>  <Genealogy>  (1) 
NC(=O)c1cc2ccc(NCC(=O)[O-])cc2n1C(=O)CP(=O)([O-])[O-] (protonated)
NC(=O)c1cc2ccc(NCC(=O)[O-])cc2n1C(=O)CP(=O)([O-])[O-] (3D coordinates assigned)
NC(=O)c1cc2ccc(NCC(=O)[O-])cc2n1C(=O)CP(=O)([O-])[O-] (optimized conformer: 68.15214681449385 kcal/mol)

>  <smiles>  (1) 
NC(=O)c1cc2ccc(NCC(=O)O)cc2n1C(=O)CP(=O)(O)O

>  <score_type>  (1) 
oracle

>  <origin>  (1) 
adg

>  <m_score__min__energy>  (1) 
-11.74

>  <m_primary>  (1) 
energy

$$$$
1:0
     RDKit          3D

 40 41  0  0  0  0  0  0  0  0999 V2000
   -6.0900   16.9830  -31.2630 N   0  0  0  0  0  0  0  0  0  0  0  0
   -6.5740   17.7100  -32.0230 C   0  0  0  0  0  0  0  0  0  0  0  0
   -7.1880   18.6300  -32.9850 C   0  0  0  0  0  0  0  0  0  0  0  0
   -7.2730   20.0090  -32.3930 C   0  0  0  0  0  0  0  0  0  0  0  0
   -8.5360   20.5970  -32.1360 C   0  0  0  0  0  0  0  0  0  0  0  0
   -8.6270   21.9050  -31.6270 C   0  0  0  0  0  0  0  0  0  0  0  0
   -7.4420   22.5960  -31.3900 C   0  0  0  0  0  0  0  0  0  0  0  0
   -7.2410   23.8830  -30.9450 C   0  0  0  0  0  0  0  0  0  0  0  0
   -5.8580   24.0560  -30.9300 C   0  0  0  0  0  0  0  0  0  0  0  0
   -5.1960   25.2880  -30.4510 C   0  0  0  0  0  0  0  0  0  0  0  0
   -3.8640   25.6050  -30.8460 N   0  0  0  0  0  0  0  0  0  0  0  0
   -5.7990   26.0500  -29.6480 O   0  0  0  0  0  0  0  0  0  0  0  0
   -5.2300   22.9230  -31.3500 N   0  0  0  0  0  0  0  0  0  0  0  0
   -3.8280   22.7300  -31.5800 C   0  0  0  0  0  0  0  0  0  0  0  0
   -3.4320   22.2510  -32.6780 O   0  0  0  0  0  0  0  0  0  0  0  0
   -2.9070   23.1070  -30.5960 O   0  0  0  0  0  0  0  0  0  0  0  0
   -2.1450   22.1730  -29.8330 C   0  0  0  0  0  0  0  0  0  0  0  0
   -0.6480   22.3950  -30.0400 C   0  0  0  0  0  0  0  0  0  0  0  0
   -0.2450   23.5480  -29.3310 O   0  0  0  0  0  0  0  0  0  0  0  0
   -0.9410   23.6140  -28.1050 C   0  0  0  0  0  0  0  0  0  0  0  0
   -1.7330   24.9140  -28.0530 C   0  0  0  0  0  0  0  0  0  0  0  0
   -1.6200   25.5820  -29.2780 O   0  0  0  0  0  0  0  0  0  0  0  0
   -6.2120   22.0380  -31.6270 C   0  0  0  0  0  0  0  0  0  0  0  0
   -6.0920   20.7460  -32.1490 C   0  0  0  0  0  0  0  0  0  0  0  0
   -6.5770   18.6627  -33.8991 H   0  0  0  0  0  0  0  0  0  0  0  0
   -8.2014   18.2771  -33.2269 H   0  0  0  0  0  0  0  0  0  0  0  0
   -9.4541   20.0252  -32.3364 H   0  0  0  0  0  0  0  0  0  0  0  0
   -9.6039   22.3675  -31.4226 H   0  0  0  0  0  0  0  0  0  0  0  0
   -8.0084   24.6184  -30.6616 H   0  0  0  0  0  0  0  0  0  0  0  0
   -3.0450   25.2610  -30.2980 H   0  0  0  0  0  0  0  0  0  0  0  0
   -2.3839   22.2987  -28.7666 H   0  0  0  0  0  0  0  0  0  0  0  0
   -2.3994   21.1559  -30.1657 H   0  0  0  0  0  0  0  0  0  0  0  0
   -0.0921   21.5218  -29.6680 H   0  0  0  0  0  0  0  0  0  0  0  0
   -0.4401   22.5298  -31.1117 H   0  0  0  0  0  0  0  0  0  0  0  0
   -1.6292   22.7596  -28.0253 H   0  0  0  0  0  0  0  0  0  0  0  0
   -0.2259   23.5811  -27.2698 H   0  0  0  0  0  0  0  0  0  0  0  0
   -2.7915   24.6901  -27.8544 H   0  0  0  0  0  0  0  0  0  0  0  0
   -1.3348   25.5525  -27.2506 H   0  0  0  0  0  0  0  0  0  0  0  0
   -1.8360   24.9100  -29.9770 H   0  0  0  0  0  0  0  0  0  0  0  0
   -5.1034   20.3144  -32.3642 H   0  0  0  0  0  0  0  0  0  0  0  0
  1  2  3  0
  2  3  1  0
  3  4  1  0
  4  5  2  0
  5  6  1  0
  6  7  2  0
  7  8  1  0
  8  9  2  0
  9 10  1  0
 10 11  1  0
 10 12  2  0
  9 13  1  0
 13 14  1  0
 14 15  2  0
 14 16  1  0
 16 17  1  0
 17 18  1  0
 18 19  1  0
 19 20  1  0
 20 21  1  0
 21 22  1  0
 13 23  1  0
 23 24  2  0
 24  4  1  0
 23  7  1  0
  3 25  1  0
  3 26  1  0
  5 27  1  0
  6 28  1  0
  8 29  1  0
 11 30  1  0
 17 31  1  0
 17 32  1  0
 18 33  1  0
 18 34  1  0
 20 35  1  0
 20 36  1  0
 21 37  1  0
 21 38  1  0
 22 39  1  0
 24 40  1  0
M  CHG  1  11  -1
M  END
>  <UniqueID>  (2) 
2

>  <SMILES>  (2) 
N#CCc1ccc2cc(C([NH-])=O)n(C(=O)OCCOCCO)c2c1

>  <Energy>  (2) 
71.20505975561198

>  <Genealogy>  (2) 
N#CCc1ccc2cc(C([NH-])=O)n(C(=O)OCCOCCO)c2c1 (protonated)
N#CCc1ccc2cc(C([NH-])=O)n(C(=O)OCCOCCO)c2c1 (3D coordinates assigned)
N#CCc1ccc2cc(C([NH-])=O)n(C(=O)OCCOCCO)c2c1 (optimized conformer: 71.20505975561198 kcal/mol)

>  <smiles>  (2) 
N#CCc1ccc2cc(C(N)=O)n(C(=O)OCCOCCO)c2c1

>  <score_type>  (2) 
oracle

>  <origin>  (2) 
adg

>  <m_score__min__energy>  (2) 
-10.4

>  <m_primary>  (2) 
energy

$$$$
2:0
     RDKit          3D

 35 36  0  0  0  0  0  0  0  0999 V2000
   -7.0040   20.6310  -32.8750 C   0  0  0  0  0  0  0  0  0  0  0  0
   -5.7050   20.0140  -33.1690 N   0  0  0  0  0  0  0  0  0  0  0  0
   -5.6460   18.8650  -34.0870 C   0  0  0  0  0  0  0  0  0  0  0  0
   -6.3420   17.6810  -33.4930 C   0  0  0  0  0  0  0  0  0  0  0  0
   -6.6110   17.6590  -32.2640 O   0  0  0  0  0  0  0  0  0  0  0  0
   -6.6710   16.5910  -34.2890 O   0  0  0  0  0  0  0  0  0  0  0  0
   -4.5080   20.5300  -32.5360 C   0  0  0  0  0  0  0  0  0  0  0  0
   -3.2770   19.8240  -32.6240 C   0  0  0  0  0  0  0  0  0  0  0  0
   -2.1170   20.3120  -32.0000 C   0  0  0  0  0  0  0  0  0  0  0  0
   -2.2060   21.5120  -31.3030 C   0  0  0  0  0  0  0  0  0  0  0  0
   -1.2490   22.1930  -30.5860 C   0  0  0  0  0  0  0  0  0  0  0  0
   -1.8970   23.3210  -30.0860 C   0  0  0  0  0  0  0  0  0  0  0  0
   -1.2240   24.3710  -29.2920 C   0  0  0  0  0  0  0  0  0  0  0  0
   -1.9190   25.5730  -28.9690 N   0  0  0  0  0  0  0  0  0  0  0  0
   -0.0460   24.2080  -28.8770 O   0  0  0  0  0  0  0  0  0  0  0  0
   -3.2020   23.3340  -30.4800 N   0  0  0  0  0  0  0  0  0  0  0  0
   -4.2090   24.2990  -30.1380 C   0  0  0  0  0  0  0  0  0  0  0  0
   -4.4070   25.2910  -30.8910 O   0  0  0  0  0  0  0  0  0  0  0  0
   -5.0330   24.1420  -28.8960 C   0  0  0  0  0  0  0  0  0  0  0  0
   -4.3160   24.5960  -27.7800 O   0  0  0  0  0  0  0  0  0  0  0  0
   -3.3750   22.2190  -31.2210 C   0  0  0  0  0  0  0  0  0  0  0  0
   -4.5510   21.7480  -31.8140 C   0  0  0  0  0  0  0  0  0  0  0  0
   -7.1409   20.6960  -31.7855 H   0  0  0  0  0  0  0  0  0  0  0  0
   -7.0370   21.6410  -33.3096 H   0  0  0  0  0  0  0  0  0  0  0  0
   -7.8077   20.0184  -33.3096 H   0  0  0  0  0  0  0  0  0  0  0  0
   -6.1350   19.1340  -35.0349 H   0  0  0  0  0  0  0  0  0  0  0  0
   -4.5917   18.6054  -34.2634 H   0  0  0  0  0  0  0  0  0  0  0  0
   -3.2323   18.8814  -33.1893 H   0  0  0  0  0  0  0  0  0  0  0  0
   -1.1667   19.7614  -32.0609 H   0  0  0  0  0  0  0  0  0  0  0  0
   -0.1968   21.9078  -30.4389 H   0  0  0  0  0  0  0  0  0  0  0  0
   -2.9340   25.6810  -29.1860 H   0  0  0  0  0  0  0  0  0  0  0  0
   -5.9582   24.7284  -28.9969 H   0  0  0  0  0  0  0  0  0  0  0  0
   -5.2765   23.0782  -28.7583 H   0  0  0  0  0  0  0  0  0  0  0  0
   -3.7370   25.3360  -28.0970 H   0  0  0  0  0  0  0  0  0  0  0  0
   -5.4907   22.3123  -31.7215 H   0  0  0  0  0  0  0  0  0  0  0  0
  1  2  1  0
  2  3  1  0
  3  4  1  0
  4  5  2  0
  4  6  1  0
  2  7  1  0
  7  8  2  0
  8  9  1  0
  9 10  2  0
 10 11  1  0
 11 12  2  0
 12 13  1  0
 13 14  1  0
 13 15  2  0
 12 16  1  0
 16 17  1  0
 17 18  2  0
 17 19  1  0
 19 20  1  0
 16 21  1  0
 21 22  2  0
 22  7  1  0
 21 10  1  0
  1 23  1  0
  1 24  1  0
  1 25  1  0
  3 26  1  0
  3 27  1  0
  8 28  1  0
  9 29  1  0
 11 30  1  0
 14 31  1  0
 19 32  1  0
 19 33  1  0
 20 34  1  0
 22 35  1  0
M  CHG  2   6  -1  14  -1
M  END
>  <UniqueID>  (3) 
3

>  <SMILES>  (3) 
CN(CC(=O)[O-])c1ccc2cc(C([NH-])=O)n(C(=O)CO)c2c1

>  <Energy>  (3) 
75.18308089096561

>  <Genealogy>  (3) 
CN(CC(=O)[O-])c1ccc2cc(C([NH-])=O)n(C(=O)CO)c2c1 (protonated)
CN(CC(=O)[O-])c1ccc2cc(C([NH-])=O)n(C(=O)CO)c2c1 (3D coordinates assigned)
CN(CC(=O)[O-])c1ccc2cc(C([NH-])=O)n(C(=O)CO)c2c1 (optimized conformer: 75.18308089096561 kcal/mol)

>  <smiles>  (3) 
CN(CC(=O)O)c1ccc2cc(C(N)=O)n(C(=O)CO)c2c1

>  <score_type>  (3) 
oracle

>  <origin>  (3) 
adg

>  <m_score__min__energy>  (3) 
-8.8599999999999994

>  <m_primary>  (3) 
energy

$$$$
3:0
     RDKit          3D

 39 40  0  0  0  0  0  0  0  0999 V2000
   -5.2400   24.7780  -29.0050 N   0  0  0  0  0  0  0  0  0  0  0  0
   -5.2270   24.3540  -30.3690 C   0  0  0  0  0  0  0  0  0  0  0  0
   -4.5300   24.9880  -31.2060 O   0  0  0  0  0  0  0  0  0  0  0  0
   -5.9620   23.1490  -30.8020 C   0  0  0  0  0  0  0  0  0  0  0  0
   -7.3410   23.1210  -30.9940 C   0  0  0  0  0  0  0  0  0  0  0  0
   -7.6180   21.8530  -31.4540 C   0  0  0  0  0  0  0  0  0  0  0  0
   -8.8340   21.2750  -31.8030 C   0  0  0  0  0  0  0  0  0  0  0  0
   -8.8300   19.9330  -32.2180 C   0  0  0  0  0  0  0  0  0  0  0  0
   -7.6230   19.1940  -32.2580 C   0  0  0  0  0  0  0  0  0  0  0  0
   -7.6270   17.7680  -32.7240 C   0  0  0  0  0  0  0  0  0  0  0  0
   -6.0360   17.4570  -34.1130 I   0  0  0  0  0  0  0  0  0  0  0  0
   -6.4040   19.8170  -31.9070 C   0  0  0  0  0  0  0  0  0  0  0  0
   -6.4340   21.1620  -31.5180 C   0  0  0  0  0  0  0  0  0  0  0  0
   -5.4070   21.9450  -31.1180 N   0  0  0  0  0  0  0  0  0  0  0  0
   -4.0370   21.5440  -30.9540 C   0  0  0  0  0  0  0  0  0  0  0  0
   -3.6260   20.4780  -31.4890 O   0  0  0  0  0  0  0  0  0  0  0  0
   -3.1650   22.3370  -30.2000 O   0  0  0  0  0  0  0  0  0  0  0  0
   -1.8650   22.7010  -30.6500 C   0  0  0  0  0  0  0  0  0  0  0  0
   -0.9860   22.7310  -29.5500 O   0  0  0  0  0  0  0  0  0  0  0  0
   -1.3360   24.1170  -28.6190 P   0  0  1  0  0  0  0  0  0  0  0  0
   -0.1080   24.9990  -28.5730 O   0  0  0  0  0  0  0  0  0  0  0  0
   -2.5920   24.9910  -29.3440 O   0  0  0  0  0  0  0  0  0  0  0  0
   -1.7980   23.6790  -27.0330 O   0  0  0  0  0  0  0  0  0  0  0  0
   -2.7310   22.6240  -27.0970 C   0  0  0  0  0  0  0  0  0  0  0  0
   -3.8430   23.0140  -27.8560 O   0  0  0  0  0  0  0  0  0  0  0  0
   -4.7470   25.6550  -28.7250 H   0  0  0  0  0  0  0  0  0  0  0  0
   -5.6610   24.1820  -28.2590 H   0  0  0  0  0  0  0  0  0  0  0  0
   -8.0563   23.9375  -30.8162 H   0  0  0  0  0  0  0  0  0  0  0  0
   -9.7699   21.8510  -31.7555 H   0  0  0  0  0  0  0  0  0  0  0  0
   -9.7736   19.4517  -32.5147 H   0  0  0  0  0  0  0  0  0  0  0  0
   -7.4929   17.1009  -31.8597 H   0  0  0  0  0  0  0  0  0  0  0  0
   -8.5864   17.5491  -33.2156 H   0  0  0  0  0  0  0  0  0  0  0  0
   -5.4561   19.2598  -31.9385 H   0  0  0  0  0  0  0  0  0  0  0  0
   -1.5100   21.9633  -31.3847 H   0  0  0  0  0  0  0  0  0  0  0  0
   -1.9016   23.6943  -31.1212 H   0  0  0  0  0  0  0  0  0  0  0  0
   -3.3080   24.3250  -29.5040 H   0  0  0  0  0  0  0  0  0  0  0  0
   -2.2589   21.7479  -27.5657 H   0  0  0  0  0  0  0  0  0  0  0  0
   -3.0597   22.3698  -26.0785 H   0  0  0  0  0  0  0  0  0  0  0  0
   -3.5240   23.0910  -28.7920 H   0  0  0  0  0  0  0  0  0  0  0  0
  1  2  1  0
  2  3  2  0
  2  4  1  0
  4  5  2  0
  5  6  1  0
  6  7  2  0
  7  8  1  0
  8  9  2  0
  9 10  1  0
 10 11  1  0
  9 12  1  0
 12 13  2  0
 13 14  1  0
 14 15  1  0
 15 16  2  0
 15 17  1  0
 17 18  1  0
 18 19  1  0
 20 19  1  6
 20 21  2  0
 20 22  1  0
 20 23  1  0
 23 24  1  0
 24 25  1  0
 14  4  1  0
 13  6  1  0
  1 26  1  0
  1 27  1  0
  5 28  1  0
  7 29  1  0
  8 30  1  0
 10 31  1  0
 10 32  1  0
 12 33  1  0
 18 34  1  0
 18 35  1  0
 22 36  1  0
 24 37  1  0
 24 38  1  0
 25 39  1  0
M  END
>  <UniqueID>  (4) 
4

>  <SMILES>  (4) 
NC(=O)c1cc2ccc(CI)cc2n1C(=O)OCO[P@@](=O)(O)OCO

>  <Energy>  (4) 
73.44403712647316

>  <Genealogy>  (4) 
NC(=O)c1cc2ccc(CI)cc2n1C(=O)OCO[P@@](=O)(O)OCO (chirality)
NC(=O)c1cc2ccc(CI)cc2n1C(=O)OCO[P@@](=O)(O)OCO (3D coordinates assigned)
NC(=O)c1cc2ccc(CI)cc2n1C(=O)OCO[P@@](=O)(O)OCO (optimized conformer: 73.44403712647316 kcal/mol)

>  <smiles>  (4) 
NC(=O)c1cc2ccc(CI)cc2n1C(=O)OCOP(=O)(O)OCO

>  <score_type>  (4) 
oracle

>  <origin>  (4) 
adg

>  <m_score__min__energy>  (4) 
-8.9900000000000002

>  <m_primary>  (4) 
energy

$$$$
4:0
     RDKit          3D

 45 46  0  0  0  0  0  0  0  0999 V2000
   -3.8710   25.5720  -30.8480 N   0  0  0  0  0  0  0  0  0  0  0  0
   -5.1970   25.2410  -30.4440 C   0  0  0  0  0  0  0  0  0  0  0  0
   -5.8430   26.0500  -29.7240 O   0  0  0  0  0  0  0  0  0  0  0  0
   -5.8330   23.9810  -30.8820 C   0  0  0  0  0  0  0  0  0  0  0  0
   -7.1890   23.8600  -31.1840 C   0  0  0  0  0  0  0  0  0  0  0  0
   -7.3590   22.5540  -31.5840 C   0  0  0  0  0  0  0  0  0  0  0  0
   -8.5130   21.8720  -31.9550 C   0  0  0  0  0  0  0  0  0  0  0  0
   -8.3990   20.5060  -32.2680 C   0  0  0  0  0  0  0  0  0  0  0  0
   -7.1390   19.8520  -32.2220 C   0  0  0  0  0  0  0  0  0  0  0  0
   -7.0430   18.3740  -32.4990 C   0  0  0  0  0  0  0  0  0  0  0  0
   -6.1750   17.7670  -31.6080 F   0  0  0  0  0  0  0  0  0  0  0  0
   -8.2830   17.7700  -32.3730 F   0  0  0  0  0  0  0  0  0  0  0  0
   -6.5760   18.1820  -33.7860 F   0  0  0  0  0  0  0  0  0  0  0  0
   -5.9940   20.5780  -31.8210 C   0  0  0  0  0  0  0  0  0  0  0  0
   -6.1380   21.9360  -31.5210 C   0  0  0  0  0  0  0  0  0  0  0  0
   -5.1940   22.7960  -31.0870 N   0  0  0  0  0  0  0  0  0  0  0  0
   -3.8360   22.4600  -30.7700 C   0  0  0  0  0  0  0  0  0  0  0  0
   -2.8920   23.0440  -31.3670 O   0  0  0  0  0  0  0  0  0  0  0  0
   -3.5380   21.3410  -29.8130 C   0  0  0  0  0  0  0  0  0  0  0  0
   -2.2010   20.6710  -30.1340 C   0  0  0  0  0  0  0  0  0  0  0  0
   -1.7950   19.8090  -29.0250 N   0  0  0  0  0  0  0  0  0  0  0  0
   -0.4640   20.5120  -28.1590 S   0  0  0  0  0  0  0  0  0  0  0  0
    0.4880   19.4200  -27.7620 O   0  0  0  0  0  0  0  0  0  0  0  0
    0.2630   21.5040  -29.0260 O   0  0  0  0  0  0  0  0  0  0  0  0
   -1.0640   21.3300  -26.6870 C   0  0  0  0  0  0  0  0  0  0  0  0
   -0.7180   22.8190  -26.7060 C   0  0  0  0  0  0  0  0  0  0  0  0
   -1.7090   23.5210  -27.4200 O   0  0  0  0  0  0  0  0  0  0  0  0
   -0.9560   24.4400  -28.6420 P   0  0  1  0  0  0  0  0  0  0  0  0
   -1.7820   25.6730  -28.9310 O   0  0  0  0  0  0  0  0  0  0  0  0
    0.6000   24.9030  -28.1640 O   0  0  0  0  0  0  0  0  0  0  0  0
   -0.8430   23.5050  -30.0480 O   0  0  0  0  0  0  0  0  0  0  0  0
   -3.0500   25.0400  -30.4840 H   0  0  0  0  0  0  0  0  0  0  0  0
   -7.9594   24.6423  -31.1168 H   0  0  0  0  0  0  0  0  0  0  0  0
   -9.4847   22.3854  -32.0021 H   0  0  0  0  0  0  0  0  0  0  0  0
   -9.2965   19.9369  -32.5519 H   0  0  0  0  0  0  0  0  0  0  0  0
   -5.0129   20.0860  -31.7468 H   0  0  0  0  0  0  0  0  0  0  0  0
   -3.4989   21.7455  -28.7908 H   0  0  0  0  0  0  0  0  0  0  0  0
   -4.3333   20.5867  -29.9051 H   0  0  0  0  0  0  0  0  0  0  0  0
   -2.3066   20.0655  -31.0463 H   0  0  0  0  0  0  0  0  0  0  0  0
   -1.4361   21.4464  -30.2876 H   0  0  0  0  0  0  0  0  0  0  0  0
   -2.1567   21.2156  -26.6323 H   0  0  0  0  0  0  0  0  0  0  0  0
   -0.5832   20.8704  -25.8109 H   0  0  0  0  0  0  0  0  0  0  0  0
   -0.6712   23.1980  -25.6744 H   0  0  0  0  0  0  0  0  0  0  0  0
    0.2575   22.9632  -27.1935 H   0  0  0  0  0  0  0  0  0  0  0  0
   -1.3720   22.6920  -29.8510 H   0  0  0  0  0  0  0  0  0  0  0  0
  1  2  1  0
  2  3  2  0
  2  4  1  0
  4  5  2  0
  5  6  1  0
  6  7  2  0
  7  8  1  0
  8  9  2  0
  9 10  1  0
 10 11  1  0
 10 12  1  0
 10 13  1  0
  9 14  1  0
 14 15  2  0
 15 16  1  0
 16 17  1  0
 17 18  2  0
 17 19  1  0
 19 20  1  0
 20 21  1  0
 21 22  1  0
 22 23  2  0
 22 24  2  0
 22 25  1  0
 25 26  1  0
 26 27  1  0
 27 28  1  0
 28 29  2  0
 28 30  1  1
 28 31  1  0
 16  4  1  0
 15  6  1  0
  1 32  1  0
  5 33  1  0
  7 34  1  0
  8 35  1  0
 14 36  1  0
 19 37  1  0
 19 38  1  0
 20 39  1  0
 20 40  1  0
 25 41  1  0
 25 42  1  0
 26 43  1  0
 26 44  1  0
 31 45  1  0
M  CHG  3   1  -1  21  -1  30  -1
M  END
>  <UniqueID>  (5) 
5

>  <SMILES>  (5) 
[NH-]C(=O)c1cc2ccc(C(F)(F)F)cc2n1C(=O)CC[N-]S(=O)(=O)CCO[P@@](=O)([O-])O

>  <Energy>  (5) 
68.16662929896783

>  <Genealogy>  (5) 
[NH-]C(=O)c1cc2ccc(C(F)(F)F)cc2n1C(=O)CC[N-]S(=O)(=O)CCOP(=O)([O-])O (protonated)
[NH-]C(=O)c1cc2ccc(C(F)(F)F)cc2n1C(=O)CC[N-]S(=O)(=O)CCO[P@@](=O)([O-])O (chirality)
[NH-]C(=O)c1cc2ccc(C(F)(F)F)cc2n1C(=O)CC[N-]S(=O)(=O)CCO[P@@](=O)([O-])O (3D coordinates assigned)
[NH-]C(=O)c1cc2ccc(C(F)(F)F)cc2n1C(=O)CC[N-]S(=O)(=O)CCO[P@@](=O)([O-])O (optimized conformer: 68.16662929896783 kcal/mol)

>  <smiles>  (5) 
NC(=O)c1cc2ccc(C(F)(F)F)cc2n1C(=O)CCNS(=O)(=O)CCOP(=O)(O)O

>  <score_type>  (5) 
oracle

>  <origin>  (5) 
adg

>  <m_score__min__energy>  (5) 
-12.800000000000001

>  <m_primary>  (5) 
energy

$$$$
5:0
     RDKit          3D

 35 36  0  0  0  0  0  0  0  0999 V2000
   -6.9740   18.4380  -32.8920 C   0  0  0  0  0  0  0  0  0  0  0  0
   -7.1670   19.8260  -32.3600 C   0  0  0  0  0  0  0  0  0  0  0  0
   -8.4540   20.4200  -32.3660 C   0  0  0  0  0  0  0  0  0  0  0  0
   -8.6370   21.7400  -31.9170 C   0  0  0  0  0  0  0  0  0  0  0  0
   -7.5160   22.4410  -31.4810 C   0  0  0  0  0  0  0  0  0  0  0  0
   -7.3930   23.7420  -31.0410 C   0  0  0  0  0  0  0  0  0  0  0  0
   -6.0330   23.9190  -30.7860 C   0  0  0  0  0  0  0  0  0  0  0  0
   -5.4410   25.1730  -30.2780 C   0  0  0  0  0  0  0  0  0  0  0  0
   -4.2240   25.6620  -30.8360 N   0  0  0  0  0  0  0  0  0  0  0  0
   -6.0070   25.8260  -29.3620 O   0  0  0  0  0  0  0  0  0  0  0  0
   -5.3490   22.7740  -31.0550 N   0  0  0  0  0  0  0  0  0  0  0  0
   -3.9320   22.5660  -31.0110 C   0  0  0  0  0  0  0  0  0  0  0  0
   -3.1610   23.3960  -31.5640 O   0  0  0  0  0  0  0  0  0  0  0  0
   -3.3640   21.4370  -30.2090 C   0  0  0  0  0  0  0  0  0  0  0  0
   -1.8900   21.6300  -30.0550 C   0  0  0  0  0  0  0  0  0  0  0  0
   -1.1180   21.3600  -31.0140 O   0  0  0  0  0  0  0  0  0  0  0  0
   -1.3740   22.1840  -28.8400 N   0  0  0  0  0  0  0  0  0  0  0  0
   -1.8430   23.4370  -28.2620 C   0  0  0  0  0  0  0  0  0  0  0  0
   -0.9980   24.5750  -28.7390 C   0  0  0  0  0  0  0  0  0  0  0  0
    0.2510   24.5470  -28.5850 O   0  0  0  0  0  0  0  0  0  0  0  0
   -1.5950   25.6820  -29.3280 O   0  0  0  0  0  0  0  0  0  0  0  0
   -6.2660   21.8810  -31.4780 C   0  0  0  0  0  0  0  0  0  0  0  0
   -6.0520   20.5720  -31.9200 C   0  0  0  0  0  0  0  0  0  0  0  0
   -6.8761   17.7339  -32.0526 H   0  0  0  0  0  0  0  0  0  0  0  0
   -7.8417   18.1571  -33.5069 H   0  0  0  0  0  0  0  0  0  0  0  0
   -6.0625   18.4045  -33.5069 H   0  0  0  0  0  0  0  0  0  0  0  0
   -9.3184   19.8425  -32.7256 H   0  0  0  0  0  0  0  0  0  0  0  0
   -9.6343   22.2040  -31.9105 H   0  0  0  0  0  0  0  0  0  0  0  0
   -8.1966   24.4829  -30.9173 H   0  0  0  0  0  0  0  0  0  0  0  0
   -3.3010   25.2900  -30.5200 H   0  0  0  0  0  0  0  0  0  0  0  0
   -3.8373   21.4175  -29.2162 H   0  0  0  0  0  0  0  0  0  0  0  0
   -3.5580   20.4853  -30.7254 H   0  0  0  0  0  0  0  0  0  0  0  0
   -2.8868   23.6081  -28.5641 H   0  0  0  0  0  0  0  0  0  0  0  0
   -1.7743   23.3742  -27.1659 H   0  0  0  0  0  0  0  0  0  0  0  0
   -5.0424   20.1352  -31.9248 H   0  0  0  0  0  0  0  0  0  0  0  0
  1  2  1  0
  2  3  2  0
  3  4  1  0
  4  5  2  0
  5  6  1  0
  6  7  2  0
  7  8  1  0
  8  9  1  0
  8 10  2  0
  7 11  1  0
 11 12  1  0
 12 13  2  0
 12 14  1  0
 14 15  1  0
 15 16  2  0
 15 17  1  0
 17 18  1  0
 18 19  1  0
 19 20  2  0
 19 21  1  0
 11 22  1  0
 22 23  2  0
 23  2  1  0
 22  5  1  0
  1 24  1  0
  1 25  1  0
  1 26  1  0
  3 27  1  0
  4 28  1  0
  6 29  1  0
  9 30  1  0
 14 31  1  0
 14 32  1  0
 18 33  1  0
 18 34  1  0
 23 35  1  0
M  CHG  3   9  -1  17  -1  21  -1
M  END
>  <UniqueID>  (6) 
6

>  <SMILES>  (6) 
Cc1ccc2cc(C([NH-])=O)n(C(=O)CC(=O)[N-]CC(=O)[O-])c2c1

>  <Energy>  (6) 
67.90597282243934

>  <Genealogy>  (6) 
Cc1ccc2cc(C([NH-])=O)n(C(=O)CC(=O)[N-]CC(=O)[O-])c2c1 (protonated)
Cc1ccc2cc(C([NH-])=O)n(C(=O)CC(=O)[N-]CC(=O)[O-])c2c1 (3D coordinates assigned)
Cc1ccc2cc(C([NH-])=O)n(C(=O)CC(=O)[N-]CC(=O)[O-])c2c1 (optimized conformer: 67.90597282243934 kcal/mol)

>  <smiles>  (6) 
Cc1ccc2cc(C(N)=O)n(C(=O)CC(=O)NCC(=O)O)c2c1

>  <score_type>  (6) 
oracle

>  <origin>  (6) 
adg

>  <m_score__min__energy>  (6) 
-12.449999999999999

>  <m_primary>  (6) 
energy

$$$$
6:0
     RDKit          3D

 47 48  0  0  0  0  0  0  0  0999 V2000
   -6.8310   17.5930  -33.1270 C   0  0  0  0  0  0  0  0  0  0  0  0
   -7.1990   18.9630  -32.6400 C   0  0  0  0  0  0  0  0  0  0  0  0
   -8.5390   19.4110  -32.7380 C   0  0  0  0  0  0  0  0  0  0  0  0
   -8.9100   20.6720  -32.2460 C   0  0  0  0  0  0  0  0  0  0  0  0
   -7.9220   21.4610  -31.6620 C   0  0  0  0  0  0  0  0  0  0  0  0
   -8.0080   22.7180  -31.1090 C   0  0  0  0  0  0  0  0  0  0  0  0
   -6.7200   23.0150  -30.6800 C   0  0  0  0  0  0  0  0  0  0  0  0
   -6.3470   24.3040  -30.0770 C   0  0  0  0  0  0  0  0  0  0  0  0
   -5.2630   24.3920  -29.1520 N   0  0  0  0  0  0  0  0  0  0  0  0
   -7.0310   25.3300  -30.3340 O   0  0  0  0  0  0  0  0  0  0  0  0
   -5.8600   22.0020  -30.9790 N   0  0  0  0  0  0  0  0  0  0  0  0
   -4.4400   21.9640  -30.7410 C   0  0  0  0  0  0  0  0  0  0  0  0
   -4.0050   21.6690  -29.5970 O   0  0  0  0  0  0  0  0  0  0  0  0
   -3.4630   22.1690  -31.8220 C   0  0  0  0  0  0  0  0  0  0  0  0
   -2.5180   21.2890  -32.1750 C   0  0  0  0  0  0  0  0  0  0  0  0
   -2.3660   19.9000  -31.6080 C   0  0  0  0  0  0  0  0  0  0  0  0
   -1.1030   19.7040  -30.8750 N   0  0  0  0  0  0  0  0  0  0  0  0
    0.0790   19.2650  -31.6260 C   0  0  0  0  0  0  0  0  0  0  0  0
   -0.9040   20.2510  -29.5550 C   0  0  0  0  0  0  0  0  0  0  0  0
   -1.1380   19.5410  -28.5370 O   0  0  0  0  0  0  0  0  0  0  0  0
   -0.4530   21.5640  -29.3930 O   0  0  0  0  0  0  0  0  0  0  0  0
   -1.2900   22.6190  -28.9290 C   0  0  0  0  0  0  0  0  0  0  0  0
   -1.3240   23.6630  -29.8740 O   0  0  0  0  0  0  0  0  0  0  0  0
   -2.3530   24.9010  -29.3030 P   0  0  0  0  0  0  0  0  0  0  0  0
   -3.0530   24.4620  -28.0360 O   0  0  0  0  0  0  0  0  0  0  0  0
   -1.4240   26.2730  -28.9710 O   0  0  0  0  0  0  0  0  0  0  0  0
   -3.5060   25.2940  -30.4780 O   0  0  0  0  0  0  0  0  0  0  0  0
   -6.6170   21.0480  -31.5680 C   0  0  0  0  0  0  0  0  0  0  0  0
   -6.2280   19.7820  -32.0260 C   0  0  0  0  0  0  0  0  0  0  0  0
   -6.6537   16.9329  -32.2652 H   0  0  0  0  0  0  0  0  0  0  0  0
   -7.6521   17.1877  -33.7365 H   0  0  0  0  0  0  0  0  0  0  0  0
   -5.9173   17.6537  -33.7365 H   0  0  0  0  0  0  0  0  0  0  0  0
   -9.2966   18.7641  -33.2044 H   0  0  0  0  0  0  0  0  0  0  0  0
   -9.9488   21.0262  -32.3194 H   0  0  0  0  0  0  0  0  0  0  0  0
   -8.9034   23.3514  -31.0247 H   0  0  0  0  0  0  0  0  0  0  0  0
   -4.7920   23.5300  -28.7990 H   0  0  0  0  0  0  0  0  0  0  0  0
   -4.9860   25.3160  -28.7540 H   0  0  0  0  0  0  0  0  0  0  0  0
   -3.5128   23.1149  -32.3812 H   0  0  0  0  0  0  0  0  0  0  0  0
   -1.7939   21.6046  -32.9405 H   0  0  0  0  0  0  0  0  0  0  0  0
   -3.2024   19.7108  -30.9190 H   0  0  0  0  0  0  0  0  0  0  0  0
   -2.3615   19.2006  -32.4570 H   0  0  0  0  0  0  0  0  0  0  0  0
    0.8718   18.9705  -30.9226 H   0  0  0  0  0  0  0  0  0  0  0  0
   -0.1871   18.4058  -32.2591 H   0  0  0  0  0  0  0  0  0  0  0  0
    0.4383   20.0897  -32.2591 H   0  0  0  0  0  0  0  0  0  0  0  0
   -2.3090   22.2340  -28.7757 H   0  0  0  0  0  0  0  0  0  0  0  0
   -0.8886   23.0056  -27.9806 H   0  0  0  0  0  0  0  0  0  0  0  0
   -5.1906   19.4352  -31.9096 H   0  0  0  0  0  0  0  0  0  0  0  0
  1  2  1  0
  2  3  2  0
  3  4  1  0
  4  5  2  0
  5  6  1  0
  6  7  2  0
  7  8  1  0
  8  9  1  0
  8 10  2  0
  7 11  1  0
 11 12  1  0
 12 13  2  0
 12 14  1  0
 14 15  2  3
 15 16  1  0
 16 17  1  0
 17 18  1  0
 17 19  1  0
 19 20  2  0
 19 21  1  0
 21 22  1  0
 22 23  1  0
 23 24  1  0
 24 25  2  0
 24 26  1  0
 24 27  1  0
 11 28  1  0
 28 29  2  0
 29  2  1  0
 28  5  1  0
  1 30  1  0
  1 31  1  0
  1 32  1  0
  3 33  1  0
  4 34  1  0
  6 35  1  0
  9 36  1  0
  9 37  1  0
 14 38  1  0
 15 39  1  0
 16 40  1  0
 16 41  1  0
 18 42  1  0
 18 43  1  0
 18 44  1  0
 22 45  1  0
 22 46  1  0
 29 47  1  0
M  CHG  2  26  -1  27  -1
M  END
>  <UniqueID>  (7) 
7

>  <SMILES>  (7) 
Cc1ccc2cc(C(N)=O)n(C(=O)C=CCN(C)C(=O)OCOP(=O)([O-])[O-])c2c1

>  <Energy>  (7) 
86.37800260917649

>  <Genealogy>  (7) 
Cc1ccc2cc(C(N)=O)n(C(=O)C=CCN(C)C(=O)OCOP(=O)([O-])[O-])c2c1 (protonated)
Cc1ccc2cc(C(N)=O)n(C(=O)C=CCN(C)C(=O)OCOP(=O)([O-])[O-])c2c1 (3D coordinates assigned)
Cc1ccc2cc(C(N)=O)n(C(=O)C=CCN(C)C(=O)OCOP(=O)([O-])[O-])c2c1 (optimized conformer: 86.37800260917649 kcal/mol)

>  <smiles>  (7) 
Cc1ccc2cc(C(N)=O)n(C(=O)C=CCN(C)C(=O)OCOP(=O)([O-])O)c2c1

>  <score_type>  (7) 
oracle

>  <origin>  (7) 
adg

>  <m_score__min__energy>  (7) 
-13.050000000000001

>  <m_primary>  (7) 
energy

$$$$
7:0
     RDKit          3D

 37 39  0  0  0  0  0  0  0  0999 V2000
   -3.8490   25.2950  -30.8440 N   0  0  0  0  0  0  0  0  0  0  0  0
   -5.1990   25.0970  -30.4320 C   0  0  0  0  0  0  0  0  0  0  0  0
   -5.7590   25.9680  -29.7150 O   0  0  0  0  0  0  0  0  0  0  0  0
   -5.9310   23.8890  -30.8660 C   0  0  0  0  0  0  0  0  0  0  0  0
   -7.2480   23.9010  -31.3230 C   0  0  0  0  0  0  0  0  0  0  0  0
   -7.5630   22.5800  -31.5600 C   0  0  0  0  0  0  0  0  0  0  0  0
   -8.7380   22.0100  -32.0390 C   0  0  0  0  0  0  0  0  0  0  0  0
   -8.7720   20.6150  -32.2060 C   0  0  0  0  0  0  0  0  0  0  0  0
   -7.6450   19.8150  -31.8760 C   0  0  0  0  0  0  0  0  0  0  0  0
   -7.6760   18.3270  -32.1110 C   0  0  0  0  0  0  0  0  0  0  0  0
   -7.2700   18.0620  -33.4050 F   0  0  0  0  0  0  0  0  0  0  0  0
   -8.9560   17.8310  -31.9300 F   0  0  0  0  0  0  0  0  0  0  0  0
   -6.8300   17.6750  -31.2300 F   0  0  0  0  0  0  0  0  0  0  0  0
   -6.4630   20.4380  -31.4130 C   0  0  0  0  0  0  0  0  0  0  0  0
   -6.4620   21.8270  -31.2520 C   0  0  0  0  0  0  0  0  0  0  0  0
   -5.4510   22.6150  -30.8340 N   0  0  0  0  0  0  0  0  0  0  0  0
   -4.1400   22.1720  -30.4510 C   0  0  0  0  0  0  0  0  0  0  0  0
   -3.8770   22.0270  -29.2270 O   0  0  0  0  0  0  0  0  0  0  0  0
   -3.1120   21.8510  -31.4720 C   0  0  0  0  0  0  0  0  0  0  0  0
   -3.4900   21.5510  -32.7920 C   0  0  0  0  0  0  0  0  0  0  0  0
   -2.5260   21.2470  -33.7560 C   0  0  0  0  0  0  0  0  0  0  0  0
   -1.1600   21.2530  -33.4260 C   0  0  0  0  0  0  0  0  0  0  0  0
   -0.1250   20.9170  -34.4320 C   0  0  0  0  0  0  0  0  0  0  0  0
   -0.0250   19.7290  -34.8400 O   0  0  0  0  0  0  0  0  0  0  0  0
    0.7830   21.8950  -34.9490 N   0  0  0  0  0  0  0  0  0  0  0  0
    0.3930   22.9980  -35.3850 O   0  0  0  0  0  0  0  0  0  0  0  0
   -0.7820   21.5430  -32.1040 C   0  0  0  0  0  0  0  0  0  0  0  0
   -1.7460   21.8470  -31.1400 C   0  0  0  0  0  0  0  0  0  0  0  0
   -3.0690   25.2830  -30.1500 H   0  0  0  0  0  0  0  0  0  0  0  0
   -7.8973   24.7776  -31.4643 H   0  0  0  0  0  0  0  0  0  0  0  0
   -9.6131   22.6316  -32.2795 H   0  0  0  0  0  0  0  0  0  0  0  0
   -9.6821   20.1366  -32.5969 H   0  0  0  0  0  0  0  0  0  0  0  0
   -5.5657   19.8441  -31.1849 H   0  0  0  0  0  0  0  0  0  0  0  0
   -4.5547   21.5557  -33.0685 H   0  0  0  0  0  0  0  0  0  0  0  0
   -2.8385   21.0010  -34.7816 H   0  0  0  0  0  0  0  0  0  0  0  0
    0.2822   21.5305  -31.8259 H   0  0  0  0  0  0  0  0  0  0  0  0
   -1.4337   22.0853  -30.1125 H   0  0  0  0  0  0  0  0  0  0  0  0
  1  2  1  0
  2  3  2  0
  2  4  1  0
  4  5  2  0
  5  6  1  0
  6  7  2  0
  7  8  1  0
  8  9  2  0
  9 10  1  0
 10 11  1  0
 10 12  1  0
 10 13  1  0
  9 14  1  0
 14 15  2  0
 15 16  1  0
 16 17  1  0
 17 18  2  0
 17 19  1  0
 19 20  2  0
 20 21  1  0
 21 22  2  0
 22 23  1  0
 23 24  2  0
 23 25  1  0
 25 26  2  0
 22 27  1  0
 27 28  2  0
 16  4  1  0
 28 19  1  0
 15  6  1  0
  1 29  1  0
  5 30  1  0
  7 31  1  0
  8 32  1  0
 14 33  1  0
 20 34  1  0
 21 35  1  0
 27 36  1  0
 28 37  1  0
M  CHG  1   1  -1
M  END
>  <UniqueID>  (8) 
8

>  <SMILES>  (8) 
[NH-]C(=O)c1cc2ccc(C(F)(F)F)cc2n1C(=O)c1ccc(C(=O)N=O)cc1

>  <Energy>  (8) 
85.56506733518894

>  <Genealogy>  (8) 
[NH-]C(=O)c1cc2ccc(C(F)(F)F)cc2n1C(=O)c1ccc(C(=O)N=O)cc1 (protonated)
[NH-]C(=O)c1cc2ccc(C(F)(F)F)cc2n1C(=O)c1ccc(C(=O)N=O)cc1 (3D coordinates assigned)
[NH-]C(=O)c1cc2ccc(C(F)(F)F)cc2n1C(=O)c1ccc(C(=O)N=O)cc1 (optimized conformer: 85.56506733518894 kcal/mol)

>  <smiles>  (8) 
NC(=O)c1cc2ccc(C(F)(F)F)cc2n1C(=O)c1ccc(C(=O)N=O)cc1

>  <score_type>  (8) 
oracle

>  <origin>  (8) 
adg

>  <m_score__min__energy>  (8) 
-11.91

>  <m_primary>  (8) 
energy

$$$$
8:0
     RDKit          3D

 38 40  0  0  0  0  0  0  0  0999 V2000
   -3.9020   25.5030  -30.8270 N   0  0  0  0  0  0  0  0  0  0  0  0
   -5.2410   25.2580  -30.4010 C   0  0  0  0  0  0  0  0  0  0  0  0
   -5.8350   26.1270  -29.7100 O   0  0  0  0  0  0  0  0  0  0  0  0
   -5.9000   23.9810  -30.7440 C   0  0  0  0  0  0  0  0  0  0  0  0
   -7.2740   23.8530  -30.9360 C   0  0  0  0  0  0  0  0  0  0  0  0
   -7.4700   22.5430  -31.3080 C   0  0  0  0  0  0  0  0  0  0  0  0
   -8.6480   21.8650  -31.6040 C   0  0  0  0  0  0  0  0  0  0  0  0
   -8.5620   20.5020  -31.9290 C   0  0  0  0  0  0  0  0  0  0  0  0
   -7.3040   19.8450  -31.9630 C   0  0  0  0  0  0  0  0  0  0  0  0
   -7.2260   18.3670  -32.2540 C   0  0  0  0  0  0  0  0  0  0  0  0
   -6.3060   17.7520  -31.4240 F   0  0  0  0  0  0  0  0  0  0  0  0
   -8.4570   17.7660  -32.0560 F   0  0  0  0  0  0  0  0  0  0  0  0
   -6.8420   18.1820  -33.5690 F   0  0  0  0  0  0  0  0  0  0  0  0
   -6.1330   20.5630  -31.6320 C   0  0  0  0  0  0  0  0  0  0  0  0
   -6.2470   21.9250  -31.3300 C   0  0  0  0  0  0  0  0  0  0  0  0
   -5.2700   22.7950  -30.9840 N   0  0  0  0  0  0  0  0  0  0  0  0
   -3.8660   22.5160  -30.8460 C   0  0  0  0  0  0  0  0  0  0  0  0
   -3.0450   23.0510  -31.6390 O   0  0  0  0  0  0  0  0  0  0  0  0
   -3.3730   21.5160  -29.8330 C   0  0  0  0  0  0  0  0  0  0  0  0
   -2.4740   22.0780  -28.6980 C   0  0  0  0  0  0  0  0  0  0  0  0
   -1.2600   22.9190  -29.1520 C   0  0  0  0  0  0  0  0  0  0  0  0
   -1.5740   24.2750  -29.3480 O   0  0  0  0  0  0  0  0  0  0  0  0
   -2.4150   21.4020  -27.3220 C   0  0  0  0  0  0  0  0  0  0  0  0
   -3.2570   22.6570  -27.5190 C   0  0  0  0  0  0  0  0  0  0  0  0
   -3.1140   24.9100  -30.4860 H   0  0  0  0  0  0  0  0  0  0  0  0
   -8.0396   24.6336  -30.8157 H   0  0  0  0  0  0  0  0  0  0  0  0
   -9.6188   22.3819  -31.5840 H   0  0  0  0  0  0  0  0  0  0  0  0
   -9.4778   19.9379  -32.1594 H   0  0  0  0  0  0  0  0  0  0  0  0
   -5.1535   20.0628  -31.6121 H   0  0  0  0  0  0  0  0  0  0  0  0
   -4.2529   21.0503  -29.3651 H   0  0  0  0  0  0  0  0  0  0  0  0
   -2.7363   20.8166  -30.3947 H   0  0  0  0  0  0  0  0  0  0  0  0
   -0.4770   22.8481  -28.3827 H   0  0  0  0  0  0  0  0  0  0  0  0
   -0.9234   22.5160  -30.1186 H   0  0  0  0  0  0  0  0  0  0  0  0
   -2.1380   24.3300  -30.1620 H   0  0  0  0  0  0  0  0  0  0  0  0
   -2.9052   20.4298  -27.1654 H   0  0  0  0  0  0  0  0  0  0  0  0
   -1.6088   21.1062  -26.6346 H   0  0  0  0  0  0  0  0  0  0  0  0
   -4.3548   22.5898  -27.5029 H   0  0  0  0  0  0  0  0  0  0  0  0
   -3.3088   23.6412  -27.0304 H   0  0  0  0  0  0  0  0  0  0  0  0
  1  2  1  0
  2  3  2  0
  2  4  1  0
  4  5  2  0
  5  6  1  0
  6  7  2  0
  7  8  1  0
  8  9  2  0
  9 10  1  0
 10 11  1  0
 10 12  1  0
 10 13  1  0
  9 14  1  0
 14 15  2  0
 15 16  1  0
 16 17  1  0
 17 18  2  0
 17 19  1  0
 19 20  1  0
 20 21  1  0
 21 22  1  0
 20 23  1  0
 23 24  1  0
 16  4  1  0
 24 20  1  0
 15  6  1  0
  1 25  1  0
  5 26  1  0
  7 27  1  0
  8 28  1  0
 14 29  1  0
 19 30  1  0
 19 31  1  0
 21 32  1  0
 21 33  1  0
 22 34  1  0
 23 35  1  0
 23 36  1  0
 24 37  1  0
 24 38  1  0
M  CHG  1   1  -1
M  END
>  <UniqueID>  (9) 
9

>  <SMILES>  (9) 
[NH-]C(=O)c1cc2ccc(C(F)(F)F)cc2n1C(=O)CC1(CO)CC1

>  <Energy>  (9) 
349.7447735585687

>  <Genealogy>  (9) 
[NH-]C(=O)c1cc2ccc(C(F)(F)F)cc2n1C(=O)CC1(CO)CC1 (protonated)
[NH-]C(=O)c1cc2ccc(C(F)(F)F)cc2n1C(=O)CC1(CO)CC1 (3D coordinates assigned)
[NH-]C(=O)c1cc2ccc(C(F)(F)F)cc2n1C(=O)CC1(CO)CC1 (nonaromatic ring conformer: 349.7447735585687 kcal/mol)

>  <smiles>  (9) 
NC(=O)c1cc2ccc(C(F)(F)F)cc2n1C(=O)CC1(CO)CC1

>  <score_type>  (9) 
oracle

>  <origin>  (9) 
adg

>  <m_score__min__energy>  (9) 
-10.710000000000001

>  <m_primary>  (9) 
energy

$$$$
9:0
     RDKit          3D

 38 40  0  0  0  0  0  0  0  0999 V2000
   -4.2840   25.7480  -30.4740 N   0  0  0  0  0  0  0  0  0  0  0  0
   -5.5430   25.1410  -30.2110 C   0  0  0  0  0  0  0  0  0  0  0  0
   -6.3150   25.6670  -29.3600 O   0  0  0  0  0  0  0  0  0  0  0  0
   -5.9320   23.8740  -30.8670 C   0  0  0  0  0  0  0  0  0  0  0  0
   -7.2360   23.5950  -31.2760 C   0  0  0  0  0  0  0  0  0  0  0  0
   -7.1980   22.3130  -31.7700 C   0  0  0  0  0  0  0  0  0  0  0  0
   -8.2120   21.5410  -32.3250 C   0  0  0  0  0  0  0  0  0  0  0  0
   -7.8860   20.2550  -32.7870 C   0  0  0  0  0  0  0  0  0  0  0  0
   -6.5550   19.7670  -32.6970 C   0  0  0  0  0  0  0  0  0  0  0  0
   -6.2240   18.4010  -33.1860 C   0  0  0  0  0  0  0  0  0  0  0  0
   -7.1720   17.3630  -33.0950 C   0  0  0  0  0  0  0  0  0  0  0  0
   -6.8640   16.0780  -33.5530 C   0  0  0  0  0  0  0  0  0  0  0  0
   -5.6120   15.8140  -34.1090 C   0  0  0  0  0  0  0  0  0  0  0  0
   -4.6610   16.8350  -34.2080 C   0  0  0  0  0  0  0  0  0  0  0  0
   -2.9500   16.4760  -34.9780 Br  0  0  0  0  0  0  0  0  0  0  0  0
   -4.9630   18.1230  -33.7490 C   0  0  0  0  0  0  0  0  0  0  0  0
   -5.5500   20.5900  -32.1360 C   0  0  0  0  0  0  0  0  0  0  0  0
   -5.9080   21.8580  -31.6590 C   0  0  0  0  0  0  0  0  0  0  0  0
   -5.1170   22.8050  -31.1010 N   0  0  0  0  0  0  0  0  0  0  0  0
   -3.6880   22.7460  -30.9350 C   0  0  0  0  0  0  0  0  0  0  0  0
   -2.9400   22.9650  -31.9270 O   0  0  0  0  0  0  0  0  0  0  0  0
   -3.0740   22.3630  -29.6170 C   0  0  0  0  0  0  0  0  0  0  0  0
   -2.6160   23.8270  -28.6340 P   0  0  2  0  0  0  0  0  0  0  0  0
   -1.9330   24.8310  -29.5340 O   0  0  0  0  0  0  0  0  0  0  0  0
   -1.5530   23.3730  -27.3990 O   0  0  0  0  0  0  0  0  0  0  0  0
   -4.0030   24.5290  -27.9610 O   0  0  0  0  0  0  0  0  0  0  0  0
   -3.5020   25.6850  -29.7860 H   0  0  0  0  0  0  0  0  0  0  0  0
   -8.1099   24.2603  -31.2159 H   0  0  0  0  0  0  0  0  0  0  0  0
   -9.2397   21.9258  -32.4003 H   0  0  0  0  0  0  0  0  0  0  0  0
   -8.6702   19.6188  -33.2233 H   0  0  0  0  0  0  0  0  0  0  0  0
   -8.1621   17.5647  -32.6604 H   0  0  0  0  0  0  0  0  0  0  0  0
   -7.6104   15.2738  -33.4747 H   0  0  0  0  0  0  0  0  0  0  0  0
   -5.3726   14.8027  -34.4696 H   0  0  0  0  0  0  0  0  0  0  0  0
   -4.2113   18.9222  -33.8285 H   0  0  0  0  0  0  0  0  0  0  0  0
   -4.5085   20.2414  -32.0755 H   0  0  0  0  0  0  0  0  0  0  0  0
   -3.7993   21.7638  -29.0469 H   0  0  0  0  0  0  0  0  0  0  0  0
   -2.1590   21.7873  -29.8202 H   0  0  0  0  0  0  0  0  0  0  0  0
   -4.2460   25.2590  -28.5860 H   0  0  0  0  0  0  0  0  0  0  0  0
  1  2  1  0
  2  3  2  0
  2  4  1  0
  4  5  2  0
  5  6  1  0
  6  7  2  0
  7  8  1  0
  8  9  2  0
  9 10  1  0
 10 11  2  0
 11 12  1  0
 12 13  2  0
 13 14  1  0
 14 15  1  0
 14 16  2  0
  9 17  1  0
 17 18  2  0
 18 19  1  0
 19 20  1  0
 20 21  2  0
 20 22  1  0
 22 23  1  0
 23 24  2  0
 23 25  1  1
 23 26  1  0
 19  4  1  0
 18  6  1  0
 16 10  1  0
  1 27  1  0
  5 28  1  0
  7 29  1  0
  8 30  1  0
 11 31  1  0
 12 32  1  0
 13 33  1  0
 16 34  1  0
 17 35  1  0
 22 36  1  0
 22 37  1  0
 26 38  1  0
M  CHG  2   1  -1  25  -1
M  END
>  <UniqueID>  (10) 
10

>  <SMILES>  (10) 
[NH-]C(=O)c1cc2ccc(-c3cccc(Br)c3)cc2n1C(=O)C[P@](=O)([O-])O

>  <Energy>  (10) 
80.18272105788436

>  <Genealogy>  (10) 
[NH-]C(=O)c1cc2ccc(-c3cccc(Br)c3)cc2n1C(=O)CP(=O)([O-])O (protonated)
[NH-]C(=O)c1cc2ccc(-c3cccc(Br)c3)cc2n1C(=O)C[P@](=O)([O-])O (chirality)
[NH-]C(=O)c1cc2ccc(-c3cccc(Br)c3)cc2n1C(=O)C[P@](=O)([O-])O (3D coordinates assigned)
[NH-]C(=O)c1cc2ccc(-c3cccc(Br)c3)cc2n1C(=O)C[P@](=O)([O-])O (optimized conformer: 80.18272105788436 kcal/mol)

>  <smiles>  (10) 
NC(=O)c1cc2ccc(-c3cccc(Br)c3)cc2n1C(=O)CP(=O)(O)O

>  <score_type>  (10) 
oracle

>  <origin>  (10) 
adg

>  <m_score__min__energy>  (10) 
-14.279999999999999

>  <m_primary>  (10) 
energy

$$$$
10:0
     RDKit          3D

 30 31  0  0  0  0  0  0  0  0999 V2000
   -4.2130   25.6080  -30.7660 N   0  0  0  0  0  0  0  0  0  0  0  0
   -5.5590   25.2040  -30.5070 C   0  0  0  0  0  0  0  0  0  0  0  0
   -6.3210   25.9860  -29.8790 O   0  0  0  0  0  0  0  0  0  0  0  0
   -6.0640   23.8950  -30.9790 C   0  0  0  0  0  0  0  0  0  0  0  0
   -7.4040   23.6170  -31.2480 C   0  0  0  0  0  0  0  0  0  0  0  0
   -7.4430   22.2780  -31.5670 C   0  0  0  0  0  0  0  0  0  0  0  0
   -8.5210   21.4660  -31.9100 C   0  0  0  0  0  0  0  0  0  0  0  0
   -8.2640   20.1130  -32.1910 C   0  0  0  0  0  0  0  0  0  0  0  0
   -6.9430   19.6030  -32.1360 C   0  0  0  0  0  0  0  0  0  0  0  0
   -6.6890   18.1510  -32.4140 C   0  0  0  0  0  0  0  0  0  0  0  0
   -7.8730   17.4450  -32.3060 F   0  0  0  0  0  0  0  0  0  0  0  0
   -5.8760   20.4510  -31.7650 C   0  0  0  0  0  0  0  0  0  0  0  0
   -6.1650   21.7900  -31.4830 C   0  0  0  0  0  0  0  0  0  0  0  0
   -5.3090   22.7700  -31.1280 N   0  0  0  0  0  0  0  0  0  0  0  0
   -3.8880   22.6350  -30.9810 C   0  0  0  0  0  0  0  0  0  0  0  0
   -3.1580   22.5670  -32.0070 O   0  0  0  0  0  0  0  0  0  0  0  0
   -3.2560   22.6640  -29.6230 C   0  0  0  0  0  0  0  0  0  0  0  0
   -2.1260   23.6420  -29.6130 C   0  0  0  0  0  0  0  0  0  0  0  0
   -0.9400   23.2420  -29.7510 O   0  0  0  0  0  0  0  0  0  0  0  0
   -2.3750   24.9920  -29.3990 O   0  0  0  0  0  0  0  0  0  0  0  0
   -3.5290   24.9660  -31.2230 H   0  0  0  0  0  0  0  0  0  0  0  0
   -3.8780   26.5440  -30.4480 H   0  0  0  0  0  0  0  0  0  0  0  0
   -8.2504   24.3187  -31.2128 H   0  0  0  0  0  0  0  0  0  0  0  0
   -9.5425   21.8711  -31.9595 H   0  0  0  0  0  0  0  0  0  0  0  0
   -9.0959   19.4439  -32.4560 H   0  0  0  0  0  0  0  0  0  0  0  0
   -6.2866   18.0378  -33.4315 H   0  0  0  0  0  0  0  0  0  0  0  0
   -5.9628   17.7608  -31.6858 H   0  0  0  0  0  0  0  0  0  0  0  0
   -4.8466   20.0689  -31.6997 H   0  0  0  0  0  0  0  0  0  0  0  0
   -4.0063   22.9649  -28.8770 H   0  0  0  0  0  0  0  0  0  0  0  0
   -2.8725   21.6624  -29.3787 H   0  0  0  0  0  0  0  0  0  0  0  0
  1  2  1  0
  2  3  2  0
  2  4  1  0
  4  5  2  0
  5  6  1  0
  6  7  2  0
  7  8  1  0
  8  9  2  0
  9 10  1  0
 10 11  1  0
  9 12  1  0
 12 13  2  0
 13 14  1  0
 14 15  1  0
 15 16  2  0
 15 17  1  0
 17 18  1  0
 18 19  2  0
 18 20  1  0
 14  4  1  0
 13  6  1  0
  1 21  1  0
  1 22  1  0
  5 23  1  0
  7 24  1  0
  8 25  1  0
 10 26  1  0
 10 27  1  0
 12 28  1  0
 17 29  1  0
 17 30  1  0
M  CHG  1  20  -1
M  END
>  <UniqueID>  (11) 
11

>  <SMILES>  (11) 
NC(=O)c1cc2ccc(CF)cc2n1C(=O)CC(=O)[O-]

>  <Energy>  (11) 
67.09373065938803

>  <Genealogy>  (11) 
NC(=O)c1cc2ccc(CF)cc2n1C(=O)CC(=O)[O-] (protonated)
NC(=O)c1cc2ccc(CF)cc2n1C(=O)CC(=O)[O-] (3D coordinates assigned)
NC(=O)c1cc2ccc(CF)cc2n1C(=O)CC(=O)[O-] (optimized conformer: 67.09373065938803 kcal/mol)

>  <smiles>  (11) 
NC(=O)c1cc2ccc(CF)cc2n1C(=O)CC(=O)O

>  <score_type>  (11) 
oracle

>  <origin>  (11) 
adg

>  <m_score__min__energy>  (11) 
-10.039999999999999

>  <m_primary>  (11) 
energy

$$$$
11:0
     RDKit          3D

 38 40  0  0  0  0  0  0  0  0999 V2000
   -5.8180   25.1710  -29.1030 N   0  0  0  0  0  0  0  0  0  0  0  0
   -5.5440   24.8250  -30.4620 C   0  0  0  0  0  0  0  0  0  0  0  0
   -4.9440   25.6510  -31.1990 O   0  0  0  0  0  0  0  0  0  0  0  0
   -6.0030   23.5430  -31.0320 C   0  0  0  0  0  0  0  0  0  0  0  0
   -7.3440   23.1770  -31.1200 C   0  0  0  0  0  0  0  0  0  0  0  0
   -7.3400   21.9110  -31.6580 C   0  0  0  0  0  0  0  0  0  0  0  0
   -8.4040   21.0800  -31.9910 C   0  0  0  0  0  0  0  0  0  0  0  0
   -8.1120   19.8400  -32.5830 C   0  0  0  0  0  0  0  0  0  0  0  0
   -6.7700   19.4500  -32.8260 C   0  0  0  0  0  0  0  0  0  0  0  0
   -6.4720   18.1470  -33.5240 C   0  0  0  0  0  0  0  0  0  0  0  0
   -5.4010   17.5060  -32.9250 F   0  0  0  0  0  0  0  0  0  0  0  0
   -6.1640   18.4000  -34.8470 F   0  0  0  0  0  0  0  0  0  0  0  0
   -7.5680   17.3020  -33.4680 F   0  0  0  0  0  0  0  0  0  0  0  0
   -5.7180   20.3350  -32.4960 C   0  0  0  0  0  0  0  0  0  0  0  0
   -6.0360   21.5540  -31.8840 C   0  0  0  0  0  0  0  0  0  0  0  0
   -5.2020   22.5480  -31.5060 N   0  0  0  0  0  0  0  0  0  0  0  0
   -3.7780   22.5890  -31.6890 C   0  0  0  0  0  0  0  0  0  0  0  0
   -3.2520   21.9630  -32.6500 O   0  0  0  0  0  0  0  0  0  0  0  0
   -2.9630   23.3450  -30.7820 N   0  0  0  0  0  0  0  0  0  0  0  0
   -2.6500   23.0010  -29.3900 C   0  0  2  0  0  0  0  0  0  0  0  0
   -3.8630   22.4390  -28.6440 C   0  0  0  0  0  0  0  0  0  0  0  0
   -3.9660   23.1330  -27.3590 N   0  0  0  0  0  0  0  0  0  0  0  0
   -3.2600   24.4020  -27.5220 C   0  0  0  0  0  0  0  0  0  0  0  0
   -2.1790   24.1980  -28.5690 C   0  0  2  0  0  0  0  0  0  0  0  0
   -1.9950   25.3430  -29.3290 F   0  0  0  0  0  0  0  0  0  0  0  0
   -6.4640   24.5960  -28.5190 H   0  0  0  0  0  0  0  0  0  0  0  0
   -5.4440   26.0610  -28.7040 H   0  0  0  0  0  0  0  0  0  0  0  0
   -8.2194   23.7731  -30.8227 H   0  0  0  0  0  0  0  0  0  0  0  0
   -9.4430   21.3844  -31.7967 H   0  0  0  0  0  0  0  0  0  0  0  0
   -8.9336   19.1636  -32.8614 H   0  0  0  0  0  0  0  0  0  0  0  0
   -4.6726   20.0719  -32.7151 H   0  0  0  0  0  0  0  0  0  0  0  0
   -1.8491   22.2521  -29.4783 H   0  0  0  0  0  0  0  0  0  0  0  0
   -4.7756   22.6089  -29.2341 H   0  0  0  0  0  0  0  0  0  0  0  0
   -3.7459   21.3568  -28.4852 H   0  0  0  0  0  0  0  0  0  0  0  0
   -3.4450   22.5690  -26.6470 H   0  0  0  0  0  0  0  0  0  0  0  0
   -3.9617   25.1810  -27.8549 H   0  0  0  0  0  0  0  0  0  0  0  0
   -2.8163   24.7213  -26.5674 H   0  0  0  0  0  0  0  0  0  0  0  0
   -1.1907   24.0024  -28.1274 H   0  0  0  0  0  0  0  0  0  0  0  0
  1  2  1  0
  2  3  2  0
  2  4  1  0
  4  5  2  0
  5  6  1  0
  6  7  2  0
  7  8  1  0
  8  9  2  0
  9 10  1  0
 10 11  1  0
 10 12  1  0
 10 13  1  0
  9 14  1  0
 14 15  2  0
 15 16  1  0
 16 17  1  0
 17 18  2  0
 17 19  1  0
 19 20  1  0
 20 21  1  0
 21 22  1  0
 22 23  1  0
 23 24  1  0
 24 25  1  0
 16  4  1  0
 24 20  1  0
 15  6  1  0
  1 26  1  0
  1 27  1  0
  5 28  1  0
  7 29  1  0
  8 30  1  0
 14 31  1  0
 20 32  1  6
 21 33  1  0
 21 34  1  0
 22 35  1  0
 23 36  1  0
 23 37  1  0
 24 38  1  1
M  CHG  1  19  -1
M  END
>  <UniqueID>  (12) 
12

>  <SMILES>  (12) 
NC(=O)c1cc2ccc(C(F)(F)F)cc2n1C(=O)[N-][C@@H]1CNC[C@@H]1F

>  <Energy>  (12) 
81.3809895027296

>  <Genealogy>  (12) 
NC(=O)c1cc2ccc(C(F)(F)F)cc2n1C(=O)[N-][C@@H]1CNCC1F (protonated)
NC(=O)c1cc2ccc(C(F)(F)F)cc2n1C(=O)[N-][C@@H]1CNC[C@@H]1F (chirality)
NC(=O)c1cc2ccc(C(F)(F)F)cc2n1C(=O)[N-][C@@H]1CNC[C@@H]1F (3D coordinates assigned)
NC(=O)c1cc2ccc(C(F)(F)F)cc2n1C(=O)[N-][C@@H]1CNC[C@@H]1F (nonaromatic ring conformer: 81.3809895027296 kcal/mol)

>  <smiles>  (12) 
NC(=O)c1cc2ccc(C(F)(F)F)cc2n1C(=O)N[C@@H]1CNCC1F

>  <score_type>  (12) 
oracle

>  <origin>  (12) 
adg

>  <m_score__min__energy>  (12) 
-9.4000000000000004

>  <m_primary>  (12) 
energy

$$$$
12:0
     RDKit          3D

 34 35  0  0  0  0  0  0  0  0999 V2000
   -4.2170   25.5240  -30.6110 N   0  0  0  0  0  0  0  0  0  0  0  0
   -5.5220   25.0510  -30.2720 C   0  0  0  0  0  0  0  0  0  0  0  0
   -6.2370   25.7300  -29.4890 O   0  0  0  0  0  0  0  0  0  0  0  0
   -6.0460   23.7940  -30.8490 C   0  0  0  0  0  0  0  0  0  0  0  0
   -7.3740   23.5990  -31.2270 C   0  0  0  0  0  0  0  0  0  0  0  0
   -7.4540   22.2800  -31.6140 C   0  0  0  0  0  0  0  0  0  0  0  0
   -8.5400   21.5440  -32.0750 C   0  0  0  0  0  0  0  0  0  0  0  0
   -8.3300   20.1960  -32.4100 C   0  0  0  0  0  0  0  0  0  0  0  0
   -7.0400   19.6130  -32.3000 C   0  0  0  0  0  0  0  0  0  0  0  0
   -6.8360   18.1550  -32.6220 C   0  0  0  0  0  0  0  0  0  0  0  0
   -7.9960   17.4370  -32.3890 F   0  0  0  0  0  0  0  0  0  0  0  0
   -6.4870   17.9920  -33.9520 F   0  0  0  0  0  0  0  0  0  0  0  0
   -5.8260   17.6500  -31.8260 F   0  0  0  0  0  0  0  0  0  0  0  0
   -5.9660   20.3890  -31.8030 C   0  0  0  0  0  0  0  0  0  0  0  0
   -6.2100   21.7240  -31.4670 C   0  0  0  0  0  0  0  0  0  0  0  0
   -5.3360   22.6400  -31.0000 N   0  0  0  0  0  0  0  0  0  0  0  0
   -3.9320   22.4290  -30.7820 C   0  0  0  0  0  0  0  0  0  0  0  0
   -3.1020   22.8990  -31.6070 O   0  0  0  0  0  0  0  0  0  0  0  0
   -3.4510   21.8070  -29.5000 C   0  0  0  0  0  0  0  0  0  0  0  0
   -2.9810   23.0560  -28.2560 P   0  0  2  0  0  0  0  0  0  0  0  0
   -2.3970   22.3750  -27.0380 O   0  0  0  0  0  0  0  0  0  0  0  0
   -4.3620   23.9230  -27.8050 O   0  0  0  0  0  0  0  0  0  0  0  0
   -1.7790   24.1890  -28.9440 C   0  0  0  0  0  0  0  0  0  0  0  0
   -2.1390   25.3280  -29.3380 O   0  0  0  0  0  0  0  0  0  0  0  0
   -0.4550   23.7930  -29.0850 O   0  0  0  0  0  0  0  0  0  0  0  0
   -3.5730   24.9620  -31.2080 H   0  0  0  0  0  0  0  0  0  0  0  0
   -3.8750   26.4320  -30.2250 H   0  0  0  0  0  0  0  0  0  0  0  0
   -8.1856   24.3415  -31.2179 H   0  0  0  0  0  0  0  0  0  0  0  0
   -9.5343   22.0038  -32.1744 H   0  0  0  0  0  0  0  0  0  0  0  0
   -9.1746   19.5852  -32.7615 H   0  0  0  0  0  0  0  0  0  0  0  0
   -4.9634   19.9524  -31.6839 H   0  0  0  0  0  0  0  0  0  0  0  0
   -4.2562   21.1819  -29.0865 H   0  0  0  0  0  0  0  0  0  0  0  0
   -2.5564   21.2101  -29.7312 H   0  0  0  0  0  0  0  0  0  0  0  0
   -4.2550   24.8110  -28.2310 H   0  0  0  0  0  0  0  0  0  0  0  0
  1  2  1  0
  2  3  2  0
  2  4  1  0
  4  5  2  0
  5  6  1  0
  6  7  2  0
  7  8  1  0
  8  9  2  0
  9 10  1  0
 10 11  1  0
 10 12  1  0
 10 13  1  0
  9 14  1  0
 14 15  2  0
 15 16  1  0
 16 17  1  0
 17 18  2  0
 17 19  1  0
 19 20  1  0
 20 21  2  0
 20 22  1  1
 20 23  1  0
 23 24  2  0
 23 25  1  0
 16  4  1  0
 15  6  1  0
  1 26  1  0
  1 27  1  0
  5 28  1  0
  7 29  1  0
  8 30  1  0
 14 31  1  0
 19 32  1  0
 19 33  1  0
 22 34  1  0
M  CHG  1  25  -1
M  END
>  <UniqueID>  (13) 
13

>  <SMILES>  (13) 
NC(=O)c1cc2ccc(C(F)(F)F)cc2n1C(=O)C[P@](=O)(O)C(=O)[O-]

>  <Energy>  (13) 
68.61268724105874

>  <Genealogy>  (13) 
NC(=O)c1cc2ccc(C(F)(F)F)cc2n1C(=O)CP(=O)(O)C(=O)[O-] (protonated)
NC(=O)c1cc2ccc(C(F)(F)F)cc2n1C(=O)C[P@](=O)(O)C(=O)[O-] (chirality)
NC(=O)c1cc2ccc(C(F)(F)F)cc2n1C(=O)C[P@](=O)(O)C(=O)[O-] (3D coordinates assigned)
NC(=O)c1cc2ccc(C(F)(F)F)cc2n1C(=O)C[P@](=O)(O)C(=O)[O-] (optimized conformer: 68.61268724105874 kcal/mol)

>  <smiles>  (13) 
NC(=O)c1cc2ccc(C(F)(F)F)cc2n1C(=O)CP(=O)(O)C(=O)O

>  <score_type>  (13) 
oracle

>  <origin>  (13) 
adg

>  <m_score__min__energy>  (13) 
-9.9399999999999995

>  <m_primary>  (13) 
energy

$$$$
13:0
     RDKit          3D

 52 54  0  0  0  0  0  0  0  0999 V2000
   -0.0890   23.7760  -24.7670 C   0  0  0  0  0  0  0  0  0  0  0  0
   -0.9450   23.7790  -25.9640 N   0  0  0  0  0  0  0  0  0  0  0  0
   -1.8110   24.9670  -25.9760 C   0  0  0  0  0  0  0  0  0  0  0  0
   -2.8290   24.8770  -27.1310 C   0  0  0  0  0  0  0  0  0  0  0  0
   -2.3860   23.9870  -28.2340 N   0  0  0  0  0  0  0  0  0  0  0  0
   -2.8370   22.5860  -28.0580 C   0  0  0  0  0  0  0  0  0  0  0  0
   -2.0880   21.6600  -29.0160 C   0  0  0  0  0  0  0  0  0  0  0  0
   -2.0920   22.2060  -30.3200 O   0  0  0  0  0  0  0  0  0  0  0  0
   -3.2080   21.7500  -31.0590 C   0  0  0  0  0  0  0  0  0  0  0  0
   -4.2030   22.8630  -31.1850 C   0  0  0  0  0  0  0  0  0  0  0  0
   -3.8060   24.0580  -31.2180 O   0  0  0  0  0  0  0  0  0  0  0  0
   -5.6070   22.5830  -31.1330 N   0  0  0  0  0  0  0  0  0  0  0  0
   -6.5880   23.3360  -30.5670 C   0  0  0  0  0  0  0  0  0  0  0  0
   -6.3590   24.5690  -29.7770 C   0  0  0  0  0  0  0  0  0  0  0  0
   -5.1130   24.7970  -29.1130 N   0  0  0  0  0  0  0  0  0  0  0  0
   -7.2650   25.4380  -29.6900 O   0  0  0  0  0  0  0  0  0  0  0  0
   -7.8380   22.7720  -30.8240 C   0  0  0  0  0  0  0  0  0  0  0  0
   -7.5830   21.6500  -31.5840 C   0  0  0  0  0  0  0  0  0  0  0  0
   -8.4600   20.7420  -32.1720 C   0  0  0  0  0  0  0  0  0  0  0  0
   -7.9150   19.7220  -32.9710 C   0  0  0  0  0  0  0  0  0  0  0  0
   -6.5100   19.6140  -33.1550 C   0  0  0  0  0  0  0  0  0  0  0  0
   -5.9540   18.5660  -34.0840 C   0  0  0  0  0  0  0  0  0  0  0  0
   -6.0990   18.9430  -35.4090 F   0  0  0  0  0  0  0  0  0  0  0  0
   -6.6300   17.3760  -33.8800 F   0  0  0  0  0  0  0  0  0  0  0  0
   -4.6070   18.3700  -33.8330 F   0  0  0  0  0  0  0  0  0  0  0  0
   -5.6550   20.5610  -32.5470 C   0  0  0  0  0  0  0  0  0  0  0  0
   -6.2280   21.5600  -31.7550 C   0  0  0  0  0  0  0  0  0  0  0  0
   -0.9290   24.0900  -28.4530 C   0  0  0  0  0  0  0  0  0  0  0  0
   -0.1190   23.7240  -27.1880 C   0  0  0  0  0  0  0  0  0  0  0  0
   -0.7193   23.7782  -23.8655 H   0  0  0  0  0  0  0  0  0  0  0  0
    0.5429   22.8756  -24.7704 H   0  0  0  0  0  0  0  0  0  0  0  0
    0.5492   24.6719  -24.7704 H   0  0  0  0  0  0  0  0  0  0  0  0
   -2.3517   25.0313  -25.0202 H   0  0  0  0  0  0  0  0  0  0  0  0
   -1.1877   25.8622  -26.1180 H   0  0  0  0  0  0  0  0  0  0  0  0
   -3.7784   24.4916  -26.7308 H   0  0  0  0  0  0  0  0  0  0  0  0
   -2.9371   25.8881  -27.5506 H   0  0  0  0  0  0  0  0  0  0  0  0
   -2.6424   22.2701  -27.0225 H   0  0  0  0  0  0  0  0  0  0  0  0
   -3.9138   22.5282  -28.2752 H   0  0  0  0  0  0  0  0  0  0  0  0
   -1.0493   21.5443  -28.6729 H   0  0  0  0  0  0  0  0  0  0  0  0
   -2.5869   20.6798  -29.0340 H   0  0  0  0  0  0  0  0  0  0  0  0
   -2.8816   21.4331  -32.0605 H   0  0  0  0  0  0  0  0  0  0  0  0
   -3.6709   20.8971  -30.5411 H   0  0  0  0  0  0  0  0  0  0  0  0
   -4.9620   25.6790  -28.5740 H   0  0  0  0  0  0  0  0  0  0  0  0
   -4.3540   24.0820  -29.1110 H   0  0  0  0  0  0  0  0  0  0  0  0
   -8.8184   23.1434  -30.4911 H   0  0  0  0  0  0  0  0  0  0  0  0
   -9.5460   20.8206  -32.0160 H   0  0  0  0  0  0  0  0  0  0  0  0
   -8.5842   18.9986  -33.4598 H   0  0  0  0  0  0  0  0  0  0  0  0
   -4.5658   20.5130  -32.6934 H   0  0  0  0  0  0  0  0  0  0  0  0
   -0.6441   23.4059  -29.2659 H   0  0  0  0  0  0  0  0  0  0  0  0
   -0.6999   25.1350  -28.7091 H   0  0  0  0  0  0  0  0  0  0  0  0
    0.2771   22.7043  -27.3031 H   0  0  0  0  0  0  0  0  0  0  0  0
    0.6934   24.4580  -27.0818 H   0  0  0  0  0  0  0  0  0  0  0  0
  1  2  1  0
  2  3  1  0
  3  4  1  0
  4  5  1  0
  5  6  1  0
  6  7  1  0
  7  8  1  0
  8  9  1  0
  9 10  1  0
 10 11  2  0
 10 12  1  0
 12 13  1  0
 13 14  1  0
 14 15  1  0
 14 16  2  0
 13 17  2  0
 17 18  1  0
 18 19  2  0
 19 20  1  0
 20 21  2  0
 21 22  1  0
 22 23  1  0
 22 24  1  0
 22 25  1  0
 21 26  1  0
 26 27  2  0
  5 28  1  0
 28 29  1  0
 29  2  1  0
 27 12  1  0
 27 18  1  0
  1 30  1  0
  1 31  1  0
  1 32  1  0
  3 33  1  0
  3 34  1  0
  4 35  1  0
  4 36  1  0
  6 37  1  0
  6 38  1  0
  7 39  1  0
  7 40  1  0
  9 41  1  0
  9 42  1  0
 15 43  1  0
 15 44  1  0
 17 45  1  0
 19 46  1  0
 20 47  1  0
 26 48  1  0
 28 49  1  0
 28 50  1  0
 29 51  1  0
 29 52  1  0
M  END
>  <UniqueID>  (14) 
14

>  <SMILES>  (14) 
CN1CCN(CCOCC(=O)n2c(C(N)=O)cc3ccc(C(F)(F)F)cc32)CC1

>  <Energy>  (14) 
101.56277771146709

>  <Genealogy>  (14) 
CN1CCN(CCOCC(=O)n2c(C(N)=O)cc3ccc(C(F)(F)F)cc32)CC1 (3D coordinates assigned)
CN1CCN(CCOCC(=O)n2c(C(N)=O)cc3ccc(C(F)(F)F)cc32)CC1 (nonaromatic ring conformer: 101.56277771146709 kcal/mol)

>  <smiles>  (14) 
CN1CCN(CCOCC(=O)n2c(C(N)=O)cc3ccc(C(F)(F)F)cc32)CC1

>  <score_type>  (14) 
oracle

>  <origin>  (14) 
adg

>  <m_score__min__energy>  (14) 
-9.0399999999999991

>  <m_primary>  (14) 
energy

$$$$
14:0
     RDKit          3D

 47 48  0  0  0  0  0  0  0  0999 V2000
   -3.5210   21.5270  -32.9120 C   0  0  0  0  0  0  0  0  0  0  0  0
   -3.0870   21.6980  -31.5220 N   0  0  0  0  0  0  0  0  0  0  0  0
   -4.0580   22.0140  -30.5030 C   0  0  0  0  0  0  0  0  0  0  0  0
   -3.7860   21.8310  -29.2870 O   0  0  0  0  0  0  0  0  0  0  0  0
   -5.3610   22.4960  -30.8610 N   0  0  0  0  0  0  0  0  0  0  0  0
   -5.8530   23.7590  -30.7340 C   0  0  0  0  0  0  0  0  0  0  0  0
   -5.0890   24.9450  -30.2920 C   0  0  0  0  0  0  0  0  0  0  0  0
   -3.8860   25.3340  -30.9490 N   0  0  0  0  0  0  0  0  0  0  0  0
   -5.5140   25.6380  -29.3290 O   0  0  0  0  0  0  0  0  0  0  0  0
   -7.1900   23.8020  -31.1300 C   0  0  0  0  0  0  0  0  0  0  0  0
   -7.5020   22.5120  -31.5030 C   0  0  0  0  0  0  0  0  0  0  0  0
   -8.7020   21.9710  -31.9580 C   0  0  0  0  0  0  0  0  0  0  0  0
   -8.7400   20.5920  -32.2380 C   0  0  0  0  0  0  0  0  0  0  0  0
   -7.5840   19.7840  -32.0610 C   0  0  0  0  0  0  0  0  0  0  0  0
   -7.6220   18.2970  -32.3080 C   0  0  0  0  0  0  0  0  0  0  0  0
   -6.7570   17.6530  -31.4380 F   0  0  0  0  0  0  0  0  0  0  0  0
   -7.2460   17.9900  -33.6050 F   0  0  0  0  0  0  0  0  0  0  0  0
   -8.9080   17.8320  -32.0940 F   0  0  0  0  0  0  0  0  0  0  0  0
   -6.3940   20.3720  -31.5780 C   0  0  0  0  0  0  0  0  0  0  0  0
   -6.3810   21.7460  -31.3280 C   0  0  0  0  0  0  0  0  0  0  0  0
   -1.6990   21.5180  -31.1760 C   0  0  0  0  0  0  0  0  0  0  0  0
   -0.8090   21.9060  -31.9850 O   0  0  0  0  0  0  0  0  0  0  0  0
   -1.3230   20.9400  -29.9020 N   0  0  1  0  0  0  0  0  0  0  0  0
   -0.3950   19.8070  -30.0750 C   0  0  0  0  0  0  0  0  0  0  0  0
   -0.8220   21.9700  -28.9630 C   0  0  0  0  0  0  0  0  0  0  0  0
   -1.0750   23.4310  -29.4080 C   0  0  0  0  0  0  0  0  0  0  0  0
   -1.9080   24.1940  -28.3740 C   0  0  0  0  0  0  0  0  0  0  0  0
   -2.3560   25.4050  -28.9160 O   0  0  0  0  0  0  0  0  0  0  0  0
   -4.5443   21.1238  -32.9297 H   0  0  0  0  0  0  0  0  0  0  0  0
   -3.5014   22.5001  -33.4246 H   0  0  0  0  0  0  0  0  0  0  0  0
   -2.8429   20.8288  -33.4246 H   0  0  0  0  0  0  0  0  0  0  0  0
   -2.9680   25.2960  -30.4540 H   0  0  0  0  0  0  0  0  0  0  0  0
   -7.8541   24.6788  -31.1421 H   0  0  0  0  0  0  0  0  0  0  0  0
   -9.5927   22.6019  -32.0944 H   0  0  0  0  0  0  0  0  0  0  0  0
   -9.6738   20.1350  -32.5974 H   0  0  0  0  0  0  0  0  0  0  0  0
   -5.4965   19.7607  -31.4025 H   0  0  0  0  0  0  0  0  0  0  0  0
   -2.1810   20.5400  -29.4580 H   0  0  0  0  0  0  0  0  0  0  0  0
   -0.0872   19.4312  -29.0881 H   0  0  0  0  0  0  0  0  0  0  0  0
   -0.8976   19.0032  -30.6330 H   0  0  0  0  0  0  0  0  0  0  0  0
    0.4920   20.1415  -30.6330 H   0  0  0  0  0  0  0  0  0  0  0  0
   -1.3160   21.8174  -27.9921 H   0  0  0  0  0  0  0  0  0  0  0  0
    0.2699   21.8441  -28.9185 H   0  0  0  0  0  0  0  0  0  0  0  0
   -0.1077   23.9394  -29.5338 H   0  0  0  0  0  0  0  0  0  0  0  0
   -1.6326   23.4124  -30.3560 H   0  0  0  0  0  0  0  0  0  0  0  0
   -2.7750   23.5829  -28.0827 H   0  0  0  0  0  0  0  0  0  0  0  0
   -1.2842   24.4030  -27.4924 H   0  0  0  0  0  0  0  0  0  0  0  0
   -3.3440   25.3700  -28.9130 H   0  0  0  0  0  0  0  0  0  0  0  0
  1  2  1  0
  2  3  1  0
  3  4  2  0
  3  5  1  0
  5  6  1  0
  6  7  1  0
  7  8  1  0
  7  9  2  0
  6 10  2  0
 10 11  1  0
 11 12  2  0
 12 13  1  0
 13 14  2  0
 14 15  1  0
 15 16  1  0
 15 17  1  0
 15 18  1  0
 14 19  1  0
 19 20  2  0
  2 21  1  0
 21 22  2  0
 21 23  1  0
 23 24  1  0
 23 25  1  0
 25 26  1  0
 26 27  1  0
 27 28  1  0
 20  5  1  0
 20 11  1  0
  1 29  1  0
  1 30  1  0
  1 31  1  0
  8 32  1  0
 10 33  1  0
 12 34  1  0
 13 35  1  0
 19 36  1  0
 23 37  1  1
 24 38  1  0
 24 39  1  0
 24 40  1  0
 25 41  1  0
 25 42  1  0
 26 43  1  0
 26 44  1  0
 27 45  1  0
 27 46  1  0
 28 47  1  0
M  CHG  2   8  -1  23   1
M  END
>  <UniqueID>  (15) 
15

>  <SMILES>  (15) 
CN(C(=O)n1c(C([NH-])=O)cc2ccc(C(F)(F)F)cc21)C(=O)[N@@H+](C)CCCO

>  <Energy>  (15) 
91.56469759713859

>  <Genealogy>  (15) 
CN(C(=O)n1c(C([NH-])=O)cc2ccc(C(F)(F)F)cc21)C(=O)[NH+](C)CCCO (protonated)
CN(C(=O)n1c(C([NH-])=O)cc2ccc(C(F)(F)F)cc21)C(=O)[N@@H+](C)CCCO (chirality)
CN(C(=O)n1c(C([NH-])=O)cc2ccc(C(F)(F)F)cc21)C(=O)[N@@H+](C)CCCO (3D coordinates assigned)
CN(C(=O)n1c(C([NH-])=O)cc2ccc(C(F)(F)F)cc21)C(=O)[N@@H+](C)CCCO (optimized conformer: 91.56469759713859 kcal/mol)

>  <smiles>  (15) 
CN(CCCO)C(=O)N(C)C(=O)n1c(C(N)=O)cc2ccc(C(F)(F)F)cc21

>  <score_type>  (15) 
oracle

>  <origin>  (15) 
adg

>  <m_score__min__energy>  (15) 
-9.7699999999999996

>  <m_primary>  (15) 
energy

$$$$
15:0
     RDKit          3D

 53 54  0  0  0  0  0  0  0  0999 V2000
   -2.6950   24.6330  -27.6860 C   0  0  0  0  0  0  0  0  0  0  0  0
   -1.7040   25.3020  -28.5490 N   0  0  0  0  0  0  0  0  0  0  0  0
   -0.9080   26.2410  -27.7340 C   0  0  0  0  0  0  0  0  0  0  0  0
   -0.8400   24.2850  -29.1880 C   0  0  0  0  0  0  0  0  0  0  0  0
   -0.2560   23.2830  -28.1750 C   0  0  0  0  0  0  0  0  0  0  0  0
   -0.1110   21.8640  -28.7400 C   0  0  0  0  0  0  0  0  0  0  0  0
   -1.3120   21.4550  -29.4640 N   0  0  0  0  0  0  0  0  0  0  0  0
   -1.2670   20.8870  -30.7780 C   0  0  0  0  0  0  0  0  0  0  0  0
   -0.1680   20.8040  -31.3970 O   0  0  0  0  0  0  0  0  0  0  0  0
   -2.5420   20.4220  -31.4180 C   0  0  0  0  0  0  0  0  0  0  0  0
   -3.3600   21.5370  -31.9150 N   0  0  0  0  0  0  0  0  0  0  0  0
   -3.4470   21.7860  -33.3570 C   0  0  0  0  0  0  0  0  0  0  0  0
   -3.9760   22.4730  -31.0070 C   0  0  0  0  0  0  0  0  0  0  0  0
   -3.2640   23.0920  -30.1660 O   0  0  0  0  0  0  0  0  0  0  0  0
   -5.3630   22.8170  -31.1350 N   0  0  0  0  0  0  0  0  0  0  0  0
   -5.9280   24.0380  -30.9190 C   0  0  0  0  0  0  0  0  0  0  0  0
   -5.2120   25.2530  -30.4630 C   0  0  0  0  0  0  0  0  0  0  0  0
   -3.8640   25.4890  -30.8500 N   0  0  0  0  0  0  0  0  0  0  0  0
   -5.7700   26.0390  -29.6500 O   0  0  0  0  0  0  0  0  0  0  0  0
   -7.3090   23.9710  -31.0940 C   0  0  0  0  0  0  0  0  0  0  0  0
   -7.5730   22.6560  -31.4070 C   0  0  0  0  0  0  0  0  0  0  0  0
   -8.7900   22.0130  -31.6020 C   0  0  0  0  0  0  0  0  0  0  0  0
   -8.7750   20.6300  -31.8370 C   0  0  0  0  0  0  0  0  0  0  0  0
   -7.5440   19.9190  -31.9040 C   0  0  0  0  0  0  0  0  0  0  0  0
   -7.5330   18.4330  -32.1540 C   0  0  0  0  0  0  0  0  0  0  0  0
   -6.6750   17.7970  -31.2750 F   0  0  0  0  0  0  0  0  0  0  0  0
   -8.8080   17.9300  -31.9780 F   0  0  0  0  0  0  0  0  0  0  0  0
   -7.1100   18.1560  -33.4430 F   0  0  0  0  0  0  0  0  0  0  0  0
   -6.3310   20.6020  -31.6440 C   0  0  0  0  0  0  0  0  0  0  0  0
   -6.3820   21.9790  -31.4190 C   0  0  0  0  0  0  0  0  0  0  0  0
   -2.4384   24.8063  -26.6305 H   0  0  0  0  0  0  0  0  0  0  0  0
   -3.6955   25.0412  -27.8919 H   0  0  0  0  0  0  0  0  0  0  0  0
   -2.6904   23.5524  -27.8919 H   0  0  0  0  0  0  0  0  0  0  0  0
   -1.0805   26.0375  -26.6668 H   0  0  0  0  0  0  0  0  0  0  0  0
    0.1599   26.1118  -27.9640 H   0  0  0  0  0  0  0  0  0  0  0  0
   -1.2103   27.2733  -27.9640 H   0  0  0  0  0  0  0  0  0  0  0  0
   -1.4362   23.7309  -29.9279 H   0  0  0  0  0  0  0  0  0  0  0  0
    0.0029   24.8122  -29.6588 H   0  0  0  0  0  0  0  0  0  0  0  0
    0.7377   23.6387  -27.8652 H   0  0  0  0  0  0  0  0  0  0  0  0
   -0.9581   23.2272  -27.3301 H   0  0  0  0  0  0  0  0  0  0  0  0
    0.7477   21.8380  -29.4270 H   0  0  0  0  0  0  0  0  0  0  0  0
    0.0410   21.1701  -27.9001 H   0  0  0  0  0  0  0  0  0  0  0  0
   -2.2370   21.5780  -29.0000 H   0  0  0  0  0  0  0  0  0  0  0  0
   -2.2930   19.7629  -32.2627 H   0  0  0  0  0  0  0  0  0  0  0  0
   -3.1275   19.8927  -30.6518 H   0  0  0  0  0  0  0  0  0  0  0  0
   -3.8053   22.8114  -33.5311 H   0  0  0  0  0  0  0  0  0  0  0  0
   -2.4526   21.6630  -33.8110 H   0  0  0  0  0  0  0  0  0  0  0  0
   -4.1484   21.0705  -33.8110 H   0  0  0  0  0  0  0  0  0  0  0  0
   -3.0640   25.2750  -30.2080 H   0  0  0  0  0  0  0  0  0  0  0  0
   -8.0338   24.7933  -31.0018 H   0  0  0  0  0  0  0  0  0  0  0  0
   -9.7368   22.5721  -31.5729 H   0  0  0  0  0  0  0  0  0  0  0  0
   -9.7239   20.0899  -31.9708 H   0  0  0  0  0  0  0  0  0  0  0  0
   -5.3732   20.0615  -31.6199 H   0  0  0  0  0  0  0  0  0  0  0  0
  1  2  1  0
  2  3  1  0
  2  4  1  0
  4  5  1  0
  5  6  1  0
  6  7  1  0
  7  8  1  0
  8  9  2  0
  8 10  1  0
 10 11  1  0
 11 12  1  0
 11 13  1  0
 13 14  2  0
 13 15  1  0
 15 16  1  0
 16 17  1  0
 17 18  1  0
 17 19  2  0
 16 20  2  0
 20 21  1  0
 21 22  2  0
 22 23  1  0
 23 24  2  0
 24 25  1  0
 25 26  1  0
 25 27  1  0
 25 28  1  0
 24 29  1  0
 29 30  2  0
 30 15  1  0
 30 21  1  0
  1 31  1  0
  1 32  1  0
  1 33  1  0
  3 34  1  0
  3 35  1  0
  3 36  1  0
  4 37  1  0
  4 38  1  0
  5 39  1  0
  5 40  1  0
  6 41  1  0
  6 42  1  0
  7 43  1  0
 10 44  1  0
 10 45  1  0
 12 46  1  0
 12 47  1  0
 12 48  1  0
 18 49  1  0
 20 50  1  0
 22 51  1  0
 23 52  1  0
 29 53  1  0
M  CHG  1  18  -1
M  END
>  <UniqueID>  (16) 
16

>  <SMILES>  (16) 
CN(C)CCCNC(=O)CN(C)C(=O)n1c(C([NH-])=O)cc2ccc(C(F)(F)F)cc21

>  <Energy>  (16) 
83.7744498497686

>  <Genealogy>  (16) 
CN(C)CCCNC(=O)CN(C)C(=O)n1c(C([NH-])=O)cc2ccc(C(F)(F)F)cc21 (protonated)
CN(C)CCCNC(=O)CN(C)C(=O)n1c(C([NH-])=O)cc2ccc(C(F)(F)F)cc21 (3D coordinates assigned)
CN(C)CCCNC(=O)CN(C)C(=O)n1c(C([NH-])=O)cc2ccc(C(F)(F)F)cc21 (optimized conformer: 83.7744498497686 kcal/mol)

>  <smiles>  (16) 
CN(C)CCCNC(=O)CN(C)C(=O)n1c(C(N)=O)cc2ccc(C(F)(F)F)cc21

>  <score_type>  (16) 
oracle

>  <origin>  (16) 
adg

>  <m_score__min__energy>  (16) 
-10.43

>  <m_primary>  (16) 
energy

$$$$
16:0
     RDKit          3D

 46 48  0  0  0  0  0  0  0  0999 V2000
   -0.1490   23.9420  -25.7270 C   0  0  0  0  0  0  0  0  0  0  0  0
    0.6010   23.7460  -27.0400 C   0  0  0  0  0  0  0  0  0  0  0  0
    0.3270   24.8180  -27.9400 O   0  0  0  0  0  0  0  0  0  0  0  0
   -0.9280   25.0390  -28.5190 C   0  0  0  0  0  0  0  0  0  0  0  0
   -1.2340   26.1780  -28.9650 O   0  0  0  0  0  0  0  0  0  0  0  0
   -1.8710   23.9630  -28.5980 N   0  0  0  0  0  0  0  0  0  0  0  0
   -3.0360   23.8520  -27.7380 C   0  0  0  0  0  0  0  0  0  0  0  0
   -3.8300   22.6700  -28.2820 C   0  0  0  0  0  0  0  0  0  0  0  0
   -2.8520   21.8860  -29.1630 C   0  0  1  0  0  0  0  0  0  0  0  0
   -3.5110   21.3480  -30.3510 N   0  0  0  0  0  0  0  0  0  0  0  0
   -4.0490   22.1690  -31.3930 C   0  0  0  0  0  0  0  0  0  0  0  0
   -3.3510   22.4430  -32.4060 O   0  0  0  0  0  0  0  0  0  0  0  0
   -5.3950   22.6570  -31.2960 N   0  0  0  0  0  0  0  0  0  0  0  0
   -5.8090   23.9010  -30.9200 C   0  0  0  0  0  0  0  0  0  0  0  0
   -4.9390   25.0740  -30.6990 C   0  0  0  0  0  0  0  0  0  0  0  0
   -3.5240   24.9750  -30.8360 N   0  0  0  0  0  0  0  0  0  0  0  0
   -5.4560   26.1920  -30.4320 O   0  0  0  0  0  0  0  0  0  0  0  0
   -7.1990   23.9510  -30.8450 C   0  0  0  0  0  0  0  0  0  0  0  0
   -7.6290   22.6920  -31.1990 C   0  0  0  0  0  0  0  0  0  0  0  0
   -8.9190   22.1750  -31.2710 C   0  0  0  0  0  0  0  0  0  0  0  0
   -9.0680   20.8240  -31.6270 C   0  0  0  0  0  0  0  0  0  0  0  0
   -7.9340   20.0190  -31.9150 C   0  0  0  0  0  0  0  0  0  0  0  0
   -8.1050   18.5560  -32.2340 C   0  0  0  0  0  0  0  0  0  0  0  0
   -7.4930   18.2440  -33.4360 F   0  0  0  0  0  0  0  0  0  0  0  0
   -7.5410   17.7700  -31.2440 F   0  0  0  0  0  0  0  0  0  0  0  0
   -9.4540   18.2650  -32.3260 F   0  0  0  0  0  0  0  0  0  0  0  0
   -6.6390   20.5780  -31.8050 C   0  0  0  0  0  0  0  0  0  0  0  0
   -6.5220   21.9310  -31.4660 C   0  0  0  0  0  0  0  0  0  0  0  0
   -1.7610   22.8790  -29.5540 C   0  0  0  0  0  0  0  0  0  0  0  0
    0.5347   23.7633  -24.8840 H   0  0  0  0  0  0  0  0  0  0  0  0
   -0.5343   24.9710  -25.6749 H   0  0  0  0  0  0  0  0  0  0  0  0
   -0.9885   23.2331  -25.6749 H   0  0  0  0  0  0  0  0  0  0  0  0
    1.6816   23.7115  -26.8373 H   0  0  0  0  0  0  0  0  0  0  0  0
    0.2696   22.8034  -27.5002 H   0  0  0  0  0  0  0  0  0  0  0  0
   -2.7302   23.6642  -26.6982 H   0  0  0  0  0  0  0  0  0  0  0  0
   -3.6310   24.7772  -27.7340 H   0  0  0  0  0  0  0  0  0  0  0  0
   -4.1935   22.0396  -27.4571 H   0  0  0  0  0  0  0  0  0  0  0  0
   -4.7132   22.9997  -28.8487 H   0  0  0  0  0  0  0  0  0  0  0  0
   -2.4432   21.0190  -28.6235 H   0  0  0  0  0  0  0  0  0  0  0  0
   -2.8870   25.2770  -30.0670 H   0  0  0  0  0  0  0  0  0  0  0  0
   -7.8210   24.8133  -30.5629 H   0  0  0  0  0  0  0  0  0  0  0  0
   -9.7950   22.8046  -31.0558 H   0  0  0  0  0  0  0  0  0  0  0  0
  -10.0749   20.3846  -31.6833 H   0  0  0  0  0  0  0  0  0  0  0  0
   -5.7442   19.9632  -31.9819 H   0  0  0  0  0  0  0  0  0  0  0  0
   -0.7694   22.4073  -29.4894 H   0  0  0  0  0  0  0  0  0  0  0  0
   -1.8787   23.2314  -30.5894 H   0  0  0  0  0  0  0  0  0  0  0  0
  1  2  1  0
  2  3  1  0
  3  4  1  0
  4  5  2  0
  4  6  1  0
  6  7  1  0
  7  8  1  0
  8  9  1  0
  9 10  1  0
 10 11  1  0
 11 12  2  0
 11 13  1  0
 13 14  1  0
 14 15  1  0
 15 16  1  0
 15 17  2  0
 14 18  2  0
 18 19  1  0
 19 20  2  0
 20 21  1  0
 21 22  2  0
 22 23  1  0
 23 24  1  0
 23 25  1  0
 23 26  1  0
 22 27  1  0
 27 28  2  0
  9 29  1  0
 29  6  1  0
 28 13  1  0
 28 19  1  0
  1 30  1  0
  1 31  1  0
  1 32  1  0
  2 33  1  0
  2 34  1  0
  7 35  1  0
  7 36  1  0
  8 37  1  0
  8 38  1  0
  9 39  1  1
 16 40  1  0
 18 41  1  0
 20 42  1  0
 21 43  1  0
 27 44  1  0
 29 45  1  0
 29 46  1  0
M  CHG  2  10  -1  16  -1
M  END
>  <UniqueID>  (17) 
17

>  <SMILES>  (17) 
CCOC(=O)N1CC[C@@H]([N-]C(=O)n2c(C([NH-])=O)cc3ccc(C(F)(F)F)cc32)C1

>  <Energy>  (17) 
80.19047101178988

>  <Genealogy>  (17) 
CCOC(=O)N1CCC([N-]C(=O)n2c(C([NH-])=O)cc3ccc(C(F)(F)F)cc32)C1 (protonated)
CCOC(=O)N1CC[C@@H]([N-]C(=O)n2c(C([NH-])=O)cc3ccc(C(F)(F)F)cc32)C1 (chirality)
CCOC(=O)N1CC[C@@H]([N-]C(=O)n2c(C([NH-])=O)cc3ccc(C(F)(F)F)cc32)C1 (3D coordinates assigned)
CCOC(=O)N1CC[C@@H]([N-]C(=O)n2c(C([NH-])=O)cc3ccc(C(F)(F)F)cc32)C1 (nonaromatic ring conformer: 80.19047101178988 kcal/mol)

>  <smiles>  (17) 
CCOC(=O)N1CCC(NC(=O)n2c(C(N)=O)cc3ccc(C(F)(F)F)cc32)C1

>  <score_type>  (17) 
oracle

>  <origin>  (17) 
adg

>  <m_score__min__energy>  (17) 
-11.779999999999999

>  <m_primary>  (17) 
energy

$$$$
17:0
     RDKit          3D

 75 79  0  0  0  0  0  0  0  0999 V2000
   -1.2110   28.3150  -37.9830 C   0  0  0  0  0  0  0  0  0  0  0  0
   -0.3930   29.1560  -36.9820 C   0  0  0  0  0  0  0  0  0  0  0  0
   -0.7420   30.6400  -37.1780 C   0  0  0  0  0  0  0  0  0  0  0  0
   -0.7270   28.7510  -35.5330 C   0  0  0  0  0  0  0  0  0  0  0  0
    1.0140   29.0160  -37.2360 O   0  0  0  0  0  0  0  0  0  0  0  0
    1.9880   28.5910  -36.3180 C   0  0  0  0  0  0  0  0  0  0  0  0
    2.4850   29.4020  -35.4870 O   0  0  0  0  0  0  0  0  0  0  0  0
    2.4250   27.2190  -36.3380 N   0  0  0  0  0  0  0  0  0  0  0  0
    3.4690   26.7330  -35.4190 C   0  0  0  0  0  0  0  0  0  0  0  0
    3.0630   25.3780  -34.8250 C   0  0  0  0  0  0  0  0  0  0  0  0
    2.4760   24.4800  -35.8360 N   0  0  0  0  0  0  0  0  0  0  0  0
    1.8020   23.2600  -35.4330 C   0  0  0  0  0  0  0  0  0  0  0  0
    0.4530   23.0180  -35.7580 C   0  0  0  0  0  0  0  0  0  0  0  0
   -0.1210   21.8330  -35.4230 N   0  0  0  0  0  0  0  0  0  0  0  0
    0.5800   20.8650  -34.7680 C   0  0  0  0  0  0  0  0  0  0  0  0
   -0.0360   19.5150  -34.5100 C   0  0  0  0  0  0  0  0  0  0  0  0
   -1.3760   19.6750  -33.8370 C   0  0  0  0  0  0  0  0  0  0  0  0
   -1.6320   20.7970  -33.0270 C   0  0  0  0  0  0  0  0  0  0  0  0
   -2.8490   20.9190  -32.3310 C   0  0  0  0  0  0  0  0  0  0  0  0
   -3.1090   22.1130  -31.4830 C   0  0  0  0  0  0  0  0  0  0  0  0
   -3.6510   23.1340  -31.9840 O   0  0  0  0  0  0  0  0  0  0  0  0
   -2.7150   22.1450  -30.1030 N   0  0  0  0  0  0  0  0  0  0  0  0
   -3.0790   23.0360  -29.1370 C   0  0  0  0  0  0  0  0  0  0  0  0
   -3.9280   24.2320  -29.3370 C   0  0  0  0  0  0  0  0  0  0  0  0
   -3.5130   25.2950  -30.1910 N   0  0  0  0  0  0  0  0  0  0  0  0
   -5.0290   24.3220  -28.7310 O   0  0  0  0  0  0  0  0  0  0  0  0
   -2.5050   22.6890  -27.9160 C   0  0  0  0  0  0  0  0  0  0  0  0
   -1.7560   21.5600  -28.1700 C   0  0  0  0  0  0  0  0  0  0  0  0
   -0.9630   20.7980  -27.3190 C   0  0  0  0  0  0  0  0  0  0  0  0
   -0.2990   19.6800  -27.8630 C   0  0  0  0  0  0  0  0  0  0  0  0
   -0.4570   19.3380  -29.2330 C   0  0  0  0  0  0  0  0  0  0  0  0
    0.2950   18.1670  -29.8150 C   0  0  0  0  0  0  0  0  0  0  0  0
    1.6090   18.5360  -30.0370 F   0  0  0  0  0  0  0  0  0  0  0  0
   -0.2710   17.7750  -31.0160 F   0  0  0  0  0  0  0  0  0  0  0  0
    0.2680   17.0860  -28.9490 F   0  0  0  0  0  0  0  0  0  0  0  0
   -1.2570   20.1540  -30.0670 C   0  0  0  0  0  0  0  0  0  0  0  0
   -1.8980   21.2580  -29.4980 C   0  0  0  0  0  0  0  0  0  0  0  0
   -3.7990   19.8870  -32.4380 C   0  0  0  0  0  0  0  0  0  0  0  0
   -3.5570   18.7800  -33.2550 C   0  0  0  0  0  0  0  0  0  0  0  0
   -2.3580   18.6740  -33.9590 C   0  0  0  0  0  0  0  0  0  0  0  0
   -2.1440   17.5850  -34.7420 F   0  0  0  0  0  0  0  0  0  0  0  0
    1.9090   21.1150  -34.4110 C   0  0  0  0  0  0  0  0  0  0  0  0
    2.4840   22.2950  -34.7550 N   0  0  0  0  0  0  0  0  0  0  0  0
    2.4760   24.9100  -37.2430 C   0  0  0  0  0  0  0  0  0  0  0  0
    1.8650   26.3100  -37.3500 C   0  0  0  0  0  0  0  0  0  0  0  0
   -1.8748   27.6325  -37.4320 H   0  0  0  0  0  0  0  0  0  0  0  0
   -1.8146   28.9825  -38.6155 H   0  0  0  0  0  0  0  0  0  0  0  0
   -0.5270   27.7301  -38.6155 H   0  0  0  0  0  0  0  0  0  0  0  0
   -0.8555   31.1227  -36.1961 H   0  0  0  0  0  0  0  0  0  0  0  0
    0.0642   31.1353  -37.7391 H   0  0  0  0  0  0  0  0  0  0  0  0
   -1.6844   30.7240  -37.7391 H   0  0  0  0  0  0  0  0  0  0  0  0
   -0.1861   29.4069  -34.8350 H   0  0  0  0  0  0  0  0  0  0  0  0
   -1.8096   28.8499  -35.3649 H   0  0  0  0  0  0  0  0  0  0  0  0
   -0.4237   27.7071  -35.3649 H   0  0  0  0  0  0  0  0  0  0  0  0
    4.4142   26.6196  -35.9702 H   0  0  0  0  0  0  0  0  0  0  0  0
    3.5952   27.4595  -34.6027 H   0  0  0  0  0  0  0  0  0  0  0  0
    3.9554   24.8964  -34.3989 H   0  0  0  0  0  0  0  0  0  0  0  0
    2.3006   25.5623  -34.0538 H   0  0  0  0  0  0  0  0  0  0  0  0
   -0.1344   23.7866  -36.2818 H   0  0  0  0  0  0  0  0  0  0  0  0
   -1.1150   21.6700  -35.6910 H   0  0  0  0  0  0  0  0  0  0  0  0
   -0.1701   18.9879  -35.4661 H   0  0  0  0  0  0  0  0  0  0  0  0
    0.6294   18.9362  -33.8526 H   0  0  0  0  0  0  0  0  0  0  0  0
   -0.8723   21.5874  -32.9369 H   0  0  0  0  0  0  0  0  0  0  0  0
   -3.1150   25.0990  -31.1380 H   0  0  0  0  0  0  0  0  0  0  0  0
   -2.6243   23.2066  -26.9527 H   0  0  0  0  0  0  0  0  0  0  0  0
   -0.8573   21.0593  -26.2557 H   0  0  0  0  0  0  0  0  0  0  0  0
    0.3485   19.0657  -27.2200 H   0  0  0  0  0  0  0  0  0  0  0  0
   -1.3717   19.9253  -31.1368 H   0  0  0  0  0  0  0  0  0  0  0  0
   -4.7407   19.9523  -31.8733 H   0  0  0  0  0  0  0  0  0  0  0  0
   -4.3157   17.9884  -33.3434 H   0  0  0  0  0  0  0  0  0  0  0  0
    2.4843   20.3601  -33.8550 H   0  0  0  0  0  0  0  0  0  0  0  0
    3.5093   24.9313  -37.6197 H   0  0  0  0  0  0  0  0  0  0  0  0
    1.8814   24.2042  -37.8416 H   0  0  0  0  0  0  0  0  0  0  0  0
    2.0740   26.7162  -38.3507 H   0  0  0  0  0  0  0  0  0  0  0  0
    0.7812   26.2286  -37.1802 H   0  0  0  0  0  0  0  0  0  0  0  0
  1  2  1  0
  2  3  1  0
  2  4  1  0
  2  5  1  0
  5  6  1  0
  6  7  2  0
  6  8  1  0
  8  9  1  0
  9 10  1  0
 10 11  1  0
 11 12  1  0
 12 13  2  0
 13 14  1  0
 14 15  2  0
 15 16  1  0
 16 17  1  0
 17 18  2  0
 18 19  1  0
 19 20  1  0
 20 21  2  0
 20 22  1  0
 22 23  1  0
 23 24  1  0
 24 25  1  0
 24 26  2  0
 23 27  2  0
 27 28  1  0
 28 29  2  0
 29 30  1  0
 30 31  2  0
 31 32  1  0
 32 33  1  0
 32 34  1  0
 32 35  1  0
 31 36  1  0
 36 37  2  0
 19 38  2  0
 38 39  1  0
 39 40  2  0
 40 41  1  0
 15 42  1  0
 42 43  2  0
 11 44  1  0
 44 45  1  0
 45  8  1  0
 43 12  1  0
 40 17  1  0
 37 22  1  0
 37 28  1  0
  1 46  1  0
  1 47  1  0
  1 48  1  0
  3 49  1  0
  3 50  1  0
  3 51  1  0
  4 52  1  0
  4 53  1  0
  4 54  1  0
  9 55  1  0
  9 56  1  0
 10 57  1  0
 10 58  1  0
 13 59  1  0
 14 60  1  0
 16 61  1  0
 16 62  1  0
 18 63  1  0
 25 64  1  0
 27 65  1  0
 29 66  1  0
 30 67  1  0
 36 68  1  0
 38 69  1  0
 39 70  1  0
 42 71  1  0
 44 72  1  0
 44 73  1  0
 45 74  1  0
 45 75  1  0
M  CHG  2  14   1  25  -1
M  END
>  <UniqueID>  (18) 
18

>  <SMILES>  (18) 
CC(C)(C)OC(=O)N1CCN(c2c[nH+]c(Cc3cc(C(=O)n4c(C([NH-])=O)cc5ccc(C(F)(F)F)cc54)ccc3F)cn2)CC1

>  <Energy>  (18) 
120.50350598167725

>  <Genealogy>  (18) 
CC(C)(C)OC(=O)N1CCN(c2c[nH+]c(Cc3cc(C(=O)n4c(C([NH-])=O)cc5ccc(C(F)(F)F)cc54)ccc3F)cn2)CC1 (protonated)
CC(C)(C)OC(=O)N1CCN(c2c[nH+]c(Cc3cc(C(=O)n4c(C([NH-])=O)cc5ccc(C(F)(F)F)cc54)ccc3F)cn2)CC1 (3D coordinates assigned)
CC(C)(C)OC(=O)N1CCN(c2c[nH+]c(Cc3cc(C(=O)n4c(C([NH-])=O)cc5ccc(C(F)(F)F)cc54)ccc3F)cn2)CC1 (nonaromatic ring conformer: 120.50350598167725 kcal/mol)

>  <smiles>  (18) 
CC(C)(C)OC(=O)N1CCN(c2cnc(Cc3cc(C(=O)n4c(C(N)=O)cc5ccc(C(F)(F)F)cc54)ccc3F)cn2)CC1

>  <score_type>  (18) 
oracle

>  <origin>  (18) 
adg

>  <m_score__min__energy>  (18) 
-12.42

>  <m_primary>  (18) 
energy

$$$$
18:0
     RDKit          3D

 38 39  0  0  0  0  0  0  0  0999 V2000
   -6.0760   18.1630  -33.9000 C   0  0  0  0  0  0  0  0  0  0  0  0
   -7.0540   18.2810  -32.7340 C   0  0  0  0  0  0  0  0  0  0  0  0
   -7.2230   19.7180  -32.3150 C   0  0  0  0  0  0  0  0  0  0  0  0
   -8.5130   20.3060  -32.3150 C   0  0  0  0  0  0  0  0  0  0  0  0
   -8.6870   21.6400  -31.9080 C   0  0  0  0  0  0  0  0  0  0  0  0
   -7.5600   22.3560  -31.5180 C   0  0  0  0  0  0  0  0  0  0  0  0
   -7.4530   23.6450  -31.0520 C   0  0  0  0  0  0  0  0  0  0  0  0
   -6.0980   23.8350  -30.7770 C   0  0  0  0  0  0  0  0  0  0  0  0
   -5.5180   25.1100  -30.2860 C   0  0  0  0  0  0  0  0  0  0  0  0
   -4.2100   25.5340  -30.6860 N   0  0  0  0  0  0  0  0  0  0  0  0
   -6.1700   25.8350  -29.4890 O   0  0  0  0  0  0  0  0  0  0  0  0
   -5.3930   22.7020  -31.0750 N   0  0  0  0  0  0  0  0  0  0  0  0
   -3.9860   22.4730  -30.8610 C   0  0  0  0  0  0  0  0  0  0  0  0
   -3.1410   23.1670  -31.4960 O   0  0  0  0  0  0  0  0  0  0  0  0
   -3.5020   21.3650  -29.9530 C   0  0  1  0  0  0  0  0  0  0  0  0
   -2.3450   20.7750  -30.4910 O   0  0  0  0  0  0  0  0  0  0  0  0
   -3.2300   21.8830  -28.5200 C   0  0  0  0  0  0  0  0  0  0  0  0
   -3.5320   23.3760  -28.3090 C   0  0  0  0  0  0  0  0  0  0  0  0
   -1.9350   24.4670  -28.4870 Br  0  0  0  0  0  0  0  0  0  0  0  0
   -6.3040   21.8050  -31.5230 C   0  0  0  0  0  0  0  0  0  0  0  0
   -6.1080   20.4680  -31.8910 C   0  0  0  0  0  0  0  0  0  0  0  0
   -5.0546   18.0398  -33.5108 H   0  0  0  0  0  0  0  0  0  0  0  0
   -6.3419   17.2904  -34.5147 H   0  0  0  0  0  0  0  0  0  0  0  0
   -6.1267   19.0738  -34.5147 H   0  0  0  0  0  0  0  0  0  0  0  0
   -8.0305   17.8786  -33.0414 H   0  0  0  0  0  0  0  0  0  0  0  0
   -6.6539   17.7120  -31.8818 H   0  0  0  0  0  0  0  0  0  0  0  0
   -9.3832   19.7145  -32.6356 H   0  0  0  0  0  0  0  0  0  0  0  0
   -9.6844   22.1038  -31.8982 H   0  0  0  0  0  0  0  0  0  0  0  0
   -8.2660   24.3746  -30.9228 H   0  0  0  0  0  0  0  0  0  0  0  0
   -3.5700   24.9220  -31.2360 H   0  0  0  0  0  0  0  0  0  0  0  0
   -3.8620   26.4740  -30.3940 H   0  0  0  0  0  0  0  0  0  0  0  0
   -4.2963   20.6070  -29.8858 H   0  0  0  0  0  0  0  0  0  0  0  0
   -2.0220   21.3720  -31.2160 H   0  0  0  0  0  0  0  0  0  0  0  0
   -3.8541   21.3051  -27.8224 H   0  0  0  0  0  0  0  0  0  0  0  0
   -2.1519   21.7557  -28.3428 H   0  0  0  0  0  0  0  0  0  0  0  0
   -4.2695   23.6995  -29.0583 H   0  0  0  0  0  0  0  0  0  0  0  0
   -3.9223   23.5051  -27.2887 H   0  0  0  0  0  0  0  0  0  0  0  0
   -5.1069   20.0139  -31.8500 H   0  0  0  0  0  0  0  0  0  0  0  0
  1  2  1  0
  2  3  1  0
  3  4  2  0
  4  5  1  0
  5  6  2  0
  6  7  1  0
  7  8  2  0
  8  9  1  0
  9 10  1  0
  9 11  2  0
  8 12  1  0
 12 13  1  0
 13 14  2  0
 13 15  1  0
 15 16  1  0
 15 17  1  0
 17 18  1  0
 18 19  1  0
 12 20  1  0
 20 21  2  0
 21  3  1  0
 20  6  1  0
  1 22  1  0
  1 23  1  0
  1 24  1  0
  2 25  1  0
  2 26  1  0
  4 27  1  0
  5 28  1  0
  7 29  1  0
 10 30  1  0
 10 31  1  0
 15 32  1  1
 16 33  1  0
 17 34  1  0
 17 35  1  0
 18 36  1  0
 18 37  1  0
 21 38  1  0
M  END
>  <UniqueID>  (19) 
19

>  <SMILES>  (19) 
CCc1ccc2cc(C(N)=O)n(C(=O)[C@@H](O)CCBr)c2c1

>  <Energy>  (19) 
74.30705701861484

>  <Genealogy>  (19) 
CCc1ccc2cc(C(N)=O)n(C(=O)[C@@H](O)CCBr)c2c1 (3D coordinates assigned)
CCc1ccc2cc(C(N)=O)n(C(=O)[C@@H](O)CCBr)c2c1 (optimized conformer: 74.30705701861484 kcal/mol)

>  <smiles>  (19) 
CCc1ccc2cc(C(N)=O)n(C(=O)[C@@H](O)CCBr)c2c1

>  <score_type>  (19) 
oracle

>  <origin>  (19) 
adg

>  <m_score__min__energy>  (19) 
-9.1199999999999992

>  <m_primary>  (19) 
energy

$$$$
19:0
     RDKit          3D

 40 41  0  0  0  0  0  0  0  0999 V2000
   -8.6480   18.9480  -32.5480 C   0  0  0  0  0  0  0  0  0  0  0  0
   -8.1170   20.2780  -32.1030 C   0  0  0  0  0  0  0  0  0  0  0  0
   -8.9940   21.3820  -31.9680 C   0  0  0  0  0  0  0  0  0  0  0  0
   -8.5000   22.6450  -31.6020 C   0  0  0  0  0  0  0  0  0  0  0  0
   -7.1320   22.7730  -31.3810 C   0  0  0  0  0  0  0  0  0  0  0  0
   -6.3890   23.8820  -31.0460 C   0  0  0  0  0  0  0  0  0  0  0  0
   -5.0710   23.4370  -30.9760 C   0  0  0  0  0  0  0  0  0  0  0  0
   -3.9310   24.2860  -30.5560 C   0  0  0  0  0  0  0  0  0  0  0  0
   -2.8160   23.7210  -29.8640 N   0  0  0  0  0  0  0  0  0  0  0  0
   -3.9230   25.5140  -30.8320 O   0  0  0  0  0  0  0  0  0  0  0  0
   -5.0010   22.1050  -31.2590 N   0  0  0  0  0  0  0  0  0  0  0  0
   -3.8210   21.2900  -31.3400 C   0  0  0  0  0  0  0  0  0  0  0  0
   -3.2550   21.1120  -32.4520 O   0  0  0  0  0  0  0  0  0  0  0  0
   -3.2910   20.6790  -30.1590 N   0  0  0  0  0  0  0  0  0  0  0  0
   -1.8660   20.5990  -29.8650 C   0  0  0  0  0  0  0  0  0  0  0  0
   -1.6380   20.7120  -28.3930 C   0  0  0  0  0  0  0  0  0  0  0  0
   -1.1540   19.7350  -27.7590 O   0  0  0  0  0  0  0  0  0  0  0  0
   -2.0140   21.8830  -27.7270 O   0  0  0  0  0  0  0  0  0  0  0  0
   -1.1040   22.6940  -26.9860 C   0  0  0  0  0  0  0  0  0  0  0  0
   -1.5640   24.1510  -26.9500 C   0  0  0  0  0  0  0  0  0  0  0  0
   -0.5280   25.1820  -28.0130 S   0  0  0  0  0  0  0  0  0  0  0  0
    0.0640   24.1870  -29.0000 O   0  0  0  0  0  0  0  0  0  0  0  0
   -1.6500   26.0450  -28.9580 O   0  0  0  0  0  0  0  0  0  0  0  0
   -6.2700   21.7130  -31.5050 C   0  0  0  0  0  0  0  0  0  0  0  0
   -6.7320   20.4480  -31.8880 C   0  0  0  0  0  0  0  0  0  0  0  0
   -8.8919   18.3370  -31.6664 H   0  0  0  0  0  0  0  0  0  0  0  0
   -9.5549   19.0987  -33.1520 H   0  0  0  0  0  0  0  0  0  0  0  0
   -7.8867   18.4327  -33.1520 H   0  0  0  0  0  0  0  0  0  0  0  0
  -10.0705   21.2493  -32.1512 H   0  0  0  0  0  0  0  0  0  0  0  0
   -9.1744   23.5072  -31.4933 H   0  0  0  0  0  0  0  0  0  0  0  0
   -6.7579   24.9034  -30.8707 H   0  0  0  0  0  0  0  0  0  0  0  0
   -2.8110   22.7210  -29.5650 H   0  0  0  0  0  0  0  0  0  0  0  0
   -2.0010   24.3220  -29.6080 H   0  0  0  0  0  0  0  0  0  0  0  0
   -1.4748   19.6344  -30.2207 H   0  0  0  0  0  0  0  0  0  0  0  0
   -1.3467   21.4244  -30.3740 H   0  0  0  0  0  0  0  0  0  0  0  0
   -1.0403   22.3125  -25.9563 H   0  0  0  0  0  0  0  0  0  0  0  0
   -0.1207   22.6516  -27.4773 H   0  0  0  0  0  0  0  0  0  0  0  0
   -2.6059   24.2082  -27.2980 H   0  0  0  0  0  0  0  0  0  0  0  0
   -1.4827   24.5194  -25.9167 H   0  0  0  0  0  0  0  0  0  0  0  0
   -6.0337   19.6081  -32.0181 H   0  0  0  0  0  0  0  0  0  0  0  0
  1  2  1  0
  2  3  2  0
  3  4  1  0
  4  5  2  0
  5  6  1  0
  6  7  2  0
  7  8  1  0
  8  9  1  0
  8 10  2  0
  7 11  1  0
 11 12  1  0
 12 13  2  0
 12 14  1  0
 14 15  1  0
 15 16  1  0
 16 17  2  0
 16 18  1  0
 18 19  1  0
 19 20  1  0
 20 21  1  0
 21 22  2  0
 21 23  1  6
 11 24  1  0
 24 25  2  0
 25  2  1  0
 24  5  1  0
  1 26  1  0
  1 27  1  0
  1 28  1  0
  3 29  1  0
  4 30  1  0
  6 31  1  0
  9 32  1  0
  9 33  1  0
 15 34  1  0
 15 35  1  0
 19 36  1  0
 19 37  1  0
 20 38  1  0
 20 39  1  0
 25 40  1  0
M  CHG  2  14  -1  23  -1
M  END
>  <UniqueID>  (20) 
20

>  <SMILES>  (20) 
Cc1ccc2cc(C(N)=O)n(C(=O)[N-]CC(=O)OCC[S@@](=O)[O-])c2c1

>  <Energy>  (20) 
68.72620771117997

>  <Genealogy>  (20) 
Cc1ccc2cc(C(N)=O)n(C(=O)[N-]CC(=O)OCCS(=O)[O-])c2c1 (protonated)
Cc1ccc2cc(C(N)=O)n(C(=O)[N-]CC(=O)OCC[S@@](=O)[O-])c2c1 (chirality)
Cc1ccc2cc(C(N)=O)n(C(=O)[N-]CC(=O)OCC[S@@](=O)[O-])c2c1 (3D coordinates assigned)
Cc1ccc2cc(C(N)=O)n(C(=O)[N-]CC(=O)OCC[S@@](=O)[O-])c2c1 (optimized conformer: 68.72620771117997 kcal/mol)

>  <smiles>  (20) 
Cc1ccc2cc(C(N)=O)n(C(=O)NCC(=O)OCCS(=O)O)c2c1

>  <score_type>  (20) 
oracle

>  <origin>  (20) 
adg

>  <m_score__min__energy>  (20) 
-11.300000000000001

>  <m_primary>  (20) 
energy

$$$$
20:0
     RDKit          3D

 44 45  0  0  0  0  0  0  0  0999 V2000
   -0.1430   24.0280  -26.9840 C   0  0  0  0  0  0  0  0  0  0  0  0
   -1.4820   24.6900  -27.3740 C   0  0  0  0  0  0  0  0  0  0  0  0
   -2.3420   24.9170  -26.1170 C   0  0  0  0  0  0  0  0  0  0  0  0
   -1.1980   26.0690  -28.0300 C   0  0  0  0  0  0  0  0  0  0  0  0
   -1.1470   25.9650  -29.4310 O   0  0  0  0  0  0  0  0  0  0  0  0
   -2.2170   23.8370  -28.3300 N   0  0  0  0  0  0  0  0  0  0  0  0
   -2.5210   22.4430  -28.1400 C   0  0  0  0  0  0  0  0  0  0  0  0
   -2.3040   21.8780  -27.0330 O   0  0  0  0  0  0  0  0  0  0  0  0
   -3.1250   21.6450  -29.2620 C   0  0  0  0  0  0  0  0  0  0  0  0
   -3.3550   22.4680  -30.5000 C   0  0  0  0  0  0  0  0  0  0  0  0
   -2.3920   22.9970  -31.1200 O   0  0  0  0  0  0  0  0  0  0  0  0
   -4.6890   22.6410  -30.9990 N   0  0  0  0  0  0  0  0  0  0  0  0
   -5.3880   23.8030  -31.1180 C   0  0  0  0  0  0  0  0  0  0  0  0
   -4.9120   25.1380  -30.7020 C   0  0  0  0  0  0  0  0  0  0  0  0
   -3.5980   25.2890  -30.1650 N   0  0  0  0  0  0  0  0  0  0  0  0
   -5.6520   26.1490  -30.8180 O   0  0  0  0  0  0  0  0  0  0  0  0
   -6.6500   23.5550  -31.6580 C   0  0  0  0  0  0  0  0  0  0  0  0
   -6.6960   22.1930  -31.8710 C   0  0  0  0  0  0  0  0  0  0  0  0
   -7.7040   21.4020  -32.4120 C   0  0  0  0  0  0  0  0  0  0  0  0
   -7.4630   20.0210  -32.5330 C   0  0  0  0  0  0  0  0  0  0  0  0
   -6.2220   19.4650  -32.1300 C   0  0  0  0  0  0  0  0  0  0  0  0
   -5.9900   17.9860  -32.2610 C   0  0  0  0  0  0  0  0  0  0  0  0
   -6.6970   17.4940  -33.3420 F   0  0  0  0  0  0  0  0  0  0  0  0
   -6.4110   17.3460  -31.1090 F   0  0  0  0  0  0  0  0  0  0  0  0
   -5.2210   20.3010  -31.5890 C   0  0  0  0  0  0  0  0  0  0  0  0
   -5.4960   21.6670  -31.4650 C   0  0  0  0  0  0  0  0  0  0  0  0
   -0.0598   23.9869  -25.8879 H   0  0  0  0  0  0  0  0  0  0  0  0
   -0.1056   23.0076  -27.3931 H   0  0  0  0  0  0  0  0  0  0  0  0
    0.6905   24.6178  -27.3931 H   0  0  0  0  0  0  0  0  0  0  0  0
   -1.7282   24.7550  -25.2186 H   0  0  0  0  0  0  0  0  0  0  0  0
   -2.7268   25.9475  -26.1172 H   0  0  0  0  0  0  0  0  0  0  0  0
   -3.1853   24.2107  -26.1172 H   0  0  0  0  0  0  0  0  0  0  0  0
   -1.9981   26.7705  -27.7512 H   0  0  0  0  0  0  0  0  0  0  0  0
   -0.2228   26.4306  -27.6720 H   0  0  0  0  0  0  0  0  0  0  0  0
   -2.0510   25.6870  -29.7330 H   0  0  0  0  0  0  0  0  0  0  0  0
   -2.5140   24.2540  -29.2420 H   0  0  0  0  0  0  0  0  0  0  0  0
   -2.4450   20.8169  -29.5109 H   0  0  0  0  0  0  0  0  0  0  0  0
   -4.1039   21.2780  -28.9198 H   0  0  0  0  0  0  0  0  0  0  0  0
   -2.7570   25.1960  -30.7760 H   0  0  0  0  0  0  0  0  0  0  0  0
   -7.4408   24.2898  -31.8692 H   0  0  0  0  0  0  0  0  0  0  0  0
   -8.6591   21.8419  -32.7349 H   0  0  0  0  0  0  0  0  0  0  0  0
   -8.2451   19.3659  -32.9444 H   0  0  0  0  0  0  0  0  0  0  0  0
   -4.9162   17.8027  -32.4135 H   0  0  0  0  0  0  0  0  0  0  0  0
   -4.2510   19.8893  -31.2735 H   0  0  0  0  0  0  0  0  0  0  0  0
  1  2  1  0
  2  3  1  0
  2  4  1  0
  4  5  1  0
  2  6  1  0
  6  7  1  0
  7  8  2  0
  7  9  1  0
  9 10  1  0
 10 11  2  0
 10 12  1  0
 12 13  1  0
 13 14  1  0
 14 15  1  0
 14 16  2  0
 13 17  2  0
 17 18  1  0
 18 19  2  0
 19 20  1  0
 20 21  2  0
 21 22  1  0
 22 23  1  0
 22 24  1  0
 21 25  1  0
 25 26  2  0
 26 12  1  0
 26 18  1  0
  1 27  1  0
  1 28  1  0
  1 29  1  0
  3 30  1  0
  3 31  1  0
  3 32  1  0
  4 33  1  0
  4 34  1  0
  5 35  1  0
  6 36  1  0
  9 37  1  0
  9 38  1  0
 15 39  1  0
 17 40  1  0
 19 41  1  0
 20 42  1  0
 22 43  1  0
 25 44  1  0
M  CHG  1  15  -1
M  END
>  <UniqueID>  (21) 
21

>  <SMILES>  (21) 
CC(C)(CO)NC(=O)CC(=O)n1c(C([NH-])=O)cc2ccc(C(F)F)cc21

>  <Energy>  (21) 
79.55682827668291

>  <Genealogy>  (21) 
CC(C)(CO)NC(=O)CC(=O)n1c(C([NH-])=O)cc2ccc(C(F)F)cc21 (protonated)
CC(C)(CO)NC(=O)CC(=O)n1c(C([NH-])=O)cc2ccc(C(F)F)cc21 (3D coordinates assigned)
CC(C)(CO)NC(=O)CC(=O)n1c(C([NH-])=O)cc2ccc(C(F)F)cc21 (optimized conformer: 79.55682827668291 kcal/mol)

>  <smiles>  (21) 
CC(C)(CO)NC(=O)CC(=O)n1c(C(N)=O)cc2ccc(C(F)F)cc21

>  <score_type>  (21) 
oracle

>  <origin>  (21) 
adg

>  <m_score__min__energy>  (21) 
-10.699999999999999

>  <m_primary>  (21) 
energy

$$$$
21:0
     RDKit          3D

 44 45  0  0  0  0  0  0  0  0999 V2000
   -1.4420   24.5780  -25.9340 C   0  0  0  0  0  0  0  0  0  0  0  0
   -1.8750   24.0650  -27.3140 C   0  0  1  0  0  0  0  0  0  0  0  0
   -1.4830   24.9960  -28.4350 C   0  0  0  0  0  0  0  0  0  0  0  0
   -2.2990   25.3010  -29.3460 O   0  0  0  0  0  0  0  0  0  0  0  0
   -0.1860   25.4900  -28.4930 O   0  0  0  0  0  0  0  0  0  0  0  0
   -1.3290   22.7140  -27.5490 N   0  0  0  0  0  0  0  0  0  0  0  0
   -0.4320   22.0950  -26.5630 C   0  0  0  0  0  0  0  0  0  0  0  0
   -1.7550   21.9510  -28.7030 C   0  0  0  0  0  0  0  0  0  0  0  0
   -1.0220   21.8930  -29.7280 O   0  0  0  0  0  0  0  0  0  0  0  0
   -3.0470   21.1890  -28.7020 C   0  0  0  0  0  0  0  0  0  0  0  0
   -3.6380   21.2510  -30.0310 N   0  0  0  0  0  0  0  0  0  0  0  0
   -4.0600   22.4710  -30.6430 C   0  0  0  0  0  0  0  0  0  0  0  0
   -3.2070   23.3430  -30.9640 O   0  0  0  0  0  0  0  0  0  0  0  0
   -5.4560   22.7090  -30.8850 N   0  0  0  0  0  0  0  0  0  0  0  0
   -6.1180   23.8990  -30.8130 C   0  0  0  0  0  0  0  0  0  0  0  0
   -5.5560   25.1720  -30.3200 C   0  0  0  0  0  0  0  0  0  0  0  0
   -4.2350   25.5840  -30.6750 N   0  0  0  0  0  0  0  0  0  0  0  0
   -6.2320   25.8830  -29.5300 O   0  0  0  0  0  0  0  0  0  0  0  0
   -7.4400   23.7540  -31.2210 C   0  0  0  0  0  0  0  0  0  0  0  0
   -7.5790   22.4210  -31.5350 C   0  0  0  0  0  0  0  0  0  0  0  0
   -8.6840   21.7280  -32.0170 C   0  0  0  0  0  0  0  0  0  0  0  0
   -8.5330   20.3600  -32.2980 C   0  0  0  0  0  0  0  0  0  0  0  0
   -7.2900   19.7090  -32.0900 C   0  0  0  0  0  0  0  0  0  0  0  0
   -7.1270   18.2570  -32.4600 C   0  0  0  0  0  0  0  0  0  0  0  0
   -6.1310   17.6650  -31.7010 F   0  0  0  0  0  0  0  0  0  0  0  0
   -6.7900   18.1640  -33.7970 F   0  0  0  0  0  0  0  0  0  0  0  0
   -8.3040   17.5640  -32.2430 F   0  0  0  0  0  0  0  0  0  0  0  0
   -6.1830   20.4550  -31.6240 C   0  0  0  0  0  0  0  0  0  0  0  0
   -6.3670   21.8110  -31.3270 C   0  0  0  0  0  0  0  0  0  0  0  0
   -1.9401   23.9879  -25.1506 H   0  0  0  0  0  0  0  0  0  0  0  0
   -0.3514   24.4776  -25.8311 H   0  0  0  0  0  0  0  0  0  0  0  0
   -1.7241   25.6362  -25.8311 H   0  0  0  0  0  0  0  0  0  0  0  0
   -2.9741   24.0217  -27.3106 H   0  0  0  0  0  0  0  0  0  0  0  0
   -0.7809   22.3357  -25.5479 H   0  0  0  0  0  0  0  0  0  0  0  0
   -0.4320   21.0038  -26.7015 H   0  0  0  0  0  0  0  0  0  0  0  0
    0.5882   22.4822  -26.7015 H   0  0  0  0  0  0  0  0  0  0  0  0
   -2.8556   20.1398  -28.4327 H   0  0  0  0  0  0  0  0  0  0  0  0
   -3.7373   21.6312  -27.9686 H   0  0  0  0  0  0  0  0  0  0  0  0
   -3.8720   26.5110  -30.3590 H   0  0  0  0  0  0  0  0  0  0  0  0
   -3.5870   24.9410  -31.1810 H   0  0  0  0  0  0  0  0  0  0  0  0
   -8.2100   24.5374  -31.2801 H   0  0  0  0  0  0  0  0  0  0  0  0
   -9.6472   22.2357  -32.1735 H   0  0  0  0  0  0  0  0  0  0  0  0
   -9.3888   19.7868  -32.6839 H   0  0  0  0  0  0  0  0  0  0  0  0
   -5.1987   19.9805  -31.4975 H   0  0  0  0  0  0  0  0  0  0  0  0
  1  2  1  0
  2  3  1  0
  3  4  2  0
  3  5  1  0
  2  6  1  0
  6  7  1  0
  6  8  1  0
  8  9  2  0
  8 10  1  0
 10 11  1  0
 11 12  1  0
 12 13  2  0
 12 14  1  0
 14 15  1  0
 15 16  1  0
 16 17  1  0
 16 18  2  0
 15 19  2  0
 19 20  1  0
 20 21  2  0
 21 22  1  0
 22 23  2  0
 23 24  1  0
 24 25  1  0
 24 26  1  0
 24 27  1  0
 23 28  1  0
 28 29  2  0
 29 14  1  0
 29 20  1  0
  1 30  1  0
  1 31  1  0
  1 32  1  0
  2 33  1  1
  7 34  1  0
  7 35  1  0
  7 36  1  0
 10 37  1  0
 10 38  1  0
 17 39  1  0
 17 40  1  0
 19 41  1  0
 21 42  1  0
 22 43  1  0
 28 44  1  0
M  CHG  2   5  -1  11  -1
M  END
>  <UniqueID>  (22) 
22

>  <SMILES>  (22) 
C[C@@H](C(=O)[O-])N(C)C(=O)C[N-]C(=O)n1c(C(N)=O)cc2ccc(C(F)(F)F)cc21

>  <Energy>  (22) 
79.45422768724454

>  <Genealogy>  (22) 
CC(C(=O)[O-])N(C)C(=O)C[N-]C(=O)n1c(C(N)=O)cc2ccc(C(F)(F)F)cc21 (protonated)
C[C@@H](C(=O)[O-])N(C)C(=O)C[N-]C(=O)n1c(C(N)=O)cc2ccc(C(F)(F)F)cc21 (chirality)
C[C@@H](C(=O)[O-])N(C)C(=O)C[N-]C(=O)n1c(C(N)=O)cc2ccc(C(F)(F)F)cc21 (3D coordinates assigned)
C[C@@H](C(=O)[O-])N(C)C(=O)C[N-]C(=O)n1c(C(N)=O)cc2ccc(C(F)(F)F)cc21 (optimized conformer: 79.45422768724454 kcal/mol)

>  <smiles>  (22) 
CC(C(=O)O)N(C)C(=O)CNC(=O)n1c(C(N)=O)cc2ccc(C(F)(F)F)cc21

>  <score_type>  (22) 
oracle

>  <origin>  (22) 
adg

>  <m_score__min__energy>  (22) 
-11.18

>  <m_primary>  (22) 
energy

$$$$
22:0
     RDKit          3D

 34 36  0  0  0  0  0  0  0  0999 V2000
   -7.0870   23.7900  -30.7570 C   0  0  0  0  0  0  0  0  0  0  0  0
   -5.8870   23.9490  -29.9500 N   0  0  0  0  0  0  0  0  0  0  0  0
   -4.5970   24.1870  -30.5200 C   0  0  0  0  0  0  0  0  0  0  0  0
   -4.2700   25.3520  -30.8750 O   0  0  0  0  0  0  0  0  0  0  0  0
   -3.6800   23.0970  -30.7000 N   0  0  0  0  0  0  0  0  0  0  0  0
   -2.4230   22.9680  -30.1860 C   0  0  0  0  0  0  0  0  0  0  0  0
   -1.7830   23.8840  -29.2200 C   0  0  0  0  0  0  0  0  0  0  0  0
   -2.0040   25.2900  -29.3200 N   0  0  0  0  0  0  0  0  0  0  0  0
   -1.0140   23.4440  -28.3240 O   0  0  0  0  0  0  0  0  0  0  0  0
   -1.8290   21.7900  -30.6380 C   0  0  0  0  0  0  0  0  0  0  0  0
   -2.7690   21.1950  -31.4480 C   0  0  0  0  0  0  0  0  0  0  0  0
   -2.7090   20.0020  -32.1610 C   0  0  0  0  0  0  0  0  0  0  0  0
   -3.8240   19.6400  -32.9340 C   0  0  0  0  0  0  0  0  0  0  0  0
   -4.9630   20.4800  -32.9950 C   0  0  0  0  0  0  0  0  0  0  0  0
   -6.1630   20.0690  -33.8000 C   0  0  0  0  0  0  0  0  0  0  0  0
   -7.2740   19.7590  -32.9080 N   0  0  0  0  0  0  0  0  0  0  0  0
   -8.1600   20.6260  -32.3930 C   0  0  0  0  0  0  0  0  0  0  0  0
   -9.1000   19.9870  -31.6700 N   0  0  0  0  0  0  0  0  0  0  0  0
   -8.7310   18.6920  -31.7910 C   0  0  0  0  0  0  0  0  0  0  0  0
   -7.6260   18.5390  -32.5470 N   0  0  0  0  0  0  0  0  0  0  0  0
   -4.9940   21.6770  -32.2470 C   0  0  0  0  0  0  0  0  0  0  0  0
   -3.8760   22.0040  -31.4690 C   0  0  0  0  0  0  0  0  0  0  0  0
   -7.9597   23.6744  -30.0975 H   0  0  0  0  0  0  0  0  0  0  0  0
   -7.2223   24.6781  -31.3918 H   0  0  0  0  0  0  0  0  0  0  0  0
   -6.9863   22.8973  -31.3918 H   0  0  0  0  0  0  0  0  0  0  0  0
   -2.9710   25.6810  -29.3320 H   0  0  0  0  0  0  0  0  0  0  0  0
   -0.8228   21.4159  -30.3980 H   0  0  0  0  0  0  0  0  0  0  0  0
   -1.8154   19.3618  -32.1205 H   0  0  0  0  0  0  0  0  0  0  0  0
   -3.8129   18.6953  -33.4974 H   0  0  0  0  0  0  0  0  0  0  0  0
   -6.4519   20.8916  -34.4707 H   0  0  0  0  0  0  0  0  0  0  0  0
   -5.9139   19.1768  -34.3933 H   0  0  0  0  0  0  0  0  0  0  0  0
   -8.1233   21.7153  -32.5418 H   0  0  0  0  0  0  0  0  0  0  0  0
   -9.2726   17.8561  -31.3242 H   0  0  0  0  0  0  0  0  0  0  0  0
   -5.8741   22.3363  -32.2745 H   0  0  0  0  0  0  0  0  0  0  0  0
  1  2  1  0
  2  3  1  0
  3  4  2  0
  3  5  1  0
  5  6  1  0
  6  7  1  0
  7  8  1  0
  7  9  2  0
  6 10  2  0
 10 11  1  0
 11 12  2  0
 12 13  1  0
 13 14  2  0
 14 15  1  0
 15 16  1  0
 16 17  1  0
 17 18  2  0
 18 19  1  0
 19 20  2  0
 14 21  1  0
 21 22  2  0
 22  5  1  0
 22 11  1  0
 20 16  1  0
  1 23  1  0
  1 24  1  0
  1 25  1  0
  8 26  1  0
 10 27  1  0
 12 28  1  0
 13 29  1  0
 15 30  1  0
 15 31  1  0
 17 32  1  0
 19 33  1  0
 21 34  1  0
M  CHG  2   2  -1   8  -1
M  END
>  <UniqueID>  (23) 
23

>  <SMILES>  (23) 
C[N-]C(=O)n1c(C([NH-])=O)cc2ccc(Cn3cncn3)cc21

>  <Energy>  (23) 
103.81962620485213

>  <Genealogy>  (23) 
C[N-]C(=O)n1c(C([NH-])=O)cc2ccc(Cn3cncn3)cc21 (protonated)
C[N-]C(=O)n1c(C([NH-])=O)cc2ccc(Cn3cncn3)cc21 (3D coordinates assigned)
C[N-]C(=O)n1c(C([NH-])=O)cc2ccc(Cn3cncn3)cc21 (optimized conformer: 103.81962620485213 kcal/mol)

>  <smiles>  (23) 
CNC(=O)n1c(C(N)=O)cc2ccc(Cn3cncn3)cc21

>  <score_type>  (23) 
oracle

>  <origin>  (23) 
adg

>  <m_score__min__energy>  (23) 
-10.630000000000001

>  <m_primary>  (23) 
energy

$$$$
23:0
     RDKit          3D

 35 36  0  0  0  0  0  0  0  0999 V2000
   -3.8550   24.1990  -27.3970 C   0  0  0  0  0  0  0  0  0  0  0  0
   -4.1890   23.0280  -27.9460 C   0  0  0  0  0  0  0  0  0  0  0  0
   -3.1520   22.1150  -28.5240 C   0  0  0  0  0  0  0  0  0  0  0  0
   -3.6020   21.6140  -29.7780 O   0  0  0  0  0  0  0  0  0  0  0  0
   -3.9530   22.4460  -30.8450 C   0  0  0  0  0  0  0  0  0  0  0  0
   -3.0700   22.8680  -31.6400 O   0  0  0  0  0  0  0  0  0  0  0  0
   -5.3230   22.8430  -31.0140 N   0  0  0  0  0  0  0  0  0  0  0  0
   -5.8700   24.0800  -30.8360 C   0  0  0  0  0  0  0  0  0  0  0  0
   -5.1270   25.3250  -30.5460 C   0  0  0  0  0  0  0  0  0  0  0  0
   -3.7070   25.2910  -30.4250 N   0  0  0  0  0  0  0  0  0  0  0  0
   -5.7350   26.4140  -30.3680 O   0  0  0  0  0  0  0  0  0  0  0  0
   -7.2450   24.0410  -31.0520 C   0  0  0  0  0  0  0  0  0  0  0  0
   -7.5270   22.7350  -31.3780 C   0  0  0  0  0  0  0  0  0  0  0  0
   -8.7400   22.1340  -31.6990 C   0  0  0  0  0  0  0  0  0  0  0  0
   -8.7390   20.7570  -31.9800 C   0  0  0  0  0  0  0  0  0  0  0  0
   -7.5390   20.0020  -31.9120 C   0  0  0  0  0  0  0  0  0  0  0  0
   -7.5390   18.5270  -32.2500 C   0  0  0  0  0  0  0  0  0  0  0  0
   -6.5120   17.7890  -31.3950 C   0  0  0  0  0  0  0  0  0  0  0  0
   -7.2340   18.3370  -33.5880 F   0  0  0  0  0  0  0  0  0  0  0  0
   -8.7930   17.9870  -32.0190 F   0  0  0  0  0  0  0  0  0  0  0  0
   -6.3240   20.6550  -31.6000 C   0  0  0  0  0  0  0  0  0  0  0  0
   -6.3510   22.0320  -31.3460 C   0  0  0  0  0  0  0  0  0  0  0  0
   -4.6346   24.8527  -26.9789 H   0  0  0  0  0  0  0  0  0  0  0  0
   -2.8003   24.5096  -27.3630 H   0  0  0  0  0  0  0  0  0  0  0  0
   -5.2470   22.7282  -27.9741 H   0  0  0  0  0  0  0  0  0  0  0  0
   -2.2138   22.6710  -28.6674 H   0  0  0  0  0  0  0  0  0  0  0  0
   -2.9806   21.2746  -27.8353 H   0  0  0  0  0  0  0  0  0  0  0  0
   -3.1070   24.9890  -31.2260 H   0  0  0  0  0  0  0  0  0  0  0  0
   -7.9553   24.8776  -30.9776 H   0  0  0  0  0  0  0  0  0  0  0  0
   -9.6712   22.7186  -31.7318 H   0  0  0  0  0  0  0  0  0  0  0  0
   -9.6797   20.2582  -32.2560 H   0  0  0  0  0  0  0  0  0  0  0  0
   -6.7370   17.9507  -30.3305 H   0  0  0  0  0  0  0  0  0  0  0  0
   -6.5536   16.7129  -31.6192 H   0  0  0  0  0  0  0  0  0  0  0  0
   -5.5054   18.1716  -31.6192 H   0  0  0  0  0  0  0  0  0  0  0  0
   -5.3788   20.0939  -31.5578 H   0  0  0  0  0  0  0  0  0  0  0  0
  1  2  2  0
  2  3  1  0
  3  4  1  0
  4  5  1  0
  5  6  2  0
  5  7  1  0
  7  8  1  0
  8  9  1  0
  9 10  1  0
  9 11  2  0
  8 12  2  0
 12 13  1  0
 13 14  2  0
 14 15  1  0
 15 16  2  0
 16 17  1  0
 17 18  1  0
 17 19  1  0
 17 20  1  0
 16 21  1  0
 21 22  2  0
 22  7  1  0
 22 13  1  0
  1 23  1  0
  1 24  1  0
  2 25  1  0
  3 26  1  0
  3 27  1  0
 10 28  1  0
 12 29  1  0
 14 30  1  0
 15 31  1  0
 18 32  1  0
 18 33  1  0
 18 34  1  0
 21 35  1  0
M  CHG  1  10  -1
M  END
>  <UniqueID>  (24) 
24

>  <SMILES>  (24) 
C=CCOC(=O)n1c(C([NH-])=O)cc2ccc(C(C)(F)F)cc21

>  <Energy>  (24) 
66.41514606209854

>  <Genealogy>  (24) 
C=CCOC(=O)n1c(C([NH-])=O)cc2ccc(C(C)(F)F)cc21 (protonated)
C=CCOC(=O)n1c(C([NH-])=O)cc2ccc(C(C)(F)F)cc21 (3D coordinates assigned)
C=CCOC(=O)n1c(C([NH-])=O)cc2ccc(C(C)(F)F)cc21 (optimized conformer: 66.41514606209854 kcal/mol)

>  <smiles>  (24) 
C=CCOC(=O)n1c(C(N)=O)cc2ccc(C(C)(F)F)cc21

>  <score_type>  (24) 
oracle

>  <origin>  (24) 
adg

>  <m_score__min__energy>  (24) 
-9.5099999999999998

>  <m_primary>  (24) 
energy

$$$$
24:0
     RDKit          3D

 30 31  0  0  0  0  0  0  0  0999 V2000
   -2.9330   25.2990  -30.5660 H   0  0  0  0  0  0  0  0  0  0  0  0
   -3.9290   25.4970  -30.8120 N   0  0  0  0  0  0  0  0  0  0  0  0
   -4.9950   24.8060  -30.1670 C   0  0  0  0  0  0  0  0  0  0  0  0
   -5.5010   25.2940  -29.1210 O   0  0  0  0  0  0  0  0  0  0  0  0
   -5.5330   23.5460  -30.7220 C   0  0  0  0  0  0  0  0  0  0  0  0
   -6.8030   23.4280  -31.2850 C   0  0  0  0  0  0  0  0  0  0  0  0
   -7.5691   24.2125  -31.3722 H   0  0  0  0  0  0  0  0  0  0  0  0
   -6.8950   22.1200  -31.7090 C   0  0  0  0  0  0  0  0  0  0  0  0
   -7.9490   21.4470  -32.3180 C   0  0  0  0  0  0  0  0  0  0  0  0
   -8.8889   21.9649  -32.5596 H   0  0  0  0  0  0  0  0  0  0  0  0
   -7.7750   20.0840  -32.6150 C   0  0  0  0  0  0  0  0  0  0  0  0
   -8.5936   19.5219  -33.0882 H   0  0  0  0  0  0  0  0  0  0  0  0
   -6.5540   19.4240  -32.3110 C   0  0  0  0  0  0  0  0  0  0  0  0
   -6.4010   17.9500  -32.5840 C   0  0  0  0  0  0  0  0  0  0  0  0
   -5.7070   17.7410  -33.7630 F   0  0  0  0  0  0  0  0  0  0  0  0
   -5.7060   17.3330  -31.5570 F   0  0  0  0  0  0  0  0  0  0  0  0
   -7.6530   17.3740  -32.6900 F   0  0  0  0  0  0  0  0  0  0  0  0
   -5.5190   20.1390  -31.6670 C   0  0  0  0  0  0  0  0  0  0  0  0
   -4.5810   19.6392  -31.3834 H   0  0  0  0  0  0  0  0  0  0  0  0
   -5.7160   21.4970  -31.3990 C   0  0  0  0  0  0  0  0  0  0  0  0
   -4.8680   22.3600  -30.7990 N   0  0  0  0  0  0  0  0  0  0  0  0
   -3.5730   22.0430  -30.2620 C   0  0  0  0  0  0  0  0  0  0  0  0
   -3.3480   20.8780  -29.8400 O   0  0  0  0  0  0  0  0  0  0  0  0
   -2.4920   23.0440  -30.2060 C   0  0  0  0  0  0  0  0  0  0  0  0
   -1.9714   23.3124  -31.1371 H   0  0  0  0  0  0  0  0  0  0  0  0
   -2.1200   23.6380  -29.0680 C   0  0  0  0  0  0  0  0  0  0  0  0
   -2.6402   23.3752  -28.1351 H   0  0  0  0  0  0  0  0  0  0  0  0
   -1.0370   24.6320  -29.0240 C   0  0  0  0  0  0  0  0  0  0  0  0
   -1.2810   25.8310  -29.3160 O   0  0  0  0  0  0  0  0  0  0  0  0
    0.2570   24.2670  -28.6650 O   0  0  0  0  0  0  0  0  0  0  0  0
  1  2  1  0
  2  3  1  0
  3  4  2  0
  3  5  1  0
  5  6  2  0
  6  7  1  0
  6  8  1  0
  8  9  2  0
  9 10  1  0
  9 11  1  0
 11 12  1  0
 11 13  2  0
 13 14  1  0
 14 15  1  0
 14 16  1  0
 14 17  1  0
 13 18  1  0
 18 19  1  0
 18 20  2  0
 20 21  1  0
 21 22  1  0
 22 23  2  0
 22 24  1  0
 24 25  1  0
 24 26  2  0
 26 27  1  0
 26 28  1  0
 28 29  2  0
 28 30  1  0
 21  5  1  0
 20  8  1  0
M  CHG  2   2  -1  30  -1
M  END
>  <UniqueID>  (25) 
25

>  <SMILES>  (25) 
[NH-]C(=O)c1cc2ccc(C(F)(F)F)cc2n1C(=O)/C=C/C(=O)[O-]

>  <Energy>  (25) 
68.98833798493999

>  <Genealogy>  (25) 
[NH-]C(=O)c1cc2ccc(C(F)(F)F)cc2n1C(=O)/C=C/C(=O)[O-] (protonated)
[NH-]C(=O)c1cc2ccc(C(F)(F)F)cc2n1C(=O)/C=C/C(=O)[O-] (cis-trans isomerization)
[NH-]C(=O)c1cc2ccc(C(F)(F)F)cc2n1C(=O)/C=C/C(=O)[O-] (3D coordinates assigned)
[NH-]C(=O)c1cc2ccc(C(F)(F)F)cc2n1C(=O)/C=C/C(=O)[O-] (optimized conformer: 68.98833798493999 kcal/mol)

>  <smiles>  (25) 
NC(=O)c1cc2ccc(C(F)(F)F)cc2n1C(=O)/C=C/C(=O)O

>  <score_type>  (25) 
oracle

>  <origin>  (25) 
adg

>  <m_score__min__energy>  (25) 
-11.69

>  <m_primary>  (25) 
energy

$$$$
25:0
     RDKit          3D

 37 39  0  0  0  0  0  0  0  0999 V2000
   -3.6640   25.2910  -30.4760 N   0  0  0  0  0  0  0  0  0  0  0  0
   -5.0850   25.3350  -30.5720 C   0  0  0  0  0  0  0  0  0  0  0  0
   -5.6780   26.4390  -30.4380 O   0  0  0  0  0  0  0  0  0  0  0  0
   -5.8640   24.1190  -30.8820 C   0  0  0  0  0  0  0  0  0  0  0  0
   -7.2510   24.0480  -30.7720 C   0  0  0  0  0  0  0  0  0  0  0  0
   -7.5910   22.7970  -31.2320 C   0  0  0  0  0  0  0  0  0  0  0  0
   -8.8410   22.1940  -31.3420 C   0  0  0  0  0  0  0  0  0  0  0  0
   -8.8940   20.8780  -31.8310 C   0  0  0  0  0  0  0  0  0  0  0  0
   -7.7070   20.1880  -32.1780 C   0  0  0  0  0  0  0  0  0  0  0  0
   -7.7790   18.7910  -32.7280 C   0  0  0  0  0  0  0  0  0  0  0  0
   -6.4580   18.3680  -33.1750 N   0  0  0  0  0  0  0  0  0  0  0  0
   -5.7690   18.8520  -34.2240 C   0  0  0  0  0  0  0  0  0  0  0  0
   -4.5570   18.2780  -34.2870 N   0  0  0  0  0  0  0  0  0  0  0  0
   -4.5410   17.4400  -33.2310 C   0  0  0  0  0  0  0  0  0  0  0  0
   -5.6960   17.4920  -32.5380 N   0  0  0  0  0  0  0  0  0  0  0  0
   -6.4580   20.8370  -32.0640 C   0  0  0  0  0  0  0  0  0  0  0  0
   -6.4350   22.1550  -31.5940 C   0  0  0  0  0  0  0  0  0  0  0  0
   -5.3650   22.9530  -31.3820 N   0  0  0  0  0  0  0  0  0  0  0  0
   -3.9840   22.5940  -31.5550 C   0  0  0  0  0  0  0  0  0  0  0  0
   -3.1960   22.6490  -30.5740 O   0  0  0  0  0  0  0  0  0  0  0  0
   -3.5270   22.2080  -32.8240 O   0  0  0  0  0  0  0  0  0  0  0  0
   -2.8470   21.0170  -33.1060 C   0  0  0  0  0  0  0  0  0  0  0  0
   -3.0850   20.3630  -34.1600 O   0  0  0  0  0  0  0  0  0  0  0  0
   -1.7760   20.5490  -32.1760 C   0  0  0  0  0  0  0  0  0  0  0  0
   -0.9270   21.6000  -31.8890 F   0  0  0  0  0  0  0  0  0  0  0  0
   -1.0530   19.5250  -32.7620 F   0  0  0  0  0  0  0  0  0  0  0  0
   -2.3400   20.0860  -31.0010 F   0  0  0  0  0  0  0  0  0  0  0  0
   -3.0960   24.7350  -31.1540 H   0  0  0  0  0  0  0  0  0  0  0  0
   -7.9305   24.8274  -30.3967 H   0  0  0  0  0  0  0  0  0  0  0  0
   -9.7575   22.7306  -31.0553 H   0  0  0  0  0  0  0  0  0  0  0  0
   -9.8674   20.3785  -31.9455 H   0  0  0  0  0  0  0  0  0  0  0  0
   -8.1352   18.1074  -31.9432 H   0  0  0  0  0  0  0  0  0  0  0  0
   -8.4744   18.7714  -33.5801 H   0  0  0  0  0  0  0  0  0  0  0  0
   -6.1444   19.6088  -34.9285 H   0  0  0  0  0  0  0  0  0  0  0  0
   -3.7990   18.4490  -34.9840 H   0  0  0  0  0  0  0  0  0  0  0  0
   -3.6907   16.7938  -32.9675 H   0  0  0  0  0  0  0  0  0  0  0  0
   -5.5267   20.3196  -32.3377 H   0  0  0  0  0  0  0  0  0  0  0  0
  1  2  1  0
  2  3  2  0
  2  4  1  0
  4  5  2  0
  5  6  1  0
  6  7  2  0
  7  8  1  0
  8  9  2  0
  9 10  1  0
 10 11  1  0
 11 12  1  0
 12 13  2  0
 13 14  1  0
 14 15  2  0
  9 16  1  0
 16 17  2  0
 17 18  1  0
 18 19  1  0
 19 20  2  0
 19 21  1  0
 21 22  1  0
 22 23  2  0
 22 24  1  0
 24 25  1  0
 24 26  1  0
 24 27  1  0
 18  4  1  0
 17  6  1  0
 15 11  1  0
  1 28  1  0
  5 29  1  0
  7 30  1  0
  8 31  1  0
 10 32  1  0
 10 33  1  0
 12 34  1  0
 13 35  1  0
 14 36  1  0
 16 37  1  0
M  CHG  2   1  -1  13   1
M  END
>  <UniqueID>  (26) 
26

>  <SMILES>  (26) 
[NH-]C(=O)c1cc2ccc(Cn3c[nH+]cn3)cc2n1C(=O)OC(=O)C(F)(F)F

>  <Energy>  (26) 
110.69186175550438

>  <Genealogy>  (26) 
[NH-]C(=O)c1cc2ccc(Cn3c[nH+]cn3)cc2n1C(=O)OC(=O)C(F)(F)F (protonated)
[NH-]C(=O)c1cc2ccc(Cn3c[nH+]cn3)cc2n1C(=O)OC(=O)C(F)(F)F (3D coordinates assigned)
[NH-]C(=O)c1cc2ccc(Cn3c[nH+]cn3)cc2n1C(=O)OC(=O)C(F)(F)F (optimized conformer: 110.69186175550438 kcal/mol)

>  <smiles>  (26) 
NC(=O)c1cc2ccc(Cn3cncn3)cc2n1C(=O)OC(=O)C(F)(F)F

>  <score_type>  (26) 
oracle

>  <origin>  (26) 
adg

>  <m_score__min__energy>  (26) 
-9.8399999999999999

>  <m_primary>  (26) 
energy

$$$$
26:0
     RDKit          3D

 58 59  0  0  0  0  0  0  0  0999 V2000
    1.7430   21.2110  -36.1930 C   0  0  0  0  0  0  0  0  0  0  0  0
    0.9690   22.1610  -35.3450 C   0  0  0  0  0  0  0  0  0  0  0  0
    0.7130   23.3190  -35.7740 O   0  0  0  0  0  0  0  0  0  0  0  0
    0.4910   21.7380  -34.1010 O   0  0  0  0  0  0  0  0  0  0  0  0
   -0.7070   20.9840  -33.9450 C   0  0  0  0  0  0  0  0  0  0  0  0
   -1.6260   21.6830  -33.1090 O   0  0  0  0  0  0  0  0  0  0  0  0
   -2.9350   21.2440  -32.8780 C   0  0  0  0  0  0  0  0  0  0  0  0
   -3.5600   20.6400  -33.7930 O   0  0  0  0  0  0  0  0  0  0  0  0
   -3.5780   21.5150  -31.6130 N   0  0  0  0  0  0  0  0  0  0  0  0
   -3.4640   20.5670  -30.4860 C   0  0  0  0  0  0  0  0  0  0  0  0
   -2.6850   21.1320  -29.2810 C   0  0  0  0  0  0  0  0  0  0  0  0
   -1.2390   21.5480  -29.5950 C   0  0  0  0  0  0  0  0  0  0  0  0
   -0.8530   22.8200  -28.9320 N   0  0  0  0  0  0  0  0  0  0  0  0
    0.0420   22.5200  -27.8000 C   0  0  0  0  0  0  0  0  0  0  0  0
   -2.0290   23.5770  -28.4390 C   0  0  0  0  0  0  0  0  0  0  0  0
   -2.1000   24.9360  -29.0620 C   0  0  0  0  0  0  0  0  0  0  0  0
   -3.1350   25.2970  -29.6830 O   0  0  0  0  0  0  0  0  0  0  0  0
   -1.0340   25.8180  -28.9320 O   0  0  0  0  0  0  0  0  0  0  0  0
   -4.5240   22.6020  -31.5260 C   0  0  0  0  0  0  0  0  0  0  0  0
   -4.1210   23.7960  -31.5490 O   0  0  0  0  0  0  0  0  0  0  0  0
   -5.9300   22.3450  -31.3840 N   0  0  0  0  0  0  0  0  0  0  0  0
   -6.8450   23.0760  -30.6900 C   0  0  0  0  0  0  0  0  0  0  0  0
   -6.5710   24.3200  -29.9450 C   0  0  0  0  0  0  0  0  0  0  0  0
   -5.3480   24.5100  -29.2390 N   0  0  0  0  0  0  0  0  0  0  0  0
   -7.4190   25.2520  -29.9670 O   0  0  0  0  0  0  0  0  0  0  0  0
   -8.0730   22.4170  -30.6550 C   0  0  0  0  0  0  0  0  0  0  0  0
   -7.8770   21.2460  -31.3490 C   0  0  0  0  0  0  0  0  0  0  0  0
   -8.7540   20.1980  -31.6140 C   0  0  0  0  0  0  0  0  0  0  0  0
   -8.2600   19.0870  -32.3200 C   0  0  0  0  0  0  0  0  0  0  0  0
   -6.9030   19.0340  -32.7210 C   0  0  0  0  0  0  0  0  0  0  0  0
   -6.3990   17.8540  -33.4970 C   0  0  0  0  0  0  0  0  0  0  0  0
   -6.0450   20.1180  -32.4370 C   0  0  0  0  0  0  0  0  0  0  0  0
   -6.5690   21.2180  -31.7590 C   0  0  0  0  0  0  0  0  0  0  0  0
    2.3062   20.5197  -35.5489 H   0  0  0  0  0  0  0  0  0  0  0  0
    1.0508   20.6387  -36.8281 H   0  0  0  0  0  0  0  0  0  0  0  0
    2.4434   21.7733  -36.8281 H   0  0  0  0  0  0  0  0  0  0  0  0
   -1.1650   20.8221  -34.9319 H   0  0  0  0  0  0  0  0  0  0  0  0
   -0.4635   20.0175  -33.4795 H   0  0  0  0  0  0  0  0  0  0  0  0
   -4.4775   20.3011  -30.1513 H   0  0  0  0  0  0  0  0  0  0  0  0
   -2.9027   19.6951  -30.8531 H   0  0  0  0  0  0  0  0  0  0  0  0
   -3.2233   22.0156  -28.9077 H   0  0  0  0  0  0  0  0  0  0  0  0
   -2.6234   20.3211  -28.5403 H   0  0  0  0  0  0  0  0  0  0  0  0
   -0.5613   20.7523  -29.2521 H   0  0  0  0  0  0  0  0  0  0  0  0
   -1.1659   21.7034  -30.6815 H   0  0  0  0  0  0  0  0  0  0  0  0
   -0.4906   22.6985  -26.8542 H   0  0  0  0  0  0  0  0  0  0  0  0
    0.3568   21.4672  -27.8505 H   0  0  0  0  0  0  0  0  0  0  0  0
    0.9277   23.1704  -27.8505 H   0  0  0  0  0  0  0  0  0  0  0  0
   -2.9442   23.0200  -28.6885 H   0  0  0  0  0  0  0  0  0  0  0  0
   -1.9326   23.6985  -27.3500 H   0  0  0  0  0  0  0  0  0  0  0  0
   -5.2050   25.3720  -28.6670 H   0  0  0  0  0  0  0  0  0  0  0  0
   -4.5290   23.8930  -29.4110 H   0  0  0  0  0  0  0  0  0  0  0  0
   -9.0010   22.7605  -30.1746 H   0  0  0  0  0  0  0  0  0  0  0  0
   -9.8017   20.2378  -31.2812 H   0  0  0  0  0  0  0  0  0  0  0  0
   -8.9334   18.2518  -32.5629 H   0  0  0  0  0  0  0  0  0  0  0  0
   -6.0650   17.0719  -32.7993 H   0  0  0  0  0  0  0  0  0  0  0  0
   -7.2071   17.4595  -34.1305 H   0  0  0  0  0  0  0  0  0  0  0  0
   -5.5552   18.1650  -34.1305 H   0  0  0  0  0  0  0  0  0  0  0  0
   -4.9887   20.0956  -32.7430 H   0  0  0  0  0  0  0  0  0  0  0  0
  1  2  1  0
  2  3  2  0
  2  4  1  0
  4  5  1  0
  5  6  1  0
  6  7  1  0
  7  8  2  0
  7  9  1  0
  9 10  1  0
 10 11  1  0
 11 12  1  0
 12 13  1  0
 13 14  1  0
 13 15  1  0
 15 16  1  0
 16 17  2  0
 16 18  1  0
  9 19  1  0
 19 20  2  0
 19 21  1  0
 21 22  1  0
 22 23  1  0
 23 24  1  0
 23 25  2  0
 22 26  2  0
 26 27  1  0
 27 28  2  0
 28 29  1  0
 29 30  2  0
 30 31  1  0
 30 32  1  0
 32 33  2  0
 33 21  1  0
 33 27  1  0
  1 34  1  0
  1 35  1  0
  1 36  1  0
  5 37  1  0
  5 38  1  0
 10 39  1  0
 10 40  1  0
 11 41  1  0
 11 42  1  0
 12 43  1  0
 12 44  1  0
 14 45  1  0
 14 46  1  0
 14 47  1  0
 15 48  1  0
 15 49  1  0
 24 50  1  0
 24 51  1  0
 26 52  1  0
 28 53  1  0
 29 54  1  0
 31 55  1  0
 31 56  1  0
 31 57  1  0
 32 58  1  0
M  CHG  1  18  -1
M  END
>  <UniqueID>  (27) 
27

>  <SMILES>  (27) 
CC(=O)OCOC(=O)N(CCCN(C)CC(=O)[O-])C(=O)n1c(C(N)=O)cc2ccc(C)cc21

>  <Energy>  (27) 
94.37524755864138

>  <Genealogy>  (27) 
CC(=O)OCOC(=O)N(CCCN(C)CC(=O)[O-])C(=O)n1c(C(N)=O)cc2ccc(C)cc21 (protonated)
CC(=O)OCOC(=O)N(CCCN(C)CC(=O)[O-])C(=O)n1c(C(N)=O)cc2ccc(C)cc21 (3D coordinates assigned)
CC(=O)OCOC(=O)N(CCCN(C)CC(=O)[O-])C(=O)n1c(C(N)=O)cc2ccc(C)cc21 (optimized conformer: 94.37524755864138 kcal/mol)

>  <smiles>  (27) 
CC(=O)OCOC(=O)N(CCCN(C)CC(=O)O)C(=O)n1c(C(N)=O)cc2ccc(C)cc21

>  <score_type>  (27) 
oracle

>  <origin>  (27) 
adg

>  <m_score__min__energy>  (27) 
-11.970000000000001

>  <m_primary>  (27) 
energy

$$$$
27:0
     RDKit          3D

 36 37  0  0  0  0  0  0  0  0999 V2000
   -0.8630   25.8860  -27.9700 C   0  0  0  0  0  0  0  0  0  0  0  0
   -1.6850   25.3070  -28.9760 O   0  0  0  0  0  0  0  0  0  0  0  0
   -2.5710   24.2570  -28.7130 C   0  0  0  0  0  0  0  0  0  0  0  0
   -3.6650   24.4840  -28.1280 O   0  0  0  0  0  0  0  0  0  0  0  0
   -2.2300   22.8730  -29.1930 C   0  0  0  0  0  0  0  0  0  0  0  0
   -1.6290   22.1860  -28.1500 F   0  0  0  0  0  0  0  0  0  0  0  0
   -1.3120   22.9670  -30.2250 F   0  0  0  0  0  0  0  0  0  0  0  0
   -3.4680   22.0710  -29.6420 C   0  0  0  0  0  0  0  0  0  0  0  0
   -4.0430   22.5570  -30.9470 C   0  0  0  0  0  0  0  0  0  0  0  0
   -3.2700   22.7960  -31.9150 O   0  0  0  0  0  0  0  0  0  0  0  0
   -5.4530   22.7920  -31.0940 N   0  0  0  0  0  0  0  0  0  0  0  0
   -6.1340   23.9630  -30.9480 C   0  0  0  0  0  0  0  0  0  0  0  0
   -5.5750   25.2350  -30.4450 C   0  0  0  0  0  0  0  0  0  0  0  0
   -4.2200   25.5930  -30.7050 N   0  0  0  0  0  0  0  0  0  0  0  0
   -6.2910   25.9980  -29.7450 O   0  0  0  0  0  0  0  0  0  0  0  0
   -7.4830   23.7830  -31.2470 C   0  0  0  0  0  0  0  0  0  0  0  0
   -7.6120   22.4500  -31.5650 C   0  0  0  0  0  0  0  0  0  0  0  0
   -8.7370   21.7200  -31.9350 C   0  0  0  0  0  0  0  0  0  0  0  0
   -8.5720   20.3520  -32.2160 C   0  0  0  0  0  0  0  0  0  0  0  0
   -7.2910   19.7480  -32.1360 C   0  0  0  0  0  0  0  0  0  0  0  0
   -7.1350   18.2820  -32.4080 C   0  0  0  0  0  0  0  0  0  0  0  0
   -8.3440   17.6440  -32.2040 F   0  0  0  0  0  0  0  0  0  0  0  0
   -6.1750   20.5170  -31.7400 C   0  0  0  0  0  0  0  0  0  0  0  0
   -6.3730   21.8740  -31.4580 C   0  0  0  0  0  0  0  0  0  0  0  0
   -1.2508   25.6128  -26.9775 H   0  0  0  0  0  0  0  0  0  0  0  0
    0.1660   25.5122  -28.0772 H   0  0  0  0  0  0  0  0  0  0  0  0
   -0.8684   26.9807  -28.0772 H   0  0  0  0  0  0  0  0  0  0  0  0
   -3.1791   21.0159  -29.7576 H   0  0  0  0  0  0  0  0  0  0  0  0
   -4.2424   22.2028  -28.8720 H   0  0  0  0  0  0  0  0  0  0  0  0
   -3.5270   25.6710  -29.9280 H   0  0  0  0  0  0  0  0  0  0  0  0
   -8.2765   24.5446  -31.2321 H   0  0  0  0  0  0  0  0  0  0  0  0
   -9.7251   22.1981  -32.0056 H   0  0  0  0  0  0  0  0  0  0  0  0
   -9.4441   19.7449  -32.5004 H   0  0  0  0  0  0  0  0  0  0  0  0
   -6.8139   18.1346  -33.4497 H   0  0  0  0  0  0  0  0  0  0  0  0
   -6.3794   17.8615  -31.7282 H   0  0  0  0  0  0  0  0  0  0  0  0
   -5.1770   20.0622  -31.6553 H   0  0  0  0  0  0  0  0  0  0  0  0
  1  2  1  0
  2  3  1  0
  3  4  2  0
  3  5  1  0
  5  6  1  0
  5  7  1  0
  5  8  1  0
  8  9  1  0
  9 10  2  0
  9 11  1  0
 11 12  1  0
 12 13  1  0
 13 14  1  0
 13 15  2  0
 12 16  2  0
 16 17  1  0
 17 18  2  0
 18 19  1  0
 19 20  2  0
 20 21  1  0
 21 22  1  0
 20 23  1  0
 23 24  2  0
 24 11  1  0
 24 17  1  0
  1 25  1  0
  1 26  1  0
  1 27  1  0
  8 28  1  0
  8 29  1  0
 14 30  1  0
 16 31  1  0
 18 32  1  0
 19 33  1  0
 21 34  1  0
 21 35  1  0
 23 36  1  0
M  CHG  1  14  -1
M  END
>  <UniqueID>  (28) 
28

>  <SMILES>  (28) 
COC(=O)C(F)(F)CC(=O)n1c(C([NH-])=O)cc2ccc(CF)cc21

>  <Energy>  (28) 
71.81259866902838

>  <Genealogy>  (28) 
COC(=O)C(F)(F)CC(=O)n1c(C([NH-])=O)cc2ccc(CF)cc21 (protonated)
COC(=O)C(F)(F)CC(=O)n1c(C([NH-])=O)cc2ccc(CF)cc21 (3D coordinates assigned)
COC(=O)C(F)(F)CC(=O)n1c(C([NH-])=O)cc2ccc(CF)cc21 (optimized conformer: 71.81259866902838 kcal/mol)

>  <smiles>  (28) 
COC(=O)C(F)(F)CC(=O)n1c(C(N)=O)cc2ccc(CF)cc21

>  <score_type>  (28) 
oracle

>  <origin>  (28) 
adg

>  <m_score__min__energy>  (28) 
-9.4399999999999995

>  <m_primary>  (28) 
energy

$$$$
28:0
     RDKit          3D

 35 36  0  0  0  0  0  0  0  0999 V2000
   -3.9940   25.6660  -30.8380 N   0  0  0  0  0  0  0  0  0  0  0  0
   -5.3080   25.3330  -30.3990 C   0  0  0  0  0  0  0  0  0  0  0  0
   -5.9570   26.1620  -29.7060 O   0  0  0  0  0  0  0  0  0  0  0  0
   -5.9330   24.0480  -30.7790 C   0  0  0  0  0  0  0  0  0  0  0  0
   -7.2990   23.8890  -31.0090 C   0  0  0  0  0  0  0  0  0  0  0  0
   -7.4510   22.5790  -31.4040 C   0  0  0  0  0  0  0  0  0  0  0  0
   -8.6010   21.8680  -31.7340 C   0  0  0  0  0  0  0  0  0  0  0  0
   -8.4620   20.5100  -32.0700 C   0  0  0  0  0  0  0  0  0  0  0  0
   -7.1840   19.8930  -32.0880 C   0  0  0  0  0  0  0  0  0  0  0  0
   -7.0530   18.4220  -32.3880 C   0  0  0  0  0  0  0  0  0  0  0  0
   -6.1320   17.8310  -31.5390 F   0  0  0  0  0  0  0  0  0  0  0  0
   -6.6280   18.2230  -33.6900 F   0  0  0  0  0  0  0  0  0  0  0  0
   -8.2810   17.8110  -32.2160 F   0  0  0  0  0  0  0  0  0  0  0  0
   -6.0430   20.6460  -31.7280 C   0  0  0  0  0  0  0  0  0  0  0  0
   -6.2130   21.9960  -31.4040 C   0  0  0  0  0  0  0  0  0  0  0  0
   -5.2720   22.8810  -31.0150 N   0  0  0  0  0  0  0  0  0  0  0  0
   -3.8840   22.5920  -30.8020 C   0  0  0  0  0  0  0  0  0  0  0  0
   -3.0200   23.0770  -31.5810 O   0  0  0  0  0  0  0  0  0  0  0  0
   -3.4630   21.6320  -29.7320 C   0  0  0  0  0  0  0  0  0  0  0  0
   -1.7920   22.0390  -29.1400 P   0  0  2  0  0  0  0  0  0  0  0  0
   -0.8820   22.2850  -30.3220 O   0  0  0  0  0  0  0  0  0  0  0  0
   -1.1950   20.7360  -28.2420 O   0  0  0  0  0  0  0  0  0  0  0  0
   -1.8410   23.5190  -28.0840 C   0  0  0  0  0  0  0  0  0  0  0  0
   -0.9930   24.5980  -28.6720 C   0  0  0  0  0  0  0  0  0  0  0  0
    0.2620   24.5220  -28.6110 O   0  0  0  0  0  0  0  0  0  0  0  0
   -1.5880   25.6660  -29.3320 O   0  0  0  0  0  0  0  0  0  0  0  0
   -3.1820   25.0450  -30.6230 H   0  0  0  0  0  0  0  0  0  0  0  0
   -8.0871   24.6484  -30.8984 H   0  0  0  0  0  0  0  0  0  0  0  0
   -9.5880   22.3535  -31.7320 H   0  0  0  0  0  0  0  0  0  0  0  0
   -9.3545   19.9185  -32.3220 H   0  0  0  0  0  0  0  0  0  0  0  0
   -5.0461   20.1817  -31.7033 H   0  0  0  0  0  0  0  0  0  0  0  0
   -4.1703   21.6923  -28.8917 H   0  0  0  0  0  0  0  0  0  0  0  0
   -3.4571   20.6135  -30.1474 H   0  0  0  0  0  0  0  0  0  0  0  0
   -2.8788   23.8748  -28.0044 H   0  0  0  0  0  0  0  0  0  0  0  0
   -1.4555   23.2620  -27.0863 H   0  0  0  0  0  0  0  0  0  0  0  0
  1  2  1  0
  2  3  2  0
  2  4  1  0
  4  5  2  0
  5  6  1  0
  6  7  2  0
  7  8  1  0
  8  9  2  0
  9 10  1  0
 10 11  1  0
 10 12  1  0
 10 13  1  0
  9 14  1  0
 14 15  2  0
 15 16  1  0
 16 17  1  0
 17 18  2  0
 17 19  1  0
 19 20  1  0
 20 21  2  0
 20 22  1  1
 20 23  1  0
 23 24  1  0
 24 25  2  0
 24 26  1  0
 16  4  1  0
 15  6  1  0
  1 27  1  0
  5 28  1  0
  7 29  1  0
  8 30  1  0
 14 31  1  0
 19 32  1  0
 19 33  1  0
 23 34  1  0
 23 35  1  0
M  CHG  3   1  -1  22  -1  26  -1
M  END
>  <UniqueID>  (29) 
29

>  <SMILES>  (29) 
[NH-]C(=O)c1cc2ccc(C(F)(F)F)cc2n1C(=O)C[P@](=O)([O-])CC(=O)[O-]

>  <Energy>  (29) 
65.03922163318197

>  <Genealogy>  (29) 
[NH-]C(=O)c1cc2ccc(C(F)(F)F)cc2n1C(=O)CP(=O)([O-])CC(=O)[O-] (protonated)
[NH-]C(=O)c1cc2ccc(C(F)(F)F)cc2n1C(=O)C[P@](=O)([O-])CC(=O)[O-] (chirality)
[NH-]C(=O)c1cc2ccc(C(F)(F)F)cc2n1C(=O)C[P@](=O)([O-])CC(=O)[O-] (3D coordinates assigned)
[NH-]C(=O)c1cc2ccc(C(F)(F)F)cc2n1C(=O)C[P@](=O)([O-])CC(=O)[O-] (optimized conformer: 65.03922163318197 kcal/mol)

>  <smiles>  (29) 
NC(=O)c1cc2ccc(C(F)(F)F)cc2n1C(=O)CP(=O)(O)CC(=O)O

>  <score_type>  (29) 
oracle

>  <origin>  (29) 
adg

>  <m_score__min__energy>  (29) 
-13.32

>  <m_primary>  (29) 
energy

$$$$
29:0
     RDKit          3D

 41 42  0  0  0  0  0  0  0  0999 V2000
   -2.5420   25.3020  -30.4250 H   0  0  0  0  0  0  0  0  0  0  0  0
   -3.5280   24.9790  -30.5500 N   0  0  0  0  0  0  0  0  0  0  0  0
   -4.1080   24.0370  -29.6520 C   0  0  0  0  0  0  0  0  0  0  0  0
   -3.6940   23.9830  -28.4640 O   0  0  0  0  0  0  0  0  0  0  0  0
   -5.2200   23.1650  -30.0800 C   0  0  0  0  0  0  0  0  0  0  0  0
   -6.5640   23.4770  -29.8820 C   0  0  0  0  0  0  0  0  0  0  0  0
   -6.9746   24.3448  -29.3449 H   0  0  0  0  0  0  0  0  0  0  0  0
   -7.2690   22.4690  -30.5010 C   0  0  0  0  0  0  0  0  0  0  0  0
   -8.6420   22.2790  -30.6250 C   0  0  0  0  0  0  0  0  0  0  0  0
   -9.3547   22.9998  -30.1979 H   0  0  0  0  0  0  0  0  0  0  0  0
   -9.0900   21.1390  -31.3120 C   0  0  0  0  0  0  0  0  0  0  0  0
  -10.1694   20.9715  -31.4418 H   0  0  0  0  0  0  0  0  0  0  0  0
   -8.1650   20.2000  -31.8410 C   0  0  0  0  0  0  0  0  0  0  0  0
   -8.6520   18.9980  -32.6110 C   0  0  0  0  0  0  0  0  0  0  0  0
   -7.6350   18.4570  -33.3780 F   0  0  0  0  0  0  0  0  0  0  0  0
   -9.6890   19.3520  -33.4570 F   0  0  0  0  0  0  0  0  0  0  0  0
   -9.1040   18.0410  -31.7210 F   0  0  0  0  0  0  0  0  0  0  0  0
   -6.7770   20.4420  -31.7150 C   0  0  0  0  0  0  0  0  0  0  0  0
   -6.0421   19.7414  -32.1382 H   0  0  0  0  0  0  0  0  0  0  0  0
   -6.3620   21.5940  -31.0390 C   0  0  0  0  0  0  0  0  0  0  0  0
   -5.1010   22.0040  -30.7860 N   0  0  0  0  0  0  0  0  0  0  0  0
   -3.9000   21.3000  -31.1380 C   0  0  0  0  0  0  0  0  0  0  0  0
   -3.9810   20.1340  -31.6090 O   0  0  0  0  0  0  0  0  0  0  0  0
   -2.5830   21.9210  -30.8980 C   0  0  0  0  0  0  0  0  0  0  0  0
   -2.1189   22.5091  -31.7035 H   0  0  0  0  0  0  0  0  0  0  0  0
   -1.9340   21.7940  -29.7360 C   0  0  0  0  0  0  0  0  0  0  0  0
   -2.3949   21.2095  -28.9261 H   0  0  0  0  0  0  0  0  0  0  0  0
   -0.5870   22.4310  -29.5070 C   0  0  0  0  0  0  0  0  0  0  0  0
   -0.1457   22.0134  -28.5900 H   0  0  0  0  0  0  0  0  0  0  0  0
    0.0475   22.2182  -30.3800 H   0  0  0  0  0  0  0  0  0  0  0  0
   -0.6970   23.8930  -29.3620 N   0  0  0  0  0  0  0  0  0  0  0  0
   -0.1150   24.3470  -30.1040 H   0  0  0  0  0  0  0  0  0  0  0  0
   -1.6880   24.1770  -29.5430 H   0  0  0  0  0  0  0  0  0  0  0  0
   -0.2930   24.3810  -28.0260 C   0  0  0  0  0  0  0  0  0  0  0  0
   -0.4513   23.5747  -27.2946 H   0  0  0  0  0  0  0  0  0  0  0  0
    0.7653   24.6748  -28.0867 H   0  0  0  0  0  0  0  0  0  0  0  0
   -1.0920   25.6170  -27.5760 C   0  0  0  0  0  0  0  0  0  0  0  0
   -1.6870   25.3546  -26.6888 H   0  0  0  0  0  0  0  0  0  0  0  0
   -0.3802   26.4233  -27.3452 H   0  0  0  0  0  0  0  0  0  0  0  0
   -1.9530   26.0660  -28.5850 O   0  0  0  0  0  0  0  0  0  0  0  0
   -2.7530   25.4780  -28.5590 H   0  0  0  0  0  0  0  0  0  0  0  0
  1  2  1  0
  2  3  1  0
  3  4  2  0
  3  5  1  0
  5  6  2  0
  6  7  1  0
  6  8  1  0
  8  9  2  0
  9 10  1  0
  9 11  1  0
 11 12  1  0
 11 13  2  0
 13 14  1  0
 14 15  1  0
 14 16  1  0
 14 17  1  0
 13 18  1  0
 18 19  1  0
 18 20  2  0
 20 21  1  0
 21 22  1  0
 22 23  2  0
 22 24  1  0
 24 25  1  0
 24 26  2  0
 26 27  1  0
 26 28  1  0
 28 29  1  0
 28 30  1  0
 28 31  1  0
 31 32  1  0
 31 33  1  0
 31 34  1  0
 34 35  1  0
 34 36  1  0
 34 37  1  0
 37 38  1  0
 37 39  1  0
 37 40  1  0
 40 41  1  0
 21  5  1  0
 20  8  1  0
M  CHG  2   2  -1  31   1
M  END
>  <UniqueID>  (30) 
30

>  <SMILES>  (30) 
[NH-]C(=O)c1cc2ccc(C(F)(F)F)cc2n1C(=O)/C=C/C[NH2+]CCO

>  <Energy>  (30) 
79.68568649789326

>  <Genealogy>  (30) 
[NH-]C(=O)c1cc2ccc(C(F)(F)F)cc2n1C(=O)C=CC[NH2+]CCO (protonated)
[NH-]C(=O)c1cc2ccc(C(F)(F)F)cc2n1C(=O)/C=C/C[NH2+]CCO (cis-trans isomerization)
[NH-]C(=O)c1cc2ccc(C(F)(F)F)cc2n1C(=O)/C=C/C[NH2+]CCO (3D coordinates assigned)
[NH-]C(=O)c1cc2ccc(C(F)(F)F)cc2n1C(=O)/C=C/C[NH2+]CCO (optimized conformer: 79.68568649789326 kcal/mol)

>  <smiles>  (30) 
NC(=O)c1cc2ccc(C(F)(F)F)cc2n1C(=O)C=CCNCCO

>  <score_type>  (30) 
oracle

>  <origin>  (30) 
adg

>  <m_score__min__energy>  (30) 
-10.24

>  <m_primary>  (30) 
energy

$$$$
31:0
     RDKit          3D

 50 51  0  0  0  0  0  0  0  0999 V2000
   -2.8800   25.6770  -29.3170 H   0  0  0  0  0  0  0  0  0  0  0  0
   -1.8990   25.6080  -28.9660 N   0  0  0  0  0  0  0  0  0  0  0  0
   -1.1260   24.4270  -29.1740 C   0  0  0  0  0  0  0  0  0  0  0  0
    0.0020   24.3250  -28.6260 O   0  0  0  0  0  0  0  0  0  0  0  0
   -1.6690   23.3310  -30.0030 C   0  0  0  0  0  0  0  0  0  0  0  0
   -0.9300   22.2120  -30.3790 C   0  0  0  0  0  0  0  0  0  0  0  0
    0.1028   21.9673  -30.0900 H   0  0  0  0  0  0  0  0  0  0  0  0
   -1.7660   21.4770  -31.1890 C   0  0  0  0  0  0  0  0  0  0  0  0
   -1.5470   20.2630  -31.8340 C   0  0  0  0  0  0  0  0  0  0  0  0
   -0.5790   19.7462  -31.7568 H   0  0  0  0  0  0  0  0  0  0  0  0
   -2.6000   19.7190  -32.5860 C   0  0  0  0  0  0  0  0  0  0  0  0
   -2.4545   18.7648  -33.1135 H   0  0  0  0  0  0  0  0  0  0  0  0
   -3.8500   20.3850  -32.6740 C   0  0  0  0  0  0  0  0  0  0  0  0
   -4.9360   19.8050  -33.4290 N   0  0  0  0  0  0  0  0  0  0  0  0
   -4.7460   19.9550  -34.4470 H   0  0  0  0  0  0  0  0  0  0  0  0
   -4.9800   18.7700  -33.2870 H   0  0  0  0  0  0  0  0  0  0  0  0
   -6.2310   20.4300  -33.1030 C   0  0  0  0  0  0  0  0  0  0  0  0
   -6.1205   20.9827  -32.1584 H   0  0  0  0  0  0  0  0  0  0  0  0
   -6.4907   21.0844  -33.9482 H   0  0  0  0  0  0  0  0  0  0  0  0
   -7.3900   19.4240  -32.9440 C   0  0  0  0  0  0  0  0  0  0  0  0
   -8.2189   19.9241  -32.4218 H   0  0  0  0  0  0  0  0  0  0  0  0
   -7.6793   19.0937  -33.9526 H   0  0  0  0  0  0  0  0  0  0  0  0
   -6.9940   18.1720  -32.1470 C   0  0  0  0  0  0  0  0  0  0  0  0
   -6.5923   18.4759  -31.1691 H   0  0  0  0  0  0  0  0  0  0  0  0
   -7.8829   17.5392  -32.0079 H   0  0  0  0  0  0  0  0  0  0  0  0
   -5.9640   17.4030  -32.8810 N   0  0  0  0  0  0  0  0  0  0  0  0
   -5.4120   16.3230  -32.0430 C   0  0  0  0  0  0  0  0  0  0  0  0
   -5.5430   16.5793  -30.9813 H   0  0  0  0  0  0  0  0  0  0  0  0
   -5.9403   15.3832  -32.2612 H   0  0  0  0  0  0  0  0  0  0  0  0
   -4.3408   16.2007  -32.2612 H   0  0  0  0  0  0  0  0  0  0  0  0
   -6.5270   16.8260  -34.1120 C   0  0  0  0  0  0  0  0  0  0  0  0
   -7.2732   16.0612  -33.8506 H   0  0  0  0  0  0  0  0  0  0  0  0
   -7.0072   17.6199  -34.7028 H   0  0  0  0  0  0  0  0  0  0  0  0
   -5.7215   16.3655  -34.7028 H   0  0  0  0  0  0  0  0  0  0  0  0
   -4.0330   21.6160  -32.0010 C   0  0  0  0  0  0  0  0  0  0  0  0
   -4.9973   22.1435  -32.0448 H   0  0  0  0  0  0  0  0  0  0  0  0
   -2.9580   22.1470  -31.2780 C   0  0  0  0  0  0  0  0  0  0  0  0
   -2.9120   23.2950  -30.5650 N   0  0  0  0  0  0  0  0  0  0  0  0
   -3.9870   24.2320  -30.3690 C   0  0  0  0  0  0  0  0  0  0  0  0
   -3.8830   25.3960  -30.8400 O   0  0  0  0  0  0  0  0  0  0  0  0
   -5.1760   23.9110  -29.5500 C   0  0  0  0  0  0  0  0  0  0  0  0
   -5.0737   24.0044  -28.4588 H   0  0  0  0  0  0  0  0  0  0  0  0
   -6.3680   23.5160  -30.0210 C   0  0  0  0  0  0  0  0  0  0  0  0
   -7.1058   23.1545  -29.2896 H   0  0  0  0  0  0  0  0  0  0  0  0
   -6.7700   23.5270  -31.4400 C   0  0  0  0  0  0  0  0  0  0  0  0
   -6.0190   24.0340  -32.3150 O   0  0  0  0  0  0  0  0  0  0  0  0
   -8.1300   23.0480  -31.8270 C   0  0  0  0  0  0  0  0  0  0  0  0
   -8.7176   22.8410  -30.9204 H   0  0  0  0  0  0  0  0  0  0  0  0
   -8.6356   23.8221  -32.4229 H   0  0  0  0  0  0  0  0  0  0  0  0
   -8.0389   22.1279  -32.4229 H   0  0  0  0  0  0  0  0  0  0  0  0
  1  2  1  0
  2  3  1  0
  3  4  2  0
  3  5  1  0
  5  6  2  0
  6  7  1  0
  6  8  1  0
  8  9  2  0
  9 10  1  0
  9 11  1  0
 11 12  1  0
 11 13  2  0
 13 14  1  0
 14 15  1  0
 14 16  1  0
 14 17  1  0
 17 18  1  0
 17 19  1  0
 17 20  1  0
 20 21  1  0
 20 22  1  0
 20 23  1  0
 23 24  1  0
 23 25  1  0
 23 26  1  0
 26 27  1  0
 27 28  1  0
 27 29  1  0
 27 30  1  0
 26 31  1  0
 31 32  1  0
 31 33  1  0
 31 34  1  0
 13 35  1  0
 35 36  1  0
 35 37  2  0
 37 38  1  0
 38 39  1  0
 39 40  2  0
 39 41  1  0
 41 42  1  0
 41 43  2  0
 43 44  1  0
 43 45  1  0
 45 46  2  0
 45 47  1  0
 47 48  1  0
 47 49  1  0
 47 50  1  0
 38  5  1  0
 37  8  1  0
M  CHG  2   2  -1  14   1
M  END
>  <UniqueID>  (31) 
31

>  <SMILES>  (31) 
CC(=O)/C=C\C(=O)n1c(C([NH-])=O)cc2ccc([NH2+]CCCN(C)C)cc21

>  <Energy>  (31) 
91.18730782542383

>  <Genealogy>  (31) 
CC(=O)/C=C\C(=O)n1c(C([NH-])=O)cc2ccc([NH2+]CCCN(C)C)cc21 (protonated)
CC(=O)/C=C\C(=O)n1c(C([NH-])=O)cc2ccc([NH2+]CCCN(C)C)cc21 (cis-trans isomerization)
CC(=O)/C=C\C(=O)n1c(C([NH-])=O)cc2ccc([NH2+]CCCN(C)C)cc21 (3D coordinates assigned)
CC(=O)/C=C\C(=O)n1c(C([NH-])=O)cc2ccc([NH2+]CCCN(C)C)cc21 (optimized conformer: 91.18730782542383 kcal/mol)

>  <smiles>  (31) 
CC(=O)/C=C\C(=O)n1c(C(N)=O)cc2ccc(NCCCN(C)C)cc21

>  <score_type>  (31) 
oracle

>  <origin>  (31) 
adg

>  <m_score__min__energy>  (31) 
-10.35

>  <m_primary>  (31) 
energy

$$$$
32:0
     RDKit          3D

 44 45  0  0  0  0  0  0  0  0999 V2000
   -3.5250   25.1360  -30.1360 N   0  0  0  0  0  0  0  0  0  0  0  0
   -4.8820   25.2640  -30.5550 C   0  0  0  0  0  0  0  0  0  0  0  0
   -5.3670   26.4140  -30.7290 O   0  0  0  0  0  0  0  0  0  0  0  0
   -5.7040   24.0710  -30.8450 C   0  0  0  0  0  0  0  0  0  0  0  0
   -7.0300   23.9390  -30.4370 C   0  0  0  0  0  0  0  0  0  0  0  0
   -7.4610   22.7500  -30.9790 C   0  0  0  0  0  0  0  0  0  0  0  0
   -8.6970   22.1210  -30.8840 C   0  0  0  0  0  0  0  0  0  0  0  0
   -8.8560   20.8790  -31.5210 C   0  0  0  0  0  0  0  0  0  0  0  0
   -7.7810   20.2860  -32.2370 C   0  0  0  0  0  0  0  0  0  0  0  0
   -7.9130   19.0050  -32.8840 N   0  0  0  0  0  0  0  0  0  0  0  0
   -7.2330   17.7820  -32.4560 C   0  0  0  0  0  0  0  0  0  0  0  0
   -5.7130   17.9270  -32.6290 C   0  0  0  0  0  0  0  0  0  0  0  0
   -5.2220   17.3960  -33.9840 C   0  0  0  0  0  0  0  0  0  0  0  0
   -4.0380   18.2030  -34.5370 C   0  0  0  0  0  0  0  0  0  0  0  0
   -3.8340   19.4200  -33.7360 N   0  0  0  0  0  0  0  0  0  0  0  0
   -2.6900   19.2780  -32.8250 C   0  0  0  0  0  0  0  0  0  0  0  0
   -1.4760   20.0200  -33.3850 C   0  0  0  0  0  0  0  0  0  0  0  0
   -1.8240   20.7330  -34.5420 O   0  0  0  0  0  0  0  0  0  0  0  0
   -6.5400   20.9580  -32.3040 C   0  0  0  0  0  0  0  0  0  0  0  0
   -6.4160   22.2030  -31.6760 C   0  0  0  0  0  0  0  0  0  0  0  0
   -5.3270   23.0010  -31.6020 N   0  0  0  0  0  0  0  0  0  0  0  0
   -4.0260   22.7170  -32.1410 C   0  0  0  0  0  0  0  0  0  0  0  0
   -2.9890   23.0280  -31.4990 O   0  0  0  0  0  0  0  0  0  0  0  0
   -3.9000   22.0700  -33.3630 O   0  0  0  0  0  0  0  0  0  0  0  0
   -2.7440   25.1560  -30.8300 H   0  0  0  0  0  0  0  0  0  0  0  0
   -7.6089   24.6369  -29.8142 H   0  0  0  0  0  0  0  0  0  0  0  0
   -9.5258   22.5820  -30.3267 H   0  0  0  0  0  0  0  0  0  0  0  0
   -9.8239   20.3594  -31.4649 H   0  0  0  0  0  0  0  0  0  0  0  0
   -8.5290   18.9350  -33.7270 H   0  0  0  0  0  0  0  0  0  0  0  0
   -7.4609   17.5920  -31.3968 H   0  0  0  0  0  0  0  0  0  0  0  0
   -7.5845   16.9427  -33.0741 H   0  0  0  0  0  0  0  0  0  0  0  0
   -5.4491   18.9920  -32.5508 H   0  0  0  0  0  0  0  0  0  0  0  0
   -5.2286   17.3314  -31.8412 H   0  0  0  0  0  0  0  0  0  0  0  0
   -4.9083   16.3490  -33.8600 H   0  0  0  0  0  0  0  0  0  0  0  0
   -6.0523   17.4869  -34.6998 H   0  0  0  0  0  0  0  0  0  0  0  0
   -3.1282   17.5860  -34.4985 H   0  0  0  0  0  0  0  0  0  0  0  0
   -4.2537   18.4898  -35.5768 H   0  0  0  0  0  0  0  0  0  0  0  0
   -3.6140   20.2020  -34.3970 H   0  0  0  0  0  0  0  0  0  0  0  0
   -2.9525   19.6990  -31.8432 H   0  0  0  0  0  0  0  0  0  0  0  0
   -2.4431   18.2111  -32.7213 H   0  0  0  0  0  0  0  0  0  0  0  0
   -1.1002   20.7226  -32.6266 H   0  0  0  0  0  0  0  0  0  0  0  0
   -0.6984   19.2854  -33.6414 H   0  0  0  0  0  0  0  0  0  0  0  0
   -2.6760   21.2010  -34.3420 H   0  0  0  0  0  0  0  0  0  0  0  0
   -5.6885   20.5120  -32.8388 H   0  0  0  0  0  0  0  0  0  0  0  0
  1  2  1  0
  2  3  2  0
  2  4  1  0
  4  5  2  0
  5  6  1  0
  6  7  2  0
  7  8  1  0
  8  9  2  0
  9 10  1  0
 10 11  1  0
 11 12  1  0
 12 13  1  0
 13 14  1  0
 14 15  1  0
 15 16  1  0
 16 17  1  0
 17 18  1  0
  9 19  1  0
 19 20  2  0
 20 21  1  0
 21 22  1  0
 22 23  2  0
 22 24  1  0
 21  4  1  0
 20  6  1  0
  1 25  1  0
  5 26  1  0
  7 27  1  0
  8 28  1  0
 10 29  1  0
 11 30  1  0
 11 31  1  0
 12 32  1  0
 12 33  1  0
 13 34  1  0
 13 35  1  0
 14 36  1  0
 14 37  1  0
 15 38  1  0
 16 39  1  0
 16 40  1  0
 17 41  1  0
 17 42  1  0
 18 43  1  0
 19 44  1  0
M  CHG  2   1  -1  24  -1
M  END
>  <UniqueID>  (32) 
32

>  <SMILES>  (32) 
[NH-]C(=O)c1cc2ccc(NCCCCNCCO)cc2n1C(=O)[O-]

>  <Energy>  (32) 
75.39303522473051

>  <Genealogy>  (32) 
[NH-]C(=O)c1cc2ccc(NCCCCNCCO)cc2n1C(=O)[O-] (protonated)
[NH-]C(=O)c1cc2ccc(NCCCCNCCO)cc2n1C(=O)[O-] (3D coordinates assigned)
[NH-]C(=O)c1cc2ccc(NCCCCNCCO)cc2n1C(=O)[O-] (optimized conformer: 75.39303522473051 kcal/mol)

>  <smiles>  (32) 
NC(=O)c1cc2ccc(NCCCCNCCO)cc2n1C(=O)O

>  <score_type>  (32) 
oracle

>  <origin>  (32) 
adg

>  <m_score__min__energy>  (32) 
-10.789999999999999

>  <m_primary>  (32) 
energy

$$$$
33:0
     RDKit          3D

 37 38  0  0  0  0  0  0  0  0999 V2000
   -6.9160   18.5830  -33.1530 C   0  0  0  0  0  0  0  0  0  0  0  0
   -7.0580   19.9720  -32.6040 C   0  0  0  0  0  0  0  0  0  0  0  0
   -8.3440   20.4880  -32.3080 C   0  0  0  0  0  0  0  0  0  0  0  0
   -8.4870   21.7680  -31.7480 C   0  0  0  0  0  0  0  0  0  0  0  0
   -7.3330   22.5020  -31.4910 C   0  0  0  0  0  0  0  0  0  0  0  0
   -7.1820   23.7480  -30.9270 C   0  0  0  0  0  0  0  0  0  0  0  0
   -5.8080   23.9760  -30.8940 C   0  0  0  0  0  0  0  0  0  0  0  0
   -5.2070   25.2470  -30.4380 C   0  0  0  0  0  0  0  0  0  0  0  0
   -3.8950   25.6260  -30.8460 N   0  0  0  0  0  0  0  0  0  0  0  0
   -5.8790   26.0310  -29.7180 O   0  0  0  0  0  0  0  0  0  0  0  0
   -5.1340   22.9080  -31.4090 N   0  0  0  0  0  0  0  0  0  0  0  0
   -3.7140   22.7120  -31.4790 C   0  0  0  0  0  0  0  0  0  0  0  0
   -2.9810   23.0680  -30.5160 O   0  0  0  0  0  0  0  0  0  0  0  0
   -3.1520   22.1060  -32.6080 O   0  0  0  0  0  0  0  0  0  0  0  0
   -2.0760   21.1760  -32.5310 C   0  0  0  0  0  0  0  0  0  0  0  0
   -0.8950   21.7650  -33.0640 O   0  0  0  0  0  0  0  0  0  0  0  0
   -0.3650   21.4010  -34.3040 C   0  0  0  0  0  0  0  0  0  0  0  0
   -0.7910   20.3790  -34.9080 O   0  0  0  0  0  0  0  0  0  0  0  0
    0.6660   22.2040  -34.8830 N   0  0  0  0  0  0  0  0  0  0  0  0
    0.4400   23.1460  -35.9730 C   0  0  0  0  0  0  0  0  0  0  0  0
    1.7410   23.6950  -36.4630 C   0  0  0  0  0  0  0  0  0  0  0  0
    2.8190   23.3520  -35.9120 O   0  0  0  0  0  0  0  0  0  0  0  0
    1.7680   24.5580  -37.5510 O   0  0  0  0  0  0  0  0  0  0  0  0
   -6.0810   22.0160  -31.7740 C   0  0  0  0  0  0  0  0  0  0  0  0
   -5.9080   20.7370  -32.3140 C   0  0  0  0  0  0  0  0  0  0  0  0
   -6.8427   17.8660  -32.3220 H   0  0  0  0  0  0  0  0  0  0  0  0
   -7.7941   18.3410  -33.7698 H   0  0  0  0  0  0  0  0  0  0  0  0
   -6.0071   18.5236  -33.7698 H   0  0  0  0  0  0  0  0  0  0  0  0
   -9.2372   19.8814  -32.5184 H   0  0  0  0  0  0  0  0  0  0  0  0
   -9.4817   22.1782  -31.5193 H   0  0  0  0  0  0  0  0  0  0  0  0
   -7.9778   24.4216  -30.5764 H   0  0  0  0  0  0  0  0  0  0  0  0
   -3.0500   25.2340  -30.3740 H   0  0  0  0  0  0  0  0  0  0  0  0
   -1.9051   20.9005  -31.4799 H   0  0  0  0  0  0  0  0  0  0  0  0
   -2.3290   20.2766  -33.1116 H   0  0  0  0  0  0  0  0  0  0  0  0
   -0.0699   22.6291  -36.7993 H   0  0  0  0  0  0  0  0  0  0  0  0
   -0.1824   23.9753  -35.6057 H   0  0  0  0  0  0  0  0  0  0  0  0
   -4.9014   20.3379  -32.5076 H   0  0  0  0  0  0  0  0  0  0  0  0
  1  2  1  0
  2  3  2  0
  3  4  1  0
  4  5  2  0
  5  6  1  0
  6  7  2  0
  7  8  1  0
  8  9  1  0
  8 10  2  0
  7 11  1  0
 11 12  1  0
 12 13  2  0
 12 14  1  0
 14 15  1  0
 15 16  1  0
 16 17  1  0
 17 18  2  0
 17 19  1  0
 19 20  1  0
 20 21  1  0
 21 22  2  0
 21 23  1  0
 11 24  1  0
 24 25  2  0
 25  2  1  0
 24  5  1  0
  1 26  1  0
  1 27  1  0
  1 28  1  0
  3 29  1  0
  4 30  1  0
  6 31  1  0
  9 32  1  0
 15 33  1  0
 15 34  1  0
 20 35  1  0
 20 36  1  0
 25 37  1  0
M  CHG  3   9  -1  19  -1  23  -1
M  END
>  <UniqueID>  (33) 
33

>  <SMILES>  (33) 
Cc1ccc2cc(C([NH-])=O)n(C(=O)OCOC(=O)[N-]CC(=O)[O-])c2c1

>  <Energy>  (33) 
69.46644341832435

>  <Genealogy>  (33) 
Cc1ccc2cc(C([NH-])=O)n(C(=O)OCOC(=O)[N-]CC(=O)[O-])c2c1 (protonated)
Cc1ccc2cc(C([NH-])=O)n(C(=O)OCOC(=O)[N-]CC(=O)[O-])c2c1 (3D coordinates assigned)
Cc1ccc2cc(C([NH-])=O)n(C(=O)OCOC(=O)[N-]CC(=O)[O-])c2c1 (optimized conformer: 69.46644341832435 kcal/mol)

>  <smiles>  (33) 
Cc1ccc2cc(C(N)=O)n(C(=O)OCOC(=O)NCC(=O)O)c2c1

>  <score_type>  (33) 
oracle

>  <origin>  (33) 
adg

>  <m_score__min__energy>  (33) 
-12.08

>  <m_primary>  (33) 
energy

$$$$
34:0
     RDKit          3D

 34 35  0  0  0  0  0  0  0  0999 V2000
   -4.3510   25.7140  -30.8340 N   0  0  0  0  0  0  0  0  0  0  0  0
   -5.6350   25.2810  -30.3900 C   0  0  0  0  0  0  0  0  0  0  0  0
   -6.3030   26.0180  -29.6170 O   0  0  0  0  0  0  0  0  0  0  0  0
   -6.1600   23.9690  -30.8210 C   0  0  0  0  0  0  0  0  0  0  0  0
   -7.4840   23.7410  -31.1900 C   0  0  0  0  0  0  0  0  0  0  0  0
   -7.5350   22.4160  -31.5650 C   0  0  0  0  0  0  0  0  0  0  0  0
   -8.6100   21.6440  -32.0000 C   0  0  0  0  0  0  0  0  0  0  0  0
   -8.3750   20.2890  -32.2850 C   0  0  0  0  0  0  0  0  0  0  0  0
   -7.0780   19.7330  -32.1350 C   0  0  0  0  0  0  0  0  0  0  0  0
   -6.8440   18.2680  -32.3990 C   0  0  0  0  0  0  0  0  0  0  0  0
   -5.3950   17.9920  -32.8200 C   0  0  0  0  0  0  0  0  0  0  0  0
   -5.1340   18.4030  -34.2400 C   0  0  0  0  0  0  0  0  0  0  0  0
   -6.0600   18.6820  -34.9840 O   0  0  0  0  0  0  0  0  0  0  0  0
   -6.0140   20.5460  -31.6870 C   0  0  0  0  0  0  0  0  0  0  0  0
   -6.2780   21.8920  -31.4190 C   0  0  0  0  0  0  0  0  0  0  0  0
   -5.4260   22.8310  -30.9610 N   0  0  0  0  0  0  0  0  0  0  0  0
   -4.0500   22.6210  -30.6220 C   0  0  0  0  0  0  0  0  0  0  0  0
   -3.3200   21.9200  -31.3750 O   0  0  0  0  0  0  0  0  0  0  0  0
   -3.5070   23.1250  -29.3210 C   0  0  0  0  0  0  0  0  0  0  0  0
   -2.2450   23.8870  -29.5630 C   0  0  0  0  0  0  0  0  0  0  0  0
   -1.2340   23.3040  -30.0360 O   0  0  0  0  0  0  0  0  0  0  0  0
   -2.1970   25.2530  -29.3130 O   0  0  0  0  0  0  0  0  0  0  0  0
   -3.5210   25.6700  -30.2020 H   0  0  0  0  0  0  0  0  0  0  0  0
   -8.3124   24.4647  -31.1834 H   0  0  0  0  0  0  0  0  0  0  0  0
   -9.6121   22.0823  -32.1167 H   0  0  0  0  0  0  0  0  0  0  0  0
   -9.2042   19.6526  -32.6278 H   0  0  0  0  0  0  0  0  0  0  0  0
   -7.0630   17.7011  -31.4821 H   0  0  0  0  0  0  0  0  0  0  0  0
   -7.5052   17.9578  -33.2216 H   0  0  0  0  0  0  0  0  0  0  0  0
   -4.7197   18.5537  -32.1579 H   0  0  0  0  0  0  0  0  0  0  0  0
   -5.2189   16.9090  -32.7419 H   0  0  0  0  0  0  0  0  0  0  0  0
   -4.1002   18.4530  -34.6126 H   0  0  0  0  0  0  0  0  0  0  0  0
   -5.0042   20.1310  -31.5525 H   0  0  0  0  0  0  0  0  0  0  0  0
   -4.2478   23.7857  -28.8471 H   0  0  0  0  0  0  0  0  0  0  0  0
   -3.2960   22.2718  -28.6595 H   0  0  0  0  0  0  0  0  0  0  0  0
  1  2  1  0
  2  3  2  0
  2  4  1  0
  4  5  2  0
  5  6  1  0
  6  7  2  0
  7  8  1  0
  8  9  2  0
  9 10  1  0
 10 11  1  0
 11 12  1  0
 12 13  2  0
  9 14  1  0
 14 15  2  0
 15 16  1  0
 16 17  1  0
 17 18  2  0
 17 19  1  0
 19 20  1  0
 20 21  2  0
 20 22  1  0
 16  4  1  0
 15  6  1  0
  1 23  1  0
  5 24  1  0
  7 25  1  0
  8 26  1  0
 10 27  1  0
 10 28  1  0
 11 29  1  0
 11 30  1  0
 12 31  1  0
 14 32  1  0
 19 33  1  0
 19 34  1  0
M  CHG  2   1  -1  22  -1
M  END
>  <UniqueID>  (34) 
34

>  <SMILES>  (34) 
[NH-]C(=O)c1cc2ccc(CCC=O)cc2n1C(=O)CC(=O)[O-]

>  <Energy>  (34) 
67.4260268675184

>  <Genealogy>  (34) 
[NH-]C(=O)c1cc2ccc(CCC=O)cc2n1C(=O)CC(=O)[O-] (protonated)
[NH-]C(=O)c1cc2ccc(CCC=O)cc2n1C(=O)CC(=O)[O-] (3D coordinates assigned)
[NH-]C(=O)c1cc2ccc(CCC=O)cc2n1C(=O)CC(=O)[O-] (optimized conformer: 67.4260268675184 kcal/mol)

>  <smiles>  (34) 
NC(=O)c1cc2ccc(CCC=O)cc2n1C(=O)CC(=O)O

>  <score_type>  (34) 
oracle

>  <origin>  (34) 
adg

>  <m_score__min__energy>  (34) 
-11.43

>  <m_primary>  (34) 
energy

$$$$
35:0
     RDKit          3D

 51 52  0  0  0  0  0  0  0  0999 V2000
   -6.4820   18.3060  -33.7380 C   0  0  0  0  0  0  0  0  0  0  0  0
   -6.7920   19.5810  -33.0100 C   0  0  0  0  0  0  0  0  0  0  0  0
   -8.1330   19.9100  -32.6790 C   0  0  0  0  0  0  0  0  0  0  0  0
   -8.4300   21.1120  -32.0110 C   0  0  0  0  0  0  0  0  0  0  0  0
   -7.3740   21.9660  -31.7050 C   0  0  0  0  0  0  0  0  0  0  0  0
   -7.3730   23.1830  -31.0570 C   0  0  0  0  0  0  0  0  0  0  0  0
   -6.0390   23.5890  -31.0380 C   0  0  0  0  0  0  0  0  0  0  0  0
   -5.5830   24.8770  -30.4740 C   0  0  0  0  0  0  0  0  0  0  0  0
   -5.7840   25.2010  -29.0980 N   0  0  0  0  0  0  0  0  0  0  0  0
   -4.9860   25.7010  -31.2160 O   0  0  0  0  0  0  0  0  0  0  0  0
   -5.2480   22.6510  -31.6300 N   0  0  0  0  0  0  0  0  0  0  0  0
   -3.8160   22.6600  -31.7590 C   0  0  0  0  0  0  0  0  0  0  0  0
   -3.2730   22.0310  -32.7050 O   0  0  0  0  0  0  0  0  0  0  0  0
   -2.9920   23.3730  -30.8320 N   0  0  0  0  0  0  0  0  0  0  0  0
   -2.7080   22.9360  -29.4650 C   0  0  2  0  0  0  0  0  0  0  0  0
   -2.9500   24.0800  -28.5160 C   0  0  0  0  0  0  0  0  0  0  0  0
   -3.9860   24.0880  -27.7920 O   0  0  0  0  0  0  0  0  0  0  0  0
   -2.0410   25.1480  -28.4920 O   0  0  0  0  0  0  0  0  0  0  0  0
   -1.3780   25.6740  -27.3310 C   0  0  0  0  0  0  0  0  0  0  0  0
   -0.1940   24.7420  -27.0190 C   0  0  0  0  0  0  0  0  0  0  0  0
   -0.8320   27.0920  -27.6010 C   0  0  0  0  0  0  0  0  0  0  0  0
   -2.3400   25.6820  -26.1250 C   0  0  0  0  0  0  0  0  0  0  0  0
   -1.2560   22.4150  -29.3790 C   0  0  2  0  0  0  0  0  0  0  0  0
   -0.9270   21.8470  -27.9900 C   0  0  0  0  0  0  0  0  0  0  0  0
   -0.3590   23.4460  -29.7020 O   0  0  0  0  0  0  0  0  0  0  0  0
   -6.0770   21.6710  -32.0420 C   0  0  0  0  0  0  0  0  0  0  0  0
   -5.7490   20.4780  -32.6930 C   0  0  0  0  0  0  0  0  0  0  0  0
   -6.2874   17.5056  -33.0090 H   0  0  0  0  0  0  0  0  0  0  0  0
   -7.3384   18.0267  -34.3693 H   0  0  0  0  0  0  0  0  0  0  0  0
   -5.5930   18.4511  -34.3693 H   0  0  0  0  0  0  0  0  0  0  0  0
   -8.9462   19.2195  -32.9470 H   0  0  0  0  0  0  0  0  0  0  0  0
   -9.4644   21.3690  -31.7390 H   0  0  0  0  0  0  0  0  0  0  0  0
   -8.2397   23.7193  -30.6432 H   0  0  0  0  0  0  0  0  0  0  0  0
   -6.0790   24.4760  -28.4080 H   0  0  0  0  0  0  0  0  0  0  0  0
   -5.5580   26.1610  -28.7500 H   0  0  0  0  0  0  0  0  0  0  0  0
   -3.3774   22.1108  -29.1806 H   0  0  0  0  0  0  0  0  0  0  0  0
   -0.0771   24.6500  -25.9291 H   0  0  0  0  0  0  0  0  0  0  0  0
   -0.3848   23.7492  -27.4524 H   0  0  0  0  0  0  0  0  0  0  0  0
    0.7263   25.1606  -27.4524 H   0  0  0  0  0  0  0  0  0  0  0  0
   -0.6371   27.5982  -26.6441 H   0  0  0  0  0  0  0  0  0  0  0  0
    0.1033   27.0215  -28.1757 H   0  0  0  0  0  0  0  0  0  0  0  0
   -1.5730   27.6670  -28.1757 H   0  0  0  0  0  0  0  0  0  0  0  0
   -1.7579   25.6772  -25.1916 H   0  0  0  0  0  0  0  0  0  0  0  0
   -2.9665   26.5854  -26.1617 H   0  0  0  0  0  0  0  0  0  0  0  0
   -2.9815   24.7892  -26.1617 H   0  0  0  0  0  0  0  0  0  0  0  0
   -1.1543   21.5933  -30.1032 H   0  0  0  0  0  0  0  0  0  0  0  0
   -1.3184   22.5228  -27.2154 H   0  0  0  0  0  0  0  0  0  0  0  0
   -1.3907   20.8556  -27.8800 H   0  0  0  0  0  0  0  0  0  0  0  0
    0.1637   21.7559  -27.8800 H   0  0  0  0  0  0  0  0  0  0  0  0
   -0.8980   24.1890  -30.0790 H   0  0  0  0  0  0  0  0  0  0  0  0
   -4.7056   20.2444  -32.9514 H   0  0  0  0  0  0  0  0  0  0  0  0
  1  2  1  0
  2  3  2  0
  3  4  1  0
  4  5  2  0
  5  6  1  0
  6  7  2  0
  7  8  1  0
  8  9  1  0
  8 10  2  0
  7 11  1  0
 11 12  1  0
 12 13  2  0
 12 14  1  0
 14 15  1  0
 15 16  1  0
 16 17  2  0
 16 18  1  0
 18 19  1  0
 19 20  1  0
 19 21  1  0
 19 22  1  0
 15 23  1  0
 23 24  1  0
 23 25  1  0
 11 26  1  0
 26 27  2  0
 27  2  1  0
 26  5  1  0
  1 28  1  0
  1 29  1  0
  1 30  1  0
  3 31  1  0
  4 32  1  0
  6 33  1  0
  9 34  1  0
  9 35  1  0
 15 36  1  1
 20 37  1  0
 20 38  1  0
 20 39  1  0
 21 40  1  0
 21 41  1  0
 21 42  1  0
 22 43  1  0
 22 44  1  0
 22 45  1  0
 23 46  1  6
 24 47  1  0
 24 48  1  0
 24 49  1  0
 25 50  1  0
 27 51  1  0
M  CHG  1  14  -1
M  END
>  <UniqueID>  (35) 
35

>  <SMILES>  (35) 
Cc1ccc2cc(C(N)=O)n(C(=O)[N-][C@H](C(=O)OC(C)(C)C)[C@H](C)O)c2c1

>  <Energy>  (35) 
80.82929402099782

>  <Genealogy>  (35) 
Cc1ccc2cc(C(N)=O)n(C(=O)[N-][C@H](C(=O)OC(C)(C)C)[C@H](C)O)c2c1 (protonated)
Cc1ccc2cc(C(N)=O)n(C(=O)[N-][C@H](C(=O)OC(C)(C)C)[C@H](C)O)c2c1 (3D coordinates assigned)
Cc1ccc2cc(C(N)=O)n(C(=O)[N-][C@H](C(=O)OC(C)(C)C)[C@H](C)O)c2c1 (optimized conformer: 80.82929402099782 kcal/mol)

>  <smiles>  (35) 
Cc1ccc2cc(C(N)=O)n(C(=O)N[C@H](C(=O)OC(C)(C)C)[C@H](C)O)c2c1

>  <score_type>  (35) 
oracle

>  <origin>  (35) 
adg

>  <m_score__min__energy>  (35) 
-10.35

>  <m_primary>  (35) 
energy

$$$$
36:0
     RDKit          3D

 46 47  0  0  0  0  0  0  0  0999 V2000
   -1.1190   20.4780  -32.8730 C   0  0  0  0  0  0  0  0  0  0  0  0
   -0.4920   20.7660  -31.6290 O   0  0  0  0  0  0  0  0  0  0  0  0
   -1.1590   21.3980  -30.5730 C   0  0  0  0  0  0  0  0  0  0  0  0
   -0.7150   22.4740  -30.0850 O   0  0  0  0  0  0  0  0  0  0  0  0
   -2.3840   20.7700  -29.9790 C   0  0  0  0  0  0  0  0  0  0  0  0
   -3.4160   21.7850  -29.7200 N   0  0  0  0  0  0  0  0  0  0  0  0
   -3.7840   22.0930  -28.3290 C   0  0  0  0  0  0  0  0  0  0  0  0
   -3.8220   23.6100  -28.0980 C   0  0  0  0  0  0  0  0  0  0  0  0
   -2.4280   24.2350  -28.2060 C   0  0  0  0  0  0  0  0  0  0  0  0
   -2.2720   24.8980  -29.4320 O   0  0  0  0  0  0  0  0  0  0  0  0
   -3.9380   22.5700  -30.8170 C   0  0  0  0  0  0  0  0  0  0  0  0
   -3.1490   23.1500  -31.6110 O   0  0  0  0  0  0  0  0  0  0  0  0
   -5.3510   22.7400  -31.0010 N   0  0  0  0  0  0  0  0  0  0  0  0
   -6.0930   23.8670  -30.8170 C   0  0  0  0  0  0  0  0  0  0  0  0
   -5.5560   25.1720  -30.3580 C   0  0  0  0  0  0  0  0  0  0  0  0
   -4.2130   25.5660  -30.6510 N   0  0  0  0  0  0  0  0  0  0  0  0
   -6.2910   25.9580  -29.7030 O   0  0  0  0  0  0  0  0  0  0  0  0
   -7.4390   23.6020  -31.0790 C   0  0  0  0  0  0  0  0  0  0  0  0
   -7.4910   22.2660  -31.4170 C   0  0  0  0  0  0  0  0  0  0  0  0
   -8.5770   21.4660  -31.7560 C   0  0  0  0  0  0  0  0  0  0  0  0
   -8.3320   20.1130  -32.0520 C   0  0  0  0  0  0  0  0  0  0  0  0
   -7.0120   19.5910  -32.0200 C   0  0  0  0  0  0  0  0  0  0  0  0
   -6.7630   18.1320  -32.3050 C   0  0  0  0  0  0  0  0  0  0  0  0
   -6.0080   17.5590  -31.2960 F   0  0  0  0  0  0  0  0  0  0  0  0
   -6.0770   17.9760  -33.4990 F   0  0  0  0  0  0  0  0  0  0  0  0
   -7.9740   17.4710  -32.3930 F   0  0  0  0  0  0  0  0  0  0  0  0
   -5.9410   20.4310  -31.6410 C   0  0  0  0  0  0  0  0  0  0  0  0
   -6.2180   21.7710  -31.3530 C   0  0  0  0  0  0  0  0  0  0  0  0
   -2.1048   20.0252  -32.6906 H   0  0  0  0  0  0  0  0  0  0  0  0
   -1.2434   21.4092  -33.4452 H   0  0  0  0  0  0  0  0  0  0  0  0
   -0.4937   19.7769  -33.4452 H   0  0  0  0  0  0  0  0  0  0  0  0
   -2.7819   20.0214  -30.6800 H   0  0  0  0  0  0  0  0  0  0  0  0
   -2.1101   20.2936  -29.0261 H   0  0  0  0  0  0  0  0  0  0  0  0
   -4.7775   21.6710  -28.1170 H   0  0  0  0  0  0  0  0  0  0  0  0
   -3.0302   21.6533  -27.6594 H   0  0  0  0  0  0  0  0  0  0  0  0
   -4.4778   24.0691  -28.8524 H   0  0  0  0  0  0  0  0  0  0  0  0
   -4.2016   23.7925  -27.0818 H   0  0  0  0  0  0  0  0  0  0  0  0
   -2.2918   24.9560  -27.3865 H   0  0  0  0  0  0  0  0  0  0  0  0
   -1.6769   23.4340  -28.1408 H   0  0  0  0  0  0  0  0  0  0  0  0
   -2.0080   24.2090  -30.0950 H   0  0  0  0  0  0  0  0  0  0  0  0
   -3.8670   26.5000  -30.3360 H   0  0  0  0  0  0  0  0  0  0  0  0
   -3.5540   24.9460  -31.1710 H   0  0  0  0  0  0  0  0  0  0  0  0
   -8.2798   24.3093  -31.0268 H   0  0  0  0  0  0  0  0  0  0  0  0
   -9.5960   21.8787  -31.7915 H   0  0  0  0  0  0  0  0  0  0  0  0
   -9.1722   19.4520  -32.3111 H   0  0  0  0  0  0  0  0  0  0  0  0
   -4.9148   20.0406  -31.5742 H   0  0  0  0  0  0  0  0  0  0  0  0
  1  2  1  0
  2  3  1  0
  3  4  2  0
  3  5  1  0
  5  6  1  0
  6  7  1  0
  7  8  1  0
  8  9  1  0
  9 10  1  0
  6 11  1  0
 11 12  2  0
 11 13  1  0
 13 14  1  0
 14 15  1  0
 15 16  1  0
 15 17  2  0
 14 18  2  0
 18 19  1  0
 19 20  2  0
 20 21  1  0
 21 22  2  0
 22 23  1  0
 23 24  1  0
 23 25  1  0
 23 26  1  0
 22 27  1  0
 27 28  2  0
 28 13  1  0
 28 19  1  0
  1 29  1  0
  1 30  1  0
  1 31  1  0
  5 32  1  0
  5 33  1  0
  7 34  1  0
  7 35  1  0
  8 36  1  0
  8 37  1  0
  9 38  1  0
  9 39  1  0
 10 40  1  0
 16 41  1  0
 16 42  1  0
 18 43  1  0
 20 44  1  0
 21 45  1  0
 27 46  1  0
M  END
>  <UniqueID>  (36) 
36

>  <SMILES>  (36) 
COC(=O)CN(CCCO)C(=O)n1c(C(N)=O)cc2ccc(C(F)(F)F)cc21

>  <Energy>  (36) 
75.82718745118345

>  <Genealogy>  (36) 
COC(=O)CN(CCCO)C(=O)n1c(C(N)=O)cc2ccc(C(F)(F)F)cc21 (3D coordinates assigned)
COC(=O)CN(CCCO)C(=O)n1c(C(N)=O)cc2ccc(C(F)(F)F)cc21 (optimized conformer: 75.82718745118345 kcal/mol)

>  <smiles>  (36) 
COC(=O)CN(CCCO)C(=O)n1c(C(N)=O)cc2ccc(C(F)(F)F)cc21

>  <score_type>  (36) 
oracle

>  <origin>  (36) 
adg

>  <m_score__min__energy>  (36) 
-7.7699999999999996

>  <m_primary>  (36) 
energy

$$$$
37:0
     RDKit          3D

 31 32  0  0  0  0  0  0  0  0999 V2000
   -4.1950   25.5970  -30.7720 N   0  0  0  0  0  0  0  0  0  0  0  0
   -5.5500   25.1960  -30.5590 C   0  0  0  0  0  0  0  0  0  0  0  0
   -6.3390   25.9890  -29.9820 O   0  0  0  0  0  0  0  0  0  0  0  0
   -6.0340   23.8830  -31.0400 C   0  0  0  0  0  0  0  0  0  0  0  0
   -7.3740   23.5910  -31.2870 C   0  0  0  0  0  0  0  0  0  0  0  0
   -7.4020   22.2560  -31.6180 C   0  0  0  0  0  0  0  0  0  0  0  0
   -8.4780   21.4430  -31.9580 C   0  0  0  0  0  0  0  0  0  0  0  0
   -8.2140   20.0990  -32.2750 C   0  0  0  0  0  0  0  0  0  0  0  0
   -6.8850   19.6010  -32.2720 C   0  0  0  0  0  0  0  0  0  0  0  0
   -6.6190   18.1490  -32.5780 C   0  0  0  0  0  0  0  0  0  0  0  0
   -6.0740   18.0090  -33.8430 F   0  0  0  0  0  0  0  0  0  0  0  0
   -7.7920   17.4160  -32.5300 F   0  0  0  0  0  0  0  0  0  0  0  0
   -5.7330   17.6420  -31.6460 F   0  0  0  0  0  0  0  0  0  0  0  0
   -5.8220   20.4550  -31.8970 C   0  0  0  0  0  0  0  0  0  0  0  0
   -6.1170   21.7840  -31.5680 C   0  0  0  0  0  0  0  0  0  0  0  0
   -5.2640   22.7710  -31.2120 N   0  0  0  0  0  0  0  0  0  0  0  0
   -3.8330   22.6790  -31.1220 C   0  0  0  0  0  0  0  0  0  0  0  0
   -3.1440   22.5180  -32.1660 O   0  0  0  0  0  0  0  0  0  0  0  0
   -3.2070   22.7780  -29.8730 O   0  0  0  0  0  0  0  0  0  0  0  0
   -1.7940   22.8540  -29.7080 C   0  0  0  0  0  0  0  0  0  0  0  0
   -1.3870   24.2430  -29.3350 C   0  0  0  0  0  0  0  0  0  0  0  0
   -0.2060   24.4770  -28.9650 O   0  0  0  0  0  0  0  0  0  0  0  0
   -2.3150   25.2760  -29.3700 O   0  0  0  0  0  0  0  0  0  0  0  0
   -3.8730   26.5410  -30.4630 H   0  0  0  0  0  0  0  0  0  0  0  0
   -3.4980   24.9470  -31.1970 H   0  0  0  0  0  0  0  0  0  0  0  0
   -8.2283   24.2816  -31.2295 H   0  0  0  0  0  0  0  0  0  0  0  0
   -9.5039   21.8393  -31.9783 H   0  0  0  0  0  0  0  0  0  0  0  0
   -9.0465   19.4261  -32.5281 H   0  0  0  0  0  0  0  0  0  0  0  0
   -4.7870   20.0839  -31.8645 H   0  0  0  0  0  0  0  0  0  0  0  0
   -1.4840   22.1597  -28.9131 H   0  0  0  0  0  0  0  0  0  0  0  0
   -1.3088   22.5827  -30.6572 H   0  0  0  0  0  0  0  0  0  0  0  0
  1  2  1  0
  2  3  2  0
  2  4  1  0
  4  5  2  0
  5  6  1  0
  6  7  2  0
  7  8  1  0
  8  9  2  0
  9 10  1  0
 10 11  1  0
 10 12  1  0
 10 13  1  0
  9 14  1  0
 14 15  2  0
 15 16  1  0
 16 17  1  0
 17 18  2  0
 17 19  1  0
 19 20  1  0
 20 21  1  0
 21 22  2  0
 21 23  1  0
 16  4  1  0
 15  6  1  0
  1 24  1  0
  1 25  1  0
  5 26  1  0
  7 27  1  0
  8 28  1  0
 14 29  1  0
 20 30  1  0
 20 31  1  0
M  CHG  1  23  -1
M  END
>  <UniqueID>  (37) 
37

>  <SMILES>  (37) 
NC(=O)c1cc2ccc(C(F)(F)F)cc2n1C(=O)OCC(=O)[O-]

>  <Energy>  (37) 
68.3757074791825

>  <Genealogy>  (37) 
NC(=O)c1cc2ccc(C(F)(F)F)cc2n1C(=O)OCC(=O)[O-] (protonated)
NC(=O)c1cc2ccc(C(F)(F)F)cc2n1C(=O)OCC(=O)[O-] (3D coordinates assigned)
NC(=O)c1cc2ccc(C(F)(F)F)cc2n1C(=O)OCC(=O)[O-] (optimized conformer: 68.3757074791825 kcal/mol)

>  <smiles>  (37) 
NC(=O)c1cc2ccc(C(F)(F)F)cc2n1C(=O)OCC(=O)O

>  <score_type>  (37) 
oracle

>  <origin>  (37) 
adg

>  <m_score__min__energy>  (37) 
-9.8599999999999994

>  <m_primary>  (37) 
energy

$$$$
38:0
     RDKit          3D

 40 41  0  0  0  0  0  0  0  0999 V2000
   -3.6730   24.8280  -30.4880 N   0  0  0  0  0  0  0  0  0  0  0  0
   -5.0550   24.9770  -30.8170 C   0  0  0  0  0  0  0  0  0  0  0  0
   -5.5560   26.1330  -30.8490 O   0  0  0  0  0  0  0  0  0  0  0  0
   -5.8820   23.7990  -31.1540 C   0  0  0  0  0  0  0  0  0  0  0  0
   -7.2670   23.8400  -31.2940 C   0  0  0  0  0  0  0  0  0  0  0  0
   -7.6510   22.5370  -31.5070 C   0  0  0  0  0  0  0  0  0  0  0  0
   -8.9190   22.0020  -31.7080 C   0  0  0  0  0  0  0  0  0  0  0  0
   -9.0250   20.6170  -31.9200 C   0  0  0  0  0  0  0  0  0  0  0  0
   -7.8680   19.7980  -31.9490 C   0  0  0  0  0  0  0  0  0  0  0  0
   -8.0050   18.3070  -32.1320 C   0  0  0  0  0  0  0  0  0  0  0  0
   -9.3270   17.9470  -31.9550 F   0  0  0  0  0  0  0  0  0  0  0  0
   -7.6030   17.9370  -33.4040 F   0  0  0  0  0  0  0  0  0  0  0  0
   -7.2240   17.6230  -31.2170 F   0  0  0  0  0  0  0  0  0  0  0  0
   -6.5980   20.3770  -31.7160 C   0  0  0  0  0  0  0  0  0  0  0  0
   -6.5230   21.7580  -31.4940 C   0  0  0  0  0  0  0  0  0  0  0  0
   -5.4270   22.5200  -31.2780 N   0  0  0  0  0  0  0  0  0  0  0  0
   -4.0580   22.0800  -31.2890 C   0  0  0  0  0  0  0  0  0  0  0  0
   -3.2280   22.6240  -32.0680 O   0  0  0  0  0  0  0  0  0  0  0  0
   -3.6480   21.0600  -30.4220 O   0  0  0  0  0  0  0  0  0  0  0  0
   -2.5440   21.1750  -29.5240 C   0  0  0  0  0  0  0  0  0  0  0  0
   -2.9470   21.9180  -28.2370 C   0  0  2  0  0  0  0  0  0  0  0  0
   -3.8480   22.9580  -28.5290 O   0  0  0  0  0  0  0  0  0  0  0  0
   -1.7450   22.4570  -27.4440 C   0  0  0  0  0  0  0  0  0  0  0  0
   -1.8180   23.8620  -27.3650 O   0  0  0  0  0  0  0  0  0  0  0  0
   -1.0710   24.5180  -28.7510 P   0  0  0  0  0  0  0  0  0  0  0  0
   -1.4520   23.7050  -29.9670 O   0  0  0  0  0  0  0  0  0  0  0  0
    0.6140   24.5230  -28.5850 O   0  0  0  0  0  0  0  0  0  0  0  0
   -1.6070   26.1080  -28.9600 O   0  0  0  0  0  0  0  0  0  0  0  0
   -3.0870   25.6690  -30.2890 H   0  0  0  0  0  0  0  0  0  0  0  0
   -3.2350   23.8840  -30.4030 H   0  0  0  0  0  0  0  0  0  0  0  0
   -7.9161   24.7267  -31.2446 H   0  0  0  0  0  0  0  0  0  0  0  0
   -9.8122   22.6440  -31.7012 H   0  0  0  0  0  0  0  0  0  0  0  0
  -10.0165   20.1632  -32.0651 H   0  0  0  0  0  0  0  0  0  0  0  0
   -5.6898   19.7564  -31.7094 H   0  0  0  0  0  0  0  0  0  0  0  0
   -2.1896   20.1675  -29.2605 H   0  0  0  0  0  0  0  0  0  0  0  0
   -1.7485   21.7485  -30.0223 H   0  0  0  0  0  0  0  0  0  0  0  0
   -3.4396   21.1755  -27.5919 H   0  0  0  0  0  0  0  0  0  0  0  0
   -3.3150   23.7490  -28.8030 H   0  0  0  0  0  0  0  0  0  0  0  0
   -1.7569   22.0328  -26.4291 H   0  0  0  0  0  0  0  0  0  0  0  0
   -0.8140   22.1693  -27.9544 H   0  0  0  0  0  0  0  0  0  0  0  0
  1  2  1  0
  2  3  2  0
  2  4  1  0
  4  5  2  0
  5  6  1  0
  6  7  2  0
  7  8  1  0
  8  9  2  0
  9 10  1  0
 10 11  1  0
 10 12  1  0
 10 13  1  0
  9 14  1  0
 14 15  2  0
 15 16  1  0
 16 17  1  0
 17 18  2  0
 17 19  1  0
 19 20  1  0
 20 21  1  0
 21 22  1  0
 21 23  1  0
 23 24  1  0
 24 25  1  0
 25 26  2  0
 25 27  1  0
 25 28  1  0
 16  4  1  0
 15  6  1  0
  1 29  1  0
  1 30  1  0
  5 31  1  0
  7 32  1  0
  8 33  1  0
 14 34  1  0
 20 35  1  0
 20 36  1  0
 21 37  1  1
 22 38  1  0
 23 39  1  0
 23 40  1  0
M  CHG  2  27  -1  28  -1
M  END
>  <UniqueID>  (38) 
38

>  <SMILES>  (38) 
NC(=O)c1cc2ccc(C(F)(F)F)cc2n1C(=O)OC[C@H](O)COP(=O)([O-])[O-]

>  <Energy>  (38) 
74.2981937513075

>  <Genealogy>  (38) 
NC(=O)c1cc2ccc(C(F)(F)F)cc2n1C(=O)OCC(O)COP(=O)([O-])[O-] (protonated)
NC(=O)c1cc2ccc(C(F)(F)F)cc2n1C(=O)OC[C@H](O)COP(=O)([O-])[O-] (chirality)
NC(=O)c1cc2ccc(C(F)(F)F)cc2n1C(=O)OC[C@H](O)COP(=O)([O-])[O-] (3D coordinates assigned)
NC(=O)c1cc2ccc(C(F)(F)F)cc2n1C(=O)OC[C@H](O)COP(=O)([O-])[O-] (optimized conformer: 74.2981937513075 kcal/mol)

>  <smiles>  (38) 
NC(=O)c1cc2ccc(C(F)(F)F)cc2n1C(=O)OCC(O)COP(=O)(O)O

>  <score_type>  (38) 
oracle

>  <origin>  (38) 
adg

>  <m_score__min__energy>  (38) 
-11.68

>  <m_primary>  (38) 
energy

$$$$
39:0
     RDKit          3D

 38 39  0  0  0  0  0  0  0  0999 V2000
   -1.7980   21.1870  -29.9920 C   0  0  0  0  0  0  0  0  0  0  0  0
   -2.7830   22.3550  -29.9780 C   0  0  1  0  0  0  0  0  0  0  0  0
   -2.0440   23.5810  -29.6690 N   0  0  0  0  0  0  0  0  0  0  0  0
   -2.3080   24.4940  -28.5940 C   0  0  0  0  0  0  0  0  0  0  0  0
   -1.9840   25.7030  -28.7360 O   0  0  0  0  0  0  0  0  0  0  0  0
   -2.9750   24.0690  -27.3180 C   0  0  0  0  0  0  0  0  0  0  0  0
   -4.2410   24.7730  -27.1510 N   0  0  0  0  0  0  0  0  0  0  0  0
   -3.4730   22.4590  -31.3200 C   0  0  0  0  0  0  0  0  0  0  0  0
   -2.8170   22.3120  -32.3860 O   0  0  0  0  0  0  0  0  0  0  0  0
   -4.9000   22.6050  -31.3920 N   0  0  0  0  0  0  0  0  0  0  0  0
   -5.6760   23.6000  -30.8800 C   0  0  0  0  0  0  0  0  0  0  0  0
   -5.1840   24.8550  -30.2800 C   0  0  0  0  0  0  0  0  0  0  0  0
   -4.0600   25.5230  -30.8470 N   0  0  0  0  0  0  0  0  0  0  0  0
   -5.7260   25.3260  -29.2460 O   0  0  0  0  0  0  0  0  0  0  0  0
   -7.0260   23.3090  -31.0660 C   0  0  0  0  0  0  0  0  0  0  0  0
   -7.0510   22.0980  -31.7180 C   0  0  0  0  0  0  0  0  0  0  0  0
   -8.1300   21.3330  -32.1520 C   0  0  0  0  0  0  0  0  0  0  0  0
   -7.8560   20.1070  -32.7840 C   0  0  0  0  0  0  0  0  0  0  0  0
   -6.5200   19.6570  -32.9480 C   0  0  0  0  0  0  0  0  0  0  0  0
   -6.2380   18.3600  -33.6630 C   0  0  0  0  0  0  0  0  0  0  0  0
   -6.0920   18.6080  -35.0150 F   0  0  0  0  0  0  0  0  0  0  0  0
   -7.2780   17.4650  -33.4780 F   0  0  0  0  0  0  0  0  0  0  0  0
   -5.0780   17.7790  -33.1820 F   0  0  0  0  0  0  0  0  0  0  0  0
   -5.4510   20.4760  -32.5140 C   0  0  0  0  0  0  0  0  0  0  0  0
   -5.7550   21.6950  -31.9020 C   0  0  0  0  0  0  0  0  0  0  0  0
   -1.5555   20.8995  -28.9583 H   0  0  0  0  0  0  0  0  0  0  0  0
   -2.2513   20.3313  -30.5139 H   0  0  0  0  0  0  0  0  0  0  0  0
   -0.8781   21.4894  -30.5139 H   0  0  0  0  0  0  0  0  0  0  0  0
   -3.5570   22.1970  -29.2126 H   0  0  0  0  0  0  0  0  0  0  0  0
   -3.1635   22.9857  -27.3502 H   0  0  0  0  0  0  0  0  0  0  0  0
   -2.3159   24.3114  -26.4713 H   0  0  0  0  0  0  0  0  0  0  0  0
   -4.2050   25.6370  -27.7380 H   0  0  0  0  0  0  0  0  0  0  0  0
   -5.0020   24.1750  -27.5490 H   0  0  0  0  0  0  0  0  0  0  0  0
   -3.0890   25.2950  -30.5400 H   0  0  0  0  0  0  0  0  0  0  0  0
   -7.8883   23.9181  -30.7571 H   0  0  0  0  0  0  0  0  0  0  0  0
   -9.1646   21.6767  -32.0052 H   0  0  0  0  0  0  0  0  0  0  0  0
   -8.6870   19.4895  -33.1557 H   0  0  0  0  0  0  0  0  0  0  0  0
   -4.4065   20.1610  -32.6548 H   0  0  0  0  0  0  0  0  0  0  0  0
  1  2  1  0
  2  3  1  0
  3  4  1  0
  4  5  2  0
  4  6  1  0
  6  7  1  0
  2  8  1  0
  8  9  2  0
  8 10  1  0
 10 11  1  0
 11 12  1  0
 12 13  1  0
 12 14  2  0
 11 15  2  0
 15 16  1  0
 16 17  2  0
 17 18  1  0
 18 19  2  0
 19 20  1  0
 20 21  1  0
 20 22  1  0
 20 23  1  0
 19 24  1  0
 24 25  2  0
 25 10  1  0
 25 16  1  0
  1 26  1  0
  1 27  1  0
  1 28  1  0
  2 29  1  1
  6 30  1  0
  6 31  1  0
  7 32  1  0
  7 33  1  0
 13 34  1  0
 15 35  1  0
 17 36  1  0
 18 37  1  0
 24 38  1  0
M  CHG  2   3  -1  13  -1
M  END
>  <UniqueID>  (39) 
39

>  <SMILES>  (39) 
C[C@@H]([N-]C(=O)CN)C(=O)n1c(C([NH-])=O)cc2ccc(C(F)(F)F)cc21

>  <Energy>  (39) 
73.29077617727035

>  <Genealogy>  (39) 
C[C@@H]([N-]C(=O)CN)C(=O)n1c(C([NH-])=O)cc2ccc(C(F)(F)F)cc21 (protonated)
C[C@@H]([N-]C(=O)CN)C(=O)n1c(C([NH-])=O)cc2ccc(C(F)(F)F)cc21 (3D coordinates assigned)
C[C@@H]([N-]C(=O)CN)C(=O)n1c(C([NH-])=O)cc2ccc(C(F)(F)F)cc21 (optimized conformer: 73.29077617727035 kcal/mol)

>  <smiles>  (39) 
C[C@@H](NC(=O)CN)C(=O)n1c(C(N)=O)cc2ccc(C(F)(F)F)cc21

>  <score_type>  (39) 
oracle

>  <origin>  (39) 
adg

>  <m_score__min__energy>  (39) 
-11.17

>  <m_primary>  (39) 
energy

$$$$
40:0
     RDKit          3D

 43 45  0  0  0  0  0  0  0  0999 V2000
   -6.1230   18.3400  -35.3460 N   0  0  0  0  0  0  0  0  0  0  0  0
   -4.7630   18.2500  -34.8660 C   0  0  0  0  0  0  0  0  0  0  0  0
   -4.0540   17.4080  -35.4590 O   0  0  0  0  0  0  0  0  0  0  0  0
   -4.3370   19.1070  -33.7790 C   0  0  0  0  0  0  0  0  0  0  0  0
   -3.1850   19.8820  -33.8510 C   0  0  0  0  0  0  0  0  0  0  0  0
   -3.0330   20.5870  -32.6830 C   0  0  0  0  0  0  0  0  0  0  0  0
   -2.0660   21.4790  -32.2700 C   0  0  0  0  0  0  0  0  0  0  0  0
   -2.1500   22.0580  -31.0240 C   0  0  0  0  0  0  0  0  0  0  0  0
   -3.2110   21.7260  -30.2120 C   0  0  0  0  0  0  0  0  0  0  0  0
   -3.3260   22.3380  -28.8540 C   0  0  0  0  0  0  0  0  0  0  0  0
   -2.6260   21.5080  -28.0000 F   0  0  0  0  0  0  0  0  0  0  0  0
   -2.7620   23.5820  -28.8940 F   0  0  0  0  0  0  0  0  0  0  0  0
   -4.6580   22.3680  -28.4970 F   0  0  0  0  0  0  0  0  0  0  0  0
   -4.1750   20.8220  -30.6510 C   0  0  0  0  0  0  0  0  0  0  0  0
   -4.1140   20.2270  -31.8970 C   0  0  0  0  0  0  0  0  0  0  0  0
   -4.8860   19.3370  -32.5740 N   0  0  0  0  0  0  0  0  0  0  0  0
   -6.0720   18.7680  -32.0540 C   0  0  0  0  0  0  0  0  0  0  0  0
   -6.0290   18.3850  -30.8330 O   0  0  0  0  0  0  0  0  0  0  0  0
   -7.2480   18.5820  -32.7020 O   0  0  0  0  0  0  0  0  0  0  0  0
   -8.3860   19.3780  -32.7130 C   0  0  0  0  0  0  0  0  0  0  0  0
   -8.2820   20.6140  -31.9780 N   0  0  0  0  0  0  0  0  0  0  0  0
   -8.9770   21.0780  -30.9330 C   0  0  0  0  0  0  0  0  0  0  0  0
   -8.5120   22.2940  -30.5890 N   0  0  0  0  0  0  0  0  0  0  0  0
   -7.4990   22.5960  -31.4430 C   0  0  0  0  0  0  0  0  0  0  0  0
   -6.7160   23.8280  -31.4220 C   0  0  0  0  0  0  0  0  0  0  0  0
   -5.7400   24.0520  -30.5590 C   0  0  0  0  0  0  0  0  0  0  0  0
   -5.0040   25.3250  -30.6130 C   0  0  0  0  0  0  0  0  0  0  0  0
   -5.6330   26.4080  -30.5180 O   0  0  0  0  0  0  0  0  0  0  0  0
   -3.6170   25.2870  -30.7680 O   0  0  0  0  0  0  0  0  0  0  0  0
   -7.3830   21.5650  -32.2670 N   0  0  0  0  0  0  0  0  0  0  0  0
   -6.3420   18.6060  -36.3300 H   0  0  0  0  0  0  0  0  0  0  0  0
   -6.8820   18.1200  -34.6430 H   0  0  0  0  0  0  0  0  0  0  0  0
   -2.5008   19.9238  -34.7113 H   0  0  0  0  0  0  0  0  0  0  0  0
   -1.2271   21.7280  -32.9365 H   0  0  0  0  0  0  0  0  0  0  0  0
   -1.3849   22.7715  -30.6840 H   0  0  0  0  0  0  0  0  0  0  0  0
   -5.0133   20.5731  -29.9836 H   0  0  0  0  0  0  0  0  0  0  0  0
   -8.6183   19.6239  -33.7597 H   0  0  0  0  0  0  0  0  0  0  0  0
   -9.1710   18.7922  -32.2124 H   0  0  0  0  0  0  0  0  0  0  0  0
   -9.8008   20.5481  -30.4324 H   0  0  0  0  0  0  0  0  0  0  0  0
   -6.9498   24.6086  -32.1609 H   0  0  0  0  0  0  0  0  0  0  0  0
   -5.4802   23.2928  -29.8066 H   0  0  0  0  0  0  0  0  0  0  0  0
   -3.1950   24.8260  -31.5890 H   0  0  0  0  0  0  0  0  0  0  0  0
   -6.6750   21.5100  -33.0460 H   0  0  0  0  0  0  0  0  0  0  0  0
  1  2  1  0
  2  3  2  0
  2  4  1  0
  4  5  2  0
  5  6  1  0
  6  7  2  0
  7  8  1  0
  8  9  2  0
  9 10  1  0
 10 11  1  0
 10 12  1  0
 10 13  1  0
  9 14  1  0
 14 15  2  0
 15 16  1  0
 16 17  1  0
 17 18  2  0
 17 19  1  0
 19 20  1  0
 20 21  1  0
 21 22  2  0
 22 23  1  0
 23 24  2  0
 24 25  1  0
 25 26  2  0
 26 27  1  0
 27 28  2  0
 27 29  1  0
 24 30  1  0
 16  4  1  0
 30 21  1  0
 15  6  1  0
  1 31  1  0
  1 32  1  0
  5 33  1  0
  7 34  1  0
  8 35  1  0
 14 36  1  0
 20 37  1  0
 20 38  1  0
 22 39  1  0
 25 40  1  0
 26 41  1  0
 29 42  1  0
 30 43  1  0
M  CHG  1  21   1
M  END
>  <smiles>  (40) 
NC(=O)c1cc2ccc(C(F)(F)F)cc2n1C(=O)OC[n+]1cnc(/C=C/C(=O)O)[nH]1

>  <score_type>  (40) 
oracle

>  <origin>  (40) 
adg

>  <m_score__min__energy>  (40) 
-8.2400000000000002

>  <m_primary>  (40) 
energy

$$$$
41:0
     RDKit          3D

 41 42  0  0  0  0  0  0  0  0999 V2000
   -6.8210   18.3140  -32.2800 C   0  0  0  0  0  0  0  0  0  0  0  0
   -7.0090   19.7620  -31.9390 C   0  0  0  0  0  0  0  0  0  0  0  0
   -8.2980   20.3470  -32.0160 C   0  0  0  0  0  0  0  0  0  0  0  0
   -8.4800   21.7150  -31.7450 C   0  0  0  0  0  0  0  0  0  0  0  0
   -7.3600   22.4680  -31.4070 C   0  0  0  0  0  0  0  0  0  0  0  0
   -7.2420   23.8110  -31.1250 C   0  0  0  0  0  0  0  0  0  0  0  0
   -5.8840   24.0200  -30.8830 C   0  0  0  0  0  0  0  0  0  0  0  0
   -5.3090   25.3220  -30.4880 C   0  0  0  0  0  0  0  0  0  0  0  0
   -3.9660   25.6630  -30.8230 N   0  0  0  0  0  0  0  0  0  0  0  0
   -6.0030   26.1340  -29.8190 O   0  0  0  0  0  0  0  0  0  0  0  0
   -5.1950   22.8530  -31.0140 N   0  0  0  0  0  0  0  0  0  0  0  0
   -3.7780   22.6500  -30.9370 C   0  0  0  0  0  0  0  0  0  0  0  0
   -3.0550   22.9040  -31.9370 O   0  0  0  0  0  0  0  0  0  0  0  0
   -3.1410   22.2620  -29.6370 C   0  0  0  0  0  0  0  0  0  0  0  0
   -1.6500   22.6010  -29.6620 C   0  0  0  0  0  0  0  0  0  0  0  0
   -1.3050   24.0420  -28.6610 S   0  0  0  0  0  0  0  0  0  0  0  0
   -1.8790   25.2540  -29.3410 O   0  0  0  0  0  0  0  0  0  0  0  0
    0.1850   24.2090  -28.5320 O   0  0  0  0  0  0  0  0  0  0  0  0
   -2.0310   23.8680  -27.0820 N   0  0  0  0  0  0  0  0  0  0  0  0
   -1.2020   24.5450  -26.0760 C   0  0  0  0  0  0  0  0  0  0  0  0
   -3.3750   24.4600  -27.1010 C   0  0  0  0  0  0  0  0  0  0  0  0
   -6.1090   21.9140  -31.3330 C   0  0  0  0  0  0  0  0  0  0  0  0
   -5.8930   20.5610  -31.6080 C   0  0  0  0  0  0  0  0  0  0  0  0
   -6.7447   17.7260  -31.3535 H   0  0  0  0  0  0  0  0  0  0  0  0
   -7.6809   17.9612  -32.8683 H   0  0  0  0  0  0  0  0  0  0  0  0
   -5.8995   18.1925  -32.8683 H   0  0  0  0  0  0  0  0  0  0  0  0
   -9.1633   19.7256  -32.2901 H   0  0  0  0  0  0  0  0  0  0  0  0
   -9.4775   22.1756  -31.7986 H   0  0  0  0  0  0  0  0  0  0  0  0
   -8.0474   24.5597  -31.0966 H   0  0  0  0  0  0  0  0  0  0  0  0
   -3.2420   24.9250  -30.9600 H   0  0  0  0  0  0  0  0  0  0  0  0
   -3.6254   22.8110  -28.8161 H   0  0  0  0  0  0  0  0  0  0  0  0
   -3.2621   21.1793  -29.4851 H   0  0  0  0  0  0  0  0  0  0  0  0
   -1.0798   21.7457  -29.2703 H   0  0  0  0  0  0  0  0  0  0  0  0
   -1.3564   22.8163  -30.7000 H   0  0  0  0  0  0  0  0  0  0  0  0
   -1.5452   24.2647  -25.0692 H   0  0  0  0  0  0  0  0  0  0  0  0
   -0.1519   24.2430  -26.2027 H   0  0  0  0  0  0  0  0  0  0  0  0
   -1.2881   25.6343  -26.2027 H   0  0  0  0  0  0  0  0  0  0  0  0
   -3.7228   24.6132  -26.0687 H   0  0  0  0  0  0  0  0  0  0  0  0
   -3.3423   25.4270  -27.6242 H   0  0  0  0  0  0  0  0  0  0  0  0
   -4.0664   23.7831  -27.6242 H   0  0  0  0  0  0  0  0  0  0  0  0
   -4.8816   20.1304  -31.5677 H   0  0  0  0  0  0  0  0  0  0  0  0
  1  2  1  0
  2  3  2  0
  3  4  1  0
  4  5  2  0
  5  6  1  0
  6  7  2  0
  7  8  1  0
  8  9  1  0
  8 10  2  0
  7 11  1  0
 11 12  1  0
 12 13  2  0
 12 14  1  0
 14 15  1  0
 15 16  1  0
 16 17  2  0
 16 18  2  0
 16 19  1  0
 19 20  1  0
 19 21  1  0
 11 22  1  0
 22 23  2  0
 23  2  1  0
 22  5  1  0
  1 24  1  0
  1 25  1  0
  1 26  1  0
  3 27  1  0
  4 28  1  0
  6 29  1  0
  9 30  1  0
 14 31  1  0
 14 32  1  0
 15 33  1  0
 15 34  1  0
 20 35  1  0
 20 36  1  0
 20 37  1  0
 21 38  1  0
 21 39  1  0
 21 40  1  0
 23 41  1  0
M  CHG  1   9  -1
M  END
>  <UniqueID>  (41) 
40

>  <SMILES>  (41) 
Cc1ccc2cc(C([NH-])=O)n(C(=O)CCS(=O)(=O)N(C)C)c2c1

>  <Energy>  (41) 
70.09037984005033

>  <Genealogy>  (41) 
Cc1ccc2cc(C([NH-])=O)n(C(=O)CCS(=O)(=O)N(C)C)c2c1 (protonated)
Cc1ccc2cc(C([NH-])=O)n(C(=O)CCS(=O)(=O)N(C)C)c2c1 (3D coordinates assigned)
Cc1ccc2cc(C([NH-])=O)n(C(=O)CCS(=O)(=O)N(C)C)c2c1 (optimized conformer: 70.09037984005033 kcal/mol)

>  <smiles>  (41) 
Cc1ccc2cc(C(N)=O)n(C(=O)CCS(=O)(=O)N(C)C)c2c1

>  <score_type>  (41) 
oracle

>  <origin>  (41) 
adg

>  <m_score__min__energy>  (41) 
-11.06

>  <m_primary>  (41) 
energy

$$$$
42:0
     RDKit          3D

 54 55  0  0  0  0  0  0  0  0999 V2000
   -8.1920   18.2860  -32.7480 C   0  0  0  0  0  0  0  0  0  0  0  0
   -7.9990   19.6230  -32.0970 C   0  0  0  0  0  0  0  0  0  0  0  0
   -9.1080   20.3090  -31.5440 C   0  0  0  0  0  0  0  0  0  0  0  0
   -8.9360   21.5510  -30.9110 C   0  0  0  0  0  0  0  0  0  0  0  0
   -7.6470   22.0700  -30.8310 C   0  0  0  0  0  0  0  0  0  0  0  0
   -7.2050   23.2610  -30.3030 C   0  0  0  0  0  0  0  0  0  0  0  0
   -5.8260   23.2690  -30.5130 C   0  0  0  0  0  0  0  0  0  0  0  0
   -4.9190   24.3480  -30.0560 C   0  0  0  0  0  0  0  0  0  0  0  0
   -4.7260   24.6030  -28.6640 N   0  0  0  0  0  0  0  0  0  0  0  0
   -4.2890   25.0420  -30.8990 O   0  0  0  0  0  0  0  0  0  0  0  0
   -5.4330   22.1240  -31.1370 N   0  0  0  0  0  0  0  0  0  0  0  0
   -4.1110   21.8010  -31.6030 C   0  0  0  0  0  0  0  0  0  0  0  0
   -3.4450   22.6630  -32.2370 O   0  0  0  0  0  0  0  0  0  0  0  0
   -3.5150   20.4830  -31.3450 C   0  0  0  0  0  0  0  0  0  0  0  0
   -3.7580   19.5190  -32.1220 O   0  0  0  0  0  0  0  0  0  0  0  0
   -2.7000   20.3010  -30.2200 O   0  0  0  0  0  0  0  0  0  0  0  0
   -1.3250   20.6790  -30.1920 C   0  0  0  0  0  0  0  0  0  0  0  0
   -1.1830   22.2010  -30.2980 C   0  0  0  0  0  0  0  0  0  0  0  0
   -1.6060   22.8460  -29.0490 N   0  0  0  0  0  0  0  0  0  0  0  0
   -2.6180   22.1970  -28.2100 C   0  0  0  0  0  0  0  0  0  0  0  0
   -1.0990   24.1400  -28.6680 C   0  0  0  0  0  0  0  0  0  0  0  0
    0.0850   24.4540  -28.9710 O   0  0  0  0  0  0  0  0  0  0  0  0
   -1.9210   25.0450  -27.9760 O   0  0  0  0  0  0  0  0  0  0  0  0
   -1.8920   25.2950  -26.5600 C   0  0  0  0  0  0  0  0  0  0  0  0
   -1.2690   26.6820  -26.3480 C   0  0  0  0  0  0  0  0  0  0  0  0
   -1.0170   24.2490  -25.8410 C   0  0  0  0  0  0  0  0  0  0  0  0
   -3.3200   25.3000  -25.9820 C   0  0  0  0  0  0  0  0  0  0  0  0
   -6.5600   21.4020  -31.3310 C   0  0  0  0  0  0  0  0  0  0  0  0
   -6.7040   20.1710  -31.9810 C   0  0  0  0  0  0  0  0  0  0  0  0
   -8.3035   17.5135  -31.9729 H   0  0  0  0  0  0  0  0  0  0  0  0
   -9.0960   18.3102  -33.3743 H   0  0  0  0  0  0  0  0  0  0  0  0
   -7.3181   18.0536  -33.3743 H   0  0  0  0  0  0  0  0  0  0  0  0
  -10.1123   19.8654  -31.6108 H   0  0  0  0  0  0  0  0  0  0  0  0
   -9.7938   22.0969  -30.4913 H   0  0  0  0  0  0  0  0  0  0  0  0
   -7.8103   24.0411  -29.8183 H   0  0  0  0  0  0  0  0  0  0  0  0
   -5.2750   24.0990  -27.9350 H   0  0  0  0  0  0  0  0  0  0  0  0
   -4.0540   25.3430  -28.3570 H   0  0  0  0  0  0  0  0  0  0  0  0
   -0.8755   20.3387  -29.2475 H   0  0  0  0  0  0  0  0  0  0  0  0
   -0.8114   20.2141  -31.0465 H   0  0  0  0  0  0  0  0  0  0  0  0
   -0.1310   22.4532  -30.4972 H   0  0  0  0  0  0  0  0  0  0  0  0
   -1.8217   22.5612  -31.1180 H   0  0  0  0  0  0  0  0  0  0  0  0
   -2.3715   22.3551  -27.1497 H   0  0  0  0  0  0  0  0  0  0  0  0
   -3.6058   22.6305  -28.4254 H   0  0  0  0  0  0  0  0  0  0  0  0
   -2.6361   21.1184  -28.4254 H   0  0  0  0  0  0  0  0  0  0  0  0
   -1.1789   26.8826  -25.2702 H   0  0  0  0  0  0  0  0  0  0  0  0
   -0.2716   26.7106  -26.8109 H   0  0  0  0  0  0  0  0  0  0  0  0
   -1.9102   27.4466  -26.8109 H   0  0  0  0  0  0  0  0  0  0  0  0
   -1.1192   24.3712  -24.7526 H   0  0  0  0  0  0  0  0  0  0  0  0
   -1.3426   23.2385  -26.1287 H   0  0  0  0  0  0  0  0  0  0  0  0
    0.0352   24.3910  -26.1287 H   0  0  0  0  0  0  0  0  0  0  0  0
   -3.2708   25.2998  -24.8831 H   0  0  0  0  0  0  0  0  0  0  0  0
   -3.8513   26.2000  -26.3251 H   0  0  0  0  0  0  0  0  0  0  0  0
   -3.8576   24.4037  -26.3251 H   0  0  0  0  0  0  0  0  0  0  0  0
   -5.8298   19.6441  -32.3910 H   0  0  0  0  0  0  0  0  0  0  0  0
  1  2  1  0
  2  3  2  0
  3  4  1  0
  4  5  2  0
  5  6  1  0
  6  7  2  0
  7  8  1  0
  8  9  1  0
  8 10  2  0
  7 11  1  0
 11 12  1  0
 12 13  2  0
 12 14  1  0
 14 15  2  0
 14 16  1  0
 16 17  1  0
 17 18  1  0
 18 19  1  0
 19 20  1  0
 19 21  1  0
 21 22  2  0
 21 23  1  0
 23 24  1  0
 24 25  1  0
 24 26  1  0
 24 27  1  0
 11 28  1  0
 28 29  2  0
 29  2  1  0
 28  5  1  0
  1 30  1  0
  1 31  1  0
  1 32  1  0
  3 33  1  0
  4 34  1  0
  6 35  1  0
  9 36  1  0
  9 37  1  0
 17 38  1  0
 17 39  1  0
 18 40  1  0
 18 41  1  0
 20 42  1  0
 20 43  1  0
 20 44  1  0
 25 45  1  0
 25 46  1  0
 25 47  1  0
 26 48  1  0
 26 49  1  0
 26 50  1  0
 27 51  1  0
 27 52  1  0
 27 53  1  0
 29 54  1  0
M  END
>  <UniqueID>  (42) 
41

>  <SMILES>  (42) 
Cc1ccc2cc(C(N)=O)n(C(=O)C(=O)OCCN(C)C(=O)OC(C)(C)C)c2c1

>  <Energy>  (42) 
78.59384441517983

>  <Genealogy>  (42) 
Cc1ccc2cc(C(N)=O)n(C(=O)C(=O)OCCN(C)C(=O)OC(C)(C)C)c2c1 (3D coordinates assigned)
Cc1ccc2cc(C(N)=O)n(C(=O)C(=O)OCCN(C)C(=O)OC(C)(C)C)c2c1 (optimized conformer: 78.59384441517983 kcal/mol)

>  <smiles>  (42) 
Cc1ccc2cc(C(N)=O)n(C(=O)C(=O)OCCN(C)C(=O)OC(C)(C)C)c2c1

>  <score_type>  (42) 
oracle

>  <origin>  (42) 
adg

>  <m_score__min__energy>  (42) 
-8.9600000000000009

>  <m_primary>  (42) 
energy

$$$$
43:0
     RDKit          3D

 42 43  0  0  0  0  0  0  0  0999 V2000
   -7.2860   18.4880  -32.9870 C   0  0  0  0  0  0  0  0  0  0  0  0
   -7.3690   19.9040  -32.5010 C   0  0  0  0  0  0  0  0  0  0  0  0
   -8.6320   20.5340  -32.3740 C   0  0  0  0  0  0  0  0  0  0  0  0
   -8.7300   21.8500  -31.8880 C   0  0  0  0  0  0  0  0  0  0  0  0
   -7.5550   22.5000  -31.5210 C   0  0  0  0  0  0  0  0  0  0  0  0
   -7.3600   23.7730  -31.0380 C   0  0  0  0  0  0  0  0  0  0  0  0
   -5.9850   23.8880  -30.8450 C   0  0  0  0  0  0  0  0  0  0  0  0
   -5.3430   25.0780  -30.2470 C   0  0  0  0  0  0  0  0  0  0  0  0
   -4.1630   25.6220  -30.8380 N   0  0  0  0  0  0  0  0  0  0  0  0
   -5.8430   25.6430  -29.2380 O   0  0  0  0  0  0  0  0  0  0  0  0
   -5.3530   22.7340  -31.2040 N   0  0  0  0  0  0  0  0  0  0  0  0
   -3.9420   22.4660  -31.2020 C   0  0  0  0  0  0  0  0  0  0  0  0
   -3.1240   23.4100  -31.3740 O   0  0  0  0  0  0  0  0  0  0  0  0
   -3.4660   21.1350  -30.9730 N   0  0  0  0  0  0  0  0  0  0  0  0
   -2.4990   20.4660  -31.8350 C   0  0  0  0  0  0  0  0  0  0  0  0
   -1.1390   20.5330  -31.2200 C   0  0  0  0  0  0  0  0  0  0  0  0
   -0.2040   21.1240  -31.8240 O   0  0  0  0  0  0  0  0  0  0  0  0
   -0.8960   19.8760  -29.9740 N   0  0  0  0  0  0  0  0  0  0  0  0
   -1.0270   20.6840  -28.4500 S   0  0  0  0  0  0  0  0  0  0  0  0
   -2.4650   20.7190  -28.0170 O   0  0  0  0  0  0  0  0  0  0  0  0
   -0.2290   19.9230  -27.4270 O   0  0  0  0  0  0  0  0  0  0  0  0
   -0.3780   22.3400  -28.6020 C   0  0  0  0  0  0  0  0  0  0  0  0
   -1.5090   23.3700  -28.6410 C   0  0  0  0  0  0  0  0  0  0  0  0
   -0.9490   24.7530  -28.7360 C   0  0  0  0  0  0  0  0  0  0  0  0
   -1.6110   25.6690  -29.2910 O   0  0  0  0  0  0  0  0  0  0  0  0
    0.2880   25.0430  -28.1740 O   0  0  0  0  0  0  0  0  0  0  0  0
   -6.3290   21.8930  -31.6110 C   0  0  0  0  0  0  0  0  0  0  0  0
   -6.2000   20.5900  -32.1050 C   0  0  0  0  0  0  0  0  0  0  0  0
   -7.2460   17.8061  -32.1247 H   0  0  0  0  0  0  0  0  0  0  0  0
   -8.1721   18.2570  -33.5964 H   0  0  0  0  0  0  0  0  0  0  0  0
   -6.3789   18.3621  -33.5964 H   0  0  0  0  0  0  0  0  0  0  0  0
   -9.5441   19.9887  -32.6582 H   0  0  0  0  0  0  0  0  0  0  0  0
   -9.7056   22.3506  -31.8005 H   0  0  0  0  0  0  0  0  0  0  0  0
   -8.1267   24.5378  -30.8451 H   0  0  0  0  0  0  0  0  0  0  0  0
   -3.2170   25.3080  -30.5290 H   0  0  0  0  0  0  0  0  0  0  0  0
   -2.7906   19.4130  -31.9620 H   0  0  0  0  0  0  0  0  0  0  0  0
   -2.4791   20.9666  -32.8143 H   0  0  0  0  0  0  0  0  0  0  0  0
    0.2723   22.5521  -27.7406 H   0  0  0  0  0  0  0  0  0  0  0  0
    0.1916   22.4088  -29.5405 H   0  0  0  0  0  0  0  0  0  0  0  0
   -2.1465   23.1758  -29.5162 H   0  0  0  0  0  0  0  0  0  0  0  0
   -2.1007   23.2865  -27.7175 H   0  0  0  0  0  0  0  0  0  0  0  0
   -5.2123   20.1120  -32.1829 H   0  0  0  0  0  0  0  0  0  0  0  0
  1  2  1  0
  2  3  2  0
  3  4  1  0
  4  5  2  0
  5  6  1  0
  6  7  2  0
  7  8  1  0
  8  9  1  0
  8 10  2  0
  7 11  1  0
 11 12  1  0
 12 13  2  0
 12 14  1  0
 14 15  1  0
 15 16  1  0
 16 17  2  0
 16 18  1  0
 18 19  1  0
 19 20  2  0
 19 21  2  0
 19 22  1  0
 22 23  1  0
 23 24  1  0
 24 25  2  0
 24 26  1  0
 11 27  1  0
 27 28  2  0
 28  2  1  0
 27  5  1  0
  1 29  1  0
  1 30  1  0
  1 31  1  0
  3 32  1  0
  4 33  1  0
  6 34  1  0
  9 35  1  0
 15 36  1  0
 15 37  1  0
 22 38  1  0
 22 39  1  0
 23 40  1  0
 23 41  1  0
 28 42  1  0
M  CHG  4   9  -1  14  -1  18  -1  26  -1
M  END
>  <UniqueID>  (43) 
42

>  <SMILES>  (43) 
Cc1ccc2cc(C([NH-])=O)n(C(=O)[N-]CC(=O)[N-]S(=O)(=O)CCC(=O)[O-])c2c1

>  <Energy>  (43) 
70.76997693066149

>  <Genealogy>  (43) 
Cc1ccc2cc(C([NH-])=O)n(C(=O)[N-]CC(=O)[N-]S(=O)(=O)CCC(=O)[O-])c2c1 (protonated)
Cc1ccc2cc(C([NH-])=O)n(C(=O)[N-]CC(=O)[N-]S(=O)(=O)CCC(=O)[O-])c2c1 (3D coordinates assigned)
Cc1ccc2cc(C([NH-])=O)n(C(=O)[N-]CC(=O)[N-]S(=O)(=O)CCC(=O)[O-])c2c1 (optimized conformer: 70.76997693066149 kcal/mol)

>  <smiles>  (43) 
Cc1ccc2cc(C(N)=O)n(C(=O)NCC(=O)NS(=O)(=O)CCC(=O)O)c2c1

>  <score_type>  (43) 
oracle

>  <origin>  (43) 
adg

>  <m_score__min__energy>  (43) 
-13.34

>  <m_primary>  (43) 
energy

$$$$
44:0
     RDKit          3D

 31 32  0  0  0  0  0  0  0  0999 V2000
   -1.4840   25.6530  -28.9510 N   0  0  0  0  0  0  0  0  0  0  0  0
   -0.8200   24.3950  -29.0400 C   0  0  0  0  0  0  0  0  0  0  0  0
    0.3330   24.2700  -28.5480 O   0  0  0  0  0  0  0  0  0  0  0  0
   -1.4480   23.2520  -29.7360 C   0  0  0  0  0  0  0  0  0  0  0  0
   -0.7730   22.4230  -30.6320 C   0  0  0  0  0  0  0  0  0  0  0  0
   -1.7240   21.5470  -31.1070 C   0  0  0  0  0  0  0  0  0  0  0  0
   -1.6060   20.5000  -32.0170 C   0  0  0  0  0  0  0  0  0  0  0  0
   -2.7590   19.7470  -32.3040 C   0  0  0  0  0  0  0  0  0  0  0  0
   -3.9900   20.0520  -31.6780 C   0  0  0  0  0  0  0  0  0  0  0  0
   -5.1590   19.2680  -31.9710 C   0  0  0  0  0  0  0  0  0  0  0  0
   -6.1400   18.6100  -32.2170 C   0  0  0  0  0  0  0  0  0  0  0  0
   -7.3060   17.8280  -32.5100 C   0  0  0  0  0  0  0  0  0  0  0  0
   -8.4130   18.1290  -31.9920 O   0  0  0  0  0  0  0  0  0  0  0  0
   -7.2140   16.7380  -33.3650 O   0  0  0  0  0  0  0  0  0  0  0  0
   -4.0750   21.1200  -30.7620 C   0  0  0  0  0  0  0  0  0  0  0  0
   -2.9150   21.8580  -30.5040 C   0  0  0  0  0  0  0  0  0  0  0  0
   -2.7610   22.8960  -29.6580 N   0  0  0  0  0  0  0  0  0  0  0  0
   -3.7740   23.4350  -28.7970 C   0  0  0  0  0  0  0  0  0  0  0  0
   -3.4520   23.9090  -27.6750 O   0  0  0  0  0  0  0  0  0  0  0  0
   -5.1900   23.5470  -29.2700 C   0  0  0  0  0  0  0  0  0  0  0  0
   -5.2880   24.7150  -30.6580 P   0  0  0  0  0  0  0  0  0  0  0  0
   -5.4150   23.9460  -31.9520 O   0  0  0  0  0  0  0  0  0  0  0  0
   -3.8870   25.6610  -30.7050 O   0  0  0  0  0  0  0  0  0  0  0  0
   -6.6370   25.7160  -30.4660 O   0  0  0  0  0  0  0  0  0  0  0  0
   -2.5240   25.7170  -29.0170 H   0  0  0  0  0  0  0  0  0  0  0  0
    0.2927   22.4608  -30.9020 H   0  0  0  0  0  0  0  0  0  0  0  0
   -0.6429   20.2692  -32.4958 H   0  0  0  0  0  0  0  0  0  0  0  0
   -2.7028   18.9145  -33.0208 H   0  0  0  0  0  0  0  0  0  0  0  0
   -5.0250   21.3657  -30.2650 H   0  0  0  0  0  0  0  0  0  0  0  0
   -5.5438   22.5588  -29.5992 H   0  0  0  0  0  0  0  0  0  0  0  0
   -5.8196   23.9115  -28.4449 H   0  0  0  0  0  0  0  0  0  0  0  0
  1  2  1  0
  2  3  2  0
  2  4  1  0
  4  5  2  0
  5  6  1  0
  6  7  2  0
  7  8  1  0
  8  9  2  0
  9 10  1  0
 10 11  3  0
 11 12  1  0
 12 13  2  0
 12 14  1  0
  9 15  1  0
 15 16  2  0
 16 17  1  0
 17 18  1  0
 18 19  2  0
 18 20  1  0
 20 21  1  0
 21 22  2  0
 21 23  1  0
 21 24  1  0
 17  4  1  0
 16  6  1  0
  1 25  1  0
  5 26  1  0
  7 27  1  0
  8 28  1  0
 15 29  1  0
 20 30  1  0
 20 31  1  0
M  CHG  4   1  -1  14  -1  23  -1  24  -1
M  END
>  <UniqueID>  (44) 
43

>  <SMILES>  (44) 
[NH-]C(=O)c1cc2ccc(C#CC(=O)[O-])cc2n1C(=O)CP(=O)([O-])[O-]

>  <Energy>  (44) 
61.55840598425428

>  <Genealogy>  (44) 
[NH-]C(=O)c1cc2ccc(C#CC(=O)[O-])cc2n1C(=O)CP(=O)([O-])[O-] (protonated)
[NH-]C(=O)c1cc2ccc(C#CC(=O)[O-])cc2n1C(=O)CP(=O)([O-])[O-] (3D coordinates assigned)
[NH-]C(=O)c1cc2ccc(C#CC(=O)[O-])cc2n1C(=O)CP(=O)([O-])[O-] (optimized conformer: 61.55840598425428 kcal/mol)

>  <smiles>  (44) 
NC(=O)c1cc2ccc(C#CC(=O)O)cc2n1C(=O)CP(=O)(O)O

>  <score_type>  (44) 
oracle

>  <origin>  (44) 
adg

>  <m_score__min__energy>  (44) 
-12.93

>  <m_primary>  (44) 
energy

$$$$
45:0
     RDKit          3D

 36 37  0  0  0  0  0  0  0  0999 V2000
   -1.1080   22.3760  -30.6120 N   0  0  0  0  0  0  0  0  0  0  0  0
   -1.6200   21.6900  -31.7540 C   0  0  0  0  0  0  0  0  0  0  0  0
   -0.8170   21.1670  -32.5710 O   0  0  0  0  0  0  0  0  0  0  0  0
   -3.0740   21.5250  -31.9600 C   0  0  0  0  0  0  0  0  0  0  0  0
   -3.6220   20.6290  -32.8720 C   0  0  0  0  0  0  0  0  0  0  0  0
   -4.9840   20.7340  -32.7110 C   0  0  0  0  0  0  0  0  0  0  0  0
   -6.0160   20.0860  -33.3800 C   0  0  0  0  0  0  0  0  0  0  0  0
   -7.3370   20.4230  -33.0410 C   0  0  0  0  0  0  0  0  0  0  0  0
   -7.6040   21.3910  -32.0390 C   0  0  0  0  0  0  0  0  0  0  0  0
   -9.0240   21.7920  -31.7290 C   0  0  0  0  0  0  0  0  0  0  0  0
   -9.8900   21.0130  -32.4730 F   0  0  0  0  0  0  0  0  0  0  0  0
   -9.2330   23.1250  -32.0400 F   0  0  0  0  0  0  0  0  0  0  0  0
   -9.2990   21.6140  -30.3830 F   0  0  0  0  0  0  0  0  0  0  0  0
   -6.5270   22.0480  -31.4010 C   0  0  0  0  0  0  0  0  0  0  0  0
   -5.2210   21.6750  -31.7400 C   0  0  0  0  0  0  0  0  0  0  0  0
   -4.0560   22.1730  -31.2710 N   0  0  0  0  0  0  0  0  0  0  0  0
   -3.9010   23.2380  -30.3200 C   0  0  0  0  0  0  0  0  0  0  0  0
   -3.8470   24.4350  -30.7170 O   0  0  0  0  0  0  0  0  0  0  0  0
   -3.8100   22.9450  -28.9560 O   0  0  0  0  0  0  0  0  0  0  0  0
   -3.4720   23.9240  -27.9770 C   0  0  0  0  0  0  0  0  0  0  0  0
   -1.9670   23.9010  -27.6850 C   0  0  1  0  0  0  0  0  0  0  0  0
   -1.4670   22.5240  -27.6660 N   0  0  0  0  0  0  0  0  0  0  0  0
   -1.2070   24.7510  -28.6710 C   0  0  0  0  0  0  0  0  0  0  0  0
   -0.2160   24.2840  -29.2930 O   0  0  0  0  0  0  0  0  0  0  0  0
   -1.6190   26.0530  -28.9230 O   0  0  0  0  0  0  0  0  0  0  0  0
   -0.0790   22.5180  -30.5050 H   0  0  0  0  0  0  0  0  0  0  0  0
   -1.7350   22.6690  -29.8310 H   0  0  0  0  0  0  0  0  0  0  0  0
   -3.0814   19.9757  -33.5727 H   0  0  0  0  0  0  0  0  0  0  0  0
   -5.8045   19.3316  -34.1521 H   0  0  0  0  0  0  0  0  0  0  0  0
   -8.1737   19.9307  -33.5583 H   0  0  0  0  0  0  0  0  0  0  0  0
   -6.7111   22.8349  -30.6547 H   0  0  0  0  0  0  0  0  0  0  0  0
   -3.7522   24.9200  -28.3505 H   0  0  0  0  0  0  0  0  0  0  0  0
   -4.0161   23.6979  -27.0481 H   0  0  0  0  0  0  0  0  0  0  0  0
   -1.8037   24.3342  -26.6872 H   0  0  0  0  0  0  0  0  0  0  0  0
   -2.1200   21.9020  -28.1950 H   0  0  0  0  0  0  0  0  0  0  0  0
   -0.5460   22.4980  -28.1640 H   0  0  0  0  0  0  0  0  0  0  0  0
  1  2  1  0
  2  3  2  0
  2  4  1  0
  4  5  2  0
  5  6  1  0
  6  7  2  0
  7  8  1  0
  8  9  2  0
  9 10  1  0
 10 11  1  0
 10 12  1  0
 10 13  1  0
  9 14  1  0
 14 15  2  0
 15 16  1  0
 16 17  1  0
 17 18  2  0
 17 19  1  0
 19 20  1  0
 20 21  1  0
 21 22  1  0
 21 23  1  0
 23 24  2  0
 23 25  1  0
 16  4  1  0
 15  6  1  0
  1 26  1  0
  1 27  1  0
  5 28  1  0
  7 29  1  0
  8 30  1  0
 14 31  1  0
 20 32  1  0
 20 33  1  0
 21 34  1  1
 22 35  1  0
 22 36  1  0
M  CHG  1  25  -1
M  END
>  <UniqueID>  (45) 
44

>  <SMILES>  (45) 
NC(=O)c1cc2ccc(C(F)(F)F)cc2n1C(=O)OC[C@@H](N)C(=O)[O-]

>  <Energy>  (45) 
71.5953334486283

>  <Genealogy>  (45) 
NC(=O)c1cc2ccc(C(F)(F)F)cc2n1C(=O)OC[C@@H](N)C(=O)[O-] (protonated)
NC(=O)c1cc2ccc(C(F)(F)F)cc2n1C(=O)OC[C@@H](N)C(=O)[O-] (3D coordinates assigned)
NC(=O)c1cc2ccc(C(F)(F)F)cc2n1C(=O)OC[C@@H](N)C(=O)[O-] (optimized conformer: 71.5953334486283 kcal/mol)

>  <smiles>  (45) 
NC(=O)c1cc2ccc(C(F)(F)F)cc2n1C(=O)OC[C@@H](N)C(=O)O

>  <score_type>  (45) 
oracle

>  <origin>  (45) 
adg

>  <m_score__min__energy>  (45) 
-9.8800000000000008

>  <m_primary>  (45) 
energy

$$$$
46:0
     RDKit          3D

 48 50  0  0  0  0  0  0  0  0999 V2000
   -7.4180   18.3640  -32.8600 C   0  0  0  0  0  0  0  0  0  0  0  0
   -7.4510   19.7500  -32.2890 C   0  0  0  0  0  0  0  0  0  0  0  0
   -8.6850   20.3060  -31.8680 C   0  0  0  0  0  0  0  0  0  0  0  0
   -8.7390   21.6030  -31.3320 C   0  0  0  0  0  0  0  0  0  0  0  0
   -7.5500   22.3220  -31.2440 C   0  0  0  0  0  0  0  0  0  0  0  0
   -7.3070   23.5740  -30.7270 C   0  0  0  0  0  0  0  0  0  0  0  0
   -5.9350   23.7730  -30.8680 C   0  0  0  0  0  0  0  0  0  0  0  0
   -5.2370   25.0090  -30.4530 C   0  0  0  0  0  0  0  0  0  0  0  0
   -3.8650   25.2220  -30.7740 N   0  0  0  0  0  0  0  0  0  0  0  0
   -5.8660   25.8990  -29.8200 O   0  0  0  0  0  0  0  0  0  0  0  0
   -5.3560   22.6890  -31.4540 N   0  0  0  0  0  0  0  0  0  0  0  0
   -3.9590   22.4700  -31.6960 C   0  0  0  0  0  0  0  0  0  0  0  0
   -3.5550   22.2870  -32.8770 O   0  0  0  0  0  0  0  0  0  0  0  0
   -3.0010   22.3430  -30.5470 C   0  0  0  0  0  0  0  0  0  0  0  0
   -3.5260   21.3820  -29.4700 C   0  0  0  0  0  0  0  0  0  0  0  0
   -2.5400   21.2030  -28.3870 N   0  0  0  0  0  0  0  0  0  0  0  0
   -1.6440   20.0700  -28.4310 C   0  0  0  0  0  0  0  0  0  0  0  0
   -0.7980   19.9600  -29.3590 O   0  0  0  0  0  0  0  0  0  0  0  0
   -1.6960   19.0830  -27.4530 O   0  0  0  0  0  0  0  0  0  0  0  0
   -2.3220   22.2650  -27.3780 C   0  0  1  0  0  0  0  0  0  0  0  0
   -0.9270   22.1550  -26.7360 C   0  0  0  0  0  0  0  0  0  0  0  0
   -0.1500   23.4000  -27.1500 C   0  0  0  0  0  0  0  0  0  0  0  0
   -1.1030   24.2610  -27.8270 N   0  0  0  0  0  0  0  0  0  0  0  0
   -0.7970   25.5970  -28.2460 C   0  0  0  0  0  0  0  0  0  0  0  0
   -1.2440   26.0390  -29.3380 O   0  0  0  0  0  0  0  0  0  0  0  0
    0.0010   26.4130  -27.4540 O   0  0  0  0  0  0  0  0  0  0  0  0
   -2.4170   23.6700  -27.9860 C   0  0  0  0  0  0  0  0  0  0  0  0
   -6.3540   21.8090  -31.6760 C   0  0  0  0  0  0  0  0  0  0  0  0
   -6.2690   20.5170  -32.2070 C   0  0  0  0  0  0  0  0  0  0  0  0
   -7.4005   17.6302  -32.0407 H   0  0  0  0  0  0  0  0  0  0  0  0
   -8.3125   18.2011  -33.4791 H   0  0  0  0  0  0  0  0  0  0  0  0
   -6.5167   18.2439  -33.4791 H   0  0  0  0  0  0  0  0  0  0  0  0
   -9.6088   19.7162  -31.9620 H   0  0  0  0  0  0  0  0  0  0  0  0
   -9.6909   22.0372  -30.9923 H   0  0  0  0  0  0  0  0  0  0  0  0
   -8.0404   24.2702  -30.2941 H   0  0  0  0  0  0  0  0  0  0  0  0
   -3.5650   26.0570  -31.3260 H   0  0  0  0  0  0  0  0  0  0  0  0
   -2.0401   21.9636  -30.9249 H   0  0  0  0  0  0  0  0  0  0  0  0
   -2.8817   23.3364  -30.0900 H   0  0  0  0  0  0  0  0  0  0  0  0
   -4.4545   21.7916  -29.0456 H   0  0  0  0  0  0  0  0  0  0  0  0
   -3.7112   20.4035  -29.9372 H   0  0  0  0  0  0  0  0  0  0  0  0
   -3.1134   22.1203  -26.6278 H   0  0  0  0  0  0  0  0  0  0  0  0
   -1.0170   22.1120  -25.6405 H   0  0  0  0  0  0  0  0  0  0  0  0
   -0.4120   21.2411  -27.0669 H   0  0  0  0  0  0  0  0  0  0  0  0
    0.2602   23.9066  -26.2639 H   0  0  0  0  0  0  0  0  0  0  0  0
    0.6981   23.1465  -27.8031 H   0  0  0  0  0  0  0  0  0  0  0  0
   -3.1721   24.2671  -27.4537 H   0  0  0  0  0  0  0  0  0  0  0  0
   -2.7182   23.6331  -29.0433 H   0  0  0  0  0  0  0  0  0  0  0  0
   -5.3067   20.1101  -32.5513 H   0  0  0  0  0  0  0  0  0  0  0  0
  1  2  1  0
  2  3  2  0
  3  4  1  0
  4  5  2  0
  5  6  1  0
  6  7  2  0
  7  8  1  0
  8  9  1  0
  8 10  2  0
  7 11  1  0
 11 12  1  0
 12 13  2  0
 12 14  1  0
 14 15  1  0
 15 16  1  0
 16 17  1  0
 17 18  2  0
 17 19  1  0
 16 20  1  0
 20 21  1  0
 21 22  1  0
 22 23  1  0
 23 24  1  0
 24 25  2  0
 24 26  1  0
 23 27  1  0
 11 28  1  0
 28 29  2  0
 29  2  1  0
 28  5  1  0
 27 20  1  0
  1 30  1  0
  1 31  1  0
  1 32  1  0
  3 33  1  0
  4 34  1  0
  6 35  1  0
  9 36  1  0
 14 37  1  0
 14 38  1  0
 15 39  1  0
 15 40  1  0
 20 41  1  1
 21 42  1  0
 21 43  1  0
 22 44  1  0
 22 45  1  0
 27 46  1  0
 27 47  1  0
 29 48  1  0
M  CHG  3   9  -1  19  -1  26  -1
M  END
>  <UniqueID>  (46) 
45

>  <SMILES>  (46) 
Cc1ccc2cc(C([NH-])=O)n(C(=O)CCN(C(=O)[O-])[C@H]3CCN(C(=O)[O-])C3)c2c1

>  <Energy>  (46) 
85.00125424763316

>  <Genealogy>  (46) 
Cc1ccc2cc(C([NH-])=O)n(C(=O)CCN(C(=O)[O-])C3CCN(C(=O)[O-])C3)c2c1 (protonated)
Cc1ccc2cc(C([NH-])=O)n(C(=O)CCN(C(=O)[O-])[C@H]3CCN(C(=O)[O-])C3)c2c1 (chirality)
Cc1ccc2cc(C([NH-])=O)n(C(=O)CCN(C(=O)[O-])[C@H]3CCN(C(=O)[O-])C3)c2c1 (3D coordinates assigned)
Cc1ccc2cc(C([NH-])=O)n(C(=O)CCN(C(=O)[O-])[C@H]3CCN(C(=O)[O-])C3)c2c1 (nonaromatic ring conformer: 85.00125424763316 kcal/mol)

>  <smiles>  (46) 
Cc1ccc2cc(C(N)=O)n(C(=O)CCN(C(=O)O)C3CCN(C(=O)O)C3)c2c1

>  <score_type>  (46) 
oracle

>  <origin>  (46) 
adg

>  <m_score__min__energy>  (46) 
-13.68

>  <m_primary>  (46) 
energy

$$$$
47:0
     RDKit          3D

 39 40  0  0  0  0  0  0  0  0999 V2000
   -3.8540   25.1220  -30.0290 N   0  0  0  0  0  0  0  0  0  0  0  0
   -5.1440   25.0370  -30.6360 C   0  0  0  0  0  0  0  0  0  0  0  0
   -5.7710   26.0970  -30.9040 O   0  0  0  0  0  0  0  0  0  0  0  0
   -5.7290   23.7340  -31.0100 C   0  0  0  0  0  0  0  0  0  0  0  0
   -7.0890   23.5430  -31.2330 C   0  0  0  0  0  0  0  0  0  0  0  0
   -7.2130   22.2250  -31.6080 C   0  0  0  0  0  0  0  0  0  0  0  0
   -8.3530   21.4900  -31.9180 C   0  0  0  0  0  0  0  0  0  0  0  0
   -8.1960   20.1270  -32.2230 C   0  0  0  0  0  0  0  0  0  0  0  0
   -6.9110   19.5260  -32.2160 C   0  0  0  0  0  0  0  0  0  0  0  0
   -6.7640   18.0490  -32.4790 C   0  0  0  0  0  0  0  0  0  0  0  0
   -6.0940   17.8630  -33.6730 F   0  0  0  0  0  0  0  0  0  0  0  0
   -6.0500   17.4400  -31.4610 F   0  0  0  0  0  0  0  0  0  0  0  0
   -8.0050   17.4400  -32.5600 F   0  0  0  0  0  0  0  0  0  0  0  0
   -5.7800   20.3020  -31.8680 C   0  0  0  0  0  0  0  0  0  0  0  0
   -5.9630   21.6630  -31.5920 C   0  0  0  0  0  0  0  0  0  0  0  0
   -5.0370   22.5780  -31.2230 N   0  0  0  0  0  0  0  0  0  0  0  0
   -3.6430   22.3370  -30.9690 C   0  0  0  0  0  0  0  0  0  0  0  0
   -2.7630   23.0140  -31.5650 O   0  0  0  0  0  0  0  0  0  0  0  0
   -3.2530   21.3190  -30.0430 N   0  0  0  0  0  0  0  0  0  0  0  0
   -2.0300   21.3770  -29.2550 C   0  0  0  0  0  0  0  0  0  0  0  0
   -2.3610   21.7360  -27.8080 C   0  0  0  0  0  0  0  0  0  0  0  0
   -2.6570   23.2090  -27.6640 C   0  0  0  0  0  0  0  0  0  0  0  0
   -3.7770   23.6130  -27.9430 O   0  0  0  0  0  0  0  0  0  0  0  0
   -1.6210   24.1970  -27.1790 C   0  0  0  0  0  0  0  0  0  0  0  0
   -0.6950   23.5880  -26.3480 F   0  0  0  0  0  0  0  0  0  0  0  0
   -2.2550   25.1960  -26.4610 F   0  0  0  0  0  0  0  0  0  0  0  0
   -0.9060   24.8050  -28.3490 C   0  0  0  0  0  0  0  0  0  0  0  0
    0.3030   24.5240  -28.5700 O   0  0  0  0  0  0  0  0  0  0  0  0
   -1.5880   25.6360  -29.2290 O   0  0  0  0  0  0  0  0  0  0  0  0
   -3.4760   26.0480  -29.7280 H   0  0  0  0  0  0  0  0  0  0  0  0
   -3.2440   24.2810  -29.9410 H   0  0  0  0  0  0  0  0  0  0  0  0
   -7.8931   24.2867  -31.1313 H   0  0  0  0  0  0  0  0  0  0  0  0
   -9.3469   21.9613  -31.9242 H   0  0  0  0  0  0  0  0  0  0  0  0
   -9.0792   19.5196  -32.4699 H   0  0  0  0  0  0  0  0  0  0  0  0
   -4.7800   19.8468  -31.8154 H   0  0  0  0  0  0  0  0  0  0  0  0
   -1.5313   20.3969  -29.2828 H   0  0  0  0  0  0  0  0  0  0  0  0
   -1.3641   22.1449  -29.6756 H   0  0  0  0  0  0  0  0  0  0  0  0
   -3.2420   21.1602  -27.4882 H   0  0  0  0  0  0  0  0  0  0  0  0
   -1.4901   21.4933  -27.1814 H   0  0  0  0  0  0  0  0  0  0  0  0
  1  2  1  0
  2  3  2  0
  2  4  1  0
  4  5  2  0
  5  6  1  0
  6  7  2  0
  7  8  1  0
  8  9  2  0
  9 10  1  0
 10 11  1  0
 10 12  1  0
 10 13  1  0
  9 14  1  0
 14 15  2  0
 15 16  1  0
 16 17  1  0
 17 18  2  0
 17 19  1  0
 19 20  1  0
 20 21  1  0
 21 22  1  0
 22 23  2  0
 22 24  1  0
 24 25  1  0
 24 26  1  0
 24 27  1  0
 27 28  2  0
 27 29  1  0
 16  4  1  0
 15  6  1  0
  1 30  1  0
  1 31  1  0
  5 32  1  0
  7 33  1  0
  8 34  1  0
 14 35  1  0
 20 36  1  0
 20 37  1  0
 21 38  1  0
 21 39  1  0
M  CHG  2  19  -1  29  -1
M  END
>  <UniqueID>  (47) 
46

>  <SMILES>  (47) 
NC(=O)c1cc2ccc(C(F)(F)F)cc2n1C(=O)[N-]CCC(=O)C(F)(F)C(=O)[O-]

>  <Energy>  (47) 
71.23470876775403

>  <Genealogy>  (47) 
NC(=O)c1cc2ccc(C(F)(F)F)cc2n1C(=O)[N-]CCC(=O)C(F)(F)C(=O)[O-] (protonated)
NC(=O)c1cc2ccc(C(F)(F)F)cc2n1C(=O)[N-]CCC(=O)C(F)(F)C(=O)[O-] (3D coordinates assigned)
NC(=O)c1cc2ccc(C(F)(F)F)cc2n1C(=O)[N-]CCC(=O)C(F)(F)C(=O)[O-] (optimized conformer: 71.23470876775403 kcal/mol)

>  <smiles>  (47) 
NC(=O)c1cc2ccc(C(F)(F)F)cc2n1C(=O)NCCC(=O)C(F)(F)C(=O)O

>  <score_type>  (47) 
oracle

>  <origin>  (47) 
adg

>  <m_score__min__energy>  (47) 
-10.699999999999999

>  <m_primary>  (47) 
energy

$$$$
48:0
     RDKit          3D

 39 40  0  0  0  0  0  0  0  0999 V2000
   -4.2430   25.5210  -30.5900 N   0  0  0  0  0  0  0  0  0  0  0  0
   -5.5980   25.1360  -30.3510 C   0  0  0  0  0  0  0  0  0  0  0  0
   -6.3830   25.9530  -29.8020 O   0  0  0  0  0  0  0  0  0  0  0  0
   -6.1110   23.8240  -30.7950 C   0  0  0  0  0  0  0  0  0  0  0  0
   -7.4040   23.6300  -31.2700 C   0  0  0  0  0  0  0  0  0  0  0  0
   -7.4620   22.3040  -31.6330 C   0  0  0  0  0  0  0  0  0  0  0  0
   -8.5220   21.5640  -32.1470 C   0  0  0  0  0  0  0  0  0  0  0  0
   -8.3160   20.1960  -32.3890 C   0  0  0  0  0  0  0  0  0  0  0  0
   -7.0580   19.5940  -32.1230 C   0  0  0  0  0  0  0  0  0  0  0  0
   -6.8680   18.1120  -32.3260 C   0  0  0  0  0  0  0  0  0  0  0  0
   -6.3230   17.8550  -33.5720 F   0  0  0  0  0  0  0  0  0  0  0  0
   -6.0170   17.6250  -31.3520 F   0  0  0  0  0  0  0  0  0  0  0  0
   -8.0810   17.4480  -32.2400 F   0  0  0  0  0  0  0  0  0  0  0  0
   -6.0140   20.3750  -31.5760 C   0  0  0  0  0  0  0  0  0  0  0  0
   -6.2390   21.7410  -31.3670 C   0  0  0  0  0  0  0  0  0  0  0  0
   -5.3980   22.6640  -30.8470 N   0  0  0  0  0  0  0  0  0  0  0  0
   -4.0710   22.4280  -30.3500 C   0  0  0  0  0  0  0  0  0  0  0  0
   -3.9130   21.8650  -29.2320 O   0  0  0  0  0  0  0  0  0  0  0  0
   -2.9650   22.8220  -31.1150 O   0  0  0  0  0  0  0  0  0  0  0  0
   -1.6520   22.3730  -30.9280 C   0  0  0  0  0  0  0  0  0  0  0  0
   -1.1720   21.4480  -31.6390 O   0  0  0  0  0  0  0  0  0  0  0  0
   -0.8750   22.9780  -29.9370 O   0  0  0  0  0  0  0  0  0  0  0  0
   -1.0580   22.7200  -28.5490 C   0  0  0  0  0  0  0  0  0  0  0  0
   -0.9040   24.0140  -27.7470 C   0  0  0  0  0  0  0  0  0  0  0  0
   -2.0620   24.9920  -27.9750 C   0  0  0  0  0  0  0  0  0  0  0  0
   -2.2180   25.2710  -29.3410 O   0  0  0  0  0  0  0  0  0  0  0  0
   -3.6160   24.9410  -31.1900 H   0  0  0  0  0  0  0  0  0  0  0  0
   -3.8870   26.4350  -30.2340 H   0  0  0  0  0  0  0  0  0  0  0  0
   -8.2083   24.3771  -31.3404 H   0  0  0  0  0  0  0  0  0  0  0  0
   -9.4928   22.0364  -32.3576 H   0  0  0  0  0  0  0  0  0  0  0  0
   -9.1382   19.5844  -32.7889 H   0  0  0  0  0  0  0  0  0  0  0  0
   -5.0461   19.9193  -31.3202 H   0  0  0  0  0  0  0  0  0  0  0  0
   -2.0650   22.3086  -28.3854 H   0  0  0  0  0  0  0  0  0  0  0  0
   -0.2988   21.9976  -28.2147 H   0  0  0  0  0  0  0  0  0  0  0  0
   -0.8615   23.7621  -26.6771 H   0  0  0  0  0  0  0  0  0  0  0  0
    0.0192   24.5071  -28.0855 H   0  0  0  0  0  0  0  0  0  0  0  0
   -2.9911   24.5467  -27.5897 H   0  0  0  0  0  0  0  0  0  0  0  0
   -1.8391   25.9309  -27.4470 H   0  0  0  0  0  0  0  0  0  0  0  0
   -2.1820   24.4030  -29.8200 H   0  0  0  0  0  0  0  0  0  0  0  0
  1  2  1  0
  2  3  2  0
  2  4  1  0
  4  5  2  0
  5  6  1  0
  6  7  2  0
  7  8  1  0
  8  9  2  0
  9 10  1  0
 10 11  1  0
 10 12  1  0
 10 13  1  0
  9 14  1  0
 14 15  2  0
 15 16  1  0
 16 17  1  0
 17 18  2  0
 17 19  1  0
 19 20  1  0
 20 21  2  0
 20 22  1  0
 22 23  1  0
 23 24  1  0
 24 25  1  0
 25 26  1  0
 16  4  1  0
 15  6  1  0
  1 27  1  0
  1 28  1  0
  5 29  1  0
  7 30  1  0
  8 31  1  0
 14 32  1  0
 23 33  1  0
 23 34  1  0
 24 35  1  0
 24 36  1  0
 25 37  1  0
 25 38  1  0
 26 39  1  0
M  END
>  <UniqueID>  (48) 
47

>  <SMILES>  (48) 
NC(=O)c1cc2ccc(C(F)(F)F)cc2n1C(=O)OC(=O)OCCCO

>  <Energy>  (48) 
74.51701972853066

>  <Genealogy>  (48) 
NC(=O)c1cc2ccc(C(F)(F)F)cc2n1C(=O)OC(=O)OCCCO (3D coordinates assigned)
NC(=O)c1cc2ccc(C(F)(F)F)cc2n1C(=O)OC(=O)OCCCO (optimized conformer: 74.51701972853066 kcal/mol)

>  <smiles>  (48) 
NC(=O)c1cc2ccc(C(F)(F)F)cc2n1C(=O)OC(=O)OCCCO

>  <score_type>  (48) 
oracle

>  <origin>  (48) 
adg

>  <m_score__min__energy>  (48) 
-8

>  <m_primary>  (48) 
energy

$$$$
49:0
     RDKit          3D

 44 45  0  0  0  0  0  0  0  0999 V2000
   -3.9010   18.1890  -34.2480 N   0  0  0  0  0  0  0  0  0  0  0  0
   -5.3010   18.3920  -34.0480 C   0  0  0  0  0  0  0  0  0  0  0  0
   -6.1120   17.5340  -34.4870 O   0  0  0  0  0  0  0  0  0  0  0  0
   -5.8010   19.6060  -33.3640 C   0  0  0  0  0  0  0  0  0  0  0  0
   -7.1510   19.8840  -33.1530 C   0  0  0  0  0  0  0  0  0  0  0  0
   -7.1740   21.0510  -32.4230 C   0  0  0  0  0  0  0  0  0  0  0  0
   -8.2540   21.7950  -31.9610 C   0  0  0  0  0  0  0  0  0  0  0  0
   -7.9860   22.9870  -31.2690 C   0  0  0  0  0  0  0  0  0  0  0  0
   -6.6500   23.4090  -31.0410 C   0  0  0  0  0  0  0  0  0  0  0  0
   -6.3750   24.7220  -30.3540 C   0  0  0  0  0  0  0  0  0  0  0  0
   -5.5650   24.5000  -29.2550 F   0  0  0  0  0  0  0  0  0  0  0  0
   -5.7380   25.6000  -31.2130 F   0  0  0  0  0  0  0  0  0  0  0  0
   -7.5550   25.3090  -29.9320 F   0  0  0  0  0  0  0  0  0  0  0  0
   -5.5800   22.6350  -31.5470 C   0  0  0  0  0  0  0  0  0  0  0  0
   -5.8770   21.4410  -32.2160 C   0  0  0  0  0  0  0  0  0  0  0  0
   -5.0230   20.5640  -32.7860 N   0  0  0  0  0  0  0  0  0  0  0  0
   -3.5920   20.6750  -32.8310 C   0  0  0  0  0  0  0  0  0  0  0  0
   -3.0210   21.0120  -33.9030 O   0  0  0  0  0  0  0  0  0  0  0  0
   -2.8190   20.4080  -31.6550 N   0  0  0  0  0  0  0  0  0  0  0  0
   -2.4900   21.4040  -30.6400 C   0  0  0  0  0  0  0  0  0  0  0  0
   -2.8870   20.9100  -29.2420 C   0  0  0  0  0  0  0  0  0  0  0  0
   -3.7520   21.9010  -28.4400 C   0  0  0  0  0  0  0  0  0  0  0  0
   -2.9690   22.8390  -27.4970 C   0  0  0  0  0  0  0  0  0  0  0  0
   -3.1550   24.3420  -27.7560 C   0  0  0  0  0  0  0  0  0  0  0  0
   -2.3180   24.9110  -29.2750 P   0  0  0  0  0  0  0  0  0  0  0  0
   -1.4150   23.8110  -29.7820 O   0  0  0  0  0  0  0  0  0  0  0  0
   -1.3840   26.2830  -28.9480 O   0  0  0  0  0  0  0  0  0  0  0  0
   -3.4670   25.2800  -30.4600 O   0  0  0  0  0  0  0  0  0  0  0  0
   -3.5630   17.3470  -34.7660 H   0  0  0  0  0  0  0  0  0  0  0  0
   -3.1930   18.8440  -33.8490 H   0  0  0  0  0  0  0  0  0  0  0  0
   -8.0145   19.2957  -33.4969 H   0  0  0  0  0  0  0  0  0  0  0  0
   -9.2875   21.4598  -32.1325 H   0  0  0  0  0  0  0  0  0  0  0  0
   -8.8207   23.6007  -30.8994 H   0  0  0  0  0  0  0  0  0  0  0  0
   -4.5381   22.9633  -31.4180 H   0  0  0  0  0  0  0  0  0  0  0  0
   -1.4070   21.5956  -30.6606 H   0  0  0  0  0  0  0  0  0  0  0  0
   -3.0467   22.3272  -30.8587 H   0  0  0  0  0  0  0  0  0  0  0  0
   -3.4523   19.9733  -29.3556 H   0  0  0  0  0  0  0  0  0  0  0  0
   -1.9521   20.7801  -28.6772 H   0  0  0  0  0  0  0  0  0  0  0  0
   -4.3085   22.5241  -29.1556 H   0  0  0  0  0  0  0  0  0  0  0  0
   -4.4002   21.2895  -27.7950 H   0  0  0  0  0  0  0  0  0  0  0  0
   -3.2917   22.6301  -26.4664 H   0  0  0  0  0  0  0  0  0  0  0  0
   -1.9044   22.6304  -27.6788 H   0  0  0  0  0  0  0  0  0  0  0  0
   -4.2309   24.5515  -27.8488 H   0  0  0  0  0  0  0  0  0  0  0  0
   -2.7041   24.8807  -26.9096 H   0  0  0  0  0  0  0  0  0  0  0  0
  1  2  1  0
  2  3  2  0
  2  4  1  0
  4  5  2  0
  5  6  1  0
  6  7  2  0
  7  8  1  0
  8  9  2  0
  9 10  1  0
 10 11  1  0
 10 12  1  0
 10 13  1  0
  9 14  1  0
 14 15  2  0
 15 16  1  0
 16 17  1  0
 17 18  2  0
 17 19  1  0
 19 20  1  0
 20 21  1  0
 21 22  1  0
 22 23  1  0
 23 24  1  0
 24 25  1  0
 25 26  2  0
 25 27  1  0
 25 28  1  0
 16  4  1  0
 15  6  1  0
  1 29  1  0
  1 30  1  0
  5 31  1  0
  7 32  1  0
  8 33  1  0
 14 34  1  0
 20 35  1  0
 20 36  1  0
 21 37  1  0
 21 38  1  0
 22 39  1  0
 22 40  1  0
 23 41  1  0
 23 42  1  0
 24 43  1  0
 24 44  1  0
M  CHG  3  19  -1  27  -1  28  -1
M  END
>  <UniqueID>  (49) 
48

>  <SMILES>  (49) 
NC(=O)c1cc2ccc(C(F)(F)F)cc2n1C(=O)[N-]CCCCCP(=O)([O-])[O-]

>  <Energy>  (49) 
73.8902361463733

>  <Genealogy>  (49) 
NC(=O)c1cc2ccc(C(F)(F)F)cc2n1C(=O)[N-]CCCCCP(=O)([O-])[O-] (protonated)
NC(=O)c1cc2ccc(C(F)(F)F)cc2n1C(=O)[N-]CCCCCP(=O)([O-])[O-] (3D coordinates assigned)
NC(=O)c1cc2ccc(C(F)(F)F)cc2n1C(=O)[N-]CCCCCP(=O)([O-])[O-] (optimized conformer: 73.8902361463733 kcal/mol)

>  <smiles>  (49) 
NC(=O)c1cc2ccc(C(F)(F)F)cc2n1C(=O)NCCCCCP(=O)(O)O

>  <score_type>  (49) 
oracle

>  <origin>  (49) 
adg

>  <m_score__min__energy>  (49) 
-12.800000000000001

>  <m_primary>  (49) 
energy

$$$$
50:0
     RDKit          3D

 34 35  0  0  0  0  0  0  0  0999 V2000
   -1.1630   18.8080  -34.1760 C   0  0  0  0  0  0  0  0  0  0  0  0
   -2.2670   18.0350  -33.4630 C   0  0  0  0  0  0  0  0  0  0  0  0
   -3.4630   18.9170  -33.2180 C   0  0  0  0  0  0  0  0  0  0  0  0
   -4.6020   18.8170  -34.0550 C   0  0  0  0  0  0  0  0  0  0  0  0
   -5.7040   19.6690  -33.8680 C   0  0  0  0  0  0  0  0  0  0  0  0
   -5.6380   20.6040  -32.8390 C   0  0  0  0  0  0  0  0  0  0  0  0
   -6.5390   21.5760  -32.4670 C   0  0  0  0  0  0  0  0  0  0  0  0
   -5.9400   22.2500  -31.4010 C   0  0  0  0  0  0  0  0  0  0  0  0
   -6.5680   23.3690  -30.6580 C   0  0  0  0  0  0  0  0  0  0  0  0
   -6.1310   23.7160  -29.3420 N   0  0  0  0  0  0  0  0  0  0  0  0
   -7.4940   24.0370  -31.1860 O   0  0  0  0  0  0  0  0  0  0  0  0
   -4.7240   21.7020  -31.1200 N   0  0  0  0  0  0  0  0  0  0  0  0
   -3.7830   22.1280  -30.1220 C   0  0  0  0  0  0  0  0  0  0  0  0
   -3.8430   21.6430  -28.9610 O   0  0  0  0  0  0  0  0  0  0  0  0
   -2.6930   23.1000  -30.4620 C   0  0  0  0  0  0  0  0  0  0  0  0
   -3.0490   24.7210  -29.7210 P   0  0  0  0  0  0  0  0  0  0  0  0
   -3.8750   24.5280  -28.4710 O   0  0  0  0  0  0  0  0  0  0  0  0
   -1.6010   25.4970  -29.3210 O   0  0  0  0  0  0  0  0  0  0  0  0
   -3.9140   25.6690  -30.8220 O   0  0  0  0  0  0  0  0  0  0  0  0
   -4.5480   20.7050  -32.0160 C   0  0  0  0  0  0  0  0  0  0  0  0
   -3.4270   19.8880  -32.1940 C   0  0  0  0  0  0  0  0  0  0  0  0
   -0.5002   19.2721  -33.4308 H   0  0  0  0  0  0  0  0  0  0  0  0
   -0.5810   18.1191  -34.8058 H   0  0  0  0  0  0  0  0  0  0  0  0
   -1.6113   19.5905  -34.8058 H   0  0  0  0  0  0  0  0  0  0  0  0
   -2.5701   17.1809  -34.0865 H   0  0  0  0  0  0  0  0  0  0  0  0
   -1.8829   17.6835  -32.4940 H   0  0  0  0  0  0  0  0  0  0  0  0
   -4.6239   18.0658  -34.8583 H   0  0  0  0  0  0  0  0  0  0  0  0
   -6.5911   19.5991  -34.5147 H   0  0  0  0  0  0  0  0  0  0  0  0
   -7.5230   21.7788  -32.9149 H   0  0  0  0  0  0  0  0  0  0  0  0
   -5.4170   23.1480  -28.8340 H   0  0  0  0  0  0  0  0  0  0  0  0
   -6.5600   24.5290  -28.8470 H   0  0  0  0  0  0  0  0  0  0  0  0
   -1.7355   22.7241  -30.0722 H   0  0  0  0  0  0  0  0  0  0  0  0
   -2.6351   23.2085  -31.5551 H   0  0  0  0  0  0  0  0  0  0  0  0
   -2.5402   19.9991  -31.5527 H   0  0  0  0  0  0  0  0  0  0  0  0
  1  2  1  0
  2  3  1  0
  3  4  2  0
  4  5  1  0
  5  6  2  0
  6  7  1  0
  7  8  2  0
  8  9  1  0
  9 10  1  0
  9 11  2  0
  8 12  1  0
 12 13  1  0
 13 14  2  0
 13 15  1  0
 15 16  1  0
 16 17  2  0
 16 18  1  0
 16 19  1  0
 12 20  1  0
 20 21  2  0
 21  3  1  0
 20  6  1  0
  1 22  1  0
  1 23  1  0
  1 24  1  0
  2 25  1  0
  2 26  1  0
  4 27  1  0
  5 28  1  0
  7 29  1  0
 10 30  1  0
 10 31  1  0
 15 32  1  0
 15 33  1  0
 21 34  1  0
M  CHG  2  18  -1  19  -1
M  END
>  <UniqueID>  (50) 
49

>  <SMILES>  (50) 
CCc1ccc2cc(C(N)=O)n(C(=O)CP(=O)([O-])[O-])c2c1

>  <Energy>  (50) 
64.89717629002145

>  <Genealogy>  (50) 
CCc1ccc2cc(C(N)=O)n(C(=O)CP(=O)([O-])[O-])c2c1 (protonated)
CCc1ccc2cc(C(N)=O)n(C(=O)CP(=O)([O-])[O-])c2c1 (3D coordinates assigned)
CCc1ccc2cc(C(N)=O)n(C(=O)CP(=O)([O-])[O-])c2c1 (optimized conformer: 64.89717629002145 kcal/mol)

>  <smiles>  (50) 
CCc1ccc2cc(C(N)=O)n(C(=O)CP(=O)(O)O)c2c1

>  <score_type>  (50) 
oracle

>  <origin>  (50) 
adg

>  <m_score__min__energy>  (50) 
-12.199999999999999

>  <m_primary>  (50) 
energy

$$$$
51:0
     RDKit          3D

 35 36  0  0  0  0  0  0  0  0999 V2000
   -6.0910   18.3660  -33.9590 C   0  0  0  0  0  0  0  0  0  0  0  0
   -7.2300   18.4430  -32.9470 C   0  0  0  0  0  0  0  0  0  0  0  0
   -7.3890   19.8480  -32.4320 C   0  0  0  0  0  0  0  0  0  0  0  0
   -8.6750   20.4400  -32.3680 C   0  0  0  0  0  0  0  0  0  0  0  0
   -8.8310   21.7660  -31.9310 C   0  0  0  0  0  0  0  0  0  0  0  0
   -7.6880   22.4730  -31.5690 C   0  0  0  0  0  0  0  0  0  0  0  0
   -7.5470   23.7760  -31.1500 C   0  0  0  0  0  0  0  0  0  0  0  0
   -6.1800   23.9560  -30.9530 C   0  0  0  0  0  0  0  0  0  0  0  0
   -5.5910   25.2040  -30.4240 C   0  0  0  0  0  0  0  0  0  0  0  0
   -4.2740   25.6060  -30.7900 N   0  0  0  0  0  0  0  0  0  0  0  0
   -6.2410   25.8990  -29.5980 O   0  0  0  0  0  0  0  0  0  0  0  0
   -5.5000   22.8110  -31.2460 N   0  0  0  0  0  0  0  0  0  0  0  0
   -4.0780   22.6170  -31.2730 C   0  0  0  0  0  0  0  0  0  0  0  0
   -3.4590   22.6760  -32.3700 O   0  0  0  0  0  0  0  0  0  0  0  0
   -3.3880   22.3800  -30.0790 O   0  0  0  0  0  0  0  0  0  0  0  0
   -2.0940   22.9090  -29.8020 C   0  0  0  0  0  0  0  0  0  0  0  0
   -2.2180   24.3010  -28.6360 P   0  0  1  0  0  0  0  0  0  0  0  0
   -1.4250   23.9820  -27.3890 O   0  0  0  0  0  0  0  0  0  0  0  0
   -1.5990   25.7070  -29.3440 O   0  0  0  0  0  0  0  0  0  0  0  0
   -3.8400   24.5520  -28.2240 O   0  0  0  0  0  0  0  0  0  0  0  0
   -6.4370   21.9120  -31.6190 C   0  0  0  0  0  0  0  0  0  0  0  0
   -6.2510   20.5990  -32.0680 C   0  0  0  0  0  0  0  0  0  0  0  0
   -5.1309   18.3011  -33.4262 H   0  0  0  0  0  0  0  0  0  0  0  0
   -6.2210   17.4746  -34.5903 H   0  0  0  0  0  0  0  0  0  0  0  0
   -6.0999   19.2668  -34.5903 H   0  0  0  0  0  0  0  0  0  0  0  0
   -8.1658   18.1279  -33.4317 H   0  0  0  0  0  0  0  0  0  0  0  0
   -6.9969   17.7801  -32.1007 H   0  0  0  0  0  0  0  0  0  0  0  0
   -9.5591   19.8559  -32.6632 H   0  0  0  0  0  0  0  0  0  0  0  0
   -9.8262   22.2314  -31.8766 H   0  0  0  0  0  0  0  0  0  0  0  0
   -8.3450   24.5184  -31.0019 H   0  0  0  0  0  0  0  0  0  0  0  0
   -3.5140   25.6720  -30.0770 H   0  0  0  0  0  0  0  0  0  0  0  0
   -1.4664   22.1207  -29.3608 H   0  0  0  0  0  0  0  0  0  0  0  0
   -1.6449   23.2667  -30.7403 H   0  0  0  0  0  0  0  0  0  0  0  0
   -4.1470   25.2740  -28.8290 H   0  0  0  0  0  0  0  0  0  0  0  0
   -5.2431   20.1637  -32.1354 H   0  0  0  0  0  0  0  0  0  0  0  0
  1  2  1  0
  2  3  1  0
  3  4  2  0
  4  5  1  0
  5  6  2  0
  6  7  1  0
  7  8  2  0
  8  9  1  0
  9 10  1  0
  9 11  2  0
  8 12  1  0
 12 13  1  0
 13 14  2  0
 13 15  1  0
 15 16  1  0
 16 17  1  0
 17 18  2  0
 17 19  1  6
 17 20  1  0
 12 21  1  0
 21 22  2  0
 22  3  1  0
 21  6  1  0
  1 23  1  0
  1 24  1  0
  1 25  1  0
  2 26  1  0
  2 27  1  0
  4 28  1  0
  5 29  1  0
  7 30  1  0
 10 31  1  0
 16 32  1  0
 16 33  1  0
 20 34  1  0
 22 35  1  0
M  CHG  2  10  -1  19  -1
M  END
>  <UniqueID>  (51) 
50

>  <SMILES>  (51) 
CCc1ccc2cc(C([NH-])=O)n(C(=O)OC[P@@](=O)([O-])O)c2c1

>  <Energy>  (51) 
64.8693697656225

>  <Genealogy>  (51) 
CCc1ccc2cc(C([NH-])=O)n(C(=O)OCP(=O)([O-])O)c2c1 (protonated)
CCc1ccc2cc(C([NH-])=O)n(C(=O)OC[P@@](=O)([O-])O)c2c1 (chirality)
CCc1ccc2cc(C([NH-])=O)n(C(=O)OC[P@@](=O)([O-])O)c2c1 (3D coordinates assigned)
CCc1ccc2cc(C([NH-])=O)n(C(=O)OC[P@@](=O)([O-])O)c2c1 (optimized conformer: 64.8693697656225 kcal/mol)

>  <smiles>  (51) 
CCc1ccc2cc(C(N)=O)n(C(=O)OCP(=O)(O)O)c2c1

>  <score_type>  (51) 
oracle

>  <origin>  (51) 
adg

>  <m_score__min__energy>  (51) 
-12.44

>  <m_primary>  (51) 
energy

$$$$
52:0
     RDKit          3D

 35 37  0  0  0  0  0  0  0  0999 V2000
   -3.9040   25.5760  -30.8730 N   0  0  0  0  0  0  0  0  0  0  0  0
   -5.1940   25.2420  -30.3660 C   0  0  0  0  0  0  0  0  0  0  0  0
   -5.7400   26.0000  -29.5210 O   0  0  0  0  0  0  0  0  0  0  0  0
   -5.9120   24.0440  -30.8480 C   0  0  0  0  0  0  0  0  0  0  0  0
   -7.3020   23.9190  -30.8340 C   0  0  0  0  0  0  0  0  0  0  0  0
   -7.5660   22.7130  -31.4420 C   0  0  0  0  0  0  0  0  0  0  0  0
   -8.7820   22.0870  -31.7060 C   0  0  0  0  0  0  0  0  0  0  0  0
   -8.7520   20.8380  -32.3480 C   0  0  0  0  0  0  0  0  0  0  0  0
   -7.5170   20.2310  -32.7000 C   0  0  0  0  0  0  0  0  0  0  0  0
   -7.5020   18.9600  -33.3860 N   0  0  0  0  0  0  0  0  0  0  0  0
   -6.5530   18.0270  -32.7600 C   0  0  0  0  0  0  0  0  0  0  0  0
   -5.1740   18.1690  -33.3350 C   0  0  0  0  0  0  0  0  0  0  0  0
   -4.8900   18.8390  -34.4650 N   0  0  0  0  0  0  0  0  0  0  0  0
   -3.5730   18.7770  -34.5680 N   0  0  0  0  0  0  0  0  0  0  0  0
   -3.0750   18.1060  -33.5410 N   0  0  0  0  0  0  0  0  0  0  0  0
   -4.0550   17.7160  -32.7430 N   0  0  0  0  0  0  0  0  0  0  0  0
   -6.3050   20.9010  -32.4160 C   0  0  0  0  0  0  0  0  0  0  0  0
   -6.3670   22.1500  -31.7930 C   0  0  0  0  0  0  0  0  0  0  0  0
   -5.3440   22.9520  -31.4320 N   0  0  0  0  0  0  0  0  0  0  0  0
   -3.9490   22.6560  -31.5920 C   0  0  0  0  0  0  0  0  0  0  0  0
   -3.1030   23.2000  -30.8330 O   0  0  0  0  0  0  0  0  0  0  0  0
   -3.4780   21.7850  -32.7140 C   0  0  0  0  0  0  0  0  0  0  0  0
   -3.3340   20.4730  -32.2500 O   0  0  0  0  0  0  0  0  0  0  0  0
   -3.0380   25.3010  -30.3580 H   0  0  0  0  0  0  0  0  0  0  0  0
   -8.0316   24.6329  -30.4240 H   0  0  0  0  0  0  0  0  0  0  0  0
   -9.7354   22.5558  -31.4208 H   0  0  0  0  0  0  0  0  0  0  0  0
   -9.6961   20.3239  -32.5809 H   0  0  0  0  0  0  0  0  0  0  0  0
   -8.4610   18.5400  -33.4010 H   0  0  0  0  0  0  0  0  0  0  0  0
   -7.2160   19.1110  -34.3810 H   0  0  0  0  0  0  0  0  0  0  0  0
   -6.5117   18.2317  -31.6800 H   0  0  0  0  0  0  0  0  0  0  0  0
   -6.9015   17.0018  -32.9539 H   0  0  0  0  0  0  0  0  0  0  0  0
   -5.3368   20.4500  -32.6791 H   0  0  0  0  0  0  0  0  0  0  0  0
   -4.2143   21.8074  -33.5309 H   0  0  0  0  0  0  0  0  0  0  0  0
   -2.5105   22.1532  -33.0860 H   0  0  0  0  0  0  0  0  0  0  0  0
   -3.6780   19.8860  -32.9730 H   0  0  0  0  0  0  0  0  0  0  0  0
  1  2  1  0
  2  3  2  0
  2  4  1  0
  4  5  2  0
  5  6  1  0
  6  7  2  0
  7  8  1  0
  8  9  2  0
  9 10  1  0
 10 11  1  0
 11 12  1  0
 12 13  1  0
 13 14  2  0
 14 15  1  0
 15 16  1  0
  9 17  1  0
 17 18  2  0
 18 19  1  0
 19 20  1  0
 20 21  2  0
 20 22  1  0
 22 23  1  0
 19  4  1  0
 18  6  1  0
 16 12  2  0
  1 24  1  0
  5 25  1  0
  7 26  1  0
  8 27  1  0
 10 28  1  0
 10 29  1  0
 11 30  1  0
 11 31  1  0
 17 32  1  0
 22 33  1  0
 22 34  1  0
 23 35  1  0
M  CHG  3   1  -1  10   1  15  -1
M  END
>  <UniqueID>  (52) 
51

>  <SMILES>  (52) 
[NH-]C(=O)c1cc2ccc([NH2+]Cc3nn[n-]n3)cc2n1C(=O)CO

>  <Energy>  (52) 
113.91395178351739

>  <Genealogy>  (52) 
[NH-]C(=O)c1cc2ccc([NH2+]Cc3nn[n-]n3)cc2n1C(=O)CO (protonated)
[NH-]C(=O)c1cc2ccc([NH2+]Cc3nn[n-]n3)cc2n1C(=O)CO (3D coordinates assigned)
[NH-]C(=O)c1cc2ccc([NH2+]Cc3nn[n-]n3)cc2n1C(=O)CO (optimized conformer: 113.91395178351739 kcal/mol)

>  <smiles>  (52) 
NC(=O)c1cc2ccc(NCc3nn[nH]n3)cc2n1C(=O)CO

>  <score_type>  (52) 
oracle

>  <origin>  (52) 
adg

>  <m_score__min__energy>  (52) 
-9.0099999999999998

>  <m_primary>  (52) 
energy

$$$$
53:0
     RDKit          3D

 37 39  0  0  0  0  0  0  0  0999 V2000
   -4.1840   25.6670  -30.8240 N   0  0  0  0  0  0  0  0  0  0  0  0
   -5.5320   25.2700  -30.5620 C   0  0  0  0  0  0  0  0  0  0  0  0
   -6.3110   26.0850  -30.0020 O   0  0  0  0  0  0  0  0  0  0  0  0
   -6.0210   23.9310  -30.9630 C   0  0  0  0  0  0  0  0  0  0  0  0
   -7.3470   23.6440  -31.2880 C   0  0  0  0  0  0  0  0  0  0  0  0
   -7.3770   22.2890  -31.5340 C   0  0  0  0  0  0  0  0  0  0  0  0
   -8.4380   21.4720  -31.9100 C   0  0  0  0  0  0  0  0  0  0  0  0
   -8.1760   20.1090  -32.1230 C   0  0  0  0  0  0  0  0  0  0  0  0
   -6.8680   19.5870  -31.9670 C   0  0  0  0  0  0  0  0  0  0  0  0
   -6.6390   18.1870  -32.2020 N   0  0  0  0  0  0  0  0  0  0  0  0
   -6.3090   17.6430  -33.5180 C   0  0  0  0  0  0  0  0  0  0  0  0
   -4.8790   17.9320  -33.9460 C   0  0  0  0  0  0  0  0  0  0  0  0
   -6.0320   18.7020  -34.5710 C   0  0  0  0  0  0  0  0  0  0  0  0
   -5.8150   20.4530  -31.5840 C   0  0  0  0  0  0  0  0  0  0  0  0
   -6.1080   21.8020  -31.3580 C   0  0  0  0  0  0  0  0  0  0  0  0
   -5.2670   22.7970  -31.0010 N   0  0  0  0  0  0  0  0  0  0  0  0
   -3.8490   22.6930  -30.7820 C   0  0  0  0  0  0  0  0  0  0  0  0
   -3.0610   22.7970  -31.7590 O   0  0  0  0  0  0  0  0  0  0  0  0
   -3.2980   22.5800  -29.3900 C   0  0  0  0  0  0  0  0  0  0  0  0
   -1.8770   23.6940  -29.1420 P   0  0  0  0  0  0  0  0  0  0  0  0
   -0.7620   23.3140  -30.0900 O   0  0  0  0  0  0  0  0  0  0  0  0
   -1.3170   23.5830  -27.5500 O   0  0  0  0  0  0  0  0  0  0  0  0
   -2.3560   25.2850  -29.4560 O   0  0  0  0  0  0  0  0  0  0  0  0
   -3.4870   25.0020  -31.2260 H   0  0  0  0  0  0  0  0  0  0  0  0
   -3.8640   26.6280  -30.5710 H   0  0  0  0  0  0  0  0  0  0  0  0
   -8.1894   24.3497  -31.3373 H   0  0  0  0  0  0  0  0  0  0  0  0
   -9.4512   21.8810  -32.0366 H   0  0  0  0  0  0  0  0  0  0  0  0
   -8.9970   19.4376  -32.4148 H   0  0  0  0  0  0  0  0  0  0  0  0
   -6.6220   17.5350  -31.3840 H   0  0  0  0  0  0  0  0  0  0  0  0
   -6.9465   16.7481  -33.4651 H   0  0  0  0  0  0  0  0  0  0  0  0
   -4.1895   18.4388  -33.2547 H   0  0  0  0  0  0  0  0  0  0  0  0
   -4.0456   17.3279  -34.3339 H   0  0  0  0  0  0  0  0  0  0  0  0
   -6.1763   19.7660  -34.3321 H   0  0  0  0  0  0  0  0  0  0  0  0
   -6.3779   18.8858  -35.5989 H   0  0  0  0  0  0  0  0  0  0  0  0
   -4.7893   20.0732  -31.4668 H   0  0  0  0  0  0  0  0  0  0  0  0
   -4.0877   22.8423  -28.6706 H   0  0  0  0  0  0  0  0  0  0  0  0
   -2.9566   21.5456  -29.2367 H   0  0  0  0  0  0  0  0  0  0  0  0
  1  2  1  0
  2  3  2  0
  2  4  1  0
  4  5  2  0
  5  6  1  0
  6  7  2  0
  7  8  1  0
  8  9  2  0
  9 10  1  0
 10 11  1  0
 11 12  1  0
 12 13  1  0
  9 14  1  0
 14 15  2  0
 15 16  1  0
 16 17  1  0
 17 18  2  0
 17 19  1  0
 19 20  1  0
 20 21  2  0
 20 22  1  0
 20 23  1  0
 16  4  1  0
 15  6  1  0
 13 11  1  0
  1 24  1  0
  1 25  1  0
  5 26  1  0
  7 27  1  0
  8 28  1  0
 10 29  1  0
 11 30  1  0
 12 31  1  0
 12 32  1  0
 13 33  1  0
 13 34  1  0
 14 35  1  0
 19 36  1  0
 19 37  1  0
M  CHG  2  22  -1  23  -1
M  END
>  <UniqueID>  (53) 
52

>  <SMILES>  (53) 
NC(=O)c1cc2ccc(NC3CC3)cc2n1C(=O)CP(=O)([O-])[O-]

>  <Energy>  (53) 
336.8305632051538

>  <Genealogy>  (53) 
NC(=O)c1cc2ccc(NC3CC3)cc2n1C(=O)CP(=O)([O-])[O-] (protonated)
NC(=O)c1cc2ccc(NC3CC3)cc2n1C(=O)CP(=O)([O-])[O-] (3D coordinates assigned)
NC(=O)c1cc2ccc(NC3CC3)cc2n1C(=O)CP(=O)([O-])[O-] (nonaromatic ring conformer: 336.8305632051538 kcal/mol)

>  <smiles>  (53) 
NC(=O)c1cc2ccc(NC3CC3)cc2n1C(=O)CP(=O)(O)O

>  <score_type>  (53) 
oracle

>  <origin>  (53) 
adg

>  <m_score__min__energy>  (53) 
-12.35

>  <m_primary>  (53) 
energy

$$$$
54:0
     RDKit          3D

 44 45  0  0  0  0  0  0  0  0999 V2000
    1.3370   24.0300  -27.3430 C   0  0  0  0  0  0  0  0  0  0  0  0
    0.5790   24.9310  -28.1390 O   0  0  0  0  0  0  0  0  0  0  0  0
   -0.8180   24.9180  -28.1720 C   0  0  0  0  0  0  0  0  0  0  0  0
   -1.4520   25.6840  -28.9480 O   0  0  0  0  0  0  0  0  0  0  0  0
   -1.5640   24.0050  -27.2510 C   0  0  0  0  0  0  0  0  0  0  0  0
   -2.0920   22.8340  -27.9700 N   0  0  0  0  0  0  0  0  0  0  0  0
   -3.3690   22.2460  -27.5550 C   0  0  0  0  0  0  0  0  0  0  0  0
   -1.3370   22.1740  -29.0110 C   0  0  0  0  0  0  0  0  0  0  0  0
   -0.3890   21.4030  -28.6970 O   0  0  0  0  0  0  0  0  0  0  0  0
   -1.6830   22.3210  -30.4690 C   0  0  0  0  0  0  0  0  0  0  0  0
   -2.9100   23.0200  -30.6420 O   0  0  0  0  0  0  0  0  0  0  0  0
   -3.8600   22.6940  -31.6140 C   0  0  0  0  0  0  0  0  0  0  0  0
   -3.4980   22.2350  -32.7310 O   0  0  0  0  0  0  0  0  0  0  0  0
   -5.2540   22.8800  -31.3270 N   0  0  0  0  0  0  0  0  0  0  0  0
   -5.8750   24.0090  -30.8810 C   0  0  0  0  0  0  0  0  0  0  0  0
   -5.2090   25.2610  -30.4660 C   0  0  0  0  0  0  0  0  0  0  0  0
   -3.8660   25.5400  -30.8510 N   0  0  0  0  0  0  0  0  0  0  0  0
   -5.8170   26.0730  -29.7180 O   0  0  0  0  0  0  0  0  0  0  0  0
   -7.2470   23.7960  -30.7620 C   0  0  0  0  0  0  0  0  0  0  0  0
   -7.4450   22.4850  -31.1330 C   0  0  0  0  0  0  0  0  0  0  0  0
   -8.6210   21.7440  -31.2020 C   0  0  0  0  0  0  0  0  0  0  0  0
   -8.5340   20.4110  -31.6380 C   0  0  0  0  0  0  0  0  0  0  0  0
   -7.2830   19.8420  -31.9880 C   0  0  0  0  0  0  0  0  0  0  0  0
   -7.2270   18.4280  -32.5090 C   0  0  0  0  0  0  0  0  0  0  0  0
   -6.8650   18.4250  -33.8440 F   0  0  0  0  0  0  0  0  0  0  0  0
   -6.2910   17.7130  -31.7860 F   0  0  0  0  0  0  0  0  0  0  0  0
   -8.4570   17.8020  -32.3920 F   0  0  0  0  0  0  0  0  0  0  0  0
   -6.1140   20.6350  -31.9230 C   0  0  0  0  0  0  0  0  0  0  0  0
   -6.2280   21.9540  -31.4670 C   0  0  0  0  0  0  0  0  0  0  0  0
    1.1586   24.2420  -26.2785 H   0  0  0  0  0  0  0  0  0  0  0  0
    1.0322   22.9971  -27.5672 H   0  0  0  0  0  0  0  0  0  0  0  0
    2.4068   24.1535  -27.5672 H   0  0  0  0  0  0  0  0  0  0  0  0
   -0.8833   23.6616  -26.4581 H   0  0  0  0  0  0  0  0  0  0  0  0
   -2.4115   24.5606  -26.8230 H   0  0  0  0  0  0  0  0  0  0  0  0
   -3.4217   22.2217  -26.4565 H   0  0  0  0  0  0  0  0  0  0  0  0
   -4.1974   22.8533  -27.9485 H   0  0  0  0  0  0  0  0  0  0  0  0
   -3.4461   21.2217  -27.9485 H   0  0  0  0  0  0  0  0  0  0  0  0
   -0.8795   22.8777  -30.9734 H   0  0  0  0  0  0  0  0  0  0  0  0
   -1.7923   21.3160  -30.9026 H   0  0  0  0  0  0  0  0  0  0  0  0
   -3.0610   25.1800  -30.2920 H   0  0  0  0  0  0  0  0  0  0  0  0
   -8.0093   24.5208  -30.4402 H   0  0  0  0  0  0  0  0  0  0  0  0
   -9.5883   22.1879  -30.9239 H   0  0  0  0  0  0  0  0  0  0  0  0
   -9.4470   19.8016  -31.7087 H   0  0  0  0  0  0  0  0  0  0  0  0
   -5.1383   20.2254  -32.2235 H   0  0  0  0  0  0  0  0  0  0  0  0
  1  2  1  0
  2  3  1  0
  3  4  2  0
  3  5  1  0
  5  6  1  0
  6  7  1  0
  6  8  1  0
  8  9  2  0
  8 10  1  0
 10 11  1  0
 11 12  1  0
 12 13  2  0
 12 14  1  0
 14 15  1  0
 15 16  1  0
 16 17  1  0
 16 18  2  0
 15 19  2  0
 19 20  1  0
 20 21  2  0
 21 22  1  0
 22 23  2  0
 23 24  1  0
 24 25  1  0
 24 26  1  0
 24 27  1  0
 23 28  1  0
 28 29  2  0
 29 14  1  0
 29 20  1  0
  1 30  1  0
  1 31  1  0
  1 32  1  0
  5 33  1  0
  5 34  1  0
  7 35  1  0
  7 36  1  0
  7 37  1  0
 10 38  1  0
 10 39  1  0
 17 40  1  0
 19 41  1  0
 21 42  1  0
 22 43  1  0
 28 44  1  0
M  CHG  1  17  -1
M  END
>  <UniqueID>  (54) 
53

>  <SMILES>  (54) 
COC(=O)CN(C)C(=O)COC(=O)n1c(C([NH-])=O)cc2ccc(C(F)(F)F)cc21

>  <Energy>  (54) 
76.15086774178603

>  <Genealogy>  (54) 
COC(=O)CN(C)C(=O)COC(=O)n1c(C([NH-])=O)cc2ccc(C(F)(F)F)cc21 (protonated)
COC(=O)CN(C)C(=O)COC(=O)n1c(C([NH-])=O)cc2ccc(C(F)(F)F)cc21 (3D coordinates assigned)
COC(=O)CN(C)C(=O)COC(=O)n1c(C([NH-])=O)cc2ccc(C(F)(F)F)cc21 (optimized conformer: 76.15086774178603 kcal/mol)

>  <smiles>  (54) 
COC(=O)CN(C)C(=O)COC(=O)n1c(C(N)=O)cc2ccc(C(F)(F)F)cc21

>  <score_type>  (54) 
oracle

>  <origin>  (54) 
adg

>  <m_score__min__energy>  (54) 
-10.32

>  <m_primary>  (54) 
energy

$$$$
55:0
     RDKit          3D

 44 46  0  0  0  0  0  0  0  0999 V2000
   -4.2390   25.5660  -30.7680 N   0  0  0  0  0  0  0  0  0  0  0  0
   -5.6000   25.2120  -30.5200 C   0  0  0  0  0  0  0  0  0  0  0  0
   -6.3210   25.9800  -29.8290 O   0  0  0  0  0  0  0  0  0  0  0  0
   -6.1600   23.9330  -31.0030 C   0  0  0  0  0  0  0  0  0  0  0  0
   -7.5260   23.6710  -31.0730 C   0  0  0  0  0  0  0  0  0  0  0  0
   -7.6230   22.3690  -31.5050 C   0  0  0  0  0  0  0  0  0  0  0  0
   -8.7530   21.5950  -31.7630 C   0  0  0  0  0  0  0  0  0  0  0  0
   -8.5590   20.2880  -32.2390 C   0  0  0  0  0  0  0  0  0  0  0  0
   -7.2540   19.7910  -32.4550 C   0  0  0  0  0  0  0  0  0  0  0  0
   -7.0720   18.4570  -32.9600 C   0  0  0  0  0  0  0  0  0  0  0  0
   -6.9350   17.3370  -33.3850 C   0  0  0  0  0  0  0  0  0  0  0  0
   -6.7430   15.9810  -33.9030 C   0  0  0  0  0  0  0  0  0  0  0  0
   -5.3150   15.1880  -33.0890 S   0  0  0  0  0  0  0  0  0  0  0  0
   -4.1510   16.4920  -33.5060 C   0  0  0  0  0  0  0  0  0  0  0  0
   -3.3290   16.3660  -34.6320 C   0  0  0  0  0  0  0  0  0  0  0  0
   -2.4280   17.3860  -34.9590 C   0  0  0  0  0  0  0  0  0  0  0  0
   -2.3460   18.5300  -34.1600 C   0  0  0  0  0  0  0  0  0  0  0  0
   -3.1610   18.6550  -33.0310 C   0  0  0  0  0  0  0  0  0  0  0  0
   -4.0600   17.6350  -32.7010 C   0  0  0  0  0  0  0  0  0  0  0  0
   -6.1300   20.5990  -32.1860 C   0  0  0  0  0  0  0  0  0  0  0  0
   -6.3510   21.8910  -31.6920 C   0  0  0  0  0  0  0  0  0  0  0  0
   -5.4390   22.8430  -31.3900 N   0  0  0  0  0  0  0  0  0  0  0  0
   -4.0160   22.7490  -31.5580 C   0  0  0  0  0  0  0  0  0  0  0  0
   -3.5260   22.6560  -32.7170 O   0  0  0  0  0  0  0  0  0  0  0  0
   -3.1800   22.7600  -30.4360 O   0  0  0  0  0  0  0  0  0  0  0  0
   -3.5880   23.2480  -29.1610 C   0  0  0  0  0  0  0  0  0  0  0  0
   -2.6170   24.2690  -28.6600 C   0  0  0  0  0  0  0  0  0  0  0  0
   -2.3620   25.2910  -29.3480 O   0  0  0  0  0  0  0  0  0  0  0  0
   -1.9730   24.0800  -27.4430 O   0  0  0  0  0  0  0  0  0  0  0  0
   -3.5690   24.8810  -31.1850 H   0  0  0  0  0  0  0  0  0  0  0  0
   -3.8740   26.4930  -30.4570 H   0  0  0  0  0  0  0  0  0  0  0  0
   -8.3508   24.3584  -30.8339 H   0  0  0  0  0  0  0  0  0  0  0  0
   -9.7645   21.9950  -31.5990 H   0  0  0  0  0  0  0  0  0  0  0  0
   -9.4288   19.6469  -32.4450 H   0  0  0  0  0  0  0  0  0  0  0  0
   -7.6479   15.3866  -33.7081 H   0  0  0  0  0  0  0  0  0  0  0  0
   -6.5533   16.0350  -34.9852 H   0  0  0  0  0  0  0  0  0  0  0  0
   -3.3912   15.4651  -35.2601 H   0  0  0  0  0  0  0  0  0  0  0  0
   -1.7840   17.2873  -35.8453 H   0  0  0  0  0  0  0  0  0  0  0  0
   -1.6398   19.3324  -34.4197 H   0  0  0  0  0  0  0  0  0  0  0  0
   -3.0955   19.5552  -32.4022 H   0  0  0  0  0  0  0  0  0  0  0  0
   -4.6960   17.7306  -31.8086 H   0  0  0  0  0  0  0  0  0  0  0  0
   -5.1098   20.2257  -32.3590 H   0  0  0  0  0  0  0  0  0  0  0  0
   -4.5836   23.7073  -29.2500 H   0  0  0  0  0  0  0  0  0  0  0  0
   -3.6219   22.4084  -28.4511 H   0  0  0  0  0  0  0  0  0  0  0  0
  1  2  1  0
  2  3  2  0
  2  4  1  0
  4  5  2  0
  5  6  1  0
  6  7  2  0
  7  8  1  0
  8  9  2  0
  9 10  1  0
 10 11  3  0
 11 12  1  0
 12 13  1  0
 13 14  1  0
 14 15  2  0
 15 16  1  0
 16 17  2  0
 17 18  1  0
 18 19  2  0
  9 20  1  0
 20 21  2  0
 21 22  1  0
 22 23  1  0
 23 24  2  0
 23 25  1  0
 25 26  1  0
 26 27  1  0
 27 28  2  0
 27 29  1  0
 22  4  1  0
 21  6  1  0
 19 14  1  0
  1 30  1  0
  1 31  1  0
  5 32  1  0
  7 33  1  0
  8 34  1  0
 12 35  1  0
 12 36  1  0
 15 37  1  0
 16 38  1  0
 17 39  1  0
 18 40  1  0
 19 41  1  0
 20 42  1  0
 26 43  1  0
 26 44  1  0
M  CHG  1  29  -1
M  END
>  <UniqueID>  (55) 
54

>  <SMILES>  (55) 
NC(=O)c1cc2ccc(C#CCSc3ccccc3)cc2n1C(=O)OCC(=O)[O-]

>  <Energy>  (55) 
74.48615816301752

>  <Genealogy>  (55) 
NC(=O)c1cc2ccc(C#CCSc3ccccc3)cc2n1C(=O)OCC(=O)[O-] (protonated)
NC(=O)c1cc2ccc(C#CCSc3ccccc3)cc2n1C(=O)OCC(=O)[O-] (3D coordinates assigned)
NC(=O)c1cc2ccc(C#CCSc3ccccc3)cc2n1C(=O)OCC(=O)[O-] (optimized conformer: 74.48615816301752 kcal/mol)

>  <smiles>  (55) 
NC(=O)c1cc2ccc(C#CCSc3ccccc3)cc2n1C(=O)OCC(=O)O

>  <score_type>  (55) 
oracle

>  <origin>  (55) 
adg

>  <m_score__min__energy>  (55) 
-11.31

>  <m_primary>  (55) 
energy

$$$$
56:0
     RDKit          3D

 58 59  0  0  0  0  0  0  0  0999 V2000
   -3.4530   18.7760  -26.0780 C   0  0  0  0  0  0  0  0  0  0  0  0
   -2.3090   19.0220  -26.7260 C   0  0  0  0  0  0  0  0  0  0  0  0
   -1.8610   20.4240  -27.0430 C   0  0  0  0  0  0  0  0  0  0  0  0
   -2.9700   21.2170  -27.4620 O   0  0  0  0  0  0  0  0  0  0  0  0
   -2.8580   22.5680  -27.8190 C   0  0  0  0  0  0  0  0  0  0  0  0
   -3.4670   23.4510  -27.1500 O   0  0  0  0  0  0  0  0  0  0  0  0
   -1.9330   22.9630  -28.9430 C   0  0  2  0  0  0  0  0  0  0  0  0
   -1.9210   24.4150  -29.1680 N   0  0  0  0  0  0  0  0  0  0  0  0
   -0.9730   25.3560  -28.6460 C   0  0  0  0  0  0  0  0  0  0  0  0
   -1.2360   26.5890  -28.6450 O   0  0  0  0  0  0  0  0  0  0  0  0
    0.2330   24.8730  -28.1190 O   0  0  0  0  0  0  0  0  0  0  0  0
    0.4340   24.3510  -26.7970 C   0  0  0  0  0  0  0  0  0  0  0  0
   -0.7560   24.7160  -25.8880 C   0  0  0  0  0  0  0  0  0  0  0  0
    0.6400   22.8210  -26.8350 C   0  0  0  0  0  0  0  0  0  0  0  0
    1.7060   25.0070  -26.2360 C   0  0  0  0  0  0  0  0  0  0  0  0
   -2.2160   22.1790  -30.2150 C   0  0  0  0  0  0  0  0  0  0  0  0
   -1.4340   22.2940  -31.1500 O   0  0  0  0  0  0  0  0  0  0  0  0
   -3.4460   21.3030  -30.3670 C   0  0  0  0  0  0  0  0  0  0  0  0
   -4.3220   21.7200  -31.5190 C   0  0  0  0  0  0  0  0  0  0  0  0
   -3.9030   21.5600  -32.6990 O   0  0  0  0  0  0  0  0  0  0  0  0
   -5.6040   22.3340  -31.2970 N   0  0  0  0  0  0  0  0  0  0  0  0
   -5.8680   23.5820  -30.8140 C   0  0  0  0  0  0  0  0  0  0  0  0
   -4.8730   24.5350  -30.2800 C   0  0  0  0  0  0  0  0  0  0  0  0
   -4.6260   24.6430  -28.8780 N   0  0  0  0  0  0  0  0  0  0  0  0
   -4.2600   25.2980  -31.0730 O   0  0  0  0  0  0  0  0  0  0  0  0
   -7.2360   23.8390  -30.8400 C   0  0  0  0  0  0  0  0  0  0  0  0
   -7.8130   22.6930  -31.3380 C   0  0  0  0  0  0  0  0  0  0  0  0
   -9.1510   22.3960  -31.5790 C   0  0  0  0  0  0  0  0  0  0  0  0
   -9.4580   21.1350  -32.1190 C   0  0  0  0  0  0  0  0  0  0  0  0
   -8.4300   20.2080  -32.4160 C   0  0  0  0  0  0  0  0  0  0  0  0
   -8.7550   18.9350  -32.9810 N   0  0  0  0  0  0  0  0  0  0  0  0
   -7.0830   20.5460  -32.1630 C   0  0  0  0  0  0  0  0  0  0  0  0
   -6.8070   21.8000  -31.6050 C   0  0  0  0  0  0  0  0  0  0  0  0
   -3.7509   17.7393  -25.8622 H   0  0  0  0  0  0  0  0  0  0  0  0
   -4.0959   19.6104  -25.7609 H   0  0  0  0  0  0  0  0  0  0  0  0
   -1.6778   18.1762  -27.0360 H   0  0  0  0  0  0  0  0  0  0  0  0
   -1.4129   20.8733  -26.1445 H   0  0  0  0  0  0  0  0  0  0  0  0
   -1.1210   20.3871  -27.8560 H   0  0  0  0  0  0  0  0  0  0  0  0
   -0.9145   22.6917  -28.6284 H   0  0  0  0  0  0  0  0  0  0  0  0
   -0.4543   24.6235  -24.8342 H   0  0  0  0  0  0  0  0  0  0  0  0
   -1.0681   25.7512  -26.0905 H   0  0  0  0  0  0  0  0  0  0  0  0
   -1.5948   24.0338  -26.0905 H   0  0  0  0  0  0  0  0  0  0  0  0
    0.6923   22.4324  -25.8072 H   0  0  0  0  0  0  0  0  0  0  0  0
   -0.2029   22.3505  -27.3624 H   0  0  0  0  0  0  0  0  0  0  0  0
    1.5773   22.5902  -27.3624 H   0  0  0  0  0  0  0  0  0  0  0  0
    1.6730   24.9900  -25.1366 H   0  0  0  0  0  0  0  0  0  0  0  0
    2.5893   24.4520  -26.5850 H   0  0  0  0  0  0  0  0  0  0  0  0
    1.7659   26.0485  -26.5850 H   0  0  0  0  0  0  0  0  0  0  0  0
   -3.1201   20.2653  -30.5312 H   0  0  0  0  0  0  0  0  0  0  0  0
   -4.0398   21.4040  -29.4465 H   0  0  0  0  0  0  0  0  0  0  0  0
   -3.8720   25.2770  -28.5310 H   0  0  0  0  0  0  0  0  0  0  0  0
   -5.2540   24.1920  -28.1720 H   0  0  0  0  0  0  0  0  0  0  0  0
   -7.7472   24.7619  -30.5287 H   0  0  0  0  0  0  0  0  0  0  0  0
   -9.9434   23.1250  -31.3540 H   0  0  0  0  0  0  0  0  0  0  0  0
  -10.5069   20.8659  -32.3126 H   0  0  0  0  0  0  0  0  0  0  0  0
   -8.4450   18.0520  -32.5190 H   0  0  0  0  0  0  0  0  0  0  0  0
   -9.3380   18.8680  -33.8440 H   0  0  0  0  0  0  0  0  0  0  0  0
   -6.2710   19.8422  -32.3982 H   0  0  0  0  0  0  0  0  0  0  0  0
  1  2  2  0
  2  3  1  0
  3  4  1  0
  4  5  1  0
  5  6  2  0
  5  7  1  0
  7  8  1  0
  8  9  1  0
  9 10  2  0
  9 11  1  0
 11 12  1  0
 12 13  1  0
 12 14  1  0
 12 15  1  0
  7 16  1  0
 16 17  2  0
 16 18  1  0
 18 19  1  0
 19 20  2  0
 19 21  1  0
 21 22  1  0
 22 23  1  0
 23 24  1  0
 23 25  2  0
 22 26  2  0
 26 27  1  0
 27 28  2  0
 28 29  1  0
 29 30  2  0
 30 31  1  0
 30 32  1  0
 32 33  2  0
 33 21  1  0
 33 27  1  0
  1 34  1  0
  1 35  1  0
  2 36  1  0
  3 37  1  0
  3 38  1  0
  7 39  1  1
 13 40  1  0
 13 41  1  0
 13 42  1  0
 14 43  1  0
 14 44  1  0
 14 45  1  0
 15 46  1  0
 15 47  1  0
 15 48  1  0
 18 49  1  0
 18 50  1  0
 24 51  1  0
 24 52  1  0
 26 53  1  0
 28 54  1  0
 29 55  1  0
 31 56  1  0
 31 57  1  0
 32 58  1  0
M  CHG  1   8  -1
M  END
>  <UniqueID>  (56) 
55

>  <SMILES>  (56) 
C=CCOC(=O)[C@H]([N-]C(=O)OC(C)(C)C)C(=O)CC(=O)n1c(C(N)=O)cc2ccc(N)cc21

>  <Energy>  (56) 
90.57462362591978

>  <Genealogy>  (56) 
C=CCOC(=O)C([N-]C(=O)OC(C)(C)C)C(=O)CC(=O)n1c(C(N)=O)cc2ccc(N)cc21 (protonated)
C=CCOC(=O)[C@H]([N-]C(=O)OC(C)(C)C)C(=O)CC(=O)n1c(C(N)=O)cc2ccc(N)cc21 (chirality)
C=CCOC(=O)[C@H]([N-]C(=O)OC(C)(C)C)C(=O)CC(=O)n1c(C(N)=O)cc2ccc(N)cc21 (3D coordinates assigned)
C=CCOC(=O)[C@H]([N-]C(=O)OC(C)(C)C)C(=O)CC(=O)n1c(C(N)=O)cc2ccc(N)cc21 (optimized conformer: 90.57462362591978 kcal/mol)

>  <smiles>  (56) 
C=CCOC(=O)C(NC(=O)OC(C)(C)C)C(=O)CC(=O)n1c(C(N)=O)cc2ccc(N)cc21

>  <score_type>  (56) 
oracle

>  <origin>  (56) 
adg

>  <m_score__min__energy>  (56) 
-10.82

>  <m_primary>  (56) 
energy

$$$$
57:0
     RDKit          3D

 42 43  0  0  0  0  0  0  0  0999 V2000
   -2.9250   23.4980  -30.6910 N   0  0  0  0  0  0  0  0  0  0  0  0
   -4.2240   24.0590  -30.8700 C   0  0  0  0  0  0  0  0  0  0  0  0
   -4.3820   25.3040  -30.7530 O   0  0  0  0  0  0  0  0  0  0  0  0
   -5.3980   23.1990  -31.1150 C   0  0  0  0  0  0  0  0  0  0  0  0
   -6.6950   23.5660  -30.7670 C   0  0  0  0  0  0  0  0  0  0  0  0
   -7.4760   22.4790  -31.0850 C   0  0  0  0  0  0  0  0  0  0  0  0
   -8.8510   22.3070  -30.9690 C   0  0  0  0  0  0  0  0  0  0  0  0
   -9.4030   21.0950  -31.4110 C   0  0  0  0  0  0  0  0  0  0  0  0
   -8.5770   20.0760  -31.9520 C   0  0  0  0  0  0  0  0  0  0  0  0
   -9.1930   18.8000  -32.4700 C   0  0  0  0  0  0  0  0  0  0  0  0
   -8.2370   18.0180  -33.0960 F   0  0  0  0  0  0  0  0  0  0  0  0
  -10.1940   19.0760  -33.3860 F   0  0  0  0  0  0  0  0  0  0  0  0
   -9.7330   18.0930  -31.4130 F   0  0  0  0  0  0  0  0  0  0  0  0
   -7.1870   20.3010  -32.0830 C   0  0  0  0  0  0  0  0  0  0  0  0
   -6.6580   21.5120  -31.6120 C   0  0  0  0  0  0  0  0  0  0  0  0
   -5.3750   21.9420  -31.6420 N   0  0  0  0  0  0  0  0  0  0  0  0
   -4.2540   21.2650  -32.2410 C   0  0  0  0  0  0  0  0  0  0  0  0
   -3.8200   21.6330  -33.3650 O   0  0  0  0  0  0  0  0  0  0  0  0
   -3.6150   20.1890  -31.5450 N   0  0  0  0  0  0  0  0  0  0  0  0
   -2.2060   19.8340  -31.6890 C   0  0  0  0  0  0  0  0  0  0  0  0
   -1.4500   20.8750  -32.5220 C   0  0  0  0  0  0  0  0  0  0  0  0
   -0.3170   21.4830  -31.7560 C   0  0  0  0  0  0  0  0  0  0  0  0
    0.8650   21.0970  -31.9680 O   0  0  0  0  0  0  0  0  0  0  0  0
   -0.5830   22.4810  -30.8130 O   0  0  0  0  0  0  0  0  0  0  0  0
   -0.5080   22.2520  -29.4110 C   0  0  0  0  0  0  0  0  0  0  0  0
   -1.5580   22.9470  -28.7860 O   0  0  0  0  0  0  0  0  0  0  0  0
   -0.9800   24.4790  -28.3120 P   0  0  0  0  0  0  0  0  0  0  0  0
   -1.4200   24.7570  -26.8930 O   0  0  0  0  0  0  0  0  0  0  0  0
    0.7110   24.5310  -28.3880 O   0  0  0  0  0  0  0  0  0  0  0  0
   -1.6220   25.6670  -29.3330 O   0  0  0  0  0  0  0  0  0  0  0  0
   -2.1000   24.1200  -30.5460 H   0  0  0  0  0  0  0  0  0  0  0  0
   -2.7960   22.4660  -30.6080 H   0  0  0  0  0  0  0  0  0  0  0  0
   -7.0247   24.5206  -30.3311 H   0  0  0  0  0  0  0  0  0  0  0  0
   -9.4869   23.0973  -30.5435 H   0  0  0  0  0  0  0  0  0  0  0  0
  -10.4885   20.9330  -31.3372 H   0  0  0  0  0  0  0  0  0  0  0  0
   -6.5355   19.5438  -32.5437 H   0  0  0  0  0  0  0  0  0  0  0  0
   -1.7482   19.7734  -30.6906 H   0  0  0  0  0  0  0  0  0  0  0  0
   -2.1439   18.8651  -32.2060 H   0  0  0  0  0  0  0  0  0  0  0  0
   -1.0496   20.3875  -33.4231 H   0  0  0  0  0  0  0  0  0  0  0  0
   -2.1538   21.6779  -32.7867 H   0  0  0  0  0  0  0  0  0  0  0  0
   -0.6024   21.1754  -29.2058 H   0  0  0  0  0  0  0  0  0  0  0  0
    0.4592   22.6052  -29.0239 H   0  0  0  0  0  0  0  0  0  0  0  0
  1  2  1  0
  2  3  2  0
  2  4  1  0
  4  5  2  0
  5  6  1  0
  6  7  2  0
  7  8  1  0
  8  9  2  0
  9 10  1  0
 10 11  1  0
 10 12  1  0
 10 13  1  0
  9 14  1  0
 14 15  2  0
 15 16  1  0
 16 17  1  0
 17 18  2  0
 17 19  1  0
 19 20  1  0
 20 21  1  0
 21 22  1  0
 22 23  2  0
 22 24  1  0
 24 25  1  0
 25 26  1  0
 26 27  1  0
 27 28  2  0
 27 29  1  0
 27 30  1  0
 16  4  1  0
 15  6  1  0
  1 31  1  0
  1 32  1  0
  5 33  1  0
  7 34  1  0
  8 35  1  0
 14 36  1  0
 20 37  1  0
 20 38  1  0
 21 39  1  0
 21 40  1  0
 25 41  1  0
 25 42  1  0
M  CHG  3  19  -1  29  -1  30  -1
M  END
>  <UniqueID>  (57) 
56

>  <SMILES>  (57) 
NC(=O)c1cc2ccc(C(F)(F)F)cc2n1C(=O)[N-]CCC(=O)OCOP(=O)([O-])[O-]

>  <Energy>  (57) 
74.56615747493741

>  <Genealogy>  (57) 
NC(=O)c1cc2ccc(C(F)(F)F)cc2n1C(=O)[N-]CCC(=O)OCOP(=O)([O-])[O-] (protonated)
NC(=O)c1cc2ccc(C(F)(F)F)cc2n1C(=O)[N-]CCC(=O)OCOP(=O)([O-])[O-] (3D coordinates assigned)
NC(=O)c1cc2ccc(C(F)(F)F)cc2n1C(=O)[N-]CCC(=O)OCOP(=O)([O-])[O-] (optimized conformer: 74.56615747493741 kcal/mol)

>  <smiles>  (57) 
NC(=O)c1cc2ccc(C(F)(F)F)cc2n1C(=O)NCCC(=O)OCOP(=O)(O)O

>  <score_type>  (57) 
oracle

>  <origin>  (57) 
adg

>  <m_score__min__energy>  (57) 
-11.699999999999999

>  <m_primary>  (57) 
energy

$$$$
58:0
     RDKit          3D

 43 45  0  0  0  0  0  0  0  0999 V2000
   -6.0800   17.4290  -34.4880 C   0  0  0  0  0  0  0  0  0  0  0  0
   -6.4000   18.3860  -33.8270 C   0  0  0  0  0  0  0  0  0  0  0  0
   -6.7820   19.5280  -33.0400 C   0  0  0  0  0  0  0  0  0  0  0  0
   -8.1400   19.7230  -32.6970 C   0  0  0  0  0  0  0  0  0  0  0  0
   -8.5280   20.8440  -31.9410 C   0  0  0  0  0  0  0  0  0  0  0  0
   -7.5360   21.7360  -31.5410 C   0  0  0  0  0  0  0  0  0  0  0  0
   -7.6410   22.9140  -30.8390 C   0  0  0  0  0  0  0  0  0  0  0  0
   -6.3400   23.3980  -30.7400 C   0  0  0  0  0  0  0  0  0  0  0  0
   -5.9870   24.6260  -30.0020 C   0  0  0  0  0  0  0  0  0  0  0  0
   -4.7600   24.7260  -29.2790 N   0  0  0  0  0  0  0  0  0  0  0  0
   -6.8080   25.5820  -29.9600 O   0  0  0  0  0  0  0  0  0  0  0  0
   -5.4640   22.5630  -31.3650 N   0  0  0  0  0  0  0  0  0  0  0  0
   -4.0580   22.7710  -31.5840 C   0  0  0  0  0  0  0  0  0  0  0  0
   -3.5170   23.8510  -31.2200 O   0  0  0  0  0  0  0  0  0  0  0  0
   -3.2960   21.7760  -32.2080 O   0  0  0  0  0  0  0  0  0  0  0  0
   -2.8600   20.5890  -31.5490 C   0  0  0  0  0  0  0  0  0  0  0  0
   -1.4790   20.7460  -30.9930 C   0  0  0  0  0  0  0  0  0  0  0  0
   -0.6150   21.3790  -31.6570 O   0  0  0  0  0  0  0  0  0  0  0  0
   -1.1460   20.1660  -29.7620 O   0  0  0  0  0  0  0  0  0  0  0  0
   -1.5650   20.6980  -28.5080 C   0  0  0  0  0  0  0  0  0  0  0  0
   -1.4020   22.1880  -28.4930 C   0  0  0  0  0  0  0  0  0  0  0  0
   -2.3080   23.0370  -28.9180 O   0  0  0  0  0  0  0  0  0  0  0  0
   -1.7940   24.2320  -28.7370 C   0  0  0  0  0  0  0  0  0  0  0  0
   -2.3890   25.2990  -29.0390 O   0  0  0  0  0  0  0  0  0  0  0  0
   -0.5920   24.1910  -28.2100 O   0  0  0  0  0  0  0  0  0  0  0  0
   -0.3170   22.9190  -28.0430 C   0  0  0  0  0  0  0  0  0  0  0  0
    0.9570   22.3940  -27.4670 C   0  0  0  0  0  0  0  0  0  0  0  0
   -6.2120   21.5460  -31.8500 C   0  0  0  0  0  0  0  0  0  0  0  0
   -5.8030   20.4500  -32.6210 C   0  0  0  0  0  0  0  0  0  0  0  0
   -5.7882   16.5563  -35.0907 H   0  0  0  0  0  0  0  0  0  0  0  0
   -8.8968   18.9943  -33.0231 H   0  0  0  0  0  0  0  0  0  0  0  0
   -9.5820   21.0109  -31.6741 H   0  0  0  0  0  0  0  0  0  0  0  0
   -8.5571   23.3749  -30.4410 H   0  0  0  0  0  0  0  0  0  0  0  0
   -4.1370   23.8970  -29.1600 H   0  0  0  0  0  0  0  0  0  0  0  0
   -4.5170   25.6120  -28.7820 H   0  0  0  0  0  0  0  0  0  0  0  0
   -3.5532   20.3621  -30.7256 H   0  0  0  0  0  0  0  0  0  0  0  0
   -2.8450   19.7714  -32.2847 H   0  0  0  0  0  0  0  0  0  0  0  0
   -2.6233   20.4473  -28.3431 H   0  0  0  0  0  0  0  0  0  0  0  0
   -0.9452   20.2627  -27.7102 H   0  0  0  0  0  0  0  0  0  0  0  0
    0.9000   22.4175  -26.3687 H   0  0  0  0  0  0  0  0  0  0  0  0
    1.1125   21.3585  -27.8040 H   0  0  0  0  0  0  0  0  0  0  0  0
    1.7969   23.0193  -27.8040 H   0  0  0  0  0  0  0  0  0  0  0  0
   -4.7457   20.3132  -32.8919 H   0  0  0  0  0  0  0  0  0  0  0  0
  1  2  3  0
  2  3  1  0
  3  4  2  0
  4  5  1  0
  5  6  2  0
  6  7  1  0
  7  8  2  0
  8  9  1  0
  9 10  1  0
  9 11  2  0
  8 12  1  0
 12 13  1  0
 13 14  2  0
 13 15  1  0
 15 16  1  0
 16 17  1  0
 17 18  2  0
 17 19  1  0
 19 20  1  0
 20 21  1  0
 21 22  1  0
 22 23  1  0
 23 24  2  0
 23 25  1  0
 25 26  1  0
 26 27  1  0
 12 28  1  0
 28 29  2  0
 29  3  1  0
 28  6  1  0
 26 21  2  0
  1 30  1  0
  4 31  1  0
  5 32  1  0
  7 33  1  0
 10 34  1  0
 10 35  1  0
 16 36  1  0
 16 37  1  0
 20 38  1  0
 20 39  1  0
 27 40  1  0
 27 41  1  0
 27 42  1  0
 29 43  1  0
M  END
>  <UniqueID>  (58) 
57

>  <SMILES>  (58) 
C#Cc1ccc2cc(C(N)=O)n(C(=O)OCC(=O)OCc3oc(=O)oc3C)c2c1

>  <Energy>  (58) 
109.08696458136527

>  <Genealogy>  (58) 
C#Cc1ccc2cc(C(N)=O)n(C(=O)OCC(=O)OCc3oc(=O)oc3C)c2c1 (3D coordinates assigned)
C#Cc1ccc2cc(C(N)=O)n(C(=O)OCC(=O)OCc3oc(=O)oc3C)c2c1 (optimized conformer: 109.08696458136527 kcal/mol)

>  <smiles>  (58) 
C#Cc1ccc2cc(C(N)=O)n(C(=O)OCC(=O)OCc3oc(=O)oc3C)c2c1

>  <score_type>  (58) 
oracle

>  <origin>  (58) 
adg

>  <m_score__min__energy>  (58) 
-9.25

>  <m_primary>  (58) 
energy

$$$$
59:0
     RDKit          3D

 50 52  0  0  0  0  0  0  0  0999 V2000
   -7.6870   18.5180  -32.6110 C   0  0  0  0  0  0  0  0  0  0  0  0
   -7.6550   19.8960  -32.0300 C   0  0  0  0  0  0  0  0  0  0  0  0
   -8.7860   20.4020  -31.3450 C   0  0  0  0  0  0  0  0  0  0  0  0
   -8.7600   21.6860  -30.7760 C   0  0  0  0  0  0  0  0  0  0  0  0
   -7.5880   22.4280  -30.8920 C   0  0  0  0  0  0  0  0  0  0  0  0
   -7.3040   23.7040  -30.4600 C   0  0  0  0  0  0  0  0  0  0  0  0
   -5.9900   23.9400  -30.8520 C   0  0  0  0  0  0  0  0  0  0  0  0
   -5.2420   25.1610  -30.4950 C   0  0  0  0  0  0  0  0  0  0  0  0
   -3.8680   25.3070  -30.8410 N   0  0  0  0  0  0  0  0  0  0  0  0
   -5.8050   26.0600  -29.8160 O   0  0  0  0  0  0  0  0  0  0  0  0
   -5.4830   22.8590  -31.5110 N   0  0  0  0  0  0  0  0  0  0  0  0
   -4.2190   22.7660  -32.1830 C   0  0  0  0  0  0  0  0  0  0  0  0
   -4.1750   22.4880  -33.4120 O   0  0  0  0  0  0  0  0  0  0  0  0
   -3.0420   22.9950  -31.4710 O   0  0  0  0  0  0  0  0  0  0  0  0
   -2.4280   22.0130  -30.6440 C   0  0  0  0  0  0  0  0  0  0  0  0
   -2.3250   22.5260  -29.2870 N   0  0  0  0  0  0  0  0  0  0  0  0
   -1.5040   22.0620  -28.3290 C   0  0  0  0  0  0  0  0  0  0  0  0
   -1.8200   22.7470  -27.1740 C   0  0  0  0  0  0  0  0  0  0  0  0
   -1.1960   22.5430  -25.8540 C   0  0  0  0  0  0  0  0  0  0  0  0
   -1.2090   21.4110  -25.3100 O   0  0  0  0  0  0  0  0  0  0  0  0
   -0.5370   23.6400  -25.2180 N   0  0  0  0  0  0  0  0  0  0  0  0
    0.3350   24.5930  -25.8940 C   0  0  0  0  0  0  0  0  0  0  0  0
   -0.4810   25.6160  -26.6990 C   0  0  0  0  0  0  0  0  0  0  0  0
   -0.5260   25.2790  -28.1580 C   0  0  0  0  0  0  0  0  0  0  0  0
   -1.5920   25.7730  -28.9600 N   0  0  0  0  0  0  0  0  0  0  0  0
    0.3440   24.5210  -28.6690 O   0  0  0  0  0  0  0  0  0  0  0  0
   -2.8150   23.6110  -27.4830 N   0  0  0  0  0  0  0  0  0  0  0  0
   -3.5070   24.5400  -26.5970 C   0  0  0  0  0  0  0  0  0  0  0  0
   -3.1180   23.4470  -28.7610 N   0  0  0  0  0  0  0  0  0  0  0  0
   -6.4740   21.9390  -31.5250 C   0  0  0  0  0  0  0  0  0  0  0  0
   -6.4790   20.6740  -32.1170 C   0  0  0  0  0  0  0  0  0  0  0  0
   -7.7042   17.7775  -31.7978 H   0  0  0  0  0  0  0  0  0  0  0  0
   -8.5881   18.4024  -33.2313 H   0  0  0  0  0  0  0  0  0  0  0  0
   -6.7923   18.3607  -33.2313 H   0  0  0  0  0  0  0  0  0  0  0  0
   -9.6923   19.7847  -31.2577 H   0  0  0  0  0  0  0  0  0  0  0  0
   -9.6390   22.0928  -30.2546 H   0  0  0  0  0  0  0  0  0  0  0  0
   -7.9730   24.3903  -29.9202 H   0  0  0  0  0  0  0  0  0  0  0  0
   -3.1210   24.8390  -30.2810 H   0  0  0  0  0  0  0  0  0  0  0  0
   -3.0376   21.0974  -30.6457 H   0  0  0  0  0  0  0  0  0  0  0  0
   -1.4236   21.7820  -31.0286 H   0  0  0  0  0  0  0  0  0  0  0  0
   -0.7313   21.2875  -28.4436 H   0  0  0  0  0  0  0  0  0  0  0  0
    0.9366   25.1250  -25.1424 H   0  0  0  0  0  0  0  0  0  0  0  0
    0.9843   24.0401  -26.5887 H   0  0  0  0  0  0  0  0  0  0  0  0
   -1.5089   25.6364  -26.3079 H   0  0  0  0  0  0  0  0  0  0  0  0
    0.0062   26.5965  -26.5929 H   0  0  0  0  0  0  0  0  0  0  0  0
   -2.0400   25.1650  -29.6840 H   0  0  0  0  0  0  0  0  0  0  0  0
   -3.3046   24.2683  -25.5505 H   0  0  0  0  0  0  0  0  0  0  0  0
   -3.1489   25.5627  -26.7861 H   0  0  0  0  0  0  0  0  0  0  0  0
   -4.5895   24.4897  -26.7861 H   0  0  0  0  0  0  0  0  0  0  0  0
   -5.5887   20.2927  -32.6385 H   0  0  0  0  0  0  0  0  0  0  0  0
  1  2  1  0
  2  3  2  0
  3  4  1  0
  4  5  2  0
  5  6  1  0
  6  7  2  0
  7  8  1  0
  8  9  1  0
  8 10  2  0
  7 11  1  0
 11 12  1  0
 12 13  2  0
 12 14  1  0
 14 15  1  0
 15 16  1  0
 16 17  1  0
 17 18  2  0
 18 19  1  0
 19 20  2  0
 19 21  1  0
 21 22  1  0
 22 23  1  0
 23 24  1  0
 24 25  1  0
 24 26  2  0
 18 27  1  0
 27 28  1  0
 27 29  1  0
 11 30  1  0
 30 31  2  0
 31  2  1  0
 30  5  1  0
 29 16  2  0
  1 32  1  0
  1 33  1  0
  1 34  1  0
  3 35  1  0
  4 36  1  0
  6 37  1  0
  9 38  1  0
 15 39  1  0
 15 40  1  0
 17 41  1  0
 22 42  1  0
 22 43  1  0
 23 44  1  0
 23 45  1  0
 25 46  1  0
 28 47  1  0
 28 48  1  0
 28 49  1  0
 31 50  1  0
M  CHG  4   9  -1  16   1  21  -1  25  -1
M  END
>  <UniqueID>  (59) 
58

>  <SMILES>  (59) 
Cc1ccc2cc(C([NH-])=O)n(C(=O)OC[n+]3cc(C(=O)[N-]CCC([NH-])=O)n(C)n3)c2c1

>  <Energy>  (59) 
119.62528832250958

>  <Genealogy>  (59) 
Cc1ccc2cc(C([NH-])=O)n(C(=O)OC[n+]3cc(C(=O)[N-]CCC([NH-])=O)n(C)n3)c2c1 (protonated)
Cc1ccc2cc(C([NH-])=O)n(C(=O)OC[n+]3cc(C(=O)[N-]CCC([NH-])=O)n(C)n3)c2c1 (3D coordinates assigned)
Cc1ccc2cc(C([NH-])=O)n(C(=O)OC[n+]3cc(C(=O)[N-]CCC([NH-])=O)n(C)n3)c2c1 (optimized conformer: 119.62528832250958 kcal/mol)

>  <smiles>  (59) 
Cc1ccc2cc(C(N)=O)n(C(=O)OC[n+]3cc(C(=O)NCCC(N)=O)n(C)n3)c2c1

>  <score_type>  (59) 
oracle

>  <origin>  (59) 
adg

>  <m_score__min__energy>  (59) 
-13.02

>  <m_primary>  (59) 
energy

$$$$
60:0
     RDKit          3D

 37 38  0  0  0  0  0  0  0  0999 V2000
   -6.4870   17.9970  -33.1870 C   0  0  0  0  0  0  0  0  0  0  0  0
   -7.8510   18.5100  -32.7350 C   0  0  0  0  0  0  0  0  0  0  0  0
   -7.7330   19.8910  -32.1500 C   0  0  0  0  0  0  0  0  0  0  0  0
   -8.8970   20.5970  -31.7590 C   0  0  0  0  0  0  0  0  0  0  0  0
   -8.8050   21.9050  -31.2560 C   0  0  0  0  0  0  0  0  0  0  0  0
   -7.5390   22.4770  -31.1550 C   0  0  0  0  0  0  0  0  0  0  0  0
   -7.1750   23.7410  -30.7580 C   0  0  0  0  0  0  0  0  0  0  0  0
   -5.7890   23.7910  -30.9030 C   0  0  0  0  0  0  0  0  0  0  0  0
   -4.9620   24.9760  -30.5710 C   0  0  0  0  0  0  0  0  0  0  0  0
   -3.6730   24.8270  -29.9710 N   0  0  0  0  0  0  0  0  0  0  0  0
   -5.3800   26.1330  -30.8350 O   0  0  0  0  0  0  0  0  0  0  0  0
   -5.3140   22.5940  -31.3540 N   0  0  0  0  0  0  0  0  0  0  0  0
   -3.9500   22.2630  -31.6760 C   0  0  0  0  0  0  0  0  0  0  0  0
   -3.5770   22.2450  -32.8780 O   0  0  0  0  0  0  0  0  0  0  0  0
   -2.7610   21.8600  -30.3860 P   0  0  1  0  0  0  0  0  0  0  0  0
   -3.4540   21.8450  -29.0410 O   0  0  0  0  0  0  0  0  0  0  0  0
   -2.1300   20.3230  -30.6960 O   0  0  0  0  0  0  0  0  0  0  0  0
   -1.4600   22.9650  -30.3500 O   0  0  0  0  0  0  0  0  0  0  0  0
   -1.0460   23.1430  -29.0170 C   0  0  0  0  0  0  0  0  0  0  0  0
   -0.6850   24.5750  -28.8140 C   0  0  0  0  0  0  0  0  0  0  0  0
    0.3760   24.8830  -28.2090 O   0  0  0  0  0  0  0  0  0  0  0  0
   -1.4890   25.5760  -29.3440 O   0  0  0  0  0  0  0  0  0  0  0  0
   -6.4010   21.8050  -31.5180 C   0  0  0  0  0  0  0  0  0  0  0  0
   -6.4680   20.5110  -32.0480 C   0  0  0  0  0  0  0  0  0  0  0  0
   -5.8716   17.7656  -32.3051 H   0  0  0  0  0  0  0  0  0  0  0  0
   -6.6192   17.0871  -33.7909 H   0  0  0  0  0  0  0  0  0  0  0  0
   -5.9868   18.7684  -33.7909 H   0  0  0  0  0  0  0  0  0  0  0  0
   -8.5298   18.5411  -33.6000 H   0  0  0  0  0  0  0  0  0  0  0  0
   -8.2459   17.8321  -31.9640 H   0  0  0  0  0  0  0  0  0  0  0  0
   -9.8822   20.1163  -31.8502 H   0  0  0  0  0  0  0  0  0  0  0  0
   -9.7044   22.4603  -30.9514 H   0  0  0  0  0  0  0  0  0  0  0  0
   -7.8370   24.5438  -30.4012 H   0  0  0  0  0  0  0  0  0  0  0  0
   -3.2990   23.8930  -29.6980 H   0  0  0  0  0  0  0  0  0  0  0  0
   -3.0960   25.6720  -29.7610 H   0  0  0  0  0  0  0  0  0  0  0  0
   -1.8645   22.8678  -28.3356 H   0  0  0  0  0  0  0  0  0  0  0  0
   -0.1753   22.5044  -28.8073 H   0  0  0  0  0  0  0  0  0  0  0  0
   -5.5571   19.9895  -32.3772 H   0  0  0  0  0  0  0  0  0  0  0  0
  1  2  1  0
  2  3  1  0
  3  4  2  0
  4  5  1  0
  5  6  2  0
  6  7  1  0
  7  8  2  0
  8  9  1  0
  9 10  1  0
  9 11  2  0
  8 12  1  0
 12 13  1  0
 13 14  2  0
 13 15  1  0
 15 16  2  0
 15 17  1  6
 15 18  1  0
 18 19  1  0
 19 20  1  0
 20 21  2  0
 20 22  1  0
 12 23  1  0
 23 24  2  0
 24  3  1  0
 23  6  1  0
  1 25  1  0
  1 26  1  0
  1 27  1  0
  2 28  1  0
  2 29  1  0
  4 30  1  0
  5 31  1  0
  7 32  1  0
 10 33  1  0
 10 34  1  0
 19 35  1  0
 19 36  1  0
 24 37  1  0
M  CHG  2  17  -1  22  -1
M  END
>  <UniqueID>  (60) 
59

>  <SMILES>  (60) 
CCc1ccc2cc(C(N)=O)n(C(=O)[P@@](=O)([O-])OCC(=O)[O-])c2c1

>  <Energy>  (60) 
69.92875504726966

>  <Genealogy>  (60) 
CCc1ccc2cc(C(N)=O)n(C(=O)P(=O)([O-])OCC(=O)[O-])c2c1 (protonated)
CCc1ccc2cc(C(N)=O)n(C(=O)[P@@](=O)([O-])OCC(=O)[O-])c2c1 (chirality)
CCc1ccc2cc(C(N)=O)n(C(=O)[P@@](=O)([O-])OCC(=O)[O-])c2c1 (3D coordinates assigned)
CCc1ccc2cc(C(N)=O)n(C(=O)[P@@](=O)([O-])OCC(=O)[O-])c2c1 (optimized conformer: 69.92875504726966 kcal/mol)

>  <smiles>  (60) 
CCc1ccc2cc(C(N)=O)n(C(=O)P(=O)(O)OCC(=O)O)c2c1

>  <score_type>  (60) 
oracle

>  <origin>  (60) 
adg

>  <m_score__min__energy>  (60) 
-10.859999999999999

>  <m_primary>  (60) 
energy

$$$$
61:0
     RDKit          3D

 47 48  0  0  0  0  0  0  0  0999 V2000
   -7.9820   23.0580  -32.2920 C   0  0  0  0  0  0  0  0  0  0  0  0
   -8.3690   22.6770  -30.9230 N   0  0  0  0  0  0  0  0  0  0  0  0
   -7.1690   22.5700  -30.0790 C   0  0  0  0  0  0  0  0  0  0  0  0
   -9.1190   21.4010  -30.9170 C   0  0  0  0  0  0  0  0  0  0  0  0
   -9.1140   20.7550  -32.3120 C   0  0  0  0  0  0  0  0  0  0  0  0
   -8.4110   19.4630  -32.2970 N   0  0  0  0  0  0  0  0  0  0  0  0
   -9.0750   18.2980  -31.7080 C   0  0  0  0  0  0  0  0  0  0  0  0
   -7.0230   19.3860  -32.6800 C   0  0  0  0  0  0  0  0  0  0  0  0
   -6.5550   18.3010  -33.4620 C   0  0  0  0  0  0  0  0  0  0  0  0
   -5.2100   18.2280  -33.8580 C   0  0  0  0  0  0  0  0  0  0  0  0
   -4.3590   19.2570  -33.4700 C   0  0  0  0  0  0  0  0  0  0  0  0
   -3.0120   19.4220  -33.6940 C   0  0  0  0  0  0  0  0  0  0  0  0
   -2.6800   20.6230  -33.0740 C   0  0  0  0  0  0  0  0  0  0  0  0
   -1.3290   21.2160  -33.1210 C   0  0  0  0  0  0  0  0  0  0  0  0
   -0.6220   21.5450  -31.9250 N   0  0  0  0  0  0  0  0  0  0  0  0
   -0.8120   21.4880  -34.2380 O   0  0  0  0  0  0  0  0  0  0  0  0
   -3.7740   21.1760  -32.4780 N   0  0  0  0  0  0  0  0  0  0  0  0
   -3.8110   22.3450  -31.6420 C   0  0  0  0  0  0  0  0  0  0  0  0
   -4.6000   23.2910  -31.9120 O   0  0  0  0  0  0  0  0  0  0  0  0
   -2.9670   22.4270  -30.5280 O   0  0  0  0  0  0  0  0  0  0  0  0
   -3.2460   23.2420  -29.3930 C   0  0  0  0  0  0  0  0  0  0  0  0
   -3.0040   24.6830  -29.7110 C   0  0  0  0  0  0  0  0  0  0  0  0
   -1.9950   25.2720  -29.2430 O   0  0  0  0  0  0  0  0  0  0  0  0
   -3.8870   25.3750  -30.5300 O   0  0  0  0  0  0  0  0  0  0  0  0
   -4.7960   20.3270  -32.7300 C   0  0  0  0  0  0  0  0  0  0  0  0
   -6.1260   20.4120  -32.3020 C   0  0  0  0  0  0  0  0  0  0  0  0
   -7.1987   23.8292  -32.2504 H   0  0  0  0  0  0  0  0  0  0  0  0
   -7.5990   22.1747  -32.8240 H   0  0  0  0  0  0  0  0  0  0  0  0
   -8.8592   23.4547  -32.8240 H   0  0  0  0  0  0  0  0  0  0  0  0
   -7.4626   22.5962  -29.0192 H   0  0  0  0  0  0  0  0  0  0  0  0
   -6.6533   21.6223  -30.2933 H   0  0  0  0  0  0  0  0  0  0  0  0
   -6.4938   23.4115  -30.2933 H   0  0  0  0  0  0  0  0  0  0  0  0
   -8.6508   20.7115  -30.1991 H   0  0  0  0  0  0  0  0  0  0  0  0
  -10.1604   21.6069  -30.6288 H   0  0  0  0  0  0  0  0  0  0  0  0
  -10.1526   20.5947  -32.6370 H   0  0  0  0  0  0  0  0  0  0  0  0
   -8.5902   21.4287  -33.0061 H   0  0  0  0  0  0  0  0  0  0  0  0
   -9.0347   18.3687  -30.6110 H   0  0  0  0  0  0  0  0  0  0  0  0
  -10.1248   18.2699  -32.0353 H   0  0  0  0  0  0  0  0  0  0  0  0
   -8.5642   17.3804  -32.0353 H   0  0  0  0  0  0  0  0  0  0  0  0
   -7.2538   17.5064  -33.7624 H   0  0  0  0  0  0  0  0  0  0  0  0
   -4.8406   17.3825  -34.4570 H   0  0  0  0  0  0  0  0  0  0  0  0
   -2.3401   18.7481  -34.2458 H   0  0  0  0  0  0  0  0  0  0  0  0
    0.3480   21.9290  -31.9780 H   0  0  0  0  0  0  0  0  0  0  0  0
   -1.0860   21.4870  -30.9920 H   0  0  0  0  0  0  0  0  0  0  0  0
   -4.2978   23.1075  -29.1005 H   0  0  0  0  0  0  0  0  0  0  0  0
   -2.5820   22.9432  -28.5685 H   0  0  0  0  0  0  0  0  0  0  0  0
   -6.4657   21.2575  -31.6857 H   0  0  0  0  0  0  0  0  0  0  0  0
  1  2  1  0
  2  3  1  0
  2  4  1  0
  4  5  1  0
  5  6  1  0
  6  7  1  0
  6  8  1  0
  8  9  2  0
  9 10  1  0
 10 11  2  0
 11 12  1  0
 12 13  2  0
 13 14  1  0
 14 15  1  0
 14 16  2  0
 13 17  1  0
 17 18  1  0
 18 19  2  0
 18 20  1  0
 20 21  1  0
 21 22  1  0
 22 23  2  0
 22 24  1  0
 17 25  1  0
 25 26  2  0
 26  8  1  0
 25 11  1  0
  1 27  1  0
  1 28  1  0
  1 29  1  0
  3 30  1  0
  3 31  1  0
  3 32  1  0
  4 33  1  0
  4 34  1  0
  5 35  1  0
  5 36  1  0
  7 37  1  0
  7 38  1  0
  7 39  1  0
  9 40  1  0
 10 41  1  0
 12 42  1  0
 15 43  1  0
 15 44  1  0
 21 45  1  0
 21 46  1  0
 26 47  1  0
M  CHG  1  24  -1
M  END
>  <UniqueID>  (61) 
60

>  <SMILES>  (61) 
CN(C)CCN(C)c1ccc2cc(C(N)=O)n(C(=O)OCC(=O)[O-])c2c1

>  <Energy>  (61) 
83.56148692218838

>  <Genealogy>  (61) 
CN(C)CCN(C)c1ccc2cc(C(N)=O)n(C(=O)OCC(=O)[O-])c2c1 (protonated)
CN(C)CCN(C)c1ccc2cc(C(N)=O)n(C(=O)OCC(=O)[O-])c2c1 (3D coordinates assigned)
CN(C)CCN(C)c1ccc2cc(C(N)=O)n(C(=O)OCC(=O)[O-])c2c1 (optimized conformer: 83.56148692218838 kcal/mol)

>  <smiles>  (61) 
CN(C)CCN(C)c1ccc2cc(C(N)=O)n(C(=O)OCC(=O)O)c2c1

>  <score_type>  (61) 
oracle

>  <origin>  (61) 
adg

>  <m_score__min__energy>  (61) 
-10.15

>  <m_primary>  (61) 
energy

$$$$
62:0
     RDKit          3D

 58 60  0  0  0  0  0  0  0  0999 V2000
    2.0320   23.5720  -35.6970 C   0  0  0  0  0  0  0  0  0  0  0  0
    1.8890   22.4350  -34.8520 O   0  0  0  0  0  0  0  0  0  0  0  0
    0.6550   21.8210  -34.6210 C   0  0  0  0  0  0  0  0  0  0  0  0
   -0.4130   22.3580  -35.0400 O   0  0  0  0  0  0  0  0  0  0  0  0
    0.5760   20.5650  -33.7970 C   0  0  0  0  0  0  0  0  0  0  0  0
   -0.7190   19.7570  -34.0450 C   0  0  0  0  0  0  0  0  0  0  0  0
   -1.9540   20.4230  -33.5570 N   0  0  1  0  0  0  0  0  0  0  0  0
   -3.1790   19.6800  -33.9230 C   0  0  0  0  0  0  0  0  0  0  0  0
   -1.8910   20.5440  -32.1100 C   0  0  0  0  0  0  0  0  0  0  0  0
   -1.9910   19.5440  -31.4100 O   0  0  0  0  0  0  0  0  0  0  0  0
   -1.6930   21.8910  -31.4550 C   0  0  0  0  0  0  0  0  0  0  0  0
   -2.9820   22.4940  -31.1060 N   0  0  0  0  0  0  0  0  0  0  0  0
   -3.1830   23.0340  -29.7580 C   0  0  0  0  0  0  0  0  0  0  0  0
   -2.1050   24.0270  -29.4440 C   0  0  0  0  0  0  0  0  0  0  0  0
   -2.3740   25.2560  -29.3690 O   0  0  0  0  0  0  0  0  0  0  0  0
   -0.8190   23.5850  -29.1490 O   0  0  0  0  0  0  0  0  0  0  0  0
   -4.0830   22.4500  -32.0250 C   0  0  0  0  0  0  0  0  0  0  0  0
   -3.8610   22.3880  -33.2630 O   0  0  0  0  0  0  0  0  0  0  0  0
   -5.4360   22.4310  -31.5370 N   0  0  0  0  0  0  0  0  0  0  0  0
   -6.1360   23.4640  -30.9890 C   0  0  0  0  0  0  0  0  0  0  0  0
   -5.5890   24.7860  -30.6090 C   0  0  0  0  0  0  0  0  0  0  0  0
   -4.4010   25.2900  -31.2070 N   0  0  0  0  0  0  0  0  0  0  0  0
   -6.1770   25.4740  -29.7330 O   0  0  0  0  0  0  0  0  0  0  0  0
   -7.4800   23.1190  -30.8490 C   0  0  0  0  0  0  0  0  0  0  0  0
   -7.5800   21.8310  -31.3260 C   0  0  0  0  0  0  0  0  0  0  0  0
   -8.6950   21.0110  -31.4670 C   0  0  0  0  0  0  0  0  0  0  0  0
   -8.5070   19.7350  -32.0240 C   0  0  0  0  0  0  0  0  0  0  0  0
   -7.2040   19.2800  -32.3860 C   0  0  0  0  0  0  0  0  0  0  0  0
   -6.9230   17.9150  -32.9860 C   0  0  0  0  0  0  0  0  0  0  0  0
   -5.4790   17.4550  -32.8540 C   0  0  0  0  0  0  0  0  0  0  0  0
   -6.0430   17.7860  -34.2260 C   0  0  0  0  0  0  0  0  0  0  0  0
   -6.1040   20.1490  -32.2150 C   0  0  0  0  0  0  0  0  0  0  0  0
   -6.3310   21.4350  -31.7190 C   0  0  0  0  0  0  0  0  0  0  0  0
    2.1456   24.4755  -35.0799 H   0  0  0  0  0  0  0  0  0  0  0  0
    2.9215   23.4474  -36.3320 H   0  0  0  0  0  0  0  0  0  0  0  0
    1.1393   23.6715  -36.3320 H   0  0  0  0  0  0  0  0  0  0  0  0
    1.4384   19.9288  -34.0450 H   0  0  0  0  0  0  0  0  0  0  0  0
    0.5770   20.8663  -32.7391 H   0  0  0  0  0  0  0  0  0  0  0  0
   -0.8207   19.5918  -35.1278 H   0  0  0  0  0  0  0  0  0  0  0  0
   -0.6203   18.8191  -33.4787 H   0  0  0  0  0  0  0  0  0  0  0  0
   -2.0150   21.3810  -33.9750 H   0  0  0  0  0  0  0  0  0  0  0  0
   -3.7022   19.3626  -33.0089 H   0  0  0  0  0  0  0  0  0  0  0  0
   -3.8388   20.3303  -34.5162 H   0  0  0  0  0  0  0  0  0  0  0  0
   -2.9072   18.7944  -34.5162 H   0  0  0  0  0  0  0  0  0  0  0  0
   -1.0953   21.7630  -30.5405 H   0  0  0  0  0  0  0  0  0  0  0  0
   -1.1733   22.5541  -32.1622 H   0  0  0  0  0  0  0  0  0  0  0  0
   -4.1633   23.5302  -29.7056 H   0  0  0  0  0  0  0  0  0  0  0  0
   -3.1445   22.2124  -29.0276 H   0  0  0  0  0  0  0  0  0  0  0  0
   -3.8570   26.0560  -30.7580 H   0  0  0  0  0  0  0  0  0  0  0  0
   -8.2893   23.7438  -30.4432 H   0  0  0  0  0  0  0  0  0  0  0  0
   -9.6926   21.3511  -31.1522 H   0  0  0  0  0  0  0  0  0  0  0  0
   -9.3752   19.0785  -32.1830 H   0  0  0  0  0  0  0  0  0  0  0  0
   -7.9243   17.5321  -32.7393 H   0  0  0  0  0  0  0  0  0  0  0  0
   -4.7314   18.1173  -32.3930 H   0  0  0  0  0  0  0  0  0  0  0  0
   -4.9800   16.5811  -32.4098 H   0  0  0  0  0  0  0  0  0  0  0  0
   -5.7048   18.6881  -34.7569 H   0  0  0  0  0  0  0  0  0  0  0  0
   -6.1222   17.2520  -35.1844 H   0  0  0  0  0  0  0  0  0  0  0  0
   -5.0857   19.8188  -32.4681 H   0  0  0  0  0  0  0  0  0  0  0  0
  1  2  1  0
  2  3  1  0
  3  4  2  0
  3  5  1  0
  5  6  1  0
  6  7  1  0
  7  8  1  0
  7  9  1  0
  9 10  2  0
  9 11  1  0
 11 12  1  0
 12 13  1  0
 13 14  1  0
 14 15  2  0
 14 16  1  0
 12 17  1  0
 17 18  2  0
 17 19  1  0
 19 20  1  0
 20 21  1  0
 21 22  1  0
 21 23  2  0
 20 24  2  0
 24 25  1  0
 25 26  2  0
 26 27  1  0
 27 28  2  0
 28 29  1  0
 29 30  1  0
 30 31  1  0
 28 32  1  0
 32 33  2  0
 33 19  1  0
 33 25  1  0
 31 29  1  0
  1 34  1  0
  1 35  1  0
  1 36  1  0
  5 37  1  0
  5 38  1  0
  6 39  1  0
  6 40  1  0
  7 41  1  6
  8 42  1  0
  8 43  1  0
  8 44  1  0
 11 45  1  0
 11 46  1  0
 13 47  1  0
 13 48  1  0
 22 49  1  0
 24 50  1  0
 26 51  1  0
 27 52  1  0
 29 53  1  0
 30 54  1  0
 30 55  1  0
 31 56  1  0
 31 57  1  0
 32 58  1  0
M  CHG  3   7   1  16  -1  22  -1
M  END
>  <UniqueID>  (62) 
61

>  <SMILES>  (62) 
COC(=O)CC[N@@H+](C)C(=O)CN(CC(=O)[O-])C(=O)n1c(C([NH-])=O)cc2ccc(C3CC3)cc21

>  <Energy>  (62) 
369.8485398108516

>  <Genealogy>  (62) 
COC(=O)CC[NH+](C)C(=O)CN(CC(=O)[O-])C(=O)n1c(C([NH-])=O)cc2ccc(C3CC3)cc21 (protonated)
COC(=O)CC[N@@H+](C)C(=O)CN(CC(=O)[O-])C(=O)n1c(C([NH-])=O)cc2ccc(C3CC3)cc21 (chirality)
COC(=O)CC[N@@H+](C)C(=O)CN(CC(=O)[O-])C(=O)n1c(C([NH-])=O)cc2ccc(C3CC3)cc21 (3D coordinates assigned)
COC(=O)CC[N@@H+](C)C(=O)CN(CC(=O)[O-])C(=O)n1c(C([NH-])=O)cc2ccc(C3CC3)cc21 (nonaromatic ring conformer: 369.8485398108516 kcal/mol)

>  <smiles>  (62) 
COC(=O)CCN(C)C(=O)CN(CC(=O)O)C(=O)n1c(C(N)=O)cc2ccc(C3CC3)cc21

>  <score_type>  (62) 
oracle

>  <origin>  (62) 
adg

>  <m_score__min__energy>  (62) 
-12.73

>  <m_primary>  (62) 
energy

$$$$
63:0
     RDKit          3D

 31 32  0  0  0  0  0  0  0  0999 V2000
   -3.8820   18.5320  -26.5850 C   0  0  0  0  0  0  0  0  0  0  0  0
   -2.8120   19.5290  -26.9160 C   0  0  0  0  0  0  0  0  0  0  0  0
   -1.4460   19.1690  -26.7990 C   0  0  0  0  0  0  0  0  0  0  0  0
   -0.4330   20.1090  -27.0560 C   0  0  0  0  0  0  0  0  0  0  0  0
   -0.8170   21.3950  -27.4240 C   0  0  0  0  0  0  0  0  0  0  0  0
   -0.0490   22.5060  -27.6930 C   0  0  0  0  0  0  0  0  0  0  0  0
   -0.9590   23.5260  -27.9720 C   0  0  0  0  0  0  0  0  0  0  0  0
   -0.5620   24.9000  -28.3440 C   0  0  0  0  0  0  0  0  0  0  0  0
   -1.3850   25.6650  -29.2210 N   0  0  0  0  0  0  0  0  0  0  0  0
    0.4930   25.4140  -27.8870 O   0  0  0  0  0  0  0  0  0  0  0  0
   -2.2360   23.0590  -27.8860 N   0  0  0  0  0  0  0  0  0  0  0  0
   -3.4530   23.7950  -28.0810 C   0  0  0  0  0  0  0  0  0  0  0  0
   -3.6420   24.8700  -27.4530 O   0  0  0  0  0  0  0  0  0  0  0  0
   -4.4790   23.3240  -29.0670 C   0  0  0  0  0  0  0  0  0  0  0  0
   -5.1360   24.7360  -30.0020 P   0  0  2  0  0  0  0  0  0  0  0  0
   -6.0110   24.2290  -31.1260 O   0  0  0  0  0  0  0  0  0  0  0  0
   -3.8540   25.6270  -30.6520 O   0  0  0  0  0  0  0  0  0  0  0  0
   -6.0490   25.7300  -28.9810 O   0  0  0  0  0  0  0  0  0  0  0  0
   -2.1330   21.7570  -27.5440 C   0  0  0  0  0  0  0  0  0  0  0  0
   -3.1620   20.8490  -27.2720 C   0  0  0  0  0  0  0  0  0  0  0  0
   -3.9762   18.4443  -25.4926 H   0  0  0  0  0  0  0  0  0  0  0  0
   -4.8397   18.8673  -27.0098 H   0  0  0  0  0  0  0  0  0  0  0  0
   -3.6151   17.5531  -27.0098 H   0  0  0  0  0  0  0  0  0  0  0  0
   -1.1761   18.1442  -26.5043 H   0  0  0  0  0  0  0  0  0  0  0  0
    0.6292   19.8368  -26.9690 H   0  0  0  0  0  0  0  0  0  0  0  0
    1.0488   22.5746  -27.6888 H   0  0  0  0  0  0  0  0  0  0  0  0
   -2.3820   25.8670  -28.9840 H   0  0  0  0  0  0  0  0  0  0  0  0
   -4.0144   22.6104  -29.7634 H   0  0  0  0  0  0  0  0  0  0  0  0
   -5.3022   22.8348  -28.5257 H   0  0  0  0  0  0  0  0  0  0  0  0
   -5.5860   25.6900  -28.1060 H   0  0  0  0  0  0  0  0  0  0  0  0
   -4.2165   21.1560  -27.3340 H   0  0  0  0  0  0  0  0  0  0  0  0
  1  2  1  0
  2  3  2  0
  3  4  1  0
  4  5  2  0
  5  6  1  0
  6  7  2  0
  7  8  1  0
  8  9  1  0
  8 10  2  0
  7 11  1  0
 11 12  1  0
 12 13  2  0
 12 14  1  0
 14 15  1  0
 15 16  2  0
 15 17  1  6
 15 18  1  0
 11 19  1  0
 19 20  2  0
 20  2  1  0
 19  5  1  0
  1 21  1  0
  1 22  1  0
  1 23  1  0
  3 24  1  0
  4 25  1  0
  6 26  1  0
  9 27  1  0
 14 28  1  0
 14 29  1  0
 18 30  1  0
 20 31  1  0
M  CHG  2   9  -1  17  -1
M  END
>  <UniqueID>  (63) 
62

>  <SMILES>  (63) 
Cc1ccc2cc(C([NH-])=O)n(C(=O)C[P@](=O)([O-])O)c2c1

>  <Energy>  (63) 
63.40630433146853

>  <Genealogy>  (63) 
Cc1ccc2cc(C([NH-])=O)n(C(=O)CP(=O)([O-])O)c2c1 (protonated)
Cc1ccc2cc(C([NH-])=O)n(C(=O)C[P@](=O)([O-])O)c2c1 (chirality)
Cc1ccc2cc(C([NH-])=O)n(C(=O)C[P@](=O)([O-])O)c2c1 (3D coordinates assigned)
Cc1ccc2cc(C([NH-])=O)n(C(=O)C[P@](=O)([O-])O)c2c1 (optimized conformer: 63.40630433146853 kcal/mol)

>  <smiles>  (63) 
Cc1ccc2cc(C(N)=O)n(C(=O)CP(=O)(O)O)c2c1

>  <score_type>  (63) 
oracle

>  <origin>  (63) 
adg

>  <m_score__min__energy>  (63) 
-11.529999999999999

>  <m_primary>  (63) 
energy

$$$$
64:0
     RDKit          3D

 58 59  0  0  0  0  0  0  0  0999 V2000
   -4.8430   16.2130  -33.0470 C   0  0  0  0  0  0  0  0  0  0  0  0
   -4.6310   17.4020  -33.8760 N   0  0  0  0  0  0  0  0  0  0  0  0
   -3.2660   17.8880  -34.1190 C   0  0  0  0  0  0  0  0  0  0  0  0
   -3.1740   19.4130  -33.9700 C   0  0  0  0  0  0  0  0  0  0  0  0
   -1.8220   19.8940  -33.4010 C   0  0  0  0  0  0  0  0  0  0  0  0
   -1.9640   20.4480  -32.0050 C   0  0  0  0  0  0  0  0  0  0  0  0
   -1.3020   19.8000  -30.9320 C   0  0  0  0  0  0  0  0  0  0  0  0
   -1.3930   20.3030  -29.6240 C   0  0  0  0  0  0  0  0  0  0  0  0
   -2.1610   21.4430  -29.4170 C   0  0  0  0  0  0  0  0  0  0  0  0
   -2.3680   22.1700  -28.2680 C   0  0  0  0  0  0  0  0  0  0  0  0
   -3.1850   23.2310  -28.6470 C   0  0  0  0  0  0  0  0  0  0  0  0
   -3.6740   24.2620  -27.7080 C   0  0  0  0  0  0  0  0  0  0  0  0
   -4.9730   24.8410  -27.8470 N   0  0  0  0  0  0  0  0  0  0  0  0
   -2.9470   24.6080  -26.7390 O   0  0  0  0  0  0  0  0  0  0  0  0
   -3.4680   23.1660  -29.9780 N   0  0  0  0  0  0  0  0  0  0  0  0
   -4.1830   24.1370  -30.7550 C   0  0  0  0  0  0  0  0  0  0  0  0
   -3.7440   25.3160  -30.8380 O   0  0  0  0  0  0  0  0  0  0  0  0
   -5.4190   23.7840  -31.3790 N   0  0  0  0  0  0  0  0  0  0  0  0
   -6.9140   23.7390  -30.5010 S   0  0  0  0  0  0  0  0  0  0  0  0
   -8.2270   23.2350  -31.5910 C   0  0  0  0  0  0  0  0  0  0  0  0
   -6.8160   22.7380  -29.3840 O   0  0  0  0  0  0  0  0  0  0  0  0
   -7.2180   25.0970  -29.9360 O   0  0  0  0  0  0  0  0  0  0  0  0
   -2.8330   22.0660  -30.4380 C   0  0  0  0  0  0  0  0  0  0  0  0
   -2.7450   21.6010  -31.7550 C   0  0  0  0  0  0  0  0  0  0  0  0
   -5.7690   18.1100  -34.4040 C   0  0  0  0  0  0  0  0  0  0  0  0
   -5.7590   18.5010  -35.6010 O   0  0  0  0  0  0  0  0  0  0  0  0
   -6.8870   18.3460  -33.5880 O   0  0  0  0  0  0  0  0  0  0  0  0
   -6.9660   19.2850  -32.5050 C   0  0  0  0  0  0  0  0  0  0  0  0
   -8.4270   19.4900  -32.0600 C   0  0  0  0  0  0  0  0  0  0  0  0
   -6.0990   18.8120  -31.3240 C   0  0  0  0  0  0  0  0  0  0  0  0
   -6.4130   20.6210  -33.0230 C   0  0  0  0  0  0  0  0  0  0  0  0
   -4.7930   16.4932  -31.9845 H   0  0  0  0  0  0  0  0  0  0  0  0
   -5.8318   15.7841  -33.2670 H   0  0  0  0  0  0  0  0  0  0  0  0
   -4.0634   15.4688  -33.2670 H   0  0  0  0  0  0  0  0  0  0  0  0
   -2.5852   17.4169  -33.3948 H   0  0  0  0  0  0  0  0  0  0  0  0
   -2.9859   17.6256  -35.1499 H   0  0  0  0  0  0  0  0  0  0  0  0
   -3.3173   19.8692  -34.9606 H   0  0  0  0  0  0  0  0  0  0  0  0
   -3.9531   19.7166  -33.2552 H   0  0  0  0  0  0  0  0  0  0  0  0
   -1.1238   19.0443  -33.3770 H   0  0  0  0  0  0  0  0  0  0  0  0
   -1.4458   20.6984  -34.0502 H   0  0  0  0  0  0  0  0  0  0  0  0
   -0.7105   18.8931  -31.1261 H   0  0  0  0  0  0  0  0  0  0  0  0
   -0.8728   19.8103  -28.7894 H   0  0  0  0  0  0  0  0  0  0  0  0
   -1.9723   21.9581  -27.2638 H   0  0  0  0  0  0  0  0  0  0  0  0
   -5.2730   25.6100  -27.2090 H   0  0  0  0  0  0  0  0  0  0  0  0
   -5.6730   24.4440  -28.5110 H   0  0  0  0  0  0  0  0  0  0  0  0
   -9.0907   22.9035  -30.9959 H   0  0  0  0  0  0  0  0  0  0  0  0
   -8.5229   24.0835  -32.2255 H   0  0  0  0  0  0  0  0  0  0  0  0
   -7.8792   22.4065  -32.2255 H   0  0  0  0  0  0  0  0  0  0  0  0
   -3.2684   22.1175  -32.5731 H   0  0  0  0  0  0  0  0  0  0  0  0
   -8.4780   19.4972  -30.9612 H   0  0  0  0  0  0  0  0  0  0  0  0
   -8.7981   20.4490  -32.4506 H   0  0  0  0  0  0  0  0  0  0  0  0
   -9.0477   18.6702  -32.4506 H   0  0  0  0  0  0  0  0  0  0  0  0
   -6.5909   19.0804  -30.3774 H   0  0  0  0  0  0  0  0  0  0  0  0
   -5.9735   17.7204  -31.3754 H   0  0  0  0  0  0  0  0  0  0  0  0
   -5.1132   19.2973  -31.3754 H   0  0  0  0  0  0  0  0  0  0  0  0
   -6.1472   21.2631  -32.1703 H   0  0  0  0  0  0  0  0  0  0  0  0
   -5.5180   20.4349  -33.6348 H   0  0  0  0  0  0  0  0  0  0  0  0
   -7.1777   21.1219  -33.6348 H   0  0  0  0  0  0  0  0  0  0  0  0
  1  2  1  0
  2  3  1  0
  3  4  1  0
  4  5  1  0
  5  6  1  0
  6  7  2  0
  7  8  1  0
  8  9  2  0
  9 10  1  0
 10 11  2  0
 11 12  1  0
 12 13  1  0
 12 14  2  0
 11 15  1  0
 15 16  1  0
 16 17  2  0
 16 18  1  0
 18 19  1  0
 19 20  1  0
 19 21  2  0
 19 22  2  0
 15 23  1  0
 23 24  2  0
  2 25  1  0
 25 26  2  0
 25 27  1  0
 27 28  1  0
 28 29  1  0
 28 30  1  0
 28 31  1  0
 24  6  1  0
 23  9  1  0
  1 32  1  0
  1 33  1  0
  1 34  1  0
  3 35  1  0
  3 36  1  0
  4 37  1  0
  4 38  1  0
  5 39  1  0
  5 40  1  0
  7 41  1  0
  8 42  1  0
 10 43  1  0
 13 44  1  0
 13 45  1  0
 20 46  1  0
 20 47  1  0
 20 48  1  0
 24 49  1  0
 29 50  1  0
 29 51  1  0
 29 52  1  0
 30 53  1  0
 30 54  1  0
 30 55  1  0
 31 56  1  0
 31 57  1  0
 31 58  1  0
M  CHG  1  18  -1
M  END
>  <UniqueID>  (64) 
63

>  <SMILES>  (64) 
CN(CCCc1ccc2cc(C(N)=O)n(C(=O)[N-]S(C)(=O)=O)c2c1)C(=O)OC(C)(C)C

>  <Energy>  (64) 
82.71783441423736

>  <Genealogy>  (64) 
CN(CCCc1ccc2cc(C(N)=O)n(C(=O)[N-]S(C)(=O)=O)c2c1)C(=O)OC(C)(C)C (protonated)
CN(CCCc1ccc2cc(C(N)=O)n(C(=O)[N-]S(C)(=O)=O)c2c1)C(=O)OC(C)(C)C (3D coordinates assigned)
CN(CCCc1ccc2cc(C(N)=O)n(C(=O)[N-]S(C)(=O)=O)c2c1)C(=O)OC(C)(C)C (optimized conformer: 82.71783441423736 kcal/mol)

>  <smiles>  (64) 
CN(CCCc1ccc2cc(C(N)=O)n(C(=O)NS(C)(=O)=O)c2c1)C(=O)OC(C)(C)C

>  <score_type>  (64) 
oracle

>  <origin>  (64) 
adg

>  <m_score__min__energy>  (64) 
-10.210000000000001

>  <m_primary>  (64) 
energy

$$$$
65:0
     RDKit          3D

 45 46  0  0  0  0  0  0  0  0999 V2000
   -7.5100   18.3600  -32.5680 C   0  0  0  0  0  0  0  0  0  0  0  0
   -7.4930   19.8190  -32.2260 C   0  0  0  0  0  0  0  0  0  0  0  0
   -8.6830   20.5850  -32.3080 C   0  0  0  0  0  0  0  0  0  0  0  0
   -8.6810   21.9470  -31.9650 C   0  0  0  0  0  0  0  0  0  0  0  0
   -7.4850   22.5090  -31.5260 C   0  0  0  0  0  0  0  0  0  0  0  0
   -7.2010   23.7990  -31.1480 C   0  0  0  0  0  0  0  0  0  0  0  0
   -5.8500   23.7960  -30.8050 C   0  0  0  0  0  0  0  0  0  0  0  0
   -5.1500   24.9740  -30.2510 C   0  0  0  0  0  0  0  0  0  0  0  0
   -3.8770   25.3520  -30.7720 N   0  0  0  0  0  0  0  0  0  0  0  0
   -5.6800   25.6760  -29.3510 O   0  0  0  0  0  0  0  0  0  0  0  0
   -5.3170   22.5510  -30.9740 N   0  0  0  0  0  0  0  0  0  0  0  0
   -3.9500   22.1450  -30.7990 C   0  0  0  0  0  0  0  0  0  0  0  0
   -3.2350   21.8930  -31.8060 O   0  0  0  0  0  0  0  0  0  0  0  0
   -3.4280   22.0100  -29.5100 O   0  0  0  0  0  0  0  0  0  0  0  0
   -2.3080   23.1240  -28.8220 P   0  0  2  0  0  0  0  0  0  0  0  0
   -1.5190   23.7690  -29.9430 O   0  0  0  0  0  0  0  0  0  0  0  0
   -1.2190   22.3230  -27.6700 N   0  0  0  0  0  0  0  0  0  0  0  0
    0.1580   22.8050  -27.8420 C   0  0  0  0  0  0  0  0  0  0  0  0
   -1.2710   20.8660  -27.8420 C   0  0  0  0  0  0  0  0  0  0  0  0
   -3.2190   24.3850  -27.9840 N   0  0  0  0  0  0  0  0  0  0  0  0
   -4.2270   23.7830  -27.1010 C   0  0  0  0  0  0  0  0  0  0  0  0
   -2.3020   25.2400  -27.2170 C   0  0  0  0  0  0  0  0  0  0  0  0
   -6.3320   21.7740  -31.4120 C   0  0  0  0  0  0  0  0  0  0  0  0
   -6.3020   20.4180  -31.7630 C   0  0  0  0  0  0  0  0  0  0  0  0
   -7.5169   17.7664  -31.6419 H   0  0  0  0  0  0  0  0  0  0  0  0
   -8.4109   18.1318  -33.1565 H   0  0  0  0  0  0  0  0  0  0  0  0
   -6.6147   18.1109  -33.1565 H   0  0  0  0  0  0  0  0  0  0  0  0
   -9.6161   20.1085  -32.6432 H   0  0  0  0  0  0  0  0  0  0  0  0
   -9.5968   22.5516  -32.0409 H   0  0  0  0  0  0  0  0  0  0  0  0
   -7.8933   24.6534  -31.1216 H   0  0  0  0  0  0  0  0  0  0  0  0
   -3.0190   25.3000  -30.1800 H   0  0  0  0  0  0  0  0  0  0  0  0
    0.6163   22.9654  -26.8550 H   0  0  0  0  0  0  0  0  0  0  0  0
    0.7411   22.0575  -28.3999 H   0  0  0  0  0  0  0  0  0  0  0  0
    0.1477   23.7530  -28.3999 H   0  0  0  0  0  0  0  0  0  0  0  0
   -1.2883   20.3807  -26.8550 H   0  0  0  0  0  0  0  0  0  0  0  0
   -2.1794   20.5948  -28.3999 H   0  0  0  0  0  0  0  0  0  0  0  0
   -0.3842   20.5308  -28.3999 H   0  0  0  0  0  0  0  0  0  0  0  0
   -3.7050   24.9690  -28.7030 H   0  0  0  0  0  0  0  0  0  0  0  0
   -3.9434   23.9524  -26.0518 H   0  0  0  0  0  0  0  0  0  0  0  0
   -5.2067   24.2440  -27.2950 H   0  0  0  0  0  0  0  0  0  0  0  0
   -4.2857   22.7018  -27.2950 H   0  0  0  0  0  0  0  0  0  0  0  0
   -2.4691   25.0842  -26.1410 H   0  0  0  0  0  0  0  0  0  0  0  0
   -1.2628   24.9809  -27.4680 H   0  0  0  0  0  0  0  0  0  0  0  0
   -2.4878   26.2947  -27.4680 H   0  0  0  0  0  0  0  0  0  0  0  0
   -5.3731   19.8347  -31.6798 H   0  0  0  0  0  0  0  0  0  0  0  0
  1  2  1  0
  2  3  2  0
  3  4  1  0
  4  5  2  0
  5  6  1  0
  6  7  2  0
  7  8  1  0
  8  9  1  0
  8 10  2  0
  7 11  1  0
 11 12  1  0
 12 13  2  0
 12 14  1  0
 15 14  1  6
 15 16  2  0
 15 17  1  0
 17 18  1  0
 17 19  1  0
 15 20  1  0
 20 21  1  0
 20 22  1  0
 11 23  1  0
 23 24  2  0
 24  2  1  0
 23  5  1  0
  1 25  1  0
  1 26  1  0
  1 27  1  0
  3 28  1  0
  4 29  1  0
  6 30  1  0
  9 31  1  0
 18 32  1  0
 18 33  1  0
 18 34  1  0
 19 35  1  0
 19 36  1  0
 19 37  1  0
 20 38  1  0
 21 39  1  0
 21 40  1  0
 21 41  1  0
 22 42  1  0
 22 43  1  0
 22 44  1  0
 24 45  1  0
M  CHG  2   9  -1  20   1
M  END
>  <UniqueID>  (65) 
64

>  <SMILES>  (65) 
Cc1ccc2cc(C([NH-])=O)n(C(=O)O[P@](=O)(N(C)C)[NH+](C)C)c2c1

>  <Energy>  (65) 
74.66871940082304

>  <Genealogy>  (65) 
Cc1ccc2cc(C([NH-])=O)n(C(=O)OP(=O)(N(C)C)[NH+](C)C)c2c1 (protonated)
Cc1ccc2cc(C([NH-])=O)n(C(=O)O[P@](=O)(N(C)C)[NH+](C)C)c2c1 (chirality)
Cc1ccc2cc(C([NH-])=O)n(C(=O)O[P@](=O)(N(C)C)[NH+](C)C)c2c1 (3D coordinates assigned)
Cc1ccc2cc(C([NH-])=O)n(C(=O)O[P@](=O)(N(C)C)[NH+](C)C)c2c1 (optimized conformer: 74.66871940082304 kcal/mol)

>  <smiles>  (65) 
Cc1ccc2cc(C(N)=O)n(C(=O)OP(=O)(N(C)C)N(C)C)c2c1

>  <score_type>  (65) 
oracle

>  <origin>  (65) 
adg

>  <m_score__min__energy>  (65) 
-9.6799999999999997

>  <m_primary>  (65) 
energy

$$$$
66:0
     RDKit          3D

 41 42  0  0  0  0  0  0  0  0999 V2000
   -7.5870   17.7980  -32.8060 C   0  0  0  0  0  0  0  0  0  0  0  0
   -7.6710   19.2160  -32.3220 C   0  0  0  0  0  0  0  0  0  0  0  0
   -8.9310   19.7940  -32.0250 C   0  0  0  0  0  0  0  0  0  0  0  0
   -9.0180   21.1100  -31.5410 C   0  0  0  0  0  0  0  0  0  0  0  0
   -7.8320   21.8130  -31.3480 C   0  0  0  0  0  0  0  0  0  0  0  0
   -7.6260   23.1040  -30.9090 C   0  0  0  0  0  0  0  0  0  0  0  0
   -6.2410   23.2800  -30.9150 C   0  0  0  0  0  0  0  0  0  0  0  0
   -5.5510   24.5080  -30.4600 C   0  0  0  0  0  0  0  0  0  0  0  0
   -5.4530   24.8230  -29.0690 N   0  0  0  0  0  0  0  0  0  0  0  0
   -5.0250   25.2860  -31.3010 O   0  0  0  0  0  0  0  0  0  0  0  0
   -5.6220   22.1410  -31.3320 N   0  0  0  0  0  0  0  0  0  0  0  0
   -4.2140   21.9370  -31.5190 C   0  0  0  0  0  0  0  0  0  0  0  0
   -3.5800   22.7130  -32.2800 O   0  0  0  0  0  0  0  0  0  0  0  0
   -3.5390   20.8210  -30.8200 C   0  0  0  0  0  0  0  0  0  0  0  0
   -2.4400   20.9070  -30.0560 C   0  0  0  0  0  0  0  0  0  0  0  0
   -1.6920   22.1710  -29.7190 C   0  0  0  0  0  0  0  0  0  0  0  0
   -2.3370   22.9140  -28.6250 N   0  0  0  0  0  0  0  0  0  0  0  0
   -3.4430   22.3180  -27.9230 C   0  0  0  0  0  0  0  0  0  0  0  0
   -4.3960   23.0260  -27.4970 O   0  0  0  0  0  0  0  0  0  0  0  0
   -1.6900   24.1180  -28.0850 C   0  0  0  0  0  0  0  0  0  0  0  0
   -1.9820   25.2960  -28.9590 C   0  0  0  0  0  0  0  0  0  0  0  0
   -2.9940   25.2890  -29.7090 O   0  0  0  0  0  0  0  0  0  0  0  0
   -1.1140   26.3820  -28.9820 O   0  0  0  0  0  0  0  0  0  0  0  0
   -6.6050   21.2550  -31.5990 C   0  0  0  0  0  0  0  0  0  0  0  0
   -6.4880   19.9540  -32.1000 C   0  0  0  0  0  0  0  0  0  0  0  0
   -7.5467   17.1176  -31.9426 H   0  0  0  0  0  0  0  0  0  0  0  0
   -8.4729   17.5654  -33.4151 H   0  0  0  0  0  0  0  0  0  0  0  0
   -6.6798   17.6716  -33.4151 H   0  0  0  0  0  0  0  0  0  0  0  0
   -9.8489   19.2067  -32.1749 H   0  0  0  0  0  0  0  0  0  0  0  0
   -9.9926   21.5704  -31.3214 H   0  0  0  0  0  0  0  0  0  0  0  0
   -8.3904   23.8389  -30.6163 H   0  0  0  0  0  0  0  0  0  0  0  0
   -4.9100   25.6600  -28.7570 H   0  0  0  0  0  0  0  0  0  0  0  0
   -5.9560   24.2600  -28.3470 H   0  0  0  0  0  0  0  0  0  0  0  0
   -3.9827   19.8215  -30.9388 H   0  0  0  0  0  0  0  0  0  0  0  0
   -2.0486   19.9683  -29.6368 H   0  0  0  0  0  0  0  0  0  0  0  0
   -0.6679   21.9082  -29.4153 H   0  0  0  0  0  0  0  0  0  0  0  0
   -1.6877   22.8135  -30.6119 H   0  0  0  0  0  0  0  0  0  0  0  0
   -3.4574   21.2309  -27.7558 H   0  0  0  0  0  0  0  0  0  0  0  0
   -2.0724   24.3130  -27.0722 H   0  0  0  0  0  0  0  0  0  0  0  0
   -0.6024   23.9568  -28.0506 H   0  0  0  0  0  0  0  0  0  0  0  0
   -5.5013   19.5180  -32.3151 H   0  0  0  0  0  0  0  0  0  0  0  0
  1  2  1  0
  2  3  2  0
  3  4  1  0
  4  5  2  0
  5  6  1  0
  6  7  2  0
  7  8  1  0
  8  9  1  0
  8 10  2  0
  7 11  1  0
 11 12  1  0
 12 13  2  0
 12 14  1  0
 14 15  2  3
 15 16  1  0
 16 17  1  0
 17 18  1  0
 18 19  2  0
 17 20  1  0
 20 21  1  0
 21 22  2  0
 21 23  1  0
 11 24  1  0
 24 25  2  0
 25  2  1  0
 24  5  1  0
  1 26  1  0
  1 27  1  0
  1 28  1  0
  3 29  1  0
  4 30  1  0
  6 31  1  0
  9 32  1  0
  9 33  1  0
 14 34  1  0
 15 35  1  0
 16 36  1  0
 16 37  1  0
 18 38  1  0
 20 39  1  0
 20 40  1  0
 25 41  1  0
M  CHG  1  23  -1
M  END
>  <UniqueID>  (66) 
65

>  <SMILES>  (66) 
Cc1ccc2cc(C(N)=O)n(C(=O)C=CCN(C=O)CC(=O)[O-])c2c1

>  <Energy>  (66) 
78.06329388390425

>  <Genealogy>  (66) 
Cc1ccc2cc(C(N)=O)n(C(=O)C=CCN(C=O)CC(=O)[O-])c2c1 (protonated)
Cc1ccc2cc(C(N)=O)n(C(=O)C=CCN(C=O)CC(=O)[O-])c2c1 (3D coordinates assigned)
Cc1ccc2cc(C(N)=O)n(C(=O)C=CCN(C=O)CC(=O)[O-])c2c1 (optimized conformer: 78.06329388390425 kcal/mol)

>  <smiles>  (66) 
Cc1ccc2cc(C(N)=O)n(C(=O)C=CCN(C=O)CC(=O)O)c2c1

>  <score_type>  (66) 
oracle

>  <origin>  (66) 
adg

>  <m_score__min__energy>  (66) 
-11.529999999999999

>  <m_primary>  (66) 
energy

$$$$
67:0
     RDKit          3D

 35 37  0  0  0  0  0  0  0  0999 V2000
   -6.1280   23.6130  -29.3670 N   0  0  0  0  0  0  0  0  0  0  0  0
   -6.6240   23.3120  -30.6740 C   0  0  0  0  0  0  0  0  0  0  0  0
   -7.5660   24.0030  -31.1440 O   0  0  0  0  0  0  0  0  0  0  0  0
   -6.0340   22.2190  -31.4780 C   0  0  0  0  0  0  0  0  0  0  0  0
   -6.6810   21.5750  -32.5340 C   0  0  0  0  0  0  0  0  0  0  0  0
   -5.8150   20.5840  -32.9420 C   0  0  0  0  0  0  0  0  0  0  0  0
   -5.9410   19.6460  -33.9590 C   0  0  0  0  0  0  0  0  0  0  0  0
   -4.8750   18.7540  -34.1710 C   0  0  0  0  0  0  0  0  0  0  0  0
   -3.7020   18.8150  -33.3700 C   0  0  0  0  0  0  0  0  0  0  0  0
   -2.5810   17.8740  -33.6190 C   0  0  0  0  0  0  0  0  0  0  0  0
   -1.2330   18.0770  -33.3150 C   0  0  0  0  0  0  0  0  0  0  0  0
   -0.4090   17.0040  -33.6740 C   0  0  0  0  0  0  0  0  0  0  0  0
   -1.0880   15.9470  -34.2620 C   0  0  0  0  0  0  0  0  0  0  0  0
   -2.7160   16.3540  -34.3360 S   0  0  0  0  0  0  0  0  0  0  0  0
   -3.6210   19.7820  -32.3390 C   0  0  0  0  0  0  0  0  0  0  0  0
   -4.7030   20.6470  -32.1490 C   0  0  0  0  0  0  0  0  0  0  0  0
   -4.8210   21.6440  -31.2480 N   0  0  0  0  0  0  0  0  0  0  0  0
   -3.8230   22.0410  -30.2970 C   0  0  0  0  0  0  0  0  0  0  0  0
   -3.7660   21.4670  -29.1770 O   0  0  0  0  0  0  0  0  0  0  0  0
   -2.7760   23.0460  -30.6690 C   0  0  0  0  0  0  0  0  0  0  0  0
   -3.0810   24.6090  -29.7930 P   0  0  0  0  0  0  0  0  0  0  0  0
   -3.9130   24.3490  -28.5580 O   0  0  0  0  0  0  0  0  0  0  0  0
   -3.9100   25.6690  -30.8150 O   0  0  0  0  0  0  0  0  0  0  0  0
   -1.6060   25.3050  -29.3420 O   0  0  0  0  0  0  0  0  0  0  0  0
   -6.5320   24.4110  -28.8270 H   0  0  0  0  0  0  0  0  0  0  0  0
   -5.3970   23.0250  -28.9130 H   0  0  0  0  0  0  0  0  0  0  0  0
   -7.6714   21.8089  -32.9516 H   0  0  0  0  0  0  0  0  0  0  0  0
   -6.8479   19.6024  -34.5800 H   0  0  0  0  0  0  0  0  0  0  0  0
   -4.9496   17.9988  -34.9673 H   0  0  0  0  0  0  0  0  0  0  0  0
   -0.8547   18.9934  -32.8385 H   0  0  0  0  0  0  0  0  0  0  0  0
    0.6780   16.9994  -33.5052 H   0  0  0  0  0  0  0  0  0  0  0  0
   -0.6393   15.0076  -34.6173 H   0  0  0  0  0  0  0  0  0  0  0  0
   -2.7270   19.8512  -31.7018 H   0  0  0  0  0  0  0  0  0  0  0  0
   -1.7843   22.6596  -30.3912 H   0  0  0  0  0  0  0  0  0  0  0  0
   -2.8145   23.2249  -31.7537 H   0  0  0  0  0  0  0  0  0  0  0  0
  1  2  1  0
  2  3  2  0
  2  4  1  0
  4  5  2  0
  5  6  1  0
  6  7  2  0
  7  8  1  0
  8  9  2  0
  9 10  1  0
 10 11  2  0
 11 12  1  0
 12 13  2  0
 13 14  1  0
  9 15  1  0
 15 16  2  0
 16 17  1  0
 17 18  1  0
 18 19  2  0
 18 20  1  0
 20 21  1  0
 21 22  2  0
 21 23  1  0
 21 24  1  0
 17  4  1  0
 16  6  1  0
 14 10  1  0
  1 25  1  0
  1 26  1  0
  5 27  1  0
  7 28  1  0
  8 29  1  0
 11 30  1  0
 12 31  1  0
 13 32  1  0
 15 33  1  0
 20 34  1  0
 20 35  1  0
M  CHG  2  23  -1  24  -1
M  END
>  <UniqueID>  (67) 
66

>  <SMILES>  (67) 
NC(=O)c1cc2ccc(-c3cccs3)cc2n1C(=O)CP(=O)([O-])[O-]

>  <Energy>  (67) 
99.4449346647088

>  <Genealogy>  (67) 
NC(=O)c1cc2ccc(-c3cccs3)cc2n1C(=O)CP(=O)([O-])[O-] (protonated)
NC(=O)c1cc2ccc(-c3cccs3)cc2n1C(=O)CP(=O)([O-])[O-] (3D coordinates assigned)
NC(=O)c1cc2ccc(-c3cccs3)cc2n1C(=O)CP(=O)([O-])[O-] (optimized conformer: 99.4449346647088 kcal/mol)

>  <smiles>  (67) 
NC(=O)c1cc2ccc(-c3cccs3)cc2n1C(=O)CP(=O)(O)O

>  <score_type>  (67) 
oracle

>  <origin>  (67) 
adg

>  <m_score__min__energy>  (67) 
-13.06

>  <m_primary>  (67) 
energy

$$$$
68:0
     RDKit          3D

 48 49  0  0  0  0  0  0  0  0999 V2000
   -2.5550   20.4240  -27.2240 C   0  0  0  0  0  0  0  0  0  0  0  0
   -1.8070   21.5760  -27.7380 N   0  0  0  0  0  0  0  0  0  0  0  0
   -1.6360   22.7540  -26.8770 C   0  0  0  0  0  0  0  0  0  0  0  0
   -2.2730   23.9810  -27.5320 C   0  0  0  0  0  0  0  0  0  0  0  0
   -1.1050   24.7840  -28.6720 P   0  0  0  0  0  0  0  0  0  0  0  0
   -1.0750   24.0210  -29.9760 O   0  0  0  0  0  0  0  0  0  0  0  0
   -1.6010   26.3750  -28.9640 O   0  0  0  0  0  0  0  0  0  0  0  0
    0.4420   24.7930  -27.9910 O   0  0  0  0  0  0  0  0  0  0  0  0
   -1.1110   21.4390  -28.9980 C   0  0  0  0  0  0  0  0  0  0  0  0
    0.0730   21.8640  -29.0950 O   0  0  0  0  0  0  0  0  0  0  0  0
   -1.7480   20.7770  -30.2030 C   0  0  2  0  0  0  0  0  0  0  0  0
   -1.1560   21.2980  -31.4380 N   0  0  0  0  0  0  0  0  0  0  0  0
   -3.2800   20.9670  -30.2190 C   0  0  0  0  0  0  0  0  0  0  0  0
   -3.6990   22.2570  -30.8720 C   0  0  0  0  0  0  0  0  0  0  0  0
   -2.8220   23.0550  -31.2970 O   0  0  0  0  0  0  0  0  0  0  0  0
   -5.0870   22.5470  -31.0860 N   0  0  0  0  0  0  0  0  0  0  0  0
   -5.7580   23.6970  -30.7950 C   0  0  0  0  0  0  0  0  0  0  0  0
   -5.1430   24.9570  -30.3320 C   0  0  0  0  0  0  0  0  0  0  0  0
   -3.8820   25.3680  -30.8550 N   0  0  0  0  0  0  0  0  0  0  0  0
   -5.7100   25.6660  -29.4580 O   0  0  0  0  0  0  0  0  0  0  0  0
   -7.1160   23.5500  -31.0670 C   0  0  0  0  0  0  0  0  0  0  0  0
   -7.2550   22.2660  -31.5460 C   0  0  0  0  0  0  0  0  0  0  0  0
   -8.3910   21.5850  -31.9730 C   0  0  0  0  0  0  0  0  0  0  0  0
   -8.2390   20.2560  -32.4050 C   0  0  0  0  0  0  0  0  0  0  0  0
   -6.9660   19.6280  -32.3860 C   0  0  0  0  0  0  0  0  0  0  0  0
   -6.8140   18.2150  -32.8900 C   0  0  0  0  0  0  0  0  0  0  0  0
   -6.5110   18.2440  -34.2390 F   0  0  0  0  0  0  0  0  0  0  0  0
   -7.9900   17.5090  -32.7070 F   0  0  0  0  0  0  0  0  0  0  0  0
   -5.8030   17.5550  -32.2140 F   0  0  0  0  0  0  0  0  0  0  0  0
   -5.8330   20.3640  -31.9700 C   0  0  0  0  0  0  0  0  0  0  0  0
   -6.0150   21.6850  -31.5510 C   0  0  0  0  0  0  0  0  0  0  0  0
   -2.5441   20.4408  -26.1242 H   0  0  0  0  0  0  0  0  0  0  0  0
   -3.5943   20.4727  -27.5811 H   0  0  0  0  0  0  0  0  0  0  0  0
   -2.0877   19.4944  -27.5811 H   0  0  0  0  0  0  0  0  0  0  0  0
   -2.1186   22.5681  -25.9061 H   0  0  0  0  0  0  0  0  0  0  0  0
   -0.5618   22.9406  -26.7314 H   0  0  0  0  0  0  0  0  0  0  0  0
   -3.1662   23.6678  -28.0924 H   0  0  0  0  0  0  0  0  0  0  0  0
   -2.5471   24.6986  -26.7447 H   0  0  0  0  0  0  0  0  0  0  0  0
   -1.5499   19.6971  -30.1346 H   0  0  0  0  0  0  0  0  0  0  0  0
   -0.7890   22.2600  -31.2510 H   0  0  0  0  0  0  0  0  0  0  0  0
   -1.9170   21.4110  -32.1470 H   0  0  0  0  0  0  0  0  0  0  0  0
   -3.7326   20.1300  -30.7709 H   0  0  0  0  0  0  0  0  0  0  0  0
   -3.6218   20.9975  -29.1739 H   0  0  0  0  0  0  0  0  0  0  0  0
   -2.9900   25.0470  -30.4180 H   0  0  0  0  0  0  0  0  0  0  0  0
   -7.9089   24.2998  -30.9287 H   0  0  0  0  0  0  0  0  0  0  0  0
   -9.3775   22.0717  -31.9725 H   0  0  0  0  0  0  0  0  0  0  0  0
   -9.1162   19.6964  -32.7618 H   0  0  0  0  0  0  0  0  0  0  0  0
   -4.8320   19.9080  -31.9759 H   0  0  0  0  0  0  0  0  0  0  0  0
  1  2  1  0
  2  3  1  0
  3  4  1  0
  4  5  1  0
  5  6  2  0
  5  7  1  0
  5  8  1  0
  2  9  1  0
  9 10  2  0
  9 11  1  0
 11 12  1  0
 11 13  1  0
 13 14  1  0
 14 15  2  0
 14 16  1  0
 16 17  1  0
 17 18  1  0
 18 19  1  0
 18 20  2  0
 17 21  2  0
 21 22  1  0
 22 23  2  0
 23 24  1  0
 24 25  2  0
 25 26  1  0
 26 27  1  0
 26 28  1  0
 26 29  1  0
 25 30  1  0
 30 31  2  0
 31 16  1  0
 31 22  1  0
  1 32  1  0
  1 33  1  0
  1 34  1  0
  3 35  1  0
  3 36  1  0
  4 37  1  0
  4 38  1  0
 11 39  1  1
 12 40  1  0
 12 41  1  0
 13 42  1  0
 13 43  1  0
 19 44  1  0
 21 45  1  0
 23 46  1  0
 24 47  1  0
 30 48  1  0
M  CHG  3   7  -1   8  -1  19  -1
M  END
>  <UniqueID>  (68) 
67

>  <SMILES>  (68) 
CN(CCP(=O)([O-])[O-])C(=O)[C@H](N)CC(=O)n1c(C([NH-])=O)cc2ccc(C(F)(F)F)cc21

>  <Energy>  (68) 
78.0721922773249

>  <Genealogy>  (68) 
CN(CCP(=O)([O-])[O-])C(=O)C(N)CC(=O)n1c(C([NH-])=O)cc2ccc(C(F)(F)F)cc21 (protonated)
CN(CCP(=O)([O-])[O-])C(=O)[C@H](N)CC(=O)n1c(C([NH-])=O)cc2ccc(C(F)(F)F)cc21 (chirality)
CN(CCP(=O)([O-])[O-])C(=O)[C@H](N)CC(=O)n1c(C([NH-])=O)cc2ccc(C(F)(F)F)cc21 (3D coordinates assigned)
CN(CCP(=O)([O-])[O-])C(=O)[C@H](N)CC(=O)n1c(C([NH-])=O)cc2ccc(C(F)(F)F)cc21 (optimized conformer: 78.0721922773249 kcal/mol)

>  <smiles>  (68) 
CN(CCP(=O)(O)O)C(=O)C(N)CC(=O)n1c(C(N)=O)cc2ccc(C(F)(F)F)cc21

>  <score_type>  (68) 
oracle

>  <origin>  (68) 
adg

>  <m_score__min__energy>  (68) 
-13.779999999999999

>  <m_primary>  (68) 
energy

$$$$
69:0
     RDKit          3D

 51 53  0  0  0  0  0  0  0  0999 V2000
   -3.4850   25.2820  -30.2210 N   0  0  0  0  0  0  0  0  0  0  0  0
   -4.8790   25.3570  -30.5130 C   0  0  0  0  0  0  0  0  0  0  0  0
   -5.4640   26.4720  -30.4450 O   0  0  0  0  0  0  0  0  0  0  0  0
   -5.6470   24.1470  -30.8700 C   0  0  0  0  0  0  0  0  0  0  0  0
   -7.0250   24.1350  -31.0950 C   0  0  0  0  0  0  0  0  0  0  0  0
   -7.3380   22.8210  -31.3710 C   0  0  0  0  0  0  0  0  0  0  0  0
   -8.5540   22.2390  -31.7170 C   0  0  0  0  0  0  0  0  0  0  0  0
   -8.5680   20.8630  -32.0060 C   0  0  0  0  0  0  0  0  0  0  0  0
   -7.3770   20.0920  -31.9320 C   0  0  0  0  0  0  0  0  0  0  0  0
   -7.3900   18.6360  -32.3190 C   0  0  0  0  0  0  0  0  0  0  0  0
   -8.6830   18.1430  -32.3320 F   0  0  0  0  0  0  0  0  0  0  0  0
   -6.6420   17.9160  -31.4060 F   0  0  0  0  0  0  0  0  0  0  0  0
   -6.8500   18.4640  -33.5820 F   0  0  0  0  0  0  0  0  0  0  0  0
   -6.1600   20.7260  -31.5900 C   0  0  0  0  0  0  0  0  0  0  0  0
   -6.1800   22.0930  -31.3030 C   0  0  0  0  0  0  0  0  0  0  0  0
   -5.1370   22.8920  -30.9980 N   0  0  0  0  0  0  0  0  0  0  0  0
   -3.7630   22.4840  -30.9530 C   0  0  0  0  0  0  0  0  0  0  0  0
   -3.2230   22.0500  -32.0090 O   0  0  0  0  0  0  0  0  0  0  0  0
   -2.9800   22.7350  -29.7630 N   0  0  2  0  0  0  0  0  0  0  0  0
   -1.5520   22.4980  -30.0670 C   0  0  0  0  0  0  0  0  0  0  0  0
   -0.6070   23.2490  -29.1100 C   0  0  0  0  0  0  0  0  0  0  0  0
   -0.9190   24.7590  -28.9880 C   0  0  0  0  0  0  0  0  0  0  0  0
   -1.4520   25.2180  -27.6840 N   0  0  0  0  0  0  0  0  0  0  0  0
   -2.6740   24.5410  -27.2190 C   0  0  0  0  0  0  0  0  0  0  0  0
   -3.2630   25.2970  -26.0060 C   0  0  0  0  0  0  0  0  0  0  0  0
   -2.3590   26.2340  -25.4460 O   0  0  0  0  0  0  0  0  0  0  0  0
   -1.0930   25.6370  -25.2630 C   0  0  0  0  0  0  0  0  0  0  0  0
   -0.4320   25.3620  -26.6240 C   0  0  0  0  0  0  0  0  0  0  0  0
   -3.4460   21.9280  -28.6580 C   0  0  0  0  0  0  0  0  0  0  0  0
   -2.8860   20.8330  -28.3750 O   0  0  0  0  0  0  0  0  0  0  0  0
   -4.5410   22.3440  -27.9090 O   0  0  0  0  0  0  0  0  0  0  0  0
   -3.1020   25.6620  -29.3280 H   0  0  0  0  0  0  0  0  0  0  0  0
   -7.7142   24.9916  -31.0596 H   0  0  0  0  0  0  0  0  0  0  0  0
   -9.4760   22.8372  -31.7630 H   0  0  0  0  0  0  0  0  0  0  0  0
   -9.5125   20.3776  -32.2929 H   0  0  0  0  0  0  0  0  0  0  0  0
   -5.2199   20.1562  -31.5509 H   0  0  0  0  0  0  0  0  0  0  0  0
   -3.0980   23.7440  -29.5060 H   0  0  0  0  0  0  0  0  0  0  0  0
   -1.3496   21.4198  -29.9869 H   0  0  0  0  0  0  0  0  0  0  0  0
   -1.3623   22.8736  -31.0833 H   0  0  0  0  0  0  0  0  0  0  0  0
   -0.6909   22.7950  -28.1116 H   0  0  0  0  0  0  0  0  0  0  0  0
    0.4077   23.1624  -29.5258 H   0  0  0  0  0  0  0  0  0  0  0  0
    0.0132   25.3101  -29.1813 H   0  0  0  0  0  0  0  0  0  0  0  0
   -1.7211   24.9515  -29.7158 H   0  0  0  0  0  0  0  0  0  0  0  0
   -3.4139   24.5237  -28.0328 H   0  0  0  0  0  0  0  0  0  0  0  0
   -2.4272   23.5116  -26.9201 H   0  0  0  0  0  0  0  0  0  0  0  0
   -4.1665   25.8331  -26.3320 H   0  0  0  0  0  0  0  0  0  0  0  0
   -3.4865   24.5505  -25.2296 H   0  0  0  0  0  0  0  0  0  0  0  0
   -0.4530   26.3147  -24.6789 H   0  0  0  0  0  0  0  0  0  0  0  0
   -1.2201   24.6846  -24.7275 H   0  0  0  0  0  0  0  0  0  0  0  0
    0.2348   26.1995  -26.8767 H   0  0  0  0  0  0  0  0  0  0  0  0
    0.1394   24.4246  -26.5552 H   0  0  0  0  0  0  0  0  0  0  0  0
  1  2  1  0
  2  3  2  0
  2  4  1  0
  4  5  2  0
  5  6  1  0
  6  7  2  0
  7  8  1  0
  8  9  2  0
  9 10  1  0
 10 11  1  0
 10 12  1  0
 10 13  1  0
  9 14  1  0
 14 15  2  0
 15 16  1  0
 16 17  1  0
 17 18  2  0
 17 19  1  0
 19 20  1  0
 20 21  1  0
 21 22  1  0
 22 23  1  0
 23 24  1  0
 24 25  1  0
 25 26  1  0
 26 27  1  0
 27 28  1  0
 19 29  1  0
 29 30  2  0
 29 31  1  0
 16  4  1  0
 28 23  1  0
 15  6  1  0
  1 32  1  0
  5 33  1  0
  7 34  1  0
  8 35  1  0
 14 36  1  0
 19 37  1  1
 20 38  1  0
 20 39  1  0
 21 40  1  0
 21 41  1  0
 22 42  1  0
 22 43  1  0
 24 44  1  0
 24 45  1  0
 25 46  1  0
 25 47  1  0
 27 48  1  0
 27 49  1  0
 28 50  1  0
 28 51  1  0
M  CHG  3   1  -1  19   1  31  -1
M  END
>  <UniqueID>  (69) 
68

>  <SMILES>  (69) 
[NH-]C(=O)c1cc2ccc(C(F)(F)F)cc2n1C(=O)[NH+](CCCN1CCOCC1)C(=O)[O-]

>  <Energy>  (69) 
109.13590310963933

>  <Genealogy>  (69) 
[NH-]C(=O)c1cc2ccc(C(F)(F)F)cc2n1C(=O)[NH+](CCCN1CCOCC1)C(=O)[O-] (protonated)
[NH-]C(=O)c1cc2ccc(C(F)(F)F)cc2n1C(=O)[NH+](CCCN1CCOCC1)C(=O)[O-] (3D coordinates assigned)
[NH-]C(=O)c1cc2ccc(C(F)(F)F)cc2n1C(=O)[NH+](CCCN1CCOCC1)C(=O)[O-] (nonaromatic ring conformer: 109.13590310963933 kcal/mol)

>  <smiles>  (69) 
NC(=O)c1cc2ccc(C(F)(F)F)cc2n1C(=O)N(CCCN1CCOCC1)C(=O)O

>  <score_type>  (69) 
oracle

>  <origin>  (69) 
adg

>  <m_score__min__energy>  (69) 
-11.039999999999999

>  <m_primary>  (69) 
energy

$$$$
70:0
     RDKit          3D

 46 47  0  0  0  0  0  0  0  0999 V2000
   -2.9340   15.7140  -32.8050 N   0  0  0  0  0  0  0  0  0  0  0  0
   -3.0210   16.5560  -33.5960 C   0  0  0  0  0  0  0  0  0  0  0  0
   -3.1300   17.6200  -34.6050 C   0  0  0  0  0  0  0  0  0  0  0  0
   -4.2960   17.4330  -35.4030 O   0  0  0  0  0  0  0  0  0  0  0  0
   -5.5890   17.7460  -34.9640 C   0  0  0  0  0  0  0  0  0  0  0  0
   -6.0520   18.9110  -35.0950 O   0  0  0  0  0  0  0  0  0  0  0  0
   -6.4050   16.6870  -34.2860 C   0  0  0  0  0  0  0  0  0  0  0  0
   -6.2330   16.7390  -32.7640 C   0  0  0  0  0  0  0  0  0  0  0  0
   -7.0650   17.8300  -32.1630 C   0  0  0  0  0  0  0  0  0  0  0  0
   -7.1020   17.9720  -30.9110 O   0  0  0  0  0  0  0  0  0  0  0  0
   -7.7700   18.6990  -33.0020 O   0  0  0  0  0  0  0  0  0  0  0  0
   -8.2850   19.9600  -32.5740 C   0  0  0  0  0  0  0  0  0  0  0  0
   -7.1440   20.9570  -32.3420 C   0  0  0  0  0  0  0  0  0  0  0  0
   -5.8650   20.3990  -32.7770 N   0  0  0  0  0  0  0  0  0  0  0  0
   -4.6020   20.7840  -32.2000 C   0  0  0  0  0  0  0  0  0  0  0  0
   -3.4580   19.9440  -32.2790 C   0  0  0  0  0  0  0  0  0  0  0  0
   -2.2440   20.3330  -31.6940 C   0  0  0  0  0  0  0  0  0  0  0  0
   -2.1970   21.5560  -31.0350 C   0  0  0  0  0  0  0  0  0  0  0  0
   -1.1540   22.1640  -30.3750 C   0  0  0  0  0  0  0  0  0  0  0  0
   -1.6740   23.3600  -29.8840 C   0  0  0  0  0  0  0  0  0  0  0  0
   -0.9280   24.2700  -28.9820 C   0  0  0  0  0  0  0  0  0  0  0  0
   -1.5980   25.3340  -28.3000 N   0  0  0  0  0  0  0  0  0  0  0  0
    0.3170   24.1460  -28.8440 O   0  0  0  0  0  0  0  0  0  0  0  0
   -2.9860   23.4900  -30.2360 N   0  0  0  0  0  0  0  0  0  0  0  0
   -3.8640   24.5940  -29.9530 C   0  0  0  0  0  0  0  0  0  0  0  0
   -4.5700   24.5940  -28.9080 O   0  0  0  0  0  0  0  0  0  0  0  0
   -3.9500   25.6670  -30.8330 O   0  0  0  0  0  0  0  0  0  0  0  0
   -3.2910   22.3760  -30.9380 C   0  0  0  0  0  0  0  0  0  0  0  0
   -4.5090   22.0240  -31.5310 C   0  0  0  0  0  0  0  0  0  0  0  0
   -3.1904   18.5946  -34.0984 H   0  0  0  0  0  0  0  0  0  0  0  0
   -2.2439   17.5855  -35.2559 H   0  0  0  0  0  0  0  0  0  0  0  0
   -7.4661   16.8403  -34.5319 H   0  0  0  0  0  0  0  0  0  0  0  0
   -6.0608   15.7042  -34.6404 H   0  0  0  0  0  0  0  0  0  0  0  0
   -6.5414   15.7744  -32.3347 H   0  0  0  0  0  0  0  0  0  0  0  0
   -5.1756   16.9426  -32.5392 H   0  0  0  0  0  0  0  0  0  0  0  0
   -8.9600   20.3562  -33.3470 H   0  0  0  0  0  0  0  0  0  0  0  0
   -8.8305   19.8186  -31.6293 H   0  0  0  0  0  0  0  0  0  0  0  0
   -7.3479   21.8760  -32.9112 H   0  0  0  0  0  0  0  0  0  0  0  0
   -7.0831   21.1761  -31.2658 H   0  0  0  0  0  0  0  0  0  0  0  0
   -5.8580   19.7150  -33.5710 H   0  0  0  0  0  0  0  0  0  0  0  0
   -3.5254   18.9797  -32.8039 H   0  0  0  0  0  0  0  0  0  0  0  0
   -1.3545   19.6887  -31.7550 H   0  0  0  0  0  0  0  0  0  0  0  0
   -0.1274   21.7861  -30.2594 H   0  0  0  0  0  0  0  0  0  0  0  0
   -2.6400   25.4280  -28.3250 H   0  0  0  0  0  0  0  0  0  0  0  0
   -1.0470   26.0260  -27.7450 H   0  0  0  0  0  0  0  0  0  0  0  0
   -5.3757   22.6992  -31.4770 H   0  0  0  0  0  0  0  0  0  0  0  0
  1  2  3  0
  2  3  1  0
  3  4  1  0
  4  5  1  0
  5  6  2  0
  5  7  1  0
  7  8  1  0
  8  9  1  0
  9 10  2  0
  9 11  1  0
 11 12  1  0
 12 13  1  0
 13 14  1  0
 14 15  1  0
 15 16  2  0
 16 17  1  0
 17 18  2  0
 18 19  1  0
 19 20  2  0
 20 21  1  0
 21 22  1  0
 21 23  2  0
 20 24  1  0
 24 25  1  0
 25 26  2  0
 25 27  1  0
 24 28  1  0
 28 29  2  0
 29 15  1  0
 28 18  1  0
  3 30  1  0
  3 31  1  0
  7 32  1  0
  7 33  1  0
  8 34  1  0
  8 35  1  0
 12 36  1  0
 12 37  1  0
 13 38  1  0
 13 39  1  0
 14 40  1  0
 16 41  1  0
 17 42  1  0
 19 43  1  0
 22 44  1  0
 22 45  1  0
 29 46  1  0
M  CHG  1  27  -1
M  END
>  <UniqueID>  (70) 
69

>  <SMILES>  (70) 
N#CCOC(=O)CCC(=O)OCCNc1ccc2cc(C(N)=O)n(C(=O)[O-])c2c1

>  <Energy>  (70) 
74.37907804535118

>  <Genealogy>  (70) 
N#CCOC(=O)CCC(=O)OCCNc1ccc2cc(C(N)=O)n(C(=O)[O-])c2c1 (protonated)
N#CCOC(=O)CCC(=O)OCCNc1ccc2cc(C(N)=O)n(C(=O)[O-])c2c1 (3D coordinates assigned)
N#CCOC(=O)CCC(=O)OCCNc1ccc2cc(C(N)=O)n(C(=O)[O-])c2c1 (optimized conformer: 74.37907804535118 kcal/mol)

>  <smiles>  (70) 
N#CCOC(=O)CCC(=O)OCCNc1ccc2cc(C(N)=O)n(C(=O)O)c2c1

>  <score_type>  (70) 
oracle

>  <origin>  (70) 
adg

>  <m_score__min__energy>  (70) 
-8.4399999999999995

>  <m_primary>  (70) 
energy

$$$$
71:0
     RDKit          3D

 44 45  0  0  0  0  0  0  0  0999 V2000
   -5.4040   16.3050  -32.9050 C   0  0  0  0  0  0  0  0  0  0  0  0
   -5.3880   17.8380  -32.9080 C   0  0  1  0  0  0  0  0  0  0  0  0
   -4.8690   18.3890  -34.2100 C   0  0  0  0  0  0  0  0  0  0  0  0
   -3.9520   19.2540  -34.2240 O   0  0  0  0  0  0  0  0  0  0  0  0
   -5.3620   17.8970  -35.4100 O   0  0  0  0  0  0  0  0  0  0  0  0
   -6.7200   18.3880  -32.6030 N   0  0  0  0  0  0  0  0  0  0  0  0
   -7.8350   17.4720  -32.3630 C   0  0  0  0  0  0  0  0  0  0  0  0
   -6.8940   19.7790  -32.2900 C   0  0  0  0  0  0  0  0  0  0  0  0
   -8.1390   20.4080  -32.5320 C   0  0  0  0  0  0  0  0  0  0  0  0
   -8.3180   21.7740  -32.2490 C   0  0  0  0  0  0  0  0  0  0  0  0
   -7.2340   22.4780  -31.7330 C   0  0  0  0  0  0  0  0  0  0  0  0
   -7.1180   23.8080  -31.3900 C   0  0  0  0  0  0  0  0  0  0  0  0
   -5.8030   23.9620  -30.9490 C   0  0  0  0  0  0  0  0  0  0  0  0
   -5.2500   25.2270  -30.4260 C   0  0  0  0  0  0  0  0  0  0  0  0
   -3.9630   25.6720  -30.8520 N   0  0  0  0  0  0  0  0  0  0  0  0
   -5.9100   25.9330  -29.6170 O   0  0  0  0  0  0  0  0  0  0  0  0
   -5.1370   22.7760  -31.0210 N   0  0  0  0  0  0  0  0  0  0  0  0
   -3.7610   22.5160  -30.7180 C   0  0  0  0  0  0  0  0  0  0  0  0
   -2.8730   23.3160  -31.1170 O   0  0  0  0  0  0  0  0  0  0  0  0
   -3.3870   21.3710  -29.8260 C   0  0  0  0  0  0  0  0  0  0  0  0
   -3.0180   21.8870  -28.4310 C   0  0  0  0  0  0  0  0  0  0  0  0
   -3.7610   23.1790  -28.0820 C   0  0  0  0  0  0  0  0  0  0  0  0
   -3.0290   24.3010  -28.4990 O   0  0  0  0  0  0  0  0  0  0  0  0
   -6.0240   21.8800  -31.4990 C   0  0  0  0  0  0  0  0  0  0  0  0
   -5.8140   20.5270  -31.7790 C   0  0  0  0  0  0  0  0  0  0  0  0
   -5.4078   15.9404  -31.8672 H   0  0  0  0  0  0  0  0  0  0  0  0
   -6.3059   15.9467  -33.4228 H   0  0  0  0  0  0  0  0  0  0  0  0
   -4.5097   15.9280  -33.4228 H   0  0  0  0  0  0  0  0  0  0  0  0
   -4.6966   18.1542  -32.1130 H   0  0  0  0  0  0  0  0  0  0  0  0
   -7.9830   17.3504  -31.2798 H   0  0  0  0  0  0  0  0  0  0  0  0
   -8.7503   17.8824  -32.8144 H   0  0  0  0  0  0  0  0  0  0  0  0
   -7.6101   16.4944  -32.8144 H   0  0  0  0  0  0  0  0  0  0  0  0
   -8.9740   19.8230  -32.9451 H   0  0  0  0  0  0  0  0  0  0  0  0
   -9.2832   22.2697  -32.4296 H   0  0  0  0  0  0  0  0  0  0  0  0
   -7.8963   24.5830  -31.4509 H   0  0  0  0  0  0  0  0  0  0  0  0
   -3.0930   25.2670  -30.4410 H   0  0  0  0  0  0  0  0  0  0  0  0
   -4.2392   20.6803  -29.7445 H   0  0  0  0  0  0  0  0  0  0  0  0
   -2.5203   20.8481  -30.2567 H   0  0  0  0  0  0  0  0  0  0  0  0
   -3.2755   21.1176  -27.6882 H   0  0  0  0  0  0  0  0  0  0  0  0
   -1.9394   22.1028  -28.4231 H   0  0  0  0  0  0  0  0  0  0  0  0
   -4.7397   23.1795  -28.5842 H   0  0  0  0  0  0  0  0  0  0  0  0
   -3.8915   23.2278  -26.9909 H   0  0  0  0  0  0  0  0  0  0  0  0
   -3.3820   24.5610  -29.3900 H   0  0  0  0  0  0  0  0  0  0  0  0
   -4.8337   20.0590  -31.6055 H   0  0  0  0  0  0  0  0  0  0  0  0
  1  2  1  0
  2  3  1  0
  3  4  2  0
  3  5  1  0
  2  6  1  0
  6  7  1  0
  6  8  1  0
  8  9  2  0
  9 10  1  0
 10 11  2  0
 11 12  1  0
 12 13  2  0
 13 14  1  0
 14 15  1  0
 14 16  2  0
 13 17  1  0
 17 18  1  0
 18 19  2  0
 18 20  1  0
 20 21  1  0
 21 22  1  0
 22 23  1  0
 17 24  1  0
 24 25  2  0
 25  8  1  0
 24 11  1  0
  1 26  1  0
  1 27  1  0
  1 28  1  0
  2 29  1  1
  7 30  1  0
  7 31  1  0
  7 32  1  0
  9 33  1  0
 10 34  1  0
 12 35  1  0
 15 36  1  0
 20 37  1  0
 20 38  1  0
 21 39  1  0
 21 40  1  0
 22 41  1  0
 22 42  1  0
 23 43  1  0
 25 44  1  0
M  CHG  2   5  -1  15  -1
M  END
>  <UniqueID>  (71) 
70

>  <SMILES>  (71) 
C[C@@H](C(=O)[O-])N(C)c1ccc2cc(C([NH-])=O)n(C(=O)CCCO)c2c1

>  <Energy>  (71) 
81.19803340025216

>  <Genealogy>  (71) 
CC(C(=O)[O-])N(C)c1ccc2cc(C([NH-])=O)n(C(=O)CCCO)c2c1 (protonated)
C[C@@H](C(=O)[O-])N(C)c1ccc2cc(C([NH-])=O)n(C(=O)CCCO)c2c1 (chirality)
C[C@@H](C(=O)[O-])N(C)c1ccc2cc(C([NH-])=O)n(C(=O)CCCO)c2c1 (3D coordinates assigned)
C[C@@H](C(=O)[O-])N(C)c1ccc2cc(C([NH-])=O)n(C(=O)CCCO)c2c1 (optimized conformer: 81.19803340025216 kcal/mol)

>  <smiles>  (71) 
CC(C(=O)O)N(C)c1ccc2cc(C(N)=O)n(C(=O)CCCO)c2c1

>  <score_type>  (71) 
oracle

>  <origin>  (71) 
adg

>  <m_score__min__energy>  (71) 
-10.529999999999999

>  <m_primary>  (71) 
energy

$$$$
72:0
     RDKit          3D

 67 70  0  0  0  0  0  0  0  0999 V2000
   -3.3500   25.0830  -26.3330 C   0  0  0  0  0  0  0  0  0  0  0  0
   -1.9560   24.5740  -26.7550 C   0  0  0  0  0  0  0  0  0  0  0  0
   -1.0860   24.3830  -25.4970 C   0  0  0  0  0  0  0  0  0  0  0  0
   -1.3100   25.6290  -27.6900 C   0  0  0  0  0  0  0  0  0  0  0  0
   -1.9780   25.6860  -28.9220 O   0  0  0  0  0  0  0  0  0  0  0  0
   -2.1050   23.2350  -27.4570 C   0  0  0  0  0  0  0  0  0  0  0  0
   -2.0850   23.1880  -28.7190 O   0  0  0  0  0  0  0  0  0  0  0  0
   -2.3180   22.0640  -26.7160 O   0  0  0  0  0  0  0  0  0  0  0  0
   -1.2750   21.1490  -26.3750 C   0  0  2  0  0  0  0  0  0  0  0  0
    0.1180   21.6870  -26.9500 C   0  0  0  0  0  0  0  0  0  0  0  0
    0.5410   20.7820  -28.1110 C   0  0  1  0  0  0  0  0  0  0  0  0
    1.6580   19.8410  -28.6070 C   0  0  0  0  0  0  0  0  0  0  0  0
    1.1150   18.5700  -29.0290 O   0  0  0  0  0  0  0  0  0  0  0  0
   -0.1240   18.1740  -28.3960 C   0  0  0  0  0  0  0  0  0  0  0  0
   -1.2360   19.3110  -28.3390 C   0  0  1  0  0  0  0  0  0  0  0  0
   -1.7040   19.6890  -26.8710 C   0  0  0  0  0  0  0  0  0  0  0  0
   -0.6840   20.5380  -28.8900 N   0  0  0  0  0  0  0  0  0  0  0  0
   -0.5490   20.6070  -30.3620 C   0  0  0  0  0  0  0  0  0  0  0  0
   -1.7810   20.0020  -31.0430 C   0  0  0  0  0  0  0  0  0  0  0  0
   -2.3950   20.9450  -31.9220 O   0  0  0  0  0  0  0  0  0  0  0  0
   -2.9870   22.1400  -31.4970 C   0  0  0  0  0  0  0  0  0  0  0  0
   -2.2680   23.1190  -31.1590 O   0  0  0  0  0  0  0  0  0  0  0  0
   -4.4210   22.2550  -31.4600 N   0  0  0  0  0  0  0  0  0  0  0  0
   -5.1600   23.1680  -30.7670 C   0  0  0  0  0  0  0  0  0  0  0  0
   -4.6310   24.3360  -30.0330 C   0  0  0  0  0  0  0  0  0  0  0  0
   -3.8700   25.3350  -30.7050 N   0  0  0  0  0  0  0  0  0  0  0  0
   -4.9000   24.4770  -28.8090 O   0  0  0  0  0  0  0  0  0  0  0  0
   -6.5190   22.8890  -30.8810 C   0  0  0  0  0  0  0  0  0  0  0  0
   -6.5970   21.7730  -31.6790 C   0  0  0  0  0  0  0  0  0  0  0  0
   -7.7100   21.0500  -32.0940 C   0  0  0  0  0  0  0  0  0  0  0  0
   -7.4980   19.9070  -32.8800 C   0  0  0  0  0  0  0  0  0  0  0  0
   -6.1850   19.5100  -33.2440 C   0  0  0  0  0  0  0  0  0  0  0  0
   -5.9680   18.2500  -34.0410 C   0  0  0  0  0  0  0  0  0  0  0  0
   -4.7110   17.7260  -33.7910 F   0  0  0  0  0  0  0  0  0  0  0  0
   -6.9100   17.2920  -33.7100 F   0  0  0  0  0  0  0  0  0  0  0  0
   -6.0760   18.5390  -35.3890 F   0  0  0  0  0  0  0  0  0  0  0  0
   -5.0770   20.2570  -32.7780 C   0  0  0  0  0  0  0  0  0  0  0  0
   -5.3190   21.4060  -32.0140 C   0  0  0  0  0  0  0  0  0  0  0  0
   -3.4148   25.1067  -25.2352 H   0  0  0  0  0  0  0  0  0  0  0  0
   -3.5065   26.0963  -26.7315 H   0  0  0  0  0  0  0  0  0  0  0  0
   -4.1226   24.4090  -26.7315 H   0  0  0  0  0  0  0  0  0  0  0  0
   -1.7058   24.5191  -24.5985 H   0  0  0  0  0  0  0  0  0  0  0  0
   -0.6583   23.3696  -25.4974 H   0  0  0  0  0  0  0  0  0  0  0  0
   -0.2731   25.1241  -25.4974 H   0  0  0  0  0  0  0  0  0  0  0  0
   -1.3607   26.6162  -27.2075 H   0  0  0  0  0  0  0  0  0  0  0  0
   -0.2638   25.3418  -27.8719 H   0  0  0  0  0  0  0  0  0  0  0  0
   -2.8470   25.2270  -28.7860 H   0  0  0  0  0  0  0  0  0  0  0  0
   -1.1224   21.0719  -25.2884 H   0  0  0  0  0  0  0  0  0  0  0  0
   -0.0017   22.7201  -27.3083 H   0  0  0  0  0  0  0  0  0  0  0  0
    0.8841   21.6738  -26.1608 H   0  0  0  0  0  0  0  0  0  0  0  0
    1.5095   21.2482  -27.8772 H   0  0  0  0  0  0  0  0  0  0  0  0
    2.1739   20.3117  -29.4568 H   0  0  0  0  0  0  0  0  0  0  0  0
    2.3607   19.6644  -27.7794 H   0  0  0  0  0  0  0  0  0  0  0  0
   -0.5358   17.3200  -28.9537 H   0  0  0  0  0  0  0  0  0  0  0  0
    0.1247   17.9308  -27.3525 H   0  0  0  0  0  0  0  0  0  0  0  0
   -2.0937   18.9084  -28.8979 H   0  0  0  0  0  0  0  0  0  0  0  0
   -2.8017   19.6267  -26.8369 H   0  0  0  0  0  0  0  0  0  0  0  0
   -1.2030   18.9779  -26.1977 H   0  0  0  0  0  0  0  0  0  0  0  0
   -0.4467   21.6589  -30.6672 H   0  0  0  0  0  0  0  0  0  0  0  0
    0.3411   20.0359  -30.6647 H   0  0  0  0  0  0  0  0  0  0  0  0
   -1.4745   19.1179  -31.6213 H   0  0  0  0  0  0  0  0  0  0  0  0
   -2.5082   19.7218  -30.2667 H   0  0  0  0  0  0  0  0  0  0  0  0
   -2.8320   25.2490  -30.7880 H   0  0  0  0  0  0  0  0  0  0  0  0
   -7.3537   23.4443  -30.4282 H   0  0  0  0  0  0  0  0  0  0  0  0
   -8.7263   21.3647  -31.8145 H   0  0  0  0  0  0  0  0  0  0  0  0
   -8.3593   19.3120  -33.2178 H   0  0  0  0  0  0  0  0  0  0  0  0
   -4.0489   19.9425  -33.0105 H   0  0  0  0  0  0  0  0  0  0  0  0
  1  2  1  0
  2  3  1  0
  2  4  1  0
  4  5  1  0
  2  6  1  0
  6  7  2  0
  6  8  1  0
  8  9  1  0
  9 10  1  0
 10 11  1  0
 11 12  1  0
 12 13  1  0
 13 14  1  0
 14 15  1  0
 15 16  1  0
 15 17  1  0
 17 18  1  0
 18 19  1  0
 19 20  1  0
 20 21  1  0
 21 22  2  0
 21 23  1  0
 23 24  1  0
 24 25  1  0
 25 26  1  0
 25 27  2  0
 24 28  2  0
 28 29  1  0
 29 30  2  0
 30 31  1  0
 31 32  2  0
 32 33  1  0
 33 34  1  0
 33 35  1  0
 33 36  1  0
 32 37  1  0
 37 38  2  0
 16  9  1  0
 38 23  1  0
 17 11  1  0
 38 29  1  0
  1 39  1  0
  1 40  1  0
  1 41  1  0
  3 42  1  0
  3 43  1  0
  3 44  1  0
  4 45  1  0
  4 46  1  0
  5 47  1  0
  9 48  1  1
 10 49  1  0
 10 50  1  0
 11 51  1  6
 12 52  1  0
 12 53  1  0
 14 54  1  0
 14 55  1  0
 15 56  1  6
 16 57  1  0
 16 58  1  0
 18 59  1  0
 18 60  1  0
 19 61  1  0
 19 62  1  0
 26 63  1  0
 28 64  1  0
 30 65  1  0
 31 66  1  0
 37 67  1  0
M  CHG  1  26  -1
M  END
>  <UniqueID>  (72) 
71

>  <SMILES>  (72) 
CC(C)(CO)C(=O)OC1C[C@@H]2COC[C@@H](C1)N2CCOC(=O)n1c(C([NH-])=O)cc2ccc(C(F)(F)F)cc21

>  <Energy>  (72) 
225.44115792321858

>  <Genealogy>  (72) 
CC(C)(CO)C(=O)OC1CC2COCC(C1)N2CCOC(=O)n1c(C([NH-])=O)cc2ccc(C(F)(F)F)cc21 (protonated)
CC(C)(CO)C(=O)OC1C[C@@H]2COC[C@@H](C1)N2CCOC(=O)n1c(C([NH-])=O)cc2ccc(C(F)(F)F)cc21 (chirality)
CC(C)(CO)C(=O)OC1C[C@@H]2COC[C@@H](C1)N2CCOC(=O)n1c(C([NH-])=O)cc2ccc(C(F)(F)F)cc21 (3D coordinates assigned)
CC(C)(CO)C(=O)OC1C[C@@H]2COC[C@@H](C1)N2CCOC(=O)n1c(C([NH-])=O)cc2ccc(C(F)(F)F)cc21 (nonaromatic ring conformer: 225.44115792321858 kcal/mol)

>  <smiles>  (72) 
CC(C)(CO)C(=O)OC1CC2COCC(C1)N2CCOC(=O)n1c(C(N)=O)cc2ccc(C(F)(F)F)cc21

>  <score_type>  (72) 
oracle

>  <origin>  (72) 
adg

>  <m_score__min__energy>  (72) 
-12.1

>  <m_primary>  (72) 
energy

$$$$
73:0
     RDKit          3D

 51 52  0  0  0  0  0  0  0  0999 V2000
   -1.5450   20.8270  -33.8560 C   0  0  0  0  0  0  0  0  0  0  0  0
   -1.7480   20.6130  -32.3490 C   0  0  0  0  0  0  0  0  0  0  0  0
   -3.0060   19.7600  -32.0940 C   0  0  0  0  0  0  0  0  0  0  0  0
   -1.7430   21.9690  -31.5840 C   0  0  1  0  0  0  0  0  0  0  0  0
   -3.0740   22.3220  -31.0770 N   0  0  0  0  0  0  0  0  0  0  0  0
   -4.1770   22.5840  -31.9500 C   0  0  0  0  0  0  0  0  0  0  0  0
   -4.0140   22.6020  -33.2000 O   0  0  0  0  0  0  0  0  0  0  0  0
   -5.4780   22.8200  -31.4010 N   0  0  0  0  0  0  0  0  0  0  0  0
   -5.9570   23.9660  -30.8440 C   0  0  0  0  0  0  0  0  0  0  0  0
   -5.2150   25.2400  -30.7120 C   0  0  0  0  0  0  0  0  0  0  0  0
   -3.8680   25.3620  -31.1620 N   0  0  0  0  0  0  0  0  0  0  0  0
   -5.7870   26.2430  -30.2070 O   0  0  0  0  0  0  0  0  0  0  0  0
   -7.2900   23.8020  -30.4630 C   0  0  0  0  0  0  0  0  0  0  0  0
   -7.6140   22.5120  -30.8200 C   0  0  0  0  0  0  0  0  0  0  0  0
   -8.8120   21.8180  -30.6810 C   0  0  0  0  0  0  0  0  0  0  0  0
   -8.8590   20.4890  -31.1390 C   0  0  0  0  0  0  0  0  0  0  0  0
   -7.7190   19.8840  -31.7320 C   0  0  0  0  0  0  0  0  0  0  0  0
   -7.7930   18.4440  -32.1640 C   0  0  0  0  0  0  0  0  0  0  0  0
   -7.3890   18.2830  -33.4770 F   0  0  0  0  0  0  0  0  0  0  0  0
   -6.9750   17.6810  -31.3500 F   0  0  0  0  0  0  0  0  0  0  0  0
   -9.0940   17.9890  -32.0450 F   0  0  0  0  0  0  0  0  0  0  0  0
   -6.5160   20.6240  -31.8480 C   0  0  0  0  0  0  0  0  0  0  0  0
   -6.5050   21.9440  -31.3870 C   0  0  0  0  0  0  0  0  0  0  0  0
   -0.7390   21.9720  -30.4640 C   0  0  0  0  0  0  0  0  0  0  0  0
    0.0520   21.0020  -30.3190 O   0  0  0  0  0  0  0  0  0  0  0  0
   -0.6400   23.1190  -29.6130 N   0  0  0  0  0  0  0  0  0  0  0  0
   -0.4090   23.0340  -28.1740 C   0  0  2  0  0  0  0  0  0  0  0  0
   -1.4060   23.9480  -27.4460 C   0  0  0  0  0  0  0  0  0  0  0  0
   -2.3120   24.6540  -28.4090 C   0  0  0  0  0  0  0  0  0  0  0  0
   -1.9340   25.7160  -28.9730 O   0  0  0  0  0  0  0  0  0  0  0  0
   -3.5520   24.1130  -28.7240 O   0  0  0  0  0  0  0  0  0  0  0  0
    1.0110   23.4220  -27.8580 C   0  0  0  0  0  0  0  0  0  0  0  0
    1.4530   24.5570  -28.1840 O   0  0  0  0  0  0  0  0  0  0  0  0
    1.8270   22.5430  -27.1570 O   0  0  0  0  0  0  0  0  0  0  0  0
   -0.7961   21.6165  -34.0166 H   0  0  0  0  0  0  0  0  0  0  0  0
   -1.1951   19.8908  -34.3154 H   0  0  0  0  0  0  0  0  0  0  0  0
   -2.4984   21.1270  -34.3154 H   0  0  0  0  0  0  0  0  0  0  0  0
   -0.8987   20.0431  -31.9441 H   0  0  0  0  0  0  0  0  0  0  0  0
   -3.1633   19.6534  -31.0105 H   0  0  0  0  0  0  0  0  0  0  0  0
   -3.8804   20.2523  -32.5447 H   0  0  0  0  0  0  0  0  0  0  0  0
   -2.8723   18.7655  -32.5447 H   0  0  0  0  0  0  0  0  0  0  0  0
   -1.4467   22.7359  -32.3148 H   0  0  0  0  0  0  0  0  0  0  0  0
   -3.2240   22.4590  -30.0510 H   0  0  0  0  0  0  0  0  0  0  0  0
   -3.0700   25.2960  -30.4960 H   0  0  0  0  0  0  0  0  0  0  0  0
   -7.9424   24.5447  -29.9806 H   0  0  0  0  0  0  0  0  0  0  0  0
   -9.6941   22.2936  -30.2274 H   0  0  0  0  0  0  0  0  0  0  0  0
   -9.7896   19.9114  -31.0367 H   0  0  0  0  0  0  0  0  0  0  0  0
   -5.6152   20.1721  -32.2888 H   0  0  0  0  0  0  0  0  0  0  0  0
   -0.5632   22.0001  -27.8314 H   0  0  0  0  0  0  0  0  0  0  0  0
   -2.0161   23.3385  -26.7632 H   0  0  0  0  0  0  0  0  0  0  0  0
   -0.8351   24.7071  -26.8911 H   0  0  0  0  0  0  0  0  0  0  0  0
  1  2  1  0
  2  3  1  0
  2  4  1  0
  4  5  1  0
  5  6  1  0
  6  7  2  0
  6  8  1  0
  8  9  1  0
  9 10  1  0
 10 11  1  0
 10 12  2  0
  9 13  2  0
 13 14  1  0
 14 15  2  0
 15 16  1  0
 16 17  2  0
 17 18  1  0
 18 19  1  0
 18 20  1  0
 18 21  1  0
 17 22  1  0
 22 23  2  0
  4 24  1  0
 24 25  2  0
 24 26  1  0
 26 27  1  0
 27 28  1  0
 28 29  1  0
 29 30  2  0
 29 31  1  0
 27 32  1  0
 32 33  2  0
 32 34  1  0
 23  8  1  0
 23 14  1  0
  1 35  1  0
  1 36  1  0
  1 37  1  0
  2 38  1  0
  3 39  1  0
  3 40  1  0
  3 41  1  0
  4 42  1  6
  5 43  1  0
 11 44  1  0
 13 45  1  0
 15 46  1  0
 16 47  1  0
 22 48  1  0
 27 49  1  1
 28 50  1  0
 28 51  1  0
M  CHG  4  11  -1  26  -1  31  -1  34  -1
M  END
>  <UniqueID>  (73) 
72

>  <SMILES>  (73) 
CC(C)[C@@H](NC(=O)n1c(C([NH-])=O)cc2ccc(C(F)(F)F)cc21)C(=O)[N-][C@H](CC(=O)[O-])C(=O)[O-]

>  <Energy>  (73) 
81.45427495351169

>  <Genealogy>  (73) 
CC(C)[C@@H](NC(=O)n1c(C([NH-])=O)cc2ccc(C(F)(F)F)cc21)C(=O)[N-]C(CC(=O)[O-])C(=O)[O-] (protonated)
CC(C)[C@@H](NC(=O)n1c(C([NH-])=O)cc2ccc(C(F)(F)F)cc21)C(=O)[N-][C@H](CC(=O)[O-])C(=O)[O-] (chirality)
CC(C)[C@@H](NC(=O)n1c(C([NH-])=O)cc2ccc(C(F)(F)F)cc21)C(=O)[N-][C@H](CC(=O)[O-])C(=O)[O-] (3D coordinates assigned)
CC(C)[C@@H](NC(=O)n1c(C([NH-])=O)cc2ccc(C(F)(F)F)cc21)C(=O)[N-][C@H](CC(=O)[O-])C(=O)[O-] (optimized conformer: 81.45427495351169 kcal/mol)

>  <smiles>  (73) 
CC(C)[C@@H](NC(=O)n1c(C(N)=O)cc2ccc(C(F)(F)F)cc21)C(=O)NC(CC(=O)O)C(=O)O

>  <score_type>  (73) 
oracle

>  <origin>  (73) 
adg

>  <m_score__min__energy>  (73) 
-13.380000000000001

>  <m_primary>  (73) 
energy

$$$$
75:0
     RDKit          3D

 37 38  0  0  0  0  0  0  0  0999 V2000
   -0.9040   26.4760  -27.9790 C   0  0  0  0  0  0  0  0  0  0  0  0
   -1.5370   25.6700  -29.0130 N   0  0  0  0  0  0  0  0  0  0  0  0
   -2.0170   24.3320  -28.8350 C   0  0  0  0  0  0  0  0  0  0  0  0
   -3.2090   24.1620  -28.4660 O   0  0  0  0  0  0  0  0  0  0  0  0
   -1.1570   23.1240  -29.0950 C   0  0  0  0  0  0  0  0  0  0  0  0
   -1.9010   21.9000  -28.8210 N   0  0  0  0  0  0  0  0  0  0  0  0
   -2.3540   21.0170  -29.8490 C   0  0  0  0  0  0  0  0  0  0  0  0
   -1.6440   20.0230  -30.1600 O   0  0  0  0  0  0  0  0  0  0  0  0
   -3.5660   21.2720  -30.5020 O   0  0  0  0  0  0  0  0  0  0  0  0
   -3.9620   22.5170  -31.0060 C   0  0  0  0  0  0  0  0  0  0  0  0
   -3.1060   23.3730  -31.3620 O   0  0  0  0  0  0  0  0  0  0  0  0
   -5.3600   22.8040  -31.1560 N   0  0  0  0  0  0  0  0  0  0  0  0
   -6.0160   23.9470  -30.8100 C   0  0  0  0  0  0  0  0  0  0  0  0
   -5.3820   25.2010  -30.3550 C   0  0  0  0  0  0  0  0  0  0  0  0
   -4.0930   25.5640  -30.8450 N   0  0  0  0  0  0  0  0  0  0  0  0
   -5.9550   25.9450  -29.5160 O   0  0  0  0  0  0  0  0  0  0  0  0
   -7.3860   23.8070  -31.0190 C   0  0  0  0  0  0  0  0  0  0  0  0
   -7.5510   22.5340  -31.5150 C   0  0  0  0  0  0  0  0  0  0  0  0
   -8.7120   21.8570  -31.8790 C   0  0  0  0  0  0  0  0  0  0  0  0
   -8.5890   20.5310  -32.3290 C   0  0  0  0  0  0  0  0  0  0  0  0
   -7.3150   19.9140  -32.4110 C   0  0  0  0  0  0  0  0  0  0  0  0
   -7.2020   18.4830  -32.8430 C   0  0  0  0  0  0  0  0  0  0  0  0
   -6.1610   20.6250  -32.0170 C   0  0  0  0  0  0  0  0  0  0  0  0
   -6.3130   21.9490  -31.5900 C   0  0  0  0  0  0  0  0  0  0  0  0
   -1.1995   26.0997  -26.9885 H   0  0  0  0  0  0  0  0  0  0  0  0
    0.1893   26.4139  -28.0836 H   0  0  0  0  0  0  0  0  0  0  0  0
   -1.2234   27.5234  -28.0836 H   0  0  0  0  0  0  0  0  0  0  0  0
   -0.8383   23.1261  -30.1478 H   0  0  0  0  0  0  0  0  0  0  0  0
   -0.2790   23.1628  -28.4335 H   0  0  0  0  0  0  0  0  0  0  0  0
   -3.2270   25.2780  -30.3390 H   0  0  0  0  0  0  0  0  0  0  0  0
   -8.1696   24.5551  -30.8281 H   0  0  0  0  0  0  0  0  0  0  0  0
   -9.6958   22.3451  -31.8163 H   0  0  0  0  0  0  0  0  0  0  0  0
   -9.4880   19.9677  -32.6198 H   0  0  0  0  0  0  0  0  0  0  0  0
   -7.1508   17.8350  -31.9556 H   0  0  0  0  0  0  0  0  0  0  0  0
   -8.0815   18.2112  -33.4452 H   0  0  0  0  0  0  0  0  0  0  0  0
   -6.2908   18.3527  -33.4452 H   0  0  0  0  0  0  0  0  0  0  0  0
   -5.1687   20.1510  -32.0449 H   0  0  0  0  0  0  0  0  0  0  0  0
  1  2  1  0
  2  3  1  0
  3  4  2  0
  3  5  1  0
  5  6  1  0
  6  7  1  0
  7  8  2  0
  7  9  1  0
  9 10  1  0
 10 11  2  0
 10 12  1  0
 12 13  1  0
 13 14  1  0
 14 15  1  0
 14 16  2  0
 13 17  2  0
 17 18  1  0
 18 19  2  0
 19 20  1  0
 20 21  2  0
 21 22  1  0
 21 23  1  0
 23 24  2  0
 24 12  1  0
 24 18  1  0
  1 25  1  0
  1 26  1  0
  1 27  1  0
  5 28  1  0
  5 29  1  0
 15 30  1  0
 17 31  1  0
 19 32  1  0
 20 33  1  0
 22 34  1  0
 22 35  1  0
 22 36  1  0
 23 37  1  0
M  CHG  3   2  -1   6  -1  15  -1
M  END
>  <UniqueID>  (74) 
73

>  <SMILES>  (74) 
C[N-]C(=O)C[N-]C(=O)OC(=O)n1c(C([NH-])=O)cc2ccc(C)cc21

>  <Energy>  (74) 
69.14958763422649

>  <Genealogy>  (74) 
C[N-]C(=O)C[N-]C(=O)OC(=O)n1c(C([NH-])=O)cc2ccc(C)cc21 (protonated)
C[N-]C(=O)C[N-]C(=O)OC(=O)n1c(C([NH-])=O)cc2ccc(C)cc21 (3D coordinates assigned)
C[N-]C(=O)C[N-]C(=O)OC(=O)n1c(C([NH-])=O)cc2ccc(C)cc21 (optimized conformer: 69.14958763422649 kcal/mol)

>  <smiles>  (74) 
CNC(=O)CNC(=O)OC(=O)n1c(C(N)=O)cc2ccc(C)cc21

>  <score_type>  (74) 
oracle

>  <origin>  (74) 
adg

>  <m_score__min__energy>  (74) 
-11.619999999999999

>  <m_primary>  (74) 
energy

$$$$
76:0
     RDKit          3D

 39 41  0  0  0  0  0  0  0  0999 V2000
   -8.4620   18.7390  -32.7200 C   0  0  0  0  0  0  0  0  0  0  0  0
   -8.2050   20.1020  -32.1530 C   0  0  0  0  0  0  0  0  0  0  0  0
   -9.2750   21.0200  -32.0120 C   0  0  0  0  0  0  0  0  0  0  0  0
   -9.0480   22.3130  -31.5050 C   0  0  0  0  0  0  0  0  0  0  0  0
   -7.7450   22.6590  -31.1620 C   0  0  0  0  0  0  0  0  0  0  0  0
   -7.2370   23.8390  -30.6610 C   0  0  0  0  0  0  0  0  0  0  0  0
   -5.8650   23.6210  -30.5200 C   0  0  0  0  0  0  0  0  0  0  0  0
   -4.9190   24.6280  -29.9960 C   0  0  0  0  0  0  0  0  0  0  0  0
   -4.0220   25.3160  -30.8620 N   0  0  0  0  0  0  0  0  0  0  0  0
   -4.8950   24.8790  -28.7600 O   0  0  0  0  0  0  0  0  0  0  0  0
   -5.5440   22.3600  -30.9200 N   0  0  0  0  0  0  0  0  0  0  0  0
   -4.2490   21.7550  -30.9650 C   0  0  0  0  0  0  0  0  0  0  0  0
   -4.0650   20.6300  -30.4270 O   0  0  0  0  0  0  0  0  0  0  0  0
   -3.1400   22.4210  -31.7120 C   0  0  0  0  0  0  0  0  0  0  0  0
   -1.9880   21.5890  -31.6770 O   0  0  0  0  0  0  0  0  0  0  0  0
   -0.9770   21.7350  -30.7220 C   0  0  0  0  0  0  0  0  0  0  0  0
    0.2350   21.6480  -31.0590 O   0  0  0  0  0  0  0  0  0  0  0  0
   -1.3370   21.9620  -29.3140 C   0  0  0  0  0  0  0  0  0  0  0  0
   -1.4790   20.9790  -28.3930 C   0  0  0  0  0  0  0  0  0  0  0  0
   -1.9180   21.5470  -27.1100 C   0  0  0  0  0  0  0  0  0  0  0  0
   -1.9710   22.7330  -27.5860 C   0  0  0  0  0  0  0  0  0  0  0  0
   -1.7100   23.2640  -28.7220 C   0  0  0  0  0  0  0  0  0  0  0  0
   -0.9550   24.5170  -28.8720 C   0  0  0  0  0  0  0  0  0  0  0  0
    0.2730   24.5490  -28.5960 O   0  0  0  0  0  0  0  0  0  0  0  0
   -1.5840   25.6720  -29.3210 O   0  0  0  0  0  0  0  0  0  0  0  0
   -6.7000   21.7840  -31.3060 C   0  0  0  0  0  0  0  0  0  0  0  0
   -6.8930   20.4930  -31.8050 C   0  0  0  0  0  0  0  0  0  0  0  0
   -8.5976   18.0198  -31.8988 H   0  0  0  0  0  0  0  0  0  0  0  0
   -9.3711   18.7647  -33.3387 H   0  0  0  0  0  0  0  0  0  0  0  0
   -7.6059   18.4319  -33.3387 H   0  0  0  0  0  0  0  0  0  0  0  0
  -10.2927   20.7192  -32.3015 H   0  0  0  0  0  0  0  0  0  0  0  0
   -9.8752   23.0279  -31.3837 H   0  0  0  0  0  0  0  0  0  0  0  0
   -7.7942   24.7571  -30.4230 H   0  0  0  0  0  0  0  0  0  0  0  0
   -2.9910   25.2970  -30.6960 H   0  0  0  0  0  0  0  0  0  0  0  0
   -3.4452   22.5833  -32.7563 H   0  0  0  0  0  0  0  0  0  0  0  0
   -2.9102   23.3906  -31.2460 H   0  0  0  0  0  0  0  0  0  0  0  0
   -1.2929   19.9108  -28.5781 H   0  0  0  0  0  0  0  0  0  0  0  0
   -2.1228   21.1163  -26.1188 H   0  0  0  0  0  0  0  0  0  0  0  0
   -6.0466   19.8004  -31.9235 H   0  0  0  0  0  0  0  0  0  0  0  0
  1  2  1  0
  2  3  2  0
  3  4  1  0
  4  5  2  0
  5  6  1  0
  6  7  2  0
  7  8  1  0
  8  9  1  0
  8 10  2  0
  7 11  1  0
 11 12  1  0
 12 13  2  0
 12 14  1  0
 14 15  1  0
 15 16  1  0
 16 17  2  0
 16 18  1  0
 18 19  2  0
 19 20  1  0
 20 21  2  0
 21 22  2  0
 22 23  1  0
 23 24  2  0
 23 25  1  0
 11 26  1  0
 26 27  2  0
 27  2  1  0
 26  5  1  0
 22 18  1  0
  1 28  1  0
  1 29  1  0
  1 30  1  0
  3 31  1  0
  4 32  1  0
  6 33  1  0
  9 34  1  0
 14 35  1  0
 14 36  1  0
 19 37  1  0
 20 38  1  0
 27 39  1  0
M  CHG  2   9  -1  25  -1
M  END
>  <UniqueID>  (75) 
74

>  <SMILES>  (75) 
Cc1ccc2cc(C([NH-])=O)n(C(=O)COC(=O)C3=CC=C=C3C(=O)[O-])c2c1

>  <Energy>  (75) 
172.06158126358753

>  <Genealogy>  (75) 
Cc1ccc2cc(C([NH-])=O)n(C(=O)COC(=O)C3=CC=C=C3C(=O)[O-])c2c1 (protonated)
Cc1ccc2cc(C([NH-])=O)n(C(=O)COC(=O)C3=CC=C=C3C(=O)[O-])c2c1 (3D coordinates assigned)
Cc1ccc2cc(C([NH-])=O)n(C(=O)COC(=O)C3=CC=C=C3C(=O)[O-])c2c1 (nonaromatic ring conformer: 172.06158126358753 kcal/mol)

>  <smiles>  (75) 
Cc1ccc2cc(C(N)=O)n(C(=O)COC(=O)C3=CC=C=C3C(=O)O)c2c1

>  <score_type>  (75) 
oracle

>  <origin>  (75) 
adg

>  <m_score__min__energy>  (75) 
-13.390000000000001

>  <m_primary>  (75) 
energy

$$$$
77:0
     RDKit          3D

 68 71  0  0  0  0  0  0  0  0999 V2000
   -3.8640   25.4710  -30.8410 N   0  0  0  0  0  0  0  0  0  0  0  0
   -5.2170   25.2350  -30.4630 C   0  0  0  0  0  0  0  0  0  0  0  0
   -5.7960   26.0600  -29.7100 O   0  0  0  0  0  0  0  0  0  0  0  0
   -5.9300   24.0100  -30.8900 C   0  0  0  0  0  0  0  0  0  0  0  0
   -7.3200   23.9220  -30.9450 C   0  0  0  0  0  0  0  0  0  0  0  0
   -7.5930   22.6100  -31.2540 C   0  0  0  0  0  0  0  0  0  0  0  0
   -8.8150   21.9630  -31.4080 C   0  0  0  0  0  0  0  0  0  0  0  0
   -8.8030   20.5920  -31.7160 C   0  0  0  0  0  0  0  0  0  0  0  0
   -7.5780   19.9000  -31.8910 C   0  0  0  0  0  0  0  0  0  0  0  0
   -7.5630   18.4180  -32.1650 C   0  0  0  0  0  0  0  0  0  0  0  0
   -6.6790   17.7810  -31.3100 F   0  0  0  0  0  0  0  0  0  0  0  0
   -8.8300   17.9060  -31.9640 F   0  0  0  0  0  0  0  0  0  0  0  0
   -7.1720   18.1560  -33.4670 F   0  0  0  0  0  0  0  0  0  0  0  0
   -6.3570   20.5910  -31.7140 C   0  0  0  0  0  0  0  0  0  0  0  0
   -6.3980   21.9520  -31.3860 C   0  0  0  0  0  0  0  0  0  0  0  0
   -5.3650   22.7990  -31.1700 N   0  0  0  0  0  0  0  0  0  0  0  0
   -3.9710   22.4630  -31.2550 C   0  0  0  0  0  0  0  0  0  0  0  0
   -3.1130   23.1610  -30.6500 O   0  0  0  0  0  0  0  0  0  0  0  0
   -3.5740   21.3990  -32.0640 O   0  0  0  0  0  0  0  0  0  0  0  0
   -2.9680   21.5570  -33.3430 C   0  0  0  0  0  0  0  0  0  0  0  0
   -2.7080   20.1790  -33.9380 C   0  0  0  0  0  0  0  0  0  0  0  0
   -1.7110   20.2810  -34.9310 O   0  0  0  0  0  0  0  0  0  0  0  0
   -0.1760   20.0710  -34.2140 P   0  0  1  0  0  0  0  0  0  0  0  0
    0.0550   18.6010  -33.9180 O   0  0  0  0  0  0  0  0  0  0  0  0
    1.0850   20.7170  -35.2710 N   0  0  0  0  0  0  0  0  0  0  0  0
    0.5480   21.6960  -36.2210 C   0  0  0  0  0  0  0  0  0  0  0  0
    1.3160   22.9770  -36.1340 C   0  0  0  0  0  0  0  0  0  0  0  0
    1.3360   23.7720  -37.1100 O   0  0  0  0  0  0  0  0  0  0  0  0
    1.9780   23.3150  -34.9600 O   0  0  0  0  0  0  0  0  0  0  0  0
   -0.1510   20.9620  -32.7590 O   0  0  0  0  0  0  0  0  0  0  0  0
   -0.4930   20.1020  -31.6970 C   0  0  0  0  0  0  0  0  0  0  0  0
    0.2020   20.5650  -30.4120 C   0  0  1  0  0  0  0  0  0  0  0  0
   -0.1060   21.9190  -30.1820 O   0  0  0  0  0  0  0  0  0  0  0  0
   -0.1270   22.1200  -28.7830 C   0  0  1  0  0  0  0  0  0  0  0  0
   -1.3400   22.8720  -28.4000 N   0  0  0  0  0  0  0  0  0  0  0  0
   -2.4240   22.1990  -27.9020 C   0  0  0  0  0  0  0  0  0  0  0  0
   -3.5750   22.8860  -27.5200 C   0  0  0  0  0  0  0  0  0  0  0  0
   -3.5950   24.2720  -27.6450 C   0  0  0  0  0  0  0  0  0  0  0  0
   -4.6180   24.9250  -27.3140 O   0  0  0  0  0  0  0  0  0  0  0  0
   -2.5050   24.9190  -28.1250 N   0  0  0  0  0  0  0  0  0  0  0  0
   -1.3840   24.2430  -28.4920 C   0  0  0  0  0  0  0  0  0  0  0  0
   -0.3910   24.8960  -28.9160 O   0  0  0  0  0  0  0  0  0  0  0  0
   -0.0830   20.7610  -28.0650 C   0  0  2  0  0  0  0  0  0  0  0  0
    1.1530   20.5910  -27.4150 O   0  0  0  0  0  0  0  0  0  0  0  0
   -0.2400   19.7660  -29.1900 C   0  0  2  0  0  0  0  0  0  0  0  0
    0.5650   18.6300  -28.9960 O   0  0  0  0  0  0  0  0  0  0  0  0
   -3.0790   25.2820  -30.1810 H   0  0  0  0  0  0  0  0  0  0  0  0
   -8.0457   24.7314  -30.7767 H   0  0  0  0  0  0  0  0  0  0  0  0
   -9.7630   22.5088  -31.2920 H   0  0  0  0  0  0  0  0  0  0  0  0
   -9.7542   20.0499  -31.8225 H   0  0  0  0  0  0  0  0  0  0  0  0
   -5.3951   20.0705  -31.8315 H   0  0  0  0  0  0  0  0  0  0  0  0
   -3.6411   22.1236  -34.0033 H   0  0  0  0  0  0  0  0  0  0  0  0
   -2.0195   22.1047  -33.2415 H   0  0  0  0  0  0  0  0  0  0  0  0
   -2.3694   19.4947  -33.1461 H   0  0  0  0  0  0  0  0  0  0  0  0
   -3.6347   19.7894  -34.3846 H   0  0  0  0  0  0  0  0  0  0  0  0
    1.7780   21.2010  -34.6540 H   0  0  0  0  0  0  0  0  0  0  0  0
    0.6278   21.2933  -37.2415 H   0  0  0  0  0  0  0  0  0  0  0  0
   -0.5061   21.8927  -35.9757 H   0  0  0  0  0  0  0  0  0  0  0  0
   -1.5829   20.1189  -31.5495 H   0  0  0  0  0  0  0  0  0  0  0  0
   -0.1683   19.0790  -31.9381 H   0  0  0  0  0  0  0  0  0  0  0  0
    1.2821   20.4122  -30.5534 H   0  0  0  0  0  0  0  0  0  0  0  0
    0.7544   22.7063  -28.4841 H   0  0  0  0  0  0  0  0  0  0  0  0
   -2.3858   21.1042  -27.8024 H   0  0  0  0  0  0  0  0  0  0  0  0
   -4.4486   22.3445  -27.1282 H   0  0  0  0  0  0  0  0  0  0  0  0
   -0.8551   20.6533  -27.2889 H   0  0  0  0  0  0  0  0  0  0  0  0
    1.7620   20.1690  -28.0770 H   0  0  0  0  0  0  0  0  0  0  0  0
   -1.2625   19.3697  -29.2767 H   0  0  0  0  0  0  0  0  0  0  0  0
    0.7410   18.5690  -28.0220 H   0  0  0  0  0  0  0  0  0  0  0  0
  1  2  1  0
  2  3  2  0
  2  4  1  0
  4  5  2  0
  5  6  1  0
  6  7  2  0
  7  8  1  0
  8  9  2  0
  9 10  1  0
 10 11  1  0
 10 12  1  0
 10 13  1  0
  9 14  1  0
 14 15  2  0
 15 16  1  0
 16 17  1  0
 17 18  2  0
 17 19  1  0
 19 20  1  0
 20 21  1  0
 21 22  1  0
 23 22  1  6
 23 24  2  0
 23 25  1  0
 25 26  1  0
 26 27  1  0
 27 28  2  0
 27 29  1  0
 23 30  1  0
 30 31  1  0
 31 32  1  0
 32 33  1  0
 33 34  1  0
 34 35  1  0
 35 36  1  0
 36 37  2  0
 37 38  1  0
 38 39  2  0
 38 40  1  0
 40 41  1  0
 41 42  2  0
 34 43  1  0
 43 44  1  0
 43 45  1  0
 45 46  1  0
 16  4  1  0
 45 32  1  0
 15  6  1  0
 41 35  1  0
  1 47  1  0
  5 48  1  0
  7 49  1  0
  8 50  1  0
 14 51  1  0
 20 52  1  0
 20 53  1  0
 21 54  1  0
 21 55  1  0
 25 56  1  0
 26 57  1  0
 26 58  1  0
 31 59  1  0
 31 60  1  0
 32 61  1  6
 34 62  1  1
 36 63  1  0
 37 64  1  0
 43 65  1  1
 44 66  1  0
 45 67  1  6
 46 68  1  0
M  CHG  3   1  -1  29  -1  40  -1
M  END
>  <UniqueID>  (76) 
75

>  <SMILES>  (76) 
[NH-]C(=O)c1cc2ccc(C(F)(F)F)cc2n1C(=O)OCCO[P@@](=O)(NCC(=O)[O-])OC[C@H]1O[C@@H](n2ccc(=O)[n-]c2=O)[C@H](O)[C@@H]1O

>  <Energy>  (76) 
108.69783555181176

>  <Genealogy>  (76) 
[NH-]C(=O)c1cc2ccc(C(F)(F)F)cc2n1C(=O)OCCOP(=O)(NCC(=O)[O-])OC[C@H]1O[C@@H](n2ccc(=O)[n-]c2=O)[C@H](O)[C@@H]1O (protonated)
[NH-]C(=O)c1cc2ccc(C(F)(F)F)cc2n1C(=O)OCCO[P@@](=O)(NCC(=O)[O-])OC[C@H]1O[C@@H](n2ccc(=O)[n-]c2=O)[C@H](O)[C@@H]1O (chirality)
[NH-]C(=O)c1cc2ccc(C(F)(F)F)cc2n1C(=O)OCCO[P@@](=O)(NCC(=O)[O-])OC[C@H]1O[C@@H](n2ccc(=O)[n-]c2=O)[C@H](O)[C@@H]1O (3D coordinates assigned)
[NH-]C(=O)c1cc2ccc(C(F)(F)F)cc2n1C(=O)OCCO[P@@](=O)(NCC(=O)[O-])OC[C@H]1O[C@@H](n2ccc(=O)[n-]c2=O)[C@H](O)[C@@H]1O (nonaromatic ring conformer: 108.69783555181176 kcal/mol)

>  <smiles>  (76) 
NC(=O)c1cc2ccc(C(F)(F)F)cc2n1C(=O)OCCOP(=O)(NCC(=O)O)OC[C@H]1O[C@@H](n2ccc(=O)[nH]c2=O)[C@H](O)[C@@H]1O

>  <score_type>  (76) 
oracle

>  <origin>  (76) 
adg

>  <m_score__min__energy>  (76) 
-13.199999999999999

>  <m_primary>  (76) 
energy

$$$$
78:0
     RDKit          3D

 36 38  0  0  0  0  0  0  0  0999 V2000
   -5.7320   17.8890  -32.4350 C   0  0  0  0  0  0  0  0  0  0  0  0
   -6.1800   19.3080  -32.2520 C   0  0  0  0  0  0  0  0  0  0  0  0
   -7.4990   19.6880  -32.6020 C   0  0  0  0  0  0  0  0  0  0  0  0
   -7.9450   21.0040  -32.3920 C   0  0  0  0  0  0  0  0  0  0  0  0
   -7.0530   21.9110  -31.8270 C   0  0  0  0  0  0  0  0  0  0  0  0
   -7.2240   23.2380  -31.4970 C   0  0  0  0  0  0  0  0  0  0  0  0
   -6.0080   23.6450  -30.9510 C   0  0  0  0  0  0  0  0  0  0  0  0
   -5.7340   25.0250  -30.4960 C   0  0  0  0  0  0  0  0  0  0  0  0
   -4.5330   25.6990  -30.8620 N   0  0  0  0  0  0  0  0  0  0  0  0
   -6.5830   25.6270  -29.7840 O   0  0  0  0  0  0  0  0  0  0  0  0
   -5.1220   22.6080  -30.9450 N   0  0  0  0  0  0  0  0  0  0  0  0
   -3.7670   22.6130  -30.4770 C   0  0  0  0  0  0  0  0  0  0  0  0
   -2.8180   22.5960  -31.3040 O   0  0  0  0  0  0  0  0  0  0  0  0
   -3.4780   22.5600  -29.0060 C   0  0  0  0  0  0  0  0  0  0  0  0
   -2.1080   23.0310  -28.7530 N   0  0  0  0  0  0  0  0  0  0  0  0
   -1.1530   22.1270  -28.3790 C   0  0  0  0  0  0  0  0  0  0  0  0
    0.1650   22.5310  -28.1750 C   0  0  0  0  0  0  0  0  0  0  0  0
    0.4860   23.8710  -28.3700 C   0  0  0  0  0  0  0  0  0  0  0  0
    1.6670   24.2720  -28.1950 O   0  0  0  0  0  0  0  0  0  0  0  0
   -0.4750   24.7470  -28.7530 N   0  0  0  0  0  0  0  0  0  0  0  0
   -1.7580   24.3440  -28.9500 C   0  0  0  0  0  0  0  0  0  0  0  0
   -2.6150   25.1910  -29.3210 O   0  0  0  0  0  0  0  0  0  0  0  0
   -5.7750   21.5580  -31.4820 C   0  0  0  0  0  0  0  0  0  0  0  0
   -5.3090   20.2520  -31.6660 C   0  0  0  0  0  0  0  0  0  0  0  0
   -5.5843   17.4212  -31.4504 H   0  0  0  0  0  0  0  0  0  0  0  0
   -6.4980   17.3319  -32.9944 H   0  0  0  0  0  0  0  0  0  0  0  0
   -4.7850   17.8727  -32.9944 H   0  0  0  0  0  0  0  0  0  0  0  0
   -8.1808   18.9457  -33.0425 H   0  0  0  0  0  0  0  0  0  0  0  0
   -8.9663   21.3076  -32.6654 H   0  0  0  0  0  0  0  0  0  0  0  0
   -8.1292   23.8474  -31.6353 H   0  0  0  0  0  0  0  0  0  0  0  0
   -3.8610   26.0310  -30.1360 H   0  0  0  0  0  0  0  0  0  0  0  0
   -4.1909   23.2037  -28.4698 H   0  0  0  0  0  0  0  0  0  0  0  0
   -3.5781   21.5233  -28.6521 H   0  0  0  0  0  0  0  0  0  0  0  0
   -1.4275   21.0712  -28.2378 H   0  0  0  0  0  0  0  0  0  0  0  0
    0.9340   21.8073  -27.8669 H   0  0  0  0  0  0  0  0  0  0  0  0
   -4.2907   19.9680  -31.3621 H   0  0  0  0  0  0  0  0  0  0  0  0
  1  2  1  0
  2  3  2  0
  3  4  1  0
  4  5  2  0
  5  6  1  0
  6  7  2  0
  7  8  1  0
  8  9  1  0
  8 10  2  0
  7 11  1  0
 11 12  1  0
 12 13  2  0
 12 14  1  0
 14 15  1  0
 15 16  1  0
 16 17  2  0
 17 18  1  0
 18 19  2  0
 18 20  1  0
 20 21  1  0
 21 22  2  0
 11 23  1  0
 23 24  2  0
 24  2  1  0
 23  5  1  0
 21 15  1  0
  1 25  1  0
  1 26  1  0
  1 27  1  0
  3 28  1  0
  4 29  1  0
  6 30  1  0
  9 31  1  0
 14 32  1  0
 14 33  1  0
 16 34  1  0
 17 35  1  0
 24 36  1  0
M  CHG  2   9  -1  20  -1
M  END
>  <UniqueID>  (77) 
76

>  <SMILES>  (77) 
Cc1ccc2cc(C([NH-])=O)n(C(=O)Cn3ccc(=O)[n-]c3=O)c2c1

>  <Energy>  (77) 
78.3003773144642

>  <Genealogy>  (77) 
Cc1ccc2cc(C([NH-])=O)n(C(=O)Cn3ccc(=O)[n-]c3=O)c2c1 (protonated)
Cc1ccc2cc(C([NH-])=O)n(C(=O)Cn3ccc(=O)[n-]c3=O)c2c1 (3D coordinates assigned)
Cc1ccc2cc(C([NH-])=O)n(C(=O)Cn3ccc(=O)[n-]c3=O)c2c1 (optimized conformer: 78.3003773144642 kcal/mol)

>  <smiles>  (77) 
Cc1ccc2cc(C(N)=O)n(C(=O)Cn3ccc(=O)[nH]c3=O)c2c1

>  <score_type>  (77) 
oracle

>  <origin>  (77) 
adg

>  <m_score__min__energy>  (77) 
-12.050000000000001

>  <m_primary>  (77) 
energy

$$$$
79:0
     RDKit          3D

 43 46  0  0  1  0  0  0  0  0999 V2000
   -5.5980   18.0280  -34.6130 N   0  0  0  0  0  0  0  0  0  0  0  0
   -4.2670   18.0930  -34.2310 C   0  0  0  0  0  0  0  0  0  0  0  0
   -3.5270   17.1420  -34.7400 O   0  0  0  0  0  0  0  0  0  0  0  0
   -3.5540   19.0150  -33.3930 C   0  0  0  0  0  0  0  0  0  0  0  0
   -2.1950   18.7260  -33.0860 C   0  0  0  0  0  0  0  0  0  0  0  0
   -1.7160   19.7130  -32.2850 C   0  0  0  0  0  0  0  0  0  0  0  0
   -0.4690   19.8710  -31.7340 C   0  0  0  0  0  0  0  0  0  0  0  0
   -0.1840   20.9500  -30.9430 C   0  0  0  0  0  0  0  0  0  0  0  0
   -1.1920   21.8580  -30.7260 C   0  0  0  0  0  0  0  0  0  0  0  0
   -0.9130   23.0170  -29.8860 C   0  0  0  0  0  0  0  0  0  0  0  0
    0.1940   23.2580  -29.1460 N   0  0  0  0  0  0  0  0  0  0  0  0
    0.0480   24.4100  -28.5400 O   0  0  0  0  0  0  0  0  0  0  0  0
   -1.1350   24.9100  -28.8820 C   0  0  0  0  0  0  0  0  0  0  0  0
   -1.5760   26.0270  -28.4560 O   0  0  0  0  0  0  0  0  0  0  0  0
   -1.7510   24.0510  -29.7240 N   0  0  0  0  0  0  0  0  0  0  0  0
   -2.4590   21.6840  -31.2930 C   0  0  0  0  0  0  0  0  0  0  0  0
   -2.7590   20.5960  -32.0960 C   0  0  0  0  0  0  0  0  0  0  0  0
   -3.8760   20.1600  -32.7750 N   0  0  0  0  0  0  0  0  0  0  0  0
   -5.0810   20.8840  -32.7120 C   0  0  0  0  0  0  0  0  0  0  0  0
   -5.8140   20.7530  -33.7910 O   0  0  0  0  0  0  0  0  0  0  0  0
   -5.6800   21.7420  -31.7250 C   0  0  2  0  0  0  0  0  0  0  0  0
   -7.1460   21.8400  -31.6710 C   0  0  0  0  0  0  0  0  0  0  0  0
   -7.8550   22.8750  -31.2980 C   0  0  0  0  0  0  0  0  0  0  0  0
   -7.1820   24.0980  -30.8880 C   0  0  0  0  0  0  0  0  0  0  0  0
   -5.8690   24.1110  -30.9210 C   0  0  0  0  0  0  0  0  0  0  0  0
   -5.2070   25.3500  -30.5010 C   0  0  0  0  0  0  0  0  0  0  0  0
   -5.9030   26.2650  -29.9660 O   0  0  0  0  0  0  0  0  0  0  0  0
   -3.8660   25.5770  -30.6550 O   0  0  0  0  0  0  0  0  0  0  0  0
   -5.0030   23.0090  -31.3790 C   0  0  0  0  0  0  0  0  0  0  0  0
   -6.0630   17.0820  -34.6470 H   0  0  0  0  0  0  0  0  0  0  0  0
   -6.2050   18.8220  -34.8970 H   0  0  0  0  0  0  0  0  0  0  0  0
   -1.6282   17.8514  -33.4378 H   0  0  0  0  0  0  0  0  0  0  0  0
    0.3109   19.1207  -31.9309 H   0  0  0  0  0  0  0  0  0  0  0  0
    0.8129   21.0854  -30.4982 H   0  0  0  0  0  0  0  0  0  0  0  0
   -2.6840   24.2250  -30.1260 H   0  0  0  0  0  0  0  0  0  0  0  0
   -3.2398   22.4331  -31.0953 H   0  0  0  0  0  0  0  0  0  0  0  0
   -5.4318   21.0782  -30.8837 H   0  0  0  0  0  0  0  0  0  0  0  0
   -7.7084   20.9457  -31.9776 H   0  0  0  0  0  0  0  0  0  0  0  0
   -8.9536   22.8205  -31.2945 H   0  0  0  0  0  0  0  0  0  0  0  0
   -7.7524   24.9803  -30.5620 H   0  0  0  0  0  0  0  0  0  0  0  0
   -3.4130   25.4980  -31.5780 H   0  0  0  0  0  0  0  0  0  0  0  0
   -4.4646   23.3559  -32.2733 H   0  0  0  0  0  0  0  0  0  0  0  0
   -4.3560   22.7702  -30.5220 H   0  0  0  0  0  0  0  0  0  0  0  0
  1  2  1  0
  2  3  2  0
  2  4  1  0
  4  5  2  0
  5  6  1  0
  6  7  2  0
  7  8  1  0
  8  9  2  0
  9 10  1  0
 10 11  2  0
 11 12  1  0
 12 13  1  0
 13 14  2  0
 13 15  1  0
  9 16  1  0
 16 17  2  0
 17 18  1  0
 18 19  1  0
 19 20  2  0
 19 21  1  0
 21 22  1  0
 22 23  2  0
 23 24  1  0
 24 25  2  0
 25 26  1  0
 26 27  2  0
 26 28  1  0
 25 29  1  0
 18  4  1  0
 29 21  1  0
 17  6  1  0
 15 10  1  0
  1 30  1  0
  1 31  1  0
  5 32  1  0
  7 33  1  0
  8 34  1  0
 15 35  1  0
 16 36  1  0
 21 37  1  1
 22 38  1  0
 23 39  1  0
 24 40  1  0
 28 41  1  0
 29 42  1  0
 29 43  1  0
M  END
>  <smiles>  (78) 
NC(=O)c1cc2ccc(-c3noc(=O)[nH]3)cc2n1C(=O)C1C=CC=C(C(=O)O)C1

>  <score_type>  (78) 
oracle

>  <origin>  (78) 
adg

>  <m_score__min__energy>  (78) 
-11.17

>  <m_primary>  (78) 
energy

$$$$
80:0
     RDKit          3D

 36 38  0  0  0  0  0  0  0  0999 V2000
   -6.1130   25.8720  -29.0400 N   0  0  0  0  0  0  0  0  0  0  0  0
   -5.3830   25.2620  -30.1050 C   0  0  0  0  0  0  0  0  0  0  0  0
   -4.3120   25.7940  -30.5020 O   0  0  0  0  0  0  0  0  0  0  0  0
   -5.8260   23.9880  -30.7050 C   0  0  0  0  0  0  0  0  0  0  0  0
   -7.1630   23.6110  -30.8030 C   0  0  0  0  0  0  0  0  0  0  0  0
   -7.1520   22.4100  -31.4740 C   0  0  0  0  0  0  0  0  0  0  0  0
   -8.2070   21.5770  -31.8340 C   0  0  0  0  0  0  0  0  0  0  0  0
   -7.9030   20.3740  -32.4910 C   0  0  0  0  0  0  0  0  0  0  0  0
   -6.5580   20.0170  -32.7690 C   0  0  0  0  0  0  0  0  0  0  0  0
   -6.2610   18.7360  -33.4510 C   0  0  0  0  0  0  0  0  0  0  0  0
   -5.4550   18.6340  -34.5330 N   0  0  0  0  0  0  0  0  0  0  0  0
   -5.3400   17.3530  -34.9740 C   0  0  0  0  0  0  0  0  0  0  0  0
   -6.0560   16.4120  -34.2460 C   0  0  0  0  0  0  0  0  0  0  0  0
   -6.8570   17.2200  -33.0110 S   0  0  0  0  0  0  0  0  0  0  0  0
   -5.5130   20.8890  -32.3840 C   0  0  0  0  0  0  0  0  0  0  0  0
   -5.8460   22.0920  -31.7500 C   0  0  0  0  0  0  0  0  0  0  0  0
   -5.0190   23.0520  -31.2790 N   0  0  0  0  0  0  0  0  0  0  0  0
   -3.5830   23.0260  -31.2890 C   0  0  0  0  0  0  0  0  0  0  0  0
   -2.9740   22.2700  -32.0940 O   0  0  0  0  0  0  0  0  0  0  0  0
   -2.8660   23.8430  -30.4070 O   0  0  0  0  0  0  0  0  0  0  0  0
   -2.0150   23.3350  -29.3800 C   0  0  0  0  0  0  0  0  0  0  0  0
   -1.3820   24.4750  -28.5860 C   0  0  0  0  0  0  0  0  0  0  0  0
   -1.9790   25.6900  -28.9430 O   0  0  0  0  0  0  0  0  0  0  0  0
   -5.8080   26.7940  -28.6560 H   0  0  0  0  0  0  0  0  0  0  0  0
   -6.9010   25.3740  -28.5710 H   0  0  0  0  0  0  0  0  0  0  0  0
   -8.0401   24.1566  -30.4249 H   0  0  0  0  0  0  0  0  0  0  0  0
   -9.2481   21.8528  -31.6105 H   0  0  0  0  0  0  0  0  0  0  0  0
   -8.7176   19.6998  -32.7940 H   0  0  0  0  0  0  0  0  0  0  0  0
   -4.7244   17.0818  -35.8443 H   0  0  0  0  0  0  0  0  0  0  0  0
   -6.0920   15.3304  -34.4431 H   0  0  0  0  0  0  0  0  0  0  0  0
   -4.4623   20.6278  -32.5784 H   0  0  0  0  0  0  0  0  0  0  0  0
   -2.6076   22.7068  -28.6987 H   0  0  0  0  0  0  0  0  0  0  0  0
   -1.2136   22.7437  -29.8471 H   0  0  0  0  0  0  0  0  0  0  0  0
   -1.5302   24.2974  -27.5106 H   0  0  0  0  0  0  0  0  0  0  0  0
   -0.3058   24.5195  -28.8094 H   0  0  0  0  0  0  0  0  0  0  0  0
   -2.0860   25.6650  -29.9290 H   0  0  0  0  0  0  0  0  0  0  0  0
  1  2  1  0
  2  3  2  0
  2  4  1  0
  4  5  2  0
  5  6  1  0
  6  7  2  0
  7  8  1  0
  8  9  2  0
  9 10  1  0
 10 11  2  0
 11 12  1  0
 12 13  2  0
 13 14  1  0
  9 15  1  0
 15 16  2  0
 16 17  1  0
 17 18  1  0
 18 19  2  0
 18 20  1  0
 20 21  1  0
 21 22  1  0
 22 23  1  0
 17  4  1  0
 16  6  1  0
 14 10  1  0
  1 24  1  0
  1 25  1  0
  5 26  1  0
  7 27  1  0
  8 28  1  0
 12 29  1  0
 13 30  1  0
 15 31  1  0
 21 32  1  0
 21 33  1  0
 22 34  1  0
 22 35  1  0
 23 36  1  0
M  END
>  <UniqueID>  (79) 
77

>  <SMILES>  (79) 
NC(=O)c1cc2ccc(-c3nccs3)cc2n1C(=O)OCCO

>  <Energy>  (79) 
104.18687302047316

>  <Genealogy>  (79) 
NC(=O)c1cc2ccc(-c3nccs3)cc2n1C(=O)OCCO (3D coordinates assigned)
NC(=O)c1cc2ccc(-c3nccs3)cc2n1C(=O)OCCO (optimized conformer: 104.18687302047316 kcal/mol)

>  <smiles>  (79) 
NC(=O)c1cc2ccc(-c3nccs3)cc2n1C(=O)OCCO

>  <score_type>  (79) 
oracle

>  <origin>  (79) 
adg

>  <m_score__min__energy>  (79) 
-9.7799999999999994

>  <m_primary>  (79) 
energy

$$$$
81:0
     RDKit          3D

 33 34  0  0  0  0  0  0  0  0999 V2000
   -6.3560   17.1280  -32.5620 C   0  0  0  0  0  0  0  0  0  0  0  0
   -6.7890   18.2750  -33.3540 N   0  0  0  0  0  0  0  0  0  0  0  0
   -7.1530   19.5450  -32.7810 C   0  0  0  0  0  0  0  0  0  0  0  0
   -8.5110   19.9430  -32.6580 C   0  0  0  0  0  0  0  0  0  0  0  0
   -8.8460   21.1940  -32.1120 C   0  0  0  0  0  0  0  0  0  0  0  0
   -7.8100   22.0200  -31.6880 C   0  0  0  0  0  0  0  0  0  0  0  0
   -7.8490   23.2910  -31.1620 C   0  0  0  0  0  0  0  0  0  0  0  0
   -6.5170   23.6450  -30.9470 C   0  0  0  0  0  0  0  0  0  0  0  0
   -6.0760   24.9350  -30.3610 C   0  0  0  0  0  0  0  0  0  0  0  0
   -5.7990   25.0520  -28.9640 N   0  0  0  0  0  0  0  0  0  0  0  0
   -5.9270   25.9460  -31.0970 O   0  0  0  0  0  0  0  0  0  0  0  0
   -5.6920   22.6240  -31.3140 N   0  0  0  0  0  0  0  0  0  0  0  0
   -4.2570   22.6040  -31.2800 C   0  0  0  0  0  0  0  0  0  0  0  0
   -3.6040   22.7490  -32.3490 O   0  0  0  0  0  0  0  0  0  0  0  0
   -3.5230   22.4710  -29.9790 C   0  0  0  0  0  0  0  0  0  0  0  0
   -3.0330   24.1090  -29.3630 P   0  0  0  0  0  0  0  0  0  0  0  0
   -3.7210   24.3920  -28.0470 O   0  0  0  0  0  0  0  0  0  0  0  0
   -1.3560   24.1550  -29.1450 O   0  0  0  0  0  0  0  0  0  0  0  0
   -3.4800   25.2860  -30.4920 O   0  0  0  0  0  0  0  0  0  0  0  0
   -6.4970   21.6430  -31.7760 C   0  0  0  0  0  0  0  0  0  0  0  0
   -6.1320   20.4150  -32.3390 C   0  0  0  0  0  0  0  0  0  0  0  0
   -6.4460   17.3663  -31.4919 H   0  0  0  0  0  0  0  0  0  0  0  0
   -6.9881   16.2594  -32.7986 H   0  0  0  0  0  0  0  0  0  0  0  0
   -5.3076   16.8938  -32.7986 H   0  0  0  0  0  0  0  0  0  0  0  0
   -6.8330   18.1590  -34.3920 H   0  0  0  0  0  0  0  0  0  0  0  0
   -9.3092   19.2647  -32.9938 H   0  0  0  0  0  0  0  0  0  0  0  0
   -9.8957   21.5104  -32.0226 H   0  0  0  0  0  0  0  0  0  0  0  0
   -8.7418   23.8992  -30.9549 H   0  0  0  0  0  0  0  0  0  0  0  0
   -5.4550   25.9580  -28.5740 H   0  0  0  0  0  0  0  0  0  0  0  0
   -5.9740   24.2660  -28.3020 H   0  0  0  0  0  0  0  0  0  0  0  0
   -4.1782   21.9863  -29.2403 H   0  0  0  0  0  0  0  0  0  0  0  0
   -2.6202   21.8628  -30.1373 H   0  0  0  0  0  0  0  0  0  0  0  0
   -5.0730   20.1334  -32.4352 H   0  0  0  0  0  0  0  0  0  0  0  0
  1  2  1  0
  2  3  1  0
  3  4  2  0
  4  5  1  0
  5  6  2  0
  6  7  1  0
  7  8  2  0
  8  9  1  0
  9 10  1  0
  9 11  2  0
  8 12  1  0
 12 13  1  0
 13 14  2  0
 13 15  1  0
 15 16  1  0
 16 17  2  0
 16 18  1  0
 16 19  1  0
 12 20  1  0
 20 21  2  0
 21  3  1  0
 20  6  1  0
  1 22  1  0
  1 23  1  0
  1 24  1  0
  2 25  1  0
  4 26  1  0
  5 27  1  0
  7 28  1  0
 10 29  1  0
 10 30  1  0
 15 31  1  0
 15 32  1  0
 21 33  1  0
M  CHG  2  18  -1  19  -1
M  END
>  <UniqueID>  (80) 
78

>  <SMILES>  (80) 
CNc1ccc2cc(C(N)=O)n(C(=O)CP(=O)([O-])[O-])c2c1

>  <Energy>  (80) 
66.13313843481761

>  <Genealogy>  (80) 
CNc1ccc2cc(C(N)=O)n(C(=O)CP(=O)([O-])[O-])c2c1 (protonated)
CNc1ccc2cc(C(N)=O)n(C(=O)CP(=O)([O-])[O-])c2c1 (3D coordinates assigned)
CNc1ccc2cc(C(N)=O)n(C(=O)CP(=O)([O-])[O-])c2c1 (optimized conformer: 66.13313843481761 kcal/mol)

>  <smiles>  (80) 
CNc1ccc2cc(C(N)=O)n(C(=O)CP(=O)(O)O)c2c1

>  <score_type>  (80) 
oracle

>  <origin>  (80) 
adg

>  <m_score__min__energy>  (80) 
-11.66

>  <m_primary>  (80) 
energy

$$$$
82:0
     RDKit          3D

 40 41  0  0  0  0  0  0  0  0999 V2000
   -1.1360   21.8050  -26.7460 C   0  0  0  0  0  0  0  0  0  0  0  0
   -2.0520   22.7130  -27.4440 N   0  0  0  0  0  0  0  0  0  0  0  0
   -1.8950   24.1660  -27.2840 C   0  0  0  0  0  0  0  0  0  0  0  0
   -1.4880   24.7920  -28.5810 C   0  0  0  0  0  0  0  0  0  0  0  0
   -2.3560   25.2910  -29.3430 O   0  0  0  0  0  0  0  0  0  0  0  0
   -0.1510   24.8040  -28.9590 O   0  0  0  0  0  0  0  0  0  0  0  0
   -3.1010   22.1500  -28.2610 C   0  0  0  0  0  0  0  0  0  0  0  0
   -4.3070   22.3590  -27.9580 O   0  0  0  0  0  0  0  0  0  0  0  0
   -2.7980   21.3050  -29.4360 C   0  0  0  0  0  0  0  0  0  0  0  0
   -3.3080   21.4970  -30.6600 C   0  0  0  0  0  0  0  0  0  0  0  0
   -4.0910   22.6790  -31.0820 C   0  0  0  0  0  0  0  0  0  0  0  0
   -3.4810   23.7610  -31.2930 O   0  0  0  0  0  0  0  0  0  0  0  0
   -5.5250   22.6440  -31.2020 N   0  0  0  0  0  0  0  0  0  0  0  0
   -6.4440   23.4460  -30.5910 C   0  0  0  0  0  0  0  0  0  0  0  0
   -6.1460   24.6380  -29.7700 C   0  0  0  0  0  0  0  0  0  0  0  0
   -4.9050   24.7720  -29.0770 N   0  0  0  0  0  0  0  0  0  0  0  0
   -6.9830   25.5790  -29.7220 O   0  0  0  0  0  0  0  0  0  0  0  0
   -7.7370   23.0130  -30.8700 C   0  0  0  0  0  0  0  0  0  0  0  0
   -7.5850   21.9260  -31.7000 C   0  0  0  0  0  0  0  0  0  0  0  0
   -8.5430   21.0950  -32.2750 C   0  0  0  0  0  0  0  0  0  0  0  0
   -8.0970   20.0220  -33.0630 C   0  0  0  0  0  0  0  0  0  0  0  0
   -6.7130   19.7960  -33.2550 C   0  0  0  0  0  0  0  0  0  0  0  0
   -6.2710   18.6920  -34.0490 N   0  0  0  0  0  0  0  0  0  0  0  0
   -5.7690   20.6570  -32.6560 C   0  0  0  0  0  0  0  0  0  0  0  0
   -6.2420   21.7280  -31.8900 C   0  0  0  0  0  0  0  0  0  0  0  0
   -1.2575   21.9255  -25.6594 H   0  0  0  0  0  0  0  0  0  0  0  0
   -1.3640   20.7664  -27.0275 H   0  0  0  0  0  0  0  0  0  0  0  0
   -0.0994   22.0421  -27.0275 H   0  0  0  0  0  0  0  0  0  0  0  0
   -2.8511   24.6001  -26.9561 H   0  0  0  0  0  0  0  0  0  0  0  0
   -1.1148   24.3604  -26.5333 H   0  0  0  0  0  0  0  0  0  0  0  0
   -2.1066   20.4610  -29.2956 H   0  0  0  0  0  0  0  0  0  0  0  0
   -3.1303   20.7132  -31.4110 H   0  0  0  0  0  0  0  0  0  0  0  0
   -4.1180   24.1070  -29.2430 H   0  0  0  0  0  0  0  0  0  0  0  0
   -4.7380   25.5970  -28.4580 H   0  0  0  0  0  0  0  0  0  0  0  0
   -8.6794   23.4471  -30.5049 H   0  0  0  0  0  0  0  0  0  0  0  0
   -9.6168   21.2738  -32.1166 H   0  0  0  0  0  0  0  0  0  0  0  0
   -8.8296   19.3510  -33.5353 H   0  0  0  0  0  0  0  0  0  0  0  0
   -5.5970   17.9930  -33.6630 H   0  0  0  0  0  0  0  0  0  0  0  0
   -6.6140   18.5660  -35.0270 H   0  0  0  0  0  0  0  0  0  0  0  0
   -4.6897   20.4905  -32.7878 H   0  0  0  0  0  0  0  0  0  0  0  0
  1  2  1  0
  2  3  1  0
  3  4  1  0
  4  5  2  0
  4  6  1  0
  2  7  1  0
  7  8  2  0
  7  9  1  0
  9 10  2  3
 10 11  1  0
 11 12  2  0
 11 13  1  0
 13 14  1  0
 14 15  1  0
 15 16  1  0
 15 17  2  0
 14 18  2  0
 18 19  1  0
 19 20  2  0
 20 21  1  0
 21 22  2  0
 22 23  1  0
 22 24  1  0
 24 25  2  0
 25 13  1  0
 25 19  1  0
  1 26  1  0
  1 27  1  0
  1 28  1  0
  3 29  1  0
  3 30  1  0
  9 31  1  0
 10 32  1  0
 16 33  1  0
 16 34  1  0
 18 35  1  0
 20 36  1  0
 21 37  1  0
 23 38  1  0
 23 39  1  0
 24 40  1  0
M  CHG  1   6  -1
M  END
>  <UniqueID>  (81) 
79

>  <SMILES>  (81) 
CN(CC(=O)[O-])C(=O)C=CC(=O)n1c(C(N)=O)cc2ccc(N)cc21

>  <Energy>  (81) 
81.37351088511583

>  <Genealogy>  (81) 
CN(CC(=O)[O-])C(=O)C=CC(=O)n1c(C(N)=O)cc2ccc(N)cc21 (protonated)
CN(CC(=O)[O-])C(=O)C=CC(=O)n1c(C(N)=O)cc2ccc(N)cc21 (3D coordinates assigned)
CN(CC(=O)[O-])C(=O)C=CC(=O)n1c(C(N)=O)cc2ccc(N)cc21 (optimized conformer: 81.37351088511583 kcal/mol)

>  <smiles>  (81) 
CN(CC(=O)O)C(=O)C=CC(=O)n1c(C(N)=O)cc2ccc(N)cc21

>  <score_type>  (81) 
oracle

>  <origin>  (81) 
adg

>  <m_score__min__energy>  (81) 
-10.76

>  <m_primary>  (81) 
energy

$$$$
83:0
     RDKit          3D

 52 53  0  0  0  0  0  0  0  0999 V2000
   -2.8600   25.2920  -30.4440 H   0  0  0  0  0  0  0  0  0  0  0  0
   -2.5420   24.6280  -29.7030 N   0  0  0  0  0  0  0  0  0  0  0  0
   -3.2680   23.4300  -29.4330 C   0  0  0  0  0  0  0  0  0  0  0  0
   -4.5150   23.4100  -29.6120 O   0  0  0  0  0  0  0  0  0  0  0  0
   -2.5580   22.2410  -28.9190 C   0  0  0  0  0  0  0  0  0  0  0  0
   -2.7200   21.7440  -27.6270 C   0  0  0  0  0  0  0  0  0  0  0  0
   -3.3334   22.1711  -26.8199 H   0  0  0  0  0  0  0  0  0  0  0  0
   -1.9490   20.6050  -27.5760 C   0  0  0  0  0  0  0  0  0  0  0  0
   -1.7390   19.7140  -26.5290 C   0  0  0  0  0  0  0  0  0  0  0  0
   -2.2361   19.8539  -25.5578 H   0  0  0  0  0  0  0  0  0  0  0  0
   -0.8730   18.6300  -26.7490 C   0  0  0  0  0  0  0  0  0  0  0  0
   -0.7045   17.8973  -25.9460 H   0  0  0  0  0  0  0  0  0  0  0  0
   -0.2130   18.4690  -27.9950 C   0  0  0  0  0  0  0  0  0  0  0  0
    0.6940   17.2840  -28.2100 C   0  0  0  0  0  0  0  0  0  0  0  0
    0.4040   16.2880  -27.2930 F   0  0  0  0  0  0  0  0  0  0  0  0
    2.0240   17.6370  -28.0600 F   0  0  0  0  0  0  0  0  0  0  0  0
    0.5020   16.7900  -29.4860 F   0  0  0  0  0  0  0  0  0  0  0  0
   -0.4680   19.3860  -29.0410 C   0  0  0  0  0  0  0  0  0  0  0  0
    0.0182   19.2706  -30.0210 H   0  0  0  0  0  0  0  0  0  0  0  0
   -1.3540   20.4450  -28.8010 C   0  0  0  0  0  0  0  0  0  0  0  0
   -1.7210   21.4410  -29.6380 N   0  0  0  0  0  0  0  0  0  0  0  0
   -1.2620   21.6420  -30.9850 C   0  0  0  0  0  0  0  0  0  0  0  0
   -0.0270   21.6180  -31.2340 O   0  0  0  0  0  0  0  0  0  0  0  0
   -2.2360   21.8780  -32.0670 C   0  0  0  0  0  0  0  0  0  0  0  0
   -1.8838   22.3362  -33.0030 H   0  0  0  0  0  0  0  0  0  0  0  0
   -3.5290   21.5580  -31.9570 C   0  0  0  0  0  0  0  0  0  0  0  0
   -3.8923   21.0747  -31.0381 H   0  0  0  0  0  0  0  0  0  0  0  0
   -4.4900   21.8490  -33.0690 C   0  0  0  0  0  0  0  0  0  0  0  0
   -5.1060   20.9584  -33.2622 H   0  0  0  0  0  0  0  0  0  0  0  0
   -3.9274   22.1133  -33.9765 H   0  0  0  0  0  0  0  0  0  0  0  0
   -5.3590   22.9710  -32.6920 N   0  0  0  0  0  0  0  0  0  0  0  0
   -5.1010   23.2770  -31.7250 H   0  0  0  0  0  0  0  0  0  0  0  0
   -6.7830   22.5930  -32.7120 C   0  0  0  0  0  0  0  0  0  0  0  0
   -6.8815   21.5318  -32.4399 H   0  0  0  0  0  0  0  0  0  0  0  0
   -7.1854   22.7594  -33.7221 H   0  0  0  0  0  0  0  0  0  0  0  0
   -7.5730   23.4520  -31.7070 C   0  0  0  0  0  0  0  0  0  0  0  0
   -8.5271   22.9488  -31.4914 H   0  0  0  0  0  0  0  0  0  0  0  0
   -7.7212   24.4399  -32.1676 H   0  0  0  0  0  0  0  0  0  0  0  0
   -6.8510   23.6670  -30.4230 N   0  0  2  0  0  0  0  0  0  0  0  0
   -5.8430   23.4230  -30.5550 H   0  0  0  0  0  0  0  0  0  0  0  0
   -7.3900   22.7420  -29.4040 C   0  0  0  0  0  0  0  0  0  0  0  0
   -7.1637   23.1303  -28.4000 H   0  0  0  0  0  0  0  0  0  0  0  0
   -8.4797   22.6558  -29.5268 H   0  0  0  0  0  0  0  0  0  0  0  0
   -6.9277   21.7514  -29.5268 H   0  0  0  0  0  0  0  0  0  0  0  0
   -6.9780   25.0780  -29.9670 C   0  0  0  0  0  0  0  0  0  0  0  0
   -7.8229   25.5419  -30.4970 H   0  0  0  0  0  0  0  0  0  0  0  0
   -7.1344   25.0567  -28.8784 H   0  0  0  0  0  0  0  0  0  0  0  0
   -5.7150   25.9170  -30.2310 C   0  0  0  0  0  0  0  0  0  0  0  0
   -6.0127   26.9207  -30.5684 H   0  0  0  0  0  0  0  0  0  0  0  0
   -5.1342   25.9833  -29.2992 H   0  0  0  0  0  0  0  0  0  0  0  0
   -4.9170   25.3180  -31.2170 O   0  0  0  0  0  0  0  0  0  0  0  0
   -4.4220   24.5780  -30.7800 H   0  0  0  0  0  0  0  0  0  0  0  0
  1  2  1  0
  2  3  1  0
  3  4  2  0
  3  5  1  0
  5  6  2  0
  6  7  1  0
  6  8  1  0
  8  9  2  0
  9 10  1  0
  9 11  1  0
 11 12  1  0
 11 13  2  0
 13 14  1  0
 14 15  1  0
 14 16  1  0
 14 17  1  0
 13 18  1  0
 18 19  1  0
 18 20  2  0
 20 21  1  0
 21 22  1  0
 22 23  2  0
 22 24  1  0
 24 25  1  0
 24 26  2  0
 26 27  1  0
 26 28  1  0
 28 29  1  0
 28 30  1  0
 28 31  1  0
 31 32  1  0
 31 33  1  0
 33 34  1  0
 33 35  1  0
 33 36  1  0
 36 37  1  0
 36 38  1  0
 36 39  1  0
 39 40  1  6
 39 41  1  0
 41 42  1  0
 41 43  1  0
 41 44  1  0
 39 45  1  0
 45 46  1  0
 45 47  1  0
 45 48  1  0
 48 49  1  0
 48 50  1  0
 48 51  1  0
 51 52  1  0
 21  5  1  0
 20  8  1  0
M  CHG  2   2  -1  39   1
M  END
>  <UniqueID>  (82) 
80

>  <SMILES>  (82) 
C[N@H+](CCO)CCNC/C=C/C(=O)n1c(C([NH-])=O)cc2ccc(C(F)(F)F)cc21

>  <Energy>  (82) 
88.04451960864772

>  <Genealogy>  (82) 
C[NH+](CCO)CCNC/C=C/C(=O)n1c(C([NH-])=O)cc2ccc(C(F)(F)F)cc21 (protonated)
C[N@H+](CCO)CCNC/C=C/C(=O)n1c(C([NH-])=O)cc2ccc(C(F)(F)F)cc21 (chirality)
C[N@H+](CCO)CCNC/C=C/C(=O)n1c(C([NH-])=O)cc2ccc(C(F)(F)F)cc21 (cis-trans isomerization)
C[N@H+](CCO)CCNC/C=C/C(=O)n1c(C([NH-])=O)cc2ccc(C(F)(F)F)cc21 (3D coordinates assigned)
C[N@H+](CCO)CCNC/C=C/C(=O)n1c(C([NH-])=O)cc2ccc(C(F)(F)F)cc21 (optimized conformer: 88.04451960864772 kcal/mol)

>  <smiles>  (82) 
CN(CCO)CCNC/C=C/C(=O)n1c(C(N)=O)cc2ccc(C(F)(F)F)cc21

>  <score_type>  (82) 
oracle

>  <origin>  (82) 
adg

>  <m_score__min__energy>  (82) 
-9.0999999999999996

>  <m_primary>  (82) 
energy

$$$$
84:0
     RDKit          3D

 46 47  0  0  0  0  0  0  0  0999 V2000
   -8.1230   18.5880  -32.6050 C   0  0  0  0  0  0  0  0  0  0  0  0
   -7.9390   19.9520  -32.0130 C   0  0  0  0  0  0  0  0  0  0  0  0
   -9.0410   20.6140  -31.4180 C   0  0  0  0  0  0  0  0  0  0  0  0
   -8.8920   21.8980  -30.8650 C   0  0  0  0  0  0  0  0  0  0  0  0
   -7.6340   22.4930  -30.9270 C   0  0  0  0  0  0  0  0  0  0  0  0
   -7.2050   23.7170  -30.4640 C   0  0  0  0  0  0  0  0  0  0  0  0
   -5.8520   23.7860  -30.7980 C   0  0  0  0  0  0  0  0  0  0  0  0
   -4.9880   24.9640  -30.5670 C   0  0  0  0  0  0  0  0  0  0  0  0
   -3.7040   24.8270  -29.9570 N   0  0  0  0  0  0  0  0  0  0  0  0
   -5.3880   26.1120  -30.8990 O   0  0  0  0  0  0  0  0  0  0  0  0
   -5.4660   22.6450  -31.4350 N   0  0  0  0  0  0  0  0  0  0  0  0
   -4.1530   22.2780  -31.8810 C   0  0  0  0  0  0  0  0  0  0  0  0
   -3.8510   22.4380  -33.0930 O   0  0  0  0  0  0  0  0  0  0  0  0
   -3.1780   21.6920  -30.9330 C   0  0  0  0  0  0  0  0  0  0  0  0
   -3.4540   21.7090  -29.7020 O   0  0  0  0  0  0  0  0  0  0  0  0
   -1.9470   21.0720  -31.3690 N   0  0  0  0  0  0  0  0  0  0  0  0
   -1.9390   20.3910  -32.6690 C   0  0  0  0  0  0  0  0  0  0  0  0
   -0.6910   21.1980  -30.6060 C   0  0  0  0  0  0  0  0  0  0  0  0
   -0.6460   22.4740  -29.8140 C   0  0  0  0  0  0  0  0  0  0  0  0
   -1.3360   23.4600  -30.1900 O   0  0  0  0  0  0  0  0  0  0  0  0
    0.1350   22.5570  -28.6180 N   0  0  0  0  0  0  0  0  0  0  0  0
   -0.3510   23.1830  -27.3940 C   0  0  0  0  0  0  0  0  0  0  0  0
   -0.2100   24.7010  -27.4840 C   0  0  0  0  0  0  0  0  0  0  0  0
   -1.4230   25.3240  -28.1020 C   0  0  0  0  0  0  0  0  0  0  0  0
   -2.5710   24.8800  -27.8340 O   0  0  0  0  0  0  0  0  0  0  0  0
   -1.2890   26.4230  -28.9410 O   0  0  0  0  0  0  0  0  0  0  0  0
   -6.5660   21.8690  -31.5120 C   0  0  0  0  0  0  0  0  0  0  0  0
   -6.6820   20.5940  -32.0720 C   0  0  0  0  0  0  0  0  0  0  0  0
   -8.2228   17.8481  -31.7972 H   0  0  0  0  0  0  0  0  0  0  0  0
   -9.0307   18.5773  -33.2262 H   0  0  0  0  0  0  0  0  0  0  0  0
   -7.2506   18.3372  -33.2262 H   0  0  0  0  0  0  0  0  0  0  0  0
  -10.0227   20.1187  -31.3883 H   0  0  0  0  0  0  0  0  0  0  0  0
   -9.7423   22.4166  -30.3980 H   0  0  0  0  0  0  0  0  0  0  0  0
   -7.8023   24.4788  -29.9416 H   0  0  0  0  0  0  0  0  0  0  0  0
   -3.3110   23.8910  -29.7160 H   0  0  0  0  0  0  0  0  0  0  0  0
   -3.1170   25.6720  -29.7790 H   0  0  0  0  0  0  0  0  0  0  0  0
   -1.9262   19.3023  -32.5125 H   0  0  0  0  0  0  0  0  0  0  0  0
   -2.8405   20.6696  -33.2344 H   0  0  0  0  0  0  0  0  0  0  0  0
   -1.0443   20.6907  -33.2344 H   0  0  0  0  0  0  0  0  0  0  0  0
   -0.6072   20.3465  -29.9147 H   0  0  0  0  0  0  0  0  0  0  0  0
    0.1445   21.2095  -31.3214 H   0  0  0  0  0  0  0  0  0  0  0  0
   -1.4105   22.9247  -27.2501 H   0  0  0  0  0  0  0  0  0  0  0  0
    0.2442   22.8177  -26.5441 H   0  0  0  0  0  0  0  0  0  0  0  0
   -0.0740   25.1089  -26.4715 H   0  0  0  0  0  0  0  0  0  0  0  0
    0.6597   24.9321  -28.1166 H   0  0  0  0  0  0  0  0  0  0  0  0
   -5.8186   20.1039  -32.5456 H   0  0  0  0  0  0  0  0  0  0  0  0
  1  2  1  0
  2  3  2  0
  3  4  1  0
  4  5  2  0
  5  6  1  0
  6  7  2  0
  7  8  1  0
  8  9  1  0
  8 10  2  0
  7 11  1  0
 11 12  1  0
 12 13  2  0
 12 14  1  0
 14 15  2  0
 14 16  1  0
 16 17  1  0
 16 18  1  0
 18 19  1  0
 19 20  2  0
 19 21  1  0
 21 22  1  0
 22 23  1  0
 23 24  1  0
 24 25  2  0
 24 26  1  0
 11 27  1  0
 27 28  2  0
 28  2  1  0
 27  5  1  0
  1 29  1  0
  1 30  1  0
  1 31  1  0
  3 32  1  0
  4 33  1  0
  6 34  1  0
  9 35  1  0
  9 36  1  0
 17 37  1  0
 17 38  1  0
 17 39  1  0
 18 40  1  0
 18 41  1  0
 22 42  1  0
 22 43  1  0
 23 44  1  0
 23 45  1  0
 28 46  1  0
M  CHG  2  21  -1  26  -1
M  END
>  <UniqueID>  (83) 
81

>  <SMILES>  (83) 
Cc1ccc2cc(C(N)=O)n(C(=O)C(=O)N(C)CC(=O)[N-]CCC(=O)[O-])c2c1

>  <Energy>  (83) 
76.503830816007

>  <Genealogy>  (83) 
Cc1ccc2cc(C(N)=O)n(C(=O)C(=O)N(C)CC(=O)[N-]CCC(=O)[O-])c2c1 (protonated)
Cc1ccc2cc(C(N)=O)n(C(=O)C(=O)N(C)CC(=O)[N-]CCC(=O)[O-])c2c1 (3D coordinates assigned)
Cc1ccc2cc(C(N)=O)n(C(=O)C(=O)N(C)CC(=O)[N-]CCC(=O)[O-])c2c1 (optimized conformer: 76.503830816007 kcal/mol)

>  <smiles>  (83) 
Cc1ccc2cc(C(N)=O)n(C(=O)C(=O)N(C)CC(=O)NCCC(=O)O)c2c1

>  <score_type>  (83) 
oracle

>  <origin>  (83) 
adg

>  <m_score__min__energy>  (83) 
-11.98

>  <m_primary>  (83) 
energy

$$$$
85:0
     RDKit          3D

 39 40  0  0  0  0  0  0  0  0999 V2000
   -3.2190   24.2440  -27.7490 C   0  0  0  0  0  0  0  0  0  0  0  0
   -2.4610   24.3240  -29.0720 C   0  0  1  0  0  0  0  0  0  0  0  0
   -3.3230   24.9260  -30.0870 N   0  0  0  0  0  0  0  0  0  0  0  0
   -4.4600   24.2940  -30.6890 C   0  0  0  0  0  0  0  0  0  0  0  0
   -5.2730   25.0060  -31.3380 O   0  0  0  0  0  0  0  0  0  0  0  0
   -4.6780   22.8090  -30.5920 C   0  0  0  0  0  0  0  0  0  0  0  0
   -3.7000   22.0910  -31.4000 N   0  0  0  0  0  0  0  0  0  0  0  0
   -3.9730   21.6420  -32.7300 C   0  0  0  0  0  0  0  0  0  0  0  0
   -3.5810   22.3200  -33.7180 O   0  0  0  0  0  0  0  0  0  0  0  0
   -4.6770   20.4090  -32.9390 N   0  0  0  0  0  0  0  0  0  0  0  0
   -4.1590   19.2050  -33.3160 C   0  0  0  0  0  0  0  0  0  0  0  0
   -2.7660   18.9500  -33.7380 C   0  0  0  0  0  0  0  0  0  0  0  0
   -2.0390   19.9180  -34.4920 N   0  0  0  0  0  0  0  0  0  0  0  0
   -2.2240   17.8450  -33.4700 O   0  0  0  0  0  0  0  0  0  0  0  0
   -5.1520   18.2270  -33.3240 C   0  0  0  0  0  0  0  0  0  0  0  0
   -6.3060   18.8770  -32.9490 C   0  0  0  0  0  0  0  0  0  0  0  0
   -7.5930   18.3800  -32.7700 C   0  0  0  0  0  0  0  0  0  0  0  0
   -8.5890   19.2710  -32.3380 C   0  0  0  0  0  0  0  0  0  0  0  0
   -8.2870   20.6390  -32.1020 C   0  0  0  0  0  0  0  0  0  0  0  0
   -9.3500   21.5700  -31.5790 C   0  0  0  0  0  0  0  0  0  0  0  0
   -9.1020   22.8710  -31.9840 F   0  0  0  0  0  0  0  0  0  0  0  0
   -9.3560   21.5240  -30.1970 F   0  0  0  0  0  0  0  0  0  0  0  0
  -10.5980   21.2010  -32.0470 F   0  0  0  0  0  0  0  0  0  0  0  0
   -6.9600   21.0970  -32.2710 C   0  0  0  0  0  0  0  0  0  0  0  0
   -5.9930   20.1910  -32.7220 C   0  0  0  0  0  0  0  0  0  0  0  0
   -1.2140   25.1410  -28.8970 C   0  0  0  0  0  0  0  0  0  0  0  0
   -0.1140   24.5740  -28.6650 O   0  0  0  0  0  0  0  0  0  0  0  0
   -1.2720   26.5280  -28.9550 O   0  0  0  0  0  0  0  0  0  0  0  0
   -2.5074   24.3191  -26.9136 H   0  0  0  0  0  0  0  0  0  0  0  0
   -3.9421   25.0708  -27.6901 H   0  0  0  0  0  0  0  0  0  0  0  0
   -3.7536   23.2844  -27.6901 H   0  0  0  0  0  0  0  0  0  0  0  0
   -2.1749   23.3122  -29.3950 H   0  0  0  0  0  0  0  0  0  0  0  0
   -4.5777   22.4971  -29.5419 H   0  0  0  0  0  0  0  0  0  0  0  0
   -5.6858   22.5743  -30.9651 H   0  0  0  0  0  0  0  0  0  0  0  0
   -2.4900   20.8060  -34.8030 H   0  0  0  0  0  0  0  0  0  0  0  0
   -5.0378   17.1624  -33.5763 H   0  0  0  0  0  0  0  0  0  0  0  0
   -7.8235   17.3215  -32.9610 H   0  0  0  0  0  0  0  0  0  0  0  0
   -9.6145   18.9055  -32.1806 H   0  0  0  0  0  0  0  0  0  0  0  0
   -6.6936   22.1417  -32.0530 H   0  0  0  0  0  0  0  0  0  0  0  0
  1  2  1  0
  2  3  1  0
  3  4  1  0
  4  5  2  0
  4  6  1  0
  6  7  1  0
  7  8  1  0
  8  9  2  0
  8 10  1  0
 10 11  1  0
 11 12  1  0
 12 13  1  0
 12 14  2  0
 11 15  2  0
 15 16  1  0
 16 17  2  0
 17 18  1  0
 18 19  2  0
 19 20  1  0
 20 21  1  0
 20 22  1  0
 20 23  1  0
 19 24  1  0
 24 25  2  0
  2 26  1  0
 26 27  2  0
 26 28  1  0
 25 10  1  0
 25 16  1  0
  1 29  1  0
  1 30  1  0
  1 31  1  0
  2 32  1  6
  6 33  1  0
  6 34  1  0
 13 35  1  0
 15 36  1  0
 17 37  1  0
 18 38  1  0
 24 39  1  0
M  CHG  4   3  -1   7  -1  13  -1  28  -1
M  END
>  <UniqueID>  (84) 
82

>  <SMILES>  (84) 
C[C@@H]([N-]C(=O)C[N-]C(=O)n1c(C([NH-])=O)cc2ccc(C(F)(F)F)cc21)C(=O)[O-]

>  <Energy>  (84) 
72.24598649310994

>  <Genealogy>  (84) 
CC([N-]C(=O)C[N-]C(=O)n1c(C([NH-])=O)cc2ccc(C(F)(F)F)cc21)C(=O)[O-] (protonated)
C[C@@H]([N-]C(=O)C[N-]C(=O)n1c(C([NH-])=O)cc2ccc(C(F)(F)F)cc21)C(=O)[O-] (chirality)
C[C@@H]([N-]C(=O)C[N-]C(=O)n1c(C([NH-])=O)cc2ccc(C(F)(F)F)cc21)C(=O)[O-] (3D coordinates assigned)
C[C@@H]([N-]C(=O)C[N-]C(=O)n1c(C([NH-])=O)cc2ccc(C(F)(F)F)cc21)C(=O)[O-] (optimized conformer: 72.24598649310994 kcal/mol)

>  <smiles>  (84) 
CC(NC(=O)CNC(=O)n1c(C(N)=O)cc2ccc(C(F)(F)F)cc21)C(=O)O

>  <score_type>  (84) 
oracle

>  <origin>  (84) 
adg

>  <m_score__min__energy>  (84) 
-13.07

>  <m_primary>  (84) 
energy

$$$$
86:0
     RDKit          3D

 47 48  0  0  0  0  0  0  0  0999 V2000
   -8.1620   18.5490  -32.5840 C   0  0  0  0  0  0  0  0  0  0  0  0
   -8.0190   19.9780  -32.1540 C   0  0  0  0  0  0  0  0  0  0  0  0
   -9.1680   20.7960  -32.0190 C   0  0  0  0  0  0  0  0  0  0  0  0
   -9.0430   22.1510  -31.6660 C   0  0  0  0  0  0  0  0  0  0  0  0
   -7.7620   22.6560  -31.4590 C   0  0  0  0  0  0  0  0  0  0  0  0
   -7.3560   23.9320  -31.1420 C   0  0  0  0  0  0  0  0  0  0  0  0
   -5.9630   23.8720  -31.0840 C   0  0  0  0  0  0  0  0  0  0  0  0
   -5.0940   25.0120  -30.7140 C   0  0  0  0  0  0  0  0  0  0  0  0
   -3.6800   24.8470  -30.5850 N   0  0  0  0  0  0  0  0  0  0  0  0
   -5.5950   26.1520  -30.5240 O   0  0  0  0  0  0  0  0  0  0  0  0
   -5.5310   22.6080  -31.3500 N   0  0  0  0  0  0  0  0  0  0  0  0
   -4.1680   22.1580  -31.4380 C   0  0  0  0  0  0  0  0  0  0  0  0
   -3.4290   22.5950  -32.3610 O   0  0  0  0  0  0  0  0  0  0  0  0
   -3.5880   21.2590  -30.3830 C   0  0  0  0  0  0  0  0  0  0  0  0
   -3.4320   21.9880  -29.0420 C   0  0  0  0  0  0  0  0  0  0  0  0
   -2.0610   22.6030  -28.9260 C   0  0  0  0  0  0  0  0  0  0  0  0
   -1.6490   23.3390  -29.8600 O   0  0  0  0  0  0  0  0  0  0  0  0
   -1.2080   22.3990  -27.7890 N   0  0  0  0  0  0  0  0  0  0  0  0
    0.2180   22.0830  -27.8100 C   0  0  0  0  0  0  0  0  0  0  0  0
    1.0570   23.3290  -27.5050 C   0  0  0  0  0  0  0  0  0  0  0  0
    0.5730   24.4980  -28.2570 N   0  0  0  0  0  0  0  0  0  0  0  0
    0.3670   25.6810  -27.4050 C   0  0  0  0  0  0  0  0  0  0  0  0
   -0.7050   26.5510  -27.9820 C   0  0  0  0  0  0  0  0  0  0  0  0
   -0.8680   27.7230  -27.5550 O   0  0  0  0  0  0  0  0  0  0  0  0
   -1.5490   26.0540  -28.9680 O   0  0  0  0  0  0  0  0  0  0  0  0
   -6.6420   21.8760  -31.5830 C   0  0  0  0  0  0  0  0  0  0  0  0
   -6.7360   20.5310  -31.9550 C   0  0  0  0  0  0  0  0  0  0  0  0
   -8.2266   17.9035  -31.6957 H   0  0  0  0  0  0  0  0  0  0  0  0
   -9.0758   18.4369  -33.1859 H   0  0  0  0  0  0  0  0  0  0  0  0
   -7.2885   18.2581  -33.1859 H   0  0  0  0  0  0  0  0  0  0  0  0
  -10.1661   20.3672  -32.1918 H   0  0  0  0  0  0  0  0  0  0  0  0
   -9.9298   22.7925  -31.5567 H   0  0  0  0  0  0  0  0  0  0  0  0
   -7.9936   24.8118  -30.9708 H   0  0  0  0  0  0  0  0  0  0  0  0
   -3.2300   23.9100  -30.6680 H   0  0  0  0  0  0  0  0  0  0  0  0
   -3.0770   25.6700  -30.3610 H   0  0  0  0  0  0  0  0  0  0  0  0
   -4.2549   20.3953  -30.2442 H   0  0  0  0  0  0  0  0  0  0  0  0
   -2.5908   20.9362  -30.7168 H   0  0  0  0  0  0  0  0  0  0  0  0
   -4.1907   22.7814  -28.9720 H   0  0  0  0  0  0  0  0  0  0  0  0
   -3.5635   21.2610  -28.2270 H   0  0  0  0  0  0  0  0  0  0  0  0
    0.4278   21.3130  -27.0530 H   0  0  0  0  0  0  0  0  0  0  0  0
    0.4829   21.7168  -28.8129 H   0  0  0  0  0  0  0  0  0  0  0  0
    0.9975   23.5461  -26.4283 H   0  0  0  0  0  0  0  0  0  0  0  0
    2.0962   23.1294  -27.8054 H   0  0  0  0  0  0  0  0  0  0  0  0
   -0.3550   24.2360  -28.6650 H   0  0  0  0  0  0  0  0  0  0  0  0
    0.0685   25.3560  -26.3974 H   0  0  0  0  0  0  0  0  0  0  0  0
    1.3048   26.2534  -27.3516 H   0  0  0  0  0  0  0  0  0  0  0  0
   -5.8318   19.9191  -32.0892 H   0  0  0  0  0  0  0  0  0  0  0  0
  1  2  1  0
  2  3  2  0
  3  4  1  0
  4  5  2  0
  5  6  1  0
  6  7  2  0
  7  8  1  0
  8  9  1  0
  8 10  2  0
  7 11  1  0
 11 12  1  0
 12 13  2  0
 12 14  1  0
 14 15  1  0
 15 16  1  0
 16 17  2  0
 16 18  1  0
 18 19  1  0
 19 20  1  0
 20 21  1  0
 21 22  1  0
 22 23  1  0
 23 24  2  0
 23 25  1  0
 11 26  1  0
 26 27  2  0
 27  2  1  0
 26  5  1  0
  1 28  1  0
  1 29  1  0
  1 30  1  0
  3 31  1  0
  4 32  1  0
  6 33  1  0
  9 34  1  0
  9 35  1  0
 14 36  1  0
 14 37  1  0
 15 38  1  0
 15 39  1  0
 19 40  1  0
 19 41  1  0
 20 42  1  0
 20 43  1  0
 21 44  1  0
 22 45  1  0
 22 46  1  0
 27 47  1  0
M  CHG  2  18  -1  25  -1
M  END
>  <UniqueID>  (85) 
83

>  <SMILES>  (85) 
Cc1ccc2cc(C(N)=O)n(C(=O)CCC(=O)[N-]CCNCC(=O)[O-])c2c1

>  <Energy>  (85) 
80.13850342477383

>  <Genealogy>  (85) 
Cc1ccc2cc(C(N)=O)n(C(=O)CCC(=O)[N-]CCNCC(=O)[O-])c2c1 (protonated)
Cc1ccc2cc(C(N)=O)n(C(=O)CCC(=O)[N-]CCNCC(=O)[O-])c2c1 (3D coordinates assigned)
Cc1ccc2cc(C(N)=O)n(C(=O)CCC(=O)[N-]CCNCC(=O)[O-])c2c1 (optimized conformer: 80.13850342477383 kcal/mol)

>  <smiles>  (85) 
Cc1ccc2cc(C(N)=O)n(C(=O)CCC(=O)NCCNCC(=O)O)c2c1

>  <score_type>  (85) 
oracle

>  <origin>  (85) 
adg

>  <m_score__min__energy>  (85) 
-11.550000000000001

>  <m_primary>  (85) 
energy

$$$$
87:0
     RDKit          3D

 33 34  0  0  0  0  0  0  0  0999 V2000
   -4.0420   25.6700  -30.8800 N   0  0  0  0  0  0  0  0  0  0  0  0
   -5.3370   25.2660  -30.4430 C   0  0  0  0  0  0  0  0  0  0  0  0
   -6.0350   26.0630  -29.7610 O   0  0  0  0  0  0  0  0  0  0  0  0
   -5.8930   23.9500  -30.8230 C   0  0  0  0  0  0  0  0  0  0  0  0
   -7.2310   23.7490  -31.1530 C   0  0  0  0  0  0  0  0  0  0  0  0
   -7.3180   22.4310  -31.5380 C   0  0  0  0  0  0  0  0  0  0  0  0
   -8.4210   21.6900  -31.9550 C   0  0  0  0  0  0  0  0  0  0  0  0
   -8.2240   20.3330  -32.2640 C   0  0  0  0  0  0  0  0  0  0  0  0
   -6.9380   19.7490  -32.1560 C   0  0  0  0  0  0  0  0  0  0  0  0
   -6.7510   18.2880  -32.4420 C   0  0  0  0  0  0  0  0  0  0  0  0
   -7.9710   17.6430  -32.3610 F   0  0  0  0  0  0  0  0  0  0  0  0
   -5.8460   20.5270  -31.7140 C   0  0  0  0  0  0  0  0  0  0  0  0
   -6.0680   21.8790  -31.4300 C   0  0  0  0  0  0  0  0  0  0  0  0
   -5.1820   22.7980  -30.9870 N   0  0  0  0  0  0  0  0  0  0  0  0
   -3.7990   22.5650  -30.6860 C   0  0  0  0  0  0  0  0  0  0  0  0
   -3.1390   21.7310  -31.3630 O   0  0  0  0  0  0  0  0  0  0  0  0
   -3.1870   23.2770  -29.6500 O   0  0  0  0  0  0  0  0  0  0  0  0
   -2.9320   22.7140  -28.3640 C   0  0  0  0  0  0  0  0  0  0  0  0
   -1.9550   23.4610  -27.6710 O   0  0  0  0  0  0  0  0  0  0  0  0
   -0.9280   24.2260  -28.8020 P   0  0  2  0  0  0  0  0  0  0  0  0
    0.4200   24.5090  -28.1790 O   0  0  0  0  0  0  0  0  0  0  0  0
   -1.6180   25.6760  -29.3390 O   0  0  0  0  0  0  0  0  0  0  0  0
   -0.7130   23.1970  -30.1270 O   0  0  0  0  0  0  0  0  0  0  0  0
   -3.1790   25.2610  -30.4580 H   0  0  0  0  0  0  0  0  0  0  0  0
   -8.0455   24.4873  -31.1141 H   0  0  0  0  0  0  0  0  0  0  0  0
   -9.4155   22.1523  -32.0399 H   0  0  0  0  0  0  0  0  0  0  0  0
   -9.0758   19.7193  -32.5925 H   0  0  0  0  0  0  0  0  0  0  0  0
   -6.3362   18.1624  -33.4530 H   0  0  0  0  0  0  0  0  0  0  0  0
   -6.0580   17.8558  -31.7052 H   0  0  0  0  0  0  0  0  0  0  0  0
   -4.8470   20.0820  -31.5960 H   0  0  0  0  0  0  0  0  0  0  0  0
   -3.8645   22.7120  -27.7805 H   0  0  0  0  0  0  0  0  0  0  0  0
   -2.5597   21.6876  -28.4976 H   0  0  0  0  0  0  0  0  0  0  0  0
   -1.6290   23.0160  -30.4560 H   0  0  0  0  0  0  0  0  0  0  0  0
  1  2  1  0
  2  3  2  0
  2  4  1  0
  4  5  2  0
  5  6  1  0
  6  7  2  0
  7  8  1  0
  8  9  2  0
  9 10  1  0
 10 11  1  0
  9 12  1  0
 12 13  2  0
 13 14  1  0
 14 15  1  0
 15 16  2  0
 15 17  1  0
 17 18  1  0
 18 19  1  0
 19 20  1  0
 20 21  2  0
 20 22  1  6
 20 23  1  0
 14  4  1  0
 13  6  1  0
  1 24  1  0
  5 25  1  0
  7 26  1  0
  8 27  1  0
 10 28  1  0
 10 29  1  0
 12 30  1  0
 18 31  1  0
 18 32  1  0
 23 33  1  0
M  CHG  2   1  -1  22  -1
M  END
>  <UniqueID>  (86) 
84

>  <SMILES>  (86) 
[NH-]C(=O)c1cc2ccc(CF)cc2n1C(=O)OCO[P@](=O)([O-])O

>  <Energy>  (86) 
68.72853546770916

>  <Genealogy>  (86) 
[NH-]C(=O)c1cc2ccc(CF)cc2n1C(=O)OCOP(=O)([O-])O (protonated)
[NH-]C(=O)c1cc2ccc(CF)cc2n1C(=O)OCO[P@](=O)([O-])O (chirality)
[NH-]C(=O)c1cc2ccc(CF)cc2n1C(=O)OCO[P@](=O)([O-])O (3D coordinates assigned)
[NH-]C(=O)c1cc2ccc(CF)cc2n1C(=O)OCO[P@](=O)([O-])O (optimized conformer: 68.72853546770916 kcal/mol)

>  <smiles>  (86) 
NC(=O)c1cc2ccc(CF)cc2n1C(=O)OCOP(=O)(O)O

>  <score_type>  (86) 
oracle

>  <origin>  (86) 
adg

>  <m_score__min__energy>  (86) 
-11.76

>  <m_primary>  (86) 
energy

$$$$
88:0
     RDKit          3D

 42 44  0  0  0  0  0  0  0  0999 V2000
   -3.8620   25.3160  -30.4940 N   0  0  0  0  0  0  0  0  0  0  0  0
   -4.6120   24.1040  -30.4820 C   0  0  0  0  0  0  0  0  0  0  0  0
   -5.7440   24.0840  -29.9300 O   0  0  0  0  0  0  0  0  0  0  0  0
   -4.0950   22.8850  -31.1390 C   0  0  0  0  0  0  0  0  0  0  0  0
   -4.8350   22.1140  -32.0350 C   0  0  0  0  0  0  0  0  0  0  0  0
   -3.9740   21.1320  -32.4690 C   0  0  0  0  0  0  0  0  0  0  0  0
   -4.1780   20.0900  -33.3690 C   0  0  0  0  0  0  0  0  0  0  0  0
   -3.1050   19.2150  -33.6170 C   0  0  0  0  0  0  0  0  0  0  0  0
   -1.8630   19.3880  -32.9570 C   0  0  0  0  0  0  0  0  0  0  0  0
   -0.7140   18.4620  -33.2520 C   0  0  0  0  0  0  0  0  0  0  0  0
   -0.0280   18.8800  -34.4860 N   0  0  0  0  0  0  0  0  0  0  0  0
    0.0500   17.9880  -35.5210 C   0  0  0  0  0  0  0  0  0  0  0  0
    0.6590   18.3400  -36.7210 C   0  0  0  0  0  0  0  0  0  0  0  0
    1.1890   19.6170  -36.8730 C   0  0  0  0  0  0  0  0  0  0  0  0
    1.1100   20.5470  -35.8260 C   0  0  0  0  0  0  0  0  0  0  0  0
    1.6790   21.9070  -36.0190 C   0  0  0  0  0  0  0  0  0  0  0  0
    1.2000   22.9040  -35.4160 O   0  0  0  0  0  0  0  0  0  0  0  0
    2.7560   22.1020  -36.8760 O   0  0  0  0  0  0  0  0  0  0  0  0
    0.4830   20.1500  -34.6200 C   0  0  0  0  0  0  0  0  0  0  0  0
    0.3950   20.9660  -33.6610 O   0  0  0  0  0  0  0  0  0  0  0  0
   -1.6910   20.4630  -32.0580 C   0  0  0  0  0  0  0  0  0  0  0  0
   -2.7710   21.3240  -31.8410 C   0  0  0  0  0  0  0  0  0  0  0  0
   -2.8320   22.3900  -31.0200 N   0  0  0  0  0  0  0  0  0  0  0  0
   -1.7820   22.8400  -30.1520 C   0  0  0  0  0  0  0  0  0  0  0  0
   -0.5810   22.7410  -30.5210 O   0  0  0  0  0  0  0  0  0  0  0  0
   -2.0950   23.3130  -28.7660 C   0  0  0  0  0  0  0  0  0  0  0  0
   -0.9820   24.6780  -28.3160 P   0  0  0  0  0  0  0  0  0  0  0  0
   -1.2390   25.0810  -26.8820 O   0  0  0  0  0  0  0  0  0  0  0  0
    0.6250   24.1750  -28.4760 O   0  0  0  0  0  0  0  0  0  0  0  0
   -1.2620   26.0010  -29.3310 O   0  0  0  0  0  0  0  0  0  0  0  0
   -2.8230   25.3030  -30.5890 H   0  0  0  0  0  0  0  0  0  0  0  0
   -5.8841   22.2598  -32.3318 H   0  0  0  0  0  0  0  0  0  0  0  0
   -5.1477   19.9551  -33.8705 H   0  0  0  0  0  0  0  0  0  0  0  0
   -3.2313   18.3877  -34.3308 H   0  0  0  0  0  0  0  0  0  0  0  0
   -0.0020   18.4879  -32.4139 H   0  0  0  0  0  0  0  0  0  0  0  0
   -1.1009   17.4409  -33.3847 H   0  0  0  0  0  0  0  0  0  0  0  0
   -0.3742   16.9800  -35.4024 H   0  0  0  0  0  0  0  0  0  0  0  0
    0.7211   17.6132  -37.5444 H   0  0  0  0  0  0  0  0  0  0  0  0
    1.6729   19.8992  -37.8197 H   0  0  0  0  0  0  0  0  0  0  0  0
   -0.7323   20.6191  -31.5418 H   0  0  0  0  0  0  0  0  0  0  0  0
   -3.1371   23.6630  -28.7261 H   0  0  0  0  0  0  0  0  0  0  0  0
   -1.9560   22.4823  -28.0584 H   0  0  0  0  0  0  0  0  0  0  0  0
  1  2  1  0
  2  3  2  0
  2  4  1  0
  4  5  2  0
  5  6  1  0
  6  7  2  0
  7  8  1  0
  8  9  2  0
  9 10  1  0
 10 11  1  0
 11 12  1  0
 12 13  2  0
 13 14  1  0
 14 15  2  0
 15 16  1  0
 16 17  2  0
 16 18  1  0
 15 19  1  0
 19 20  2  0
  9 21  1  0
 21 22  2  0
 22 23  1  0
 23 24  1  0
 24 25  2  0
 24 26  1  0
 26 27  1  0
 27 28  2  0
 27 29  1  0
 27 30  1  0
 23  4  1  0
 22  6  1  0
 19 11  1  0
  1 31  1  0
  5 32  1  0
  7 33  1  0
  8 34  1  0
 10 35  1  0
 10 36  1  0
 12 37  1  0
 13 38  1  0
 14 39  1  0
 21 40  1  0
 26 41  1  0
 26 42  1  0
M  CHG  4   1  -1  18  -1  29  -1  30  -1
M  END
>  <UniqueID>  (87) 
85

>  <SMILES>  (87) 
[NH-]C(=O)c1cc2ccc(Cn3cccc(C(=O)[O-])c3=O)cc2n1C(=O)CP(=O)([O-])[O-]

>  <Energy>  (87) 
82.83308141947332

>  <Genealogy>  (87) 
[NH-]C(=O)c1cc2ccc(Cn3cccc(C(=O)[O-])c3=O)cc2n1C(=O)CP(=O)([O-])[O-] (protonated)
[NH-]C(=O)c1cc2ccc(Cn3cccc(C(=O)[O-])c3=O)cc2n1C(=O)CP(=O)([O-])[O-] (3D coordinates assigned)
[NH-]C(=O)c1cc2ccc(Cn3cccc(C(=O)[O-])c3=O)cc2n1C(=O)CP(=O)([O-])[O-] (optimized conformer: 82.83308141947332 kcal/mol)

>  <smiles>  (87) 
NC(=O)c1cc2ccc(Cn3cccc(C(=O)O)c3=O)cc2n1C(=O)CP(=O)(O)O

>  <score_type>  (87) 
oracle

>  <origin>  (87) 
adg

>  <m_score__min__energy>  (87) 
-14.43

>  <m_primary>  (87) 
energy

$$$$
89:0
     RDKit          3D

 35 36  0  0  0  0  0  0  0  0999 V2000
   -4.0290   25.6680  -30.7960 N   0  0  0  0  0  0  0  0  0  0  0  0
   -5.3700   25.3040  -30.4830 C   0  0  0  0  0  0  0  0  0  0  0  0
   -6.0770   26.0920  -29.7990 O   0  0  0  0  0  0  0  0  0  0  0  0
   -5.9340   24.0070  -30.9180 C   0  0  0  0  0  0  0  0  0  0  0  0
   -7.2730   23.8240  -31.2590 C   0  0  0  0  0  0  0  0  0  0  0  0
   -7.3970   22.4850  -31.5520 C   0  0  0  0  0  0  0  0  0  0  0  0
   -8.5100   21.7540  -31.9540 C   0  0  0  0  0  0  0  0  0  0  0  0
   -8.3400   20.3830  -32.2090 C   0  0  0  0  0  0  0  0  0  0  0  0
   -7.0640   19.7730  -32.0870 C   0  0  0  0  0  0  0  0  0  0  0  0
   -6.9030   18.2940  -32.3280 C   0  0  0  0  0  0  0  0  0  0  0  0
   -8.1340   17.6630  -32.3320 F   0  0  0  0  0  0  0  0  0  0  0  0
   -6.1250   17.7200  -31.3370 F   0  0  0  0  0  0  0  0  0  0  0  0
   -6.2910   18.0970  -33.5520 F   0  0  0  0  0  0  0  0  0  0  0  0
   -5.9620   20.5480  -31.6560 C   0  0  0  0  0  0  0  0  0  0  0  0
   -6.1660   21.9060  -31.3900 C   0  0  0  0  0  0  0  0  0  0  0  0
   -5.2590   22.8260  -30.9970 N   0  0  0  0  0  0  0  0  0  0  0  0
   -3.8610   22.5950  -30.7670 C   0  0  0  0  0  0  0  0  0  0  0  0
   -3.0090   23.0630  -31.5680 O   0  0  0  0  0  0  0  0  0  0  0  0
   -3.4020   21.8310  -29.5590 C   0  0  0  0  0  0  0  0  0  0  0  0
   -2.3840   22.5470  -28.8860 O   0  0  0  0  0  0  0  0  0  0  0  0
   -2.9280   23.3880  -27.8840 C   0  0  0  0  0  0  0  0  0  0  0  0
   -2.3820   24.8120  -28.0230 C   0  0  0  0  0  0  0  0  0  0  0  0
   -1.9390   25.0450  -29.3330 O   0  0  0  0  0  0  0  0  0  0  0  0
   -3.2700   24.9530  -30.8240 H   0  0  0  0  0  0  0  0  0  0  0  0
   -8.0636   24.5883  -31.2878 H   0  0  0  0  0  0  0  0  0  0  0  0
   -9.4928   22.2345  -32.0687 H   0  0  0  0  0  0  0  0  0  0  0  0
   -9.2066   19.7745  -32.5070 H   0  0  0  0  0  0  0  0  0  0  0  0
   -4.9679   20.0934  -31.5329 H   0  0  0  0  0  0  0  0  0  0  0  0
   -4.2530   21.6826  -28.8779 H   0  0  0  0  0  0  0  0  0  0  0  0
   -3.0038   20.8572  -29.8800 H   0  0  0  0  0  0  0  0  0  0  0  0
   -4.0232   23.4090  -27.9846 H   0  0  0  0  0  0  0  0  0  0  0  0
   -2.6449   22.9937  -26.8969 H   0  0  0  0  0  0  0  0  0  0  0  0
   -3.1783   25.5301  -27.7776 H   0  0  0  0  0  0  0  0  0  0  0  0
   -1.5331   24.9351  -27.3344 H   0  0  0  0  0  0  0  0  0  0  0  0
   -2.4550   24.4340  -29.9200 H   0  0  0  0  0  0  0  0  0  0  0  0
  1  2  1  0
  2  3  2  0
  2  4  1  0
  4  5  2  0
  5  6  1  0
  6  7  2  0
  7  8  1  0
  8  9  2  0
  9 10  1  0
 10 11  1  0
 10 12  1  0
 10 13  1  0
  9 14  1  0
 14 15  2  0
 15 16  1  0
 16 17  1  0
 17 18  2  0
 17 19  1  0
 19 20  1  0
 20 21  1  0
 21 22  1  0
 22 23  1  0
 16  4  1  0
 15  6  1  0
  1 24  1  0
  5 25  1  0
  7 26  1  0
  8 27  1  0
 14 28  1  0
 19 29  1  0
 19 30  1  0
 21 31  1  0
 21 32  1  0
 22 33  1  0
 22 34  1  0
 23 35  1  0
M  CHG  1   1  -1
M  END
>  <UniqueID>  (88) 
86

>  <SMILES>  (88) 
[NH-]C(=O)c1cc2ccc(C(F)(F)F)cc2n1C(=O)COCCO

>  <Energy>  (88) 
75.1551815751863

>  <Genealogy>  (88) 
[NH-]C(=O)c1cc2ccc(C(F)(F)F)cc2n1C(=O)COCCO (protonated)
[NH-]C(=O)c1cc2ccc(C(F)(F)F)cc2n1C(=O)COCCO (3D coordinates assigned)
[NH-]C(=O)c1cc2ccc(C(F)(F)F)cc2n1C(=O)COCCO (optimized conformer: 75.1551815751863 kcal/mol)

>  <smiles>  (88) 
NC(=O)c1cc2ccc(C(F)(F)F)cc2n1C(=O)COCCO

>  <score_type>  (88) 
oracle

>  <origin>  (88) 
adg

>  <m_score__min__energy>  (88) 
-10.25

>  <m_primary>  (88) 
energy

$$$$
90:0
     RDKit          3D

 43 44  0  0  0  0  0  0  0  0999 V2000
    0.1410   24.2660  -29.1330 H   0  0  0  0  0  0  0  0  0  0  0  0
    0.8380   24.5280  -28.4760 O   0  0  0  0  0  0  0  0  0  0  0  0
    0.1860   25.2550  -27.4690 C   0  0  0  0  0  0  0  0  0  0  0  0
    0.7720   26.1571  -27.2393 H   0  0  0  0  0  0  0  0  0  0  0  0
    0.0966   24.6172  -26.5773 H   0  0  0  0  0  0  0  0  0  0  0  0
   -1.2250   25.6720  -27.9180 C   0  0  1  0  0  0  0  0  0  0  0  0
   -1.4933   26.5868  -27.3692 H   0  0  0  0  0  0  0  0  0  0  0  0
   -1.2380   25.9460  -29.2970 O   0  0  0  0  0  0  0  0  0  0  0  0
   -1.0020   25.1060  -29.7710 H   0  0  0  0  0  0  0  0  0  0  0  0
   -2.2710   24.6030  -27.5720 C   0  0  0  0  0  0  0  0  0  0  0  0
   -3.1373   25.0810  -27.0914 H   0  0  0  0  0  0  0  0  0  0  0  0
   -1.8272   23.8674  -26.8850 H   0  0  0  0  0  0  0  0  0  0  0  0
   -2.6930   23.9440  -28.7600 O   0  0  0  0  0  0  0  0  0  0  0  0
   -2.0000   22.8620  -29.3040 C   0  0  0  0  0  0  0  0  0  0  0  0
   -0.8100   22.9960  -29.7040 O   0  0  0  0  0  0  0  0  0  0  0  0
   -2.6680   21.5550  -29.3830 C   0  0  0  0  0  0  0  0  0  0  0  0
   -2.4386   20.8175  -28.5997 H   0  0  0  0  0  0  0  0  0  0  0  0
   -3.5370   21.1950  -30.3400 C   0  0  0  0  0  0  0  0  0  0  0  0
   -3.8602   20.1436  -30.3543 H   0  0  0  0  0  0  0  0  0  0  0  0
   -4.0990   22.0880  -31.3780 C   0  0  0  0  0  0  0  0  0  0  0  0
   -3.3610   22.4190  -32.3440 O   0  0  0  0  0  0  0  0  0  0  0  0
   -5.4700   22.5320  -31.3580 N   0  0  0  0  0  0  0  0  0  0  0  0
   -5.9200   23.7990  -31.1330 C   0  0  0  0  0  0  0  0  0  0  0  0
   -5.0740   24.9520  -30.7430 C   0  0  0  0  0  0  0  0  0  0  0  0
   -5.6040   26.0530  -30.4420 O   0  0  0  0  0  0  0  0  0  0  0  0
   -3.6480   24.8400  -30.7270 N   0  0  0  0  0  0  0  0  0  0  0  0
   -3.0630   25.6710  -30.4880 H   0  0  0  0  0  0  0  0  0  0  0  0
   -3.1700   23.9310  -30.9070 H   0  0  0  0  0  0  0  0  0  0  0  0
   -7.3100   23.8470  -31.2310 C   0  0  0  0  0  0  0  0  0  0  0  0
   -7.9581   24.7250  -31.0928 H   0  0  0  0  0  0  0  0  0  0  0  0
   -7.6990   22.5640  -31.5370 C   0  0  0  0  0  0  0  0  0  0  0  0
   -8.9720   22.0370  -31.7340 C   0  0  0  0  0  0  0  0  0  0  0  0
   -9.8670   22.6709  -31.6503 H   0  0  0  0  0  0  0  0  0  0  0  0
   -9.0790   20.6710  -32.0430 C   0  0  0  0  0  0  0  0  0  0  0  0
  -10.0722   20.2212  -32.1884 H   0  0  0  0  0  0  0  0  0  0  0  0
   -7.9200   19.8680  -32.1690 C   0  0  0  0  0  0  0  0  0  0  0  0
   -8.0490   18.4020  -32.4590 C   0  0  0  0  0  0  0  0  0  0  0  0
   -8.0981   17.8439  -31.5124 H   0  0  0  0  0  0  0  0  0  0  0  0
   -8.9664   18.2222  -33.0387 H   0  0  0  0  0  0  0  0  0  0  0  0
   -7.1771   18.0648  -33.0387 H   0  0  0  0  0  0  0  0  0  0  0  0
   -6.6450   20.4330  -31.9520 C   0  0  0  0  0  0  0  0  0  0  0  0
   -5.7346   19.8219  -32.0398 H   0  0  0  0  0  0  0  0  0  0  0  0
   -6.5690   21.7920  -31.6220 C   0  0  0  0  0  0  0  0  0  0  0  0
  1  2  1  0
  2  3  1  0
  3  4  1  0
  3  5  1  0
  3  6  1  0
  6  7  1  1
  6  8  1  0
  8  9  1  0
  6 10  1  0
 10 11  1  0
 10 12  1  0
 10 13  1  0
 13 14  1  0
 14 15  2  0
 14 16  1  0
 16 17  1  0
 16 18  2  0
 18 19  1  0
 18 20  1  0
 20 21  2  0
 20 22  1  0
 22 23  1  0
 23 24  1  0
 24 25  2  0
 24 26  1  0
 26 27  1  0
 26 28  1  0
 23 29  2  0
 29 30  1  0
 29 31  1  0
 31 32  2  0
 32 33  1  0
 32 34  1  0
 34 35  1  0
 34 36  2  0
 36 37  1  0
 37 38  1  0
 37 39  1  0
 37 40  1  0
 36 41  1  0
 41 42  1  0
 41 43  2  0
 43 22  1  0
 43 31  1  0
M  END
>  <UniqueID>  (89) 
87

>  <SMILES>  (89) 
Cc1ccc2cc(C(N)=O)n(C(=O)/C=C\C(=O)OC[C@H](O)CO)c2c1

>  <Energy>  (89) 
79.54133067615754

>  <Genealogy>  (89) 
Cc1ccc2cc(C(N)=O)n(C(=O)/C=C\C(=O)OC[C@H](O)CO)c2c1 (chirality)
Cc1ccc2cc(C(N)=O)n(C(=O)/C=C\C(=O)OC[C@H](O)CO)c2c1 (cis-trans isomerization)
Cc1ccc2cc(C(N)=O)n(C(=O)/C=C\C(=O)OC[C@H](O)CO)c2c1 (3D coordinates assigned)
Cc1ccc2cc(C(N)=O)n(C(=O)/C=C\C(=O)OC[C@H](O)CO)c2c1 (optimized conformer: 79.54133067615754 kcal/mol)

>  <smiles>  (89) 
Cc1ccc2cc(C(N)=O)n(C(=O)/C=C\C(=O)OCC(O)CO)c2c1

>  <score_type>  (89) 
oracle

>  <origin>  (89) 
adg

>  <m_score__min__energy>  (89) 
-8.6500000000000004

>  <m_primary>  (89) 
energy

$$$$
91:0
     RDKit          3D

 50 52  0  0  0  0  0  0  0  0999 V2000
   -6.7690   18.0670  -32.3740 C   0  0  0  0  0  0  0  0  0  0  0  0
   -6.9750   19.5310  -32.1220 C   0  0  0  0  0  0  0  0  0  0  0  0
   -8.2110   20.1460  -32.4440 C   0  0  0  0  0  0  0  0  0  0  0  0
   -8.3940   21.5280  -32.2530 C   0  0  0  0  0  0  0  0  0  0  0  0
   -7.3230   22.2640  -31.7540 C   0  0  0  0  0  0  0  0  0  0  0  0
   -7.2120   23.6140  -31.5050 C   0  0  0  0  0  0  0  0  0  0  0  0
   -5.9110   23.7980  -31.0400 C   0  0  0  0  0  0  0  0  0  0  0  0
   -5.3750   25.0980  -30.5890 C   0  0  0  0  0  0  0  0  0  0  0  0
   -3.9720   25.3470  -30.5810 N   0  0  0  0  0  0  0  0  0  0  0  0
   -6.1630   25.9880  -30.1720 O   0  0  0  0  0  0  0  0  0  0  0  0
   -5.2440   22.6110  -31.0110 N   0  0  0  0  0  0  0  0  0  0  0  0
   -3.8580   22.3840  -30.7130 C   0  0  0  0  0  0  0  0  0  0  0  0
   -3.1750   21.6610  -31.4900 O   0  0  0  0  0  0  0  0  0  0  0  0
   -3.2410   23.0570  -29.5860 N   0  0  1  0  0  0  0  0  0  0  0  0
   -3.7600   22.5740  -28.2910 C   0  0  0  0  0  0  0  0  0  0  0  0
   -1.7610   23.0070  -29.6670 C   0  0  0  0  0  0  0  0  0  0  0  0
   -1.0680   24.2520  -29.1720 C   0  0  0  0  0  0  0  0  0  0  0  0
   -1.6190   25.3740  -29.3430 O   0  0  0  0  0  0  0  0  0  0  0  0
    0.2020   24.1640  -28.5910 O   0  0  0  0  0  0  0  0  0  0  0  0
    0.4480   23.6700  -27.2750 C   0  0  0  0  0  0  0  0  0  0  0  0
   -0.0350   24.6710  -26.2010 C   0  0  0  0  0  0  0  0  0  0  0  0
    0.6400   24.5210  -24.8270 C   0  0  0  0  0  0  0  0  0  0  0  0
   -0.1330   26.1060  -26.6860 C   0  0  0  0  0  0  0  0  0  0  0  0
   -1.5370   26.1240  -26.5670 O   0  0  0  0  0  0  0  0  0  0  0  0
   -1.5480   24.7900  -26.1130 C   0  0  0  0  0  0  0  0  0  0  0  0
   -6.1210   21.6820  -31.4450 C   0  0  0  0  0  0  0  0  0  0  0  0
   -5.9090   20.3120  -31.6270 C   0  0  0  0  0  0  0  0  0  0  0  0
   -6.6944   17.5365  -31.4133 H   0  0  0  0  0  0  0  0  0  0  0  0
   -7.6202   17.6702  -32.9468 H   0  0  0  0  0  0  0  0  0  0  0  0
   -5.8414   17.9205  -32.9468 H   0  0  0  0  0  0  0  0  0  0  0  0
   -9.0342   19.5375  -32.8467 H   0  0  0  0  0  0  0  0  0  0  0  0
   -9.3531   22.0115  -32.4905 H   0  0  0  0  0  0  0  0  0  0  0  0
   -7.9857   24.3835  -31.6436 H   0  0  0  0  0  0  0  0  0  0  0  0
   -3.4860   25.6560  -29.7100 H   0  0  0  0  0  0  0  0  0  0  0  0
   -3.5040   24.0670  -29.6490 H   0  0  0  0  0  0  0  0  0  0  0  0
   -3.2230   23.0738  -27.4714 H   0  0  0  0  0  0  0  0  0  0  0  0
   -4.8337   22.8017  -28.2184 H   0  0  0  0  0  0  0  0  0  0  0  0
   -3.6100   21.4867  -28.2184 H   0  0  0  0  0  0  0  0  0  0  0  0
   -1.4119   22.1559  -29.0639 H   0  0  0  0  0  0  0  0  0  0  0  0
   -1.5078   22.9093  -30.7330 H   0  0  0  0  0  0  0  0  0  0  0  0
   -0.0867   22.7177  -27.1438 H   0  0  0  0  0  0  0  0  0  0  0  0
    1.5320   23.5270  -27.1544 H   0  0  0  0  0  0  0  0  0  0  0  0
   -0.1034   24.6862  -24.0333 H   0  0  0  0  0  0  0  0  0  0  0  0
    1.0582   23.5080  -24.7326 H   0  0  0  0  0  0  0  0  0  0  0  0
    1.4479   25.2615  -24.7326 H   0  0  0  0  0  0  0  0  0  0  0  0
    0.3716   26.8267  -26.0258 H   0  0  0  0  0  0  0  0  0  0  0  0
    0.3218   26.3727  -27.6514 H   0  0  0  0  0  0  0  0  0  0  0  0
   -1.9376   24.6783  -25.0904 H   0  0  0  0  0  0  0  0  0  0  0  0
   -2.1713   24.0533  -26.6410 H   0  0  0  0  0  0  0  0  0  0  0  0
   -4.9368   19.8550  -31.3905 H   0  0  0  0  0  0  0  0  0  0  0  0
  1  2  1  0
  2  3  2  0
  3  4  1  0
  4  5  2  0
  5  6  1  0
  6  7  2  0
  7  8  1  0
  8  9  1  0
  8 10  2  0
  7 11  1  0
 11 12  1  0
 12 13  2  0
 12 14  1  0
 14 15  1  0
 14 16  1  0
 16 17  1  0
 17 18  2  0
 17 19  1  0
 19 20  1  0
 20 21  1  0
 21 22  1  0
 21 23  1  0
 23 24  1  0
 24 25  1  0
 11 26  1  0
 26 27  2  0
 27  2  1  0
 26  5  1  0
 25 21  1  0
  1 28  1  0
  1 29  1  0
  1 30  1  0
  3 31  1  0
  4 32  1  0
  6 33  1  0
  9 34  1  0
 14 35  1  6
 15 36  1  0
 15 37  1  0
 15 38  1  0
 16 39  1  0
 16 40  1  0
 20 41  1  0
 20 42  1  0
 22 43  1  0
 22 44  1  0
 22 45  1  0
 23 46  1  0
 23 47  1  0
 25 48  1  0
 25 49  1  0
 27 50  1  0
M  CHG  2   9  -1  14   1
M  END
>  <UniqueID>  (90) 
88

>  <SMILES>  (90) 
Cc1ccc2cc(C([NH-])=O)n(C(=O)[N@@H+](C)CC(=O)OCC3(C)COC3)c2c1

>  <Energy>  (90) 
154.8431343409644

>  <Genealogy>  (90) 
Cc1ccc2cc(C([NH-])=O)n(C(=O)[NH+](C)CC(=O)OCC3(C)COC3)c2c1 (protonated)
Cc1ccc2cc(C([NH-])=O)n(C(=O)[N@@H+](C)CC(=O)OCC3(C)COC3)c2c1 (chirality)
Cc1ccc2cc(C([NH-])=O)n(C(=O)[N@@H+](C)CC(=O)OCC3(C)COC3)c2c1 (3D coordinates assigned)
Cc1ccc2cc(C([NH-])=O)n(C(=O)[N@@H+](C)CC(=O)OCC3(C)COC3)c2c1 (nonaromatic ring conformer: 154.8431343409644 kcal/mol)

>  <smiles>  (90) 
Cc1ccc2cc(C(N)=O)n(C(=O)N(C)CC(=O)OCC3(C)COC3)c2c1

>  <score_type>  (90) 
oracle

>  <origin>  (90) 
adg

>  <m_score__min__energy>  (90) 
-10.06

>  <m_primary>  (90) 
energy

$$$$
92:0
     RDKit          3D

 37 39  0  0  0  0  0  0  0  0999 V2000
   -3.9550   25.6450  -30.8530 N   0  0  0  0  0  0  0  0  0  0  0  0
   -5.2960   25.3020  -30.5100 C   0  0  0  0  0  0  0  0  0  0  0  0
   -5.9910   26.1140  -29.8440 O   0  0  0  0  0  0  0  0  0  0  0  0
   -5.8650   24.0160  -30.9650 C   0  0  0  0  0  0  0  0  0  0  0  0
   -7.2320   23.7750  -31.0900 C   0  0  0  0  0  0  0  0  0  0  0  0
   -7.3370   22.4600  -31.4850 C   0  0  0  0  0  0  0  0  0  0  0  0
   -8.4610   21.7050  -31.8030 C   0  0  0  0  0  0  0  0  0  0  0  0
   -8.2660   20.3840  -32.2440 C   0  0  0  0  0  0  0  0  0  0  0  0
   -6.9600   19.8390  -32.3480 C   0  0  0  0  0  0  0  0  0  0  0  0
   -6.7580   18.4480  -32.8920 C   0  0  0  0  0  0  0  0  0  0  0  0
   -5.7410   17.8290  -32.1920 F   0  0  0  0  0  0  0  0  0  0  0  0
   -6.4210   18.4930  -34.2340 F   0  0  0  0  0  0  0  0  0  0  0  0
   -7.9160   17.6990  -32.7620 F   0  0  0  0  0  0  0  0  0  0  0  0
   -5.8430   20.6460  -32.0320 C   0  0  0  0  0  0  0  0  0  0  0  0
   -6.0690   21.9510  -31.5830 C   0  0  0  0  0  0  0  0  0  0  0  0
   -5.1550   22.8930  -31.2650 N   0  0  0  0  0  0  0  0  0  0  0  0
   -3.7320   22.7470  -31.3560 C   0  0  0  0  0  0  0  0  0  0  0  0
   -3.2110   22.3720  -32.4410 O   0  0  0  0  0  0  0  0  0  0  0  0
   -2.9300   23.0580  -30.2530 O   0  0  0  0  0  0  0  0  0  0  0  0
   -1.7380   22.3470  -29.9300 C   0  0  0  0  0  0  0  0  0  0  0  0
   -0.6480   23.2610  -29.8290 O   0  0  0  0  0  0  0  0  0  0  0  0
   -0.3420   23.9380  -28.6630 N   0  0  0  0  0  0  0  0  0  0  0  0
    0.2040   23.4510  -27.5310 C   0  0  0  0  0  0  0  0  0  0  0  0
    0.5820   22.1270  -27.3420 O   0  0  0  0  0  0  0  0  0  0  0  0
    0.2920   24.4400  -26.5710 C   0  0  0  0  0  0  0  0  0  0  0  0
   -0.2490   25.5820  -27.1410 C   0  0  0  0  0  0  0  0  0  0  0  0
   -0.6370   25.2240  -28.4170 C   0  0  0  0  0  0  0  0  0  0  0  0
   -1.2430   26.0700  -29.3370 O   0  0  0  0  0  0  0  0  0  0  0  0
   -3.1480   25.2580  -30.3150 H   0  0  0  0  0  0  0  0  0  0  0  0
   -8.0531   24.4848  -30.9110 H   0  0  0  0  0  0  0  0  0  0  0  0
   -9.4721   22.1285  -31.7123 H   0  0  0  0  0  0  0  0  0  0  0  0
   -9.1359   19.7661  -32.5114 H   0  0  0  0  0  0  0  0  0  0  0  0
   -4.8197   20.2564  -32.1369 H   0  0  0  0  0  0  0  0  0  0  0  0
   -1.8705   21.8277  -28.9694 H   0  0  0  0  0  0  0  0  0  0  0  0
   -1.5259   21.6116  -30.7201 H   0  0  0  0  0  0  0  0  0  0  0  0
    0.7079   24.3413  -25.5575 H   0  0  0  0  0  0  0  0  0  0  0  0
   -0.3489   26.5721  -26.6722 H   0  0  0  0  0  0  0  0  0  0  0  0
  1  2  1  0
  2  3  2  0
  2  4  1  0
  4  5  2  0
  5  6  1  0
  6  7  2  0
  7  8  1  0
  8  9  2  0
  9 10  1  0
 10 11  1  0
 10 12  1  0
 10 13  1  0
  9 14  1  0
 14 15  2  0
 15 16  1  0
 16 17  1  0
 17 18  2  0
 17 19  1  0
 19 20  1  0
 20 21  1  0
 21 22  1  0
 22 23  1  0
 23 24  1  0
 23 25  2  0
 25 26  1  0
 26 27  2  0
 27 28  1  0
 16  4  1  0
 27 22  1  0
 15  6  1  0
  1 29  1  0
  5 30  1  0
  7 31  1  0
  8 32  1  0
 14 33  1  0
 20 34  1  0
 20 35  1  0
 25 36  1  0
 26 37  1  0
M  CHG  3   1  -1  24  -1  28  -1
M  END
>  <UniqueID>  (91) 
89

>  <SMILES>  (91) 
[NH-]C(=O)c1cc2ccc(C(F)(F)F)cc2n1C(=O)OCOn1c([O-])ccc1[O-]

>  <Energy>  (91) 
109.05220032453396

>  <Genealogy>  (91) 
[NH-]C(=O)c1cc2ccc(C(F)(F)F)cc2n1C(=O)OCOn1c([O-])ccc1[O-] (protonated)
[NH-]C(=O)c1cc2ccc(C(F)(F)F)cc2n1C(=O)OCOn1c([O-])ccc1[O-] (3D coordinates assigned)
[NH-]C(=O)c1cc2ccc(C(F)(F)F)cc2n1C(=O)OCOn1c([O-])ccc1[O-] (optimized conformer: 109.05220032453396 kcal/mol)

>  <smiles>  (91) 
NC(=O)c1cc2ccc(C(F)(F)F)cc2n1C(=O)OCOn1c(O)ccc1O

>  <score_type>  (91) 
oracle

>  <origin>  (91) 
adg

>  <m_score__min__energy>  (91) 
-13.5

>  <m_primary>  (91) 
energy

$$$$
93:0
     RDKit          3D

 42 43  0  0  0  0  0  0  0  0999 V2000
   -7.1820   18.5120  -33.0750 C   0  0  0  0  0  0  0  0  0  0  0  0
   -7.2800   19.8760  -32.4590 C   0  0  0  0  0  0  0  0  0  0  0  0
   -8.5490   20.4680  -32.2430 C   0  0  0  0  0  0  0  0  0  0  0  0
   -8.6530   21.7540  -31.6880 C   0  0  0  0  0  0  0  0  0  0  0  0
   -7.4750   22.4280  -31.3800 C   0  0  0  0  0  0  0  0  0  0  0  0
   -7.2890   23.6680  -30.8120 C   0  0  0  0  0  0  0  0  0  0  0  0
   -5.9080   23.8290  -30.7230 C   0  0  0  0  0  0  0  0  0  0  0  0
   -5.2630   25.0650  -30.2350 C   0  0  0  0  0  0  0  0  0  0  0  0
   -4.0770   25.5430  -30.8660 N   0  0  0  0  0  0  0  0  0  0  0  0
   -5.7250   25.6850  -29.2420 O   0  0  0  0  0  0  0  0  0  0  0  0
   -5.2640   22.7320  -31.2160 N   0  0  0  0  0  0  0  0  0  0  0  0
   -3.8530   22.4630  -31.2050 C   0  0  0  0  0  0  0  0  0  0  0  0
   -3.0330   23.3780  -31.4870 O   0  0  0  0  0  0  0  0  0  0  0  0
   -3.3830   21.1460  -30.9150 N   0  0  0  0  0  0  0  0  0  0  0  0
   -2.2380   20.8740  -30.0600 C   0  0  0  0  0  0  0  0  0  0  0  0
   -1.7700   22.1510  -29.4200 C   0  0  0  0  0  0  0  0  0  0  0  0
   -0.9730   22.8830  -30.0700 O   0  0  0  0  0  0  0  0  0  0  0  0
   -2.1960   22.5580  -28.0970 N   0  0  0  0  0  0  0  0  0  0  0  0
   -1.7320   21.7840  -26.9400 C   0  0  0  0  0  0  0  0  0  0  0  0
   -2.9930   23.7720  -27.8620 C   0  0  0  0  0  0  0  0  0  0  0  0
   -2.1170   25.0200  -27.9790 C   0  0  0  0  0  0  0  0  0  0  0  0
   -1.8700   25.2930  -29.3290 O   0  0  0  0  0  0  0  0  0  0  0  0
   -6.2390   21.8840  -31.6150 C   0  0  0  0  0  0  0  0  0  0  0  0
   -6.1060   20.5960  -32.1470 C   0  0  0  0  0  0  0  0  0  0  0  0
   -7.1275   17.7537  -32.2800 H   0  0  0  0  0  0  0  0  0  0  0  0
   -8.0691   18.3266  -33.6984 H   0  0  0  0  0  0  0  0  0  0  0  0
   -6.2775   18.4553  -33.6984 H   0  0  0  0  0  0  0  0  0  0  0  0
   -9.4611   19.9154  -32.5125 H   0  0  0  0  0  0  0  0  0  0  0  0
   -9.6348   22.2141  -31.5026 H   0  0  0  0  0  0  0  0  0  0  0  0
   -8.0654   24.3801  -30.4957 H   0  0  0  0  0  0  0  0  0  0  0  0
   -3.1330   25.2920  -30.4950 H   0  0  0  0  0  0  0  0  0  0  0  0
   -2.5279   20.1574  -29.2774 H   0  0  0  0  0  0  0  0  0  0  0  0
   -1.4235   20.4497  -30.6654 H   0  0  0  0  0  0  0  0  0  0  0  0
   -2.0365   22.2920  -26.0131 H   0  0  0  0  0  0  0  0  0  0  0  0
   -2.1761   20.7781  -26.9698 H   0  0  0  0  0  0  0  0  0  0  0  0
   -0.6355   21.7017  -26.9698 H   0  0  0  0  0  0  0  0  0  0  0  0
   -3.7999   23.8251  -28.6078 H   0  0  0  0  0  0  0  0  0  0  0  0
   -3.4159   23.7286  -26.8475 H   0  0  0  0  0  0  0  0  0  0  0  0
   -2.6349   25.8755  -27.5209 H   0  0  0  0  0  0  0  0  0  0  0  0
   -1.1627   24.8475  -27.4598 H   0  0  0  0  0  0  0  0  0  0  0  0
   -2.3280   24.5780  -29.8430 H   0  0  0  0  0  0  0  0  0  0  0  0
   -5.1124   20.1560  -32.3176 H   0  0  0  0  0  0  0  0  0  0  0  0
  1  2  1  0
  2  3  2  0
  3  4  1  0
  4  5  2  0
  5  6  1  0
  6  7  2  0
  7  8  1  0
  8  9  1  0
  8 10  2  0
  7 11  1  0
 11 12  1  0
 12 13  2  0
 12 14  1  0
 14 15  1  0
 15 16  1  0
 16 17  2  0
 16 18  1  0
 18 19  1  0
 18 20  1  0
 20 21  1  0
 21 22  1  0
 11 23  1  0
 23 24  2  0
 24  2  1  0
 23  5  1  0
  1 25  1  0
  1 26  1  0
  1 27  1  0
  3 28  1  0
  4 29  1  0
  6 30  1  0
  9 31  1  0
 15 32  1  0
 15 33  1  0
 19 34  1  0
 19 35  1  0
 19 36  1  0
 20 37  1  0
 20 38  1  0
 21 39  1  0
 21 40  1  0
 22 41  1  0
 24 42  1  0
M  CHG  2   9  -1  14  -1
M  END
>  <UniqueID>  (92) 
90

>  <SMILES>  (92) 
Cc1ccc2cc(C([NH-])=O)n(C(=O)[N-]CC(=O)N(C)CCO)c2c1

>  <Energy>  (92) 
72.47684092566136

>  <Genealogy>  (92) 
Cc1ccc2cc(C([NH-])=O)n(C(=O)[N-]CC(=O)N(C)CCO)c2c1 (protonated)
Cc1ccc2cc(C([NH-])=O)n(C(=O)[N-]CC(=O)N(C)CCO)c2c1 (3D coordinates assigned)
Cc1ccc2cc(C([NH-])=O)n(C(=O)[N-]CC(=O)N(C)CCO)c2c1 (optimized conformer: 72.47684092566136 kcal/mol)

>  <smiles>  (92) 
Cc1ccc2cc(C(N)=O)n(C(=O)NCC(=O)N(C)CCO)c2c1

>  <score_type>  (92) 
oracle

>  <origin>  (92) 
adg

>  <m_score__min__energy>  (92) 
-10.82

>  <m_primary>  (92) 
energy

$$$$
94:0
     RDKit          3D

 40 41  0  0  0  0  0  0  0  0999 V2000
   -0.4680   21.8800  -27.6980 C   0  0  0  0  0  0  0  0  0  0  0  0
   -1.0590   22.5150  -28.8810 N   0  0  0  0  0  0  0  0  0  0  0  0
   -0.6820   23.8910  -29.2350 C   0  0  0  0  0  0  0  0  0  0  0  0
   -1.7210   24.8490  -28.7450 C   0  0  0  0  0  0  0  0  0  0  0  0
   -2.7750   24.4250  -28.2040 O   0  0  0  0  0  0  0  0  0  0  0  0
   -1.5440   26.2150  -28.9260 O   0  0  0  0  0  0  0  0  0  0  0  0
   -2.0120   21.7970  -29.6990 C   0  0  0  0  0  0  0  0  0  0  0  0
   -1.6770   20.6820  -30.2830 N   0  0  0  0  0  0  0  0  0  0  0  0
   -3.3580   22.2870  -29.8110 N   0  0  0  0  0  0  0  0  0  0  0  0
   -4.0980   22.2940  -31.0410 C   0  0  0  0  0  0  0  0  0  0  0  0
   -3.5370   21.9780  -32.1250 O   0  0  0  0  0  0  0  0  0  0  0  0
   -5.4750   22.6970  -31.0490 N   0  0  0  0  0  0  0  0  0  0  0  0
   -5.9880   23.9190  -30.7320 C   0  0  0  0  0  0  0  0  0  0  0  0
   -5.2050   25.1360  -30.4290 C   0  0  0  0  0  0  0  0  0  0  0  0
   -3.8530   25.2650  -30.8580 N   0  0  0  0  0  0  0  0  0  0  0  0
   -5.7490   26.0900  -29.8120 O   0  0  0  0  0  0  0  0  0  0  0  0
   -7.3810   23.8910  -30.7820 C   0  0  0  0  0  0  0  0  0  0  0  0
   -7.7070   22.6020  -31.1450 C   0  0  0  0  0  0  0  0  0  0  0  0
   -8.9530   22.0080  -31.3150 C   0  0  0  0  0  0  0  0  0  0  0  0
   -8.9910   20.6440  -31.6520 C   0  0  0  0  0  0  0  0  0  0  0  0
   -7.7930   19.9030  -31.8190 C   0  0  0  0  0  0  0  0  0  0  0  0
   -7.8480   18.4260  -32.1170 C   0  0  0  0  0  0  0  0  0  0  0  0
   -7.4610   18.2110  -33.4270 F   0  0  0  0  0  0  0  0  0  0  0  0
   -6.9980   17.7280  -31.2740 F   0  0  0  0  0  0  0  0  0  0  0  0
   -9.1310   17.9390  -31.9380 F   0  0  0  0  0  0  0  0  0  0  0  0
   -6.5470   20.5390  -31.6100 C   0  0  0  0  0  0  0  0  0  0  0  0
   -6.5390   21.9030  -31.2970 C   0  0  0  0  0  0  0  0  0  0  0  0
   -0.8901   22.3335  -26.7890 H   0  0  0  0  0  0  0  0  0  0  0  0
   -0.6928   20.8033  -27.7089 H   0  0  0  0  0  0  0  0  0  0  0  0
    0.6221   22.0271  -27.7089 H   0  0  0  0  0  0  0  0  0  0  0  0
    0.2853   24.1343  -28.7712 H   0  0  0  0  0  0  0  0  0  0  0  0
   -0.6028   23.9732  -30.3291 H   0  0  0  0  0  0  0  0  0  0  0  0
   -0.7080   20.3010  -30.2330 H   0  0  0  0  0  0  0  0  0  0  0  0
   -2.3780   20.1220  -30.8180 H   0  0  0  0  0  0  0  0  0  0  0  0
   -3.8120   22.6740  -28.9550 H   0  0  0  0  0  0  0  0  0  0  0  0
   -3.0700   25.2890  -30.1680 H   0  0  0  0  0  0  0  0  0  0  0  0
   -8.0727   24.7210  -30.5756 H   0  0  0  0  0  0  0  0  0  0  0  0
   -9.8796   22.5874  -31.1897 H   0  0  0  0  0  0  0  0  0  0  0  0
   -9.9618   20.1449  -31.7879 H   0  0  0  0  0  0  0  0  0  0  0  0
   -5.6063   19.9747  -31.6916 H   0  0  0  0  0  0  0  0  0  0  0  0
  1  2  1  0
  2  3  1  0
  3  4  1  0
  4  5  2  0
  4  6  1  0
  2  7  1  0
  7  8  2  0
  7  9  1  0
  9 10  1  0
 10 11  2  0
 10 12  1  0
 12 13  1  0
 13 14  1  0
 14 15  1  0
 14 16  2  0
 13 17  2  0
 17 18  1  0
 18 19  2  0
 19 20  1  0
 20 21  2  0
 21 22  1  0
 22 23  1  0
 22 24  1  0
 22 25  1  0
 21 26  1  0
 26 27  2  0
 27 12  1  0
 27 18  1  0
  1 28  1  0
  1 29  1  0
  1 30  1  0
  3 31  1  0
  3 32  1  0
  8 33  1  0
  8 34  1  0
  9 35  1  0
 15 36  1  0
 17 37  1  0
 19 38  1  0
 20 39  1  0
 26 40  1  0
M  CHG  3   6  -1   8   1  15  -1
M  END
>  <UniqueID>  (93) 
91

>  <SMILES>  (93) 
CN(CC(=O)[O-])C(=[NH2+])NC(=O)n1c(C([NH-])=O)cc2ccc(C(F)(F)F)cc21

>  <Energy>  (93) 
81.30271047708874

>  <Genealogy>  (93) 
CN(CC(=O)[O-])C(=[NH2+])NC(=O)n1c(C([NH-])=O)cc2ccc(C(F)(F)F)cc21 (protonated)
CN(CC(=O)[O-])C(=[NH2+])NC(=O)n1c(C([NH-])=O)cc2ccc(C(F)(F)F)cc21 (3D coordinates assigned)
CN(CC(=O)[O-])C(=[NH2+])NC(=O)n1c(C([NH-])=O)cc2ccc(C(F)(F)F)cc21 (optimized conformer: 81.30271047708874 kcal/mol)

>  <smiles>  (93) 
CN(CC(=O)O)C(=N)NC(=O)n1c(C(N)=O)cc2ccc(C(F)(F)F)cc21

>  <score_type>  (93) 
oracle

>  <origin>  (93) 
adg

>  <m_score__min__energy>  (93) 
-11.76

>  <m_primary>  (93) 
energy

$$$$
95:0
     RDKit          3D

 62 63  0  0  0  0  0  0  0  0999 V2000
    1.4350   18.3560  -35.1240 C   0  0  0  0  0  0  0  0  0  0  0  0
    0.0810   18.2110  -34.5740 N   0  0  0  0  0  0  0  0  0  0  0  0
   -0.6500   16.9560  -34.8150 C   0  0  0  0  0  0  0  0  0  0  0  0
   -1.1660   16.3060  -33.5010 C   0  0  1  0  0  0  0  0  0  0  0  0
   -0.2540   16.5760  -32.4650 O   0  0  0  0  0  0  0  0  0  0  0  0
   -2.5930   16.7570  -33.0680 C   0  0  1  0  0  0  0  0  0  0  0  0
   -2.5070   17.9710  -32.3670 O   0  0  0  0  0  0  0  0  0  0  0  0
   -3.5960   16.8630  -34.2590 C   0  0  2  0  0  0  0  0  0  0  0  0
   -3.2320   17.9230  -35.1120 O   0  0  0  0  0  0  0  0  0  0  0  0
   -5.0470   17.0870  -33.7550 C   0  0  1  0  0  0  0  0  0  0  0  0
   -5.1040   17.1200  -32.3490 O   0  0  0  0  0  0  0  0  0  0  0  0
   -5.7210   18.3300  -34.3760 C   0  0  0  0  0  0  0  0  0  0  0  0
   -4.9750   19.5010  -34.1750 O   0  0  0  0  0  0  0  0  0  0  0  0
   -0.4510   19.2940  -33.7740 C   0  0  0  0  0  0  0  0  0  0  0  0
   -0.4100   19.2090  -32.5180 O   0  0  0  0  0  0  0  0  0  0  0  0
   -1.0730   20.5310  -34.3730 C   0  0  0  0  0  0  0  0  0  0  0  0
   -2.5300   20.5670  -34.1500 N   0  0  0  0  0  0  0  0  0  0  0  0
   -2.9120   21.6230  -33.2000 C   0  0  0  0  0  0  0  0  0  0  0  0
   -3.8810   21.1120  -32.1620 C   0  0  0  0  0  0  0  0  0  0  0  0
   -3.7620   19.9260  -31.7540 O   0  0  0  0  0  0  0  0  0  0  0  0
   -4.9750   21.9240  -31.6930 N   0  0  0  0  0  0  0  0  0  0  0  0
   -4.9290   23.1960  -31.2030 C   0  0  0  0  0  0  0  0  0  0  0  0
   -3.7140   23.9000  -30.7510 C   0  0  0  0  0  0  0  0  0  0  0  0
   -3.7640   25.2990  -30.4710 N   0  0  0  0  0  0  0  0  0  0  0  0
   -2.6400   23.2680  -30.5600 O   0  0  0  0  0  0  0  0  0  0  0  0
   -6.2130   23.6880  -30.9870 C   0  0  0  0  0  0  0  0  0  0  0  0
   -7.0590   22.6560  -31.3180 C   0  0  0  0  0  0  0  0  0  0  0  0
   -8.4450   22.5770  -31.2320 C   0  0  0  0  0  0  0  0  0  0  0  0
   -9.0560   21.3580  -31.5610 C   0  0  0  0  0  0  0  0  0  0  0  0
   -8.2800   20.2460  -31.9760 C   0  0  0  0  0  0  0  0  0  0  0  0
   -8.9720   18.9300  -32.2370 C   0  0  0  0  0  0  0  0  0  0  0  0
  -10.0480   19.1390  -33.0780 F   0  0  0  0  0  0  0  0  0  0  0  0
   -9.4350   18.3550  -31.0670 F   0  0  0  0  0  0  0  0  0  0  0  0
   -8.0940   18.0520  -32.8420 F   0  0  0  0  0  0  0  0  0  0  0  0
   -6.8720   20.3740  -32.0760 C   0  0  0  0  0  0  0  0  0  0  0  0
   -6.2880   21.6000  -31.7290 C   0  0  0  0  0  0  0  0  0  0  0  0
    2.1592   18.4336  -34.2997 H   0  0  0  0  0  0  0  0  0  0  0  0
    1.6756   17.4785  -35.7421 H   0  0  0  0  0  0  0  0  0  0  0  0
    1.4843   19.2646  -35.7421 H   0  0  0  0  0  0  0  0  0  0  0  0
   -1.5114   17.1688  -35.4652 H   0  0  0  0  0  0  0  0  0  0  0  0
    0.0476   16.2482  -35.2865 H   0  0  0  0  0  0  0  0  0  0  0  0
   -1.2434   15.2276  -33.7037 H   0  0  0  0  0  0  0  0  0  0  0  0
   -0.4400   17.4930  -32.1350 H   0  0  0  0  0  0  0  0  0  0  0  0
   -2.9996   15.9756  -32.4092 H   0  0  0  0  0  0  0  0  0  0  0  0
   -2.4990   18.6880  -33.0470 H   0  0  0  0  0  0  0  0  0  0  0  0
   -3.5574   15.9127  -34.8117 H   0  0  0  0  0  0  0  0  0  0  0  0
   -2.9820   18.6900  -34.5300 H   0  0  0  0  0  0  0  0  0  0  0  0
   -5.6279   16.2191  -34.1003 H   0  0  0  0  0  0  0  0  0  0  0  0
   -4.6450   17.9480  -32.0410 H   0  0  0  0  0  0  0  0  0  0  0  0
   -5.8358   18.1659  -35.4576 H   0  0  0  0  0  0  0  0  0  0  0  0
   -6.6948   18.4645  -33.8823 H   0  0  0  0  0  0  0  0  0  0  0  0
   -4.1640   19.2470  -33.6560 H   0  0  0  0  0  0  0  0  0  0  0  0
   -0.6187   21.4193  -33.9098 H   0  0  0  0  0  0  0  0  0  0  0  0
   -0.8907   20.5176  -35.4577 H   0  0  0  0  0  0  0  0  0  0  0  0
   -2.8300   19.6590  -33.7210 H   0  0  0  0  0  0  0  0  0  0  0  0
   -2.0078   21.9917  -32.6935 H   0  0  0  0  0  0  0  0  0  0  0  0
   -3.4040   22.4303  -33.7623 H   0  0  0  0  0  0  0  0  0  0  0  0
   -3.5150   25.9970  -31.2070 H   0  0  0  0  0  0  0  0  0  0  0  0
   -6.4917   24.6897  -30.6278 H   0  0  0  0  0  0  0  0  0  0  0  0
   -9.0436   23.4439  -30.9157 H   0  0  0  0  0  0  0  0  0  0  0  0
  -10.1500   21.2635  -31.4963 H   0  0  0  0  0  0  0  0  0  0  0  0
   -6.2526   19.5316  -32.4176 H   0  0  0  0  0  0  0  0  0  0  0  0
  1  2  1  0
  2  3  1  0
  3  4  1  0
  4  5  1  0
  4  6  1  0
  6  7  1  0
  6  8  1  0
  8  9  1  0
  8 10  1  0
 10 11  1  0
 10 12  1  0
 12 13  1  0
  2 14  1  0
 14 15  2  0
 14 16  1  0
 16 17  1  0
 17 18  1  0
 18 19  1  0
 19 20  2  0
 19 21  1  0
 21 22  1  0
 22 23  1  0
 23 24  1  0
 23 25  2  0
 22 26  2  0
 26 27  1  0
 27 28  2  0
 28 29  1  0
 29 30  2  0
 30 31  1  0
 31 32  1  0
 31 33  1  0
 31 34  1  0
 30 35  1  0
 35 36  2  0
 36 21  1  0
 36 27  1  0
  1 37  1  0
  1 38  1  0
  1 39  1  0
  3 40  1  0
  3 41  1  0
  4 42  1  6
  5 43  1  0
  6 44  1  1
  7 45  1  0
  8 46  1  6
  9 47  1  0
 10 48  1  6
 11 49  1  0
 12 50  1  0
 12 51  1  0
 13 52  1  0
 16 53  1  0
 16 54  1  0
 17 55  1  0
 18 56  1  0
 18 57  1  0
 24 58  1  0
 26 59  1  0
 28 60  1  0
 29 61  1  0
 35 62  1  0
M  CHG  1  24  -1
M  END
>  <UniqueID>  (94) 
92

>  <SMILES>  (94) 
CN(C[C@@H](O)[C@@H](O)[C@H](O)[C@@H](O)CO)C(=O)CNCC(=O)n1c(C([NH-])=O)cc2ccc(C(F)(F)F)cc21

>  <Energy>  (94) 
102.18254638258905

>  <Genealogy>  (94) 
CN(C[C@@H](O)[C@@H](O)[C@H](O)[C@@H](O)CO)C(=O)CNCC(=O)n1c(C([NH-])=O)cc2ccc(C(F)(F)F)cc21 (protonated)
CN(C[C@@H](O)[C@@H](O)[C@H](O)[C@@H](O)CO)C(=O)CNCC(=O)n1c(C([NH-])=O)cc2ccc(C(F)(F)F)cc21 (3D coordinates assigned)
CN(C[C@@H](O)[C@@H](O)[C@H](O)[C@@H](O)CO)C(=O)CNCC(=O)n1c(C([NH-])=O)cc2ccc(C(F)(F)F)cc21 (optimized conformer: 102.18254638258905 kcal/mol)

>  <smiles>  (94) 
CN(C[C@@H](O)[C@@H](O)[C@H](O)[C@@H](O)CO)C(=O)CNCC(=O)n1c(C(N)=O)cc2ccc(C(F)(F)F)cc21

>  <score_type>  (94) 
oracle

>  <origin>  (94) 
adg

>  <m_score__min__energy>  (94) 
-8.6500000000000004

>  <m_primary>  (94) 
energy

$$$$
