0:0
     RDKit          3D

 34 36  0  0  0  0  0  0  0  0999 V2000
   -6.4760   17.9950  -33.3580 C   0  0  0  0  0  0  0  0  0  0  0  0
   -7.5260   18.3520  -32.3120 C   0  0  0  0  0  0  0  0  0  0  0  0
   -7.5340   19.8340  -32.0510 C   0  0  0  0  0  0  0  0  0  0  0  0
   -8.7350   20.5740  -32.1860 C   0  0  0  0  0  0  0  0  0  0  0  0
   -8.7600   21.9530  -31.9170 C   0  0  0  0  0  0  0  0  0  0  0  0
   -7.5770   22.5580  -31.5000 C   0  0  0  0  0  0  0  0  0  0  0  0
   -7.3140   23.8730  -31.1870 C   0  0  0  0  0  0  0  0  0  0  0  0
   -5.9640   23.9070  -30.8380 C   0  0  0  0  0  0  0  0  0  0  0  0
   -5.2640   25.1280  -30.3830 C   0  0  0  0  0  0  0  0  0  0  0  0
   -3.8620   25.2860  -30.5770 N   0  0  0  0  0  0  0  0  0  0  0  0
   -5.9100   26.0340  -29.7930 O   0  0  0  0  0  0  0  0  0  0  0  0
   -5.4190   22.6620  -30.9280 N   0  0  0  0  0  0  0  0  0  0  0  0
   -4.0510   22.2840  -30.7140 C   0  0  0  0  0  0  0  0  0  0  0  0
   -3.5540   22.3740  -29.5590 O   0  0  0  0  0  0  0  0  0  0  0  0
   -3.2230   21.7930  -31.8290 C   0  0  0  0  0  0  0  0  0  0  0  0
   -1.8830   21.4710  -31.7780 C   0  0  0  0  0  0  0  0  0  0  0  0
   -1.5550   21.0490  -33.0500 C   0  0  0  0  0  0  0  0  0  0  0  0
   -2.6150   21.1030  -33.8240 O   0  0  0  0  0  0  0  0  0  0  0  0
   -3.6340   21.5430  -33.1230 C   0  0  0  0  0  0  0  0  0  0  0  0
   -6.4150   21.8500  -31.3410 C   0  0  0  0  0  0  0  0  0  0  0  0
   -6.3560   20.4810  -31.6200 C   0  0  0  0  0  0  0  0  0  0  0  0
   -5.5498   17.6801  -32.8551 H   0  0  0  0  0  0  0  0  0  0  0  0
   -6.8494   17.1733  -33.9868 H   0  0  0  0  0  0  0  0  0  0  0  0
   -6.2712   18.8740  -33.9868 H   0  0  0  0  0  0  0  0  0  0  0  0
   -8.5174   18.0440  -32.6757 H   0  0  0  0  0  0  0  0  0  0  0  0
   -7.2840   17.8291  -31.3750 H   0  0  0  0  0  0  0  0  0  0  0  0
   -9.6563   20.0642  -32.5043 H   0  0  0  0  0  0  0  0  0  0  0  0
   -9.6853   22.5365  -32.0322 H   0  0  0  0  0  0  0  0  0  0  0  0
   -8.0189   24.7172  -31.2078 H   0  0  0  0  0  0  0  0  0  0  0  0
   -3.4870   26.0110  -31.2300 H   0  0  0  0  0  0  0  0  0  0  0  0
   -1.2156   21.5368  -30.9061 H   0  0  0  0  0  0  0  0  0  0  0  0
   -0.5557   20.7171  -33.3683 H   0  0  0  0  0  0  0  0  0  0  0  0
   -4.6546   21.6894  -33.5063 H   0  0  0  0  0  0  0  0  0  0  0  0
   -5.4152   19.9224  -31.5064 H   0  0  0  0  0  0  0  0  0  0  0  0
  1  2  1  0
  2  3  1  0
  3  4  2  0
  4  5  1  0
  5  6  2  0
  6  7  1  0
  7  8  2  0
  8  9  1  0
  9 10  1  0
  9 11  2  0
  8 12  1  0
 12 13  1  0
 13 14  2  0
 13 15  1  0
 15 16  1  0
 16 17  2  0
 17 18  1  0
 18 19  1  0
 12 20  1  0
 20 21  2  0
 21  3  1  0
 20  6  1  0
 19 15  2  0
  1 22  1  0
  1 23  1  0
  1 24  1  0
  2 25  1  0
  2 26  1  0
  4 27  1  0
  5 28  1  0
  7 29  1  0
 10 30  1  0
 16 31  1  0
 17 32  1  0
 19 33  1  0
 21 34  1  0
M  CHG  1  10  -1
M  END
>  <UniqueID>  (1) 
1

>  <SMILES>  (1) 
CCc1ccc2cc(C([NH-])=O)n(C(=O)c3ccoc3)c2c1

>  <Energy>  (1) 
98.4047075076921

>  <Genealogy>  (1) 
CCc1ccc2cc(C([NH-])=O)n(C(=O)c3ccoc3)c2c1 (protonated)
CCc1ccc2cc(C([NH-])=O)n(C(=O)c3ccoc3)c2c1 (3D coordinates assigned)
CCc1ccc2cc(C([NH-])=O)n(C(=O)c3ccoc3)c2c1 (optimized conformer: 98.4047075076921 kcal/mol)

>  <smiles>  (1) 
CCc1ccc2cc(C(N)=O)n(C(=O)c3ccoc3)c2c1

>  <score_type>  (1) 
oracle

>  <origin>  (1) 
adg

>  <m_score__min__energy>  (1) 
-10.359999999999999

>  <m_primary>  (1) 
energy

$$$$
1:0
     RDKit          3D

 35 36  0  0  0  0  0  0  0  0999 V2000
   -7.5000   18.6830  -31.6380 C   0  0  0  0  0  0  0  0  0  0  0  0
   -7.9150   19.9920  -32.3470 C   0  0  0  0  0  0  0  0  0  0  0  0
   -8.2000   21.0550  -31.2740 C   0  0  0  0  0  0  0  0  0  0  0  0
   -9.1050   19.8000  -33.0780 O   0  0  0  0  0  0  0  0  0  0  0  0
   -6.7880   20.5180  -33.2780 C   0  0  0  0  0  0  0  0  0  0  0  0
   -5.4750   20.7570  -32.5700 C   0  0  0  0  0  0  0  0  0  0  0  0
   -4.4510   19.7780  -32.6170 C   0  0  0  0  0  0  0  0  0  0  0  0
   -3.2180   20.0000  -31.9840 C   0  0  0  0  0  0  0  0  0  0  0  0
   -3.0390   21.2020  -31.3070 C   0  0  0  0  0  0  0  0  0  0  0  0
   -1.9400   21.6820  -30.6350 C   0  0  0  0  0  0  0  0  0  0  0  0
   -2.3130   22.9390  -30.1630 C   0  0  0  0  0  0  0  0  0  0  0  0
   -1.4570   23.7840  -29.3000 C   0  0  0  0  0  0  0  0  0  0  0  0
   -1.6200   25.2040  -29.2770 N   0  0  0  0  0  0  0  0  0  0  0  0
   -0.5520   23.2590  -28.6000 O   0  0  0  0  0  0  0  0  0  0  0  0
   -3.5940   23.2260  -30.5330 N   0  0  0  0  0  0  0  0  0  0  0  0
   -4.3250   24.4410  -30.2960 C   0  0  0  0  0  0  0  0  0  0  0  0
   -5.3810   24.4280  -29.6110 O   0  0  0  0  0  0  0  0  0  0  0  0
   -3.8670   25.6490  -30.8100 O   0  0  0  0  0  0  0  0  0  0  0  0
   -4.0250   22.1520  -31.2310 C   0  0  0  0  0  0  0  0  0  0  0  0
   -5.2580   21.9650  -31.8690 C   0  0  0  0  0  0  0  0  0  0  0  0
   -7.5453   18.8260  -30.5483 H   0  0  0  0  0  0  0  0  0  0  0  0
   -8.1858   17.8742  -31.9305 H   0  0  0  0  0  0  0  0  0  0  0  0
   -6.4735   18.4171  -31.9305 H   0  0  0  0  0  0  0  0  0  0  0  0
   -8.0805   20.6093  -30.2755 H   0  0  0  0  0  0  0  0  0  0  0  0
   -7.4942   21.8908  -31.3893 H   0  0  0  0  0  0  0  0  0  0  0  0
   -9.2292   21.4256  -31.3893 H   0  0  0  0  0  0  0  0  0  0  0  0
   -8.8780   19.7640  -34.0430 H   0  0  0  0  0  0  0  0  0  0  0  0
   -6.6227   19.7780  -34.0749 H   0  0  0  0  0  0  0  0  0  0  0  0
   -7.1229   21.4900  -33.6693 H   0  0  0  0  0  0  0  0  0  0  0  0
   -4.6244   18.8344  -33.1552 H   0  0  0  0  0  0  0  0  0  0  0  0
   -2.4176   19.2464  -32.0221 H   0  0  0  0  0  0  0  0  0  0  0  0
   -0.9708   21.1799  -30.4986 H   0  0  0  0  0  0  0  0  0  0  0  0
   -0.9840   25.7940  -28.6950 H   0  0  0  0  0  0  0  0  0  0  0  0
   -2.3930   25.6700  -29.8010 H   0  0  0  0  0  0  0  0  0  0  0  0
   -6.0382   22.7393  -31.8255 H   0  0  0  0  0  0  0  0  0  0  0  0
  1  2  1  0
  2  3  1  0
  2  4  1  0
  2  5  1  0
  5  6  1  0
  6  7  2  0
  7  8  1  0
  8  9  2  0
  9 10  1  0
 10 11  2  0
 11 12  1  0
 12 13  1  0
 12 14  2  0
 11 15  1  0
 15 16  1  0
 16 17  2  0
 16 18  1  0
 15 19  1  0
 19 20  2  0
 20  6  1  0
 19  9  1  0
  1 21  1  0
  1 22  1  0
  1 23  1  0
  3 24  1  0
  3 25  1  0
  3 26  1  0
  4 27  1  0
  5 28  1  0
  5 29  1  0
  7 30  1  0
  8 31  1  0
 10 32  1  0
 13 33  1  0
 13 34  1  0
 20 35  1  0
M  CHG  1  18  -1
M  END
>  <UniqueID>  (2) 
2

>  <SMILES>  (2) 
CC(C)(O)Cc1ccc2cc(C(N)=O)n(C(=O)[O-])c2c1

>  <Energy>  (2) 
71.169455790269

>  <Genealogy>  (2) 
CC(C)(O)Cc1ccc2cc(C(N)=O)n(C(=O)[O-])c2c1 (protonated)
CC(C)(O)Cc1ccc2cc(C(N)=O)n(C(=O)[O-])c2c1 (3D coordinates assigned)
CC(C)(O)Cc1ccc2cc(C(N)=O)n(C(=O)[O-])c2c1 (optimized conformer: 71.169455790269 kcal/mol)

>  <smiles>  (2) 
CC(C)(O)Cc1ccc2cc(C(N)=O)n(C(=O)O)c2c1

>  <score_type>  (2) 
oracle

>  <origin>  (2) 
adg

>  <m_score__min__energy>  (2) 
-8.8599999999999994

>  <m_primary>  (2) 
energy

$$$$
2:0
     RDKit          3D

 42 43  0  0  0  0  0  0  0  0999 V2000
   -3.1070   19.5080  -33.8340 C   0  0  0  0  0  0  0  0  0  0  0  0
   -2.6550   20.7020  -32.9680 C   0  0  0  0  0  0  0  0  0  0  0  0
   -2.5260   20.2600  -31.4940 C   0  0  0  0  0  0  0  0  0  0  0  0
   -1.2670   21.1640  -33.4610 C   0  0  0  0  0  0  0  0  0  0  0  0
   -3.6470   21.8910  -33.1170 C   0  0  0  0  0  0  0  0  0  0  0  0
   -3.9030   22.6680  -31.8440 C   0  0  0  0  0  0  0  0  0  0  0  0
   -2.9290   23.1500  -31.2060 O   0  0  0  0  0  0  0  0  0  0  0  0
   -5.2440   22.9200  -31.3890 N   0  0  0  0  0  0  0  0  0  0  0  0
   -5.7490   24.0660  -30.8450 C   0  0  0  0  0  0  0  0  0  0  0  0
   -5.0010   25.3110  -30.5530 C   0  0  0  0  0  0  0  0  0  0  0  0
   -3.6410   25.2830  -30.1330 N   0  0  0  0  0  0  0  0  0  0  0  0
   -5.5790   26.4250  -30.6750 O   0  0  0  0  0  0  0  0  0  0  0  0
   -7.1120   23.9220  -30.5860 C   0  0  0  0  0  0  0  0  0  0  0  0
   -7.4350   22.6560  -31.0130 C   0  0  0  0  0  0  0  0  0  0  0  0
   -8.6660   22.0060  -31.0320 C   0  0  0  0  0  0  0  0  0  0  0  0
   -8.7220   20.7180  -31.5890 C   0  0  0  0  0  0  0  0  0  0  0  0
   -7.5620   20.1200  -32.1410 C   0  0  0  0  0  0  0  0  0  0  0  0
   -7.6310   18.7370  -32.7270 C   0  0  0  0  0  0  0  0  0  0  0  0
   -6.3530   18.4110  -33.4310 C   0  0  0  0  0  0  0  0  0  0  0  0
   -6.1160   18.9130  -34.7460 N   0  0  0  0  0  0  0  0  0  0  0  0
   -5.4760   17.7110  -32.8580 O   0  0  0  0  0  0  0  0  0  0  0  0
   -6.3310   20.8100  -32.1030 C   0  0  0  0  0  0  0  0  0  0  0  0
   -6.2950   22.0760  -31.5040 C   0  0  0  0  0  0  0  0  0  0  0  0
   -3.4205   18.6797  -33.1816 H   0  0  0  0  0  0  0  0  0  0  0  0
   -3.9513   19.8144  -34.4690 H   0  0  0  0  0  0  0  0  0  0  0  0
   -2.2714   19.1785  -34.4690 H   0  0  0  0  0  0  0  0  0  0  0  0
   -2.7727   21.1053  -30.8348 H   0  0  0  0  0  0  0  0  0  0  0  0
   -3.2189   19.4283  -31.2986 H   0  0  0  0  0  0  0  0  0  0  0  0
   -1.4945   19.9315  -31.2986 H   0  0  0  0  0  0  0  0  0  0  0  0
   -0.6231   21.3783  -32.5953 H   0  0  0  0  0  0  0  0  0  0  0  0
   -0.8108   20.3693  -34.0695 H   0  0  0  0  0  0  0  0  0  0  0  0
   -1.3781   22.0736  -34.0695 H   0  0  0  0  0  0  0  0  0  0  0  0
   -3.2383   22.5858  -33.8655 H   0  0  0  0  0  0  0  0  0  0  0  0
   -4.6122   21.4535  -33.4118 H   0  0  0  0  0  0  0  0  0  0  0  0
   -2.8620   25.2960  -30.8280 H   0  0  0  0  0  0  0  0  0  0  0  0
   -7.7863   24.6650  -30.1351 H   0  0  0  0  0  0  0  0  0  0  0  0
   -9.5671   22.4865  -30.6233 H   0  0  0  0  0  0  0  0  0  0  0  0
   -9.6749   20.1685  -31.5968 H   0  0  0  0  0  0  0  0  0  0  0  0
   -7.7976   18.0082  -31.9201 H   0  0  0  0  0  0  0  0  0  0  0  0
   -8.4599   18.6936  -33.4488 H   0  0  0  0  0  0  0  0  0  0  0  0
   -6.8780   19.3800  -35.2850 H   0  0  0  0  0  0  0  0  0  0  0  0
   -5.4220   20.3644  -32.5333 H   0  0  0  0  0  0  0  0  0  0  0  0
  1  2  1  0
  2  3  1  0
  2  4  1  0
  2  5  1  0
  5  6  1  0
  6  7  2  0
  6  8  1  0
  8  9  1  0
  9 10  1  0
 10 11  1  0
 10 12  2  0
  9 13  2  0
 13 14  1  0
 14 15  2  0
 15 16  1  0
 16 17  2  0
 17 18  1  0
 18 19  1  0
 19 20  1  0
 19 21  2  0
 17 22  1  0
 22 23  2  0
 23  8  1  0
 23 14  1  0
  1 24  1  0
  1 25  1  0
  1 26  1  0
  3 27  1  0
  3 28  1  0
  3 29  1  0
  4 30  1  0
  4 31  1  0
  4 32  1  0
  5 33  1  0
  5 34  1  0
 11 35  1  0
 13 36  1  0
 15 37  1  0
 16 38  1  0
 18 39  1  0
 18 40  1  0
 20 41  1  0
 22 42  1  0
M  CHG  2  11  -1  20  -1
M  END
>  <UniqueID>  (3) 
3

>  <SMILES>  (3) 
CC(C)(C)CC(=O)n1c(C([NH-])=O)cc2ccc(CC([NH-])=O)cc21

>  <Energy>  (3) 
74.32724202034109

>  <Genealogy>  (3) 
CC(C)(C)CC(=O)n1c(C([NH-])=O)cc2ccc(CC([NH-])=O)cc21 (protonated)
CC(C)(C)CC(=O)n1c(C([NH-])=O)cc2ccc(CC([NH-])=O)cc21 (3D coordinates assigned)
CC(C)(C)CC(=O)n1c(C([NH-])=O)cc2ccc(CC([NH-])=O)cc21 (optimized conformer: 74.32724202034109 kcal/mol)

>  <smiles>  (3) 
CC(C)(C)CC(=O)n1c(C(N)=O)cc2ccc(CC(N)=O)cc21

>  <score_type>  (3) 
oracle

>  <origin>  (3) 
adg

>  <m_score__min__energy>  (3) 
-10.76

>  <m_primary>  (3) 
energy

$$$$
3:0
     RDKit          3D

 33 35  0  0  0  0  0  0  0  0999 V2000
   -2.2630   20.9250  -32.6760 C   0  0  0  0  0  0  0  0  0  0  0  0
   -2.9650   22.1620  -32.7000 O   0  0  0  0  0  0  0  0  0  0  0  0
   -3.5390   22.7250  -31.5570 C   0  0  0  0  0  0  0  0  0  0  0  0
   -2.8080   23.1600  -30.6260 O   0  0  0  0  0  0  0  0  0  0  0  0
   -4.9680   22.8280  -31.4550 N   0  0  0  0  0  0  0  0  0  0  0  0
   -5.7020   23.8970  -31.0330 C   0  0  0  0  0  0  0  0  0  0  0  0
   -5.1680   25.1360  -30.4300 C   0  0  0  0  0  0  0  0  0  0  0  0
   -3.9100   25.6680  -30.8380 N   0  0  0  0  0  0  0  0  0  0  0  0
   -5.8090   25.7070  -29.5070 O   0  0  0  0  0  0  0  0  0  0  0  0
   -7.0650   23.6380  -31.1690 C   0  0  0  0  0  0  0  0  0  0  0  0
   -7.1440   22.3640  -31.6830 C   0  0  0  0  0  0  0  0  0  0  0  0
   -8.2590   21.6050  -32.0230 C   0  0  0  0  0  0  0  0  0  0  0  0
   -8.0460   20.3260  -32.5620 C   0  0  0  0  0  0  0  0  0  0  0  0
   -6.7300   19.8290  -32.7590 C   0  0  0  0  0  0  0  0  0  0  0  0
   -6.5170   18.4800  -33.3410 C   0  0  0  0  0  0  0  0  0  0  0  0
   -5.5930   18.2710  -34.3770 C   0  0  0  0  0  0  0  0  0  0  0  0
   -5.4160   17.0280  -34.8940 N   0  0  0  0  0  0  0  0  0  0  0  0
   -6.1210   15.9670  -34.4230 C   0  0  0  0  0  0  0  0  0  0  0  0
   -7.0200   16.1400  -33.4220 N   0  0  0  0  0  0  0  0  0  0  0  0
   -7.2320   17.3650  -32.8760 C   0  0  0  0  0  0  0  0  0  0  0  0
   -5.6230   20.6350  -32.3990 C   0  0  0  0  0  0  0  0  0  0  0  0
   -5.8660   21.8970  -31.8480 C   0  0  0  0  0  0  0  0  0  0  0  0
   -2.0907   20.6214  -31.6329 H   0  0  0  0  0  0  0  0  0  0  0  0
   -2.8589   20.1552  -33.1883 H   0  0  0  0  0  0  0  0  0  0  0  0
   -1.2966   21.0418  -33.1883 H   0  0  0  0  0  0  0  0  0  0  0  0
   -3.0180   25.2970  -30.4430 H   0  0  0  0  0  0  0  0  0  0  0  0
   -7.8997   24.3092  -30.9187 H   0  0  0  0  0  0  0  0  0  0  0  0
   -9.2767   21.9949  -31.8741 H   0  0  0  0  0  0  0  0  0  0  0  0
   -8.9091   19.7011  -32.8351 H   0  0  0  0  0  0  0  0  0  0  0  0
   -5.0106   19.1168  -34.7712 H   0  0  0  0  0  0  0  0  0  0  0  0
   -5.9629   14.9671  -34.8534 H   0  0  0  0  0  0  0  0  0  0  0  0
   -7.9668   17.4842  -32.0662 H   0  0  0  0  0  0  0  0  0  0  0  0
   -4.5941   20.2762  -32.5495 H   0  0  0  0  0  0  0  0  0  0  0  0
  1  2  1  0
  2  3  1  0
  3  4  2  0
  3  5  1  0
  5  6  1  0
  6  7  1  0
  7  8  1  0
  7  9  2  0
  6 10  2  0
 10 11  1  0
 11 12  2  0
 12 13  1  0
 13 14  2  0
 14 15  1  0
 15 16  2  0
 16 17  1  0
 17 18  2  0
 18 19  1  0
 19 20  2  0
 14 21  1  0
 21 22  2  0
 22  5  1  0
 22 11  1  0
 20 15  1  0
  1 23  1  0
  1 24  1  0
  1 25  1  0
  8 26  1  0
 10 27  1  0
 12 28  1  0
 13 29  1  0
 16 30  1  0
 18 31  1  0
 20 32  1  0
 21 33  1  0
M  CHG  1   8  -1
M  END
>  <UniqueID>  (4) 
4

>  <SMILES>  (4) 
COC(=O)n1c(C([NH-])=O)cc2ccc(-c3cncnc3)cc21

>  <Energy>  (4) 
79.56239930998433

>  <Genealogy>  (4) 
COC(=O)n1c(C([NH-])=O)cc2ccc(-c3cncnc3)cc21 (protonated)
COC(=O)n1c(C([NH-])=O)cc2ccc(-c3cncnc3)cc21 (3D coordinates assigned)
COC(=O)n1c(C([NH-])=O)cc2ccc(-c3cncnc3)cc21 (optimized conformer: 79.56239930998433 kcal/mol)

>  <smiles>  (4) 
COC(=O)n1c(C(N)=O)cc2ccc(-c3cncnc3)cc21

>  <score_type>  (4) 
oracle

>  <origin>  (4) 
adg

>  <m_score__min__energy>  (4) 
-9.9399999999999995

>  <m_primary>  (4) 
energy

$$$$
4:0
     RDKit          3D

 52 55  0  0  0  0  0  0  0  0999 V2000
   -1.3690   18.0880  -34.5470 C   0  0  0  0  0  0  0  0  0  0  0  0
   -2.1820   17.4260  -33.5230 N   0  0  0  0  0  0  0  0  0  0  0  0
   -3.0910   16.4280  -34.1090 C   0  0  0  0  0  0  0  0  0  0  0  0
   -4.5370   16.7670  -33.8640 C   0  0  0  0  0  0  0  0  0  0  0  0
   -5.5410   15.8100  -34.0670 C   0  0  0  0  0  0  0  0  0  0  0  0
   -6.8680   16.1480  -33.8100 C   0  0  0  0  0  0  0  0  0  0  0  0
   -7.1850   17.4250  -33.3450 C   0  0  0  0  0  0  0  0  0  0  0  0
   -6.1570   18.3590  -33.1310 C   0  0  0  0  0  0  0  0  0  0  0  0
   -6.4450   19.7220  -32.6280 C   0  0  0  0  0  0  0  0  0  0  0  0
   -7.7370   20.2800  -32.8050 C   0  0  0  0  0  0  0  0  0  0  0  0
   -8.0320   21.5720  -32.3410 C   0  0  0  0  0  0  0  0  0  0  0  0
   -7.0190   22.2850  -31.7090 C   0  0  0  0  0  0  0  0  0  0  0  0
   -7.0220   23.5640  -31.1990 C   0  0  0  0  0  0  0  0  0  0  0  0
   -5.7310   23.7730  -30.7190 C   0  0  0  0  0  0  0  0  0  0  0  0
   -5.2970   25.0130  -30.0430 C   0  0  0  0  0  0  0  0  0  0  0  0
   -4.0880   25.6550  -30.4430 N   0  0  0  0  0  0  0  0  0  0  0  0
   -5.9950   25.5280  -29.1300 O   0  0  0  0  0  0  0  0  0  0  0  0
   -4.9610   22.6670  -30.9240 N   0  0  0  0  0  0  0  0  0  0  0  0
   -3.5580   22.5210  -30.6480 C   0  0  0  0  0  0  0  0  0  0  0  0
   -2.7210   23.1380  -31.3620 O   0  0  0  0  0  0  0  0  0  0  0  0
   -3.0930   21.7600  -29.4340 C   0  0  0  0  0  0  0  0  0  0  0  0
   -3.7340   22.2560  -28.1300 C   0  0  0  0  0  0  0  0  0  0  0  0
   -2.9750   23.3640  -27.5530 N   0  0  0  0  0  0  0  0  0  0  0  0
   -1.8800   23.2570  -26.7770 C   0  0  0  0  0  0  0  0  0  0  0  0
   -1.4420   24.5290  -26.4610 C   0  0  0  0  0  0  0  0  0  0  0  0
   -2.3280   25.3810  -27.0940 C   0  0  0  0  0  0  0  0  0  0  0  0
   -3.2450   24.6440  -27.7470 N   0  0  0  0  0  0  0  0  0  0  0  0
   -5.7640   21.7660  -31.5300 C   0  0  0  0  0  0  0  0  0  0  0  0
   -5.4380   20.4890  -31.9940 C   0  0  0  0  0  0  0  0  0  0  0  0
   -4.8710   18.0030  -33.4030 N   0  0  0  0  0  0  0  0  0  0  0  0
   -0.6037   18.7112  -34.0613 H   0  0  0  0  0  0  0  0  0  0  0  0
   -0.8794   17.3284  -35.1742 H   0  0  0  0  0  0  0  0  0  0  0  0
   -2.0137   18.7213  -35.1742 H   0  0  0  0  0  0  0  0  0  0  0  0
   -2.7410   18.1530  -33.0180 H   0  0  0  0  0  0  0  0  0  0  0  0
   -2.9161   16.3827  -35.1941 H   0  0  0  0  0  0  0  0  0  0  0  0
   -2.8843   15.4591  -33.6309 H   0  0  0  0  0  0  0  0  0  0  0  0
   -5.2838   14.8024  -34.4256 H   0  0  0  0  0  0  0  0  0  0  0  0
   -7.6656   15.4084  -33.9736 H   0  0  0  0  0  0  0  0  0  0  0  0
   -8.2320   17.6985  -33.1474 H   0  0  0  0  0  0  0  0  0  0  0  0
   -8.5174   19.6934  -33.3119 H   0  0  0  0  0  0  0  0  0  0  0  0
   -9.0337   22.0069  -32.4733 H   0  0  0  0  0  0  0  0  0  0  0  0
   -7.8647   24.2706  -31.1756 H   0  0  0  0  0  0  0  0  0  0  0  0
   -3.1980   25.1160  -30.5290 H   0  0  0  0  0  0  0  0  0  0  0  0
   -3.3478   20.6983  -29.5676 H   0  0  0  0  0  0  0  0  0  0  0  0
   -2.0076   21.9152  -29.3456 H   0  0  0  0  0  0  0  0  0  0  0  0
   -4.7589   22.5952  -28.3409 H   0  0  0  0  0  0  0  0  0  0  0  0
   -3.7396   21.4259  -27.4082 H   0  0  0  0  0  0  0  0  0  0  0  0
   -1.4130   22.3163  -26.4499 H   0  0  0  0  0  0  0  0  0  0  0  0
   -0.5763   24.8040  -25.8405 H   0  0  0  0  0  0  0  0  0  0  0  0
   -2.2896   26.4800  -27.0681 H   0  0  0  0  0  0  0  0  0  0  0  0
   -4.0400   25.0130  -28.3140 H   0  0  0  0  0  0  0  0  0  0  0  0
   -4.4212   20.0884  -31.8694 H   0  0  0  0  0  0  0  0  0  0  0  0
  1  2  1  0
  2  3  1  0
  3  4  1  0
  4  5  2  0
  5  6  1  0
  6  7  2  0
  7  8  1  0
  8  9  1  0
  9 10  2  0
 10 11  1  0
 11 12  2  0
 12 13  1  0
 13 14  2  0
 14 15  1  0
 15 16  1  0
 15 17  2  0
 14 18  1  0
 18 19  1  0
 19 20  2  0
 19 21  1  0
 21 22  1  0
 22 23  1  0
 23 24  1  0
 24 25  2  0
 25 26  1  0
 26 27  2  0
 18 28  1  0
 28 29  2  0
  8 30  2  0
 30  4  1  0
 29  9  1  0
 28 12  1  0
 27 23  1  0
  1 31  1  0
  1 32  1  0
  1 33  1  0
  2 34  1  0
  3 35  1  0
  3 36  1  0
  5 37  1  0
  6 38  1  0
  7 39  1  0
 10 40  1  0
 11 41  1  0
 13 42  1  0
 16 43  1  0
 21 44  1  0
 21 45  1  0
 22 46  1  0
 22 47  1  0
 24 48  1  0
 25 49  1  0
 26 50  1  0
 27 51  1  0
 29 52  1  0
M  CHG  2  16  -1  27   1
M  END
>  <UniqueID>  (5) 
5

>  <SMILES>  (5) 
CNCc1cccc(-c2ccc3cc(C([NH-])=O)n(C(=O)CCn4ccc[nH+]4)c3c2)n1

>  <Energy>  (5) 
122.99094918875824

>  <Genealogy>  (5) 
CNCc1cccc(-c2ccc3cc(C([NH-])=O)n(C(=O)CCn4ccc[nH+]4)c3c2)n1 (protonated)
CNCc1cccc(-c2ccc3cc(C([NH-])=O)n(C(=O)CCn4ccc[nH+]4)c3c2)n1 (3D coordinates assigned)
CNCc1cccc(-c2ccc3cc(C([NH-])=O)n(C(=O)CCn4ccc[nH+]4)c3c2)n1 (optimized conformer: 122.99094918875824 kcal/mol)

>  <smiles>  (5) 
CNCc1cccc(-c2ccc3cc(C(N)=O)n(C(=O)CCn4cccn4)c3c2)n1

>  <score_type>  (5) 
oracle

>  <origin>  (5) 
adg

>  <m_score__min__energy>  (5) 
-11.34

>  <m_primary>  (5) 
energy

$$$$
5:0
     RDKit          3D

 51 52  0  0  0  0  0  0  0  0999 V2000
   -0.7970   26.7640  -27.7730 C   0  0  0  0  0  0  0  0  0  0  0  0
   -1.1980   25.8330  -28.7740 O   0  0  0  0  0  0  0  0  0  0  0  0
   -1.4110   24.4640  -28.5360 C   0  0  0  0  0  0  0  0  0  0  0  0
   -1.3360   23.8400  -27.0200 S   0  0  0  0  0  0  0  0  0  0  0  0
   -1.6500   23.5920  -29.6540 N   0  0  0  0  0  0  0  0  0  0  0  0
   -0.7230   22.4540  -29.6090 C   0  0  0  0  0  0  0  0  0  0  0  0
   -0.6630   21.7440  -30.9740 C   0  0  0  0  0  0  0  0  0  0  0  0
   -1.5010   20.4500  -30.9930 C   0  0  0  0  0  0  0  0  0  0  0  0
   -2.5990   20.4370  -32.0730 C   0  0  0  0  0  0  0  0  0  0  0  0
   -3.4060   21.7410  -32.2030 C   0  0  0  0  0  0  0  0  0  0  0  0
   -4.1930   22.0840  -30.9650 C   0  0  0  0  0  0  0  0  0  0  0  0
   -3.6710   21.9410  -29.8280 O   0  0  0  0  0  0  0  0  0  0  0  0
   -5.4980   22.6770  -31.0700 N   0  0  0  0  0  0  0  0  0  0  0  0
   -5.8300   23.9840  -30.8730 C   0  0  0  0  0  0  0  0  0  0  0  0
   -4.8860   25.0790  -30.5760 C   0  0  0  0  0  0  0  0  0  0  0  0
   -3.4900   24.8880  -30.7940 N   0  0  0  0  0  0  0  0  0  0  0  0
   -5.2960   26.1810  -30.1250 O   0  0  0  0  0  0  0  0  0  0  0  0
   -7.2010   24.1720  -31.0470 C   0  0  0  0  0  0  0  0  0  0  0  0
   -7.7030   22.9270  -31.3550 C   0  0  0  0  0  0  0  0  0  0  0  0
   -9.0060   22.5320  -31.6450 C   0  0  0  0  0  0  0  0  0  0  0  0
   -9.2360   21.1760  -31.9340 C   0  0  0  0  0  0  0  0  0  0  0  0
   -8.1740   20.2350  -31.8970 C   0  0  0  0  0  0  0  0  0  0  0  0
   -8.4250   18.7880  -32.2540 C   0  0  0  0  0  0  0  0  0  0  0  0
   -7.2390   18.2170  -33.0270 C   0  0  0  0  0  0  0  0  0  0  0  0
   -8.6130   18.0410  -31.1070 F   0  0  0  0  0  0  0  0  0  0  0  0
   -9.5660   18.6760  -33.0280 F   0  0  0  0  0  0  0  0  0  0  0  0
   -6.8620   20.6810  -31.6090 C   0  0  0  0  0  0  0  0  0  0  0  0
   -6.6560   22.0430  -31.3600 C   0  0  0  0  0  0  0  0  0  0  0  0
   -0.9821   26.3344  -26.7774 H   0  0  0  0  0  0  0  0  0  0  0  0
    0.2752   26.9830  -27.8843 H   0  0  0  0  0  0  0  0  0  0  0  0
   -1.3745   27.6935  -27.8843 H   0  0  0  0  0  0  0  0  0  0  0  0
   -1.5080   24.1290  -30.5420 H   0  0  0  0  0  0  0  0  0  0  0  0
   -2.6390   23.2480  -29.6220 H   0  0  0  0  0  0  0  0  0  0  0  0
    0.2817   22.8173  -29.3469 H   0  0  0  0  0  0  0  0  0  0  0  0
   -1.0799   21.7378  -28.8542 H   0  0  0  0  0  0  0  0  0  0  0  0
   -1.0475   22.4268  -31.7460 H   0  0  0  0  0  0  0  0  0  0  0  0
    0.3849   21.4714  -31.1678 H   0  0  0  0  0  0  0  0  0  0  0  0
   -0.8250   19.6016  -31.1753 H   0  0  0  0  0  0  0  0  0  0  0  0
   -2.0082   20.3821  -30.0193 H   0  0  0  0  0  0  0  0  0  0  0  0
   -2.1203   20.2350  -33.0425 H   0  0  0  0  0  0  0  0  0  0  0  0
   -3.3179   19.6623  -31.7680 H   0  0  0  0  0  0  0  0  0  0  0  0
   -2.7068   22.5644  -32.4109 H   0  0  0  0  0  0  0  0  0  0  0  0
   -4.1303   21.5945  -33.0178 H   0  0  0  0  0  0  0  0  0  0  0  0
   -2.7850   25.2880  -30.1390 H   0  0  0  0  0  0  0  0  0  0  0  0
   -7.7619   25.1140  -30.9573 H   0  0  0  0  0  0  0  0  0  0  0  0
   -9.8310   23.2596  -31.6479 H   0  0  0  0  0  0  0  0  0  0  0  0
  -10.2511   20.8399  -32.1919 H   0  0  0  0  0  0  0  0  0  0  0  0
   -6.4809   17.8520  -32.3184 H   0  0  0  0  0  0  0  0  0  0  0  0
   -7.5803   17.3845  -33.6598 H   0  0  0  0  0  0  0  0  0  0  0  0
   -6.8011   19.0030  -33.6598 H   0  0  0  0  0  0  0  0  0  0  0  0
   -6.0215   19.9719  -31.5814 H   0  0  0  0  0  0  0  0  0  0  0  0
  1  2  1  0
  2  3  1  0
  3  4  2  0
  3  5  1  0
  5  6  1  0
  6  7  1  0
  7  8  1  0
  8  9  1  0
  9 10  1  0
 10 11  1  0
 11 12  2  0
 11 13  1  0
 13 14  1  0
 14 15  1  0
 15 16  1  0
 15 17  2  0
 14 18  2  0
 18 19  1  0
 19 20  2  0
 20 21  1  0
 21 22  2  0
 22 23  1  0
 23 24  1  0
 23 25  1  0
 23 26  1  0
 22 27  1  0
 27 28  2  0
 28 13  1  0
 28 19  1  0
  1 29  1  0
  1 30  1  0
  1 31  1  0
  5 32  1  0
  5 33  1  0
  6 34  1  0
  6 35  1  0
  7 36  1  0
  7 37  1  0
  8 38  1  0
  8 39  1  0
  9 40  1  0
  9 41  1  0
 10 42  1  0
 10 43  1  0
 16 44  1  0
 18 45  1  0
 20 46  1  0
 21 47  1  0
 24 48  1  0
 24 49  1  0
 24 50  1  0
 27 51  1  0
M  CHG  2   5   1  16  -1
M  END
>  <UniqueID>  (6) 
6

>  <SMILES>  (6) 
COC(=S)[NH2+]CCCCCC(=O)n1c(C([NH-])=O)cc2ccc(C(C)(F)F)cc21

>  <Energy>  (6) 
83.56089018053869

>  <Genealogy>  (6) 
COC(=S)[NH2+]CCCCCC(=O)n1c(C([NH-])=O)cc2ccc(C(C)(F)F)cc21 (protonated)
COC(=S)[NH2+]CCCCCC(=O)n1c(C([NH-])=O)cc2ccc(C(C)(F)F)cc21 (3D coordinates assigned)
COC(=S)[NH2+]CCCCCC(=O)n1c(C([NH-])=O)cc2ccc(C(C)(F)F)cc21 (optimized conformer: 83.56089018053869 kcal/mol)

>  <smiles>  (6) 
COC(=S)NCCCCCC(=O)n1c(C(N)=O)cc2ccc(C(C)(F)F)cc21

>  <score_type>  (6) 
oracle

>  <origin>  (6) 
adg

>  <m_score__min__energy>  (6) 
-9.6199999999999992

>  <m_primary>  (6) 
energy

$$$$
6:0
     RDKit          3D

 39 41  0  0  0  0  0  0  0  0999 V2000
   -4.8380   16.0530  -34.2500 C   0  0  0  0  0  0  0  0  0  0  0  0
   -5.7820   16.9780  -33.5630 C   0  0  0  0  0  0  0  0  0  0  0  0
   -5.5360   18.2860  -33.3560 N   0  0  0  0  0  0  0  0  0  0  0  0
   -6.6720   18.6760  -32.7380 C   0  0  0  0  0  0  0  0  0  0  0  0
   -6.9280   20.0580  -32.2810 C   0  0  0  0  0  0  0  0  0  0  0  0
   -8.2360   20.6040  -32.3480 C   0  0  0  0  0  0  0  0  0  0  0  0
   -8.4870   21.9220  -31.9300 C   0  0  0  0  0  0  0  0  0  0  0  0
   -7.4170   22.6670  -31.4430 C   0  0  0  0  0  0  0  0  0  0  0  0
   -7.3730   23.9710  -31.0050 C   0  0  0  0  0  0  0  0  0  0  0  0
   -6.0430   24.1980  -30.6560 C   0  0  0  0  0  0  0  0  0  0  0  0
   -5.5580   25.4620  -30.0640 C   0  0  0  0  0  0  0  0  0  0  0  0
   -4.3230   26.0230  -30.5020 N   0  0  0  0  0  0  0  0  0  0  0  0
   -6.2390   26.0710  -29.1970 O   0  0  0  0  0  0  0  0  0  0  0  0
   -5.2960   23.0780  -30.8710 N   0  0  0  0  0  0  0  0  0  0  0  0
   -3.8770   22.9280  -30.7170 C   0  0  0  0  0  0  0  0  0  0  0  0
   -3.0950   23.4390  -31.5650 O   0  0  0  0  0  0  0  0  0  0  0  0
   -3.3690   22.2350  -29.6110 O   0  0  0  0  0  0  0  0  0  0  0  0
   -2.9650   22.8730  -28.4010 C   0  0  0  0  0  0  0  0  0  0  0  0
   -1.4440   23.0360  -28.3400 C   0  0  0  0  0  0  0  0  0  0  0  0
   -1.0310   24.4130  -28.7580 C   0  0  0  0  0  0  0  0  0  0  0  0
   -1.9840   25.2950  -29.3460 N   0  0  0  0  0  0  0  0  0  0  0  0
    0.1500   24.8070  -28.5570 O   0  0  0  0  0  0  0  0  0  0  0  0
   -6.1520   22.1510  -31.3530 C   0  0  0  0  0  0  0  0  0  0  0  0
   -5.8670   20.8480  -31.7790 C   0  0  0  0  0  0  0  0  0  0  0  0
   -7.5480   17.6610  -32.5880 N   0  0  0  0  0  0  0  0  0  0  0  0
   -6.9610   16.6290  -33.1130 O   0  0  0  0  0  0  0  0  0  0  0  0
   -4.2640   15.4905  -33.4989 H   0  0  0  0  0  0  0  0  0  0  0  0
   -5.4050   15.3512  -34.8792 H   0  0  0  0  0  0  0  0  0  0  0  0
   -4.1478   16.6342  -34.8792 H   0  0  0  0  0  0  0  0  0  0  0  0
   -9.0631   19.9885  -32.7316 H   0  0  0  0  0  0  0  0  0  0  0  0
   -9.4981   22.3517  -31.9860 H   0  0  0  0  0  0  0  0  0  0  0  0
   -8.2096   24.6826  -30.9435 H   0  0  0  0  0  0  0  0  0  0  0  0
   -3.5450   25.4130  -30.8400 H   0  0  0  0  0  0  0  0  0  0  0  0
   -3.4345   23.8662  -28.3454 H   0  0  0  0  0  0  0  0  0  0  0  0
   -3.2815   22.2455  -27.5548 H   0  0  0  0  0  0  0  0  0  0  0  0
   -1.1048   22.8569  -27.3091 H   0  0  0  0  0  0  0  0  0  0  0  0
   -0.9875   22.3106  -29.0295 H   0  0  0  0  0  0  0  0  0  0  0  0
   -2.3620   25.1160  -30.3030 H   0  0  0  0  0  0  0  0  0  0  0  0
   -4.8436   20.4484  -31.7247 H   0  0  0  0  0  0  0  0  0  0  0  0
  1  2  1  0
  2  3  2  0
  3  4  1  0
  4  5  1  0
  5  6  2  0
  6  7  1  0
  7  8  2  0
  8  9  1  0
  9 10  2  0
 10 11  1  0
 11 12  1  0
 11 13  2  0
 10 14  1  0
 14 15  1  0
 15 16  2  0
 15 17  1  0
 17 18  1  0
 18 19  1  0
 19 20  1  0
 20 21  1  0
 20 22  2  0
 14 23  1  0
 23 24  2  0
  4 25  2  0
 25 26  1  0
 26  2  1  0
 24  5  1  0
 23  8  1  0
  1 27  1  0
  1 28  1  0
  1 29  1  0
  6 30  1  0
  7 31  1  0
  9 32  1  0
 12 33  1  0
 18 34  1  0
 18 35  1  0
 19 36  1  0
 19 37  1  0
 21 38  1  0
 24 39  1  0
M  CHG  2  12  -1  21  -1
M  END
>  <UniqueID>  (7) 
7

>  <SMILES>  (7) 
Cc1nc(-c2ccc3cc(C([NH-])=O)n(C(=O)OCCC([NH-])=O)c3c2)no1

>  <Energy>  (7) 
106.50036081146419

>  <Genealogy>  (7) 
Cc1nc(-c2ccc3cc(C([NH-])=O)n(C(=O)OCCC([NH-])=O)c3c2)no1 (protonated)
Cc1nc(-c2ccc3cc(C([NH-])=O)n(C(=O)OCCC([NH-])=O)c3c2)no1 (3D coordinates assigned)
Cc1nc(-c2ccc3cc(C([NH-])=O)n(C(=O)OCCC([NH-])=O)c3c2)no1 (optimized conformer: 106.50036081146419 kcal/mol)

>  <smiles>  (7) 
Cc1nc(-c2ccc3cc(C(N)=O)n(C(=O)OCCC(N)=O)c3c2)no1

>  <score_type>  (7) 
oracle

>  <origin>  (7) 
adg

>  <m_score__min__energy>  (7) 
-13.69

>  <m_primary>  (7) 
energy

$$$$
7:0
     RDKit          3D

 40 42  0  0  0  0  0  0  0  0999 V2000
   -8.8210   19.2840  -32.3930 C   0  0  0  0  0  0  0  0  0  0  0  0
   -9.3920   20.5820  -32.5030 O   0  0  0  0  0  0  0  0  0  0  0  0
   -9.2370   21.5620  -31.5150 C   0  0  0  0  0  0  0  0  0  0  0  0
  -10.2290   21.9210  -30.8220 O   0  0  0  0  0  0  0  0  0  0  0  0
   -7.9090   22.1740  -31.2890 C   0  0  0  0  0  0  0  0  0  0  0  0
   -7.4210   22.3680  -29.9840 C   0  0  0  0  0  0  0  0  0  0  0  0
   -6.1680   22.9480  -29.7750 C   0  0  0  0  0  0  0  0  0  0  0  0
   -5.3770   23.3540  -30.8630 C   0  0  0  0  0  0  0  0  0  0  0  0
   -4.0480   23.9730  -30.6370 C   0  0  0  0  0  0  0  0  0  0  0  0
   -3.9290   25.2280  -30.6520 O   0  0  0  0  0  0  0  0  0  0  0  0
   -2.8840   23.1640  -30.4100 N   0  0  0  0  0  0  0  0  0  0  0  0
   -1.8590   23.4030  -29.5450 C   0  0  0  0  0  0  0  0  0  0  0  0
   -1.7980   24.5000  -28.5570 C   0  0  0  0  0  0  0  0  0  0  0  0
   -1.5900   25.8490  -28.9680 N   0  0  0  0  0  0  0  0  0  0  0  0
   -1.9610   24.2490  -27.3330 O   0  0  0  0  0  0  0  0  0  0  0  0
   -0.8710   22.4290  -29.6810 C   0  0  0  0  0  0  0  0  0  0  0  0
   -1.3260   21.5810  -30.6670 C   0  0  0  0  0  0  0  0  0  0  0  0
   -0.7370   20.4480  -31.2210 C   0  0  0  0  0  0  0  0  0  0  0  0
   -1.4270   19.7830  -32.2490 C   0  0  0  0  0  0  0  0  0  0  0  0
   -2.6860   20.2560  -32.6960 C   0  0  0  0  0  0  0  0  0  0  0  0
   -3.3900   19.5650  -33.8250 C   0  0  0  0  0  0  0  0  0  0  0  0
   -3.2430   21.4190  -32.1240 C   0  0  0  0  0  0  0  0  0  0  0  0
   -2.5410   22.0510  -31.0920 C   0  0  0  0  0  0  0  0  0  0  0  0
   -5.8620   23.1520  -32.1670 C   0  0  0  0  0  0  0  0  0  0  0  0
   -7.1150   22.5720  -32.3770 C   0  0  0  0  0  0  0  0  0  0  0  0
   -8.7061   19.0228  -31.3307 H   0  0  0  0  0  0  0  0  0  0  0  0
   -9.4798   18.5510  -32.8816 H   0  0  0  0  0  0  0  0  0  0  0  0
   -7.8355   19.2743  -32.8816 H   0  0  0  0  0  0  0  0  0  0  0  0
   -8.0309   22.0605  -29.1218 H   0  0  0  0  0  0  0  0  0  0  0  0
   -5.7968   23.0883  -28.7491 H   0  0  0  0  0  0  0  0  0  0  0  0
   -1.2390   26.0720  -29.9260 H   0  0  0  0  0  0  0  0  0  0  0  0
    0.0721   22.3535  -29.1199 H   0  0  0  0  0  0  0  0  0  0  0  0
    0.2383   20.0844  -30.8652 H   0  0  0  0  0  0  0  0  0  0  0  0
   -0.9859   18.8874  -32.7108 H   0  0  0  0  0  0  0  0  0  0  0  0
   -4.1195   18.8489  -33.4187 H   0  0  0  0  0  0  0  0  0  0  0  0
   -3.9126   20.3105  -34.4423 H   0  0  0  0  0  0  0  0  0  0  0  0
   -2.6544   19.0286  -34.4423 H   0  0  0  0  0  0  0  0  0  0  0  0
   -4.2041   21.8185  -32.4801 H   0  0  0  0  0  0  0  0  0  0  0  0
   -5.2493   23.4534  -33.0294 H   0  0  0  0  0  0  0  0  0  0  0  0
   -7.4831   22.4257  -33.4032 H   0  0  0  0  0  0  0  0  0  0  0  0
  1  2  1  0
  2  3  1  0
  3  4  2  0
  3  5  1  0
  5  6  2  0
  6  7  1  0
  7  8  2  0
  8  9  1  0
  9 10  2  0
  9 11  1  0
 11 12  1  0
 12 13  1  0
 13 14  1  0
 13 15  2  0
 12 16  2  0
 16 17  1  0
 17 18  2  0
 18 19  1  0
 19 20  2  0
 20 21  1  0
 20 22  1  0
 22 23  2  0
  8 24  1  0
 24 25  2  0
 25  5  1  0
 23 11  1  0
 23 17  1  0
  1 26  1  0
  1 27  1  0
  1 28  1  0
  6 29  1  0
  7 30  1  0
 14 31  1  0
 16 32  1  0
 18 33  1  0
 19 34  1  0
 21 35  1  0
 21 36  1  0
 21 37  1  0
 22 38  1  0
 24 39  1  0
 25 40  1  0
M  CHG  1  14  -1
M  END
>  <UniqueID>  (8) 
8

>  <SMILES>  (8) 
COC(=O)c1ccc(C(=O)n2c(C([NH-])=O)cc3ccc(C)cc32)cc1

>  <Energy>  (8) 
80.93967077379985

>  <Genealogy>  (8) 
COC(=O)c1ccc(C(=O)n2c(C([NH-])=O)cc3ccc(C)cc32)cc1 (protonated)
COC(=O)c1ccc(C(=O)n2c(C([NH-])=O)cc3ccc(C)cc32)cc1 (3D coordinates assigned)
COC(=O)c1ccc(C(=O)n2c(C([NH-])=O)cc3ccc(C)cc32)cc1 (optimized conformer: 80.93967077379985 kcal/mol)

>  <smiles>  (8) 
COC(=O)c1ccc(C(=O)n2c(C(N)=O)cc3ccc(C)cc32)cc1

>  <score_type>  (8) 
oracle

>  <origin>  (8) 
adg

>  <m_score__min__energy>  (8) 
-11.32

>  <m_primary>  (8) 
energy

$$$$
8:0
     RDKit          3D

 58 59  0  0  0  0  0  0  0  0999 V2000
    3.5630   24.9450  -28.0550 C   0  0  0  0  0  0  0  0  0  0  0  0
    2.1740   24.5730  -28.2780 N   0  0  0  0  0  0  0  0  0  0  0  0
    1.1300   24.9150  -27.3630 C   0  0  0  0  0  0  0  0  0  0  0  0
    1.0750   24.3260  -26.2360 O   0  0  0  0  0  0  0  0  0  0  0  0
    0.1660   25.8710  -27.7340 O   0  0  0  0  0  0  0  0  0  0  0  0
   -0.8450   26.3490  -26.8470 C   0  0  0  0  0  0  0  0  0  0  0  0
   -1.8960   25.2640  -26.6160 C   0  0  0  0  0  0  0  0  0  0  0  0
   -2.3930   24.5070  -28.1720 S   0  0  0  0  0  0  0  0  0  0  0  0
   -1.7880   25.2780  -29.3150 O   0  0  0  0  0  0  0  0  0  0  0  0
   -3.8920   24.5770  -28.2780 O   0  0  0  0  0  0  0  0  0  0  0  0
   -1.8680   22.7830  -28.2850 C   0  0  0  0  0  0  0  0  0  0  0  0
   -1.1810   22.3810  -26.9640 C   0  0  0  0  0  0  0  0  0  0  0  0
   -0.8720   22.6330  -29.4500 C   0  0  0  0  0  0  0  0  0  0  0  0
   -3.1050   21.8850  -28.5130 C   0  0  0  0  0  0  0  0  0  0  0  0
   -3.3040   21.6510  -29.9050 O   0  0  0  0  0  0  0  0  0  0  0  0
   -3.7760   22.6350  -30.7790 C   0  0  0  0  0  0  0  0  0  0  0  0
   -2.9680   23.4160  -31.3530 O   0  0  0  0  0  0  0  0  0  0  0  0
   -5.1880   22.7690  -31.0000 N   0  0  0  0  0  0  0  0  0  0  0  0
   -5.9250   23.9160  -30.9550 C   0  0  0  0  0  0  0  0  0  0  0  0
   -5.4440   25.2390  -30.4970 C   0  0  0  0  0  0  0  0  0  0  0  0
   -4.1280   25.6680  -30.8280 N   0  0  0  0  0  0  0  0  0  0  0  0
   -6.1950   26.0130  -29.8520 O   0  0  0  0  0  0  0  0  0  0  0  0
   -7.2420   23.6650  -31.3280 C   0  0  0  0  0  0  0  0  0  0  0  0
   -7.2930   22.3140  -31.5960 C   0  0  0  0  0  0  0  0  0  0  0  0
   -8.3570   21.5280  -32.0180 C   0  0  0  0  0  0  0  0  0  0  0  0
   -8.1220   20.1610  -32.2430 C   0  0  0  0  0  0  0  0  0  0  0  0
   -6.8300   19.5920  -32.0540 C   0  0  0  0  0  0  0  0  0  0  0  0
   -6.6000   18.1740  -32.3000 N   0  0  0  0  0  0  0  0  0  0  0  0
   -6.8130   17.6020  -33.6360 C   0  0  0  0  0  0  0  0  0  0  0  0
   -6.1500   17.2900  -31.2170 C   0  0  0  0  0  0  0  0  0  0  0  0
   -5.7720   20.4440  -31.6280 C   0  0  0  0  0  0  0  0  0  0  0  0
   -6.0430   21.7950  -31.3920 C   0  0  0  0  0  0  0  0  0  0  0  0
    3.7595   24.9976  -26.9740 H   0  0  0  0  0  0  0  0  0  0  0  0
    4.2221   24.1917  -28.5112 H   0  0  0  0  0  0  0  0  0  0  0  0
    3.7574   25.9269  -28.5112 H   0  0  0  0  0  0  0  0  0  0  0  0
   -0.3860   26.6217  -25.8852 H   0  0  0  0  0  0  0  0  0  0  0  0
   -1.3290   27.2301  -27.2937 H   0  0  0  0  0  0  0  0  0  0  0  0
   -1.4754   24.4899  -25.9574 H   0  0  0  0  0  0  0  0  0  0  0  0
   -2.7803   25.7252  -26.1520 H   0  0  0  0  0  0  0  0  0  0  0  0
   -1.7844   22.7341  -26.1147 H   0  0  0  0  0  0  0  0  0  0  0  0
   -1.0879   21.2859  -26.9176 H   0  0  0  0  0  0  0  0  0  0  0  0
   -0.1807   22.8363  -26.9176 H   0  0  0  0  0  0  0  0  0  0  0  0
    0.1409   22.4805  -29.0491 H   0  0  0  0  0  0  0  0  0  0  0  0
   -1.1565   21.7676  -30.0665 H   0  0  0  0  0  0  0  0  0  0  0  0
   -0.8890   23.5438  -30.0665 H   0  0  0  0  0  0  0  0  0  0  0  0
   -2.9524   20.9226  -28.0026 H   0  0  0  0  0  0  0  0  0  0  0  0
   -3.9924   22.3933  -28.1079 H   0  0  0  0  0  0  0  0  0  0  0  0
   -3.2970   25.2940  -30.3160 H   0  0  0  0  0  0  0  0  0  0  0  0
   -8.0664   24.3902  -31.3947 H   0  0  0  0  0  0  0  0  0  0  0  0
   -9.3555   21.9631  -32.1718 H   0  0  0  0  0  0  0  0  0  0  0  0
   -8.9518   19.5179  -32.5714 H   0  0  0  0  0  0  0  0  0  0  0  0
   -7.1954   16.5752  -33.5385 H   0  0  0  0  0  0  0  0  0  0  0  0
   -7.5433   18.2146  -34.1850 H   0  0  0  0  0  0  0  0  0  0  0  0
   -5.8599   17.5878  -34.1850 H   0  0  0  0  0  0  0  0  0  0  0  0
   -6.3846   17.7509  -30.2461 H   0  0  0  0  0  0  0  0  0  0  0  0
   -6.6646   16.3211  -31.2968 H   0  0  0  0  0  0  0  0  0  0  0  0
   -5.0638   17.1360  -31.2968 H   0  0  0  0  0  0  0  0  0  0  0  0
   -4.7566   20.0453  -31.4867 H   0  0  0  0  0  0  0  0  0  0  0  0
  1  2  1  0
  2  3  1  0
  3  4  2  0
  3  5  1  0
  5  6  1  0
  6  7  1  0
  7  8  1  0
  8  9  2  0
  8 10  2  0
  8 11  1  0
 11 12  1  0
 11 13  1  0
 11 14  1  0
 14 15  1  0
 15 16  1  0
 16 17  2  0
 16 18  1  0
 18 19  1  0
 19 20  1  0
 20 21  1  0
 20 22  2  0
 19 23  2  0
 23 24  1  0
 24 25  2  0
 25 26  1  0
 26 27  2  0
 27 28  1  0
 28 29  1  0
 28 30  1  0
 27 31  1  0
 31 32  2  0
 32 18  1  0
 32 24  1  0
  1 33  1  0
  1 34  1  0
  1 35  1  0
  6 36  1  0
  6 37  1  0
  7 38  1  0
  7 39  1  0
 12 40  1  0
 12 41  1  0
 12 42  1  0
 13 43  1  0
 13 44  1  0
 13 45  1  0
 14 46  1  0
 14 47  1  0
 21 48  1  0
 23 49  1  0
 25 50  1  0
 26 51  1  0
 29 52  1  0
 29 53  1  0
 29 54  1  0
 30 55  1  0
 30 56  1  0
 30 57  1  0
 31 58  1  0
M  CHG  2   2  -1  21  -1
M  END
>  <UniqueID>  (9) 
9

>  <SMILES>  (9) 
C[N-]C(=O)OCCS(=O)(=O)C(C)(C)COC(=O)n1c(C([NH-])=O)cc2ccc(N(C)C)cc21

>  <Energy>  (9) 
79.42225689123237

>  <Genealogy>  (9) 
C[N-]C(=O)OCCS(=O)(=O)C(C)(C)COC(=O)n1c(C([NH-])=O)cc2ccc(N(C)C)cc21 (protonated)
C[N-]C(=O)OCCS(=O)(=O)C(C)(C)COC(=O)n1c(C([NH-])=O)cc2ccc(N(C)C)cc21 (3D coordinates assigned)
C[N-]C(=O)OCCS(=O)(=O)C(C)(C)COC(=O)n1c(C([NH-])=O)cc2ccc(N(C)C)cc21 (optimized conformer: 79.42225689123237 kcal/mol)

>  <smiles>  (9) 
CNC(=O)OCCS(=O)(=O)C(C)(C)COC(=O)n1c(C(N)=O)cc2ccc(N(C)C)cc21

>  <score_type>  (9) 
oracle

>  <origin>  (9) 
adg

>  <m_score__min__energy>  (9) 
-11.76

>  <m_primary>  (9) 
energy

$$$$
9:0
     RDKit          3D

 28 29  0  0  0  0  0  0  0  0999 V2000
   -6.4640   25.8530  -28.9930 N   0  0  0  0  0  0  0  0  0  0  0  0
   -5.8780   25.3400  -30.1900 C   0  0  0  0  0  0  0  0  0  0  0  0
   -5.0520   26.0510  -30.8210 O   0  0  0  0  0  0  0  0  0  0  0  0
   -6.2470   24.0010  -30.7030 C   0  0  0  0  0  0  0  0  0  0  0  0
   -7.5510   23.6000  -30.9940 C   0  0  0  0  0  0  0  0  0  0  0  0
   -7.4340   22.3360  -31.5260 C   0  0  0  0  0  0  0  0  0  0  0  0
   -8.4140   21.4560  -31.9750 C   0  0  0  0  0  0  0  0  0  0  0  0
   -8.0040   20.2010  -32.4540 C   0  0  0  0  0  0  0  0  0  0  0  0
   -6.6280   19.8510  -32.4930 C   0  0  0  0  0  0  0  0  0  0  0  0
   -6.2060   18.4800  -32.9550 C   0  0  0  0  0  0  0  0  0  0  0  0
   -6.0270   18.4970  -34.3250 F   0  0  0  0  0  0  0  0  0  0  0  0
   -7.1690   17.5390  -32.6380 F   0  0  0  0  0  0  0  0  0  0  0  0
   -5.0190   18.1050  -32.3500 F   0  0  0  0  0  0  0  0  0  0  0  0
   -5.6650   20.7660  -32.0070 C   0  0  0  0  0  0  0  0  0  0  0  0
   -6.1040   22.0110  -31.5450 C   0  0  0  0  0  0  0  0  0  0  0  0
   -5.3640   23.0190  -31.0400 N   0  0  0  0  0  0  0  0  0  0  0  0
   -3.9400   23.0120  -30.8580 C   0  0  0  0  0  0  0  0  0  0  0  0
   -3.1870   22.7470  -31.8330 O   0  0  0  0  0  0  0  0  0  0  0  0
   -3.3440   23.2150  -29.5000 C   0  0  0  0  0  0  0  0  0  0  0  0
   -2.7430   24.8820  -29.3570 S   0  0  0  0  0  0  0  0  0  0  0  0
   -7.1020   25.2740  -28.4050 H   0  0  0  0  0  0  0  0  0  0  0  0
   -6.2210   26.8140  -28.6610 H   0  0  0  0  0  0  0  0  0  0  0  0
   -8.4763   24.1724  -30.8326 H   0  0  0  0  0  0  0  0  0  0  0  0
   -9.4779   21.7349  -31.9554 H   0  0  0  0  0  0  0  0  0  0  0  0
   -8.7579   19.4802  -32.8033 H   0  0  0  0  0  0  0  0  0  0  0  0
   -4.5966   20.5047  -31.9928 H   0  0  0  0  0  0  0  0  0  0  0  0
   -4.1113   23.0352  -28.7326 H   0  0  0  0  0  0  0  0  0  0  0  0
   -2.5100   22.5120  -29.3578 H   0  0  0  0  0  0  0  0  0  0  0  0
  1  2  1  0
  2  3  2  0
  2  4  1  0
  4  5  2  0
  5  6  1  0
  6  7  2  0
  7  8  1  0
  8  9  2  0
  9 10  1  0
 10 11  1  0
 10 12  1  0
 10 13  1  0
  9 14  1  0
 14 15  2  0
 15 16  1  0
 16 17  1  0
 17 18  2  0
 17 19  1  0
 19 20  1  0
 16  4  1  0
 15  6  1  0
  1 21  1  0
  1 22  1  0
  5 23  1  0
  7 24  1  0
  8 25  1  0
 14 26  1  0
 19 27  1  0
 19 28  1  0
M  CHG  1  20  -1
M  END
>  <UniqueID>  (10) 
10

>  <SMILES>  (10) 
NC(=O)c1cc2ccc(C(F)(F)F)cc2n1C(=O)C[S-]

>  <Energy>  (10) 
67.12377031302746

>  <Genealogy>  (10) 
NC(=O)c1cc2ccc(C(F)(F)F)cc2n1C(=O)C[S-] (protonated)
NC(=O)c1cc2ccc(C(F)(F)F)cc2n1C(=O)C[S-] (3D coordinates assigned)
NC(=O)c1cc2ccc(C(F)(F)F)cc2n1C(=O)C[S-] (optimized conformer: 67.12377031302746 kcal/mol)

>  <smiles>  (10) 
NC(=O)c1cc2ccc(C(F)(F)F)cc2n1C(=O)CS

>  <score_type>  (10) 
oracle

>  <origin>  (10) 
adg

>  <m_score__min__energy>  (10) 
-8.7200000000000006

>  <m_primary>  (10) 
energy

$$$$
10:0
     RDKit          3D

 38 39  0  0  0  0  0  0  0  0999 V2000
   -4.9210   24.6960  -29.0110 N   0  0  0  0  0  0  0  0  0  0  0  0
   -6.0180   24.6590  -29.9250 C   0  0  0  0  0  0  0  0  0  0  0  0
   -6.7560   25.6740  -30.0440 O   0  0  0  0  0  0  0  0  0  0  0  0
   -6.3410   23.4350  -30.6840 C   0  0  0  0  0  0  0  0  0  0  0  0
   -7.6410   23.0610  -31.0150 C   0  0  0  0  0  0  0  0  0  0  0  0
   -7.5170   21.8500  -31.6560 C   0  0  0  0  0  0  0  0  0  0  0  0
   -8.4960   21.0260  -32.2020 C   0  0  0  0  0  0  0  0  0  0  0  0
   -8.0820   19.8420  -32.8340 C   0  0  0  0  0  0  0  0  0  0  0  0
   -6.7050   19.5160  -32.9360 C   0  0  0  0  0  0  0  0  0  0  0  0
   -6.2760   18.2240  -33.5860 C   0  0  0  0  0  0  0  0  0  0  0  0
   -6.0930   18.4360  -34.9390 F   0  0  0  0  0  0  0  0  0  0  0  0
   -5.0910   17.7690  -33.0350 F   0  0  0  0  0  0  0  0  0  0  0  0
   -7.2390   17.2460  -33.4080 F   0  0  0  0  0  0  0  0  0  0  0  0
   -5.7420   20.3700  -32.3480 C   0  0  0  0  0  0  0  0  0  0  0  0
   -6.1840   21.5340  -31.7050 C   0  0  0  0  0  0  0  0  0  0  0  0
   -5.4470   22.5010  -31.1130 N   0  0  0  0  0  0  0  0  0  0  0  0
   -4.0120   22.5880  -31.0640 C   0  0  0  0  0  0  0  0  0  0  0  0
   -3.3370   22.5130  -32.1270 O   0  0  0  0  0  0  0  0  0  0  0  0
   -3.3710   22.7510  -29.8330 O   0  0  0  0  0  0  0  0  0  0  0  0
   -1.9540   22.7300  -29.6940 C   0  0  0  0  0  0  0  0  0  0  0  0
   -1.4590   24.1280  -29.3400 C   0  0  0  0  0  0  0  0  0  0  0  0
   -2.4900   24.8810  -28.7040 O   0  0  0  0  0  0  0  0  0  0  0  0
   -2.6710   24.9180  -27.3160 C   0  0  0  0  0  0  0  0  0  0  0  0
   -3.7680   24.5690  -26.8010 O   0  0  0  0  0  0  0  0  0  0  0  0
   -1.5760   25.4390  -26.4430 C   0  0  0  0  0  0  0  0  0  0  0  0
   -0.7820   26.3190  -27.1550 F   0  0  0  0  0  0  0  0  0  0  0  0
   -2.1290   26.0990  -25.3610 F   0  0  0  0  0  0  0  0  0  0  0  0
   -0.7940   24.3930  -25.9890 F   0  0  0  0  0  0  0  0  0  0  0  0
   -4.6800   25.5840  -28.5170 H   0  0  0  0  0  0  0  0  0  0  0  0
   -4.3960   23.8290  -28.7640 H   0  0  0  0  0  0  0  0  0  0  0  0
   -8.5684   23.6152  -30.8082 H   0  0  0  0  0  0  0  0  0  0  0  0
   -9.5612   21.2935  -32.1406 H   0  0  0  0  0  0  0  0  0  0  0  0
   -8.8346   19.1591  -33.2550 H   0  0  0  0  0  0  0  0  0  0  0  0
   -4.6705   20.1256  -32.3946 H   0  0  0  0  0  0  0  0  0  0  0  0
   -1.6740   22.0282  -28.8946 H   0  0  0  0  0  0  0  0  0  0  0  0
   -1.4967   22.4072  -30.6409 H   0  0  0  0  0  0  0  0  0  0  0  0
   -0.5994   24.0451  -28.6586 H   0  0  0  0  0  0  0  0  0  0  0  0
   -1.1634   24.6438  -30.2655 H   0  0  0  0  0  0  0  0  0  0  0  0
  1  2  1  0
  2  3  2  0
  2  4  1  0
  4  5  2  0
  5  6  1  0
  6  7  2  0
  7  8  1  0
  8  9  2  0
  9 10  1  0
 10 11  1  0
 10 12  1  0
 10 13  1  0
  9 14  1  0
 14 15  2  0
 15 16  1  0
 16 17  1  0
 17 18  2  0
 17 19  1  0
 19 20  1  0
 20 21  1  0
 21 22  1  0
 22 23  1  0
 23 24  2  0
 23 25  1  0
 25 26  1  0
 25 27  1  0
 25 28  1  0
 16  4  1  0
 15  6  1  0
  1 29  1  0
  1 30  1  0
  5 31  1  0
  7 32  1  0
  8 33  1  0
 14 34  1  0
 20 35  1  0
 20 36  1  0
 21 37  1  0
 21 38  1  0
M  END
>  <UniqueID>  (11) 
11

>  <SMILES>  (11) 
NC(=O)c1cc2ccc(C(F)(F)F)cc2n1C(=O)OCCOC(=O)C(F)(F)F

>  <Energy>  (11) 
71.02750554698518

>  <Genealogy>  (11) 
NC(=O)c1cc2ccc(C(F)(F)F)cc2n1C(=O)OCCOC(=O)C(F)(F)F (3D coordinates assigned)
NC(=O)c1cc2ccc(C(F)(F)F)cc2n1C(=O)OCCOC(=O)C(F)(F)F (optimized conformer: 71.02750554698518 kcal/mol)

>  <smiles>  (11) 
NC(=O)c1cc2ccc(C(F)(F)F)cc2n1C(=O)OCCOC(=O)C(F)(F)F

>  <score_type>  (11) 
oracle

>  <origin>  (11) 
adg

>  <m_score__min__energy>  (11) 
-7.3600000000000003

>  <m_primary>  (11) 
energy

$$$$
11:0
     RDKit          3D

 56 58  0  0  0  0  0  0  0  0999 V2000
   -4.3520   22.6980  -28.1010 C   0  0  0  0  0  0  0  0  0  0  0  0
   -4.7990   22.9170  -29.3350 C   0  0  0  0  0  0  0  0  0  0  0  0
   -3.9090   23.2890  -30.4490 C   0  0  0  0  0  0  0  0  0  0  0  0
   -4.2520   24.2300  -31.2140 O   0  0  0  0  0  0  0  0  0  0  0  0
   -2.6600   22.6150  -30.6770 N   0  0  0  0  0  0  0  0  0  0  0  0
   -1.4460   22.9170  -30.1390 C   0  0  0  0  0  0  0  0  0  0  0  0
   -1.1420   24.1090  -29.3220 C   0  0  0  0  0  0  0  0  0  0  0  0
   -2.0150   25.2360  -29.3550 N   0  0  0  0  0  0  0  0  0  0  0  0
   -0.1250   24.1370  -28.5780 O   0  0  0  0  0  0  0  0  0  0  0  0
   -0.5030   21.9540  -30.4930 C   0  0  0  0  0  0  0  0  0  0  0  0
   -1.1870   21.0390  -31.2610 C   0  0  0  0  0  0  0  0  0  0  0  0
   -0.7530   19.8530  -31.8410 C   0  0  0  0  0  0  0  0  0  0  0  0
   -1.6900   19.0810  -32.5480 C   0  0  0  0  0  0  0  0  0  0  0  0
   -3.0370   19.5160  -32.6840 C   0  0  0  0  0  0  0  0  0  0  0  0
   -4.0700   18.6940  -33.4350 C   0  0  1  0  0  0  0  0  0  0  0  0
   -3.8380   17.1620  -33.3730 C   0  0  0  0  0  0  0  0  0  0  0  0
   -3.5350   16.5350  -34.7440 C   0  0  0  0  0  0  0  0  0  0  0  0
   -2.2060   16.9240  -35.2160 N   0  0  0  0  0  0  0  0  0  0  0  0
   -0.9990   16.6510  -34.4950 C   0  0  0  0  0  0  0  0  0  0  0  0
   -1.0450   16.1410  -33.3420 O   0  0  0  0  0  0  0  0  0  0  0  0
    0.2300   16.9500  -35.0880 O   0  0  0  0  0  0  0  0  0  0  0  0
    0.5080   18.2060  -35.6930 C   0  0  0  0  0  0  0  0  0  0  0  0
   -5.4660   19.0800  -32.9760 C   0  0  0  0  0  0  0  0  0  0  0  0
   -6.1780   18.2990  -32.0460 C   0  0  0  0  0  0  0  0  0  0  0  0
   -7.4460   18.6930  -31.6110 C   0  0  0  0  0  0  0  0  0  0  0  0
   -8.0260   19.8740  -32.0830 C   0  0  0  0  0  0  0  0  0  0  0  0
   -9.3010   20.2250  -31.6160 O   0  0  0  0  0  0  0  0  0  0  0  0
   -9.7010   21.5510  -31.2880 C   0  0  0  0  0  0  0  0  0  0  0  0
   -7.3140   20.6680  -33.0010 C   0  0  0  0  0  0  0  0  0  0  0  0
   -6.0460   20.2760  -33.4370 C   0  0  0  0  0  0  0  0  0  0  0  0
   -3.4420   20.7160  -32.0500 C   0  0  0  0  0  0  0  0  0  0  0  0
   -2.4860   21.4630  -31.3580 C   0  0  0  0  0  0  0  0  0  0  0  0
   -5.0559   22.4223  -27.3019 H   0  0  0  0  0  0  0  0  0  0  0  0
   -3.2786   22.7926  -27.8800 H   0  0  0  0  0  0  0  0  0  0  0  0
   -5.8766   22.8163  -29.5315 H   0  0  0  0  0  0  0  0  0  0  0  0
   -2.7820   25.3010  -30.0610 H   0  0  0  0  0  0  0  0  0  0  0  0
    0.5616   21.9301  -30.2173 H   0  0  0  0  0  0  0  0  0  0  0  0
    0.2939   19.5281  -31.7492 H   0  0  0  0  0  0  0  0  0  0  0  0
   -1.3780   18.1288  -33.0017 H   0  0  0  0  0  0  0  0  0  0  0  0
   -3.9565   18.9396  -34.5012 H   0  0  0  0  0  0  0  0  0  0  0  0
   -2.9877   16.9648  -32.7036 H   0  0  0  0  0  0  0  0  0  0  0  0
   -4.7697   16.7067  -33.0061 H   0  0  0  0  0  0  0  0  0  0  0  0
   -3.5792   15.4394  -34.6562 H   0  0  0  0  0  0  0  0  0  0  0  0
   -4.2826   16.8941  -35.4666 H   0  0  0  0  0  0  0  0  0  0  0  0
   -2.1280   17.3930  -36.1470 H   0  0  0  0  0  0  0  0  0  0  0  0
    0.6751   18.9609  -34.9106 H   0  0  0  0  0  0  0  0  0  0  0  0
    1.4089   18.1204  -36.3183 H   0  0  0  0  0  0  0  0  0  0  0  0
   -0.3449   18.5086  -36.3183 H   0  0  0  0  0  0  0  0  0  0  0  0
   -5.7324   17.3709  -31.6586 H   0  0  0  0  0  0  0  0  0  0  0  0
   -7.9931   18.0677  -30.8901 H   0  0  0  0  0  0  0  0  0  0  0  0
   -9.7350   21.6638  -30.1943 H   0  0  0  0  0  0  0  0  0  0  0  0
   -8.9787   22.2664  -31.7081 H   0  0  0  0  0  0  0  0  0  0  0  0
  -10.6984   21.7476  -31.7081 H   0  0  0  0  0  0  0  0  0  0  0  0
   -7.7579   21.6016  -33.3770 H   0  0  0  0  0  0  0  0  0  0  0  0
   -5.4953   20.9091  -34.1482 H   0  0  0  0  0  0  0  0  0  0  0  0
   -4.4879   21.0527  -32.1015 H   0  0  0  0  0  0  0  0  0  0  0  0
  1  2  2  0
  2  3  1  0
  3  4  2  0
  3  5  1  0
  5  6  1  0
  6  7  1  0
  7  8  1  0
  7  9  2  0
  6 10  2  0
 10 11  1  0
 11 12  2  0
 12 13  1  0
 13 14  2  0
 14 15  1  0
 15 16  1  0
 16 17  1  0
 17 18  1  0
 18 19  1  0
 19 20  2  0
 19 21  1  0
 21 22  1  0
 15 23  1  0
 23 24  2  0
 24 25  1  0
 25 26  2  0
 26 27  1  0
 27 28  1  0
 26 29  1  0
 29 30  2  0
 14 31  1  0
 31 32  2  0
 32  5  1  0
 32 11  1  0
 30 23  1  0
  1 33  1  0
  1 34  1  0
  2 35  1  0
  8 36  1  0
 10 37  1  0
 12 38  1  0
 13 39  1  0
 15 40  1  6
 16 41  1  0
 16 42  1  0
 17 43  1  0
 17 44  1  0
 18 45  1  0
 22 46  1  0
 22 47  1  0
 22 48  1  0
 24 49  1  0
 25 50  1  0
 28 51  1  0
 28 52  1  0
 28 53  1  0
 29 54  1  0
 30 55  1  0
 31 56  1  0
M  CHG  1   8  -1
M  END
>  <UniqueID>  (12) 
12

>  <SMILES>  (12) 
C=CC(=O)n1c(C([NH-])=O)cc2ccc([C@@H](CCNC(=O)OC)c3ccc(OC)cc3)cc21

>  <Energy>  (12) 
88.08591174592674

>  <Genealogy>  (12) 
C=CC(=O)n1c(C([NH-])=O)cc2ccc(C(CCNC(=O)OC)c3ccc(OC)cc3)cc21 (protonated)
C=CC(=O)n1c(C([NH-])=O)cc2ccc([C@@H](CCNC(=O)OC)c3ccc(OC)cc3)cc21 (chirality)
C=CC(=O)n1c(C([NH-])=O)cc2ccc([C@@H](CCNC(=O)OC)c3ccc(OC)cc3)cc21 (3D coordinates assigned)
C=CC(=O)n1c(C([NH-])=O)cc2ccc([C@@H](CCNC(=O)OC)c3ccc(OC)cc3)cc21 (optimized conformer: 88.08591174592674 kcal/mol)

>  <smiles>  (12) 
C=CC(=O)n1c(C(N)=O)cc2ccc(C(CCNC(=O)OC)c3ccc(OC)cc3)cc21

>  <score_type>  (12) 
oracle

>  <origin>  (12) 
adg

>  <m_score__min__energy>  (12) 
-11.710000000000001

>  <m_primary>  (12) 
energy

$$$$
12:0
     RDKit          3D

 46 48  0  0  0  0  0  0  0  0999 V2000
   -4.5640   15.6540  -34.6230 C   0  0  0  0  0  0  0  0  0  0  0  0
   -5.5380   16.5620  -34.0320 N   0  0  0  0  0  0  0  0  0  0  0  0
   -5.3420   17.8690  -33.7840 C   0  0  0  0  0  0  0  0  0  0  0  0
   -6.4710   18.3600  -33.1510 C   0  0  0  0  0  0  0  0  0  0  0  0
   -6.7130   19.7460  -32.6790 C   0  0  0  0  0  0  0  0  0  0  0  0
   -8.0250   20.2930  -32.6920 C   0  0  0  0  0  0  0  0  0  0  0  0
   -8.2670   21.5980  -32.2280 C   0  0  0  0  0  0  0  0  0  0  0  0
   -7.1840   22.3360  -31.7630 C   0  0  0  0  0  0  0  0  0  0  0  0
   -7.1370   23.6060  -31.2320 C   0  0  0  0  0  0  0  0  0  0  0  0
   -5.7960   23.8240  -30.9200 C   0  0  0  0  0  0  0  0  0  0  0  0
   -5.2730   25.0960  -30.3800 C   0  0  0  0  0  0  0  0  0  0  0  0
   -4.0230   25.6040  -30.8420 N   0  0  0  0  0  0  0  0  0  0  0  0
   -5.9070   25.7290  -29.4960 O   0  0  0  0  0  0  0  0  0  0  0  0
   -5.0500   22.7320  -31.2430 N   0  0  0  0  0  0  0  0  0  0  0  0
   -3.6470   22.5230  -31.0270 C   0  0  0  0  0  0  0  0  0  0  0  0
   -2.8130   23.3310  -31.5170 O   0  0  0  0  0  0  0  0  0  0  0  0
   -3.1580   21.3090  -30.2970 C   0  0  0  0  0  0  0  0  0  0  0  0
   -1.3460   21.3980  -30.0780 S   0  0  0  0  0  0  0  0  0  0  0  0
   -1.3540   21.7510  -28.2810 C   0  0  0  0  0  0  0  0  0  0  0  0
   -2.4250   22.7810  -27.9230 C   0  0  0  0  0  0  0  0  0  0  0  0
   -2.3870   23.9070  -28.8610 N   0  0  0  0  0  0  0  0  0  0  0  0
   -1.1950   25.0820  -28.3200 P   0  0  0  0  0  0  0  0  0  0  0  0
   -1.4960   25.5080  -26.9000 O   0  0  0  0  0  0  0  0  0  0  0  0
    0.3430   24.3810  -28.3770 O   0  0  0  0  0  0  0  0  0  0  0  0
   -1.2250   26.4360  -29.3340 O   0  0  0  0  0  0  0  0  0  0  0  0
   -5.9120   21.8330  -31.7610 C   0  0  0  0  0  0  0  0  0  0  0  0
   -5.6400   20.5360  -32.2030 C   0  0  0  0  0  0  0  0  0  0  0  0
   -7.3160   17.2640  -33.0400 C   0  0  0  0  0  0  0  0  0  0  0  0
   -6.7210   16.1820  -33.5780 N   0  0  0  0  0  0  0  0  0  0  0  0
   -4.0111   15.1386  -33.8238 H   0  0  0  0  0  0  0  0  0  0  0  0
   -5.0852   14.9120  -35.2457 H   0  0  0  0  0  0  0  0  0  0  0  0
   -3.8603   16.2259  -35.2457 H   0  0  0  0  0  0  0  0  0  0  0  0
   -4.4417   18.4471  -34.0395 H   0  0  0  0  0  0  0  0  0  0  0  0
   -8.8619   19.6874  -33.0700 H   0  0  0  0  0  0  0  0  0  0  0  0
   -9.2819   22.0222  -32.2327 H   0  0  0  0  0  0  0  0  0  0  0  0
   -7.9779   24.2999  -31.0855 H   0  0  0  0  0  0  0  0  0  0  0  0
   -3.1220   25.2510  -30.4500 H   0  0  0  0  0  0  0  0  0  0  0  0
   -3.6419   21.2578  -29.3105 H   0  0  0  0  0  0  0  0  0  0  0  0
   -3.4070   20.4115  -30.8822 H   0  0  0  0  0  0  0  0  0  0  0  0
   -1.5561   20.8186  -27.7334 H   0  0  0  0  0  0  0  0  0  0  0  0
   -0.3715   22.1601  -28.0028 H   0  0  0  0  0  0  0  0  0  0  0  0
   -3.4154   22.3046  -27.9690 H   0  0  0  0  0  0  0  0  0  0  0  0
   -2.2323   23.1569  -26.9073 H   0  0  0  0  0  0  0  0  0  0  0  0
   -2.0560   23.5500  -29.7870 H   0  0  0  0  0  0  0  0  0  0  0  0
   -4.6148   20.1379  -32.1815 H   0  0  0  0  0  0  0  0  0  0  0  0
   -8.3166   17.2772  -32.5833 H   0  0  0  0  0  0  0  0  0  0  0  0
  1  2  1  0
  2  3  1  0
  3  4  2  0
  4  5  1  0
  5  6  2  0
  6  7  1  0
  7  8  2  0
  8  9  1  0
  9 10  2  0
 10 11  1  0
 11 12  1  0
 11 13  2  0
 10 14  1  0
 14 15  1  0
 15 16  2  0
 15 17  1  0
 17 18  1  0
 18 19  1  0
 19 20  1  0
 20 21  1  0
 21 22  1  0
 22 23  2  0
 22 24  1  0
 22 25  1  0
 14 26  1  0
 26 27  2  0
  4 28  1  0
 28 29  2  0
 29  2  1  0
 27  5  1  0
 26  8  1  0
  1 30  1  0
  1 31  1  0
  1 32  1  0
  3 33  1  0
  6 34  1  0
  7 35  1  0
  9 36  1  0
 12 37  1  0
 17 38  1  0
 17 39  1  0
 19 40  1  0
 19 41  1  0
 20 42  1  0
 20 43  1  0
 21 44  1  0
 27 45  1  0
 28 46  1  0
M  CHG  3  12  -1  24  -1  25  -1
M  END
>  <UniqueID>  (13) 
13

>  <SMILES>  (13) 
Cn1cc(-c2ccc3cc(C([NH-])=O)n(C(=O)CSCCNP(=O)([O-])[O-])c3c2)cn1

>  <Energy>  (13) 
108.10479289672054

>  <Genealogy>  (13) 
Cn1cc(-c2ccc3cc(C([NH-])=O)n(C(=O)CSCCNP(=O)([O-])[O-])c3c2)cn1 (protonated)
Cn1cc(-c2ccc3cc(C([NH-])=O)n(C(=O)CSCCNP(=O)([O-])[O-])c3c2)cn1 (3D coordinates assigned)
Cn1cc(-c2ccc3cc(C([NH-])=O)n(C(=O)CSCCNP(=O)([O-])[O-])c3c2)cn1 (optimized conformer: 108.10479289672054 kcal/mol)

>  <smiles>  (13) 
Cn1cc(-c2ccc3cc(C(N)=O)n(C(=O)CSCCNP(=O)(O)O)c3c2)cn1

>  <score_type>  (13) 
oracle

>  <origin>  (13) 
adg

>  <m_score__min__energy>  (13) 
-14.68

>  <m_primary>  (13) 
energy

$$$$
13:0
     RDKit          3D

 40 41  0  0  0  0  0  0  0  0999 V2000
   -3.8670   25.5580  -30.8530 N   0  0  0  0  0  0  0  0  0  0  0  0
   -5.1950   25.2830  -30.4140 C   0  0  0  0  0  0  0  0  0  0  0  0
   -5.7580   26.0800  -29.6180 O   0  0  0  0  0  0  0  0  0  0  0  0
   -5.8760   24.0500  -30.8600 C   0  0  0  0  0  0  0  0  0  0  0  0
   -7.2620   23.9300  -30.9500 C   0  0  0  0  0  0  0  0  0  0  0  0
   -7.4860   22.6830  -31.4850 C   0  0  0  0  0  0  0  0  0  0  0  0
   -8.6830   22.0380  -31.7800 C   0  0  0  0  0  0  0  0  0  0  0  0
   -8.6200   20.7350  -32.3000 C   0  0  0  0  0  0  0  0  0  0  0  0
   -7.3690   20.1020  -32.5100 C   0  0  0  0  0  0  0  0  0  0  0  0
   -7.3130   18.6890  -33.0370 C   0  0  0  0  0  0  0  0  0  0  0  0
   -5.9060   18.2870  -33.5290 C   0  0  1  0  0  0  0  0  0  0  0  0
   -5.3370   19.3170  -34.2940 O   0  0  0  0  0  0  0  0  0  0  0  0
   -4.9690   17.9340  -32.3640 C   0  0  0  0  0  0  0  0  0  0  0  0
   -3.8390   18.7630  -32.3780 O   0  0  0  0  0  0  0  0  0  0  0  0
   -6.1740   20.7870  -32.1970 C   0  0  0  0  0  0  0  0  0  0  0  0
   -6.2670   22.0920  -31.6960 C   0  0  0  0  0  0  0  0  0  0  0  0
   -5.2680   22.9170  -31.3140 N   0  0  0  0  0  0  0  0  0  0  0  0
   -3.8640   22.6120  -31.3300 C   0  0  0  0  0  0  0  0  0  0  0  0
   -3.0930   23.1380  -30.4800 O   0  0  0  0  0  0  0  0  0  0  0  0
   -3.3610   21.7110  -32.2730 O   0  0  0  0  0  0  0  0  0  0  0  0
   -1.9710   21.4430  -32.4180 C   0  0  0  0  0  0  0  0  0  0  0  0
   -1.7430   20.5610  -33.6370 C   0  0  0  0  0  0  0  0  0  0  0  0
   -2.9720   20.2360  -34.2250 O   0  0  0  0  0  0  0  0  0  0  0  0
   -3.0430   25.2970  -30.2670 H   0  0  0  0  0  0  0  0  0  0  0  0
   -8.0163   24.6746  -30.6556 H   0  0  0  0  0  0  0  0  0  0  0  0
   -9.6501   22.5340  -31.6109 H   0  0  0  0  0  0  0  0  0  0  0  0
   -9.5495   20.2009  -32.5465 H   0  0  0  0  0  0  0  0  0  0  0  0
   -7.6130   18.0020  -32.2320 H   0  0  0  0  0  0  0  0  0  0  0  0
   -7.9935   18.6309  -33.8993 H   0  0  0  0  0  0  0  0  0  0  0  0
   -6.0280   17.3897  -34.1535 H   0  0  0  0  0  0  0  0  0  0  0  0
   -4.3510   19.2050  -34.2390 H   0  0  0  0  0  0  0  0  0  0  0  0
   -5.5058   18.0688  -31.4134 H   0  0  0  0  0  0  0  0  0  0  0  0
   -4.6457   16.8880  -32.4702 H   0  0  0  0  0  0  0  0  0  0  0  0
   -4.1670   19.6910  -32.5150 H   0  0  0  0  0  0  0  0  0  0  0  0
   -5.1947   20.3077  -32.3430 H   0  0  0  0  0  0  0  0  0  0  0  0
   -1.4273   22.3907  -32.5455 H   0  0  0  0  0  0  0  0  0  0  0  0
   -1.6043   20.9247  -31.5197 H   0  0  0  0  0  0  0  0  0  0  0  0
   -1.1206   21.1001  -34.3664 H   0  0  0  0  0  0  0  0  0  0  0  0
   -1.2339   19.6368  -33.3261 H   0  0  0  0  0  0  0  0  0  0  0  0
   -3.6700   20.5470  -33.5910 H   0  0  0  0  0  0  0  0  0  0  0  0
  1  2  1  0
  2  3  2  0
  2  4  1  0
  4  5  2  0
  5  6  1  0
  6  7  2  0
  7  8  1  0
  8  9  2  0
  9 10  1  0
 10 11  1  0
 11 12  1  0
 11 13  1  0
 13 14  1  0
  9 15  1  0
 15 16  2  0
 16 17  1  0
 17 18  1  0
 18 19  2  0
 18 20  1  0
 20 21  1  0
 21 22  1  0
 22 23  1  0
 17  4  1  0
 16  6  1  0
  1 24  1  0
  5 25  1  0
  7 26  1  0
  8 27  1  0
 10 28  1  0
 10 29  1  0
 11 30  1  6
 12 31  1  0
 13 32  1  0
 13 33  1  0
 14 34  1  0
 15 35  1  0
 21 36  1  0
 21 37  1  0
 22 38  1  0
 22 39  1  0
 23 40  1  0
M  CHG  1   1  -1
M  END
>  <UniqueID>  (14) 
14

>  <SMILES>  (14) 
[NH-]C(=O)c1cc2ccc(C[C@@H](O)CO)cc2n1C(=O)OCCO

>  <Energy>  (14) 
70.01312676533507

>  <Genealogy>  (14) 
[NH-]C(=O)c1cc2ccc(C[C@@H](O)CO)cc2n1C(=O)OCCO (protonated)
[NH-]C(=O)c1cc2ccc(C[C@@H](O)CO)cc2n1C(=O)OCCO (3D coordinates assigned)
[NH-]C(=O)c1cc2ccc(C[C@@H](O)CO)cc2n1C(=O)OCCO (optimized conformer: 70.01312676533507 kcal/mol)

>  <smiles>  (14) 
NC(=O)c1cc2ccc(C[C@@H](O)CO)cc2n1C(=O)OCCO

>  <score_type>  (14) 
oracle

>  <origin>  (14) 
adg

>  <m_score__min__energy>  (14) 
-9.9600000000000009

>  <m_primary>  (14) 
energy

$$$$
14:0
     RDKit          3D

 37 38  0  0  0  0  0  0  0  0999 V2000
   -3.6410   22.4220  -28.4770 C   0  0  0  0  0  0  0  0  0  0  0  0
   -3.0800   22.9970  -29.7170 N   0  0  1  0  0  0  0  0  0  0  0  0
   -1.5960   22.9500  -29.7650 C   0  0  0  0  0  0  0  0  0  0  0  0
   -0.8690   24.2210  -29.2800 C   0  0  0  0  0  0  0  0  0  0  0  0
   -1.7820   25.2510  -29.0110 O   0  0  0  0  0  0  0  0  0  0  0  0
   -3.6800   22.4250  -30.9060 C   0  0  0  0  0  0  0  0  0  0  0  0
   -2.9740   21.8180  -31.7590 O   0  0  0  0  0  0  0  0  0  0  0  0
   -5.0810   22.6180  -31.1710 N   0  0  0  0  0  0  0  0  0  0  0  0
   -5.7810   23.7880  -31.1930 C   0  0  0  0  0  0  0  0  0  0  0  0
   -5.2860   25.1020  -30.7390 C   0  0  0  0  0  0  0  0  0  0  0  0
   -3.8880   25.3510  -30.6170 N   0  0  0  0  0  0  0  0  0  0  0  0
   -6.1080   25.9990  -30.4040 O   0  0  0  0  0  0  0  0  0  0  0  0
   -7.0960   23.5590  -31.5950 C   0  0  0  0  0  0  0  0  0  0  0  0
   -7.1850   22.2020  -31.8040 C   0  0  0  0  0  0  0  0  0  0  0  0
   -8.2620   21.4270  -32.2220 C   0  0  0  0  0  0  0  0  0  0  0  0
   -8.0610   20.0440  -32.3680 C   0  0  0  0  0  0  0  0  0  0  0  0
   -6.7990   19.4590  -32.0830 C   0  0  0  0  0  0  0  0  0  0  0  0
   -6.5710   17.9850  -32.2980 C   0  0  0  0  0  0  0  0  0  0  0  0
   -7.7620   17.3890  -32.6680 F   0  0  0  0  0  0  0  0  0  0  0  0
   -5.6360   17.7830  -33.2990 F   0  0  0  0  0  0  0  0  0  0  0  0
   -6.1050   17.3810  -31.1420 F   0  0  0  0  0  0  0  0  0  0  0  0
   -5.7270   20.2830  -31.6730 C   0  0  0  0  0  0  0  0  0  0  0  0
   -5.9570   21.6570  -31.5370 C   0  0  0  0  0  0  0  0  0  0  0  0
   -3.1724   22.9023  -27.6054 H   0  0  0  0  0  0  0  0  0  0  0  0
   -4.7270   22.5950  -28.4512 H   0  0  0  0  0  0  0  0  0  0  0  0
   -3.4413   21.3406  -28.4512 H   0  0  0  0  0  0  0  0  0  0  0  0
   -3.3360   24.0120  -29.7070 H   0  0  0  0  0  0  0  0  0  0  0  0
   -1.2642   22.1105  -29.1363 H   0  0  0  0  0  0  0  0  0  0  0  0
   -1.3343   22.8429  -30.8280 H   0  0  0  0  0  0  0  0  0  0  0  0
   -0.3098   23.9873  -28.3620 H   0  0  0  0  0  0  0  0  0  0  0  0
   -0.1850   24.5575  -30.0731 H   0  0  0  0  0  0  0  0  0  0  0  0
   -2.0180   25.6770  -29.8750 H   0  0  0  0  0  0  0  0  0  0  0  0
   -3.4750   25.6710  -29.7140 H   0  0  0  0  0  0  0  0  0  0  0  0
   -7.8942   24.3057  -31.7190 H   0  0  0  0  0  0  0  0  0  0  0  0
   -9.2409   21.8829  -32.4318 H   0  0  0  0  0  0  0  0  0  0  0  0
   -8.8912   19.4070  -32.7071 H   0  0  0  0  0  0  0  0  0  0  0  0
   -4.7352   19.8549  -31.4656 H   0  0  0  0  0  0  0  0  0  0  0  0
  1  2  1  0
  2  3  1  0
  3  4  1  0
  4  5  1  0
  2  6  1  0
  6  7  2  0
  6  8  1  0
  8  9  1  0
  9 10  1  0
 10 11  1  0
 10 12  2  0
  9 13  2  0
 13 14  1  0
 14 15  2  0
 15 16  1  0
 16 17  2  0
 17 18  1  0
 18 19  1  0
 18 20  1  0
 18 21  1  0
 17 22  1  0
 22 23  2  0
 23  8  1  0
 23 14  1  0
  1 24  1  0
  1 25  1  0
  1 26  1  0
  2 27  1  1
  3 28  1  0
  3 29  1  0
  4 30  1  0
  4 31  1  0
  5 32  1  0
 11 33  1  0
 13 34  1  0
 15 35  1  0
 16 36  1  0
 22 37  1  0
M  CHG  2   2   1  11  -1
M  END
>  <UniqueID>  (15) 
15

>  <SMILES>  (15) 
C[N@@H+](CCO)C(=O)n1c(C([NH-])=O)cc2ccc(C(F)(F)F)cc21

>  <Energy>  (15) 
82.8818966587411

>  <Genealogy>  (15) 
C[NH+](CCO)C(=O)n1c(C([NH-])=O)cc2ccc(C(F)(F)F)cc21 (protonated)
C[N@@H+](CCO)C(=O)n1c(C([NH-])=O)cc2ccc(C(F)(F)F)cc21 (chirality)
C[N@@H+](CCO)C(=O)n1c(C([NH-])=O)cc2ccc(C(F)(F)F)cc21 (3D coordinates assigned)
C[N@@H+](CCO)C(=O)n1c(C([NH-])=O)cc2ccc(C(F)(F)F)cc21 (optimized conformer: 82.8818966587411 kcal/mol)

>  <smiles>  (15) 
CN(CCO)C(=O)n1c(C(N)=O)cc2ccc(C(F)(F)F)cc21

>  <score_type>  (15) 
oracle

>  <origin>  (15) 
adg

>  <m_score__min__energy>  (15) 
-8.8900000000000006

>  <m_primary>  (15) 
energy

$$$$
15:0
     RDKit          3D

 45 46  0  0  0  0  0  0  0  0999 V2000
   -4.6530   17.7980  -34.8730 C   0  0  0  0  0  0  0  0  0  0  0  0
   -6.0070   17.9050  -34.4950 O   0  0  0  0  0  0  0  0  0  0  0  0
   -6.3380   16.8940  -33.5610 C   0  0  0  0  0  0  0  0  0  0  0  0
   -7.0140   17.4960  -32.3570 C   0  0  0  0  0  0  0  0  0  0  0  0
   -6.4900   17.3760  -31.2590 O   0  0  0  0  0  0  0  0  0  0  0  0
   -8.3330   18.2130  -32.4740 C   0  0  0  0  0  0  0  0  0  0  0  0
   -8.1730   19.6710  -32.1420 C   0  0  0  0  0  0  0  0  0  0  0  0
   -9.2980   20.5320  -32.1610 C   0  0  0  0  0  0  0  0  0  0  0  0
   -9.1640   21.8910  -31.8310 C   0  0  0  0  0  0  0  0  0  0  0  0
   -7.9000   22.3550  -31.4760 C   0  0  0  0  0  0  0  0  0  0  0  0
   -7.4900   23.6200  -31.1260 C   0  0  0  0  0  0  0  0  0  0  0  0
   -6.1250   23.5090  -30.8710 C   0  0  0  0  0  0  0  0  0  0  0  0
   -5.2910   24.6210  -30.3630 C   0  0  0  0  0  0  0  0  0  0  0  0
   -5.2220   24.9000  -28.9640 N   0  0  0  0  0  0  0  0  0  0  0  0
   -4.6050   25.3130  -31.1610 O   0  0  0  0  0  0  0  0  0  0  0  0
   -5.7050   22.2250  -31.0620 N   0  0  0  0  0  0  0  0  0  0  0  0
   -4.3630   21.7170  -30.9550 C   0  0  0  0  0  0  0  0  0  0  0  0
   -4.1060   20.5390  -31.3270 O   0  0  0  0  0  0  0  0  0  0  0  0
   -3.3450   22.5280  -30.4420 O   0  0  0  0  0  0  0  0  0  0  0  0
   -2.4500   22.0780  -29.4260 C   0  0  0  0  0  0  0  0  0  0  0  0
   -2.4770   23.0360  -28.2330 C   0  0  0  0  0  0  0  0  0  0  0  0
   -1.7880   24.3730  -28.5270 C   0  0  0  0  0  0  0  0  0  0  0  0
   -2.5840   25.1760  -29.3560 O   0  0  0  0  0  0  0  0  0  0  0  0
   -6.8050   21.5310  -31.4300 C   0  0  0  0  0  0  0  0  0  0  0  0
   -6.9070   20.1790  -31.7730 C   0  0  0  0  0  0  0  0  0  0  0  0
   -4.0237   17.7483  -33.9722 H   0  0  0  0  0  0  0  0  0  0  0  0
   -4.5102   16.8858  -35.4709 H   0  0  0  0  0  0  0  0  0  0  0  0
   -4.3687   18.6765  -35.4709 H   0  0  0  0  0  0  0  0  0  0  0  0
   -7.0177   16.1705  -34.0349 H   0  0  0  0  0  0  0  0  0  0  0  0
   -5.4156   16.3889  -33.2384 H   0  0  0  0  0  0  0  0  0  0  0  0
   -8.7076   18.1155  -33.5036 H   0  0  0  0  0  0  0  0  0  0  0  0
   -9.0453   17.7638  -31.7663 H   0  0  0  0  0  0  0  0  0  0  0  0
  -10.2853   20.1328  -32.4366 H   0  0  0  0  0  0  0  0  0  0  0  0
  -10.0309   22.5677  -31.8524 H   0  0  0  0  0  0  0  0  0  0  0  0
   -8.1087   24.5272  -31.0611 H   0  0  0  0  0  0  0  0  0  0  0  0
   -5.8150   24.3830  -28.2780 H   0  0  0  0  0  0  0  0  0  0  0  0
   -4.5990   25.6610  -28.6120 H   0  0  0  0  0  0  0  0  0  0  0  0
   -2.7540   21.0747  -29.0928 H   0  0  0  0  0  0  0  0  0  0  0  0
   -1.4298   22.0455  -29.8362 H   0  0  0  0  0  0  0  0  0  0  0  0
   -3.5254   23.2328  -27.9644 H   0  0  0  0  0  0  0  0  0  0  0  0
   -1.9275   22.5549  -27.4104 H   0  0  0  0  0  0  0  0  0  0  0  0
   -1.6084   24.9014  -27.5791 H   0  0  0  0  0  0  0  0  0  0  0  0
   -0.8370   24.1718  -29.0418 H   0  0  0  0  0  0  0  0  0  0  0  0
   -2.8650   24.6090  -30.1210 H   0  0  0  0  0  0  0  0  0  0  0  0
   -6.0220   19.5260  -31.7559 H   0  0  0  0  0  0  0  0  0  0  0  0
  1  2  1  0
  2  3  1  0
  3  4  1  0
  4  5  2  0
  4  6  1  0
  6  7  1  0
  7  8  2  0
  8  9  1  0
  9 10  2  0
 10 11  1  0
 11 12  2  0
 12 13  1  0
 13 14  1  0
 13 15  2  0
 12 16  1  0
 16 17  1  0
 17 18  2  0
 17 19  1  0
 19 20  1  0
 20 21  1  0
 21 22  1  0
 22 23  1  0
 16 24  1  0
 24 25  2  0
 25  7  1  0
 24 10  1  0
  1 26  1  0
  1 27  1  0
  1 28  1  0
  3 29  1  0
  3 30  1  0
  6 31  1  0
  6 32  1  0
  8 33  1  0
  9 34  1  0
 11 35  1  0
 14 36  1  0
 14 37  1  0
 20 38  1  0
 20 39  1  0
 21 40  1  0
 21 41  1  0
 22 42  1  0
 22 43  1  0
 23 44  1  0
 25 45  1  0
M  END
>  <UniqueID>  (16) 
16

>  <SMILES>  (16) 
COCC(=O)Cc1ccc2cc(C(N)=O)n(C(=O)OCCCO)c2c1

>  <Energy>  (16) 
73.78335234582953

>  <Genealogy>  (16) 
COCC(=O)Cc1ccc2cc(C(N)=O)n(C(=O)OCCCO)c2c1 (3D coordinates assigned)
COCC(=O)Cc1ccc2cc(C(N)=O)n(C(=O)OCCCO)c2c1 (optimized conformer: 73.78335234582953 kcal/mol)

>  <smiles>  (16) 
COCC(=O)Cc1ccc2cc(C(N)=O)n(C(=O)OCCCO)c2c1

>  <score_type>  (16) 
oracle

>  <origin>  (16) 
adg

>  <m_score__min__energy>  (16) 
-8.5600000000000005

>  <m_primary>  (16) 
energy

$$$$
16:0
     RDKit          3D

 34 36  0  0  0  0  0  0  0  0999 V2000
   -3.3620   20.7110  -33.0490 C   0  0  0  0  0  0  0  0  0  0  0  0
   -3.4460   21.9740  -32.6340 C   0  0  0  0  0  0  0  0  0  0  0  0
   -4.1070   22.3570  -31.3720 C   0  0  0  0  0  0  0  0  0  0  0  0
   -3.4420   22.3330  -30.3030 O   0  0  0  0  0  0  0  0  0  0  0  0
   -5.4950   22.7250  -31.3290 N   0  0  0  0  0  0  0  0  0  0  0  0
   -6.0360   23.9270  -30.9830 C   0  0  0  0  0  0  0  0  0  0  0  0
   -5.2820   25.1060  -30.5110 C   0  0  0  0  0  0  0  0  0  0  0  0
   -3.8830   25.2050  -30.7690 N   0  0  0  0  0  0  0  0  0  0  0  0
   -5.8630   26.0390  -29.8950 O   0  0  0  0  0  0  0  0  0  0  0  0
   -7.4260   23.8790  -31.0800 C   0  0  0  0  0  0  0  0  0  0  0  0
   -7.7190   22.5960  -31.4890 C   0  0  0  0  0  0  0  0  0  0  0  0
   -8.9480   21.9900  -31.7360 C   0  0  0  0  0  0  0  0  0  0  0  0
   -8.9480   20.6460  -32.1460 C   0  0  0  0  0  0  0  0  0  0  0  0
   -7.7290   19.9420  -32.3140 C   0  0  0  0  0  0  0  0  0  0  0  0
   -7.7430   18.4940  -32.7130 C   0  0  0  0  0  0  0  0  0  0  0  0
   -6.5150   18.1650  -33.4270 N   0  0  0  0  0  0  0  0  0  0  0  0
   -5.6620   17.1660  -33.1450 C   0  0  0  0  0  0  0  0  0  0  0  0
   -4.6990   17.1900  -34.1280 C   0  0  0  0  0  0  0  0  0  0  0  0
   -4.9980   18.1920  -34.9800 N   0  0  0  0  0  0  0  0  0  0  0  0
   -6.1090   18.7630  -34.5350 N   0  0  0  0  0  0  0  0  0  0  0  0
   -6.5020   20.5860  -32.0410 C   0  0  0  0  0  0  0  0  0  0  0  0
   -6.5350   21.9210  -31.6270 C   0  0  0  0  0  0  0  0  0  0  0  0
   -2.8584   20.4764  -33.9984 H   0  0  0  0  0  0  0  0  0  0  0  0
   -3.7962   19.9027  -32.4423 H   0  0  0  0  0  0  0  0  0  0  0  0
   -3.0040   22.7644  -33.2584 H   0  0  0  0  0  0  0  0  0  0  0  0
   -3.4810   26.0480  -31.2360 H   0  0  0  0  0  0  0  0  0  0  0  0
   -8.1375   24.6922  -30.8739 H   0  0  0  0  0  0  0  0  0  0  0  0
   -9.8893   22.5459  -31.6140 H   0  0  0  0  0  0  0  0  0  0  0  0
   -9.9030   20.1352  -32.3385 H   0  0  0  0  0  0  0  0  0  0  0  0
   -7.8200   17.8679  -31.8118 H   0  0  0  0  0  0  0  0  0  0  0  0
   -8.6054   18.3073  -33.3698 H   0  0  0  0  0  0  0  0  0  0  0  0
   -5.7215   16.4678  -32.2971 H   0  0  0  0  0  0  0  0  0  0  0  0
   -3.8369   16.5112  -34.2053 H   0  0  0  0  0  0  0  0  0  0  0  0
   -5.5467   20.0519  -32.1511 H   0  0  0  0  0  0  0  0  0  0  0  0
  1  2  2  0
  2  3  1  0
  3  4  2  0
  3  5  1  0
  5  6  1  0
  6  7  1  0
  7  8  1  0
  7  9  2  0
  6 10  2  0
 10 11  1  0
 11 12  2  0
 12 13  1  0
 13 14  2  0
 14 15  1  0
 15 16  1  0
 16 17  1  0
 17 18  2  0
 18 19  1  0
 19 20  2  0
 14 21  1  0
 21 22  2  0
 22  5  1  0
 22 11  1  0
 20 16  1  0
  1 23  1  0
  1 24  1  0
  2 25  1  0
  8 26  1  0
 10 27  1  0
 12 28  1  0
 13 29  1  0
 15 30  1  0
 15 31  1  0
 17 32  1  0
 18 33  1  0
 21 34  1  0
M  CHG  1   8  -1
M  END
>  <UniqueID>  (17) 
17

>  <SMILES>  (17) 
C=CC(=O)n1c(C([NH-])=O)cc2ccc(Cn3ccnn3)cc21

>  <Energy>  (17) 
107.61328845634563

>  <Genealogy>  (17) 
C=CC(=O)n1c(C([NH-])=O)cc2ccc(Cn3ccnn3)cc21 (protonated)
C=CC(=O)n1c(C([NH-])=O)cc2ccc(Cn3ccnn3)cc21 (3D coordinates assigned)
C=CC(=O)n1c(C([NH-])=O)cc2ccc(Cn3ccnn3)cc21 (optimized conformer: 107.61328845634563 kcal/mol)

>  <smiles>  (17) 
C=CC(=O)n1c(C(N)=O)cc2ccc(Cn3ccnn3)cc21

>  <score_type>  (17) 
oracle

>  <origin>  (17) 
adg

>  <m_score__min__energy>  (17) 
-10.94

>  <m_primary>  (17) 
energy

$$$$
17:0
     RDKit          3D

 46 48  0  0  0  0  0  0  0  0999 V2000
   -3.9220   25.6680  -30.8290 N   0  0  0  0  0  0  0  0  0  0  0  0
   -5.1980   25.1550  -30.4540 C   0  0  0  0  0  0  0  0  0  0  0  0
   -5.9760   25.8750  -29.7750 O   0  0  0  0  0  0  0  0  0  0  0  0
   -5.6330   23.8080  -30.8840 C   0  0  0  0  0  0  0  0  0  0  0  0
   -6.9650   23.4690  -31.1230 C   0  0  0  0  0  0  0  0  0  0  0  0
   -6.9330   22.1700  -31.5810 C   0  0  0  0  0  0  0  0  0  0  0  0
   -7.9720   21.3300  -31.9710 C   0  0  0  0  0  0  0  0  0  0  0  0
   -7.6450   20.0290  -32.3890 C   0  0  0  0  0  0  0  0  0  0  0  0
   -6.2950   19.5880  -32.4030 C   0  0  0  0  0  0  0  0  0  0  0  0
   -5.9590   18.2140  -32.8460 C   0  0  0  0  0  0  0  0  0  0  0  0
   -5.7360   17.2050  -31.8940 C   0  0  0  0  0  0  0  0  0  0  0  0
   -5.4130   15.9060  -32.2960 C   0  0  0  0  0  0  0  0  0  0  0  0
   -5.3110   15.5870  -33.6590 C   0  0  0  0  0  0  0  0  0  0  0  0
   -4.9690   14.2100  -34.0810 C   0  0  0  0  0  0  0  0  0  0  0  0
   -3.7900   13.7810  -33.9730 O   0  0  0  0  0  0  0  0  0  0  0  0
   -5.9470   13.3710  -34.6040 O   0  0  0  0  0  0  0  0  0  0  0  0
   -5.5400   16.5930  -34.6130 C   0  0  0  0  0  0  0  0  0  0  0  0
   -5.8620   17.8940  -34.2140 C   0  0  0  0  0  0  0  0  0  0  0  0
   -6.1160   18.8290  -35.1640 F   0  0  0  0  0  0  0  0  0  0  0  0
   -5.2680   20.4760  -32.0050 C   0  0  0  0  0  0  0  0  0  0  0  0
   -5.6240   21.7670  -31.6050 C   0  0  0  0  0  0  0  0  0  0  0  0
   -4.8160   22.7580  -31.1730 N   0  0  0  0  0  0  0  0  0  0  0  0
   -3.3920   22.6700  -31.0090 C   0  0  0  0  0  0  0  0  0  0  0  0
   -2.6510   22.5920  -32.0260 O   0  0  0  0  0  0  0  0  0  0  0  0
   -2.7880   22.6370  -29.6700 C   0  0  0  0  0  0  0  0  0  0  0  0
   -2.3270   23.6940  -29.1620 O   0  0  0  0  0  0  0  0  0  0  0  0
   -2.7350   21.4260  -28.9700 O   0  0  0  0  0  0  0  0  0  0  0  0
   -3.0050   21.3160  -27.5730 C   0  0  0  0  0  0  0  0  0  0  0  0
   -2.3960   20.0340  -26.9910 C   0  0  0  0  0  0  0  0  0  0  0  0
   -3.4610   18.9720  -26.7140 C   0  0  0  0  0  0  0  0  0  0  0  0
   -3.3970   18.5880  -25.3690 O   0  0  0  0  0  0  0  0  0  0  0  0
   -3.0440   25.2870  -30.4100 H   0  0  0  0  0  0  0  0  0  0  0  0
   -7.8516   24.1035  -30.9769 H   0  0  0  0  0  0  0  0  0  0  0  0
   -9.0167   21.6740  -31.9526 H   0  0  0  0  0  0  0  0  0  0  0  0
   -8.4439   19.3440  -32.7091 H   0  0  0  0  0  0  0  0  0  0  0  0
   -5.8164   17.4396  -30.8223 H   0  0  0  0  0  0  0  0  0  0  0  0
   -5.2374   15.1279  -31.5386 H   0  0  0  0  0  0  0  0  0  0  0  0
   -5.4652   16.3547  -35.6843 H   0  0  0  0  0  0  0  0  0  0  0  0
   -4.2150   20.1581  -32.0102 H   0  0  0  0  0  0  0  0  0  0  0  0
   -2.5746   22.1855  -27.0546 H   0  0  0  0  0  0  0  0  0  0  0  0
   -4.0951   21.2806  -27.4300 H   0  0  0  0  0  0  0  0  0  0  0  0
   -1.6676   19.6286  -27.7087 H   0  0  0  0  0  0  0  0  0  0  0  0
   -1.9122   20.2890  -26.0366 H   0  0  0  0  0  0  0  0  0  0  0  0
   -4.4569   19.3860  -26.9303 H   0  0  0  0  0  0  0  0  0  0  0  0
   -3.2815   18.0961  -27.3548 H   0  0  0  0  0  0  0  0  0  0  0  0
   -4.2740   18.8300  -24.9730 H   0  0  0  0  0  0  0  0  0  0  0  0
  1  2  1  0
  2  3  2  0
  2  4  1  0
  4  5  2  0
  5  6  1  0
  6  7  2  0
  7  8  1  0
  8  9  2  0
  9 10  1  0
 10 11  2  0
 11 12  1  0
 12 13  2  0
 13 14  1  0
 14 15  2  0
 14 16  1  0
 13 17  1  0
 17 18  2  0
 18 19  1  0
  9 20  1  0
 20 21  2  0
 21 22  1  0
 22 23  1  0
 23 24  2  0
 23 25  1  0
 25 26  2  0
 25 27  1  0
 27 28  1  0
 28 29  1  0
 29 30  1  0
 30 31  1  0
 22  4  1  0
 21  6  1  0
 18 10  1  0
  1 32  1  0
  5 33  1  0
  7 34  1  0
  8 35  1  0
 11 36  1  0
 12 37  1  0
 17 38  1  0
 20 39  1  0
 28 40  1  0
 28 41  1  0
 29 42  1  0
 29 43  1  0
 30 44  1  0
 30 45  1  0
 31 46  1  0
M  CHG  2   1  -1  16  -1
M  END
>  <UniqueID>  (18) 
18

>  <SMILES>  (18) 
[NH-]C(=O)c1cc2ccc(-c3ccc(C(=O)[O-])cc3F)cc2n1C(=O)C(=O)OCCCO

>  <Energy>  (18) 
88.07048759826557

>  <Genealogy>  (18) 
[NH-]C(=O)c1cc2ccc(-c3ccc(C(=O)[O-])cc3F)cc2n1C(=O)C(=O)OCCCO (protonated)
[NH-]C(=O)c1cc2ccc(-c3ccc(C(=O)[O-])cc3F)cc2n1C(=O)C(=O)OCCCO (3D coordinates assigned)
[NH-]C(=O)c1cc2ccc(-c3ccc(C(=O)[O-])cc3F)cc2n1C(=O)C(=O)OCCCO (optimized conformer: 88.07048759826557 kcal/mol)

>  <smiles>  (18) 
NC(=O)c1cc2ccc(-c3ccc(C(=O)O)cc3F)cc2n1C(=O)C(=O)OCCCO

>  <score_type>  (18) 
oracle

>  <origin>  (18) 
adg

>  <m_score__min__energy>  (18) 
-10.699999999999999

>  <m_primary>  (18) 
energy

$$$$
18:0
     RDKit          3D

 41 43  0  0  0  0  0  0  0  0999 V2000
   -4.0400   25.6780  -30.8410 N   0  0  0  0  0  0  0  0  0  0  0  0
   -5.2000   25.0330  -30.3210 C   0  0  0  0  0  0  0  0  0  0  0  0
   -5.8040   25.5450  -29.3420 O   0  0  0  0  0  0  0  0  0  0  0  0
   -5.6530   23.7530  -30.9050 C   0  0  0  0  0  0  0  0  0  0  0  0
   -6.9960   23.4190  -31.0710 C   0  0  0  0  0  0  0  0  0  0  0  0
   -6.9920   22.2050  -31.7190 C   0  0  0  0  0  0  0  0  0  0  0  0
   -8.0550   21.4050  -32.1230 C   0  0  0  0  0  0  0  0  0  0  0  0
   -7.7590   20.1820  -32.7490 C   0  0  0  0  0  0  0  0  0  0  0  0
   -6.4140   19.7790  -32.9520 C   0  0  0  0  0  0  0  0  0  0  0  0
   -6.1150   18.4860  -33.5990 C   0  0  0  0  0  0  0  0  0  0  0  0
   -5.4250   18.3490  -34.7520 N   0  0  0  0  0  0  0  0  0  0  0  0
   -5.3780   17.0460  -34.9730 N   0  0  0  0  0  0  0  0  0  0  0  0
   -6.0220   16.4250  -34.0000 N   0  0  0  0  0  0  0  0  0  0  0  0
   -6.1270   14.9770  -33.8760 C   0  0  0  0  0  0  0  0  0  0  0  0
   -4.9330   14.4280  -33.0950 C   0  0  0  0  0  0  0  0  0  0  0  0
   -4.0810   15.4730  -32.7130 O   0  0  0  0  0  0  0  0  0  0  0  0
   -6.4900   17.2850  -33.1120 N   0  0  0  0  0  0  0  0  0  0  0  0
   -5.3610   20.6210  -32.5250 C   0  0  0  0  0  0  0  0  0  0  0  0
   -5.6860   21.8410  -31.9210 C   0  0  0  0  0  0  0  0  0  0  0  0
   -4.8500   22.7810  -31.4240 N   0  0  0  0  0  0  0  0  0  0  0  0
   -3.4160   22.7150  -31.3850 C   0  0  0  0  0  0  0  0  0  0  0  0
   -2.8080   21.8280  -32.0430 O   0  0  0  0  0  0  0  0  0  0  0  0
   -2.7000   23.6230  -30.5990 O   0  0  0  0  0  0  0  0  0  0  0  0
   -2.2430   23.3120  -29.2870 C   0  0  0  0  0  0  0  0  0  0  0  0
   -2.2110   24.5830  -28.4460 C   0  0  0  0  0  0  0  0  0  0  0  0
   -1.5810   25.6180  -29.1510 O   0  0  0  0  0  0  0  0  0  0  0  0
   -3.0840   25.3060  -30.6420 H   0  0  0  0  0  0  0  0  0  0  0  0
   -7.8726   24.0018  -30.7519 H   0  0  0  0  0  0  0  0  0  0  0  0
   -9.0960   21.7197  -31.9577 H   0  0  0  0  0  0  0  0  0  0  0  0
   -8.5789   19.5303  -33.0851 H   0  0  0  0  0  0  0  0  0  0  0  0
   -7.0564   14.7239  -33.3449 H   0  0  0  0  0  0  0  0  0  0  0  0
   -6.1360   14.5296  -34.8809 H   0  0  0  0  0  0  0  0  0  0  0  0
   -5.2953   13.9079  -32.1960 H   0  0  0  0  0  0  0  0  0  0  0  0
   -4.3767   13.7283  -33.7360 H   0  0  0  0  0  0  0  0  0  0  0  0
   -4.4670   16.3070  -33.0880 H   0  0  0  0  0  0  0  0  0  0  0  0
   -4.3111   20.3240  -32.6643 H   0  0  0  0  0  0  0  0  0  0  0  0
   -2.9247   22.5832  -28.8243 H   0  0  0  0  0  0  0  0  0  0  0  0
   -1.2314   22.8835  -29.3428 H   0  0  0  0  0  0  0  0  0  0  0  0
   -3.2410   24.8837  -28.2037 H   0  0  0  0  0  0  0  0  0  0  0  0
   -1.6483   24.3859  -27.5216 H   0  0  0  0  0  0  0  0  0  0  0  0
   -2.0260   25.6710  -30.0360 H   0  0  0  0  0  0  0  0  0  0  0  0
  1  2  1  0
  2  3  2  0
  2  4  1  0
  4  5  2  0
  5  6  1  0
  6  7  2  0
  7  8  1  0
  8  9  2  0
  9 10  1  0
 10 11  1  0
 11 12  2  0
 12 13  1  0
 13 14  1  0
 14 15  1  0
 15 16  1  0
 13 17  1  0
  9 18  1  0
 18 19  2  0
 19 20  1  0
 20 21  1  0
 21 22  2  0
 21 23  1  0
 23 24  1  0
 24 25  1  0
 25 26  1  0
 20  4  1  0
 19  6  1  0
 17 10  2  0
  1 27  1  0
  5 28  1  0
  7 29  1  0
  8 30  1  0
 14 31  1  0
 14 32  1  0
 15 33  1  0
 15 34  1  0
 16 35  1  0
 18 36  1  0
 24 37  1  0
 24 38  1  0
 25 39  1  0
 25 40  1  0
 26 41  1  0
M  CHG  1   1  -1
M  END
>  <UniqueID>  (19) 
19

>  <SMILES>  (19) 
[NH-]C(=O)c1cc2ccc(-c3nnn(CCO)n3)cc2n1C(=O)OCCO

>  <Energy>  (19) 
112.47294717889271

>  <Genealogy>  (19) 
[NH-]C(=O)c1cc2ccc(-c3nnn(CCO)n3)cc2n1C(=O)OCCO (protonated)
[NH-]C(=O)c1cc2ccc(-c3nnn(CCO)n3)cc2n1C(=O)OCCO (3D coordinates assigned)
[NH-]C(=O)c1cc2ccc(-c3nnn(CCO)n3)cc2n1C(=O)OCCO (optimized conformer: 112.47294717889271 kcal/mol)

>  <smiles>  (19) 
NC(=O)c1cc2ccc(-c3nnn(CCO)n3)cc2n1C(=O)OCCO

>  <score_type>  (19) 
oracle

>  <origin>  (19) 
adg

>  <m_score__min__energy>  (19) 
-10.58

>  <m_primary>  (19) 
energy

$$$$
19:0
     RDKit          3D

 35 37  0  0  0  0  0  0  0  0999 V2000
   -4.9570   16.3230  -33.8850 N   0  0  0  0  0  0  0  0  0  0  0  0
   -6.3060   16.7330  -33.6530 C   0  0  0  0  0  0  0  0  0  0  0  0
   -7.2330   15.8990  -33.8210 O   0  0  0  0  0  0  0  0  0  0  0  0
   -6.6340   18.0930  -33.1700 C   0  0  0  0  0  0  0  0  0  0  0  0
   -7.8910   18.4550  -32.6840 C   0  0  0  0  0  0  0  0  0  0  0  0
   -7.7850   19.7920  -32.3610 C   0  0  0  0  0  0  0  0  0  0  0  0
   -8.7390   20.6720  -31.8590 C   0  0  0  0  0  0  0  0  0  0  0  0
   -8.3670   22.0160  -31.6830 C   0  0  0  0  0  0  0  0  0  0  0  0
   -7.0590   22.4520  -32.0080 C   0  0  0  0  0  0  0  0  0  0  0  0
   -6.6750   23.8990  -31.8340 C   0  0  0  0  0  0  0  0  0  0  0  0
   -6.0560   24.1800  -30.4590 C   0  0  1  0  0  0  0  0  0  0  0  0
   -4.9270   22.7990  -30.0210 S   0  0  0  0  0  0  0  0  0  0  0  0
   -3.5270   23.8620  -30.3380 C   0  0  0  0  0  0  0  0  0  0  0  0
   -2.3580   23.4170  -30.4670 O   0  0  0  0  0  0  0  0  0  0  0  0
   -3.8150   25.2390  -30.4680 N   0  0  0  0  0  0  0  0  0  0  0  0
   -5.2160   25.4270  -30.4670 C   0  0  0  0  0  0  0  0  0  0  0  0
   -5.7170   26.5820  -30.4620 O   0  0  0  0  0  0  0  0  0  0  0  0
   -6.1130   21.5220  -32.4960 C   0  0  0  0  0  0  0  0  0  0  0  0
   -6.5140   20.1940  -32.6630 C   0  0  0  0  0  0  0  0  0  0  0  0
   -5.7940   19.1660  -33.1560 N   0  0  0  0  0  0  0  0  0  0  0  0
   -4.4650   19.2500  -33.6800 C   0  0  0  0  0  0  0  0  0  0  0  0
   -4.1720   18.6150  -34.7250 O   0  0  0  0  0  0  0  0  0  0  0  0
   -3.4050   20.0220  -32.9570 C   0  0  0  0  0  0  0  0  0  0  0  0
   -3.3480   21.3130  -33.4440 F   0  0  0  0  0  0  0  0  0  0  0  0
   -2.1810   19.4090  -33.1530 F   0  0  0  0  0  0  0  0  0  0  0  0
   -3.6810   20.0610  -31.6040 F   0  0  0  0  0  0  0  0  0  0  0  0
   -4.7580   15.3940  -34.3190 H   0  0  0  0  0  0  0  0  0  0  0  0
   -4.1570   16.8420  -33.4680 H   0  0  0  0  0  0  0  0  0  0  0  0
   -8.7772   17.8116  -32.5805 H   0  0  0  0  0  0  0  0  0  0  0  0
   -9.7527   20.3266  -31.6077 H   0  0  0  0  0  0  0  0  0  0  0  0
   -9.0989   22.7364  -31.2889 H   0  0  0  0  0  0  0  0  0  0  0  0
   -5.9441   24.1662  -32.6114 H   0  0  0  0  0  0  0  0  0  0  0  0
   -7.5918   24.5010  -31.9177 H   0  0  0  0  0  0  0  0  0  0  0  0
   -6.8849   24.2938  -29.7448 H   0  0  0  0  0  0  0  0  0  0  0  0
   -5.0869   21.8359  -32.7382 H   0  0  0  0  0  0  0  0  0  0  0  0
  1  2  1  0
  2  3  2  0
  2  4  1  0
  4  5  2  0
  5  6  1  0
  6  7  2  0
  7  8  1  0
  8  9  2  0
  9 10  1  0
 10 11  1  0
 11 12  1  0
 12 13  1  0
 13 14  2  0
 13 15  1  0
 15 16  1  0
 16 17  2  0
  9 18  1  0
 18 19  2  0
 19 20  1  0
 20 21  1  0
 21 22  2  0
 21 23  1  0
 23 24  1  0
 23 25  1  0
 23 26  1  0
 20  4  1  0
 19  6  1  0
 16 11  1  0
  1 27  1  0
  1 28  1  0
  5 29  1  0
  7 30  1  0
  8 31  1  0
 10 32  1  0
 10 33  1  0
 11 34  1  1
 18 35  1  0
M  CHG  1  15  -1
M  END
>  <UniqueID>  (20) 
20

>  <SMILES>  (20) 
NC(=O)c1cc2ccc(C[C@H]3SC(=O)[N-]C3=O)cc2n1C(=O)C(F)(F)F

>  <Energy>  (20) 
85.5185716956071

>  <Genealogy>  (20) 
NC(=O)c1cc2ccc(CC3SC(=O)[N-]C3=O)cc2n1C(=O)C(F)(F)F (protonated)
NC(=O)c1cc2ccc(C[C@H]3SC(=O)[N-]C3=O)cc2n1C(=O)C(F)(F)F (chirality)
NC(=O)c1cc2ccc(C[C@H]3SC(=O)[N-]C3=O)cc2n1C(=O)C(F)(F)F (3D coordinates assigned)
NC(=O)c1cc2ccc(C[C@H]3SC(=O)[N-]C3=O)cc2n1C(=O)C(F)(F)F (nonaromatic ring conformer: 85.5185716956071 kcal/mol)

>  <smiles>  (20) 
NC(=O)c1cc2ccc(CC3SC(=O)NC3=O)cc2n1C(=O)C(F)(F)F

>  <score_type>  (20) 
oracle

>  <origin>  (20) 
adg

>  <m_score__min__energy>  (20) 
-10.050000000000001

>  <m_primary>  (20) 
energy

$$$$
20:0
     RDKit          3D

 30 31  0  0  0  0  0  0  0  0999 V2000
   -4.2290   25.6900  -30.8260 N   0  0  0  0  0  0  0  0  0  0  0  0
   -5.5360   25.2800  -30.4330 C   0  0  0  0  0  0  0  0  0  0  0  0
   -6.2390   26.0530  -29.7300 O   0  0  0  0  0  0  0  0  0  0  0  0
   -6.0440   23.9530  -30.8430 C   0  0  0  0  0  0  0  0  0  0  0  0
   -7.3710   23.7050  -31.1910 C   0  0  0  0  0  0  0  0  0  0  0  0
   -7.4160   22.3710  -31.5300 C   0  0  0  0  0  0  0  0  0  0  0  0
   -8.4930   21.5830  -31.9220 C   0  0  0  0  0  0  0  0  0  0  0  0
   -8.2570   20.2200  -32.1690 C   0  0  0  0  0  0  0  0  0  0  0  0
   -6.9560   19.6710  -32.0280 C   0  0  0  0  0  0  0  0  0  0  0  0
   -6.7280   18.1950  -32.2320 C   0  0  0  0  0  0  0  0  0  0  0  0
   -6.0440   17.6860  -31.1440 F   0  0  0  0  0  0  0  0  0  0  0  0
   -7.9340   17.5280  -32.3590 F   0  0  0  0  0  0  0  0  0  0  0  0
   -5.9860   17.9700  -33.3780 F   0  0  0  0  0  0  0  0  0  0  0  0
   -5.8930   20.5010  -31.6020 C   0  0  0  0  0  0  0  0  0  0  0  0
   -6.1550   21.8580  -31.3860 C   0  0  0  0  0  0  0  0  0  0  0  0
   -5.3000   22.8170  -30.9690 N   0  0  0  0  0  0  0  0  0  0  0  0
   -3.9020   22.6490  -30.6900 C   0  0  0  0  0  0  0  0  0  0  0  0
   -3.1030   22.3910  -31.6300 O   0  0  0  0  0  0  0  0  0  0  0  0
   -3.3900   22.7240  -29.2840 C   0  0  0  0  0  0  0  0  0  0  0  0
   -1.8060   23.6140  -29.2450 P   0  0  0  0  0  0  0  0  0  0  0  0
   -0.9470   23.1580  -30.4010 O   0  0  0  0  0  0  0  0  0  0  0  0
   -2.0860   25.2760  -29.3770 O   0  0  0  0  0  0  0  0  0  0  0  0
   -1.0050   23.2900  -27.7910 O   0  0  0  0  0  0  0  0  0  0  0  0
   -3.4360   25.0110  -30.8440 H   0  0  0  0  0  0  0  0  0  0  0  0
   -8.2049   24.4224  -31.1941 H   0  0  0  0  0  0  0  0  0  0  0  0
   -9.4988   22.0137  -32.0352 H   0  0  0  0  0  0  0  0  0  0  0  0
   -9.0906   19.5709  -32.4753 H   0  0  0  0  0  0  0  0  0  0  0  0
   -4.8851   20.0896  -31.4444 H   0  0  0  0  0  0  0  0  0  0  0  0
   -4.1218   23.2554  -28.6579 H   0  0  0  0  0  0  0  0  0  0  0  0
   -3.2404   21.7042  -28.8997 H   0  0  0  0  0  0  0  0  0  0  0  0
  1  2  1  0
  2  3  2  0
  2  4  1  0
  4  5  2  0
  5  6  1  0
  6  7  2  0
  7  8  1  0
  8  9  2  0
  9 10  1  0
 10 11  1  0
 10 12  1  0
 10 13  1  0
  9 14  1  0
 14 15  2  0
 15 16  1  0
 16 17  1  0
 17 18  2  0
 17 19  1  0
 19 20  1  0
 20 21  2  0
 20 22  1  0
 20 23  1  0
 16  4  1  0
 15  6  1  0
  1 24  1  0
  5 25  1  0
  7 26  1  0
  8 27  1  0
 14 28  1  0
 19 29  1  0
 19 30  1  0
M  CHG  3   1  -1  22  -1  23  -1
M  END
>  <UniqueID>  (21) 
21

>  <SMILES>  (21) 
[NH-]C(=O)c1cc2ccc(C(F)(F)F)cc2n1C(=O)CP(=O)([O-])[O-]

>  <Energy>  (21) 
65.03116671248533

>  <Genealogy>  (21) 
[NH-]C(=O)c1cc2ccc(C(F)(F)F)cc2n1C(=O)CP(=O)([O-])[O-] (protonated)
[NH-]C(=O)c1cc2ccc(C(F)(F)F)cc2n1C(=O)CP(=O)([O-])[O-] (3D coordinates assigned)
[NH-]C(=O)c1cc2ccc(C(F)(F)F)cc2n1C(=O)CP(=O)([O-])[O-] (optimized conformer: 65.03116671248533 kcal/mol)

>  <smiles>  (21) 
NC(=O)c1cc2ccc(C(F)(F)F)cc2n1C(=O)CP(=O)(O)O

>  <score_type>  (21) 
oracle

>  <origin>  (21) 
adg

>  <m_score__min__energy>  (21) 
-12.460000000000001

>  <m_primary>  (21) 
energy

$$$$
21:0
     RDKit          3D

 54 56  0  0  0  0  0  0  0  0999 V2000
   -5.7120   15.4090  -33.8280 C   0  0  0  0  0  0  0  0  0  0  0  0
   -5.9850   16.5410  -34.6450 O   0  0  0  0  0  0  0  0  0  0  0  0
   -6.1020   17.8320  -34.1240 C   0  0  0  0  0  0  0  0  0  0  0  0
   -6.0210   18.8400  -34.8770 O   0  0  0  0  0  0  0  0  0  0  0  0
   -6.3720   18.0170  -32.6620 C   0  0  0  0  0  0  0  0  0  0  0  0
   -7.7650   18.6080  -32.4200 C   0  0  0  0  0  0  0  0  0  0  0  0
   -7.6920   20.0460  -31.9750 C   0  0  0  0  0  0  0  0  0  0  0  0
   -8.8530   20.6990  -31.4920 C   0  0  0  0  0  0  0  0  0  0  0  0
   -8.7960   22.0350  -31.0630 C   0  0  0  0  0  0  0  0  0  0  0  0
   -7.5660   22.6840  -31.1130 C   0  0  0  0  0  0  0  0  0  0  0  0
   -7.2350   23.9760  -30.7780 C   0  0  0  0  0  0  0  0  0  0  0  0
   -5.8670   24.0840  -31.0220 C   0  0  0  0  0  0  0  0  0  0  0  0
   -5.0860   25.2980  -30.6990 C   0  0  0  0  0  0  0  0  0  0  0  0
   -3.7590   25.2080  -30.1910 N   0  0  0  0  0  0  0  0  0  0  0  0
   -5.6200   26.4320  -30.8270 O   0  0  0  0  0  0  0  0  0  0  0  0
   -5.3730   22.9060  -31.5030 N   0  0  0  0  0  0  0  0  0  0  0  0
   -4.0220   22.6020  -31.8870 C   0  0  0  0  0  0  0  0  0  0  0  0
   -3.0880   23.3980  -31.5940 O   0  0  0  0  0  0  0  0  0  0  0  0
   -3.7510   21.4220  -32.5890 O   0  0  0  0  0  0  0  0  0  0  0  0
   -3.0640   20.3100  -32.0190 C   0  0  0  0  0  0  0  0  0  0  0  0
   -1.6600   20.7150  -31.5600 C   0  0  0  0  0  0  0  0  0  0  0  0
   -1.5830   20.7600  -30.1320 O   0  0  0  0  0  0  0  0  0  0  0  0
   -2.1090   21.7740  -29.3140 C   0  0  0  0  0  0  0  0  0  0  0  0
   -1.3080   22.8900  -29.0440 C   0  0  0  0  0  0  0  0  0  0  0  0
   -1.7620   23.9030  -28.1940 C   0  0  0  0  0  0  0  0  0  0  0  0
   -3.0270   23.8070  -27.5950 C   0  0  0  0  0  0  0  0  0  0  0  0
   -3.5180   24.8910  -26.6830 C   0  0  0  0  0  0  0  0  0  0  0  0
   -3.8550   22.7200  -27.9070 C   0  0  0  0  0  0  0  0  0  0  0  0
   -3.4040   21.7150  -28.7660 C   0  0  0  0  0  0  0  0  0  0  0  0
   -6.4270   22.0580  -31.5490 C   0  0  0  0  0  0  0  0  0  0  0  0
   -6.4580   20.7340  -31.9990 C   0  0  0  0  0  0  0  0  0  0  0  0
   -5.7813   15.6963  -32.7684 H   0  0  0  0  0  0  0  0  0  0  0  0
   -6.4449   14.6171  -34.0419 H   0  0  0  0  0  0  0  0  0  0  0  0
   -4.6987   15.0382  -34.0419 H   0  0  0  0  0  0  0  0  0  0  0  0
   -6.3054   17.0407  -32.1596 H   0  0  0  0  0  0  0  0  0  0  0  0
   -5.6249   18.7161  -32.2582 H   0  0  0  0  0  0  0  0  0  0  0  0
   -8.3426   18.5531  -33.3546 H   0  0  0  0  0  0  0  0  0  0  0  0
   -8.2496   18.0267  -31.6217 H   0  0  0  0  0  0  0  0  0  0  0  0
   -9.8079   20.1544  -31.4527 H   0  0  0  0  0  0  0  0  0  0  0  0
   -9.6957   22.5524  -30.6987 H   0  0  0  0  0  0  0  0  0  0  0  0
   -7.9077   24.7588  -30.3978 H   0  0  0  0  0  0  0  0  0  0  0  0
   -2.9330   25.3110  -30.8220 H   0  0  0  0  0  0  0  0  0  0  0  0
   -3.6333   19.9393  -31.1538 H   0  0  0  0  0  0  0  0  0  0  0  0
   -2.9721   19.5234  -32.7824 H   0  0  0  0  0  0  0  0  0  0  0  0
   -0.9322   19.9814  -31.9370 H   0  0  0  0  0  0  0  0  0  0  0  0
   -1.4360   21.7166  -31.9558 H   0  0  0  0  0  0  0  0  0  0  0  0
   -0.3124   22.9706  -29.5048 H   0  0  0  0  0  0  0  0  0  0  0  0
   -1.1256   24.7777  -27.9944 H   0  0  0  0  0  0  0  0  0  0  0  0
   -3.3778   24.5815  -25.6368 H   0  0  0  0  0  0  0  0  0  0  0  0
   -2.9501   25.8140  -26.8715 H   0  0  0  0  0  0  0  0  0  0  0  0
   -4.5864   25.0729  -26.8715 H   0  0  0  0  0  0  0  0  0  0  0  0
   -4.8641   22.6580  -27.4736 H   0  0  0  0  0  0  0  0  0  0  0  0
   -4.0652   20.8721  -29.0157 H   0  0  0  0  0  0  0  0  0  0  0  0
   -5.5445   20.2406  -32.3625 H   0  0  0  0  0  0  0  0  0  0  0  0
  1  2  1  0
  2  3  1  0
  3  4  2  0
  3  5  1  0
  5  6  1  0
  6  7  1  0
  7  8  2  0
  8  9  1  0
  9 10  2  0
 10 11  1  0
 11 12  2  0
 12 13  1  0
 13 14  1  0
 13 15  2  0
 12 16  1  0
 16 17  1  0
 17 18  2  0
 17 19  1  0
 19 20  1  0
 20 21  1  0
 21 22  1  0
 22 23  1  0
 23 24  2  0
 24 25  1  0
 25 26  2  0
 26 27  1  0
 26 28  1  0
 28 29  2  0
 16 30  1  0
 30 31  2  0
 31  7  1  0
 30 10  1  0
 29 23  1  0
  1 32  1  0
  1 33  1  0
  1 34  1  0
  5 35  1  0
  5 36  1  0
  6 37  1  0
  6 38  1  0
  8 39  1  0
  9 40  1  0
 11 41  1  0
 14 42  1  0
 20 43  1  0
 20 44  1  0
 21 45  1  0
 21 46  1  0
 24 47  1  0
 25 48  1  0
 27 49  1  0
 27 50  1  0
 27 51  1  0
 28 52  1  0
 29 53  1  0
 31 54  1  0
M  CHG  1  14  -1
M  END
>  <UniqueID>  (22) 
22

>  <SMILES>  (22) 
COC(=O)CCc1ccc2cc(C([NH-])=O)n(C(=O)OCCOc3ccc(C)cc3)c2c1

>  <Energy>  (22) 
80.45667041153015

>  <Genealogy>  (22) 
COC(=O)CCc1ccc2cc(C([NH-])=O)n(C(=O)OCCOc3ccc(C)cc3)c2c1 (protonated)
COC(=O)CCc1ccc2cc(C([NH-])=O)n(C(=O)OCCOc3ccc(C)cc3)c2c1 (3D coordinates assigned)
COC(=O)CCc1ccc2cc(C([NH-])=O)n(C(=O)OCCOc3ccc(C)cc3)c2c1 (optimized conformer: 80.45667041153015 kcal/mol)

>  <smiles>  (22) 
COC(=O)CCc1ccc2cc(C(N)=O)n(C(=O)OCCOc3ccc(C)cc3)c2c1

>  <score_type>  (22) 
oracle

>  <origin>  (22) 
adg

>  <m_score__min__energy>  (22) 
-11.57

>  <m_primary>  (22) 
energy

$$$$
22:0
     RDKit          3D

 36 38  0  0  0  0  0  0  0  0999 V2000
   -3.9490   25.6640  -30.8430 N   0  0  0  0  0  0  0  0  0  0  0  0
   -5.2820   25.2810  -30.5130 C   0  0  0  0  0  0  0  0  0  0  0  0
   -6.0410   26.1130  -29.9480 O   0  0  0  0  0  0  0  0  0  0  0  0
   -5.8010   23.9440  -30.8730 C   0  0  0  0  0  0  0  0  0  0  0  0
   -7.1310   23.7030  -31.2090 C   0  0  0  0  0  0  0  0  0  0  0  0
   -7.1810   22.3750  -31.5700 C   0  0  0  0  0  0  0  0  0  0  0  0
   -8.2580   21.6030  -31.9940 C   0  0  0  0  0  0  0  0  0  0  0  0
   -8.0230   20.2480  -32.2820 C   0  0  0  0  0  0  0  0  0  0  0  0
   -6.7290   19.6900  -32.1260 C   0  0  0  0  0  0  0  0  0  0  0  0
   -6.4850   18.2430  -32.4560 C   0  0  0  0  0  0  0  0  0  0  0  0
   -6.1480   18.0870  -33.9070 C   0  0  0  0  0  0  0  0  0  0  0  0
   -6.1120   19.0610  -34.6420 O   0  0  0  0  0  0  0  0  0  0  0  0
   -5.6580   20.5090  -31.7040 C   0  0  0  0  0  0  0  0  0  0  0  0
   -5.9180   21.8590  -31.4410 C   0  0  0  0  0  0  0  0  0  0  0  0
   -5.0600   22.8090  -31.0100 N   0  0  0  0  0  0  0  0  0  0  0  0
   -3.6730   22.6170  -30.6950 C   0  0  0  0  0  0  0  0  0  0  0  0
   -2.7940   22.8350  -31.5730 O   0  0  0  0  0  0  0  0  0  0  0  0
   -3.3040   22.2060  -29.4100 O   0  0  0  0  0  0  0  0  0  0  0  0
   -3.0820   23.1120  -28.3320 C   0  0  0  0  0  0  0  0  0  0  0  0
   -1.6280   23.4510  -28.2360 C   0  0  0  0  0  0  0  0  0  0  0  0
   -0.7090   22.6750  -27.7070 O   0  0  0  0  0  0  0  0  0  0  0  0
    0.4280   23.3220  -27.8380 C   0  0  0  0  0  0  0  0  0  0  0  0
    1.5350   22.8760  -27.4390 O   0  0  0  0  0  0  0  0  0  0  0  0
    0.2860   24.4870  -28.4320 O   0  0  0  0  0  0  0  0  0  0  0  0
   -0.9940   24.5870  -28.6900 C   0  0  0  0  0  0  0  0  0  0  0  0
   -1.5910   25.6700  -29.3240 O   0  0  0  0  0  0  0  0  0  0  0  0
   -3.1510   25.0030  -30.7120 H   0  0  0  0  0  0  0  0  0  0  0  0
   -7.9643   24.4208  -31.1900 H   0  0  0  0  0  0  0  0  0  0  0  0
   -9.2620   22.0397  -32.1004 H   0  0  0  0  0  0  0  0  0  0  0  0
   -8.8510   19.6140  -32.6319 H   0  0  0  0  0  0  0  0  0  0  0  0
   -5.6485   17.8687  -31.8475 H   0  0  0  0  0  0  0  0  0  0  0  0
   -7.3978   17.6690  -32.2384 H   0  0  0  0  0  0  0  0  0  0  0  0
   -5.9315   17.0879  -34.3131 H   0  0  0  0  0  0  0  0  0  0  0  0
   -4.6453   20.0962  -31.5851 H   0  0  0  0  0  0  0  0  0  0  0  0
   -3.6594   24.0321  -28.5054 H   0  0  0  0  0  0  0  0  0  0  0  0
   -3.4041   22.6392  -27.3924 H   0  0  0  0  0  0  0  0  0  0  0  0
  1  2  1  0
  2  3  2  0
  2  4  1  0
  4  5  2  0
  5  6  1  0
  6  7  2  0
  7  8  1  0
  8  9  2  0
  9 10  1  0
 10 11  1  0
 11 12  2  0
  9 13  1  0
 13 14  2  0
 14 15  1  0
 15 16  1  0
 16 17  2  0
 16 18  1  0
 18 19  1  0
 19 20  1  0
 20 21  1  0
 21 22  1  0
 22 23  2  0
 22 24  1  0
 24 25  1  0
 25 26  1  0
 15  4  1  0
 25 20  2  0
 14  6  1  0
  1 27  1  0
  5 28  1  0
  7 29  1  0
  8 30  1  0
 10 31  1  0
 10 32  1  0
 11 33  1  0
 13 34  1  0
 19 35  1  0
 19 36  1  0
M  CHG  2   1  -1  26  -1
M  END
>  <UniqueID>  (23) 
23

>  <SMILES>  (23) 
[NH-]C(=O)c1cc2ccc(CC=O)cc2n1C(=O)OCc1oc(=O)oc1[O-]

>  <Energy>  (23) 
107.91631533095858

>  <Genealogy>  (23) 
[NH-]C(=O)c1cc2ccc(CC=O)cc2n1C(=O)OCc1oc(=O)oc1[O-] (protonated)
[NH-]C(=O)c1cc2ccc(CC=O)cc2n1C(=O)OCc1oc(=O)oc1[O-] (3D coordinates assigned)
[NH-]C(=O)c1cc2ccc(CC=O)cc2n1C(=O)OCc1oc(=O)oc1[O-] (optimized conformer: 107.91631533095858 kcal/mol)

>  <smiles>  (23) 
NC(=O)c1cc2ccc(CC=O)cc2n1C(=O)OCc1oc(=O)oc1O

>  <score_type>  (23) 
oracle

>  <origin>  (23) 
adg

>  <m_score__min__energy>  (23) 
-12.68

>  <m_primary>  (23) 
energy

$$$$
23:0
     RDKit          3D

 41 42  0  0  0  0  0  0  0  0999 V2000
   -5.0010   15.4750  -32.6900 C   0  0  0  0  0  0  0  0  0  0  0  0
   -5.7960   15.9530  -33.8570 C   0  0  0  0  0  0  0  0  0  0  0  0
   -6.8690   15.3680  -34.1660 O   0  0  0  0  0  0  0  0  0  0  0  0
   -5.3610   17.1080  -34.5840 N   0  0  0  0  0  0  0  0  0  0  0  0
   -5.9050   18.4490  -34.3860 C   0  0  0  0  0  0  0  0  0  0  0  0
   -6.9200   18.4680  -33.2370 C   0  0  0  0  0  0  0  0  0  0  0  0
   -7.1110   19.8530  -32.6760 C   0  0  0  0  0  0  0  0  0  0  0  0
   -8.4150   20.3530  -32.4370 C   0  0  0  0  0  0  0  0  0  0  0  0
   -8.6020   21.6310  -31.8870 C   0  0  0  0  0  0  0  0  0  0  0  0
   -7.4690   22.3790  -31.5750 C   0  0  0  0  0  0  0  0  0  0  0  0
   -7.3630   23.6490  -31.0550 C   0  0  0  0  0  0  0  0  0  0  0  0
   -5.9950   23.8940  -30.9560 C   0  0  0  0  0  0  0  0  0  0  0  0
   -5.4290   25.1220  -30.3610 C   0  0  0  0  0  0  0  0  0  0  0  0
   -4.2180   25.6870  -30.8570 N   0  0  0  0  0  0  0  0  0  0  0  0
   -5.9970   25.6540  -29.3710 O   0  0  0  0  0  0  0  0  0  0  0  0
   -5.2830   22.8210  -31.4060 N   0  0  0  0  0  0  0  0  0  0  0  0
   -3.8600   22.7140  -31.5590 C   0  0  0  0  0  0  0  0  0  0  0  0
   -3.3770   22.1790  -32.5940 O   0  0  0  0  0  0  0  0  0  0  0  0
   -3.0150   23.2230  -30.5650 O   0  0  0  0  0  0  0  0  0  0  0  0
   -3.2990   23.1300  -29.1690 C   0  0  0  0  0  0  0  0  0  0  0  0
   -2.6870   24.3090  -28.4100 C   0  0  0  0  0  0  0  0  0  0  0  0
   -2.2420   25.2930  -29.3030 O   0  0  0  0  0  0  0  0  0  0  0  0
   -6.2000   21.9020  -31.7800 C   0  0  0  0  0  0  0  0  0  0  0  0
   -5.9850   20.6400  -32.3460 C   0  0  0  0  0  0  0  0  0  0  0  0
   -5.5012   15.7758  -31.7576 H   0  0  0  0  0  0  0  0  0  0  0  0
   -4.9204   14.3785  -32.7256 H   0  0  0  0  0  0  0  0  0  0  0  0
   -3.9948   15.9180  -32.7256 H   0  0  0  0  0  0  0  0  0  0  0  0
   -5.0819   19.1395  -34.1499 H   0  0  0  0  0  0  0  0  0  0  0  0
   -6.4162   18.7588  -35.3094 H   0  0  0  0  0  0  0  0  0  0  0  0
   -7.8867   18.0998  -33.6109 H   0  0  0  0  0  0  0  0  0  0  0  0
   -6.5341   17.8254  -32.4319 H   0  0  0  0  0  0  0  0  0  0  0  0
   -9.2896   19.7336  -32.6849 H   0  0  0  0  0  0  0  0  0  0  0  0
   -9.6116   22.0293  -31.7080 H   0  0  0  0  0  0  0  0  0  0  0  0
   -8.1838   24.3264  -30.7768 H   0  0  0  0  0  0  0  0  0  0  0  0
   -3.3260   25.1470  -30.8350 H   0  0  0  0  0  0  0  0  0  0  0  0
   -4.3891   23.1332  -29.0218 H   0  0  0  0  0  0  0  0  0  0  0  0
   -2.8630   22.1972  -28.7820 H   0  0  0  0  0  0  0  0  0  0  0  0
   -3.4465   24.7430  -27.7430 H   0  0  0  0  0  0  0  0  0  0  0  0
   -1.8288   23.9470  -27.8248 H   0  0  0  0  0  0  0  0  0  0  0  0
   -3.0520   25.6780  -29.7280 H   0  0  0  0  0  0  0  0  0  0  0  0
   -4.9653   20.2704  -32.5292 H   0  0  0  0  0  0  0  0  0  0  0  0
  1  2  1  0
  2  3  2  0
  2  4  1  0
  4  5  1  0
  5  6  1  0
  6  7  1  0
  7  8  2  0
  8  9  1  0
  9 10  2  0
 10 11  1  0
 11 12  2  0
 12 13  1  0
 13 14  1  0
 13 15  2  0
 12 16  1  0
 16 17  1  0
 17 18  2  0
 17 19  1  0
 19 20  1  0
 20 21  1  0
 21 22  1  0
 16 23  1  0
 23 24  2  0
 24  7  1  0
 23 10  1  0
  1 25  1  0
  1 26  1  0
  1 27  1  0
  5 28  1  0
  5 29  1  0
  6 30  1  0
  6 31  1  0
  8 32  1  0
  9 33  1  0
 11 34  1  0
 14 35  1  0
 20 36  1  0
 20 37  1  0
 21 38  1  0
 21 39  1  0
 22 40  1  0
 24 41  1  0
M  CHG  2   4  -1  14  -1
M  END
>  <UniqueID>  (24) 
24

>  <SMILES>  (24) 
CC(=O)[N-]CCc1ccc2cc(C([NH-])=O)n(C(=O)OCCO)c2c1

>  <Energy>  (24) 
70.46570801979676

>  <Genealogy>  (24) 
CC(=O)[N-]CCc1ccc2cc(C([NH-])=O)n(C(=O)OCCO)c2c1 (protonated)
CC(=O)[N-]CCc1ccc2cc(C([NH-])=O)n(C(=O)OCCO)c2c1 (3D coordinates assigned)
CC(=O)[N-]CCc1ccc2cc(C([NH-])=O)n(C(=O)OCCO)c2c1 (optimized conformer: 70.46570801979676 kcal/mol)

>  <smiles>  (24) 
CC(=O)NCCc1ccc2cc(C(N)=O)n(C(=O)OCCO)c2c1

>  <score_type>  (24) 
oracle

>  <origin>  (24) 
adg

>  <m_score__min__energy>  (24) 
-10.220000000000001

>  <m_primary>  (24) 
energy

$$$$
24:0
     RDKit          3D

 45 47  0  0  0  0  0  0  0  0999 V2000
   -9.0980   18.7040  -31.5050 C   0  0  0  0  0  0  0  0  0  0  0  0
   -8.4780   18.6570  -32.7860 O   0  0  0  0  0  0  0  0  0  0  0  0
   -7.1150   18.9030  -33.0200 C   0  0  0  0  0  0  0  0  0  0  0  0
   -6.2260   17.8790  -33.3920 C   0  0  0  0  0  0  0  0  0  0  0  0
   -4.8760   18.1590  -33.6150 C   0  0  0  0  0  0  0  0  0  0  0  0
   -4.3830   19.4670  -33.4670 C   0  0  0  0  0  0  0  0  0  0  0  0
   -2.9490   19.7820  -33.7040 C   0  0  0  0  0  0  0  0  0  0  0  0
   -2.1910   18.8870  -34.1710 O   0  0  0  0  0  0  0  0  0  0  0  0
   -2.3700   21.1310  -33.3510 C   0  0  0  0  0  0  0  0  0  0  0  0
   -2.0460   21.2430  -31.8840 C   0  0  0  0  0  0  0  0  0  0  0  0
   -1.6060   20.1020  -31.1670 C   0  0  0  0  0  0  0  0  0  0  0  0
   -1.3210   20.1860  -29.7940 C   0  0  0  0  0  0  0  0  0  0  0  0
   -1.4990   21.4140  -29.1640 C   0  0  0  0  0  0  0  0  0  0  0  0
   -1.2800   21.7750  -27.8560 C   0  0  0  0  0  0  0  0  0  0  0  0
   -1.6240   23.1240  -27.7820 C   0  0  0  0  0  0  0  0  0  0  0  0
   -1.6270   23.9050  -26.5240 C   0  0  0  0  0  0  0  0  0  0  0  0
   -2.3220   25.1500  -26.4400 N   0  0  0  0  0  0  0  0  0  0  0  0
   -0.9860   23.4920  -25.5220 O   0  0  0  0  0  0  0  0  0  0  0  0
   -2.0370   23.5790  -29.0000 N   0  0  0  0  0  0  0  0  0  0  0  0
   -2.4190   24.9200  -29.3520 C   0  0  0  0  0  0  0  0  0  0  0  0
   -3.4590   25.1290  -30.0290 O   0  0  0  0  0  0  0  0  0  0  0  0
   -1.6510   26.0010  -28.9360 O   0  0  0  0  0  0  0  0  0  0  0  0
   -1.9550   22.5200  -29.8360 C   0  0  0  0  0  0  0  0  0  0  0  0
   -2.2290   22.4700  -31.2080 C   0  0  0  0  0  0  0  0  0  0  0  0
   -5.2760   20.4900  -33.1000 C   0  0  0  0  0  0  0  0  0  0  0  0
   -6.6390   20.2140  -32.8730 C   0  0  0  0  0  0  0  0  0  0  0  0
   -7.5520   21.2150  -32.5020 O   0  0  0  0  0  0  0  0  0  0  0  0
   -7.2110   22.3840  -31.7650 C   0  0  0  0  0  0  0  0  0  0  0  0
   -8.3273   18.6456  -30.7223 H   0  0  0  0  0  0  0  0  0  0  0  0
   -9.6549   19.6469  -31.4016 H   0  0  0  0  0  0  0  0  0  0  0  0
   -9.7907   17.8558  -31.4016 H   0  0  0  0  0  0  0  0  0  0  0  0
   -6.5966   16.8498  -33.5082 H   0  0  0  0  0  0  0  0  0  0  0  0
   -4.1925   17.3488  -33.9090 H   0  0  0  0  0  0  0  0  0  0  0  0
   -1.4476   21.2836  -33.9305 H   0  0  0  0  0  0  0  0  0  0  0  0
   -3.1234   21.8959  -33.5906 H   0  0  0  0  0  0  0  0  0  0  0  0
   -1.4866   19.1420  -31.6906 H   0  0  0  0  0  0  0  0  0  0  0  0
   -0.9678   19.3077  -29.2338 H   0  0  0  0  0  0  0  0  0  0  0  0
   -0.9115   21.1352  -27.0406 H   0  0  0  0  0  0  0  0  0  0  0  0
   -2.9090   25.4990  -27.2290 H   0  0  0  0  0  0  0  0  0  0  0  0
   -2.2850   25.7120  -25.5600 H   0  0  0  0  0  0  0  0  0  0  0  0
   -2.5780   23.3636  -31.7462 H   0  0  0  0  0  0  0  0  0  0  0  0
   -4.9052   21.5196  -32.9887 H   0  0  0  0  0  0  0  0  0  0  0  0
   -7.2735   22.1696  -30.6879 H   0  0  0  0  0  0  0  0  0  0  0  0
   -6.1858   22.6914  -32.0188 H   0  0  0  0  0  0  0  0  0  0  0  0
   -7.9102   23.1944  -32.0188 H   0  0  0  0  0  0  0  0  0  0  0  0
  1  2  1  0
  2  3  1  0
  3  4  2  0
  4  5  1  0
  5  6  2  0
  6  7  1  0
  7  8  2  0
  7  9  1  0
  9 10  1  0
 10 11  2  0
 11 12  1  0
 12 13  2  0
 13 14  1  0
 14 15  2  0
 15 16  1  0
 16 17  1  0
 16 18  2  0
 15 19  1  0
 19 20  1  0
 20 21  2  0
 20 22  1  0
 19 23  1  0
 23 24  2  0
  6 25  1  0
 25 26  2  0
 26 27  1  0
 27 28  1  0
 26  3  1  0
 24 10  1  0
 23 13  1  0
  1 29  1  0
  1 30  1  0
  1 31  1  0
  4 32  1  0
  5 33  1  0
  9 34  1  0
  9 35  1  0
 11 36  1  0
 12 37  1  0
 14 38  1  0
 17 39  1  0
 17 40  1  0
 24 41  1  0
 25 42  1  0
 28 43  1  0
 28 44  1  0
 28 45  1  0
M  CHG  1  22  -1
M  END
>  <UniqueID>  (25) 
25

>  <SMILES>  (25) 
COc1ccc(C(=O)Cc2ccc3cc(C(N)=O)n(C(=O)[O-])c3c2)cc1OC

>  <Energy>  (25) 
87.68936544421835

>  <Genealogy>  (25) 
COc1ccc(C(=O)Cc2ccc3cc(C(N)=O)n(C(=O)[O-])c3c2)cc1OC (protonated)
COc1ccc(C(=O)Cc2ccc3cc(C(N)=O)n(C(=O)[O-])c3c2)cc1OC (3D coordinates assigned)
COc1ccc(C(=O)Cc2ccc3cc(C(N)=O)n(C(=O)[O-])c3c2)cc1OC (optimized conformer: 87.68936544421835 kcal/mol)

>  <smiles>  (25) 
COc1ccc(C(=O)Cc2ccc3cc(C(N)=O)n(C(=O)O)c3c2)cc1OC

>  <score_type>  (25) 
oracle

>  <origin>  (25) 
adg

>  <m_score__min__energy>  (25) 
-9.3200000000000003

>  <m_primary>  (25) 
energy

$$$$
25:0
     RDKit          3D

 37 38  0  0  0  0  0  0  0  0999 V2000
   -5.3360   16.0770  -32.6420 N   0  0  0  0  0  0  0  0  0  0  0  0
   -6.4650   16.6860  -33.2700 C   0  0  0  0  0  0  0  0  0  0  0  0
   -7.1290   16.0300  -34.1160 O   0  0  0  0  0  0  0  0  0  0  0  0
   -6.9060   18.0460  -32.8990 C   0  0  0  0  0  0  0  0  0  0  0  0
   -8.2310   18.3730  -32.6270 C   0  0  0  0  0  0  0  0  0  0  0  0
   -8.2100   19.6980  -32.2590 C   0  0  0  0  0  0  0  0  0  0  0  0
   -9.2540   20.5400  -31.8910 C   0  0  0  0  0  0  0  0  0  0  0  0
   -8.9470   21.8780  -31.5890 C   0  0  0  0  0  0  0  0  0  0  0  0
   -7.6140   22.3490  -31.6730 C   0  0  0  0  0  0  0  0  0  0  0  0
   -7.2920   23.7850  -31.3470 C   0  0  0  0  0  0  0  0  0  0  0  0
   -5.7940   24.0960  -31.4810 C   0  0  0  0  0  0  0  0  0  0  0  0
   -5.1070   24.9730  -30.0480 S   0  0  0  0  0  0  0  0  0  0  0  0
   -5.7720   26.3430  -30.0800 O   0  0  0  0  0  0  0  0  0  0  0  0
   -3.4880   25.3000  -30.4610 O   0  0  0  0  0  0  0  0  0  0  0  0
   -6.5800   21.4670  -32.0580 C   0  0  0  0  0  0  0  0  0  0  0  0
   -6.9100   20.1320  -32.3260 C   0  0  0  0  0  0  0  0  0  0  0  0
   -6.0960   19.1270  -32.7210 N   0  0  0  0  0  0  0  0  0  0  0  0
   -4.6880   19.2230  -32.9920 C   0  0  0  0  0  0  0  0  0  0  0  0
   -3.9230   18.2640  -32.7020 O   0  0  0  0  0  0  0  0  0  0  0  0
   -4.1720   20.3790  -33.5850 O   0  0  0  0  0  0  0  0  0  0  0  0
   -2.8130   20.7770  -33.4480 C   0  0  0  0  0  0  0  0  0  0  0  0
   -2.6000   21.4110  -32.0800 C   0  0  0  0  0  0  0  0  0  0  0  0
   -3.5110   22.4350  -31.8960 F   0  0  0  0  0  0  0  0  0  0  0  0
   -2.7800   20.4620  -31.0900 F   0  0  0  0  0  0  0  0  0  0  0  0
   -1.3180   21.9230  -31.9940 F   0  0  0  0  0  0  0  0  0  0  0  0
   -4.8710   16.5220  -31.8200 H   0  0  0  0  0  0  0  0  0  0  0  0
   -5.0150   15.1310  -32.9470 H   0  0  0  0  0  0  0  0  0  0  0  0
   -9.1082   17.7125  -32.6924 H   0  0  0  0  0  0  0  0  0  0  0  0
  -10.2886   20.1701  -31.8379 H   0  0  0  0  0  0  0  0  0  0  0  0
   -9.7497   22.5658  -31.2845 H   0  0  0  0  0  0  0  0  0  0  0  0
   -7.8507   24.4368  -32.0347 H   0  0  0  0  0  0  0  0  0  0  0  0
   -7.5782   23.9627  -30.2999 H   0  0  0  0  0  0  0  0  0  0  0  0
   -5.2507   23.1472  -31.6021 H   0  0  0  0  0  0  0  0  0  0  0  0
   -5.6770   24.7572  -32.3522 H   0  0  0  0  0  0  0  0  0  0  0  0
   -5.5417   21.8195  -32.1452 H   0  0  0  0  0  0  0  0  0  0  0  0
   -2.1620   19.8960  -33.5482 H   0  0  0  0  0  0  0  0  0  0  0  0
   -2.5667   21.5089  -34.2314 H   0  0  0  0  0  0  0  0  0  0  0  0
  1  2  1  0
  2  3  2  0
  2  4  1  0
  4  5  2  0
  5  6  1  0
  6  7  2  0
  7  8  1  0
  8  9  2  0
  9 10  1  0
 10 11  1  0
 11 12  1  0
 12 13  2  0
 12 14  1  6
  9 15  1  0
 15 16  2  0
 16 17  1  0
 17 18  1  0
 18 19  2  0
 18 20  1  0
 20 21  1  0
 21 22  1  0
 22 23  1  0
 22 24  1  0
 22 25  1  0
 17  4  1  0
 16  6  1  0
  1 26  1  0
  1 27  1  0
  5 28  1  0
  7 29  1  0
  8 30  1  0
 10 31  1  0
 10 32  1  0
 11 33  1  0
 11 34  1  0
 15 35  1  0
 21 36  1  0
 21 37  1  0
M  CHG  1  14  -1
M  END
>  <UniqueID>  (26) 
26

>  <SMILES>  (26) 
NC(=O)c1cc2ccc(CC[S@](=O)[O-])cc2n1C(=O)OCC(F)(F)F

>  <Energy>  (26) 
67.45599304613793

>  <Genealogy>  (26) 
NC(=O)c1cc2ccc(CCS(=O)[O-])cc2n1C(=O)OCC(F)(F)F (protonated)
NC(=O)c1cc2ccc(CC[S@](=O)[O-])cc2n1C(=O)OCC(F)(F)F (chirality)
NC(=O)c1cc2ccc(CC[S@](=O)[O-])cc2n1C(=O)OCC(F)(F)F (3D coordinates assigned)
NC(=O)c1cc2ccc(CC[S@](=O)[O-])cc2n1C(=O)OCC(F)(F)F (optimized conformer: 67.45599304613793 kcal/mol)

>  <smiles>  (26) 
NC(=O)c1cc2ccc(CCS(=O)O)cc2n1C(=O)OCC(F)(F)F

>  <score_type>  (26) 
oracle

>  <origin>  (26) 
adg

>  <m_score__min__energy>  (26) 
-10.050000000000001

>  <m_primary>  (26) 
energy

$$$$
26:0
     RDKit          3D

 54 57  0  0  0  0  0  0  0  0999 V2000
   -8.5210   17.8490  -31.9760 C   0  0  0  0  0  0  0  0  0  0  0  0
   -7.5470   18.7780  -32.5660 N   0  0  0  0  0  0  0  0  0  0  0  0
   -6.6160   18.2610  -33.5860 C   0  0  0  0  0  0  0  0  0  0  0  0
   -5.2980   17.8670  -32.9800 C   0  0  0  0  0  0  0  0  0  0  0  0
   -5.2780   17.0480  -32.0230 O   0  0  0  0  0  0  0  0  0  0  0  0
   -4.0690   18.4330  -33.4450 N   0  0  0  0  0  0  0  0  0  0  0  0
   -3.2390   17.6730  -34.3770 C   0  0  0  0  0  0  0  0  0  0  0  0
   -1.7730   18.0760  -34.1950 C   0  0  0  0  0  0  0  0  0  0  0  0
   -1.6270   19.4800  -34.2870 O   0  0  0  0  0  0  0  0  0  0  0  0
   -2.2970   20.1090  -33.2090 C   0  0  0  0  0  0  0  0  0  0  0  0
   -3.8060   19.8600  -33.2750 C   0  0  0  0  0  0  0  0  0  0  0  0
   -7.5570   20.1870  -32.1880 C   0  0  0  0  0  0  0  0  0  0  0  0
   -8.7820   20.9140  -32.1110 C   0  0  0  0  0  0  0  0  0  0  0  0
   -8.8060   22.2690  -31.7390 C   0  0  0  0  0  0  0  0  0  0  0  0
   -7.5960   22.8850  -31.4380 C   0  0  0  0  0  0  0  0  0  0  0  0
   -7.3370   24.1660  -31.0060 C   0  0  0  0  0  0  0  0  0  0  0  0
   -5.9560   24.2180  -30.8150 C   0  0  0  0  0  0  0  0  0  0  0  0
   -5.2300   25.4430  -30.4160 C   0  0  0  0  0  0  0  0  0  0  0  0
   -3.8890   25.6730  -30.8390 N   0  0  0  0  0  0  0  0  0  0  0  0
   -5.8180   26.3210  -29.7320 O   0  0  0  0  0  0  0  0  0  0  0  0
   -5.3890   23.0160  -31.1180 N   0  0  0  0  0  0  0  0  0  0  0  0
   -4.0300   22.6020  -30.9110 C   0  0  0  0  0  0  0  0  0  0  0  0
   -3.1160   23.0620  -31.6470 O   0  0  0  0  0  0  0  0  0  0  0  0
   -3.7290   21.6220  -29.9150 N   0  0  0  0  0  0  0  0  0  0  0  0
   -2.5770   21.7080  -29.0280 C   0  0  0  0  0  0  0  0  0  0  0  0
   -2.2880   23.1390  -28.7060 C   0  0  0  0  0  0  0  0  0  0  0  0
   -2.6720   23.8120  -27.5630 C   0  0  0  0  0  0  0  0  0  0  0  0
   -2.2470   25.1020  -27.7860 C   0  0  0  0  0  0  0  0  0  0  0  0
   -1.6740   25.1550  -28.9710 O   0  0  0  0  0  0  0  0  0  0  0  0
   -1.6850   23.9940  -29.5580 N   0  0  0  0  0  0  0  0  0  0  0  0
   -6.4070   22.2150  -31.5040 C   0  0  0  0  0  0  0  0  0  0  0  0
   -6.3500   20.8680  -31.8750 C   0  0  0  0  0  0  0  0  0  0  0  0
   -8.4627   17.9046  -30.8790 H   0  0  0  0  0  0  0  0  0  0  0  0
   -9.5345   18.1235  -32.3037 H   0  0  0  0  0  0  0  0  0  0  0  0
   -8.2948   16.8236  -32.3037 H   0  0  0  0  0  0  0  0  0  0  0  0
   -7.0660   17.3799  -34.0668 H   0  0  0  0  0  0  0  0  0  0  0  0
   -6.4330   19.0580  -34.3217 H   0  0  0  0  0  0  0  0  0  0  0  0
   -3.3519   16.5974  -34.1762 H   0  0  0  0  0  0  0  0  0  0  0  0
   -3.5541   17.8867  -35.4090 H   0  0  0  0  0  0  0  0  0  0  0  0
   -1.4260   17.7406  -33.2065 H   0  0  0  0  0  0  0  0  0  0  0  0
   -1.1747   17.6047  -34.9887 H   0  0  0  0  0  0  0  0  0  0  0  0
   -1.9081   19.7077  -32.2615 H   0  0  0  0  0  0  0  0  0  0  0  0
   -2.1194   21.1927  -33.2728 H   0  0  0  0  0  0  0  0  0  0  0  0
   -4.2740   20.2083  -32.3424 H   0  0  0  0  0  0  0  0  0  0  0  0
   -4.2260   20.4094  -34.1304 H   0  0  0  0  0  0  0  0  0  0  0  0
   -9.7272   20.4035  -32.3477 H   0  0  0  0  0  0  0  0  0  0  0  0
   -9.7534   22.8256  -31.6875 H   0  0  0  0  0  0  0  0  0  0  0  0
   -8.0638   24.9759  -30.8456 H   0  0  0  0  0  0  0  0  0  0  0  0
   -3.1280   25.0040  -30.5860 H   0  0  0  0  0  0  0  0  0  0  0  0
   -2.7912   21.1610  -28.0980 H   0  0  0  0  0  0  0  0  0  0  0  0
   -1.7022   21.2654  -29.5268 H   0  0  0  0  0  0  0  0  0  0  0  0
   -3.1945   23.4115  -26.6818 H   0  0  0  0  0  0  0  0  0  0  0  0
   -2.3658   25.9467  -27.0915 H   0  0  0  0  0  0  0  0  0  0  0  0
   -5.3845   20.3432  -31.9238 H   0  0  0  0  0  0  0  0  0  0  0  0
  1  2  1  0
  2  3  1  0
  3  4  1  0
  4  5  2  0
  4  6  1  0
  6  7  1  0
  7  8  1  0
  8  9  1  0
  9 10  1  0
 10 11  1  0
  2 12  1  0
 12 13  2  0
 13 14  1  0
 14 15  2  0
 15 16  1  0
 16 17  2  0
 17 18  1  0
 18 19  1  0
 18 20  2  0
 17 21  1  0
 21 22  1  0
 22 23  2  0
 22 24  1  0
 24 25  1  0
 25 26  1  0
 26 27  1  0
 27 28  2  0
 28 29  1  0
 29 30  1  0
 21 31  1  0
 31 32  2  0
 11  6  1  0
 32 12  1  0
 31 15  1  0
 30 26  2  0
  1 33  1  0
  1 34  1  0
  1 35  1  0
  3 36  1  0
  3 37  1  0
  7 38  1  0
  7 39  1  0
  8 40  1  0
  8 41  1  0
 10 42  1  0
 10 43  1  0
 11 44  1  0
 11 45  1  0
 13 46  1  0
 14 47  1  0
 16 48  1  0
 19 49  1  0
 25 50  1  0
 25 51  1  0
 27 52  1  0
 28 53  1  0
 32 54  1  0
M  CHG  2  19  -1  24  -1
M  END
>  <UniqueID>  (27) 
27

>  <SMILES>  (27) 
CN(CC(=O)N1CCOCC1)c1ccc2cc(C([NH-])=O)n(C(=O)[N-]Cc3ccon3)c2c1

>  <Energy>  (27) 
127.64609755691657

>  <Genealogy>  (27) 
CN(CC(=O)N1CCOCC1)c1ccc2cc(C([NH-])=O)n(C(=O)[N-]Cc3ccon3)c2c1 (protonated)
CN(CC(=O)N1CCOCC1)c1ccc2cc(C([NH-])=O)n(C(=O)[N-]Cc3ccon3)c2c1 (3D coordinates assigned)
CN(CC(=O)N1CCOCC1)c1ccc2cc(C([NH-])=O)n(C(=O)[N-]Cc3ccon3)c2c1 (nonaromatic ring conformer: 127.64609755691657 kcal/mol)

>  <smiles>  (27) 
CN(CC(=O)N1CCOCC1)c1ccc2cc(C(N)=O)n(C(=O)NCc3ccon3)c2c1

>  <score_type>  (27) 
oracle

>  <origin>  (27) 
adg

>  <m_score__min__energy>  (27) 
-12.199999999999999

>  <m_primary>  (27) 
energy

$$$$
27:0
     RDKit          3D

 56 58  0  0  0  0  0  0  0  0999 V2000
   -2.8230   25.2840  -30.3320 H   0  0  0  0  0  0  0  0  0  0  0  0
   -3.8500   25.3180  -30.5060 N   0  0  0  0  0  0  0  0  0  0  0  0
   -4.7400   24.4430  -29.8160 C   0  0  0  0  0  0  0  0  0  0  0  0
   -4.7750   24.4640  -28.5590 O   0  0  0  0  0  0  0  0  0  0  0  0
   -5.6290   23.5430  -30.5810 C   0  0  0  0  0  0  0  0  0  0  0  0
   -6.9870   23.7790  -30.7820 C   0  0  0  0  0  0  0  0  0  0  0  0
   -7.5612   24.6683  -30.4829 H   0  0  0  0  0  0  0  0  0  0  0  0
   -7.4580   22.6600  -31.4360 C   0  0  0  0  0  0  0  0  0  0  0  0
   -8.7540   22.3200  -31.8080 C   0  0  0  0  0  0  0  0  0  0  0  0
   -9.5871   23.0248  -31.6696 H   0  0  0  0  0  0  0  0  0  0  0  0
   -8.9670   21.0440  -32.3680 C   0  0  0  0  0  0  0  0  0  0  0  0
   -9.9823   20.7481  -32.6706 H   0  0  0  0  0  0  0  0  0  0  0  0
   -7.8880   20.1320  -32.5480 C   0  0  0  0  0  0  0  0  0  0  0  0
   -8.0780   18.7870  -33.0490 N   0  0  0  0  0  0  0  0  0  0  0  0
   -9.0440   18.5360  -33.3750 H   0  0  0  0  0  0  0  0  0  0  0  0
   -7.0380   17.7700  -33.2970 C   0  0  2  0  0  0  0  0  0  0  0  0
   -7.5537   16.8591  -33.6350 H   0  0  0  0  0  0  0  0  0  0  0  0
   -6.2910   17.3980  -32.0030 C   0  0  0  0  0  0  0  0  0  0  0  0
   -7.0138   17.0199  -31.2651 H   0  0  0  0  0  0  0  0  0  0  0  0
   -5.7846   18.2951  -31.6174 H   0  0  0  0  0  0  0  0  0  0  0  0
   -5.2300   16.3090  -32.2770 C   0  0  0  0  0  0  0  0  0  0  0  0
   -5.7396   15.3364  -32.3431 H   0  0  0  0  0  0  0  0  0  0  0  0
   -4.5073   16.3484  -31.4487 H   0  0  0  0  0  0  0  0  0  0  0  0
   -4.4610   16.5250  -33.5380 N   0  0  2  0  0  0  0  0  0  0  0  0
   -4.8160   15.8430  -34.2490 H   0  0  0  0  0  0  0  0  0  0  0  0
   -3.0530   16.2490  -33.3630 C   0  0  0  0  0  0  0  0  0  0  0  0
   -2.6820   15.2340  -32.7050 O   0  0  0  0  0  0  0  0  0  0  0  0
   -2.1100   17.1660  -33.8430 O   0  0  0  0  0  0  0  0  0  0  0  0
   -1.5150   18.1800  -33.0330 C   0  0  0  0  0  0  0  0  0  0  0  0
   -0.4661   17.9147  -32.8344 H   0  0  0  0  0  0  0  0  0  0  0  0
   -2.0748   18.2531  -32.0889 H   0  0  0  0  0  0  0  0  0  0  0  0
   -1.5650   19.5320  -33.7400 C   0  0  0  0  0  0  0  0  0  0  0  0
   -1.5948   20.3367  -32.9907 H   0  0  0  0  0  0  0  0  0  0  0  0
   -0.6706   19.6499  -34.3694 H   0  0  0  0  0  0  0  0  0  0  0  0
   -2.4657   19.5836  -34.3694 H   0  0  0  0  0  0  0  0  0  0  0  0
   -4.6140   17.8760  -34.1190 C   0  0  0  0  0  0  0  0  0  0  0  0
   -4.0111   17.9459  -35.0364 H   0  0  0  0  0  0  0  0  0  0  0  0
   -4.2735   18.6201  -33.3839 H   0  0  0  0  0  0  0  0  0  0  0  0
   -6.0890   18.1520  -34.4600 C   0  0  0  0  0  0  0  0  0  0  0  0
   -6.3633   17.5649  -35.3489 H   0  0  0  0  0  0  0  0  0  0  0  0
   -6.1975   19.2309  -34.6448 H   0  0  0  0  0  0  0  0  0  0  0  0
   -6.5840   20.5340  -32.1810 C   0  0  0  0  0  0  0  0  0  0  0  0
   -5.7260   19.8640  -32.3387 H   0  0  0  0  0  0  0  0  0  0  0  0
   -6.4040   21.8030  -31.6120 C   0  0  0  0  0  0  0  0  0  0  0  0
   -5.2730   22.3380  -31.1130 N   0  0  0  0  0  0  0  0  0  0  0  0
   -3.9770   21.7200  -31.1170 C   0  0  0  0  0  0  0  0  0  0  0  0
   -3.7370   20.7940  -31.9430 O   0  0  0  0  0  0  0  0  0  0  0  0
   -2.9230   22.1280  -30.1670 C   0  0  0  0  0  0  0  0  0  0  0  0
   -2.8848   21.6400  -29.1819 H   0  0  0  0  0  0  0  0  0  0  0  0
   -2.0110   23.0670  -30.4530 C   0  0  0  0  0  0  0  0  0  0  0  0
   -2.0041   23.5251  -31.4530 H   0  0  0  0  0  0  0  0  0  0  0  0
   -1.0010   23.5050  -29.4380 C   0  0  0  0  0  0  0  0  0  0  0  0
   -0.8754   22.7111  -28.6871 H   0  0  0  0  0  0  0  0  0  0  0  0
   -0.0466   23.7001  -29.9489 H   0  0  0  0  0  0  0  0  0  0  0  0
   -1.4210   24.6820  -28.7990 O   0  0  0  0  0  0  0  0  0  0  0  0
   -2.3990   24.7560  -28.9480 H   0  0  0  0  0  0  0  0  0  0  0  0
  1  2  1  0
  2  3  1  0
  3  4  2  0
  3  5  1  0
  5  6  2  0
  6  7  1  0
  6  8  1  0
  8  9  2  0
  9 10  1  0
  9 11  1  0
 11 12  1  0
 11 13  2  0
 13 14  1  0
 14 15  1  0
 14 16  1  0
 16 17  1  6
 16 18  1  0
 18 19  1  0
 18 20  1  0
 18 21  1  0
 21 22  1  0
 21 23  1  0
 21 24  1  0
 24 25  1  6
 24 26  1  0
 26 27  2  0
 26 28  1  0
 28 29  1  0
 29 30  1  0
 29 31  1  0
 29 32  1  0
 32 33  1  0
 32 34  1  0
 32 35  1  0
 24 36  1  0
 36 37  1  0
 36 38  1  0
 36 39  1  0
 39 40  1  0
 39 41  1  0
 13 42  1  0
 42 43  1  0
 42 44  2  0
 44 45  1  0
 45 46  1  0
 46 47  2  0
 46 48  1  0
 48 49  1  0
 48 50  2  0
 50 51  1  0
 50 52  1  0
 52 53  1  0
 52 54  1  0
 52 55  1  0
 55 56  1  0
 45  5  1  0
 44  8  1  0
 39 16  1  0
M  CHG  2   2  -1  24   1
M  END
>  <UniqueID>  (28) 
28

>  <SMILES>  (28) 
CCOC(=O)[NH+]1CCC(Nc2ccc3cc(C([NH-])=O)n(C(=O)/C=C/CO)c3c2)CC1

>  <Energy>  (28) 
103.8993472791458

>  <Genealogy>  (28) 
CCOC(=O)[NH+]1CCC(Nc2ccc3cc(C([NH-])=O)n(C(=O)C=CCO)c3c2)CC1 (protonated)
CCOC(=O)[NH+]1CCC(Nc2ccc3cc(C([NH-])=O)n(C(=O)/C=C/CO)c3c2)CC1 (cis-trans isomerization)
CCOC(=O)[NH+]1CCC(Nc2ccc3cc(C([NH-])=O)n(C(=O)/C=C/CO)c3c2)CC1 (3D coordinates assigned)
CCOC(=O)[NH+]1CCC(Nc2ccc3cc(C([NH-])=O)n(C(=O)/C=C/CO)c3c2)CC1 (nonaromatic ring conformer: 103.8993472791458 kcal/mol)

>  <smiles>  (28) 
CCOC(=O)N1CCC(Nc2ccc3cc(C(N)=O)n(C(=O)C=CCO)c3c2)CC1

>  <score_type>  (28) 
oracle

>  <origin>  (28) 
adg

>  <m_score__min__energy>  (28) 
-10.640000000000001

>  <m_primary>  (28) 
energy

$$$$
28:0
     RDKit          3D

 41 43  0  0  0  0  0  0  0  0999 V2000
   -3.4840   26.0510  -31.2480 H   0  0  0  0  0  0  0  0  0  0  0  0
   -3.9230   25.2330  -30.7700 N   0  0  0  0  0  0  0  0  0  0  0  0
   -5.3350   25.1460  -30.6130 C   0  0  0  0  0  0  0  0  0  0  0  0
   -5.9620   26.1240  -30.1210 O   0  0  0  0  0  0  0  0  0  0  0  0
   -6.0720   23.9210  -30.9930 C   0  0  0  0  0  0  0  0  0  0  0  0
   -7.4600   23.8030  -30.9440 C   0  0  0  0  0  0  0  0  0  0  0  0
   -8.1850   24.5765  -30.6506 H   0  0  0  0  0  0  0  0  0  0  0  0
   -7.7310   22.5120  -31.3410 C   0  0  0  0  0  0  0  0  0  0  0  0
   -8.9470   21.8530  -31.4900 C   0  0  0  0  0  0  0  0  0  0  0  0
   -9.8968   22.3586  -31.2616 H   0  0  0  0  0  0  0  0  0  0  0  0
   -8.9260   20.5220  -31.9410 C   0  0  0  0  0  0  0  0  0  0  0  0
   -9.8714   19.9739  -32.0672 H   0  0  0  0  0  0  0  0  0  0  0  0
   -7.6950   19.8790  -32.2350 C   0  0  0  0  0  0  0  0  0  0  0  0
   -7.6750   18.4590  -32.7240 C   0  0  0  0  0  0  0  0  0  0  0  0
   -8.6855   18.1789  -33.0564 H   0  0  0  0  0  0  0  0  0  0  0  0
   -7.2760   17.6180  -31.7010 F   0  0  0  0  0  0  0  0  0  0  0  0
   -6.7910   18.3430  -33.7810 F   0  0  0  0  0  0  0  0  0  0  0  0
   -6.4810   20.5800  -32.0700 C   0  0  0  0  0  0  0  0  0  0  0  0
   -5.5171   20.1005  -32.2958 H   0  0  0  0  0  0  0  0  0  0  0  0
   -6.5360   21.9000  -31.6120 C   0  0  0  0  0  0  0  0  0  0  0  0
   -5.5120   22.7510  -31.4090 N   0  0  0  0  0  0  0  0  0  0  0  0
   -4.1250   22.4680  -31.6510 C   0  0  0  0  0  0  0  0  0  0  0  0
   -3.7200   22.3380  -32.8370 O   0  0  0  0  0  0  0  0  0  0  0  0
   -3.1550   22.3580  -30.5450 C   0  0  0  0  0  0  0  0  0  0  0  0
   -2.0871   22.5123  -30.7589 H   0  0  0  0  0  0  0  0  0  0  0  0
   -3.5280   22.0770  -29.2900 C   0  0  0  0  0  0  0  0  0  0  0  0
   -4.5948   21.9063  -29.0833 H   0  0  0  0  0  0  0  0  0  0  0  0
   -2.5620   21.9860  -28.1650 C   0  0  0  0  0  0  0  0  0  0  0  0
   -2.0730   20.7250  -27.7690 C   0  0  0  0  0  0  0  0  0  0  0  0
   -2.3858   19.8241  -28.3172 H   0  0  0  0  0  0  0  0  0  0  0  0
   -1.1970   20.6060  -26.6900 C   0  0  0  0  0  0  0  0  0  0  0  0
   -0.8154   19.6162  -26.3990 H   0  0  0  0  0  0  0  0  0  0  0  0
   -0.8050   21.7380  -25.9810 C   0  0  0  0  0  0  0  0  0  0  0  0
   -0.1167   21.6404  -25.1285 H   0  0  0  0  0  0  0  0  0  0  0  0
   -1.2830   22.9960  -26.3490 C   0  0  0  0  0  0  0  0  0  0  0  0
   -0.9752   23.8829  -25.7757 H   0  0  0  0  0  0  0  0  0  0  0  0
   -2.1560   23.1450  -27.4470 C   0  0  0  0  0  0  0  0  0  0  0  0
   -2.6560   24.5290  -27.8210 C   0  0  0  0  0  0  0  0  0  0  0  0
   -4.0240   24.5410  -28.0300 F   0  0  0  0  0  0  0  0  0  0  0  0
   -2.0350   24.9440  -28.9850 F   0  0  0  0  0  0  0  0  0  0  0  0
   -2.3750   25.4270  -26.8060 F   0  0  0  0  0  0  0  0  0  0  0  0
  1  2  1  0
  2  3  1  0
  3  4  2  0
  3  5  1  0
  5  6  2  0
  6  7  1  0
  6  8  1  0
  8  9  2  0
  9 10  1  0
  9 11  1  0
 11 12  1  0
 11 13  2  0
 13 14  1  0
 14 15  1  0
 14 16  1  0
 14 17  1  0
 13 18  1  0
 18 19  1  0
 18 20  2  0
 20 21  1  0
 21 22  1  0
 22 23  2  0
 22 24  1  0
 24 25  1  0
 24 26  2  0
 26 27  1  0
 26 28  1  0
 28 29  2  0
 29 30  1  0
 29 31  1  0
 31 32  1  0
 31 33  2  0
 33 34  1  0
 33 35  1  0
 35 36  1  0
 35 37  2  0
 37 38  1  0
 38 39  1  0
 38 40  1  0
 38 41  1  0
 21  5  1  0
 37 28  1  0
 20  8  1  0
M  CHG  1   2  -1
M  END
>  <UniqueID>  (29) 
29

>  <SMILES>  (29) 
[NH-]C(=O)c1cc2ccc(C(F)F)cc2n1C(=O)/C=C/c1ccccc1C(F)(F)F

>  <Energy>  (29) 
88.41633526493355

>  <Genealogy>  (29) 
[NH-]C(=O)c1cc2ccc(C(F)F)cc2n1C(=O)/C=C/c1ccccc1C(F)(F)F (protonated)
[NH-]C(=O)c1cc2ccc(C(F)F)cc2n1C(=O)/C=C/c1ccccc1C(F)(F)F (cis-trans isomerization)
[NH-]C(=O)c1cc2ccc(C(F)F)cc2n1C(=O)/C=C/c1ccccc1C(F)(F)F (3D coordinates assigned)
[NH-]C(=O)c1cc2ccc(C(F)F)cc2n1C(=O)/C=C/c1ccccc1C(F)(F)F (optimized conformer: 88.41633526493355 kcal/mol)

>  <smiles>  (29) 
NC(=O)c1cc2ccc(C(F)F)cc2n1C(=O)/C=C/c1ccccc1C(F)(F)F

>  <score_type>  (29) 
oracle

>  <origin>  (29) 
adg

>  <m_score__min__energy>  (29) 
-11.26

>  <m_primary>  (29) 
energy

$$$$
29:0
     RDKit          3D

 52 54  0  0  0  0  0  0  0  0999 V2000
   -8.9670   23.3780  -32.0770 C   0  0  0  0  0  0  0  0  0  0  0  0
   -9.5400   21.9610  -31.9290 C   0  0  0  0  0  0  0  0  0  0  0  0
   -8.5520   20.8720  -32.1210 N   0  0  0  0  0  0  0  0  0  0  0  0
   -9.1150   19.5270  -31.8870 C   0  0  0  0  0  0  0  0  0  0  0  0
   -8.1180   18.4590  -32.3520 C   0  0  0  0  0  0  0  0  0  0  0  0
   -6.7690   18.6250  -31.6260 C   0  0  0  0  0  0  0  0  0  0  0  0
   -5.7490   17.5920  -32.1420 C   0  0  0  0  0  0  0  0  0  0  0  0
   -4.4940   18.2300  -32.5470 N   0  0  0  0  0  0  0  0  0  0  0  0
   -4.3420   18.8390  -33.8350 C   0  0  0  0  0  0  0  0  0  0  0  0
   -5.3020   18.8430  -34.6510 O   0  0  0  0  0  0  0  0  0  0  0  0
   -3.0450   19.4870  -34.2180 C   0  0  0  0  0  0  0  0  0  0  0  0
   -2.4030   20.1320  -33.0220 C   0  0  0  0  0  0  0  0  0  0  0  0
   -1.2180   19.5830  -32.4730 C   0  0  0  0  0  0  0  0  0  0  0  0
   -0.6040   20.1770  -31.3570 C   0  0  0  0  0  0  0  0  0  0  0  0
   -1.2030   21.3070  -30.8090 C   0  0  0  0  0  0  0  0  0  0  0  0
   -0.8010   22.1000  -29.7590 C   0  0  0  0  0  0  0  0  0  0  0  0
   -1.7630   23.1020  -29.6610 C   0  0  0  0  0  0  0  0  0  0  0  0
   -1.7480   24.1390  -28.6080 C   0  0  0  0  0  0  0  0  0  0  0  0
   -1.7860   25.5250  -28.9390 N   0  0  0  0  0  0  0  0  0  0  0  0
   -1.7490   23.7940  -27.3960 O   0  0  0  0  0  0  0  0  0  0  0  0
   -2.7220   22.9400  -30.6170 N   0  0  0  0  0  0  0  0  0  0  0  0
   -3.8340   23.8010  -30.9090 C   0  0  0  0  0  0  0  0  0  0  0  0
   -4.8910   23.3270  -31.4020 O   0  0  0  0  0  0  0  0  0  0  0  0
   -3.7650   25.1580  -30.6240 O   0  0  0  0  0  0  0  0  0  0  0  0
   -2.3650   21.8350  -31.3110 C   0  0  0  0  0  0  0  0  0  0  0  0
   -2.9880   21.2730  -32.4300 C   0  0  0  0  0  0  0  0  0  0  0  0
   -6.2480   20.0670  -31.8050 C   0  0  0  0  0  0  0  0  0  0  0  0
   -7.3090   21.0770  -31.3520 C   0  0  0  0  0  0  0  0  0  0  0  0
   -8.7927   23.8090  -31.0801 H   0  0  0  0  0  0  0  0  0  0  0  0
   -8.0163   23.3333  -32.6285 H   0  0  0  0  0  0  0  0  0  0  0  0
   -9.6816   24.0067  -32.6285 H   0  0  0  0  0  0  0  0  0  0  0  0
   -9.9631   21.8660  -30.9181 H   0  0  0  0  0  0  0  0  0  0  0  0
  -10.2911   21.8440  -32.7241 H   0  0  0  0  0  0  0  0  0  0  0  0
   -9.3155   19.3967  -30.8133 H   0  0  0  0  0  0  0  0  0  0  0  0
  -10.0515   19.4214  -32.4542 H   0  0  0  0  0  0  0  0  0  0  0  0
   -8.5271   17.4619  -32.1316 H   0  0  0  0  0  0  0  0  0  0  0  0
   -7.9552   18.5724  -33.4340 H   0  0  0  0  0  0  0  0  0  0  0  0
   -6.9137   18.4432  -30.5508 H   0  0  0  0  0  0  0  0  0  0  0  0
   -5.5390   16.8670  -31.3418 H   0  0  0  0  0  0  0  0  0  0  0  0
   -6.1805   17.0918  -33.0216 H   0  0  0  0  0  0  0  0  0  0  0  0
   -3.6810   18.2430  -31.8910 H   0  0  0  0  0  0  0  0  0  0  0  0
   -2.3658   18.7236  -34.6253 H   0  0  0  0  0  0  0  0  0  0  0  0
   -3.2446   20.2607  -34.9740 H   0  0  0  0  0  0  0  0  0  0  0  0
   -0.7743   18.6834  -32.9244 H   0  0  0  0  0  0  0  0  0  0  0  0
    0.3209   19.7617  -30.9303 H   0  0  0  0  0  0  0  0  0  0  0  0
    0.0918   21.9699  -29.1298 H   0  0  0  0  0  0  0  0  0  0  0  0
   -2.6910   26.0470  -28.9680 H   0  0  0  0  0  0  0  0  0  0  0  0
   -3.9113   21.7091  -32.8391 H   0  0  0  0  0  0  0  0  0  0  0  0
   -5.3381   20.2015  -31.2016 H   0  0  0  0  0  0  0  0  0  0  0  0
   -6.0238   20.2367  -32.8685 H   0  0  0  0  0  0  0  0  0  0  0  0
   -7.5144   20.9357  -30.2806 H   0  0  0  0  0  0  0  0  0  0  0  0
   -6.9376   22.0977  -31.5256 H   0  0  0  0  0  0  0  0  0  0  0  0
  1  2  1  0
  2  3  1  0
  3  4  1  0
  4  5  1  0
  5  6  1  0
  6  7  1  0
  7  8  1  0
  8  9  1  0
  9 10  2  0
  9 11  1  0
 11 12  1  0
 12 13  2  0
 13 14  1  0
 14 15  2  0
 15 16  1  0
 16 17  2  0
 17 18  1  0
 18 19  1  0
 18 20  2  0
 17 21  1  0
 21 22  1  0
 22 23  2  0
 22 24  1  0
 21 25  1  0
 25 26  2  0
  6 27  1  0
 27 28  1  0
 28  3  1  0
 26 12  1  0
 25 15  1  0
  1 29  1  0
  1 30  1  0
  1 31  1  0
  2 32  1  0
  2 33  1  0
  4 34  1  0
  4 35  1  0
  5 36  1  0
  5 37  1  0
  6 38  1  0
  7 39  1  0
  7 40  1  0
  8 41  1  0
 11 42  1  0
 11 43  1  0
 13 44  1  0
 14 45  1  0
 16 46  1  0
 19 47  1  0
 26 48  1  0
 27 49  1  0
 27 50  1  0
 28 51  1  0
 28 52  1  0
M  CHG  2  19  -1  24  -1
M  END
>  <UniqueID>  (30) 
30

>  <SMILES>  (30) 
CCN1CCC(CNC(=O)Cc2ccc3cc(C([NH-])=O)n(C(=O)[O-])c3c2)CC1

>  <Energy>  (30) 
85.92743641408421

>  <Genealogy>  (30) 
CCN1CCC(CNC(=O)Cc2ccc3cc(C([NH-])=O)n(C(=O)[O-])c3c2)CC1 (protonated)
CCN1CCC(CNC(=O)Cc2ccc3cc(C([NH-])=O)n(C(=O)[O-])c3c2)CC1 (3D coordinates assigned)
CCN1CCC(CNC(=O)Cc2ccc3cc(C([NH-])=O)n(C(=O)[O-])c3c2)CC1 (nonaromatic ring conformer: 85.92743641408421 kcal/mol)

>  <smiles>  (30) 
CCN1CCC(CNC(=O)Cc2ccc3cc(C(N)=O)n(C(=O)O)c3c2)CC1

>  <score_type>  (30) 
oracle

>  <origin>  (30) 
adg

>  <m_score__min__energy>  (30) 
-12.48

>  <m_primary>  (30) 
energy

$$$$
30:0
     RDKit          3D

 56 57  0  0  0  0  0  0  0  0999 V2000
   -3.7230   18.1060  -33.5430 C   0  0  0  0  0  0  0  0  0  0  0  0
   -5.1110   17.6610  -33.7340 N   0  0  0  0  0  0  0  0  0  0  0  0
   -5.6860   18.1900  -34.9810 C   0  0  0  0  0  0  0  0  0  0  0  0
   -5.9730   17.8570  -32.5450 C   0  0  0  0  0  0  0  0  0  0  0  0
   -7.3730   18.4570  -32.8190 C   0  0  0  0  0  0  0  0  0  0  0  0
   -7.5150   19.8890  -32.3790 C   0  0  0  0  0  0  0  0  0  0  0  0
   -8.7960   20.4180  -32.0780 C   0  0  0  0  0  0  0  0  0  0  0  0
   -8.9370   21.7420  -31.6300 C   0  0  0  0  0  0  0  0  0  0  0  0
   -7.7830   22.5050  -31.4740 C   0  0  0  0  0  0  0  0  0  0  0  0
   -7.6340   23.7970  -31.0240 C   0  0  0  0  0  0  0  0  0  0  0  0
   -6.2610   24.0230  -31.0140 C   0  0  0  0  0  0  0  0  0  0  0  0
   -5.6510   25.2530  -30.4710 C   0  0  0  0  0  0  0  0  0  0  0  0
   -4.2810   25.5670  -30.7170 N   0  0  0  0  0  0  0  0  0  0  0  0
   -6.3290   25.9990  -29.7150 O   0  0  0  0  0  0  0  0  0  0  0  0
   -5.5850   22.9290  -31.4620 N   0  0  0  0  0  0  0  0  0  0  0  0
   -4.1660   22.7890  -31.6410 C   0  0  0  0  0  0  0  0  0  0  0  0
   -3.6840   22.6370  -32.7960 O   0  0  0  0  0  0  0  0  0  0  0  0
   -3.3230   22.8250  -30.5290 O   0  0  0  0  0  0  0  0  0  0  0  0
   -3.6610   22.2600  -29.2680 C   0  0  0  0  0  0  0  0  0  0  0  0
   -4.1450   23.3620  -28.3210 C   0  0  0  0  0  0  0  0  0  0  0  0
   -3.0540   23.8530  -27.3540 C   0  0  0  0  0  0  0  0  0  0  0  0
   -2.2550   25.0020  -27.9250 C   0  0  0  0  0  0  0  0  0  0  0  0
   -2.3760   25.2490  -29.1560 O   0  0  0  0  0  0  0  0  0  0  0  0
   -1.3550   25.8000  -27.1240 N   0  0  0  0  0  0  0  0  0  0  0  0
   -0.5500   26.8360  -27.7830 C   0  0  0  0  0  0  0  0  0  0  0  0
   -1.2930   25.6480  -25.6650 C   0  0  0  0  0  0  0  0  0  0  0  0
   -6.5340   22.0040  -31.7380 C   0  0  0  0  0  0  0  0  0  0  0  0
   -6.3680   20.6960  -32.2140 C   0  0  0  0  0  0  0  0  0  0  0  0
   -3.5051   18.1759  -32.4671 H   0  0  0  0  0  0  0  0  0  0  0  0
   -3.0384   17.3823  -34.0095 H   0  0  0  0  0  0  0  0  0  0  0  0
   -3.5868   19.0928  -34.0095 H   0  0  0  0  0  0  0  0  0  0  0  0
   -6.4760   18.9168  -34.7411 H   0  0  0  0  0  0  0  0  0  0  0  0
   -4.8978   18.6853  -35.5670 H   0  0  0  0  0  0  0  0  0  0  0  0
   -6.1140   17.3633  -35.5670 H   0  0  0  0  0  0  0  0  0  0  0  0
   -6.1138   16.8772  -32.0652 H   0  0  0  0  0  0  0  0  0  0  0  0
   -5.4508   18.5928  -31.9157 H   0  0  0  0  0  0  0  0  0  0  0  0
   -7.5672   18.4053  -33.9005 H   0  0  0  0  0  0  0  0  0  0  0  0
   -8.0948   17.8682  -32.2339 H   0  0  0  0  0  0  0  0  0  0  0  0
   -9.6880   19.7853  -32.1965 H   0  0  0  0  0  0  0  0  0  0  0  0
   -9.9290   22.1630  -31.4092 H   0  0  0  0  0  0  0  0  0  0  0  0
   -8.4292   24.4998  -30.7345 H   0  0  0  0  0  0  0  0  0  0  0  0
   -3.8690   26.4470  -30.3320 H   0  0  0  0  0  0  0  0  0  0  0  0
   -3.6510   24.8840  -31.1970 H   0  0  0  0  0  0  0  0  0  0  0  0
   -4.4606   21.5168  -29.4030 H   0  0  0  0  0  0  0  0  0  0  0  0
   -2.7733   21.7738  -28.8372 H   0  0  0  0  0  0  0  0  0  0  0  0
   -4.4874   24.2157  -28.9242 H   0  0  0  0  0  0  0  0  0  0  0  0
   -4.9548   22.9358  -27.7106 H   0  0  0  0  0  0  0  0  0  0  0  0
   -3.5321   24.1843  -26.4204 H   0  0  0  0  0  0  0  0  0  0  0  0
   -2.3612   23.0172  -27.1765 H   0  0  0  0  0  0  0  0  0  0  0  0
   -0.0633   27.4623  -27.0208 H   0  0  0  0  0  0  0  0  0  0  0  0
    0.2174   26.3599  -28.4110 H   0  0  0  0  0  0  0  0  0  0  0  0
   -1.2010   27.4620  -28.4110 H   0  0  0  0  0  0  0  0  0  0  0  0
   -1.6668   26.5643  -25.1847 H   0  0  0  0  0  0  0  0  0  0  0  0
   -1.9145   24.7937  -25.3586 H   0  0  0  0  0  0  0  0  0  0  0  0
   -0.2513   25.4721  -25.3586 H   0  0  0  0  0  0  0  0  0  0  0  0
   -5.3673   20.3072  -32.4535 H   0  0  0  0  0  0  0  0  0  0  0  0
  1  2  1  0
  2  3  1  0
  2  4  1  0
  4  5  1  0
  5  6  1  0
  6  7  2  0
  7  8  1  0
  8  9  2  0
  9 10  1  0
 10 11  2  0
 11 12  1  0
 12 13  1  0
 12 14  2  0
 11 15  1  0
 15 16  1  0
 16 17  2  0
 16 18  1  0
 18 19  1  0
 19 20  1  0
 20 21  1  0
 21 22  1  0
 22 23  2  0
 22 24  1  0
 24 25  1  0
 24 26  1  0
 15 27  1  0
 27 28  2  0
 28  6  1  0
 27  9  1  0
  1 29  1  0
  1 30  1  0
  1 31  1  0
  3 32  1  0
  3 33  1  0
  3 34  1  0
  4 35  1  0
  4 36  1  0
  5 37  1  0
  5 38  1  0
  7 39  1  0
  8 40  1  0
 10 41  1  0
 13 42  1  0
 13 43  1  0
 19 44  1  0
 19 45  1  0
 20 46  1  0
 20 47  1  0
 21 48  1  0
 21 49  1  0
 25 50  1  0
 25 51  1  0
 25 52  1  0
 26 53  1  0
 26 54  1  0
 26 55  1  0
 28 56  1  0
M  END
>  <UniqueID>  (31) 
31

>  <SMILES>  (31) 
CN(C)CCc1ccc2cc(C(N)=O)n(C(=O)OCCCC(=O)N(C)C)c2c1

>  <Energy>  (31) 
85.67087166841468

>  <Genealogy>  (31) 
CN(C)CCc1ccc2cc(C(N)=O)n(C(=O)OCCCC(=O)N(C)C)c2c1 (3D coordinates assigned)
CN(C)CCc1ccc2cc(C(N)=O)n(C(=O)OCCCC(=O)N(C)C)c2c1 (optimized conformer: 85.67087166841468 kcal/mol)

>  <smiles>  (31) 
CN(C)CCc1ccc2cc(C(N)=O)n(C(=O)OCCCC(=O)N(C)C)c2c1

>  <score_type>  (31) 
oracle

>  <origin>  (31) 
adg

>  <m_score__min__energy>  (31) 
-9.4700000000000006

>  <m_primary>  (31) 
energy

$$$$
31:0
     RDKit          3D

 41 44  0  0  0  0  0  0  0  0999 V2000
   -7.1440   14.8960  -34.2130 C   0  0  0  0  0  0  0  0  0  0  0  0
   -6.4720   16.1720  -34.0120 N   0  0  0  0  0  0  0  0  0  0  0  0
   -5.2530   16.5020  -34.4730 C   0  0  0  0  0  0  0  0  0  0  0  0
   -5.0020   17.8150  -34.1400 C   0  0  0  0  0  0  0  0  0  0  0  0
   -6.1460   18.2330  -33.4720 C   0  0  0  0  0  0  0  0  0  0  0  0
   -6.4090   19.5780  -32.9040 C   0  0  0  0  0  0  0  0  0  0  0  0
   -7.7390   20.0740  -32.8550 C   0  0  0  0  0  0  0  0  0  0  0  0
   -8.0170   21.3390  -32.3120 C   0  0  0  0  0  0  0  0  0  0  0  0
   -6.9530   22.0930  -31.8340 C   0  0  0  0  0  0  0  0  0  0  0  0
   -6.9420   23.3330  -31.2360 C   0  0  0  0  0  0  0  0  0  0  0  0
   -5.6030   23.5920  -30.9480 C   0  0  0  0  0  0  0  0  0  0  0  0
   -5.1290   24.8680  -30.3740 C   0  0  0  0  0  0  0  0  0  0  0  0
   -3.7780   25.2900  -30.5440 N   0  0  0  0  0  0  0  0  0  0  0  0
   -5.9380   25.6190  -29.7670 O   0  0  0  0  0  0  0  0  0  0  0  0
   -4.8200   22.5500  -31.3440 N   0  0  0  0  0  0  0  0  0  0  0  0
   -3.4080   22.3810  -31.1390 C   0  0  0  0  0  0  0  0  0  0  0  0
   -2.6280   22.3920  -32.1290 O   0  0  0  0  0  0  0  0  0  0  0  0
   -2.8950   22.2230  -29.8100 N   0  0  0  0  0  0  0  0  0  0  0  0
   -2.3080   23.2450  -28.9930 C   0  0  0  0  0  0  0  0  0  0  0  0
   -2.9710   23.7950  -27.8830 C   0  0  0  0  0  0  0  0  0  0  0  0
   -2.3600   24.8050  -27.1380 C   0  0  0  0  0  0  0  0  0  0  0  0
   -1.0980   25.2670  -27.5160 C   0  0  0  0  0  0  0  0  0  0  0  0
   -0.4790   24.7420  -28.6060 N   0  0  0  0  0  0  0  0  0  0  0  0
   -1.0540   23.7570  -29.3480 C   0  0  0  0  0  0  0  0  0  0  0  0
   -5.6600   21.6420  -31.8870 C   0  0  0  0  0  0  0  0  0  0  0  0
   -5.3530   20.3790  -32.4040 C   0  0  0  0  0  0  0  0  0  0  0  0
   -7.0280   17.2130  -33.4160 N   0  0  0  0  0  0  0  0  0  0  0  0
   -7.3799   14.4480  -33.2365 H   0  0  0  0  0  0  0  0  0  0  0  0
   -8.0745   15.0565  -34.7772 H   0  0  0  0  0  0  0  0  0  0  0  0
   -6.4852   14.2195  -34.7772 H   0  0  0  0  0  0  0  0  0  0  0  0
   -4.5715   15.8364  -35.0229 H   0  0  0  0  0  0  0  0  0  0  0  0
   -4.0969   18.4019  -34.3552 H   0  0  0  0  0  0  0  0  0  0  0  0
   -8.5623   19.4591  -33.2476 H   0  0  0  0  0  0  0  0  0  0  0  0
   -9.0474   21.7215  -32.2666 H   0  0  0  0  0  0  0  0  0  0  0  0
   -7.8062   23.9815  -31.0294 H   0  0  0  0  0  0  0  0  0  0  0  0
   -3.5320   26.0430  -31.2240 H   0  0  0  0  0  0  0  0  0  0  0  0
   -3.9699   23.4303  -27.6016 H   0  0  0  0  0  0  0  0  0  0  0  0
   -2.8681   25.2329  -26.2612 H   0  0  0  0  0  0  0  0  0  0  0  0
   -0.6041   26.0568  -26.9309 H   0  0  0  0  0  0  0  0  0  0  0  0
   -0.5312   23.3610  -30.2311 H   0  0  0  0  0  0  0  0  0  0  0  0
   -4.3148   20.0159  -32.4219 H   0  0  0  0  0  0  0  0  0  0  0  0
  1  2  1  0
  2  3  1  0
  3  4  2  0
  4  5  1  0
  5  6  1  0
  6  7  2  0
  7  8  1  0
  8  9  2  0
  9 10  1  0
 10 11  2  0
 11 12  1  0
 12 13  1  0
 12 14  2  0
 11 15  1  0
 15 16  1  0
 16 17  2  0
 16 18  1  0
 18 19  1  0
 19 20  2  0
 20 21  1  0
 21 22  2  0
 22 23  1  0
 23 24  2  0
 15 25  1  0
 25 26  2  0
  5 27  2  0
 27  2  1  0
 26  6  1  0
 25  9  1  0
 24 19  1  0
  1 28  1  0
  1 29  1  0
  1 30  1  0
  3 31  1  0
  4 32  1  0
  7 33  1  0
  8 34  1  0
 10 35  1  0
 13 36  1  0
 20 37  1  0
 21 38  1  0
 22 39  1  0
 24 40  1  0
 26 41  1  0
M  CHG  2  13  -1  18  -1
M  END
>  <UniqueID>  (32) 
32

>  <SMILES>  (32) 
Cn1ccc(-c2ccc3cc(C([NH-])=O)n(C(=O)[N-]c4cccnc4)c3c2)n1

>  <Energy>  (32) 
119.42163547454807

>  <Genealogy>  (32) 
Cn1ccc(-c2ccc3cc(C([NH-])=O)n(C(=O)[N-]c4cccnc4)c3c2)n1 (protonated)
Cn1ccc(-c2ccc3cc(C([NH-])=O)n(C(=O)[N-]c4cccnc4)c3c2)n1 (3D coordinates assigned)
Cn1ccc(-c2ccc3cc(C([NH-])=O)n(C(=O)[N-]c4cccnc4)c3c2)n1 (optimized conformer: 119.42163547454807 kcal/mol)

>  <smiles>  (32) 
Cn1ccc(-c2ccc3cc(C(N)=O)n(C(=O)Nc4cccnc4)c3c2)n1

>  <score_type>  (32) 
oracle

>  <origin>  (32) 
adg

>  <m_score__min__energy>  (32) 
-12.26

>  <m_primary>  (32) 
energy

$$$$
32:0
     RDKit          3D

 38 40  0  0  0  0  0  0  0  0999 V2000
   -6.8310   25.1230  -29.7390 C   0  0  0  0  0  0  0  0  0  0  0  0
   -6.3800   23.9390  -30.1680 C   0  0  0  0  0  0  0  0  0  0  0  0
   -7.3020   23.0240  -30.9110 C   0  0  0  0  0  0  0  0  0  0  0  0
   -5.0830   23.4830  -29.8790 O   0  0  0  0  0  0  0  0  0  0  0  0
   -3.8980   24.0060  -30.4140 C   0  0  0  0  0  0  0  0  0  0  0  0
   -3.8560   25.1880  -30.8500 O   0  0  0  0  0  0  0  0  0  0  0  0
   -2.7290   23.1750  -30.4850 N   0  0  0  0  0  0  0  0  0  0  0  0
   -1.5390   23.3400  -29.8400 C   0  0  0  0  0  0  0  0  0  0  0  0
   -1.1380   24.5180  -29.0410 C   0  0  0  0  0  0  0  0  0  0  0  0
   -1.9680   25.6730  -28.9700 N   0  0  0  0  0  0  0  0  0  0  0  0
   -0.0230   24.5220  -28.4530 O   0  0  0  0  0  0  0  0  0  0  0  0
   -0.6900   22.2680  -30.1020 C   0  0  0  0  0  0  0  0  0  0  0  0
   -1.3970   21.4380  -30.9420 C   0  0  0  0  0  0  0  0  0  0  0  0
   -1.0360   20.2210  -31.5090 C   0  0  0  0  0  0  0  0  0  0  0  0
   -1.9810   19.5660  -32.3170 C   0  0  0  0  0  0  0  0  0  0  0  0
   -3.2660   20.1280  -32.5370 C   0  0  0  0  0  0  0  0  0  0  0  0
   -4.2610   19.4200  -33.3840 C   0  0  0  0  0  0  0  0  0  0  0  0
   -3.9130   18.2690  -34.1060 C   0  0  0  0  0  0  0  0  0  0  0  0
   -4.8380   17.6390  -34.8730 N   0  0  0  0  0  0  0  0  0  0  0  0
   -6.1100   18.1040  -34.9600 C   0  0  0  0  0  0  0  0  0  0  0  0
   -6.4770   19.2170  -34.2730 N   0  0  0  0  0  0  0  0  0  0  0  0
   -5.5830   19.8790  -33.4900 C   0  0  0  0  0  0  0  0  0  0  0  0
   -3.5910   21.3690  -31.9390 C   0  0  0  0  0  0  0  0  0  0  0  0
   -2.6230   22.0080  -31.1570 C   0  0  0  0  0  0  0  0  0  0  0  0
   -6.1601   25.8018  -29.1921 H   0  0  0  0  0  0  0  0  0  0  0  0
   -7.8728   25.4179  -29.9332 H   0  0  0  0  0  0  0  0  0  0  0  0
   -7.8934   22.4371  -30.1928 H   0  0  0  0  0  0  0  0  0  0  0  0
   -7.9778   23.6187  -31.5432 H   0  0  0  0  0  0  0  0  0  0  0  0
   -6.7125   22.3437  -31.5432 H   0  0  0  0  0  0  0  0  0  0  0  0
   -2.9420   25.6590  -29.3440 H   0  0  0  0  0  0  0  0  0  0  0  0
    0.3299   22.1165  -29.7188 H   0  0  0  0  0  0  0  0  0  0  0  0
   -0.0421   19.7846  -31.3308 H   0  0  0  0  0  0  0  0  0  0  0  0
   -1.7216   18.6050  -32.7852 H   0  0  0  0  0  0  0  0  0  0  0  0
   -2.8871   17.8759  -34.0502 H   0  0  0  0  0  0  0  0  0  0  0  0
   -6.8449   17.5789  -35.5878 H   0  0  0  0  0  0  0  0  0  0  0  0
   -7.4560   19.5700  -34.3480 H   0  0  0  0  0  0  0  0  0  0  0  0
   -5.8973   20.7771  -32.9381 H   0  0  0  0  0  0  0  0  0  0  0  0
   -4.5830   21.8211  -32.0859 H   0  0  0  0  0  0  0  0  0  0  0  0
  1  2  2  0
  2  3  1  0
  2  4  1  0
  4  5  1  0
  5  6  2  0
  5  7  1  0
  7  8  1  0
  8  9  1  0
  9 10  1  0
  9 11  2  0
  8 12  2  0
 12 13  1  0
 13 14  2  0
 14 15  1  0
 15 16  2  0
 16 17  1  0
 17 18  2  0
 18 19  1  0
 19 20  2  0
 20 21  1  0
 21 22  2  0
 16 23  1  0
 23 24  2  0
 24  7  1  0
 24 13  1  0
 22 17  1  0
  1 25  1  0
  1 26  1  0
  3 27  1  0
  3 28  1  0
  3 29  1  0
 10 30  1  0
 12 31  1  0
 14 32  1  0
 15 33  1  0
 18 34  1  0
 20 35  1  0
 21 36  1  0
 22 37  1  0
 23 38  1  0
M  CHG  2  10  -1  21   1
M  END
>  <UniqueID>  (33) 
33

>  <SMILES>  (33) 
C=C(C)OC(=O)n1c(C([NH-])=O)cc2ccc(-c3cnc[nH+]c3)cc21

>  <Energy>  (33) 
87.60123555534486

>  <Genealogy>  (33) 
C=C(C)OC(=O)n1c(C([NH-])=O)cc2ccc(-c3cnc[nH+]c3)cc21 (protonated)
C=C(C)OC(=O)n1c(C([NH-])=O)cc2ccc(-c3cnc[nH+]c3)cc21 (3D coordinates assigned)
C=C(C)OC(=O)n1c(C([NH-])=O)cc2ccc(-c3cnc[nH+]c3)cc21 (optimized conformer: 87.60123555534486 kcal/mol)

>  <smiles>  (33) 
C=C(C)OC(=O)n1c(C(N)=O)cc2ccc(-c3cncnc3)cc21

>  <score_type>  (33) 
oracle

>  <origin>  (33) 
adg

>  <m_score__min__energy>  (33) 
-10.33

>  <m_primary>  (33) 
energy

$$$$
33:0
     RDKit          3D

 61 65  0  0  0  0  0  0  0  0999 V2000
   -6.5030   16.9070  -34.1780 N   0  0  0  0  0  0  0  0  0  0  0  0
   -5.3590   17.5950  -34.6850 C   0  0  0  0  0  0  0  0  0  0  0  0
   -5.0180   17.4260  -35.8870 O   0  0  0  0  0  0  0  0  0  0  0  0
   -4.6530   18.5990  -33.8680 C   0  0  0  0  0  0  0  0  0  0  0  0
   -3.3960   19.1000  -34.1950 C   0  0  0  0  0  0  0  0  0  0  0  0
   -3.0590   19.9390  -33.1570 C   0  0  0  0  0  0  0  0  0  0  0  0
   -1.9200   20.7130  -32.9650 C   0  0  0  0  0  0  0  0  0  0  0  0
   -1.8560   21.5170  -31.8130 C   0  0  0  0  0  0  0  0  0  0  0  0
   -2.9220   21.5280  -30.8740 C   0  0  0  0  0  0  0  0  0  0  0  0
   -2.8770   22.4290  -29.6930 C   0  0  0  0  0  0  0  0  0  0  0  0
   -3.7740   22.2400  -28.6250 C   0  0  0  0  0  0  0  0  0  0  0  0
   -3.7530   23.0930  -27.5210 C   0  0  0  0  0  0  0  0  0  0  0  0
   -2.8210   24.1390  -27.4530 C   0  0  0  0  0  0  0  0  0  0  0  0
   -2.8010   25.0250  -26.2750 C   0  0  0  0  0  0  0  0  0  0  0  0
   -3.9040   25.3760  -25.7730 O   0  0  0  0  0  0  0  0  0  0  0  0
   -1.5670   25.4690  -25.6730 N   0  0  0  0  0  0  0  0  0  0  0  0
   -0.3540   24.6460  -25.7890 C   0  0  0  0  0  0  0  0  0  0  0  0
    0.8980   25.4920  -25.5180 C   0  0  0  0  0  0  0  0  0  0  0  0
    0.7770   26.2050  -24.3010 O   0  0  0  0  0  0  0  0  0  0  0  0
   -0.2750   27.1440  -24.4040 C   0  0  0  0  0  0  0  0  0  0  0  0
   -1.6250   26.4350  -24.5680 C   0  0  0  0  0  0  0  0  0  0  0  0
   -1.9240   24.3350  -28.5140 C   0  0  0  0  0  0  0  0  0  0  0  0
   -1.9560   23.4930  -29.6300 C   0  0  0  0  0  0  0  0  0  0  0  0
   -4.0480   20.7000  -31.0940 C   0  0  0  0  0  0  0  0  0  0  0  0
   -4.0850   19.9120  -32.2490 C   0  0  0  0  0  0  0  0  0  0  0  0
   -5.0720   19.0890  -32.6680 N   0  0  0  0  0  0  0  0  0  0  0  0
   -6.2160   18.6920  -31.8950 C   0  0  0  0  0  0  0  0  0  0  0  0
   -6.2190   17.5950  -31.2810 O   0  0  0  0  0  0  0  0  0  0  0  0
   -7.3370   19.5260  -31.8460 O   0  0  0  0  0  0  0  0  0  0  0  0
   -7.3870   20.8040  -32.4780 C   0  0  0  0  0  0  0  0  0  0  0  0
   -6.7130   21.8780  -31.6070 C   0  0  0  0  0  0  0  0  0  0  0  0
   -6.6190   23.2540  -32.2680 C   0  0  0  0  0  0  0  0  0  0  0  0
   -7.5290   23.8300  -31.1890 C   0  0  0  0  0  0  0  0  0  0  0  0
   -7.6090   22.4630  -30.5160 C   0  0  0  0  0  0  0  0  0  0  0  0
   -6.9430   17.1810  -33.2710 H   0  0  0  0  0  0  0  0  0  0  0  0
   -6.9800   16.1830  -34.7600 H   0  0  0  0  0  0  0  0  0  0  0  0
   -2.7996   18.8738  -35.0912 H   0  0  0  0  0  0  0  0  0  0  0  0
   -1.0944   20.6969  -33.6918 H   0  0  0  0  0  0  0  0  0  0  0  0
   -0.9701   22.1448  -31.6369 H   0  0  0  0  0  0  0  0  0  0  0  0
   -4.4979   21.4126  -28.6610 H   0  0  0  0  0  0  0  0  0  0  0  0
   -4.4704   22.9445  -26.7005 H   0  0  0  0  0  0  0  0  0  0  0  0
   -0.4018   23.8257  -25.0576 H   0  0  0  0  0  0  0  0  0  0  0  0
   -0.2954   24.2409  -26.8100 H   0  0  0  0  0  0  0  0  0  0  0  0
    1.7741   24.8293  -25.4606 H   0  0  0  0  0  0  0  0  0  0  0  0
    1.0146   26.2164  -26.3375 H   0  0  0  0  0  0  0  0  0  0  0  0
   -0.2994   27.7594  -23.4926 H   0  0  0  0  0  0  0  0  0  0  0  0
   -0.0988   27.7747  -25.2878 H   0  0  0  0  0  0  0  0  0  0  0  0
   -1.8712   25.9049  -23.6361 H   0  0  0  0  0  0  0  0  0  0  0  0
   -2.3968   27.1861  -24.7918 H   0  0  0  0  0  0  0  0  0  0  0  0
   -1.1921   25.1549  -28.4677 H   0  0  0  0  0  0  0  0  0  0  0  0
   -1.2582   23.6625  -30.4632 H   0  0  0  0  0  0  0  0  0  0  0  0
   -4.8772   20.6765  -30.3716 H   0  0  0  0  0  0  0  0  0  0  0  0
   -6.8667   20.7472  -33.4455 H   0  0  0  0  0  0  0  0  0  0  0  0
   -8.4415   21.0818  -32.6225 H   0  0  0  0  0  0  0  0  0  0  0  0
   -5.8012   21.3247  -31.3377 H   0  0  0  0  0  0  0  0  0  0  0  0
   -5.6052   23.6807  -32.2761 H   0  0  0  0  0  0  0  0  0  0  0  0
   -6.8664   23.3799  -33.3324 H   0  0  0  0  0  0  0  0  0  0  0  0
   -7.0549   24.6066  -30.5708 H   0  0  0  0  0  0  0  0  0  0  0  0
   -8.4487   24.3653  -31.4674 H   0  0  0  0  0  0  0  0  0  0  0  0
   -7.1693   22.4315  -29.5082 H   0  0  0  0  0  0  0  0  0  0  0  0
   -8.5849   22.0077  -30.2916 H   0  0  0  0  0  0  0  0  0  0  0  0
  1  2  1  0
  2  3  2  0
  2  4  1  0
  4  5  2  0
  5  6  1  0
  6  7  2  0
  7  8  1  0
  8  9  2  0
  9 10  1  0
 10 11  2  0
 11 12  1  0
 12 13  2  0
 13 14  1  0
 14 15  2  0
 14 16  1  0
 16 17  1  0
 17 18  1  0
 18 19  1  0
 19 20  1  0
 20 21  1  0
 13 22  1  0
 22 23  2  0
  9 24  1  0
 24 25  2  0
 25 26  1  0
 26 27  1  0
 27 28  2  0
 27 29  1  0
 29 30  1  0
 30 31  1  0
 31 32  1  0
 32 33  1  0
 33 34  1  0
 26  4  1  0
 34 31  1  0
 25  6  1  0
 23 10  1  0
 21 16  1  0
  1 35  1  0
  1 36  1  0
  5 37  1  0
  7 38  1  0
  8 39  1  0
 11 40  1  0
 12 41  1  0
 17 42  1  0
 17 43  1  0
 18 44  1  0
 18 45  1  0
 20 46  1  0
 20 47  1  0
 21 48  1  0
 21 49  1  0
 22 50  1  0
 23 51  1  0
 24 52  1  0
 30 53  1  0
 30 54  1  0
 31 55  1  0
 32 56  1  0
 32 57  1  0
 33 58  1  0
 33 59  1  0
 34 60  1  0
 34 61  1  0
M  END
>  <UniqueID>  (34) 
34

>  <SMILES>  (34) 
NC(=O)c1cc2ccc(-c3ccc(C(=O)N4CCOCC4)cc3)cc2n1C(=O)OCC1CCC1

>  <Energy>  (34) 
176.38593602182658

>  <Genealogy>  (34) 
NC(=O)c1cc2ccc(-c3ccc(C(=O)N4CCOCC4)cc3)cc2n1C(=O)OCC1CCC1 (3D coordinates assigned)
NC(=O)c1cc2ccc(-c3ccc(C(=O)N4CCOCC4)cc3)cc2n1C(=O)OCC1CCC1 (nonaromatic ring conformer: 176.38593602182658 kcal/mol)

>  <smiles>  (34) 
NC(=O)c1cc2ccc(-c3ccc(C(=O)N4CCOCC4)cc3)cc2n1C(=O)OCC1CCC1

>  <score_type>  (34) 
oracle

>  <origin>  (34) 
adg

>  <m_score__min__energy>  (34) 
-10.210000000000001

>  <m_primary>  (34) 
energy

$$$$
34:0
     RDKit          3D

 61 63  0  0  0  0  0  0  0  0999 V2000
   -0.2640   26.4560  -27.4020 C   0  0  0  0  0  0  0  0  0  0  0  0
   -0.3070   27.8120  -27.0070 O   0  0  0  0  0  0  0  0  0  0  0  0
   -0.8770   27.9070  -25.7180 C   0  0  0  0  0  0  0  0  0  0  0  0
   -1.5970   26.6040  -25.3900 C   0  0  0  0  0  0  0  0  0  0  0  0
   -1.1720   26.1420  -24.1250 O   0  0  0  0  0  0  0  0  0  0  0  0
   -0.0390   25.3130  -24.2820 C   0  0  0  0  0  0  0  0  0  0  0  0
   -0.4940   23.8850  -24.5950 C   0  0  0  0  0  0  0  0  0  0  0  0
   -0.8900   23.7590  -25.9480 O   0  0  0  0  0  0  0  0  0  0  0  0
   -0.4250   22.5510  -26.5250 C   0  0  0  0  0  0  0  0  0  0  0  0
   -1.3260   22.1720  -27.7010 C   0  0  0  0  0  0  0  0  0  0  0  0
   -1.2810   23.4070  -28.9950 S   0  0  0  0  0  0  0  0  0  0  0  0
    0.1350   23.8760  -29.1810 O   0  0  0  0  0  0  0  0  0  0  0  0
   -2.1320   24.5850  -28.6070 O   0  0  0  0  0  0  0  0  0  0  0  0
   -1.8950   22.7250  -30.5300 C   0  0  0  0  0  0  0  0  0  0  0  0
   -3.0850   21.8310  -30.3080 C   0  0  0  0  0  0  0  0  0  0  0  0
   -2.9470   20.7700  -29.6390 O   0  0  0  0  0  0  0  0  0  0  0  0
   -4.3650   22.1370  -30.8940 N   0  0  0  0  0  0  0  0  0  0  0  0
   -5.1270   23.2500  -30.6880 C   0  0  0  0  0  0  0  0  0  0  0  0
   -4.7330   24.4440  -29.9110 C   0  0  0  0  0  0  0  0  0  0  0  0
   -3.8770   25.4220  -30.5010 N   0  0  0  0  0  0  0  0  0  0  0  0
   -5.1290   24.6110  -28.7280 O   0  0  0  0  0  0  0  0  0  0  0  0
   -6.3580   23.1260  -31.3320 C   0  0  0  0  0  0  0  0  0  0  0  0
   -6.3330   21.8910  -31.9350 C   0  0  0  0  0  0  0  0  0  0  0  0
   -7.3160   21.2380  -32.6690 C   0  0  0  0  0  0  0  0  0  0  0  0
   -7.0460   19.9350  -33.1180 C   0  0  0  0  0  0  0  0  0  0  0  0
   -5.8060   19.3050  -32.8220 C   0  0  0  0  0  0  0  0  0  0  0  0
   -5.5350   17.9280  -33.3060 C   0  0  0  0  0  0  0  0  0  0  0  0
   -6.5750   16.9790  -33.3360 C   0  0  0  0  0  0  0  0  0  0  0  0
   -6.3420   15.6830  -33.8000 C   0  0  0  0  0  0  0  0  0  0  0  0
   -5.0710   15.3160  -34.2450 C   0  0  0  0  0  0  0  0  0  0  0  0
   -4.8510   14.0570  -34.6990 F   0  0  0  0  0  0  0  0  0  0  0  0
   -4.0240   16.2450  -34.2180 C   0  0  0  0  0  0  0  0  0  0  0  0
   -2.7880   15.8830  -34.6440 F   0  0  0  0  0  0  0  0  0  0  0  0
   -4.2500   17.5440  -33.7470 C   0  0  0  0  0  0  0  0  0  0  0  0
   -3.2050   18.4100  -33.6860 F   0  0  0  0  0  0  0  0  0  0  0  0
   -4.8330   20.0070  -32.0750 C   0  0  0  0  0  0  0  0  0  0  0  0
   -5.1200   21.3120  -31.6560 C   0  0  0  0  0  0  0  0  0  0  0  0
   -0.2437   25.8144  -26.5088 H   0  0  0  0  0  0  0  0  0  0  0  0
   -1.1551   26.2205  -28.0024 H   0  0  0  0  0  0  0  0  0  0  0  0
    0.6403   26.2775  -28.0024 H   0  0  0  0  0  0  0  0  0  0  0  0
   -0.0836   28.0852  -24.9773 H   0  0  0  0  0  0  0  0  0  0  0  0
   -1.5934   28.7413  -25.6917 H   0  0  0  0  0  0  0  0  0  0  0  0
   -2.6829   26.7787  -25.3717 H   0  0  0  0  0  0  0  0  0  0  0  0
   -1.3621   25.8501  -26.1558 H   0  0  0  0  0  0  0  0  0  0  0  0
    0.5804   25.6905  -25.1090 H   0  0  0  0  0  0  0  0  0  0  0  0
    0.5503   25.3159  -23.3532 H   0  0  0  0  0  0  0  0  0  0  0  0
    0.3376   23.1923  -24.3985 H   0  0  0  0  0  0  0  0  0  0  0  0
   -1.3569   23.6464  -23.9558 H   0  0  0  0  0  0  0  0  0  0  0  0
    0.6065   22.6876  -26.8817 H   0  0  0  0  0  0  0  0  0  0  0  0
   -0.4475   21.7503  -25.7710 H   0  0  0  0  0  0  0  0  0  0  0  0
   -0.9872   21.2105  -28.1141 H   0  0  0  0  0  0  0  0  0  0  0  0
   -2.3596   22.1004  -27.3315 H   0  0  0  0  0  0  0  0  0  0  0  0
   -2.1892   23.5510  -31.1941 H   0  0  0  0  0  0  0  0  0  0  0  0
   -1.0934   22.1215  -30.9808 H   0  0  0  0  0  0  0  0  0  0  0  0
   -2.8410   25.3050  -30.4890 H   0  0  0  0  0  0  0  0  0  0  0  0
   -7.1760   23.8612  -31.3529 H   0  0  0  0  0  0  0  0  0  0  0  0
   -8.2760   21.7267  -32.8914 H   0  0  0  0  0  0  0  0  0  0  0  0
   -7.8030   19.3952  -33.7058 H   0  0  0  0  0  0  0  0  0  0  0  0
   -7.5804   17.2615  -32.9906 H   0  0  0  0  0  0  0  0  0  0  0  0
   -7.1617   14.9497  -33.8149 H   0  0  0  0  0  0  0  0  0  0  0  0
   -3.8694   19.5376  -31.8277 H   0  0  0  0  0  0  0  0  0  0  0  0
  1  2  1  0
  2  3  1  0
  3  4  1  0
  4  5  1  0
  5  6  1  0
  6  7  1  0
  7  8  1  0
  8  9  1  0
  9 10  1  0
 10 11  1  0
 11 12  2  0
 11 13  2  0
 11 14  1  0
 14 15  1  0
 15 16  2  0
 15 17  1  0
 17 18  1  0
 18 19  1  0
 19 20  1  0
 19 21  2  0
 18 22  2  0
 22 23  1  0
 23 24  2  0
 24 25  1  0
 25 26  2  0
 26 27  1  0
 27 28  2  0
 28 29  1  0
 29 30  2  0
 30 31  1  0
 30 32  1  0
 32 33  1  0
 32 34  2  0
 34 35  1  0
 26 36  1  0
 36 37  2  0
 37 17  1  0
 37 23  1  0
 34 27  1  0
  1 38  1  0
  1 39  1  0
  1 40  1  0
  3 41  1  0
  3 42  1  0
  4 43  1  0
  4 44  1  0
  6 45  1  0
  6 46  1  0
  7 47  1  0
  7 48  1  0
  9 49  1  0
  9 50  1  0
 10 51  1  0
 10 52  1  0
 14 53  1  0
 14 54  1  0
 20 55  1  0
 22 56  1  0
 24 57  1  0
 25 58  1  0
 28 59  1  0
 29 60  1  0
 36 61  1  0
M  CHG  1  20  -1
M  END
>  <UniqueID>  (35) 
35

>  <SMILES>  (35) 
COCCOCCOCCS(=O)(=O)CC(=O)n1c(C([NH-])=O)cc2ccc(-c3ccc(F)c(F)c3F)cc21

>  <Energy>  (35) 
99.90752004499404

>  <Genealogy>  (35) 
COCCOCCOCCS(=O)(=O)CC(=O)n1c(C([NH-])=O)cc2ccc(-c3ccc(F)c(F)c3F)cc21 (protonated)
COCCOCCOCCS(=O)(=O)CC(=O)n1c(C([NH-])=O)cc2ccc(-c3ccc(F)c(F)c3F)cc21 (3D coordinates assigned)
COCCOCCOCCS(=O)(=O)CC(=O)n1c(C([NH-])=O)cc2ccc(-c3ccc(F)c(F)c3F)cc21 (optimized conformer: 99.90752004499404 kcal/mol)

>  <smiles>  (35) 
COCCOCCOCCS(=O)(=O)CC(=O)n1c(C(N)=O)cc2ccc(-c3ccc(F)c(F)c3F)cc21

>  <score_type>  (35) 
oracle

>  <origin>  (35) 
adg

>  <m_score__min__energy>  (35) 
-12.029999999999999

>  <m_primary>  (35) 
energy

$$$$
35:0
     RDKit          3D

 48 50  0  0  0  0  0  0  0  0999 V2000
   -1.9160   25.2260  -27.7940 C   0  0  0  0  0  0  0  0  0  0  0  0
   -1.6740   24.9750  -29.1610 O   0  0  0  0  0  0  0  0  0  0  0  0
   -0.7820   23.8860  -29.3110 C   0  0  0  0  0  0  0  0  0  0  0  0
   -1.5280   22.6620  -29.8470 C   0  0  0  0  0  0  0  0  0  0  0  0
   -2.8910   22.9830  -30.1100 O   0  0  0  0  0  0  0  0  0  0  0  0
   -3.5950   22.5040  -31.2220 C   0  0  0  0  0  0  0  0  0  0  0  0
   -2.9800   21.9470  -32.1720 O   0  0  0  0  0  0  0  0  0  0  0  0
   -5.0220   22.6510  -31.2820 N   0  0  0  0  0  0  0  0  0  0  0  0
   -5.7740   23.6670  -30.7720 C   0  0  0  0  0  0  0  0  0  0  0  0
   -5.2510   24.9150  -30.1820 C   0  0  0  0  0  0  0  0  0  0  0  0
   -3.8530   25.2080  -30.1870 N   0  0  0  0  0  0  0  0  0  0  0  0
   -6.0570   25.7650  -29.7170 O   0  0  0  0  0  0  0  0  0  0  0  0
   -7.1310   23.4010  -30.9260 C   0  0  0  0  0  0  0  0  0  0  0  0
   -7.1910   22.1830  -31.5660 C   0  0  0  0  0  0  0  0  0  0  0  0
   -8.2950   21.4400  -31.9680 C   0  0  0  0  0  0  0  0  0  0  0  0
   -8.0660   20.2010  -32.5860 C   0  0  0  0  0  0  0  0  0  0  0  0
   -6.7430   19.7130  -32.7740 C   0  0  0  0  0  0  0  0  0  0  0  0
   -6.4690   18.3900  -33.4710 C   0  0  1  0  0  0  0  0  0  0  0  0
   -6.0760   18.5530  -34.9490 C   0  0  0  0  0  0  0  0  0  0  0  0
   -5.4570   17.5290  -32.6870 C   0  0  0  0  0  0  0  0  0  0  0  0
   -4.1250   17.5380  -33.2910 N   0  0  0  0  0  0  0  0  0  0  0  0
   -3.5380   16.5740  -34.0200 C   0  0  0  0  0  0  0  0  0  0  0  0
   -2.3000   16.9450  -34.4000 N   0  0  0  0  0  0  0  0  0  0  0  0
   -2.0880   18.1570  -33.9070 N   0  0  0  0  0  0  0  0  0  0  0  0
   -3.1980   18.5110  -33.2330 C   0  0  0  0  0  0  0  0  0  0  0  0
   -5.6490   20.5090  -32.3610 C   0  0  0  0  0  0  0  0  0  0  0  0
   -5.9070   21.7510  -31.7690 C   0  0  0  0  0  0  0  0  0  0  0  0
   -1.2814   24.5678  -27.1824 H   0  0  0  0  0  0  0  0  0  0  0  0
   -1.6811   26.2763  -27.5669 H   0  0  0  0  0  0  0  0  0  0  0  0
   -2.9742   25.0296  -27.5669 H   0  0  0  0  0  0  0  0  0  0  0  0
    0.0150   24.1636  -30.0166 H   0  0  0  0  0  0  0  0  0  0  0  0
   -0.3470   23.6406  -28.3309 H   0  0  0  0  0  0  0  0  0  0  0  0
   -1.0492   22.3257  -30.7785 H   0  0  0  0  0  0  0  0  0  0  0  0
   -1.4904   21.8637  -29.0911 H   0  0  0  0  0  0  0  0  0  0  0  0
   -3.1790   24.6140  -30.7170 H   0  0  0  0  0  0  0  0  0  0  0  0
   -3.4980   26.0760  -29.7270 H   0  0  0  0  0  0  0  0  0  0  0  0
   -7.9752   24.0291  -30.6052 H   0  0  0  0  0  0  0  0  0  0  0  0
   -9.3175   21.8121  -31.8065 H   0  0  0  0  0  0  0  0  0  0  0  0
   -8.9205   19.5994  -32.9295 H   0  0  0  0  0  0  0  0  0  0  0  0
   -7.4239   17.8440  -33.4784 H   0  0  0  0  0  0  0  0  0  0  0  0
   -5.0617   18.9737  -35.0145 H   0  0  0  0  0  0  0  0  0  0  0  0
   -6.0985   17.5713  -35.4448 H   0  0  0  0  0  0  0  0  0  0  0  0
   -6.7867   19.2306  -35.4448 H   0  0  0  0  0  0  0  0  0  0  0  0
   -5.3816   17.9199  -31.6615 H   0  0  0  0  0  0  0  0  0  0  0  0
   -5.8218   16.4913  -32.6995 H   0  0  0  0  0  0  0  0  0  0  0  0
   -4.0056   15.6109  -34.2727 H   0  0  0  0  0  0  0  0  0  0  0  0
   -3.3294   19.4674  -32.7057 H   0  0  0  0  0  0  0  0  0  0  0  0
   -4.6158   20.1589  -32.5023 H   0  0  0  0  0  0  0  0  0  0  0  0
  1  2  1  0
  2  3  1  0
  3  4  1  0
  4  5  1  0
  5  6  1  0
  6  7  2  0
  6  8  1  0
  8  9  1  0
  9 10  1  0
 10 11  1  0
 10 12  2  0
  9 13  2  0
 13 14  1  0
 14 15  2  0
 15 16  1  0
 16 17  2  0
 17 18  1  0
 18 19  1  0
 18 20  1  0
 20 21  1  0
 21 22  1  0
 22 23  2  0
 23 24  1  0
 24 25  2  0
 17 26  1  0
 26 27  2  0
 27  8  1  0
 27 14  1  0
 25 21  1  0
  1 28  1  0
  1 29  1  0
  1 30  1  0
  3 31  1  0
  3 32  1  0
  4 33  1  0
  4 34  1  0
 11 35  1  0
 11 36  1  0
 13 37  1  0
 15 38  1  0
 16 39  1  0
 18 40  1  6
 19 41  1  0
 19 42  1  0
 19 43  1  0
 20 44  1  0
 20 45  1  0
 22 46  1  0
 25 47  1  0
 26 48  1  0
M  END
>  <UniqueID>  (36) 
36

>  <SMILES>  (36) 
COCCOC(=O)n1c(C(N)=O)cc2ccc([C@@H](C)Cn3cnnc3)cc21

>  <Energy>  (36) 
119.40677269947248

>  <Genealogy>  (36) 
COCCOC(=O)n1c(C(N)=O)cc2ccc([C@@H](C)Cn3cnnc3)cc21 (chirality)
COCCOC(=O)n1c(C(N)=O)cc2ccc([C@@H](C)Cn3cnnc3)cc21 (3D coordinates assigned)
COCCOC(=O)n1c(C(N)=O)cc2ccc([C@@H](C)Cn3cnnc3)cc21 (optimized conformer: 119.40677269947248 kcal/mol)

>  <smiles>  (36) 
COCCOC(=O)n1c(C(N)=O)cc2ccc(C(C)Cn3cnnc3)cc21

>  <score_type>  (36) 
oracle

>  <origin>  (36) 
adg

>  <m_score__min__energy>  (36) 
-8.1099999999999994

>  <m_primary>  (36) 
energy

$$$$
36:0
     RDKit          3D

 75 77  0  0  0  0  0  0  0  0999 V2000
   -5.3160   23.4270  -29.1630 C   0  0  0  0  0  0  0  0  0  0  0  0
   -5.2220   24.8660  -29.6850 C   0  0  0  0  0  0  0  0  0  0  0  0
   -6.5130   25.6270  -29.3840 C   0  0  0  0  0  0  0  0  0  0  0  0
   -5.0140   24.8650  -31.0970 O   0  0  0  0  0  0  0  0  0  0  0  0
   -5.4040   23.8220  -31.9440 C   0  0  0  0  0  0  0  0  0  0  0  0
   -4.5820   22.9260  -32.2910 O   0  0  0  0  0  0  0  0  0  0  0  0
   -6.8140   23.7870  -32.4520 C   0  0  0  0  0  0  0  0  0  0  0  0
   -7.7550   22.9990  -31.5260 C   0  0  0  0  0  0  0  0  0  0  0  0
   -7.7430   21.5130  -31.8000 C   0  0  0  0  0  0  0  0  0  0  0  0
   -8.8180   20.7030  -31.3510 C   0  0  0  0  0  0  0  0  0  0  0  0
   -8.8190   19.3180  -31.5830 C   0  0  0  0  0  0  0  0  0  0  0  0
   -7.7320   18.7690  -32.2530 C   0  0  0  0  0  0  0  0  0  0  0  0
   -7.4450   17.4540  -32.5380 C   0  0  0  0  0  0  0  0  0  0  0  0
   -6.1990   17.4760  -33.1560 C   0  0  0  0  0  0  0  0  0  0  0  0
   -5.5020   16.2650  -33.6310 C   0  0  0  0  0  0  0  0  0  0  0  0
   -4.1020   16.0840  -33.4020 N   0  0  0  0  0  0  0  0  0  0  0  0
   -6.1350   15.4050  -34.2930 O   0  0  0  0  0  0  0  0  0  0  0  0
   -5.7280   18.7520  -33.2530 N   0  0  0  0  0  0  0  0  0  0  0  0
   -4.4010   19.1560  -33.6360 C   0  0  0  0  0  0  0  0  0  0  0  0
   -3.7430   18.4460  -34.4450 O   0  0  0  0  0  0  0  0  0  0  0  0
   -3.8400   20.3690  -33.1200 N   0  0  0  0  0  0  0  0  0  0  0  0
   -3.0870   20.4650  -31.9050 C   0  0  0  0  0  0  0  0  0  0  0  0
   -1.6970   20.3110  -31.9370 C   0  0  0  0  0  0  0  0  0  0  0  0
   -0.9650   20.4310  -30.7510 C   0  0  0  0  0  0  0  0  0  0  0  0
   -1.6220   20.7020  -29.5410 C   0  0  0  0  0  0  0  0  0  0  0  0
   -0.8350   20.8580  -28.2670 C   0  0  0  0  0  0  0  0  0  0  0  0
   -1.5310   21.6690  -27.3480 O   0  0  0  0  0  0  0  0  0  0  0  0
   -0.7080   23.1670  -26.9790 Si  0  0  0  0  0  4  0  0  0  0  0  0
    1.0200   23.3480  -27.6980 C   0  0  0  0  0  0  0  0  0  0  0  0
   -0.5040   23.2280  -25.1170 C   0  0  0  0  0  0  0  0  0  0  0  0
   -1.8010   24.6150  -27.5630 C   0  0  0  0  0  0  0  0  0  0  0  0
   -3.1320   24.6020  -26.7880 C   0  0  0  0  0  0  0  0  0  0  0  0
   -2.0870   24.4850  -29.0700 C   0  0  0  0  0  0  0  0  0  0  0  0
   -1.0690   25.9400  -27.2900 C   0  0  0  0  0  0  0  0  0  0  0  0
   -3.0140   20.8680  -29.5560 C   0  0  0  0  0  0  0  0  0  0  0  0
   -3.7050   20.7420  -30.7200 N   0  0  0  0  0  0  0  0  0  0  0  0
   -6.6840   19.5350  -32.7010 C   0  0  0  0  0  0  0  0  0  0  0  0
   -6.6600   20.9200  -32.4920 C   0  0  0  0  0  0  0  0  0  0  0  0
   -5.3155   23.4352  -28.0630 H   0  0  0  0  0  0  0  0  0  0  0  0
   -6.2462   22.9654  -29.5258 H   0  0  0  0  0  0  0  0  0  0  0  0
   -4.4537   22.8483  -29.5258 H   0  0  0  0  0  0  0  0  0  0  0  0
   -4.3759   25.3570  -29.1819 H   0  0  0  0  0  0  0  0  0  0  0  0
   -6.6468   25.7058  -28.2950 H   0  0  0  0  0  0  0  0  0  0  0  0
   -6.4546   26.6351  -29.8202 H   0  0  0  0  0  0  0  0  0  0  0  0
   -7.3667   25.0877  -29.8202 H   0  0  0  0  0  0  0  0  0  0  0  0
   -7.1845   24.8194  -32.5354 H   0  0  0  0  0  0  0  0  0  0  0  0
   -6.8047   23.2801  -33.4282 H   0  0  0  0  0  0  0  0  0  0  0  0
   -7.4431   23.1662  -30.4845 H   0  0  0  0  0  0  0  0  0  0  0  0
   -8.7775   23.3599  -31.7108 H   0  0  0  0  0  0  0  0  0  0  0  0
   -9.6601   21.1652  -30.8151 H   0  0  0  0  0  0  0  0  0  0  0  0
   -9.6543   18.6871  -31.2449 H   0  0  0  0  0  0  0  0  0  0  0  0
   -8.0679   16.5732  -32.3230 H   0  0  0  0  0  0  0  0  0  0  0  0
   -3.6460   15.1770  -33.6360 H   0  0  0  0  0  0  0  0  0  0  0  0
   -3.5150   16.8560  -33.0070 H   0  0  0  0  0  0  0  0  0  0  0  0
   -1.1841   20.0974  -32.8864 H   0  0  0  0  0  0  0  0  0  0  0  0
    0.1285   20.3126  -30.7669 H   0  0  0  0  0  0  0  0  0  0  0  0
   -0.6699   19.8662  -27.8207 H   0  0  0  0  0  0  0  0  0  0  0  0
    0.1277   21.3356  -28.5020 H   0  0  0  0  0  0  0  0  0  0  0  0
    1.7514   23.4246  -26.8799 H   0  0  0  0  0  0  0  0  0  0  0  0
    1.2533   22.4694  -28.3173 H   0  0  0  0  0  0  0  0  0  0  0  0
    1.0662   24.2559  -28.3173 H   0  0  0  0  0  0  0  0  0  0  0  0
   -1.4513   22.9447  -24.6349 H   0  0  0  0  0  0  0  0  0  0  0  0
    0.2868   22.5270  -24.8116 H   0  0  0  0  0  0  0  0  0  0  0  0
   -0.2278   24.2480  -24.8116 H   0  0  0  0  0  0  0  0  0  0  0  0
   -2.9270   24.6040  -25.7073 H   0  0  0  0  0  0  0  0  0  0  0  0
   -3.7185   25.4945  -27.0516 H   0  0  0  0  0  0  0  0  0  0  0  0
   -3.7010   23.6983  -27.0516 H   0  0  0  0  0  0  0  0  0  0  0  0
   -3.0794   24.0339  -29.2173 H   0  0  0  0  0  0  0  0  0  0  0  0
   -2.0646   25.4817  -29.5348 H   0  0  0  0  0  0  0  0  0  0  0  0
   -1.3213   23.8465  -29.5348 H   0  0  0  0  0  0  0  0  0  0  0  0
   -0.9835   26.0947  -26.2043 H   0  0  0  0  0  0  0  0  0  0  0  0
   -0.0638   25.9021  -27.7352 H   0  0  0  0  0  0  0  0  0  0  0  0
   -1.6362   26.7707  -27.7352 H   0  0  0  0  0  0  0  0  0  0  0  0
   -3.5486   21.1009  -28.6233 H   0  0  0  0  0  0  0  0  0  0  0  0
   -5.8210   21.5310  -32.8563 H   0  0  0  0  0  0  0  0  0  0  0  0
  1  2  1  0
  2  3  1  0
  2  4  1  0
  4  5  1  0
  5  6  2  0
  5  7  1  0
  7  8  1  0
  8  9  1  0
  9 10  2  0
 10 11  1  0
 11 12  2  0
 12 13  1  0
 13 14  2  0
 14 15  1  0
 15 16  1  0
 15 17  2  0
 14 18  1  0
 18 19  1  0
 19 20  2  0
 19 21  1  0
 21 22  1  0
 22 23  2  0
 23 24  1  0
 24 25  2  0
 25 26  1  0
 26 27  1  0
 27 28  1  0
 28 29  1  0
 28 30  1  0
 28 31  1  0
 31 32  1  0
 31 33  1  0
 31 34  1  0
 25 35  1  0
 35 36  2  0
 18 37  1  0
 37 38  2  0
 38  9  1  0
 37 12  1  0
 36 22  1  0
  1 39  1  0
  1 40  1  0
  1 41  1  0
  2 42  1  0
  3 43  1  0
  3 44  1  0
  3 45  1  0
  7 46  1  0
  7 47  1  0
  8 48  1  0
  8 49  1  0
 10 50  1  0
 11 51  1  0
 13 52  1  0
 16 53  1  0
 16 54  1  0
 23 55  1  0
 24 56  1  0
 26 57  1  0
 26 58  1  0
 29 59  1  0
 29 60  1  0
 29 61  1  0
 30 62  1  0
 30 63  1  0
 30 64  1  0
 32 65  1  0
 32 66  1  0
 32 67  1  0
 33 68  1  0
 33 69  1  0
 33 70  1  0
 34 71  1  0
 34 72  1  0
 34 73  1  0
 35 74  1  0
 38 75  1  0
M  CHG  1  21  -1
M  END
>  <UniqueID>  (37) 
37

>  <SMILES>  (37) 
CC(C)OC(=O)CCc1ccc2cc(C(N)=O)n(C(=O)[N-]c3ccc(CO[Si](C)(C)C(C)(C)C)cn3)c2c1

>  <Energy>  (37) 
93.66917244037175

>  <Genealogy>  (37) 
CC(C)OC(=O)CCc1ccc2cc(C(N)=O)n(C(=O)[N-]c3ccc(CO[Si](C)(C)C(C)(C)C)cn3)c2c1 (protonated)
CC(C)OC(=O)CCc1ccc2cc(C(N)=O)n(C(=O)[N-]c3ccc(CO[Si](C)(C)C(C)(C)C)cn3)c2c1 (3D coordinates assigned)
CC(C)OC(=O)CCc1ccc2cc(C(N)=O)n(C(=O)[N-]c3ccc(CO[Si](C)(C)C(C)(C)C)cn3)c2c1 (optimized conformer: 93.66917244037175 kcal/mol)

>  <smiles>  (37) 
CC(C)OC(=O)CCc1ccc2cc(C(N)=O)n(C(=O)Nc3ccc(CO[Si](C)(C)C(C)(C)C)cn3)c2c1

>  <score_type>  (37) 
oracle

>  <origin>  (37) 
adg

>  <m_score__min__energy>  (37) 
-12.15

>  <m_primary>  (37) 
energy

$$$$
37:0
     RDKit          3D

 41 42  0  0  0  0  0  0  0  0999 V2000
   -2.4350   21.1690  -30.0560 C   0  0  0  0  0  0  0  0  0  0  0  0
   -3.0520   22.3370  -30.2790 C   0  0  0  0  0  0  0  0  0  0  0  0
   -2.8760   23.4390  -29.3690 N   0  0  0  0  0  0  0  0  0  0  0  0
   -3.5680   23.5660  -28.1180 C   0  0  0  0  0  0  0  0  0  0  0  0
   -4.4950   22.7650  -27.8140 O   0  0  0  0  0  0  0  0  0  0  0  0
   -3.2250   24.6130  -27.2570 O   0  0  0  0  0  0  0  0  0  0  0  0
   -1.8820   24.9130  -26.8860 C   0  0  0  0  0  0  0  0  0  0  0  0
   -1.0890   25.3300  -28.0840 C   0  0  0  0  0  0  0  0  0  0  0  0
   -1.6080   26.0640  -28.9660 O   0  0  0  0  0  0  0  0  0  0  0  0
    0.2260   24.9060  -28.2260 O   0  0  0  0  0  0  0  0  0  0  0  0
   -3.8830   22.5230  -31.4940 C   0  0  0  0  0  0  0  0  0  0  0  0
   -3.3510   22.5230  -32.6390 O   0  0  0  0  0  0  0  0  0  0  0  0
   -5.3030   22.6900  -31.3890 N   0  0  0  0  0  0  0  0  0  0  0  0
   -5.9850   23.7990  -30.9890 C   0  0  0  0  0  0  0  0  0  0  0  0
   -5.3870   25.1110  -30.6650 C   0  0  0  0  0  0  0  0  0  0  0  0
   -3.9720   25.2870  -30.6340 N   0  0  0  0  0  0  0  0  0  0  0  0
   -6.1340   26.0970  -30.4280 O   0  0  0  0  0  0  0  0  0  0  0  0
   -7.3550   23.5390  -30.9560 C   0  0  0  0  0  0  0  0  0  0  0  0
   -7.4870   22.2250  -31.3450 C   0  0  0  0  0  0  0  0  0  0  0  0
   -8.6270   21.4390  -31.4910 C   0  0  0  0  0  0  0  0  0  0  0  0
   -8.4600   20.1050  -31.9040 C   0  0  0  0  0  0  0  0  0  0  0  0
   -7.1650   19.5820  -32.1490 C   0  0  0  0  0  0  0  0  0  0  0  0
   -6.9980   18.1620  -32.6210 C   0  0  0  0  0  0  0  0  0  0  0  0
   -6.1310   18.1010  -33.8770 C   0  0  0  0  0  0  0  0  0  0  0  0
   -6.2970   19.2520  -34.6280 F   0  0  0  0  0  0  0  0  0  0  0  0
   -6.5000   17.0090  -34.6410 F   0  0  0  0  0  0  0  0  0  0  0  0
   -6.0320   20.4110  -31.9950 C   0  0  0  0  0  0  0  0  0  0  0  0
   -6.2320   21.7360  -31.5940 C   0  0  0  0  0  0  0  0  0  0  0  0
   -2.5739   20.3313  -30.7553 H   0  0  0  0  0  0  0  0  0  0  0  0
   -1.7895   21.0476  -29.1736 H   0  0  0  0  0  0  0  0  0  0  0  0
   -2.2920   24.2510  -29.6660 H   0  0  0  0  0  0  0  0  0  0  0  0
   -1.8836   25.7307  -26.1502 H   0  0  0  0  0  0  0  0  0  0  0  0
   -1.4232   24.0129  -26.4510 H   0  0  0  0  0  0  0  0  0  0  0  0
   -3.4960   25.6620  -29.7840 H   0  0  0  0  0  0  0  0  0  0  0  0
   -8.1593   24.2360  -30.6781 H   0  0  0  0  0  0  0  0  0  0  0  0
   -9.6277   21.8489  -31.2895 H   0  0  0  0  0  0  0  0  0  0  0  0
   -9.3420   19.4615  -32.0382 H   0  0  0  0  0  0  0  0  0  0  0  0
   -6.5200   17.5722  -31.8250 H   0  0  0  0  0  0  0  0  0  0  0  0
   -7.9908   17.7532  -32.8603 H   0  0  0  0  0  0  0  0  0  0  0  0
   -5.0769   18.0107  -33.5758 H   0  0  0  0  0  0  0  0  0  0  0  0
   -5.0196   20.0251  -32.1853 H   0  0  0  0  0  0  0  0  0  0  0  0
  1  2  2  0
  2  3  1  0
  3  4  1  0
  4  5  2  0
  4  6  1  0
  6  7  1  0
  7  8  1  0
  8  9  2  0
  8 10  1  0
  2 11  1  0
 11 12  2  0
 11 13  1  0
 13 14  1  0
 14 15  1  0
 15 16  1  0
 15 17  2  0
 14 18  2  0
 18 19  1  0
 19 20  2  0
 20 21  1  0
 21 22  2  0
 22 23  1  0
 23 24  1  0
 24 25  1  0
 24 26  1  0
 22 27  1  0
 27 28  2  0
 28 13  1  0
 28 19  1  0
  1 29  1  0
  1 30  1  0
  3 31  1  0
  7 32  1  0
  7 33  1  0
 16 34  1  0
 18 35  1  0
 20 36  1  0
 21 37  1  0
 23 38  1  0
 23 39  1  0
 24 40  1  0
 27 41  1  0
M  CHG  2  10  -1  16  -1
M  END
>  <UniqueID>  (38) 
38

>  <SMILES>  (38) 
C=C(NC(=O)OCC(=O)[O-])C(=O)n1c(C([NH-])=O)cc2ccc(CC(F)F)cc21

>  <Energy>  (38) 
78.61608222479772

>  <Genealogy>  (38) 
C=C(NC(=O)OCC(=O)[O-])C(=O)n1c(C([NH-])=O)cc2ccc(CC(F)F)cc21 (protonated)
C=C(NC(=O)OCC(=O)[O-])C(=O)n1c(C([NH-])=O)cc2ccc(CC(F)F)cc21 (3D coordinates assigned)
C=C(NC(=O)OCC(=O)[O-])C(=O)n1c(C([NH-])=O)cc2ccc(CC(F)F)cc21 (optimized conformer: 78.61608222479772 kcal/mol)

>  <smiles>  (38) 
C=C(NC(=O)OCC(=O)O)C(=O)n1c(C(N)=O)cc2ccc(CC(F)F)cc21

>  <score_type>  (38) 
oracle

>  <origin>  (38) 
adg

>  <m_score__min__energy>  (38) 
-12.42

>  <m_primary>  (38) 
energy

$$$$
38:0
     RDKit          3D

 39 41  0  0  0  0  0  0  0  0999 V2000
   -9.8040   21.2100  -31.9510 C   0  0  0  0  0  0  0  0  0  0  0  0
   -9.4700   20.0360  -32.4850 C   0  0  0  0  0  0  0  0  0  0  0  0
   -8.2840   19.2710  -32.0550 C   0  0  0  0  0  0  0  0  0  0  0  0
   -8.4430   18.2920  -31.2790 O   0  0  0  0  0  0  0  0  0  0  0  0
   -6.9570   19.6170  -32.4890 N   0  0  0  0  0  0  0  0  0  0  0  0
   -6.1280   18.9140  -33.3120 C   0  0  0  0  0  0  0  0  0  0  0  0
   -6.3900   17.5690  -33.8630 C   0  0  0  0  0  0  0  0  0  0  0  0
   -7.0970   16.5810  -33.1110 N   0  0  0  0  0  0  0  0  0  0  0  0
   -5.9460   17.2720  -35.0040 O   0  0  0  0  0  0  0  0  0  0  0  0
   -4.9620   19.6360  -33.5600 C   0  0  0  0  0  0  0  0  0  0  0  0
   -5.0940   20.8010  -32.8360 C   0  0  0  0  0  0  0  0  0  0  0  0
   -4.2370   21.8930  -32.7290 C   0  0  0  0  0  0  0  0  0  0  0  0
   -4.6440   22.9730  -31.9300 C   0  0  0  0  0  0  0  0  0  0  0  0
   -5.8840   22.9350  -31.2360 C   0  0  0  0  0  0  0  0  0  0  0  0
   -6.3700   24.1200  -30.4390 C   0  0  2  0  0  0  0  0  0  0  0  0
   -5.6410   25.4380  -30.6640 C   0  0  0  0  0  0  0  0  0  0  0  0
   -5.4520   24.6950  -29.3470 C   0  0  2  0  0  0  0  0  0  0  0  0
   -4.0420   24.1810  -29.1710 C   0  0  0  0  0  0  0  0  0  0  0  0
   -3.8310   23.1360  -28.5050 O   0  0  0  0  0  0  0  0  0  0  0  0
   -2.9170   24.9170  -29.6680 N   0  0  0  0  0  0  0  0  0  0  0  0
   -1.6540   25.0620  -28.9580 C   0  0  0  0  0  0  0  0  0  0  0  0
   -6.7440   21.8280  -31.4090 C   0  0  0  0  0  0  0  0  0  0  0  0
   -6.3050   20.7610  -32.1980 C   0  0  0  0  0  0  0  0  0  0  0  0
  -10.6990   21.7414  -32.3068 H   0  0  0  0  0  0  0  0  0  0  0  0
   -9.1848   21.6479  -31.1543 H   0  0  0  0  0  0  0  0  0  0  0  0
  -10.1055   19.6193  -33.2803 H   0  0  0  0  0  0  0  0  0  0  0  0
   -7.3330   15.6630  -33.5490 H   0  0  0  0  0  0  0  0  0  0  0  0
   -7.2980   16.7130  -32.0970 H   0  0  0  0  0  0  0  0  0  0  0  0
   -4.1164   19.3391  -34.1978 H   0  0  0  0  0  0  0  0  0  0  0  0
   -3.2707   21.9090  -33.2544 H   0  0  0  0  0  0  0  0  0  0  0  0
   -3.9967   23.8578  -31.8400 H   0  0  0  0  0  0  0  0  0  0  0  0
   -7.4160   23.7804  -30.4644 H   0  0  0  0  0  0  0  0  0  0  0  0
   -4.8140   25.4905  -31.3874 H   0  0  0  0  0  0  0  0  0  0  0  0
   -5.9509   26.4566  -30.9405 H   0  0  0  0  0  0  0  0  0  0  0  0
   -5.6087   24.8621  -28.2711 H   0  0  0  0  0  0  0  0  0  0  0  0
   -1.8383   25.0408  -27.8738 H   0  0  0  0  0  0  0  0  0  0  0  0
   -0.9823   24.2351  -29.2319 H   0  0  0  0  0  0  0  0  0  0  0  0
   -1.1872   26.0196  -29.2319 H   0  0  0  0  0  0  0  0  0  0  0  0
   -7.7359   21.8061  -30.9340 H   0  0  0  0  0  0  0  0  0  0  0  0
  1  2  2  0
  2  3  1  0
  3  4  2  0
  3  5  1  0
  5  6  1  0
  6  7  1  0
  7  8  1  0
  7  9  2  0
  6 10  2  0
 10 11  1  0
 11 12  2  0
 12 13  1  0
 13 14  2  0
 14 15  1  0
 15 16  1  0
 16 17  1  0
 17 18  1  0
 18 19  2  0
 18 20  1  0
 20 21  1  0
 14 22  1  0
 22 23  2  0
 23  5  1  0
 23 11  1  0
 17 15  1  0
  1 24  1  0
  1 25  1  0
  2 26  1  0
  8 27  1  0
  8 28  1  0
 10 29  1  0
 12 30  1  0
 13 31  1  0
 15 32  1  1
 16 33  1  0
 16 34  1  0
 17 35  1  1
 21 36  1  0
 21 37  1  0
 21 38  1  0
 22 39  1  0
M  CHG  1  20  -1
M  END
>  <UniqueID>  (39) 
39

>  <SMILES>  (39) 
C=CC(=O)n1c(C(N)=O)cc2ccc([C@@H]3C[C@@H]3C(=O)[N-]C)cc21

>  <Energy>  (39) 
346.46606045583536

>  <Genealogy>  (39) 
C=CC(=O)n1c(C(N)=O)cc2ccc(C3CC3C(=O)[N-]C)cc21 (protonated)
C=CC(=O)n1c(C(N)=O)cc2ccc([C@@H]3C[C@@H]3C(=O)[N-]C)cc21 (chirality)
C=CC(=O)n1c(C(N)=O)cc2ccc([C@@H]3C[C@@H]3C(=O)[N-]C)cc21 (3D coordinates assigned)
C=CC(=O)n1c(C(N)=O)cc2ccc([C@@H]3C[C@@H]3C(=O)[N-]C)cc21 (nonaromatic ring conformer: 346.46606045583536 kcal/mol)

>  <smiles>  (39) 
C=CC(=O)n1c(C(N)=O)cc2ccc(C3CC3C(=O)NC)cc21

>  <score_type>  (39) 
oracle

>  <origin>  (39) 
adg

>  <m_score__min__energy>  (39) 
-9.7100000000000009

>  <m_primary>  (39) 
energy

$$$$
39:0
     RDKit          3D

 43 46  0  0  0  0  0  0  0  0999 V2000
   -1.2270   23.2280  -30.0660 N   0  0  0  0  0  0  0  0  0  0  0  0
   -0.8480   21.8760  -30.3280 C   0  0  0  0  0  0  0  0  0  0  0  0
    0.2430   21.4460  -29.8680 O   0  0  0  0  0  0  0  0  0  0  0  0
   -1.7370   20.9770  -31.0970 C   0  0  0  0  0  0  0  0  0  0  0  0
   -1.3290   19.7620  -31.6430 C   0  0  0  0  0  0  0  0  0  0  0  0
   -2.4130   19.2960  -32.3490 C   0  0  0  0  0  0  0  0  0  0  0  0
   -2.5700   18.1180  -33.0740 C   0  0  0  0  0  0  0  0  0  0  0  0
   -3.8160   17.8750  -33.6750 C   0  0  0  0  0  0  0  0  0  0  0  0
   -4.8740   18.8090  -33.5440 C   0  0  0  0  0  0  0  0  0  0  0  0
   -6.2220   18.5100  -34.1400 C   0  0  0  0  0  0  0  0  0  0  0  0
   -7.2940   18.7380  -33.1200 C   0  0  0  0  0  0  0  0  0  0  0  0
   -8.0050   17.7680  -32.4120 C   0  0  0  0  0  0  0  0  0  0  0  0
   -8.8190   18.3450  -31.4930 N   0  0  0  0  0  0  0  0  0  0  0  0
   -8.6100   19.6660  -31.6120 C   0  0  0  0  0  0  0  0  0  0  0  0
   -9.1720   20.6500  -30.8680 N   0  0  0  0  0  0  0  0  0  0  0  0
   -8.7980   21.9410  -31.1170 C   0  0  0  0  0  0  0  0  0  0  0  0
   -7.8400   22.2230  -32.1230 C   0  0  0  0  0  0  0  0  0  0  0  0
   -7.2900   21.2030  -32.8480 N   0  0  0  0  0  0  0  0  0  0  0  0
   -7.6940   19.9380  -32.5790 C   0  0  0  0  0  0  0  0  0  0  0  0
   -4.6810   19.9890  -32.7940 C   0  0  0  0  0  0  0  0  0  0  0  0
   -3.4250   20.2120  -32.2180 C   0  0  0  0  0  0  0  0  0  0  0  0
   -3.0250   21.2500  -31.4500 N   0  0  0  0  0  0  0  0  0  0  0  0
   -3.8310   22.3670  -31.0390 C   0  0  0  0  0  0  0  0  0  0  0  0
   -4.2910   23.1640  -31.9010 O   0  0  0  0  0  0  0  0  0  0  0  0
   -4.0880   22.5750  -29.6790 O   0  0  0  0  0  0  0  0  0  0  0  0
   -4.4190   23.8480  -29.1300 C   0  0  0  0  0  0  0  0  0  0  0  0
   -3.5760   24.9180  -29.7490 C   0  0  0  0  0  0  0  0  0  0  0  0
   -3.9610   25.5040  -30.7950 O   0  0  0  0  0  0  0  0  0  0  0  0
   -2.3550   25.2570  -29.1790 O   0  0  0  0  0  0  0  0  0  0  0  0
   -2.0930   23.6390  -30.4780 H   0  0  0  0  0  0  0  0  0  0  0  0
   -0.6100   23.8420  -29.4890 H   0  0  0  0  0  0  0  0  0  0  0  0
   -0.3474   19.2779  -31.5327 H   0  0  0  0  0  0  0  0  0  0  0  0
   -1.7432   17.3992  -33.1732 H   0  0  0  0  0  0  0  0  0  0  0  0
   -3.9721   16.9518  -34.2524 H   0  0  0  0  0  0  0  0  0  0  0  0
   -6.3936   19.1704  -35.0028 H   0  0  0  0  0  0  0  0  0  0  0  0
   -6.2489   17.4591  -34.4638 H   0  0  0  0  0  0  0  0  0  0  0  0
   -7.9173   16.6839  -32.5766 H   0  0  0  0  0  0  0  0  0  0  0  0
   -9.4530   17.8630  -30.8180 H   0  0  0  0  0  0  0  0  0  0  0  0
   -9.2414   22.7628  -30.5355 H   0  0  0  0  0  0  0  0  0  0  0  0
   -7.5392   23.2625  -32.3202 H   0  0  0  0  0  0  0  0  0  0  0  0
   -5.4972   20.7151  -32.6654 H   0  0  0  0  0  0  0  0  0  0  0  0
   -5.4797   24.0629  -29.3268 H   0  0  0  0  0  0  0  0  0  0  0  0
   -4.2321   23.8287  -28.0462 H   0  0  0  0  0  0  0  0  0  0  0  0
  1  2  1  0
  2  3  2  0
  2  4  1  0
  4  5  2  0
  5  6  1  0
  6  7  2  0
  7  8  1  0
  8  9  2  0
  9 10  1  0
 10 11  1  0
 11 12  2  0
 12 13  1  0
 13 14  1  0
 14 15  2  0
 15 16  1  0
 16 17  2  0
 17 18  1  0
 18 19  2  0
  9 20  1  0
 20 21  2  0
 21 22  1  0
 22 23  1  0
 23 24  2  0
 23 25  1  0
 25 26  1  0
 26 27  1  0
 27 28  2  0
 27 29  1  0
 22  4  1  0
 21  6  1  0
 19 11  1  0
 19 14  1  0
  1 30  1  0
  1 31  1  0
  5 32  1  0
  7 33  1  0
  8 34  1  0
 10 35  1  0
 10 36  1  0
 12 37  1  0
 13 38  1  0
 16 39  1  0
 17 40  1  0
 20 41  1  0
 26 42  1  0
 26 43  1  0
M  CHG  1  29  -1
M  END
>  <UniqueID>  (40) 
40

>  <SMILES>  (40) 
NC(=O)c1cc2ccc(Cc3c[nH]c4nccnc34)cc2n1C(=O)OCC(=O)[O-]

>  <Energy>  (40) 
119.70879996413137

>  <Genealogy>  (40) 
NC(=O)c1cc2ccc(Cc3c[nH]c4nccnc34)cc2n1C(=O)OCC(=O)[O-] (protonated)
NC(=O)c1cc2ccc(Cc3c[nH]c4nccnc34)cc2n1C(=O)OCC(=O)[O-] (3D coordinates assigned)
NC(=O)c1cc2ccc(Cc3c[nH]c4nccnc34)cc2n1C(=O)OCC(=O)[O-] (optimized conformer: 119.70879996413137 kcal/mol)

>  <smiles>  (40) 
NC(=O)c1cc2ccc(Cc3c[nH]c4nccnc34)cc2n1C(=O)OCC(=O)O

>  <score_type>  (40) 
oracle

>  <origin>  (40) 
adg

>  <m_score__min__energy>  (40) 
-11.529999999999999

>  <m_primary>  (40) 
energy

$$$$
40:0
     RDKit          3D

 46 47  0  0  0  0  0  0  0  0999 V2000
   -3.5670   18.5940  -33.4970 C   0  0  0  0  0  0  0  0  0  0  0  0
   -4.7700   17.9030  -33.1820 O   0  0  0  0  0  0  0  0  0  0  0  0
   -5.9980   18.2300  -33.7630 C   0  0  0  0  0  0  0  0  0  0  0  0
   -6.1000   18.3920  -35.0100 O   0  0  0  0  0  0  0  0  0  0  0  0
   -7.1930   18.4350  -32.8890 C   0  0  0  0  0  0  0  0  0  0  0  0
   -7.2730   19.8710  -32.4540 C   0  0  0  0  0  0  0  0  0  0  0  0
   -8.5300   20.5250  -32.4070 C   0  0  0  0  0  0  0  0  0  0  0  0
   -8.6300   21.8530  -31.9580 C   0  0  0  0  0  0  0  0  0  0  0  0
   -7.4630   22.4920  -31.5510 C   0  0  0  0  0  0  0  0  0  0  0  0
   -7.2740   23.7730  -31.0870 C   0  0  0  0  0  0  0  0  0  0  0  0
   -5.9070   23.8770  -30.8360 C   0  0  0  0  0  0  0  0  0  0  0  0
   -5.2750   25.0800  -30.2530 C   0  0  0  0  0  0  0  0  0  0  0  0
   -4.0890   25.6150  -30.8380 N   0  0  0  0  0  0  0  0  0  0  0  0
   -5.7880   25.6600  -29.2590 O   0  0  0  0  0  0  0  0  0  0  0  0
   -5.2760   22.7070  -31.1350 N   0  0  0  0  0  0  0  0  0  0  0  0
   -3.8660   22.4360  -31.0880 C   0  0  0  0  0  0  0  0  0  0  0  0
   -3.0430   23.3730  -31.2720 O   0  0  0  0  0  0  0  0  0  0  0  0
   -3.3920   21.1030  -30.8420 N   0  0  0  0  0  0  0  0  0  0  0  0
   -1.9690   20.7530  -30.9110 C   0  0  1  0  0  0  0  0  0  0  0  0
   -1.3600   21.2310  -32.2310 C   0  0  0  0  0  0  0  0  0  0  0  0
   -1.2250   21.3690  -29.7580 C   0  0  0  0  0  0  0  0  0  0  0  0
   -0.8870   20.6490  -28.7790 O   0  0  0  0  0  0  0  0  0  0  0  0
   -0.8870   22.7250  -29.7930 O   0  0  0  0  0  0  0  0  0  0  0  0
   -0.7310   23.5060  -28.6130 C   0  0  0  0  0  0  0  0  0  0  0  0
   -1.8100   24.5390  -28.5480 C   0  0  0  0  0  0  0  0  0  0  0  0
   -1.6190   25.6520  -29.0070 O   0  0  0  0  0  0  0  0  0  0  0  0
   -6.2420   21.8680  -31.5720 C   0  0  0  0  0  0  0  0  0  0  0  0
   -6.1100   20.5550  -32.0360 C   0  0  0  0  0  0  0  0  0  0  0  0
   -3.0578   18.8865  -32.5668 H   0  0  0  0  0  0  0  0  0  0  0  0
   -2.9092   17.9361  -34.0839 H   0  0  0  0  0  0  0  0  0  0  0  0
   -3.8038   19.4937  -34.0839 H   0  0  0  0  0  0  0  0  0  0  0  0
   -8.1028   18.1731  -33.4490 H   0  0  0  0  0  0  0  0  0  0  0  0
   -7.1037   17.7935  -31.9999 H   0  0  0  0  0  0  0  0  0  0  0  0
   -9.4357   19.9879  -32.7250 H   0  0  0  0  0  0  0  0  0  0  0  0
   -9.6001   22.3708  -31.9293 H   0  0  0  0  0  0  0  0  0  0  0  0
   -8.0392   24.5502  -30.9443 H   0  0  0  0  0  0  0  0  0  0  0  0
   -3.1440   25.2980  -30.5260 H   0  0  0  0  0  0  0  0  0  0  0  0
   -4.0910   20.3770  -30.5630 H   0  0  0  0  0  0  0  0  0  0  0  0
   -1.8808   19.6580  -30.8551 H   0  0  0  0  0  0  0  0  0  0  0  0
   -0.5104   21.8979  -32.0226 H   0  0  0  0  0  0  0  0  0  0  0  0
   -1.0114   20.3629  -32.8096 H   0  0  0  0  0  0  0  0  0  0  0  0
   -2.1205   21.7759  -32.8096 H   0  0  0  0  0  0  0  0  0  0  0  0
   -0.7962   22.8527  -27.7305 H   0  0  0  0  0  0  0  0  0  0  0  0
    0.2499   24.0035  -28.6316 H   0  0  0  0  0  0  0  0  0  0  0  0
   -2.7775   24.2943  -28.0853 H   0  0  0  0  0  0  0  0  0  0  0  0
   -5.1248   20.0672  -32.0744 H   0  0  0  0  0  0  0  0  0  0  0  0
  1  2  1  0
  2  3  1  0
  3  4  2  0
  3  5  1  0
  5  6  1  0
  6  7  2  0
  7  8  1  0
  8  9  2  0
  9 10  1  0
 10 11  2  0
 11 12  1  0
 12 13  1  0
 12 14  2  0
 11 15  1  0
 15 16  1  0
 16 17  2  0
 16 18  1  0
 18 19  1  0
 19 20  1  0
 19 21  1  0
 21 22  2  0
 21 23  1  0
 23 24  1  0
 24 25  1  0
 25 26  2  0
 15 27  1  0
 27 28  2  0
 28  6  1  0
 27  9  1  0
  1 29  1  0
  1 30  1  0
  1 31  1  0
  5 32  1  0
  5 33  1  0
  7 34  1  0
  8 35  1  0
 10 36  1  0
 13 37  1  0
 18 38  1  0
 19 39  1  1
 20 40  1  0
 20 41  1  0
 20 42  1  0
 24 43  1  0
 24 44  1  0
 25 45  1  0
 28 46  1  0
M  CHG  1  13  -1
M  END
>  <UniqueID>  (41) 
41

>  <SMILES>  (41) 
COC(=O)Cc1ccc2cc(C([NH-])=O)n(C(=O)N[C@@H](C)C(=O)OCC=O)c2c1

>  <Energy>  (41) 
70.92993275047954

>  <Genealogy>  (41) 
COC(=O)Cc1ccc2cc(C([NH-])=O)n(C(=O)NC(C)C(=O)OCC=O)c2c1 (protonated)
COC(=O)Cc1ccc2cc(C([NH-])=O)n(C(=O)N[C@@H](C)C(=O)OCC=O)c2c1 (chirality)
COC(=O)Cc1ccc2cc(C([NH-])=O)n(C(=O)N[C@@H](C)C(=O)OCC=O)c2c1 (3D coordinates assigned)
COC(=O)Cc1ccc2cc(C([NH-])=O)n(C(=O)N[C@@H](C)C(=O)OCC=O)c2c1 (optimized conformer: 70.92993275047954 kcal/mol)

>  <smiles>  (41) 
COC(=O)Cc1ccc2cc(C(N)=O)n(C(=O)NC(C)C(=O)OCC=O)c2c1

>  <score_type>  (41) 
oracle

>  <origin>  (41) 
adg

>  <m_score__min__energy>  (41) 
-10.26

>  <m_primary>  (41) 
energy

$$$$
41:0
     RDKit          3D

 43 44  0  0  0  0  0  0  0  0999 V2000
    0.1840   16.3210  -34.0980 C   0  0  0  0  0  0  0  0  0  0  0  0
   -1.2190   17.3200  -33.6510 S   0  0  0  0  0  0  0  0  0  0  0  0
   -2.3670   16.4190  -33.2910 O   0  0  0  0  0  0  0  0  0  0  0  0
   -1.6150   18.1740  -34.8230 O   0  0  0  0  0  0  0  0  0  0  0  0
   -0.8370   18.3600  -32.2440 C   0  0  0  0  0  0  0  0  0  0  0  0
   -1.3420   19.7890  -32.4350 C   0  0  0  0  0  0  0  0  0  0  0  0
   -2.7530   19.8370  -32.2470 O   0  0  0  0  0  0  0  0  0  0  0  0
   -3.5940   20.6460  -33.0140 C   0  0  0  0  0  0  0  0  0  0  0  0
   -3.1070   21.4870  -33.8180 O   0  0  0  0  0  0  0  0  0  0  0  0
   -5.0190   20.5000  -32.8970 N   0  0  0  0  0  0  0  0  0  0  0  0
   -5.8150   19.6120  -33.5570 C   0  0  0  0  0  0  0  0  0  0  0  0
   -5.3380   18.4950  -34.4020 C   0  0  0  0  0  0  0  0  0  0  0  0
   -4.0100   17.9890  -34.2610 N   0  0  0  0  0  0  0  0  0  0  0  0
   -6.0920   18.0010  -35.2810 O   0  0  0  0  0  0  0  0  0  0  0  0
   -7.1570   19.8420  -33.2590 C   0  0  0  0  0  0  0  0  0  0  0  0
   -7.1600   20.9090  -32.3910 C   0  0  0  0  0  0  0  0  0  0  0  0
   -8.2270   21.5650  -31.7840 C   0  0  0  0  0  0  0  0  0  0  0  0
   -7.9410   22.6610  -30.9530 C   0  0  0  0  0  0  0  0  0  0  0  0
   -6.6030   23.0880  -30.7570 C   0  0  0  0  0  0  0  0  0  0  0  0
   -6.3090   24.2500  -29.8480 C   0  0  0  0  0  0  0  0  0  0  0  0
   -4.9230   24.1010  -29.2160 C   0  0  0  0  0  0  0  0  0  0  0  0
   -3.9180   24.9250  -29.9570 C   0  0  0  0  0  0  0  0  0  0  0  0
   -4.1540   25.3090  -31.1320 O   0  0  0  0  0  0  0  0  0  0  0  0
   -2.6980   25.2290  -29.3650 O   0  0  0  0  0  0  0  0  0  0  0  0
   -5.5450   22.3890  -31.3790 C   0  0  0  0  0  0  0  0  0  0  0  0
   -5.8580   21.2890  -32.1880 C   0  0  0  0  0  0  0  0  0  0  0  0
    0.6853   15.9640  -33.1863 H   0  0  0  0  0  0  0  0  0  0  0  0
   -0.1540   15.4591  -34.6920 H   0  0  0  0  0  0  0  0  0  0  0  0
    0.8879   16.9223  -34.6920 H   0  0  0  0  0  0  0  0  0  0  0  0
   -1.3104   17.9328  -31.3477 H   0  0  0  0  0  0  0  0  0  0  0  0
    0.2571   18.3977  -32.1364 H   0  0  0  0  0  0  0  0  0  0  0  0
   -0.8544   20.4486  -31.7021 H   0  0  0  0  0  0  0  0  0  0  0  0
   -1.1024   20.1229  -33.4554 H   0  0  0  0  0  0  0  0  0  0  0  0
   -3.3750   18.3360  -33.5080 H   0  0  0  0  0  0  0  0  0  0  0  0
   -3.6670   17.2300  -34.8920 H   0  0  0  0  0  0  0  0  0  0  0  0
   -8.0286   19.2879  -33.6376 H   0  0  0  0  0  0  0  0  0  0  0  0
   -9.2632   21.2351  -31.9500 H   0  0  0  0  0  0  0  0  0  0  0  0
   -8.7622   23.1926  -30.4499 H   0  0  0  0  0  0  0  0  0  0  0  0
   -6.3425   25.1825  -30.4306 H   0  0  0  0  0  0  0  0  0  0  0  0
   -7.0634   24.2745  -29.0478 H   0  0  0  0  0  0  0  0  0  0  0  0
   -4.9646   24.4360  -28.1691 H   0  0  0  0  0  0  0  0  0  0  0  0
   -4.6217   23.0442  -29.2643 H   0  0  0  0  0  0  0  0  0  0  0  0
   -4.5005   22.7008  -31.2317 H   0  0  0  0  0  0  0  0  0  0  0  0
  1  2  1  0
  2  3  2  0
  2  4  2  0
  2  5  1  0
  5  6  1  0
  6  7  1  0
  7  8  1  0
  8  9  2  0
  8 10  1  0
 10 11  1  0
 11 12  1  0
 12 13  1  0
 12 14  2  0
 11 15  2  0
 15 16  1  0
 16 17  2  0
 17 18  1  0
 18 19  2  0
 19 20  1  0
 20 21  1  0
 21 22  1  0
 22 23  2  0
 22 24  1  0
 19 25  1  0
 25 26  2  0
 26 10  1  0
 26 16  1  0
  1 27  1  0
  1 28  1  0
  1 29  1  0
  5 30  1  0
  5 31  1  0
  6 32  1  0
  6 33  1  0
 13 34  1  0
 13 35  1  0
 15 36  1  0
 17 37  1  0
 18 38  1  0
 20 39  1  0
 20 40  1  0
 21 41  1  0
 21 42  1  0
 25 43  1  0
M  CHG  1  24  -1
M  END
>  <UniqueID>  (42) 
42

>  <SMILES>  (42) 
CS(=O)(=O)CCOC(=O)n1c(C(N)=O)cc2ccc(CCC(=O)[O-])cc21

>  <Energy>  (42) 
65.71456909259115

>  <Genealogy>  (42) 
CS(=O)(=O)CCOC(=O)n1c(C(N)=O)cc2ccc(CCC(=O)[O-])cc21 (protonated)
CS(=O)(=O)CCOC(=O)n1c(C(N)=O)cc2ccc(CCC(=O)[O-])cc21 (3D coordinates assigned)
CS(=O)(=O)CCOC(=O)n1c(C(N)=O)cc2ccc(CCC(=O)[O-])cc21 (optimized conformer: 65.71456909259115 kcal/mol)

>  <smiles>  (42) 
CS(=O)(=O)CCOC(=O)n1c(C(N)=O)cc2ccc(CCC(=O)O)cc21

>  <score_type>  (42) 
oracle

>  <origin>  (42) 
adg

>  <m_score__min__energy>  (42) 
-10.789999999999999

>  <m_primary>  (42) 
energy

$$$$
42:0
     RDKit          3D

 31 33  0  0  0  0  0  0  0  0999 V2000
   -7.1870   14.9700  -34.2290 C   0  0  0  0  0  0  0  0  0  0  0  0
   -6.6230   16.3410  -34.0790 C   0  0  0  0  0  0  0  0  0  0  0  0
   -5.4300   16.7150  -34.5860 N   0  0  0  0  0  0  0  0  0  0  0  0
   -5.3140   18.0000  -34.1990 C   0  0  0  0  0  0  0  0  0  0  0  0
   -6.4330   18.3520  -33.4700 C   0  0  0  0  0  0  0  0  0  0  0  0
   -6.7410   19.6580  -32.8440 C   0  0  0  0  0  0  0  0  0  0  0  0
   -8.0820   20.0690  -32.6210 C   0  0  0  0  0  0  0  0  0  0  0  0
   -8.3630   21.3160  -32.0400 C   0  0  0  0  0  0  0  0  0  0  0  0
   -7.2910   22.1260  -31.6820 C   0  0  0  0  0  0  0  0  0  0  0  0
   -7.2830   23.3890  -31.1370 C   0  0  0  0  0  0  0  0  0  0  0  0
   -5.9390   23.7230  -31.0030 C   0  0  0  0  0  0  0  0  0  0  0  0
   -5.4730   24.9860  -30.3970 C   0  0  0  0  0  0  0  0  0  0  0  0
   -4.1740   25.5080  -30.6800 N   0  0  0  0  0  0  0  0  0  0  0  0
   -6.2120   25.5850  -29.5710 O   0  0  0  0  0  0  0  0  0  0  0  0
   -5.1440   22.7140  -31.4590 N   0  0  0  0  0  0  0  0  0  0  0  0
   -3.7120   22.7230  -31.5940 C   0  0  0  0  0  0  0  0  0  0  0  0
   -3.1660   22.2030  -32.6020 O   0  0  0  0  0  0  0  0  0  0  0  0
   -2.9150   23.3040  -30.6150 O   0  0  0  0  0  0  0  0  0  0  0  0
   -5.9890   21.7410  -31.8690 C   0  0  0  0  0  0  0  0  0  0  0  0
   -5.6800   20.5130  -32.4670 C   0  0  0  0  0  0  0  0  0  0  0  0
   -7.2190   17.3040  -33.4130 O   0  0  0  0  0  0  0  0  0  0  0  0
   -7.3655   14.5361  -33.2341 H   0  0  0  0  0  0  0  0  0  0  0  0
   -8.1365   15.0226  -34.7818 H   0  0  0  0  0  0  0  0  0  0  0  0
   -6.4753   14.3392  -34.7818 H   0  0  0  0  0  0  0  0  0  0  0  0
   -4.4654   18.6619  -34.4267 H   0  0  0  0  0  0  0  0  0  0  0  0
   -8.9096   19.4031  -32.9066 H   0  0  0  0  0  0  0  0  0  0  0  0
   -9.4001   21.6424  -31.8731 H   0  0  0  0  0  0  0  0  0  0  0  0
   -8.1536   24.0039  -30.8651 H   0  0  0  0  0  0  0  0  0  0  0  0
   -3.4760   24.9530  -31.2230 H   0  0  0  0  0  0  0  0  0  0  0  0
   -3.8760   26.4230  -30.2730 H   0  0  0  0  0  0  0  0  0  0  0  0
   -4.6340   20.2198  -32.6397 H   0  0  0  0  0  0  0  0  0  0  0  0
  1  2  1  0
  2  3  2  0
  3  4  1  0
  4  5  2  0
  5  6  1  0
  6  7  2  0
  7  8  1  0
  8  9  2  0
  9 10  1  0
 10 11  2  0
 11 12  1  0
 12 13  1  0
 12 14  2  0
 11 15  1  0
 15 16  1  0
 16 17  2  0
 16 18  1  0
 15 19  1  0
 19 20  2  0
  5 21  1  0
 21  2  1  0
 20  6  1  0
 19  9  1  0
  1 22  1  0
  1 23  1  0
  1 24  1  0
  4 25  1  0
  7 26  1  0
  8 27  1  0
 10 28  1  0
 13 29  1  0
 13 30  1  0
 20 31  1  0
M  CHG  1  18  -1
M  END
>  <UniqueID>  (43) 
43

>  <SMILES>  (43) 
Cc1ncc(-c2ccc3cc(C(N)=O)n(C(=O)[O-])c3c2)o1

>  <Energy>  (43) 
102.67183634340697

>  <Genealogy>  (43) 
Cc1ncc(-c2ccc3cc(C(N)=O)n(C(=O)[O-])c3c2)o1 (protonated)
Cc1ncc(-c2ccc3cc(C(N)=O)n(C(=O)[O-])c3c2)o1 (3D coordinates assigned)
Cc1ncc(-c2ccc3cc(C(N)=O)n(C(=O)[O-])c3c2)o1 (optimized conformer: 102.67183634340697 kcal/mol)

>  <smiles>  (43) 
Cc1ncc(-c2ccc3cc(C(N)=O)n(C(=O)O)c3c2)o1

>  <score_type>  (43) 
oracle

>  <origin>  (43) 
adg

>  <m_score__min__energy>  (43) 
-8.6400000000000006

>  <m_primary>  (43) 
energy

$$$$
43:0
     RDKit          3D

 38 40  0  0  0  0  0  0  0  0999 V2000
   -0.2770   20.4580  -34.8080 C   0  0  0  0  0  0  0  0  0  0  0  0
   -1.7130   20.3760  -34.5760 N   0  0  0  0  0  0  0  0  0  0  0  0
   -2.3580   19.1320  -34.2700 C   0  0  0  0  0  0  0  0  0  0  0  0
   -1.7270   18.0480  -34.4070 O   0  0  0  0  0  0  0  0  0  0  0  0
   -3.7730   19.1000  -33.8340 C   0  0  0  0  0  0  0  0  0  0  0  0
   -4.6840   18.3260  -34.5760 C   0  0  0  0  0  0  0  0  0  0  0  0
   -6.0400   18.3150  -34.2460 C   0  0  0  0  0  0  0  0  0  0  0  0
   -6.5060   19.0690  -33.1710 C   0  0  0  0  0  0  0  0  0  0  0  0
   -5.6140   19.8250  -32.4090 C   0  0  0  0  0  0  0  0  0  0  0  0
   -4.2420   19.8410  -32.7160 C   0  0  0  0  0  0  0  0  0  0  0  0
   -3.3270   20.5850  -31.8190 C   0  0  0  0  0  0  0  0  0  0  0  0
   -2.0770   20.0260  -31.4490 C   0  0  0  0  0  0  0  0  0  0  0  0
   -1.1940   20.7350  -30.6180 C   0  0  0  0  0  0  0  0  0  0  0  0
   -1.5940   21.9870  -30.1590 C   0  0  0  0  0  0  0  0  0  0  0  0
   -0.9260   22.8940  -29.3680 C   0  0  0  0  0  0  0  0  0  0  0  0
   -1.7910   23.9770  -29.2360 C   0  0  0  0  0  0  0  0  0  0  0  0
   -1.4980   25.1500  -28.3870 C   0  0  0  0  0  0  0  0  0  0  0  0
   -1.2250   26.4240  -28.9630 N   0  0  0  0  0  0  0  0  0  0  0  0
   -1.5370   25.0370  -27.1330 O   0  0  0  0  0  0  0  0  0  0  0  0
   -2.9480   23.7530  -29.9240 N   0  0  0  0  0  0  0  0  0  0  0  0
   -4.0520   24.6530  -30.1110 C   0  0  0  0  0  0  0  0  0  0  0  0
   -3.9290   25.6660  -30.8500 O   0  0  0  0  0  0  0  0  0  0  0  0
   -5.2730   24.4010  -29.4990 O   0  0  0  0  0  0  0  0  0  0  0  0
   -2.8120   22.5290  -30.4810 C   0  0  0  0  0  0  0  0  0  0  0  0
   -3.7020   21.8540  -31.3240 C   0  0  0  0  0  0  0  0  0  0  0  0
    0.2493   20.4881  -33.8425 H   0  0  0  0  0  0  0  0  0  0  0  0
    0.0532   19.5772  -35.3783 H   0  0  0  0  0  0  0  0  0  0  0  0
   -0.0492   21.3706  -35.3783 H   0  0  0  0  0  0  0  0  0  0  0  0
   -2.2800   21.2510  -34.6430 H   0  0  0  0  0  0  0  0  0  0  0  0
   -4.3243   17.7243  -35.4237 H   0  0  0  0  0  0  0  0  0  0  0  0
   -6.7431   17.7092  -34.8365 H   0  0  0  0  0  0  0  0  0  0  0  0
   -7.5776   19.0684  -32.9227 H   0  0  0  0  0  0  0  0  0  0  0  0
   -5.9883   20.4146  -31.5592 H   0  0  0  0  0  0  0  0  0  0  0  0
   -1.7965   19.0278  -31.8163 H   0  0  0  0  0  0  0  0  0  0  0  0
   -0.2169   20.3141  -30.3386 H   0  0  0  0  0  0  0  0  0  0  0  0
    0.0783   22.7861  -28.9325 H   0  0  0  0  0  0  0  0  0  0  0  0
   -0.8690   26.5070  -29.9410 H   0  0  0  0  0  0  0  0  0  0  0  0
   -4.6701   22.3006  -31.5947 H   0  0  0  0  0  0  0  0  0  0  0  0
  1  2  1  0
  2  3  1  0
  3  4  2  0
  3  5  1  0
  5  6  2  0
  6  7  1  0
  7  8  2  0
  8  9  1  0
  9 10  2  0
 10 11  1  0
 11 12  2  0
 12 13  1  0
 13 14  2  0
 14 15  1  0
 15 16  2  0
 16 17  1  0
 17 18  1  0
 17 19  2  0
 16 20  1  0
 20 21  1  0
 21 22  2  0
 21 23  1  0
 20 24  1  0
 24 25  2  0
 10  5  1  0
 25 11  1  0
 24 14  1  0
  1 26  1  0
  1 27  1  0
  1 28  1  0
  2 29  1  0
  6 30  1  0
  7 31  1  0
  8 32  1  0
  9 33  1  0
 12 34  1  0
 13 35  1  0
 15 36  1  0
 18 37  1  0
 25 38  1  0
M  CHG  2  18  -1  23  -1
M  END
>  <UniqueID>  (44) 
44

>  <SMILES>  (44) 
CNC(=O)c1ccccc1-c1ccc2cc(C([NH-])=O)n(C(=O)[O-])c2c1

>  <Energy>  (44) 
88.58288545815675

>  <Genealogy>  (44) 
CNC(=O)c1ccccc1-c1ccc2cc(C([NH-])=O)n(C(=O)[O-])c2c1 (protonated)
CNC(=O)c1ccccc1-c1ccc2cc(C([NH-])=O)n(C(=O)[O-])c2c1 (3D coordinates assigned)
CNC(=O)c1ccccc1-c1ccc2cc(C([NH-])=O)n(C(=O)[O-])c2c1 (optimized conformer: 88.58288545815675 kcal/mol)

>  <smiles>  (44) 
CNC(=O)c1ccccc1-c1ccc2cc(C(N)=O)n(C(=O)O)c2c1

>  <score_type>  (44) 
oracle

>  <origin>  (44) 
adg

>  <m_score__min__energy>  (44) 
-12.390000000000001

>  <m_primary>  (44) 
energy

$$$$
44:0
     RDKit          3D

 51 53  0  0  0  0  0  0  0  0999 V2000
   -7.2230   17.2230  -33.0660 C   0  0  0  0  0  0  0  0  0  0  0  0
   -8.2540   17.9980  -32.3840 N   0  0  0  0  0  0  0  0  0  0  0  0
   -8.1410   19.4090  -32.1180 C   0  0  0  0  0  0  0  0  0  0  0  0
   -9.2850   20.2330  -32.2620 C   0  0  0  0  0  0  0  0  0  0  0  0
   -9.2200   21.6110  -31.9980 C   0  0  0  0  0  0  0  0  0  0  0  0
   -7.9970   22.1420  -31.6060 C   0  0  0  0  0  0  0  0  0  0  0  0
   -7.6640   23.4310  -31.2550 C   0  0  0  0  0  0  0  0  0  0  0  0
   -6.3090   23.3870  -30.9320 C   0  0  0  0  0  0  0  0  0  0  0  0
   -5.5390   24.5670  -30.4850 C   0  0  0  0  0  0  0  0  0  0  0  0
   -5.7900   25.1920  -29.2260 N   0  0  0  0  0  0  0  0  0  0  0  0
   -4.6070   25.0050  -31.2130 O   0  0  0  0  0  0  0  0  0  0  0  0
   -5.8240   22.1230  -31.0810 N   0  0  0  0  0  0  0  0  0  0  0  0
   -4.5090   21.6550  -30.7340 C   0  0  0  0  0  0  0  0  0  0  0  0
   -4.2570   20.4240  -30.8440 O   0  0  0  0  0  0  0  0  0  0  0  0
   -3.4160   22.6090  -30.2790 C   0  0  2  0  0  0  0  0  0  0  0  0
   -2.0160   22.1330  -30.7660 C   0  0  0  0  0  0  0  0  0  0  0  0
   -0.8470   22.6300  -29.8910 C   0  0  0  0  0  0  0  0  0  0  0  0
   -1.1670   23.9880  -29.2300 C   0  0  2  0  0  0  0  0  0  0  0  0
   -0.0190   24.5810  -28.5100 N   0  0  0  0  0  0  0  0  0  0  0  0
   -0.3780   25.3230  -27.2910 C   0  0  0  0  0  0  0  0  0  0  0  0
   -0.7930   26.7430  -27.6550 C   0  0  0  0  0  0  0  0  0  0  0  0
   -1.2320   26.7870  -28.9660 F   0  0  0  0  0  0  0  0  0  0  0  0
   -2.4180   23.9110  -28.3210 C   0  0  0  0  0  0  0  0  0  0  0  0
   -3.4130   22.8140  -28.7470 C   0  0  0  0  0  0  0  0  0  0  0  0
   -6.8730   21.3700  -31.4800 C   0  0  0  0  0  0  0  0  0  0  0  0
   -6.9140   19.9890  -31.7120 C   0  0  0  0  0  0  0  0  0  0  0  0
   -6.5764   16.7369  -32.3206 H   0  0  0  0  0  0  0  0  0  0  0  0
   -7.6973   16.4559  -33.6958 H   0  0  0  0  0  0  0  0  0  0  0  0
   -6.6180   17.8918  -33.6958 H   0  0  0  0  0  0  0  0  0  0  0  0
   -9.1050   17.4890  -32.0540 H   0  0  0  0  0  0  0  0  0  0  0  0
  -10.2373   19.7871  -32.5851 H   0  0  0  0  0  0  0  0  0  0  0  0
  -10.1096   22.2501  -32.0984 H   0  0  0  0  0  0  0  0  0  0  0  0
   -8.3265   24.3089  -31.2340 H   0  0  0  0  0  0  0  0  0  0  0  0
   -6.4130   24.7510  -28.5160 H   0  0  0  0  0  0  0  0  0  0  0  0
   -5.2380   26.0330  -28.9410 H   0  0  0  0  0  0  0  0  0  0  0  0
   -3.6378   23.5828  -30.7401 H   0  0  0  0  0  0  0  0  0  0  0  0
   -2.0050   21.0331  -30.7662 H   0  0  0  0  0  0  0  0  0  0  0  0
   -1.8661   22.5573  -31.7697 H   0  0  0  0  0  0  0  0  0  0  0  0
   -0.6502   21.8876  -29.1035 H   0  0  0  0  0  0  0  0  0  0  0  0
    0.0336   22.7616  -30.5370 H   0  0  0  0  0  0  0  0  0  0  0  0
   -1.3933   24.6698  -30.0631 H   0  0  0  0  0  0  0  0  0  0  0  0
    0.6320   23.8060  -28.2360 H   0  0  0  0  0  0  0  0  0  0  0  0
   -1.2143   24.8158  -26.7876 H   0  0  0  0  0  0  0  0  0  0  0  0
    0.4918   25.3597  -26.6186 H   0  0  0  0  0  0  0  0  0  0  0  0
   -1.6053   27.0673  -26.9879 H   0  0  0  0  0  0  0  0  0  0  0  0
    0.0728   27.4121  -27.5418 H   0  0  0  0  0  0  0  0  0  0  0  0
   -2.0897   23.7043  -27.2917 H   0  0  0  0  0  0  0  0  0  0  0  0
   -2.9408   24.8754  -28.4029 H   0  0  0  0  0  0  0  0  0  0  0  0
   -3.1305   21.8683  -28.2613 H   0  0  0  0  0  0  0  0  0  0  0  0
   -4.4218   23.1282  -28.4410 H   0  0  0  0  0  0  0  0  0  0  0  0
   -6.0144   19.3695  -31.5819 H   0  0  0  0  0  0  0  0  0  0  0  0
  1  2  1  0
  2  3  1  0
  3  4  2  0
  4  5  1  0
  5  6  2  0
  6  7  1  0
  7  8  2  0
  8  9  1  0
  9 10  1  0
  9 11  2  0
  8 12  1  0
 12 13  1  0
 13 14  2  0
 13 15  1  0
 15 16  1  0
 16 17  1  0
 17 18  1  0
 18 19  1  0
 19 20  1  0
 20 21  1  0
 21 22  1  0
 18 23  1  0
 23 24  1  0
 12 25  1  0
 25 26  2  0
 26  3  1  0
 25  6  1  0
 24 15  1  0
  1 27  1  0
  1 28  1  0
  1 29  1  0
  2 30  1  0
  4 31  1  0
  5 32  1  0
  7 33  1  0
 10 34  1  0
 10 35  1  0
 15 36  1  6
 16 37  1  0
 16 38  1  0
 17 39  1  0
 17 40  1  0
 18 41  1  6
 19 42  1  0
 20 43  1  0
 20 44  1  0
 21 45  1  0
 21 46  1  0
 23 47  1  0
 23 48  1  0
 24 49  1  0
 24 50  1  0
 26 51  1  0
M  END
>  <UniqueID>  (45) 
45

>  <SMILES>  (45) 
CNc1ccc2cc(C(N)=O)n(C(=O)C3CCC(NCCF)CC3)c2c1

>  <Energy>  (45) 
95.25270821102886

>  <Genealogy>  (45) 
CNc1ccc2cc(C(N)=O)n(C(=O)C3CCC(NCCF)CC3)c2c1 (3D coordinates assigned)
CNc1ccc2cc(C(N)=O)n(C(=O)C3CCC(NCCF)CC3)c2c1 (nonaromatic ring conformer: 95.25270821102886 kcal/mol)

>  <smiles>  (45) 
CNc1ccc2cc(C(N)=O)n(C(=O)C3CCC(NCCF)CC3)c2c1

>  <score_type>  (45) 
oracle

>  <origin>  (45) 
adg

>  <m_score__min__energy>  (45) 
-9.7300000000000004

>  <m_primary>  (45) 
energy

$$$$
45:0
     RDKit          3D

 46 48  0  0  0  0  0  0  0  0999 V2000
    0.3000   22.4060  -27.3950 C   0  0  0  0  0  0  0  0  0  0  0  0
    0.2000   23.8870  -27.6090 C   0  0  0  0  0  0  0  0  0  0  0  0
    1.0530   24.4530  -28.2770 O   0  0  0  0  0  0  0  0  0  0  0  0
   -0.9290   24.6900  -27.0210 C   0  0  0  0  0  0  0  0  0  0  0  0
   -1.8730   25.1160  -28.0990 C   0  0  0  0  0  0  0  0  0  0  0  0
   -1.5080   25.9760  -28.9450 O   0  0  0  0  0  0  0  0  0  0  0  0
   -3.1340   24.5170  -28.1840 O   0  0  0  0  0  0  0  0  0  0  0  0
   -3.3560   23.2720  -28.8360 C   0  0  0  0  0  0  0  0  0  0  0  0
   -2.7480   23.2900  -30.1240 O   0  0  0  0  0  0  0  0  0  0  0  0
   -3.3870   22.8000  -31.2670 C   0  0  0  0  0  0  0  0  0  0  0  0
   -2.7140   22.2970  -32.2070 O   0  0  0  0  0  0  0  0  0  0  0  0
   -4.8200   22.8440  -31.3550 N   0  0  0  0  0  0  0  0  0  0  0  0
   -5.6440   23.8700  -31.0000 C   0  0  0  0  0  0  0  0  0  0  0  0
   -5.2130   25.2270  -30.6090 C   0  0  0  0  0  0  0  0  0  0  0  0
   -3.8720   25.6440  -30.8530 N   0  0  0  0  0  0  0  0  0  0  0  0
   -6.0070   26.0110  -30.0270 O   0  0  0  0  0  0  0  0  0  0  0  0
   -6.9790   23.4950  -31.1330 C   0  0  0  0  0  0  0  0  0  0  0  0
   -6.9480   22.1980  -31.5920 C   0  0  0  0  0  0  0  0  0  0  0  0
   -7.9940   21.3270  -31.8830 C   0  0  0  0  0  0  0  0  0  0  0  0
   -7.6710   20.0280  -32.3100 C   0  0  0  0  0  0  0  0  0  0  0  0
   -6.3170   19.6210  -32.4350 C   0  0  0  0  0  0  0  0  0  0  0  0
   -5.9850   18.2400  -32.8640 C   0  0  0  0  0  0  0  0  0  0  0  0
   -5.7310   17.2470  -31.9040 C   0  0  0  0  0  0  0  0  0  0  0  0
   -5.4270   15.9470  -32.3150 C   0  0  0  0  0  0  0  0  0  0  0  0
   -5.3720   15.6430  -33.6390 N   0  0  0  0  0  0  0  0  0  0  0  0
   -5.6070   16.5850  -34.5920 C   0  0  0  0  0  0  0  0  0  0  0  0
   -5.9160   17.8980  -34.2270 C   0  0  0  0  0  0  0  0  0  0  0  0
   -6.1060   18.8290  -35.1960 F   0  0  0  0  0  0  0  0  0  0  0  0
   -5.2840   20.5340  -32.1230 C   0  0  0  0  0  0  0  0  0  0  0  0
   -5.6340   21.8280  -31.7170 C   0  0  0  0  0  0  0  0  0  0  0  0
    0.3145   22.1916  -26.3162 H   0  0  0  0  0  0  0  0  0  0  0  0
   -0.5667   21.9096  -27.8559 H   0  0  0  0  0  0  0  0  0  0  0  0
    1.2255   22.0306  -27.8559 H   0  0  0  0  0  0  0  0  0  0  0  0
   -1.4693   24.0744  -26.2867 H   0  0  0  0  0  0  0  0  0  0  0  0
   -0.5170   25.5838  -26.5296 H   0  0  0  0  0  0  0  0  0  0  0  0
   -2.9172   22.4614  -28.2357 H   0  0  0  0  0  0  0  0  0  0  0  0
   -4.4378   23.1059  -28.9459 H   0  0  0  0  0  0  0  0  0  0  0  0
   -3.0860   25.2980  -30.2580 H   0  0  0  0  0  0  0  0  0  0  0  0
   -7.8683   24.1054  -30.9172 H   0  0  0  0  0  0  0  0  0  0  0  0
   -9.0418   21.6460  -31.7817 H   0  0  0  0  0  0  0  0  0  0  0  0
   -8.4765   19.3184  -32.5501 H   0  0  0  0  0  0  0  0  0  0  0  0
   -5.7713   17.4920  -30.8324 H   0  0  0  0  0  0  0  0  0  0  0  0
   -5.2314   15.1666  -31.5648 H   0  0  0  0  0  0  0  0  0  0  0  0
   -5.1440   14.6670  -33.9300 H   0  0  0  0  0  0  0  0  0  0  0  0
   -5.5535   16.3115  -35.6561 H   0  0  0  0  0  0  0  0  0  0  0  0
   -4.2281   20.2347  -32.1974 H   0  0  0  0  0  0  0  0  0  0  0  0
  1  2  1  0
  2  3  2  0
  2  4  1  0
  4  5  1  0
  5  6  2  0
  5  7  1  0
  7  8  1  0
  8  9  1  0
  9 10  1  0
 10 11  2  0
 10 12  1  0
 12 13  1  0
 13 14  1  0
 14 15  1  0
 14 16  2  0
 13 17  2  0
 17 18  1  0
 18 19  2  0
 19 20  1  0
 20 21  2  0
 21 22  1  0
 22 23  2  0
 23 24  1  0
 24 25  2  0
 25 26  1  0
 26 27  2  0
 27 28  1  0
 21 29  1  0
 29 30  2  0
 30 12  1  0
 30 18  1  0
 27 22  1  0
  1 31  1  0
  1 32  1  0
  1 33  1  0
  4 34  1  0
  4 35  1  0
  8 36  1  0
  8 37  1  0
 15 38  1  0
 17 39  1  0
 19 40  1  0
 20 41  1  0
 23 42  1  0
 24 43  1  0
 25 44  1  0
 26 45  1  0
 29 46  1  0
M  CHG  2  15  -1  25   1
M  END
>  <UniqueID>  (46) 
46

>  <SMILES>  (46) 
CC(=O)CC(=O)OCOC(=O)n1c(C([NH-])=O)cc2ccc(-c3cc[nH+]cc3F)cc21

>  <Energy>  (46) 
84.95524437243127

>  <Genealogy>  (46) 
CC(=O)CC(=O)OCOC(=O)n1c(C([NH-])=O)cc2ccc(-c3cc[nH+]cc3F)cc21 (protonated)
CC(=O)CC(=O)OCOC(=O)n1c(C([NH-])=O)cc2ccc(-c3cc[nH+]cc3F)cc21 (3D coordinates assigned)
CC(=O)CC(=O)OCOC(=O)n1c(C([NH-])=O)cc2ccc(-c3cc[nH+]cc3F)cc21 (optimized conformer: 84.95524437243127 kcal/mol)

>  <smiles>  (46) 
CC(=O)CC(=O)OCOC(=O)n1c(C(N)=O)cc2ccc(-c3ccncc3F)cc21

>  <score_type>  (46) 
oracle

>  <origin>  (46) 
adg

>  <m_score__min__energy>  (46) 
-10.94

>  <m_primary>  (46) 
energy

$$$$
46:0
     RDKit          3D

 43 45  0  0  0  0  0  0  0  0999 V2000
   -5.3040   16.0090  -33.8190 C   0  0  0  0  0  0  0  0  0  0  0  0
   -5.3650   17.3580  -33.2360 N   0  0  2  0  0  0  0  0  0  0  0  0
   -6.4300   17.5150  -32.2350 C   0  0  0  0  0  0  0  0  0  0  0  0
   -7.1700   18.5450  -33.0850 C   0  0  1  0  0  0  0  0  0  0  0  0
   -7.2380   19.9380  -32.4850 C   0  0  0  0  0  0  0  0  0  0  0  0
   -8.5080   20.5010  -32.2020 C   0  0  0  0  0  0  0  0  0  0  0  0
   -8.6190   21.7920  -31.6590 C   0  0  0  0  0  0  0  0  0  0  0  0
   -7.4460   22.4950  -31.4000 C   0  0  0  0  0  0  0  0  0  0  0  0
   -7.2680   23.7640  -30.9030 C   0  0  0  0  0  0  0  0  0  0  0  0
   -5.8890   23.9560  -30.8630 C   0  0  0  0  0  0  0  0  0  0  0  0
   -5.2560   25.1720  -30.3120 C   0  0  0  0  0  0  0  0  0  0  0  0
   -4.0370   25.6760  -30.8500 N   0  0  0  0  0  0  0  0  0  0  0  0
   -5.7720   25.7450  -29.3160 O   0  0  0  0  0  0  0  0  0  0  0  0
   -5.2390   22.8500  -31.3270 N   0  0  0  0  0  0  0  0  0  0  0  0
   -3.8270   22.6710  -31.5240 C   0  0  0  0  0  0  0  0  0  0  0  0
   -3.4050   22.1000  -32.5670 O   0  0  0  0  0  0  0  0  0  0  0  0
   -2.9290   23.1000  -30.5390 O   0  0  0  0  0  0  0  0  0  0  0  0
   -2.9640   22.6550  -29.1830 C   0  0  0  0  0  0  0  0  0  0  0  0
   -2.4360   23.7350  -28.2370 C   0  0  0  0  0  0  0  0  0  0  0  0
   -2.5200   25.0550  -28.8530 N   0  0  0  0  0  0  0  0  0  0  0  0
   -6.2070   21.9640  -31.6480 C   0  0  0  0  0  0  0  0  0  0  0  0
   -6.0680   20.6900  -32.2090 C   0  0  0  0  0  0  0  0  0  0  0  0
   -6.0470   18.3360  -34.0970 C   0  0  0  0  0  0  0  0  0  0  0  0
   -5.2702   15.2621  -33.0122 H   0  0  0  0  0  0  0  0  0  0  0  0
   -6.1953   15.8375  -34.4404 H   0  0  0  0  0  0  0  0  0  0  0  0
   -4.4008   15.9186  -34.4404 H   0  0  0  0  0  0  0  0  0  0  0  0
   -4.4370   17.7020  -32.8930 H   0  0  0  0  0  0  0  0  0  0  0  0
   -7.0066   16.5948  -32.0594 H   0  0  0  0  0  0  0  0  0  0  0  0
   -6.1572   17.7727  -31.2010 H   0  0  0  0  0  0  0  0  0  0  0  0
   -8.2342   18.4491  -33.3464 H   0  0  0  0  0  0  0  0  0  0  0  0
   -9.4182   19.9195  -32.4103 H   0  0  0  0  0  0  0  0  0  0  0  0
   -9.6033   22.2339  -31.4450 H   0  0  0  0  0  0  0  0  0  0  0  0
   -8.0492   24.4770  -30.6008 H   0  0  0  0  0  0  0  0  0  0  0  0
   -3.1150   25.2940  -30.5430 H   0  0  0  0  0  0  0  0  0  0  0  0
   -4.0021   22.4143  -28.9102 H   0  0  0  0  0  0  0  0  0  0  0  0
   -2.3244   21.7649  -29.0900 H   0  0  0  0  0  0  0  0  0  0  0  0
   -3.0351   23.7296  -27.3145 H   0  0  0  0  0  0  0  0  0  0  0  0
   -1.3811   23.5192  -28.0121 H   0  0  0  0  0  0  0  0  0  0  0  0
   -2.1810   24.9760  -29.8380 H   0  0  0  0  0  0  0  0  0  0  0  0
   -3.5320   25.3130  -28.9170 H   0  0  0  0  0  0  0  0  0  0  0  0
   -5.0717   20.2801  -32.4314 H   0  0  0  0  0  0  0  0  0  0  0  0
   -6.3905   17.9148  -35.0533 H   0  0  0  0  0  0  0  0  0  0  0  0
   -5.4864   19.2098  -34.4607 H   0  0  0  0  0  0  0  0  0  0  0  0
  1  2  1  0
  2  3  1  0
  3  4  1  0
  4  5  1  0
  5  6  2  0
  6  7  1  0
  7  8  2  0
  8  9  1  0
  9 10  2  0
 10 11  1  0
 11 12  1  0
 11 13  2  0
 10 14  1  0
 14 15  1  0
 15 16  2  0
 15 17  1  0
 17 18  1  0
 18 19  1  0
 19 20  1  0
 14 21  1  0
 21 22  2  0
  4 23  1  0
 23  2  1  0
 22  5  1  0
 21  8  1  0
  1 24  1  0
  1 25  1  0
  1 26  1  0
  2 27  1  1
  3 28  1  0
  3 29  1  0
  4 30  1  6
  6 31  1  0
  7 32  1  0
  9 33  1  0
 12 34  1  0
 18 35  1  0
 18 36  1  0
 19 37  1  0
 19 38  1  0
 20 39  1  0
 20 40  1  0
 22 41  1  0
 23 42  1  0
 23 43  1  0
M  CHG  2   2   1  12  -1
M  END
>  <UniqueID>  (47) 
47

>  <SMILES>  (47) 
C[NH+]1CC(c2ccc3cc(C([NH-])=O)n(C(=O)OCCN)c3c2)C1

>  <Energy>  (47) 
153.036552131326

>  <Genealogy>  (47) 
C[NH+]1CC(c2ccc3cc(C([NH-])=O)n(C(=O)OCCN)c3c2)C1 (protonated)
C[NH+]1CC(c2ccc3cc(C([NH-])=O)n(C(=O)OCCN)c3c2)C1 (3D coordinates assigned)
C[NH+]1CC(c2ccc3cc(C([NH-])=O)n(C(=O)OCCN)c3c2)C1 (nonaromatic ring conformer: 153.036552131326 kcal/mol)

>  <smiles>  (47) 
CN1CC(c2ccc3cc(C(N)=O)n(C(=O)OCCN)c3c2)C1

>  <score_type>  (47) 
oracle

>  <origin>  (47) 
adg

>  <m_score__min__energy>  (47) 
-9.75

>  <m_primary>  (47) 
energy

$$$$
47:0
     RDKit          3D

 45 46  0  0  0  0  0  0  0  0999 V2000
   -5.7590   17.9470  -35.0360 C   0  0  0  0  0  0  0  0  0  0  0  0
   -5.7650   18.7510  -33.7220 C   0  0  2  0  0  0  0  0  0  0  0  0
   -4.5710   18.3210  -32.8070 C   0  0  0  0  0  0  0  0  0  0  0  0
   -3.4600   19.3790  -32.7620 C   0  0  0  0  0  0  0  0  0  0  0  0
   -3.6200   20.2940  -33.8120 O   0  0  0  0  0  0  0  0  0  0  0  0
   -7.1020   18.7160  -33.0580 N   0  0  1  0  0  0  0  0  0  0  0  0
   -7.3160   17.5620  -32.1560 C   0  0  0  0  0  0  0  0  0  0  0  0
   -7.3860   19.9690  -32.3750 C   0  0  0  0  0  0  0  0  0  0  0  0
   -7.8540   19.9660  -31.2440 O   0  0  0  0  0  0  0  0  0  0  0  0
   -7.1150   21.2950  -33.0430 C   0  0  0  0  0  0  0  0  0  0  0  0
   -6.4300   22.2320  -32.0840 C   0  0  0  0  0  0  0  0  0  0  0  0
   -7.1930   23.1670  -31.3400 C   0  0  0  0  0  0  0  0  0  0  0  0
   -6.5770   24.0000  -30.3910 C   0  0  0  0  0  0  0  0  0  0  0  0
   -5.2030   23.8700  -30.2040 C   0  0  0  0  0  0  0  0  0  0  0  0
   -4.3600   24.5340  -29.3410 C   0  0  0  0  0  0  0  0  0  0  0  0
   -3.0950   24.0030  -29.5830 C   0  0  0  0  0  0  0  0  0  0  0  0
   -1.8680   24.5210  -28.9450 C   0  0  0  0  0  0  0  0  0  0  0  0
   -1.6060   25.9220  -28.8980 N   0  0  0  0  0  0  0  0  0  0  0  0
   -1.0760   23.7240  -28.3750 O   0  0  0  0  0  0  0  0  0  0  0  0
   -3.1550   23.0360  -30.5440 N   0  0  0  0  0  0  0  0  0  0  0  0
   -2.1090   22.1660  -31.0070 C   0  0  0  0  0  0  0  0  0  0  0  0
   -1.9480   21.9470  -32.2360 O   0  0  0  0  0  0  0  0  0  0  0  0
   -4.4510   22.9760  -30.9200 C   0  0  0  0  0  0  0  0  0  0  0  0
   -5.0380   22.1320  -31.8690 C   0  0  0  0  0  0  0  0  0  0  0  0
   -5.7510   16.8710  -34.8075 H   0  0  0  0  0  0  0  0  0  0  0  0
   -6.6590   18.1912  -35.6194 H   0  0  0  0  0  0  0  0  0  0  0  0
   -4.8628   18.2046  -35.6194 H   0  0  0  0  0  0  0  0  0  0  0  0
   -5.5987   19.8140  -33.9508 H   0  0  0  0  0  0  0  0  0  0  0  0
   -4.9479   18.1604  -31.7861 H   0  0  0  0  0  0  0  0  0  0  0  0
   -4.1409   17.3996  -33.2265 H   0  0  0  0  0  0  0  0  0  0  0  0
   -3.5073   19.9150  -31.8026 H   0  0  0  0  0  0  0  0  0  0  0  0
   -2.4851   18.8803  -32.8659 H   0  0  0  0  0  0  0  0  0  0  0  0
   -2.8730   20.9460  -33.7400 H   0  0  0  0  0  0  0  0  0  0  0  0
   -7.8140   18.6100  -33.8170 H   0  0  0  0  0  0  0  0  0  0  0  0
   -7.2538   17.8975  -31.1103 H   0  0  0  0  0  0  0  0  0  0  0  0
   -8.3097   17.1292  -32.3437 H   0  0  0  0  0  0  0  0  0  0  0  0
   -6.5435   16.8017  -32.3437 H   0  0  0  0  0  0  0  0  0  0  0  0
   -6.4685   21.1350  -33.9184 H   0  0  0  0  0  0  0  0  0  0  0  0
   -8.0708   21.7397  -33.3571 H   0  0  0  0  0  0  0  0  0  0  0  0
   -8.2777   23.2410  -31.5073 H   0  0  0  0  0  0  0  0  0  0  0  0
   -7.1614   24.7317  -29.8139 H   0  0  0  0  0  0  0  0  0  0  0  0
   -4.6281   25.3163  -28.6157 H   0  0  0  0  0  0  0  0  0  0  0  0
   -1.2110   26.4250  -29.7240 H   0  0  0  0  0  0  0  0  0  0  0  0
   -1.4403   21.6852  -30.2778 H   0  0  0  0  0  0  0  0  0  0  0  0
   -4.4306   21.4090  -32.4332 H   0  0  0  0  0  0  0  0  0  0  0  0
  1  2  1  0
  2  3  1  0
  3  4  1  0
  4  5  1  0
  2  6  1  0
  6  7  1  0
  6  8  1  0
  8  9  2  0
  8 10  1  0
 10 11  1  0
 11 12  2  0
 12 13  1  0
 13 14  2  0
 14 15  1  0
 15 16  2  0
 16 17  1  0
 17 18  1  0
 17 19  2  0
 16 20  1  0
 20 21  1  0
 21 22  2  0
 20 23  1  0
 23 24  2  0
 24 11  1  0
 23 14  1  0
  1 25  1  0
  1 26  1  0
  1 27  1  0
  2 28  1  6
  3 29  1  0
  3 30  1  0
  4 31  1  0
  4 32  1  0
  5 33  1  0
  6 34  1  6
  7 35  1  0
  7 36  1  0
  7 37  1  0
 10 38  1  0
 10 39  1  0
 12 40  1  0
 13 41  1  0
 15 42  1  0
 18 43  1  0
 21 44  1  0
 24 45  1  0
M  CHG  2   6   1  18  -1
M  END
>  <UniqueID>  (48) 
48

>  <SMILES>  (48) 
C[C@H](CCO)[N@@H+](C)C(=O)Cc1ccc2cc(C([NH-])=O)n(C=O)c2c1

>  <Energy>  (48) 
85.5054478531053

>  <Genealogy>  (48) 
CC(CCO)[NH+](C)C(=O)Cc1ccc2cc(C([NH-])=O)n(C=O)c2c1 (protonated)
C[C@H](CCO)[N@@H+](C)C(=O)Cc1ccc2cc(C([NH-])=O)n(C=O)c2c1 (chirality)
C[C@H](CCO)[N@@H+](C)C(=O)Cc1ccc2cc(C([NH-])=O)n(C=O)c2c1 (3D coordinates assigned)
C[C@H](CCO)[N@@H+](C)C(=O)Cc1ccc2cc(C([NH-])=O)n(C=O)c2c1 (optimized conformer: 85.5054478531053 kcal/mol)

>  <smiles>  (48) 
CC(CCO)N(C)C(=O)Cc1ccc2cc(C(N)=O)n(C=O)c2c1

>  <score_type>  (48) 
oracle

>  <origin>  (48) 
adg

>  <m_score__min__energy>  (48) 
-9.5099999999999998

>  <m_primary>  (48) 
energy

$$$$
48:0
     RDKit          3D

 54 57  0  0  0  0  0  0  0  0999 V2000
   -6.2450   25.9920  -29.3550 C   0  0  0  0  0  0  0  0  0  0  0  0
   -5.4020   24.8010  -30.0680 P   0  0  0  0  0  0  0  0  0  0  0  0
   -5.1620   23.4810  -29.0350 O   0  0  0  0  0  0  0  0  0  0  0  0
   -3.8800   25.4210  -30.4840 O   0  0  0  0  0  0  0  0  0  0  0  0
   -6.2680   24.3070  -31.5780 C   0  0  0  0  0  0  0  0  0  0  0  0
   -7.6020   23.7310  -31.1700 C   0  0  0  0  0  0  0  0  0  0  0  0
   -7.7240   22.3390  -31.5830 N   0  0  0  0  0  0  0  0  0  0  0  0
   -6.7030   21.5770  -31.9920 C   0  0  0  0  0  0  0  0  0  0  0  0
   -7.1910   20.3480  -32.2920 C   0  0  0  0  0  0  0  0  0  0  0  0
   -6.4460   19.1890  -32.7770 C   0  0  0  0  0  0  0  0  0  0  0  0
   -7.1230   18.0440  -33.1290 C   0  0  0  0  0  0  0  0  0  0  0  0
   -6.3920   16.9700  -33.5830 C   0  0  0  0  0  0  0  0  0  0  0  0
   -5.0210   17.0500  -33.6780 C   0  0  0  0  0  0  0  0  0  0  0  0
   -4.0980   16.1430  -34.0860 C   0  0  0  0  0  0  0  0  0  0  0  0
   -2.8080   16.7000  -34.0000 C   0  0  0  0  0  0  0  0  0  0  0  0
   -1.6420   15.9450  -34.3760 C   0  0  0  0  0  0  0  0  0  0  0  0
   -0.3510   16.6160  -34.4280 N   0  0  0  0  0  0  0  0  0  0  0  0
   -1.5760   14.7390  -34.6790 O   0  0  0  0  0  0  0  0  0  0  0  0
   -2.9700   17.9630  -33.5310 N   0  0  0  0  0  0  0  0  0  0  0  0
   -1.9270   18.8790  -33.2880 C   0  0  0  0  0  0  0  0  0  0  0  0
   -1.0280   18.5620  -32.4460 O   0  0  0  0  0  0  0  0  0  0  0  0
   -1.7450   20.2000  -33.9070 C   0  0  0  0  0  0  0  0  0  0  0  0
   -2.9030   21.1500  -33.5320 C   0  0  0  0  0  0  0  0  0  0  0  0
   -2.7040   21.7520  -32.2110 C   0  0  0  0  0  0  0  0  0  0  0  0
   -3.3060   22.7600  -31.5700 N   0  0  0  0  0  0  0  0  0  0  0  0
   -2.7540   22.9110  -30.3910 N   0  0  0  0  0  0  0  0  0  0  0  0
   -1.7730   22.0140  -30.2150 C   0  0  0  0  0  0  0  0  0  0  0  0
   -1.0360   21.8780  -29.1970 O   0  0  0  0  0  0  0  0  0  0  0  0
   -1.7450   21.2930  -31.3490 N   0  0  0  0  0  0  0  0  0  0  0  0
   -4.3020   18.1880  -33.3320 C   0  0  0  0  0  0  0  0  0  0  0  0
   -5.0600   19.2440  -32.8820 C   0  0  0  0  0  0  0  0  0  0  0  0
   -8.5160   20.3930  -32.0540 N   0  0  0  0  0  0  0  0  0  0  0  0
   -8.8340   21.5940  -31.6260 N   0  0  0  0  0  0  0  0  0  0  0  0
   -6.4748   26.9126  -29.9116 H   0  0  0  0  0  0  0  0  0  0  0  0
   -6.5862   25.8781  -28.3155 H   0  0  0  0  0  0  0  0  0  0  0  0
   -5.6880   23.6870  -28.2090 H   0  0  0  0  0  0  0  0  0  0  0  0
   -3.4830   24.9240  -31.2430 H   0  0  0  0  0  0  0  0  0  0  0  0
   -6.4198   25.1821  -32.2270 H   0  0  0  0  0  0  0  0  0  0  0  0
   -5.6798   23.5632  -32.1355 H   0  0  0  0  0  0  0  0  0  0  0  0
   -7.6988   23.7903  -30.0759 H   0  0  0  0  0  0  0  0  0  0  0  0
   -8.3967   24.3110  -31.6620 H   0  0  0  0  0  0  0  0  0  0  0  0
   -5.6521   21.8923  -32.0710 H   0  0  0  0  0  0  0  0  0  0  0  0
   -8.2187   17.9886  -33.0497 H   0  0  0  0  0  0  0  0  0  0  0  0
   -6.9065   16.0417  -33.8718 H   0  0  0  0  0  0  0  0  0  0  0  0
   -4.3241   15.1238  -34.4325 H   0  0  0  0  0  0  0  0  0  0  0  0
    0.1140   16.6300  -35.3790 H   0  0  0  0  0  0  0  0  0  0  0  0
    0.0680   17.0450  -33.5810 H   0  0  0  0  0  0  0  0  0  0  0  0
   -0.7963   20.6335  -33.5576 H   0  0  0  0  0  0  0  0  0  0  0  0
   -1.7324   20.0766  -35.0000 H   0  0  0  0  0  0  0  0  0  0  0  0
   -2.9644   21.9511  -34.2833 H   0  0  0  0  0  0  0  0  0  0  0  0
   -3.8329   20.5630  -33.5048 H   0  0  0  0  0  0  0  0  0  0  0  0
   -3.0780   23.6580  -29.7110 H   0  0  0  0  0  0  0  0  0  0  0  0
   -1.0730   20.5040  -31.5140 H   0  0  0  0  0  0  0  0  0  0  0  0
   -4.5474   20.1732  -32.5923 H   0  0  0  0  0  0  0  0  0  0  0  0
  1  2  2  0
  2  3  1  0
  2  4  1  0
  2  5  1  0
  5  6  1  0
  6  7  1  0
  7  8  1  0
  8  9  2  0
  9 10  1  0
 10 11  2  0
 11 12  1  0
 12 13  2  0
 13 14  1  0
 14 15  2  0
 15 16  1  0
 16 17  1  0
 16 18  2  0
 15 19  1  0
 19 20  1  0
 20 21  2  0
 20 22  1  0
 22 23  1  0
 23 24  1  0
 24 25  2  0
 25 26  1  0
 26 27  1  0
 27 28  2  0
 27 29  1  0
 19 30  1  0
 30 31  2  0
  9 32  1  0
 32 33  2  0
 33  7  1  0
 31 10  1  0
 30 13  1  0
 29 24  1  0
  1 34  1  0
  1 35  1  0
  3 36  1  0
  4 37  1  0
  5 38  1  0
  5 39  1  0
  6 40  1  0
  6 41  1  0
  8 42  1  0
 11 43  1  0
 12 44  1  0
 14 45  1  0
 17 46  1  0
 17 47  1  0
 22 48  1  0
 22 49  1  0
 23 50  1  0
 23 51  1  0
 26 52  1  0
 29 53  1  0
 31 54  1  0
M  END
>  <smiles>  (49) 
C=P(O)(O)CCn1cc(-c2ccc3cc(C(N)=O)n(C(=O)CCc4n[nH]c(=O)[nH]4)c3c2)nn1

>  <score_type>  (49) 
oracle

>  <origin>  (49) 
adg

>  <m_score__min__energy>  (49) 
-9.0399999999999991

>  <m_primary>  (49) 
energy

$$$$
49:0
     RDKit          3D

 44 46  0  0  0  0  0  0  0  0999 V2000
   -3.3960   24.1710  -27.4940 C   0  0  0  0  0  0  0  0  0  0  0  0
   -2.5900   24.5470  -29.0360 S   0  0  0  0  0  0  0  0  0  0  0  0
   -1.8590   23.3240  -29.5140 O   0  0  0  0  0  0  0  0  0  0  0  0
   -1.6020   25.6610  -28.8300 O   0  0  0  0  0  0  0  0  0  0  0  0
   -3.7750   24.9990  -30.2270 N   0  0  0  0  0  0  0  0  0  0  0  0
   -4.4830   23.8280  -30.7560 C   0  0  0  0  0  0  0  0  0  0  0  0
   -3.5120   22.9910  -31.6260 C   0  0  0  0  0  0  0  0  0  0  0  0
   -4.1950   22.3150  -32.8280 C   0  0  0  0  0  0  0  0  0  0  0  0
   -5.5940   21.9930  -32.5200 N   0  0  0  0  0  0  0  0  0  0  0  0
   -6.0840   20.6430  -32.6270 C   0  0  0  0  0  0  0  0  0  0  0  0
   -7.3190   20.2820  -32.0300 C   0  0  0  0  0  0  0  0  0  0  0  0
   -7.7940   18.9620  -32.1040 C   0  0  0  0  0  0  0  0  0  0  0  0
   -7.0180   18.0270  -32.7820 C   0  0  0  0  0  0  0  0  0  0  0  0
   -7.2230   16.6790  -32.9670 C   0  0  0  0  0  0  0  0  0  0  0  0
   -6.1220   16.2380  -33.6940 C   0  0  0  0  0  0  0  0  0  0  0  0
   -5.9650   14.8470  -34.1650 C   0  0  0  0  0  0  0  0  0  0  0  0
   -4.6830   14.3230  -34.5120 N   0  0  0  0  0  0  0  0  0  0  0  0
   -6.9870   14.1260  -34.3170 O   0  0  0  0  0  0  0  0  0  0  0  0
   -5.2610   17.2660  -33.9390 N   0  0  0  0  0  0  0  0  0  0  0  0
   -3.9650   17.1930  -34.5580 C   0  0  0  0  0  0  0  0  0  0  0  0
   -3.8440   16.7570  -35.7330 O   0  0  0  0  0  0  0  0  0  0  0  0
   -2.8300   17.5990  -33.8660 O   0  0  0  0  0  0  0  0  0  0  0  0
   -5.8270   18.3580  -33.3760 C   0  0  0  0  0  0  0  0  0  0  0  0
   -5.3210   19.6600  -33.2970 C   0  0  0  0  0  0  0  0  0  0  0  0
   -6.4950   23.0670  -32.0720 C   0  0  0  0  0  0  0  0  0  0  0  0
   -5.7070   24.2870  -31.5670 C   0  0  0  0  0  0  0  0  0  0  0  0
   -2.7479   24.4733  -26.6582 H   0  0  0  0  0  0  0  0  0  0  0  0
   -4.3488   24.7176  -27.4355 H   0  0  0  0  0  0  0  0  0  0  0  0
   -3.5894   23.0897  -27.4355 H   0  0  0  0  0  0  0  0  0  0  0  0
   -4.8393   23.1962  -29.9290 H   0  0  0  0  0  0  0  0  0  0  0  0
   -2.7209   23.6557  -32.0032 H   0  0  0  0  0  0  0  0  0  0  0  0
   -3.1128   22.1896  -30.9869 H   0  0  0  0  0  0  0  0  0  0  0  0
   -4.1634   22.9965  -33.6909 H   0  0  0  0  0  0  0  0  0  0  0  0
   -3.6608   21.3812  -33.0576 H   0  0  0  0  0  0  0  0  0  0  0  0
   -7.9116   21.0443  -31.5031 H   0  0  0  0  0  0  0  0  0  0  0  0
   -8.7498   18.6764  -31.6403 H   0  0  0  0  0  0  0  0  0  0  0  0
   -8.0750   16.0787  -32.6153 H   0  0  0  0  0  0  0  0  0  0  0  0
   -3.8430   14.9430  -34.5610 H   0  0  0  0  0  0  0  0  0  0  0  0
   -4.5850   13.3270  -34.8070 H   0  0  0  0  0  0  0  0  0  0  0  0
   -4.3497   19.9132  -33.7469 H   0  0  0  0  0  0  0  0  0  0  0  0
   -7.1307   23.3756  -32.9150 H   0  0  0  0  0  0  0  0  0  0  0  0
   -7.1061   22.6823  -31.2423 H   0  0  0  0  0  0  0  0  0  0  0  0
   -5.3702   24.8839  -32.4274 H   0  0  0  0  0  0  0  0  0  0  0  0
   -6.3588   24.8943  -30.9218 H   0  0  0  0  0  0  0  0  0  0  0  0
  1  2  1  0
  2  3  2  0
  2  4  2  0
  2  5  1  0
  5  6  1  0
  6  7  1  0
  7  8  1  0
  8  9  1  0
  9 10  1  0
 10 11  2  0
 11 12  1  0
 12 13  2  0
 13 14  1  0
 14 15  2  0
 15 16  1  0
 16 17  1  0
 16 18  2  0
 15 19  1  0
 19 20  1  0
 20 21  2  0
 20 22  1  0
 19 23  1  0
 23 24  2  0
  9 25  1  0
 25 26  1  0
 26  6  1  0
 24 10  1  0
 23 13  1  0
  1 27  1  0
  1 28  1  0
  1 29  1  0
  6 30  1  0
  7 31  1  0
  7 32  1  0
  8 33  1  0
  8 34  1  0
 11 35  1  0
 12 36  1  0
 14 37  1  0
 17 38  1  0
 17 39  1  0
 24 40  1  0
 25 41  1  0
 25 42  1  0
 26 43  1  0
 26 44  1  0
M  CHG  2   5  -1  22  -1
M  END
>  <UniqueID>  (50) 
49

>  <SMILES>  (50) 
CS(=O)(=O)[N-]C1CCN(c2ccc3cc(C(N)=O)n(C(=O)[O-])c3c2)CC1

>  <Energy>  (50) 
86.54246129372045

>  <Genealogy>  (50) 
CS(=O)(=O)[N-]C1CCN(c2ccc3cc(C(N)=O)n(C(=O)[O-])c3c2)CC1 (protonated)
CS(=O)(=O)[N-]C1CCN(c2ccc3cc(C(N)=O)n(C(=O)[O-])c3c2)CC1 (3D coordinates assigned)
CS(=O)(=O)[N-]C1CCN(c2ccc3cc(C(N)=O)n(C(=O)[O-])c3c2)CC1 (nonaromatic ring conformer: 86.54246129372045 kcal/mol)

>  <smiles>  (50) 
CS(=O)(=O)NC1CCN(c2ccc3cc(C(N)=O)n(C(=O)O)c3c2)CC1

>  <score_type>  (50) 
oracle

>  <origin>  (50) 
adg

>  <m_score__min__energy>  (50) 
-9.5

>  <m_primary>  (50) 
energy

$$$$
50:0
     RDKit          3D

 41 42  0  0  0  0  0  0  0  0999 V2000
   -9.4190   21.9220  -31.9350 C   0  0  0  0  0  0  0  0  0  0  0  0
   -8.0620   22.0550  -31.3820 N   0  0  0  0  0  0  0  0  0  0  0  0
   -7.4110   23.2480  -31.9510 C   0  0  0  0  0  0  0  0  0  0  0  0
   -7.2710   20.8340  -31.6470 C   0  0  0  0  0  0  0  0  0  0  0  0
   -6.5500   20.9180  -33.0010 C   0  0  0  0  0  0  0  0  0  0  0  0
   -5.2940   20.1490  -32.9820 N   0  0  0  0  0  0  0  0  0  0  0  0
   -5.2190   18.8370  -33.6340 C   0  0  0  0  0  0  0  0  0  0  0  0
   -4.1180   20.6760  -32.3320 C   0  0  0  0  0  0  0  0  0  0  0  0
   -2.9200   19.9160  -32.3040 C   0  0  0  0  0  0  0  0  0  0  0  0
   -1.7850   20.3900  -31.6270 C   0  0  0  0  0  0  0  0  0  0  0  0
   -1.8710   21.6260  -30.9940 C   0  0  0  0  0  0  0  0  0  0  0  0
   -0.9360   22.3000  -30.2430 C   0  0  0  0  0  0  0  0  0  0  0  0
   -1.5660   23.4770  -29.8410 C   0  0  0  0  0  0  0  0  0  0  0  0
   -0.8930   24.5520  -29.0790 C   0  0  0  0  0  0  0  0  0  0  0  0
   -1.5310   25.8150  -28.8820 N   0  0  0  0  0  0  0  0  0  0  0  0
    0.2390   24.3510  -28.5670 O   0  0  0  0  0  0  0  0  0  0  0  0
   -2.8390   23.5280  -30.3240 N   0  0  0  0  0  0  0  0  0  0  0  0
   -3.8320   24.5350  -30.0660 C   0  0  0  0  0  0  0  0  0  0  0  0
   -4.6440   24.4020  -29.1140 O   0  0  0  0  0  0  0  0  0  0  0  0
   -3.8950   25.6760  -30.8560 O   0  0  0  0  0  0  0  0  0  0  0  0
   -3.0110   22.3860  -31.0290 C   0  0  0  0  0  0  0  0  0  0  0  0
   -4.1600   21.9340  -31.6860 C   0  0  0  0  0  0  0  0  0  0  0  0
  -10.1451   21.8508  -31.1117 H   0  0  0  0  0  0  0  0  0  0  0  0
   -9.6508   22.8017  -32.5533 H   0  0  0  0  0  0  0  0  0  0  0  0
   -9.4756   21.0140  -32.5533 H   0  0  0  0  0  0  0  0  0  0  0  0
   -7.0571   23.8965  -31.1360 H   0  0  0  0  0  0  0  0  0  0  0  0
   -6.5565   22.9389  -32.5709 H   0  0  0  0  0  0  0  0  0  0  0  0
   -8.1333   23.7993  -32.5709 H   0  0  0  0  0  0  0  0  0  0  0  0
   -6.5229   20.7118  -30.8498 H   0  0  0  0  0  0  0  0  0  0  0  0
   -7.9573   19.9747  -31.6722 H   0  0  0  0  0  0  0  0  0  0  0  0
   -7.2077   20.5124  -33.7839 H   0  0  0  0  0  0  0  0  0  0  0  0
   -6.3109   21.9722  -33.2045 H   0  0  0  0  0  0  0  0  0  0  0  0
   -5.1739   18.0489  -32.8679 H   0  0  0  0  0  0  0  0  0  0  0  0
   -6.1101   18.6879  -34.2615 H   0  0  0  0  0  0  0  0  0  0  0  0
   -4.3167   18.7904  -34.2615 H   0  0  0  0  0  0  0  0  0  0  0  0
   -2.8801   18.9446  -32.8185 H   0  0  0  0  0  0  0  0  0  0  0  0
   -0.8558   19.8019  -31.5979 H   0  0  0  0  0  0  0  0  0  0  0  0
    0.0898   21.9788  -30.0095 H   0  0  0  0  0  0  0  0  0  0  0  0
   -2.4440   26.0390  -29.3360 H   0  0  0  0  0  0  0  0  0  0  0  0
   -1.0640   26.5540  -28.3100 H   0  0  0  0  0  0  0  0  0  0  0  0
   -5.0759   22.5430  -31.7001 H   0  0  0  0  0  0  0  0  0  0  0  0
  1  2  1  0
  2  3  1  0
  2  4  1  0
  4  5  1  0
  5  6  1  0
  6  7  1  0
  6  8  1  0
  8  9  2  0
  9 10  1  0
 10 11  2  0
 11 12  1  0
 12 13  2  0
 13 14  1  0
 14 15  1  0
 14 16  2  0
 13 17  1  0
 17 18  1  0
 18 19  2  0
 18 20  1  0
 17 21  1  0
 21 22  2  0
 22  8  1  0
 21 11  1  0
  1 23  1  0
  1 24  1  0
  1 25  1  0
  3 26  1  0
  3 27  1  0
  3 28  1  0
  4 29  1  0
  4 30  1  0
  5 31  1  0
  5 32  1  0
  7 33  1  0
  7 34  1  0
  7 35  1  0
  9 36  1  0
 10 37  1  0
 12 38  1  0
 15 39  1  0
 15 40  1  0
 22 41  1  0
M  CHG  1  20  -1
M  END
>  <UniqueID>  (51) 
50

>  <SMILES>  (51) 
CN(C)CCN(C)c1ccc2cc(C(N)=O)n(C(=O)[O-])c2c1

>  <Energy>  (51) 
80.17171507066584

>  <Genealogy>  (51) 
CN(C)CCN(C)c1ccc2cc(C(N)=O)n(C(=O)[O-])c2c1 (protonated)
CN(C)CCN(C)c1ccc2cc(C(N)=O)n(C(=O)[O-])c2c1 (3D coordinates assigned)
CN(C)CCN(C)c1ccc2cc(C(N)=O)n(C(=O)[O-])c2c1 (optimized conformer: 80.17171507066584 kcal/mol)

>  <smiles>  (51) 
CN(C)CCN(C)c1ccc2cc(C(N)=O)n(C(=O)O)c2c1

>  <score_type>  (51) 
oracle

>  <origin>  (51) 
adg

>  <m_score__min__energy>  (51) 
-8.6300000000000008

>  <m_primary>  (51) 
energy

$$$$
51:0
     RDKit          3D

 44 45  0  0  0  0  0  0  0  0999 V2000
   -5.9260   25.1930  -29.0640 N   0  0  0  0  0  0  0  0  0  0  0  0
   -5.7240   24.7460  -30.4060 C   0  0  0  0  0  0  0  0  0  0  0  0
   -5.0820   25.4780  -31.2050 O   0  0  0  0  0  0  0  0  0  0  0  0
   -6.2920   23.4600  -30.8680 C   0  0  0  0  0  0  0  0  0  0  0  0
   -7.6570   23.2280  -31.0300 C   0  0  0  0  0  0  0  0  0  0  0  0
   -7.7520   21.9630  -31.5630 C   0  0  0  0  0  0  0  0  0  0  0  0
   -8.8770   21.2280  -31.9250 C   0  0  0  0  0  0  0  0  0  0  0  0
   -8.6810   19.9350  -32.4390 C   0  0  0  0  0  0  0  0  0  0  0  0
   -7.3760   19.3980  -32.5650 C   0  0  0  0  0  0  0  0  0  0  0  0
   -7.1770   18.0160  -33.1330 C   0  0  0  0  0  0  0  0  0  0  0  0
   -6.0600   17.9950  -34.1760 C   0  0  0  0  0  0  0  0  0  0  0  0
   -6.2010   16.8750  -34.9750 F   0  0  0  0  0  0  0  0  0  0  0  0
   -4.8240   17.9470  -33.5550 F   0  0  0  0  0  0  0  0  0  0  0  0
   -6.1270   19.1230  -34.9740 F   0  0  0  0  0  0  0  0  0  0  0  0
   -6.2570   20.1780  -32.1940 C   0  0  0  0  0  0  0  0  0  0  0  0
   -6.4810   21.4710  -31.7060 C   0  0  0  0  0  0  0  0  0  0  0  0
   -5.5720   22.3780  -31.2830 N   0  0  0  0  0  0  0  0  0  0  0  0
   -4.1470   22.2020  -31.2400 C   0  0  0  0  0  0  0  0  0  0  0  0
   -3.4710   22.2820  -32.3020 O   0  0  0  0  0  0  0  0  0  0  0  0
   -3.5150   21.9580  -30.0150 O   0  0  0  0  0  0  0  0  0  0  0  0
   -2.3500   22.6490  -29.5610 C   0  0  0  0  0  0  0  0  0  0  0  0
   -2.7210   23.9340  -28.7740 C   0  0  0  0  0  0  0  0  0  0  0  0
   -3.1220   24.9420  -29.6730 O   0  0  0  0  0  0  0  0  0  0  0  0
   -1.4770   24.4480  -28.0100 C   0  0  0  0  0  0  0  0  0  0  0  0
   -1.6340   25.7900  -27.6280 O   0  0  0  0  0  0  0  0  0  0  0  0
   -3.8630   23.6700  -27.7600 C   0  0  0  0  0  0  0  0  0  0  0  0
   -4.3820   24.8750  -27.2660 O   0  0  0  0  0  0  0  0  0  0  0  0
   -5.5540   26.1200  -28.7590 H   0  0  0  0  0  0  0  0  0  0  0  0
   -6.4050   24.5910  -28.3580 H   0  0  0  0  0  0  0  0  0  0  0  0
   -8.4831   23.9114  -30.7839 H   0  0  0  0  0  0  0  0  0  0  0  0
   -9.8881   21.6462  -31.8123 H   0  0  0  0  0  0  0  0  0  0  0  0
   -9.5493   19.3338  -32.7466 H   0  0  0  0  0  0  0  0  0  0  0  0
   -6.9159   17.3277  -32.3156 H   0  0  0  0  0  0  0  0  0  0  0  0
   -8.1121   17.7058  -33.6222 H   0  0  0  0  0  0  0  0  0  0  0  0
   -5.2360   19.7792  -32.2864 H   0  0  0  0  0  0  0  0  0  0  0  0
   -1.7721   21.9821  -28.9043 H   0  0  0  0  0  0  0  0  0  0  0  0
   -1.7580   22.9420  -30.4406 H   0  0  0  0  0  0  0  0  0  0  0  0
   -3.9530   25.3590  -29.3240 H   0  0  0  0  0  0  0  0  0  0  0  0
   -1.3298   23.8336  -27.1096 H   0  0  0  0  0  0  0  0  0  0  0  0
   -0.6047   24.3754  -28.6762 H   0  0  0  0  0  0  0  0  0  0  0  0
   -2.5740   26.0380  -27.8270 H   0  0  0  0  0  0  0  0  0  0  0  0
   -4.6667   23.1100  -28.2605 H   0  0  0  0  0  0  0  0  0  0  0  0
   -3.4578   23.0903  -26.9175 H   0  0  0  0  0  0  0  0  0  0  0  0
   -3.8490   25.5980  -27.6890 H   0  0  0  0  0  0  0  0  0  0  0  0
  1  2  1  0
  2  3  2  0
  2  4  1  0
  4  5  2  0
  5  6  1  0
  6  7  2  0
  7  8  1  0
  8  9  2  0
  9 10  1  0
 10 11  1  0
 11 12  1  0
 11 13  1  0
 11 14  1  0
  9 15  1  0
 15 16  2  0
 16 17  1  0
 17 18  1  0
 18 19  2  0
 18 20  1  0
 20 21  1  0
 21 22  1  0
 22 23  1  0
 22 24  1  0
 24 25  1  0
 22 26  1  0
 26 27  1  0
 17  4  1  0
 16  6  1  0
  1 28  1  0
  1 29  1  0
  5 30  1  0
  7 31  1  0
  8 32  1  0
 10 33  1  0
 10 34  1  0
 15 35  1  0
 21 36  1  0
 21 37  1  0
 23 38  1  0
 24 39  1  0
 24 40  1  0
 25 41  1  0
 26 42  1  0
 26 43  1  0
 27 44  1  0
M  END
>  <UniqueID>  (52) 
51

>  <SMILES>  (52) 
NC(=O)c1cc2ccc(CC(F)(F)F)cc2n1C(=O)OCC(O)(CO)CO

>  <Energy>  (52) 
77.68425248057821

>  <Genealogy>  (52) 
NC(=O)c1cc2ccc(CC(F)(F)F)cc2n1C(=O)OCC(O)(CO)CO (3D coordinates assigned)
NC(=O)c1cc2ccc(CC(F)(F)F)cc2n1C(=O)OCC(O)(CO)CO (optimized conformer: 77.68425248057821 kcal/mol)

>  <smiles>  (52) 
NC(=O)c1cc2ccc(CC(F)(F)F)cc2n1C(=O)OCC(O)(CO)CO

>  <score_type>  (52) 
oracle

>  <origin>  (52) 
adg

>  <m_score__min__energy>  (52) 
-9.1799999999999997

>  <m_primary>  (52) 
energy

$$$$
52:0
     RDKit          3D

 36 37  0  0  0  0  0  0  0  0999 V2000
   -1.9710   25.2900  -27.6080 C   0  0  0  0  0  0  0  0  0  0  0  0
   -1.6400   25.1270  -28.9690 O   0  0  0  0  0  0  0  0  0  0  0  0
   -0.6840   24.0960  -29.0960 C   0  0  0  0  0  0  0  0  0  0  0  0
   -1.2150   23.0420  -30.0660 C   0  0  0  0  0  0  0  0  0  0  0  0
   -2.6710   23.1190  -30.1600 N   0  0  0  0  0  0  0  0  0  0  0  0
   -3.4390   22.2550  -31.0070 C   0  0  0  0  0  0  0  0  0  0  0  0
   -2.8850   21.2880  -31.5960 O   0  0  0  0  0  0  0  0  0  0  0  0
   -4.8410   22.4950  -31.1950 N   0  0  0  0  0  0  0  0  0  0  0  0
   -5.5610   23.5910  -30.8230 C   0  0  0  0  0  0  0  0  0  0  0  0
   -5.0070   24.8300  -30.2360 C   0  0  0  0  0  0  0  0  0  0  0  0
   -3.8690   25.4500  -30.8310 N   0  0  0  0  0  0  0  0  0  0  0  0
   -5.5120   25.3350  -29.1990 O   0  0  0  0  0  0  0  0  0  0  0  0
   -6.9080   23.4180  -31.1330 C   0  0  0  0  0  0  0  0  0  0  0  0
   -6.9920   22.1710  -31.7100 C   0  0  0  0  0  0  0  0  0  0  0  0
   -8.0970   21.4850  -32.2050 C   0  0  0  0  0  0  0  0  0  0  0  0
   -7.8940   20.1960  -32.7250 C   0  0  0  0  0  0  0  0  0  0  0  0
   -6.6030   19.6050  -32.7180 C   0  0  0  0  0  0  0  0  0  0  0  0
   -6.3910   18.2360  -33.3120 C   0  0  0  0  0  0  0  0  0  0  0  0
   -5.9790   18.3690  -34.6250 F   0  0  0  0  0  0  0  0  0  0  0  0
   -7.5640   17.5020  -33.2790 F   0  0  0  0  0  0  0  0  0  0  0  0
   -5.4260   17.5410  -32.6050 F   0  0  0  0  0  0  0  0  0  0  0  0
   -5.5020   20.3450  -32.2270 C   0  0  0  0  0  0  0  0  0  0  0  0
   -5.7320   21.6340  -31.7340 C   0  0  0  0  0  0  0  0  0  0  0  0
   -1.1591   24.8902  -26.9828 H   0  0  0  0  0  0  0  0  0  0  0  0
   -2.1093   26.3592  -27.3898 H   0  0  0  0  0  0  0  0  0  0  0  0
   -2.9028   24.7477  -27.3898 H   0  0  0  0  0  0  0  0  0  0  0  0
    0.2579   24.5121  -29.4829 H   0  0  0  0  0  0  0  0  0  0  0  0
   -0.4994   23.6373  -28.1134 H   0  0  0  0  0  0  0  0  0  0  0  0
   -0.7786   23.2135  -31.0611 H   0  0  0  0  0  0  0  0  0  0  0  0
   -0.9351   22.0449  -29.6954 H   0  0  0  0  0  0  0  0  0  0  0  0
   -3.1730   23.8080  -29.5550 H   0  0  0  0  0  0  0  0  0  0  0  0
   -2.9120   25.3010  -30.4420 H   0  0  0  0  0  0  0  0  0  0  0  0
   -7.7298   24.1271  -30.9546 H   0  0  0  0  0  0  0  0  0  0  0  0
   -9.0991   21.9384  -32.1895 H   0  0  0  0  0  0  0  0  0  0  0  0
   -8.7451   19.6380  -33.1425 H   0  0  0  0  0  0  0  0  0  0  0  0
   -4.4887   19.9170  -32.2327 H   0  0  0  0  0  0  0  0  0  0  0  0
  1  2  1  0
  2  3  1  0
  3  4  1  0
  4  5  1  0
  5  6  1  0
  6  7  2  0
  6  8  1  0
  8  9  1  0
  9 10  1  0
 10 11  1  0
 10 12  2  0
  9 13  2  0
 13 14  1  0
 14 15  2  0
 15 16  1  0
 16 17  2  0
 17 18  1  0
 18 19  1  0
 18 20  1  0
 18 21  1  0
 17 22  1  0
 22 23  2  0
 23  8  1  0
 23 14  1  0
  1 24  1  0
  1 25  1  0
  1 26  1  0
  3 27  1  0
  3 28  1  0
  4 29  1  0
  4 30  1  0
  5 31  1  0
 11 32  1  0
 13 33  1  0
 15 34  1  0
 16 35  1  0
 22 36  1  0
M  CHG  1  11  -1
M  END
>  <UniqueID>  (53) 
52

>  <SMILES>  (53) 
COCCNC(=O)n1c(C([NH-])=O)cc2ccc(C(F)(F)F)cc21

>  <Energy>  (53) 
71.46462938794731

>  <Genealogy>  (53) 
COCCNC(=O)n1c(C([NH-])=O)cc2ccc(C(F)(F)F)cc21 (protonated)
COCCNC(=O)n1c(C([NH-])=O)cc2ccc(C(F)(F)F)cc21 (3D coordinates assigned)
COCCNC(=O)n1c(C([NH-])=O)cc2ccc(C(F)(F)F)cc21 (optimized conformer: 71.46462938794731 kcal/mol)

>  <smiles>  (53) 
COCCNC(=O)n1c(C(N)=O)cc2ccc(C(F)(F)F)cc21

>  <score_type>  (53) 
oracle

>  <origin>  (53) 
adg

>  <m_score__min__energy>  (53) 
-9.3499999999999996

>  <m_primary>  (53) 
energy

$$$$
53:0
     RDKit          3D

 34 35  0  0  0  0  0  0  0  0999 V2000
   -7.9270   17.8060  -32.3830 C   0  0  0  0  0  0  0  0  0  0  0  0
   -6.8360   18.0890  -33.4120 C   0  0  2  0  0  0  0  0  0  0  0  0
   -6.0750   16.9470  -33.6050 F   0  0  0  0  0  0  0  0  0  0  0  0
   -5.9570   19.2260  -32.9570 C   0  0  0  0  0  0  0  0  0  0  0  0
   -4.5970   19.2750  -33.3550 C   0  0  0  0  0  0  0  0  0  0  0  0
   -3.7770   20.3520  -32.9770 C   0  0  0  0  0  0  0  0  0  0  0  0
   -4.3430   21.3630  -32.2060 C   0  0  0  0  0  0  0  0  0  0  0  0
   -3.7930   22.5350  -31.7370 C   0  0  0  0  0  0  0  0  0  0  0  0
   -4.8230   23.1760  -31.0510 C   0  0  0  0  0  0  0  0  0  0  0  0
   -4.6530   24.4620  -30.3420 C   0  0  0  0  0  0  0  0  0  0  0  0
   -5.3360   24.7300  -29.1160 N   0  0  0  0  0  0  0  0  0  0  0  0
   -3.8590   25.3220  -30.8050 O   0  0  0  0  0  0  0  0  0  0  0  0
   -5.9660   22.4370  -31.1070 N   0  0  0  0  0  0  0  0  0  0  0  0
   -7.2750   22.7940  -30.6400 C   0  0  0  0  0  0  0  0  0  0  0  0
   -7.4960   22.8730  -29.4010 O   0  0  0  0  0  0  0  0  0  0  0  0
   -8.4110   22.9750  -31.6040 C   0  0  0  0  0  0  0  0  0  0  0  0
   -9.4400   21.8620  -31.4380 C   0  0  0  0  0  0  0  0  0  0  0  0
   -9.3840   20.9920  -32.5130 F   0  0  0  0  0  0  0  0  0  0  0  0
   -5.6540   21.3290  -31.8110 C   0  0  0  0  0  0  0  0  0  0  0  0
   -6.4980   20.2790  -32.1850 C   0  0  0  0  0  0  0  0  0  0  0  0
   -7.5123   17.9136  -31.3699 H   0  0  0  0  0  0  0  0  0  0  0  0
   -8.7530   18.5196  -32.5187 H   0  0  0  0  0  0  0  0  0  0  0  0
   -8.3020   16.7809  -32.5187 H   0  0  0  0  0  0  0  0  0  0  0  0
   -7.3096   18.3786  -34.3616 H   0  0  0  0  0  0  0  0  0  0  0  0
   -4.1792   18.4614  -33.9661 H   0  0  0  0  0  0  0  0  0  0  0  0
   -2.7207   20.3945  -33.2811 H   0  0  0  0  0  0  0  0  0  0  0  0
   -2.7609   22.8897  -31.8745 H   0  0  0  0  0  0  0  0  0  0  0  0
   -5.2480   25.6660  -28.6630 H   0  0  0  0  0  0  0  0  0  0  0  0
   -5.8530   23.9810  -28.6070 H   0  0  0  0  0  0  0  0  0  0  0  0
   -8.8942   23.9449  -31.4149 H   0  0  0  0  0  0  0  0  0  0  0  0
   -8.0142   22.9403  -32.6294 H   0  0  0  0  0  0  0  0  0  0  0  0
   -9.2291   21.3080  -30.5114 H   0  0  0  0  0  0  0  0  0  0  0  0
  -10.4446   22.3076  -31.3902 H   0  0  0  0  0  0  0  0  0  0  0  0
   -7.5565   20.2726  -31.8859 H   0  0  0  0  0  0  0  0  0  0  0  0
  1  2  1  0
  2  3  1  0
  2  4  1  0
  4  5  2  0
  5  6  1  0
  6  7  2  0
  7  8  1  0
  8  9  2  0
  9 10  1  0
 10 11  1  0
 10 12  2  0
  9 13  1  0
 13 14  1  0
 14 15  2  0
 14 16  1  0
 16 17  1  0
 17 18  1  0
 13 19  1  0
 19 20  2  0
 20  4  1  0
 19  7  1  0
  1 21  1  0
  1 22  1  0
  1 23  1  0
  2 24  1  6
  5 25  1  0
  6 26  1  0
  8 27  1  0
 11 28  1  0
 11 29  1  0
 16 30  1  0
 16 31  1  0
 17 32  1  0
 17 33  1  0
 20 34  1  0
M  END
>  <UniqueID>  (54) 
53

>  <SMILES>  (54) 
C[C@H](F)c1ccc2cc(C(N)=O)n(C(=O)CCF)c2c1

>  <Energy>  (54) 
68.01088707755136

>  <Genealogy>  (54) 
C[C@H](F)c1ccc2cc(C(N)=O)n(C(=O)CCF)c2c1 (chirality)
C[C@H](F)c1ccc2cc(C(N)=O)n(C(=O)CCF)c2c1 (3D coordinates assigned)
C[C@H](F)c1ccc2cc(C(N)=O)n(C(=O)CCF)c2c1 (optimized conformer: 68.01088707755136 kcal/mol)

>  <smiles>  (54) 
CC(F)c1ccc2cc(C(N)=O)n(C(=O)CCF)c2c1

>  <score_type>  (54) 
oracle

>  <origin>  (54) 
adg

>  <m_score__min__energy>  (54) 
-8.1799999999999997

>  <m_primary>  (54) 
energy

$$$$
54:0
     RDKit          3D

 48 50  0  0  0  0  0  0  0  0999 V2000
   -7.2600   17.2930  -32.7480 C   0  0  0  0  0  0  0  0  0  0  0  0
   -6.6560   18.4890  -33.3480 N   0  0  0  0  0  0  0  0  0  0  0  0
   -5.8600   18.3450  -34.5720 C   0  0  0  0  0  0  0  0  0  0  0  0
   -6.8400   19.7930  -32.7370 C   0  0  0  0  0  0  0  0  0  0  0  0
   -8.1260   20.4030  -32.6970 C   0  0  0  0  0  0  0  0  0  0  0  0
   -8.3080   21.6760  -32.1290 C   0  0  0  0  0  0  0  0  0  0  0  0
   -7.1970   22.3190  -31.5980 C   0  0  0  0  0  0  0  0  0  0  0  0
   -7.0810   23.5700  -31.0350 C   0  0  0  0  0  0  0  0  0  0  0  0
   -5.7320   23.7070  -30.7140 C   0  0  0  0  0  0  0  0  0  0  0  0
   -5.1620   24.8930  -30.0410 C   0  0  0  0  0  0  0  0  0  0  0  0
   -4.0540   25.5750  -30.6220 N   0  0  0  0  0  0  0  0  0  0  0  0
   -5.6620   25.3290  -28.9710 O   0  0  0  0  0  0  0  0  0  0  0  0
   -5.0450   22.5820  -31.0600 N   0  0  0  0  0  0  0  0  0  0  0  0
   -3.6320   22.3570  -30.9840 C   0  0  0  0  0  0  0  0  0  0  0  0
   -2.8400   23.1310  -31.5890 O   0  0  0  0  0  0  0  0  0  0  0  0
   -3.1420   21.3050  -30.2020 O   0  0  0  0  0  0  0  0  0  0  0  0
   -1.9630   21.3860  -29.4000 C   0  0  0  0  0  0  0  0  0  0  0  0
   -2.0670   22.4970  -28.3370 C   0  0  2  0  0  0  0  0  0  0  0  0
   -3.3290   22.4070  -27.4830 C   0  0  0  0  0  0  0  0  0  0  0  0
   -3.6690   23.8340  -27.2780 C   0  0  0  0  0  0  0  0  0  0  0  0
   -4.5960   24.1880  -26.5640 O   0  0  0  0  0  0  0  0  0  0  0  0
   -2.8650   24.7710  -28.0040 N   0  0  1  0  0  0  0  0  0  0  0  0
   -2.0230   25.5440  -27.0760 C   0  0  0  0  0  0  0  0  0  0  0  0
   -2.0580   23.9290  -28.9060 C   0  0  0  0  0  0  0  0  0  0  0  0
   -5.9550   21.7460  -31.6040 C   0  0  0  0  0  0  0  0  0  0  0  0
   -5.7370   20.4880  -32.1760 C   0  0  0  0  0  0  0  0  0  0  0  0
   -7.2198   17.3726  -31.6516 H   0  0  0  0  0  0  0  0  0  0  0  0
   -8.3081   17.2100  -33.0714 H   0  0  0  0  0  0  0  0  0  0  0  0
   -6.7047   16.4002  -33.0714 H   0  0  0  0  0  0  0  0  0  0  0  0
   -4.8097   18.1550  -34.3061 H   0  0  0  0  0  0  0  0  0  0  0  0
   -6.2466   17.5022  -35.1638 H   0  0  0  0  0  0  0  0  0  0  0  0
   -5.9269   19.2698  -35.1638 H   0  0  0  0  0  0  0  0  0  0  0  0
   -8.9912   19.8694  -33.1174 H   0  0  0  0  0  0  0  0  0  0  0  0
   -9.3009   22.1490  -32.1057 H   0  0  0  0  0  0  0  0  0  0  0  0
   -7.8830   24.3053  -30.8730 H   0  0  0  0  0  0  0  0  0  0  0  0
   -3.1160   25.1200  -30.6840 H   0  0  0  0  0  0  0  0  0  0  0  0
   -1.8107   20.4217  -28.8930 H   0  0  0  0  0  0  0  0  0  0  0  0
   -1.1166   21.6243  -30.0609 H   0  0  0  0  0  0  0  0  0  0  0  0
   -1.1625   22.3176  -27.7373 H   0  0  0  0  0  0  0  0  0  0  0  0
   -4.1335   21.8775  -28.0144 H   0  0  0  0  0  0  0  0  0  0  0  0
   -3.1901   21.8467  -26.5466 H   0  0  0  0  0  0  0  0  0  0  0  0
   -3.4780   25.4170  -28.5540 H   0  0  0  0  0  0  0  0  0  0  0  0
   -2.2948   25.2944  -26.0397 H   0  0  0  0  0  0  0  0  0  0  0  0
   -0.9651   25.2959  -27.2475 H   0  0  0  0  0  0  0  0  0  0  0  0
   -2.1799   26.6192  -27.2475 H   0  0  0  0  0  0  0  0  0  0  0  0
   -2.4950   23.9345  -29.9155 H   0  0  0  0  0  0  0  0  0  0  0  0
   -1.0289   24.3115  -28.9746 H   0  0  0  0  0  0  0  0  0  0  0  0
   -4.7298   20.0459  -32.1907 H   0  0  0  0  0  0  0  0  0  0  0  0
  1  2  1  0
  2  3  1  0
  2  4  1  0
  4  5  2  0
  5  6  1  0
  6  7  2  0
  7  8  1  0
  8  9  2  0
  9 10  1  0
 10 11  1  0
 10 12  2  0
  9 13  1  0
 13 14  1  0
 14 15  2  0
 14 16  1  0
 16 17  1  0
 17 18  1  0
 18 19  1  0
 19 20  1  0
 20 21  2  0
 20 22  1  0
 22 23  1  0
 22 24  1  0
 13 25  1  0
 25 26  2  0
 26  4  1  0
 25  7  1  0
 24 18  1  0
  1 27  1  0
  1 28  1  0
  1 29  1  0
  3 30  1  0
  3 31  1  0
  3 32  1  0
  5 33  1  0
  6 34  1  0
  8 35  1  0
 11 36  1  0
 17 37  1  0
 17 38  1  0
 18 39  1  1
 19 40  1  0
 19 41  1  0
 22 42  1  6
 23 43  1  0
 23 44  1  0
 23 45  1  0
 24 46  1  0
 24 47  1  0
 26 48  1  0
M  CHG  2  11  -1  22   1
M  END
>  <UniqueID>  (55) 
54

>  <SMILES>  (55) 
CN(C)c1ccc2cc(C([NH-])=O)n(C(=O)OC[C@@H]3CC(=O)[N@@H+](C)C3)c2c1

>  <Energy>  (55) 
90.67491776999535

>  <Genealogy>  (55) 
CN(C)c1ccc2cc(C([NH-])=O)n(C(=O)OCC3CC(=O)[NH+](C)C3)c2c1 (protonated)
CN(C)c1ccc2cc(C([NH-])=O)n(C(=O)OC[C@@H]3CC(=O)[N@@H+](C)C3)c2c1 (chirality)
CN(C)c1ccc2cc(C([NH-])=O)n(C(=O)OC[C@@H]3CC(=O)[N@@H+](C)C3)c2c1 (3D coordinates assigned)
CN(C)c1ccc2cc(C([NH-])=O)n(C(=O)OC[C@@H]3CC(=O)[N@@H+](C)C3)c2c1 (nonaromatic ring conformer: 90.67491776999535 kcal/mol)

>  <smiles>  (55) 
CN1CC(COC(=O)n2c(C(N)=O)cc3ccc(N(C)C)cc32)CC1=O

>  <score_type>  (55) 
oracle

>  <origin>  (55) 
adg

>  <m_score__min__energy>  (55) 
-10.19

>  <m_primary>  (55) 
energy

$$$$
55:0
     RDKit          3D

 47 48  0  0  0  0  0  0  0  0999 V2000
   -6.5070   16.2500  -34.1270 C   0  0  0  0  0  0  0  0  0  0  0  0
   -5.9600   17.5150  -33.4380 C   0  0  0  0  0  0  0  0  0  0  0  0
   -4.4910   17.7070  -33.8590 C   0  0  0  0  0  0  0  0  0  0  0  0
   -6.0530   17.3050  -31.9820 C   0  0  0  0  0  0  0  0  0  0  0  0
   -6.1270   17.1380  -30.8390 N   0  0  0  0  0  0  0  0  0  0  0  0
   -6.7730   18.6820  -33.8360 N   0  0  0  0  0  0  0  0  0  0  0  0
   -7.0110   19.8770  -33.0580 C   0  0  0  0  0  0  0  0  0  0  0  0
   -8.3150   20.2810  -32.6570 C   0  0  0  0  0  0  0  0  0  0  0  0
   -8.5070   21.4500  -31.9010 C   0  0  0  0  0  0  0  0  0  0  0  0
   -7.3890   22.2060  -31.5710 C   0  0  0  0  0  0  0  0  0  0  0  0
   -7.2900   23.3630  -30.8320 C   0  0  0  0  0  0  0  0  0  0  0  0
   -5.9320   23.6740  -30.8150 C   0  0  0  0  0  0  0  0  0  0  0  0
   -5.3740   24.9000  -30.2000 C   0  0  0  0  0  0  0  0  0  0  0  0
   -5.7550   25.2930  -28.8810 N   0  0  0  0  0  0  0  0  0  0  0  0
   -4.5780   25.6280  -30.8510 O   0  0  0  0  0  0  0  0  0  0  0  0
   -5.2210   22.7470  -31.5150 N   0  0  0  0  0  0  0  0  0  0  0  0
   -3.7930   22.6760  -31.6680 C   0  0  0  0  0  0  0  0  0  0  0  0
   -3.2940   21.9020  -32.5270 O   0  0  0  0  0  0  0  0  0  0  0  0
   -2.9740   23.4640  -30.8460 O   0  0  0  0  0  0  0  0  0  0  0  0
   -2.4320   23.0880  -29.5710 C   0  0  0  0  0  0  0  0  0  0  0  0
   -1.2280   22.1730  -29.8440 C   0  0  0  0  0  0  0  0  0  0  0  0
   -1.9480   24.3290  -28.7980 C   0  0  0  0  0  0  0  0  0  0  0  0
   -3.4740   22.3060  -28.7480 C   0  0  0  0  0  0  0  0  0  0  0  0
   -6.1270   21.8540  -31.9710 C   0  0  0  0  0  0  0  0  0  0  0  0
   -5.9050   20.6850  -32.7090 C   0  0  0  0  0  0  0  0  0  0  0  0
   -6.8212   15.5233  -33.3633 H   0  0  0  0  0  0  0  0  0  0  0  0
   -7.3695   16.5183  -34.7548 H   0  0  0  0  0  0  0  0  0  0  0  0
   -5.7208   15.8053  -34.7548 H   0  0  0  0  0  0  0  0  0  0  0  0
   -3.8602   17.7895  -32.9616 H   0  0  0  0  0  0  0  0  0  0  0  0
   -4.1654   16.8438  -34.4580 H   0  0  0  0  0  0  0  0  0  0  0  0
   -4.3982   18.6249  -34.4580 H   0  0  0  0  0  0  0  0  0  0  0  0
   -7.1380   18.6970  -34.8170 H   0  0  0  0  0  0  0  0  0  0  0  0
   -9.1842   19.6703  -32.9425 H   0  0  0  0  0  0  0  0  0  0  0  0
   -9.5131   21.7575  -31.5799 H   0  0  0  0  0  0  0  0  0  0  0  0
   -8.1087   23.9228  -30.3562 H   0  0  0  0  0  0  0  0  0  0  0  0
   -5.3850   26.1790  -28.4710 H   0  0  0  0  0  0  0  0  0  0  0  0
   -6.3710   24.6900  -28.2930 H   0  0  0  0  0  0  0  0  0  0  0  0
   -0.7940   21.8432  -28.8885 H   0  0  0  0  0  0  0  0  0  0  0  0
   -1.5575   21.2953  -30.4194 H   0  0  0  0  0  0  0  0  0  0  0  0
   -0.4706   22.7255  -30.4194 H   0  0  0  0  0  0  0  0  0  0  0  0
   -2.0219   24.1395  -27.7170 H   0  0  0  0  0  0  0  0  0  0  0  0
   -0.9014   24.5406  -29.0625 H   0  0  0  0  0  0  0  0  0  0  0  0
   -2.5750   25.1933  -29.0625 H   0  0  0  0  0  0  0  0  0  0  0  0
   -3.2789   22.4524  -27.6754 H   0  0  0  0  0  0  0  0  0  0  0  0
   -4.4825   22.6720  -28.9906 H   0  0  0  0  0  0  0  0  0  0  0  0
   -3.4043   21.2353  -28.9906 H   0  0  0  0  0  0  0  0  0  0  0  0
   -4.8867   20.4001  -33.0122 H   0  0  0  0  0  0  0  0  0  0  0  0
  1  2  1  0
  2  3  1  0
  2  4  1  0
  4  5  3  0
  2  6  1  0
  6  7  1  0
  7  8  2  0
  8  9  1  0
  9 10  2  0
 10 11  1  0
 11 12  2  0
 12 13  1  0
 13 14  1  0
 13 15  2  0
 12 16  1  0
 16 17  1  0
 17 18  2  0
 17 19  1  0
 19 20  1  0
 20 21  1  0
 20 22  1  0
 20 23  1  0
 16 24  1  0
 24 25  2  0
 25  7  1  0
 24 10  1  0
  1 26  1  0
  1 27  1  0
  1 28  1  0
  3 29  1  0
  3 30  1  0
  3 31  1  0
  6 32  1  0
  8 33  1  0
  9 34  1  0
 11 35  1  0
 14 36  1  0
 14 37  1  0
 21 38  1  0
 21 39  1  0
 21 40  1  0
 22 41  1  0
 22 42  1  0
 22 43  1  0
 23 44  1  0
 23 45  1  0
 23 46  1  0
 25 47  1  0
M  END
>  <UniqueID>  (56) 
55

>  <SMILES>  (56) 
CC(C)(C#N)Nc1ccc2cc(C(N)=O)n(C(=O)OC(C)(C)C)c2c1

>  <Energy>  (56) 
79.74363056787365

>  <Genealogy>  (56) 
CC(C)(C#N)Nc1ccc2cc(C(N)=O)n(C(=O)OC(C)(C)C)c2c1 (3D coordinates assigned)
CC(C)(C#N)Nc1ccc2cc(C(N)=O)n(C(=O)OC(C)(C)C)c2c1 (optimized conformer: 79.74363056787365 kcal/mol)

>  <smiles>  (56) 
CC(C)(C#N)Nc1ccc2cc(C(N)=O)n(C(=O)OC(C)(C)C)c2c1

>  <score_type>  (56) 
oracle

>  <origin>  (56) 
adg

>  <m_score__min__energy>  (56) 
-10.01

>  <m_primary>  (56) 
energy

$$$$
56:0
     RDKit          3D

 48 50  0  0  0  0  0  0  0  0999 V2000
   -2.2620   26.0400  -25.3080 C   0  0  0  0  0  0  0  0  0  0  0  0
   -1.3960   25.4370  -26.7470 S   0  0  0  0  0  0  0  0  0  0  0  0
   -0.3480   24.4570  -26.3000 O   0  0  0  0  0  0  0  0  0  0  0  0
   -0.7150   26.5960  -27.4210 O   0  0  0  0  0  0  0  0  0  0  0  0
   -2.4710   24.6520  -27.8820 N   0  0  0  0  0  0  0  0  0  0  0  0
   -3.4260   23.7800  -27.1620 C   0  0  0  0  0  0  0  0  0  0  0  0
   -4.0640   22.7640  -28.1160 C   0  0  0  0  0  0  0  0  0  0  0  0
   -3.0540   21.8450  -28.7020 N   0  0  0  0  0  0  0  0  0  0  0  0
   -3.4850   21.3330  -30.0230 C   0  0  0  0  0  0  0  0  0  0  0  0
   -3.9500   22.4460  -30.9230 C   0  0  0  0  0  0  0  0  0  0  0  0
   -3.1010   23.0450  -31.6370 O   0  0  0  0  0  0  0  0  0  0  0  0
   -5.3380   22.8140  -31.0170 N   0  0  0  0  0  0  0  0  0  0  0  0
   -5.8710   24.0610  -30.8660 C   0  0  0  0  0  0  0  0  0  0  0  0
   -5.1340   25.2760  -30.4560 C   0  0  0  0  0  0  0  0  0  0  0  0
   -3.7130   25.2780  -30.3570 N   0  0  0  0  0  0  0  0  0  0  0  0
   -5.7740   26.3190  -30.1520 O   0  0  0  0  0  0  0  0  0  0  0  0
   -7.2480   24.0320  -31.0750 C   0  0  0  0  0  0  0  0  0  0  0  0
   -7.5470   22.7200  -31.3570 C   0  0  0  0  0  0  0  0  0  0  0  0
   -8.7730   22.1230  -31.6350 C   0  0  0  0  0  0  0  0  0  0  0  0
   -8.7890   20.7440  -31.9000 C   0  0  0  0  0  0  0  0  0  0  0  0
   -7.5850   19.9940  -31.9130 C   0  0  0  0  0  0  0  0  0  0  0  0
   -7.6160   18.5060  -32.1570 C   0  0  0  0  0  0  0  0  0  0  0  0
   -8.8940   18.0080  -31.9660 F   0  0  0  0  0  0  0  0  0  0  0  0
   -6.7620   17.8480  -31.2890 F   0  0  0  0  0  0  0  0  0  0  0  0
   -7.2220   18.2510  -33.4570 F   0  0  0  0  0  0  0  0  0  0  0  0
   -6.3620   20.6340  -31.6070 C   0  0  0  0  0  0  0  0  0  0  0  0
   -6.3780   22.0050  -31.3220 C   0  0  0  0  0  0  0  0  0  0  0  0
   -1.6890   22.4240  -28.7540 C   0  0  0  0  0  0  0  0  0  0  0  0
   -1.7130   23.9500  -28.9520 C   0  0  0  0  0  0  0  0  0  0  0  0
   -1.7536   25.6860  -24.3990 H   0  0  0  0  0  0  0  0  0  0  0  0
   -2.2699   27.1399  -25.3190 H   0  0  0  0  0  0  0  0  0  0  0  0
   -3.2963   25.6658  -25.3190 H   0  0  0  0  0  0  0  0  0  0  0  0
   -3.0240   25.4170  -28.3360 H   0  0  0  0  0  0  0  0  0  0  0  0
   -2.8918   23.2406  -26.3660 H   0  0  0  0  0  0  0  0  0  0  0  0
   -4.2212   24.4076  -26.7334 H   0  0  0  0  0  0  0  0  0  0  0  0
   -4.8048   22.1706  -27.5601 H   0  0  0  0  0  0  0  0  0  0  0  0
   -4.5379   23.3194  -28.9387 H   0  0  0  0  0  0  0  0  0  0  0  0
   -2.6380   20.8182  -30.5001 H   0  0  0  0  0  0  0  0  0  0  0  0
   -4.3266   20.6422  -29.8667 H   0  0  0  0  0  0  0  0  0  0  0  0
   -3.1140   25.1980  -31.2080 H   0  0  0  0  0  0  0  0  0  0  0  0
   -7.9478   24.8792  -31.0250 H   0  0  0  0  0  0  0  0  0  0  0  0
   -9.7012   22.7133  -31.6468 H   0  0  0  0  0  0  0  0  0  0  0  0
   -9.7460   20.2397  -32.0997 H   0  0  0  0  0  0  0  0  0  0  0  0
   -5.4191   20.0677  -31.5931 H   0  0  0  0  0  0  0  0  0  0  0  0
   -1.1716   22.1972  -27.8102 H   0  0  0  0  0  0  0  0  0  0  0  0
   -1.1658   21.9797  -29.6136 H   0  0  0  0  0  0  0  0  0  0  0  0
   -0.6777   24.3218  -28.9527 H   0  0  0  0  0  0  0  0  0  0  0  0
   -2.2174   24.1548  -29.9079 H   0  0  0  0  0  0  0  0  0  0  0  0
  1  2  1  0
  2  3  2  0
  2  4  2  0
  2  5  1  0
  5  6  1  0
  6  7  1  0
  7  8  1  0
  8  9  1  0
  9 10  1  0
 10 11  2  0
 10 12  1  0
 12 13  1  0
 13 14  1  0
 14 15  1  0
 14 16  2  0
 13 17  2  0
 17 18  1  0
 18 19  2  0
 19 20  1  0
 20 21  2  0
 21 22  1  0
 22 23  1  0
 22 24  1  0
 22 25  1  0
 21 26  1  0
 26 27  2  0
  8 28  1  0
 28 29  1  0
 29  5  1  0
 27 12  1  0
 27 18  1  0
  1 30  1  0
  1 31  1  0
  1 32  1  0
  5 33  1  0
  6 34  1  0
  6 35  1  0
  7 36  1  0
  7 37  1  0
  9 38  1  0
  9 39  1  0
 15 40  1  0
 17 41  1  0
 19 42  1  0
 20 43  1  0
 26 44  1  0
 28 45  1  0
 28 46  1  0
 29 47  1  0
 29 48  1  0
M  CHG  2   5   1  15  -1
M  END
>  <UniqueID>  (57) 
56

>  <SMILES>  (57) 
CS(=O)(=O)[NH+]1CCN(CC(=O)n2c(C([NH-])=O)cc3ccc(C(F)(F)F)cc32)CC1

>  <Energy>  (57) 
95.34005061961048

>  <Genealogy>  (57) 
CS(=O)(=O)[NH+]1CCN(CC(=O)n2c(C([NH-])=O)cc3ccc(C(F)(F)F)cc32)CC1 (protonated)
CS(=O)(=O)[NH+]1CCN(CC(=O)n2c(C([NH-])=O)cc3ccc(C(F)(F)F)cc32)CC1 (3D coordinates assigned)
CS(=O)(=O)[NH+]1CCN(CC(=O)n2c(C([NH-])=O)cc3ccc(C(F)(F)F)cc32)CC1 (nonaromatic ring conformer: 95.34005061961048 kcal/mol)

>  <smiles>  (57) 
CS(=O)(=O)N1CCN(CC(=O)n2c(C(N)=O)cc3ccc(C(F)(F)F)cc32)CC1

>  <score_type>  (57) 
oracle

>  <origin>  (57) 
adg

>  <m_score__min__energy>  (57) 
-10.66

>  <m_primary>  (57) 
energy

$$$$
57:0
     RDKit          3D

 78 81  0  0  0  0  0  0  0  0999 V2000
   -4.0080   24.1370  -27.5960 C   0  0  0  0  0  0  0  0  0  0  0  0
   -3.0000   23.2000  -27.9540 O   0  0  0  0  0  0  0  0  0  0  0  0
   -2.7280   22.8540  -29.2820 C   0  0  0  0  0  0  0  0  0  0  0  0
   -1.8320   23.4570  -29.9360 O   0  0  0  0  0  0  0  0  0  0  0  0
   -3.5520   21.7990  -29.9450 C   0  0  0  0  0  0  0  0  0  0  0  0
   -4.1840   22.3680  -31.1770 C   0  0  0  0  0  0  0  0  0  0  0  0
   -3.4810   22.5900  -32.1990 O   0  0  0  0  0  0  0  0  0  0  0  0
   -5.5540   22.7880  -31.1520 N   0  0  0  0  0  0  0  0  0  0  0  0
   -6.0480   24.0370  -30.9350 C   0  0  0  0  0  0  0  0  0  0  0  0
   -5.2550   25.2200  -30.5350 C   0  0  0  0  0  0  0  0  0  0  0  0
   -3.8650   25.3060  -30.8420 N   0  0  0  0  0  0  0  0  0  0  0  0
   -5.8060   26.1510  -29.8890 O   0  0  0  0  0  0  0  0  0  0  0  0
   -7.4350   24.0440  -31.0860 C   0  0  0  0  0  0  0  0  0  0  0  0
   -7.7730   22.7460  -31.4040 C   0  0  0  0  0  0  0  0  0  0  0  0
   -9.0160   22.1750  -31.6610 C   0  0  0  0  0  0  0  0  0  0  0  0
   -9.0620   20.8020  -31.9620 C   0  0  0  0  0  0  0  0  0  0  0  0
   -7.8710   20.0350  -32.0130 C   0  0  0  0  0  0  0  0  0  0  0  0
   -7.9260   18.5530  -32.2730 C   0  0  0  0  0  0  0  0  0  0  0  0
   -6.5750   17.8770  -32.0050 C   0  0  0  0  0  0  0  0  0  0  0  0
   -6.1130   17.1470  -33.2110 N   0  0  0  0  0  0  0  0  0  0  0  0
   -4.9890   16.2270  -32.9430 C   0  0  0  0  0  0  0  0  0  0  0  0
   -3.6380   16.9550  -32.8140 C   0  0  0  0  0  0  0  0  0  0  0  0
   -3.4340   18.1200  -33.8440 C   0  0  0  0  0  0  0  0  0  0  0  0
   -4.4890   17.9950  -34.9750 C   0  0  0  0  0  0  0  0  0  0  0  0
   -5.9300   17.9890  -34.4250 C   0  0  0  0  0  0  0  0  0  0  0  0
   -3.5790   19.5180  -33.1450 C   0  0  0  0  0  0  0  0  0  0  0  0
   -2.2530   20.1040  -32.6230 C   0  0  0  0  0  0  0  0  0  0  0  0
   -1.2820   19.0400  -32.3440 N   0  0  0  0  0  0  0  0  0  0  0  0
   -0.6790   18.9070  -31.0420 C   0  0  0  0  0  0  0  0  0  0  0  0
    0.2860   18.1100  -30.8790 O   0  0  0  0  0  0  0  0  0  0  0  0
   -1.1820   19.6500  -29.9610 O   0  0  0  0  0  0  0  0  0  0  0  0
   -0.6840   19.6430  -28.6160 C   0  0  0  0  0  0  0  0  0  0  0  0
    0.6320   20.4390  -28.5200 C   0  0  0  0  0  0  0  0  0  0  0  0
   -1.7350   20.2090  -27.6430 C   0  0  0  0  0  0  0  0  0  0  0  0
   -0.4030   18.1780  -28.2440 C   0  0  0  0  0  0  0  0  0  0  0  0
   -0.9000   18.1320  -33.4340 C   0  0  0  0  0  0  0  0  0  0  0  0
   -2.0200   18.0210  -34.4870 C   0  0  0  0  0  0  0  0  0  0  0  0
   -6.6280   20.6530  -31.7540 C   0  0  0  0  0  0  0  0  0  0  0  0
   -6.6180   22.0120  -31.4380 C   0  0  0  0  0  0  0  0  0  0  0  0
   -4.0767   24.2008  -26.5000 H   0  0  0  0  0  0  0  0  0  0  0  0
   -3.7520   25.1253  -28.0055 H   0  0  0  0  0  0  0  0  0  0  0  0
   -4.9750   23.8097  -28.0055 H   0  0  0  0  0  0  0  0  0  0  0  0
   -2.9096   20.9495  -30.2201 H   0  0  0  0  0  0  0  0  0  0  0  0
   -4.3354   21.4541  -29.2541 H   0  0  0  0  0  0  0  0  0  0  0  0
   -3.3260   24.4610  -31.1340 H   0  0  0  0  0  0  0  0  0  0  0  0
   -8.1140   24.9023  -30.9750 H   0  0  0  0  0  0  0  0  0  0  0  0
   -9.9346   22.7793  -31.6296 H   0  0  0  0  0  0  0  0  0  0  0  0
  -10.0304   20.3192  -32.1595 H   0  0  0  0  0  0  0  0  0  0  0  0
   -8.6853   18.1041  -31.6158 H   0  0  0  0  0  0  0  0  0  0  0  0
   -8.1803   18.4009  -33.3323 H   0  0  0  0  0  0  0  0  0  0  0  0
   -5.8326   18.6439  -31.7391 H   0  0  0  0  0  0  0  0  0  0  0  0
   -6.6923   17.1612  -31.1781 H   0  0  0  0  0  0  0  0  0  0  0  0
   -5.1902   15.6909  -32.0038 H   0  0  0  0  0  0  0  0  0  0  0  0
   -4.9136   15.5392  -33.7981 H   0  0  0  0  0  0  0  0  0  0  0  0
   -3.5681   17.3752  -31.7998 H   0  0  0  0  0  0  0  0  0  0  0  0
   -2.8563   16.2094  -33.0215 H   0  0  0  0  0  0  0  0  0  0  0  0
   -4.3750   18.8463  -35.6622 H   0  0  0  0  0  0  0  0  0  0  0  0
   -4.3196   17.0393  -35.4926 H   0  0  0  0  0  0  0  0  0  0  0  0
   -6.2082   19.0231  -34.1735 H   0  0  0  0  0  0  0  0  0  0  0  0
   -6.5677   17.5569  -35.2102 H   0  0  0  0  0  0  0  0  0  0  0  0
   -4.0058   20.2245  -33.8721 H   0  0  0  0  0  0  0  0  0  0  0  0
   -4.2249   19.3670  -32.2675 H   0  0  0  0  0  0  0  0  0  0  0  0
   -1.8357   20.7819  -33.3821 H   0  0  0  0  0  0  0  0  0  0  0  0
   -2.4541   20.6489  -31.6888 H   0  0  0  0  0  0  0  0  0  0  0  0
    0.8898   20.5950  -27.4621 H   0  0  0  0  0  0  0  0  0  0  0  0
    1.4376   19.8766  -29.0147 H   0  0  0  0  0  0  0  0  0  0  0  0
    0.5079   21.4136  -29.0147 H   0  0  0  0  0  0  0  0  0  0  0  0
   -1.4083   20.0331  -26.6075 H   0  0  0  0  0  0  0  0  0  0  0  0
   -1.8478   21.2899  -27.8133 H   0  0  0  0  0  0  0  0  0  0  0  0
   -2.6995   19.7083  -27.8133 H   0  0  0  0  0  0  0  0  0  0  0  0
   -0.3833   18.0751  -27.1490 H   0  0  0  0  0  0  0  0  0  0  0  0
   -1.1944   17.5362  -28.6584 H   0  0  0  0  0  0  0  0  0  0  0  0
    0.5697   17.8746  -28.6584 H   0  0  0  0  0  0  0  0  0  0  0  0
    0.0103   18.5156  -33.9179 H   0  0  0  0  0  0  0  0  0  0  0  0
   -0.7224   17.1333  -33.0086 H   0  0  0  0  0  0  0  0  0  0  0  0
   -1.9036   18.8356  -35.2170 H   0  0  0  0  0  0  0  0  0  0  0  0
   -1.9347   17.0377  -34.9726 H   0  0  0  0  0  0  0  0  0  0  0  0
   -5.6916   20.0777  -31.8002 H   0  0  0  0  0  0  0  0  0  0  0  0
  1  2  1  0
  2  3  1  0
  3  4  2  0
  3  5  1  0
  5  6  1  0
  6  7  2  0
  6  8  1  0
  8  9  1  0
  9 10  1  0
 10 11  1  0
 10 12  2  0
  9 13  2  0
 13 14  1  0
 14 15  2  0
 15 16  1  0
 16 17  2  0
 17 18  1  0
 18 19  1  0
 19 20  1  0
 20 21  1  0
 21 22  1  0
 22 23  1  0
 23 24  1  0
 24 25  1  0
 23 26  1  0
 26 27  1  0
 27 28  1  0
 28 29  1  0
 29 30  2  0
 29 31  1  0
 31 32  1  0
 32 33  1  0
 32 34  1  0
 32 35  1  0
 28 36  1  0
 36 37  1  0
 17 38  1  0
 38 39  2  0
 39  8  1  0
 39 14  1  0
 25 20  1  0
 37 23  1  0
  1 40  1  0
  1 41  1  0
  1 42  1  0
  5 43  1  0
  5 44  1  0
 11 45  1  0
 13 46  1  0
 15 47  1  0
 16 48  1  0
 18 49  1  0
 18 50  1  0
 19 51  1  0
 19 52  1  0
 21 53  1  0
 21 54  1  0
 22 55  1  0
 22 56  1  0
 24 57  1  0
 24 58  1  0
 25 59  1  0
 25 60  1  0
 26 61  1  0
 26 62  1  0
 27 63  1  0
 27 64  1  0
 33 65  1  0
 33 66  1  0
 33 67  1  0
 34 68  1  0
 34 69  1  0
 34 70  1  0
 35 71  1  0
 35 72  1  0
 35 73  1  0
 36 74  1  0
 36 75  1  0
 37 76  1  0
 37 77  1  0
 38 78  1  0
M  CHG  1  11  -1
M  END
>  <UniqueID>  (58) 
57

>  <SMILES>  (58) 
COC(=O)CC(=O)n1c(C([NH-])=O)cc2ccc(CCN3CCC4(CC3)CCN(C(=O)OC(C)(C)C)CC4)cc21

>  <Energy>  (58) 
125.49922009386326

>  <Genealogy>  (58) 
COC(=O)CC(=O)n1c(C([NH-])=O)cc2ccc(CCN3CCC4(CC3)CCN(C(=O)OC(C)(C)C)CC4)cc21 (protonated)
COC(=O)CC(=O)n1c(C([NH-])=O)cc2ccc(CCN3CCC4(CC3)CCN(C(=O)OC(C)(C)C)CC4)cc21 (3D coordinates assigned)
COC(=O)CC(=O)n1c(C([NH-])=O)cc2ccc(CCN3CCC4(CC3)CCN(C(=O)OC(C)(C)C)CC4)cc21 (nonaromatic ring conformer: 125.49922009386326 kcal/mol)

>  <smiles>  (58) 
COC(=O)CC(=O)n1c(C(N)=O)cc2ccc(CCN3CCC4(CC3)CCN(C(=O)OC(C)(C)C)CC4)cc21

>  <score_type>  (58) 
oracle

>  <origin>  (58) 
adg

>  <m_score__min__energy>  (58) 
-12.529999999999999

>  <m_primary>  (58) 
energy

$$$$
58:0
     RDKit          3D

 51 53  0  0  0  0  0  0  0  0999 V2000
   -3.4860   13.2930  -36.4470 C   0  0  0  0  0  0  0  0  0  0  0  0
   -3.6910   14.5000  -35.6400 N   0  0  0  0  0  0  0  0  0  0  0  0
   -4.8510   14.3750  -34.7320 C   0  0  2  0  0  0  0  0  0  0  0  0
   -5.2370   15.7440  -34.1860 C   0  0  0  0  0  0  0  0  0  0  0  0
   -4.3900   16.8500  -34.3670 C   0  0  0  0  0  0  0  0  0  0  0  0
   -4.7500   18.1080  -33.8760 C   0  0  0  0  0  0  0  0  0  0  0  0
   -3.9200   19.1610  -34.0920 F   0  0  0  0  0  0  0  0  0  0  0  0
   -5.9710   18.2840  -33.1980 C   0  0  0  0  0  0  0  0  0  0  0  0
   -6.3580   19.6180  -32.6830 C   0  0  0  0  0  0  0  0  0  0  0  0
   -7.7070   20.0490  -32.7590 C   0  0  0  0  0  0  0  0  0  0  0  0
   -8.0820   21.3180  -32.2900 C   0  0  0  0  0  0  0  0  0  0  0  0
   -7.0940   22.1280  -31.7380 C   0  0  0  0  0  0  0  0  0  0  0  0
   -7.1720   23.4130  -31.2550 C   0  0  0  0  0  0  0  0  0  0  0  0
   -5.8780   23.7370  -30.8580 C   0  0  0  0  0  0  0  0  0  0  0  0
   -5.5090   25.0360  -30.2590 C   0  0  0  0  0  0  0  0  0  0  0  0
   -6.1240   25.5020  -29.0560 N   0  0  0  0  0  0  0  0  0  0  0  0
   -4.6670   25.7690  -30.8430 O   0  0  0  0  0  0  0  0  0  0  0  0
   -5.0290   22.6970  -31.0890 N   0  0  0  0  0  0  0  0  0  0  0  0
   -3.6000   22.6950  -30.9350 C   0  0  0  0  0  0  0  0  0  0  0  0
   -2.9820   23.7910  -30.8460 O   0  0  0  0  0  0  0  0  0  0  0  0
   -2.8390   21.4130  -30.8010 C   0  0  0  0  0  0  0  0  0  0  0  0
   -1.9390   21.0650  -32.2990 Cl  0  0  0  0  0  0  0  0  0  0  0  0
   -5.7890   21.7190  -31.6340 C   0  0  0  0  0  0  0  0  0  0  0  0
   -5.3830   20.4710  -32.1190 C   0  0  0  0  0  0  0  0  0  0  0  0
   -6.8210   17.1760  -33.0220 C   0  0  0  0  0  0  0  0  0  0  0  0
   -7.9940   17.3030  -32.3490 F   0  0  0  0  0  0  0  0  0  0  0  0
   -6.4550   15.9200  -33.5120 C   0  0  0  0  0  0  0  0  0  0  0  0
   -4.5320   13.4400  -33.6200 N   0  0  0  0  0  0  0  0  0  0  0  0
   -5.7120   12.6370  -33.2460 C   0  0  0  0  0  0  0  0  0  0  0  0
   -4.0680   14.1770  -32.4270 C   0  0  0  0  0  0  0  0  0  0  0  0
   -3.3392   12.4285  -35.7829 H   0  0  0  0  0  0  0  0  0  0  0  0
   -4.3680   13.1221  -37.0817 H   0  0  0  0  0  0  0  0  0  0  0  0
   -2.5971   13.4229  -37.0817 H   0  0  0  0  0  0  0  0  0  0  0  0
   -3.8210   15.3150  -36.2820 H   0  0  0  0  0  0  0  0  0  0  0  0
   -5.7045   13.9692  -35.2949 H   0  0  0  0  0  0  0  0  0  0  0  0
   -3.4357   16.7249  -34.8995 H   0  0  0  0  0  0  0  0  0  0  0  0
   -8.4678   19.3817  -33.1901 H   0  0  0  0  0  0  0  0  0  0  0  0
   -9.1248   21.6616  -32.3568 H   0  0  0  0  0  0  0  0  0  0  0  0
   -8.0670   24.0497  -31.1951 H   0  0  0  0  0  0  0  0  0  0  0  0
   -6.9550   25.0170  -28.6510 H   0  0  0  0  0  0  0  0  0  0  0  0
   -5.8100   26.3970  -28.6210 H   0  0  0  0  0  0  0  0  0  0  0  0
   -2.1304   21.4980  -29.9639 H   0  0  0  0  0  0  0  0  0  0  0  0
   -3.5494   20.5944  -30.6134 H   0  0  0  0  0  0  0  0  0  0  0  0
   -4.3291   20.1611  -32.0625 H   0  0  0  0  0  0  0  0  0  0  0  0
   -7.1275   15.0615  -33.3682 H   0  0  0  0  0  0  0  0  0  0  0  0
   -5.7879   12.5853  -32.1498 H   0  0  0  0  0  0  0  0  0  0  0  0
   -6.6192   13.1060  -33.6547 H   0  0  0  0  0  0  0  0  0  0  0  0
   -5.6086   11.6210  -33.6547 H   0  0  0  0  0  0  0  0  0  0  0  0
   -4.3991   13.6511  -31.5194 H   0  0  0  0  0  0  0  0  0  0  0  0
   -2.9696   14.2359  -32.4366 H   0  0  0  0  0  0  0  0  0  0  0  0
   -4.4897   15.1929  -32.4366 H   0  0  0  0  0  0  0  0  0  0  0  0
  1  2  1  0
  2  3  1  0
  3  4  1  0
  4  5  2  0
  5  6  1  0
  6  7  1  0
  6  8  2  0
  8  9  1  0
  9 10  2  0
 10 11  1  0
 11 12  2  0
 12 13  1  0
 13 14  2  0
 14 15  1  0
 15 16  1  0
 15 17  2  0
 14 18  1  0
 18 19  1  0
 19 20  2  0
 19 21  1  0
 21 22  1  0
 18 23  1  0
 23 24  2  0
  8 25  1  0
 25 26  1  0
 25 27  2  0
  3 28  1  0
 28 29  1  0
 28 30  1  0
 27  4  1  0
 24  9  1  0
 23 12  1  0
  1 31  1  0
  1 32  1  0
  1 33  1  0
  2 34  1  0
  3 35  1  6
  5 36  1  0
 10 37  1  0
 11 38  1  0
 13 39  1  0
 16 40  1  0
 16 41  1  0
 21 42  1  0
 21 43  1  0
 24 44  1  0
 27 45  1  0
 29 46  1  0
 29 47  1  0
 29 48  1  0
 30 49  1  0
 30 50  1  0
 30 51  1  0
M  END
>  <UniqueID>  (59) 
58

>  <SMILES>  (59) 
CN[C@H](c1cc(F)c(-c2ccc3cc(C(N)=O)n(C(=O)CCl)c3c2)c(F)c1)N(C)C

>  <Energy>  (59) 
101.819289146739

>  <Genealogy>  (59) 
CN[C@H](c1cc(F)c(-c2ccc3cc(C(N)=O)n(C(=O)CCl)c3c2)c(F)c1)N(C)C (chirality)
CN[C@H](c1cc(F)c(-c2ccc3cc(C(N)=O)n(C(=O)CCl)c3c2)c(F)c1)N(C)C (3D coordinates assigned)
CN[C@H](c1cc(F)c(-c2ccc3cc(C(N)=O)n(C(=O)CCl)c3c2)c(F)c1)N(C)C (optimized conformer: 101.819289146739 kcal/mol)

>  <smiles>  (59) 
CNC(c1cc(F)c(-c2ccc3cc(C(N)=O)n(C(=O)CCl)c3c2)c(F)c1)N(C)C

>  <score_type>  (59) 
oracle

>  <origin>  (59) 
adg

>  <m_score__min__energy>  (59) 
-9.3499999999999996

>  <m_primary>  (59) 
energy

$$$$
59:0
     RDKit          3D

 32 33  0  0  0  0  0  0  0  0999 V2000
   -6.4980   17.4340  -31.2330 N   0  0  0  0  0  0  0  0  0  0  0  0
   -5.9680   17.2180  -32.2380 C   0  0  0  0  0  0  0  0  0  0  0  0
   -5.2970   16.9420  -33.5130 C   0  0  0  0  0  0  0  0  0  0  0  0
   -5.1110   18.2360  -34.3090 C   0  0  0  0  0  0  0  0  0  0  0  0
   -4.2720   19.2480  -33.5240 C   0  0  0  0  0  0  0  0  0  0  0  0
   -5.1440   20.3410  -32.9690 C   0  0  0  0  0  0  0  0  0  0  0  0
   -6.5490   20.2860  -33.1440 C   0  0  0  0  0  0  0  0  0  0  0  0
   -7.3750   21.2890  -32.6120 C   0  0  0  0  0  0  0  0  0  0  0  0
   -6.7730   22.3210  -31.8970 C   0  0  0  0  0  0  0  0  0  0  0  0
   -7.3340   23.4270  -31.3020 C   0  0  0  0  0  0  0  0  0  0  0  0
   -6.2680   24.1190  -30.7360 C   0  0  0  0  0  0  0  0  0  0  0  0
   -6.4330   25.3490  -29.9360 C   0  0  0  0  0  0  0  0  0  0  0  0
   -5.6490   26.5130  -30.1990 N   0  0  0  0  0  0  0  0  0  0  0  0
   -7.2390   25.3530  -28.9680 O   0  0  0  0  0  0  0  0  0  0  0  0
   -5.0910   23.4770  -30.9790 N   0  0  0  0  0  0  0  0  0  0  0  0
   -3.7650   23.9390  -30.6630 C   0  0  0  0  0  0  0  0  0  0  0  0
   -2.8120   23.1240  -30.5610 O   0  0  0  0  0  0  0  0  0  0  0  0
   -3.5230   25.2940  -30.4740 O   0  0  0  0  0  0  0  0  0  0  0  0
   -5.4180   22.3730  -31.6900 C   0  0  0  0  0  0  0  0  0  0  0  0
   -4.5680   21.3970  -32.2270 C   0  0  0  0  0  0  0  0  0  0  0  0
   -4.3123   16.4937  -33.3148 H   0  0  0  0  0  0  0  0  0  0  0  0
   -5.9170   16.2481  -34.0997 H   0  0  0  0  0  0  0  0  0  0  0  0
   -4.6023   18.0053  -35.2566 H   0  0  0  0  0  0  0  0  0  0  0  0
   -6.1013   18.6752  -34.4998 H   0  0  0  0  0  0  0  0  0  0  0  0
   -3.7665   18.7323  -32.6942 H   0  0  0  0  0  0  0  0  0  0  0  0
   -3.5303   19.6956  -34.2019 H   0  0  0  0  0  0  0  0  0  0  0  0
   -6.9966   19.4501  -33.7016 H   0  0  0  0  0  0  0  0  0  0  0  0
   -8.4652   21.2604  -32.7558 H   0  0  0  0  0  0  0  0  0  0  0  0
   -8.3981   23.7049  -31.2787 H   0  0  0  0  0  0  0  0  0  0  0  0
   -5.8050   27.3850  -29.6460 H   0  0  0  0  0  0  0  0  0  0  0  0
   -4.8610   26.4880  -30.8830 H   0  0  0  0  0  0  0  0  0  0  0  0
   -3.4799   21.4513  -32.0749 H   0  0  0  0  0  0  0  0  0  0  0  0
  1  2  3  0
  2  3  1  0
  3  4  1  0
  4  5  1  0
  5  6  1  0
  6  7  2  0
  7  8  1  0
  8  9  2  0
  9 10  1  0
 10 11  2  0
 11 12  1  0
 12 13  1  0
 12 14  2  0
 11 15  1  0
 15 16  1  0
 16 17  2  0
 16 18  1  0
 15 19  1  0
 19 20  2  0
 20  6  1  0
 19  9  1  0
  3 21  1  0
  3 22  1  0
  4 23  1  0
  4 24  1  0
  5 25  1  0
  5 26  1  0
  7 27  1  0
  8 28  1  0
 10 29  1  0
 13 30  1  0
 13 31  1  0
 20 32  1  0
M  CHG  1  18  -1
M  END
>  <UniqueID>  (60) 
59

>  <SMILES>  (60) 
N#CCCCc1ccc2cc(C(N)=O)n(C(=O)[O-])c2c1

>  <Energy>  (60) 
65.92489619257539

>  <Genealogy>  (60) 
N#CCCCc1ccc2cc(C(N)=O)n(C(=O)[O-])c2c1 (protonated)
N#CCCCc1ccc2cc(C(N)=O)n(C(=O)[O-])c2c1 (3D coordinates assigned)
N#CCCCc1ccc2cc(C(N)=O)n(C(=O)[O-])c2c1 (optimized conformer: 65.92489619257539 kcal/mol)

>  <smiles>  (60) 
N#CCCCc1ccc2cc(C(N)=O)n(C(=O)O)c2c1

>  <score_type>  (60) 
oracle

>  <origin>  (60) 
adg

>  <m_score__min__energy>  (60) 
-8.8800000000000008

>  <m_primary>  (60) 
energy

$$$$
60:0
     RDKit          3D

 40 42  0  0  0  0  0  0  0  0999 V2000
   -1.9810   25.4860  -28.9700 N   0  0  0  0  0  0  0  0  0  0  0  0
   -1.3540   24.2450  -29.2820 C   0  0  0  0  0  0  0  0  0  0  0  0
   -0.1740   24.0340  -28.8940 O   0  0  0  0  0  0  0  0  0  0  0  0
   -2.0520   23.2260  -30.0910 C   0  0  0  0  0  0  0  0  0  0  0  0
   -1.4760   22.0130  -30.4680 C   0  0  0  0  0  0  0  0  0  0  0  0
   -2.4100   21.4000  -31.2720 C   0  0  0  0  0  0  0  0  0  0  0  0
   -2.3670   20.1710  -31.9230 C   0  0  0  0  0  0  0  0  0  0  0  0
   -3.4890   19.7860  -32.6770 C   0  0  0  0  0  0  0  0  0  0  0  0
   -4.6280   20.6260  -32.7590 C   0  0  0  0  0  0  0  0  0  0  0  0
   -5.8160   20.2160  -33.5920 C   0  0  0  0  0  0  0  0  0  0  0  0
   -6.5770   19.0270  -32.9670 C   0  0  2  0  0  0  0  0  0  0  0  0
   -6.3340   17.7690  -33.7680 C   0  0  0  0  0  0  0  0  0  0  0  0
   -6.8600   16.6830  -33.4070 O   0  0  0  0  0  0  0  0  0  0  0  0
   -5.5570   17.7970  -34.9210 O   0  0  0  0  0  0  0  0  0  0  0  0
   -8.0740   19.3780  -32.7350 C   0  0  0  0  0  0  0  0  0  0  0  0
   -8.4880   20.1650  -31.4950 C   0  0  0  0  0  0  0  0  0  0  0  0
   -8.7710   18.6710  -31.5790 C   0  0  0  0  0  0  0  0  0  0  0  0
   -4.6320   21.8700  -32.0900 C   0  0  0  0  0  0  0  0  0  0  0  0
   -3.4970   22.2300  -31.3560 C   0  0  0  0  0  0  0  0  0  0  0  0
   -3.2940   23.3520  -30.6350 N   0  0  0  0  0  0  0  0  0  0  0  0
   -4.2520   24.4010  -30.4320 C   0  0  0  0  0  0  0  0  0  0  0  0
   -3.9990   25.5610  -30.8560 O   0  0  0  0  0  0  0  0  0  0  0  0
   -5.6120   24.0800  -29.8820 C   0  0  0  0  0  0  0  0  0  0  0  0
   -6.5420   25.5860  -29.4440 S   0  0  0  0  0  0  0  0  0  0  0  0
   -2.9660   25.6780  -29.2560 H   0  0  0  0  0  0  0  0  0  0  0  0
   -0.4857   21.6280  -30.1833 H   0  0  0  0  0  0  0  0  0  0  0  0
   -1.4826   19.5210  -31.8499 H   0  0  0  0  0  0  0  0  0  0  0  0
   -3.4832   18.8231  -33.2088 H   0  0  0  0  0  0  0  0  0  0  0  0
   -6.5022   21.0715  -33.6775 H   0  0  0  0  0  0  0  0  0  0  0  0
   -5.4469   19.9022  -34.5795 H   0  0  0  0  0  0  0  0  0  0  0  0
   -6.1818   18.8181  -31.9619 H   0  0  0  0  0  0  0  0  0  0  0  0
   -8.2513   19.5098  -33.8126 H   0  0  0  0  0  0  0  0  0  0  0  0
   -7.7218   20.5416  -30.8013 H   0  0  0  0  0  0  0  0  0  0  0  0
   -9.0962   21.0628  -31.3106 H   0  0  0  0  0  0  0  0  0  0  0  0
   -8.2095   17.9687  -30.9454 H   0  0  0  0  0  0  0  0  0  0  0  0
   -9.6689   18.0433  -31.4798 H   0  0  0  0  0  0  0  0  0  0  0  0
   -5.5044   22.5378  -32.1448 H   0  0  0  0  0  0  0  0  0  0  0  0
   -6.1790   23.5200  -30.6402 H   0  0  0  0  0  0  0  0  0  0  0  0
   -5.4775   23.4845  -28.9669 H   0  0  0  0  0  0  0  0  0  0  0  0
   -5.3980   26.4050  -29.4550 H   0  0  0  0  0  0  0  0  0  0  0  0
  1  2  1  0
  2  3  2  0
  2  4  1  0
  4  5  2  0
  5  6  1  0
  6  7  2  0
  7  8  1  0
  8  9  2  0
  9 10  1  0
 10 11  1  0
 11 12  1  0
 12 13  2  0
 12 14  1  0
 11 15  1  0
 15 16  1  0
 16 17  1  0
  9 18  1  0
 18 19  2  0
 19 20  1  0
 20 21  1  0
 21 22  2  0
 21 23  1  0
 23 24  1  0
 20  4  1  0
 19  6  1  0
 17 15  1  0
  1 25  1  0
  5 26  1  0
  7 27  1  0
  8 28  1  0
 10 29  1  0
 10 30  1  0
 11 31  1  1
 15 32  1  0
 16 33  1  0
 16 34  1  0
 17 35  1  0
 17 36  1  0
 18 37  1  0
 23 38  1  0
 23 39  1  0
 24 40  1  0
M  CHG  2   1  -1  14  -1
M  END
>  <UniqueID>  (61) 
60

>  <SMILES>  (61) 
[NH-]C(=O)c1cc2ccc(C[C@H](C(=O)[O-])C3CC3)cc2n1C(=O)CS

>  <Energy>  (61) 
345.86238910467813

>  <Genealogy>  (61) 
[NH-]C(=O)c1cc2ccc(C[C@H](C(=O)[O-])C3CC3)cc2n1C(=O)CS (protonated)
[NH-]C(=O)c1cc2ccc(C[C@H](C(=O)[O-])C3CC3)cc2n1C(=O)CS (3D coordinates assigned)
[NH-]C(=O)c1cc2ccc(C[C@H](C(=O)[O-])C3CC3)cc2n1C(=O)CS (nonaromatic ring conformer: 345.86238910467813 kcal/mol)

>  <smiles>  (61) 
NC(=O)c1cc2ccc(C[C@H](C(=O)O)C3CC3)cc2n1C(=O)CS

>  <score_type>  (61) 
oracle

>  <origin>  (61) 
adg

>  <m_score__min__energy>  (61) 
-11.390000000000001

>  <m_primary>  (61) 
energy

$$$$
61:0
     RDKit          3D

 39 41  0  0  0  0  0  0  0  0999 V2000
   -1.7130   25.6520  -28.9720 N   0  0  0  0  0  0  0  0  0  0  0  0
   -0.9580   24.4450  -29.0570 C   0  0  0  0  0  0  0  0  0  0  0  0
    0.1350   24.3560  -28.4340 O   0  0  0  0  0  0  0  0  0  0  0  0
   -1.4170   23.3180  -29.8950 C   0  0  0  0  0  0  0  0  0  0  0  0
   -0.5590   22.3780  -30.4640 C   0  0  0  0  0  0  0  0  0  0  0  0
   -1.3680   21.5460  -31.2050 C   0  0  0  0  0  0  0  0  0  0  0  0
   -1.0500   20.4160  -31.9500 C   0  0  0  0  0  0  0  0  0  0  0  0
   -2.0990   19.7150  -32.5690 C   0  0  0  0  0  0  0  0  0  0  0  0
   -3.4450   20.1470  -32.4260 C   0  0  0  0  0  0  0  0  0  0  0  0
   -4.5620   19.4000  -33.0550 C   0  0  0  0  0  0  0  0  0  0  0  0
   -4.4790   18.1080  -33.4360 N   0  0  0  0  0  0  0  0  0  0  0  0
   -5.6420   17.8220  -33.9450 O   0  0  0  0  0  0  0  0  0  0  0  0
   -6.4250   18.8740  -33.8950 C   0  0  0  0  0  0  0  0  0  0  0  0
   -5.7810   19.9110  -33.3320 N   0  0  0  0  0  0  0  0  0  0  0  0
   -3.7240   21.3030  -31.6600 C   0  0  0  0  0  0  0  0  0  0  0  0
   -2.6570   21.9890  -31.0710 C   0  0  0  0  0  0  0  0  0  0  0  0
   -2.7040   23.0760  -30.2720 N   0  0  0  0  0  0  0  0  0  0  0  0
   -3.8920   23.7350  -29.8160 C   0  0  0  0  0  0  0  0  0  0  0  0
   -4.4810   23.3210  -28.7810 O   0  0  0  0  0  0  0  0  0  0  0  0
   -4.3660   24.8610  -30.5000 O   0  0  0  0  0  0  0  0  0  0  0  0
   -5.5670   24.8600  -31.2660 C   0  0  0  0  0  0  0  0  0  0  0  0
   -5.9980   23.4540  -31.5390 C   0  0  0  0  0  0  0  0  0  0  0  0
   -5.8730   22.9720  -32.6990 O   0  0  0  0  0  0  0  0  0  0  0  0
   -6.5740   22.7000  -30.5120 O   0  0  0  0  0  0  0  0  0  0  0  0
   -7.9570   22.3620  -30.4870 C   0  0  0  0  0  0  0  0  0  0  0  0
   -8.1790   21.1130  -31.2770 C   0  0  0  0  0  0  0  0  0  0  0  0
   -8.0390   21.1240  -32.4890 O   0  0  0  0  0  0  0  0  0  0  0  0
   -2.7040   25.6890  -29.2980 H   0  0  0  0  0  0  0  0  0  0  0  0
    0.5328   22.3145  -30.3460 H   0  0  0  0  0  0  0  0  0  0  0  0
   -0.0074   20.0804  -32.0520 H   0  0  0  0  0  0  0  0  0  0  0  0
   -1.8755   18.8219  -33.1710 H   0  0  0  0  0  0  0  0  0  0  0  0
   -7.4616   18.9031  -34.2619 H   0  0  0  0  0  0  0  0  0  0  0  0
   -6.1520   20.8730  -33.1730 H   0  0  0  0  0  0  0  0  0  0  0  0
   -4.7581   21.6549  -31.5304 H   0  0  0  0  0  0  0  0  0  0  0  0
   -6.3571   25.3809  -30.7054 H   0  0  0  0  0  0  0  0  0  0  0  0
   -5.3865   25.3745  -32.2214 H   0  0  0  0  0  0  0  0  0  0  0  0
   -8.2760   22.1995  -29.4469 H   0  0  0  0  0  0  0  0  0  0  0  0
   -8.5430   23.1827  -30.9263 H   0  0  0  0  0  0  0  0  0  0  0  0
   -8.4688   20.1833  -30.7655 H   0  0  0  0  0  0  0  0  0  0  0  0
  1  2  1  0
  2  3  2  0
  2  4  1  0
  4  5  2  0
  5  6  1  0
  6  7  2  0
  7  8  1  0
  8  9  2  0
  9 10  1  0
 10 11  2  0
 11 12  1  0
 12 13  1  0
 13 14  2  0
  9 15  1  0
 15 16  2  0
 16 17  1  0
 17 18  1  0
 18 19  2  0
 18 20  1  0
 20 21  1  0
 21 22  1  0
 22 23  2  0
 22 24  1  0
 24 25  1  0
 25 26  1  0
 26 27  2  0
 17  4  1  0
 16  6  1  0
 14 10  1  0
  1 28  1  0
  5 29  1  0
  7 30  1  0
  8 31  1  0
 13 32  1  0
 14 33  1  0
 15 34  1  0
 21 35  1  0
 21 36  1  0
 25 37  1  0
 25 38  1  0
 26 39  1  0
M  CHG  2   1  -1  14   1
M  END
>  <UniqueID>  (62) 
61

>  <SMILES>  (62) 
[NH-]C(=O)c1cc2ccc(-c3noc[nH+]3)cc2n1C(=O)OCC(=O)OCC=O

>  <Energy>  (62) 
109.83784764817914

>  <Genealogy>  (62) 
[NH-]C(=O)c1cc2ccc(-c3noc[nH+]3)cc2n1C(=O)OCC(=O)OCC=O (protonated)
[NH-]C(=O)c1cc2ccc(-c3noc[nH+]3)cc2n1C(=O)OCC(=O)OCC=O (3D coordinates assigned)
[NH-]C(=O)c1cc2ccc(-c3noc[nH+]3)cc2n1C(=O)OCC(=O)OCC=O (optimized conformer: 109.83784764817914 kcal/mol)

>  <smiles>  (62) 
NC(=O)c1cc2ccc(-c3ncon3)cc2n1C(=O)OCC(=O)OCC=O

>  <score_type>  (62) 
oracle

>  <origin>  (62) 
adg

>  <m_score__min__energy>  (62) 
-10.460000000000001

>  <m_primary>  (62) 
energy

$$$$
62:0
     RDKit          3D

 31 32  0  0  0  0  0  0  0  0999 V2000
   -3.1840   23.9150  -27.6960 C   0  0  0  0  0  0  0  0  0  0  0  0
   -4.2220   22.9080  -28.1750 C   0  0  0  0  0  0  0  0  0  0  0  0
   -3.4570   21.6210  -29.2230 S   0  0  0  0  0  0  0  0  0  0  0  0
   -3.9960   22.3480  -30.7740 C   0  0  0  0  0  0  0  0  0  0  0  0
   -3.1660   22.4950  -31.7100 O   0  0  0  0  0  0  0  0  0  0  0  0
   -5.3700   22.7030  -30.9710 N   0  0  0  0  0  0  0  0  0  0  0  0
   -5.9710   23.9020  -30.7350 C   0  0  0  0  0  0  0  0  0  0  0  0
   -5.2800   25.1630  -30.3960 C   0  0  0  0  0  0  0  0  0  0  0  0
   -3.8760   25.3030  -30.5930 N   0  0  0  0  0  0  0  0  0  0  0  0
   -5.9440   26.1440  -29.9690 O   0  0  0  0  0  0  0  0  0  0  0  0
   -7.3470   23.8040  -30.9300 C   0  0  0  0  0  0  0  0  0  0  0  0
   -7.5700   22.4980  -31.3030 C   0  0  0  0  0  0  0  0  0  0  0  0
   -8.7610   21.8370  -31.5930 C   0  0  0  0  0  0  0  0  0  0  0  0
   -8.6950   20.4690  -31.9080 C   0  0  0  0  0  0  0  0  0  0  0  0
   -7.4480   19.7890  -31.9400 C   0  0  0  0  0  0  0  0  0  0  0  0
   -7.3980   18.3090  -32.2170 C   0  0  0  0  0  0  0  0  0  0  0  0
   -7.0650   18.0710  -33.5400 F   0  0  0  0  0  0  0  0  0  0  0  0
   -8.6380   17.7550  -31.9590 F   0  0  0  0  0  0  0  0  0  0  0  0
   -6.4540   17.6930  -31.4150 F   0  0  0  0  0  0  0  0  0  0  0  0
   -6.2650   20.4920  -31.6150 C   0  0  0  0  0  0  0  0  0  0  0  0
   -6.3600   21.8560  -31.3210 C   0  0  0  0  0  0  0  0  0  0  0  0
   -3.1682   23.9303  -26.5962 H   0  0  0  0  0  0  0  0  0  0  0  0
   -2.1918   23.6263  -28.0730 H   0  0  0  0  0  0  0  0  0  0  0  0
   -3.4425   24.9155  -28.0730 H   0  0  0  0  0  0  0  0  0  0  0  0
   -4.6879   22.4293  -27.3011 H   0  0  0  0  0  0  0  0  0  0  0  0
   -4.9762   23.4415  -28.7721 H   0  0  0  0  0  0  0  0  0  0  0  0
   -3.4930   26.0380  -31.2290 H   0  0  0  0  0  0  0  0  0  0  0  0
   -8.0959   24.6009  -30.8111 H   0  0  0  0  0  0  0  0  0  0  0  0
   -9.7235   22.3692  -31.5760 H   0  0  0  0  0  0  0  0  0  0  0  0
   -9.6202   19.9180  -32.1325 H   0  0  0  0  0  0  0  0  0  0  0  0
   -5.2927   19.9781  -31.5939 H   0  0  0  0  0  0  0  0  0  0  0  0
  1  2  1  0
  2  3  1  0
  3  4  1  0
  4  5  2  0
  4  6  1  0
  6  7  1  0
  7  8  1  0
  8  9  1  0
  8 10  2  0
  7 11  2  0
 11 12  1  0
 12 13  2  0
 13 14  1  0
 14 15  2  0
 15 16  1  0
 16 17  1  0
 16 18  1  0
 16 19  1  0
 15 20  1  0
 20 21  2  0
 21  6  1  0
 21 12  1  0
  1 22  1  0
  1 23  1  0
  1 24  1  0
  2 25  1  0
  2 26  1  0
  9 27  1  0
 11 28  1  0
 13 29  1  0
 14 30  1  0
 20 31  1  0
M  CHG  1   9  -1
M  END
>  <UniqueID>  (63) 
62

>  <SMILES>  (63) 
CCSC(=O)n1c(C([NH-])=O)cc2ccc(C(F)(F)F)cc21

>  <Energy>  (63) 
65.46938377053068

>  <Genealogy>  (63) 
CCSC(=O)n1c(C([NH-])=O)cc2ccc(C(F)(F)F)cc21 (protonated)
CCSC(=O)n1c(C([NH-])=O)cc2ccc(C(F)(F)F)cc21 (3D coordinates assigned)
CCSC(=O)n1c(C([NH-])=O)cc2ccc(C(F)(F)F)cc21 (optimized conformer: 65.46938377053068 kcal/mol)

>  <smiles>  (63) 
CCSC(=O)n1c(C(N)=O)cc2ccc(C(F)(F)F)cc21

>  <score_type>  (63) 
oracle

>  <origin>  (63) 
adg

>  <m_score__min__energy>  (63) 
-9.7799999999999994

>  <m_primary>  (63) 
energy

$$$$
63:0
     RDKit          3D

 44 46  0  0  0  0  0  0  0  0999 V2000
   -1.7440   21.7290  -30.4130 C   0  0  0  0  0  0  0  0  0  0  0  0
   -3.1030   22.2590  -30.2630 N   0  0  0  0  0  0  0  0  0  0  0  0
   -3.5630   22.6500  -28.9290 C   0  0  0  0  0  0  0  0  0  0  0  0
   -3.9400   22.4960  -31.4110 C   0  0  0  0  0  0  0  0  0  0  0  0
   -3.4510   22.4660  -32.5730 O   0  0  0  0  0  0  0  0  0  0  0  0
   -5.3440   22.7500  -31.2530 N   0  0  0  0  0  0  0  0  0  0  0  0
   -5.9470   23.9170  -30.8960 C   0  0  0  0  0  0  0  0  0  0  0  0
   -5.2570   25.1340  -30.4210 C   0  0  0  0  0  0  0  0  0  0  0  0
   -3.8560   25.3060  -30.6190 N   0  0  0  0  0  0  0  0  0  0  0  0
   -5.9090   26.0260  -29.8130 O   0  0  0  0  0  0  0  0  0  0  0  0
   -7.3320   23.8070  -31.0260 C   0  0  0  0  0  0  0  0  0  0  0  0
   -7.5550   22.5280  -31.4870 C   0  0  0  0  0  0  0  0  0  0  0  0
   -8.7430   21.8910  -31.8350 C   0  0  0  0  0  0  0  0  0  0  0  0
   -8.6640   20.5810  -32.3380 C   0  0  0  0  0  0  0  0  0  0  0  0
   -7.4100   19.9350  -32.4920 C   0  0  0  0  0  0  0  0  0  0  0  0
   -7.3480   18.5190  -33.0090 C   0  0  0  0  0  0  0  0  0  0  0  0
   -6.1150   18.2910  -33.8280 C   0  0  0  0  0  0  0  0  0  0  0  0
   -6.0420   18.7770  -34.9900 O   0  0  0  0  0  0  0  0  0  0  0  0
   -5.0150   17.5640  -33.2550 N   0  0  0  0  0  0  0  0  0  0  0  0
   -3.6150   17.9880  -33.1350 C   0  0  0  0  0  0  0  0  0  0  0  0
   -3.4150   19.2820  -32.3650 C   0  0  0  0  0  0  0  0  0  0  0  0
   -2.9110   19.9940  -33.5440 N   0  0  0  0  0  0  0  0  0  0  0  0
   -3.0870   18.7670  -34.3270 C   0  0  0  0  0  0  0  0  0  0  0  0
   -6.2280   20.6120  -32.1110 C   0  0  0  0  0  0  0  0  0  0  0  0
   -6.3380   21.9140  -31.6140 C   0  0  0  0  0  0  0  0  0  0  0  0
   -1.3054   21.5579  -29.4189 H   0  0  0  0  0  0  0  0  0  0  0  0
   -1.7799   20.7790  -30.9663 H   0  0  0  0  0  0  0  0  0  0  0  0
   -1.1273   22.4525  -30.9663 H   0  0  0  0  0  0  0  0  0  0  0  0
   -2.9583   22.1360  -28.1674 H   0  0  0  0  0  0  0  0  0  0  0  0
   -3.4565   23.7382  -28.8087 H   0  0  0  0  0  0  0  0  0  0  0  0
   -4.6198   22.3695  -28.8087 H   0  0  0  0  0  0  0  0  0  0  0  0
   -3.4910   26.0350  -31.2700 H   0  0  0  0  0  0  0  0  0  0  0  0
   -8.0856   24.5777  -30.8069 H   0  0  0  0  0  0  0  0  0  0  0  0
   -9.7129   22.3970  -31.7199 H   0  0  0  0  0  0  0  0  0  0  0  0
   -9.5862   20.0496  -32.6159 H   0  0  0  0  0  0  0  0  0  0  0  0
   -7.3439   17.8258  -32.1549 H   0  0  0  0  0  0  0  0  0  0  0  0
   -8.2260   18.3446  -33.6483 H   0  0  0  0  0  0  0  0  0  0  0  0
   -3.1905   17.0256  -32.8132 H   0  0  0  0  0  0  0  0  0  0  0  0
   -4.3499   19.7028  -31.9664 H   0  0  0  0  0  0  0  0  0  0  0  0
   -2.8011   19.2665  -31.4524 H   0  0  0  0  0  0  0  0  0  0  0  0
   -3.6290   20.6910  -33.8500 H   0  0  0  0  0  0  0  0  0  0  0  0
   -3.8191   18.8693  -35.1416 H   0  0  0  0  0  0  0  0  0  0  0  0
   -2.2273   18.3657  -34.8837 H   0  0  0  0  0  0  0  0  0  0  0  0
   -5.2457   20.1256  -32.2036 H   0  0  0  0  0  0  0  0  0  0  0  0
  1  2  1  0
  2  3  1  0
  2  4  1  0
  4  5  2  0
  4  6  1  0
  6  7  1  0
  7  8  1  0
  8  9  1  0
  8 10  2  0
  7 11  2  0
 11 12  1  0
 12 13  2  0
 13 14  1  0
 14 15  2  0
 15 16  1  0
 16 17  1  0
 17 18  2  0
 17 19  1  0
 19 20  1  0
 20 21  1  0
 21 22  1  0
 22 23  1  0
 15 24  1  0
 24 25  2  0
 25  6  1  0
 25 12  1  0
 23 20  1  0
  1 26  1  0
  1 27  1  0
  1 28  1  0
  3 29  1  0
  3 30  1  0
  3 31  1  0
  9 32  1  0
 11 33  1  0
 13 34  1  0
 14 35  1  0
 16 36  1  0
 16 37  1  0
 20 38  1  0
 21 39  1  0
 21 40  1  0
 22 41  1  0
 23 42  1  0
 23 43  1  0
 24 44  1  0
M  CHG  2   9  -1  19  -1
M  END
>  <UniqueID>  (64) 
63

>  <SMILES>  (64) 
CN(C)C(=O)n1c(C([NH-])=O)cc2ccc(CC(=O)[N-]C3CNC3)cc21

>  <Energy>  (64) 
150.20089680044606

>  <Genealogy>  (64) 
CN(C)C(=O)n1c(C([NH-])=O)cc2ccc(CC(=O)[N-]C3CNC3)cc21 (protonated)
CN(C)C(=O)n1c(C([NH-])=O)cc2ccc(CC(=O)[N-]C3CNC3)cc21 (3D coordinates assigned)
CN(C)C(=O)n1c(C([NH-])=O)cc2ccc(CC(=O)[N-]C3CNC3)cc21 (nonaromatic ring conformer: 150.20089680044606 kcal/mol)

>  <smiles>  (64) 
CN(C)C(=O)n1c(C(N)=O)cc2ccc(CC(=O)NC3CNC3)cc21

>  <score_type>  (64) 
oracle

>  <origin>  (64) 
adg

>  <m_score__min__energy>  (64) 
-10.949999999999999

>  <m_primary>  (64) 
energy

$$$$
64:0
     RDKit          3D

 28 29  0  0  0  0  0  0  0  0999 V2000
   -3.0960   21.8740  -32.2830 C   0  0  0  0  0  0  0  0  0  0  0  0
   -3.8250   22.5850  -31.1890 C   0  0  0  0  0  0  0  0  0  0  0  0
   -3.1660   23.0920  -30.2410 O   0  0  0  0  0  0  0  0  0  0  0  0
   -5.2600   22.6800  -31.1910 N   0  0  0  0  0  0  0  0  0  0  0  0
   -6.0100   23.7790  -30.9010 C   0  0  0  0  0  0  0  0  0  0  0  0
   -5.4950   25.0640  -30.3810 C   0  0  0  0  0  0  0  0  0  0  0  0
   -4.1910   25.5340  -30.7230 N   0  0  0  0  0  0  0  0  0  0  0  0
   -6.2010   25.7340  -29.5810 O   0  0  0  0  0  0  0  0  0  0  0  0
   -7.3590   23.5330  -31.1410 C   0  0  0  0  0  0  0  0  0  0  0  0
   -7.4160   22.2340  -31.5870 C   0  0  0  0  0  0  0  0  0  0  0  0
   -8.5110   21.4740  -31.9930 C   0  0  0  0  0  0  0  0  0  0  0  0
   -8.2730   20.1700  -32.4540 C   0  0  0  0  0  0  0  0  0  0  0  0
   -6.9530   19.6590  -32.5250 C   0  0  0  0  0  0  0  0  0  0  0  0
   -6.7130   18.2570  -33.0040 C   0  0  0  0  0  0  0  0  0  0  0  0
   -5.7520   18.2920  -34.5020 Cl  0  0  0  0  0  0  0  0  0  0  0  0
   -5.8680   20.4540  -32.0980 C   0  0  0  0  0  0  0  0  0  0  0  0
   -6.1360   21.7410  -31.6160 C   0  0  0  0  0  0  0  0  0  0  0  0
   -2.3737   21.1695  -31.8448 H   0  0  0  0  0  0  0  0  0  0  0  0
   -3.8160   21.3216  -32.9047 H   0  0  0  0  0  0  0  0  0  0  0  0
   -2.5618   22.6076  -32.9047 H   0  0  0  0  0  0  0  0  0  0  0  0
   -3.5080   24.9230  -31.2240 H   0  0  0  0  0  0  0  0  0  0  0  0
   -3.8670   26.4690  -30.3880 H   0  0  0  0  0  0  0  0  0  0  0  0
   -8.1995   24.2291  -31.0032 H   0  0  0  0  0  0  0  0  0  0  0  0
   -9.5311   21.8837  -31.9534 H   0  0  0  0  0  0  0  0  0  0  0  0
   -9.1190   19.5386  -32.7631 H   0  0  0  0  0  0  0  0  0  0  0  0
   -6.1667   17.6952  -32.2320 H   0  0  0  0  0  0  0  0  0  0  0  0
   -7.6787   17.7689  -33.2017 H   0  0  0  0  0  0  0  0  0  0  0  0
   -4.8374   20.0721  -32.1427 H   0  0  0  0  0  0  0  0  0  0  0  0
  1  2  1  0
  2  3  2  0
  2  4  1  0
  4  5  1  0
  5  6  1  0
  6  7  1  0
  6  8  2  0
  5  9  2  0
  9 10  1  0
 10 11  2  0
 11 12  1  0
 12 13  2  0
 13 14  1  0
 14 15  1  0
 13 16  1  0
 16 17  2  0
 17  4  1  0
 17 10  1  0
  1 18  1  0
  1 19  1  0
  1 20  1  0
  7 21  1  0
  7 22  1  0
  9 23  1  0
 11 24  1  0
 12 25  1  0
 14 26  1  0
 14 27  1  0
 16 28  1  0
M  END
>  <UniqueID>  (65) 
64

>  <SMILES>  (65) 
CC(=O)n1c(C(N)=O)cc2ccc(CCl)cc21

>  <Energy>  (65) 
66.49525843673618

>  <Genealogy>  (65) 
CC(=O)n1c(C(N)=O)cc2ccc(CCl)cc21 (3D coordinates assigned)
CC(=O)n1c(C(N)=O)cc2ccc(CCl)cc21 (optimized conformer: 66.49525843673618 kcal/mol)

>  <smiles>  (65) 
CC(=O)n1c(C(N)=O)cc2ccc(CCl)cc21

>  <score_type>  (65) 
oracle

>  <origin>  (65) 
adg

>  <m_score__min__energy>  (65) 
-7.8399999999999999

>  <m_primary>  (65) 
energy

$$$$
65:0
     RDKit          3D

 45 47  0  0  0  0  0  0  0  0999 V2000
   -0.6990   20.8610  -31.8790 C   0  0  0  0  0  0  0  0  0  0  0  0
   -2.1410   20.8450  -32.3970 C   0  0  0  0  0  0  0  0  0  0  0  0
   -2.1940   20.3000  -33.8230 C   0  0  0  0  0  0  0  0  0  0  0  0
   -2.6940   22.1960  -32.3820 N   0  0  0  0  0  0  0  0  0  0  0  0
   -3.4410   22.7420  -31.2900 C   0  0  0  0  0  0  0  0  0  0  0  0
   -2.8480   23.1180  -30.2420 O   0  0  0  0  0  0  0  0  0  0  0  0
   -4.8710   22.8410  -31.3800 N   0  0  0  0  0  0  0  0  0  0  0  0
   -5.6640   23.8820  -30.9970 C   0  0  0  0  0  0  0  0  0  0  0  0
   -5.1960   25.1970  -30.5100 C   0  0  0  0  0  0  0  0  0  0  0  0
   -3.8960   25.6620  -30.8650 N   0  0  0  0  0  0  0  0  0  0  0  0
   -5.9170   25.9010  -29.7560 O   0  0  0  0  0  0  0  0  0  0  0  0
   -7.0070   23.5720  -31.2020 C   0  0  0  0  0  0  0  0  0  0  0  0
   -7.0120   22.3020  -31.7320 C   0  0  0  0  0  0  0  0  0  0  0  0
   -8.0790   21.4980  -32.1200 C   0  0  0  0  0  0  0  0  0  0  0  0
   -7.7930   20.2150  -32.6160 C   0  0  0  0  0  0  0  0  0  0  0  0
   -6.4530   19.7540  -32.7060 C   0  0  0  0  0  0  0  0  0  0  0  0
   -6.1610   18.3920  -33.2220 C   0  0  0  0  0  0  0  0  0  0  0  0
   -4.9090   18.0970  -33.7910 C   0  0  0  0  0  0  0  0  0  0  0  0
   -4.6330   16.8150  -34.2730 C   0  0  0  0  0  0  0  0  0  0  0  0
   -5.5970   15.8030  -34.1990 C   0  0  0  0  0  0  0  0  0  0  0  0
   -5.2630   14.5330  -34.6990 O   0  0  0  0  0  0  0  0  0  0  0  0
   -5.4100   13.3050  -33.9910 C   0  0  0  0  0  0  0  0  0  0  0  0
   -6.7390   12.9310  -34.0120 F   0  0  0  0  0  0  0  0  0  0  0  0
   -5.0120   13.4610  -32.6760 F   0  0  0  0  0  0  0  0  0  0  0  0
   -4.6590   12.3130  -34.5970 F   0  0  0  0  0  0  0  0  0  0  0  0
   -6.8510   16.0920  -33.6300 C   0  0  0  0  0  0  0  0  0  0  0  0
   -7.1280   17.3740  -33.1470 C   0  0  0  0  0  0  0  0  0  0  0  0
   -5.3970   20.6030  -32.2990 C   0  0  0  0  0  0  0  0  0  0  0  0
   -5.7120   21.8840  -31.8300 C   0  0  0  0  0  0  0  0  0  0  0  0
   -0.7045   20.8609  -30.7790 H   0  0  0  0  0  0  0  0  0  0  0  0
   -0.1687   19.9687  -32.2431 H   0  0  0  0  0  0  0  0  0  0  0  0
   -0.1886   21.7649  -32.2431 H   0  0  0  0  0  0  0  0  0  0  0  0
   -2.7345   20.1936  -31.7387 H   0  0  0  0  0  0  0  0  0  0  0  0
   -2.3004   19.2056  -33.7935 H   0  0  0  0  0  0  0  0  0  0  0  0
   -3.0538   20.7379  -34.3512 H   0  0  0  0  0  0  0  0  0  0  0  0
   -1.2659   20.5641  -34.3512 H   0  0  0  0  0  0  0  0  0  0  0  0
   -3.0430   25.2690  -30.4100 H   0  0  0  0  0  0  0  0  0  0  0  0
   -7.8784   24.2076  -30.9860 H   0  0  0  0  0  0  0  0  0  0  0  0
   -9.1160   21.8562  -32.0408 H   0  0  0  0  0  0  0  0  0  0  0  0
   -8.6162   19.5604  -32.9382 H   0  0  0  0  0  0  0  0  0  0  0  0
   -4.1411   18.8818  -33.8570 H   0  0  0  0  0  0  0  0  0  0  0  0
   -3.6490   16.5990  -34.7147 H   0  0  0  0  0  0  0  0  0  0  0  0
   -7.6170   15.3052  -33.5650 H   0  0  0  0  0  0  0  0  0  0  0  0
   -8.1117   17.5886  -32.7040 H   0  0  0  0  0  0  0  0  0  0  0  0
   -4.3517   20.2642  -32.3499 H   0  0  0  0  0  0  0  0  0  0  0  0
  1  2  1  0
  2  3  1  0
  2  4  1  0
  4  5  1  0
  5  6  2  0
  5  7  1  0
  7  8  1  0
  8  9  1  0
  9 10  1  0
  9 11  2  0
  8 12  2  0
 12 13  1  0
 13 14  2  0
 14 15  1  0
 15 16  2  0
 16 17  1  0
 17 18  2  0
 18 19  1  0
 19 20  2  0
 20 21  1  0
 21 22  1  0
 22 23  1  0
 22 24  1  0
 22 25  1  0
 20 26  1  0
 26 27  2  0
 16 28  1  0
 28 29  2  0
 29  7  1  0
 29 13  1  0
 27 17  1  0
  1 30  1  0
  1 31  1  0
  1 32  1  0
  2 33  1  0
  3 34  1  0
  3 35  1  0
  3 36  1  0
 10 37  1  0
 12 38  1  0
 14 39  1  0
 15 40  1  0
 18 41  1  0
 19 42  1  0
 26 43  1  0
 27 44  1  0
 28 45  1  0
M  CHG  2   4  -1  10  -1
M  END
>  <UniqueID>  (66) 
65

>  <SMILES>  (66) 
CC(C)[N-]C(=O)n1c(C([NH-])=O)cc2ccc(-c3ccc(OC(F)(F)F)cc3)cc21

>  <Energy>  (66) 
84.90339383829595

>  <Genealogy>  (66) 
CC(C)[N-]C(=O)n1c(C([NH-])=O)cc2ccc(-c3ccc(OC(F)(F)F)cc3)cc21 (protonated)
CC(C)[N-]C(=O)n1c(C([NH-])=O)cc2ccc(-c3ccc(OC(F)(F)F)cc3)cc21 (3D coordinates assigned)
CC(C)[N-]C(=O)n1c(C([NH-])=O)cc2ccc(-c3ccc(OC(F)(F)F)cc3)cc21 (optimized conformer: 84.90339383829595 kcal/mol)

>  <smiles>  (66) 
CC(C)NC(=O)n1c(C(N)=O)cc2ccc(-c3ccc(OC(F)(F)F)cc3)cc21

>  <score_type>  (66) 
oracle

>  <origin>  (66) 
adg

>  <m_score__min__energy>  (66) 
-11.09

>  <m_primary>  (66) 
energy

$$$$
66:0
     RDKit          3D

 49 52  0  0  0  0  0  0  0  0999 V2000
    2.5890   21.2160  -36.4880 C   0  0  0  0  0  0  0  0  0  0  0  0
    1.7270   22.2890  -35.9180 C   0  0  0  0  0  0  0  0  0  0  0  0
    1.4550   23.3060  -36.6100 O   0  0  0  0  0  0  0  0  0  0  0  0
    1.2420   22.1740  -34.5780 N   0  0  0  0  0  0  0  0  0  0  0  0
    0.4630   21.0310  -34.1090 C   0  0  1  0  0  0  0  0  0  0  0  0
    0.6340   20.8340  -32.6030 C   0  0  0  0  0  0  0  0  0  0  0  0
   -0.6960   20.2680  -32.1270 C   0  0  0  0  0  0  0  0  0  0  0  0
   -1.6680   20.6540  -33.1490 N   0  0  0  0  0  0  0  0  0  0  0  0
   -3.0900   20.4870  -33.0010 C   0  0  0  0  0  0  0  0  0  0  0  0
   -3.6960   19.2220  -33.2320 C   0  0  0  0  0  0  0  0  0  0  0  0
   -5.0840   19.0540  -33.0940 C   0  0  0  0  0  0  0  0  0  0  0  0
   -5.8430   20.1590  -32.7190 C   0  0  0  0  0  0  0  0  0  0  0  0
   -7.1910   20.2610  -32.4590 C   0  0  0  0  0  0  0  0  0  0  0  0
   -7.3890   21.5850  -32.0720 C   0  0  0  0  0  0  0  0  0  0  0  0
   -8.7110   22.1440  -31.7140 C   0  0  0  0  0  0  0  0  0  0  0  0
   -9.1260   23.4290  -32.1810 N   0  0  0  0  0  0  0  0  0  0  0  0
   -9.5060   21.4540  -31.0190 O   0  0  0  0  0  0  0  0  0  0  0  0
   -6.2170   22.2780  -32.1050 N   0  0  0  0  0  0  0  0  0  0  0  0
   -5.9810   23.5960  -31.5860 C   0  0  0  0  0  0  0  0  0  0  0  0
   -6.7820   24.5290  -31.8740 O   0  0  0  0  0  0  0  0  0  0  0  0
   -4.8130   23.8770  -30.7380 C   0  0  0  0  0  0  0  0  0  0  0  0
   -4.3390   23.0720  -29.7250 C   0  0  0  0  0  0  0  0  0  0  0  0
   -3.2580   23.7710  -29.2310 C   0  0  0  0  0  0  0  0  0  0  0  0
   -2.4080   23.3600  -28.0780 C   0  0  0  0  0  0  0  0  0  0  0  0
   -3.1130   24.9310  -29.8990 N   0  0  0  0  0  0  0  0  0  0  0  0
   -4.0600   24.9940  -30.8240 N   0  0  0  0  0  0  0  0  0  0  0  0
   -5.2770   21.3880  -32.4950 C   0  0  0  0  0  0  0  0  0  0  0  0
   -3.8960   21.5800  -32.6090 C   0  0  0  0  0  0  0  0  0  0  0  0
   -1.0360   21.2550  -34.3130 C   0  0  0  0  0  0  0  0  0  0  0  0
    3.0497   20.6426  -35.6701 H   0  0  0  0  0  0  0  0  0  0  0  0
    1.9767   20.5441  -37.1074 H   0  0  0  0  0  0  0  0  0  0  0  0
    3.3771   21.6691  -37.1074 H   0  0  0  0  0  0  0  0  0  0  0  0
    0.8253   20.1655  -34.6832 H   0  0  0  0  0  0  0  0  0  0  0  0
    1.4513   20.1276  -32.3957 H   0  0  0  0  0  0  0  0  0  0  0  0
    0.8914   21.7723  -32.0899 H   0  0  0  0  0  0  0  0  0  0  0  0
   -0.6404   19.1727  -32.0424 H   0  0  0  0  0  0  0  0  0  0  0  0
   -0.9722   20.6505  -31.1333 H   0  0  0  0  0  0  0  0  0  0  0  0
   -3.0709   18.3647  -33.5222 H   0  0  0  0  0  0  0  0  0  0  0  0
   -5.5571   18.0779  -33.2769 H   0  0  0  0  0  0  0  0  0  0  0  0
   -7.9489   19.4679  -32.5394 H   0  0  0  0  0  0  0  0  0  0  0  0
  -10.0590   23.8100  -31.9030 H   0  0  0  0  0  0  0  0  0  0  0  0
   -8.5810   23.9400  -32.9120 H   0  0  0  0  0  0  0  0  0  0  0  0
   -4.7308   22.1005  -29.3894 H   0  0  0  0  0  0  0  0  0  0  0  0
   -2.9212   23.6082  -27.1373 H   0  0  0  0  0  0  0  0  0  0  0  0
   -2.2286   22.2756  -28.1228 H   0  0  0  0  0  0  0  0  0  0  0  0
   -1.4467   23.8928  -28.1228 H   0  0  0  0  0  0  0  0  0  0  0  0
   -3.4465   22.5615  -32.3979 H   0  0  0  0  0  0  0  0  0  0  0  0
   -1.3783   20.7637  -35.2357 H   0  0  0  0  0  0  0  0  0  0  0  0
   -1.2845   22.3218  -34.4135 H   0  0  0  0  0  0  0  0  0  0  0  0
  1  2  1  0
  2  3  2  0
  2  4  1  0
  4  5  1  0
  5  6  1  0
  6  7  1  0
  7  8  1  0
  8  9  1  0
  9 10  2  0
 10 11  1  0
 11 12  2  0
 12 13  1  0
 13 14  2  0
 14 15  1  0
 15 16  1  0
 15 17  2  0
 14 18  1  0
 18 19  1  0
 19 20  2  0
 19 21  1  0
 21 22  1  0
 22 23  2  0
 23 24  1  0
 23 25  1  0
 25 26  1  0
 18 27  1  0
 27 28  2  0
  8 29  1  0
 29  5  1  0
 28  9  1  0
 27 12  1  0
 26 21  2  0
  1 30  1  0
  1 31  1  0
  1 32  1  0
  5 33  1  6
  6 34  1  0
  6 35  1  0
  7 36  1  0
  7 37  1  0
 10 38  1  0
 11 39  1  0
 13 40  1  0
 16 41  1  0
 16 42  1  0
 22 43  1  0
 24 44  1  0
 24 45  1  0
 24 46  1  0
 28 47  1  0
 29 48  1  0
 29 49  1  0
M  CHG  2   4  -1  25  -1
M  END
>  <UniqueID>  (67) 
66

>  <SMILES>  (67) 
CC(=O)[N-][C@H]1CCN(c2ccc3cc(C(N)=O)n(C(=O)c4cc(C)[n-]n4)c3c2)C1

>  <Energy>  (67) 
119.77420528021878

>  <Genealogy>  (67) 
CC(=O)[N-]C1CCN(c2ccc3cc(C(N)=O)n(C(=O)c4cc(C)[n-]n4)c3c2)C1 (protonated)
CC(=O)[N-][C@H]1CCN(c2ccc3cc(C(N)=O)n(C(=O)c4cc(C)[n-]n4)c3c2)C1 (chirality)
CC(=O)[N-][C@H]1CCN(c2ccc3cc(C(N)=O)n(C(=O)c4cc(C)[n-]n4)c3c2)C1 (3D coordinates assigned)
CC(=O)[N-][C@H]1CCN(c2ccc3cc(C(N)=O)n(C(=O)c4cc(C)[n-]n4)c3c2)C1 (nonaromatic ring conformer: 119.77420528021878 kcal/mol)

>  <smiles>  (67) 
CC(=O)NC1CCN(c2ccc3cc(C(N)=O)n(C(=O)c4cc(C)[nH]n4)c3c2)C1

>  <score_type>  (67) 
oracle

>  <origin>  (67) 
adg

>  <m_score__min__energy>  (67) 
-11.74

>  <m_primary>  (67) 
energy

$$$$
67:0
     RDKit          3D

 46 47  0  0  0  0  0  0  0  0999 V2000
   -2.0310   21.4990  -27.8220 C   0  0  0  0  0  0  0  0  0  0  0  0
   -3.1620   22.1870  -28.5950 C   0  0  1  0  0  0  0  0  0  0  0  0
   -2.9600   23.7150  -28.5890 C   0  0  0  0  0  0  0  0  0  0  0  0
   -2.1990   24.1160  -29.6950 O   0  0  0  0  0  0  0  0  0  0  0  0
   -3.4160   21.5620  -30.0020 C   0  0  2  0  0  0  0  0  0  0  0  0
   -2.1760   21.1390  -30.5150 O   0  0  0  0  0  0  0  0  0  0  0  0
   -4.1000   22.4620  -31.0290 C   0  0  0  0  0  0  0  0  0  0  0  0
   -3.4180   22.9260  -31.9840 O   0  0  0  0  0  0  0  0  0  0  0  0
   -5.5120   22.7240  -31.0080 N   0  0  0  0  0  0  0  0  0  0  0  0
   -6.1440   23.9070  -30.7400 C   0  0  0  0  0  0  0  0  0  0  0  0
   -5.5220   25.2230  -30.4160 C   0  0  0  0  0  0  0  0  0  0  0  0
   -4.2030   25.5980  -30.8220 N   0  0  0  0  0  0  0  0  0  0  0  0
   -6.1930   26.0510  -29.7430 O   0  0  0  0  0  0  0  0  0  0  0  0
   -7.5190   23.7700  -30.9270 C   0  0  0  0  0  0  0  0  0  0  0  0
   -7.7090   22.4820  -31.3650 C   0  0  0  0  0  0  0  0  0  0  0  0
   -8.8770   21.8420  -31.7700 C   0  0  0  0  0  0  0  0  0  0  0  0
   -8.7700   20.5340  -32.2700 C   0  0  0  0  0  0  0  0  0  0  0  0
   -7.5060   19.9060  -32.3780 C   0  0  0  0  0  0  0  0  0  0  0  0
   -7.3980   18.5270  -32.9750 C   0  0  0  0  0  0  0  0  0  0  0  0
   -5.9810   17.9410  -32.8480 C   0  0  0  0  0  0  0  0  0  0  0  0
   -5.0300   18.3850  -33.9720 C   0  0  0  0  0  0  0  0  0  0  0  0
   -3.9780   19.2800  -33.4710 C   0  0  0  0  0  0  0  0  0  0  0  0
   -3.1480   19.9840  -33.0770 N   0  0  0  0  0  0  0  0  0  0  0  0
   -6.3430   20.5940  -31.9680 C   0  0  0  0  0  0  0  0  0  0  0  0
   -6.4810   21.8790  -31.4330 C   0  0  0  0  0  0  0  0  0  0  0  0
   -2.2073   21.6062  -26.7415 H   0  0  0  0  0  0  0  0  0  0  0  0
   -2.0039   20.4312  -28.0849 H   0  0  0  0  0  0  0  0  0  0  0  0
   -1.0703   21.9659  -28.0849 H   0  0  0  0  0  0  0  0  0  0  0  0
   -4.1083   21.9966  -28.0675 H   0  0  0  0  0  0  0  0  0  0  0  0
   -3.9418   24.2096  -28.6272 H   0  0  0  0  0  0  0  0  0  0  0  0
   -2.4266   23.9987  -27.6698 H   0  0  0  0  0  0  0  0  0  0  0  0
   -2.1120   23.3140  -30.2750 H   0  0  0  0  0  0  0  0  0  0  0  0
   -4.1279   20.7391  -29.8404 H   0  0  0  0  0  0  0  0  0  0  0  0
   -2.2410   21.1600  -31.5050 H   0  0  0  0  0  0  0  0  0  0  0  0
   -3.8630   26.5650  -30.6250 H   0  0  0  0  0  0  0  0  0  0  0  0
   -3.5190   24.9330  -31.2300 H   0  0  0  0  0  0  0  0  0  0  0  0
   -8.2915   24.5348  -30.7587 H   0  0  0  0  0  0  0  0  0  0  0  0
   -9.8529   22.3449  -31.7006 H   0  0  0  0  0  0  0  0  0  0  0  0
   -9.6761   19.9930  -32.5803 H   0  0  0  0  0  0  0  0  0  0  0  0
   -8.1032   17.8613  -32.4558 H   0  0  0  0  0  0  0  0  0  0  0  0
   -7.6326   18.6067  -34.0467 H   0  0  0  0  0  0  0  0  0  0  0  0
   -5.5564   18.2624  -31.8855 H   0  0  0  0  0  0  0  0  0  0  0  0
   -6.0759   16.8473  -32.9180 H   0  0  0  0  0  0  0  0  0  0  0  0
   -4.5597   17.4942  -34.4139 H   0  0  0  0  0  0  0  0  0  0  0  0
   -5.6182   18.9332  -34.7227 H   0  0  0  0  0  0  0  0  0  0  0  0
   -5.3507   20.1298  -32.0671 H   0  0  0  0  0  0  0  0  0  0  0  0
  1  2  1  0
  2  3  1  0
  3  4  1  0
  2  5  1  0
  5  6  1  0
  5  7  1  0
  7  8  2  0
  7  9  1  0
  9 10  1  0
 10 11  1  0
 11 12  1  0
 11 13  2  0
 10 14  2  0
 14 15  1  0
 15 16  2  0
 16 17  1  0
 17 18  2  0
 18 19  1  0
 19 20  1  0
 20 21  1  0
 21 22  1  0
 22 23  3  0
 18 24  1  0
 24 25  2  0
 25  9  1  0
 25 15  1  0
  1 26  1  0
  1 27  1  0
  1 28  1  0
  2 29  1  1
  3 30  1  0
  3 31  1  0
  4 32  1  0
  5 33  1  1
  6 34  1  0
 12 35  1  0
 12 36  1  0
 14 37  1  0
 16 38  1  0
 17 39  1  0
 19 40  1  0
 19 41  1  0
 20 42  1  0
 20 43  1  0
 21 44  1  0
 21 45  1  0
 24 46  1  0
M  END
>  <UniqueID>  (68) 
67

>  <SMILES>  (68) 
C[C@@H](CO)[C@H](O)C(=O)n1c(C(N)=O)cc2ccc(CCCC#N)cc21

>  <Energy>  (68) 
83.54210686567629

>  <Genealogy>  (68) 
C[C@@H](CO)[C@H](O)C(=O)n1c(C(N)=O)cc2ccc(CCCC#N)cc21 (chirality)
C[C@@H](CO)[C@H](O)C(=O)n1c(C(N)=O)cc2ccc(CCCC#N)cc21 (3D coordinates assigned)
C[C@@H](CO)[C@H](O)C(=O)n1c(C(N)=O)cc2ccc(CCCC#N)cc21 (optimized conformer: 83.54210686567629 kcal/mol)

>  <smiles>  (68) 
CC(CO)[C@H](O)C(=O)n1c(C(N)=O)cc2ccc(CCCC#N)cc21

>  <score_type>  (68) 
oracle

>  <origin>  (68) 
adg

>  <m_score__min__energy>  (68) 
-8.3499999999999996

>  <m_primary>  (68) 
energy

$$$$
68:0
     RDKit          3D

 28 29  0  0  0  0  0  0  0  0999 V2000
   -5.3900   24.7790  -29.0770 N   0  0  0  0  0  0  0  0  0  0  0  0
   -4.7220   24.5970  -30.3270 C   0  0  0  0  0  0  0  0  0  0  0  0
   -4.0860   25.5640  -30.8250 O   0  0  0  0  0  0  0  0  0  0  0  0
   -4.7850   23.3020  -31.0430 C   0  0  0  0  0  0  0  0  0  0  0  0
   -3.6820   22.6540  -31.5990 C   0  0  0  0  0  0  0  0  0  0  0  0
   -4.1700   21.4730  -32.1100 C   0  0  0  0  0  0  0  0  0  0  0  0
   -3.5120   20.4460  -32.7800 C   0  0  0  0  0  0  0  0  0  0  0  0
   -4.2740   19.3510  -33.2200 C   0  0  0  0  0  0  0  0  0  0  0  0
   -5.6780   19.3120  -33.0090 C   0  0  0  0  0  0  0  0  0  0  0  0
   -6.4790   18.1150  -33.4540 C   0  0  0  0  0  0  0  0  0  0  0  0
   -5.9920   16.9570  -32.8740 F   0  0  0  0  0  0  0  0  0  0  0  0
   -6.3980   18.0000  -34.8290 F   0  0  0  0  0  0  0  0  0  0  0  0
   -7.8080   18.2550  -33.0910 F   0  0  0  0  0  0  0  0  0  0  0  0
   -6.3040   20.3650  -32.3040 C   0  0  0  0  0  0  0  0  0  0  0  0
   -5.5170   21.4320  -31.8590 C   0  0  0  0  0  0  0  0  0  0  0  0
   -5.9060   22.5420  -31.1960 N   0  0  0  0  0  0  0  0  0  0  0  0
   -7.2470   22.8790  -30.8060 C   0  0  0  0  0  0  0  0  0  0  0  0
   -7.5270   23.0150  -29.5850 O   0  0  0  0  0  0  0  0  0  0  0  0
   -8.3230   23.0520  -31.8310 C   0  0  0  0  0  0  0  0  0  0  0  0
   -9.4870   21.5050  -31.8340 Br  0  0  0  0  0  0  0  0  0  0  0  0
   -5.3660   25.7080  -28.6030 H   0  0  0  0  0  0  0  0  0  0  0  0
   -5.8710   23.9890  -28.5950 H   0  0  0  0  0  0  0  0  0  0  0  0
   -2.6420   23.0114  -31.6238 H   0  0  0  0  0  0  0  0  0  0  0  0
   -2.4277   20.4903  -32.9597 H   0  0  0  0  0  0  0  0  0  0  0  0
   -3.7778   18.5144  -33.7337 H   0  0  0  0  0  0  0  0  0  0  0  0
   -7.3865   20.3457  -32.1096 H   0  0  0  0  0  0  0  0  0  0  0  0
   -8.9115   23.9505  -31.5937 H   0  0  0  0  0  0  0  0  0  0  0  0
   -7.8625   23.1601  -32.8241 H   0  0  0  0  0  0  0  0  0  0  0  0
  1  2  1  0
  2  3  2  0
  2  4  1  0
  4  5  2  0
  5  6  1  0
  6  7  2  0
  7  8  1  0
  8  9  2  0
  9 10  1  0
 10 11  1  0
 10 12  1  0
 10 13  1  0
  9 14  1  0
 14 15  2  0
 15 16  1  0
 16 17  1  0
 17 18  2  0
 17 19  1  0
 19 20  1  0
 16  4  1  0
 15  6  1  0
  1 21  1  0
  1 22  1  0
  5 23  1  0
  7 24  1  0
  8 25  1  0
 14 26  1  0
 19 27  1  0
 19 28  1  0
M  END
>  <UniqueID>  (69) 
68

>  <SMILES>  (69) 
NC(=O)c1cc2ccc(C(F)(F)F)cc2n1C(=O)CBr

>  <Energy>  (69) 
67.06907177171348

>  <Genealogy>  (69) 
NC(=O)c1cc2ccc(C(F)(F)F)cc2n1C(=O)CBr (3D coordinates assigned)
NC(=O)c1cc2ccc(C(F)(F)F)cc2n1C(=O)CBr (optimized conformer: 67.06907177171348 kcal/mol)

>  <smiles>  (69) 
NC(=O)c1cc2ccc(C(F)(F)F)cc2n1C(=O)CBr

>  <score_type>  (69) 
oracle

>  <origin>  (69) 
adg

>  <m_score__min__energy>  (69) 
-7.9299999999999997

>  <m_primary>  (69) 
energy

$$$$
69:0
     RDKit          3D

 32 33  0  0  0  0  0  0  0  0999 V2000
   -9.4490   21.0120  -31.9670 C   0  0  0  0  0  0  0  0  0  0  0  0
   -9.4880   22.3760  -31.6080 O   0  0  0  0  0  0  0  0  0  0  0  0
   -8.2790   23.0120  -31.9710 C   0  0  0  0  0  0  0  0  0  0  0  0
   -7.2320   22.7840  -30.9180 C   0  0  0  0  0  0  0  0  0  0  0  0
   -7.5610   22.8200  -29.7030 O   0  0  0  0  0  0  0  0  0  0  0  0
   -5.8820   22.4550  -31.2820 N   0  0  0  0  0  0  0  0  0  0  0  0
   -4.7560   23.2020  -31.0960 C   0  0  0  0  0  0  0  0  0  0  0  0
   -4.6660   24.4560  -30.3220 C   0  0  0  0  0  0  0  0  0  0  0  0
   -5.4250   24.6480  -29.1280 N   0  0  0  0  0  0  0  0  0  0  0  0
   -3.8690   25.3580  -30.6950 O   0  0  0  0  0  0  0  0  0  0  0  0
   -3.6620   22.5970  -31.7120 C   0  0  0  0  0  0  0  0  0  0  0  0
   -4.1540   21.4400  -32.2730 C   0  0  0  0  0  0  0  0  0  0  0  0
   -3.5060   20.4620  -33.0220 C   0  0  0  0  0  0  0  0  0  0  0  0
   -4.2750   19.3900  -33.5090 C   0  0  0  0  0  0  0  0  0  0  0  0
   -5.6660   19.3200  -33.2450 C   0  0  0  0  0  0  0  0  0  0  0  0
   -6.4870   18.1830  -33.7820 C   0  0  0  0  0  0  0  0  0  0  0  0
   -6.6540   17.2240  -32.8010 F   0  0  0  0  0  0  0  0  0  0  0  0
   -5.8460   17.6170  -34.8700 F   0  0  0  0  0  0  0  0  0  0  0  0
   -6.2880   20.3340  -32.4840 C   0  0  0  0  0  0  0  0  0  0  0  0
   -5.4950   21.3790  -31.9980 C   0  0  0  0  0  0  0  0  0  0  0  0
   -9.4313   20.3938  -31.0573 H   0  0  0  0  0  0  0  0  0  0  0  0
  -10.3404   20.7638  -32.5618 H   0  0  0  0  0  0  0  0  0  0  0  0
   -8.5449   20.8151  -32.5618 H   0  0  0  0  0  0  0  0  0  0  0  0
   -7.9261   22.6008  -32.9283 H   0  0  0  0  0  0  0  0  0  0  0  0
   -8.4589   24.0929  -32.0679 H   0  0  0  0  0  0  0  0  0  0  0  0
   -5.9530   23.8610  -28.6890 H   0  0  0  0  0  0  0  0  0  0  0  0
   -5.3880   25.5620  -28.6240 H   0  0  0  0  0  0  0  0  0  0  0  0
   -2.6260   22.9655  -31.7433 H   0  0  0  0  0  0  0  0  0  0  0  0
   -2.4270   20.5256  -33.2264 H   0  0  0  0  0  0  0  0  0  0  0  0
   -3.7924   18.5981  -34.1006 H   0  0  0  0  0  0  0  0  0  0  0  0
   -7.4704   18.5655  -34.0930 H   0  0  0  0  0  0  0  0  0  0  0  0
   -7.3682   20.3030  -32.2787 H   0  0  0  0  0  0  0  0  0  0  0  0
  1  2  1  0
  2  3  1  0
  3  4  1  0
  4  5  2  0
  4  6  1  0
  6  7  1  0
  7  8  1  0
  8  9  1  0
  8 10  2  0
  7 11  2  0
 11 12  1  0
 12 13  2  0
 13 14  1  0
 14 15  2  0
 15 16  1  0
 16 17  1  0
 16 18  1  0
 15 19  1  0
 19 20  2  0
 20  6  1  0
 20 12  1  0
  1 21  1  0
  1 22  1  0
  1 23  1  0
  3 24  1  0
  3 25  1  0
  9 26  1  0
  9 27  1  0
 11 28  1  0
 13 29  1  0
 14 30  1  0
 16 31  1  0
 19 32  1  0
M  END
>  <UniqueID>  (70) 
69

>  <SMILES>  (70) 
COCC(=O)n1c(C(N)=O)cc2ccc(C(F)F)cc21

>  <Energy>  (70) 
72.72550216360978

>  <Genealogy>  (70) 
COCC(=O)n1c(C(N)=O)cc2ccc(C(F)F)cc21 (3D coordinates assigned)
COCC(=O)n1c(C(N)=O)cc2ccc(C(F)F)cc21 (optimized conformer: 72.72550216360978 kcal/mol)

>  <smiles>  (70) 
COCC(=O)n1c(C(N)=O)cc2ccc(C(F)F)cc21

>  <score_type>  (70) 
oracle

>  <origin>  (70) 
adg

>  <m_score__min__energy>  (70) 
-7.1299999999999999

>  <m_primary>  (70) 
energy

$$$$
70:0
     RDKit          3D

 43 44  0  0  0  0  0  0  0  0999 V2000
   -6.5040   18.5480  -33.6120 C   0  0  0  0  0  0  0  0  0  0  0  0
   -6.7230   19.8530  -32.9080 C   0  0  0  0  0  0  0  0  0  0  0  0
   -8.0400   20.3150  -32.6630 C   0  0  0  0  0  0  0  0  0  0  0  0
   -8.2580   21.5460  -32.0240 C   0  0  0  0  0  0  0  0  0  0  0  0
   -7.1450   22.3000  -31.6620 C   0  0  0  0  0  0  0  0  0  0  0  0
   -7.0710   23.5100  -31.0120 C   0  0  0  0  0  0  0  0  0  0  0  0
   -5.7110   23.7880  -30.9040 C   0  0  0  0  0  0  0  0  0  0  0  0
   -5.1820   25.0430  -30.3300 C   0  0  0  0  0  0  0  0  0  0  0  0
   -3.9710   25.5980  -30.8340 N   0  0  0  0  0  0  0  0  0  0  0  0
   -5.7680   25.6090  -29.3700 O   0  0  0  0  0  0  0  0  0  0  0  0
   -4.9700   22.7880  -31.4620 N   0  0  0  0  0  0  0  0  0  0  0  0
   -3.5390   22.6560  -31.4620 C   0  0  0  0  0  0  0  0  0  0  0  0
   -2.9620   22.0300  -32.3920 O   0  0  0  0  0  0  0  0  0  0  0  0
   -2.7960   23.2040  -30.4150 O   0  0  0  0  0  0  0  0  0  0  0  0
   -1.5800   22.6340  -29.9440 C   0  0  0  0  0  0  0  0  0  0  0  0
   -1.5270   22.7000  -28.4140 C   0  0  0  0  0  0  0  0  0  0  0  0
   -2.1330   23.9920  -27.8210 C   0  0  0  0  0  0  0  0  0  0  0  0
   -3.6090   24.0940  -27.9440 N   0  0  0  0  0  0  0  0  0  0  0  0
   -4.1990   22.7430  -27.9320 C   0  0  0  0  0  0  0  0  0  0  0  0
   -4.2010   24.8960  -26.8560 C   0  0  0  0  0  0  0  0  0  0  0  0
   -5.8650   21.8840  -31.9220 C   0  0  0  0  0  0  0  0  0  0  0  0
   -5.6170   20.6510  -32.5400 C   0  0  0  0  0  0  0  0  0  0  0  0
   -6.3698   17.7484  -32.8686 H   0  0  0  0  0  0  0  0  0  0  0  0
   -7.3765   18.3203  -34.2420 H   0  0  0  0  0  0  0  0  0  0  0  0
   -5.6050   18.6176  -34.2420 H   0  0  0  0  0  0  0  0  0  0  0  0
   -8.8992   19.7037  -32.9762 H   0  0  0  0  0  0  0  0  0  0  0  0
   -9.2771   21.9038  -31.8157 H   0  0  0  0  0  0  0  0  0  0  0  0
   -7.9083   24.1269  -30.6537 H   0  0  0  0  0  0  0  0  0  0  0  0
   -3.0450   25.3000  -30.4540 H   0  0  0  0  0  0  0  0  0  0  0  0
   -1.5218   21.5836  -30.2653 H   0  0  0  0  0  0  0  0  0  0  0  0
   -0.7324   23.1991  -30.3589 H   0  0  0  0  0  0  0  0  0  0  0  0
   -2.0824   21.8403  -28.0109 H   0  0  0  0  0  0  0  0  0  0  0  0
   -0.4642   22.6869  -28.1307 H   0  0  0  0  0  0  0  0  0  0  0  0
   -1.8738   24.0340  -26.7528 H   0  0  0  0  0  0  0  0  0  0  0  0
   -1.7129   24.8280  -28.3994 H   0  0  0  0  0  0  0  0  0  0  0  0
   -3.8600   24.5270  -28.8620 H   0  0  0  0  0  0  0  0  0  0  0  0
   -4.3424   22.4147  -26.8920 H   0  0  0  0  0  0  0  0  0  0  0  0
   -5.1705   22.7626  -28.4475 H   0  0  0  0  0  0  0  0  0  0  0  0
   -3.5244   22.0437  -28.4475 H   0  0  0  0  0  0  0  0  0  0  0  0
   -3.8940   24.4801  -25.8851 H   0  0  0  0  0  0  0  0  0  0  0  0
   -3.8526   25.9363  -26.9359 H   0  0  0  0  0  0  0  0  0  0  0  0
   -5.2978   24.8695  -26.9359 H   0  0  0  0  0  0  0  0  0  0  0  0
   -4.5881   20.3134  -32.7335 H   0  0  0  0  0  0  0  0  0  0  0  0
  1  2  1  0
  2  3  2  0
  3  4  1  0
  4  5  2  0
  5  6  1  0
  6  7  2  0
  7  8  1  0
  8  9  1  0
  8 10  2  0
  7 11  1  0
 11 12  1  0
 12 13  2  0
 12 14  1  0
 14 15  1  0
 15 16  1  0
 16 17  1  0
 17 18  1  0
 18 19  1  0
 18 20  1  0
 11 21  1  0
 21 22  2  0
 22  2  1  0
 21  5  1  0
  1 23  1  0
  1 24  1  0
  1 25  1  0
  3 26  1  0
  4 27  1  0
  6 28  1  0
  9 29  1  0
 15 30  1  0
 15 31  1  0
 16 32  1  0
 16 33  1  0
 17 34  1  0
 17 35  1  0
 18 36  1  0
 19 37  1  0
 19 38  1  0
 19 39  1  0
 20 40  1  0
 20 41  1  0
 20 42  1  0
 22 43  1  0
M  CHG  2   9  -1  18   1
M  END
>  <UniqueID>  (71) 
70

>  <SMILES>  (71) 
Cc1ccc2cc(C([NH-])=O)n(C(=O)OCCC[NH+](C)C)c2c1

>  <Energy>  (71) 
76.76718360646316

>  <Genealogy>  (71) 
Cc1ccc2cc(C([NH-])=O)n(C(=O)OCCC[NH+](C)C)c2c1 (protonated)
Cc1ccc2cc(C([NH-])=O)n(C(=O)OCCC[NH+](C)C)c2c1 (3D coordinates assigned)
Cc1ccc2cc(C([NH-])=O)n(C(=O)OCCC[NH+](C)C)c2c1 (optimized conformer: 76.76718360646316 kcal/mol)

>  <smiles>  (71) 
Cc1ccc2cc(C(N)=O)n(C(=O)OCCCN(C)C)c2c1

>  <score_type>  (71) 
oracle

>  <origin>  (71) 
adg

>  <m_score__min__energy>  (71) 
-8.7400000000000002

>  <m_primary>  (71) 
energy

$$$$
71:0
     RDKit          3D

 31 33  0  0  0  0  0  0  0  0999 V2000
   -3.8730   25.6480  -30.8330 N   0  0  0  0  0  0  0  0  0  0  0  0
   -5.0810   24.9500  -30.5400 C   0  0  0  0  0  0  0  0  0  0  0  0
   -5.9020   25.4510  -29.7280 O   0  0  0  0  0  0  0  0  0  0  0  0
   -5.3770   23.6730  -31.2240 C   0  0  0  0  0  0  0  0  0  0  0  0
   -6.6570   23.3020  -31.6300 C   0  0  0  0  0  0  0  0  0  0  0  0
   -6.5250   22.0280  -32.1320 C   0  0  0  0  0  0  0  0  0  0  0  0
   -7.4810   21.1780  -32.6800 C   0  0  0  0  0  0  0  0  0  0  0  0
   -7.0580   19.9210  -33.1420 C   0  0  0  0  0  0  0  0  0  0  0  0
   -5.6940   19.5450  -33.0670 C   0  0  0  0  0  0  0  0  0  0  0  0
   -5.2560   18.2180  -33.5520 C   0  0  0  0  0  0  0  0  0  0  0  0
   -4.7120   18.1070  -34.8440 C   0  0  0  0  0  0  0  0  0  0  0  0
   -4.2770   16.8710  -35.3280 C   0  0  0  0  0  0  0  0  0  0  0  0
   -4.3860   15.7300  -34.5310 C   0  0  0  0  0  0  0  0  0  0  0  0
   -3.9520   14.5010  -35.0140 O   0  0  0  0  0  0  0  0  0  0  0  0
   -4.9350   15.8230  -33.2490 C   0  0  0  0  0  0  0  0  0  0  0  0
   -5.3740   17.0570  -32.7550 C   0  0  0  0  0  0  0  0  0  0  0  0
   -6.1260   17.0950  -31.1620 Cl  0  0  0  0  0  0  0  0  0  0  0  0
   -4.7530   20.4300  -32.4960 C   0  0  0  0  0  0  0  0  0  0  0  0
   -5.2060   21.6690  -32.0250 C   0  0  0  0  0  0  0  0  0  0  0  0
   -4.4860   22.6720  -31.4710 N   0  0  0  0  0  0  0  0  0  0  0  0
   -3.0640   22.6890  -31.2660 C   0  0  0  0  0  0  0  0  0  0  0  0
   -2.5770   23.2140  -30.2290 O   0  0  0  0  0  0  0  0  0  0  0  0
   -2.2130   22.1040  -32.1950 O   0  0  0  0  0  0  0  0  0  0  0  0
   -2.9510   25.2910  -30.4950 H   0  0  0  0  0  0  0  0  0  0  0  0
   -7.5775   23.9005  -31.5633 H   0  0  0  0  0  0  0  0  0  0  0  0
   -8.5360   21.4815  -32.7492 H   0  0  0  0  0  0  0  0  0  0  0  0
   -7.7931   19.2213  -33.5664 H   0  0  0  0  0  0  0  0  0  0  0  0
   -4.6283   19.0013  -35.4790 H   0  0  0  0  0  0  0  0  0  0  0  0
   -3.8481   16.7966  -36.3382 H   0  0  0  0  0  0  0  0  0  0  0  0
   -5.0226   14.9215  -32.6248 H   0  0  0  0  0  0  0  0  0  0  0  0
   -3.6909   20.1532  -32.4230 H   0  0  0  0  0  0  0  0  0  0  0  0
  1  2  1  0
  2  3  2  0
  2  4  1  0
  4  5  2  0
  5  6  1  0
  6  7  2  0
  7  8  1  0
  8  9  2  0
  9 10  1  0
 10 11  2  0
 11 12  1  0
 12 13  2  0
 13 14  1  0
 13 15  1  0
 15 16  2  0
 16 17  1  0
  9 18  1  0
 18 19  2  0
 19 20  1  0
 20 21  1  0
 21 22  2  0
 21 23  1  0
 20  4  1  0
 19  6  1  0
 16 10  1  0
  1 24  1  0
  5 25  1  0
  7 26  1  0
  8 27  1  0
 11 28  1  0
 12 29  1  0
 15 30  1  0
 18 31  1  0
M  CHG  3   1  -1  14  -1  23  -1
M  END
>  <UniqueID>  (72) 
71

>  <SMILES>  (72) 
[NH-]C(=O)c1cc2ccc(-c3ccc([O-])cc3Cl)cc2n1C(=O)[O-]

>  <Energy>  (72) 
81.04447015302637

>  <Genealogy>  (72) 
[NH-]C(=O)c1cc2ccc(-c3ccc([O-])cc3Cl)cc2n1C(=O)[O-] (protonated)
[NH-]C(=O)c1cc2ccc(-c3ccc([O-])cc3Cl)cc2n1C(=O)[O-] (3D coordinates assigned)
[NH-]C(=O)c1cc2ccc(-c3ccc([O-])cc3Cl)cc2n1C(=O)[O-] (optimized conformer: 81.04447015302637 kcal/mol)

>  <smiles>  (72) 
NC(=O)c1cc2ccc(-c3ccc(O)cc3Cl)cc2n1C(=O)O

>  <score_type>  (72) 
oracle

>  <origin>  (72) 
adg

>  <m_score__min__energy>  (72) 
-10.98

>  <m_primary>  (72) 
energy

$$$$
72:0
     RDKit          3D

 39 40  0  0  0  0  0  0  0  0999 V2000
   -4.2460   25.5970  -30.7880 N   0  0  0  0  0  0  0  0  0  0  0  0
   -5.5900   25.2380  -30.4630 C   0  0  0  0  0  0  0  0  0  0  0  0
   -6.2690   25.9970  -29.7230 O   0  0  0  0  0  0  0  0  0  0  0  0
   -6.1750   23.9640  -30.9270 C   0  0  0  0  0  0  0  0  0  0  0  0
   -7.5260   23.8020  -31.2210 C   0  0  0  0  0  0  0  0  0  0  0  0
   -7.6700   22.4730  -31.5470 C   0  0  0  0  0  0  0  0  0  0  0  0
   -8.8020   21.7680  -31.9430 C   0  0  0  0  0  0  0  0  0  0  0  0
   -8.6530   20.4080  -32.2600 C   0  0  0  0  0  0  0  0  0  0  0  0
   -7.3850   19.7820  -32.1770 C   0  0  0  0  0  0  0  0  0  0  0  0
   -7.2290   18.3380  -32.5680 C   0  0  0  0  0  0  0  0  0  0  0  0
   -5.7750   18.0380  -32.9500 C   0  0  0  0  0  0  0  0  0  0  0  0
   -5.5630   18.1140  -34.4610 C   0  0  0  0  0  0  0  0  0  0  0  0
   -6.1130   19.2790  -34.9660 F   0  0  0  0  0  0  0  0  0  0  0  0
   -6.2550   20.5330  -31.7860 C   0  0  0  0  0  0  0  0  0  0  0  0
   -6.4360   21.8820  -31.4550 C   0  0  0  0  0  0  0  0  0  0  0  0
   -5.5040   22.7880  -31.0790 N   0  0  0  0  0  0  0  0  0  0  0  0
   -4.0890   22.5690  -30.9760 C   0  0  0  0  0  0  0  0  0  0  0  0
   -3.3450   22.7940  -31.9680 O   0  0  0  0  0  0  0  0  0  0  0  0
   -3.5420   22.1040  -29.7740 O   0  0  0  0  0  0  0  0  0  0  0  0
   -3.6420   22.8100  -28.5390 C   0  0  0  0  0  0  0  0  0  0  0  0
   -2.5280   23.8510  -28.4120 C   0  0  0  0  0  0  0  0  0  0  0  0
   -2.3030   24.4820  -29.6440 O   0  0  0  0  0  0  0  0  0  0  0  0
   -3.6020   24.9180  -31.2480 H   0  0  0  0  0  0  0  0  0  0  0  0
   -3.8630   26.5210  -30.4870 H   0  0  0  0  0  0  0  0  0  0  0  0
   -8.3110   24.5722  -31.1977 H   0  0  0  0  0  0  0  0  0  0  0  0
   -9.7835   22.2606  -32.0059 H   0  0  0  0  0  0  0  0  0  0  0  0
   -9.5295   19.8232  -32.5758 H   0  0  0  0  0  0  0  0  0  0  0  0
   -7.5192   17.7002  -31.7201 H   0  0  0  0  0  0  0  0  0  0  0  0
   -7.8737   18.1332  -33.4354 H   0  0  0  0  0  0  0  0  0  0  0  0
   -5.1185   18.7722  -32.4601 H   0  0  0  0  0  0  0  0  0  0  0  0
   -5.5367   17.0160  -32.6203 H   0  0  0  0  0  0  0  0  0  0  0  0
   -4.4846   18.0986  -34.6772 H   0  0  0  0  0  0  0  0  0  0  0  0
   -6.0551   17.2518  -34.9348 H   0  0  0  0  0  0  0  0  0  0  0  0
   -5.2579   20.0705  -31.7424 H   0  0  0  0  0  0  0  0  0  0  0  0
   -4.6165   23.3182  -28.4928 H   0  0  0  0  0  0  0  0  0  0  0  0
   -3.5444   22.0892  -27.7138 H   0  0  0  0  0  0  0  0  0  0  0  0
   -2.8207   24.6055  -27.6669 H   0  0  0  0  0  0  0  0  0  0  0  0
   -1.6031   23.3458  -28.0967 H   0  0  0  0  0  0  0  0  0  0  0  0
   -2.2830   23.7660  -30.3310 H   0  0  0  0  0  0  0  0  0  0  0  0
  1  2  1  0
  2  3  2  0
  2  4  1  0
  4  5  2  0
  5  6  1  0
  6  7  2  0
  7  8  1  0
  8  9  2  0
  9 10  1  0
 10 11  1  0
 11 12  1  0
 12 13  1  0
  9 14  1  0
 14 15  2  0
 15 16  1  0
 16 17  1  0
 17 18  2  0
 17 19  1  0
 19 20  1  0
 20 21  1  0
 21 22  1  0
 16  4  1  0
 15  6  1  0
  1 23  1  0
  1 24  1  0
  5 25  1  0
  7 26  1  0
  8 27  1  0
 10 28  1  0
 10 29  1  0
 11 30  1  0
 11 31  1  0
 12 32  1  0
 12 33  1  0
 14 34  1  0
 20 35  1  0
 20 36  1  0
 21 37  1  0
 21 38  1  0
 22 39  1  0
M  END
>  <UniqueID>  (73) 
72

>  <SMILES>  (73) 
NC(=O)c1cc2ccc(CCCF)cc2n1C(=O)OCCO

>  <Energy>  (73) 
69.14724478035478

>  <Genealogy>  (73) 
NC(=O)c1cc2ccc(CCCF)cc2n1C(=O)OCCO (3D coordinates assigned)
NC(=O)c1cc2ccc(CCCF)cc2n1C(=O)OCCO (optimized conformer: 69.14724478035478 kcal/mol)

>  <smiles>  (73) 
NC(=O)c1cc2ccc(CCCF)cc2n1C(=O)OCCO

>  <score_type>  (73) 
oracle

>  <origin>  (73) 
adg

>  <m_score__min__energy>  (73) 
-8.4499999999999993

>  <m_primary>  (73) 
energy

$$$$
73:0
     RDKit          3D

 45 47  0  0  0  0  0  0  0  0999 V2000
   -7.2380   18.4720  -33.0150 C   0  0  0  0  0  0  0  0  0  0  0  0
   -7.3160   19.8890  -32.5310 C   0  0  0  0  0  0  0  0  0  0  0  0
   -8.5750   20.5280  -32.4090 C   0  0  0  0  0  0  0  0  0  0  0  0
   -8.6660   21.8370  -31.9030 C   0  0  0  0  0  0  0  0  0  0  0  0
   -7.4870   22.4740  -31.5270 C   0  0  0  0  0  0  0  0  0  0  0  0
   -7.2910   23.7150  -30.9630 C   0  0  0  0  0  0  0  0  0  0  0  0
   -5.9150   23.8130  -30.7570 C   0  0  0  0  0  0  0  0  0  0  0  0
   -5.2530   25.0170  -30.2120 C   0  0  0  0  0  0  0  0  0  0  0  0
   -4.0820   25.5520  -30.8220 N   0  0  0  0  0  0  0  0  0  0  0  0
   -5.7520   25.6040  -29.2140 O   0  0  0  0  0  0  0  0  0  0  0  0
   -5.2890   22.6800  -31.1780 N   0  0  0  0  0  0  0  0  0  0  0  0
   -3.9030   22.3380  -31.0410 C   0  0  0  0  0  0  0  0  0  0  0  0
   -3.0200   23.2270  -31.1890 O   0  0  0  0  0  0  0  0  0  0  0  0
   -3.5400   21.0110  -30.7900 O   0  0  0  0  0  0  0  0  0  0  0  0
   -2.6100   20.6290  -29.7780 C   0  0  0  0  0  0  0  0  0  0  0  0
   -3.0420   21.1510  -28.4020 C   0  0  0  0  0  0  0  0  0  0  0  0
   -1.9790   22.0600  -27.7760 C   0  0  0  0  0  0  0  0  0  0  0  0
   -2.5820   23.3240  -27.3560 N   0  0  0  0  0  0  0  0  0  0  0  0
   -3.8170   23.7620  -27.6750 C   0  0  0  0  0  0  0  0  0  0  0  0
   -4.0990   24.9380  -27.0810 N   0  0  0  0  0  0  0  0  0  0  0  0
   -3.0120   25.2520  -26.3530 C   0  0  0  0  0  0  0  0  0  0  0  0
   -2.0780   24.2490  -26.5120 C   0  0  0  0  0  0  0  0  0  0  0  0
   -0.7200   24.2030  -25.8850 C   0  0  0  0  0  0  0  0  0  0  0  0
   -6.2630   21.8690  -31.6440 C   0  0  0  0  0  0  0  0  0  0  0  0
   -6.1430   20.5600  -32.1260 C   0  0  0  0  0  0  0  0  0  0  0  0
   -7.2005   17.7912  -32.1518 H   0  0  0  0  0  0  0  0  0  0  0  0
   -8.1249   18.2433  -33.6241 H   0  0  0  0  0  0  0  0  0  0  0  0
   -6.3313   18.3420  -33.6241 H   0  0  0  0  0  0  0  0  0  0  0  0
   -9.4886   19.9958  -32.7126 H   0  0  0  0  0  0  0  0  0  0  0  0
   -9.6387   22.3417  -31.8074 H   0  0  0  0  0  0  0  0  0  0  0  0
   -8.0565   24.4684  -30.7256 H   0  0  0  0  0  0  0  0  0  0  0  0
   -3.1310   25.2750  -30.4940 H   0  0  0  0  0  0  0  0  0  0  0  0
   -2.5493   19.5313  -29.7424 H   0  0  0  0  0  0  0  0  0  0  0  0
   -1.6299   21.0640  -30.0235 H   0  0  0  0  0  0  0  0  0  0  0  0
   -3.9757   21.7214  -28.5152 H   0  0  0  0  0  0  0  0  0  0  0  0
   -3.1840   20.2854  -27.7383 H   0  0  0  0  0  0  0  0  0  0  0  0
   -1.5405   21.5578  -26.9011 H   0  0  0  0  0  0  0  0  0  0  0  0
   -1.1966   22.2649  -28.5215 H   0  0  0  0  0  0  0  0  0  0  0  0
   -4.5097   23.2246  -28.3393 H   0  0  0  0  0  0  0  0  0  0  0  0
   -4.9830   25.4880  -27.1640 H   0  0  0  0  0  0  0  0  0  0  0  0
   -2.8889   26.1545  -25.7362 H   0  0  0  0  0  0  0  0  0  0  0  0
   -0.8215   24.2064  -24.7897 H   0  0  0  0  0  0  0  0  0  0  0  0
   -0.2005   23.2867  -26.2022 H   0  0  0  0  0  0  0  0  0  0  0  0
   -0.1397   25.0820  -26.2022 H   0  0  0  0  0  0  0  0  0  0  0  0
   -5.1610   20.0682  -32.1872 H   0  0  0  0  0  0  0  0  0  0  0  0
  1  2  1  0
  2  3  2  0
  3  4  1  0
  4  5  2  0
  5  6  1  0
  6  7  2  0
  7  8  1  0
  8  9  1  0
  8 10  2  0
  7 11  1  0
 11 12  1  0
 12 13  2  0
 12 14  1  0
 14 15  1  0
 15 16  1  0
 16 17  1  0
 17 18  1  0
 18 19  1  0
 19 20  2  0
 20 21  1  0
 21 22  2  0
 22 23  1  0
 11 24  1  0
 24 25  2  0
 25  2  1  0
 24  5  1  0
 22 18  1  0
  1 26  1  0
  1 27  1  0
  1 28  1  0
  3 29  1  0
  4 30  1  0
  6 31  1  0
  9 32  1  0
 15 33  1  0
 15 34  1  0
 16 35  1  0
 16 36  1  0
 17 37  1  0
 17 38  1  0
 19 39  1  0
 20 40  1  0
 21 41  1  0
 23 42  1  0
 23 43  1  0
 23 44  1  0
 25 45  1  0
M  CHG  2   9  -1  20   1
M  END
>  <UniqueID>  (74) 
73

>  <SMILES>  (74) 
Cc1ccc2cc(C([NH-])=O)n(C(=O)OCCCn3c[nH+]cc3C)c2c1

>  <Energy>  (74) 
107.99850525081533

>  <Genealogy>  (74) 
Cc1ccc2cc(C([NH-])=O)n(C(=O)OCCCn3c[nH+]cc3C)c2c1 (protonated)
Cc1ccc2cc(C([NH-])=O)n(C(=O)OCCCn3c[nH+]cc3C)c2c1 (3D coordinates assigned)
Cc1ccc2cc(C([NH-])=O)n(C(=O)OCCCn3c[nH+]cc3C)c2c1 (optimized conformer: 107.99850525081533 kcal/mol)

>  <smiles>  (74) 
Cc1ccc2cc(C(N)=O)n(C(=O)OCCCn3cncc3C)c2c1

>  <score_type>  (74) 
oracle

>  <origin>  (74) 
adg

>  <m_score__min__energy>  (74) 
-10.19

>  <m_primary>  (74) 
energy

$$$$
74:0
     RDKit          3D

 39 41  0  0  0  0  0  0  0  0999 V2000
   -3.7500   21.5590  -33.4090 C   0  0  0  0  0  0  0  0  0  0  0  0
   -3.4870   21.1020  -32.1860 C   0  0  0  0  0  0  0  0  0  0  0  0
   -4.1340   21.6510  -30.9780 C   0  0  0  0  0  0  0  0  0  0  0  0
   -3.5010   21.7140  -29.8890 O   0  0  0  0  0  0  0  0  0  0  0  0
   -5.4960   22.1040  -31.0330 N   0  0  0  0  0  0  0  0  0  0  0  0
   -5.9670   23.3500  -30.7410 C   0  0  0  0  0  0  0  0  0  0  0  0
   -5.1580   24.4620  -30.1920 C   0  0  0  0  0  0  0  0  0  0  0  0
   -5.3420   24.9080  -28.8470 N   0  0  0  0  0  0  0  0  0  0  0  0
   -4.2810   25.0170  -30.9040 O   0  0  0  0  0  0  0  0  0  0  0  0
   -7.3440   23.4120  -30.9590 C   0  0  0  0  0  0  0  0  0  0  0  0
   -7.7000   22.1590  -31.4040 C   0  0  0  0  0  0  0  0  0  0  0  0
   -8.9470   21.6610  -31.7740 C   0  0  0  0  0  0  0  0  0  0  0  0
   -9.0180   20.3280  -32.2140 C   0  0  0  0  0  0  0  0  0  0  0  0
   -7.8490   19.5310  -32.2950 C   0  0  0  0  0  0  0  0  0  0  0  0
   -7.9410   18.0960  -32.7380 C   0  0  0  0  0  0  0  0  0  0  0  0
   -6.6130   17.6360  -33.2720 C   0  0  0  0  0  0  0  0  0  0  0  0
   -6.0860   18.1990  -34.4470 C   0  0  0  0  0  0  0  0  0  0  0  0
   -4.8340   17.7990  -34.9200 C   0  0  0  0  0  0  0  0  0  0  0  0
   -4.0920   16.8420  -34.2200 C   0  0  0  0  0  0  0  0  0  0  0  0
   -2.8770   16.4580  -34.6830 F   0  0  0  0  0  0  0  0  0  0  0  0
   -4.6030   16.2860  -33.0440 C   0  0  0  0  0  0  0  0  0  0  0  0
   -3.8830   15.3620  -32.3600 F   0  0  0  0  0  0  0  0  0  0  0  0
   -5.8570   16.6840  -32.5680 C   0  0  0  0  0  0  0  0  0  0  0  0
   -6.6040   20.0690  -31.9040 C   0  0  0  0  0  0  0  0  0  0  0  0
   -6.5670   21.3900  -31.4440 C   0  0  0  0  0  0  0  0  0  0  0  0
   -3.2437   21.1194  -34.2811 H   0  0  0  0  0  0  0  0  0  0  0  0
   -4.4735   22.3760  -33.5471 H   0  0  0  0  0  0  0  0  0  0  0  0
   -2.7601   20.2844  -32.0717 H   0  0  0  0  0  0  0  0  0  0  0  0
   -4.7390   25.6680  -28.4610 H   0  0  0  0  0  0  0  0  0  0  0  0
   -6.1010   24.5220  -28.2420 H   0  0  0  0  0  0  0  0  0  0  0  0
   -8.0047   24.2783  -30.8074 H   0  0  0  0  0  0  0  0  0  0  0  0
   -9.8475   22.2908  -31.7235 H   0  0  0  0  0  0  0  0  0  0  0  0
   -9.9903   19.8993  -32.4982 H   0  0  0  0  0  0  0  0  0  0  0  0
   -8.2263   17.4679  -31.8812 H   0  0  0  0  0  0  0  0  0  0  0  0
   -8.6980   18.0112  -33.5316 H   0  0  0  0  0  0  0  0  0  0  0  0
   -6.6620   18.9580  -34.9966 H   0  0  0  0  0  0  0  0  0  0  0  0
   -4.4308   18.2375  -35.8448 H   0  0  0  0  0  0  0  0  0  0  0  0
   -6.2528   16.2495  -31.6382 H   0  0  0  0  0  0  0  0  0  0  0  0
   -5.6862   19.4652  -31.9595 H   0  0  0  0  0  0  0  0  0  0  0  0
  1  2  2  0
  2  3  1  0
  3  4  2  0
  3  5  1  0
  5  6  1  0
  6  7  1  0
  7  8  1  0
  7  9  2  0
  6 10  2  0
 10 11  1  0
 11 12  2  0
 12 13  1  0
 13 14  2  0
 14 15  1  0
 15 16  1  0
 16 17  2  0
 17 18  1  0
 18 19  2  0
 19 20  1  0
 19 21  1  0
 21 22  1  0
 21 23  2  0
 14 24  1  0
 24 25  2  0
 25  5  1  0
 25 11  1  0
 23 16  1  0
  1 26  1  0
  1 27  1  0
  2 28  1  0
  8 29  1  0
  8 30  1  0
 10 31  1  0
 12 32  1  0
 13 33  1  0
 15 34  1  0
 15 35  1  0
 17 36  1  0
 18 37  1  0
 23 38  1  0
 24 39  1  0
M  END
>  <UniqueID>  (75) 
74

>  <SMILES>  (75) 
C=CC(=O)n1c(C(N)=O)cc2ccc(Cc3ccc(F)c(F)c3)cc21

>  <Energy>  (75) 
77.78422078626225

>  <Genealogy>  (75) 
C=CC(=O)n1c(C(N)=O)cc2ccc(Cc3ccc(F)c(F)c3)cc21 (3D coordinates assigned)
C=CC(=O)n1c(C(N)=O)cc2ccc(Cc3ccc(F)c(F)c3)cc21 (optimized conformer: 77.78422078626225 kcal/mol)

>  <smiles>  (75) 
C=CC(=O)n1c(C(N)=O)cc2ccc(Cc3ccc(F)c(F)c3)cc21

>  <score_type>  (75) 
oracle

>  <origin>  (75) 
adg

>  <m_score__min__energy>  (75) 
-9.6099999999999994

>  <m_primary>  (75) 
energy

$$$$
75:0
     RDKit          3D

 42 44  0  0  0  0  0  0  0  0999 V2000
   -3.8700   25.4040  -30.4680 N   0  0  0  0  0  0  0  0  0  0  0  0
   -5.2290   24.9950  -30.3380 C   0  0  0  0  0  0  0  0  0  0  0  0
   -6.0380   25.7300  -29.7130 O   0  0  0  0  0  0  0  0  0  0  0  0
   -5.6840   23.7390  -30.9680 C   0  0  0  0  0  0  0  0  0  0  0  0
   -6.9920   23.5180  -31.3950 C   0  0  0  0  0  0  0  0  0  0  0  0
   -7.0230   22.2060  -31.8110 C   0  0  0  0  0  0  0  0  0  0  0  0
   -8.0710   21.4540  -32.3330 C   0  0  0  0  0  0  0  0  0  0  0  0
   -7.8110   20.1200  -32.6910 C   0  0  0  0  0  0  0  0  0  0  0  0
   -6.5160   19.5610  -32.5240 C   0  0  0  0  0  0  0  0  0  0  0  0
   -6.2510   18.1530  -32.9140 C   0  0  0  0  0  0  0  0  0  0  0  0
   -6.5060   17.7140  -34.2260 C   0  0  0  0  0  0  0  0  0  0  0  0
   -6.2530   16.3900  -34.5910 C   0  0  0  0  0  0  0  0  0  0  0  0
   -5.7440   15.4870  -33.6540 C   0  0  0  0  0  0  0  0  0  0  0  0
   -5.4850   15.9070  -32.3430 C   0  0  0  0  0  0  0  0  0  0  0  0
   -4.9670   14.9810  -31.3820 N   0  0  0  0  0  0  0  0  0  0  0  0
   -5.7380   17.2360  -31.9760 C   0  0  0  0  0  0  0  0  0  0  0  0
   -5.4790   20.3600  -31.9870 C   0  0  0  0  0  0  0  0  0  0  0  0
   -5.7700   21.6810  -31.6350 C   0  0  0  0  0  0  0  0  0  0  0  0
   -4.9340   22.6130  -31.1290 N   0  0  0  0  0  0  0  0  0  0  0  0
   -3.5330   22.4370  -30.8710 C   0  0  0  0  0  0  0  0  0  0  0  0
   -2.6850   23.0490  -31.5750 O   0  0  0  0  0  0  0  0  0  0  0  0
   -3.0620   21.5930  -29.7190 C   0  0  0  0  0  0  0  0  0  0  0  0
   -3.0230   22.3910  -28.4070 C   0  0  0  0  0  0  0  0  0  0  0  0
   -2.8720   23.8260  -28.6500 N   0  0  0  0  0  0  0  0  0  0  0  0
   -3.1240   24.7150  -30.7110 H   0  0  0  0  0  0  0  0  0  0  0  0
   -7.8230   24.2387  -31.3988 H   0  0  0  0  0  0  0  0  0  0  0  0
   -9.0725   21.8904  -32.4615 H   0  0  0  0  0  0  0  0  0  0  0  0
   -8.6204   19.5012  -33.1057 H   0  0  0  0  0  0  0  0  0  0  0  0
   -6.9074   18.4184  -34.9694 H   0  0  0  0  0  0  0  0  0  0  0  0
   -6.4551   16.0568  -35.6197 H   0  0  0  0  0  0  0  0  0  0  0  0
   -5.5465   14.4451  -33.9462 H   0  0  0  0  0  0  0  0  0  0  0  0
   -4.1220   14.4060  -31.5940 H   0  0  0  0  0  0  0  0  0  0  0  0
   -5.4260   14.8660  -30.4500 H   0  0  0  0  0  0  0  0  0  0  0  0
   -5.5341   17.5656  -30.9465 H   0  0  0  0  0  0  0  0  0  0  0  0
   -4.4672   19.9510  -31.8497 H   0  0  0  0  0  0  0  0  0  0  0  0
   -3.7475   20.7413  -29.5977 H   0  0  0  0  0  0  0  0  0  0  0  0
   -2.0409   21.2495  -29.9413 H   0  0  0  0  0  0  0  0  0  0  0  0
   -3.9603   22.2193  -27.8575 H   0  0  0  0  0  0  0  0  0  0  0  0
   -2.1554   22.0491  -27.8236 H   0  0  0  0  0  0  0  0  0  0  0  0
   -2.2100   24.2440  -27.9560 H   0  0  0  0  0  0  0  0  0  0  0  0
   -3.7990   24.3050  -28.5890 H   0  0  0  0  0  0  0  0  0  0  0  0
   -2.4860   23.9700  -29.6120 H   0  0  0  0  0  0  0  0  0  0  0  0
  1  2  1  0
  2  3  2  0
  2  4  1  0
  4  5  2  0
  5  6  1  0
  6  7  2  0
  7  8  1  0
  8  9  2  0
  9 10  1  0
 10 11  2  0
 11 12  1  0
 12 13  2  0
 13 14  1  0
 14 15  1  0
 14 16  2  0
  9 17  1  0
 17 18  2  0
 18 19  1  0
 19 20  1  0
 20 21  2  0
 20 22  1  0
 22 23  1  0
 23 24  1  0
 19  4  1  0
 18  6  1  0
 16 10  1  0
  1 25  1  0
  5 26  1  0
  7 27  1  0
  8 28  1  0
 11 29  1  0
 12 30  1  0
 13 31  1  0
 15 32  1  0
 15 33  1  0
 16 34  1  0
 17 35  1  0
 22 36  1  0
 22 37  1  0
 23 38  1  0
 23 39  1  0
 24 40  1  0
 24 41  1  0
 24 42  1  0
M  CHG  2   1  -1  24   1
M  END
>  <UniqueID>  (76) 
75

>  <SMILES>  (76) 
[NH-]C(=O)c1cc2ccc(-c3cccc(N)c3)cc2n1C(=O)CC[NH3+]

>  <Energy>  (76) 
83.9209139847852

>  <Genealogy>  (76) 
[NH-]C(=O)c1cc2ccc(-c3cccc(N)c3)cc2n1C(=O)CC[NH3+] (protonated)
[NH-]C(=O)c1cc2ccc(-c3cccc(N)c3)cc2n1C(=O)CC[NH3+] (3D coordinates assigned)
[NH-]C(=O)c1cc2ccc(-c3cccc(N)c3)cc2n1C(=O)CC[NH3+] (optimized conformer: 83.9209139847852 kcal/mol)

>  <smiles>  (76) 
NCCC(=O)n1c(C(N)=O)cc2ccc(-c3cccc(N)c3)cc21

>  <score_type>  (76) 
oracle

>  <origin>  (76) 
adg

>  <m_score__min__energy>  (76) 
-9.5600000000000005

>  <m_primary>  (76) 
energy

$$$$
76:0
     RDKit          3D

 38 40  0  0  0  0  0  0  0  0999 V2000
   -3.0080   17.9390  -33.8630 N   0  0  0  0  0  0  0  0  0  0  0  0
   -4.1220   18.0100  -33.5580 C   0  0  0  0  0  0  0  0  0  0  0  0
   -5.5410   18.1010  -33.1710 C   0  0  0  0  0  0  0  0  0  0  0  0
   -5.9470   19.5050  -32.7630 C   0  0  0  0  0  0  0  0  0  0  0  0
   -7.3200   19.8690  -32.7140 C   0  0  0  0  0  0  0  0  0  0  0  0
   -7.7120   21.1480  -32.2870 C   0  0  0  0  0  0  0  0  0  0  0  0
   -6.7180   22.0320  -31.8790 C   0  0  0  0  0  0  0  0  0  0  0  0
   -6.8170   23.3290  -31.4310 C   0  0  0  0  0  0  0  0  0  0  0  0
   -5.5100   23.7230  -31.1490 C   0  0  0  0  0  0  0  0  0  0  0  0
   -5.1660   25.0290  -30.5530 C   0  0  0  0  0  0  0  0  0  0  0  0
   -3.9260   25.6650  -30.8490 N   0  0  0  0  0  0  0  0  0  0  0  0
   -5.9560   25.5690  -29.7320 O   0  0  0  0  0  0  0  0  0  0  0  0
   -4.6370   22.7120  -31.4190 N   0  0  0  0  0  0  0  0  0  0  0  0
   -3.2040   22.7470  -31.3550 C   0  0  0  0  0  0  0  0  0  0  0  0
   -2.5210   22.2800  -32.3060 O   0  0  0  0  0  0  0  0  0  0  0  0
   -2.5530   23.3580  -30.2340 N   0  0  0  0  0  0  0  0  0  0  0  0
   -3.1370   23.4430  -28.8990 C   0  0  0  0  0  0  0  0  0  0  0  0
   -2.5510   24.6230  -28.1210 C   0  0  0  0  0  0  0  0  0  0  0  0
   -1.9670   25.5580  -28.9850 O   0  0  0  0  0  0  0  0  0  0  0  0
   -5.3940   21.6830  -31.8630 C   0  0  0  0  0  0  0  0  0  0  0  0
   -4.9720   20.4210  -32.2990 C   0  0  0  0  0  0  0  0  0  0  0  0
   -6.4750   17.3950  -34.1420 C   0  0  0  0  0  0  0  0  0  0  0  0
   -6.7980   16.3880  -33.2140 O   0  0  0  0  0  0  0  0  0  0  0  0
   -5.9810   16.9840  -32.2350 C   0  0  0  0  0  0  0  0  0  0  0  0
   -8.0859   19.1389  -33.0146 H   0  0  0  0  0  0  0  0  0  0  0  0
   -8.7719   21.4419  -32.2754 H   0  0  0  0  0  0  0  0  0  0  0  0
   -7.7329   23.9278  -31.3191 H   0  0  0  0  0  0  0  0  0  0  0  0
   -3.0300   25.1300  -30.8280 H   0  0  0  0  0  0  0  0  0  0  0  0
   -4.2251   23.5762  -28.9897 H   0  0  0  0  0  0  0  0  0  0  0  0
   -2.9076   22.5147  -28.3552 H   0  0  0  0  0  0  0  0  0  0  0  0
   -3.3551   25.1129  -27.5523 H   0  0  0  0  0  0  0  0  0  0  0  0
   -1.7736   24.2419  -27.4425 H   0  0  0  0  0  0  0  0  0  0  0  0
   -2.5730   25.6400  -29.7660 H   0  0  0  0  0  0  0  0  0  0  0  0
   -3.9067   20.1473  -32.2814 H   0  0  0  0  0  0  0  0  0  0  0  0
   -7.3386   18.0071  -34.4413 H   0  0  0  0  0  0  0  0  0  0  0  0
   -6.0894   17.1015  -35.1295 H   0  0  0  0  0  0  0  0  0  0  0  0
   -6.5398   17.3427  -31.3580 H   0  0  0  0  0  0  0  0  0  0  0  0
   -5.2120   16.3717  -31.7413 H   0  0  0  0  0  0  0  0  0  0  0  0
  1  2  3  0
  2  3  1  0
  3  4  1  0
  4  5  2  0
  5  6  1  0
  6  7  2  0
  7  8  1  0
  8  9  2  0
  9 10  1  0
 10 11  1  0
 10 12  2  0
  9 13  1  0
 13 14  1  0
 14 15  2  0
 14 16  1  0
 16 17  1  0
 17 18  1  0
 18 19  1  0
 13 20  1  0
 20 21  2  0
  3 22  1  0
 22 23  1  0
 23 24  1  0
 24  3  1  0
 21  4  1  0
 20  7  1  0
  5 25  1  0
  6 26  1  0
  8 27  1  0
 11 28  1  0
 17 29  1  0
 17 30  1  0
 18 31  1  0
 18 32  1  0
 19 33  1  0
 21 34  1  0
 22 35  1  0
 22 36  1  0
 24 37  1  0
 24 38  1  0
M  CHG  2  11  -1  16  -1
M  END
>  <UniqueID>  (77) 
76

>  <SMILES>  (77) 
N#CC1(c2ccc3cc(C([NH-])=O)n(C(=O)[N-]CCO)c3c2)COC1

>  <Energy>  (77) 
141.46423951631266

>  <Genealogy>  (77) 
N#CC1(c2ccc3cc(C([NH-])=O)n(C(=O)[N-]CCO)c3c2)COC1 (protonated)
N#CC1(c2ccc3cc(C([NH-])=O)n(C(=O)[N-]CCO)c3c2)COC1 (3D coordinates assigned)
N#CC1(c2ccc3cc(C([NH-])=O)n(C(=O)[N-]CCO)c3c2)COC1 (nonaromatic ring conformer: 141.46423951631266 kcal/mol)

>  <smiles>  (77) 
N#CC1(c2ccc3cc(C(N)=O)n(C(=O)NCCO)c3c2)COC1

>  <score_type>  (77) 
oracle

>  <origin>  (77) 
adg

>  <m_score__min__energy>  (77) 
-11.69

>  <m_primary>  (77) 
energy

$$$$
77:0
     RDKit          3D

 33 34  0  0  0  0  0  0  0  0999 V2000
   -9.4330   19.8700  -32.3820 C   0  0  0  0  0  0  0  0  0  0  0  0
   -9.1720   20.8700  -31.5360 C   0  0  0  0  0  0  0  0  0  0  0  0
   -9.3840   22.3040  -31.9320 C   0  0  0  0  0  0  0  0  0  0  0  0
   -8.1530   23.0230  -31.9040 O   0  0  0  0  0  0  0  0  0  0  0  0
   -7.1820   22.8430  -30.9110 C   0  0  0  0  0  0  0  0  0  0  0  0
   -7.4840   22.9780  -29.6940 O   0  0  0  0  0  0  0  0  0  0  0  0
   -5.8380   22.4990  -31.2800 N   0  0  0  0  0  0  0  0  0  0  0  0
   -4.7090   23.2360  -31.0820 C   0  0  0  0  0  0  0  0  0  0  0  0
   -4.6190   24.4830  -30.2950 C   0  0  0  0  0  0  0  0  0  0  0  0
   -5.3250   24.6340  -29.0620 N   0  0  0  0  0  0  0  0  0  0  0  0
   -3.8630   25.4100  -30.6900 O   0  0  0  0  0  0  0  0  0  0  0  0
   -3.6110   22.6280  -31.6820 C   0  0  0  0  0  0  0  0  0  0  0  0
   -4.1020   21.4730  -32.2490 C   0  0  0  0  0  0  0  0  0  0  0  0
   -3.4470   20.4910  -32.9860 C   0  0  0  0  0  0  0  0  0  0  0  0
   -4.2100   19.4220  -33.4840 C   0  0  0  0  0  0  0  0  0  0  0  0
   -5.6050   19.3590  -33.2440 C   0  0  0  0  0  0  0  0  0  0  0  0
   -6.4060   18.2160  -33.8030 C   0  0  0  0  0  0  0  0  0  0  0  0
   -5.5880   17.4040  -34.5660 F   0  0  0  0  0  0  0  0  0  0  0  0
   -6.9490   17.4760  -32.7680 F   0  0  0  0  0  0  0  0  0  0  0  0
   -6.2380   20.3760  -32.4950 C   0  0  0  0  0  0  0  0  0  0  0  0
   -5.4480   21.4190  -31.9930 C   0  0  0  0  0  0  0  0  0  0  0  0
   -9.2698   18.8281  -32.0691 H   0  0  0  0  0  0  0  0  0  0  0  0
   -9.8112   20.0883  -33.3916 H   0  0  0  0  0  0  0  0  0  0  0  0
   -8.7942   20.6392  -30.5290 H   0  0  0  0  0  0  0  0  0  0  0  0
   -9.7997   22.3396  -32.9498 H   0  0  0  0  0  0  0  0  0  0  0  0
  -10.0804   22.7682  -31.2182 H   0  0  0  0  0  0  0  0  0  0  0  0
   -5.8170   23.8270  -28.6200 H   0  0  0  0  0  0  0  0  0  0  0  0
   -5.2820   25.5380  -28.5420 H   0  0  0  0  0  0  0  0  0  0  0  0
   -2.5731   22.9918  -31.6997 H   0  0  0  0  0  0  0  0  0  0  0  0
   -2.3646   20.5501  -33.1729 H   0  0  0  0  0  0  0  0  0  0  0  0
   -3.7203   18.6269  -34.0653 H   0  0  0  0  0  0  0  0  0  0  0  0
   -7.2154   18.6165  -34.4311 H   0  0  0  0  0  0  0  0  0  0  0  0
   -7.3221   20.3499  -32.3108 H   0  0  0  0  0  0  0  0  0  0  0  0
  1  2  2  0
  2  3  1  0
  3  4  1  0
  4  5  1  0
  5  6  2  0
  5  7  1  0
  7  8  1  0
  8  9  1  0
  9 10  1  0
  9 11  2  0
  8 12  2  0
 12 13  1  0
 13 14  2  0
 14 15  1  0
 15 16  2  0
 16 17  1  0
 17 18  1  0
 17 19  1  0
 16 20  1  0
 20 21  2  0
 21  7  1  0
 21 13  1  0
  1 22  1  0
  1 23  1  0
  2 24  1  0
  3 25  1  0
  3 26  1  0
 10 27  1  0
 10 28  1  0
 12 29  1  0
 14 30  1  0
 15 31  1  0
 17 32  1  0
 20 33  1  0
M  END
>  <UniqueID>  (78) 
77

>  <SMILES>  (78) 
C=CCOC(=O)n1c(C(N)=O)cc2ccc(C(F)F)cc21

>  <Energy>  (78) 
67.70525141336363

>  <Genealogy>  (78) 
C=CCOC(=O)n1c(C(N)=O)cc2ccc(C(F)F)cc21 (3D coordinates assigned)
C=CCOC(=O)n1c(C(N)=O)cc2ccc(C(F)F)cc21 (optimized conformer: 67.70525141336363 kcal/mol)

>  <smiles>  (78) 
C=CCOC(=O)n1c(C(N)=O)cc2ccc(C(F)F)cc21

>  <score_type>  (78) 
oracle

>  <origin>  (78) 
adg

>  <m_score__min__energy>  (78) 
-7.7800000000000002

>  <m_primary>  (78) 
energy

$$$$
78:0
     RDKit          3D

 45 47  0  0  0  0  0  0  0  0999 V2000
   -4.5910   14.2160  -31.9790 C   0  0  0  0  0  0  0  0  0  0  0  0
   -4.9650   14.0560  -33.7180 S   0  0  0  0  0  0  0  0  0  0  0  0
   -3.7180   13.6370  -34.4470 O   0  0  0  0  0  0  0  0  0  0  0  0
   -6.0090   12.9880  -33.8930 O   0  0  0  0  0  0  0  0  0  0  0  0
   -5.5600   15.5570  -34.3920 N   0  0  0  0  0  0  0  0  0  0  0  0
   -6.8980   15.9060  -33.8550 C   0  0  0  0  0  0  0  0  0  0  0  0
   -6.8700   17.0540  -32.8310 C   0  0  0  0  0  0  0  0  0  0  0  0
   -6.1700   18.2250  -33.3810 N   0  0  0  0  0  0  0  0  0  0  0  0
   -6.4390   19.5530  -32.8730 C   0  0  0  0  0  0  0  0  0  0  0  0
   -7.7710   20.0560  -32.8310 C   0  0  0  0  0  0  0  0  0  0  0  0
   -8.0420   21.3380  -32.3260 C   0  0  0  0  0  0  0  0  0  0  0  0
   -6.9750   22.0940  -31.8550 C   0  0  0  0  0  0  0  0  0  0  0  0
   -6.9560   23.3640  -31.3220 C   0  0  0  0  0  0  0  0  0  0  0  0
   -5.6190   23.6180  -31.0190 C   0  0  0  0  0  0  0  0  0  0  0  0
   -5.1550   24.8520  -30.3510 C   0  0  0  0  0  0  0  0  0  0  0  0
   -3.8060   25.2920  -30.4780 N   0  0  0  0  0  0  0  0  0  0  0  0
   -5.9520   25.5090  -29.6280 O   0  0  0  0  0  0  0  0  0  0  0  0
   -4.8410   22.5490  -31.3570 N   0  0  0  0  0  0  0  0  0  0  0  0
   -3.4110   22.4450  -31.2610 C   0  0  0  0  0  0  0  0  0  0  0  0
   -2.7200   22.3390  -32.3110 O   0  0  0  0  0  0  0  0  0  0  0  0
   -2.7210   22.4650  -29.9280 C   0  0  0  0  0  0  0  0  0  0  0  0
   -1.8100   23.5290  -29.8670 O   0  0  0  0  0  0  0  0  0  0  0  0
   -5.6860   21.6270  -31.8690 C   0  0  0  0  0  0  0  0  0  0  0  0
   -5.3810   20.3670  -32.3980 C   0  0  0  0  0  0  0  0  0  0  0  0
   -5.1460   18.0160  -34.4130 C   0  0  0  0  0  0  0  0  0  0  0  0
   -4.5360   16.6170  -34.2670 C   0  0  0  0  0  0  0  0  0  0  0  0
   -5.4427   13.8517  -31.3858 H   0  0  0  0  0  0  0  0  0  0  0  0
   -3.6967   13.6217  -31.7401 H   0  0  0  0  0  0  0  0  0  0  0  0
   -4.4033   15.2732  -31.7401 H   0  0  0  0  0  0  0  0  0  0  0  0
   -7.5428   16.2046  -34.6947 H   0  0  0  0  0  0  0  0  0  0  0  0
   -7.2780   15.0161  -33.3319 H   0  0  0  0  0  0  0  0  0  0  0  0
   -7.9023   17.3368  -32.5774 H   0  0  0  0  0  0  0  0  0  0  0  0
   -6.3357   16.7128  -31.9321 H   0  0  0  0  0  0  0  0  0  0  0  0
   -8.5985   19.4318  -33.1991 H   0  0  0  0  0  0  0  0  0  0  0  0
   -9.0686   21.7324  -32.3038 H   0  0  0  0  0  0  0  0  0  0  0  0
   -7.8137   24.0353  -31.1681 H   0  0  0  0  0  0  0  0  0  0  0  0
   -3.1250   24.7750  -31.0800 H   0  0  0  0  0  0  0  0  0  0  0  0
   -3.4716   22.5840  -29.1327 H   0  0  0  0  0  0  0  0  0  0  0  0
   -2.1757   21.5192  -29.7934 H   0  0  0  0  0  0  0  0  0  0  0  0
   -2.0150   24.1260  -30.6350 H   0  0  0  0  0  0  0  0  0  0  0  0
   -4.3396   20.0157  -32.4440 H   0  0  0  0  0  0  0  0  0  0  0  0
   -5.6058   18.1114  -35.4077 H   0  0  0  0  0  0  0  0  0  0  0  0
   -4.3541   18.7704  -34.2955 H   0  0  0  0  0  0  0  0  0  0  0  0
   -3.7784   16.4749  -35.0518 H   0  0  0  0  0  0  0  0  0  0  0  0
   -4.0861   16.5423  -33.2660 H   0  0  0  0  0  0  0  0  0  0  0  0
  1  2  1  0
  2  3  2  0
  2  4  2  0
  2  5  1  0
  5  6  1  0
  6  7  1  0
  7  8  1  0
  8  9  1  0
  9 10  2  0
 10 11  1  0
 11 12  2  0
 12 13  1  0
 13 14  2  0
 14 15  1  0
 15 16  1  0
 15 17  2  0
 14 18  1  0
 18 19  1  0
 19 20  2  0
 19 21  1  0
 21 22  1  0
 18 23  1  0
 23 24  2  0
  8 25  1  0
 25 26  1  0
 26  5  1  0
 24  9  1  0
 23 12  1  0
  1 27  1  0
  1 28  1  0
  1 29  1  0
  6 30  1  0
  6 31  1  0
  7 32  1  0
  7 33  1  0
 10 34  1  0
 11 35  1  0
 13 36  1  0
 16 37  1  0
 21 38  1  0
 21 39  1  0
 22 40  1  0
 24 41  1  0
 25 42  1  0
 25 43  1  0
 26 44  1  0
 26 45  1  0
M  CHG  1  16  -1
M  END
>  <UniqueID>  (79) 
78

>  <SMILES>  (79) 
CS(=O)(=O)N1CCN(c2ccc3cc(C([NH-])=O)n(C(=O)CO)c3c2)CC1

>  <Energy>  (79) 
89.22777734011831

>  <Genealogy>  (79) 
CS(=O)(=O)N1CCN(c2ccc3cc(C([NH-])=O)n(C(=O)CO)c3c2)CC1 (protonated)
CS(=O)(=O)N1CCN(c2ccc3cc(C([NH-])=O)n(C(=O)CO)c3c2)CC1 (3D coordinates assigned)
CS(=O)(=O)N1CCN(c2ccc3cc(C([NH-])=O)n(C(=O)CO)c3c2)CC1 (nonaromatic ring conformer: 89.22777734011831 kcal/mol)

>  <smiles>  (79) 
CS(=O)(=O)N1CCN(c2ccc3cc(C(N)=O)n(C(=O)CO)c3c2)CC1

>  <score_type>  (79) 
oracle

>  <origin>  (79) 
adg

>  <m_score__min__energy>  (79) 
-9.9199999999999999

>  <m_primary>  (79) 
energy

$$$$
79:0
     RDKit          3D

 42 43  0  0  0  0  0  0  0  0999 V2000
   -6.5150   17.7180  -31.5590 C   0  0  0  0  0  0  0  0  0  0  0  0
   -7.6960   18.1810  -32.4320 C   0  0  0  0  0  0  0  0  0  0  0  0
   -8.7650   18.8330  -31.5430 C   0  0  0  0  0  0  0  0  0  0  0  0
   -7.2700   19.1350  -33.4840 N   0  0  0  0  0  0  0  0  0  0  0  0
   -6.2470   20.1150  -33.0600 C   0  0  0  0  0  0  0  0  0  0  0  0
   -4.8460   19.8620  -33.6550 C   0  0  0  0  0  0  0  0  0  0  0  0
   -3.7460   20.4260  -32.7930 C   0  0  0  0  0  0  0  0  0  0  0  0
   -2.4860   19.7770  -32.7240 C   0  0  0  0  0  0  0  0  0  0  0  0
   -1.4470   20.3110  -31.9440 C   0  0  0  0  0  0  0  0  0  0  0  0
   -1.6930   21.4920  -31.2500 C   0  0  0  0  0  0  0  0  0  0  0  0
   -0.8730   22.2250  -30.4190 C   0  0  0  0  0  0  0  0  0  0  0  0
   -1.6430   23.3130  -30.0070 C   0  0  0  0  0  0  0  0  0  0  0  0
   -1.1320   24.3990  -29.1440 C   0  0  0  0  0  0  0  0  0  0  0  0
   -1.8760   25.6000  -28.9590 N   0  0  0  0  0  0  0  0  0  0  0  0
   -0.0130   24.2750  -28.5800 O   0  0  0  0  0  0  0  0  0  0  0  0
   -2.8880   23.2480  -30.5550 N   0  0  0  0  0  0  0  0  0  0  0  0
   -3.9920   24.1410  -30.3580 C   0  0  0  0  0  0  0  0  0  0  0  0
   -3.9450   25.3020  -30.8470 O   0  0  0  0  0  0  0  0  0  0  0  0
   -5.2430   23.6800  -29.6730 C   0  0  0  0  0  0  0  0  0  0  0  0
   -5.9660   22.8800  -30.5380 F   0  0  0  0  0  0  0  0  0  0  0  0
   -4.9390   22.9510  -28.5370 F   0  0  0  0  0  0  0  0  0  0  0  0
   -6.0110   24.7730  -29.3160 F   0  0  0  0  0  0  0  0  0  0  0  0
   -2.9020   22.1340  -31.3150 C   0  0  0  0  0  0  0  0  0  0  0  0
   -3.9570   21.6250  -32.0760 C   0  0  0  0  0  0  0  0  0  0  0  0
   -6.7812   17.8224  -30.4968 H   0  0  0  0  0  0  0  0  0  0  0  0
   -6.2879   16.6643  -31.7783 H   0  0  0  0  0  0  0  0  0  0  0  0
   -5.6323   18.3366  -31.7783 H   0  0  0  0  0  0  0  0  0  0  0  0
   -8.1095   17.2949  -32.9358 H   0  0  0  0  0  0  0  0  0  0  0  0
   -8.5077   18.6761  -30.4851 H   0  0  0  0  0  0  0  0  0  0  0  0
   -8.8089   19.9118  -31.7535 H   0  0  0  0  0  0  0  0  0  0  0  0
   -9.7442   18.3782  -31.7535 H   0  0  0  0  0  0  0  0  0  0  0  0
   -6.9060   18.6090  -34.3120 H   0  0  0  0  0  0  0  0  0  0  0  0
   -8.1070   19.6700  -33.8160 H   0  0  0  0  0  0  0  0  0  0  0  0
   -6.5785   21.1166  -33.3711 H   0  0  0  0  0  0  0  0  0  0  0  0
   -6.1496   20.0191  -31.9685 H   0  0  0  0  0  0  0  0  0  0  0  0
   -4.6953   18.7770  -33.7552 H   0  0  0  0  0  0  0  0  0  0  0  0
   -4.7997   20.3669  -34.6312 H   0  0  0  0  0  0  0  0  0  0  0  0
   -2.3213   18.8464  -33.2869 H   0  0  0  0  0  0  0  0  0  0  0  0
   -0.4690   19.8111  -31.8836 H   0  0  0  0  0  0  0  0  0  0  0  0
    0.1670   22.0000  -30.1401 H   0  0  0  0  0  0  0  0  0  0  0  0
   -2.8620   25.6780  -29.2950 H   0  0  0  0  0  0  0  0  0  0  0  0
   -4.9262   22.1438  -32.1160 H   0  0  0  0  0  0  0  0  0  0  0  0
  1  2  1  0
  2  3  1  0
  2  4  1  0
  4  5  1  0
  5  6  1  0
  6  7  1  0
  7  8  2  0
  8  9  1  0
  9 10  2  0
 10 11  1  0
 11 12  2  0
 12 13  1  0
 13 14  1  0
 13 15  2  0
 12 16  1  0
 16 17  1  0
 17 18  2  0
 17 19  1  0
 19 20  1  0
 19 21  1  0
 19 22  1  0
 16 23  1  0
 23 24  2  0
 24  7  1  0
 23 10  1  0
  1 25  1  0
  1 26  1  0
  1 27  1  0
  2 28  1  0
  3 29  1  0
  3 30  1  0
  3 31  1  0
  4 32  1  0
  4 33  1  0
  5 34  1  0
  5 35  1  0
  6 36  1  0
  6 37  1  0
  8 38  1  0
  9 39  1  0
 11 40  1  0
 14 41  1  0
 24 42  1  0
M  CHG  2   4   1  14  -1
M  END
>  <UniqueID>  (80) 
79

>  <SMILES>  (80) 
CC(C)[NH2+]CCc1ccc2cc(C([NH-])=O)n(C(=O)C(F)(F)F)c2c1

>  <Energy>  (80) 
78.70316747349841

>  <Genealogy>  (80) 
CC(C)[NH2+]CCc1ccc2cc(C([NH-])=O)n(C(=O)C(F)(F)F)c2c1 (protonated)
CC(C)[NH2+]CCc1ccc2cc(C([NH-])=O)n(C(=O)C(F)(F)F)c2c1 (3D coordinates assigned)
CC(C)[NH2+]CCc1ccc2cc(C([NH-])=O)n(C(=O)C(F)(F)F)c2c1 (optimized conformer: 78.70316747349841 kcal/mol)

>  <smiles>  (80) 
CC(C)NCCc1ccc2cc(C(N)=O)n(C(=O)C(F)(F)F)c2c1

>  <score_type>  (80) 
oracle

>  <origin>  (80) 
adg

>  <m_score__min__energy>  (80) 
-9.7799999999999994

>  <m_primary>  (80) 
energy

$$$$
80:0
     RDKit          3D

 56 57  0  0  0  0  0  0  0  0999 V2000
   -6.0490   19.1710  -34.5290 C   0  0  0  0  0  0  0  0  0  0  0  0
   -6.0620   17.7020  -34.6470 N   0  0  0  0  0  0  0  0  0  0  0  0
   -4.6770   17.2070  -34.7030 C   0  0  0  0  0  0  0  0  0  0  0  0
   -6.7810   17.0890  -33.5100 C   0  0  0  0  0  0  0  0  0  0  0  0
   -6.5880   17.9210  -32.2350 C   0  0  0  0  0  0  0  0  0  0  0  0
   -7.7800   18.7480  -31.9790 N   0  0  0  0  0  0  0  0  0  0  0  0
   -9.0870   18.0760  -31.9560 C   0  0  0  0  0  0  0  0  0  0  0  0
   -7.6770   20.1740  -31.6930 C   0  0  0  0  0  0  0  0  0  0  0  0
   -8.8510   20.9620  -31.4930 C   0  0  0  0  0  0  0  0  0  0  0  0
   -8.7670   22.3290  -31.1790 C   0  0  0  0  0  0  0  0  0  0  0  0
   -7.5060   22.9000  -31.0800 C   0  0  0  0  0  0  0  0  0  0  0  0
   -7.1380   24.1880  -30.7590 C   0  0  0  0  0  0  0  0  0  0  0  0
   -5.7440   24.1930  -30.7970 C   0  0  0  0  0  0  0  0  0  0  0  0
   -4.9240   25.4050  -30.5830 C   0  0  0  0  0  0  0  0  0  0  0  0
   -3.5070   25.2910  -30.4690 N   0  0  0  0  0  0  0  0  0  0  0  0
   -5.4630   26.5370  -30.4730 O   0  0  0  0  0  0  0  0  0  0  0  0
   -5.2740   22.9580  -31.1260 N   0  0  0  0  0  0  0  0  0  0  0  0
   -3.9100   22.5330  -31.2530 C   0  0  0  0  0  0  0  0  0  0  0  0
   -3.4540   22.2060  -32.3820 O   0  0  0  0  0  0  0  0  0  0  0  0
   -3.0890   22.5060  -30.1210 O   0  0  0  0  0  0  0  0  0  0  0  0
   -3.2840   21.5920  -29.0480 C   0  0  0  0  0  0  0  0  0  0  0  0
   -3.5450   22.3780  -27.7570 C   0  0  0  0  0  0  0  0  0  0  0  0
   -3.3780   23.8410  -27.9370 N   0  0  0  0  0  0  0  0  0  0  0  0
   -1.9670   24.2140  -27.7390 C   0  0  0  0  0  0  0  0  0  0  0  0
   -4.2230   24.6020  -26.9980 C   0  0  0  0  0  0  0  0  0  0  0  0
   -6.3640   22.1790  -31.2950 C   0  0  0  0  0  0  0  0  0  0  0  0
   -6.4120   20.8130  -31.5880 C   0  0  0  0  0  0  0  0  0  0  0  0
   -6.0465   19.4534  -33.4659 H   0  0  0  0  0  0  0  0  0  0  0  0
   -5.1473   19.5700  -35.0165 H   0  0  0  0  0  0  0  0  0  0  0  0
   -6.9435   19.5859  -35.0165 H   0  0  0  0  0  0  0  0  0  0  0  0
   -4.2948   17.0704  -33.6806 H   0  0  0  0  0  0  0  0  0  0  0  0
   -4.6528   16.2446  -35.2351 H   0  0  0  0  0  0  0  0  0  0  0  0
   -4.0483   17.9361  -35.2351 H   0  0  0  0  0  0  0  0  0  0  0  0
   -7.8537   17.0356  -33.7475 H   0  0  0  0  0  0  0  0  0  0  0  0
   -6.3776   16.0801  -33.3387 H   0  0  0  0  0  0  0  0  0  0  0  0
   -6.4249   17.2456  -31.3822 H   0  0  0  0  0  0  0  0  0  0  0  0
   -5.7168   18.5797  -32.3660 H   0  0  0  0  0  0  0  0  0  0  0  0
   -9.3986   17.9158  -30.9133 H   0  0  0  0  0  0  0  0  0  0  0  0
   -9.8309   18.7034  -32.4687 H   0  0  0  0  0  0  0  0  0  0  0  0
   -9.0096   17.1059  -32.4687 H   0  0  0  0  0  0  0  0  0  0  0  0
   -9.8401   20.4898  -31.5865 H   0  0  0  0  0  0  0  0  0  0  0  0
   -9.6744   22.9292  -31.0164 H   0  0  0  0  0  0  0  0  0  0  0  0
   -7.8021   25.0325  -30.5230 H   0  0  0  0  0  0  0  0  0  0  0  0
   -2.9910   24.5220  -30.9500 H   0  0  0  0  0  0  0  0  0  0  0  0
   -4.1475   20.9467  -29.2668 H   0  0  0  0  0  0  0  0  0  0  0  0
   -2.3861   20.9685  -28.9259 H   0  0  0  0  0  0  0  0  0  0  0  0
   -4.5747   22.1790  -27.4253 H   0  0  0  0  0  0  0  0  0  0  0  0
   -2.8077   22.0475  -27.0106 H   0  0  0  0  0  0  0  0  0  0  0  0
   -3.6430   24.1070  -28.9160 H   0  0  0  0  0  0  0  0  0  0  0  0
   -1.7505   24.2712  -26.6620 H   0  0  0  0  0  0  0  0  0  0  0  0
   -1.3188   23.4564  -28.2035 H   0  0  0  0  0  0  0  0  0  0  0  0
   -1.7779   25.1930  -28.2035 H   0  0  0  0  0  0  0  0  0  0  0  0
   -3.9424   24.3493  -25.9648 H   0  0  0  0  0  0  0  0  0  0  0  0
   -4.0774   25.6795  -27.1644 H   0  0  0  0  0  0  0  0  0  0  0  0
   -5.2795   24.3448  -27.1644 H   0  0  0  0  0  0  0  0  0  0  0  0
   -5.4840   20.2410  -31.7352 H   0  0  0  0  0  0  0  0  0  0  0  0
  1  2  1  0
  2  3  1  0
  2  4  1  0
  4  5  1  0
  5  6  1  0
  6  7  1  0
  6  8  1  0
  8  9  2  0
  9 10  1  0
 10 11  2  0
 11 12  1  0
 12 13  2  0
 13 14  1  0
 14 15  1  0
 14 16  2  0
 13 17  1  0
 17 18  1  0
 18 19  2  0
 18 20  1  0
 20 21  1  0
 21 22  1  0
 22 23  1  0
 23 24  1  0
 23 25  1  0
 17 26  1  0
 26 27  2  0
 27  8  1  0
 26 11  1  0
  1 28  1  0
  1 29  1  0
  1 30  1  0
  3 31  1  0
  3 32  1  0
  3 33  1  0
  4 34  1  0
  4 35  1  0
  5 36  1  0
  5 37  1  0
  7 38  1  0
  7 39  1  0
  7 40  1  0
  9 41  1  0
 10 42  1  0
 12 43  1  0
 15 44  1  0
 21 45  1  0
 21 46  1  0
 22 47  1  0
 22 48  1  0
 23 49  1  0
 24 50  1  0
 24 51  1  0
 24 52  1  0
 25 53  1  0
 25 54  1  0
 25 55  1  0
 27 56  1  0
M  CHG  2  15  -1  23   1
M  END
>  <UniqueID>  (81) 
80

>  <SMILES>  (81) 
CN(C)CCN(C)c1ccc2cc(C([NH-])=O)n(C(=O)OCC[NH+](C)C)c2c1

>  <Energy>  (81) 
90.09254809358758

>  <Genealogy>  (81) 
CN(C)CCN(C)c1ccc2cc(C([NH-])=O)n(C(=O)OCC[NH+](C)C)c2c1 (protonated)
CN(C)CCN(C)c1ccc2cc(C([NH-])=O)n(C(=O)OCC[NH+](C)C)c2c1 (3D coordinates assigned)
CN(C)CCN(C)c1ccc2cc(C([NH-])=O)n(C(=O)OCC[NH+](C)C)c2c1 (optimized conformer: 90.09254809358758 kcal/mol)

>  <smiles>  (81) 
CN(C)CCOC(=O)n1c(C(N)=O)cc2ccc(N(C)CCN(C)C)cc21

>  <score_type>  (81) 
oracle

>  <origin>  (81) 
adg

>  <m_score__min__energy>  (81) 
-9.0700000000000003

>  <m_primary>  (81) 
energy

$$$$
81:0
     RDKit          3D

 35 36  0  0  0  0  0  0  0  0999 V2000
   -8.7760   19.4750  -31.3140 C   0  0  0  0  0  0  0  0  0  0  0  0
   -9.2460   20.4980  -32.3450 C   0  0  0  0  0  0  0  0  0  0  0  0
   -9.3500   21.9060  -31.7460 C   0  0  0  0  0  0  0  0  0  0  0  0
   -8.1520   22.6490  -31.9630 O   0  0  0  0  0  0  0  0  0  0  0  0
   -7.1300   22.7610  -31.0130 C   0  0  0  0  0  0  0  0  0  0  0  0
   -7.4030   23.0450  -29.8150 O   0  0  0  0  0  0  0  0  0  0  0  0
   -5.7650   22.5520  -31.4070 N   0  0  0  0  0  0  0  0  0  0  0  0
   -4.6770   23.2890  -31.0480 C   0  0  0  0  0  0  0  0  0  0  0  0
   -4.7040   24.5620  -30.2990 C   0  0  0  0  0  0  0  0  0  0  0  0
   -5.2910   24.6420  -28.9990 N   0  0  0  0  0  0  0  0  0  0  0  0
   -4.2510   25.6060  -30.8370 O   0  0  0  0  0  0  0  0  0  0  0  0
   -3.5080   22.7080  -31.5310 C   0  0  0  0  0  0  0  0  0  0  0  0
   -3.9170   21.5890  -32.2190 C   0  0  0  0  0  0  0  0  0  0  0  0
   -3.1660   20.6260  -32.8850 C   0  0  0  0  0  0  0  0  0  0  0  0
   -3.8490   19.5490  -33.4730 C   0  0  0  0  0  0  0  0  0  0  0  0
   -5.2630   19.4560  -33.3960 C   0  0  0  0  0  0  0  0  0  0  0  0
   -5.9770   18.2620  -33.9760 C   0  0  0  0  0  0  0  0  0  0  0  0
   -7.2500   18.1480  -33.4440 F   0  0  0  0  0  0  0  0  0  0  0  0
   -6.0920   18.3810  -35.3500 F   0  0  0  0  0  0  0  0  0  0  0  0
   -5.2620   17.1160  -33.6810 F   0  0  0  0  0  0  0  0  0  0  0  0
   -5.9880   20.4420  -32.6870 C   0  0  0  0  0  0  0  0  0  0  0  0
   -5.2840   21.5160  -32.1290 C   0  0  0  0  0  0  0  0  0  0  0  0
   -8.9555   19.8658  -30.3015 H   0  0  0  0  0  0  0  0  0  0  0  0
   -9.3330   18.5361  -31.4488 H   0  0  0  0  0  0  0  0  0  0  0  0
   -7.7008   19.2860  -31.4488 H   0  0  0  0  0  0  0  0  0  0  0  0
   -8.5288   20.5181  -33.1788 H   0  0  0  0  0  0  0  0  0  0  0  0
  -10.2467   20.1993  -32.6905 H   0  0  0  0  0  0  0  0  0  0  0  0
  -10.1909   22.4354  -32.2179 H   0  0  0  0  0  0  0  0  0  0  0  0
   -9.5099   21.8121  -30.6617 H   0  0  0  0  0  0  0  0  0  0  0  0
   -5.2620   25.5400  -28.4660 H   0  0  0  0  0  0  0  0  0  0  0  0
   -5.8290   23.8430  -28.5980 H   0  0  0  0  0  0  0  0  0  0  0  0
   -2.4775   23.0668  -31.3923 H   0  0  0  0  0  0  0  0  0  0  0  0
   -2.0708   20.7056  -32.9491 H   0  0  0  0  0  0  0  0  0  0  0  0
   -3.2810   18.7680  -33.9997 H   0  0  0  0  0  0  0  0  0  0  0  0
   -7.0799   20.3668  -32.5765 H   0  0  0  0  0  0  0  0  0  0  0  0
  1  2  1  0
  2  3  1  0
  3  4  1  0
  4  5  1  0
  5  6  2  0
  5  7  1  0
  7  8  1  0
  8  9  1  0
  9 10  1  0
  9 11  2  0
  8 12  2  0
 12 13  1  0
 13 14  2  0
 14 15  1  0
 15 16  2  0
 16 17  1  0
 17 18  1  0
 17 19  1  0
 17 20  1  0
 16 21  1  0
 21 22  2  0
 22  7  1  0
 22 13  1  0
  1 23  1  0
  1 24  1  0
  1 25  1  0
  2 26  1  0
  2 27  1  0
  3 28  1  0
  3 29  1  0
 10 30  1  0
 10 31  1  0
 12 32  1  0
 14 33  1  0
 15 34  1  0
 21 35  1  0
M  END
>  <UniqueID>  (82) 
81

>  <SMILES>  (82) 
CCCOC(=O)n1c(C(N)=O)cc2ccc(C(F)(F)F)cc21

>  <Energy>  (82) 
68.76657026640815

>  <Genealogy>  (82) 
CCCOC(=O)n1c(C(N)=O)cc2ccc(C(F)(F)F)cc21 (3D coordinates assigned)
CCCOC(=O)n1c(C(N)=O)cc2ccc(C(F)(F)F)cc21 (optimized conformer: 68.76657026640815 kcal/mol)

>  <smiles>  (82) 
CCCOC(=O)n1c(C(N)=O)cc2ccc(C(F)(F)F)cc21

>  <score_type>  (82) 
oracle

>  <origin>  (82) 
adg

>  <m_score__min__energy>  (82) 
-7.4900000000000002

>  <m_primary>  (82) 
energy

$$$$
82:0
     RDKit          3D

 47 50  0  0  0  0  0  0  0  0999 V2000
   -9.0400   19.7030  -33.3270 N   0  0  0  0  0  0  0  0  0  0  0  0
   -9.1870   20.8410  -32.4760 C   0  0  0  0  0  0  0  0  0  0  0  0
  -10.3450   21.2630  -32.2120 O   0  0  0  0  0  0  0  0  0  0  0  0
   -8.0020   21.5400  -31.9300 C   0  0  0  0  0  0  0  0  0  0  0  0
   -7.9550   22.9050  -31.6430 C   0  0  0  0  0  0  0  0  0  0  0  0
   -6.7220   23.1140  -31.0660 C   0  0  0  0  0  0  0  0  0  0  0  0
   -6.1450   24.2820  -30.5780 C   0  0  0  0  0  0  0  0  0  0  0  0
   -4.8520   24.2020  -30.0340 C   0  0  0  0  0  0  0  0  0  0  0  0
   -4.1560   22.9640  -29.9960 C   0  0  0  0  0  0  0  0  0  0  0  0
   -2.7940   22.8920  -29.4150 C   0  0  0  0  0  0  0  0  0  0  0  0
   -2.2230   21.6410  -29.1140 C   0  0  0  0  0  0  0  0  0  0  0  0
   -0.9340   21.5620  -28.5800 C   0  0  0  0  0  0  0  0  0  0  0  0
   -0.2030   22.7270  -28.3360 C   0  0  0  0  0  0  0  0  0  0  0  0
    1.0470   22.6470  -27.8170 F   0  0  0  0  0  0  0  0  0  0  0  0
   -0.7620   23.9750  -28.6230 C   0  0  0  0  0  0  0  0  0  0  0  0
   -2.0510   24.0630  -29.1580 C   0  0  0  0  0  0  0  0  0  0  0  0
   -2.5820   25.2900  -29.3950 F   0  0  0  0  0  0  0  0  0  0  0  0
   -4.7810   21.7990  -30.4960 C   0  0  0  0  0  0  0  0  0  0  0  0
   -6.0720   21.9090  -31.0190 C   0  0  0  0  0  0  0  0  0  0  0  0
   -6.8430   20.9360  -31.5470 N   0  0  0  0  0  0  0  0  0  0  0  0
   -6.4650   19.5620  -31.7110 C   0  0  0  0  0  0  0  0  0  0  0  0
   -7.3350   18.6610  -31.5610 O   0  0  0  0  0  0  0  0  0  0  0  0
   -5.0180   19.1930  -31.9010 C   0  0  0  0  0  0  0  0  0  0  0  0
   -4.4930   19.6520  -33.2370 C   0  0  0  0  0  0  0  0  0  0  0  0
   -5.3010   19.6900  -34.2050 O   0  0  0  0  0  0  0  0  0  0  0  0
   -3.0660   20.0270  -33.4580 C   0  0  0  0  0  0  0  0  0  0  0  0
   -2.5180   21.2130  -32.9260 C   0  0  0  0  0  0  0  0  0  0  0  0
   -1.1740   21.5350  -33.1430 C   0  0  0  0  0  0  0  0  0  0  0  0
   -0.3590   20.6840  -33.8890 C   0  0  0  0  0  0  0  0  0  0  0  0
   -0.8850   19.5060  -34.4220 C   0  0  0  0  0  0  0  0  0  0  0  0
   -0.0890   18.6750  -35.1420 F   0  0  0  0  0  0  0  0  0  0  0  0
   -2.2280   19.1780  -34.2100 C   0  0  0  0  0  0  0  0  0  0  0  0
   -9.8840   19.2430  -33.7350 H   0  0  0  0  0  0  0  0  0  0  0  0
   -8.1040   19.2830  -33.5190 H   0  0  0  0  0  0  0  0  0  0  0  0
   -8.7365   23.6545  -31.8365 H   0  0  0  0  0  0  0  0  0  0  0  0
   -6.6849   25.2396  -30.6169 H   0  0  0  0  0  0  0  0  0  0  0  0
   -4.3734   25.1077  -29.6332 H   0  0  0  0  0  0  0  0  0  0  0  0
   -2.7949   20.7200  -29.3003 H   0  0  0  0  0  0  0  0  0  0  0  0
   -0.4940   20.5801  -28.3513 H   0  0  0  0  0  0  0  0  0  0  0  0
   -0.1861   24.8915  -28.4274 H   0  0  0  0  0  0  0  0  0  0  0  0
   -4.2633   20.8287  -30.4739 H   0  0  0  0  0  0  0  0  0  0  0  0
   -4.4232   19.6635  -31.1042 H   0  0  0  0  0  0  0  0  0  0  0  0
   -4.9371   18.0967  -31.8607 H   0  0  0  0  0  0  0  0  0  0  0  0
   -3.1527   21.8902  -32.3356 H   0  0  0  0  0  0  0  0  0  0  0  0
   -0.7584   22.4631  -32.7236 H   0  0  0  0  0  0  0  0  0  0  0  0
    0.6973   20.9408  -34.0572 H   0  0  0  0  0  0  0  0  0  0  0  0
   -2.6348   18.2482  -34.6342 H   0  0  0  0  0  0  0  0  0  0  0  0
  1  2  1  0
  2  3  2  0
  2  4  1  0
  4  5  2  0
  5  6  1  0
  6  7  2  0
  7  8  1  0
  8  9  2  0
  9 10  1  0
 10 11  2  0
 11 12  1  0
 12 13  2  0
 13 14  1  0
 13 15  1  0
 15 16  2  0
 16 17  1  0
  9 18  1  0
 18 19  2  0
 19 20  1  0
 20 21  1  0
 21 22  2  0
 21 23  1  0
 23 24  1  0
 24 25  2  0
 24 26  1  0
 26 27  2  0
 27 28  1  0
 28 29  2  0
 29 30  1  0
 30 31  1  0
 30 32  2  0
 20  4  1  0
 32 26  1  0
 19  6  1  0
 16 10  1  0
  1 33  1  0
  1 34  1  0
  5 35  1  0
  7 36  1  0
  8 37  1  0
 11 38  1  0
 12 39  1  0
 15 40  1  0
 18 41  1  0
 23 42  1  0
 23 43  1  0
 27 44  1  0
 28 45  1  0
 29 46  1  0
 32 47  1  0
M  END
>  <UniqueID>  (83) 
82

>  <SMILES>  (83) 
NC(=O)c1cc2ccc(-c3ccc(F)cc3F)cc2n1C(=O)CC(=O)c1cccc(F)c1

>  <Energy>  (83) 
99.40432252907995

>  <Genealogy>  (83) 
NC(=O)c1cc2ccc(-c3ccc(F)cc3F)cc2n1C(=O)CC(=O)c1cccc(F)c1 (3D coordinates assigned)
NC(=O)c1cc2ccc(-c3ccc(F)cc3F)cc2n1C(=O)CC(=O)c1cccc(F)c1 (optimized conformer: 99.40432252907995 kcal/mol)

>  <smiles>  (83) 
NC(=O)c1cc2ccc(-c3ccc(F)cc3F)cc2n1C(=O)CC(=O)c1cccc(F)c1

>  <score_type>  (83) 
oracle

>  <origin>  (83) 
adg

>  <m_score__min__energy>  (83) 
-11.08

>  <m_primary>  (83) 
energy

$$$$
83:0
     RDKit          3D

 38 40  0  0  0  0  0  0  0  0999 V2000
   -5.4540   25.2910  -28.7700 N   0  0  0  0  0  0  0  0  0  0  0  0
   -6.4440   24.8860  -29.7170 C   0  0  0  0  0  0  0  0  0  0  0  0
   -7.5530   25.4840  -29.7440 O   0  0  0  0  0  0  0  0  0  0  0  0
   -6.2170   23.7370  -30.6160 C   0  0  0  0  0  0  0  0  0  0  0  0
   -7.2480   22.9770  -31.1600 C   0  0  0  0  0  0  0  0  0  0  0  0
   -6.6260   21.9780  -31.8710 C   0  0  0  0  0  0  0  0  0  0  0  0
   -7.1740   20.9400  -32.6190 C   0  0  0  0  0  0  0  0  0  0  0  0
   -6.2930   20.0670  -33.2780 C   0  0  0  0  0  0  0  0  0  0  0  0
   -4.8920   20.2570  -33.1940 C   0  0  0  0  0  0  0  0  0  0  0  0
   -3.9580   19.3000  -33.8850 C   0  0  0  0  0  0  0  0  0  0  0  0
   -2.5220   19.4850  -33.3790 C   0  0  0  0  0  0  0  0  0  0  0  0
   -1.8230   20.5200  -34.1650 N   0  0  0  0  0  0  0  0  0  0  0  0
   -0.8200   21.3420  -33.4470 C   0  0  0  0  0  0  0  0  0  0  0  0
   -0.7470   21.0890  -31.9550 C   0  0  0  0  0  0  0  0  0  0  0  0
    0.5820   20.6260  -32.0330 O   0  0  0  0  0  0  0  0  0  0  0  0
    0.6160   20.8500  -33.4240 C   0  0  0  0  0  0  0  0  0  0  0  0
   -4.3710   21.3160  -32.4170 C   0  0  0  0  0  0  0  0  0  0  0  0
   -5.2710   22.1590  -31.7530 C   0  0  0  0  0  0  0  0  0  0  0  0
   -5.0030   23.2400  -30.9860 N   0  0  0  0  0  0  0  0  0  0  0  0
   -3.7110   23.8160  -30.7260 C   0  0  0  0  0  0  0  0  0  0  0  0
   -2.6790   23.0940  -30.7180 O   0  0  0  0  0  0  0  0  0  0  0  0
   -3.5860   25.1790  -30.4870 O   0  0  0  0  0  0  0  0  0  0  0  0
   -4.5970   24.7170  -28.6080 H   0  0  0  0  0  0  0  0  0  0  0  0
   -5.6170   26.1280  -28.1670 H   0  0  0  0  0  0  0  0  0  0  0  0
   -8.3297   23.1406  -31.0456 H   0  0  0  0  0  0  0  0  0  0  0  0
   -8.2636   20.8075  -32.6918 H   0  0  0  0  0  0  0  0  0  0  0  0
   -6.6948   19.2279  -33.8648 H   0  0  0  0  0  0  0  0  0  0  0  0
   -4.2825   18.2687  -33.6822 H   0  0  0  0  0  0  0  0  0  0  0  0
   -3.9811   19.5012  -34.9662 H   0  0  0  0  0  0  0  0  0  0  0  0
   -2.5476   19.7895  -32.3223 H   0  0  0  0  0  0  0  0  0  0  0  0
   -1.9824   18.5326  -33.4879 H   0  0  0  0  0  0  0  0  0  0  0  0
   -2.5240   21.1840  -34.5680 H   0  0  0  0  0  0  0  0  0  0  0  0
   -1.1090   22.2939  -33.9164 H   0  0  0  0  0  0  0  0  0  0  0  0
   -0.8592   22.0005  -31.3495 H   0  0  0  0  0  0  0  0  0  0  0  0
   -1.5079   20.4486  -31.4850 H   0  0  0  0  0  0  0  0  0  0  0  0
    1.3468   21.6138  -33.7281 H   0  0  0  0  0  0  0  0  0  0  0  0
    0.9091   20.0258  -34.0909 H   0  0  0  0  0  0  0  0  0  0  0  0
   -3.2855   21.4744  -32.3357 H   0  0  0  0  0  0  0  0  0  0  0  0
  1  2  1  0
  2  3  2  0
  2  4  1  0
  4  5  2  0
  5  6  1  0
  6  7  2  0
  7  8  1  0
  8  9  2  0
  9 10  1  0
 10 11  1  0
 11 12  1  0
 12 13  1  0
 13 14  1  0
 14 15  1  0
 15 16  1  0
  9 17  1  0
 17 18  2  0
 18 19  1  0
 19 20  1  0
 20 21  2  0
 20 22  1  0
 19  4  1  0
 18  6  1  0
 16 13  1  0
  1 23  1  0
  1 24  1  0
  5 25  1  0
  7 26  1  0
  8 27  1  0
 10 28  1  0
 10 29  1  0
 11 30  1  0
 11 31  1  0
 12 32  1  0
 13 33  1  0
 14 34  1  0
 14 35  1  0
 16 36  1  0
 16 37  1  0
 17 38  1  0
M  CHG  1  22  -1
M  END
>  <UniqueID>  (84) 
83

>  <SMILES>  (84) 
NC(=O)c1cc2ccc(CCNC3COC3)cc2n1C(=O)[O-]

>  <Energy>  (84) 
148.21487014251946

>  <Genealogy>  (84) 
NC(=O)c1cc2ccc(CCNC3COC3)cc2n1C(=O)[O-] (protonated)
NC(=O)c1cc2ccc(CCNC3COC3)cc2n1C(=O)[O-] (3D coordinates assigned)
NC(=O)c1cc2ccc(CCNC3COC3)cc2n1C(=O)[O-] (nonaromatic ring conformer: 148.21487014251946 kcal/mol)

>  <smiles>  (84) 
NC(=O)c1cc2ccc(CCNC3COC3)cc2n1C(=O)O

>  <score_type>  (84) 
oracle

>  <origin>  (84) 
adg

>  <m_score__min__energy>  (84) 
-9.4100000000000001

>  <m_primary>  (84) 
energy

$$$$
84:0
     RDKit          3D

 38 40  0  0  0  0  0  0  0  0999 V2000
   -4.9840   17.7630  -34.8990 C   0  0  0  0  0  0  0  0  0  0  0  0
   -6.4280   17.8140  -34.6470 N   0  0  0  0  0  0  0  0  0  0  0  0
   -6.7140   18.1390  -33.2340 C   0  0  2  0  0  0  0  0  0  0  0  0
   -7.4490   19.4830  -33.1280 C   0  0  0  0  0  0  0  0  0  0  0  0
   -6.3810   20.5270  -32.8370 C   0  0  0  0  0  0  0  0  0  0  0  0
   -5.2320   19.7910  -32.3340 N   0  0  0  0  0  0  0  0  0  0  0  0
   -4.0510   20.4170  -31.7800 C   0  0  0  0  0  0  0  0  0  0  0  0
   -2.7910   19.7610  -31.8330 C   0  0  0  0  0  0  0  0  0  0  0  0
   -1.6370   20.3660  -31.3090 C   0  0  0  0  0  0  0  0  0  0  0  0
   -1.7660   21.6220  -30.7290 C   0  0  0  0  0  0  0  0  0  0  0  0
   -0.8090   22.4410  -30.1720 C   0  0  0  0  0  0  0  0  0  0  0  0
   -1.4940   23.5800  -29.7590 C   0  0  0  0  0  0  0  0  0  0  0  0
   -0.8520   24.6920  -29.0270 C   0  0  0  0  0  0  0  0  0  0  0  0
   -1.4930   25.9600  -28.9070 N   0  0  0  0  0  0  0  0  0  0  0  0
    0.2550   24.5050  -28.4550 O   0  0  0  0  0  0  0  0  0  0  0  0
   -2.8210   23.4760  -30.0570 N   0  0  0  0  0  0  0  0  0  0  0  0
   -3.8470   24.4640  -29.8730 C   0  0  0  0  0  0  0  0  0  0  0  0
   -4.7280   24.3100  -28.9880 O   0  0  0  0  0  0  0  0  0  0  0  0
   -3.8630   25.6130  -30.6560 O   0  0  0  0  0  0  0  0  0  0  0  0
   -2.9700   22.2680  -30.6470 C   0  0  0  0  0  0  0  0  0  0  0  0
   -4.1330   21.6990  -31.1790 C   0  0  0  0  0  0  0  0  0  0  0  0
   -5.4150   18.3500  -32.4400 C   0  0  0  0  0  0  0  0  0  0  0  0
   -4.4449   17.7440  -33.9403 H   0  0  0  0  0  0  0  0  0  0  0  0
   -4.7437   16.8558  -35.4728 H   0  0  0  0  0  0  0  0  0  0  0  0
   -4.6803   18.6510  -35.4728 H   0  0  0  0  0  0  0  0  0  0  0  0
   -6.7940   18.5840  -35.2550 H   0  0  0  0  0  0  0  0  0  0  0  0
   -7.3070   17.2997  -32.8417 H   0  0  0  0  0  0  0  0  0  0  0  0
   -7.9606   19.7138  -34.0740 H   0  0  0  0  0  0  0  0  0  0  0  0
   -8.2146   19.4608  -32.3385 H   0  0  0  0  0  0  0  0  0  0  0  0
   -6.1155   21.0695  -33.7563 H   0  0  0  0  0  0  0  0  0  0  0  0
   -6.7329   21.2734  -32.1097 H   0  0  0  0  0  0  0  0  0  0  0  0
   -2.7187   18.7638  -32.2917 H   0  0  0  0  0  0  0  0  0  0  0  0
   -0.6609   19.8610  -31.3563 H   0  0  0  0  0  0  0  0  0  0  0  0
    0.2677   22.2381  -30.0743 H   0  0  0  0  0  0  0  0  0  0  0  0
   -2.5310   26.0450  -28.9740 H   0  0  0  0  0  0  0  0  0  0  0  0
   -5.0920   22.2358  -31.1318 H   0  0  0  0  0  0  0  0  0  0  0  0
   -4.5655   17.8960  -32.9713 H   0  0  0  0  0  0  0  0  0  0  0  0
   -5.4715   17.8794  -31.4473 H   0  0  0  0  0  0  0  0  0  0  0  0
  1  2  1  0
  2  3  1  0
  3  4  1  0
  4  5  1  0
  5  6  1  0
  6  7  1  0
  7  8  2  0
  8  9  1  0
  9 10  2  0
 10 11  1  0
 11 12  2  0
 12 13  1  0
 13 14  1  0
 13 15  2  0
 12 16  1  0
 16 17  1  0
 17 18  2  0
 17 19  1  0
 16 20  1  0
 20 21  2  0
  6 22  1  0
 22  3  1  0
 21  7  1  0
 20 10  1  0
  1 23  1  0
  1 24  1  0
  1 25  1  0
  2 26  1  0
  3 27  1  1
  4 28  1  0
  4 29  1  0
  5 30  1  0
  5 31  1  0
  8 32  1  0
  9 33  1  0
 11 34  1  0
 14 35  1  0
 21 36  1  0
 22 37  1  0
 22 38  1  0
M  CHG  2  14  -1  19  -1
M  END
>  <UniqueID>  (85) 
84

>  <SMILES>  (85) 
CN[C@@H]1CCN(c2ccc3cc(C([NH-])=O)n(C(=O)[O-])c3c2)C1

>  <Energy>  (85) 
82.24841775648056

>  <Genealogy>  (85) 
CNC1CCN(c2ccc3cc(C([NH-])=O)n(C(=O)[O-])c3c2)C1 (protonated)
CN[C@@H]1CCN(c2ccc3cc(C([NH-])=O)n(C(=O)[O-])c3c2)C1 (chirality)
CN[C@@H]1CCN(c2ccc3cc(C([NH-])=O)n(C(=O)[O-])c3c2)C1 (3D coordinates assigned)
CN[C@@H]1CCN(c2ccc3cc(C([NH-])=O)n(C(=O)[O-])c3c2)C1 (nonaromatic ring conformer: 82.24841775648056 kcal/mol)

>  <smiles>  (85) 
CNC1CCN(c2ccc3cc(C(N)=O)n(C(=O)O)c3c2)C1

>  <score_type>  (85) 
oracle

>  <origin>  (85) 
adg

>  <m_score__min__energy>  (85) 
-11.460000000000001

>  <m_primary>  (85) 
energy

$$$$
85:0
     RDKit          3D

 39 41  0  0  0  0  0  0  0  0999 V2000
   -1.5900   25.6070  -27.9680 C   0  0  0  0  0  0  0  0  0  0  0  0
   -1.9380   24.9490  -29.1750 O   0  0  0  0  0  0  0  0  0  0  0  0
   -1.1700   23.9050  -29.6440 N   0  0  0  0  0  0  0  0  0  0  0  0
   -1.6820   22.7480  -29.9300 C   0  0  0  0  0  0  0  0  0  0  0  0
   -3.1510   22.4520  -29.7560 C   0  0  1  0  0  0  0  0  0  0  0  0
   -3.6500   23.2280  -28.6970 O   0  0  0  0  0  0  0  0  0  0  0  0
   -3.9060   22.7750  -31.0220 C   0  0  0  0  0  0  0  0  0  0  0  0
   -3.2710   22.9540  -32.0980 O   0  0  0  0  0  0  0  0  0  0  0  0
   -5.3400   22.8600  -31.0350 N   0  0  0  0  0  0  0  0  0  0  0  0
   -6.0980   23.9480  -30.7210 C   0  0  0  0  0  0  0  0  0  0  0  0
   -5.5940   25.2190  -30.1600 C   0  0  0  0  0  0  0  0  0  0  0  0
   -4.1950   25.5050  -30.1060 N   0  0  0  0  0  0  0  0  0  0  0  0
   -6.4100   26.0500  -29.6830 O   0  0  0  0  0  0  0  0  0  0  0  0
   -7.4410   23.7080  -30.9990 C   0  0  0  0  0  0  0  0  0  0  0  0
   -7.4840   22.4270  -31.5000 C   0  0  0  0  0  0  0  0  0  0  0  0
   -8.5650   21.6870  -31.9700 C   0  0  0  0  0  0  0  0  0  0  0  0
   -8.3100   20.4040  -32.4840 C   0  0  0  0  0  0  0  0  0  0  0  0
   -6.9890   19.8920  -32.5340 C   0  0  0  0  0  0  0  0  0  0  0  0
   -6.7390   18.5480  -33.0920 C   0  0  0  0  0  0  0  0  0  0  0  0
   -7.3680   17.4290  -32.6700 N   0  0  0  0  0  0  0  0  0  0  0  0
   -6.8390   16.4630  -33.4430 C   0  0  0  0  0  0  0  0  0  0  0  0
   -5.9170   17.0210  -34.2970 C   0  0  0  0  0  0  0  0  0  0  0  0
   -5.8790   18.3080  -34.0560 O   0  0  0  0  0  0  0  0  0  0  0  0
   -5.9170   20.6780  -32.0530 C   0  0  0  0  0  0  0  0  0  0  0  0
   -6.2030   21.9400  -31.5200 C   0  0  0  0  0  0  0  0  0  0  0  0
   -1.9127   24.9968  -27.1115 H   0  0  0  0  0  0  0  0  0  0  0  0
   -0.4997   25.7474  -27.9281 H   0  0  0  0  0  0  0  0  0  0  0  0
   -2.0876   26.5872  -27.9281 H   0  0  0  0  0  0  0  0  0  0  0  0
   -1.0223   21.9553  -30.3126 H   0  0  0  0  0  0  0  0  0  0  0  0
   -3.2822   21.3827  -29.5335 H   0  0  0  0  0  0  0  0  0  0  0  0
   -2.9360   23.8720  -28.4500 H   0  0  0  0  0  0  0  0  0  0  0  0
   -3.4840   24.7670  -30.3010 H   0  0  0  0  0  0  0  0  0  0  0  0
   -3.8640   26.4340  -29.7620 H   0  0  0  0  0  0  0  0  0  0  0  0
   -8.2868   24.3953  -30.8500 H   0  0  0  0  0  0  0  0  0  0  0  0
   -9.5867   22.0935  -31.9401 H   0  0  0  0  0  0  0  0  0  0  0  0
   -9.1452   19.7899  -32.8518 H   0  0  0  0  0  0  0  0  0  0  0  0
   -7.1024   15.3959  -33.3988 H   0  0  0  0  0  0  0  0  0  0  0  0
   -5.3189   16.4834  -35.0475 H   0  0  0  0  0  0  0  0  0  0  0  0
   -4.8826   20.3065  -32.0966 H   0  0  0  0  0  0  0  0  0  0  0  0
  1  2  1  0
  2  3  1  0
  3  4  2  3
  4  5  1  0
  5  6  1  0
  5  7  1  0
  7  8  2  0
  7  9  1  0
  9 10  1  0
 10 11  1  0
 11 12  1  0
 11 13  2  0
 10 14  2  0
 14 15  1  0
 15 16  2  0
 16 17  1  0
 17 18  2  0
 18 19  1  0
 19 20  2  0
 20 21  1  0
 21 22  2  0
 22 23  1  0
 18 24  1  0
 24 25  2  0
 25  9  1  0
 25 15  1  0
 23 19  1  0
  1 26  1  0
  1 27  1  0
  1 28  1  0
  4 29  1  0
  5 30  1  1
  6 31  1  0
 12 32  1  0
 12 33  1  0
 14 34  1  0
 16 35  1  0
 17 36  1  0
 21 37  1  0
 22 38  1  0
 24 39  1  0
M  END
>  <UniqueID>  (86) 
85

>  <SMILES>  (86) 
CON=C[C@@H](O)C(=O)n1c(C(N)=O)cc2ccc(-c3ncco3)cc21

>  <Energy>  (86) 
107.21994541521342

>  <Genealogy>  (86) 
CON=C[C@@H](O)C(=O)n1c(C(N)=O)cc2ccc(-c3ncco3)cc21 (chirality)
CON=C[C@@H](O)C(=O)n1c(C(N)=O)cc2ccc(-c3ncco3)cc21 (3D coordinates assigned)
CON=C[C@@H](O)C(=O)n1c(C(N)=O)cc2ccc(-c3ncco3)cc21 (optimized conformer: 107.21994541521342 kcal/mol)

>  <smiles>  (86) 
CON=CC(O)C(=O)n1c(C(N)=O)cc2ccc(-c3ncco3)cc21

>  <score_type>  (86) 
oracle

>  <origin>  (86) 
adg

>  <m_score__min__energy>  (86) 
-8.8200000000000003

>  <m_primary>  (86) 
energy

$$$$
86:0
     RDKit          3D

 45 46  0  0  0  0  0  0  0  0999 V2000
   -7.1400   23.3700  -30.9720 C   0  0  0  0  0  0  0  0  0  0  0  0
   -6.2420   24.1100  -31.6260 C   0  0  0  0  0  0  0  0  0  0  0  0
   -5.6030   25.3060  -30.9880 C   0  0  0  0  0  0  0  0  0  0  0  0
   -4.2560   24.9990  -30.6410 O   0  0  0  0  0  0  0  0  0  0  0  0
   -3.9120   23.8980  -29.8510 C   0  0  0  0  0  0  0  0  0  0  0  0
   -4.5880   23.6140  -28.8250 O   0  0  0  0  0  0  0  0  0  0  0  0
   -2.7690   23.1010  -30.2020 N   0  0  0  0  0  0  0  0  0  0  0  0
   -1.4760   23.2820  -29.8070 C   0  0  0  0  0  0  0  0  0  0  0  0
   -0.9480   24.4490  -29.0720 C   0  0  0  0  0  0  0  0  0  0  0  0
   -1.6980   25.6570  -28.9780 N   0  0  0  0  0  0  0  0  0  0  0  0
    0.2030   24.3970  -28.5630 O   0  0  0  0  0  0  0  0  0  0  0  0
   -0.6750   22.2380  -30.2650 C   0  0  0  0  0  0  0  0  0  0  0  0
   -1.5210   21.4090  -30.9660 C   0  0  0  0  0  0  0  0  0  0  0  0
   -1.2590   20.2110  -31.6220 C   0  0  0  0  0  0  0  0  0  0  0  0
   -2.3320   19.5480  -32.2370 C   0  0  0  0  0  0  0  0  0  0  0  0
   -3.6440   20.0900  -32.1910 C   0  0  0  0  0  0  0  0  0  0  0  0
   -4.7620   19.4230  -32.8090 N   0  0  0  0  0  0  0  0  0  0  0  0
   -5.7860   20.0880  -33.6180 C   0  0  0  0  0  0  0  0  0  0  0  0
   -7.1810   19.5360  -33.2980 C   0  0  0  0  0  0  0  0  0  0  0  0
   -7.0930   18.3370  -32.4350 N   0  0  0  0  0  0  0  0  0  0  0  0
   -8.3030   18.1910  -31.6070 C   0  0  0  0  0  0  0  0  0  0  0  0
   -6.9010   17.1260  -33.2470 C   0  0  0  0  0  0  0  0  0  0  0  0
   -3.8700   21.3010  -31.5010 C   0  0  0  0  0  0  0  0  0  0  0  0
   -2.7790   21.9510  -30.9120 C   0  0  0  0  0  0  0  0  0  0  0  0
   -7.5949   22.4967  -31.4623 H   0  0  0  0  0  0  0  0  0  0  0  0
   -7.4251   23.6335  -29.9428 H   0  0  0  0  0  0  0  0  0  0  0  0
   -5.9652   23.8362  -32.6548 H   0  0  0  0  0  0  0  0  0  0  0  0
   -5.6161   26.1489  -31.6947 H   0  0  0  0  0  0  0  0  0  0  0  0
   -6.1615   25.5783  -30.0803 H   0  0  0  0  0  0  0  0  0  0  0  0
   -2.7010   25.6900  -29.2670 H   0  0  0  0  0  0  0  0  0  0  0  0
    0.4045   22.1046  -30.1011 H   0  0  0  0  0  0  0  0  0  0  0  0
   -0.2411   19.7956  -31.6577 H   0  0  0  0  0  0  0  0  0  0  0  0
   -2.1549   18.5972  -32.7610 H   0  0  0  0  0  0  0  0  0  0  0  0
   -4.9150   18.4120  -32.5890 H   0  0  0  0  0  0  0  0  0  0  0  0
   -5.7683   21.1671  -33.4053 H   0  0  0  0  0  0  0  0  0  0  0  0
   -5.5699   19.9020  -34.6804 H   0  0  0  0  0  0  0  0  0  0  0  0
   -7.7638   20.3109  -32.7785 H   0  0  0  0  0  0  0  0  0  0  0  0
   -7.6702   19.2528  -34.2416 H   0  0  0  0  0  0  0  0  0  0  0  0
   -8.0255   18.2245  -30.5431 H   0  0  0  0  0  0  0  0  0  0  0  0
   -9.0010   19.0114  -31.8299 H   0  0  0  0  0  0  0  0  0  0  0  0
   -8.7858   17.2281  -31.8299 H   0  0  0  0  0  0  0  0  0  0  0  0
   -6.7635   16.2585  -32.5848 H   0  0  0  0  0  0  0  0  0  0  0  0
   -7.7850   16.9662  -33.8818 H   0  0  0  0  0  0  0  0  0  0  0  0
   -6.0109   17.2475  -33.8818 H   0  0  0  0  0  0  0  0  0  0  0  0
   -4.8824   21.7249  -31.4278 H   0  0  0  0  0  0  0  0  0  0  0  0
  1  2  2  0
  2  3  1  0
  3  4  1  0
  4  5  1  0
  5  6  2  0
  5  7  1  0
  7  8  1  0
  8  9  1  0
  9 10  1  0
  9 11  2  0
  8 12  2  0
 12 13  1  0
 13 14  2  0
 14 15  1  0
 15 16  2  0
 16 17  1  0
 17 18  1  0
 18 19  1  0
 19 20  1  0
 20 21  1  0
 20 22  1  0
 16 23  1  0
 23 24  2  0
 24  7  1  0
 24 13  1  0
  1 25  1  0
  1 26  1  0
  2 27  1  0
  3 28  1  0
  3 29  1  0
 10 30  1  0
 12 31  1  0
 14 32  1  0
 15 33  1  0
 17 34  1  0
 18 35  1  0
 18 36  1  0
 19 37  1  0
 19 38  1  0
 21 39  1  0
 21 40  1  0
 21 41  1  0
 22 42  1  0
 22 43  1  0
 22 44  1  0
 23 45  1  0
M  CHG  1  10  -1
M  END
>  <UniqueID>  (87) 
86

>  <SMILES>  (87) 
C=CCOC(=O)n1c(C([NH-])=O)cc2ccc(NCCN(C)C)cc21

>  <Energy>  (87) 
77.83221418833226

>  <Genealogy>  (87) 
C=CCOC(=O)n1c(C([NH-])=O)cc2ccc(NCCN(C)C)cc21 (protonated)
C=CCOC(=O)n1c(C([NH-])=O)cc2ccc(NCCN(C)C)cc21 (3D coordinates assigned)
C=CCOC(=O)n1c(C([NH-])=O)cc2ccc(NCCN(C)C)cc21 (optimized conformer: 77.83221418833226 kcal/mol)

>  <smiles>  (87) 
C=CCOC(=O)n1c(C(N)=O)cc2ccc(NCCN(C)C)cc21

>  <score_type>  (87) 
oracle

>  <origin>  (87) 
adg

>  <m_score__min__energy>  (87) 
-10.029999999999999

>  <m_primary>  (87) 
energy

$$$$
87:0
     RDKit          3D

 41 42  0  0  0  0  0  0  0  0999 V2000
   -1.5350   25.1380  -25.5030 C   0  0  0  0  0  0  0  0  0  0  0  0
   -2.4500   25.6320  -26.3390 C   0  0  0  0  0  0  0  0  0  0  0  0
   -3.7420   24.9070  -26.5890 C   0  0  0  0  0  0  0  0  0  0  0  0
   -3.8670   24.5560  -27.9650 O   0  0  0  0  0  0  0  0  0  0  0  0
   -3.9170   23.2320  -28.4180 C   0  0  0  0  0  0  0  0  0  0  0  0
   -4.9140   22.5030  -28.1660 O   0  0  0  0  0  0  0  0  0  0  0  0
   -2.7890   22.6920  -29.2390 C   0  0  2  0  0  0  0  0  0  0  0  0
   -1.5560   23.0440  -28.6150 O   0  0  0  0  0  0  0  0  0  0  0  0
   -0.8380   24.1950  -28.9470 C   0  0  0  0  0  0  0  0  0  0  0  0
    0.4220   24.1930  -28.9500 O   0  0  0  0  0  0  0  0  0  0  0  0
   -1.5210   25.3570  -29.2750 O   0  0  0  0  0  0  0  0  0  0  0  0
   -2.8330   23.2540  -30.5500 O   0  0  0  0  0  0  0  0  0  0  0  0
   -3.6960   22.7970  -31.5540 C   0  0  0  0  0  0  0  0  0  0  0  0
   -3.2310   22.3000  -32.6170 O   0  0  0  0  0  0  0  0  0  0  0  0
   -5.1160   22.9180  -31.3810 N   0  0  0  0  0  0  0  0  0  0  0  0
   -5.8170   24.0310  -31.0210 C   0  0  0  0  0  0  0  0  0  0  0  0
   -5.2380   25.3030  -30.5510 C   0  0  0  0  0  0  0  0  0  0  0  0
   -3.8840   25.6390  -30.8400 N   0  0  0  0  0  0  0  0  0  0  0  0
   -5.9300   26.0840  -29.8460 O   0  0  0  0  0  0  0  0  0  0  0  0
   -7.1880   23.7820  -31.0660 C   0  0  0  0  0  0  0  0  0  0  0  0
   -7.3070   22.4700  -31.4600 C   0  0  0  0  0  0  0  0  0  0  0  0
   -8.4460   21.6970  -31.6630 C   0  0  0  0  0  0  0  0  0  0  0  0
   -8.2750   20.3700  -32.0900 C   0  0  0  0  0  0  0  0  0  0  0  0
   -6.9780   19.8470  -32.3330 C   0  0  0  0  0  0  0  0  0  0  0  0
   -6.8030   18.4100  -32.7520 C   0  0  0  0  0  0  0  0  0  0  0  0
   -6.4700   18.3260  -34.0930 F   0  0  0  0  0  0  0  0  0  0  0  0
   -5.7970   17.8070  -32.0180 F   0  0  0  0  0  0  0  0  0  0  0  0
   -7.9870   17.7270  -32.5390 F   0  0  0  0  0  0  0  0  0  0  0  0
   -5.8450   20.6580  -32.0920 C   0  0  0  0  0  0  0  0  0  0  0  0
   -6.0450   21.9700  -31.6470 C   0  0  0  0  0  0  0  0  0  0  0  0
   -0.5948   25.6828  -25.3323 H   0  0  0  0  0  0  0  0  0  0  0  0
   -1.7209   24.1859  -24.9844 H   0  0  0  0  0  0  0  0  0  0  0  0
   -2.2555   26.5848  -26.8531 H   0  0  0  0  0  0  0  0  0  0  0  0
   -3.7657   23.9915  -25.9796 H   0  0  0  0  0  0  0  0  0  0  0  0
   -4.5767   25.5696  -26.3167 H   0  0  0  0  0  0  0  0  0  0  0  0
   -2.8762   21.5980  -29.3130 H   0  0  0  0  0  0  0  0  0  0  0  0
   -3.1050   25.2940  -30.2370 H   0  0  0  0  0  0  0  0  0  0  0  0
   -8.0016   24.4855  -30.8354 H   0  0  0  0  0  0  0  0  0  0  0  0
   -9.4503   22.1128  -31.4941 H   0  0  0  0  0  0  0  0  0  0  0  0
   -9.1563   19.7286  -32.2378 H   0  0  0  0  0  0  0  0  0  0  0  0
   -4.8293   20.2667  -32.2507 H   0  0  0  0  0  0  0  0  0  0  0  0
  1  2  2  0
  2  3  1  0
  3  4  1  0
  4  5  1  0
  5  6  2  0
  5  7  1  0
  7  8  1  0
  8  9  1  0
  9 10  2  0
  9 11  1  0
  7 12  1  0
 12 13  1  0
 13 14  2  0
 13 15  1  0
 15 16  1  0
 16 17  1  0
 17 18  1  0
 17 19  2  0
 16 20  2  0
 20 21  1  0
 21 22  2  0
 22 23  1  0
 23 24  2  0
 24 25  1  0
 25 26  1  0
 25 27  1  0
 25 28  1  0
 24 29  1  0
 29 30  2  0
 30 15  1  0
 30 21  1  0
  1 31  1  0
  1 32  1  0
  2 33  1  0
  3 34  1  0
  3 35  1  0
  7 36  1  6
 18 37  1  0
 20 38  1  0
 22 39  1  0
 23 40  1  0
 29 41  1  0
M  CHG  2  11  -1  18  -1
M  END
>  <UniqueID>  (88) 
87

>  <SMILES>  (88) 
C=CCOC(=O)[C@H](OC(=O)[O-])OC(=O)n1c(C([NH-])=O)cc2ccc(C(F)(F)F)cc21

>  <Energy>  (88) 
72.42144149892427

>  <Genealogy>  (88) 
C=CCOC(=O)C(OC(=O)[O-])OC(=O)n1c(C([NH-])=O)cc2ccc(C(F)(F)F)cc21 (protonated)
C=CCOC(=O)[C@H](OC(=O)[O-])OC(=O)n1c(C([NH-])=O)cc2ccc(C(F)(F)F)cc21 (chirality)
C=CCOC(=O)[C@H](OC(=O)[O-])OC(=O)n1c(C([NH-])=O)cc2ccc(C(F)(F)F)cc21 (3D coordinates assigned)
C=CCOC(=O)[C@H](OC(=O)[O-])OC(=O)n1c(C([NH-])=O)cc2ccc(C(F)(F)F)cc21 (optimized conformer: 72.42144149892427 kcal/mol)

>  <smiles>  (88) 
C=CCOC(=O)C(OC(=O)O)OC(=O)n1c(C(N)=O)cc2ccc(C(F)(F)F)cc21

>  <score_type>  (88) 
oracle

>  <origin>  (88) 
adg

>  <m_score__min__energy>  (88) 
-11.68

>  <m_primary>  (88) 
energy

$$$$
88:0
     RDKit          3D

 39 41  0  0  0  0  0  0  0  0999 V2000
   -1.7710   25.6440  -28.9690 N   0  0  0  0  0  0  0  0  0  0  0  0
   -1.0030   24.4460  -28.9060 C   0  0  0  0  0  0  0  0  0  0  0  0
   -0.1210   24.3240  -28.0130 O   0  0  0  0  0  0  0  0  0  0  0  0
   -1.2680   23.3250  -29.8300 C   0  0  0  0  0  0  0  0  0  0  0  0
   -0.2880   22.4200  -30.2380 C   0  0  0  0  0  0  0  0  0  0  0  0
   -0.9500   21.4880  -31.0030 C   0  0  0  0  0  0  0  0  0  0  0  0
   -0.4590   20.3750  -31.6800 C   0  0  0  0  0  0  0  0  0  0  0  0
   -1.3660   19.6080  -32.4300 C   0  0  0  0  0  0  0  0  0  0  0  0
   -2.7380   19.9600  -32.4840 C   0  0  0  0  0  0  0  0  0  0  0  0
   -3.6880   19.1670  -33.3390 C   0  0  0  0  0  0  0  0  0  0  0  0
   -5.0880   19.3380  -32.8350 C   0  0  0  0  0  0  0  0  0  0  0  0
   -5.6480   18.3820  -32.2310 O   0  0  0  0  0  0  0  0  0  0  0  0
   -5.8100   20.5460  -33.1210 N   0  0  0  0  0  0  0  0  0  0  0  0
   -7.1840   20.7500  -32.7570 C   0  0  0  0  0  0  0  0  0  0  0  0
   -8.0940   19.6780  -32.7810 C   0  0  0  0  0  0  0  0  0  0  0  0
   -9.4230   19.8720  -32.3930 C   0  0  0  0  0  0  0  0  0  0  0  0
   -9.8530   21.1310  -31.9710 C   0  0  0  0  0  0  0  0  0  0  0  0
   -8.9550   22.2020  -31.9350 C   0  0  0  0  0  0  0  0  0  0  0  0
   -7.6210   22.0170  -32.3200 C   0  0  0  0  0  0  0  0  0  0  0  0
   -6.4390   23.5270  -32.2850 Br  0  0  0  0  0  0  0  0  0  0  0  0
   -3.1970   21.1000  -31.7880 C   0  0  0  0  0  0  0  0  0  0  0  0
   -2.2740   21.8400  -31.0420 C   0  0  0  0  0  0  0  0  0  0  0  0
   -2.4850   22.9710  -30.3310 N   0  0  0  0  0  0  0  0  0  0  0  0
   -3.7210   23.7000  -30.2410 C   0  0  0  0  0  0  0  0  0  0  0  0
   -3.8410   24.9890  -30.8380 N   0  0  0  0  0  0  0  0  0  0  0  0
   -4.7160   23.1890  -29.6620 O   0  0  0  0  0  0  0  0  0  0  0  0
   -2.7500   25.6350  -29.3330 H   0  0  0  0  0  0  0  0  0  0  0  0
    0.7854   22.4461  -29.9989 H   0  0  0  0  0  0  0  0  0  0  0  0
    0.6060   20.1046  -31.6292 H   0  0  0  0  0  0  0  0  0  0  0  0
   -1.0080   18.7257  -32.9807 H   0  0  0  0  0  0  0  0  0  0  0  0
   -3.6280   19.5229  -34.3781 H   0  0  0  0  0  0  0  0  0  0  0  0
   -3.4138   18.1026  -33.2952 H   0  0  0  0  0  0  0  0  0  0  0  0
   -5.3460   21.2640  -33.7220 H   0  0  0  0  0  0  0  0  0  0  0  0
   -7.7585   18.6823  -33.1066 H   0  0  0  0  0  0  0  0  0  0  0  0
  -10.1312   19.0308  -32.4204 H   0  0  0  0  0  0  0  0  0  0  0  0
  -10.8993   21.2807  -31.6665 H   0  0  0  0  0  0  0  0  0  0  0  0
   -9.2973   23.1933  -31.6032 H   0  0  0  0  0  0  0  0  0  0  0  0
   -4.2548   21.3986  -31.8316 H   0  0  0  0  0  0  0  0  0  0  0  0
   -3.0470   25.6650  -30.8150 H   0  0  0  0  0  0  0  0  0  0  0  0
  1  2  1  0
  2  3  2  0
  2  4  1  0
  4  5  2  0
  5  6  1  0
  6  7  2  0
  7  8  1  0
  8  9  2  0
  9 10  1  0
 10 11  1  0
 11 12  2  0
 11 13  1  0
 13 14  1  0
 14 15  2  0
 15 16  1  0
 16 17  2  0
 17 18  1  0
 18 19  2  0
 19 20  1  0
  9 21  1  0
 21 22  2  0
 22 23  1  0
 23 24  1  0
 24 25  1  0
 24 26  2  0
 23  4  1  0
 22  6  1  0
 19 14  1  0
  1 27  1  0
  5 28  1  0
  7 29  1  0
  8 30  1  0
 10 31  1  0
 10 32  1  0
 13 33  1  0
 15 34  1  0
 16 35  1  0
 17 36  1  0
 18 37  1  0
 21 38  1  0
 25 39  1  0
M  CHG  2   1  -1  25  -1
M  END
>  <UniqueID>  (89) 
88

>  <SMILES>  (89) 
[NH-]C(=O)c1cc2ccc(CC(=O)Nc3ccccc3Br)cc2n1C([NH-])=O

>  <Energy>  (89) 
82.66746672897588

>  <Genealogy>  (89) 
[NH-]C(=O)c1cc2ccc(CC(=O)Nc3ccccc3Br)cc2n1C([NH-])=O (protonated)
[NH-]C(=O)c1cc2ccc(CC(=O)Nc3ccccc3Br)cc2n1C([NH-])=O (3D coordinates assigned)
[NH-]C(=O)c1cc2ccc(CC(=O)Nc3ccccc3Br)cc2n1C([NH-])=O (optimized conformer: 82.66746672897588 kcal/mol)

>  <smiles>  (89) 
NC(=O)c1cc2ccc(CC(=O)Nc3ccccc3Br)cc2n1C(N)=O

>  <score_type>  (89) 
oracle

>  <origin>  (89) 
adg

>  <m_score__min__energy>  (89) 
-12.789999999999999

>  <m_primary>  (89) 
energy

$$$$
89:0
     RDKit          3D

 32 33  0  0  0  0  0  0  0  0999 V2000
   -6.1220   24.8420  -29.1970 N   0  0  0  0  0  0  0  0  0  0  0  0
   -6.5340   23.5810  -29.7260 C   0  0  0  0  0  0  0  0  0  0  0  0
   -7.6230   23.0760  -29.3420 O   0  0  0  0  0  0  0  0  0  0  0  0
   -5.6780   22.8290  -30.6660 C   0  0  0  0  0  0  0  0  0  0  0  0
   -6.1180   21.7200  -31.3820 C   0  0  0  0  0  0  0  0  0  0  0  0
   -5.0110   21.2660  -32.0640 C   0  0  0  0  0  0  0  0  0  0  0  0
   -4.8780   20.1930  -32.9410 C   0  0  0  0  0  0  0  0  0  0  0  0
   -3.6190   19.9760  -33.5280 C   0  0  0  0  0  0  0  0  0  0  0  0
   -2.5350   20.8340  -33.2340 C   0  0  0  0  0  0  0  0  0  0  0  0
   -1.2550   20.6060  -33.8500 C   0  0  0  0  0  0  0  0  0  0  0  0
   -0.1850   20.4090  -34.3690 C   0  0  0  0  0  0  0  0  0  0  0  0
    1.1180   20.1780  -35.0070 C   0  0  0  0  0  0  0  0  0  0  0  0
    1.2740   21.0240  -36.2750 C   0  0  0  0  0  0  0  0  0  0  0  0
    1.5170   22.4680  -35.9530 C   0  0  0  0  0  0  0  0  0  0  0  0
    0.6260   23.1440  -35.3740 O   0  0  0  0  0  0  0  0  0  0  0  0
    3.0630   23.2610  -36.4310 S   0  0  0  0  0  0  0  0  0  0  0  0
   -2.7030   21.9130  -32.3430 C   0  0  0  0  0  0  0  0  0  0  0  0
   -3.9620   22.0950  -31.7590 C   0  0  0  0  0  0  0  0  0  0  0  0
   -4.3570   23.0650  -30.9050 N   0  0  0  0  0  0  0  0  0  0  0  0
   -3.5630   24.1760  -30.4600 C   0  0  0  0  0  0  0  0  0  0  0  0
   -3.8700   25.3480  -30.7990 O   0  0  0  0  0  0  0  0  0  0  0  0
   -2.1550   23.9200  -29.3610 S   0  0  0  0  0  0  0  0  0  0  0  0
   -5.1610   25.2110  -29.3670 H   0  0  0  0  0  0  0  0  0  0  0  0
   -6.7570   25.3750  -28.5630 H   0  0  0  0  0  0  0  0  0  0  0  0
   -7.1330   21.2964  -31.3995 H   0  0  0  0  0  0  0  0  0  0  0  0
   -5.7307   19.5360  -33.1675 H   0  0  0  0  0  0  0  0  0  0  0  0
   -3.4767   19.1332  -34.2204 H   0  0  0  0  0  0  0  0  0  0  0  0
    1.9162   20.4437  -34.2983 H   0  0  0  0  0  0  0  0  0  0  0  0
    1.1844   19.1164  -35.2872 H   0  0  0  0  0  0  0  0  0  0  0  0
    2.1252   20.6405  -36.8567 H   0  0  0  0  0  0  0  0  0  0  0  0
    0.3392   20.9541  -36.8505 H   0  0  0  0  0  0  0  0  0  0  0  0
   -1.8690   22.5924  -32.1132 H   0  0  0  0  0  0  0  0  0  0  0  0
  1  2  1  0
  2  3  2  0
  2  4  1  0
  4  5  2  0
  5  6  1  0
  6  7  2  0
  7  8  1  0
  8  9  2  0
  9 10  1  0
 10 11  3  0
 11 12  1  0
 12 13  1  0
 13 14  1  0
 14 15  2  0
 14 16  1  0
  9 17  1  0
 17 18  2  0
 18 19  1  0
 19 20  1  0
 20 21  2  0
 20 22  1  0
 19  4  1  0
 18  6  1  0
  1 23  1  0
  1 24  1  0
  5 25  1  0
  7 26  1  0
  8 27  1  0
 12 28  1  0
 12 29  1  0
 13 30  1  0
 13 31  1  0
 17 32  1  0
M  CHG  2  16  -1  22  -1
M  END
>  <UniqueID>  (90) 
89

>  <SMILES>  (90) 
NC(=O)c1cc2ccc(C#CCCC(=O)[S-])cc2n1C(=O)[S-]

>  <Energy>  (90) 
65.26920835088639

>  <Genealogy>  (90) 
NC(=O)c1cc2ccc(C#CCCC(=O)[S-])cc2n1C(=O)[S-] (protonated)
NC(=O)c1cc2ccc(C#CCCC(=O)[S-])cc2n1C(=O)[S-] (3D coordinates assigned)
NC(=O)c1cc2ccc(C#CCCC(=O)[S-])cc2n1C(=O)[S-] (optimized conformer: 65.26920835088639 kcal/mol)

>  <smiles>  (90) 
NC(=O)c1cc2ccc(C#CCCC(=O)S)cc2n1C(=O)S

>  <score_type>  (90) 
oracle

>  <origin>  (90) 
adg

>  <m_score__min__energy>  (90) 
-9.1500000000000004

>  <m_primary>  (90) 
energy

$$$$
90:0
     RDKit          3D

 50 51  0  0  0  0  0  0  0  0999 V2000
   -1.3960   21.8540  -28.1540 C   0  0  0  0  0  0  0  0  0  0  0  0
   -2.5210   22.7560  -28.7180 C   0  0  0  0  0  0  0  0  0  0  0  0
   -3.1490   23.5410  -27.5400 C   0  0  0  0  0  0  0  0  0  0  0  0
   -3.6010   21.8770  -29.4270 C   0  0  0  0  0  0  0  0  0  0  0  0
   -4.0200   22.3740  -30.7910 C   0  0  0  0  0  0  0  0  0  0  0  0
   -3.1610   22.4670  -31.7080 O   0  0  0  0  0  0  0  0  0  0  0  0
   -5.3930   22.6920  -31.0720 N   0  0  0  0  0  0  0  0  0  0  0  0
   -6.0250   23.8910  -30.9260 C   0  0  0  0  0  0  0  0  0  0  0  0
   -5.3740   25.1820  -30.6270 C   0  0  0  0  0  0  0  0  0  0  0  0
   -3.9530   25.2890  -30.5780 N   0  0  0  0  0  0  0  0  0  0  0  0
   -6.0770   26.2130  -30.4590 O   0  0  0  0  0  0  0  0  0  0  0  0
   -7.3820   23.7650  -31.2190 C   0  0  0  0  0  0  0  0  0  0  0  0
   -7.5580   22.4460  -31.5730 C   0  0  0  0  0  0  0  0  0  0  0  0
   -8.7060   21.7690  -31.9710 C   0  0  0  0  0  0  0  0  0  0  0  0
   -8.5930   20.4020  -32.2760 C   0  0  0  0  0  0  0  0  0  0  0  0
   -7.3440   19.7390  -32.1670 C   0  0  0  0  0  0  0  0  0  0  0  0
   -7.2280   18.2830  -32.5230 C   0  0  0  0  0  0  0  0  0  0  0  0
   -5.7580   17.8720  -32.6190 C   0  0  0  0  0  0  0  0  0  0  0  0
   -5.0300   18.4240  -34.1550 S   0  0  0  0  0  0  0  0  0  0  0  0
   -4.1800   17.0840  -34.9600 C   0  0  0  0  0  0  0  0  0  0  0  0
   -6.1030   18.9540  -35.0650 O   0  0  0  0  0  0  0  0  0  0  0  0
   -4.0470   19.5220  -33.8630 O   0  0  0  0  0  0  0  0  0  0  0  0
   -6.1970   20.4640  -31.7760 C   0  0  0  0  0  0  0  0  0  0  0  0
   -6.3400   21.8230  -31.4830 C   0  0  0  0  0  0  0  0  0  0  0  0
   -1.9020   23.6950  -29.6960 N   0  0  0  0  0  0  0  0  0  0  0  0
   -1.0850   24.7130  -29.0900 C   0  0  0  0  0  0  0  0  0  0  0  0
    0.0720   24.4380  -28.6710 O   0  0  0  0  0  0  0  0  0  0  0  0
   -1.5680   26.0100  -28.9550 O   0  0  0  0  0  0  0  0  0  0  0  0
   -1.4243   21.8767  -27.0546 H   0  0  0  0  0  0  0  0  0  0  0  0
   -1.5440   20.8215  -28.5034 H   0  0  0  0  0  0  0  0  0  0  0  0
   -0.4204   22.2230  -28.5034 H   0  0  0  0  0  0  0  0  0  0  0  0
   -2.8049   23.1108  -26.5879 H   0  0  0  0  0  0  0  0  0  0  0  0
   -2.8428   24.5959  -27.5977 H   0  0  0  0  0  0  0  0  0  0  0  0
   -4.2454   23.4738  -27.5977 H   0  0  0  0  0  0  0  0  0  0  0  0
   -3.1952   20.8610  -29.5417 H   0  0  0  0  0  0  0  0  0  0  0  0
   -4.4987   21.9139  -28.7924 H   0  0  0  0  0  0  0  0  0  0  0  0
   -3.4710   25.6530  -29.7270 H   0  0  0  0  0  0  0  0  0  0  0  0
   -8.1493   24.5521  -31.1765 H   0  0  0  0  0  0  0  0  0  0  0  0
   -9.6731   22.2880  -32.0448 H   0  0  0  0  0  0  0  0  0  0  0  0
   -9.4812   19.8411  -32.6022 H   0  0  0  0  0  0  0  0  0  0  0  0
   -7.7229   17.6799  -31.7475 H   0  0  0  0  0  0  0  0  0  0  0  0
   -7.7094   18.1150  -33.4977 H   0  0  0  0  0  0  0  0  0  0  0  0
   -5.2053   18.3186  -31.7793 H   0  0  0  0  0  0  0  0  0  0  0  0
   -5.7007   16.7741  -32.5818 H   0  0  0  0  0  0  0  0  0  0  0  0
   -3.7535   16.4117  -34.2010 H   0  0  0  0  0  0  0  0  0  0  0  0
   -4.8889   16.5249  -35.5883 H   0  0  0  0  0  0  0  0  0  0  0  0
   -3.3721   17.4871  -35.5883 H   0  0  0  0  0  0  0  0  0  0  0  0
   -5.2160   19.9717  -31.7039 H   0  0  0  0  0  0  0  0  0  0  0  0
   -1.3000   23.1640  -30.3690 H   0  0  0  0  0  0  0  0  0  0  0  0
   -2.6500   24.1630  -30.2600 H   0  0  0  0  0  0  0  0  0  0  0  0
  1  2  1  0
  2  3  1  0
  2  4  1  0
  4  5  1  0
  5  6  2  0
  5  7  1  0
  7  8  1  0
  8  9  1  0
  9 10  1  0
  9 11  2  0
  8 12  2  0
 12 13  1  0
 13 14  2  0
 14 15  1  0
 15 16  2  0
 16 17  1  0
 17 18  1  0
 18 19  1  0
 19 20  1  0
 19 21  2  0
 19 22  2  0
 16 23  1  0
 23 24  2  0
  2 25  1  0
 25 26  1  0
 26 27  2  0
 26 28  1  0
 24  7  1  0
 24 13  1  0
  1 29  1  0
  1 30  1  0
  1 31  1  0
  3 32  1  0
  3 33  1  0
  3 34  1  0
  4 35  1  0
  4 36  1  0
 10 37  1  0
 12 38  1  0
 14 39  1  0
 15 40  1  0
 17 41  1  0
 17 42  1  0
 18 43  1  0
 18 44  1  0
 20 45  1  0
 20 46  1  0
 20 47  1  0
 23 48  1  0
 25 49  1  0
 25 50  1  0
M  CHG  3  10  -1  25   1  28  -1
M  END
>  <UniqueID>  (91) 
90

>  <SMILES>  (91) 
CC(C)(CC(=O)n1c(C([NH-])=O)cc2ccc(CCS(C)(=O)=O)cc21)[NH2+]C(=O)[O-]

>  <Energy>  (91) 
80.0150839753375

>  <Genealogy>  (91) 
CC(C)(CC(=O)n1c(C([NH-])=O)cc2ccc(CCS(C)(=O)=O)cc21)[NH2+]C(=O)[O-] (protonated)
CC(C)(CC(=O)n1c(C([NH-])=O)cc2ccc(CCS(C)(=O)=O)cc21)[NH2+]C(=O)[O-] (3D coordinates assigned)
CC(C)(CC(=O)n1c(C([NH-])=O)cc2ccc(CCS(C)(=O)=O)cc21)[NH2+]C(=O)[O-] (optimized conformer: 80.0150839753375 kcal/mol)

>  <smiles>  (91) 
CC(C)(CC(=O)n1c(C(N)=O)cc2ccc(CCS(C)(=O)=O)cc21)NC(=O)O

>  <score_type>  (91) 
oracle

>  <origin>  (91) 
adg

>  <m_score__min__energy>  (91) 
-12.25

>  <m_primary>  (91) 
energy

$$$$
91:0
     RDKit          3D

 38 40  0  0  0  0  0  0  0  0999 V2000
   -0.9360   26.0470  -27.7260 C   0  0  0  0  0  0  0  0  0  0  0  0
   -1.5380   25.6710  -28.9970 N   0  0  0  0  0  0  0  0  0  0  0  0
   -2.1710   24.4190  -29.2920 C   0  0  0  0  0  0  0  0  0  0  0  0
   -1.5310   23.3570  -29.0660 O   0  0  0  0  0  0  0  0  0  0  0  0
   -3.5340   24.3120  -29.8470 C   0  0  0  0  0  0  0  0  0  0  0  0
   -4.3300   23.2280  -29.7240 N   0  0  0  0  0  0  0  0  0  0  0  0
   -5.4500   23.6070  -30.3710 C   0  0  0  0  0  0  0  0  0  0  0  0
   -6.5910   22.8150  -30.5350 O   0  0  0  0  0  0  0  0  0  0  0  0
   -7.0800   22.3860  -31.7770 C   0  0  0  0  0  0  0  0  0  0  0  0
   -7.8270   23.1410  -32.4650 O   0  0  0  0  0  0  0  0  0  0  0  0
   -6.7000   21.0940  -32.2900 N   0  0  0  0  0  0  0  0  0  0  0  0
   -7.5290   20.0470  -32.5770 C   0  0  0  0  0  0  0  0  0  0  0  0
   -8.9710   19.9780  -32.2800 C   0  0  0  0  0  0  0  0  0  0  0  0
   -9.7760   21.1600  -32.2820 N   0  0  0  0  0  0  0  0  0  0  0  0
   -9.4910   18.8660  -31.9770 O   0  0  0  0  0  0  0  0  0  0  0  0
   -6.8210   19.0000  -33.1570 C   0  0  0  0  0  0  0  0  0  0  0  0
   -5.5130   19.4250  -33.1980 C   0  0  0  0  0  0  0  0  0  0  0  0
   -4.3840   18.7830  -33.6960 C   0  0  0  0  0  0  0  0  0  0  0  0
   -3.1580   19.4730  -33.6550 C   0  0  0  0  0  0  0  0  0  0  0  0
   -3.0860   20.7810  -33.1200 C   0  0  0  0  0  0  0  0  0  0  0  0
   -1.7720   21.5040  -33.0980 C   0  0  0  0  0  0  0  0  0  0  0  0
   -4.2570   21.4140  -32.6480 C   0  0  0  0  0  0  0  0  0  0  0  0
   -5.4620   20.6940  -32.6730 C   0  0  0  0  0  0  0  0  0  0  0  0
   -5.3050   24.8810  -30.8630 C   0  0  0  0  0  0  0  0  0  0  0  0
   -4.1090   25.2910  -30.5210 O   0  0  0  0  0  0  0  0  0  0  0  0
   -1.5524   25.6620  -26.9002 H   0  0  0  0  0  0  0  0  0  0  0  0
    0.0754   25.6198  -27.6587 H   0  0  0  0  0  0  0  0  0  0  0  0
   -0.8762   27.1433  -27.6587 H   0  0  0  0  0  0  0  0  0  0  0  0
   -9.3540   22.1030  -32.4580 H   0  0  0  0  0  0  0  0  0  0  0  0
  -10.7930   21.1080  -32.0530 H   0  0  0  0  0  0  0  0  0  0  0  0
   -7.2213   18.0374  -33.5081 H   0  0  0  0  0  0  0  0  0  0  0  0
   -4.4475   17.7658  -34.1098 H   0  0  0  0  0  0  0  0  0  0  0  0
   -2.2480   18.9914  -34.0422 H   0  0  0  0  0  0  0  0  0  0  0  0
   -1.4641   21.6734  -32.0556 H   0  0  0  0  0  0  0  0  0  0  0  0
   -1.0112   20.8975  -33.6111 H   0  0  0  0  0  0  0  0  0  0  0  0
   -1.8771   22.4713  -33.6111 H   0  0  0  0  0  0  0  0  0  0  0  0
   -4.2257   22.4465  -32.2698 H   0  0  0  0  0  0  0  0  0  0  0  0
   -6.0522   25.4496  -31.4360 H   0  0  0  0  0  0  0  0  0  0  0  0
  1  2  1  0
  2  3  1  0
  3  4  2  0
  3  5  1  0
  5  6  2  0
  6  7  1  0
  7  8  1  0
  8  9  1  0
  9 10  2  0
  9 11  1  0
 11 12  1  0
 12 13  1  0
 13 14  1  0
 13 15  2  0
 12 16  2  0
 16 17  1  0
 17 18  2  0
 18 19  1  0
 19 20  2  0
 20 21  1  0
 20 22  1  0
 22 23  2  0
  7 24  2  0
 24 25  1  0
 25  5  1  0
 23 11  1  0
 23 17  1  0
  1 26  1  0
  1 27  1  0
  1 28  1  0
 14 29  1  0
 14 30  1  0
 16 31  1  0
 18 32  1  0
 19 33  1  0
 21 34  1  0
 21 35  1  0
 21 36  1  0
 22 37  1  0
 24 38  1  0
M  CHG  1   2  -1
M  END
>  <UniqueID>  (92) 
91

>  <SMILES>  (92) 
C[N-]C(=O)c1nc(OC(=O)n2c(C(N)=O)cc3ccc(C)cc32)co1

>  <Energy>  (92) 
109.0055343884062

>  <Genealogy>  (92) 
C[N-]C(=O)c1nc(OC(=O)n2c(C(N)=O)cc3ccc(C)cc32)co1 (protonated)
C[N-]C(=O)c1nc(OC(=O)n2c(C(N)=O)cc3ccc(C)cc32)co1 (3D coordinates assigned)
C[N-]C(=O)c1nc(OC(=O)n2c(C(N)=O)cc3ccc(C)cc32)co1 (optimized conformer: 109.0055343884062 kcal/mol)

>  <smiles>  (92) 
CNC(=O)c1nc(OC(=O)n2c(C(N)=O)cc3ccc(C)cc32)co1

>  <score_type>  (92) 
oracle

>  <origin>  (92) 
adg

>  <m_score__min__energy>  (92) 
-9.8300000000000001

>  <m_primary>  (92) 
energy

$$$$
92:0
     RDKit          3D

 46 48  0  0  0  0  0  0  0  0999 V2000
    0.2370   23.3460  -28.4270 C   0  0  0  0  0  0  0  0  0  0  0  0
   -1.2870   23.4360  -28.6080 C   0  0  1  0  0  0  0  0  0  0  0  0
   -1.8310   24.6770  -27.8670 C   0  0  0  0  0  0  0  0  0  0  0  0
   -2.3240   25.6280  -28.7720 O   0  0  0  0  0  0  0  0  0  0  0  0
   -1.6110   23.5210  -30.0460 N   0  0  0  0  0  0  0  0  0  0  0  0
   -1.8460   22.2020  -30.6560 C   0  0  0  0  0  0  0  0  0  0  0  0
   -3.1770   21.6930  -30.2060 C   0  0  0  0  0  0  0  0  0  0  0  0
   -3.2870   21.0990  -29.1000 O   0  0  0  0  0  0  0  0  0  0  0  0
   -4.3450   21.9680  -30.9870 N   0  0  0  0  0  0  0  0  0  0  0  0
   -5.0900   23.1060  -31.0010 C   0  0  0  0  0  0  0  0  0  0  0  0
   -4.7690   24.3550  -30.2790 C   0  0  0  0  0  0  0  0  0  0  0  0
   -3.8620   25.3060  -30.8280 N   0  0  0  0  0  0  0  0  0  0  0  0
   -5.3100   24.5900  -29.1660 O   0  0  0  0  0  0  0  0  0  0  0  0
   -6.2260   22.9290  -31.7900 C   0  0  0  0  0  0  0  0  0  0  0  0
   -6.1540   21.6320  -32.2510 C   0  0  0  0  0  0  0  0  0  0  0  0
   -7.0380   20.9070  -33.0430 C   0  0  0  0  0  0  0  0  0  0  0  0
   -6.7280   19.5630  -33.3150 C   0  0  0  0  0  0  0  0  0  0  0  0
   -5.5480   18.9670  -32.7950 C   0  0  0  0  0  0  0  0  0  0  0  0
   -5.2450   17.5380  -33.0600 C   0  0  0  0  0  0  0  0  0  0  0  0
   -5.3140   16.5890  -32.0270 C   0  0  0  0  0  0  0  0  0  0  0  0
   -5.0280   15.2490  -32.2990 C   0  0  0  0  0  0  0  0  0  0  0  0
   -4.6840   14.8620  -33.5560 N   0  0  0  0  0  0  0  0  0  0  0  0
   -4.6080   15.7590  -34.5770 C   0  0  0  0  0  0  0  0  0  0  0  0
   -4.8870   17.1090  -34.3500 C   0  0  0  0  0  0  0  0  0  0  0  0
   -4.6710   19.7450  -32.0020 C   0  0  0  0  0  0  0  0  0  0  0  0
   -5.0080   21.0760  -31.7490 C   0  0  0  0  0  0  0  0  0  0  0  0
    0.4786   23.3317  -27.3540 H   0  0  0  0  0  0  0  0  0  0  0  0
    0.6085   22.4244  -28.8988 H   0  0  0  0  0  0  0  0  0  0  0  0
    0.7144   24.2175  -28.8988 H   0  0  0  0  0  0  0  0  0  0  0  0
   -1.7576   22.5358  -28.1859 H   0  0  0  0  0  0  0  0  0  0  0  0
   -2.6436   24.3662  -27.1938 H   0  0  0  0  0  0  0  0  0  0  0  0
   -1.0086   25.1315  -27.2951 H   0  0  0  0  0  0  0  0  0  0  0  0
   -3.2580   25.3670  -28.9800 H   0  0  0  0  0  0  0  0  0  0  0  0
   -2.4800   24.0890  -30.1820 H   0  0  0  0  0  0  0  0  0  0  0  0
   -1.8371   22.2948  -31.7520 H   0  0  0  0  0  0  0  0  0  0  0  0
   -1.0550   21.5021  -30.3487 H   0  0  0  0  0  0  0  0  0  0  0  0
   -2.8430   25.2700  -30.6010 H   0  0  0  0  0  0  0  0  0  0  0  0
   -7.0131   23.6681  -32.0001 H   0  0  0  0  0  0  0  0  0  0  0  0
   -7.9513   21.3708  -33.4441 H   0  0  0  0  0  0  0  0  0  0  0  0
   -7.4084   18.9648  -33.9389 H   0  0  0  0  0  0  0  0  0  0  0  0
   -5.5918   16.8993  -31.0089 H   0  0  0  0  0  0  0  0  0  0  0  0
   -5.0814   14.5033  -31.4921 H   0  0  0  0  0  0  0  0  0  0  0  0
   -4.4720   13.8570  -33.7430 H   0  0  0  0  0  0  0  0  0  0  0  0
   -4.3259   15.4197  -35.5846 H   0  0  0  0  0  0  0  0  0  0  0  0
   -4.8269   17.8325  -35.1764 H   0  0  0  0  0  0  0  0  0  0  0  0
   -3.7458   19.3112  -31.5947 H   0  0  0  0  0  0  0  0  0  0  0  0
  1  2  1  0
  2  3  1  0
  3  4  1  0
  2  5  1  0
  5  6  1  0
  6  7  1  0
  7  8  2  0
  7  9  1  0
  9 10  1  0
 10 11  1  0
 11 12  1  0
 11 13  2  0
 10 14  2  0
 14 15  1  0
 15 16  2  0
 16 17  1  0
 17 18  2  0
 18 19  1  0
 19 20  2  0
 20 21  1  0
 21 22  2  0
 22 23  1  0
 23 24  2  0
 18 25  1  0
 25 26  2  0
 26  9  1  0
 26 15  1  0
 24 19  1  0
  1 27  1  0
  1 28  1  0
  1 29  1  0
  2 30  1  1
  3 31  1  0
  3 32  1  0
  4 33  1  0
  5 34  1  0
  6 35  1  0
  6 36  1  0
 12 37  1  0
 14 38  1  0
 16 39  1  0
 17 40  1  0
 20 41  1  0
 21 42  1  0
 22 43  1  0
 23 44  1  0
 24 45  1  0
 25 46  1  0
M  CHG  2  12  -1  22   1
M  END
>  <UniqueID>  (93) 
92

>  <SMILES>  (93) 
C[C@@H](CO)NCC(=O)n1c(C([NH-])=O)cc2ccc(-c3cc[nH+]cc3)cc21

>  <Energy>  (93) 
89.17193596039719

>  <Genealogy>  (93) 
CC(CO)NCC(=O)n1c(C([NH-])=O)cc2ccc(-c3cc[nH+]cc3)cc21 (protonated)
C[C@@H](CO)NCC(=O)n1c(C([NH-])=O)cc2ccc(-c3cc[nH+]cc3)cc21 (chirality)
C[C@@H](CO)NCC(=O)n1c(C([NH-])=O)cc2ccc(-c3cc[nH+]cc3)cc21 (3D coordinates assigned)
C[C@@H](CO)NCC(=O)n1c(C([NH-])=O)cc2ccc(-c3cc[nH+]cc3)cc21 (optimized conformer: 89.17193596039719 kcal/mol)

>  <smiles>  (93) 
CC(CO)NCC(=O)n1c(C(N)=O)cc2ccc(-c3ccncc3)cc21

>  <score_type>  (93) 
oracle

>  <origin>  (93) 
adg

>  <m_score__min__energy>  (93) 
-11.01

>  <m_primary>  (93) 
energy

$$$$
93:0
     RDKit          3D

 50 52  0  0  0  0  0  0  0  0999 V2000
   -3.4980   21.8200  -27.5590 C   0  0  0  0  0  0  0  0  0  0  0  0
   -2.4010   22.8880  -27.5300 C   0  0  1  0  0  0  0  0  0  0  0  0
   -1.1590   22.2680  -27.2420 O   0  0  0  0  0  0  0  0  0  0  0  0
   -0.1240   23.2070  -26.9510 C   0  0  0  0  0  0  0  0  0  0  0  0
   -0.1730   23.6120  -25.4690 C   0  0  0  0  0  0  0  0  0  0  0  0
    1.2100   22.5120  -27.2340 C   0  0  0  0  0  0  0  0  0  0  0  0
   -0.1750   24.3900  -27.7670 O   0  0  0  0  0  0  0  0  0  0  0  0
   -1.2140   24.6740  -28.6520 C   0  0  0  0  0  0  0  0  0  0  0  0
   -1.2200   25.7650  -29.2810 O   0  0  0  0  0  0  0  0  0  0  0  0
   -2.3060   23.6760  -28.8510 C   0  0  1  0  0  0  0  0  0  0  0  0
   -2.0130   22.7670  -30.0680 C   0  0  0  0  0  0  0  0  0  0  0  0
   -3.1840   22.0620  -30.4800 O   0  0  0  0  0  0  0  0  0  0  0  0
   -4.0050   22.4740  -31.5370 C   0  0  0  0  0  0  0  0  0  0  0  0
   -3.5250   22.6450  -32.6910 O   0  0  0  0  0  0  0  0  0  0  0  0
   -5.3930   22.7480  -31.2940 N   0  0  0  0  0  0  0  0  0  0  0  0
   -5.9540   23.9240  -30.8960 C   0  0  0  0  0  0  0  0  0  0  0  0
   -5.2200   25.1330  -30.4700 C   0  0  0  0  0  0  0  0  0  0  0  0
   -3.8530   25.3010  -30.8380 N   0  0  0  0  0  0  0  0  0  0  0  0
   -5.7970   26.0380  -29.8120 O   0  0  0  0  0  0  0  0  0  0  0  0
   -7.3440   23.8180  -30.8750 C   0  0  0  0  0  0  0  0  0  0  0  0
   -7.6180   22.5290  -31.2750 C   0  0  0  0  0  0  0  0  0  0  0  0
   -8.8410   21.8900  -31.4640 C   0  0  0  0  0  0  0  0  0  0  0  0
   -8.8260   20.5650  -31.9310 C   0  0  0  0  0  0  0  0  0  0  0  0
   -7.5990   19.9060  -32.1940 C   0  0  0  0  0  0  0  0  0  0  0  0
   -7.5950   18.5050  -32.7400 C   0  0  0  0  0  0  0  0  0  0  0  0
   -6.3430   18.2630  -33.5190 C   0  0  0  0  0  0  0  0  0  0  0  0
   -5.5060   17.4100  -33.1230 O   0  0  0  0  0  0  0  0  0  0  0  0
   -6.0780   19.0090  -34.6610 O   0  0  0  0  0  0  0  0  0  0  0  0
   -6.3790   20.5900  -32.0000 C   0  0  0  0  0  0  0  0  0  0  0  0
   -6.4230   21.9050  -31.5210 C   0  0  0  0  0  0  0  0  0  0  0  0
   -3.7747   21.5506  -26.5290 H   0  0  0  0  0  0  0  0  0  0  0  0
   -4.3802   22.2147  -28.0844 H   0  0  0  0  0  0  0  0  0  0  0  0
   -3.1271   20.9276  -28.0844 H   0  0  0  0  0  0  0  0  0  0  0  0
   -2.6590   23.6147  -26.7456 H   0  0  0  0  0  0  0  0  0  0  0  0
   -0.0646   22.7159  -24.8402 H   0  0  0  0  0  0  0  0  0  0  0  0
    0.6469   24.3128  -25.2531 H   0  0  0  0  0  0  0  0  0  0  0  0
   -1.1364   24.0971  -25.2531 H   0  0  0  0  0  0  0  0  0  0  0  0
    1.6996   22.2569  -26.2826 H   0  0  0  0  0  0  0  0  0  0  0  0
    1.0296   21.5933  -27.8114 H   0  0  0  0  0  0  0  0  0  0  0  0
    1.8595   23.1863  -27.8114 H   0  0  0  0  0  0  0  0  0  0  0  0
   -3.2682   24.1578  -29.0792 H   0  0  0  0  0  0  0  0  0  0  0  0
   -1.6563   23.3887  -30.9025 H   0  0  0  0  0  0  0  0  0  0  0  0
   -1.2482   22.0318  -29.7773 H   0  0  0  0  0  0  0  0  0  0  0  0
   -3.0990   25.3000  -30.1150 H   0  0  0  0  0  0  0  0  0  0  0  0
   -8.0681   24.5983  -30.5978 H   0  0  0  0  0  0  0  0  0  0  0  0
   -9.7892   22.4066  -31.2542 H   0  0  0  0  0  0  0  0  0  0  0  0
   -9.7755   20.0340  -32.0941 H   0  0  0  0  0  0  0  0  0  0  0  0
   -7.6494   17.7892  -31.9065 H   0  0  0  0  0  0  0  0  0  0  0  0
   -8.4632   18.3734  -33.4025 H   0  0  0  0  0  0  0  0  0  0  0  0
   -5.4180   20.1019  -32.2197 H   0  0  0  0  0  0  0  0  0  0  0  0
  1  2  1  0
  2  3  1  0
  3  4  1  0
  4  5  1  0
  4  6  1  0
  4  7  1  0
  7  8  1  0
  8  9  2  0
  8 10  1  0
 10 11  1  0
 11 12  1  0
 12 13  1  0
 13 14  2  0
 13 15  1  0
 15 16  1  0
 16 17  1  0
 17 18  1  0
 17 19  2  0
 16 20  2  0
 20 21  1  0
 21 22  2  0
 22 23  1  0
 23 24  2  0
 24 25  1  0
 25 26  1  0
 26 27  2  0
 26 28  1  0
 24 29  1  0
 29 30  2  0
 10  2  1  0
 30 15  1  0
 30 21  1  0
  1 31  1  0
  1 32  1  0
  1 33  1  0
  2 34  1  1
  5 35  1  0
  5 36  1  0
  5 37  1  0
  6 38  1  0
  6 39  1  0
  6 40  1  0
 10 41  1  6
 11 42  1  0
 11 43  1  0
 18 44  1  0
 20 45  1  0
 22 46  1  0
 23 47  1  0
 25 48  1  0
 25 49  1  0
 29 50  1  0
M  CHG  2  18  -1  28  -1
M  END
>  <UniqueID>  (94) 
93

>  <SMILES>  (94) 
C[C@H]1OC(C)(C)OC(=O)[C@H]1COC(=O)n1c(C([NH-])=O)cc2ccc(CC(=O)[O-])cc21

>  <Energy>  (94) 
87.63208590362142

>  <Genealogy>  (94) 
C[C@H]1OC(C)(C)OC(=O)C1COC(=O)n1c(C([NH-])=O)cc2ccc(CC(=O)[O-])cc21 (protonated)
C[C@H]1OC(C)(C)OC(=O)[C@H]1COC(=O)n1c(C([NH-])=O)cc2ccc(CC(=O)[O-])cc21 (chirality)
C[C@H]1OC(C)(C)OC(=O)[C@H]1COC(=O)n1c(C([NH-])=O)cc2ccc(CC(=O)[O-])cc21 (3D coordinates assigned)
C[C@H]1OC(C)(C)OC(=O)[C@H]1COC(=O)n1c(C([NH-])=O)cc2ccc(CC(=O)[O-])cc21 (nonaromatic ring conformer: 87.63208590362142 kcal/mol)

>  <smiles>  (94) 
C[C@H]1OC(C)(C)OC(=O)C1COC(=O)n1c(C(N)=O)cc2ccc(CC(=O)O)cc21

>  <score_type>  (94) 
oracle

>  <origin>  (94) 
adg

>  <m_score__min__energy>  (94) 
-11.6

>  <m_primary>  (94) 
energy

$$$$
94:0
     RDKit          3D

 40 41  0  0  0  0  0  0  0  0999 V2000
    0.4800   23.8040  -27.9490 C   0  0  0  0  0  0  0  0  0  0  0  0
   -0.6260   23.6460  -28.8820 N   0  0  0  0  0  0  0  0  0  0  0  0
   -1.9210   24.2310  -28.7010 C   0  0  0  0  0  0  0  0  0  0  0  0
   -2.2070   25.2690  -29.3560 O   0  0  0  0  0  0  0  0  0  0  0  0
   -2.8990   23.6550  -27.7020 C   0  0  0  0  0  0  0  0  0  0  0  0
   -3.9370   22.6780  -28.2990 C   0  0  0  0  0  0  0  0  0  0  0  0
   -3.4700   21.9810  -29.5900 C   0  0  0  0  0  0  0  0  0  0  0  0
   -3.9540   22.6300  -30.8610 C   0  0  0  0  0  0  0  0  0  0  0  0
   -3.1100   23.0970  -31.6730 O   0  0  0  0  0  0  0  0  0  0  0  0
   -5.3640   22.7940  -31.1360 N   0  0  0  0  0  0  0  0  0  0  0  0
   -6.1200   23.8920  -30.8420 C   0  0  0  0  0  0  0  0  0  0  0  0
   -5.6030   25.1820  -30.3550 C   0  0  0  0  0  0  0  0  0  0  0  0
   -4.2420   25.5460  -30.5690 N   0  0  0  0  0  0  0  0  0  0  0  0
   -6.3850   25.9980  -29.7970 O   0  0  0  0  0  0  0  0  0  0  0  0
   -7.4650   23.6590  -31.0950 C   0  0  0  0  0  0  0  0  0  0  0  0
   -7.5250   22.3710  -31.5640 C   0  0  0  0  0  0  0  0  0  0  0  0
   -8.6340   21.6160  -31.9350 C   0  0  0  0  0  0  0  0  0  0  0  0
   -8.4240   20.2830  -32.3210 C   0  0  0  0  0  0  0  0  0  0  0  0
   -7.1210   19.7340  -32.3260 C   0  0  0  0  0  0  0  0  0  0  0  0
   -6.9190   18.2900  -32.6800 C   0  0  0  0  0  0  0  0  0  0  0  0
   -6.0220   20.5220  -31.9230 C   0  0  0  0  0  0  0  0  0  0  0  0
   -6.2490   21.8610  -31.5730 C   0  0  0  0  0  0  0  0  0  0  0  0
    0.1005   23.7498  -26.9180 H   0  0  0  0  0  0  0  0  0  0  0  0
    1.2147   23.0017  -28.1120 H   0  0  0  0  0  0  0  0  0  0  0  0
    0.9606   24.7799  -28.1120 H   0  0  0  0  0  0  0  0  0  0  0  0
   -2.3253   23.1167  -26.9331 H   0  0  0  0  0  0  0  0  0  0  0  0
   -3.4697   24.5061  -27.3021 H   0  0  0  0  0  0  0  0  0  0  0  0
   -4.1561   21.9046  -27.5481 H   0  0  0  0  0  0  0  0  0  0  0  0
   -4.8223   23.2755  -28.5620 H   0  0  0  0  0  0  0  0  0  0  0  0
   -2.3701   21.9808  -29.6017 H   0  0  0  0  0  0  0  0  0  0  0  0
   -3.9003   20.9688  -29.5722 H   0  0  0  0  0  0  0  0  0  0  0  0
   -3.6430   24.9760  -31.2040 H   0  0  0  0  0  0  0  0  0  0  0  0
   -3.8640   26.4380  -30.1780 H   0  0  0  0  0  0  0  0  0  0  0  0
   -8.3027   24.3571  -30.9505 H   0  0  0  0  0  0  0  0  0  0  0  0
   -9.6443   22.0509  -31.9259 H   0  0  0  0  0  0  0  0  0  0  0  0
   -9.2796   19.6607  -32.6219 H   0  0  0  0  0  0  0  0  0  0  0  0
   -6.8357   17.6948  -31.7587 H   0  0  0  0  0  0  0  0  0  0  0  0
   -7.7761   17.9339  -33.2704 H   0  0  0  0  0  0  0  0  0  0  0  0
   -5.9971   18.1827  -33.2704 H   0  0  0  0  0  0  0  0  0  0  0  0
   -5.0089   20.0952  -31.8842 H   0  0  0  0  0  0  0  0  0  0  0  0
  1  2  1  0
  2  3  1  0
  3  4  2  0
  3  5  1  0
  5  6  1  0
  6  7  1  0
  7  8  1  0
  8  9  2  0
  8 10  1  0
 10 11  1  0
 11 12  1  0
 12 13  1  0
 12 14  2  0
 11 15  2  0
 15 16  1  0
 16 17  2  0
 17 18  1  0
 18 19  2  0
 19 20  1  0
 19 21  1  0
 21 22  2  0
 22 10  1  0
 22 16  1  0
  1 23  1  0
  1 24  1  0
  1 25  1  0
  5 26  1  0
  5 27  1  0
  6 28  1  0
  6 29  1  0
  7 30  1  0
  7 31  1  0
 13 32  1  0
 13 33  1  0
 15 34  1  0
 17 35  1  0
 18 36  1  0
 20 37  1  0
 20 38  1  0
 20 39  1  0
 21 40  1  0
M  CHG  1   2  -1
M  END
>  <UniqueID>  (95) 
94

>  <SMILES>  (95) 
C[N-]C(=O)CCCC(=O)n1c(C(N)=O)cc2ccc(C)cc21

>  <Energy>  (95) 
78.02204458672904

>  <Genealogy>  (95) 
C[N-]C(=O)CCCC(=O)n1c(C(N)=O)cc2ccc(C)cc21 (protonated)
C[N-]C(=O)CCCC(=O)n1c(C(N)=O)cc2ccc(C)cc21 (3D coordinates assigned)
C[N-]C(=O)CCCC(=O)n1c(C(N)=O)cc2ccc(C)cc21 (optimized conformer: 78.02204458672904 kcal/mol)

>  <smiles>  (95) 
CNC(=O)CCCC(=O)n1c(C(N)=O)cc2ccc(C)cc21

>  <score_type>  (95) 
oracle

>  <origin>  (95) 
adg

>  <m_score__min__energy>  (95) 
-10.77

>  <m_primary>  (95) 
energy

$$$$
95:0
     RDKit          3D

 36 38  0  0  0  0  0  0  0  0999 V2000
   -2.3500   25.1910  -28.6400 N   0  0  0  0  0  0  0  0  0  0  0  0
   -1.5590   24.1530  -29.2220 C   0  0  0  0  0  0  0  0  0  0  0  0
   -0.3280   24.1010  -28.9600 O   0  0  0  0  0  0  0  0  0  0  0  0
   -2.1640   23.1740  -30.1510 C   0  0  0  0  0  0  0  0  0  0  0  0
   -1.5600   21.9710  -30.5120 C   0  0  0  0  0  0  0  0  0  0  0  0
   -2.4820   21.3210  -31.2990 C   0  0  0  0  0  0  0  0  0  0  0  0
   -2.4000   20.0880  -31.9380 C   0  0  0  0  0  0  0  0  0  0  0  0
   -3.4940   19.6750  -32.7150 C   0  0  0  0  0  0  0  0  0  0  0  0
   -4.6410   20.4990  -32.8450 C   0  0  0  0  0  0  0  0  0  0  0  0
   -5.7970   20.0630  -33.7110 C   0  0  0  0  0  0  0  0  0  0  0  0
   -6.7620   19.1100  -32.9700 C   0  0  0  0  0  0  0  0  0  0  0  0
   -8.1010   19.5400  -33.0130 O   0  0  0  0  0  0  0  0  0  0  0  0
   -6.5980   17.6190  -33.2980 C   0  0  0  0  0  0  0  0  0  0  0  0
   -6.1800   17.3490  -31.8590 C   0  0  0  0  0  0  0  0  0  0  0  0
   -6.3330   18.8280  -31.5280 C   0  0  0  0  0  0  0  0  0  0  0  0
   -4.6880   21.7440  -32.1790 C   0  0  0  0  0  0  0  0  0  0  0  0
   -3.5900   22.1230  -31.3980 C   0  0  0  0  0  0  0  0  0  0  0  0
   -3.4100   23.2660  -30.6980 N   0  0  0  0  0  0  0  0  0  0  0  0
   -4.3170   24.3780  -30.6210 C   0  0  0  0  0  0  0  0  0  0  0  0
   -5.5370   24.1900  -30.3690 O   0  0  0  0  0  0  0  0  0  0  0  0
   -3.8630   25.6720  -30.8400 O   0  0  0  0  0  0  0  0  0  0  0  0
   -3.3810   25.2370  -28.7900 H   0  0  0  0  0  0  0  0  0  0  0  0
   -1.9050   25.9020  -28.0160 H   0  0  0  0  0  0  0  0  0  0  0  0
   -0.5582   21.6165  -30.2278 H   0  0  0  0  0  0  0  0  0  0  0  0
   -1.5053   19.4559  -31.8376 H   0  0  0  0  0  0  0  0  0  0  0  0
   -3.4612   18.7026  -33.2281 H   0  0  0  0  0  0  0  0  0  0  0  0
   -6.3565   20.9552  -34.0288 H   0  0  0  0  0  0  0  0  0  0  0  0
   -5.3836   19.5182  -34.5726 H   0  0  0  0  0  0  0  0  0  0  0  0
   -8.3200   19.7180  -33.9640 H   0  0  0  0  0  0  0  0  0  0  0  0
   -7.5316   17.1193  -33.5958 H   0  0  0  0  0  0  0  0  0  0  0  0
   -5.9574   17.2997  -34.1333 H   0  0  0  0  0  0  0  0  0  0  0  0
   -6.8699   16.6931  -31.3078 H   0  0  0  0  0  0  0  0  0  0  0  0
   -5.2349   16.8285  -31.6452 H   0  0  0  0  0  0  0  0  0  0  0  0
   -7.1096   19.0420  -30.7790 H   0  0  0  0  0  0  0  0  0  0  0  0
   -5.4987   19.3857  -31.0774 H   0  0  0  0  0  0  0  0  0  0  0  0
   -5.5663   22.3997  -32.2720 H   0  0  0  0  0  0  0  0  0  0  0  0
  1  2  1  0
  2  3  2  0
  2  4  1  0
  4  5  2  0
  5  6  1  0
  6  7  2  0
  7  8  1  0
  8  9  2  0
  9 10  1  0
 10 11  1  0
 11 12  1  0
 11 13  1  0
 13 14  1  0
 14 15  1  0
  9 16  1  0
 16 17  2  0
 17 18  1  0
 18 19  1  0
 19 20  2  0
 19 21  1  0
 18  4  1  0
 17  6  1  0
 15 11  1  0
  1 22  1  0
  1 23  1  0
  5 24  1  0
  7 25  1  0
  8 26  1  0
 10 27  1  0
 10 28  1  0
 12 29  1  0
 13 30  1  0
 13 31  1  0
 14 32  1  0
 14 33  1  0
 15 34  1  0
 15 35  1  0
 16 36  1  0
M  CHG  1  21  -1
M  END
>  <UniqueID>  (96) 
95

>  <SMILES>  (96) 
NC(=O)c1cc2ccc(CC3(O)CCC3)cc2n1C(=O)[O-]

>  <Energy>  (96) 
135.85506860612142

>  <Genealogy>  (96) 
NC(=O)c1cc2ccc(CC3(O)CCC3)cc2n1C(=O)[O-] (protonated)
NC(=O)c1cc2ccc(CC3(O)CCC3)cc2n1C(=O)[O-] (3D coordinates assigned)
NC(=O)c1cc2ccc(CC3(O)CCC3)cc2n1C(=O)[O-] (nonaromatic ring conformer: 135.85506860612142 kcal/mol)

>  <smiles>  (96) 
NC(=O)c1cc2ccc(CC3(O)CCC3)cc2n1C(=O)O

>  <score_type>  (96) 
oracle

>  <origin>  (96) 
adg

>  <m_score__min__energy>  (96) 
-9.7100000000000009

>  <m_primary>  (96) 
energy

$$$$
96:0
     RDKit          3D

 48 50  0  0  0  0  0  0  0  0999 V2000
   -0.0530   21.0180  -35.4790 C   0  0  0  0  0  0  0  0  0  0  0  0
   -0.1290   21.9050  -34.3850 O   0  0  0  0  0  0  0  0  0  0  0  0
   -0.4400   21.1780  -33.2150 C   0  0  0  0  0  0  0  0  0  0  0  0
   -1.7990   20.5000  -33.3950 C   0  0  0  0  0  0  0  0  0  0  0  0
   -2.9460   21.5120  -33.3820 C   0  0  0  0  0  0  0  0  0  0  0  0
   -3.7660   21.3010  -32.2360 O   0  0  0  0  0  0  0  0  0  0  0  0
   -4.1290   22.3340  -31.3670 C   0  0  0  0  0  0  0  0  0  0  0  0
   -3.2460   22.9600  -30.7190 O   0  0  0  0  0  0  0  0  0  0  0  0
   -5.5140   22.6990  -31.2270 N   0  0  0  0  0  0  0  0  0  0  0  0
   -6.0290   23.9000  -30.8350 C   0  0  0  0  0  0  0  0  0  0  0  0
   -5.2590   25.0480  -30.3130 C   0  0  0  0  0  0  0  0  0  0  0  0
   -3.9830   25.3820  -30.8520 N   0  0  0  0  0  0  0  0  0  0  0  0
   -5.7110   25.7110  -29.3410 O   0  0  0  0  0  0  0  0  0  0  0  0
   -7.4200   23.8810  -30.9020 C   0  0  0  0  0  0  0  0  0  0  0  0
   -7.7480   22.6180  -31.3370 C   0  0  0  0  0  0  0  0  0  0  0  0
   -8.9960   22.0470  -31.5710 C   0  0  0  0  0  0  0  0  0  0  0  0
   -9.0380   20.7200  -32.0260 C   0  0  0  0  0  0  0  0  0  0  0  0
   -7.8410   19.9970  -32.2560 C   0  0  0  0  0  0  0  0  0  0  0  0
   -7.8990   18.5630  -32.7050 C   0  0  0  0  0  0  0  0  0  0  0  0
   -6.5500   18.1210  -33.2040 C   0  0  0  0  0  0  0  0  0  0  0  0
   -6.0770   18.5540  -34.4530 C   0  0  0  0  0  0  0  0  0  0  0  0
   -4.8370   18.1160  -34.9290 C   0  0  0  0  0  0  0  0  0  0  0  0
   -4.0640   17.2360  -34.1630 C   0  0  0  0  0  0  0  0  0  0  0  0
   -2.5100   16.6860  -34.7610 Cl  0  0  0  0  0  0  0  0  0  0  0  0
   -4.5350   16.7890  -32.9240 C   0  0  0  0  0  0  0  0  0  0  0  0
   -5.7750   17.2260  -32.4490 C   0  0  0  0  0  0  0  0  0  0  0  0
   -6.5930   20.6090  -32.0040 C   0  0  0  0  0  0  0  0  0  0  0  0
   -6.5810   21.9240  -31.5270 C   0  0  0  0  0  0  0  0  0  0  0  0
    0.0354   19.9859  -35.1088 H   0  0  0  0  0  0  0  0  0  0  0  0
   -0.9624   21.1115  -36.0907 H   0  0  0  0  0  0  0  0  0  0  0  0
    0.8273   21.2648  -36.0907 H   0  0  0  0  0  0  0  0  0  0  0  0
    0.3323   20.4147  -33.0392 H   0  0  0  0  0  0  0  0  0  0  0  0
   -0.4770   21.8603  -32.3530 H   0  0  0  0  0  0  0  0  0  0  0  0
   -1.8059   19.9666  -34.3570 H   0  0  0  0  0  0  0  0  0  0  0  0
   -1.9476   19.8047  -32.5557 H   0  0  0  0  0  0  0  0  0  0  0  0
   -2.5329   22.5311  -33.3523 H   0  0  0  0  0  0  0  0  0  0  0  0
   -3.5530   21.3831  -34.2903 H   0  0  0  0  0  0  0  0  0  0  0  0
   -3.1040   25.1170  -30.3540 H   0  0  0  0  0  0  0  0  0  0  0  0
   -8.1102   24.7022  -30.6586 H   0  0  0  0  0  0  0  0  0  0  0  0
   -9.9210   22.6185  -31.4043 H   0  0  0  0  0  0  0  0  0  0  0  0
  -10.0095   20.2364  -32.2059 H   0  0  0  0  0  0  0  0  0  0  0  0
   -8.1990   17.9286  -31.8579 H   0  0  0  0  0  0  0  0  0  0  0  0
   -8.6317   18.4710  -33.5203 H   0  0  0  0  0  0  0  0  0  0  0  0
   -6.6847   19.2411  -35.0602 H   0  0  0  0  0  0  0  0  0  0  0  0
   -4.4692   18.4633  -35.9058 H   0  0  0  0  0  0  0  0  0  0  0  0
   -3.9298   16.0938  -32.3236 H   0  0  0  0  0  0  0  0  0  0  0  0
   -6.1459   16.8665  -31.4778 H   0  0  0  0  0  0  0  0  0  0  0  0
   -5.6532   20.0646  -32.1787 H   0  0  0  0  0  0  0  0  0  0  0  0
  1  2  1  0
  2  3  1  0
  3  4  1  0
  4  5  1  0
  5  6  1  0
  6  7  1  0
  7  8  2  0
  7  9  1  0
  9 10  1  0
 10 11  1  0
 11 12  1  0
 11 13  2  0
 10 14  2  0
 14 15  1  0
 15 16  2  0
 16 17  1  0
 17 18  2  0
 18 19  1  0
 19 20  1  0
 20 21  2  0
 21 22  1  0
 22 23  2  0
 23 24  1  0
 23 25  1  0
 25 26  2  0
 18 27  1  0
 27 28  2  0
 28  9  1  0
 28 15  1  0
 26 20  1  0
  1 29  1  0
  1 30  1  0
  1 31  1  0
  3 32  1  0
  3 33  1  0
  4 34  1  0
  4 35  1  0
  5 36  1  0
  5 37  1  0
 12 38  1  0
 14 39  1  0
 16 40  1  0
 17 41  1  0
 19 42  1  0
 19 43  1  0
 21 44  1  0
 22 45  1  0
 25 46  1  0
 26 47  1  0
 27 48  1  0
M  CHG  1  12  -1
M  END
>  <UniqueID>  (97) 
96

>  <SMILES>  (97) 
COCCCOC(=O)n1c(C([NH-])=O)cc2ccc(Cc3ccc(Cl)cc3)cc21

>  <Energy>  (97) 
80.2383090159577

>  <Genealogy>  (97) 
COCCCOC(=O)n1c(C([NH-])=O)cc2ccc(Cc3ccc(Cl)cc3)cc21 (protonated)
COCCCOC(=O)n1c(C([NH-])=O)cc2ccc(Cc3ccc(Cl)cc3)cc21 (3D coordinates assigned)
COCCCOC(=O)n1c(C([NH-])=O)cc2ccc(Cc3ccc(Cl)cc3)cc21 (optimized conformer: 80.2383090159577 kcal/mol)

>  <smiles>  (97) 
COCCCOC(=O)n1c(C(N)=O)cc2ccc(Cc3ccc(Cl)cc3)cc21

>  <score_type>  (97) 
oracle

>  <origin>  (97) 
adg

>  <m_score__min__energy>  (97) 
-11.77

>  <m_primary>  (97) 
energy

$$$$
97:0
     RDKit          3D

 37 38  0  0  0  0  0  0  0  0999 V2000
   -8.7660   18.6330  -31.2770 C   0  0  0  0  0  0  0  0  0  0  0  0
   -9.4240   19.3020  -32.4790 C   0  0  0  0  0  0  0  0  0  0  0  0
   -8.8510   20.5880  -32.7130 O   0  0  0  0  0  0  0  0  0  0  0  0
   -9.0620   21.6900  -31.8740 C   0  0  0  0  0  0  0  0  0  0  0  0
  -10.0070   21.6930  -31.0380 O   0  0  0  0  0  0  0  0  0  0  0  0
   -8.1480   22.8680  -31.9680 C   0  0  0  0  0  0  0  0  0  0  0  0
   -7.0330   22.7230  -30.9770 C   0  0  0  0  0  0  0  0  0  0  0  0
   -7.2820   22.8190  -29.7450 O   0  0  0  0  0  0  0  0  0  0  0  0
   -5.6760   22.5890  -31.4220 N   0  0  0  0  0  0  0  0  0  0  0  0
   -4.5980   23.3380  -31.0620 C   0  0  0  0  0  0  0  0  0  0  0  0
   -4.6320   24.5840  -30.2680 C   0  0  0  0  0  0  0  0  0  0  0  0
   -5.2070   24.6200  -28.9600 N   0  0  0  0  0  0  0  0  0  0  0  0
   -4.1740   25.6470  -30.7670 O   0  0  0  0  0  0  0  0  0  0  0  0
   -3.4250   22.7720  -31.5570 C   0  0  0  0  0  0  0  0  0  0  0  0
   -3.8250   21.6470  -32.2450 C   0  0  0  0  0  0  0  0  0  0  0  0
   -3.0700   20.6810  -32.8990 C   0  0  0  0  0  0  0  0  0  0  0  0
   -3.7500   19.5930  -33.4750 C   0  0  0  0  0  0  0  0  0  0  0  0
   -5.1630   19.4910  -33.3910 C   0  0  0  0  0  0  0  0  0  0  0  0
   -5.8540   18.2870  -33.9780 C   0  0  0  0  0  0  0  0  0  0  0  0
   -6.0650   18.4380  -35.3380 F   0  0  0  0  0  0  0  0  0  0  0  0
   -7.0750   18.1140  -33.3520 F   0  0  0  0  0  0  0  0  0  0  0  0
   -5.0820   17.1550  -33.7780 F   0  0  0  0  0  0  0  0  0  0  0  0
   -5.8910   20.4850  -32.7000 C   0  0  0  0  0  0  0  0  0  0  0  0
   -5.1890   21.5630  -32.1500 C   0  0  0  0  0  0  0  0  0  0  0  0
   -9.1810   19.0550  -30.3498 H   0  0  0  0  0  0  0  0  0  0  0  0
   -8.9615   17.5509  -31.3071 H   0  0  0  0  0  0  0  0  0  0  0  0
   -7.6808   18.8105  -31.3071 H   0  0  0  0  0  0  0  0  0  0  0  0
   -9.2761   18.6727  -33.3690 H   0  0  0  0  0  0  0  0  0  0  0  0
  -10.4978   19.4238  -32.2738 H   0  0  0  0  0  0  0  0  0  0  0  0
   -7.7293   22.9257  -32.9836 H   0  0  0  0  0  0  0  0  0  0  0  0
   -8.7132   23.7858  -31.7486 H   0  0  0  0  0  0  0  0  0  0  0  0
   -5.7670   23.8220  -28.5900 H   0  0  0  0  0  0  0  0  0  0  0  0
   -5.1580   25.4960  -28.3950 H   0  0  0  0  0  0  0  0  0  0  0  0
   -2.3981   23.1440  -31.4264 H   0  0  0  0  0  0  0  0  0  0  0  0
   -1.9751   20.7646  -32.9641 H   0  0  0  0  0  0  0  0  0  0  0  0
   -3.1793   18.8110  -33.9973 H   0  0  0  0  0  0  0  0  0  0  0  0
   -6.9838   20.4132  -32.5968 H   0  0  0  0  0  0  0  0  0  0  0  0
  1  2  1  0
  2  3  1  0
  3  4  1  0
  4  5  2  0
  4  6  1  0
  6  7  1  0
  7  8  2  0
  7  9  1  0
  9 10  1  0
 10 11  1  0
 11 12  1  0
 11 13  2  0
 10 14  2  0
 14 15  1  0
 15 16  2  0
 16 17  1  0
 17 18  2  0
 18 19  1  0
 19 20  1  0
 19 21  1  0
 19 22  1  0
 18 23  1  0
 23 24  2  0
 24  9  1  0
 24 15  1  0
  1 25  1  0
  1 26  1  0
  1 27  1  0
  2 28  1  0
  2 29  1  0
  6 30  1  0
  6 31  1  0
 12 32  1  0
 12 33  1  0
 14 34  1  0
 16 35  1  0
 17 36  1  0
 23 37  1  0
M  END
>  <UniqueID>  (98) 
97

>  <SMILES>  (98) 
CCOC(=O)CC(=O)n1c(C(N)=O)cc2ccc(C(F)(F)F)cc21

>  <Energy>  (98) 
70.24956225632054

>  <Genealogy>  (98) 
CCOC(=O)CC(=O)n1c(C(N)=O)cc2ccc(C(F)(F)F)cc21 (3D coordinates assigned)
CCOC(=O)CC(=O)n1c(C(N)=O)cc2ccc(C(F)(F)F)cc21 (optimized conformer: 70.24956225632054 kcal/mol)

>  <smiles>  (98) 
CCOC(=O)CC(=O)n1c(C(N)=O)cc2ccc(C(F)(F)F)cc21

>  <score_type>  (98) 
oracle

>  <origin>  (98) 
adg

>  <m_score__min__energy>  (98) 
-7.8600000000000003

>  <m_primary>  (98) 
energy

$$$$
98:0
     RDKit          3D

 46 49  0  0  0  0  0  0  0  0999 V2000
   -4.0530   25.6570  -30.8190 N   0  0  0  0  0  0  0  0  0  0  0  0
   -5.1120   24.9610  -30.1650 C   0  0  0  0  0  0  0  0  0  0  0  0
   -5.6100   25.4400  -29.1140 O   0  0  0  0  0  0  0  0  0  0  0  0
   -5.5830   23.6680  -30.7040 C   0  0  0  0  0  0  0  0  0  0  0  0
   -6.8540   23.4780  -31.2440 C   0  0  0  0  0  0  0  0  0  0  0  0
   -6.8640   22.1840  -31.7090 C   0  0  0  0  0  0  0  0  0  0  0  0
   -7.8790   21.4660  -32.3340 C   0  0  0  0  0  0  0  0  0  0  0  0
   -7.6220   20.1310  -32.6850 C   0  0  0  0  0  0  0  0  0  0  0  0
   -6.3660   19.5330  -32.4010 C   0  0  0  0  0  0  0  0  0  0  0  0
   -6.1130   18.1140  -32.7600 C   0  0  0  0  0  0  0  0  0  0  0  0
   -6.2130   17.6700  -34.0850 C   0  0  0  0  0  0  0  0  0  0  0  0
   -5.9800   16.3670  -34.3880 N   0  0  0  0  0  0  0  0  0  0  0  0
   -5.6570   15.4610  -33.4280 C   0  0  0  0  0  0  0  0  0  0  0  0
   -5.3900   14.0800  -33.7440 N   0  0  0  0  0  0  0  0  0  0  0  0
   -4.5190   13.1070  -33.0600 C   0  0  0  0  0  0  0  0  0  0  0  0
   -4.7100   12.9750  -31.5590 C   0  0  0  0  0  0  0  0  0  0  0  0
   -3.4580   13.6540  -32.1180 C   0  0  0  0  0  0  0  0  0  0  0  0
   -5.5450   15.8750  -32.1380 N   0  0  0  0  0  0  0  0  0  0  0  0
   -5.7660   17.1680  -31.7860 C   0  0  0  0  0  0  0  0  0  0  0  0
   -5.3600   20.2980  -31.7640 C   0  0  0  0  0  0  0  0  0  0  0  0
   -5.6380   21.6330  -31.4430 C   0  0  0  0  0  0  0  0  0  0  0  0
   -4.8390   22.5300  -30.8240 N   0  0  0  0  0  0  0  0  0  0  0  0
   -3.5080   22.2900  -30.3410 C   0  0  0  0  0  0  0  0  0  0  0  0
   -3.2180   21.1820  -29.8120 O   0  0  0  0  0  0  0  0  0  0  0  0
   -2.5310   23.2790  -30.4830 O   0  0  0  0  0  0  0  0  0  0  0  0
   -1.2960   23.2490  -29.7790 C   0  0  0  0  0  0  0  0  0  0  0  0
   -1.1890   24.4730  -28.9270 C   0  0  0  0  0  0  0  0  0  0  0  0
   -2.3350   25.2850  -28.6810 N   0  0  0  0  0  0  0  0  0  0  0  0
   -0.0670   24.8150  -28.4640 O   0  0  0  0  0  0  0  0  0  0  0  0
   -3.0730   25.2970  -30.7850 H   0  0  0  0  0  0  0  0  0  0  0  0
   -7.6751   24.2086  -31.2887 H   0  0  0  0  0  0  0  0  0  0  0  0
   -8.8533   21.9303  -32.5467 H   0  0  0  0  0  0  0  0  0  0  0  0
   -8.4035   19.5411  -33.1863 H   0  0  0  0  0  0  0  0  0  0  0  0
   -6.4810   18.3790  -34.8822 H   0  0  0  0  0  0  0  0  0  0  0  0
   -5.8200   13.7270  -34.6290 H   0  0  0  0  0  0  0  0  0  0  0  0
   -4.5050   12.4118  -33.9124 H   0  0  0  0  0  0  0  0  0  0  0  0
   -5.4785   13.5729  -31.0472 H   0  0  0  0  0  0  0  0  0  0  0  0
   -4.9007   12.1401  -30.8686 H   0  0  0  0  0  0  0  0  0  0  0  0
   -3.3255   14.7405  -32.0090 H   0  0  0  0  0  0  0  0  0  0  0  0
   -2.3740   13.5109  -31.9975 H   0  0  0  0  0  0  0  0  0  0  0  0
   -5.6724   17.4736  -30.7334 H   0  0  0  0  0  0  0  0  0  0  0  0
   -4.3819   19.8543  -31.5263 H   0  0  0  0  0  0  0  0  0  0  0  0
   -1.2564   22.3526  -29.1427 H   0  0  0  0  0  0  0  0  0  0  0  0
   -0.4616   23.2218  -30.4952 H   0  0  0  0  0  0  0  0  0  0  0  0
   -3.2640   25.0340  -29.0850 H   0  0  0  0  0  0  0  0  0  0  0  0
   -2.2520   26.1500  -28.1000 H   0  0  0  0  0  0  0  0  0  0  0  0
  1  2  1  0
  2  3  2  0
  2  4  1  0
  4  5  2  0
  5  6  1  0
  6  7  2  0
  7  8  1  0
  8  9  2  0
  9 10  1  0
 10 11  2  0
 11 12  1  0
 12 13  2  0
 13 14  1  0
 14 15  1  0
 15 16  1  0
 16 17  1  0
 13 18  1  0
 18 19  2  0
  9 20  1  0
 20 21  2  0
 21 22  1  0
 22 23  1  0
 23 24  2  0
 23 25  1  0
 25 26  1  0
 26 27  1  0
 27 28  1  0
 27 29  2  0
 22  4  1  0
 21  6  1  0
 19 10  1  0
 17 15  1  0
  1 30  1  0
  5 31  1  0
  7 32  1  0
  8 33  1  0
 11 34  1  0
 14 35  1  0
 15 36  1  0
 16 37  1  0
 16 38  1  0
 17 39  1  0
 17 40  1  0
 19 41  1  0
 20 42  1  0
 26 43  1  0
 26 44  1  0
 28 45  1  0
 28 46  1  0
M  CHG  1   1  -1
M  END
>  <UniqueID>  (99) 
98

>  <SMILES>  (99) 
[NH-]C(=O)c1cc2ccc(-c3cnc(NC4CC4)nc3)cc2n1C(=O)OCC(N)=O

>  <Energy>  (99) 
361.20639202814425

>  <Genealogy>  (99) 
[NH-]C(=O)c1cc2ccc(-c3cnc(NC4CC4)nc3)cc2n1C(=O)OCC(N)=O (protonated)
[NH-]C(=O)c1cc2ccc(-c3cnc(NC4CC4)nc3)cc2n1C(=O)OCC(N)=O (3D coordinates assigned)
[NH-]C(=O)c1cc2ccc(-c3cnc(NC4CC4)nc3)cc2n1C(=O)OCC(N)=O (nonaromatic ring conformer: 361.20639202814425 kcal/mol)

>  <smiles>  (99) 
NC(=O)COC(=O)n1c(C(N)=O)cc2ccc(-c3cnc(NC4CC4)nc3)cc21

>  <score_type>  (99) 
oracle

>  <origin>  (99) 
adg

>  <m_score__min__energy>  (99) 
-11.06

>  <m_primary>  (99) 
energy

$$$$
