0:0
     RDKit          3D

 40 41  0  0  0  0  0  0  0  0999 V2000
   -3.7950   22.7220  -28.9370 C   0  0  0  0  0  0  0  0  0  0  0  0
   -3.1340   23.1470  -30.1910 N   0  0  2  0  0  0  0  0  0  0  0  0
   -3.9210   22.7330  -31.3370 C   0  0  0  0  0  0  0  0  0  0  0  0
   -3.3560   22.4040  -32.4170 O   0  0  0  0  0  0  0  0  0  0  0  0
   -5.3510   22.8600  -31.3120 N   0  0  0  0  0  0  0  0  0  0  0  0
   -6.0950   23.9640  -31.0210 C   0  0  0  0  0  0  0  0  0  0  0  0
   -5.5730   25.2460  -30.5090 C   0  0  0  0  0  0  0  0  0  0  0  0
   -4.2280   25.6290  -30.7900 N   0  0  0  0  0  0  0  0  0  0  0  0
   -6.3110   26.0220  -29.8480 O   0  0  0  0  0  0  0  0  0  0  0  0
   -7.4530   23.6970  -31.2020 C   0  0  0  0  0  0  0  0  0  0  0  0
   -7.5150   22.3840  -31.6100 C   0  0  0  0  0  0  0  0  0  0  0  0
   -8.6140   21.5950  -31.9310 C   0  0  0  0  0  0  0  0  0  0  0  0
   -8.3790   20.2700  -32.3370 C   0  0  0  0  0  0  0  0  0  0  0  0
   -7.0550   19.7660  -32.4370 C   0  0  0  0  0  0  0  0  0  0  0  0
   -6.8160   18.3310  -32.8340 C   0  0  0  0  0  0  0  0  0  0  0  0
   -5.8040   17.7750  -32.0720 F   0  0  0  0  0  0  0  0  0  0  0  0
   -6.4490   18.2480  -34.1670 F   0  0  0  0  0  0  0  0  0  0  0  0
   -7.9770   17.6060  -32.6410 F   0  0  0  0  0  0  0  0  0  0  0  0
   -5.9670   20.5930  -32.0770 C   0  0  0  0  0  0  0  0  0  0  0  0
   -6.2340   21.9020  -31.6670 C   0  0  0  0  0  0  0  0  0  0  0  0
   -1.7220   22.6720  -30.3460 C   0  0  1  0  0  0  0  0  0  0  0  0
   -0.7560   23.2420  -29.2710 C   0  0  0  0  0  0  0  0  0  0  0  0
   -0.9550   24.6900  -28.9390 C   0  0  0  0  0  0  0  0  0  0  0  0
   -1.9840   25.2990  -29.3330 O   0  0  0  0  0  0  0  0  0  0  0  0
   -0.0070   25.3660  -28.1820 O   0  0  0  0  0  0  0  0  0  0  0  0
   -1.5970   21.1720  -30.5080 C   0  0  0  0  0  0  0  0  0  0  0  0
   -0.5240   20.6760  -30.9440 O   0  0  0  0  0  0  0  0  0  0  0  0
   -2.6680   20.3300  -30.2310 O   0  0  0  0  0  0  0  0  0  0  0  0
   -3.2196   23.0920  -28.0756 H   0  0  0  0  0  0  0  0  0  0  0  0
   -4.8141   23.1345  -28.9017 H   0  0  0  0  0  0  0  0  0  0  0  0
   -3.8426   21.6236  -28.9017 H   0  0  0  0  0  0  0  0  0  0  0  0
   -3.1290   24.1930  -30.1880 H   0  0  0  0  0  0  0  0  0  0  0  0
   -3.5120   25.6680  -30.0310 H   0  0  0  0  0  0  0  0  0  0  0  0
   -8.2947   24.3889  -31.0507 H   0  0  0  0  0  0  0  0  0  0  0  0
   -9.6366   21.9957  -31.8691 H   0  0  0  0  0  0  0  0  0  0  0  0
   -9.2298   19.6164  -32.5799 H   0  0  0  0  0  0  0  0  0  0  0  0
   -4.9347   20.2154  -32.1185 H   0  0  0  0  0  0  0  0  0  0  0  0
   -1.3903   23.0989  -31.3040 H   0  0  0  0  0  0  0  0  0  0  0  0
   -0.8918   22.6593  -28.3480 H   0  0  0  0  0  0  0  0  0  0  0  0
    0.2555   23.1620  -29.6958 H   0  0  0  0  0  0  0  0  0  0  0  0
  1  2  1  0
  2  3  1  0
  3  4  2  0
  3  5  1  0
  5  6  1  0
  6  7  1  0
  7  8  1  0
  7  9  2  0
  6 10  2  0
 10 11  1  0
 11 12  2  0
 12 13  1  0
 13 14  2  0
 14 15  1  0
 15 16  1  0
 15 17  1  0
 15 18  1  0
 14 19  1  0
 19 20  2  0
  2 21  1  0
 21 22  1  0
 22 23  1  0
 23 24  2  0
 23 25  1  0
 21 26  1  0
 26 27  2  0
 26 28  1  0
 20  5  1  0
 20 11  1  0
  1 29  1  0
  1 30  1  0
  1 31  1  0
  2 32  1  1
  8 33  1  0
 10 34  1  0
 12 35  1  0
 13 36  1  0
 19 37  1  0
 21 38  1  6
 22 39  1  0
 22 40  1  0
M  CHG  4   2   1   8  -1  25  -1  28  -1
M  END
>  <UniqueID>  (1) 
1

>  <SMILES>  (1) 
C[N@H+](C(=O)n1c(C([NH-])=O)cc2ccc(C(F)(F)F)cc21)[C@@H](CC(=O)[O-])C(=O)[O-]

>  <Energy>  (1) 
89.97510657950116

>  <Genealogy>  (1) 
C[NH+](C(=O)n1c(C([NH-])=O)cc2ccc(C(F)(F)F)cc21)[C@@H](CC(=O)[O-])C(=O)[O-] (protonated)
C[N@H+](C(=O)n1c(C([NH-])=O)cc2ccc(C(F)(F)F)cc21)[C@@H](CC(=O)[O-])C(=O)[O-] (chirality)
C[N@H+](C(=O)n1c(C([NH-])=O)cc2ccc(C(F)(F)F)cc21)[C@@H](CC(=O)[O-])C(=O)[O-] (3D coordinates assigned)
C[N@H+](C(=O)n1c(C([NH-])=O)cc2ccc(C(F)(F)F)cc21)[C@@H](CC(=O)[O-])C(=O)[O-] (optimized conformer: 89.97510657950116 kcal/mol)

>  <smiles>  (1) 
CN(C(=O)n1c(C(N)=O)cc2ccc(C(F)(F)F)cc21)[C@@H](CC(=O)O)C(=O)O

>  <score_type>  (1) 
oracle

>  <origin>  (1) 
adg

>  <m_score__min__energy>  (1) 
-11.029999999999999

>  <m_primary>  (1) 
energy

$$$$
1:0
     RDKit          3D

 41 42  0  0  0  0  0  0  0  0999 V2000
   -1.4320   22.9780  -30.4710 N   0  0  0  0  0  0  0  0  0  0  0  0
   -1.7890   21.9680  -31.4210 C   0  0  0  0  0  0  0  0  0  0  0  0
   -0.8800   21.2920  -31.9740 O   0  0  0  0  0  0  0  0  0  0  0  0
   -3.2040   21.7420  -31.7870 C   0  0  0  0  0  0  0  0  0  0  0  0
   -3.6350   20.7430  -32.6610 C   0  0  0  0  0  0  0  0  0  0  0  0
   -5.0110   20.7910  -32.6170 C   0  0  0  0  0  0  0  0  0  0  0  0
   -5.9560   20.0120  -33.2760 C   0  0  0  0  0  0  0  0  0  0  0  0
   -7.3160   20.2720  -33.0260 C   0  0  0  0  0  0  0  0  0  0  0  0
   -7.7080   21.3190  -32.1480 C   0  0  0  0  0  0  0  0  0  0  0  0
   -9.1650   21.5360  -31.8270 C   0  0  0  0  0  0  0  0  0  0  0  0
   -9.3310   21.5340  -30.4520 F   0  0  0  0  0  0  0  0  0  0  0  0
   -9.6040   22.7500  -32.3320 F   0  0  0  0  0  0  0  0  0  0  0  0
   -9.9450   20.5320  -32.3790 F   0  0  0  0  0  0  0  0  0  0  0  0
   -6.7150   22.0820  -31.4910 C   0  0  0  0  0  0  0  0  0  0  0  0
   -5.3700   21.7890  -31.7470 C   0  0  0  0  0  0  0  0  0  0  0  0
   -4.2720   22.3870  -31.2350 N   0  0  0  0  0  0  0  0  0  0  0  0
   -4.2600   23.5380  -30.3730 C   0  0  0  0  0  0  0  0  0  0  0  0
   -3.8150   24.6380  -30.8090 O   0  0  0  0  0  0  0  0  0  0  0  0
   -4.6140   23.4040  -28.9150 C   0  0  0  0  0  0  0  0  0  0  0  0
   -3.9620   24.5040  -28.0680 C   0  0  0  0  0  0  0  0  0  0  0  0
   -2.4750   24.5450  -28.2990 C   0  0  0  0  0  0  0  0  0  0  0  0
   -1.9880   25.4980  -28.9630 O   0  0  0  0  0  0  0  0  0  0  0  0
   -1.5970   23.5130  -27.8280 N   0  0  0  0  0  0  0  0  0  0  0  0
   -0.6260   23.6700  -26.7510 C   0  0  0  0  0  0  0  0  0  0  0  0
    0.7420   24.0370  -27.3260 C   0  0  0  0  0  0  0  0  0  0  0  0
    0.6710   24.1910  -28.7190 O   0  0  0  0  0  0  0  0  0  0  0  0
   -0.4290   23.1340  -30.2220 H   0  0  0  0  0  0  0  0  0  0  0  0
   -2.1590   23.5370  -29.9740 H   0  0  0  0  0  0  0  0  0  0  0  0
   -3.0096   20.0626  -33.2576 H   0  0  0  0  0  0  0  0  0  0  0  0
   -5.6495   19.2168  -33.9715 H   0  0  0  0  0  0  0  0  0  0  0  0
   -8.0855   19.6574  -33.5161 H   0  0  0  0  0  0  0  0  0  0  0  0
   -6.9929   22.8871  -30.7949 H   0  0  0  0  0  0  0  0  0  0  0  0
   -5.7065   23.4710  -28.8061 H   0  0  0  0  0  0  0  0  0  0  0  0
   -4.2406   22.4321  -28.5600 H   0  0  0  0  0  0  0  0  0  0  0  0
   -4.3967   25.4763  -28.3429 H   0  0  0  0  0  0  0  0  0  0  0  0
   -4.1482   24.2883  -27.0056 H   0  0  0  0  0  0  0  0  0  0  0  0
   -0.9613   24.4681  -26.0724 H   0  0  0  0  0  0  0  0  0  0  0  0
   -0.5423   22.7212  -26.2007 H   0  0  0  0  0  0  0  0  0  0  0  0
    1.0812   24.9814  -26.8754 H   0  0  0  0  0  0  0  0  0  0  0  0
    1.4503   23.2274  -27.0960 H   0  0  0  0  0  0  0  0  0  0  0  0
   -0.2940   24.1760  -28.9610 H   0  0  0  0  0  0  0  0  0  0  0  0
  1  2  1  0
  2  3  2  0
  2  4  1  0
  4  5  2  0
  5  6  1  0
  6  7  2  0
  7  8  1  0
  8  9  2  0
  9 10  1  0
 10 11  1  0
 10 12  1  0
 10 13  1  0
  9 14  1  0
 14 15  2  0
 15 16  1  0
 16 17  1  0
 17 18  2  0
 17 19  1  0
 19 20  1  0
 20 21  1  0
 21 22  2  0
 21 23  1  0
 23 24  1  0
 24 25  1  0
 25 26  1  0
 16  4  1  0
 15  6  1  0
  1 27  1  0
  1 28  1  0
  5 29  1  0
  7 30  1  0
  8 31  1  0
 14 32  1  0
 19 33  1  0
 19 34  1  0
 20 35  1  0
 20 36  1  0
 24 37  1  0
 24 38  1  0
 25 39  1  0
 25 40  1  0
 26 41  1  0
M  CHG  1  23  -1
M  END
>  <UniqueID>  (2) 
2

>  <SMILES>  (2) 
NC(=O)c1cc2ccc(C(F)(F)F)cc2n1C(=O)CCC(=O)[N-]CCO

>  <Energy>  (2) 
73.81363782041811

>  <Genealogy>  (2) 
NC(=O)c1cc2ccc(C(F)(F)F)cc2n1C(=O)CCC(=O)[N-]CCO (protonated)
NC(=O)c1cc2ccc(C(F)(F)F)cc2n1C(=O)CCC(=O)[N-]CCO (3D coordinates assigned)
NC(=O)c1cc2ccc(C(F)(F)F)cc2n1C(=O)CCC(=O)[N-]CCO (optimized conformer: 73.81363782041811 kcal/mol)

>  <smiles>  (2) 
NC(=O)c1cc2ccc(C(F)(F)F)cc2n1C(=O)CCC(=O)NCCO

>  <score_type>  (2) 
oracle

>  <origin>  (2) 
adg

>  <m_score__min__energy>  (2) 
-9.6699999999999999

>  <m_primary>  (2) 
energy

$$$$
2:0
     RDKit          3D

 43 44  0  0  0  0  0  0  0  0999 V2000
   -7.5330   18.3370  -32.4510 C   0  0  0  0  0  0  0  0  0  0  0  0
   -7.5470   19.7900  -32.0830 C   0  0  0  0  0  0  0  0  0  0  0  0
   -8.7180   20.5630  -32.2850 C   0  0  0  0  0  0  0  0  0  0  0  0
   -8.7270   21.9360  -31.9830 C   0  0  0  0  0  0  0  0  0  0  0  0
   -7.5520   22.5080  -31.5100 C   0  0  0  0  0  0  0  0  0  0  0  0
   -7.2820   23.8090  -31.1520 C   0  0  0  0  0  0  0  0  0  0  0  0
   -5.9410   23.8170  -30.7720 C   0  0  0  0  0  0  0  0  0  0  0  0
   -5.2150   25.0440  -30.3750 C   0  0  0  0  0  0  0  0  0  0  0  0
   -3.9100   25.3220  -30.8780 N   0  0  0  0  0  0  0  0  0  0  0  0
   -5.7650   25.8710  -29.5990 O   0  0  0  0  0  0  0  0  0  0  0  0
   -5.4040   22.5700  -30.8880 N   0  0  0  0  0  0  0  0  0  0  0  0
   -4.0630   22.1640  -30.5640 C   0  0  0  0  0  0  0  0  0  0  0  0
   -3.8740   21.3310  -29.6370 O   0  0  0  0  0  0  0  0  0  0  0  0
   -2.8750   22.7060  -31.3100 C   0  0  0  0  0  0  0  0  0  0  0  0
   -1.9230   23.2880  -30.4230 O   0  0  0  0  0  0  0  0  0  0  0  0
   -1.2500   22.5690  -29.4260 C   0  0  0  0  0  0  0  0  0  0  0  0
   -0.3600   21.7340  -29.7460 O   0  0  0  0  0  0  0  0  0  0  0  0
   -1.5790   22.7770  -28.0390 N   0  0  0  0  0  0  0  0  0  0  0  0
   -1.5320   21.6310  -27.1230 C   0  0  0  0  0  0  0  0  0  0  0  0
   -1.8770   24.1320  -27.5380 C   0  0  2  0  0  0  0  0  0  0  0  0
   -3.3790   24.4140  -27.6470 C   0  0  0  0  0  0  0  0  0  0  0  0
   -1.0440   25.1620  -28.2570 C   0  0  0  0  0  0  0  0  0  0  0  0
   -1.6120   26.0470  -28.9520 O   0  0  0  0  0  0  0  0  0  0  0  0
    0.3440   25.1390  -28.1890 O   0  0  0  0  0  0  0  0  0  0  0  0
   -6.4030   21.7790  -31.3390 C   0  0  0  0  0  0  0  0  0  0  0  0
   -6.3700   20.4070  -31.6060 C   0  0  0  0  0  0  0  0  0  0  0  0
   -7.5271   17.7270  -31.5357 H   0  0  0  0  0  0  0  0  0  0  0  0
   -8.4289   18.1002  -33.0437 H   0  0  0  0  0  0  0  0  0  0  0  0
   -6.6327   18.1175  -33.0437 H   0  0  0  0  0  0  0  0  0  0  0  0
   -9.6262   20.0851  -32.6809 H   0  0  0  0  0  0  0  0  0  0  0  0
   -9.6368   22.5395  -32.1171 H   0  0  0  0  0  0  0  0  0  0  0  0
   -7.9769   24.6616  -31.1633 H   0  0  0  0  0  0  0  0  0  0  0  0
   -3.0620   25.1840  -30.2830 H   0  0  0  0  0  0  0  0  0  0  0  0
   -2.3942   21.8848  -31.8618 H   0  0  0  0  0  0  0  0  0  0  0  0
   -3.2272   23.4872  -31.9996 H   0  0  0  0  0  0  0  0  0  0  0  0
   -1.5468   21.9914  -26.0838 H   0  0  0  0  0  0  0  0  0  0  0  0
   -2.4044   20.9846  -27.2994 H   0  0  0  0  0  0  0  0  0  0  0  0
   -0.6096   21.0582  -27.2994 H   0  0  0  0  0  0  0  0  0  0  0  0
   -1.6065   24.1934  -26.4736 H   0  0  0  0  0  0  0  0  0  0  0  0
   -3.8110   24.4951  -26.6386 H   0  0  0  0  0  0  0  0  0  0  0  0
   -3.5365   25.3574  -28.1903 H   0  0  0  0  0  0  0  0  0  0  0  0
   -3.8679   23.5920  -28.1903 H   0  0  0  0  0  0  0  0  0  0  0  0
   -5.4510   19.8234  -31.4485 H   0  0  0  0  0  0  0  0  0  0  0  0
  1  2  1  0
  2  3  2  0
  3  4  1  0
  4  5  2  0
  5  6  1  0
  6  7  2  0
  7  8  1  0
  8  9  1  0
  8 10  2  0
  7 11  1  0
 11 12  1  0
 12 13  2  0
 12 14  1  0
 14 15  1  0
 15 16  1  0
 16 17  2  0
 16 18  1  0
 18 19  1  0
 18 20  1  0
 20 21  1  0
 20 22  1  0
 22 23  2  0
 22 24  1  0
 11 25  1  0
 25 26  2  0
 26  2  1  0
 25  5  1  0
  1 27  1  0
  1 28  1  0
  1 29  1  0
  3 30  1  0
  4 31  1  0
  6 32  1  0
  9 33  1  0
 14 34  1  0
 14 35  1  0
 19 36  1  0
 19 37  1  0
 19 38  1  0
 20 39  1  1
 21 40  1  0
 21 41  1  0
 21 42  1  0
 26 43  1  0
M  CHG  2   9  -1  24  -1
M  END
>  <UniqueID>  (3) 
3

>  <SMILES>  (3) 
Cc1ccc2cc(C([NH-])=O)n(C(=O)COC(=O)N(C)[C@H](C)C(=O)[O-])c2c1

>  <Energy>  (3) 
74.13095697963155

>  <Genealogy>  (3) 
Cc1ccc2cc(C([NH-])=O)n(C(=O)COC(=O)N(C)C(C)C(=O)[O-])c2c1 (protonated)
Cc1ccc2cc(C([NH-])=O)n(C(=O)COC(=O)N(C)[C@H](C)C(=O)[O-])c2c1 (chirality)
Cc1ccc2cc(C([NH-])=O)n(C(=O)COC(=O)N(C)[C@H](C)C(=O)[O-])c2c1 (3D coordinates assigned)
Cc1ccc2cc(C([NH-])=O)n(C(=O)COC(=O)N(C)[C@H](C)C(=O)[O-])c2c1 (optimized conformer: 74.13095697963155 kcal/mol)

>  <smiles>  (3) 
Cc1ccc2cc(C(N)=O)n(C(=O)COC(=O)N(C)C(C)C(=O)O)c2c1

>  <score_type>  (3) 
oracle

>  <origin>  (3) 
adg

>  <m_score__min__energy>  (3) 
-12.94

>  <m_primary>  (3) 
energy

$$$$
3:0
     RDKit          3D

 45 46  0  0  0  0  0  0  0  0999 V2000
   -1.0650   26.7180  -26.1380 C   0  0  0  0  0  0  0  0  0  0  0  0
   -0.7240   27.1270  -27.5650 C   0  0  0  0  0  0  0  0  0  0  0  0
   -1.0430   26.0790  -28.4770 O   0  0  0  0  0  0  0  0  0  0  0  0
   -0.6910   24.7400  -28.2680 C   0  0  0  0  0  0  0  0  0  0  0  0
    0.4500   24.3200  -28.6080 O   0  0  0  0  0  0  0  0  0  0  0  0
   -1.7120   23.7800  -27.6910 C   0  0  1  0  0  0  0  0  0  0  0  0
   -1.0740   23.0570  -26.5000 C   0  0  0  0  0  0  0  0  0  0  0  0
   -2.8390   24.4800  -27.2120 O   0  0  0  0  0  0  0  0  0  0  0  0
   -2.1510   22.7350  -28.7470 C   0  0  0  0  0  0  0  0  0  0  0  0
   -3.4530   23.0680  -29.3260 N   0  0  0  0  0  0  0  0  0  0  0  0
   -4.0850   22.2720  -30.3360 C   0  0  0  0  0  0  0  0  0  0  0  0
   -3.5030   21.2600  -30.8090 O   0  0  0  0  0  0  0  0  0  0  0  0
   -5.3930   22.6240  -30.8080 N   0  0  0  0  0  0  0  0  0  0  0  0
   -5.9270   23.8710  -30.9360 C   0  0  0  0  0  0  0  0  0  0  0  0
   -5.2920   25.1340  -30.5010 C   0  0  0  0  0  0  0  0  0  0  0  0
   -3.8820   25.3210  -30.5950 N   0  0  0  0  0  0  0  0  0  0  0  0
   -6.0030   26.0540  -30.0170 O   0  0  0  0  0  0  0  0  0  0  0  0
   -7.1990   23.7990  -31.4980 C   0  0  0  0  0  0  0  0  0  0  0  0
   -7.4280   22.4600  -31.7160 C   0  0  0  0  0  0  0  0  0  0  0  0
   -8.5260   21.8180  -32.2800 C   0  0  0  0  0  0  0  0  0  0  0  0
   -8.4680   20.4230  -32.4310 C   0  0  0  0  0  0  0  0  0  0  0  0
   -7.3150   19.6960  -32.0340 C   0  0  0  0  0  0  0  0  0  0  0  0
   -7.2840   18.2010  -32.2240 C   0  0  0  0  0  0  0  0  0  0  0  0
   -8.5770   17.7130  -32.3050 F   0  0  0  0  0  0  0  0  0  0  0  0
   -6.6490   17.6150  -31.1420 F   0  0  0  0  0  0  0  0  0  0  0  0
   -6.6150   17.8520  -33.3830 F   0  0  0  0  0  0  0  0  0  0  0  0
   -6.2290   20.3820  -31.4390 C   0  0  0  0  0  0  0  0  0  0  0  0
   -6.3220   21.7710  -31.2920 C   0  0  0  0  0  0  0  0  0  0  0  0
   -0.5249   27.3658  -25.4319 H   0  0  0  0  0  0  0  0  0  0  0  0
   -2.1480   26.8215  -25.9758 H   0  0  0  0  0  0  0  0  0  0  0  0
   -0.7684   25.6713  -25.9758 H   0  0  0  0  0  0  0  0  0  0  0  0
   -1.3001   28.0255  -27.8310 H   0  0  0  0  0  0  0  0  0  0  0  0
    0.3545   27.3345  -27.6264 H   0  0  0  0  0  0  0  0  0  0  0  0
   -1.4547   23.4884  -25.5624 H   0  0  0  0  0  0  0  0  0  0  0  0
   -1.3281   21.9876  -26.5413 H   0  0  0  0  0  0  0  0  0  0  0  0
    0.0188   23.1761  -26.5413 H   0  0  0  0  0  0  0  0  0  0  0  0
   -2.9580   25.2940  -27.7660 H   0  0  0  0  0  0  0  0  0  0  0  0
   -1.4007   22.7029  -29.5507 H   0  0  0  0  0  0  0  0  0  0  0  0
   -2.2358   21.7578  -28.2492 H   0  0  0  0  0  0  0  0  0  0  0  0
   -3.9640   23.8990  -28.9520 H   0  0  0  0  0  0  0  0  0  0  0  0
   -3.4770   26.0380  -31.2350 H   0  0  0  0  0  0  0  0  0  0  0  0
   -7.8774   24.6358  -31.7206 H   0  0  0  0  0  0  0  0  0  0  0  0
   -9.4127   22.3860  -32.5980 H   0  0  0  0  0  0  0  0  0  0  0  0
   -9.3264   19.8871  -32.8621 H   0  0  0  0  0  0  0  0  0  0  0  0
   -5.3350   19.8375  -31.1009 H   0  0  0  0  0  0  0  0  0  0  0  0
  1  2  1  0
  2  3  1  0
  3  4  1  0
  4  5  2  0
  4  6  1  0
  6  7  1  0
  6  8  1  1
  6  9  1  0
  9 10  1  0
 10 11  1  0
 11 12  2  0
 11 13  1  0
 13 14  1  0
 14 15  1  0
 15 16  1  0
 15 17  2  0
 14 18  2  0
 18 19  1  0
 19 20  2  0
 20 21  1  0
 21 22  2  0
 22 23  1  0
 23 24  1  0
 23 25  1  0
 23 26  1  0
 22 27  1  0
 27 28  2  0
 28 13  1  0
 28 19  1  0
  1 29  1  0
  1 30  1  0
  1 31  1  0
  2 32  1  0
  2 33  1  0
  7 34  1  0
  7 35  1  0
  7 36  1  0
  8 37  1  0
  9 38  1  0
  9 39  1  0
 10 40  1  0
 16 41  1  0
 18 42  1  0
 20 43  1  0
 21 44  1  0
 27 45  1  0
M  CHG  1  16  -1
M  END
>  <UniqueID>  (4) 
4

>  <SMILES>  (4) 
CCOC(=O)[C@@](C)(O)CNC(=O)n1c(C([NH-])=O)cc2ccc(C(F)(F)F)cc21

>  <Energy>  (4) 
75.44036688482052

>  <Genealogy>  (4) 
CCOC(=O)C(C)(O)CNC(=O)n1c(C([NH-])=O)cc2ccc(C(F)(F)F)cc21 (protonated)
CCOC(=O)[C@@](C)(O)CNC(=O)n1c(C([NH-])=O)cc2ccc(C(F)(F)F)cc21 (chirality)
CCOC(=O)[C@@](C)(O)CNC(=O)n1c(C([NH-])=O)cc2ccc(C(F)(F)F)cc21 (3D coordinates assigned)
CCOC(=O)[C@@](C)(O)CNC(=O)n1c(C([NH-])=O)cc2ccc(C(F)(F)F)cc21 (optimized conformer: 75.44036688482052 kcal/mol)

>  <smiles>  (4) 
CCOC(=O)C(C)(O)CNC(=O)n1c(C(N)=O)cc2ccc(C(F)(F)F)cc21

>  <score_type>  (4) 
oracle

>  <origin>  (4) 
adg

>  <m_score__min__energy>  (4) 
-11

>  <m_primary>  (4) 
energy

$$$$
4:0
     RDKit          3D

 41 43  0  0  0  0  0  0  0  0999 V2000
   -3.2480   24.9600  -30.8010 H   0  0  0  0  0  0  0  0  0  0  0  0
   -4.0270   25.6540  -30.8420 N   0  0  0  0  0  0  0  0  0  0  0  0
   -5.3530   25.2900  -30.4650 C   0  0  0  0  0  0  0  0  0  0  0  0
   -6.0540   26.1070  -29.8110 O   0  0  0  0  0  0  0  0  0  0  0  0
   -5.9290   23.9880  -30.8660 C   0  0  0  0  0  0  0  0  0  0  0  0
   -7.2690   23.8120  -31.2080 C   0  0  0  0  0  0  0  0  0  0  0  0
   -8.0670   24.5689  -31.1899 H   0  0  0  0  0  0  0  0  0  0  0  0
   -7.3810   22.4900  -31.5730 C   0  0  0  0  0  0  0  0  0  0  0  0
   -8.4960   21.7640  -31.9840 C   0  0  0  0  0  0  0  0  0  0  0  0
   -9.4796   22.2455  -32.0870 H   0  0  0  0  0  0  0  0  0  0  0  0
   -8.3260   20.3980  -32.2630 C   0  0  0  0  0  0  0  0  0  0  0  0
   -9.1885   19.7968  -32.5864 H   0  0  0  0  0  0  0  0  0  0  0  0
   -7.0550   19.7870  -32.1320 C   0  0  0  0  0  0  0  0  0  0  0  0
   -6.8980   18.3160  -32.3820 C   0  0  0  0  0  0  0  0  0  0  0  0
   -6.8413   17.7847  -31.4205 H   0  0  0  0  0  0  0  0  0  0  0  0
   -7.7619   17.9471  -32.9544 H   0  0  0  0  0  0  0  0  0  0  0  0
   -5.9757   18.1377  -32.9544 H   0  0  0  0  0  0  0  0  0  0  0  0
   -5.9490   20.5500  -31.6960 C   0  0  0  0  0  0  0  0  0  0  0  0
   -4.9613   20.0857  -31.5584 H   0  0  0  0  0  0  0  0  0  0  0  0
   -6.1440   21.9120  -31.4440 C   0  0  0  0  0  0  0  0  0  0  0  0
   -5.2420   22.8200  -31.0110 N   0  0  0  0  0  0  0  0  0  0  0  0
   -3.8660   22.5630  -30.6920 C   0  0  0  0  0  0  0  0  0  0  0  0
   -2.9720   22.9200  -31.5050 O   0  0  0  0  0  0  0  0  0  0  0  0
   -3.5300   21.8540  -29.4380 C   0  0  0  0  0  0  0  0  0  0  0  0
   -4.1641   20.9963  -29.1693 H   0  0  0  0  0  0  0  0  0  0  0  0
   -2.5300   22.1520  -28.5960 C   0  0  0  0  0  0  0  0  0  0  0  0
   -2.3897   21.4919  -27.7274 H   0  0  0  0  0  0  0  0  0  0  0  0
   -1.4220   23.5110  -28.7630 S   0  0  0  0  0  0  0  0  0  0  0  0
   -0.1150   23.0460  -29.3420 O   0  0  0  0  0  0  0  0  0  0  0  0
   -2.0150   24.5570  -29.6670 O   0  0  0  0  0  0  0  0  0  0  0  0
   -1.1520   24.2100  -27.1620 C   0  0  0  0  0  0  0  0  0  0  0  0
   -0.8660   23.3820  -26.0610 C   0  0  0  0  0  0  0  0  0  0  0  0
   -0.7940   22.0340  -26.2050 F   0  0  0  0  0  0  0  0  0  0  0  0
   -0.6670   23.9400  -24.7930 C   0  0  0  0  0  0  0  0  0  0  0  0
   -0.3890   23.1370  -23.7350 F   0  0  0  0  0  0  0  0  0  0  0  0
   -0.7610   25.3230  -24.6120 C   0  0  0  0  0  0  0  0  0  0  0  0
   -0.5710   25.8600  -23.3810 F   0  0  0  0  0  0  0  0  0  0  0  0
   -1.0620   26.1500  -25.6970 C   0  0  0  0  0  0  0  0  0  0  0  0
   -1.1690   27.4900  -25.5170 F   0  0  0  0  0  0  0  0  0  0  0  0
   -1.2620   25.5990  -26.9670 C   0  0  0  0  0  0  0  0  0  0  0  0
   -1.5760   26.4210  -28.0010 F   0  0  0  0  0  0  0  0  0  0  0  0
  1  2  1  0
  2  3  1  0
  3  4  2  0
  3  5  1  0
  5  6  2  0
  6  7  1  0
  6  8  1  0
  8  9  2  0
  9 10  1  0
  9 11  1  0
 11 12  1  0
 11 13  2  0
 13 14  1  0
 14 15  1  0
 14 16  1  0
 14 17  1  0
 13 18  1  0
 18 19  1  0
 18 20  2  0
 20 21  1  0
 21 22  1  0
 22 23  2  0
 22 24  1  0
 24 25  1  0
 24 26  2  0
 26 27  1  0
 26 28  1  0
 28 29  2  0
 28 30  2  0
 28 31  1  0
 31 32  2  0
 32 33  1  0
 32 34  1  0
 34 35  1  0
 34 36  2  0
 36 37  1  0
 36 38  1  0
 38 39  1  0
 38 40  2  0
 40 41  1  0
 21  5  1  0
 40 31  1  0
 20  8  1  0
M  CHG  1   2  -1
M  END
>  <UniqueID>  (5) 
5

>  <SMILES>  (5) 
Cc1ccc2cc(C([NH-])=O)n(C(=O)/C=C\S(=O)(=O)c3c(F)c(F)c(F)c(F)c3F)c2c1

>  <Energy>  (5) 
90.06614337876528

>  <Genealogy>  (5) 
Cc1ccc2cc(C([NH-])=O)n(C(=O)/C=C\S(=O)(=O)c3c(F)c(F)c(F)c(F)c3F)c2c1 (protonated)
Cc1ccc2cc(C([NH-])=O)n(C(=O)/C=C\S(=O)(=O)c3c(F)c(F)c(F)c(F)c3F)c2c1 (cis-trans isomerization)
Cc1ccc2cc(C([NH-])=O)n(C(=O)/C=C\S(=O)(=O)c3c(F)c(F)c(F)c(F)c3F)c2c1 (3D coordinates assigned)
Cc1ccc2cc(C([NH-])=O)n(C(=O)/C=C\S(=O)(=O)c3c(F)c(F)c(F)c(F)c3F)c2c1 (optimized conformer: 90.06614337876528 kcal/mol)

>  <smiles>  (5) 
Cc1ccc2cc(C(N)=O)n(C(=O)/C=C\S(=O)(=O)c3c(F)c(F)c(F)c(F)c3F)c2c1

>  <score_type>  (5) 
oracle

>  <origin>  (5) 
adg

>  <m_score__min__energy>  (5) 
-11.76

>  <m_primary>  (5) 
energy

$$$$
5:0
     RDKit          3D

 43 45  0  0  0  0  0  0  0  0999 V2000
    0.1740   25.4410  -26.0730 C   0  0  0  0  0  0  0  0  0  0  0  0
   -1.0000   25.0230  -26.8410 N   0  0  0  0  0  0  0  0  0  0  0  0
   -2.3390   25.4010  -26.3880 C   0  0  0  0  0  0  0  0  0  0  0  0
   -3.3990   24.5350  -27.0670 C   0  0  0  0  0  0  0  0  0  0  0  0
   -3.2530   24.5760  -28.4740 O   0  0  0  0  0  0  0  0  0  0  0  0
   -2.0500   23.9530  -28.9090 C   0  0  2  0  0  0  0  0  0  0  0  0
   -2.1850   22.4170  -28.9290 C   0  0  0  0  0  0  0  0  0  0  0  0
   -3.3430   22.0160  -29.6580 O   0  0  0  0  0  0  0  0  0  0  0  0
   -3.7890   22.6620  -30.8170 C   0  0  0  0  0  0  0  0  0  0  0  0
   -2.9660   23.0410  -31.6940 O   0  0  0  0  0  0  0  0  0  0  0  0
   -5.1930   22.9140  -30.9940 N   0  0  0  0  0  0  0  0  0  0  0  0
   -5.8640   24.0840  -30.7970 C   0  0  0  0  0  0  0  0  0  0  0  0
   -5.2540   25.3930  -30.4820 C   0  0  0  0  0  0  0  0  0  0  0  0
   -3.8970   25.6470  -30.8380 N   0  0  0  0  0  0  0  0  0  0  0  0
   -5.9080   26.2780  -29.8700 O   0  0  0  0  0  0  0  0  0  0  0  0
   -7.2280   23.9060  -31.0230 C   0  0  0  0  0  0  0  0  0  0  0  0
   -7.3710   22.5840  -31.3740 C   0  0  0  0  0  0  0  0  0  0  0  0
   -8.5140   21.8660  -31.7130 C   0  0  0  0  0  0  0  0  0  0  0  0
   -8.3690   20.5030  -32.0200 C   0  0  0  0  0  0  0  0  0  0  0  0
   -7.0970   19.8770  -31.9610 C   0  0  0  0  0  0  0  0  0  0  0  0
   -6.9490   18.4230  -32.3300 C   0  0  0  0  0  0  0  0  0  0  0  0
   -8.1820   17.7930  -32.3450 F   0  0  0  0  0  0  0  0  0  0  0  0
   -6.3800   18.3290  -33.5860 F   0  0  0  0  0  0  0  0  0  0  0  0
   -6.1400   17.7660  -31.4190 F   0  0  0  0  0  0  0  0  0  0  0  0
   -5.9560   20.6460  -31.6340 C   0  0  0  0  0  0  0  0  0  0  0  0
   -6.1280   22.0070  -31.3500 C   0  0  0  0  0  0  0  0  0  0  0  0
   -0.8380   24.3980  -28.1240 C   0  0  0  0  0  0  0  0  0  0  0  0
    0.3150   24.1920  -28.5920 O   0  0  0  0  0  0  0  0  0  0  0  0
   -0.0445   25.3632  -24.9977 H   0  0  0  0  0  0  0  0  0  0  0  0
    1.0256   24.7908  -26.3221 H   0  0  0  0  0  0  0  0  0  0  0  0
    0.4231   26.4831  -26.3221 H   0  0  0  0  0  0  0  0  0  0  0  0
   -2.4042   25.2649  -25.2984 H   0  0  0  0  0  0  0  0  0  0  0  0
   -2.5189   26.4540  -26.6505 H   0  0  0  0  0  0  0  0  0  0  0  0
   -3.2907   23.4958  -26.7230 H   0  0  0  0  0  0  0  0  0  0  0  0
   -4.3941   24.9228  -26.8035 H   0  0  0  0  0  0  0  0  0  0  0  0
   -1.8833   24.2888  -29.9432 H   0  0  0  0  0  0  0  0  0  0  0  0
   -1.2926   21.9835  -29.4041 H   0  0  0  0  0  0  0  0  0  0  0  0
   -2.2815   22.0598  -27.8931 H   0  0  0  0  0  0  0  0  0  0  0  0
   -3.1470   24.9560  -30.6200 H   0  0  0  0  0  0  0  0  0  0  0  0
   -8.0219   24.6627  -30.9385 H   0  0  0  0  0  0  0  0  0  0  0  0
   -9.5009   22.3511  -31.7397 H   0  0  0  0  0  0  0  0  0  0  0  0
   -9.2518   19.9141  -32.3095 H   0  0  0  0  0  0  0  0  0  0  0  0
   -4.9571   20.1863  -31.6034 H   0  0  0  0  0  0  0  0  0  0  0  0
  1  2  1  0
  2  3  1  0
  3  4  1  0
  4  5  1  0
  5  6  1  0
  6  7  1  0
  7  8  1  0
  8  9  1  0
  9 10  2  0
  9 11  1  0
 11 12  1  0
 12 13  1  0
 13 14  1  0
 13 15  2  0
 12 16  2  0
 16 17  1  0
 17 18  2  0
 18 19  1  0
 19 20  2  0
 20 21  1  0
 21 22  1  0
 21 23  1  0
 21 24  1  0
 20 25  1  0
 25 26  2  0
  6 27  1  0
 27 28  2  0
 27  2  1  0
 26 11  1  0
 26 17  1  0
  1 29  1  0
  1 30  1  0
  1 31  1  0
  3 32  1  0
  3 33  1  0
  4 34  1  0
  4 35  1  0
  6 36  1  6
  7 37  1  0
  7 38  1  0
 14 39  1  0
 16 40  1  0
 18 41  1  0
 19 42  1  0
 25 43  1  0
M  CHG  1  14  -1
M  END
>  <UniqueID>  (6) 
6

>  <SMILES>  (6) 
CN1CCO[C@H](COC(=O)n2c(C([NH-])=O)cc3ccc(C(F)(F)F)cc32)C1=O

>  <Energy>  (6) 
84.46948983866046

>  <Genealogy>  (6) 
CN1CCO[C@H](COC(=O)n2c(C([NH-])=O)cc3ccc(C(F)(F)F)cc32)C1=O (protonated)
CN1CCO[C@H](COC(=O)n2c(C([NH-])=O)cc3ccc(C(F)(F)F)cc32)C1=O (3D coordinates assigned)
CN1CCO[C@H](COC(=O)n2c(C([NH-])=O)cc3ccc(C(F)(F)F)cc32)C1=O (nonaromatic ring conformer: 84.46948983866046 kcal/mol)

>  <smiles>  (6) 
CN1CCO[C@H](COC(=O)n2c(C(N)=O)cc3ccc(C(F)(F)F)cc32)C1=O

>  <score_type>  (6) 
oracle

>  <origin>  (6) 
adg

>  <m_score__min__energy>  (6) 
-10.66

>  <m_primary>  (6) 
energy

$$$$
6:0
     RDKit          3D

 35 37  0  0  0  0  0  0  0  0999 V2000
   -6.7470   18.0440  -33.4610 C   0  0  0  0  0  0  0  0  0  0  0  0
   -7.1450   19.2450  -32.6560 C   0  0  0  0  0  0  0  0  0  0  0  0
   -8.4430   19.3510  -32.2140 C   0  0  0  0  0  0  0  0  0  0  0  0
   -8.7680   20.4690  -31.4800 C   0  0  0  0  0  0  0  0  0  0  0  0
   -7.8200   21.4300  -31.2080 C   0  0  0  0  0  0  0  0  0  0  0  0
   -7.9400   22.6130  -30.5530 C   0  0  0  0  0  0  0  0  0  0  0  0
   -6.6920   23.2590  -30.5800 C   0  0  0  0  0  0  0  0  0  0  0  0
   -6.5290   24.5400  -29.9300 C   0  0  0  0  0  0  0  0  0  0  0  0
   -5.4520   24.7490  -28.9660 N   0  0  0  0  0  0  0  0  0  0  0  0
   -7.2360   25.5630  -30.0930 O   0  0  0  0  0  0  0  0  0  0  0  0
   -5.8120   22.4640  -31.2510 N   0  0  0  0  0  0  0  0  0  0  0  0
   -4.5150   22.8770  -31.5760 C   0  0  0  0  0  0  0  0  0  0  0  0
   -4.2850   24.1230  -31.1950 O   0  0  0  0  0  0  0  0  0  0  0  0
   -3.3920   22.2910  -32.2010 C   0  0  0  0  0  0  0  0  0  0  0  0
   -2.3070   21.7420  -31.7400 C   0  0  0  0  0  0  0  0  0  0  0  0
   -1.2490   21.1760  -32.6060 C   0  0  0  0  0  0  0  0  0  0  0  0
   -0.1320   20.5300  -32.2280 N   0  0  0  0  0  0  0  0  0  0  0  0
    0.5630   20.1770  -33.2680 O   0  0  0  0  0  0  0  0  0  0  0  0
   -0.0890   20.5860  -34.3250 C   0  0  0  0  0  0  0  0  0  0  0  0
    0.2360   20.4490  -35.5310 O   0  0  0  0  0  0  0  0  0  0  0  0
   -1.2270   21.2150  -33.9560 N   0  0  0  0  0  0  0  0  0  0  0  0
   -6.5070   21.3550  -31.6330 C   0  0  0  0  0  0  0  0  0  0  0  0
   -6.2120   20.2220  -32.3710 C   0  0  0  0  0  0  0  0  0  0  0  0
   -6.4746   17.2219  -32.7828 H   0  0  0  0  0  0  0  0  0  0  0  0
   -7.5898   17.7320  -34.0953 H   0  0  0  0  0  0  0  0  0  0  0  0
   -5.8847   18.2971  -34.0953 H   0  0  0  0  0  0  0  0  0  0  0  0
   -9.1899   18.5750  -32.4377 H   0  0  0  0  0  0  0  0  0  0  0  0
   -9.7950   20.5961  -31.1070 H   0  0  0  0  0  0  0  0  0  0  0  0
   -8.8560   22.9994  -30.0823 H   0  0  0  0  0  0  0  0  0  0  0  0
   -5.6680   24.5550  -27.9760 H   0  0  0  0  0  0  0  0  0  0  0  0
   -4.5210   25.0810  -29.3210 H   0  0  0  0  0  0  0  0  0  0  0  0
   -3.4462   22.3011  -33.2996 H   0  0  0  0  0  0  0  0  0  0  0  0
   -2.1685   21.6960  -30.6497 H   0  0  0  0  0  0  0  0  0  0  0  0
   -1.9360   21.6410  -34.5980 H   0  0  0  0  0  0  0  0  0  0  0  0
   -5.1866   20.0939  -32.7480 H   0  0  0  0  0  0  0  0  0  0  0  0
  1  2  1  0
  2  3  2  0
  3  4  1  0
  4  5  2  0
  5  6  1  0
  6  7  2  0
  7  8  1  0
  8  9  1  0
  8 10  2  0
  7 11  1  0
 11 12  1  0
 12 13  2  0
 12 14  1  0
 14 15  2  0
 15 16  1  0
 16 17  2  0
 17 18  1  0
 18 19  1  0
 19 20  2  0
 19 21  1  0
 11 22  1  0
 22 23  2  0
 23  2  1  0
 22  5  1  0
 21 16  1  0
  1 24  1  0
  1 25  1  0
  1 26  1  0
  3 27  1  0
  4 28  1  0
  6 29  1  0
  9 30  1  0
  9 31  1  0
 14 32  1  0
 15 33  1  0
 21 34  1  0
 23 35  1  0
M  END
>  <smiles>  (7) 
Cc1ccc2cc(C(N)=O)n(C(=O)/C=C/c3noc(=O)[nH]3)c2c1

>  <score_type>  (7) 
oracle

>  <origin>  (7) 
adg

>  <m_score__min__energy>  (7) 
-9.3900000000000006

>  <m_primary>  (7) 
energy

$$$$
7:0
     RDKit          3D

 43 44  0  0  0  0  0  0  0  0999 V2000
   -6.8410   17.8610  -31.9510 C   0  0  0  0  0  0  0  0  0  0  0  0
   -7.8620   18.6800  -32.7330 C   0  0  0  0  0  0  0  0  0  0  0  0
   -7.8080   20.1290  -32.3300 C   0  0  0  0  0  0  0  0  0  0  0  0
   -9.0080   20.8610  -32.1380 C   0  0  0  0  0  0  0  0  0  0  0  0
   -8.9690   22.2050  -31.7310 C   0  0  0  0  0  0  0  0  0  0  0  0
   -7.7220   22.7870  -31.5170 C   0  0  0  0  0  0  0  0  0  0  0  0
   -7.3940   24.0450  -31.0630 C   0  0  0  0  0  0  0  0  0  0  0  0
   -6.0030   24.0540  -30.9770 C   0  0  0  0  0  0  0  0  0  0  0  0
   -5.2110   25.2210  -30.5450 C   0  0  0  0  0  0  0  0  0  0  0  0
   -3.8190   25.2890  -30.8490 N   0  0  0  0  0  0  0  0  0  0  0  0
   -5.7460   26.1520  -29.8870 O   0  0  0  0  0  0  0  0  0  0  0  0
   -5.4940   22.8530  -31.3670 N   0  0  0  0  0  0  0  0  0  0  0  0
   -4.1380   22.3960  -31.2680 C   0  0  0  0  0  0  0  0  0  0  0  0
   -3.5280   22.0330  -32.3100 O   0  0  0  0  0  0  0  0  0  0  0  0
   -3.4980   22.2330  -29.9120 C   0  0  2  0  0  0  0  0  0  0  0  0
   -3.9270   23.2540  -29.0080 O   0  0  0  0  0  0  0  0  0  0  0  0
   -3.6600   23.2350  -27.6340 C   0  0  0  0  0  0  0  0  0  0  0  0
   -3.3750   24.2900  -27.0110 O   0  0  0  0  0  0  0  0  0  0  0  0
   -2.0100   22.2940  -30.0730 C   0  0  0  0  0  0  0  0  0  0  0  0
   -1.3500   21.2450  -30.3110 O   0  0  0  0  0  0  0  0  0  0  0  0
   -1.3580   23.5150  -29.8720 O   0  0  0  0  0  0  0  0  0  0  0  0
   -0.5620   23.7820  -28.7240 C   0  0  0  0  0  0  0  0  0  0  0  0
   -0.9030   25.1660  -28.1820 C   0  0  0  0  0  0  0  0  0  0  0  0
   -1.9760   25.7150  -28.8940 O   0  0  0  0  0  0  0  0  0  0  0  0
   -6.5560   22.0890  -31.6940 C   0  0  0  0  0  0  0  0  0  0  0  0
   -6.5620   20.7490  -32.0920 C   0  0  0  0  0  0  0  0  0  0  0  0
   -7.0104   17.9969  -30.8726 H   0  0  0  0  0  0  0  0  0  0  0  0
   -6.9500   16.7970  -32.2081 H   0  0  0  0  0  0  0  0  0  0  0  0
   -5.8260   18.1982  -32.2081 H   0  0  0  0  0  0  0  0  0  0  0  0
   -7.6439   18.5965  -33.8079 H   0  0  0  0  0  0  0  0  0  0  0  0
   -8.8674   18.2909  -32.5144 H   0  0  0  0  0  0  0  0  0  0  0  0
   -9.9781   20.3716  -32.3094 H   0  0  0  0  0  0  0  0  0  0  0  0
   -9.8953   22.7802  -31.5857 H   0  0  0  0  0  0  0  0  0  0  0  0
   -8.0829   24.8674  -30.8200 H   0  0  0  0  0  0  0  0  0  0  0  0
   -3.1150   24.7990  -30.2540 H   0  0  0  0  0  0  0  0  0  0  0  0
   -3.8004   21.2627  -29.4913 H   0  0  0  0  0  0  0  0  0  0  0  0
   -3.7001   22.2802  -27.0892 H   0  0  0  0  0  0  0  0  0  0  0  0
   -0.7656   23.0252  -27.9521 H   0  0  0  0  0  0  0  0  0  0  0  0
    0.5026   23.7470  -28.9988 H   0  0  0  0  0  0  0  0  0  0  0  0
   -1.1768   25.0826  -27.1199 H   0  0  0  0  0  0  0  0  0  0  0  0
   -0.0262   25.8207  -28.2944 H   0  0  0  0  0  0  0  0  0  0  0  0
   -2.6660   25.0050  -28.9610 H   0  0  0  0  0  0  0  0  0  0  0  0
   -5.6213   20.1925  -32.2164 H   0  0  0  0  0  0  0  0  0  0  0  0
  1  2  1  0
  2  3  1  0
  3  4  2  0
  4  5  1  0
  5  6  2  0
  6  7  1  0
  7  8  2  0
  8  9  1  0
  9 10  1  0
  9 11  2  0
  8 12  1  0
 12 13  1  0
 13 14  2  0
 13 15  1  0
 15 16  1  0
 16 17  1  0
 17 18  2  0
 15 19  1  0
 19 20  2  0
 19 21  1  0
 21 22  1  0
 22 23  1  0
 23 24  1  0
 12 25  1  0
 25 26  2  0
 26  3  1  0
 25  6  1  0
  1 27  1  0
  1 28  1  0
  1 29  1  0
  2 30  1  0
  2 31  1  0
  4 32  1  0
  5 33  1  0
  7 34  1  0
 10 35  1  0
 15 36  1  1
 17 37  1  0
 22 38  1  0
 22 39  1  0
 23 40  1  0
 23 41  1  0
 24 42  1  0
 26 43  1  0
M  CHG  1  10  -1
M  END
>  <UniqueID>  (8) 
7

>  <SMILES>  (8) 
CCc1ccc2cc(C([NH-])=O)n(C(=O)[C@H](OC=O)C(=O)OCCO)c2c1

>  <Energy>  (8) 
69.92658898784366

>  <Genealogy>  (8) 
CCc1ccc2cc(C([NH-])=O)n(C(=O)[C@H](OC=O)C(=O)OCCO)c2c1 (protonated)
CCc1ccc2cc(C([NH-])=O)n(C(=O)[C@H](OC=O)C(=O)OCCO)c2c1 (3D coordinates assigned)
CCc1ccc2cc(C([NH-])=O)n(C(=O)[C@H](OC=O)C(=O)OCCO)c2c1 (optimized conformer: 69.92658898784366 kcal/mol)

>  <smiles>  (8) 
CCc1ccc2cc(C(N)=O)n(C(=O)[C@H](OC=O)C(=O)OCCO)c2c1

>  <score_type>  (8) 
oracle

>  <origin>  (8) 
adg

>  <m_score__min__energy>  (8) 
-10.039999999999999

>  <m_primary>  (8) 
energy

$$$$
8:0
     RDKit          3D

 43 45  0  0  0  0  0  0  0  0999 V2000
   -1.9390   23.4240  -27.9550 C   0  0  0  0  0  0  0  0  0  0  0  0
   -2.3100   22.2040  -27.2240 N   0  0  0  0  0  0  0  0  0  0  0  0
   -1.1870   21.5860  -26.5130 C   0  0  0  0  0  0  0  0  0  0  0  0
   -1.4780   20.0900  -26.4200 C   0  0  0  0  0  0  0  0  0  0  0  0
   -2.7680   19.8680  -27.1970 C   0  0  0  0  0  0  0  0  0  0  0  0
   -2.9670   21.1440  -28.0100 C   0  0  2  0  0  0  0  0  0  0  0  0
   -2.4340   20.9710  -29.4560 C   0  0  0  0  0  0  0  0  0  0  0  0
   -3.4730   21.1530  -30.4150 O   0  0  0  0  0  0  0  0  0  0  0  0
   -3.8350   22.4110  -30.9050 C   0  0  0  0  0  0  0  0  0  0  0  0
   -2.9510   23.2620  -31.1940 O   0  0  0  0  0  0  0  0  0  0  0  0
   -5.2230   22.7320  -31.0800 N   0  0  0  0  0  0  0  0  0  0  0  0
   -5.8350   23.9370  -30.9040 C   0  0  0  0  0  0  0  0  0  0  0  0
   -5.2030   25.1650  -30.3760 C   0  0  0  0  0  0  0  0  0  0  0  0
   -3.9460   25.6160  -30.8730 N   0  0  0  0  0  0  0  0  0  0  0  0
   -5.7620   25.8030  -29.4440 O   0  0  0  0  0  0  0  0  0  0  0  0
   -7.1930   23.8430  -31.2090 C   0  0  0  0  0  0  0  0  0  0  0  0
   -7.3950   22.5310  -31.5730 C   0  0  0  0  0  0  0  0  0  0  0  0
   -8.5600   21.8770  -31.9630 C   0  0  0  0  0  0  0  0  0  0  0  0
   -8.4710   20.5130  -32.2920 C   0  0  0  0  0  0  0  0  0  0  0  0
   -7.2230   19.8380  -32.2580 C   0  0  0  0  0  0  0  0  0  0  0  0
   -7.1430   18.3670  -32.5720 C   0  0  0  0  0  0  0  0  0  0  0  0
   -8.3780   17.7870  -32.3500 F   0  0  0  0  0  0  0  0  0  0  0  0
   -6.7820   18.1670  -33.8930 F   0  0  0  0  0  0  0  0  0  0  0  0
   -6.2030   17.7460  -31.7670 F   0  0  0  0  0  0  0  0  0  0  0  0
   -6.0670   20.5370  -31.8410 C   0  0  0  0  0  0  0  0  0  0  0  0
   -6.1910   21.8840  -31.4900 C   0  0  0  0  0  0  0  0  0  0  0  0
   -1.6964   24.2218  -27.2376 H   0  0  0  0  0  0  0  0  0  0  0  0
   -1.0622   23.2203  -28.5872 H   0  0  0  0  0  0  0  0  0  0  0  0
   -2.7808   23.7429  -28.5872 H   0  0  0  0  0  0  0  0  0  0  0  0
   -0.2519   21.7540  -27.0674 H   0  0  0  0  0  0  0  0  0  0  0  0
   -1.0718   22.0239  -25.5105 H   0  0  0  0  0  0  0  0  0  0  0  0
   -0.6567   19.5117  -26.8683 H   0  0  0  0  0  0  0  0  0  0  0  0
   -1.5738   19.7610  -25.3748 H   0  0  0  0  0  0  0  0  0  0  0  0
   -2.6731   18.9971  -27.8622 H   0  0  0  0  0  0  0  0  0  0  0  0
   -3.6204   19.6661  -26.5316 H   0  0  0  0  0  0  0  0  0  0  0  0
   -4.0241   21.4068  -28.1635 H   0  0  0  0  0  0  0  0  0  0  0  0
   -1.6437   21.7142  -29.6382 H   0  0  0  0  0  0  0  0  0  0  0  0
   -2.0388   19.9499  -29.5611 H   0  0  0  0  0  0  0  0  0  0  0  0
   -3.0510   25.2890  -30.4460 H   0  0  0  0  0  0  0  0  0  0  0  0
   -7.9430   24.6466  -31.1674 H   0  0  0  0  0  0  0  0  0  0  0  0
   -9.5206   22.4107  -32.0123 H   0  0  0  0  0  0  0  0  0  0  0  0
   -9.3791   19.9626  -32.5791 H   0  0  0  0  0  0  0  0  0  0  0  0
   -5.0911   20.0316  -31.7939 H   0  0  0  0  0  0  0  0  0  0  0  0
  1  2  1  0
  2  3  1  0
  3  4  1  0
  4  5  1  0
  5  6  1  0
  6  7  1  0
  7  8  1  0
  8  9  1  0
  9 10  2  0
  9 11  1  0
 11 12  1  0
 12 13  1  0
 13 14  1  0
 13 15  2  0
 12 16  2  0
 16 17  1  0
 17 18  2  0
 18 19  1  0
 19 20  2  0
 20 21  1  0
 21 22  1  0
 21 23  1  0
 21 24  1  0
 20 25  1  0
 25 26  2  0
  6  2  1  0
 26 11  1  0
 26 17  1  0
  1 27  1  0
  1 28  1  0
  1 29  1  0
  3 30  1  0
  3 31  1  0
  4 32  1  0
  4 33  1  0
  5 34  1  0
  5 35  1  0
  6 36  1  6
  7 37  1  0
  7 38  1  0
 14 39  1  0
 16 40  1  0
 18 41  1  0
 19 42  1  0
 25 43  1  0
M  CHG  1  14  -1
M  END
>  <UniqueID>  (9) 
8

>  <SMILES>  (9) 
CN1CCC[C@@H]1COC(=O)n1c(C([NH-])=O)cc2ccc(C(F)(F)F)cc21

>  <Energy>  (9) 
86.60681972840398

>  <Genealogy>  (9) 
CN1CCCC1COC(=O)n1c(C([NH-])=O)cc2ccc(C(F)(F)F)cc21 (protonated)
CN1CCC[C@@H]1COC(=O)n1c(C([NH-])=O)cc2ccc(C(F)(F)F)cc21 (chirality)
CN1CCC[C@@H]1COC(=O)n1c(C([NH-])=O)cc2ccc(C(F)(F)F)cc21 (3D coordinates assigned)
CN1CCC[C@@H]1COC(=O)n1c(C([NH-])=O)cc2ccc(C(F)(F)F)cc21 (nonaromatic ring conformer: 86.60681972840398 kcal/mol)

>  <smiles>  (9) 
CN1CCCC1COC(=O)n1c(C(N)=O)cc2ccc(C(F)(F)F)cc21

>  <score_type>  (9) 
oracle

>  <origin>  (9) 
adg

>  <m_score__min__energy>  (9) 
-10.16

>  <m_primary>  (9) 
energy

$$$$
9:0
     RDKit          3D

 33 34  0  0  0  0  0  0  0  0999 V2000
   -3.8540   25.3770  -30.8560 N   0  0  0  0  0  0  0  0  0  0  0  0
   -5.2410   25.1810  -30.5980 C   0  0  0  0  0  0  0  0  0  0  0  0
   -5.8810   26.0650  -29.9670 O   0  0  0  0  0  0  0  0  0  0  0  0
   -5.9230   23.9350  -31.0050 C   0  0  0  0  0  0  0  0  0  0  0  0
   -7.2860   23.8640  -31.2810 C   0  0  0  0  0  0  0  0  0  0  0  0
   -7.5420   22.5340  -31.5200 C   0  0  0  0  0  0  0  0  0  0  0  0
   -8.7360   21.8960  -31.8390 C   0  0  0  0  0  0  0  0  0  0  0  0
   -8.7050   20.5070  -32.0490 C   0  0  0  0  0  0  0  0  0  0  0  0
   -7.4860   19.7880  -31.9660 C   0  0  0  0  0  0  0  0  0  0  0  0
   -7.4720   18.2910  -32.1570 C   0  0  0  0  0  0  0  0  0  0  0  0
   -8.7330   17.7600  -31.9510 F   0  0  0  0  0  0  0  0  0  0  0  0
   -7.0700   17.9660  -33.4410 F   0  0  0  0  0  0  0  0  0  0  0  0
   -6.5930   17.7260  -31.2520 F   0  0  0  0  0  0  0  0  0  0  0  0
   -6.2970   20.4700  -31.6180 C   0  0  0  0  0  0  0  0  0  0  0  0
   -6.3600   21.8510  -31.3940 C   0  0  0  0  0  0  0  0  0  0  0  0
   -5.3550   22.6980  -31.0820 N   0  0  0  0  0  0  0  0  0  0  0  0
   -3.9680   22.3540  -30.9410 C   0  0  0  0  0  0  0  0  0  0  0  0
   -3.1380   22.7060  -31.8230 O   0  0  0  0  0  0  0  0  0  0  0  0
   -3.5470   21.6080  -29.8370 O   0  0  0  0  0  0  0  0  0  0  0  0
   -3.3750   22.1750  -28.5410 C   0  0  0  0  0  0  0  0  0  0  0  0
   -3.3050   23.5790  -28.6320 O   0  0  0  0  0  0  0  0  0  0  0  0
   -1.6850   24.0340  -28.9180 P   0  0  2  0  0  0  0  0  0  0  0  0
   -0.8850   23.8130  -27.6530 O   0  0  0  0  0  0  0  0  0  0  0  0
   -1.5980   25.6710  -29.3420 O   0  0  0  0  0  0  0  0  0  0  0  0
   -1.0270   23.0900  -30.1590 O   0  0  0  0  0  0  0  0  0  0  0  0
   -3.1470   24.6640  -30.5690 H   0  0  0  0  0  0  0  0  0  0  0  0
   -8.0056   24.6956  -31.3032 H   0  0  0  0  0  0  0  0  0  0  0  0
   -9.6757   22.4614  -31.9243 H   0  0  0  0  0  0  0  0  0  0  0  0
   -9.6374   19.9713  -32.2805 H   0  0  0  0  0  0  0  0  0  0  0  0
   -5.3443   19.9280  -31.5254 H   0  0  0  0  0  0  0  0  0  0  0  0
   -4.2272   21.8937  -27.9049 H   0  0  0  0  0  0  0  0  0  0  0  0
   -2.4398   21.7956  -28.1034 H   0  0  0  0  0  0  0  0  0  0  0  0
   -1.7560   22.4720  -30.4210 H   0  0  0  0  0  0  0  0  0  0  0  0
  1  2  1  0
  2  3  2  0
  2  4  1  0
  4  5  2  0
  5  6  1  0
  6  7  2  0
  7  8  1  0
  8  9  2  0
  9 10  1  0
 10 11  1  0
 10 12  1  0
 10 13  1  0
  9 14  1  0
 14 15  2  0
 15 16  1  0
 16 17  1  0
 17 18  2  0
 17 19  1  0
 19 20  1  0
 20 21  1  0
 21 22  1  0
 22 23  2  0
 22 24  1  6
 22 25  1  0
 16  4  1  0
 15  6  1  0
  1 26  1  0
  5 27  1  0
  7 28  1  0
  8 29  1  0
 14 30  1  0
 20 31  1  0
 20 32  1  0
 25 33  1  0
M  CHG  2   1  -1  24  -1
M  END
>  <UniqueID>  (10) 
9

>  <SMILES>  (10) 
[NH-]C(=O)c1cc2ccc(C(F)(F)F)cc2n1C(=O)OCO[P@](=O)([O-])O

>  <Energy>  (10) 
69.80843247830809

>  <Genealogy>  (10) 
[NH-]C(=O)c1cc2ccc(C(F)(F)F)cc2n1C(=O)OCOP(=O)([O-])O (protonated)
[NH-]C(=O)c1cc2ccc(C(F)(F)F)cc2n1C(=O)OCO[P@](=O)([O-])O (chirality)
[NH-]C(=O)c1cc2ccc(C(F)(F)F)cc2n1C(=O)OCO[P@](=O)([O-])O (3D coordinates assigned)
[NH-]C(=O)c1cc2ccc(C(F)(F)F)cc2n1C(=O)OCO[P@](=O)([O-])O (optimized conformer: 69.80843247830809 kcal/mol)

>  <smiles>  (10) 
NC(=O)c1cc2ccc(C(F)(F)F)cc2n1C(=O)OCOP(=O)(O)O

>  <score_type>  (10) 
oracle

>  <origin>  (10) 
adg

>  <m_score__min__energy>  (10) 
-12.08

>  <m_primary>  (10) 
energy

$$$$
10:0
     RDKit          3D

 41 42  0  0  0  0  0  0  0  0999 V2000
   -7.1780   17.8260  -33.4580 C   0  0  0  0  0  0  0  0  0  0  0  0
   -7.2280   19.0850  -32.6460 C   0  0  0  0  0  0  0  0  0  0  0  0
   -8.3840   19.3950  -31.8870 C   0  0  0  0  0  0  0  0  0  0  0  0
   -8.4520   20.5840  -31.1400 C   0  0  0  0  0  0  0  0  0  0  0  0
   -7.3620   21.4490  -31.1900 C   0  0  0  0  0  0  0  0  0  0  0  0
   -7.1490   22.6450  -30.5440 C   0  0  0  0  0  0  0  0  0  0  0  0
   -5.8840   23.0640  -30.9540 C   0  0  0  0  0  0  0  0  0  0  0  0
   -5.2740   24.3430  -30.5370 C   0  0  0  0  0  0  0  0  0  0  0  0
   -5.7000   25.0180  -29.3520 N   0  0  0  0  0  0  0  0  0  0  0  0
   -4.3290   24.8270  -31.2150 O   0  0  0  0  0  0  0  0  0  0  0  0
   -5.3330   22.1560  -31.8070 N   0  0  0  0  0  0  0  0  0  0  0  0
   -4.0050   22.1460  -32.3540 C   0  0  0  0  0  0  0  0  0  0  0  0
   -3.8390   22.2920  -33.5940 O   0  0  0  0  0  0  0  0  0  0  0  0
   -2.8090   21.8880  -31.4730 C   0  0  0  0  0  0  0  0  0  0  0  0
   -1.5520   21.9040  -32.2390 N   0  0  0  0  0  0  0  0  0  0  0  0
   -0.9520   20.5660  -32.3780 C   0  0  0  0  0  0  0  0  0  0  0  0
   -0.8680   20.1420  -33.8550 C   0  0  1  0  0  0  0  0  0  0  0  0
   -2.1390   20.2770  -34.4370 O   0  0  0  0  0  0  0  0  0  0  0  0
    0.1610   20.9780  -34.6390 C   0  0  0  0  0  0  0  0  0  0  0  0
   -0.3220   22.2710  -34.8920 O   0  0  0  0  0  0  0  0  0  0  0  0
   -6.2520   21.1770  -31.9460 C   0  0  0  0  0  0  0  0  0  0  0  0
   -6.1480   19.9940  -32.6850 C   0  0  0  0  0  0  0  0  0  0  0  0
   -7.1435   16.9567  -32.7849 H   0  0  0  0  0  0  0  0  0  0  0  0
   -8.0744   17.7631  -34.0925 H   0  0  0  0  0  0  0  0  0  0  0  0
   -6.2795   17.8344  -34.0925 H   0  0  0  0  0  0  0  0  0  0  0  0
   -9.2358   18.6990  -31.8823 H   0  0  0  0  0  0  0  0  0  0  0  0
   -9.3388   20.8236  -30.5348 H   0  0  0  0  0  0  0  0  0  0  0  0
   -7.8311   23.1605  -29.8519 H   0  0  0  0  0  0  0  0  0  0  0  0
   -6.3460   24.5620  -28.6720 H   0  0  0  0  0  0  0  0  0  0  0  0
   -5.2940   25.9480  -29.1060 H   0  0  0  0  0  0  0  0  0  0  0  0
   -2.7633   22.6669  -30.6976 H   0  0  0  0  0  0  0  0  0  0  0  0
   -2.9235   20.8900  -31.0248 H   0  0  0  0  0  0  0  0  0  0  0  0
   -1.7350   22.2950  -33.1940 H   0  0  0  0  0  0  0  0  0  0  0  0
    0.0618   20.5818  -31.9514 H   0  0  0  0  0  0  0  0  0  0  0  0
   -1.5872   19.8434  -31.8447 H   0  0  0  0  0  0  0  0  0  0  0  0
   -0.5341   19.0947  -33.8966 H   0  0  0  0  0  0  0  0  0  0  0  0
   -2.2750   21.2450  -34.6110 H   0  0  0  0  0  0  0  0  0  0  0  0
    1.0877   21.0500  -34.0507 H   0  0  0  0  0  0  0  0  0  0  0  0
    0.3505   20.4824  -35.6026 H   0  0  0  0  0  0  0  0  0  0  0  0
   -1.2670   22.2880  -34.5850 H   0  0  0  0  0  0  0  0  0  0  0  0
   -5.2489   19.7775  -33.2807 H   0  0  0  0  0  0  0  0  0  0  0  0
  1  2  1  0
  2  3  2  0
  3  4  1  0
  4  5  2  0
  5  6  1  0
  6  7  2  0
  7  8  1  0
  8  9  1  0
  8 10  2  0
  7 11  1  0
 11 12  1  0
 12 13  2  0
 12 14  1  0
 14 15  1  0
 15 16  1  0
 16 17  1  0
 17 18  1  0
 17 19  1  0
 19 20  1  0
 11 21  1  0
 21 22  2  0
 22  2  1  0
 21  5  1  0
  1 23  1  0
  1 24  1  0
  1 25  1  0
  3 26  1  0
  4 27  1  0
  6 28  1  0
  9 29  1  0
  9 30  1  0
 14 31  1  0
 14 32  1  0
 15 33  1  0
 16 34  1  0
 16 35  1  0
 17 36  1  1
 18 37  1  0
 19 38  1  0
 19 39  1  0
 20 40  1  0
 22 41  1  0
M  END
>  <UniqueID>  (11) 
10

>  <SMILES>  (11) 
Cc1ccc2cc(C(N)=O)n(C(=O)CNC[C@@H](O)CO)c2c1

>  <Energy>  (11) 
77.2444080630303

>  <Genealogy>  (11) 
Cc1ccc2cc(C(N)=O)n(C(=O)CNC[C@@H](O)CO)c2c1 (chirality)
Cc1ccc2cc(C(N)=O)n(C(=O)CNC[C@@H](O)CO)c2c1 (3D coordinates assigned)
Cc1ccc2cc(C(N)=O)n(C(=O)CNC[C@@H](O)CO)c2c1 (optimized conformer: 77.2444080630303 kcal/mol)

>  <smiles>  (11) 
Cc1ccc2cc(C(N)=O)n(C(=O)CNCC(O)CO)c2c1

>  <score_type>  (11) 
oracle

>  <origin>  (11) 
adg

>  <m_score__min__energy>  (11) 
-8.3399999999999999

>  <m_primary>  (11) 
energy

$$$$
11:0
     RDKit          3D

 35 36  0  0  0  0  0  0  0  0999 V2000
   -3.1010   18.5640  -25.9640 C   0  0  0  0  0  0  0  0  0  0  0  0
   -2.9640   19.1390  -27.2460 O   0  0  0  0  0  0  0  0  0  0  0  0
   -2.0590   20.2250  -27.2010 C   0  0  0  0  0  0  0  0  0  0  0  0
   -2.3220   21.1510  -28.3090 C   0  0  0  0  0  0  0  0  0  0  0  0
   -2.5380   21.9070  -29.2210 C   0  0  0  0  0  0  0  0  0  0  0  0
   -2.7860   22.7640  -30.2600 O   0  0  0  0  0  0  0  0  0  0  0  0
   -3.5310   22.3780  -31.3780 C   0  0  0  0  0  0  0  0  0  0  0  0
   -2.9490   21.9560  -32.4140 O   0  0  0  0  0  0  0  0  0  0  0  0
   -4.9650   22.4650  -31.3430 N   0  0  0  0  0  0  0  0  0  0  0  0
   -5.7170   23.5240  -30.9290 C   0  0  0  0  0  0  0  0  0  0  0  0
   -5.2070   24.7400  -30.2660 C   0  0  0  0  0  0  0  0  0  0  0  0
   -5.7620   25.1960  -29.0300 N   0  0  0  0  0  0  0  0  0  0  0  0
   -4.3050   25.4190  -30.8250 O   0  0  0  0  0  0  0  0  0  0  0  0
   -7.0690   23.2910  -31.1670 C   0  0  0  0  0  0  0  0  0  0  0  0
   -7.1280   22.0390  -31.7330 C   0  0  0  0  0  0  0  0  0  0  0  0
   -8.2260   21.3080  -32.1720 C   0  0  0  0  0  0  0  0  0  0  0  0
   -7.9940   20.0490  -32.7470 C   0  0  0  0  0  0  0  0  0  0  0  0
   -6.6730   19.5530  -32.8980 C   0  0  0  0  0  0  0  0  0  0  0  0
   -6.4390   18.1840  -33.4850 C   0  0  0  0  0  0  0  0  0  0  0  0
   -6.1220   18.3120  -34.8250 F   0  0  0  0  0  0  0  0  0  0  0  0
   -7.5730   17.4000  -33.3640 F   0  0  0  0  0  0  0  0  0  0  0  0
   -5.3990   17.5430  -32.8350 F   0  0  0  0  0  0  0  0  0  0  0  0
   -5.5830   20.3170  -32.4200 C   0  0  0  0  0  0  0  0  0  0  0  0
   -5.8450   21.5610  -31.8320 C   0  0  0  0  0  0  0  0  0  0  0  0
   -2.9183   19.3308  -25.1968 H   0  0  0  0  0  0  0  0  0  0  0  0
   -4.1194   18.1647  -25.8481 H   0  0  0  0  0  0  0  0  0  0  0  0
   -2.3720   17.7484  -25.8481 H   0  0  0  0  0  0  0  0  0  0  0  0
   -2.1783   20.7579  -26.2461 H   0  0  0  0  0  0  0  0  0  0  0  0
   -1.0324   19.8403  -27.2910 H   0  0  0  0  0  0  0  0  0  0  0  0
   -5.3630   26.0360  -28.5550 H   0  0  0  0  0  0  0  0  0  0  0  0
   -6.6170   24.7540  -28.6280 H   0  0  0  0  0  0  0  0  0  0  0  0
   -7.9106   23.9648  -30.9488 H   0  0  0  0  0  0  0  0  0  0  0  0
   -9.2470   21.7049  -32.0716 H   0  0  0  0  0  0  0  0  0  0  0  0
   -8.8456   19.4399  -33.0844 H   0  0  0  0  0  0  0  0  0  0  0  0
   -4.5524   19.9426  -32.5080 H   0  0  0  0  0  0  0  0  0  0  0  0
  1  2  1  0
  2  3  1  0
  3  4  1  0
  4  5  3  0
  5  6  1  0
  6  7  1  0
  7  8  2  0
  7  9  1  0
  9 10  1  0
 10 11  1  0
 11 12  1  0
 11 13  2  0
 10 14  2  0
 14 15  1  0
 15 16  2  0
 16 17  1  0
 17 18  2  0
 18 19  1  0
 19 20  1  0
 19 21  1  0
 19 22  1  0
 18 23  1  0
 23 24  2  0
 24  9  1  0
 24 15  1  0
  1 25  1  0
  1 26  1  0
  1 27  1  0
  3 28  1  0
  3 29  1  0
 12 30  1  0
 12 31  1  0
 14 32  1  0
 16 33  1  0
 17 34  1  0
 23 35  1  0
M  END
>  <UniqueID>  (12) 
11

>  <SMILES>  (12) 
COCC#COC(=O)n1c(C(N)=O)cc2ccc(C(F)(F)F)cc21

>  <Energy>  (12) 
73.09331105771594

>  <Genealogy>  (12) 
COCC#COC(=O)n1c(C(N)=O)cc2ccc(C(F)(F)F)cc21 (3D coordinates assigned)
COCC#COC(=O)n1c(C(N)=O)cc2ccc(C(F)(F)F)cc21 (optimized conformer: 73.09331105771594 kcal/mol)

>  <smiles>  (12) 
COCC#COC(=O)n1c(C(N)=O)cc2ccc(C(F)(F)F)cc21

>  <score_type>  (12) 
oracle

>  <origin>  (12) 
adg

>  <m_score__min__energy>  (12) 
-8.7400000000000002

>  <m_primary>  (12) 
energy

$$$$
12:0
     RDKit          3D

 36 38  0  0  0  0  0  0  0  0999 V2000
   -4.3690   25.6160  -30.5070 N   0  0  0  0  0  0  0  0  0  0  0  0
   -5.5570   24.9760  -30.0440 C   0  0  0  0  0  0  0  0  0  0  0  0
   -6.2350   25.5170  -29.1310 O   0  0  0  0  0  0  0  0  0  0  0  0
   -5.9630   23.6770  -30.6150 C   0  0  0  0  0  0  0  0  0  0  0  0
   -7.1960   23.4450  -31.2250 C   0  0  0  0  0  0  0  0  0  0  0  0
   -7.1390   22.1470  -31.6820 C   0  0  0  0  0  0  0  0  0  0  0  0
   -8.0920   21.3880  -32.3540 C   0  0  0  0  0  0  0  0  0  0  0  0
   -7.7650   20.0610  -32.6830 C   0  0  0  0  0  0  0  0  0  0  0  0
   -6.5010   19.5150  -32.3360 C   0  0  0  0  0  0  0  0  0  0  0  0
   -6.1700   18.1070  -32.6730 C   0  0  0  0  0  0  0  0  0  0  0  0
   -6.2120   17.6470  -33.9990 C   0  0  0  0  0  0  0  0  0  0  0  0
   -5.9030   16.3550  -34.2840 N   0  0  0  0  0  0  0  0  0  0  0  0
   -5.5540   15.4870  -33.3010 C   0  0  0  0  0  0  0  0  0  0  0  0
   -5.5080   15.9040  -32.0110 N   0  0  0  0  0  0  0  0  0  0  0  0
   -5.8040   17.1870  -31.6780 C   0  0  0  0  0  0  0  0  0  0  0  0
   -5.5590   20.3240  -31.6570 C   0  0  0  0  0  0  0  0  0  0  0  0
   -5.9110   21.6400  -31.3490 C   0  0  0  0  0  0  0  0  0  0  0  0
   -5.1810   22.5630  -30.6900 N   0  0  0  0  0  0  0  0  0  0  0  0
   -3.8770   22.3600  -30.1270 C   0  0  0  0  0  0  0  0  0  0  0  0
   -3.6940   21.4300  -29.2970 O   0  0  0  0  0  0  0  0  0  0  0  0
   -2.7610   23.3120  -30.4330 C   0  0  0  0  0  0  0  0  0  0  0  0
   -2.2780   24.2130  -28.9300 P   0  0  1  0  0  0  0  0  0  0  0  0
   -1.3050   23.3700  -28.1380 O   0  0  0  0  0  0  0  0  0  0  0  0
   -1.5340   25.6720  -29.3520 O   0  0  0  0  0  0  0  0  0  0  0  0
   -3.6430   24.5250  -27.9790 O   0  0  0  0  0  0  0  0  0  0  0  0
   -3.5230   25.6800  -29.8990 H   0  0  0  0  0  0  0  0  0  0  0  0
   -8.0355   24.1493  -31.3207 H   0  0  0  0  0  0  0  0  0  0  0  0
   -9.0711   21.8132  -32.6196 H   0  0  0  0  0  0  0  0  0  0  0  0
   -8.4978   19.4375  -33.2162 H   0  0  0  0  0  0  0  0  0  0  0  0
   -6.4959   18.3346  -34.8093 H   0  0  0  0  0  0  0  0  0  0  0  0
   -5.3082   14.4443  -33.5505 H   0  0  0  0  0  0  0  0  0  0  0  0
   -5.7568   17.5059  -30.6263 H   0  0  0  0  0  0  0  0  0  0  0  0
   -4.5723   19.9255  -31.3782 H   0  0  0  0  0  0  0  0  0  0  0  0
   -1.8961   22.7485  -30.8130 H   0  0  0  0  0  0  0  0  0  0  0  0
   -3.1007   24.0329  -31.1912 H   0  0  0  0  0  0  0  0  0  0  0  0
   -4.1430   25.2230  -28.4720 H   0  0  0  0  0  0  0  0  0  0  0  0
  1  2  1  0
  2  3  2  0
  2  4  1  0
  4  5  2  0
  5  6  1  0
  6  7  2  0
  7  8  1  0
  8  9  2  0
  9 10  1  0
 10 11  2  0
 11 12  1  0
 12 13  2  0
 13 14  1  0
 14 15  2  0
  9 16  1  0
 16 17  2  0
 17 18  1  0
 18 19  1  0
 19 20  2  0
 19 21  1  0
 21 22  1  0
 22 23  2  0
 22 24  1  6
 22 25  1  0
 18  4  1  0
 17  6  1  0
 15 10  1  0
  1 26  1  0
  5 27  1  0
  7 28  1  0
  8 29  1  0
 11 30  1  0
 13 31  1  0
 15 32  1  0
 16 33  1  0
 21 34  1  0
 21 35  1  0
 25 36  1  0
M  CHG  2   1  -1  24  -1
M  END
>  <UniqueID>  (13) 
12

>  <SMILES>  (13) 
[NH-]C(=O)c1cc2ccc(-c3cncnc3)cc2n1C(=O)C[P@@](=O)([O-])O

>  <Energy>  (13) 
77.5898332829425

>  <Genealogy>  (13) 
[NH-]C(=O)c1cc2ccc(-c3cncnc3)cc2n1C(=O)CP(=O)([O-])O (protonated)
[NH-]C(=O)c1cc2ccc(-c3cncnc3)cc2n1C(=O)C[P@@](=O)([O-])O (chirality)
[NH-]C(=O)c1cc2ccc(-c3cncnc3)cc2n1C(=O)C[P@@](=O)([O-])O (3D coordinates assigned)
[NH-]C(=O)c1cc2ccc(-c3cncnc3)cc2n1C(=O)C[P@@](=O)([O-])O (optimized conformer: 77.5898332829425 kcal/mol)

>  <smiles>  (13) 
NC(=O)c1cc2ccc(-c3cncnc3)cc2n1C(=O)CP(=O)(O)O

>  <score_type>  (13) 
oracle

>  <origin>  (13) 
adg

>  <m_score__min__energy>  (13) 
-12.800000000000001

>  <m_primary>  (13) 
energy

$$$$
13:0
     RDKit          3D

 51 55  0  0  0  0  0  0  0  0999 V2000
   -1.6830   25.7120  -28.6780 N   0  0  0  0  0  0  0  0  0  0  0  0
   -0.8920   24.5290  -28.7710 C   0  0  0  0  0  0  0  0  0  0  0  0
    0.1870   24.4560  -28.1270 O   0  0  0  0  0  0  0  0  0  0  0  0
   -1.3590   23.3950  -29.5980 C   0  0  0  0  0  0  0  0  0  0  0  0
   -0.5310   22.6590  -30.4420 C   0  0  0  0  0  0  0  0  0  0  0  0
   -1.3570   21.7490  -31.0600 C   0  0  0  0  0  0  0  0  0  0  0  0
   -1.0620   20.7610  -31.9900 C   0  0  0  0  0  0  0  0  0  0  0  0
   -2.1100   19.9450  -32.4410 C   0  0  0  0  0  0  0  0  0  0  0  0
   -3.4430   20.1110  -31.9590 C   0  0  0  0  0  0  0  0  0  0  0  0
   -4.5600   19.1850  -32.4810 C   0  0  2  0  0  0  0  0  0  0  0  0
   -4.0260   17.8060  -32.9870 C   0  0  0  0  0  0  0  0  0  0  0  0
   -5.1840   16.9210  -33.4970 C   0  0  1  0  0  0  0  0  0  0  0  0
   -6.1840   16.6730  -32.3490 C   0  0  0  0  0  0  0  0  0  0  0  0
   -6.7440   18.0230  -31.8570 C   0  0  2  0  0  0  0  0  0  0  0  0
   -7.4590   18.7410  -33.0220 C   0  0  0  0  0  0  0  0  0  0  0  0
   -6.4590   18.9840  -34.1730 C   0  0  2  0  0  0  0  0  0  0  0  0
   -5.8990   17.6320  -34.6630 C   0  0  0  0  0  0  0  0  0  0  0  0
   -5.2990   19.8720  -33.6700 C   0  0  0  0  0  0  0  0  0  0  0  0
   -5.5850   18.9070  -31.3410 C   0  0  0  0  0  0  0  0  0  0  0  0
   -3.6880   21.1360  -31.0040 C   0  0  0  0  0  0  0  0  0  0  0  0
   -2.6250   21.9450  -30.5900 C   0  0  0  0  0  0  0  0  0  0  0  0
   -2.6460   22.9550  -29.6910 N   0  0  0  0  0  0  0  0  0  0  0  0
   -3.7850   23.4240  -28.9500 C   0  0  0  0  0  0  0  0  0  0  0  0
   -3.6200   23.8930  -27.7910 O   0  0  0  0  0  0  0  0  0  0  0  0
   -5.1450   23.4590  -29.5850 C   0  0  0  0  0  0  0  0  0  0  0  0
   -5.3740   24.9530  -30.6040 P   0  0  0  0  0  0  0  0  0  0  0  0
   -6.3180   25.9160  -29.9200 O   0  0  0  0  0  0  0  0  0  0  0  0
   -3.8810   25.7120  -30.8430 O   0  0  0  0  0  0  0  0  0  0  0  0
   -6.0180   24.5090  -32.1020 O   0  0  0  0  0  0  0  0  0  0  0  0
   -2.6800   25.7160  -28.9860 H   0  0  0  0  0  0  0  0  0  0  0  0
    0.5531   22.7797  -30.5842 H   0  0  0  0  0  0  0  0  0  0  0  0
   -0.0362   20.6223  -32.3623 H   0  0  0  0  0  0  0  0  0  0  0  0
   -1.8998   19.1600  -33.1824 H   0  0  0  0  0  0  0  0  0  0  0  0
   -3.3132   17.9748  -33.8076 H   0  0  0  0  0  0  0  0  0  0  0  0
   -3.5324   17.2912  -32.1496 H   0  0  0  0  0  0  0  0  0  0  0  0
   -4.7847   15.9579  -33.8477 H   0  0  0  0  0  0  0  0  0  0  0  0
   -7.0099   16.0432  -32.7113 H   0  0  0  0  0  0  0  0  0  0  0  0
   -5.6721   16.1633  -31.5195 H   0  0  0  0  0  0  0  0  0  0  0  0
   -7.4602   17.8452  -31.0413 H   0  0  0  0  0  0  0  0  0  0  0  0
   -8.2883   18.1154  -33.3837 H   0  0  0  0  0  0  0  0  0  0  0  0
   -7.8520   19.7062  -32.6699 H   0  0  0  0  0  0  0  0  0  0  0  0
   -6.9728   19.4898  -35.0038 H   0  0  0  0  0  0  0  0  0  0  0  0
   -6.7249   17.0024  -35.0256 H   0  0  0  0  0  0  0  0  0  0  0  0
   -5.1845   17.8051  -35.4812 H   0  0  0  0  0  0  0  0  0  0  0  0
   -4.5868   20.0368  -34.4920 H   0  0  0  0  0  0  0  0  0  0  0  0
   -5.7102   20.8324  -33.3256 H   0  0  0  0  0  0  0  0  0  0  0  0
   -5.9922   19.8628  -30.9796 H   0  0  0  0  0  0  0  0  0  0  0  0
   -5.0724   18.3792  -30.5233 H   0  0  0  0  0  0  0  0  0  0  0  0
   -4.6983   21.2901  -30.5971 H   0  0  0  0  0  0  0  0  0  0  0  0
   -5.2638   22.5707  -30.2228 H   0  0  0  0  0  0  0  0  0  0  0  0
   -5.8980   23.4717  -28.7832 H   0  0  0  0  0  0  0  0  0  0  0  0
  1  2  1  0
  2  3  2  0
  2  4  1  0
  4  5  2  0
  5  6  1  0
  6  7  2  0
  7  8  1  0
  8  9  2  0
 10  9  1  1
 10 11  1  0
 11 12  1  0
 12 13  1  0
 13 14  1  0
 14 15  1  0
 15 16  1  0
 16 17  1  0
 16 18  1  0
 14 19  1  0
  9 20  1  0
 20 21  2  0
 21 22  1  0
 22 23  1  0
 23 24  2  0
 23 25  1  0
 25 26  1  0
 26 27  2  0
 26 28  1  0
 26 29  1  0
 22  4  1  0
 21  6  1  0
 18 10  1  0
 19 10  1  0
 17 12  1  0
  1 30  1  0
  5 31  1  0
  7 32  1  0
  8 33  1  0
 11 34  1  0
 11 35  1  0
 12 36  1  6
 13 37  1  0
 13 38  1  0
 14 39  1  1
 15 40  1  0
 15 41  1  0
 16 42  1  6
 17 43  1  0
 17 44  1  0
 18 45  1  0
 18 46  1  0
 19 47  1  0
 19 48  1  0
 20 49  1  0
 25 50  1  0
 25 51  1  0
M  CHG  3   1  -1  28  -1  29  -1
M  END
>  <UniqueID>  (14) 
13

>  <SMILES>  (14) 
[NH-]C(=O)c1cc2ccc(C34CC5CC(CC(C5)C3)C4)cc2n1C(=O)CP(=O)([O-])[O-]

>  <Energy>  (14) 
93.07379569417334

>  <Genealogy>  (14) 
[NH-]C(=O)c1cc2ccc(C34CC5CC(CC(C5)C3)C4)cc2n1C(=O)CP(=O)([O-])[O-] (protonated)
[NH-]C(=O)c1cc2ccc(C34CC5CC(CC(C5)C3)C4)cc2n1C(=O)CP(=O)([O-])[O-] (3D coordinates assigned)
[NH-]C(=O)c1cc2ccc(C34CC5CC(CC(C5)C3)C4)cc2n1C(=O)CP(=O)([O-])[O-] (nonaromatic ring conformer: 93.07379569417334 kcal/mol)

>  <smiles>  (14) 
NC(=O)c1cc2ccc(C34CC5CC(CC(C5)C3)C4)cc2n1C(=O)CP(=O)(O)O

>  <score_type>  (14) 
oracle

>  <origin>  (14) 
adg

>  <m_score__min__energy>  (14) 
-14.789999999999999

>  <m_primary>  (14) 
energy

$$$$
14:0
     RDKit          3D

 35 36  0  0  0  0  0  0  0  0999 V2000
   -5.3010   24.1820  -29.4770 N   0  0  0  0  0  0  0  0  0  0  0  0
   -6.4940   23.9490  -30.2280 C   0  0  0  0  0  0  0  0  0  0  0  0
   -7.3570   24.8630  -30.3120 O   0  0  0  0  0  0  0  0  0  0  0  0
   -6.7630   22.6370  -30.8500 C   0  0  0  0  0  0  0  0  0  0  0  0
   -8.0140   22.0280  -30.8420 C   0  0  0  0  0  0  0  0  0  0  0  0
   -7.8250   20.8080  -31.4500 C   0  0  0  0  0  0  0  0  0  0  0  0
   -8.7370   19.7890  -31.7070 C   0  0  0  0  0  0  0  0  0  0  0  0
   -8.2720   18.6430  -32.3740 C   0  0  0  0  0  0  0  0  0  0  0  0
   -6.9200   18.5460  -32.7960 C   0  0  0  0  0  0  0  0  0  0  0  0
   -6.4260   17.2960  -33.4790 C   0  0  0  0  0  0  0  0  0  0  0  0
   -6.1400   17.5480  -34.8100 F   0  0  0  0  0  0  0  0  0  0  0  0
   -5.2780   16.8570  -32.8460 F   0  0  0  0  0  0  0  0  0  0  0  0
   -7.3810   16.2970  -33.4240 F   0  0  0  0  0  0  0  0  0  0  0  0
   -6.0210   19.5950  -32.4950 C   0  0  0  0  0  0  0  0  0  0  0  0
   -6.5050   20.7160  -31.8110 C   0  0  0  0  0  0  0  0  0  0  0  0
   -5.8390   21.8360  -31.4520 N   0  0  0  0  0  0  0  0  0  0  0  0
   -4.4690   22.1490  -31.7420 C   0  0  0  0  0  0  0  0  0  0  0  0
   -4.1120   22.3670  -32.9330 O   0  0  0  0  0  0  0  0  0  0  0  0
   -3.5350   22.2160  -30.7020 O   0  0  0  0  0  0  0  0  0  0  0  0
   -2.1860   22.6440  -30.8820 C   0  0  0  0  0  0  0  0  0  0  0  0
   -1.6300   23.2760  -29.6020 C   0  0  0  0  0  0  0  0  0  0  0  0
   -2.4570   24.8550  -29.2230 P   0  0  0  0  0  0  0  0  0  0  0  0
   -3.2920   24.6930  -27.9750 O   0  0  0  0  0  0  0  0  0  0  0  0
   -1.3040   26.0660  -28.9690 O   0  0  0  0  0  0  0  0  0  0  0  0
   -3.4590   25.2970  -30.5130 O   0  0  0  0  0  0  0  0  0  0  0  0
   -4.6510   23.4010  -29.2400 H   0  0  0  0  0  0  0  0  0  0  0  0
   -5.1080   25.1280  -29.0800 H   0  0  0  0  0  0  0  0  0  0  0  0
   -8.9524   22.4344  -30.4368 H   0  0  0  0  0  0  0  0  0  0  0  0
   -9.7889   19.8778  -31.3977 H   0  0  0  0  0  0  0  0  0  0  0  0
   -8.9639   17.8110  -32.5716 H   0  0  0  0  0  0  0  0  0  0  0  0
   -4.9638   19.5314  -32.7921 H   0  0  0  0  0  0  0  0  0  0  0  0
   -1.5670   21.7756  -31.1516 H   0  0  0  0  0  0  0  0  0  0  0  0
   -2.1638   23.3992  -31.6815 H   0  0  0  0  0  0  0  0  0  0  0  0
   -1.7852   22.5810  -28.7636 H   0  0  0  0  0  0  0  0  0  0  0  0
   -0.5587   23.4750  -29.7526 H   0  0  0  0  0  0  0  0  0  0  0  0
  1  2  1  0
  2  3  2  0
  2  4  1  0
  4  5  2  0
  5  6  1  0
  6  7  2  0
  7  8  1  0
  8  9  2  0
  9 10  1  0
 10 11  1  0
 10 12  1  0
 10 13  1  0
  9 14  1  0
 14 15  2  0
 15 16  1  0
 16 17  1  0
 17 18  2  0
 17 19  1  0
 19 20  1  0
 20 21  1  0
 21 22  1  0
 22 23  2  0
 22 24  1  0
 22 25  1  0
 16  4  1  0
 15  6  1  0
  1 26  1  0
  1 27  1  0
  5 28  1  0
  7 29  1  0
  8 30  1  0
 14 31  1  0
 20 32  1  0
 20 33  1  0
 21 34  1  0
 21 35  1  0
M  CHG  2  24  -1  25  -1
M  END
>  <UniqueID>  (15) 
14

>  <SMILES>  (15) 
NC(=O)c1cc2ccc(C(F)(F)F)cc2n1C(=O)OCCP(=O)([O-])[O-]

>  <Energy>  (15) 
67.4065855496609

>  <Genealogy>  (15) 
NC(=O)c1cc2ccc(C(F)(F)F)cc2n1C(=O)OCCP(=O)([O-])[O-] (protonated)
NC(=O)c1cc2ccc(C(F)(F)F)cc2n1C(=O)OCCP(=O)([O-])[O-] (3D coordinates assigned)
NC(=O)c1cc2ccc(C(F)(F)F)cc2n1C(=O)OCCP(=O)([O-])[O-] (optimized conformer: 67.4065855496609 kcal/mol)

>  <smiles>  (15) 
NC(=O)c1cc2ccc(C(F)(F)F)cc2n1C(=O)OCCP(=O)(O)O

>  <score_type>  (15) 
oracle

>  <origin>  (15) 
adg

>  <m_score__min__energy>  (15) 
-12.5

>  <m_primary>  (15) 
energy

$$$$
15:0
     RDKit          3D

 35 36  0  0  0  0  0  0  0  0999 V2000
   -6.5430   18.1690  -32.2280 C   0  0  0  0  0  0  0  0  0  0  0  0
   -6.7940   19.6350  -32.0380 C   0  0  0  0  0  0  0  0  0  0  0  0
   -8.0920   20.1640  -32.2370 C   0  0  0  0  0  0  0  0  0  0  0  0
   -8.3490   21.5300  -32.0270 C   0  0  0  0  0  0  0  0  0  0  0  0
   -7.2920   22.3340  -31.6090 C   0  0  0  0  0  0  0  0  0  0  0  0
   -7.2580   23.6830  -31.3370 C   0  0  0  0  0  0  0  0  0  0  0  0
   -5.9460   23.9480  -30.9510 C   0  0  0  0  0  0  0  0  0  0  0  0
   -5.4950   25.2650  -30.4590 C   0  0  0  0  0  0  0  0  0  0  0  0
   -4.1330   25.6610  -30.5830 N   0  0  0  0  0  0  0  0  0  0  0  0
   -6.3120   26.0290  -29.8790 O   0  0  0  0  0  0  0  0  0  0  0  0
   -5.1930   22.8120  -30.9980 N   0  0  0  0  0  0  0  0  0  0  0  0
   -3.7750   22.6760  -30.7970 C   0  0  0  0  0  0  0  0  0  0  0  0
   -3.0740   22.1470  -31.7050 O   0  0  0  0  0  0  0  0  0  0  0  0
   -3.1440   23.2580  -29.6290 N   0  0  1  0  0  0  0  0  0  0  0  0
   -3.6700   22.6870  -28.3740 C   0  0  0  0  0  0  0  0  0  0  0  0
   -1.6680   23.1690  -29.7170 C   0  0  0  0  0  0  0  0  0  0  0  0
   -0.9570   24.4150  -29.2590 C   0  0  0  0  0  0  0  0  0  0  0  0
    0.2120   24.3430  -28.7970 O   0  0  0  0  0  0  0  0  0  0  0  0
   -1.5850   25.6510  -29.3430 O   0  0  0  0  0  0  0  0  0  0  0  0
   -6.0350   21.8330  -31.3920 C   0  0  0  0  0  0  0  0  0  0  0  0
   -5.7520   20.4780  -31.5960 C   0  0  0  0  0  0  0  0  0  0  0  0
   -6.4594   17.6810  -31.2457 H   0  0  0  0  0  0  0  0  0  0  0  0
   -7.3780   17.7237  -32.7888 H   0  0  0  0  0  0  0  0  0  0  0  0
   -5.6074   18.0268  -32.7888 H   0  0  0  0  0  0  0  0  0  0  0  0
   -8.9074   19.4996  -32.5591 H   0  0  0  0  0  0  0  0  0  0  0  0
   -9.3528   21.9501  -32.1877 H   0  0  0  0  0  0  0  0  0  0  0  0
   -8.0898   24.3992  -31.4091 H   0  0  0  0  0  0  0  0  0  0  0  0
   -3.5010   25.6790  -29.7520 H   0  0  0  0  0  0  0  0  0  0  0  0
   -3.3760   24.2780  -29.6120 H   0  0  0  0  0  0  0  0  0  0  0  0
   -3.2031   23.1938  -27.5166 H   0  0  0  0  0  0  0  0  0  0  0  0
   -4.7601   22.8293  -28.3350 H   0  0  0  0  0  0  0  0  0  0  0  0
   -3.4389   21.6123  -28.3350 H   0  0  0  0  0  0  0  0  0  0  0  0
   -1.3331   22.3285  -29.0914 H   0  0  0  0  0  0  0  0  0  0  0  0
   -1.4176   23.0285  -30.7789 H   0  0  0  0  0  0  0  0  0  0  0  0
   -4.7425   20.0797  -31.4164 H   0  0  0  0  0  0  0  0  0  0  0  0
  1  2  1  0
  2  3  2  0
  3  4  1  0
  4  5  2  0
  5  6  1  0
  6  7  2  0
  7  8  1  0
  8  9  1  0
  8 10  2  0
  7 11  1  0
 11 12  1  0
 12 13  2  0
 12 14  1  0
 14 15  1  0
 14 16  1  0
 16 17  1  0
 17 18  2  0
 17 19  1  0
 11 20  1  0
 20 21  2  0
 21  2  1  0
 20  5  1  0
  1 22  1  0
  1 23  1  0
  1 24  1  0
  3 25  1  0
  4 26  1  0
  6 27  1  0
  9 28  1  0
 14 29  1  1
 15 30  1  0
 15 31  1  0
 15 32  1  0
 16 33  1  0
 16 34  1  0
 21 35  1  0
M  CHG  3   9  -1  14   1  19  -1
M  END
>  <UniqueID>  (16) 
15

>  <SMILES>  (16) 
Cc1ccc2cc(C([NH-])=O)n(C(=O)[N@@H+](C)CC(=O)[O-])c2c1

>  <Energy>  (16) 
78.30446948692918

>  <Genealogy>  (16) 
Cc1ccc2cc(C([NH-])=O)n(C(=O)[NH+](C)CC(=O)[O-])c2c1 (protonated)
Cc1ccc2cc(C([NH-])=O)n(C(=O)[N@@H+](C)CC(=O)[O-])c2c1 (chirality)
Cc1ccc2cc(C([NH-])=O)n(C(=O)[N@@H+](C)CC(=O)[O-])c2c1 (3D coordinates assigned)
Cc1ccc2cc(C([NH-])=O)n(C(=O)[N@@H+](C)CC(=O)[O-])c2c1 (optimized conformer: 78.30446948692918 kcal/mol)

>  <smiles>  (16) 
Cc1ccc2cc(C(N)=O)n(C(=O)N(C)CC(=O)O)c2c1

>  <score_type>  (16) 
oracle

>  <origin>  (16) 
adg

>  <m_score__min__energy>  (16) 
-10.76

>  <m_primary>  (16) 
energy

$$$$
16:0
     RDKit          3D

 37 38  0  0  0  0  0  0  0  0999 V2000
   -6.5650   16.0180  -33.9050 C   0  0  0  0  0  0  0  0  0  0  0  0
   -5.8000   17.2340  -33.3780 C   0  0  0  0  0  0  0  0  0  0  0  0
   -6.4600   18.5710  -33.7830 C   0  0  0  0  0  0  0  0  0  0  0  0
   -7.6650   18.8820  -32.9930 N   0  0  0  0  0  0  0  0  0  0  0  0
   -7.6280   20.2200  -32.4540 C   0  0  0  0  0  0  0  0  0  0  0  0
   -8.8360   20.9060  -32.1660 C   0  0  0  0  0  0  0  0  0  0  0  0
   -8.8150   22.2210  -31.6740 C   0  0  0  0  0  0  0  0  0  0  0  0
   -7.5760   22.8220  -31.4730 C   0  0  0  0  0  0  0  0  0  0  0  0
   -7.2690   24.0910  -31.0390 C   0  0  0  0  0  0  0  0  0  0  0  0
   -5.8780   24.1560  -31.0420 C   0  0  0  0  0  0  0  0  0  0  0  0
   -5.1180   25.3290  -30.5600 C   0  0  0  0  0  0  0  0  0  0  0  0
   -3.6980   25.2900  -30.4530 N   0  0  0  0  0  0  0  0  0  0  0  0
   -5.7360   26.3640  -30.1930 O   0  0  0  0  0  0  0  0  0  0  0  0
   -5.3450   22.9760  -31.4700 N   0  0  0  0  0  0  0  0  0  0  0  0
   -3.9630   22.6640  -31.7000 C   0  0  0  0  0  0  0  0  0  0  0  0
   -3.1300   22.7650  -30.7590 O   0  0  0  0  0  0  0  0  0  0  0  0
   -3.5430   22.2740  -32.9760 O   0  0  0  0  0  0  0  0  0  0  0  0
   -2.5120   21.3170  -33.1980 C   0  0  0  0  0  0  0  0  0  0  0  0
   -3.2160   19.7200  -33.5570 Cl  0  0  0  0  0  0  0  0  0  0  0  0
   -6.3980   22.1690  -31.7240 C   0  0  0  0  0  0  0  0  0  0  0  0
   -6.3880   20.8630  -32.2300 C   0  0  0  0  0  0  0  0  0  0  0  0
   -6.9385   15.4243  -33.0576 H   0  0  0  0  0  0  0  0  0  0  0  0
   -7.4134   16.3560  -34.5181 H   0  0  0  0  0  0  0  0  0  0  0  0
   -5.8930   15.3995  -34.5181 H   0  0  0  0  0  0  0  0  0  0  0  0
   -5.7621   17.1779  -32.2801 H   0  0  0  0  0  0  0  0  0  0  0  0
   -4.7929   17.2118  -33.8198 H   0  0  0  0  0  0  0  0  0  0  0  0
   -5.7288   19.3802  -33.6399 H   0  0  0  0  0  0  0  0  0  0  0  0
   -6.7708   18.4789  -34.8341 H   0  0  0  0  0  0  0  0  0  0  0  0
   -7.7840   18.1750  -32.2300 H   0  0  0  0  0  0  0  0  0  0  0  0
   -8.5020   18.7980  -33.6170 H   0  0  0  0  0  0  0  0  0  0  0  0
   -9.7999   20.4021  -32.3300 H   0  0  0  0  0  0  0  0  0  0  0  0
   -9.7488   22.7593  -31.4543 H   0  0  0  0  0  0  0  0  0  0  0  0
   -7.9730   24.8856  -30.7508 H   0  0  0  0  0  0  0  0  0  0  0  0
   -3.1120   24.8840  -31.2140 H   0  0  0  0  0  0  0  0  0  0  0  0
   -1.8939   21.6404  -34.0485 H   0  0  0  0  0  0  0  0  0  0  0  0
   -1.8947   21.2397  -32.2908 H   0  0  0  0  0  0  0  0  0  0  0  0
   -5.4396   20.3501  -32.4478 H   0  0  0  0  0  0  0  0  0  0  0  0
  1  2  1  0
  2  3  1  0
  3  4  1  0
  4  5  1  0
  5  6  2  0
  6  7  1  0
  7  8  2  0
  8  9  1  0
  9 10  2  0
 10 11  1  0
 11 12  1  0
 11 13  2  0
 10 14  1  0
 14 15  1  0
 15 16  2  0
 15 17  1  0
 17 18  1  0
 18 19  1  0
 14 20  1  0
 20 21  2  0
 21  5  1  0
 20  8  1  0
  1 22  1  0
  1 23  1  0
  1 24  1  0
  2 25  1  0
  2 26  1  0
  3 27  1  0
  3 28  1  0
  4 29  1  0
  4 30  1  0
  6 31  1  0
  7 32  1  0
  9 33  1  0
 12 34  1  0
 18 35  1  0
 18 36  1  0
 21 37  1  0
M  CHG  2   4   1  12  -1
M  END
>  <UniqueID>  (17) 
16

>  <SMILES>  (17) 
CCC[NH2+]c1ccc2cc(C([NH-])=O)n(C(=O)OCCl)c2c1

>  <Energy>  (17) 
73.27616788138148

>  <Genealogy>  (17) 
CCC[NH2+]c1ccc2cc(C([NH-])=O)n(C(=O)OCCl)c2c1 (protonated)
CCC[NH2+]c1ccc2cc(C([NH-])=O)n(C(=O)OCCl)c2c1 (3D coordinates assigned)
CCC[NH2+]c1ccc2cc(C([NH-])=O)n(C(=O)OCCl)c2c1 (optimized conformer: 73.27616788138148 kcal/mol)

>  <smiles>  (17) 
CCCNc1ccc2cc(C(N)=O)n(C(=O)OCCl)c2c1

>  <score_type>  (17) 
oracle

>  <origin>  (17) 
adg

>  <m_score__min__energy>  (17) 
-9.4600000000000009

>  <m_primary>  (17) 
energy

$$$$
17:0
     RDKit          3D

 31 32  0  0  0  0  0  0  0  0999 V2000
   -3.9390   18.5530  -26.5840 C   0  0  0  0  0  0  0  0  0  0  0  0
   -2.8650   19.5330  -26.9490 C   0  0  0  0  0  0  0  0  0  0  0  0
   -1.5010   19.1710  -26.8220 C   0  0  0  0  0  0  0  0  0  0  0  0
   -0.4850   20.0990  -27.1090 C   0  0  0  0  0  0  0  0  0  0  0  0
   -0.8630   21.3740  -27.5190 C   0  0  0  0  0  0  0  0  0  0  0  0
   -0.0920   22.4730  -27.8190 C   0  0  0  0  0  0  0  0  0  0  0  0
   -0.9960   23.4880  -28.1300 C   0  0  0  0  0  0  0  0  0  0  0  0
   -0.5840   24.8500  -28.5380 C   0  0  0  0  0  0  0  0  0  0  0  0
   -1.4370   25.6780  -29.3230 N   0  0  0  0  0  0  0  0  0  0  0  0
    0.5510   25.2830  -28.2020 O   0  0  0  0  0  0  0  0  0  0  0  0
   -2.2760   23.0300  -28.0320 N   0  0  0  0  0  0  0  0  0  0  0  0
   -3.4950   23.7630  -28.2290 C   0  0  0  0  0  0  0  0  0  0  0  0
   -3.7170   24.8010  -27.5510 O   0  0  0  0  0  0  0  0  0  0  0  0
   -4.4940   23.3220  -29.2560 C   0  0  0  0  0  0  0  0  0  0  0  0
   -5.1420   24.7580  -30.1630 P   0  0  2  0  0  0  0  0  0  0  0  0
   -6.0430   24.2870  -31.2820 O   0  0  0  0  0  0  0  0  0  0  0  0
   -3.8620   25.6540  -30.8080 O   0  0  0  0  0  0  0  0  0  0  0  0
   -6.0330   25.7330  -29.1040 O   0  0  0  0  0  0  0  0  0  0  0  0
   -2.1780   21.7380  -27.6500 C   0  0  0  0  0  0  0  0  0  0  0  0
   -3.2110   20.8430  -27.3470 C   0  0  0  0  0  0  0  0  0  0  0  0
   -4.0152   18.4835  -25.4888 H   0  0  0  0  0  0  0  0  0  0  0  0
   -4.9004   18.8916  -26.9977 H   0  0  0  0  0  0  0  0  0  0  0  0
   -3.6896   17.5647  -26.9977 H   0  0  0  0  0  0  0  0  0  0  0  0
   -1.2348   18.1547  -26.4959 H   0  0  0  0  0  0  0  0  0  0  0  0
    0.5762   19.8258  -27.0125 H   0  0  0  0  0  0  0  0  0  0  0  0
    1.0061   22.5375  -27.8145 H   0  0  0  0  0  0  0  0  0  0  0  0
   -2.4700   25.6830  -29.1740 H   0  0  0  0  0  0  0  0  0  0  0  0
   -4.0074   22.6350  -29.9640 H   0  0  0  0  0  0  0  0  0  0  0  0
   -5.3272   22.8130  -28.7493 H   0  0  0  0  0  0  0  0  0  0  0  0
   -5.4270   25.8930  -28.3380 H   0  0  0  0  0  0  0  0  0  0  0  0
   -4.2644   21.1520  -27.4171 H   0  0  0  0  0  0  0  0  0  0  0  0
  1  2  1  0
  2  3  2  0
  3  4  1  0
  4  5  2  0
  5  6  1  0
  6  7  2  0
  7  8  1  0
  8  9  1  0
  8 10  2  0
  7 11  1  0
 11 12  1  0
 12 13  2  0
 12 14  1  0
 14 15  1  0
 15 16  2  0
 15 17  1  6
 15 18  1  0
 11 19  1  0
 19 20  2  0
 20  2  1  0
 19  5  1  0
  1 21  1  0
  1 22  1  0
  1 23  1  0
  3 24  1  0
  4 25  1  0
  6 26  1  0
  9 27  1  0
 14 28  1  0
 14 29  1  0
 18 30  1  0
 20 31  1  0
M  CHG  2   9  -1  17  -1
M  END
>  <UniqueID>  (18) 
17

>  <SMILES>  (18) 
Cc1ccc2cc(C([NH-])=O)n(C(=O)C[P@](=O)([O-])O)c2c1

>  <Energy>  (18) 
64.04388711877417

>  <Genealogy>  (18) 
Cc1ccc2cc(C([NH-])=O)n(C(=O)CP(=O)([O-])O)c2c1 (protonated)
Cc1ccc2cc(C([NH-])=O)n(C(=O)C[P@](=O)([O-])O)c2c1 (chirality)
Cc1ccc2cc(C([NH-])=O)n(C(=O)C[P@](=O)([O-])O)c2c1 (3D coordinates assigned)
Cc1ccc2cc(C([NH-])=O)n(C(=O)C[P@](=O)([O-])O)c2c1 (optimized conformer: 64.04388711877417 kcal/mol)

>  <smiles>  (18) 
Cc1ccc2cc(C(N)=O)n(C(=O)CP(=O)(O)O)c2c1

>  <score_type>  (18) 
oracle

>  <origin>  (18) 
adg

>  <m_score__min__energy>  (18) 
-11.66

>  <m_primary>  (18) 
energy

$$$$
18:0
     RDKit          3D

 42 43  0  0  0  0  0  0  0  0999 V2000
   -1.1030   25.8090  -27.9260 C   0  0  0  0  0  0  0  0  0  0  0  0
   -2.0180   24.9250  -28.6650 N   0  0  0  0  0  0  0  0  0  0  0  0
   -3.1410   24.5450  -27.7880 C   0  0  0  0  0  0  0  0  0  0  0  0
   -1.2950   23.7280  -29.1490 C   0  0  0  0  0  0  0  0  0  0  0  0
   -1.8120   22.4640  -28.4460 C   0  0  0  0  0  0  0  0  0  0  0  0
   -2.1790   21.3640  -29.4490 C   0  0  0  0  0  0  0  0  0  0  0  0
   -3.5150   21.5190  -29.9220 O   0  0  0  0  0  0  0  0  0  0  0  0
   -3.9000   22.5070  -30.8360 C   0  0  0  0  0  0  0  0  0  0  0  0
   -3.0350   23.1100  -31.5270 O   0  0  0  0  0  0  0  0  0  0  0  0
   -5.2910   22.8210  -30.9980 N   0  0  0  0  0  0  0  0  0  0  0  0
   -5.8940   24.0370  -30.8680 C   0  0  0  0  0  0  0  0  0  0  0  0
   -5.2460   25.2800  -30.3990 C   0  0  0  0  0  0  0  0  0  0  0  0
   -3.9290   25.6010  -30.8380 N   0  0  0  0  0  0  0  0  0  0  0  0
   -5.8560   26.0800  -29.6410 O   0  0  0  0  0  0  0  0  0  0  0  0
   -7.2550   23.9380  -31.1490 C   0  0  0  0  0  0  0  0  0  0  0  0
   -7.4700   22.6120  -31.4500 C   0  0  0  0  0  0  0  0  0  0  0  0
   -8.6440   21.9510  -31.7960 C   0  0  0  0  0  0  0  0  0  0  0  0
   -8.5720   20.5730  -32.0630 C   0  0  0  0  0  0  0  0  0  0  0  0
   -7.3300   19.8880  -32.0040 C   0  0  0  0  0  0  0  0  0  0  0  0
   -7.2720   18.4020  -32.2540 C   0  0  0  0  0  0  0  0  0  0  0  0
   -6.8470   18.1400  -33.5460 F   0  0  0  0  0  0  0  0  0  0  0  0
   -8.5190   17.8270  -32.0850 F   0  0  0  0  0  0  0  0  0  0  0  0
   -6.3850   17.8250  -31.3640 F   0  0  0  0  0  0  0  0  0  0  0  0
   -6.1630   20.5910  -31.6250 C   0  0  0  0  0  0  0  0  0  0  0  0
   -6.2700   21.9590  -31.3490 C   0  0  0  0  0  0  0  0  0  0  0  0
   -1.2496   25.6674  -26.8451 H   0  0  0  0  0  0  0  0  0  0  0  0
   -0.0636   25.5643  -28.1902 H   0  0  0  0  0  0  0  0  0  0  0  0
   -1.3117   26.8562  -28.1902 H   0  0  0  0  0  0  0  0  0  0  0  0
   -2.8360   24.6482  -26.7362 H   0  0  0  0  0  0  0  0  0  0  0  0
   -4.0002   25.2024  -27.9868 H   0  0  0  0  0  0  0  0  0  0  0  0
   -3.4245   23.5009  -27.9868 H   0  0  0  0  0  0  0  0  0  0  0  0
   -1.4482   23.6269  -30.2336 H   0  0  0  0  0  0  0  0  0  0  0  0
   -0.2244   23.8456  -28.9256 H   0  0  0  0  0  0  0  0  0  0  0  0
   -1.0286   22.0852  -27.7731 H   0  0  0  0  0  0  0  0  0  0  0  0
   -2.7196   22.7318  -27.8852 H   0  0  0  0  0  0  0  0  0  0  0  0
   -1.4883   21.4134  -30.3037 H   0  0  0  0  0  0  0  0  0  0  0  0
   -2.1011   20.3912  -28.9414 H   0  0  0  0  0  0  0  0  0  0  0  0
   -3.1030   25.0550  -30.5030 H   0  0  0  0  0  0  0  0  0  0  0  0
   -7.9996   24.7475  -31.1336 H   0  0  0  0  0  0  0  0  0  0  0  0
   -9.6004   22.4908  -31.8588 H   0  0  0  0  0  0  0  0  0  0  0  0
   -9.4872   20.0197  -32.3203 H   0  0  0  0  0  0  0  0  0  0  0  0
   -5.1944   20.0751  -31.5489 H   0  0  0  0  0  0  0  0  0  0  0  0
  1  2  1  0
  2  3  1  0
  2  4  1  0
  4  5  1  0
  5  6  1  0
  6  7  1  0
  7  8  1  0
  8  9  2  0
  8 10  1  0
 10 11  1  0
 11 12  1  0
 12 13  1  0
 12 14  2  0
 11 15  2  0
 15 16  1  0
 16 17  2  0
 17 18  1  0
 18 19  2  0
 19 20  1  0
 20 21  1  0
 20 22  1  0
 20 23  1  0
 19 24  1  0
 24 25  2  0
 25 10  1  0
 25 16  1  0
  1 26  1  0
  1 27  1  0
  1 28  1  0
  3 29  1  0
  3 30  1  0
  3 31  1  0
  4 32  1  0
  4 33  1  0
  5 34  1  0
  5 35  1  0
  6 36  1  0
  6 37  1  0
 13 38  1  0
 15 39  1  0
 17 40  1  0
 18 41  1  0
 24 42  1  0
M  CHG  1  13  -1
M  END
>  <UniqueID>  (19) 
18

>  <SMILES>  (19) 
CN(C)CCCOC(=O)n1c(C([NH-])=O)cc2ccc(C(F)(F)F)cc21

>  <Energy>  (19) 
76.24503790433377

>  <Genealogy>  (19) 
CN(C)CCCOC(=O)n1c(C([NH-])=O)cc2ccc(C(F)(F)F)cc21 (protonated)
CN(C)CCCOC(=O)n1c(C([NH-])=O)cc2ccc(C(F)(F)F)cc21 (3D coordinates assigned)
CN(C)CCCOC(=O)n1c(C([NH-])=O)cc2ccc(C(F)(F)F)cc21 (optimized conformer: 76.24503790433377 kcal/mol)

>  <smiles>  (19) 
CN(C)CCCOC(=O)n1c(C(N)=O)cc2ccc(C(F)(F)F)cc21

>  <score_type>  (19) 
oracle

>  <origin>  (19) 
adg

>  <m_score__min__energy>  (19) 
-9.5399999999999991

>  <m_primary>  (19) 
energy

$$$$
19:0
     RDKit          3D

 49 50  0  0  0  0  0  0  0  0999 V2000
    0.2630   22.4410  -35.7490 C   0  0  0  0  0  0  0  0  0  0  0  0
    1.0460   22.0120  -34.5790 N   0  0  0  0  0  0  0  0  0  0  0  0
    2.2130   21.2330  -35.0280 C   0  0  0  0  0  0  0  0  0  0  0  0
    0.2060   21.2240  -33.6500 C   0  0  0  0  0  0  0  0  0  0  0  0
   -1.0760   20.7640  -34.3590 C   0  0  0  0  0  0  0  0  0  0  0  0
   -2.3470   21.1700  -33.5950 C   0  0  0  0  0  0  0  0  0  0  0  0
   -2.5080   20.4000  -32.3480 N   0  0  0  0  0  0  0  0  0  0  0  0
   -2.1100   18.9870  -32.3390 C   0  0  0  0  0  0  0  0  0  0  0  0
   -3.0410   21.0570  -31.1700 C   0  0  0  0  0  0  0  0  0  0  0  0
   -2.9040   20.4990  -30.0460 O   0  0  0  0  0  0  0  0  0  0  0  0
   -3.7270   22.3750  -31.2010 C   0  0  0  0  0  0  0  0  0  0  0  0
   -3.0770   23.4530  -31.1850 O   0  0  0  0  0  0  0  0  0  0  0  0
   -5.1620   22.4380  -31.2150 N   0  0  0  0  0  0  0  0  0  0  0  0
   -5.9380   23.5060  -30.8770 C   0  0  0  0  0  0  0  0  0  0  0  0
   -5.4500   24.7690  -30.2860 C   0  0  0  0  0  0  0  0  0  0  0  0
   -5.9380   25.2380  -29.0280 N   0  0  0  0  0  0  0  0  0  0  0  0
   -4.6120   25.4650  -30.9200 O   0  0  0  0  0  0  0  0  0  0  0  0
   -7.2740   23.2540  -31.1760 C   0  0  0  0  0  0  0  0  0  0  0  0
   -7.2930   21.9880  -31.7160 C   0  0  0  0  0  0  0  0  0  0  0  0
   -8.3580   21.2400  -32.2090 C   0  0  0  0  0  0  0  0  0  0  0  0
   -8.0770   19.9760  -32.7550 C   0  0  0  0  0  0  0  0  0  0  0  0
   -6.7430   19.4970  -32.8320 C   0  0  0  0  0  0  0  0  0  0  0  0
   -6.4520   18.1290  -33.3950 C   0  0  0  0  0  0  0  0  0  0  0  0
   -5.3810   17.5510  -32.7340 F   0  0  0  0  0  0  0  0  0  0  0  0
   -6.1390   18.2060  -34.7410 F   0  0  0  0  0  0  0  0  0  0  0  0
   -7.5660   17.3260  -33.2380 F   0  0  0  0  0  0  0  0  0  0  0  0
   -5.6920   20.2800  -32.3020 C   0  0  0  0  0  0  0  0  0  0  0  0
   -6.0040   21.5220  -31.7370 C   0  0  0  0  0  0  0  0  0  0  0  0
   -0.6551   22.9440  -35.4113 H   0  0  0  0  0  0  0  0  0  0  0  0
    0.8610   23.1375  -36.3551 H   0  0  0  0  0  0  0  0  0  0  0  0
   -0.0021   21.5621  -36.3551 H   0  0  0  0  0  0  0  0  0  0  0  0
    2.7663   20.8636  -34.1520 H   0  0  0  0  0  0  0  0  0  0  0  0
    1.8734   20.3799  -35.6336 H   0  0  0  0  0  0  0  0  0  0  0  0
    2.8707   21.8739  -35.6336 H   0  0  0  0  0  0  0  0  0  0  0  0
    0.7692   20.3429  -33.3086 H   0  0  0  0  0  0  0  0  0  0  0  0
   -0.0646   21.8521  -32.7884 H   0  0  0  0  0  0  0  0  0  0  0  0
   -1.1069   21.2161  -35.3613 H   0  0  0  0  0  0  0  0  0  0  0  0
   -1.0537   19.6655  -34.4125 H   0  0  0  0  0  0  0  0  0  0  0  0
   -2.2865   22.2400  -33.3471 H   0  0  0  0  0  0  0  0  0  0  0  0
   -3.2137   20.9609  -34.2393 H   0  0  0  0  0  0  0  0  0  0  0  0
   -2.0123   18.6402  -31.2997 H   0  0  0  0  0  0  0  0  0  0  0  0
   -2.8742   18.3875  -32.8553 H   0  0  0  0  0  0  0  0  0  0  0  0
   -1.1452   18.8745  -32.8553 H   0  0  0  0  0  0  0  0  0  0  0  0
   -6.7730   24.8080  -28.5740 H   0  0  0  0  0  0  0  0  0  0  0  0
   -5.5130   26.0840  -28.5860 H   0  0  0  0  0  0  0  0  0  0  0  0
   -8.1316   23.9237  -31.0151 H   0  0  0  0  0  0  0  0  0  0  0  0
   -9.3874   21.6261  -32.1724 H   0  0  0  0  0  0  0  0  0  0  0  0
   -8.9012   19.3499  -33.1274 H   0  0  0  0  0  0  0  0  0  0  0  0
   -4.6526   19.9213  -32.3329 H   0  0  0  0  0  0  0  0  0  0  0  0
  1  2  1  0
  2  3  1  0
  2  4  1  0
  4  5  1  0
  5  6  1  0
  6  7  1  0
  7  8  1  0
  7  9  1  0
  9 10  2  0
  9 11  1  0
 11 12  2  0
 11 13  1  0
 13 14  1  0
 14 15  1  0
 15 16  1  0
 15 17  2  0
 14 18  2  0
 18 19  1  0
 19 20  2  0
 20 21  1  0
 21 22  2  0
 22 23  1  0
 23 24  1  0
 23 25  1  0
 23 26  1  0
 22 27  1  0
 27 28  2  0
 28 13  1  0
 28 19  1  0
  1 29  1  0
  1 30  1  0
  1 31  1  0
  3 32  1  0
  3 33  1  0
  3 34  1  0
  4 35  1  0
  4 36  1  0
  5 37  1  0
  5 38  1  0
  6 39  1  0
  6 40  1  0
  8 41  1  0
  8 42  1  0
  8 43  1  0
 16 44  1  0
 16 45  1  0
 18 46  1  0
 20 47  1  0
 21 48  1  0
 27 49  1  0
M  END
>  <UniqueID>  (20) 
19

>  <SMILES>  (20) 
CN(C)CCCN(C)C(=O)C(=O)n1c(C(N)=O)cc2ccc(C(F)(F)F)cc21

>  <Energy>  (20) 
87.82227322364007

>  <Genealogy>  (20) 
CN(C)CCCN(C)C(=O)C(=O)n1c(C(N)=O)cc2ccc(C(F)(F)F)cc21 (3D coordinates assigned)
CN(C)CCCN(C)C(=O)C(=O)n1c(C(N)=O)cc2ccc(C(F)(F)F)cc21 (optimized conformer: 87.82227322364007 kcal/mol)

>  <smiles>  (20) 
CN(C)CCCN(C)C(=O)C(=O)n1c(C(N)=O)cc2ccc(C(F)(F)F)cc21

>  <score_type>  (20) 
oracle

>  <origin>  (20) 
adg

>  <m_score__min__energy>  (20) 
-8.7699999999999996

>  <m_primary>  (20) 
energy

$$$$
20:0
     RDKit          3D

 31 32  0  0  0  0  0  0  0  0999 V2000
   -3.1390   25.2910  -30.5660 H   0  0  0  0  0  0  0  0  0  0  0  0
   -4.0780   25.6400  -30.8620 N   0  0  0  0  0  0  0  0  0  0  0  0
   -5.2730   25.0380  -30.3700 C   0  0  0  0  0  0  0  0  0  0  0  0
   -5.9400   25.6300  -29.4810 O   0  0  0  0  0  0  0  0  0  0  0  0
   -5.7670   23.7630  -30.9290 C   0  0  0  0  0  0  0  0  0  0  0  0
   -7.1200   23.4450  -31.0300 C   0  0  0  0  0  0  0  0  0  0  0  0
   -7.9738   24.0392  -30.6721 H   0  0  0  0  0  0  0  0  0  0  0  0
   -7.1600   22.2290  -31.6730 C   0  0  0  0  0  0  0  0  0  0  0  0
   -8.2500   21.4340  -32.0120 C   0  0  0  0  0  0  0  0  0  0  0  0
   -9.2781   21.7604  -31.7967 H   0  0  0  0  0  0  0  0  0  0  0  0
   -7.9980   20.2010  -32.6380 C   0  0  0  0  0  0  0  0  0  0  0  0
   -8.8397   19.5474  -32.9108 H   0  0  0  0  0  0  0  0  0  0  0  0
   -6.6700   19.7900  -32.9220 C   0  0  0  0  0  0  0  0  0  0  0  0
   -6.4100   18.4380  -33.5360 C   0  0  0  0  0  0  0  0  0  0  0  0
   -6.1060   18.5620  -34.8800 F   0  0  0  0  0  0  0  0  0  0  0  0
   -7.5400   17.6520  -33.3990 F   0  0  0  0  0  0  0  0  0  0  0  0
   -5.3470   17.8130  -32.9080 F   0  0  0  0  0  0  0  0  0  0  0  0
   -5.5890   20.6170  -32.5390 C   0  0  0  0  0  0  0  0  0  0  0  0
   -4.5500   20.2999  -32.7119 H   0  0  0  0  0  0  0  0  0  0  0  0
   -5.8700   21.8480  -31.9350 C   0  0  0  0  0  0  0  0  0  0  0  0
   -5.0010   22.7800  -31.4810 N   0  0  0  0  0  0  0  0  0  0  0  0
   -3.5680   22.6840  -31.4830 C   0  0  0  0  0  0  0  0  0  0  0  0
   -2.9840   21.9920  -32.3620 O   0  0  0  0  0  0  0  0  0  0  0  0
   -2.8300   23.3450  -30.4960 O   0  0  0  0  0  0  0  0  0  0  0  0
   -2.6160   22.8220  -29.2170 C   0  0  0  0  0  0  0  0  0  0  0  0
   -3.1668   21.9225  -28.9049 H   0  0  0  0  0  0  0  0  0  0  0  0
   -1.7580   23.3900  -28.3660 C   0  0  0  0  0  0  0  0  0  0  0  0
   -1.6378   22.9312  -27.3735 H   0  0  0  0  0  0  0  0  0  0  0  0
   -0.9610   24.5930  -28.6710 C   0  0  0  0  0  0  0  0  0  0  0  0
    0.2620   24.6660  -28.3760 O   0  0  0  0  0  0  0  0  0  0  0  0
   -1.5730   25.6710  -29.2970 O   0  0  0  0  0  0  0  0  0  0  0  0
  1  2  1  0
  2  3  1  0
  3  4  2  0
  3  5  1  0
  5  6  2  0
  6  7  1  0
  6  8  1  0
  8  9  2  0
  9 10  1  0
  9 11  1  0
 11 12  1  0
 11 13  2  0
 13 14  1  0
 14 15  1  0
 14 16  1  0
 14 17  1  0
 13 18  1  0
 18 19  1  0
 18 20  2  0
 20 21  1  0
 21 22  1  0
 22 23  2  0
 22 24  1  0
 24 25  1  0
 25 26  1  0
 25 27  2  0
 27 28  1  0
 27 29  1  0
 29 30  2  0
 29 31  1  0
 21  5  1  0
 20  8  1  0
M  CHG  2   2  -1  31  -1
M  END
>  <UniqueID>  (21) 
20

>  <SMILES>  (21) 
[NH-]C(=O)c1cc2ccc(C(F)(F)F)cc2n1C(=O)O/C=C\C(=O)[O-]

>  <Energy>  (21) 
69.52261517351434

>  <Genealogy>  (21) 
[NH-]C(=O)c1cc2ccc(C(F)(F)F)cc2n1C(=O)O/C=C\C(=O)[O-] (protonated)
[NH-]C(=O)c1cc2ccc(C(F)(F)F)cc2n1C(=O)O/C=C\C(=O)[O-] (cis-trans isomerization)
[NH-]C(=O)c1cc2ccc(C(F)(F)F)cc2n1C(=O)O/C=C\C(=O)[O-] (3D coordinates assigned)
[NH-]C(=O)c1cc2ccc(C(F)(F)F)cc2n1C(=O)O/C=C\C(=O)[O-] (optimized conformer: 69.52261517351434 kcal/mol)

>  <smiles>  (21) 
NC(=O)c1cc2ccc(C(F)(F)F)cc2n1C(=O)O/C=C\C(=O)O

>  <score_type>  (21) 
oracle

>  <origin>  (21) 
adg

>  <m_score__min__energy>  (21) 
-12.4

>  <m_primary>  (21) 
energy

$$$$
21:0
     RDKit          3D

 36 37  0  0  0  0  0  0  0  0999 V2000
   -1.6900   25.6750  -28.9530 N   0  0  0  0  0  0  0  0  0  0  0  0
   -1.0900   24.3980  -29.1470 C   0  0  0  0  0  0  0  0  0  0  0  0
   -0.0630   24.0920  -28.4840 O   0  0  0  0  0  0  0  0  0  0  0  0
   -1.6870   23.4100  -30.0690 C   0  0  0  0  0  0  0  0  0  0  0  0
   -0.9910   22.3120  -30.5700 C   0  0  0  0  0  0  0  0  0  0  0  0
   -1.9110   21.6000  -31.3030 C   0  0  0  0  0  0  0  0  0  0  0  0
   -1.7580   20.4260  -32.0330 C   0  0  0  0  0  0  0  0  0  0  0  0
   -2.8750   19.9310  -32.7250 C   0  0  0  0  0  0  0  0  0  0  0  0
   -4.1170   20.6120  -32.6870 C   0  0  0  0  0  0  0  0  0  0  0  0
   -5.2300   20.0760  -33.4280 N   0  0  0  0  0  0  0  0  0  0  0  0
   -6.3210   19.2990  -32.8380 C   0  0  0  0  0  0  0  0  0  0  0  0
   -7.4720   20.1940  -32.4820 C   0  0  0  0  0  0  0  0  0  0  0  0
   -8.5740   20.0470  -33.0770 O   0  0  0  0  0  0  0  0  0  0  0  0
   -7.3230   21.2010  -31.4700 N   0  0  0  0  0  0  0  0  0  0  0  0
   -8.4000   22.1170  -31.1020 C   0  0  0  0  0  0  0  0  0  0  0  0
   -8.3010   23.4210  -31.8890 C   0  0  0  0  0  0  0  0  0  0  0  0
   -9.4390   23.6030  -32.6530 F   0  0  0  0  0  0  0  0  0  0  0  0
   -7.1920   23.4070  -32.7160 F   0  0  0  0  0  0  0  0  0  0  0  0
   -4.2320   21.8030  -31.9270 C   0  0  0  0  0  0  0  0  0  0  0  0
   -3.1070   22.2660  -31.2360 C   0  0  0  0  0  0  0  0  0  0  0  0
   -2.9850   23.3830  -30.4830 N   0  0  0  0  0  0  0  0  0  0  0  0
   -3.9960   24.3810  -30.2670 C   0  0  0  0  0  0  0  0  0  0  0  0
   -5.0170   24.1160  -29.5810 O   0  0  0  0  0  0  0  0  0  0  0  0
   -3.8690   25.6410  -30.8380 O   0  0  0  0  0  0  0  0  0  0  0  0
   -2.7250   25.7980  -29.0190 H   0  0  0  0  0  0  0  0  0  0  0  0
    0.0697   22.0667  -30.4125 H   0  0  0  0  0  0  0  0  0  0  0  0
   -0.7917   19.9015  -32.0672 H   0  0  0  0  0  0  0  0  0  0  0  0
   -2.7846   19.0008  -33.3052 H   0  0  0  0  0  0  0  0  0  0  0  0
   -5.2780   20.2580  -34.4570 H   0  0  0  0  0  0  0  0  0  0  0  0
   -6.6604   18.5439  -33.5623 H   0  0  0  0  0  0  0  0  0  0  0  0
   -5.9549   18.8100  -31.9233 H   0  0  0  0  0  0  0  0  0  0  0  0
   -6.3910   21.3290  -31.0140 H   0  0  0  0  0  0  0  0  0  0  0  0
   -9.3675   21.6397  -31.3168 H   0  0  0  0  0  0  0  0  0  0  0  0
   -8.3137   22.3471  -30.0298 H   0  0  0  0  0  0  0  0  0  0  0  0
   -8.2035   24.2492  -31.1717 H   0  0  0  0  0  0  0  0  0  0  0  0
   -5.1846   22.3511  -31.8815 H   0  0  0  0  0  0  0  0  0  0  0  0
  1  2  1  0
  2  3  2  0
  2  4  1  0
  4  5  2  0
  5  6  1  0
  6  7  2  0
  7  8  1  0
  8  9  2  0
  9 10  1  0
 10 11  1  0
 11 12  1  0
 12 13  2  0
 12 14  1  0
 14 15  1  0
 15 16  1  0
 16 17  1  0
 16 18  1  0
  9 19  1  0
 19 20  2  0
 20 21  1  0
 21 22  1  0
 22 23  2  0
 22 24  1  0
 21  4  1  0
 20  6  1  0
  1 25  1  0
  5 26  1  0
  7 27  1  0
  8 28  1  0
 10 29  1  0
 11 30  1  0
 11 31  1  0
 14 32  1  0
 15 33  1  0
 15 34  1  0
 16 35  1  0
 19 36  1  0
M  CHG  2   1  -1  24  -1
M  END
>  <UniqueID>  (22) 
21

>  <SMILES>  (22) 
[NH-]C(=O)c1cc2ccc(NCC(=O)NCC(F)F)cc2n1C(=O)[O-]

>  <Energy>  (22) 
70.1686850772033

>  <Genealogy>  (22) 
[NH-]C(=O)c1cc2ccc(NCC(=O)NCC(F)F)cc2n1C(=O)[O-] (protonated)
[NH-]C(=O)c1cc2ccc(NCC(=O)NCC(F)F)cc2n1C(=O)[O-] (3D coordinates assigned)
[NH-]C(=O)c1cc2ccc(NCC(=O)NCC(F)F)cc2n1C(=O)[O-] (optimized conformer: 70.1686850772033 kcal/mol)

>  <smiles>  (22) 
NC(=O)c1cc2ccc(NCC(=O)NCC(F)F)cc2n1C(=O)O

>  <score_type>  (22) 
oracle

>  <origin>  (22) 
adg

>  <m_score__min__energy>  (22) 
-10.67

>  <m_primary>  (22) 
energy

$$$$
22:0
     RDKit          3D

 40 41  0  0  0  0  0  0  0  0999 V2000
   -2.6203   23.4746  -31.3563 H   0  0  0  0  0  0  0  0  0  0  0  0
   -2.8070   23.3450  -30.2800 C   0  0  0  0  0  0  0  0  0  0  0  0
   -1.9950   24.1130  -29.3210 C   0  0  0  0  0  0  0  0  0  0  0  0
   -1.9890   25.3730  -29.3350 O   0  0  0  0  0  0  0  0  0  0  0  0
   -1.2250   23.4370  -28.3840 O   0  0  0  0  0  0  0  0  0  0  0  0
   -3.7640   22.4950  -29.8890 C   0  0  0  0  0  0  0  0  0  0  0  0
   -3.9243   22.3354  -28.8125 H   0  0  0  0  0  0  0  0  0  0  0  0
   -4.6110   21.7650  -30.8500 C   0  0  0  0  0  0  0  0  0  0  0  0
   -4.1590   20.7230  -31.3950 O   0  0  0  0  0  0  0  0  0  0  0  0
   -5.9420   22.2020  -31.1630 N   0  0  0  0  0  0  0  0  0  0  0  0
   -6.4650   23.4470  -30.9920 C   0  0  0  0  0  0  0  0  0  0  0  0
   -5.7140   24.6480  -30.5720 C   0  0  0  0  0  0  0  0  0  0  0  0
   -4.9860   25.2450  -31.4090 O   0  0  0  0  0  0  0  0  0  0  0  0
   -5.7610   25.1240  -29.2250 N   0  0  0  0  0  0  0  0  0  0  0  0
   -6.1800   24.5500  -28.4620 H   0  0  0  0  0  0  0  0  0  0  0  0
   -5.2740   26.0110  -28.9680 H   0  0  0  0  0  0  0  0  0  0  0  0
   -7.8320   23.4450  -31.2630 C   0  0  0  0  0  0  0  0  0  0  0  0
   -8.5236   24.2989  -31.2128 H   0  0  0  0  0  0  0  0  0  0  0  0
   -8.1320   22.1460  -31.6070 C   0  0  0  0  0  0  0  0  0  0  0  0
   -9.3510   21.5670  -31.9460 C   0  0  0  0  0  0  0  0  0  0  0  0
  -10.2668   22.1725  -32.0146 H   0  0  0  0  0  0  0  0  0  0  0  0
   -9.3760   20.1850  -32.1980 C   0  0  0  0  0  0  0  0  0  0  0  0
  -10.3217   19.7007  -32.4828 H   0  0  0  0  0  0  0  0  0  0  0  0
   -8.1950   19.4080  -32.0890 C   0  0  0  0  0  0  0  0  0  0  0  0
   -8.2350   17.9270  -32.3420 C   0  0  0  0  0  0  0  0  0  0  0  0
   -8.9055   17.7231  -33.1899 H   0  0  0  0  0  0  0  0  0  0  0  0
   -8.6024   17.4224  -31.4362 H   0  0  0  0  0  0  0  0  0  0  0  0
   -6.8680   17.4100  -32.6610 C   0  0  0  0  0  0  0  0  0  0  0  0
   -6.1250   16.9870  -31.7330 O   0  0  0  0  0  0  0  0  0  0  0  0
   -6.4250   17.4130  -33.9890 O   0  0  0  0  0  0  0  0  0  0  0  0
   -5.7770   18.5280  -34.5950 C   0  0  0  0  0  0  0  0  0  0  0  0
   -6.4517   19.3965  -34.5706 H   0  0  0  0  0  0  0  0  0  0  0  0
   -5.5265   18.2729  -35.6353 H   0  0  0  0  0  0  0  0  0  0  0  0
   -4.4940   18.8680  -33.8470 C   0  0  0  0  0  0  0  0  0  0  0  0
   -4.6774   18.8194  -32.7635 H   0  0  0  0  0  0  0  0  0  0  0  0
   -3.7091   18.1469  -34.1187 H   0  0  0  0  0  0  0  0  0  0  0  0
   -4.1692   19.8832  -34.1187 H   0  0  0  0  0  0  0  0  0  0  0  0
   -6.9730   20.0340  -31.7520 C   0  0  0  0  0  0  0  0  0  0  0  0
   -6.0444   19.4503  -31.6682 H   0  0  0  0  0  0  0  0  0  0  0  0
   -6.9750   21.4140  -31.5280 C   0  0  0  0  0  0  0  0  0  0  0  0
  1  2  1  0
  2  3  1  0
  3  4  2  0
  3  5  1  0
  2  6  2  0
  6  7  1  0
  6  8  1  0
  8  9  2  0
  8 10  1  0
 10 11  1  0
 11 12  1  0
 12 13  2  0
 12 14  1  0
 14 15  1  0
 14 16  1  0
 11 17  2  0
 17 18  1  0
 17 19  1  0
 19 20  2  0
 20 21  1  0
 20 22  1  0
 22 23  1  0
 22 24  2  0
 24 25  1  0
 25 26  1  0
 25 27  1  0
 25 28  1  0
 28 29  2  0
 28 30  1  0
 30 31  1  0
 31 32  1  0
 31 33  1  0
 31 34  1  0
 34 35  1  0
 34 36  1  0
 34 37  1  0
 24 38  1  0
 38 39  1  0
 38 40  2  0
 40 10  1  0
 40 19  1  0
M  CHG  1   5  -1
M  END
>  <UniqueID>  (23) 
22

>  <SMILES>  (23) 
CCOC(=O)Cc1ccc2cc(C(N)=O)n(C(=O)/C=C/C(=O)[O-])c2c1

>  <Energy>  (23) 
72.01316021924612

>  <Genealogy>  (23) 
CCOC(=O)Cc1ccc2cc(C(N)=O)n(C(=O)/C=C/C(=O)[O-])c2c1 (protonated)
CCOC(=O)Cc1ccc2cc(C(N)=O)n(C(=O)/C=C/C(=O)[O-])c2c1 (cis-trans isomerization)
CCOC(=O)Cc1ccc2cc(C(N)=O)n(C(=O)/C=C/C(=O)[O-])c2c1 (3D coordinates assigned)
CCOC(=O)Cc1ccc2cc(C(N)=O)n(C(=O)/C=C/C(=O)[O-])c2c1 (optimized conformer: 72.01316021924612 kcal/mol)

>  <smiles>  (23) 
CCOC(=O)Cc1ccc2cc(C(N)=O)n(C(=O)/C=C/C(=O)O)c2c1

>  <score_type>  (23) 
oracle

>  <origin>  (23) 
adg

>  <m_score__min__energy>  (23) 
-10.98

>  <m_primary>  (23) 
energy

$$$$
23:0
     RDKit          3D

 32 33  0  0  0  0  0  0  0  0999 V2000
   -6.3220   18.2540  -32.9610 C   0  0  0  0  0  0  0  0  0  0  0  0
   -6.5820   19.6640  -32.5200 C   0  0  0  0  0  0  0  0  0  0  0  0
   -7.9120   20.1450  -32.4260 C   0  0  0  0  0  0  0  0  0  0  0  0
   -8.1690   21.4550  -31.9910 C   0  0  0  0  0  0  0  0  0  0  0  0
   -7.0830   22.2510  -31.6400 C   0  0  0  0  0  0  0  0  0  0  0  0
   -7.0460   23.5580  -31.2110 C   0  0  0  0  0  0  0  0  0  0  0  0
   -5.6960   23.8430  -31.0120 C   0  0  0  0  0  0  0  0  0  0  0  0
   -5.2080   25.1260  -30.4670 C   0  0  0  0  0  0  0  0  0  0  0  0
   -3.9510   25.6630  -30.8690 N   0  0  0  0  0  0  0  0  0  0  0  0
   -5.8890   25.7340  -29.5980 O   0  0  0  0  0  0  0  0  0  0  0  0
   -4.9290   22.7560  -31.3120 N   0  0  0  0  0  0  0  0  0  0  0  0
   -3.4950   22.6740  -31.3310 C   0  0  0  0  0  0  0  0  0  0  0  0
   -2.9130   22.0710  -32.2740 O   0  0  0  0  0  0  0  0  0  0  0  0
   -2.7520   23.2840  -30.3140 O   0  0  0  0  0  0  0  0  0  0  0  0
   -1.4240   22.8930  -29.9730 C   0  0  0  0  0  0  0  0  0  0  0  0
   -0.6890   24.0350  -29.3480 C   0  0  0  0  0  0  0  0  0  0  0  0
    0.4500   23.8510  -28.8410 O   0  0  0  0  0  0  0  0  0  0  0  0
   -1.2750   25.3360  -29.3410 N   0  0  0  0  0  0  0  0  0  0  0  0
   -2.2870   25.6430  -28.4960 O   0  0  0  0  0  0  0  0  0  0  0  0
   -1.6890   26.0880  -27.4030 F   0  0  0  0  0  0  0  0  0  0  0  0
   -5.7920   21.7890  -31.6930 C   0  0  0  0  0  0  0  0  0  0  0  0
   -5.5050   20.4940  -32.1400 C   0  0  0  0  0  0  0  0  0  0  0  0
   -6.2032   17.6095  -32.0775 H   0  0  0  0  0  0  0  0  0  0  0  0
   -7.1693   17.8964  -33.5644 H   0  0  0  0  0  0  0  0  0  0  0  0
   -5.4028   18.2221  -33.5644 H   0  0  0  0  0  0  0  0  0  0  0  0
   -8.7503   19.4861  -32.6963 H   0  0  0  0  0  0  0  0  0  0  0  0
   -9.1975   21.8403  -31.9296 H   0  0  0  0  0  0  0  0  0  0  0  0
   -7.9000   24.2341  -31.0577 H   0  0  0  0  0  0  0  0  0  0  0  0
   -3.0580   25.2930  -30.4730 H   0  0  0  0  0  0  0  0  0  0  0  0
   -1.4642   22.0550  -29.2616 H   0  0  0  0  0  0  0  0  0  0  0  0
   -0.8960   22.5868  -30.8881 H   0  0  0  0  0  0  0  0  0  0  0  0
   -4.4675   20.1324  -32.1938 H   0  0  0  0  0  0  0  0  0  0  0  0
  1  2  1  0
  2  3  2  0
  3  4  1  0
  4  5  2  0
  5  6  1  0
  6  7  2  0
  7  8  1  0
  8  9  1  0
  8 10  2  0
  7 11  1  0
 11 12  1  0
 12 13  2  0
 12 14  1  0
 14 15  1  0
 15 16  1  0
 16 17  2  0
 16 18  1  0
 18 19  1  0
 19 20  1  0
 11 21  1  0
 21 22  2  0
 22  2  1  0
 21  5  1  0
  1 23  1  0
  1 24  1  0
  1 25  1  0
  3 26  1  0
  4 27  1  0
  6 28  1  0
  9 29  1  0
 15 30  1  0
 15 31  1  0
 22 32  1  0
M  CHG  2   9  -1  18  -1
M  END
>  <UniqueID>  (24) 
23

>  <SMILES>  (24) 
Cc1ccc2cc(C([NH-])=O)n(C(=O)OCC(=O)[N-]OF)c2c1

>  <Energy>  (24) 
67.17305351425182

>  <Genealogy>  (24) 
Cc1ccc2cc(C([NH-])=O)n(C(=O)OCC(=O)[N-]OF)c2c1 (protonated)
Cc1ccc2cc(C([NH-])=O)n(C(=O)OCC(=O)[N-]OF)c2c1 (3D coordinates assigned)
Cc1ccc2cc(C([NH-])=O)n(C(=O)OCC(=O)[N-]OF)c2c1 (optimized conformer: 67.17305351425182 kcal/mol)

>  <smiles>  (24) 
Cc1ccc2cc(C(N)=O)n(C(=O)OCC(=O)NOF)c2c1

>  <score_type>  (24) 
oracle

>  <origin>  (24) 
adg

>  <m_score__min__energy>  (24) 
-11.800000000000001

>  <m_primary>  (24) 
energy

$$$$
24:0
     RDKit          3D

 38 39  0  0  0  0  0  0  0  0999 V2000
   -6.7610   18.5370  -33.0920 C   0  0  0  0  0  0  0  0  0  0  0  0
   -6.9420   19.9490  -32.6180 C   0  0  0  0  0  0  0  0  0  0  0  0
   -8.2430   20.4590  -32.3890 C   0  0  0  0  0  0  0  0  0  0  0  0
   -8.4240   21.7610  -31.8890 C   0  0  0  0  0  0  0  0  0  0  0  0
   -7.2880   22.5220  -31.6250 C   0  0  0  0  0  0  0  0  0  0  0  0
   -7.1720   23.7880  -31.0980 C   0  0  0  0  0  0  0  0  0  0  0  0
   -5.8020   24.0300  -31.0180 C   0  0  0  0  0  0  0  0  0  0  0  0
   -5.2240   25.3130  -30.5640 C   0  0  0  0  0  0  0  0  0  0  0  0
   -3.8620   25.6200  -30.8550 N   0  0  0  0  0  0  0  0  0  0  0  0
   -5.9100   26.1270  -29.8920 O   0  0  0  0  0  0  0  0  0  0  0  0
   -5.0990   22.9560  -31.4750 N   0  0  0  0  0  0  0  0  0  0  0  0
   -3.6770   22.7670  -31.4680 C   0  0  0  0  0  0  0  0  0  0  0  0
   -3.1080   22.2650  -32.4750 O   0  0  0  0  0  0  0  0  0  0  0  0
   -2.9360   23.1180  -30.3360 O   0  0  0  0  0  0  0  0  0  0  0  0
   -3.4030   22.9410  -29.0010 C   0  0  0  0  0  0  0  0  0  0  0  0
   -3.5790   24.2120  -28.3790 O   0  0  0  0  0  0  0  0  0  0  0  0
   -2.6670   24.7760  -27.4800 C   0  0  0  0  0  0  0  0  0  0  0  0
   -2.9760   24.9430  -26.2680 O   0  0  0  0  0  0  0  0  0  0  0  0
   -1.3160   25.2150  -27.9670 C   0  0  2  0  0  0  0  0  0  0  0  0
   -0.8040   26.3990  -27.1410 C   0  0  0  0  0  0  0  0  0  0  0  0
   -1.3610   25.5350  -29.3360 O   0  0  0  0  0  0  0  0  0  0  0  0
   -6.0220   22.0420  -31.8450 C   0  0  0  0  0  0  0  0  0  0  0  0
   -5.8140   20.7440  -32.3260 C   0  0  0  0  0  0  0  0  0  0  0  0
   -6.6751   17.8670  -32.2239 H   0  0  0  0  0  0  0  0  0  0  0  0
   -7.6285   18.2402  -33.6998 H   0  0  0  0  0  0  0  0  0  0  0  0
   -5.8467   18.4686  -33.6998 H   0  0  0  0  0  0  0  0  0  0  0  0
   -9.1201   19.8311  -32.6042 H   0  0  0  0  0  0  0  0  0  0  0  0
   -9.4315   22.1656  -31.7120 H   0  0  0  0  0  0  0  0  0  0  0  0
   -7.9873   24.4649  -30.8027 H   0  0  0  0  0  0  0  0  0  0  0  0
   -3.0920   25.2880  -30.2350 H   0  0  0  0  0  0  0  0  0  0  0  0
   -4.3642   22.4064  -29.0181 H   0  0  0  0  0  0  0  0  0  0  0  0
   -2.6646   22.3570  -28.4320 H   0  0  0  0  0  0  0  0  0  0  0  0
   -0.6116   24.3801  -27.8376 H   0  0  0  0  0  0  0  0  0  0  0  0
   -0.9034   26.1691  -26.0699 H   0  0  0  0  0  0  0  0  0  0  0  0
    0.2539   26.5826  -27.3800 H   0  0  0  0  0  0  0  0  0  0  0  0
   -1.3948   27.2956  -27.3800 H   0  0  0  0  0  0  0  0  0  0  0  0
   -2.0270   24.9360  -29.7690 H   0  0  0  0  0  0  0  0  0  0  0  0
   -4.7961   20.3536  -32.4726 H   0  0  0  0  0  0  0  0  0  0  0  0
  1  2  1  0
  2  3  2  0
  3  4  1  0
  4  5  2  0
  5  6  1  0
  6  7  2  0
  7  8  1  0
  8  9  1  0
  8 10  2  0
  7 11  1  0
 11 12  1  0
 12 13  2  0
 12 14  1  0
 14 15  1  0
 15 16  1  0
 16 17  1  0
 17 18  2  0
 17 19  1  0
 19 20  1  0
 19 21  1  0
 11 22  1  0
 22 23  2  0
 23  2  1  0
 22  5  1  0
  1 24  1  0
  1 25  1  0
  1 26  1  0
  3 27  1  0
  4 28  1  0
  6 29  1  0
  9 30  1  0
 15 31  1  0
 15 32  1  0
 19 33  1  6
 20 34  1  0
 20 35  1  0
 20 36  1  0
 21 37  1  0
 23 38  1  0
M  CHG  1   9  -1
M  END
>  <UniqueID>  (25) 
24

>  <SMILES>  (25) 
Cc1ccc2cc(C([NH-])=O)n(C(=O)OCOC(=O)[C@H](C)O)c2c1

>  <Energy>  (25) 
72.00807775520525

>  <Genealogy>  (25) 
Cc1ccc2cc(C([NH-])=O)n(C(=O)OCOC(=O)[C@H](C)O)c2c1 (protonated)
Cc1ccc2cc(C([NH-])=O)n(C(=O)OCOC(=O)[C@H](C)O)c2c1 (3D coordinates assigned)
Cc1ccc2cc(C([NH-])=O)n(C(=O)OCOC(=O)[C@H](C)O)c2c1 (optimized conformer: 72.00807775520525 kcal/mol)

>  <smiles>  (25) 
Cc1ccc2cc(C(N)=O)n(C(=O)OCOC(=O)[C@H](C)O)c2c1

>  <score_type>  (25) 
oracle

>  <origin>  (25) 
adg

>  <m_score__min__energy>  (25) 
-10.24

>  <m_primary>  (25) 
energy

$$$$
25:0
     RDKit          3D

 45 47  0  0  0  0  0  0  0  0999 V2000
   -0.7910   25.0280  -24.6570 C   0  0  0  0  0  0  0  0  0  0  0  0
   -1.2910   25.4090  -25.9780 N   0  0  0  0  0  0  0  0  0  0  0  0
   -1.1450   26.7900  -26.4370 C   0  0  0  0  0  0  0  0  0  0  0  0
   -1.7730   24.4150  -26.8940 C   0  0  0  0  0  0  0  0  0  0  0  0
   -3.1070   24.1800  -26.9780 N   0  0  0  0  0  0  0  0  0  0  0  0
   -3.6150   23.2730  -27.8490 C   0  0  0  0  0  0  0  0  0  0  0  0
   -2.7890   22.5630  -28.6730 N   0  0  0  0  0  0  0  0  0  0  0  0
   -3.3860   21.6820  -29.6890 C   0  0  0  0  0  0  0  0  0  0  0  0
   -3.9710   22.5080  -30.7950 C   0  0  0  0  0  0  0  0  0  0  0  0
   -3.2160   23.0530  -31.6450 O   0  0  0  0  0  0  0  0  0  0  0  0
   -5.3920   22.6640  -30.9030 N   0  0  0  0  0  0  0  0  0  0  0  0
   -6.1120   23.8030  -30.7140 C   0  0  0  0  0  0  0  0  0  0  0  0
   -5.5520   25.0910  -30.2480 C   0  0  0  0  0  0  0  0  0  0  0  0
   -4.2570   25.5240  -30.6690 N   0  0  0  0  0  0  0  0  0  0  0  0
   -6.2160   25.8210  -29.4650 O   0  0  0  0  0  0  0  0  0  0  0  0
   -7.4450   23.5960  -31.0670 C   0  0  0  0  0  0  0  0  0  0  0  0
   -7.5100   22.2860  -31.4910 C   0  0  0  0  0  0  0  0  0  0  0  0
   -8.5880   21.5490  -31.9690 C   0  0  0  0  0  0  0  0  0  0  0  0
   -8.3560   20.2180  -32.3590 C   0  0  0  0  0  0  0  0  0  0  0  0
   -7.0540   19.6560  -32.2840 C   0  0  0  0  0  0  0  0  0  0  0  0
   -6.8270   18.2150  -32.6610 C   0  0  0  0  0  0  0  0  0  0  0  0
   -5.7970   17.6710  -31.9110 F   0  0  0  0  0  0  0  0  0  0  0  0
   -7.9680   17.4650  -32.4360 F   0  0  0  0  0  0  0  0  0  0  0  0
   -6.4960   18.1420  -34.0010 F   0  0  0  0  0  0  0  0  0  0  0  0
   -5.9890   20.4330  -31.7710 C   0  0  0  0  0  0  0  0  0  0  0  0
   -6.2550   21.7500  -31.3890 C   0  0  0  0  0  0  0  0  0  0  0  0
   -1.4320   22.7490  -28.6010 C   0  0  0  0  0  0  0  0  0  0  0  0
   -0.6550   22.0900  -29.3470 O   0  0  0  0  0  0  0  0  0  0  0  0
   -0.8940   23.6810  -27.7040 C   0  0  0  0  0  0  0  0  0  0  0  0
    0.8540   23.8800  -27.5780 Cl  0  0  0  0  0  0  0  0  0  0  0  0
   -1.4105   25.5001  -23.8803 H   0  0  0  0  0  0  0  0  0  0  0  0
   -0.8376   23.9343  -24.5487 H   0  0  0  0  0  0  0  0  0  0  0  0
    0.2511   25.3631  -24.5487 H   0  0  0  0  0  0  0  0  0  0  0  0
   -1.0742   27.4599  -25.5674 H   0  0  0  0  0  0  0  0  0  0  0  0
   -0.2323   26.8800  -27.0444 H   0  0  0  0  0  0  0  0  0  0  0  0
   -2.0187   27.0688  -27.0444 H   0  0  0  0  0  0  0  0  0  0  0  0
   -4.7017   23.1078  -27.8922 H   0  0  0  0  0  0  0  0  0  0  0  0
   -2.6100   21.0190  -30.0992 H   0  0  0  0  0  0  0  0  0  0  0  0
   -4.1809   21.0790  -29.2258 H   0  0  0  0  0  0  0  0  0  0  0  0
   -3.8810   26.4420  -30.3440 H   0  0  0  0  0  0  0  0  0  0  0  0
   -3.6430   24.9160  -31.2530 H   0  0  0  0  0  0  0  0  0  0  0  0
   -8.2690   24.3231  -31.0176 H   0  0  0  0  0  0  0  0  0  0  0  0
   -9.5916   21.9936  -32.0399 H   0  0  0  0  0  0  0  0  0  0  0  0
   -9.1925   19.6053  -32.7263 H   0  0  0  0  0  0  0  0  0  0  0  0
   -4.9777   20.0110  -31.6754 H   0  0  0  0  0  0  0  0  0  0  0  0
  1  2  1  0
  2  3  1  0
  2  4  1  0
  4  5  1  0
  5  6  2  0
  6  7  1  0
  7  8  1  0
  8  9  1  0
  9 10  2  0
  9 11  1  0
 11 12  1  0
 12 13  1  0
 13 14  1  0
 13 15  2  0
 12 16  2  0
 16 17  1  0
 17 18  2  0
 18 19  1  0
 19 20  2  0
 20 21  1  0
 21 22  1  0
 21 23  1  0
 21 24  1  0
 20 25  1  0
 25 26  2  0
  7 27  1  0
 27 28  2  0
 27 29  1  0
 29 30  1  0
 29  4  2  0
 26 11  1  0
 26 17  1  0
  1 31  1  0
  1 32  1  0
  1 33  1  0
  3 34  1  0
  3 35  1  0
  3 36  1  0
  6 37  1  0
  8 38  1  0
  8 39  1  0
 14 40  1  0
 14 41  1  0
 16 42  1  0
 18 43  1  0
 19 44  1  0
 25 45  1  0
M  END
>  <UniqueID>  (26) 
25

>  <SMILES>  (26) 
CN(C)c1ncn(CC(=O)n2c(C(N)=O)cc3ccc(C(F)(F)F)cc32)c(=O)c1Cl

>  <Energy>  (26) 
91.55894062748894

>  <Genealogy>  (26) 
CN(C)c1ncn(CC(=O)n2c(C(N)=O)cc3ccc(C(F)(F)F)cc32)c(=O)c1Cl (3D coordinates assigned)
CN(C)c1ncn(CC(=O)n2c(C(N)=O)cc3ccc(C(F)(F)F)cc32)c(=O)c1Cl (optimized conformer: 91.55894062748894 kcal/mol)

>  <smiles>  (26) 
CN(C)c1ncn(CC(=O)n2c(C(N)=O)cc3ccc(C(F)(F)F)cc32)c(=O)c1Cl

>  <score_type>  (26) 
oracle

>  <origin>  (26) 
adg

>  <m_score__min__energy>  (26) 
-9.1799999999999997

>  <m_primary>  (26) 
energy

$$$$
26:0
     RDKit          3D

 31 32  0  0  0  0  0  0  0  0999 V2000
   -5.3540   18.0080  -35.3510 N   0  0  0  0  0  0  0  0  0  0  0  0
   -5.5690   18.0620  -34.2150 C   0  0  0  0  0  0  0  0  0  0  0  0
   -5.8420   18.1310  -32.7760 C   0  0  0  0  0  0  0  0  0  0  0  0
   -6.1980   19.5380  -32.3880 C   0  0  0  0  0  0  0  0  0  0  0  0
   -7.5550   19.9470  -32.3610 C   0  0  0  0  0  0  0  0  0  0  0  0
   -7.9030   21.2470  -31.9600 C   0  0  0  0  0  0  0  0  0  0  0  0
   -6.8760   22.1130  -31.5910 C   0  0  0  0  0  0  0  0  0  0  0  0
   -6.9340   23.4090  -31.1320 C   0  0  0  0  0  0  0  0  0  0  0  0
   -5.6120   23.7760  -30.8970 C   0  0  0  0  0  0  0  0  0  0  0  0
   -5.2080   25.1320  -30.4700 C   0  0  0  0  0  0  0  0  0  0  0  0
   -3.9320   25.6620  -30.8200 N   0  0  0  0  0  0  0  0  0  0  0  0
   -6.0200   25.8520  -29.8290 O   0  0  0  0  0  0  0  0  0  0  0  0
   -4.7680   22.7460  -31.1920 N   0  0  0  0  0  0  0  0  0  0  0  0
   -3.3480   22.6910  -30.9910 C   0  0  0  0  0  0  0  0  0  0  0  0
   -2.6070   22.1890  -31.8790 O   0  0  0  0  0  0  0  0  0  0  0  0
   -2.7950   23.1740  -29.7990 O   0  0  0  0  0  0  0  0  0  0  0  0
   -1.4110   23.0680  -29.4770 C   0  0  0  0  0  0  0  0  0  0  0  0
   -0.8680   24.3970  -29.0610 C   0  0  0  0  0  0  0  0  0  0  0  0
    0.2630   24.4740  -28.5120 O   0  0  0  0  0  0  0  0  0  0  0  0
   -1.5950   25.5550  -29.3030 O   0  0  0  0  0  0  0  0  0  0  0  0
   -5.5580   21.7360  -31.6170 C   0  0  0  0  0  0  0  0  0  0  0  0
   -5.1840   20.4400  -31.9950 C   0  0  0  0  0  0  0  0  0  0  0  0
   -6.6806   17.4624  -32.5318 H   0  0  0  0  0  0  0  0  0  0  0  0
   -4.9438   17.8199  -32.2225 H   0  0  0  0  0  0  0  0  0  0  0  0
   -8.3432   19.2391  -32.6571 H   0  0  0  0  0  0  0  0  0  0  0  0
   -8.9538   21.5715  -31.9379 H   0  0  0  0  0  0  0  0  0  0  0  0
   -7.8336   24.0241  -30.9826 H   0  0  0  0  0  0  0  0  0  0  0  0
   -3.0530   25.2260  -30.4620 H   0  0  0  0  0  0  0  0  0  0  0  0
   -1.2849   22.3510  -28.6523 H   0  0  0  0  0  0  0  0  0  0  0  0
   -0.8638   22.7223  -30.3664 H   0  0  0  0  0  0  0  0  0  0  0  0
   -4.1279   20.1325  -31.9861 H   0  0  0  0  0  0  0  0  0  0  0  0
  1  2  3  0
  2  3  1  0
  3  4  1  0
  4  5  2  0
  5  6  1  0
  6  7  2  0
  7  8  1  0
  8  9  2  0
  9 10  1  0
 10 11  1  0
 10 12  2  0
  9 13  1  0
 13 14  1  0
 14 15  2  0
 14 16  1  0
 16 17  1  0
 17 18  1  0
 18 19  2  0
 18 20  1  0
 13 21  1  0
 21 22  2  0
 22  4  1  0
 21  7  1  0
  3 23  1  0
  3 24  1  0
  5 25  1  0
  6 26  1  0
  8 27  1  0
 11 28  1  0
 17 29  1  0
 17 30  1  0
 22 31  1  0
M  CHG  2  11  -1  20  -1
M  END
>  <UniqueID>  (27) 
26

>  <SMILES>  (27) 
N#CCc1ccc2cc(C([NH-])=O)n(C(=O)OCC(=O)[O-])c2c1

>  <Energy>  (27) 
66.45223164247646

>  <Genealogy>  (27) 
N#CCc1ccc2cc(C([NH-])=O)n(C(=O)OCC(=O)[O-])c2c1 (protonated)
N#CCc1ccc2cc(C([NH-])=O)n(C(=O)OCC(=O)[O-])c2c1 (3D coordinates assigned)
N#CCc1ccc2cc(C([NH-])=O)n(C(=O)OCC(=O)[O-])c2c1 (optimized conformer: 66.45223164247646 kcal/mol)

>  <smiles>  (27) 
N#CCc1ccc2cc(C(N)=O)n(C(=O)OCC(=O)O)c2c1

>  <score_type>  (27) 
oracle

>  <origin>  (27) 
adg

>  <m_score__min__energy>  (27) 
-12.4

>  <m_primary>  (27) 
energy

$$$$
27:0
     RDKit          3D

 32 33  0  0  0  0  0  0  0  0999 V2000
   -6.5000   18.2360  -33.7330 C   0  0  0  0  0  0  0  0  0  0  0  0
   -6.6650   19.5410  -33.0120 C   0  0  0  0  0  0  0  0  0  0  0  0
   -7.9540   20.1060  -32.8560 C   0  0  0  0  0  0  0  0  0  0  0  0
   -8.1160   21.3500  -32.2240 C   0  0  0  0  0  0  0  0  0  0  0  0
   -6.9750   22.0050  -31.7670 C   0  0  0  0  0  0  0  0  0  0  0  0
   -6.8460   23.2260  -31.1480 C   0  0  0  0  0  0  0  0  0  0  0  0
   -5.4790   23.3840  -30.9280 C   0  0  0  0  0  0  0  0  0  0  0  0
   -4.9060   24.5310  -30.1930 C   0  0  0  0  0  0  0  0  0  0  0  0
   -3.8610   25.3170  -30.7600 N   0  0  0  0  0  0  0  0  0  0  0  0
   -5.3070   24.7870  -29.0260 O   0  0  0  0  0  0  0  0  0  0  0  0
   -4.7870   22.3090  -31.4050 N   0  0  0  0  0  0  0  0  0  0  0  0
   -3.3620   22.1300  -31.4520 C   0  0  0  0  0  0  0  0  0  0  0  0
   -2.8750   21.1050  -32.0050 O   0  0  0  0  0  0  0  0  0  0  0  0
   -2.5180   23.0830  -30.8730 O   0  0  0  0  0  0  0  0  0  0  0  0
   -1.9270   22.9060  -29.5890 C   0  0  0  0  0  0  0  0  0  0  0  0
   -2.3820   23.9140  -28.7140 O   0  0  0  0  0  0  0  0  0  0  0  0
   -1.1000   24.9910  -28.3790 P   0  0  0  0  0  0  0  0  0  0  0  0
   -1.1310   25.3710  -26.9160 O   0  0  0  0  0  0  0  0  0  0  0  0
   -1.2210   26.3900  -29.3230 O   0  0  0  0  0  0  0  0  0  0  0  0
    0.3670   24.2220  -28.7210 O   0  0  0  0  0  0  0  0  0  0  0  0
   -5.7200   21.4710  -31.9100 C   0  0  0  0  0  0  0  0  0  0  0  0
   -5.5290   20.2410  -32.5510 C   0  0  0  0  0  0  0  0  0  0  0  0
   -6.3971   17.4225  -32.9998 H   0  0  0  0  0  0  0  0  0  0  0  0
   -7.3820   18.0516  -34.3640 H   0  0  0  0  0  0  0  0  0  0  0  0
   -5.5999   18.2769  -34.3640 H   0  0  0  0  0  0  0  0  0  0  0  0
   -8.8355   19.5665  -33.2327 H   0  0  0  0  0  0  0  0  0  0  0  0
   -9.1142   21.7936  -32.0939 H   0  0  0  0  0  0  0  0  0  0  0  0
   -7.6502   23.9282  -30.8830 H   0  0  0  0  0  0  0  0  0  0  0  0
   -2.8840   25.2560  -30.3950 H   0  0  0  0  0  0  0  0  0  0  0  0
   -2.2084   21.9205  -29.1895 H   0  0  0  0  0  0  0  0  0  0  0  0
   -0.8325   22.9687  -29.6797 H   0  0  0  0  0  0  0  0  0  0  0  0
   -4.5184   19.8301  -32.6920 H   0  0  0  0  0  0  0  0  0  0  0  0
  1  2  1  0
  2  3  2  0
  3  4  1  0
  4  5  2  0
  5  6  1  0
  6  7  2  0
  7  8  1  0
  8  9  1  0
  8 10  2  0
  7 11  1  0
 11 12  1  0
 12 13  2  0
 12 14  1  0
 14 15  1  0
 15 16  1  0
 16 17  1  0
 17 18  2  0
 17 19  1  0
 17 20  1  0
 11 21  1  0
 21 22  2  0
 22  2  1  0
 21  5  1  0
  1 23  1  0
  1 24  1  0
  1 25  1  0
  3 26  1  0
  4 27  1  0
  6 28  1  0
  9 29  1  0
 15 30  1  0
 15 31  1  0
 22 32  1  0
M  CHG  3   9  -1  19  -1  20  -1
M  END
>  <UniqueID>  (28) 
27

>  <SMILES>  (28) 
Cc1ccc2cc(C([NH-])=O)n(C(=O)OCOP(=O)([O-])[O-])c2c1

>  <Energy>  (28) 
69.07170961106974

>  <Genealogy>  (28) 
Cc1ccc2cc(C([NH-])=O)n(C(=O)OCOP(=O)([O-])[O-])c2c1 (protonated)
Cc1ccc2cc(C([NH-])=O)n(C(=O)OCOP(=O)([O-])[O-])c2c1 (3D coordinates assigned)
Cc1ccc2cc(C([NH-])=O)n(C(=O)OCOP(=O)([O-])[O-])c2c1 (optimized conformer: 69.07170961106974 kcal/mol)

>  <smiles>  (28) 
Cc1ccc2cc(C(N)=O)n(C(=O)OCOP(=O)(O)O)c2c1

>  <score_type>  (28) 
oracle

>  <origin>  (28) 
adg

>  <m_score__min__energy>  (28) 
-13.460000000000001

>  <m_primary>  (28) 
energy

$$$$
28:0
     RDKit          3D

 36 37  0  0  0  0  0  0  0  0999 V2000
   -5.8690   18.4270  -34.2530 C   0  0  0  0  0  0  0  0  0  0  0  0
   -6.7830   18.3820  -33.0330 C   0  0  0  0  0  0  0  0  0  0  0  0
   -7.0220   19.7670  -32.4970 C   0  0  0  0  0  0  0  0  0  0  0  0
   -8.3380   20.2910  -32.4420 C   0  0  0  0  0  0  0  0  0  0  0  0
   -8.5710   21.5880  -31.9600 C   0  0  0  0  0  0  0  0  0  0  0  0
   -7.4720   22.3430  -31.5590 C   0  0  0  0  0  0  0  0  0  0  0  0
   -7.4200   23.6110  -31.0270 C   0  0  0  0  0  0  0  0  0  0  0  0
   -6.0680   23.8600  -30.8060 C   0  0  0  0  0  0  0  0  0  0  0  0
   -5.5530   25.1450  -30.2930 C   0  0  0  0  0  0  0  0  0  0  0  0
   -6.1330   25.7710  -29.1480 N   0  0  0  0  0  0  0  0  0  0  0  0
   -4.5490   25.6730  -30.8410 O   0  0  0  0  0  0  0  0  0  0  0  0
   -5.3140   22.7860  -31.1710 N   0  0  0  0  0  0  0  0  0  0  0  0
   -3.8990   22.6150  -30.9810 C   0  0  0  0  0  0  0  0  0  0  0  0
   -3.1120   22.7140  -31.9610 O   0  0  0  0  0  0  0  0  0  0  0  0
   -3.4000   22.3380  -29.7050 O   0  0  0  0  0  0  0  0  0  0  0  0
   -2.0430   22.5670  -29.3420 C   0  0  0  0  0  0  0  0  0  0  0  0
   -1.8850   23.9850  -28.8080 C   0  0  0  0  0  0  0  0  0  0  0  0
   -2.4690   24.8940  -29.7010 O   0  0  0  0  0  0  0  0  0  0  0  0
   -6.1890   21.8640  -31.6330 C   0  0  0  0  0  0  0  0  0  0  0  0
   -5.9300   20.5660  -32.0900 C   0  0  0  0  0  0  0  0  0  0  0  0
   -4.8206   18.4786  -33.9240 H   0  0  0  0  0  0  0  0  0  0  0  0
   -6.0194   17.5204  -34.8575 H   0  0  0  0  0  0  0  0  0  0  0  0
   -6.1077   19.3145  -34.8575 H   0  0  0  0  0  0  0  0  0  0  0  0
   -7.7461   17.9344  -33.3195 H   0  0  0  0  0  0  0  0  0  0  0  0
   -6.2996   17.7783  -32.2507 H   0  0  0  0  0  0  0  0  0  0  0  0
   -9.1843   19.6752  -32.7803 H   0  0  0  0  0  0  0  0  0  0  0  0
   -9.5909   21.9959  -31.9007 H   0  0  0  0  0  0  0  0  0  0  0  0
   -8.2654   24.2838  -30.8205 H   0  0  0  0  0  0  0  0  0  0  0  0
   -5.7820   26.6990  -28.8240 H   0  0  0  0  0  0  0  0  0  0  0  0
   -6.8560   25.2820  -28.5750 H   0  0  0  0  0  0  0  0  0  0  0  0
   -1.7467   21.8484  -28.5637 H   0  0  0  0  0  0  0  0  0  0  0  0
   -1.4031   22.4385  -30.2274 H   0  0  0  0  0  0  0  0  0  0  0  0
   -2.3805   24.0644  -27.8292 H   0  0  0  0  0  0  0  0  0  0  0  0
   -0.8151   24.2165  -28.7003 H   0  0  0  0  0  0  0  0  0  0  0  0
   -2.8650   24.3480  -30.4290 H   0  0  0  0  0  0  0  0  0  0  0  0
   -4.9016   20.1778  -32.1311 H   0  0  0  0  0  0  0  0  0  0  0  0
  1  2  1  0
  2  3  1  0
  3  4  2  0
  4  5  1  0
  5  6  2  0
  6  7  1  0
  7  8  2  0
  8  9  1  0
  9 10  1  0
  9 11  2  0
  8 12  1  0
 12 13  1  0
 13 14  2  0
 13 15  1  0
 15 16  1  0
 16 17  1  0
 17 18  1  0
 12 19  1  0
 19 20  2  0
 20  3  1  0
 19  6  1  0
  1 21  1  0
  1 22  1  0
  1 23  1  0
  2 24  1  0
  2 25  1  0
  4 26  1  0
  5 27  1  0
  7 28  1  0
 10 29  1  0
 10 30  1  0
 16 31  1  0
 16 32  1  0
 17 33  1  0
 17 34  1  0
 18 35  1  0
 20 36  1  0
M  END
>  <UniqueID>  (29) 
28

>  <SMILES>  (29) 
CCc1ccc2cc(C(N)=O)n(C(=O)OCCO)c2c1

>  <Energy>  (29) 
66.58156302833324

>  <Genealogy>  (29) 
CCc1ccc2cc(C(N)=O)n(C(=O)OCCO)c2c1 (3D coordinates assigned)
CCc1ccc2cc(C(N)=O)n(C(=O)OCCO)c2c1 (optimized conformer: 66.58156302833324 kcal/mol)

>  <smiles>  (29) 
CCc1ccc2cc(C(N)=O)n(C(=O)OCCO)c2c1

>  <score_type>  (29) 
oracle

>  <origin>  (29) 
adg

>  <m_score__min__energy>  (29) 
-8.7699999999999996

>  <m_primary>  (29) 
energy

$$$$
29:0
     RDKit          3D

 37 38  0  0  0  0  0  0  0  0999 V2000
   -7.6900   21.3180  -32.3080 C   0  0  0  0  0  0  0  0  0  0  0  0
   -7.1250   19.9470  -32.1090 C   0  0  0  0  0  0  0  0  0  0  0  0
   -7.8230   19.0730  -31.5290 O   0  0  0  0  0  0  0  0  0  0  0  0
   -5.7960   19.6200  -32.5510 N   0  0  0  0  0  0  0  0  0  0  0  0
   -5.4260   18.5670  -33.3320 C   0  0  0  0  0  0  0  0  0  0  0  0
   -6.3070   17.4670  -33.7740 C   0  0  0  0  0  0  0  0  0  0  0  0
   -7.2330   16.8490  -32.8770 N   0  0  0  0  0  0  0  0  0  0  0  0
   -6.2110   17.0320  -34.9520 O   0  0  0  0  0  0  0  0  0  0  0  0
   -4.0740   18.6470  -33.6550 C   0  0  0  0  0  0  0  0  0  0  0  0
   -3.6200   19.7890  -33.0380 C   0  0  0  0  0  0  0  0  0  0  0  0
   -2.3540   20.3660  -33.0450 C   0  0  0  0  0  0  0  0  0  0  0  0
   -2.1800   21.5780  -32.3580 C   0  0  0  0  0  0  0  0  0  0  0  0
   -3.2650   22.2040  -31.6940 C   0  0  0  0  0  0  0  0  0  0  0  0
   -3.0400   23.4560  -31.0140 N   0  0  0  0  0  0  0  0  0  0  0  0
   -2.8010   23.5800  -29.5680 C   0  0  2  0  0  0  0  0  0  0  0  0
   -4.0310   24.1630  -28.8400 C   0  0  0  0  0  0  0  0  0  0  0  0
   -4.9320   24.9610  -29.7370 C   0  0  0  0  0  0  0  0  0  0  0  0
   -6.1780   24.9520  -29.5580 O   0  0  0  0  0  0  0  0  0  0  0  0
   -4.3950   25.7000  -30.7840 O   0  0  0  0  0  0  0  0  0  0  0  0
   -1.5680   24.4020  -29.2930 C   0  0  0  0  0  0  0  0  0  0  0  0
   -1.6220   25.6610  -29.2950 O   0  0  0  0  0  0  0  0  0  0  0  0
   -0.3680   23.7680  -29.0000 O   0  0  0  0  0  0  0  0  0  0  0  0
   -4.5420   21.5880  -31.7210 C   0  0  0  0  0  0  0  0  0  0  0  0
   -4.6790   20.3630  -32.3840 C   0  0  0  0  0  0  0  0  0  0  0  0
   -7.8810   21.7815  -31.3289 H   0  0  0  0  0  0  0  0  0  0  0  0
   -6.9718   21.9324  -32.8707 H   0  0  0  0  0  0  0  0  0  0  0  0
   -8.6326   21.2480  -32.8707 H   0  0  0  0  0  0  0  0  0  0  0  0
   -7.8870   16.1150  -33.2250 H   0  0  0  0  0  0  0  0  0  0  0  0
   -7.2040   17.0420  -31.8520 H   0  0  0  0  0  0  0  0  0  0  0  0
   -3.4929   17.9460  -34.2722 H   0  0  0  0  0  0  0  0  0  0  0  0
   -1.5156   19.8875  -33.5723 H   0  0  0  0  0  0  0  0  0  0  0  0
   -1.1863   22.0492  -32.3346 H   0  0  0  0  0  0  0  0  0  0  0  0
   -3.0850   24.3260  -31.5900 H   0  0  0  0  0  0  0  0  0  0  0  0
   -2.6307   22.5683  -29.1711 H   0  0  0  0  0  0  0  0  0  0  0  0
   -4.6110   23.3309  -28.4143 H   0  0  0  0  0  0  0  0  0  0  0  0
   -3.6554   24.8474  -28.0651 H   0  0  0  0  0  0  0  0  0  0  0  0
   -5.4056   22.0623  -31.2318 H   0  0  0  0  0  0  0  0  0  0  0  0
  1  2  1  0
  2  3  2  0
  2  4  1  0
  4  5  1  0
  5  6  1  0
  6  7  1  0
  6  8  2  0
  5  9  2  0
  9 10  1  0
 10 11  2  0
 11 12  1  0
 12 13  2  0
 13 14  1  0
 14 15  1  0
 15 16  1  0
 16 17  1  0
 17 18  2  0
 17 19  1  0
 15 20  1  0
 20 21  2  0
 20 22  1  0
 13 23  1  0
 23 24  2  0
 24  4  1  0
 24 10  1  0
  1 25  1  0
  1 26  1  0
  1 27  1  0
  7 28  1  0
  7 29  1  0
  9 30  1  0
 11 31  1  0
 12 32  1  0
 14 33  1  0
 15 34  1  1
 16 35  1  0
 16 36  1  0
 23 37  1  0
M  CHG  2  19  -1  22  -1
M  END
>  <UniqueID>  (30) 
29

>  <SMILES>  (30) 
CC(=O)n1c(C(N)=O)cc2ccc(N[C@H](CC(=O)[O-])C(=O)[O-])cc21

>  <Energy>  (30) 
75.3344089377986

>  <Genealogy>  (30) 
CC(=O)n1c(C(N)=O)cc2ccc(N[C@H](CC(=O)[O-])C(=O)[O-])cc21 (protonated)
CC(=O)n1c(C(N)=O)cc2ccc(N[C@H](CC(=O)[O-])C(=O)[O-])cc21 (3D coordinates assigned)
CC(=O)n1c(C(N)=O)cc2ccc(N[C@H](CC(=O)[O-])C(=O)[O-])cc21 (optimized conformer: 75.3344089377986 kcal/mol)

>  <smiles>  (30) 
CC(=O)n1c(C(N)=O)cc2ccc(N[C@H](CC(=O)O)C(=O)O)cc21

>  <score_type>  (30) 
oracle

>  <origin>  (30) 
adg

>  <m_score__min__energy>  (30) 
-10.140000000000001

>  <m_primary>  (30) 
energy

$$$$
30:0
     RDKit          3D

 44 46  0  0  0  0  0  0  0  0999 V2000
   -5.8520   11.7780  -34.0800 C   0  0  0  0  0  0  0  0  0  0  0  0
   -6.1520   13.1270  -34.4170 O   0  0  0  0  0  0  0  0  0  0  0  0
   -5.1800   14.1330  -34.4450 C   0  0  0  0  0  0  0  0  0  0  0  0
   -4.0130   13.8720  -34.8490 O   0  0  0  0  0  0  0  0  0  0  0  0
   -5.5240   15.5020  -33.9990 C   0  0  0  0  0  0  0  0  0  0  0  0
   -4.5110   16.4340  -33.7220 C   0  0  0  0  0  0  0  0  0  0  0  0
   -4.8310   17.7280  -33.3020 C   0  0  0  0  0  0  0  0  0  0  0  0
   -6.1730   18.1190  -33.1500 C   0  0  0  0  0  0  0  0  0  0  0  0
   -6.5120   19.4940  -32.7040 C   0  0  0  0  0  0  0  0  0  0  0  0
   -7.8560   19.9500  -32.7410 C   0  0  0  0  0  0  0  0  0  0  0  0
   -8.1850   21.2530  -32.3340 C   0  0  0  0  0  0  0  0  0  0  0  0
   -7.1580   22.0760  -31.8860 C   0  0  0  0  0  0  0  0  0  0  0  0
   -7.1940   23.3860  -31.4670 C   0  0  0  0  0  0  0  0  0  0  0  0
   -5.8770   23.7070  -31.1490 C   0  0  0  0  0  0  0  0  0  0  0  0
   -5.4700   25.0130  -30.5930 C   0  0  0  0  0  0  0  0  0  0  0  0
   -4.1260   25.4820  -30.7140 N   0  0  0  0  0  0  0  0  0  0  0  0
   -6.3080   25.7020  -29.9530 O   0  0  0  0  0  0  0  0  0  0  0  0
   -5.0550   22.6440  -31.3750 N   0  0  0  0  0  0  0  0  0  0  0  0
   -3.6230   22.6080  -31.2700 C   0  0  0  0  0  0  0  0  0  0  0  0
   -2.9280   22.2580  -32.2630 O   0  0  0  0  0  0  0  0  0  0  0  0
   -3.0040   22.9620  -30.0650 O   0  0  0  0  0  0  0  0  0  0  0  0
   -1.5900   22.9840  -29.8880 C   0  0  0  0  0  0  0  0  0  0  0  0
   -1.1550   24.3070  -29.3430 C   0  0  0  0  0  0  0  0  0  0  0  0
    0.0000   24.4420  -28.8620 O   0  0  0  0  0  0  0  0  0  0  0  0
   -2.0330   25.3830  -29.3380 O   0  0  0  0  0  0  0  0  0  0  0  0
   -5.8560   21.6500  -31.8220 C   0  0  0  0  0  0  0  0  0  0  0  0
   -5.4960   20.3640  -32.2430 C   0  0  0  0  0  0  0  0  0  0  0  0
   -7.1860   17.1860  -33.4270 C   0  0  0  0  0  0  0  0  0  0  0  0
   -6.8660   15.8910  -33.8480 C   0  0  0  0  0  0  0  0  0  0  0  0
   -5.8280   11.6701  -32.9856 H   0  0  0  0  0  0  0  0  0  0  0  0
   -6.6247   11.1154  -34.4969 H   0  0  0  0  0  0  0  0  0  0  0  0
   -4.8713   11.5053  -34.4969 H   0  0  0  0  0  0  0  0  0  0  0  0
   -3.4564   16.1431  -33.8366 H   0  0  0  0  0  0  0  0  0  0  0  0
   -4.0261   18.4467  -33.0885 H   0  0  0  0  0  0  0  0  0  0  0  0
   -8.6494   19.2742  -33.0929 H   0  0  0  0  0  0  0  0  0  0  0  0
   -9.2243   21.6118  -32.3686 H   0  0  0  0  0  0  0  0  0  0  0  0
   -8.0755   24.0404  -31.3979 H   0  0  0  0  0  0  0  0  0  0  0  0
   -3.3690   24.8640  -31.0830 H   0  0  0  0  0  0  0  0  0  0  0  0
   -3.8660   26.4260  -30.3520 H   0  0  0  0  0  0  0  0  0  0  0  0
   -1.3000   22.1891  -29.1852 H   0  0  0  0  0  0  0  0  0  0  0  0
   -1.1052   22.8217  -30.8620 H   0  0  0  0  0  0  0  0  0  0  0  0
   -4.4460   20.0372  -32.2159 H   0  0  0  0  0  0  0  0  0  0  0  0
   -8.2407   17.4765  -33.3118 H   0  0  0  0  0  0  0  0  0  0  0  0
   -7.6704   15.1720  -34.0624 H   0  0  0  0  0  0  0  0  0  0  0  0
  1  2  1  0
  2  3  1  0
  3  4  2  0
  3  5  1  0
  5  6  2  0
  6  7  1  0
  7  8  2  0
  8  9  1  0
  9 10  2  0
 10 11  1  0
 11 12  2  0
 12 13  1  0
 13 14  2  0
 14 15  1  0
 15 16  1  0
 15 17  2  0
 14 18  1  0
 18 19  1  0
 19 20  2  0
 19 21  1  0
 21 22  1  0
 22 23  1  0
 23 24  2  0
 23 25  1  0
 18 26  1  0
 26 27  2  0
  8 28  1  0
 28 29  2  0
 29  5  1  0
 27  9  1  0
 26 12  1  0
  1 30  1  0
  1 31  1  0
  1 32  1  0
  6 33  1  0
  7 34  1  0
 10 35  1  0
 11 36  1  0
 13 37  1  0
 16 38  1  0
 16 39  1  0
 22 40  1  0
 22 41  1  0
 27 42  1  0
 28 43  1  0
 29 44  1  0
M  CHG  1  25  -1
M  END
>  <UniqueID>  (31) 
30

>  <SMILES>  (31) 
COC(=O)c1ccc(-c2ccc3cc(C(N)=O)n(C(=O)OCC(=O)[O-])c3c2)cc1

>  <Energy>  (31) 
87.09304922804829

>  <Genealogy>  (31) 
COC(=O)c1ccc(-c2ccc3cc(C(N)=O)n(C(=O)OCC(=O)[O-])c3c2)cc1 (protonated)
COC(=O)c1ccc(-c2ccc3cc(C(N)=O)n(C(=O)OCC(=O)[O-])c3c2)cc1 (3D coordinates assigned)
COC(=O)c1ccc(-c2ccc3cc(C(N)=O)n(C(=O)OCC(=O)[O-])c3c2)cc1 (optimized conformer: 87.09304922804829 kcal/mol)

>  <smiles>  (31) 
COC(=O)c1ccc(-c2ccc3cc(C(N)=O)n(C(=O)OCC(=O)O)c3c2)cc1

>  <score_type>  (31) 
oracle

>  <origin>  (31) 
adg

>  <m_score__min__energy>  (31) 
-10.880000000000001

>  <m_primary>  (31) 
energy

$$$$
31:0
     RDKit          3D

 40 41  0  0  0  0  0  0  0  0999 V2000
   -6.5040   17.7960  -32.0430 C   0  0  0  0  0  0  0  0  0  0  0  0
   -6.7410   19.2770  -32.0250 C   0  0  0  0  0  0  0  0  0  0  0  0
   -7.8730   19.8220  -32.6780 C   0  0  0  0  0  0  0  0  0  0  0  0
   -8.1150   21.2060  -32.6500 C   0  0  0  0  0  0  0  0  0  0  0  0
   -7.2250   22.0110  -31.9450 C   0  0  0  0  0  0  0  0  0  0  0  0
   -7.2100   23.3750  -31.7750 C   0  0  0  0  0  0  0  0  0  0  0  0
   -6.0850   23.6400  -30.9980 C   0  0  0  0  0  0  0  0  0  0  0  0
   -5.6790   25.0050  -30.6050 C   0  0  0  0  0  0  0  0  0  0  0  0
   -4.3570   25.4790  -30.8410 N   0  0  0  0  0  0  0  0  0  0  0  0
   -6.5300   25.7850  -30.0980 O   0  0  0  0  0  0  0  0  0  0  0  0
   -5.4440   22.4790  -30.6740 N   0  0  0  0  0  0  0  0  0  0  0  0
   -4.3150   22.3120  -29.7940 C   0  0  0  0  0  0  0  0  0  0  0  0
   -4.4830   22.4280  -28.5500 O   0  0  0  0  0  0  0  0  0  0  0  0
   -2.9140   22.1230  -30.3370 C   0  0  2  0  0  0  0  0  0  0  0  0
   -2.8680   21.3750  -31.6780 C   0  0  0  0  0  0  0  0  0  0  0  0
   -2.0350   21.4890  -29.3480 N   0  0  0  0  0  0  0  0  0  0  0  0
   -1.7530   21.8900  -27.9980 C   0  0  0  0  0  0  0  0  0  0  0  0
   -1.5750   20.9880  -27.1360 O   0  0  0  0  0  0  0  0  0  0  0  0
   -1.7480   23.3310  -27.5650 C   0  0  0  0  0  0  0  0  0  0  0  0
   -0.8620   24.3920  -28.7540 P   0  0  2  0  0  0  0  0  0  0  0  0
    0.3770   24.9630  -28.1040 O   0  0  0  0  0  0  0  0  0  0  0  0
   -1.8680   25.6580  -29.2530 O   0  0  0  0  0  0  0  0  0  0  0  0
   -0.4120   23.4720  -30.0990 O   0  0  0  0  0  0  0  0  0  0  0  0
   -6.1440   21.4940  -31.2780 C   0  0  0  0  0  0  0  0  0  0  0  0
   -5.8670   20.1230  -31.3080 C   0  0  0  0  0  0  0  0  0  0  0  0
   -6.4441   17.4217  -31.0104 H   0  0  0  0  0  0  0  0  0  0  0  0
   -7.3339   17.2982  -32.5659 H   0  0  0  0  0  0  0  0  0  0  0  0
   -5.5602   17.5820  -32.5659 H   0  0  0  0  0  0  0  0  0  0  0  0
   -8.5683   19.1570  -33.2113 H   0  0  0  0  0  0  0  0  0  0  0  0
   -8.9819   21.6401  -33.1697 H   0  0  0  0  0  0  0  0  0  0  0  0
   -7.9338   24.1034  -32.1694 H   0  0  0  0  0  0  0  0  0  0  0  0
   -3.8570   26.0510  -30.1250 H   0  0  0  0  0  0  0  0  0  0  0  0
   -2.5364   23.1359  -30.5407 H   0  0  0  0  0  0  0  0  0  0  0  0
   -2.8015   20.2929  -31.4921 H   0  0  0  0  0  0  0  0  0  0  0  0
   -3.7813   21.5931  -32.2510 H   0  0  0  0  0  0  0  0  0  0  0  0
   -1.9884   21.7034  -32.2510 H   0  0  0  0  0  0  0  0  0  0  0  0
   -2.7874   23.6812  -27.4810 H   0  0  0  0  0  0  0  0  0  0  0  0
   -1.2297   23.3954  -26.5969 H   0  0  0  0  0  0  0  0  0  0  0  0
   -0.7440   22.5590  -29.9040 H   0  0  0  0  0  0  0  0  0  0  0  0
   -4.9896   19.7140  -30.7857 H   0  0  0  0  0  0  0  0  0  0  0  0
  1  2  1  0
  2  3  2  0
  3  4  1  0
  4  5  2  0
  5  6  1  0
  6  7  2  0
  7  8  1  0
  8  9  1  0
  8 10  2  0
  7 11  1  0
 11 12  1  0
 12 13  2  0
 12 14  1  0
 14 15  1  0
 14 16  1  0
 16 17  1  0
 17 18  2  0
 17 19  1  0
 19 20  1  0
 20 21  2  0
 20 22  1  6
 20 23  1  0
 11 24  1  0
 24 25  2  0
 25  2  1  0
 24  5  1  0
  1 26  1  0
  1 27  1  0
  1 28  1  0
  3 29  1  0
  4 30  1  0
  6 31  1  0
  9 32  1  0
 14 33  1  6
 15 34  1  0
 15 35  1  0
 15 36  1  0
 19 37  1  0
 19 38  1  0
 23 39  1  0
 25 40  1  0
M  CHG  3   9  -1  16  -1  22  -1
M  END
>  <UniqueID>  (32) 
31

>  <SMILES>  (32) 
Cc1ccc2cc(C([NH-])=O)n(C(=O)[C@H](C)[N-]C(=O)C[P@](=O)([O-])O)c2c1

>  <Energy>  (32) 
74.79014408826052

>  <Genealogy>  (32) 
Cc1ccc2cc(C([NH-])=O)n(C(=O)[C@H](C)[N-]C(=O)CP(=O)([O-])O)c2c1 (protonated)
Cc1ccc2cc(C([NH-])=O)n(C(=O)[C@H](C)[N-]C(=O)C[P@](=O)([O-])O)c2c1 (chirality)
Cc1ccc2cc(C([NH-])=O)n(C(=O)[C@H](C)[N-]C(=O)C[P@](=O)([O-])O)c2c1 (3D coordinates assigned)
Cc1ccc2cc(C([NH-])=O)n(C(=O)[C@H](C)[N-]C(=O)C[P@](=O)([O-])O)c2c1 (optimized conformer: 74.79014408826052 kcal/mol)

>  <smiles>  (32) 
Cc1ccc2cc(C(N)=O)n(C(=O)[C@H](C)NC(=O)CP(=O)(O)O)c2c1

>  <score_type>  (32) 
oracle

>  <origin>  (32) 
adg

>  <m_score__min__energy>  (32) 
-12.43

>  <m_primary>  (32) 
energy

$$$$
32:0
     RDKit          3D

 38 39  0  0  0  0  0  0  0  0999 V2000
   -5.7340   18.1680  -35.0320 C   0  0  0  0  0  0  0  0  0  0  0  0
   -6.2720   18.2360  -33.6660 N   0  0  0  0  0  0  0  0  0  0  0  0
   -6.5650   16.9670  -32.9780 C   0  0  0  0  0  0  0  0  0  0  0  0
   -6.1970   17.0450  -31.4950 C   0  0  0  0  0  0  0  0  0  0  0  0
   -5.3970   15.9510  -31.1410 O   0  0  0  0  0  0  0  0  0  0  0  0
   -6.5020   19.5260  -33.0290 C   0  0  0  0  0  0  0  0  0  0  0  0
   -7.8100   20.0890  -32.9550 C   0  0  0  0  0  0  0  0  0  0  0  0
   -8.0360   21.3260  -32.3300 C   0  0  0  0  0  0  0  0  0  0  0  0
   -6.9470   21.9950  -31.7910 C   0  0  0  0  0  0  0  0  0  0  0  0
   -6.8920   23.1880  -31.1080 C   0  0  0  0  0  0  0  0  0  0  0  0
   -5.5490   23.3690  -30.7910 C   0  0  0  0  0  0  0  0  0  0  0  0
   -5.0300   24.5700  -30.1090 C   0  0  0  0  0  0  0  0  0  0  0  0
   -5.2740   24.7970  -28.7200 N   0  0  0  0  0  0  0  0  0  0  0  0
   -4.3120   25.3850  -30.7510 O   0  0  0  0  0  0  0  0  0  0  0  0
   -4.8030   22.3220  -31.2470 N   0  0  0  0  0  0  0  0  0  0  0  0
   -3.4040   22.0720  -31.0220 C   0  0  0  0  0  0  0  0  0  0  0  0
   -2.8790   21.0000  -31.4220 O   0  0  0  0  0  0  0  0  0  0  0  0
   -2.5920   23.0270  -30.3140 C   0  0  0  0  0  0  0  0  0  0  0  0
   -1.9160   23.8300  -29.7240 C   0  0  0  0  0  0  0  0  0  0  0  0
   -1.1080   24.7870  -29.0230 C   0  0  0  0  0  0  0  0  0  0  0  0
   -0.0260   24.4250  -28.4900 O   0  0  0  0  0  0  0  0  0  0  0  0
   -1.5180   26.1100  -28.9330 O   0  0  0  0  0  0  0  0  0  0  0  0
   -5.6760   21.4910  -31.8620 C   0  0  0  0  0  0  0  0  0  0  0  0
   -5.4210   20.2530  -32.4590 C   0  0  0  0  0  0  0  0  0  0  0  0
   -4.6435   18.0302  -34.9901 H   0  0  0  0  0  0  0  0  0  0  0  0
   -6.1906   17.3204  -35.5641 H   0  0  0  0  0  0  0  0  0  0  0  0
   -5.9653   19.1025  -35.5641 H   0  0  0  0  0  0  0  0  0  0  0  0
   -7.6391   16.7483  -33.0703 H   0  0  0  0  0  0  0  0  0  0  0  0
   -5.9661   16.1710  -33.4445 H   0  0  0  0  0  0  0  0  0  0  0  0
   -5.6441   17.9769  -31.3056 H   0  0  0  0  0  0  0  0  0  0  0  0
   -7.1178   17.0282  -30.8934 H   0  0  0  0  0  0  0  0  0  0  0  0
   -5.5240   15.8210  -30.1660 H   0  0  0  0  0  0  0  0  0  0  0  0
   -8.6578   19.5441  -33.3958 H   0  0  0  0  0  0  0  0  0  0  0  0
   -9.0482   21.7525  -32.2696 H   0  0  0  0  0  0  0  0  0  0  0  0
   -7.7309   23.8565  -30.8643 H   0  0  0  0  0  0  0  0  0  0  0  0
   -4.9350   25.6730  -28.2650 H   0  0  0  0  0  0  0  0  0  0  0  0
   -5.7230   24.0670  -28.1250 H   0  0  0  0  0  0  0  0  0  0  0  0
   -4.3990   19.8471  -32.4874 H   0  0  0  0  0  0  0  0  0  0  0  0
  1  2  1  0
  2  3  1  0
  3  4  1  0
  4  5  1  0
  2  6  1  0
  6  7  2  0
  7  8  1  0
  8  9  2  0
  9 10  1  0
 10 11  2  0
 11 12  1  0
 12 13  1  0
 12 14  2  0
 11 15  1  0
 15 16  1  0
 16 17  2  0
 16 18  1  0
 18 19  3  0
 19 20  1  0
 20 21  2  0
 20 22  1  0
 15 23  1  0
 23 24  2  0
 24  6  1  0
 23  9  1  0
  1 25  1  0
  1 26  1  0
  1 27  1  0
  3 28  1  0
  3 29  1  0
  4 30  1  0
  4 31  1  0
  5 32  1  0
  7 33  1  0
  8 34  1  0
 10 35  1  0
 13 36  1  0
 13 37  1  0
 24 38  1  0
M  CHG  1  22  -1
M  END
>  <UniqueID>  (33) 
32

>  <SMILES>  (33) 
CN(CCO)c1ccc2cc(C(N)=O)n(C(=O)C#CC(=O)[O-])c2c1

>  <Energy>  (33) 
74.12375879053715

>  <Genealogy>  (33) 
CN(CCO)c1ccc2cc(C(N)=O)n(C(=O)C#CC(=O)[O-])c2c1 (protonated)
CN(CCO)c1ccc2cc(C(N)=O)n(C(=O)C#CC(=O)[O-])c2c1 (3D coordinates assigned)
CN(CCO)c1ccc2cc(C(N)=O)n(C(=O)C#CC(=O)[O-])c2c1 (optimized conformer: 74.12375879053715 kcal/mol)

>  <smiles>  (33) 
CN(CCO)c1ccc2cc(C(N)=O)n(C(=O)C#CC(=O)O)c2c1

>  <score_type>  (33) 
oracle

>  <origin>  (33) 
adg

>  <m_score__min__energy>  (33) 
-11.07

>  <m_primary>  (33) 
energy

$$$$
33:0
     RDKit          3D

 41 42  0  0  0  0  0  0  0  0999 V2000
   -0.7150   26.9370  -27.0130 C   0  0  0  0  0  0  0  0  0  0  0  0
   -0.8370   25.4090  -27.0650 C   0  0  2  0  0  0  0  0  0  0  0  0
   -0.4110   24.9020  -28.3780 N   0  0  0  0  0  0  0  0  0  0  0  0
   -1.2210   25.4130  -29.3420 O   0  0  0  0  0  0  0  0  0  0  0  0
   -2.2350   24.9660  -26.7000 C   0  0  0  0  0  0  0  0  0  0  0  0
   -2.8230   25.5130  -25.7260 O   0  0  0  0  0  0  0  0  0  0  0  0
   -2.8640   23.9440  -27.4180 O   0  0  0  0  0  0  0  0  0  0  0  0
   -4.0190   24.1470  -28.2240 C   0  0  0  0  0  0  0  0  0  0  0  0
   -3.6260   24.4680  -29.5530 O   0  0  0  0  0  0  0  0  0  0  0  0
   -4.3910   24.1240  -30.6710 C   0  0  0  0  0  0  0  0  0  0  0  0
   -5.0860   24.9960  -31.2610 O   0  0  0  0  0  0  0  0  0  0  0  0
   -4.4130   22.7630  -31.1270 N   0  0  0  0  0  0  0  0  0  0  0  0
   -3.3530   21.9200  -31.2640 C   0  0  0  0  0  0  0  0  0  0  0  0
   -1.9310   22.3060  -31.1280 C   0  0  0  0  0  0  0  0  0  0  0  0
   -1.4940   23.1040  -30.0260 N   0  0  0  0  0  0  0  0  0  0  0  0
   -1.0850   21.9030  -31.9690 O   0  0  0  0  0  0  0  0  0  0  0  0
   -3.7840   20.6540  -31.6590 C   0  0  0  0  0  0  0  0  0  0  0  0
   -5.1520   20.7510  -31.7590 C   0  0  0  0  0  0  0  0  0  0  0  0
   -6.0960   19.7850  -32.0970 C   0  0  0  0  0  0  0  0  0  0  0  0
   -7.4510   20.1560  -32.0900 C   0  0  0  0  0  0  0  0  0  0  0  0
   -7.8400   21.4790  -31.7540 C   0  0  0  0  0  0  0  0  0  0  0  0
   -9.3010   21.8490  -31.6830 C   0  0  0  0  0  0  0  0  0  0  0  0
   -9.5200   23.0920  -32.2490 F   0  0  0  0  0  0  0  0  0  0  0  0
   -9.7300   21.8890  -30.3670 F   0  0  0  0  0  0  0  0  0  0  0  0
  -10.0420   20.9050  -32.3700 F   0  0  0  0  0  0  0  0  0  0  0  0
   -6.8520   22.4250  -31.3950 C   0  0  0  0  0  0  0  0  0  0  0  0
   -5.5080   22.0330  -31.4320 C   0  0  0  0  0  0  0  0  0  0  0  0
   -0.6886   27.2672  -25.9641 H   0  0  0  0  0  0  0  0  0  0  0  0
    0.2109   27.2483  -27.5188 H   0  0  0  0  0  0  0  0  0  0  0  0
   -1.5797   27.3913  -27.5188 H   0  0  0  0  0  0  0  0  0  0  0  0
   -0.1612   24.9733  -26.3143 H   0  0  0  0  0  0  0  0  0  0  0  0
   -0.5180   23.8600  -28.3890 H   0  0  0  0  0  0  0  0  0  0  0  0
   -2.0970   24.9660  -29.2070 H   0  0  0  0  0  0  0  0  0  0  0  0
   -4.6243   23.2286  -28.2335 H   0  0  0  0  0  0  0  0  0  0  0  0
   -4.6116   24.9757  -27.8092 H   0  0  0  0  0  0  0  0  0  0  0  0
   -0.4810   23.3280  -29.9140 H   0  0  0  0  0  0  0  0  0  0  0  0
   -2.1740   23.5160  -29.3490 H   0  0  0  0  0  0  0  0  0  0  0  0
   -3.1622   19.7669  -31.8499 H   0  0  0  0  0  0  0  0  0  0  0  0
   -5.7901   18.7621  -32.3616 H   0  0  0  0  0  0  0  0  0  0  0  0
   -8.2195   19.4124  -32.3479 H   0  0  0  0  0  0  0  0  0  0  0  0
   -7.1326   23.4450  -31.0937 H   0  0  0  0  0  0  0  0  0  0  0  0
  1  2  1  0
  2  3  1  0
  3  4  1  0
  2  5  1  0
  5  6  2  0
  5  7  1  0
  7  8  1  0
  8  9  1  0
  9 10  1  0
 10 11  2  0
 10 12  1  0
 12 13  1  0
 13 14  1  0
 14 15  1  0
 14 16  2  0
 13 17  2  0
 17 18  1  0
 18 19  2  0
 19 20  1  0
 20 21  2  0
 21 22  1  0
 22 23  1  0
 22 24  1  0
 22 25  1  0
 21 26  1  0
 26 27  2  0
 27 12  1  0
 27 18  1  0
  1 28  1  0
  1 29  1  0
  1 30  1  0
  2 31  1  1
  3 32  1  0
  4 33  1  0
  8 34  1  0
  8 35  1  0
 15 36  1  0
 15 37  1  0
 17 38  1  0
 19 39  1  0
 20 40  1  0
 26 41  1  0
M  END
>  <UniqueID>  (34) 
33

>  <SMILES>  (34) 
C[C@H](NO)C(=O)OCOC(=O)n1c(C(N)=O)cc2ccc(C(F)(F)F)cc21

>  <Energy>  (34) 
75.3140501793693

>  <Genealogy>  (34) 
C[C@H](NO)C(=O)OCOC(=O)n1c(C(N)=O)cc2ccc(C(F)(F)F)cc21 (chirality)
C[C@H](NO)C(=O)OCOC(=O)n1c(C(N)=O)cc2ccc(C(F)(F)F)cc21 (3D coordinates assigned)
C[C@H](NO)C(=O)OCOC(=O)n1c(C(N)=O)cc2ccc(C(F)(F)F)cc21 (optimized conformer: 75.3140501793693 kcal/mol)

>  <smiles>  (34) 
CC(NO)C(=O)OCOC(=O)n1c(C(N)=O)cc2ccc(C(F)(F)F)cc21

>  <score_type>  (34) 
oracle

>  <origin>  (34) 
adg

>  <m_score__min__energy>  (34) 
-8.4000000000000004

>  <m_primary>  (34) 
energy

$$$$
34:0
     RDKit          3D

 53 54  0  0  0  0  0  0  0  0999 V2000
   -3.0790   22.1560  -28.1830 C   0  0  0  0  0  0  0  0  0  0  0  0
   -1.7010   22.1600  -27.6360 N   0  0  0  0  0  0  0  0  0  0  0  0
   -1.6130   21.0370  -26.6670 C   0  0  0  0  0  0  0  0  0  0  0  0
   -1.4820   23.4590  -26.9210 C   0  0  0  0  0  0  0  0  0  0  0  0
   -2.3190   24.6660  -27.4380 C   0  0  0  0  0  0  0  0  0  0  0  0
   -1.4550   25.8210  -27.9360 C   0  0  0  0  0  0  0  0  0  0  0  0
   -1.1500   25.6530  -29.2900 O   0  0  0  0  0  0  0  0  0  0  0  0
   -0.7160   21.9030  -28.7350 C   0  0  0  0  0  0  0  0  0  0  0  0
   -1.2810   21.2810  -30.0410 C   0  0  0  0  0  0  0  0  0  0  0  0
   -1.4880   22.2930  -31.1810 C   0  0  0  0  0  0  0  0  0  0  0  0
   -2.7650   22.9220  -31.0530 O   0  0  0  0  0  0  0  0  0  0  0  0
   -3.8550   22.6150  -31.8800 C   0  0  0  0  0  0  0  0  0  0  0  0
   -3.6640   22.0940  -33.0150 O   0  0  0  0  0  0  0  0  0  0  0  0
   -5.1950   22.9230  -31.4580 N   0  0  0  0  0  0  0  0  0  0  0  0
   -5.6690   24.0740  -30.8890 C   0  0  0  0  0  0  0  0  0  0  0  0
   -4.8940   25.3040  -30.6210 C   0  0  0  0  0  0  0  0  0  0  0  0
   -3.5550   25.2120  -30.1350 N   0  0  0  0  0  0  0  0  0  0  0  0
   -5.4030   26.4360  -30.7840 O   0  0  0  0  0  0  0  0  0  0  0  0
   -7.0100   23.9190  -30.5310 C   0  0  0  0  0  0  0  0  0  0  0  0
   -7.3490   22.6350  -30.9030 C   0  0  0  0  0  0  0  0  0  0  0  0
   -8.5560   21.9480  -30.7730 C   0  0  0  0  0  0  0  0  0  0  0  0
   -8.6180   20.6270  -31.2330 C   0  0  0  0  0  0  0  0  0  0  0  0
   -7.4890   20.0200  -31.8390 C   0  0  0  0  0  0  0  0  0  0  0  0
   -7.5480   18.5910  -32.2990 C   0  0  0  0  0  0  0  0  0  0  0  0
   -6.8410   17.7630  -31.4430 F   0  0  0  0  0  0  0  0  0  0  0  0
   -8.8530   18.1520  -32.3380 F   0  0  0  0  0  0  0  0  0  0  0  0
   -7.0080   18.5050  -33.5640 F   0  0  0  0  0  0  0  0  0  0  0  0
   -6.2720   20.7440  -31.9300 C   0  0  0  0  0  0  0  0  0  0  0  0
   -6.2370   22.0540  -31.4550 C   0  0  0  0  0  0  0  0  0  0  0  0
   -3.8024   22.1539  -27.3544 H   0  0  0  0  0  0  0  0  0  0  0  0
   -3.2311   23.0537  -28.8002 H   0  0  0  0  0  0  0  0  0  0  0  0
   -3.2259   21.2574  -28.8002 H   0  0  0  0  0  0  0  0  0  0  0  0
   -1.6441   21.4341  -25.6417 H   0  0  0  0  0  0  0  0  0  0  0  0
   -2.4603   20.3526  -26.8210 H   0  0  0  0  0  0  0  0  0  0  0  0
   -0.6695   20.4929  -26.8210 H   0  0  0  0  0  0  0  0  0  0  0  0
   -1.7294   23.3063  -25.8601 H   0  0  0  0  0  0  0  0  0  0  0  0
   -0.4301   23.7257  -27.1009 H   0  0  0  0  0  0  0  0  0  0  0  0
   -2.9556   24.3219  -28.2664 H   0  0  0  0  0  0  0  0  0  0  0  0
   -2.9134   25.0408  -26.5917 H   0  0  0  0  0  0  0  0  0  0  0  0
   -2.0014   26.7663  -27.8021 H   0  0  0  0  0  0  0  0  0  0  0  0
   -0.5186   25.8407  -27.3591 H   0  0  0  0  0  0  0  0  0  0  0  0
   -2.0140   25.6720  -29.7750 H   0  0  0  0  0  0  0  0  0  0  0  0
   -0.2496   22.8641  -28.9972 H   0  0  0  0  0  0  0  0  0  0  0  0
   -0.0203   21.1521  -28.3324 H   0  0  0  0  0  0  0  0  0  0  0  0
   -0.5784   20.5090  -30.3879 H   0  0  0  0  0  0  0  0  0  0  0  0
   -2.2727   20.8737  -29.7948 H   0  0  0  0  0  0  0  0  0  0  0  0
   -0.6992   23.0584  -31.1359 H   0  0  0  0  0  0  0  0  0  0  0  0
   -1.4418   21.7645  -32.1446 H   0  0  0  0  0  0  0  0  0  0  0  0
   -2.7490   25.1720  -30.7960 H   0  0  0  0  0  0  0  0  0  0  0  0
   -7.6604   24.6657  -30.0520 H   0  0  0  0  0  0  0  0  0  0  0  0
   -9.4352   22.4309  -30.3214 H   0  0  0  0  0  0  0  0  0  0  0  0
   -9.5511   20.0549  -31.1232 H   0  0  0  0  0  0  0  0  0  0  0  0
   -5.3747   20.2810  -32.3664 H   0  0  0  0  0  0  0  0  0  0  0  0
  1  2  1  0
  2  3  1  0
  2  4  1  0
  4  5  1  0
  5  6  1  0
  6  7  1  0
  2  8  1  0
  8  9  1  0
  9 10  1  0
 10 11  1  0
 11 12  1  0
 12 13  2  0
 12 14  1  0
 14 15  1  0
 15 16  1  0
 16 17  1  0
 16 18  2  0
 15 19  2  0
 19 20  1  0
 20 21  2  0
 21 22  1  0
 22 23  2  0
 23 24  1  0
 24 25  1  0
 24 26  1  0
 24 27  1  0
 23 28  1  0
 28 29  2  0
 29 14  1  0
 29 20  1  0
  1 30  1  0
  1 31  1  0
  1 32  1  0
  3 33  1  0
  3 34  1  0
  3 35  1  0
  4 36  1  0
  4 37  1  0
  5 38  1  0
  5 39  1  0
  6 40  1  0
  6 41  1  0
  7 42  1  0
  8 43  1  0
  8 44  1  0
  9 45  1  0
  9 46  1  0
 10 47  1  0
 10 48  1  0
 17 49  1  0
 19 50  1  0
 21 51  1  0
 22 52  1  0
 28 53  1  0
M  CHG  2   2   1  17  -1
M  END
>  <UniqueID>  (35) 
34

>  <SMILES>  (35) 
C[N+](C)(CCCO)CCCOC(=O)n1c(C([NH-])=O)cc2ccc(C(F)(F)F)cc21

>  <Energy>  (35) 
105.70903575360784

>  <Genealogy>  (35) 
C[N+](C)(CCCO)CCCOC(=O)n1c(C([NH-])=O)cc2ccc(C(F)(F)F)cc21 (protonated)
C[N+](C)(CCCO)CCCOC(=O)n1c(C([NH-])=O)cc2ccc(C(F)(F)F)cc21 (3D coordinates assigned)
C[N+](C)(CCCO)CCCOC(=O)n1c(C([NH-])=O)cc2ccc(C(F)(F)F)cc21 (optimized conformer: 105.70903575360784 kcal/mol)

>  <smiles>  (35) 
C[N+](C)(CCCO)CCCOC(=O)n1c(C(N)=O)cc2ccc(C(F)(F)F)cc21

>  <score_type>  (35) 
oracle

>  <origin>  (35) 
adg

>  <m_score__min__energy>  (35) 
-9.4700000000000006

>  <m_primary>  (35) 
energy

$$$$
35:0
     RDKit          3D

 40 42  0  0  0  0  0  0  0  0999 V2000
   -6.8190   18.5630  -33.4060 C   0  0  0  0  0  0  0  0  0  0  0  0
   -6.9590   19.8700  -32.6830 C   0  0  0  0  0  0  0  0  0  0  0  0
   -8.2390   20.3260  -32.2830 C   0  0  0  0  0  0  0  0  0  0  0  0
   -8.3840   21.5600  -31.6250 C   0  0  0  0  0  0  0  0  0  0  0  0
   -7.2380   22.3190  -31.4020 C   0  0  0  0  0  0  0  0  0  0  0  0
   -7.0880   23.5330  -30.7700 C   0  0  0  0  0  0  0  0  0  0  0  0
   -5.7240   23.8160  -30.8320 C   0  0  0  0  0  0  0  0  0  0  0  0
   -5.1300   25.0760  -30.3380 C   0  0  0  0  0  0  0  0  0  0  0  0
   -3.8850   25.5480  -30.8420 N   0  0  0  0  0  0  0  0  0  0  0  0
   -5.7550   25.7690  -29.4920 O   0  0  0  0  0  0  0  0  0  0  0  0
   -5.0580   22.8120  -31.4720 N   0  0  0  0  0  0  0  0  0  0  0  0
   -3.6440   22.6770  -31.6750 C   0  0  0  0  0  0  0  0  0  0  0  0
   -3.2080   22.0480  -32.6780 O   0  0  0  0  0  0  0  0  0  0  0  0
   -2.7560   23.2720  -30.7720 O   0  0  0  0  0  0  0  0  0  0  0  0
   -2.2000   22.5840  -29.6510 C   0  0  2  0  0  0  0  0  0  0  0  0
   -3.2180   21.6150  -29.0770 C   0  0  0  0  0  0  0  0  0  0  0  0
   -3.1950   21.8640  -27.5800 C   0  0  0  0  0  0  0  0  0  0  0  0
   -2.7460   23.2450  -27.3690 N   0  0  0  0  0  0  0  0  0  0  0  0
   -3.8970   24.1640  -27.3160 C   0  0  0  0  0  0  0  0  0  0  0  0
   -1.8750   23.5570  -28.5130 C   0  0  0  0  0  0  0  0  0  0  0  0
   -5.9980   21.9060  -31.8150 C   0  0  0  0  0  0  0  0  0  0  0  0
   -5.8220   20.6730  -32.4540 C   0  0  0  0  0  0  0  0  0  0  0  0
   -6.7315   17.7466  -32.6740 H   0  0  0  0  0  0  0  0  0  0  0  0
   -7.7044   18.3964  -34.0371 H   0  0  0  0  0  0  0  0  0  0  0  0
   -5.9184   18.5877  -34.0371 H   0  0  0  0  0  0  0  0  0  0  0  0
   -9.1266   19.7098  -32.4888 H   0  0  0  0  0  0  0  0  0  0  0  0
   -9.3720   21.9149  -31.2965 H   0  0  0  0  0  0  0  0  0  0  0  0
   -7.8767   24.1489  -30.3132 H   0  0  0  0  0  0  0  0  0  0  0  0
   -2.9850   25.2900  -30.3790 H   0  0  0  0  0  0  0  0  0  0  0  0
   -1.2945   22.0728  -30.0097 H   0  0  0  0  0  0  0  0  0  0  0  0
   -4.2184   21.8169  -29.4874 H   0  0  0  0  0  0  0  0  0  0  0  0
   -2.9809   20.5702  -29.3262 H   0  0  0  0  0  0  0  0  0  0  0  0
   -4.2032   21.7288  -27.1613 H   0  0  0  0  0  0  0  0  0  0  0  0
   -2.5178   21.1559  -27.0800 H   0  0  0  0  0  0  0  0  0  0  0  0
   -4.1542   24.3694  -26.2664 H   0  0  0  0  0  0  0  0  0  0  0  0
   -3.6375   25.1061  -27.8210 H   0  0  0  0  0  0  0  0  0  0  0  0
   -4.7583   23.7024  -27.8210 H   0  0  0  0  0  0  0  0  0  0  0  0
   -2.0548   24.5901  -28.8454 H   0  0  0  0  0  0  0  0  0  0  0  0
   -0.8192   23.4566  -28.2212 H   0  0  0  0  0  0  0  0  0  0  0  0
   -4.8226   20.3388  -32.7695 H   0  0  0  0  0  0  0  0  0  0  0  0
  1  2  1  0
  2  3  2  0
  3  4  1  0
  4  5  2  0
  5  6  1  0
  6  7  2  0
  7  8  1  0
  8  9  1  0
  8 10  2  0
  7 11  1  0
 11 12  1  0
 12 13  2  0
 12 14  1  0
 14 15  1  0
 15 16  1  0
 16 17  1  0
 17 18  1  0
 18 19  1  0
 18 20  1  0
 11 21  1  0
 21 22  2  0
 22  2  1  0
 21  5  1  0
 20 15  1  0
  1 23  1  0
  1 24  1  0
  1 25  1  0
  3 26  1  0
  4 27  1  0
  6 28  1  0
  9 29  1  0
 15 30  1  6
 16 31  1  0
 16 32  1  0
 17 33  1  0
 17 34  1  0
 19 35  1  0
 19 36  1  0
 19 37  1  0
 20 38  1  0
 20 39  1  0
 22 40  1  0
M  CHG  1   9  -1
M  END
>  <UniqueID>  (36) 
35

>  <SMILES>  (36) 
Cc1ccc2cc(C([NH-])=O)n(C(=O)O[C@@H]3CCN(C)C3)c2c1

>  <Energy>  (36) 
79.86416614930147

>  <Genealogy>  (36) 
Cc1ccc2cc(C([NH-])=O)n(C(=O)O[C@@H]3CCN(C)C3)c2c1 (protonated)
Cc1ccc2cc(C([NH-])=O)n(C(=O)O[C@@H]3CCN(C)C3)c2c1 (3D coordinates assigned)
Cc1ccc2cc(C([NH-])=O)n(C(=O)O[C@@H]3CCN(C)C3)c2c1 (nonaromatic ring conformer: 79.86416614930147 kcal/mol)

>  <smiles>  (36) 
Cc1ccc2cc(C(N)=O)n(C(=O)O[C@@H]3CCN(C)C3)c2c1

>  <score_type>  (36) 
oracle

>  <origin>  (36) 
adg

>  <m_score__min__energy>  (36) 
-10.19

>  <m_primary>  (36) 
energy

$$$$
36:0
     RDKit          3D

 55 59  0  0  0  0  0  0  0  0999 V2000
   -0.3290   29.1100  -24.9350 C   0  0  0  0  0  0  0  0  0  0  0  0
   -1.0960   27.9980  -24.4900 O   0  0  0  0  0  0  0  0  0  0  0  0
   -0.5160   26.8670  -23.9070 C   0  0  0  0  0  0  0  0  0  0  0  0
   -0.5270   26.7190  -22.6530 O   0  0  0  0  0  0  0  0  0  0  0  0
    0.1310   25.8320  -24.7900 C   0  0  2  0  0  0  0  0  0  0  0  0
    1.6710   26.0280  -24.7090 C   0  0  0  0  0  0  0  0  0  0  0  0
    2.5440   25.4520  -25.8140 C   0  0  0  0  0  0  0  0  0  0  0  0
    2.5480   24.8170  -24.4260 C   0  0  0  0  0  0  0  0  0  0  0  0
   -0.5480   25.8230  -26.1940 C   0  0  0  0  0  0  0  0  0  0  0  0
   -1.1150   24.4400  -26.2580 C   0  0  0  0  0  0  0  0  0  0  0  0
   -1.8720   23.8780  -27.4020 C   0  0  0  0  0  0  0  0  0  0  0  0
   -3.2100   23.4780  -27.2460 C   0  0  0  0  0  0  0  0  0  0  0  0
   -3.9250   22.9460  -28.3220 C   0  0  0  0  0  0  0  0  0  0  0  0
   -3.3170   22.7960  -29.5790 C   0  0  0  0  0  0  0  0  0  0  0  0
   -4.0770   22.2250  -30.7180 C   0  0  0  0  0  0  0  0  0  0  0  0
   -3.5530   21.3350  -31.4420 O   0  0  0  0  0  0  0  0  0  0  0  0
   -5.4220   22.6450  -30.9950 N   0  0  0  0  0  0  0  0  0  0  0  0
   -5.9630   23.8880  -30.8570 C   0  0  0  0  0  0  0  0  0  0  0  0
   -5.2320   25.1120  -30.4640 C   0  0  0  0  0  0  0  0  0  0  0  0
   -3.8490   25.2710  -30.7660 N   0  0  0  0  0  0  0  0  0  0  0  0
   -5.8460   26.0430  -29.8760 O   0  0  0  0  0  0  0  0  0  0  0  0
   -7.3170   23.8680  -31.1860 C   0  0  0  0  0  0  0  0  0  0  0  0
   -7.5860   22.5650  -31.5450 C   0  0  0  0  0  0  0  0  0  0  0  0
   -8.7750   21.9760  -31.9670 C   0  0  0  0  0  0  0  0  0  0  0  0
   -8.7590   20.6020  -32.2630 C   0  0  0  0  0  0  0  0  0  0  0  0
   -7.5700   19.8460  -32.1180 C   0  0  0  0  0  0  0  0  0  0  0  0
   -7.5590   18.3880  -32.4680 C   0  0  0  0  0  0  0  0  0  0  0  0
   -6.3800   20.4810  -31.7020 C   0  0  0  0  0  0  0  0  0  0  0  0
   -6.4240   21.8500  -31.4240 C   0  0  0  0  0  0  0  0  0  0  0  0
   -1.9820   23.2040  -29.7400 C   0  0  0  0  0  0  0  0  0  0  0  0
   -1.2670   23.7370  -28.6640 C   0  0  0  0  0  0  0  0  0  0  0  0
   -0.8800   23.7690  -25.1840 N   0  0  0  0  0  0  0  0  0  0  0  0
   -0.1660   24.5320  -24.3000 O   0  0  0  0  0  0  0  0  0  0  0  0
    0.0530   29.6638  -24.0647 H   0  0  0  0  0  0  0  0  0  0  0  0
    0.5160   28.7532  -25.5422 H   0  0  0  0  0  0  0  0  0  0  0  0
   -0.9627   29.7731  -25.5422 H   0  0  0  0  0  0  0  0  0  0  0  0
    1.5490   27.0229  -24.2558 H   0  0  0  0  0  0  0  0  0  0  0  0
    2.0823   24.9221  -26.6602 H   0  0  0  0  0  0  0  0  0  0  0  0
    3.3144   25.8556  -26.4875 H   0  0  0  0  0  0  0  0  0  0  0  0
    2.0891   23.8293  -24.2714 H   0  0  0  0  0  0  0  0  0  0  0  0
    3.3223   24.5730  -23.6838 H   0  0  0  0  0  0  0  0  0  0  0  0
   -1.3405   26.5830  -26.2593 H   0  0  0  0  0  0  0  0  0  0  0  0
    0.1393   26.0586  -27.0199 H   0  0  0  0  0  0  0  0  0  0  0  0
   -3.6995   23.5848  -26.2667 H   0  0  0  0  0  0  0  0  0  0  0  0
   -4.9731   22.6421  -28.1834 H   0  0  0  0  0  0  0  0  0  0  0  0
   -3.5120   26.0820  -31.3310 H   0  0  0  0  0  0  0  0  0  0  0  0
   -8.0213   24.7127  -31.1638 H   0  0  0  0  0  0  0  0  0  0  0  0
   -9.6974   22.5671  -32.0656 H   0  0  0  0  0  0  0  0  0  0  0  0
   -9.6788   20.1090  -32.6106 H   0  0  0  0  0  0  0  0  0  0  0  0
   -7.5545   17.7894  -31.5451 H   0  0  0  0  0  0  0  0  0  0  0  0
   -8.4553   18.1457  -33.0578 H   0  0  0  0  0  0  0  0  0  0  0  0
   -6.6591   18.1593  -33.0578 H   0  0  0  0  0  0  0  0  0  0  0  0
   -5.4432   19.9137  -31.5994 H   0  0  0  0  0  0  0  0  0  0  0  0
   -1.4955   23.1030  -30.7214 H   0  0  0  0  0  0  0  0  0  0  0  0
   -0.2217   24.0491  -28.8053 H   0  0  0  0  0  0  0  0  0  0  0  0
  1  2  1  0
  2  3  1  0
  3  4  2  0
  3  5  1  0
  5  6  1  6
  6  7  1  0
  7  8  1  0
  5  9  1  0
  9 10  1  0
 10 11  1  0
 11 12  2  0
 12 13  1  0
 13 14  2  0
 14 15  1  0
 15 16  2  0
 15 17  1  0
 17 18  1  0
 18 19  1  0
 19 20  1  0
 19 21  2  0
 18 22  2  0
 22 23  1  0
 23 24  2  0
 24 25  1  0
 25 26  2  0
 26 27  1  0
 26 28  1  0
 28 29  2  0
 14 30  1  0
 30 31  2  0
 10 32  2  0
 32 33  1  0
 33  5  1  0
  8  6  1  0
 31 11  1  0
 29 17  1  0
 29 23  1  0
  1 34  1  0
  1 35  1  0
  1 36  1  0
  6 37  1  0
  7 38  1  0
  7 39  1  0
  8 40  1  0
  8 41  1  0
  9 42  1  0
  9 43  1  0
 12 44  1  0
 13 45  1  0
 20 46  1  0
 22 47  1  0
 24 48  1  0
 25 49  1  0
 27 50  1  0
 27 51  1  0
 27 52  1  0
 28 53  1  0
 30 54  1  0
 31 55  1  0
M  CHG  1  20  -1
M  END
>  <UniqueID>  (37) 
36

>  <SMILES>  (37) 
COC(=O)[C@]1(C2CC2)CC(c2ccc(C(=O)n3c(C([NH-])=O)cc4ccc(C)cc43)cc2)=NO1

>  <Energy>  (37) 
381.58509460197416

>  <Genealogy>  (37) 
COC(=O)C1(C2CC2)CC(c2ccc(C(=O)n3c(C([NH-])=O)cc4ccc(C)cc43)cc2)=NO1 (protonated)
COC(=O)[C@]1(C2CC2)CC(c2ccc(C(=O)n3c(C([NH-])=O)cc4ccc(C)cc43)cc2)=NO1 (chirality)
COC(=O)[C@]1(C2CC2)CC(c2ccc(C(=O)n3c(C([NH-])=O)cc4ccc(C)cc43)cc2)=NO1 (3D coordinates assigned)
COC(=O)[C@]1(C2CC2)CC(c2ccc(C(=O)n3c(C([NH-])=O)cc4ccc(C)cc43)cc2)=NO1 (nonaromatic ring conformer: 381.58509460197416 kcal/mol)

>  <smiles>  (37) 
COC(=O)C1(C2CC2)CC(c2ccc(C(=O)n3c(C(N)=O)cc4ccc(C)cc43)cc2)=NO1

>  <score_type>  (37) 
oracle

>  <origin>  (37) 
adg

>  <m_score__min__energy>  (37) 
-12.42

>  <m_primary>  (37) 
energy

$$$$
37:0
     RDKit          3D

 45 46  0  0  0  0  0  0  0  0999 V2000
   -2.9900   23.5850  -27.7290 C   0  0  0  0  0  0  0  0  0  0  0  0
   -1.7880   23.2720  -28.6350 C   0  0  2  0  0  0  0  0  0  0  0  0
   -0.9660   24.4940  -28.9610 C   0  0  0  0  0  0  0  0  0  0  0  0
    0.2920   24.4840  -28.8510 O   0  0  0  0  0  0  0  0  0  0  0  0
   -1.6050   25.6700  -29.3320 O   0  0  0  0  0  0  0  0  0  0  0  0
   -2.1980   22.5410  -29.8550 N   0  0  0  0  0  0  0  0  0  0  0  0
   -1.2960   22.3360  -31.0210 C   0  0  0  0  0  0  0  0  0  0  0  0
   -1.5700   21.0290  -31.7730 C   0  0  0  0  0  0  0  0  0  0  0  0
   -1.5480   21.2310  -33.2910 C   0  0  0  0  0  0  0  0  0  0  0  0
   -0.1510   21.2450  -33.8200 C   0  0  0  0  0  0  0  0  0  0  0  0
    0.2070   22.1210  -34.6580 O   0  0  0  0  0  0  0  0  0  0  0  0
    0.7660   20.2970  -33.3750 O   0  0  0  0  0  0  0  0  0  0  0  0
   -3.3930   21.7370  -29.8060 C   0  0  0  0  0  0  0  0  0  0  0  0
   -3.4540   20.7550  -29.0180 O   0  0  0  0  0  0  0  0  0  0  0  0
   -4.4860   21.9970  -30.7060 N   0  0  0  0  0  0  0  0  0  0  0  0
   -5.0790   23.1960  -30.9610 C   0  0  0  0  0  0  0  0  0  0  0  0
   -4.7780   24.4590  -30.2620 C   0  0  0  0  0  0  0  0  0  0  0  0
   -3.8910   25.4030  -30.8530 N   0  0  0  0  0  0  0  0  0  0  0  0
   -5.2820   24.6980  -29.1300 O   0  0  0  0  0  0  0  0  0  0  0  0
   -6.0760   23.0520  -31.9210 C   0  0  0  0  0  0  0  0  0  0  0  0
   -6.0950   21.7070  -32.2300 C   0  0  0  0  0  0  0  0  0  0  0  0
   -6.9120   20.9960  -33.0960 C   0  0  0  0  0  0  0  0  0  0  0  0
   -6.7260   19.6060  -33.1860 C   0  0  0  0  0  0  0  0  0  0  0  0
   -5.7420   18.9490  -32.3960 C   0  0  0  0  0  0  0  0  0  0  0  0
   -5.5360   17.4620  -32.5220 C   0  0  0  0  0  0  0  0  0  0  0  0
   -5.9520   16.8430  -31.3600 F   0  0  0  0  0  0  0  0  0  0  0  0
   -6.2660   16.9620  -33.5860 F   0  0  0  0  0  0  0  0  0  0  0  0
   -4.1990   17.1690  -32.7420 F   0  0  0  0  0  0  0  0  0  0  0  0
   -4.9140   19.7100  -31.5400 C   0  0  0  0  0  0  0  0  0  0  0  0
   -5.1290   21.0930  -31.4710 C   0  0  0  0  0  0  0  0  0  0  0  0
   -2.6852   23.5056  -26.6750 H   0  0  0  0  0  0  0  0  0  0  0  0
   -3.3461   24.6058  -27.9319 H   0  0  0  0  0  0  0  0  0  0  0  0
   -3.7987   22.8675  -27.9319 H   0  0  0  0  0  0  0  0  0  0  0  0
   -1.1299   22.6062  -28.0574 H   0  0  0  0  0  0  0  0  0  0  0  0
   -1.4301   23.1757  -31.7188 H   0  0  0  0  0  0  0  0  0  0  0  0
   -0.2679   22.2812  -30.6337 H   0  0  0  0  0  0  0  0  0  0  0  0
   -0.7992   20.2931  -31.5005 H   0  0  0  0  0  0  0  0  0  0  0  0
   -2.5722   20.6751  -31.4896 H   0  0  0  0  0  0  0  0  0  0  0  0
   -2.1033   20.4106  -33.7691 H   0  0  0  0  0  0  0  0  0  0  0  0
   -2.0131   22.2018  -33.5173 H   0  0  0  0  0  0  0  0  0  0  0  0
   -2.8590   25.3040  -30.7130 H   0  0  0  0  0  0  0  0  0  0  0  0
   -6.7136   23.8423  -32.3438 H   0  0  0  0  0  0  0  0  0  0  0  0
   -7.6823   21.5046  -33.6943 H   0  0  0  0  0  0  0  0  0  0  0  0
   -7.3492   19.0184  -33.8761 H   0  0  0  0  0  0  0  0  0  0  0  0
   -4.1231   19.2302  -30.9447 H   0  0  0  0  0  0  0  0  0  0  0  0
  1  2  1  0
  2  3  1  0
  3  4  2  0
  3  5  1  0
  2  6  1  0
  6  7  1  0
  7  8  1  0
  8  9  1  0
  9 10  1  0
 10 11  2  0
 10 12  1  0
  6 13  1  0
 13 14  2  0
 13 15  1  0
 15 16  1  0
 16 17  1  0
 17 18  1  0
 17 19  2  0
 16 20  2  0
 20 21  1  0
 21 22  2  0
 22 23  1  0
 23 24  2  0
 24 25  1  0
 25 26  1  0
 25 27  1  0
 25 28  1  0
 24 29  1  0
 29 30  2  0
 30 15  1  0
 30 21  1  0
  1 31  1  0
  1 32  1  0
  1 33  1  0
  2 34  1  1
  7 35  1  0
  7 36  1  0
  8 37  1  0
  8 38  1  0
  9 39  1  0
  9 40  1  0
 18 41  1  0
 20 42  1  0
 22 43  1  0
 23 44  1  0
 29 45  1  0
M  CHG  3   5  -1  12  -1  18  -1
M  END
>  <UniqueID>  (38) 
37

>  <SMILES>  (38) 
C[C@H](C(=O)[O-])N(CCCC(=O)[O-])C(=O)n1c(C([NH-])=O)cc2ccc(C(F)(F)F)cc21

>  <Energy>  (38) 
87.99778528945932

>  <Genealogy>  (38) 
CC(C(=O)[O-])N(CCCC(=O)[O-])C(=O)n1c(C([NH-])=O)cc2ccc(C(F)(F)F)cc21 (protonated)
C[C@H](C(=O)[O-])N(CCCC(=O)[O-])C(=O)n1c(C([NH-])=O)cc2ccc(C(F)(F)F)cc21 (chirality)
C[C@H](C(=O)[O-])N(CCCC(=O)[O-])C(=O)n1c(C([NH-])=O)cc2ccc(C(F)(F)F)cc21 (3D coordinates assigned)
C[C@H](C(=O)[O-])N(CCCC(=O)[O-])C(=O)n1c(C([NH-])=O)cc2ccc(C(F)(F)F)cc21 (optimized conformer: 87.99778528945932 kcal/mol)

>  <smiles>  (38) 
CC(C(=O)O)N(CCCC(=O)O)C(=O)n1c(C(N)=O)cc2ccc(C(F)(F)F)cc21

>  <score_type>  (38) 
oracle

>  <origin>  (38) 
adg

>  <m_score__min__energy>  (38) 
-13.06

>  <m_primary>  (38) 
energy

$$$$
38:0
     RDKit          3D

 40 41  0  0  0  0  0  0  0  0999 V2000
   -3.3260   24.8580  -26.7690 C   0  0  0  0  0  0  0  0  0  0  0  0
   -2.3750   24.8240  -27.8100 O   0  0  0  0  0  0  0  0  0  0  0  0
   -1.5020   23.7320  -27.6100 C   0  0  0  0  0  0  0  0  0  0  0  0
   -0.5950   23.5780  -28.8270 C   0  0  0  0  0  0  0  0  0  0  0  0
   -1.3710   23.6100  -30.0130 O   0  0  0  0  0  0  0  0  0  0  0  0
   -1.6380   22.3030  -30.4810 C   0  0  0  0  0  0  0  0  0  0  0  0
   -3.0310   22.0080  -30.3830 O   0  0  0  0  0  0  0  0  0  0  0  0
   -3.9190   22.1610  -31.4520 C   0  0  0  0  0  0  0  0  0  0  0  0
   -3.5270   21.9730  -32.6370 O   0  0  0  0  0  0  0  0  0  0  0  0
   -5.2810   22.5410  -31.2010 N   0  0  0  0  0  0  0  0  0  0  0  0
   -5.7510   23.7810  -30.8830 C   0  0  0  0  0  0  0  0  0  0  0  0
   -4.9250   24.9630  -30.5700 C   0  0  0  0  0  0  0  0  0  0  0  0
   -3.6550   24.8300  -29.9270 N   0  0  0  0  0  0  0  0  0  0  0  0
   -5.3690   26.1130  -30.8240 O   0  0  0  0  0  0  0  0  0  0  0  0
   -7.1420   23.7810  -30.8330 C   0  0  0  0  0  0  0  0  0  0  0  0
   -7.5160   22.4890  -31.1190 C   0  0  0  0  0  0  0  0  0  0  0  0
   -8.7850   21.9240  -31.2050 C   0  0  0  0  0  0  0  0  0  0  0  0
   -8.8790   20.5650  -31.5470 C   0  0  0  0  0  0  0  0  0  0  0  0
   -7.7150   19.8030  -31.8220 C   0  0  0  0  0  0  0  0  0  0  0  0
   -7.8280   18.3360  -32.1520 C   0  0  0  0  0  0  0  0  0  0  0  0
   -7.0040   17.5850  -31.3330 F   0  0  0  0  0  0  0  0  0  0  0  0
   -9.1370   17.9280  -31.9700 F   0  0  0  0  0  0  0  0  0  0  0  0
   -7.4620   18.1000  -33.4660 F   0  0  0  0  0  0  0  0  0  0  0  0
   -6.4420   20.4080  -31.7020 C   0  0  0  0  0  0  0  0  0  0  0  0
   -6.3760   21.7600  -31.3400 C   0  0  0  0  0  0  0  0  0  0  0  0
   -2.8083   24.8395  -25.7986 H   0  0  0  0  0  0  0  0  0  0  0  0
   -3.9236   25.7781  -26.8482 H   0  0  0  0  0  0  0  0  0  0  0  0
   -3.9878   23.9829  -26.8482 H   0  0  0  0  0  0  0  0  0  0  0  0
   -0.8880   23.9123  -26.7153 H   0  0  0  0  0  0  0  0  0  0  0  0
   -2.0898   22.8126  -27.4715 H   0  0  0  0  0  0  0  0  0  0  0  0
    0.1339   24.4016  -28.8455 H   0  0  0  0  0  0  0  0  0  0  0  0
   -0.0661   22.6154  -28.7656 H   0  0  0  0  0  0  0  0  0  0  0  0
   -1.3253   22.2249  -31.5327 H   0  0  0  0  0  0  0  0  0  0  0  0
   -1.0795   21.5846  -29.8630 H   0  0  0  0  0  0  0  0  0  0  0  0
   -3.3360   23.9120  -29.5470 H   0  0  0  0  0  0  0  0  0  0  0  0
   -3.0670   25.6750  -29.7510 H   0  0  0  0  0  0  0  0  0  0  0  0
   -7.8016   24.6330  -30.6118 H   0  0  0  0  0  0  0  0  0  0  0  0
   -9.6867   22.5234  -31.0111 H   0  0  0  0  0  0  0  0  0  0  0  0
   -9.8676   20.0858  -31.6022 H   0  0  0  0  0  0  0  0  0  0  0  0
   -5.5248   19.8302  -31.8886 H   0  0  0  0  0  0  0  0  0  0  0  0
  1  2  1  0
  2  3  1  0
  3  4  1  0
  4  5  1  0
  5  6  1  0
  6  7  1  0
  7  8  1  0
  8  9  2  0
  8 10  1  0
 10 11  1  0
 11 12  1  0
 12 13  1  0
 12 14  2  0
 11 15  2  0
 15 16  1  0
 16 17  2  0
 17 18  1  0
 18 19  2  0
 19 20  1  0
 20 21  1  0
 20 22  1  0
 20 23  1  0
 19 24  1  0
 24 25  2  0
 25 10  1  0
 25 16  1  0
  1 26  1  0
  1 27  1  0
  1 28  1  0
  3 29  1  0
  3 30  1  0
  4 31  1  0
  4 32  1  0
  6 33  1  0
  6 34  1  0
 13 35  1  0
 13 36  1  0
 15 37  1  0
 17 38  1  0
 18 39  1  0
 24 40  1  0
M  END
>  <UniqueID>  (39) 
38

>  <SMILES>  (39) 
COCCOCOC(=O)n1c(C(N)=O)cc2ccc(C(F)(F)F)cc21

>  <Energy>  (39) 
79.83155882113356

>  <Genealogy>  (39) 
COCCOCOC(=O)n1c(C(N)=O)cc2ccc(C(F)(F)F)cc21 (3D coordinates assigned)
COCCOCOC(=O)n1c(C(N)=O)cc2ccc(C(F)(F)F)cc21 (optimized conformer: 79.83155882113356 kcal/mol)

>  <smiles>  (39) 
COCCOCOC(=O)n1c(C(N)=O)cc2ccc(C(F)(F)F)cc21

>  <score_type>  (39) 
oracle

>  <origin>  (39) 
adg

>  <m_score__min__energy>  (39) 
-7.6399999999999997

>  <m_primary>  (39) 
energy

$$$$
39:0
     RDKit          3D

 38 39  0  0  0  0  0  0  0  0999 V2000
   -3.9450   25.6670  -30.8530 N   0  0  0  0  0  0  0  0  0  0  0  0
   -5.2470   25.2790  -30.4220 C   0  0  0  0  0  0  0  0  0  0  0  0
   -5.8910   26.0350  -29.6470 O   0  0  0  0  0  0  0  0  0  0  0  0
   -5.8400   23.9950  -30.8540 C   0  0  0  0  0  0  0  0  0  0  0  0
   -7.1820   23.8320  -31.1930 C   0  0  0  0  0  0  0  0  0  0  0  0
   -7.3200   22.4980  -31.5090 C   0  0  0  0  0  0  0  0  0  0  0  0
   -8.4380   21.7840  -31.9270 C   0  0  0  0  0  0  0  0  0  0  0  0
   -8.2780   20.4160  -32.2110 C   0  0  0  0  0  0  0  0  0  0  0  0
   -7.0050   19.7960  -32.0990 C   0  0  0  0  0  0  0  0  0  0  0  0
   -6.8390   18.3260  -32.3890 C   0  0  0  0  0  0  0  0  0  0  0  0
   -6.6360   17.6480  -31.2020 F   0  0  0  0  0  0  0  0  0  0  0  0
   -5.7520   18.1200  -33.2200 F   0  0  0  0  0  0  0  0  0  0  0  0
   -7.9650   17.8160  -33.0130 F   0  0  0  0  0  0  0  0  0  0  0  0
   -5.9010   20.5510  -31.6430 C   0  0  0  0  0  0  0  0  0  0  0  0
   -6.0950   21.9060  -31.3590 C   0  0  0  0  0  0  0  0  0  0  0  0
   -5.1810   22.8070  -30.9530 N   0  0  0  0  0  0  0  0  0  0  0  0
   -3.7790   22.5620  -30.7900 C   0  0  0  0  0  0  0  0  0  0  0  0
   -2.9410   23.3500  -31.3030 O   0  0  0  0  0  0  0  0  0  0  0  0
   -3.3190   21.4440  -29.9120 C   0  0  0  0  0  0  0  0  0  0  0  0
   -1.9430   21.2200  -30.1580 O   0  0  0  0  0  0  0  0  0  0  0  0
   -1.2400   20.9590  -28.9570 C   0  0  0  0  0  0  0  0  0  0  0  0
   -0.5620   22.2340  -28.4380 C   0  0  0  0  0  0  0  0  0  0  0  0
   -1.1890   23.4330  -28.9940 N   0  0  0  0  0  0  0  0  0  0  0  0
   -0.6750   24.7400  -28.7220 C   0  0  0  0  0  0  0  0  0  0  0  0
    0.2830   24.9000  -27.9210 O   0  0  0  0  0  0  0  0  0  0  0  0
   -1.2410   25.8470  -29.3430 O   0  0  0  0  0  0  0  0  0  0  0  0
   -3.0900   25.3020  -30.3790 H   0  0  0  0  0  0  0  0  0  0  0  0
   -7.9650   24.6045  -31.2056 H   0  0  0  0  0  0  0  0  0  0  0  0
   -9.4171   22.2742  -32.0322 H   0  0  0  0  0  0  0  0  0  0  0  0
   -9.1480   19.8197  -32.5232 H   0  0  0  0  0  0  0  0  0  0  0  0
   -4.9133   20.0841  -31.5147 H   0  0  0  0  0  0  0  0  0  0  0  0
   -3.4684   21.7150  -28.8564 H   0  0  0  0  0  0  0  0  0  0  0  0
   -3.8950   20.5321  -30.1281 H   0  0  0  0  0  0  0  0  0  0  0  0
   -1.9459   20.5907  -28.1980 H   0  0  0  0  0  0  0  0  0  0  0  0
   -0.4663   20.2031  -29.1569 H   0  0  0  0  0  0  0  0  0  0  0  0
   -0.6438   22.2625  -27.3414 H   0  0  0  0  0  0  0  0  0  0  0  0
    0.4930   22.2177  -28.7491 H   0  0  0  0  0  0  0  0  0  0  0  0
   -2.0180   23.3510  -29.6260 H   0  0  0  0  0  0  0  0  0  0  0  0
  1  2  1  0
  2  3  2  0
  2  4  1  0
  4  5  2  0
  5  6  1  0
  6  7  2  0
  7  8  1  0
  8  9  2  0
  9 10  1  0
 10 11  1  0
 10 12  1  0
 10 13  1  0
  9 14  1  0
 14 15  2  0
 15 16  1  0
 16 17  1  0
 17 18  2  0
 17 19  1  0
 19 20  1  0
 20 21  1  0
 21 22  1  0
 22 23  1  0
 23 24  1  0
 24 25  2  0
 24 26  1  0
 16  4  1  0
 15  6  1  0
  1 27  1  0
  5 28  1  0
  7 29  1  0
  8 30  1  0
 14 31  1  0
 19 32  1  0
 19 33  1  0
 21 34  1  0
 21 35  1  0
 22 36  1  0
 22 37  1  0
 23 38  1  0
M  CHG  2   1  -1  26  -1
M  END
>  <UniqueID>  (40) 
39

>  <SMILES>  (40) 
[NH-]C(=O)c1cc2ccc(C(F)(F)F)cc2n1C(=O)COCCNC(=O)[O-]

>  <Energy>  (40) 
73.2152498039374

>  <Genealogy>  (40) 
[NH-]C(=O)c1cc2ccc(C(F)(F)F)cc2n1C(=O)COCCNC(=O)[O-] (protonated)
[NH-]C(=O)c1cc2ccc(C(F)(F)F)cc2n1C(=O)COCCNC(=O)[O-] (3D coordinates assigned)
[NH-]C(=O)c1cc2ccc(C(F)(F)F)cc2n1C(=O)COCCNC(=O)[O-] (optimized conformer: 73.2152498039374 kcal/mol)

>  <smiles>  (40) 
NC(=O)c1cc2ccc(C(F)(F)F)cc2n1C(=O)COCCNC(=O)O

>  <score_type>  (40) 
oracle

>  <origin>  (40) 
adg

>  <m_score__min__energy>  (40) 
-11.83

>  <m_primary>  (40) 
energy

$$$$
40:0
     RDKit          3D

 47 49  0  0  0  0  0  0  0  0999 V2000
   -3.0720   21.2190  -28.7420 C   0  0  0  0  0  0  0  0  0  0  0  0
   -2.8140   22.7380  -28.7280 C   0  0  0  0  0  0  0  0  0  0  0  0
   -3.9140   23.4210  -27.8990 C   0  0  0  0  0  0  0  0  0  0  0  0
   -1.4470   23.0520  -28.0920 C   0  0  0  0  0  0  0  0  0  0  0  0
   -2.8930   23.2750  -30.0560 O   0  0  0  0  0  0  0  0  0  0  0  0
   -3.4650   22.6500  -31.1750 C   0  0  0  0  0  0  0  0  0  0  0  0
   -2.7410   22.1200  -32.0600 O   0  0  0  0  0  0  0  0  0  0  0  0
   -4.8960   22.6130  -31.3060 N   0  0  0  0  0  0  0  0  0  0  0  0
   -5.7790   23.5870  -30.9460 C   0  0  0  0  0  0  0  0  0  0  0  0
   -5.4280   24.9540  -30.5110 C   0  0  0  0  0  0  0  0  0  0  0  0
   -4.1170   25.4810  -30.7160 N   0  0  0  0  0  0  0  0  0  0  0  0
   -6.3150   25.6870  -29.9990 O   0  0  0  0  0  0  0  0  0  0  0  0
   -7.0890   23.1420  -31.0900 C   0  0  0  0  0  0  0  0  0  0  0  0
   -6.9840   21.8540  -31.5640 C   0  0  0  0  0  0  0  0  0  0  0  0
   -7.9800   20.9390  -31.8900 C   0  0  0  0  0  0  0  0  0  0  0  0
   -7.5850   19.6670  -32.3330 C   0  0  0  0  0  0  0  0  0  0  0  0
   -6.2110   19.3120  -32.4010 C   0  0  0  0  0  0  0  0  0  0  0  0
   -5.7960   17.9520  -32.9400 C   0  0  0  0  0  0  0  0  0  0  0  0
   -6.2110   16.8000  -31.9980 C   0  0  0  0  0  0  0  0  0  0  0  0
   -6.1140   17.1750  -30.6510 O   0  0  0  0  0  0  0  0  0  0  0  0
   -4.3600   17.8700  -33.4460 C   0  0  0  0  0  0  0  0  0  0  0  0
   -4.7640   17.6170  -34.7710 O   0  0  0  0  0  0  0  0  0  0  0  0
   -6.1220   17.7150  -34.4110 C   0  0  0  0  0  0  0  0  0  0  0  0
   -5.2300   20.2880  -32.1000 C   0  0  0  0  0  0  0  0  0  0  0  0
   -5.6520   21.5560  -31.6820 C   0  0  0  0  0  0  0  0  0  0  0  0
   -3.1350   20.8482  -27.7083 H   0  0  0  0  0  0  0  0  0  0  0  0
   -4.0181   21.0126  -29.2639 H   0  0  0  0  0  0  0  0  0  0  0  0
   -2.2471   20.7118  -29.2639 H   0  0  0  0  0  0  0  0  0  0  0  0
   -3.7013   23.2889  -26.8279 H   0  0  0  0  0  0  0  0  0  0  0  0
   -3.9401   24.4944  -28.1380 H   0  0  0  0  0  0  0  0  0  0  0  0
   -4.8876   22.9684  -28.1380 H   0  0  0  0  0  0  0  0  0  0  0  0
   -1.5390   23.0309  -26.9961 H   0  0  0  0  0  0  0  0  0  0  0  0
   -0.7118   22.2994  -28.4128 H   0  0  0  0  0  0  0  0  0  0  0  0
   -1.1139   24.0500  -28.4128 H   0  0  0  0  0  0  0  0  0  0  0  0
   -3.4130   24.9650  -31.2880 H   0  0  0  0  0  0  0  0  0  0  0  0
   -3.8710   26.4290  -30.3560 H   0  0  0  0  0  0  0  0  0  0  0  0
   -8.0115   23.7000  -30.8718 H   0  0  0  0  0  0  0  0  0  0  0  0
   -9.0440   21.2041  -31.8033 H   0  0  0  0  0  0  0  0  0  0  0  0
   -8.3498   18.9349  -32.6316 H   0  0  0  0  0  0  0  0  0  0  0  0
   -7.2516   16.5178  -32.2160 H   0  0  0  0  0  0  0  0  0  0  0  0
   -5.5303   15.9531  -32.1694 H   0  0  0  0  0  0  0  0  0  0  0  0
   -6.0460   16.3300  -30.1340 H   0  0  0  0  0  0  0  0  0  0  0  0
   -3.8015   18.8107  -33.3312 H   0  0  0  0  0  0  0  0  0  0  0  0
   -3.6661   17.1681  -32.9603 H   0  0  0  0  0  0  0  0  0  0  0  0
   -6.6405   18.5609  -34.8859 H   0  0  0  0  0  0  0  0  0  0  0  0
   -6.8020   16.8925  -34.6776 H   0  0  0  0  0  0  0  0  0  0  0  0
   -4.1590   20.0549  -32.1926 H   0  0  0  0  0  0  0  0  0  0  0  0
  1  2  1  0
  2  3  1  0
  2  4  1  0
  2  5  1  0
  5  6  1  0
  6  7  2  0
  6  8  1  0
  8  9  1  0
  9 10  1  0
 10 11  1  0
 10 12  2  0
  9 13  2  0
 13 14  1  0
 14 15  2  0
 15 16  1  0
 16 17  2  0
 17 18  1  0
 18 19  1  0
 19 20  1  0
 18 21  1  0
 21 22  1  0
 22 23  1  0
 17 24  1  0
 24 25  2  0
 25  8  1  0
 25 14  1  0
 23 18  1  0
  1 26  1  0
  1 27  1  0
  1 28  1  0
  3 29  1  0
  3 30  1  0
  3 31  1  0
  4 32  1  0
  4 33  1  0
  4 34  1  0
 11 35  1  0
 11 36  1  0
 13 37  1  0
 15 38  1  0
 16 39  1  0
 19 40  1  0
 19 41  1  0
 20 42  1  0
 21 43  1  0
 21 44  1  0
 23 45  1  0
 23 46  1  0
 24 47  1  0
M  END
>  <UniqueID>  (41) 
40

>  <SMILES>  (41) 
CC(C)(C)OC(=O)n1c(C(N)=O)cc2ccc(C3(CO)COC3)cc21

>  <Energy>  (41) 
148.2191610800701

>  <Genealogy>  (41) 
CC(C)(C)OC(=O)n1c(C(N)=O)cc2ccc(C3(CO)COC3)cc21 (3D coordinates assigned)
CC(C)(C)OC(=O)n1c(C(N)=O)cc2ccc(C3(CO)COC3)cc21 (nonaromatic ring conformer: 148.2191610800701 kcal/mol)

>  <smiles>  (41) 
CC(C)(C)OC(=O)n1c(C(N)=O)cc2ccc(C3(CO)COC3)cc21

>  <score_type>  (41) 
oracle

>  <origin>  (41) 
adg

>  <m_score__min__energy>  (41) 
-9.2200000000000006

>  <m_primary>  (41) 
energy

$$$$
41:0
     RDKit          3D

 39 40  0  0  0  0  0  0  0  0999 V2000
   -2.4390   20.3890  -30.0720 C   0  0  0  0  0  0  0  0  0  0  0  0
   -2.9010   21.6450  -30.0320 C   0  0  0  0  0  0  0  0  0  0  0  0
   -2.7400   22.4430  -28.7930 C   0  0  0  0  0  0  0  0  0  0  0  0
   -2.8900   21.8880  -27.6700 O   0  0  0  0  0  0  0  0  0  0  0  0
   -2.4170   23.8420  -28.8600 N   0  0  0  0  0  0  0  0  0  0  0  0
   -2.5210   24.7270  -27.7040 C   0  0  0  0  0  0  0  0  0  0  0  0
   -1.5720   25.9170  -27.8410 C   0  0  0  0  0  0  0  0  0  0  0  0
   -1.2170   26.0890  -29.1850 O   0  0  0  0  0  0  0  0  0  0  0  0
   -3.6000   22.2170  -31.2130 C   0  0  0  0  0  0  0  0  0  0  0  0
   -2.9470   22.4980  -32.2550 O   0  0  0  0  0  0  0  0  0  0  0  0
   -5.0220   22.4340  -31.2020 N   0  0  0  0  0  0  0  0  0  0  0  0
   -5.6870   23.5620  -30.8280 C   0  0  0  0  0  0  0  0  0  0  0  0
   -5.0800   24.7740  -30.2370 C   0  0  0  0  0  0  0  0  0  0  0  0
   -3.8500   25.2960  -30.7310 N   0  0  0  0  0  0  0  0  0  0  0  0
   -5.6400   25.3370  -29.2590 O   0  0  0  0  0  0  0  0  0  0  0  0
   -7.0600   23.3990  -31.0080 C   0  0  0  0  0  0  0  0  0  0  0  0
   -7.2150   22.1270  -31.5080 C   0  0  0  0  0  0  0  0  0  0  0  0
   -8.3690   21.4370  -31.8620 C   0  0  0  0  0  0  0  0  0  0  0  0
   -8.2310   20.1320  -32.3640 C   0  0  0  0  0  0  0  0  0  0  0  0
   -6.9460   19.5510  -32.5300 C   0  0  0  0  0  0  0  0  0  0  0  0
   -6.8100   18.1350  -33.0280 C   0  0  0  0  0  0  0  0  0  0  0  0
   -5.7950   17.4750  -32.3580 F   0  0  0  0  0  0  0  0  0  0  0  0
   -7.9860   17.4340  -32.8310 F   0  0  0  0  0  0  0  0  0  0  0  0
   -6.5180   18.1560  -34.3780 F   0  0  0  0  0  0  0  0  0  0  0  0
   -5.7980   20.2790  -32.1400 C   0  0  0  0  0  0  0  0  0  0  0  0
   -5.9690   21.5670  -31.6230 C   0  0  0  0  0  0  0  0  0  0  0  0
   -2.5541   19.7895  -30.9871 H   0  0  0  0  0  0  0  0  0  0  0  0
   -1.9444   19.9566  -29.1898 H   0  0  0  0  0  0  0  0  0  0  0  0
   -2.1370   24.2600  -29.7750 H   0  0  0  0  0  0  0  0  0  0  0  0
   -3.5539   25.0972  -27.6256 H   0  0  0  0  0  0  0  0  0  0  0  0
   -2.2464   24.1605  -26.8019 H   0  0  0  0  0  0  0  0  0  0  0  0
   -2.0718   26.8264  -27.4761 H   0  0  0  0  0  0  0  0  0  0  0  0
   -0.6653   25.7285  -27.2473 H   0  0  0  0  0  0  0  0  0  0  0  0
   -1.9960   25.7810  -29.7170 H   0  0  0  0  0  0  0  0  0  0  0  0
   -2.9880   25.2860  -30.1420 H   0  0  0  0  0  0  0  0  0  0  0  0
   -7.8517   24.1324  -30.7952 H   0  0  0  0  0  0  0  0  0  0  0  0
   -9.3611   21.8993  -31.7523 H   0  0  0  0  0  0  0  0  0  0  0  0
   -9.1280   19.5542  -32.6313 H   0  0  0  0  0  0  0  0  0  0  0  0
   -4.7936   19.8421  -32.2410 H   0  0  0  0  0  0  0  0  0  0  0  0
  1  2  2  0
  2  3  1  0
  3  4  2  0
  3  5  1  0
  5  6  1  0
  6  7  1  0
  7  8  1  0
  2  9  1  0
  9 10  2  0
  9 11  1  0
 11 12  1  0
 12 13  1  0
 13 14  1  0
 13 15  2  0
 12 16  2  0
 16 17  1  0
 17 18  2  0
 18 19  1  0
 19 20  2  0
 20 21  1  0
 21 22  1  0
 21 23  1  0
 21 24  1  0
 20 25  1  0
 25 26  2  0
 26 11  1  0
 26 17  1  0
  1 27  1  0
  1 28  1  0
  5 29  1  0
  6 30  1  0
  6 31  1  0
  7 32  1  0
  7 33  1  0
  8 34  1  0
 14 35  1  0
 16 36  1  0
 18 37  1  0
 19 38  1  0
 25 39  1  0
M  CHG  1  14  -1
M  END
>  <UniqueID>  (42) 
41

>  <SMILES>  (42) 
C=C(C(=O)NCCO)C(=O)n1c(C([NH-])=O)cc2ccc(C(F)(F)F)cc21

>  <Energy>  (42) 
76.06888411419004

>  <Genealogy>  (42) 
C=C(C(=O)NCCO)C(=O)n1c(C([NH-])=O)cc2ccc(C(F)(F)F)cc21 (protonated)
C=C(C(=O)NCCO)C(=O)n1c(C([NH-])=O)cc2ccc(C(F)(F)F)cc21 (3D coordinates assigned)
C=C(C(=O)NCCO)C(=O)n1c(C([NH-])=O)cc2ccc(C(F)(F)F)cc21 (optimized conformer: 76.06888411419004 kcal/mol)

>  <smiles>  (42) 
C=C(C(=O)NCCO)C(=O)n1c(C(N)=O)cc2ccc(C(F)(F)F)cc21

>  <score_type>  (42) 
oracle

>  <origin>  (42) 
adg

>  <m_score__min__energy>  (42) 
-10.73

>  <m_primary>  (42) 
energy

$$$$
42:0
     RDKit          3D

 58 59  0  0  0  0  0  0  0  0999 V2000
   -4.5410   16.0830  -34.1450 C   0  0  0  0  0  0  0  0  0  0  0  0
   -5.4300   17.1540  -33.5880 C   0  0  0  0  0  0  0  0  0  0  0  0
   -6.7720   16.8530  -33.2480 C   0  0  0  0  0  0  0  0  0  0  0  0
   -7.6170   17.8460  -32.7250 C   0  0  0  0  0  0  0  0  0  0  0  0
   -7.0890   19.1200  -32.5410 C   0  0  0  0  0  0  0  0  0  0  0  0
   -7.6940   20.2710  -32.0880 C   0  0  0  0  0  0  0  0  0  0  0  0
   -6.7010   21.2490  -32.1280 C   0  0  0  0  0  0  0  0  0  0  0  0
   -6.8870   22.6360  -31.6480 C   0  0  0  0  0  0  0  0  0  0  0  0
   -6.6380   23.7470  -32.5110 N   0  0  0  0  0  0  0  0  0  0  0  0
   -7.2970   22.8500  -30.4760 O   0  0  0  0  0  0  0  0  0  0  0  0
   -5.5310   20.7230  -32.5840 N   0  0  0  0  0  0  0  0  0  0  0  0
   -4.3050   21.4220  -32.8520 C   0  0  0  0  0  0  0  0  0  0  0  0
   -4.3280   22.6540  -33.1190 O   0  0  0  0  0  0  0  0  0  0  0  0
   -3.0590   20.7190  -32.7970 N   0  0  0  0  0  0  0  0  0  0  0  0
   -2.2720   20.5500  -31.5810 C   0  0  0  0  0  0  0  0  0  0  0  0
   -1.4640   21.7750  -31.2960 C   0  0  0  0  0  0  0  0  0  0  0  0
   -0.2190   21.7670  -31.4960 O   0  0  0  0  0  0  0  0  0  0  0  0
   -2.1130   22.9290  -30.8450 O   0  0  0  0  0  0  0  0  0  0  0  0
   -2.8620   23.0030  -29.6300 C   0  0  0  0  0  0  0  0  0  0  0  0
   -3.2770   24.4560  -29.3180 C   0  0  2  0  0  0  0  0  0  0  0  0
   -3.9350   24.5150  -27.9300 C   0  0  0  0  0  0  0  0  0  0  0  0
   -4.2410   24.9240  -30.3320 C   0  0  0  0  0  0  0  0  0  0  0  0
   -5.0020   25.2900  -31.1240 N   0  0  0  0  0  0  0  0  0  0  0  0
   -2.0760   25.2970  -29.3400 N   0  0  0  0  0  0  0  0  0  0  0  0
   -0.8850   25.0760  -28.5790 C   0  0  0  0  0  0  0  0  0  0  0  0
   -0.0760   24.1900  -28.9600 O   0  0  0  0  0  0  0  0  0  0  0  0
   -0.6270   25.8470  -27.4350 O   0  0  0  0  0  0  0  0  0  0  0  0
   -0.7400   25.4100  -26.0730 C   0  0  0  0  0  0  0  0  0  0  0  0
    0.4750   25.8830  -25.2520 C   0  0  0  0  0  0  0  0  0  0  0  0
   -2.0120   26.0500  -25.4980 C   0  0  0  0  0  0  0  0  0  0  0  0
   -0.8810   23.8780  -26.0040 C   0  0  0  0  0  0  0  0  0  0  0  0
   -5.7830   19.4180  -32.8310 C   0  0  0  0  0  0  0  0  0  0  0  0
   -4.9210   18.4520  -33.3610 C   0  0  0  0  0  0  0  0  0  0  0  0
   -4.0775   15.5246  -33.3184 H   0  0  0  0  0  0  0  0  0  0  0  0
   -5.1377   15.3957  -34.7627 H   0  0  0  0  0  0  0  0  0  0  0  0
   -3.7555   16.5429  -34.7627 H   0  0  0  0  0  0  0  0  0  0  0  0
   -7.1558   15.8326  -33.3948 H   0  0  0  0  0  0  0  0  0  0  0  0
   -8.6633   17.6232  -32.4690 H   0  0  0  0  0  0  0  0  0  0  0  0
   -8.7380   20.3929  -31.7637 H   0  0  0  0  0  0  0  0  0  0  0  0
   -6.2470   23.6140  -33.4690 H   0  0  0  0  0  0  0  0  0  0  0  0
   -6.8130   24.7200  -32.1750 H   0  0  0  0  0  0  0  0  0  0  0  0
   -2.9504   20.3610  -30.7360 H   0  0  0  0  0  0  0  0  0  0  0  0
   -1.5869   19.7007  -31.7201 H   0  0  0  0  0  0  0  0  0  0  0  0
   -3.7665   22.3846  -29.7278 H   0  0  0  0  0  0  0  0  0  0  0  0
   -2.2292   22.6373  -28.8079 H   0  0  0  0  0  0  0  0  0  0  0  0
   -3.1593   24.4454  -27.1532 H   0  0  0  0  0  0  0  0  0  0  0  0
   -4.4781   25.4654  -27.8218 H   0  0  0  0  0  0  0  0  0  0  0  0
   -4.6385   23.6763  -27.8218 H   0  0  0  0  0  0  0  0  0  0  0  0
    0.2492   25.7951  -24.1790 H   0  0  0  0  0  0  0  0  0  0  0  0
    1.3475   25.2588  -25.4954 H   0  0  0  0  0  0  0  0  0  0  0  0
    0.6958   26.9328  -25.4954 H   0  0  0  0  0  0  0  0  0  0  0  0
   -1.9688   26.0283  -24.3991 H   0  0  0  0  0  0  0  0  0  0  0  0
   -2.0855   27.0924  -25.8415 H   0  0  0  0  0  0  0  0  0  0  0  0
   -2.8928   25.4878  -25.8415 H   0  0  0  0  0  0  0  0  0  0  0  0
   -0.9103   23.5595  -24.9515 H   0  0  0  0  0  0  0  0  0  0  0  0
   -1.8111   23.5724  -26.5056 H   0  0  0  0  0  0  0  0  0  0  0  0
   -0.0223   23.4078  -26.5056 H   0  0  0  0  0  0  0  0  0  0  0  0
   -3.8744   18.6968  -33.5948 H   0  0  0  0  0  0  0  0  0  0  0  0
  1  2  1  0
  2  3  2  0
  3  4  1  0
  4  5  2  0
  5  6  1  0
  6  7  2  0
  7  8  1  0
  8  9  1  0
  8 10  2  0
  7 11  1  0
 11 12  1  0
 12 13  2  0
 12 14  1  0
 14 15  1  0
 15 16  1  0
 16 17  2  0
 16 18  1  0
 18 19  1  0
 19 20  1  0
 20 21  1  0
 20 22  1  6
 22 23  3  0
 20 24  1  0
 24 25  1  0
 25 26  2  0
 25 27  1  0
 27 28  1  0
 28 29  1  0
 28 30  1  0
 28 31  1  0
 11 32  1  0
 32 33  2  0
 33  2  1  0
 32  5  1  0
  1 34  1  0
  1 35  1  0
  1 36  1  0
  3 37  1  0
  4 38  1  0
  6 39  1  0
  9 40  1  0
  9 41  1  0
 15 42  1  0
 15 43  1  0
 19 44  1  0
 19 45  1  0
 21 46  1  0
 21 47  1  0
 21 48  1  0
 29 49  1  0
 29 50  1  0
 29 51  1  0
 30 52  1  0
 30 53  1  0
 30 54  1  0
 31 55  1  0
 31 56  1  0
 31 57  1  0
 33 58  1  0
M  CHG  2  14  -1  24  -1
M  END
>  <UniqueID>  (43) 
42

>  <SMILES>  (43) 
Cc1ccc2cc(C(N)=O)n(C(=O)[N-]CC(=O)OC[C@](C)(C#N)[N-]C(=O)OC(C)(C)C)c2c1

>  <Energy>  (43) 
78.76623672359828

>  <Genealogy>  (43) 
Cc1ccc2cc(C(N)=O)n(C(=O)[N-]CC(=O)OCC(C)(C#N)[N-]C(=O)OC(C)(C)C)c2c1 (protonated)
Cc1ccc2cc(C(N)=O)n(C(=O)[N-]CC(=O)OC[C@](C)(C#N)[N-]C(=O)OC(C)(C)C)c2c1 (chirality)
Cc1ccc2cc(C(N)=O)n(C(=O)[N-]CC(=O)OC[C@](C)(C#N)[N-]C(=O)OC(C)(C)C)c2c1 (3D coordinates assigned)
Cc1ccc2cc(C(N)=O)n(C(=O)[N-]CC(=O)OC[C@](C)(C#N)[N-]C(=O)OC(C)(C)C)c2c1 (optimized conformer: 78.76623672359828 kcal/mol)

>  <smiles>  (43) 
Cc1ccc2cc(C(N)=O)n(C(=O)NCC(=O)OCC(C)(C#N)NC(=O)OC(C)(C)C)c2c1

>  <score_type>  (43) 
oracle

>  <origin>  (43) 
adg

>  <m_score__min__energy>  (43) 
-12.220000000000001

>  <m_primary>  (43) 
energy

$$$$
43:0
     RDKit          3D

 36 37  0  0  0  0  0  0  0  0999 V2000
   -2.4640   20.8020  -29.8680 C   0  0  0  0  0  0  0  0  0  0  0  0
   -3.2210   22.0380  -29.6650 N   0  0  0  0  0  0  0  0  0  0  0  0
   -3.3510   22.5810  -28.3010 C   0  0  0  0  0  0  0  0  0  0  0  0
   -2.0720   23.2910  -27.8450 C   0  0  0  0  0  0  0  0  0  0  0  0
   -1.1950   24.0350  -29.2350 S   0  0  0  0  0  0  0  0  0  0  0  0
    0.2150   24.2640  -28.6960 O   0  0  0  0  0  0  0  0  0  0  0  0
   -1.8300   25.6160  -29.3360 O   0  0  0  0  0  0  0  0  0  0  0  0
   -3.8350   22.6780  -30.8160 C   0  0  0  0  0  0  0  0  0  0  0  0
   -3.1170   23.0650  -31.7850 O   0  0  0  0  0  0  0  0  0  0  0  0
   -5.2580   22.8470  -30.9150 N   0  0  0  0  0  0  0  0  0  0  0  0
   -5.9860   23.9860  -30.7540 C   0  0  0  0  0  0  0  0  0  0  0  0
   -5.4400   25.3150  -30.4120 C   0  0  0  0  0  0  0  0  0  0  0  0
   -4.1280   25.6710  -30.8440 N   0  0  0  0  0  0  0  0  0  0  0  0
   -6.1250   26.1440  -29.7540 O   0  0  0  0  0  0  0  0  0  0  0  0
   -7.3350   23.7370  -31.0030 C   0  0  0  0  0  0  0  0  0  0  0  0
   -7.4040   22.4080  -31.3530 C   0  0  0  0  0  0  0  0  0  0  0  0
   -8.5000   21.6300  -31.7190 C   0  0  0  0  0  0  0  0  0  0  0  0
   -8.2650   20.2830  -32.0570 C   0  0  0  0  0  0  0  0  0  0  0  0
   -6.9530   19.7450  -32.0170 C   0  0  0  0  0  0  0  0  0  0  0  0
   -6.7300   18.3730  -32.3620 N   0  0  0  0  0  0  0  0  0  0  0  0
   -6.7650   17.9790  -33.6560 F   0  0  0  0  0  0  0  0  0  0  0  0
   -6.5730   17.4330  -31.4000 F   0  0  0  0  0  0  0  0  0  0  0  0
   -5.8730   20.5670  -31.6300 C   0  0  0  0  0  0  0  0  0  0  0  0
   -6.1320   21.8990  -31.3040 C   0  0  0  0  0  0  0  0  0  0  0  0
   -2.1992   20.3697  -28.8918 H   0  0  0  0  0  0  0  0  0  0  0  0
   -3.0778   20.0846  -30.4324 H   0  0  0  0  0  0  0  0  0  0  0  0
   -1.5460   21.0228  -30.4324 H   0  0  0  0  0  0  0  0  0  0  0  0
   -4.1831   23.3002  -28.2822 H   0  0  0  0  0  0  0  0  0  0  0  0
   -3.5377   21.7410  -27.6158 H   0  0  0  0  0  0  0  0  0  0  0  0
   -2.3385   24.0806  -27.1270 H   0  0  0  0  0  0  0  0  0  0  0  0
   -1.4108   22.5448  -27.3802 H   0  0  0  0  0  0  0  0  0  0  0  0
   -3.3340   25.0000  -30.7560 H   0  0  0  0  0  0  0  0  0  0  0  0
   -8.1682   24.4519  -30.9342 H   0  0  0  0  0  0  0  0  0  0  0  0
   -9.5150   22.0534  -31.7432 H   0  0  0  0  0  0  0  0  0  0  0  0
   -9.1075   19.6416  -32.3551 H   0  0  0  0  0  0  0  0  0  0  0  0
   -4.8494   20.1665  -31.5863 H   0  0  0  0  0  0  0  0  0  0  0  0
  1  2  1  0
  2  3  1  0
  3  4  1  0
  4  5  1  0
  5  6  2  0
  5  7  1  1
  2  8  1  0
  8  9  2  0
  8 10  1  0
 10 11  1  0
 11 12  1  0
 12 13  1  0
 12 14  2  0
 11 15  2  0
 15 16  1  0
 16 17  2  0
 17 18  1  0
 18 19  2  0
 19 20  1  0
 20 21  1  0
 20 22  1  0
 19 23  1  0
 23 24  2  0
 24 10  1  0
 24 16  1  0
  1 25  1  0
  1 26  1  0
  1 27  1  0
  3 28  1  0
  3 29  1  0
  4 30  1  0
  4 31  1  0
 13 32  1  0
 15 33  1  0
 17 34  1  0
 18 35  1  0
 23 36  1  0
M  CHG  2   7  -1  13  -1
M  END
>  <UniqueID>  (44) 
43

>  <SMILES>  (44) 
CN(CC[S@](=O)[O-])C(=O)n1c(C([NH-])=O)cc2ccc(N(F)F)cc21

>  <Energy>  (44) 
69.94362841055062

>  <Genealogy>  (44) 
CN(CCS(=O)[O-])C(=O)n1c(C([NH-])=O)cc2ccc(N(F)F)cc21 (protonated)
CN(CC[S@](=O)[O-])C(=O)n1c(C([NH-])=O)cc2ccc(N(F)F)cc21 (chirality)
CN(CC[S@](=O)[O-])C(=O)n1c(C([NH-])=O)cc2ccc(N(F)F)cc21 (3D coordinates assigned)
CN(CC[S@](=O)[O-])C(=O)n1c(C([NH-])=O)cc2ccc(N(F)F)cc21 (optimized conformer: 69.94362841055062 kcal/mol)

>  <smiles>  (44) 
CN(CCS(=O)O)C(=O)n1c(C(N)=O)cc2ccc(N(F)F)cc21

>  <score_type>  (44) 
oracle

>  <origin>  (44) 
adg

>  <m_score__min__energy>  (44) 
-13.77

>  <m_primary>  (44) 
energy

$$$$
44:0
     RDKit          3D

 32 33  0  0  0  0  0  0  0  0999 V2000
   -7.6970   20.7770  -32.3340 C   0  0  0  0  0  0  0  0  0  0  0  0
   -6.5390   19.7750  -32.4720 C   0  0  2  0  0  0  0  0  0  0  0  0
   -5.4650   20.2660  -33.3640 N   0  0  0  0  0  0  0  0  0  0  0  0
   -4.2920   20.7330  -32.6560 C   0  0  0  0  0  0  0  0  0  0  0  0
   -3.0840   19.9900  -32.7030 C   0  0  0  0  0  0  0  0  0  0  0  0
   -1.9380   20.4360  -32.0240 C   0  0  0  0  0  0  0  0  0  0  0  0
   -2.0280   21.6230  -31.3040 C   0  0  0  0  0  0  0  0  0  0  0  0
   -1.0690   22.2900  -30.5760 C   0  0  0  0  0  0  0  0  0  0  0  0
   -1.7060   23.4260  -30.0800 C   0  0  0  0  0  0  0  0  0  0  0  0
   -1.0570   24.3850  -29.1630 C   0  0  0  0  0  0  0  0  0  0  0  0
   -1.6290   25.6770  -28.9670 N   0  0  0  0  0  0  0  0  0  0  0  0
    0.0190   24.0930  -28.5780 O   0  0  0  0  0  0  0  0  0  0  0  0
   -3.0060   23.4640  -30.4910 N   0  0  0  0  0  0  0  0  0  0  0  0
   -3.9730   24.4990  -30.2510 C   0  0  0  0  0  0  0  0  0  0  0  0
   -3.8670   25.6140  -30.8260 O   0  0  0  0  0  0  0  0  0  0  0  0
   -5.0190   24.2920  -29.3610 O   0  0  0  0  0  0  0  0  0  0  0  0
   -3.1860   22.3510  -31.2380 C   0  0  0  0  0  0  0  0  0  0  0  0
   -4.3370   21.9420  -31.9220 C   0  0  0  0  0  0  0  0  0  0  0  0
   -7.0310   18.4080  -32.8820 C   0  0  0  0  0  0  0  0  0  0  0  0
   -6.5110   17.8240  -33.8690 O   0  0  0  0  0  0  0  0  0  0  0  0
   -8.0930   17.8050  -32.2160 O   0  0  0  0  0  0  0  0  0  0  0  0
   -7.9028   20.9550  -31.2682 H   0  0  0  0  0  0  0  0  0  0  0  0
   -7.4207   21.7256  -32.8175 H   0  0  0  0  0  0  0  0  0  0  0  0
   -8.5960   20.3672  -32.8175 H   0  0  0  0  0  0  0  0  0  0  0  0
   -6.0891   19.6758  -31.4731 H   0  0  0  0  0  0  0  0  0  0  0  0
   -5.8420   21.0430  -33.9570 H   0  0  0  0  0  0  0  0  0  0  0  0
   -5.1930   19.5010  -34.0250 H   0  0  0  0  0  0  0  0  0  0  0  0
   -3.0445   19.0532  -33.2782 H   0  0  0  0  0  0  0  0  0  0  0  0
   -0.9988   19.8646  -32.0604 H   0  0  0  0  0  0  0  0  0  0  0  0
   -0.0224   21.9902  -30.4191 H   0  0  0  0  0  0  0  0  0  0  0  0
   -2.6630   25.8180  -29.0080 H   0  0  0  0  0  0  0  0  0  0  0  0
   -5.2554   22.5466  -31.8896 H   0  0  0  0  0  0  0  0  0  0  0  0
  1  2  1  0
  2  3  1  0
  3  4  1  0
  4  5  2  0
  5  6  1  0
  6  7  2  0
  7  8  1  0
  8  9  2  0
  9 10  1  0
 10 11  1  0
 10 12  2  0
  9 13  1  0
 13 14  1  0
 14 15  2  0
 14 16  1  0
 13 17  1  0
 17 18  2  0
  2 19  1  0
 19 20  2  0
 19 21  1  0
 18  4  1  0
 17  7  1  0
  1 22  1  0
  1 23  1  0
  1 24  1  0
  2 25  1  1
  3 26  1  0
  3 27  1  0
  5 28  1  0
  6 29  1  0
  8 30  1  0
 11 31  1  0
 18 32  1  0
M  CHG  4   3   1  11  -1  16  -1  21  -1
M  END
>  <UniqueID>  (45) 
44

>  <SMILES>  (45) 
C[C@H]([NH2+]c1ccc2cc(C([NH-])=O)n(C(=O)[O-])c2c1)C(=O)[O-]

>  <Energy>  (45) 
73.42080334190936

>  <Genealogy>  (45) 
C[C@H]([NH2+]c1ccc2cc(C([NH-])=O)n(C(=O)[O-])c2c1)C(=O)[O-] (protonated)
C[C@H]([NH2+]c1ccc2cc(C([NH-])=O)n(C(=O)[O-])c2c1)C(=O)[O-] (3D coordinates assigned)
C[C@H]([NH2+]c1ccc2cc(C([NH-])=O)n(C(=O)[O-])c2c1)C(=O)[O-] (optimized conformer: 73.42080334190936 kcal/mol)

>  <smiles>  (45) 
C[C@H](Nc1ccc2cc(C(N)=O)n(C(=O)O)c2c1)C(=O)O

>  <score_type>  (45) 
oracle

>  <origin>  (45) 
adg

>  <m_score__min__energy>  (45) 
-9.7599999999999998

>  <m_primary>  (45) 
energy

$$$$
45:0
     RDKit          3D

 45 46  0  0  0  0  0  0  0  0999 V2000
   -3.4800   26.0310  -31.2450 H   0  0  0  0  0  0  0  0  0  0  0  0
   -3.8780   25.1950  -30.7620 N   0  0  0  0  0  0  0  0  0  0  0  0
   -5.2570   25.1410  -30.4060 C   0  0  0  0  0  0  0  0  0  0  0  0
   -5.7390   26.0390  -29.6660 O   0  0  0  0  0  0  0  0  0  0  0  0
   -6.0970   24.0200  -30.8810 C   0  0  0  0  0  0  0  0  0  0  0  0
   -7.4840   24.0860  -30.9820 C   0  0  0  0  0  0  0  0  0  0  0  0
   -8.1343   24.9246  -30.6923 H   0  0  0  0  0  0  0  0  0  0  0  0
   -7.8690   22.8800  -31.5210 C   0  0  0  0  0  0  0  0  0  0  0  0
   -9.1400   22.4010  -31.8240 C   0  0  0  0  0  0  0  0  0  0  0  0
  -10.0338   23.0206  -31.6590 H   0  0  0  0  0  0  0  0  0  0  0  0
   -9.2460   21.1020  -32.3470 C   0  0  0  0  0  0  0  0  0  0  0  0
  -10.2371   20.6964  -32.5983 H   0  0  0  0  0  0  0  0  0  0  0  0
   -8.0900   20.3070  -32.5550 C   0  0  0  0  0  0  0  0  0  0  0  0
   -8.2150   18.9610  -33.0530 N   0  0  0  0  0  0  0  0  0  0  0  0
   -7.4780   18.7830  -33.7760 H   0  0  0  0  0  0  0  0  0  0  0  0
   -9.1490   18.8420  -33.5100 H   0  0  0  0  0  0  0  0  0  0  0  0
   -8.0700   18.0010  -31.9480 C   0  0  0  0  0  0  0  0  0  0  0  0
   -8.4298   18.4677  -31.0192 H   0  0  0  0  0  0  0  0  0  0  0  0
   -8.6601   17.1046  -32.1891 H   0  0  0  0  0  0  0  0  0  0  0  0
   -6.6070   17.5790  -31.7600 C   0  0  0  0  0  0  0  0  0  0  0  0
   -6.1629   18.1710  -30.9462 H   0  0  0  0  0  0  0  0  0  0  0  0
   -6.5786   16.5072  -31.5142 H   0  0  0  0  0  0  0  0  0  0  0  0
   -5.8420   17.7980  -32.9830 N   0  0  0  0  0  0  0  0  0  0  0  0
   -4.8370   17.5870  -32.7820 H   0  0  0  0  0  0  0  0  0  0  0  0
   -5.8910   18.8180  -33.2100 H   0  0  0  0  0  0  0  0  0  0  0  0
   -6.8170   20.8250  -32.2200 C   0  0  0  0  0  0  0  0  0  0  0  0
   -5.9100   20.2158  -32.3471 H   0  0  0  0  0  0  0  0  0  0  0  0
   -6.7390   22.1310  -31.7230 C   0  0  0  0  0  0  0  0  0  0  0  0
   -5.6390   22.8210  -31.3460 N   0  0  0  0  0  0  0  0  0  0  0  0
   -4.2780   22.3520  -31.3610 C   0  0  0  0  0  0  0  0  0  0  0  0
   -3.7730   21.8910  -30.3020 O   0  0  0  0  0  0  0  0  0  0  0  0
   -3.4750   22.2980  -32.6020 C   0  0  0  0  0  0  0  0  0  0  0  0
   -3.0679   23.2490  -32.9761 H   0  0  0  0  0  0  0  0  0  0  0  0
   -3.1980   21.1940  -33.3130 C   0  0  0  0  0  0  0  0  0  0  0  0
   -2.4582   21.2865  -34.1218 H   0  0  0  0  0  0  0  0  0  0  0  0
   -3.8030   19.8700  -33.0990 C   0  0  0  0  0  0  0  0  0  0  0  0
   -4.2120   19.5280  -31.9570 O   0  0  0  0  0  0  0  0  0  0  0  0
   -3.9620   19.0170  -34.1960 O   0  0  0  0  0  0  0  0  0  0  0  0
   -3.0800   17.9330  -34.4800 C   0  0  0  0  0  0  0  0  0  0  0  0
   -2.7016   17.5183  -33.5341 H   0  0  0  0  0  0  0  0  0  0  0  0
   -2.2472   18.3068  -35.0938 H   0  0  0  0  0  0  0  0  0  0  0  0
   -3.8040   16.8360  -35.2530 C   0  0  0  0  0  0  0  0  0  0  0  0
   -4.2677   16.1334  -34.5449 H   0  0  0  0  0  0  0  0  0  0  0  0
   -4.5829   17.2863  -35.8859 H   0  0  0  0  0  0  0  0  0  0  0  0
   -3.0837   16.2969  -35.8859 H   0  0  0  0  0  0  0  0  0  0  0  0
  1  2  1  0
  2  3  1  0
  3  4  2  0
  3  5  1  0
  5  6  2  0
  6  7  1  0
  6  8  1  0
  8  9  2  0
  9 10  1  0
  9 11  1  0
 11 12  1  0
 11 13  2  0
 13 14  1  0
 14 15  1  0
 14 16  1  0
 14 17  1  0
 17 18  1  0
 17 19  1  0
 17 20  1  0
 20 21  1  0
 20 22  1  0
 20 23  1  0
 23 24  1  0
 23 25  1  0
 13 26  1  0
 26 27  1  0
 26 28  2  0
 28 29  1  0
 29 30  1  0
 30 31  2  0
 30 32  1  0
 32 33  1  0
 32 34  2  0
 34 35  1  0
 34 36  1  0
 36 37  2  0
 36 38  1  0
 38 39  1  0
 39 40  1  0
 39 41  1  0
 39 42  1  0
 42 43  1  0
 42 44  1  0
 42 45  1  0
 29  5  1  0
 28  8  1  0
M  CHG  2   2  -1  14   1
M  END
>  <UniqueID>  (46) 
45

>  <SMILES>  (46) 
CCOC(=O)/C=C\C(=O)n1c(C([NH-])=O)cc2ccc([NH2+]CCN)cc21

>  <Energy>  (46) 
81.567009655364

>  <Genealogy>  (46) 
CCOC(=O)/C=C\C(=O)n1c(C([NH-])=O)cc2ccc([NH2+]CCN)cc21 (protonated)
CCOC(=O)/C=C\C(=O)n1c(C([NH-])=O)cc2ccc([NH2+]CCN)cc21 (cis-trans isomerization)
CCOC(=O)/C=C\C(=O)n1c(C([NH-])=O)cc2ccc([NH2+]CCN)cc21 (3D coordinates assigned)
CCOC(=O)/C=C\C(=O)n1c(C([NH-])=O)cc2ccc([NH2+]CCN)cc21 (optimized conformer: 81.567009655364 kcal/mol)

>  <smiles>  (46) 
CCOC(=O)/C=C\C(=O)n1c(C(N)=O)cc2ccc(NCCN)cc21

>  <score_type>  (46) 
oracle

>  <origin>  (46) 
adg

>  <m_score__min__energy>  (46) 
-9.2100000000000009

>  <m_primary>  (46) 
energy

$$$$
46:0
     RDKit          3D

 44 46  0  0  0  0  0  0  0  0999 V2000
   -8.5550   18.7210  -32.7150 C   0  0  0  0  0  0  0  0  0  0  0  0
   -8.2670   20.1080  -32.2230 C   0  0  0  0  0  0  0  0  0  0  0  0
   -9.3330   20.9840  -31.9050 C   0  0  0  0  0  0  0  0  0  0  0  0
   -9.0760   22.2960  -31.4690 C   0  0  0  0  0  0  0  0  0  0  0  0
   -7.7480   22.7050  -31.3800 C   0  0  0  0  0  0  0  0  0  0  0  0
   -7.2120   23.9070  -30.9730 C   0  0  0  0  0  0  0  0  0  0  0  0
   -5.8310   23.7510  -31.0810 C   0  0  0  0  0  0  0  0  0  0  0  0
   -4.8580   24.8270  -30.7980 C   0  0  0  0  0  0  0  0  0  0  0  0
   -3.4950   24.5250  -30.5090 N   0  0  0  0  0  0  0  0  0  0  0  0
   -5.2270   26.0310  -30.8410 O   0  0  0  0  0  0  0  0  0  0  0  0
   -5.5290   22.5020  -31.5320 N   0  0  0  0  0  0  0  0  0  0  0  0
   -4.2330   21.9090  -31.6940 C   0  0  0  0  0  0  0  0  0  0  0  0
   -3.6420   21.9910  -32.8040 O   0  0  0  0  0  0  0  0  0  0  0  0
   -3.6340   21.0840  -30.5920 C   0  0  0  0  0  0  0  0  0  0  0  0
   -3.6650   21.8320  -29.3190 N   0  0  0  0  0  0  0  0  0  0  0  0
   -2.3810   21.8500  -28.5750 C   0  0  1  0  0  0  0  0  0  0  0  0
   -1.1580   21.5900  -29.4720 C   0  0  0  0  0  0  0  0  0  0  0  0
   -0.5000   22.9490  -29.6880 C   0  0  0  0  0  0  0  0  0  0  0  0
   -1.0610   23.8220  -28.6720 N   0  0  0  0  0  0  0  0  0  0  0  0
   -0.6300   25.1740  -28.4660 C   0  0  0  0  0  0  0  0  0  0  0  0
    0.4330   25.4140  -27.8370 O   0  0  0  0  0  0  0  0  0  0  0  0
   -1.3850   26.2310  -28.9610 O   0  0  0  0  0  0  0  0  0  0  0  0
   -2.1110   23.1960  -27.8890 C   0  0  0  0  0  0  0  0  0  0  0  0
   -6.7090   21.8760  -31.7120 C   0  0  0  0  0  0  0  0  0  0  0  0
   -6.9330   20.5620  -32.1370 C   0  0  0  0  0  0  0  0  0  0  0  0
   -8.6946   18.0487  -31.8556 H   0  0  0  0  0  0  0  0  0  0  0  0
   -9.4702   18.7310  -33.3251 H   0  0  0  0  0  0  0  0  0  0  0  0
   -7.7114   18.3658  -33.3251 H   0  0  0  0  0  0  0  0  0  0  0  0
  -10.3718   20.6350  -31.9999 H   0  0  0  0  0  0  0  0  0  0  0  0
   -9.8983   22.9778  -31.2065 H   0  0  0  0  0  0  0  0  0  0  0  0
   -7.7578   24.8001  -30.6347 H   0  0  0  0  0  0  0  0  0  0  0  0
   -2.7960   25.2860  -30.3620 H   0  0  0  0  0  0  0  0  0  0  0  0
   -4.2101   20.1536  -30.4806 H   0  0  0  0  0  0  0  0  0  0  0  0
   -2.5893   20.8513  -30.8457 H   0  0  0  0  0  0  0  0  0  0  0  0
   -3.9450   22.8250  -29.5070 H   0  0  0  0  0  0  0  0  0  0  0  0
   -4.3990   21.4120  -28.7010 H   0  0  0  0  0  0  0  0  0  0  0  0
   -2.5032   21.0437  -27.8368 H   0  0  0  0  0  0  0  0  0  0  0  0
   -0.4589   20.9013  -28.9752 H   0  0  0  0  0  0  0  0  0  0  0  0
   -1.4489   21.1264  -30.4262 H   0  0  0  0  0  0  0  0  0  0  0  0
    0.5905   22.8709  -29.5672 H   0  0  0  0  0  0  0  0  0  0  0  0
   -0.6852   23.3337  -30.7018 H   0  0  0  0  0  0  0  0  0  0  0  0
   -1.7775   23.0400  -26.8524 H   0  0  0  0  0  0  0  0  0  0  0  0
   -3.0152   23.8208  -27.8422 H   0  0  0  0  0  0  0  0  0  0  0  0
   -6.0930   19.9010  -32.3969 H   0  0  0  0  0  0  0  0  0  0  0  0
  1  2  1  0
  2  3  2  0
  3  4  1  0
  4  5  2  0
  5  6  1  0
  6  7  2  0
  7  8  1  0
  8  9  1  0
  8 10  2  0
  7 11  1  0
 11 12  1  0
 12 13  2  0
 12 14  1  0
 14 15  1  0
 15 16  1  0
 16 17  1  0
 17 18  1  0
 18 19  1  0
 19 20  1  0
 20 21  2  0
 20 22  1  0
 19 23  1  0
 11 24  1  0
 24 25  2  0
 25  2  1  0
 24  5  1  0
 23 16  1  0
  1 26  1  0
  1 27  1  0
  1 28  1  0
  3 29  1  0
  4 30  1  0
  6 31  1  0
  9 32  1  0
 14 33  1  0
 14 34  1  0
 15 35  1  0
 15 36  1  0
 16 37  1  1
 17 38  1  0
 17 39  1  0
 18 40  1  0
 18 41  1  0
 23 42  1  0
 23 43  1  0
 25 44  1  0
M  CHG  3   9  -1  15   1  22  -1
M  END
>  <UniqueID>  (47) 
46

>  <SMILES>  (47) 
Cc1ccc2cc(C([NH-])=O)n(C(=O)C[NH2+][C@H]3CCN(C(=O)[O-])C3)c2c1

>  <Energy>  (47) 
85.98594580779715

>  <Genealogy>  (47) 
Cc1ccc2cc(C([NH-])=O)n(C(=O)C[NH2+]C3CCN(C(=O)[O-])C3)c2c1 (protonated)
Cc1ccc2cc(C([NH-])=O)n(C(=O)C[NH2+][C@H]3CCN(C(=O)[O-])C3)c2c1 (chirality)
Cc1ccc2cc(C([NH-])=O)n(C(=O)C[NH2+][C@H]3CCN(C(=O)[O-])C3)c2c1 (3D coordinates assigned)
Cc1ccc2cc(C([NH-])=O)n(C(=O)C[NH2+][C@H]3CCN(C(=O)[O-])C3)c2c1 (nonaromatic ring conformer: 85.98594580779715 kcal/mol)

>  <smiles>  (47) 
Cc1ccc2cc(C(N)=O)n(C(=O)CNC3CCN(C(=O)O)C3)c2c1

>  <score_type>  (47) 
oracle

>  <origin>  (47) 
adg

>  <m_score__min__energy>  (47) 
-11.74

>  <m_primary>  (47) 
energy

$$$$
47:0
     RDKit          3D

 48 49  0  0  0  0  0  0  0  0999 V2000
   -7.3650   18.5270  -32.7480 C   0  0  0  0  0  0  0  0  0  0  0  0
   -7.4210   19.9160  -32.1850 C   0  0  0  0  0  0  0  0  0  0  0  0
   -8.6710   20.4930  -31.8510 C   0  0  0  0  0  0  0  0  0  0  0  0
   -8.7440   21.8110  -31.3690 C   0  0  0  0  0  0  0  0  0  0  0  0
   -7.5550   22.5250  -31.2390 C   0  0  0  0  0  0  0  0  0  0  0  0
   -7.3420   23.8220  -30.8320 C   0  0  0  0  0  0  0  0  0  0  0  0
   -5.9640   24.0140  -30.9180 C   0  0  0  0  0  0  0  0  0  0  0  0
   -5.2890   25.2570  -30.4920 C   0  0  0  0  0  0  0  0  0  0  0  0
   -3.9520   25.5410  -30.8940 N   0  0  0  0  0  0  0  0  0  0  0  0
   -5.8850   26.0590  -29.7220 O   0  0  0  0  0  0  0  0  0  0  0  0
   -5.3500   22.8830  -31.3670 N   0  0  0  0  0  0  0  0  0  0  0  0
   -3.9620   22.7060  -31.6840 C   0  0  0  0  0  0  0  0  0  0  0  0
   -3.6200   22.4080  -32.8610 O   0  0  0  0  0  0  0  0  0  0  0  0
   -2.9940   22.8820  -30.6880 O   0  0  0  0  0  0  0  0  0  0  0  0
   -1.6860   22.3180  -30.7540 C   0  0  0  0  0  0  0  0  0  0  0  0
   -1.3920   21.4980  -29.4960 C   0  0  0  0  0  0  0  0  0  0  0  0
   -2.5930   21.4910  -28.5460 C   0  0  0  0  0  0  0  0  0  0  0  0
   -2.2140   20.9140  -27.2490 N   0  0  0  0  0  0  0  0  0  0  0  0
   -2.7040   19.5910  -26.8580 C   0  0  0  0  0  0  0  0  0  0  0  0
   -1.3550   21.6360  -26.3480 C   0  0  0  0  0  0  0  0  0  0  0  0
   -1.1770   21.2170  -25.1700 O   0  0  0  0  0  0  0  0  0  0  0  0
   -0.7230   22.8090  -26.7800 O   0  0  0  0  0  0  0  0  0  0  0  0
   -1.4020   24.0490  -26.9610 C   0  0  0  0  0  0  0  0  0  0  0  0
   -0.5250   25.0790  -28.1780 P   0  0  0  0  0  0  0  0  0  0  0  0
    0.1420   26.2360  -27.4720 O   0  0  0  0  0  0  0  0  0  0  0  0
    0.6500   24.1420  -28.9550 O   0  0  0  0  0  0  0  0  0  0  0  0
   -1.6120   25.6730  -29.3290 O   0  0  0  0  0  0  0  0  0  0  0  0
   -6.3380   21.9800  -31.5560 C   0  0  0  0  0  0  0  0  0  0  0  0
   -6.2380   20.6750  -32.0570 C   0  0  0  0  0  0  0  0  0  0  0  0
   -7.3356   17.7984  -31.9244 H   0  0  0  0  0  0  0  0  0  0  0  0
   -8.2566   18.3457  -33.3663 H   0  0  0  0  0  0  0  0  0  0  0  0
   -6.4617   18.4181  -33.3663 H   0  0  0  0  0  0  0  0  0  0  0  0
   -9.5925   19.9042  -31.9700 H   0  0  0  0  0  0  0  0  0  0  0  0
   -9.7100   22.2648  -31.1026 H   0  0  0  0  0  0  0  0  0  0  0  0
   -8.0982   24.5521  -30.5077 H   0  0  0  0  0  0  0  0  0  0  0  0
   -3.1440   25.0340  -30.4700 H   0  0  0  0  0  0  0  0  0  0  0  0
   -1.6176   21.6646  -31.6362 H   0  0  0  0  0  0  0  0  0  0  0  0
   -0.9505   23.1327  -30.8276 H   0  0  0  0  0  0  0  0  0  0  0  0
   -1.1598   20.4633  -29.7883 H   0  0  0  0  0  0  0  0  0  0  0  0
   -0.5380   21.9547  -28.9743 H   0  0  0  0  0  0  0  0  0  0  0  0
   -2.9428   22.5230  -28.3957 H   0  0  0  0  0  0  0  0  0  0  0  0
   -3.3952   20.8817  -28.9879 H   0  0  0  0  0  0  0  0  0  0  0  0
   -2.7305   19.5194  -25.7607 H   0  0  0  0  0  0  0  0  0  0  0  0
   -3.7171   19.4417  -27.2598 H   0  0  0  0  0  0  0  0  0  0  0  0
   -2.0326   18.8178  -27.2598 H   0  0  0  0  0  0  0  0  0  0  0  0
   -2.4235   23.8542  -27.3197 H   0  0  0  0  0  0  0  0  0  0  0  0
   -1.4350   24.5820  -25.9993 H   0  0  0  0  0  0  0  0  0  0  0  0
   -5.2631   20.2533  -32.3430 H   0  0  0  0  0  0  0  0  0  0  0  0
  1  2  1  0
  2  3  2  0
  3  4  1  0
  4  5  2  0
  5  6  1  0
  6  7  2  0
  7  8  1  0
  8  9  1  0
  8 10  2  0
  7 11  1  0
 11 12  1  0
 12 13  2  0
 12 14  1  0
 14 15  1  0
 15 16  1  0
 16 17  1  0
 17 18  1  0
 18 19  1  0
 18 20  1  0
 20 21  2  0
 20 22  1  0
 22 23  1  0
 23 24  1  0
 24 25  2  0
 24 26  1  0
 24 27  1  0
 11 28  1  0
 28 29  2  0
 29  2  1  0
 28  5  1  0
  1 30  1  0
  1 31  1  0
  1 32  1  0
  3 33  1  0
  4 34  1  0
  6 35  1  0
  9 36  1  0
 15 37  1  0
 15 38  1  0
 16 39  1  0
 16 40  1  0
 17 41  1  0
 17 42  1  0
 19 43  1  0
 19 44  1  0
 19 45  1  0
 23 46  1  0
 23 47  1  0
 29 48  1  0
M  CHG  3   9  -1  26  -1  27  -1
M  END
>  <UniqueID>  (48) 
47

>  <SMILES>  (48) 
Cc1ccc2cc(C([NH-])=O)n(C(=O)OCCCN(C)C(=O)OCP(=O)([O-])[O-])c2c1

>  <Energy>  (48) 
72.91900540243873

>  <Genealogy>  (48) 
Cc1ccc2cc(C([NH-])=O)n(C(=O)OCCCN(C)C(=O)OCP(=O)([O-])[O-])c2c1 (protonated)
Cc1ccc2cc(C([NH-])=O)n(C(=O)OCCCN(C)C(=O)OCP(=O)([O-])[O-])c2c1 (3D coordinates assigned)
Cc1ccc2cc(C([NH-])=O)n(C(=O)OCCCN(C)C(=O)OCP(=O)([O-])[O-])c2c1 (optimized conformer: 72.91900540243873 kcal/mol)

>  <smiles>  (48) 
Cc1ccc2cc(C(N)=O)n(C(=O)OCCCN(C)C(=O)OCP(=O)(O)O)c2c1

>  <score_type>  (48) 
oracle

>  <origin>  (48) 
adg

>  <m_score__min__energy>  (48) 
-13.65

>  <m_primary>  (48) 
energy

$$$$
48:0
     RDKit          3D

 39 40  0  0  0  0  0  0  0  0999 V2000
   -4.2380   24.9320  -26.2860 C   0  0  0  0  0  0  0  0  0  0  0  0
   -4.0630   24.3720  -27.6920 C   0  0  0  0  0  0  0  0  0  0  0  0
   -2.7770   24.7090  -28.2110 O   0  0  0  0  0  0  0  0  0  0  0  0
   -1.9310   23.7860  -28.8370 C   0  0  0  0  0  0  0  0  0  0  0  0
   -1.1190   24.1630  -29.7260 O   0  0  0  0  0  0  0  0  0  0  0  0
   -1.9920   22.3620  -28.4690 C   0  0  0  0  0  0  0  0  0  0  0  0
   -0.9650   21.7980  -28.0030 O   0  0  0  0  0  0  0  0  0  0  0  0
   -3.2390   21.5510  -28.6690 C   0  0  0  0  0  0  0  0  0  0  0  0
   -3.4850   21.3520  -30.0920 N   0  0  0  0  0  0  0  0  0  0  0  0
   -3.8510   22.4070  -30.9890 C   0  0  0  0  0  0  0  0  0  0  0  0
   -2.9640   23.0280  -31.6330 O   0  0  0  0  0  0  0  0  0  0  0  0
   -5.2340   22.7340  -31.1820 N   0  0  0  0  0  0  0  0  0  0  0  0
   -5.8650   23.9100  -30.9030 C   0  0  0  0  0  0  0  0  0  0  0  0
   -5.2100   25.1700  -30.4950 C   0  0  0  0  0  0  0  0  0  0  0  0
   -3.8560   25.4410  -30.8440 N   0  0  0  0  0  0  0  0  0  0  0  0
   -5.8710   26.0400  -29.8680 O   0  0  0  0  0  0  0  0  0  0  0  0
   -7.2350   23.7950  -31.1380 C   0  0  0  0  0  0  0  0  0  0  0  0
   -7.4230   22.5060  -31.5780 C   0  0  0  0  0  0  0  0  0  0  0  0
   -8.5920   21.8480  -31.9520 C   0  0  0  0  0  0  0  0  0  0  0  0
   -8.4930   20.5020  -32.3430 C   0  0  0  0  0  0  0  0  0  0  0  0
   -7.2410   19.8380  -32.3330 C   0  0  0  0  0  0  0  0  0  0  0  0
   -7.1460   18.4090  -32.7770 C   0  0  0  0  0  0  0  0  0  0  0  0
   -6.0760   20.5430  -31.9630 C   0  0  0  0  0  0  0  0  0  0  0  0
   -6.2010   21.8860  -31.5950 C   0  0  0  0  0  0  0  0  0  0  0  0
   -3.9946   24.1532  -25.5482 H   0  0  0  0  0  0  0  0  0  0  0  0
   -3.5656   25.7914  -26.1473 H   0  0  0  0  0  0  0  0  0  0  0  0
   -5.2801   25.2557  -26.1473 H   0  0  0  0  0  0  0  0  0  0  0  0
   -4.1643   23.2771  -27.6601 H   0  0  0  0  0  0  0  0  0  0  0  0
   -4.8339   24.8069  -28.3452 H   0  0  0  0  0  0  0  0  0  0  0  0
   -3.1190   20.5728  -28.1804 H   0  0  0  0  0  0  0  0  0  0  0  0
   -4.0919   22.0878  -28.2281 H   0  0  0  0  0  0  0  0  0  0  0  0
   -3.0730   24.8890  -30.4300 H   0  0  0  0  0  0  0  0  0  0  0  0
   -8.0024   24.5710  -31.0005 H   0  0  0  0  0  0  0  0  0  0  0  0
   -9.5625   22.3658  -31.9416 H   0  0  0  0  0  0  0  0  0  0  0  0
   -9.3955   19.9587  -32.6597 H   0  0  0  0  0  0  0  0  0  0  0  0
   -7.1024   17.7531  -31.8950 H   0  0  0  0  0  0  0  0  0  0  0  0
   -8.0291   18.1532  -33.3809 H   0  0  0  0  0  0  0  0  0  0  0  0
   -6.2368   18.2723  -33.3809 H   0  0  0  0  0  0  0  0  0  0  0  0
   -5.0936   20.0481  -31.9641 H   0  0  0  0  0  0  0  0  0  0  0  0
  1  2  1  0
  2  3  1  0
  3  4  1  0
  4  5  2  0
  4  6  1  0
  6  7  2  0
  6  8  1  0
  8  9  1  0
  9 10  1  0
 10 11  2  0
 10 12  1  0
 12 13  1  0
 13 14  1  0
 14 15  1  0
 14 16  2  0
 13 17  2  0
 17 18  1  0
 18 19  2  0
 19 20  1  0
 20 21  2  0
 21 22  1  0
 21 23  1  0
 23 24  2  0
 24 12  1  0
 24 18  1  0
  1 25  1  0
  1 26  1  0
  1 27  1  0
  2 28  1  0
  2 29  1  0
  8 30  1  0
  8 31  1  0
 15 32  1  0
 17 33  1  0
 19 34  1  0
 20 35  1  0
 22 36  1  0
 22 37  1  0
 22 38  1  0
 23 39  1  0
M  CHG  2   9  -1  15  -1
M  END
>  <UniqueID>  (49) 
48

>  <SMILES>  (49) 
CCOC(=O)C(=O)C[N-]C(=O)n1c(C([NH-])=O)cc2ccc(C)cc21

>  <Energy>  (49) 
70.1038143887947

>  <Genealogy>  (49) 
CCOC(=O)C(=O)C[N-]C(=O)n1c(C([NH-])=O)cc2ccc(C)cc21 (protonated)
CCOC(=O)C(=O)C[N-]C(=O)n1c(C([NH-])=O)cc2ccc(C)cc21 (3D coordinates assigned)
CCOC(=O)C(=O)C[N-]C(=O)n1c(C([NH-])=O)cc2ccc(C)cc21 (optimized conformer: 70.1038143887947 kcal/mol)

>  <smiles>  (49) 
CCOC(=O)C(=O)CNC(=O)n1c(C(N)=O)cc2ccc(C)cc21

>  <score_type>  (49) 
oracle

>  <origin>  (49) 
adg

>  <m_score__min__energy>  (49) 
-10.699999999999999

>  <m_primary>  (49) 
energy

$$$$
49:0
     RDKit          3D

 40 42  0  0  0  0  0  0  0  0999 V2000
   -2.8840   20.0910  -32.2180 C   0  0  0  0  0  0  0  0  0  0  0  0
   -2.7540   21.1720  -33.2840 C   0  0  0  0  0  0  0  0  0  0  0  0
   -3.6150   22.2720  -32.9930 O   0  0  0  0  0  0  0  0  0  0  0  0
   -3.9910   22.6350  -31.6960 C   0  0  0  0  0  0  0  0  0  0  0  0
   -3.1290   22.7060  -30.7770 O   0  0  0  0  0  0  0  0  0  0  0  0
   -5.3640   22.9460  -31.4130 N   0  0  0  0  0  0  0  0  0  0  0  0
   -5.8630   24.0840  -30.8530 C   0  0  0  0  0  0  0  0  0  0  0  0
   -5.1020   25.3210  -30.5780 C   0  0  0  0  0  0  0  0  0  0  0  0
   -3.6830   25.2980  -30.4580 N   0  0  0  0  0  0  0  0  0  0  0  0
   -5.7110   26.4210  -30.4930 O   0  0  0  0  0  0  0  0  0  0  0  0
   -7.2350   23.9650  -30.6430 C   0  0  0  0  0  0  0  0  0  0  0  0
   -7.5670   22.7110  -31.1010 C   0  0  0  0  0  0  0  0  0  0  0  0
   -8.8010   22.0670  -31.1320 C   0  0  0  0  0  0  0  0  0  0  0  0
   -8.8470   20.7580  -31.6410 C   0  0  0  0  0  0  0  0  0  0  0  0
   -7.6660   20.1160  -32.0880 C   0  0  0  0  0  0  0  0  0  0  0  0
   -7.7320   18.7290  -32.6610 C   0  0  0  0  0  0  0  0  0  0  0  0
   -6.4920   18.4250  -33.3660 N   0  0  0  0  0  0  0  0  0  0  0  0
   -6.0760   18.9530  -34.5300 C   0  0  0  0  0  0  0  0  0  0  0  0
   -4.8510   18.5020  -34.8590 N   0  0  0  0  0  0  0  0  0  0  0  0
   -4.5540   17.6950  -33.8150 C   0  0  0  0  0  0  0  0  0  0  0  0
   -3.2960   16.9010  -33.7200 C   0  0  0  0  0  0  0  0  0  0  0  0
   -5.5420   17.6360  -32.9010 N   0  0  0  0  0  0  0  0  0  0  0  0
   -6.4350   20.8060  -32.0540 C   0  0  0  0  0  0  0  0  0  0  0  0
   -6.4210   22.1160  -31.5610 C   0  0  0  0  0  0  0  0  0  0  0  0
   -2.8287   20.5512  -31.2204 H   0  0  0  0  0  0  0  0  0  0  0  0
   -3.8503   19.5779  -32.3320 H   0  0  0  0  0  0  0  0  0  0  0  0
   -2.0669   19.3635  -32.3320 H   0  0  0  0  0  0  0  0  0  0  0  0
   -1.7130   21.5262  -33.3143 H   0  0  0  0  0  0  0  0  0  0  0  0
   -3.0402   20.7461  -34.2570 H   0  0  0  0  0  0  0  0  0  0  0  0
   -3.0900   24.8340  -31.1810 H   0  0  0  0  0  0  0  0  0  0  0  0
   -7.9098   24.7147  -30.2041 H   0  0  0  0  0  0  0  0  0  0  0  0
   -9.7112   22.5671  -30.7695 H   0  0  0  0  0  0  0  0  0  0  0  0
   -9.8089   20.2270  -31.6928 H   0  0  0  0  0  0  0  0  0  0  0  0
   -7.8758   18.0040  -31.8463 H   0  0  0  0  0  0  0  0  0  0  0  0
   -8.5744   18.6674  -33.3657 H   0  0  0  0  0  0  0  0  0  0  0  0
   -6.6606   19.6616  -35.1351 H   0  0  0  0  0  0  0  0  0  0  0  0
   -3.0425   16.7410  -32.6617 H   0  0  0  0  0  0  0  0  0  0  0  0
   -3.4380   15.9285  -34.2141 H   0  0  0  0  0  0  0  0  0  0  0  0
   -2.4792   17.4476  -34.2141 H   0  0  0  0  0  0  0  0  0  0  0  0
   -5.5099   20.3262  -32.4061 H   0  0  0  0  0  0  0  0  0  0  0  0
  1  2  1  0
  2  3  1  0
  3  4  1  0
  4  5  2  0
  4  6  1  0
  6  7  1  0
  7  8  1  0
  8  9  1  0
  8 10  2  0
  7 11  2  0
 11 12  1  0
 12 13  2  0
 13 14  1  0
 14 15  2  0
 15 16  1  0
 16 17  1  0
 17 18  1  0
 18 19  2  0
 19 20  1  0
 20 21  1  0
 20 22  2  0
 15 23  1  0
 23 24  2  0
 24  6  1  0
 24 12  1  0
 22 17  1  0
  1 25  1  0
  1 26  1  0
  1 27  1  0
  2 28  1  0
  2 29  1  0
  9 30  1  0
 11 31  1  0
 13 32  1  0
 14 33  1  0
 16 34  1  0
 16 35  1  0
 18 36  1  0
 21 37  1  0
 21 38  1  0
 21 39  1  0
 23 40  1  0
M  CHG  1   9  -1
M  END
>  <UniqueID>  (50) 
49

>  <SMILES>  (50) 
CCOC(=O)n1c(C([NH-])=O)cc2ccc(Cn3cnc(C)n3)cc21

>  <Energy>  (50) 
106.6600233509631

>  <Genealogy>  (50) 
CCOC(=O)n1c(C([NH-])=O)cc2ccc(Cn3cnc(C)n3)cc21 (protonated)
CCOC(=O)n1c(C([NH-])=O)cc2ccc(Cn3cnc(C)n3)cc21 (3D coordinates assigned)
CCOC(=O)n1c(C([NH-])=O)cc2ccc(Cn3cnc(C)n3)cc21 (optimized conformer: 106.6600233509631 kcal/mol)

>  <smiles>  (50) 
CCOC(=O)n1c(C(N)=O)cc2ccc(Cn3cnc(C)n3)cc21

>  <score_type>  (50) 
oracle

>  <origin>  (50) 
adg

>  <m_score__min__energy>  (50) 
-10.5

>  <m_primary>  (50) 
energy

$$$$
50:0
     RDKit          3D

 39 41  0  0  0  0  0  0  0  0999 V2000
   -3.8670   25.3120  -30.5490 N   0  0  0  0  0  0  0  0  0  0  0  0
   -5.2690   25.0770  -30.4500 C   0  0  0  0  0  0  0  0  0  0  0  0
   -6.0100   25.9650  -29.9510 O   0  0  0  0  0  0  0  0  0  0  0  0
   -5.8410   23.8100  -30.9520 C   0  0  0  0  0  0  0  0  0  0  0  0
   -7.2060   23.5950  -31.1390 C   0  0  0  0  0  0  0  0  0  0  0  0
   -7.3170   22.2880  -31.5580 C   0  0  0  0  0  0  0  0  0  0  0  0
   -8.4430   21.5460  -31.8980 C   0  0  0  0  0  0  0  0  0  0  0  0
   -8.2550   20.2200  -32.3260 C   0  0  0  0  0  0  0  0  0  0  0  0
   -6.9500   19.6690  -32.4300 C   0  0  0  0  0  0  0  0  0  0  0  0
   -6.7450   18.2410  -32.8650 C   0  0  0  0  0  0  0  0  0  0  0  0
   -6.4190   18.2150  -34.2080 F   0  0  0  0  0  0  0  0  0  0  0  0
   -5.7290   17.6380  -32.1440 F   0  0  0  0  0  0  0  0  0  0  0  0
   -7.9060   17.5120  -32.6690 F   0  0  0  0  0  0  0  0  0  0  0  0
   -5.8340   20.4500  -32.0530 C   0  0  0  0  0  0  0  0  0  0  0  0
   -6.0540   21.7590  -31.6130 C   0  0  0  0  0  0  0  0  0  0  0  0
   -5.1390   22.6780  -31.2400 N   0  0  0  0  0  0  0  0  0  0  0  0
   -3.7160   22.4910  -31.2180 C   0  0  0  0  0  0  0  0  0  0  0  0
   -3.1440   21.9270  -32.1890 O   0  0  0  0  0  0  0  0  0  0  0  0
   -2.9550   22.9280  -30.0840 N   0  0  0  0  0  0  0  0  0  0  0  0
   -1.6330   22.3920  -29.7780 C   0  0  0  0  0  0  0  0  0  0  0  0
   -1.7690   21.2260  -28.8400 C   0  0  0  0  0  0  0  0  0  0  0  0
   -2.9140   21.0900  -28.0360 C   0  0  0  0  0  0  0  0  0  0  0  0
   -3.0060   20.0440  -27.1140 C   0  0  0  0  0  0  0  0  0  0  0  0
   -1.9540   19.1340  -26.9790 C   0  0  0  0  0  0  0  0  0  0  0  0
   -0.8060   19.2700  -27.7650 C   0  0  0  0  0  0  0  0  0  0  0  0
    0.2200   18.3950  -27.6230 F   0  0  0  0  0  0  0  0  0  0  0  0
   -0.7110   20.3150  -28.6900 C   0  0  0  0  0  0  0  0  0  0  0  0
   -3.4860   26.0100  -31.2270 H   0  0  0  0  0  0  0  0  0  0  0  0
   -8.0216   24.3168  -30.9845 H   0  0  0  0  0  0  0  0  0  0  0  0
   -9.4503   21.9833  -31.8340 H   0  0  0  0  0  0  0  0  0  0  0  0
   -9.1282   19.6025  -32.5832 H   0  0  0  0  0  0  0  0  0  0  0  0
   -4.8156   20.0376  -32.1045 H   0  0  0  0  0  0  0  0  0  0  0  0
   -3.4290   23.5150  -29.3610 H   0  0  0  0  0  0  0  0  0  0  0  0
   -1.1480   22.0598  -30.7077 H   0  0  0  0  0  0  0  0  0  0  0  0
   -1.0215   23.1739  -29.3040 H   0  0  0  0  0  0  0  0  0  0  0  0
   -3.7404   21.8095  -28.1330 H   0  0  0  0  0  0  0  0  0  0  0  0
   -3.9079   19.9367  -26.4935 H   0  0  0  0  0  0  0  0  0  0  0  0
   -2.0293   18.3103  -26.2539 H   0  0  0  0  0  0  0  0  0  0  0  0
    0.1963   20.4236  -29.3024 H   0  0  0  0  0  0  0  0  0  0  0  0
  1  2  1  0
  2  3  2  0
  2  4  1  0
  4  5  2  0
  5  6  1  0
  6  7  2  0
  7  8  1  0
  8  9  2  0
  9 10  1  0
 10 11  1  0
 10 12  1  0
 10 13  1  0
  9 14  1  0
 14 15  2  0
 15 16  1  0
 16 17  1  0
 17 18  2  0
 17 19  1  0
 19 20  1  0
 20 21  1  0
 21 22  2  0
 22 23  1  0
 23 24  2  0
 24 25  1  0
 25 26  1  0
 25 27  2  0
 16  4  1  0
 27 21  1  0
 15  6  1  0
  1 28  1  0
  5 29  1  0
  7 30  1  0
  8 31  1  0
 14 32  1  0
 19 33  1  0
 20 34  1  0
 20 35  1  0
 22 36  1  0
 23 37  1  0
 24 38  1  0
 27 39  1  0
M  CHG  1   1  -1
M  END
>  <UniqueID>  (51) 
50

>  <SMILES>  (51) 
[NH-]C(=O)c1cc2ccc(C(F)(F)F)cc2n1C(=O)NCc1cccc(F)c1

>  <Energy>  (51) 
77.3567141239973

>  <Genealogy>  (51) 
[NH-]C(=O)c1cc2ccc(C(F)(F)F)cc2n1C(=O)NCc1cccc(F)c1 (protonated)
[NH-]C(=O)c1cc2ccc(C(F)(F)F)cc2n1C(=O)NCc1cccc(F)c1 (3D coordinates assigned)
[NH-]C(=O)c1cc2ccc(C(F)(F)F)cc2n1C(=O)NCc1cccc(F)c1 (optimized conformer: 77.3567141239973 kcal/mol)

>  <smiles>  (51) 
NC(=O)c1cc2ccc(C(F)(F)F)cc2n1C(=O)NCc1cccc(F)c1

>  <score_type>  (51) 
oracle

>  <origin>  (51) 
adg

>  <m_score__min__energy>  (51) 
-10.890000000000001

>  <m_primary>  (51) 
energy

$$$$
52:0
     RDKit          3D

 43 45  0  0  0  0  0  0  0  0999 V2000
   -1.7620   25.6420  -28.9680 N   0  0  0  0  0  0  0  0  0  0  0  0
   -1.0010   24.4390  -29.0520 C   0  0  0  0  0  0  0  0  0  0  0  0
    0.0490   24.3240  -28.3660 O   0  0  0  0  0  0  0  0  0  0  0  0
   -1.4660   23.3330  -29.9110 C   0  0  0  0  0  0  0  0  0  0  0  0
   -0.6560   22.2700  -30.3100 C   0  0  0  0  0  0  0  0  0  0  0  0
   -1.4370   21.5160  -31.1600 C   0  0  0  0  0  0  0  0  0  0  0  0
   -1.1440   20.3360  -31.8370 C   0  0  0  0  0  0  0  0  0  0  0  0
   -2.1560   19.7610  -32.6250 C   0  0  0  0  0  0  0  0  0  0  0  0
   -3.4310   20.3750  -32.7240 C   0  0  0  0  0  0  0  0  0  0  0  0
   -4.5260   19.7230  -33.5200 C   0  0  0  0  0  0  0  0  0  0  0  0
   -5.7060   19.4320  -32.6310 C   0  0  0  0  0  0  0  0  0  0  0  0
   -5.5200   18.8610  -31.5630 O   0  0  0  0  0  0  0  0  0  0  0  0
   -7.0500   19.7890  -33.0430 N   0  0  0  0  0  0  0  0  0  0  0  0
   -8.0290   18.8450  -32.4540 C   0  0  0  0  0  0  0  0  0  0  0  0
   -9.4280   19.4800  -32.3920 C   0  0  0  0  0  0  0  0  0  0  0  0
   -9.4930   20.6660  -31.6090 O   0  0  0  0  0  0  0  0  0  0  0  0
   -8.2470   21.3360  -31.4750 C   0  0  0  0  0  0  0  0  0  0  0  0
   -7.3520   21.2090  -32.7210 C   0  0  0  0  0  0  0  0  0  0  0  0
   -3.6910   21.5710  -32.0180 C   0  0  0  0  0  0  0  0  0  0  0  0
   -2.6620   22.1230  -31.2500 C   0  0  0  0  0  0  0  0  0  0  0  0
   -2.6980   23.2330  -30.4850 N   0  0  0  0  0  0  0  0  0  0  0  0
   -3.8410   24.0790  -30.2860 C   0  0  0  0  0  0  0  0  0  0  0  0
   -3.8770   25.2160  -30.8260 O   0  0  0  0  0  0  0  0  0  0  0  0
   -5.0490   23.5690  -29.5590 C   0  0  0  0  0  0  0  0  0  0  0  0
   -6.5440   24.0440  -30.4060 Cl  0  0  0  0  0  0  0  0  0  0  0  0
   -2.7520   25.6740  -29.2970 H   0  0  0  0  0  0  0  0  0  0  0  0
    0.3843   22.0748  -30.0104 H   0  0  0  0  0  0  0  0  0  0  0  0
   -0.1517   19.8680  -31.7579 H   0  0  0  0  0  0  0  0  0  0  0  0
   -1.9575   18.8263  -33.1699 H   0  0  0  0  0  0  0  0  0  0  0  0
   -4.8383   20.3978  -34.3306 H   0  0  0  0  0  0  0  0  0  0  0  0
   -4.1516   18.7793  -33.9434 H   0  0  0  0  0  0  0  0  0  0  0  0
   -7.1110   19.6900  -34.0840 H   0  0  0  0  0  0  0  0  0  0  0  0
   -8.0720   17.9367  -33.0730 H   0  0  0  0  0  0  0  0  0  0  0  0
   -7.7085   18.5958  -31.4317 H   0  0  0  0  0  0  0  0  0  0  0  0
   -9.7419   19.7253  -33.4173 H   0  0  0  0  0  0  0  0  0  0  0  0
  -10.0891   18.7448  -31.9099 H   0  0  0  0  0  0  0  0  0  0  0  0
   -8.4419   22.4030  -31.2921 H   0  0  0  0  0  0  0  0  0  0  0  0
   -7.7109   20.8640  -30.6385 H   0  0  0  0  0  0  0  0  0  0  0  0
   -7.8682   21.6662  -33.5780 H   0  0  0  0  0  0  0  0  0  0  0  0
   -6.4013   21.7214  -32.5121 H   0  0  0  0  0  0  0  0  0  0  0  0
   -4.6774   22.0549  -32.0714 H   0  0  0  0  0  0  0  0  0  0  0  0
   -4.9995   22.4716  -29.5026 H   0  0  0  0  0  0  0  0  0  0  0  0
   -5.0625   24.0038  -28.5487 H   0  0  0  0  0  0  0  0  0  0  0  0
  1  2  1  0
  2  3  2  0
  2  4  1  0
  4  5  2  0
  5  6  1  0
  6  7  2  0
  7  8  1  0
  8  9  2  0
  9 10  1  0
 10 11  1  0
 11 12  2  0
 11 13  1  0
 13 14  1  0
 14 15  1  0
 15 16  1  0
 16 17  1  0
 17 18  1  0
  9 19  1  0
 19 20  2  0
 20 21  1  0
 21 22  1  0
 22 23  2  0
 22 24  1  0
 24 25  1  0
 21  4  1  0
 20  6  1  0
 18 13  1  0
  1 26  1  0
  5 27  1  0
  7 28  1  0
  8 29  1  0
 10 30  1  0
 10 31  1  0
 13 32  1  0
 14 33  1  0
 14 34  1  0
 15 35  1  0
 15 36  1  0
 17 37  1  0
 17 38  1  0
 18 39  1  0
 18 40  1  0
 19 41  1  0
 24 42  1  0
 24 43  1  0
M  CHG  2   1  -1  13   1
M  END
>  <UniqueID>  (52) 
51

>  <SMILES>  (52) 
[NH-]C(=O)c1cc2ccc(CC(=O)[NH+]3CCOCC3)cc2n1C(=O)CCl

>  <Energy>  (52) 
95.1237783500611

>  <Genealogy>  (52) 
[NH-]C(=O)c1cc2ccc(CC(=O)[NH+]3CCOCC3)cc2n1C(=O)CCl (protonated)
[NH-]C(=O)c1cc2ccc(CC(=O)[NH+]3CCOCC3)cc2n1C(=O)CCl (3D coordinates assigned)
[NH-]C(=O)c1cc2ccc(CC(=O)[NH+]3CCOCC3)cc2n1C(=O)CCl (nonaromatic ring conformer: 95.1237783500611 kcal/mol)

>  <smiles>  (52) 
NC(=O)c1cc2ccc(CC(=O)N3CCOCC3)cc2n1C(=O)CCl

>  <score_type>  (52) 
oracle

>  <origin>  (52) 
adg

>  <m_score__min__energy>  (52) 
-10.859999999999999

>  <m_primary>  (52) 
energy

$$$$
53:0
     RDKit          3D

 37 38  0  0  0  0  0  0  0  0999 V2000
   -2.9340   21.5550  -28.7640 C   0  0  0  0  0  0  0  0  0  0  0  0
   -3.1050   22.6640  -29.4950 C   0  0  0  0  0  0  0  0  0  0  0  0
   -2.7970   23.9330  -28.9800 O   0  0  0  0  0  0  0  0  0  0  0  0
   -1.5050   24.4600  -28.8470 C   0  0  0  0  0  0  0  0  0  0  0  0
   -0.4610   23.6560  -28.1500 C   0  0  0  0  0  0  0  0  0  0  0  0
   -1.2420   25.6370  -29.2150 O   0  0  0  0  0  0  0  0  0  0  0  0
   -3.6760   22.5940  -30.8580 C   0  0  0  0  0  0  0  0  0  0  0  0
   -2.9430   22.3210  -31.8480 O   0  0  0  0  0  0  0  0  0  0  0  0
   -5.0760   22.8380  -31.0640 N   0  0  0  0  0  0  0  0  0  0  0  0
   -5.7640   23.9930  -30.8410 C   0  0  0  0  0  0  0  0  0  0  0  0
   -5.1780   25.2860  -30.4250 C   0  0  0  0  0  0  0  0  0  0  0  0
   -3.8750   25.6740  -30.8490 N   0  0  0  0  0  0  0  0  0  0  0  0
   -5.8510   26.0720  -29.7050 O   0  0  0  0  0  0  0  0  0  0  0  0
   -7.1180   23.8140  -31.1260 C   0  0  0  0  0  0  0  0  0  0  0  0
   -7.2350   22.5040  -31.5320 C   0  0  0  0  0  0  0  0  0  0  0  0
   -8.3560   21.7900  -31.9450 C   0  0  0  0  0  0  0  0  0  0  0  0
   -8.1840   20.4430  -32.3020 C   0  0  0  0  0  0  0  0  0  0  0  0
   -6.9080   19.8240  -32.2160 C   0  0  0  0  0  0  0  0  0  0  0  0
   -6.7220   18.3840  -32.6380 C   0  0  0  0  0  0  0  0  0  0  0  0
   -6.0710   18.3190  -34.0180 C   0  0  0  0  0  0  0  0  0  0  0  0
   -5.9170   17.7220  -31.7260 F   0  0  0  0  0  0  0  0  0  0  0  0
   -7.9420   17.7300  -32.6830 F   0  0  0  0  0  0  0  0  0  0  0  0
   -5.7930   20.5900  -31.8040 C   0  0  0  0  0  0  0  0  0  0  0  0
   -5.9910   21.9360  -31.4790 C   0  0  0  0  0  0  0  0  0  0  0  0
   -3.1827   20.5718  -29.1899 H   0  0  0  0  0  0  0  0  0  0  0  0
   -2.5449   21.6273  -27.7377 H   0  0  0  0  0  0  0  0  0  0  0  0
   -0.5884   23.7541  -27.0618 H   0  0  0  0  0  0  0  0  0  0  0  0
   -0.5601   22.5987  -28.4369 H   0  0  0  0  0  0  0  0  0  0  0  0
    0.5359   24.0219  -28.4369 H   0  0  0  0  0  0  0  0  0  0  0  0
   -3.0230   25.2990  -30.3760 H   0  0  0  0  0  0  0  0  0  0  0  0
   -7.9213   24.5610  -31.0437 H   0  0  0  0  0  0  0  0  0  0  0  0
   -9.3465   22.2664  -31.9903 H   0  0  0  0  0  0  0  0  0  0  0  0
   -9.0481   19.8596  -32.6527 H   0  0  0  0  0  0  0  0  0  0  0  0
   -4.9822   18.2103  -33.9050 H   0  0  0  0  0  0  0  0  0  0  0  0
   -6.4702   17.4562  -34.5715 H   0  0  0  0  0  0  0  0  0  0  0  0
   -6.2917   19.2436  -34.5715 H   0  0  0  0  0  0  0  0  0  0  0  0
   -4.7924   20.1375  -31.7405 H   0  0  0  0  0  0  0  0  0  0  0  0
  1  2  2  0
  2  3  1  0
  3  4  1  0
  4  5  1  0
  4  6  2  0
  2  7  1  0
  7  8  2  0
  7  9  1  0
  9 10  1  0
 10 11  1  0
 11 12  1  0
 11 13  2  0
 10 14  2  0
 14 15  1  0
 15 16  2  0
 16 17  1  0
 17 18  2  0
 18 19  1  0
 19 20  1  0
 19 21  1  0
 19 22  1  0
 18 23  1  0
 23 24  2  0
 24  9  1  0
 24 15  1  0
  1 25  1  0
  1 26  1  0
  5 27  1  0
  5 28  1  0
  5 29  1  0
 12 30  1  0
 14 31  1  0
 16 32  1  0
 17 33  1  0
 20 34  1  0
 20 35  1  0
 20 36  1  0
 23 37  1  0
M  CHG  1  12  -1
M  END
>  <UniqueID>  (53) 
52

>  <SMILES>  (53) 
C=C(OC(C)=O)C(=O)n1c(C([NH-])=O)cc2ccc(C(C)(F)F)cc21

>  <Energy>  (53) 
75.83261466644677

>  <Genealogy>  (53) 
C=C(OC(C)=O)C(=O)n1c(C([NH-])=O)cc2ccc(C(C)(F)F)cc21 (protonated)
C=C(OC(C)=O)C(=O)n1c(C([NH-])=O)cc2ccc(C(C)(F)F)cc21 (3D coordinates assigned)
C=C(OC(C)=O)C(=O)n1c(C([NH-])=O)cc2ccc(C(C)(F)F)cc21 (optimized conformer: 75.83261466644677 kcal/mol)

>  <smiles>  (53) 
C=C(OC(C)=O)C(=O)n1c(C(N)=O)cc2ccc(C(C)(F)F)cc21

>  <score_type>  (53) 
oracle

>  <origin>  (53) 
adg

>  <m_score__min__energy>  (53) 
-10.5

>  <m_primary>  (53) 
energy

$$$$
54:0
     RDKit          3D

 36 37  0  0  0  0  0  0  0  0999 V2000
   -5.5680   24.7000  -28.9720 N   0  0  0  0  0  0  0  0  0  0  0  0
   -6.0110   24.4880  -30.3130 C   0  0  0  0  0  0  0  0  0  0  0  0
   -6.1550   25.4790  -31.0770 O   0  0  0  0  0  0  0  0  0  0  0  0
   -6.3410   23.1300  -30.7920 C   0  0  0  0  0  0  0  0  0  0  0  0
   -7.6450   22.6720  -30.9640 C   0  0  0  0  0  0  0  0  0  0  0  0
   -7.5240   21.4490  -31.5780 C   0  0  0  0  0  0  0  0  0  0  0  0
   -8.5070   20.5630  -32.0080 C   0  0  0  0  0  0  0  0  0  0  0  0
   -8.0960   19.3710  -32.6260 C   0  0  0  0  0  0  0  0  0  0  0  0
   -6.7180   19.0770  -32.7910 C   0  0  0  0  0  0  0  0  0  0  0  0
   -6.2880   17.8140  -33.4930 C   0  0  0  0  0  0  0  0  0  0  0  0
   -6.1190   18.0420  -34.8480 F   0  0  0  0  0  0  0  0  0  0  0  0
   -5.0880   17.3530  -32.9800 F   0  0  0  0  0  0  0  0  0  0  0  0
   -7.2550   16.8430  -33.3170 F   0  0  0  0  0  0  0  0  0  0  0  0
   -5.7500   20.0180  -32.3680 C   0  0  0  0  0  0  0  0  0  0  0  0
   -6.1890   21.1990  -31.7570 C   0  0  0  0  0  0  0  0  0  0  0  0
   -5.4440   22.2150  -31.2650 N   0  0  0  0  0  0  0  0  0  0  0  0
   -4.0060   22.2740  -31.2230 C   0  0  0  0  0  0  0  0  0  0  0  0
   -3.3640   22.5130  -32.2820 O   0  0  0  0  0  0  0  0  0  0  0  0
   -3.2430   22.0110  -29.9440 C   0  0  2  0  0  0  0  0  0  0  0  0
   -4.1530   22.1450  -28.8040 N   0  0  0  0  0  0  0  0  0  0  0  0
   -2.0380   22.9640  -29.7920 C   0  0  0  0  0  0  0  0  0  0  0  0
   -2.5410   24.6610  -29.3480 P   0  0  0  0  0  0  0  0  0  0  0  0
   -3.3280   24.6490  -28.0570 O   0  0  0  0  0  0  0  0  0  0  0  0
   -1.1830   25.6500  -29.1690 O   0  0  0  0  0  0  0  0  0  0  0  0
   -3.5130   25.2830  -30.5830 O   0  0  0  0  0  0  0  0  0  0  0  0
   -5.3970   23.8970  -28.3270 H   0  0  0  0  0  0  0  0  0  0  0  0
   -5.3730   25.6670  -28.6310 H   0  0  0  0  0  0  0  0  0  0  0  0
   -8.5747   23.1815  -30.6705 H   0  0  0  0  0  0  0  0  0  0  0  0
   -9.5743   20.7896  -31.8680 H   0  0  0  0  0  0  0  0  0  0  0  0
   -8.8512   18.6570  -32.9863 H   0  0  0  0  0  0  0  0  0  0  0  0
   -4.6770   19.8263  -32.5157 H   0  0  0  0  0  0  0  0  0  0  0  0
   -2.8426   20.9871  -29.9800 H   0  0  0  0  0  0  0  0  0  0  0  0
   -3.6030   22.4560  -27.9690 H   0  0  0  0  0  0  0  0  0  0  0  0
   -4.8610   22.8890  -29.0060 H   0  0  0  0  0  0  0  0  0  0  0  0
   -1.3772   22.5742  -29.0037 H   0  0  0  0  0  0  0  0  0  0  0  0
   -1.5243   23.0110  -30.7636 H   0  0  0  0  0  0  0  0  0  0  0  0
  1  2  1  0
  2  3  2  0
  2  4  1  0
  4  5  2  0
  5  6  1  0
  6  7  2  0
  7  8  1  0
  8  9  2  0
  9 10  1  0
 10 11  1  0
 10 12  1  0
 10 13  1  0
  9 14  1  0
 14 15  2  0
 15 16  1  0
 16 17  1  0
 17 18  2  0
 17 19  1  0
 19 20  1  0
 19 21  1  0
 21 22  1  0
 22 23  2  0
 22 24  1  0
 22 25  1  0
 16  4  1  0
 15  6  1  0
  1 26  1  0
  1 27  1  0
  5 28  1  0
  7 29  1  0
  8 30  1  0
 14 31  1  0
 19 32  1  6
 20 33  1  0
 20 34  1  0
 21 35  1  0
 21 36  1  0
M  CHG  2  24  -1  25  -1
M  END
>  <UniqueID>  (54) 
53

>  <SMILES>  (54) 
NC(=O)c1cc2ccc(C(F)(F)F)cc2n1C(=O)[C@H](N)CP(=O)([O-])[O-]

>  <Energy>  (54) 
70.68016929125689

>  <Genealogy>  (54) 
NC(=O)c1cc2ccc(C(F)(F)F)cc2n1C(=O)C(N)CP(=O)([O-])[O-] (protonated)
NC(=O)c1cc2ccc(C(F)(F)F)cc2n1C(=O)[C@H](N)CP(=O)([O-])[O-] (chirality)
NC(=O)c1cc2ccc(C(F)(F)F)cc2n1C(=O)[C@H](N)CP(=O)([O-])[O-] (3D coordinates assigned)
NC(=O)c1cc2ccc(C(F)(F)F)cc2n1C(=O)[C@H](N)CP(=O)([O-])[O-] (optimized conformer: 70.68016929125689 kcal/mol)

>  <smiles>  (54) 
NC(=O)c1cc2ccc(C(F)(F)F)cc2n1C(=O)C(N)CP(=O)(O)O

>  <score_type>  (54) 
oracle

>  <origin>  (54) 
adg

>  <m_score__min__energy>  (54) 
-12.5

>  <m_primary>  (54) 
energy

$$$$
55:0
     RDKit          3D

 37 38  0  0  0  0  0  0  0  0999 V2000
   -4.0770   23.3410  -27.5070 C   0  0  0  0  0  0  0  0  0  0  0  0
   -3.1170   23.3510  -28.6270 N   0  0  1  0  0  0  0  0  0  0  0  0
   -1.7110   23.3970  -28.1620 C   0  0  0  0  0  0  0  0  0  0  0  0
   -0.9190   24.5340  -28.7510 C   0  0  0  0  0  0  0  0  0  0  0  0
    0.3390   24.4980  -28.7500 O   0  0  0  0  0  0  0  0  0  0  0  0
   -1.5750   25.6370  -29.2850 O   0  0  0  0  0  0  0  0  0  0  0  0
   -3.3380   22.2410  -29.5330 C   0  0  0  0  0  0  0  0  0  0  0  0
   -3.0620   21.0610  -29.1750 O   0  0  0  0  0  0  0  0  0  0  0  0
   -3.8170   22.4720  -30.9130 C   0  0  0  0  0  0  0  0  0  0  0  0
   -2.9980   22.4760  -31.8710 O   0  0  0  0  0  0  0  0  0  0  0  0
   -5.2120   22.6810  -31.1740 N   0  0  0  0  0  0  0  0  0  0  0  0
   -5.9330   23.8190  -30.9700 C   0  0  0  0  0  0  0  0  0  0  0  0
   -5.3870   25.1170  -30.5250 C   0  0  0  0  0  0  0  0  0  0  0  0
   -3.9790   25.3440  -30.5580 N   0  0  0  0  0  0  0  0  0  0  0  0
   -6.1470   26.0250  -30.0970 O   0  0  0  0  0  0  0  0  0  0  0  0
   -7.2730   23.6090  -31.2930 C   0  0  0  0  0  0  0  0  0  0  0  0
   -7.3500   22.2960  -31.7010 C   0  0  0  0  0  0  0  0  0  0  0  0
   -8.4470   21.5460  -32.1100 C   0  0  0  0  0  0  0  0  0  0  0  0
   -8.2360   20.1960  -32.4410 C   0  0  0  0  0  0  0  0  0  0  0  0
   -6.9390   19.6240  -32.3690 C   0  0  0  0  0  0  0  0  0  0  0  0
   -6.7370   18.1610  -32.6700 C   0  0  0  0  0  0  0  0  0  0  0  0
   -7.9390   17.4780  -32.6080 F   0  0  0  0  0  0  0  0  0  0  0  0
   -5.8650   17.6230  -31.7410 F   0  0  0  0  0  0  0  0  0  0  0  0
   -6.2070   17.9920  -33.9370 F   0  0  0  0  0  0  0  0  0  0  0  0
   -5.8550   20.4140  -31.9240 C   0  0  0  0  0  0  0  0  0  0  0  0
   -6.0920   21.7580  -31.6190 C   0  0  0  0  0  0  0  0  0  0  0  0
   -3.5283   23.3467  -26.5537 H   0  0  0  0  0  0  0  0  0  0  0  0
   -4.7187   24.2325  -27.5661 H   0  0  0  0  0  0  0  0  0  0  0  0
   -4.6999   22.4363  -27.5661 H   0  0  0  0  0  0  0  0  0  0  0  0
   -3.2960   24.2410  -29.1520 H   0  0  0  0  0  0  0  0  0  0  0  0
   -1.7100   23.5028  -27.0671 H   0  0  0  0  0  0  0  0  0  0  0  0
   -1.2310   22.4640  -28.4922 H   0  0  0  0  0  0  0  0  0  0  0  0
   -3.4660   25.6620  -29.7060 H   0  0  0  0  0  0  0  0  0  0  0  0
   -8.0948   24.3379  -31.2343 H   0  0  0  0  0  0  0  0  0  0  0  0
   -9.4492   21.9951  -32.1727 H   0  0  0  0  0  0  0  0  0  0  0  0
   -9.0865   19.5754  -32.7597 H   0  0  0  0  0  0  0  0  0  0  0  0
   -4.8487   19.9820  -31.8200 H   0  0  0  0  0  0  0  0  0  0  0  0
  1  2  1  0
  2  3  1  0
  3  4  1  0
  4  5  2  0
  4  6  1  0
  2  7  1  0
  7  8  2  0
  7  9  1  0
  9 10  2  0
  9 11  1  0
 11 12  1  0
 12 13  1  0
 13 14  1  0
 13 15  2  0
 12 16  2  0
 16 17  1  0
 17 18  2  0
 18 19  1  0
 19 20  2  0
 20 21  1  0
 21 22  1  0
 21 23  1  0
 21 24  1  0
 20 25  1  0
 25 26  2  0
 26 11  1  0
 26 17  1  0
  1 27  1  0
  1 28  1  0
  1 29  1  0
  2 30  1  6
  3 31  1  0
  3 32  1  0
 14 33  1  0
 16 34  1  0
 18 35  1  0
 19 36  1  0
 25 37  1  0
M  CHG  3   2   1   6  -1  14  -1
M  END
>  <UniqueID>  (55) 
54

>  <SMILES>  (55) 
C[N@@H+](CC(=O)[O-])C(=O)C(=O)n1c(C([NH-])=O)cc2ccc(C(F)(F)F)cc21

>  <Energy>  (55) 
80.54534040675999

>  <Genealogy>  (55) 
C[NH+](CC(=O)[O-])C(=O)C(=O)n1c(C([NH-])=O)cc2ccc(C(F)(F)F)cc21 (protonated)
C[N@@H+](CC(=O)[O-])C(=O)C(=O)n1c(C([NH-])=O)cc2ccc(C(F)(F)F)cc21 (chirality)
C[N@@H+](CC(=O)[O-])C(=O)C(=O)n1c(C([NH-])=O)cc2ccc(C(F)(F)F)cc21 (3D coordinates assigned)
C[N@@H+](CC(=O)[O-])C(=O)C(=O)n1c(C([NH-])=O)cc2ccc(C(F)(F)F)cc21 (optimized conformer: 80.54534040675999 kcal/mol)

>  <smiles>  (55) 
CN(CC(=O)O)C(=O)C(=O)n1c(C(N)=O)cc2ccc(C(F)(F)F)cc21

>  <score_type>  (55) 
oracle

>  <origin>  (55) 
adg

>  <m_score__min__energy>  (55) 
-11.52

>  <m_primary>  (55) 
energy

$$$$
56:0
     RDKit          3D

 42 43  0  0  0  0  0  0  0  0999 V2000
   -6.9160   24.2260  -30.8250 C   0  0  0  0  0  0  0  0  0  0  0  0
   -6.0510   23.2090  -31.4170 N   0  0  0  0  0  0  0  0  0  0  0  0
   -6.4920   21.8730  -31.7300 C   0  0  0  0  0  0  0  0  0  0  0  0
   -7.7950   21.4700  -31.3440 C   0  0  0  0  0  0  0  0  0  0  0  0
   -8.2660   20.1790  -31.6400 C   0  0  0  0  0  0  0  0  0  0  0  0
   -7.4180   19.3130  -32.3220 C   0  0  0  0  0  0  0  0  0  0  0  0
   -7.6150   18.0080  -32.7100 C   0  0  0  0  0  0  0  0  0  0  0  0
   -6.4340   17.6290  -33.3450 C   0  0  0  0  0  0  0  0  0  0  0  0
   -6.2440   16.3100  -33.9830 C   0  0  0  0  0  0  0  0  0  0  0  0
   -4.9400   15.7490  -34.1490 N   0  0  0  0  0  0  0  0  0  0  0  0
   -7.2430   15.6970  -34.4460 O   0  0  0  0  0  0  0  0  0  0  0  0
   -5.5320   18.6510  -33.3340 N   0  0  0  0  0  0  0  0  0  0  0  0
   -4.1620   18.6130  -33.7680 C   0  0  0  0  0  0  0  0  0  0  0  0
   -3.8790   18.2100  -34.9310 O   0  0  0  0  0  0  0  0  0  0  0  0
   -3.1430   18.9960  -32.8940 O   0  0  0  0  0  0  0  0  0  0  0  0
   -2.2990   20.1200  -33.1250 C   0  0  0  0  0  0  0  0  0  0  0  0
   -2.0440   20.7860  -31.8920 O   0  0  0  0  0  0  0  0  0  0  0  0
   -2.7200   21.9460  -31.5030 C   0  0  0  0  0  0  0  0  0  0  0  0
   -3.3550   22.6320  -32.3520 O   0  0  0  0  0  0  0  0  0  0  0  0
   -2.6860   22.3420  -30.1260 N   0  0  0  0  0  0  0  0  0  0  0  0
   -3.6330   23.2540  -29.4800 C   0  0  1  0  0  0  0  0  0  0  0  0
   -3.6570   23.0500  -27.9880 C   0  0  0  0  0  0  0  0  0  0  0  0
   -3.5290   21.9290  -27.5190 O   0  0  0  0  0  0  0  0  0  0  0  0
   -3.3230   24.6790  -29.8490 C   0  0  0  0  0  0  0  0  0  0  0  0
   -2.3720   25.2980  -29.3000 O   0  0  0  0  0  0  0  0  0  0  0  0
   -4.0570   25.3070  -30.8480 O   0  0  0  0  0  0  0  0  0  0  0  0
   -6.1560   19.6810  -32.7120 C   0  0  0  0  0  0  0  0  0  0  0  0
   -5.6540   20.9580  -32.4160 C   0  0  0  0  0  0  0  0  0  0  0  0
   -6.8608   24.1611  -29.7283 H   0  0  0  0  0  0  0  0  0  0  0  0
   -6.5852   25.2233  -31.1504 H   0  0  0  0  0  0  0  0  0  0  0  0
   -7.9535   24.0595  -31.1504 H   0  0  0  0  0  0  0  0  0  0  0  0
   -5.0550   23.4680  -31.5990 H   0  0  0  0  0  0  0  0  0  0  0  0
   -8.4453   22.1758  -30.8065 H   0  0  0  0  0  0  0  0  0  0  0  0
   -9.2762   19.8628  -31.3408 H   0  0  0  0  0  0  0  0  0  0  0  0
   -8.5140   17.3940  -32.5524 H   0  0  0  0  0  0  0  0  0  0  0  0
   -4.8280   14.7980  -34.5650 H   0  0  0  0  0  0  0  0  0  0  0  0
   -4.0830   16.3040  -33.9360 H   0  0  0  0  0  0  0  0  0  0  0  0
   -1.3481   19.7805  -33.5614 H   0  0  0  0  0  0  0  0  0  0  0  0
   -2.7954   20.8136  -33.8196 H   0  0  0  0  0  0  0  0  0  0  0  0
   -4.6441   23.0253  -29.8479 H   0  0  0  0  0  0  0  0  0  0  0  0
   -3.7901   23.9126  -27.3186 H   0  0  0  0  0  0  0  0  0  0  0  0
   -4.6329   21.2425  -32.7098 H   0  0  0  0  0  0  0  0  0  0  0  0
  1  2  1  0
  2  3  1  0
  3  4  2  0
  4  5  1  0
  5  6  2  0
  6  7  1  0
  7  8  2  0
  8  9  1  0
  9 10  1  0
  9 11  2  0
  8 12  1  0
 12 13  1  0
 13 14  2  0
 13 15  1  0
 15 16  1  0
 16 17  1  0
 17 18  1  0
 18 19  2  0
 18 20  1  0
 20 21  1  0
 21 22  1  0
 22 23  2  0
 21 24  1  0
 24 25  2  0
 24 26  1  0
 12 27  1  0
 27 28  2  0
 28  3  1  0
 27  6  1  0
  1 29  1  0
  1 30  1  0
  1 31  1  0
  2 32  1  0
  4 33  1  0
  5 34  1  0
  7 35  1  0
 10 36  1  0
 10 37  1  0
 16 38  1  0
 16 39  1  0
 21 40  1  6
 22 41  1  0
 28 42  1  0
M  CHG  2  20  -1  26  -1
M  END
>  <UniqueID>  (56) 
55

>  <SMILES>  (56) 
CNc1ccc2cc(C(N)=O)n(C(=O)OCOC(=O)[N-][C@@H](C=O)C(=O)[O-])c2c1

>  <Energy>  (56) 
74.95711999035167

>  <Genealogy>  (56) 
CNc1ccc2cc(C(N)=O)n(C(=O)OCOC(=O)[N-]C(C=O)C(=O)[O-])c2c1 (protonated)
CNc1ccc2cc(C(N)=O)n(C(=O)OCOC(=O)[N-][C@@H](C=O)C(=O)[O-])c2c1 (chirality)
CNc1ccc2cc(C(N)=O)n(C(=O)OCOC(=O)[N-][C@@H](C=O)C(=O)[O-])c2c1 (3D coordinates assigned)
CNc1ccc2cc(C(N)=O)n(C(=O)OCOC(=O)[N-][C@@H](C=O)C(=O)[O-])c2c1 (optimized conformer: 74.95711999035167 kcal/mol)

>  <smiles>  (56) 
CNc1ccc2cc(C(N)=O)n(C(=O)OCOC(=O)NC(C=O)C(=O)O)c2c1

>  <score_type>  (56) 
oracle

>  <origin>  (56) 
adg

>  <m_score__min__energy>  (56) 
-11.550000000000001

>  <m_primary>  (56) 
energy

$$$$
57:0
     RDKit          3D

 37 38  0  0  0  0  0  0  0  0999 V2000
   -6.7190   18.1320  -32.4680 C   0  0  0  0  0  0  0  0  0  0  0  0
   -6.9690   19.5850  -32.1840 C   0  0  0  0  0  0  0  0  0  0  0  0
   -8.2920   20.0910  -32.1940 C   0  0  0  0  0  0  0  0  0  0  0  0
   -8.5470   21.4340  -31.8620 C   0  0  0  0  0  0  0  0  0  0  0  0
   -7.4650   22.2380  -31.5180 C   0  0  0  0  0  0  0  0  0  0  0  0
   -7.4260   23.5520  -31.1010 C   0  0  0  0  0  0  0  0  0  0  0  0
   -6.0800   23.8260  -30.8580 C   0  0  0  0  0  0  0  0  0  0  0  0
   -5.5840   25.1320  -30.3690 C   0  0  0  0  0  0  0  0  0  0  0  0
   -4.2240   25.5300  -30.5320 N   0  0  0  0  0  0  0  0  0  0  0  0
   -6.3920   25.9350  -29.8360 O   0  0  0  0  0  0  0  0  0  0  0  0
   -5.3220   22.7250  -31.1130 N   0  0  0  0  0  0  0  0  0  0  0  0
   -3.9190   22.5530  -30.8800 C   0  0  0  0  0  0  0  0  0  0  0  0
   -3.1040   23.1590  -31.6200 O   0  0  0  0  0  0  0  0  0  0  0  0
   -3.4680   21.6600  -29.7800 C   0  0  0  0  0  0  0  0  0  0  0  0
   -3.3290   20.4350  -30.0550 O   0  0  0  0  0  0  0  0  0  0  0  0
   -3.1540   22.1160  -28.4400 N   0  0  0  0  0  0  0  0  0  0  0  0
   -2.7970   21.1030  -27.4360 C   0  0  0  0  0  0  0  0  0  0  0  0
   -3.1310   23.5350  -28.0500 C   0  0  0  0  0  0  0  0  0  0  0  0
   -1.9810   24.2510  -28.6900 C   0  0  0  0  0  0  0  0  0  0  0  0
   -2.1750   25.3050  -29.3520 O   0  0  0  0  0  0  0  0  0  0  0  0
   -0.7020   23.7180  -28.6080 O   0  0  0  0  0  0  0  0  0  0  0  0
   -6.1800   21.7620  -31.5100 C   0  0  0  0  0  0  0  0  0  0  0  0
   -5.8960   20.4310  -31.8250 C   0  0  0  0  0  0  0  0  0  0  0  0
   -6.6247   17.5838  -31.5190 H   0  0  0  0  0  0  0  0  0  0  0  0
   -7.5597   17.7215  -33.0465 H   0  0  0  0  0  0  0  0  0  0  0  0
   -5.7894   18.0261  -33.0465 H   0  0  0  0  0  0  0  0  0  0  0  0
   -9.1273   19.4280  -32.4637 H   0  0  0  0  0  0  0  0  0  0  0  0
   -9.5708   21.8362  -31.8740 H   0  0  0  0  0  0  0  0  0  0  0  0
   -8.2770   24.2392  -30.9846 H   0  0  0  0  0  0  0  0  0  0  0  0
   -3.5820   25.0250  -31.1760 H   0  0  0  0  0  0  0  0  0  0  0  0
   -3.8900   26.4230  -30.1060 H   0  0  0  0  0  0  0  0  0  0  0  0
   -2.9434   21.5183  -26.4280 H   0  0  0  0  0  0  0  0  0  0  0  0
   -3.4373   20.2179  -27.5644 H   0  0  0  0  0  0  0  0  0  0  0  0
   -1.7432   20.8149  -27.5644 H   0  0  0  0  0  0  0  0  0  0  0  0
   -4.0712   24.0100  -28.3667 H   0  0  0  0  0  0  0  0  0  0  0  0
   -3.0164   23.5956  -26.9577 H   0  0  0  0  0  0  0  0  0  0  0  0
   -4.8640   20.0516  -31.7943 H   0  0  0  0  0  0  0  0  0  0  0  0
  1  2  1  0
  2  3  2  0
  3  4  1  0
  4  5  2  0
  5  6  1  0
  6  7  2  0
  7  8  1  0
  8  9  1  0
  8 10  2  0
  7 11  1  0
 11 12  1  0
 12 13  2  0
 12 14  1  0
 14 15  2  0
 14 16  1  0
 16 17  1  0
 16 18  1  0
 18 19  1  0
 19 20  2  0
 19 21  1  0
 11 22  1  0
 22 23  2  0
 23  2  1  0
 22  5  1  0
  1 24  1  0
  1 25  1  0
  1 26  1  0
  3 27  1  0
  4 28  1  0
  6 29  1  0
  9 30  1  0
  9 31  1  0
 17 32  1  0
 17 33  1  0
 17 34  1  0
 18 35  1  0
 18 36  1  0
 23 37  1  0
M  CHG  1  21  -1
M  END
>  <UniqueID>  (57) 
56

>  <SMILES>  (57) 
Cc1ccc2cc(C(N)=O)n(C(=O)C(=O)N(C)CC(=O)[O-])c2c1

>  <Energy>  (57) 
78.82302735296193

>  <Genealogy>  (57) 
Cc1ccc2cc(C(N)=O)n(C(=O)C(=O)N(C)CC(=O)[O-])c2c1 (protonated)
Cc1ccc2cc(C(N)=O)n(C(=O)C(=O)N(C)CC(=O)[O-])c2c1 (3D coordinates assigned)
Cc1ccc2cc(C(N)=O)n(C(=O)C(=O)N(C)CC(=O)[O-])c2c1 (optimized conformer: 78.82302735296193 kcal/mol)

>  <smiles>  (57) 
Cc1ccc2cc(C(N)=O)n(C(=O)C(=O)N(C)CC(=O)O)c2c1

>  <score_type>  (57) 
oracle

>  <origin>  (57) 
adg

>  <m_score__min__energy>  (57) 
-10.94

>  <m_primary>  (57) 
energy

$$$$
58:0
     RDKit          3D

 49 52  0  0  0  0  0  0  0  0999 V2000
   -8.0030   20.8220  -31.1250 C   0  0  0  0  0  0  0  0  0  0  0  0
   -7.8820   19.3180  -32.0710 S   0  0  0  0  0  0  0  0  0  0  0  0
   -8.7130   19.4710  -33.3140 O   0  0  0  0  0  0  0  0  0  0  0  0
   -8.4170   18.1760  -31.2540 O   0  0  0  0  0  0  0  0  0  0  0  0
   -6.2160   19.0260  -32.5120 N   0  0  0  0  0  0  0  0  0  0  0  0
   -5.8630   17.5940  -32.3450 C   0  0  0  0  0  0  0  0  0  0  0  0
   -4.7470   17.1450  -33.3140 C   0  0  1  0  0  0  0  0  0  0  0  0
   -5.2230   17.3020  -34.7730 C   0  0  0  0  0  0  0  0  0  0  0  0
   -6.0830   18.5590  -34.9760 C   0  0  0  0  0  0  0  0  0  0  0  0
   -5.8820   19.5890  -33.8460 C   0  0  2  0  0  0  0  0  0  0  0  0
   -4.4300   20.1190  -33.8260 C   0  0  0  0  0  0  0  0  0  0  0  0
   -3.5870   19.3470  -32.8990 N   0  0  0  0  0  0  0  0  0  0  0  0
   -2.7450   20.0480  -31.9670 C   0  0  0  0  0  0  0  0  0  0  0  0
   -1.5450   19.4500  -31.5080 C   0  0  0  0  0  0  0  0  0  0  0  0
   -0.7110   20.1240  -30.6020 C   0  0  0  0  0  0  0  0  0  0  0  0
   -1.1060   21.3840  -30.1650 C   0  0  0  0  0  0  0  0  0  0  0  0
   -0.4700   22.2620  -29.3170 C   0  0  0  0  0  0  0  0  0  0  0  0
   -1.3090   23.3720  -29.2440 C   0  0  0  0  0  0  0  0  0  0  0  0
   -1.0360   24.5390  -28.3810 C   0  0  0  0  0  0  0  0  0  0  0  0
   -1.1900   25.8710  -28.8700 N   0  0  0  0  0  0  0  0  0  0  0  0
   -0.7190   24.3550  -27.1760 O   0  0  0  0  0  0  0  0  0  0  0  0
   -2.4120   23.1960  -30.0240 N   0  0  0  0  0  0  0  0  0  0  0  0
   -3.4420   24.1590  -30.3050 C   0  0  0  0  0  0  0  0  0  0  0  0
   -3.4460   25.2770  -29.7270 O   0  0  0  0  0  0  0  0  0  0  0  0
   -4.4500   23.8620  -31.2150 O   0  0  0  0  0  0  0  0  0  0  0  0
   -2.2750   21.9700  -30.5800 C   0  0  0  0  0  0  0  0  0  0  0  0
   -3.1140   21.3290  -31.4990 C   0  0  0  0  0  0  0  0  0  0  0  0
   -3.4150   17.8930  -33.0570 C   0  0  0  0  0  0  0  0  0  0  0  0
   -7.9837   20.5825  -30.0516 H   0  0  0  0  0  0  0  0  0  0  0  0
   -7.1547   21.4782  -31.3696 H   0  0  0  0  0  0  0  0  0  0  0  0
   -8.9453   21.3342  -31.3696 H   0  0  0  0  0  0  0  0  0  0  0  0
   -5.5199   17.4330  -31.3124 H   0  0  0  0  0  0  0  0  0  0  0  0
   -6.7608   16.9992  -32.5692 H   0  0  0  0  0  0  0  0  0  0  0  0
   -4.5389   16.0809  -33.1286 H   0  0  0  0  0  0  0  0  0  0  0  0
   -4.3412   17.3678  -35.4272 H   0  0  0  0  0  0  0  0  0  0  0  0
   -5.8432   16.4276  -35.0196 H   0  0  0  0  0  0  0  0  0  0  0  0
   -5.8087   19.0254  -35.9338 H   0  0  0  0  0  0  0  0  0  0  0  0
   -7.1390   18.2512  -34.9695 H   0  0  0  0  0  0  0  0  0  0  0  0
   -6.5716   20.4199  -34.0560 H   0  0  0  0  0  0  0  0  0  0  0  0
   -4.0082   20.0444  -34.8392 H   0  0  0  0  0  0  0  0  0  0  0  0
   -4.4489   21.1649  -33.4859 H   0  0  0  0  0  0  0  0  0  0  0  0
   -1.2644   18.4481  -31.8651 H   0  0  0  0  0  0  0  0  0  0  0  0
    0.2263   19.6695  -30.2485 H   0  0  0  0  0  0  0  0  0  0  0  0
    0.4937   22.1182  -28.8065 H   0  0  0  0  0  0  0  0  0  0  0  0
   -0.9580   26.6840  -28.2570 H   0  0  0  0  0  0  0  0  0  0  0  0
   -1.6080   26.0560  -29.8080 H   0  0  0  0  0  0  0  0  0  0  0  0
   -4.0388   21.8112  -31.8486 H   0  0  0  0  0  0  0  0  0  0  0  0
   -2.7421   17.7110  -33.9079 H   0  0  0  0  0  0  0  0  0  0  0  0
   -3.0011   17.5084  -32.1132 H   0  0  0  0  0  0  0  0  0  0  0  0
  1  2  1  0
  2  3  2  0
  2  4  2  0
  2  5  1  0
  5  6  1  0
  6  7  1  0
  7  8  1  0
  8  9  1  0
  9 10  1  0
 10 11  1  0
 11 12  1  0
 12 13  1  0
 13 14  2  0
 14 15  1  0
 15 16  2  0
 16 17  1  0
 17 18  2  0
 18 19  1  0
 19 20  1  0
 19 21  2  0
 18 22  1  0
 22 23  1  0
 23 24  2  0
 23 25  1  0
 22 26  1  0
 26 27  2  0
 12 28  1  0
 10  5  1  0
 27 13  1  0
 28  7  1  0
 26 16  1  0
  1 29  1  0
  1 30  1  0
  1 31  1  0
  6 32  1  0
  6 33  1  0
  7 34  1  1
  8 35  1  0
  8 36  1  0
  9 37  1  0
  9 38  1  0
 10 39  1  6
 11 40  1  0
 11 41  1  0
 14 42  1  0
 15 43  1  0
 17 44  1  0
 20 45  1  0
 20 46  1  0
 27 47  1  0
 28 48  1  0
 28 49  1  0
M  CHG  1  25  -1
M  END
>  <UniqueID>  (58) 
57

>  <SMILES>  (58) 
CS(=O)(=O)N1C[C@H]2CC[C@@H]1CN(c1ccc3cc(C(N)=O)n(C(=O)[O-])c3c1)C2

>  <Energy>  (58) 
104.37160999002418

>  <Genealogy>  (58) 
CS(=O)(=O)N1CC2CCC1CN(c1ccc3cc(C(N)=O)n(C(=O)[O-])c3c1)C2 (protonated)
CS(=O)(=O)N1C[C@H]2CC[C@@H]1CN(c1ccc3cc(C(N)=O)n(C(=O)[O-])c3c1)C2 (chirality)
CS(=O)(=O)N1C[C@H]2CC[C@@H]1CN(c1ccc3cc(C(N)=O)n(C(=O)[O-])c3c1)C2 (3D coordinates assigned)
CS(=O)(=O)N1C[C@H]2CC[C@@H]1CN(c1ccc3cc(C(N)=O)n(C(=O)[O-])c3c1)C2 (nonaromatic ring conformer: 104.37160999002418 kcal/mol)

>  <smiles>  (58) 
CS(=O)(=O)N1CC2CCC1CN(c1ccc3cc(C(N)=O)n(C(=O)O)c3c1)C2

>  <score_type>  (58) 
oracle

>  <origin>  (58) 
adg

>  <m_score__min__energy>  (58) 
-9.4800000000000004

>  <m_primary>  (58) 
energy

$$$$
59:0
     RDKit          3D

 55 58  0  0  0  0  0  0  0  0999 V2000
   -3.8620   25.3060  -30.6590 N   0  0  0  0  0  0  0  0  0  0  0  0
   -5.2530   25.1000  -30.4120 C   0  0  0  0  0  0  0  0  0  0  0  0
   -5.9040   26.0050  -29.8260 O   0  0  0  0  0  0  0  0  0  0  0  0
   -5.9580   23.8810  -30.8640 C   0  0  0  0  0  0  0  0  0  0  0  0
   -7.3020   23.8560  -31.2320 C   0  0  0  0  0  0  0  0  0  0  0  0
   -7.5690   22.5430  -31.5550 C   0  0  0  0  0  0  0  0  0  0  0  0
   -8.7570   21.9410  -31.9570 C   0  0  0  0  0  0  0  0  0  0  0  0
   -8.7530   20.5510  -32.1610 C   0  0  0  0  0  0  0  0  0  0  0  0
   -7.5800   19.7870  -31.9310 C   0  0  0  0  0  0  0  0  0  0  0  0
   -7.6050   18.2990  -32.1780 C   0  0  0  0  0  0  0  0  0  0  0  0
   -7.2230   18.0450  -33.4810 F   0  0  0  0  0  0  0  0  0  0  0  0
   -8.8840   17.8080  -31.9810 F   0  0  0  0  0  0  0  0  0  0  0  0
   -6.7450   17.6320  -31.3210 F   0  0  0  0  0  0  0  0  0  0  0  0
   -6.3860   20.4400  -31.5440 C   0  0  0  0  0  0  0  0  0  0  0  0
   -6.4170   21.8260  -31.3720 C   0  0  0  0  0  0  0  0  0  0  0  0
   -5.4180   22.6340  -30.9590 N   0  0  0  0  0  0  0  0  0  0  0  0
   -4.1030   22.2140  -30.5760 C   0  0  0  0  0  0  0  0  0  0  0  0
   -3.6570   22.5500  -29.4450 O   0  0  0  0  0  0  0  0  0  0  0  0
   -3.2850   21.4530  -31.4870 N   0  0  0  0  0  0  0  0  0  0  0  0
   -2.0370   20.8170  -31.0410 C   0  0  0  0  0  0  0  0  0  0  0  0
   -0.8460   21.3310  -31.8640 C   0  0  0  0  0  0  0  0  0  0  0  0
   -1.1830   21.5490  -33.3650 C   0  0  0  0  0  0  0  0  0  0  0  0
   -0.0200   21.1740  -34.2120 N   0  0  0  0  0  0  0  0  0  0  0  0
   -0.0440   19.7850  -34.7140 C   0  0  0  0  0  0  0  0  0  0  0  0
    1.3510   19.3780  -35.2230 C   0  0  0  0  0  0  0  0  0  0  0  0
    2.1810   20.5880  -35.7030 C   0  0  0  0  0  0  0  0  0  0  0  0
    3.1340   20.1810  -36.6510 O   0  0  0  0  0  0  0  0  0  0  0  0
    1.2710   21.6540  -36.3220 C   0  0  0  0  0  0  0  0  0  0  0  0
    0.2120   22.1470  -35.3090 C   0  0  0  0  0  0  0  0  0  0  0  0
   -2.5080   20.8550  -33.7750 C   0  0  0  0  0  0  0  0  0  0  0  0
   -3.6630   21.3780  -32.9090 C   0  0  0  0  0  0  0  0  0  0  0  0
   -3.4950   26.0430  -31.2980 H   0  0  0  0  0  0  0  0  0  0  0  0
   -8.0015   24.7045  -31.2590 H   0  0  0  0  0  0  0  0  0  0  0  0
   -9.6704   22.5344  -32.1103 H   0  0  0  0  0  0  0  0  0  0  0  0
   -9.6702   20.0492  -32.5031 H   0  0  0  0  0  0  0  0  0  0  0  0
   -5.4581   19.8716  -31.3829 H   0  0  0  0  0  0  0  0  0  0  0  0
   -1.8710   21.0512  -29.9791 H   0  0  0  0  0  0  0  0  0  0  0  0
   -2.1227   19.7293  -31.1811 H   0  0  0  0  0  0  0  0  0  0  0  0
   -0.5152   22.2896  -31.4379 H   0  0  0  0  0  0  0  0  0  0  0  0
   -0.0609   20.5621  -31.8152 H   0  0  0  0  0  0  0  0  0  0  0  0
   -1.3676   22.6202  -33.5334 H   0  0  0  0  0  0  0  0  0  0  0  0
   -0.3446   19.1096  -33.8994 H   0  0  0  0  0  0  0  0  0  0  0  0
   -0.7625   19.7163  -35.5441 H   0  0  0  0  0  0  0  0  0  0  0  0
    1.8933   18.8800  -34.4058 H   0  0  0  0  0  0  0  0  0  0  0  0
    1.2104   18.7066  -36.0829 H   0  0  0  0  0  0  0  0  0  0  0  0
    2.6955   21.0171  -34.8306 H   0  0  0  0  0  0  0  0  0  0  0  0
    3.3750   19.2440  -36.4270 H   0  0  0  0  0  0  0  0  0  0  0  0
    1.8860   22.5082  -36.6415 H   0  0  0  0  0  0  0  0  0  0  0  0
    0.7481   21.2075  -37.1807 H   0  0  0  0  0  0  0  0  0  0  0  0
    0.5563   23.0960  -34.8721 H   0  0  0  0  0  0  0  0  0  0  0  0
   -0.7368   22.2727  -35.8512 H   0  0  0  0  0  0  0  0  0  0  0  0
   -2.7196   21.0694  -34.8330 H   0  0  0  0  0  0  0  0  0  0  0  0
   -2.4083   19.7695  -33.6277 H   0  0  0  0  0  0  0  0  0  0  0  0
   -3.9433   22.3831  -33.2572 H   0  0  0  0  0  0  0  0  0  0  0  0
   -4.5073   20.6793  -33.0038 H   0  0  0  0  0  0  0  0  0  0  0  0
  1  2  1  0
  2  3  2  0
  2  4  1  0
  4  5  2  0
  5  6  1  0
  6  7  2  0
  7  8  1  0
  8  9  2  0
  9 10  1  0
 10 11  1  0
 10 12  1  0
 10 13  1  0
  9 14  1  0
 14 15  2  0
 15 16  1  0
 16 17  1  0
 17 18  2  0
 17 19  1  0
 19 20  1  0
 20 21  1  0
 21 22  1  0
 22 23  1  0
 23 24  1  0
 24 25  1  0
 25 26  1  0
 26 27  1  0
 26 28  1  0
 28 29  1  0
 22 30  1  0
 30 31  1  0
 16  4  1  0
 31 19  1  0
 15  6  1  0
 29 23  1  0
  1 32  1  0
  5 33  1  0
  7 34  1  0
  8 35  1  0
 14 36  1  0
 20 37  1  0
 20 38  1  0
 21 39  1  0
 21 40  1  0
 22 41  1  0
 24 42  1  0
 24 43  1  0
 25 44  1  0
 25 45  1  0
 26 46  1  0
 27 47  1  0
 28 48  1  0
 28 49  1  0
 29 50  1  0
 29 51  1  0
 30 52  1  0
 30 53  1  0
 31 54  1  0
 31 55  1  0
M  CHG  1   1  -1
M  END
>  <UniqueID>  (59) 
58

>  <SMILES>  (59) 
[NH-]C(=O)c1cc2ccc(C(F)(F)F)cc2n1C(=O)N1CCC(N2CCC(O)CC2)CC1

>  <Energy>  (59) 
110.92703200044932

>  <Genealogy>  (59) 
[NH-]C(=O)c1cc2ccc(C(F)(F)F)cc2n1C(=O)N1CCC(N2CCC(O)CC2)CC1 (protonated)
[NH-]C(=O)c1cc2ccc(C(F)(F)F)cc2n1C(=O)N1CCC(N2CCC(O)CC2)CC1 (3D coordinates assigned)
[NH-]C(=O)c1cc2ccc(C(F)(F)F)cc2n1C(=O)N1CCC(N2CCC(O)CC2)CC1 (nonaromatic ring conformer: 110.92703200044932 kcal/mol)

>  <smiles>  (59) 
NC(=O)c1cc2ccc(C(F)(F)F)cc2n1C(=O)N1CCC(N2CCC(O)CC2)CC1

>  <score_type>  (59) 
oracle

>  <origin>  (59) 
adg

>  <m_score__min__energy>  (59) 
-11.789999999999999

>  <m_primary>  (59) 
energy

$$$$
60:0
     RDKit          3D

 39 41  0  0  0  0  0  0  0  0999 V2000
   -3.8810   25.2440  -30.7030 N   0  0  0  0  0  0  0  0  0  0  0  0
   -5.2840   25.1220  -30.4830 C   0  0  0  0  0  0  0  0  0  0  0  0
   -5.9290   26.1160  -30.0560 O   0  0  0  0  0  0  0  0  0  0  0  0
   -5.9970   23.8680  -30.8030 C   0  0  0  0  0  0  0  0  0  0  0  0
   -7.3840   23.7820  -30.9080 C   0  0  0  0  0  0  0  0  0  0  0  0
   -7.6400   22.4870  -31.2960 C   0  0  0  0  0  0  0  0  0  0  0  0
   -8.8540   21.8450  -31.5240 C   0  0  0  0  0  0  0  0  0  0  0  0
   -8.8230   20.4840  -31.8740 C   0  0  0  0  0  0  0  0  0  0  0  0
   -7.5900   19.7980  -31.9910 C   0  0  0  0  0  0  0  0  0  0  0  0
   -7.5740   18.3270  -32.3050 C   0  0  0  0  0  0  0  0  0  0  0  0
   -6.5640   18.0480  -33.3210 N   0  0  0  0  0  0  0  0  0  0  0  0
   -5.8120   16.9410  -33.4270 C   0  0  0  0  0  0  0  0  0  0  0  0
   -4.9320   17.1300  -34.4700 C   0  0  0  0  0  0  0  0  0  0  0  0
   -5.1220   18.3520  -35.0080 N   0  0  0  0  0  0  0  0  0  0  0  0
   -6.1220   18.8870  -34.2770 C   0  0  0  0  0  0  0  0  0  0  0  0
   -6.3790   20.4780  -31.7390 C   0  0  0  0  0  0  0  0  0  0  0  0
   -6.4380   21.8380  -31.4090 C   0  0  0  0  0  0  0  0  0  0  0  0
   -5.4180   22.6720  -31.1080 N   0  0  0  0  0  0  0  0  0  0  0  0
   -4.0300   22.3220  -31.0130 C   0  0  0  0  0  0  0  0  0  0  0  0
   -3.5510   21.9330  -29.9130 O   0  0  0  0  0  0  0  0  0  0  0  0
   -3.2080   22.4370  -32.1380 O   0  0  0  0  0  0  0  0  0  0  0  0
   -2.1800   21.4980  -32.4430 C   0  0  0  0  0  0  0  0  0  0  0  0
   -1.8790   21.5400  -33.8170 O   0  0  0  0  0  0  0  0  0  0  0  0
   -0.2340   21.1360  -34.0360 P   0  0  0  0  0  0  0  0  0  0  0  0
   -0.1470   19.8120  -34.7610 O   0  0  0  0  0  0  0  0  0  0  0  0
    0.5330   20.9910  -32.5340 O   0  0  0  0  0  0  0  0  0  0  0  0
    0.5480   22.3190  -34.9580 O   0  0  0  0  0  0  0  0  0  0  0  0
   -3.4890   26.0510  -31.2330 H   0  0  0  0  0  0  0  0  0  0  0  0
   -8.1179   24.5797  -30.7206 H   0  0  0  0  0  0  0  0  0  0  0  0
   -9.8076   22.3858  -31.4331 H   0  0  0  0  0  0  0  0  0  0  0  0
   -9.7651   19.9471  -32.0587 H   0  0  0  0  0  0  0  0  0  0  0  0
   -7.3386   17.7614  -31.3914 H   0  0  0  0  0  0  0  0  0  0  0  0
   -8.5620   18.0263  -32.6837 H   0  0  0  0  0  0  0  0  0  0  0  0
   -5.8853   16.0440  -32.7946 H   0  0  0  0  0  0  0  0  0  0  0  0
   -4.1876   16.3959  -34.8120 H   0  0  0  0  0  0  0  0  0  0  0  0
   -6.5301   19.8949  -34.4433 H   0  0  0  0  0  0  0  0  0  0  0  0
   -5.4140   19.9535  -31.8002 H   0  0  0  0  0  0  0  0  0  0  0  0
   -1.2775   21.7460  -31.8651 H   0  0  0  0  0  0  0  0  0  0  0  0
   -2.5262   20.4873  -32.1809 H   0  0  0  0  0  0  0  0  0  0  0  0
  1  2  1  0
  2  3  2  0
  2  4  1  0
  4  5  2  0
  5  6  1  0
  6  7  2  0
  7  8  1  0
  8  9  2  0
  9 10  1  0
 10 11  1  0
 11 12  1  0
 12 13  2  0
 13 14  1  0
 14 15  2  0
  9 16  1  0
 16 17  2  0
 17 18  1  0
 18 19  1  0
 19 20  2  0
 19 21  1  0
 21 22  1  0
 22 23  1  0
 23 24  1  0
 24 25  2  0
 24 26  1  0
 24 27  1  0
 18  4  1  0
 17  6  1  0
 15 11  1  0
  1 28  1  0
  5 29  1  0
  7 30  1  0
  8 31  1  0
 10 32  1  0
 10 33  1  0
 12 34  1  0
 13 35  1  0
 15 36  1  0
 16 37  1  0
 22 38  1  0
 22 39  1  0
M  CHG  3   1  -1  26  -1  27  -1
M  END
>  <UniqueID>  (60) 
59

>  <SMILES>  (60) 
[NH-]C(=O)c1cc2ccc(Cn3ccnc3)cc2n1C(=O)OCOP(=O)([O-])[O-]

>  <Energy>  (60) 
105.30546301801859

>  <Genealogy>  (60) 
[NH-]C(=O)c1cc2ccc(Cn3ccnc3)cc2n1C(=O)OCOP(=O)([O-])[O-] (protonated)
[NH-]C(=O)c1cc2ccc(Cn3ccnc3)cc2n1C(=O)OCOP(=O)([O-])[O-] (3D coordinates assigned)
[NH-]C(=O)c1cc2ccc(Cn3ccnc3)cc2n1C(=O)OCOP(=O)([O-])[O-] (optimized conformer: 105.30546301801859 kcal/mol)

>  <smiles>  (60) 
NC(=O)c1cc2ccc(Cn3ccnc3)cc2n1C(=O)OCOP(=O)(O)O

>  <score_type>  (60) 
oracle

>  <origin>  (60) 
adg

>  <m_score__min__energy>  (60) 
-13.91

>  <m_primary>  (60) 
energy

$$$$
61:0
     RDKit          3D

 42 44  0  0  0  0  0  0  0  0999 V2000
   -4.1800   25.5240  -30.6970 N   0  0  0  0  0  0  0  0  0  0  0  0
   -5.4930   25.0190  -30.4500 C   0  0  0  0  0  0  0  0  0  0  0  0
   -6.2520   25.6370  -29.6570 O   0  0  0  0  0  0  0  0  0  0  0  0
   -5.9550   23.7540  -31.0560 C   0  0  0  0  0  0  0  0  0  0  0  0
   -7.2810   23.5250  -31.4140 C   0  0  0  0  0  0  0  0  0  0  0  0
   -7.3290   22.2060  -31.8040 C   0  0  0  0  0  0  0  0  0  0  0  0
   -8.4060   21.4410  -32.2480 C   0  0  0  0  0  0  0  0  0  0  0  0
   -8.1620   20.1010  -32.5930 C   0  0  0  0  0  0  0  0  0  0  0  0
   -6.8590   19.5610  -32.4920 C   0  0  0  0  0  0  0  0  0  0  0  0
   -6.6230   18.1880  -32.8510 C   0  0  0  0  0  0  0  0  0  0  0  0
   -6.4240   17.0380  -33.1500 C   0  0  0  0  0  0  0  0  0  0  0  0
   -6.1810   15.6360  -33.5130 C   0  0  0  0  0  0  0  0  0  0  0  0
   -4.9960   15.0030  -32.8030 C   0  0  0  0  0  0  0  0  0  0  0  0
   -4.8800   15.4080  -34.2630 C   0  0  0  0  0  0  0  0  0  0  0  0
   -5.7910   20.3610  -32.0360 C   0  0  0  0  0  0  0  0  0  0  0  0
   -6.0650   21.6890  -31.6880 C   0  0  0  0  0  0  0  0  0  0  0  0
   -5.2040   22.6320  -31.2470 N   0  0  0  0  0  0  0  0  0  0  0  0
   -3.7850   22.4670  -31.0750 C   0  0  0  0  0  0  0  0  0  0  0  0
   -2.9970   22.9630  -31.9230 O   0  0  0  0  0  0  0  0  0  0  0  0
   -3.2150   21.7460  -29.8800 C   0  0  0  0  0  0  0  0  0  0  0  0
   -2.0140   22.4650  -29.2260 C   0  0  1  0  0  0  0  0  0  0  0  0
   -0.9190   22.5670  -30.1060 O   0  0  0  0  0  0  0  0  0  0  0  0
   -2.3760   23.8230  -28.5930 C   0  0  0  0  0  0  0  0  0  0  0  0
   -2.1690   24.8740  -29.4930 O   0  0  0  0  0  0  0  0  0  0  0  0
   -3.8810   26.4320  -30.2770 H   0  0  0  0  0  0  0  0  0  0  0  0
   -3.4730   24.9630  -31.2190 H   0  0  0  0  0  0  0  0  0  0  0  0
   -8.1126   24.2446  -31.3902 H   0  0  0  0  0  0  0  0  0  0  0  0
   -9.4148   21.8725  -32.3259 H   0  0  0  0  0  0  0  0  0  0  0  0
   -8.9901   19.4677  -32.9440 H   0  0  0  0  0  0  0  0  0  0  0  0
   -7.2336   15.3583  -33.6709 H   0  0  0  0  0  0  0  0  0  0  0  0
   -4.4521   15.5668  -32.0309 H   0  0  0  0  0  0  0  0  0  0  0  0
   -4.8334   14.0731  -32.2383 H   0  0  0  0  0  0  0  0  0  0  0  0
   -4.2519   16.2650  -34.5478 H   0  0  0  0  0  0  0  0  0  0  0  0
   -4.5985   14.8925  -35.1931 H   0  0  0  0  0  0  0  0  0  0  0  0
   -4.7724   19.9535  -31.9561 H   0  0  0  0  0  0  0  0  0  0  0  0
   -4.0095   21.6442  -29.1261 H   0  0  0  0  0  0  0  0  0  0  0  0
   -2.8462   20.7745  -30.2407 H   0  0  0  0  0  0  0  0  0  0  0  0
   -1.7053   21.8231  -28.3877 H   0  0  0  0  0  0  0  0  0  0  0  0
   -1.1230   23.2710  -30.7740 H   0  0  0  0  0  0  0  0  0  0  0  0
   -3.4350   23.8090  -28.2957 H   0  0  0  0  0  0  0  0  0  0  0  0
   -1.7286   23.9822  -27.7181 H   0  0  0  0  0  0  0  0  0  0  0  0
   -2.0190   24.4550  -30.3810 H   0  0  0  0  0  0  0  0  0  0  0  0
  1  2  1  0
  2  3  2  0
  2  4  1  0
  4  5  2  0
  5  6  1  0
  6  7  2  0
  7  8  1  0
  8  9  2  0
  9 10  1  0
 10 11  3  0
 11 12  1  0
 12 13  1  0
 13 14  1  0
  9 15  1  0
 15 16  2  0
 16 17  1  0
 17 18  1  0
 18 19  2  0
 18 20  1  0
 20 21  1  0
 21 22  1  0
 21 23  1  0
 23 24  1  0
 17  4  1  0
 16  6  1  0
 14 12  1  0
  1 25  1  0
  1 26  1  0
  5 27  1  0
  7 28  1  0
  8 29  1  0
 12 30  1  0
 13 31  1  0
 13 32  1  0
 14 33  1  0
 14 34  1  0
 15 35  1  0
 20 36  1  0
 20 37  1  0
 21 38  1  1
 22 39  1  0
 23 40  1  0
 23 41  1  0
 24 42  1  0
M  END
>  <UniqueID>  (61) 
60

>  <SMILES>  (61) 
NC(=O)c1cc2ccc(C#CC3CC3)cc2n1C(=O)C[C@@H](O)CO

>  <Energy>  (61) 
341.153770968878

>  <Genealogy>  (61) 
NC(=O)c1cc2ccc(C#CC3CC3)cc2n1C(=O)C[C@@H](O)CO (chirality)
NC(=O)c1cc2ccc(C#CC3CC3)cc2n1C(=O)C[C@@H](O)CO (3D coordinates assigned)
NC(=O)c1cc2ccc(C#CC3CC3)cc2n1C(=O)C[C@@H](O)CO (nonaromatic ring conformer: 341.153770968878 kcal/mol)

>  <smiles>  (61) 
NC(=O)c1cc2ccc(C#CC3CC3)cc2n1C(=O)CC(O)CO

>  <score_type>  (61) 
oracle

>  <origin>  (61) 
adg

>  <m_score__min__energy>  (61) 
-9.6699999999999999

>  <m_primary>  (61) 
energy

$$$$
62:0
     RDKit          3D

 49 52  0  0  0  0  0  0  0  0999 V2000
   -4.4630   25.6780  -30.8390 N   0  0  0  0  0  0  0  0  0  0  0  0
   -5.7290   25.0920  -30.5470 C   0  0  0  0  0  0  0  0  0  0  0  0
   -6.5340   25.7100  -29.8000 O   0  0  0  0  0  0  0  0  0  0  0  0
   -6.1010   23.7660  -31.0840 C   0  0  0  0  0  0  0  0  0  0  0  0
   -7.3940   23.4280  -31.4820 C   0  0  0  0  0  0  0  0  0  0  0  0
   -7.3270   22.1050  -31.8580 C   0  0  0  0  0  0  0  0  0  0  0  0
   -8.3220   21.2540  -32.3280 C   0  0  0  0  0  0  0  0  0  0  0  0
   -7.9650   19.9310  -32.6400 C   0  0  0  0  0  0  0  0  0  0  0  0
   -6.6250   19.4890  -32.4970 C   0  0  0  0  0  0  0  0  0  0  0  0
   -6.2750   18.1240  -32.7930 N   0  0  0  0  0  0  0  0  0  0  0  0
   -6.3840   17.5880  -34.1530 C   0  0  0  0  0  0  0  0  0  0  0  0
   -5.0140   17.0690  -34.6220 C   0  0  0  0  0  0  0  0  0  0  0  0
   -4.2460   16.3290  -33.5650 N   0  0  0  0  0  0  0  0  0  0  0  0
   -2.9180   16.8980  -33.1810 C   0  0  0  0  0  0  0  0  0  0  0  0
   -2.7980   18.4080  -33.0950 C   0  0  0  0  0  0  0  0  0  0  0  0
   -1.9040   18.4640  -34.1820 O   0  0  0  0  0  0  0  0  0  0  0  0
   -1.9420   17.0630  -34.3290 C   0  0  0  0  0  0  0  0  0  0  0  0
   -5.0510   16.0180  -32.3570 C   0  0  0  0  0  0  0  0  0  0  0  0
   -5.6960   17.2730  -31.7490 C   0  0  0  0  0  0  0  0  0  0  0  0
   -5.6420   20.3870  -32.0190 C   0  0  0  0  0  0  0  0  0  0  0  0
   -6.0320   21.6880  -31.6900 C   0  0  0  0  0  0  0  0  0  0  0  0
   -5.2700   22.6930  -31.2100 N   0  0  0  0  0  0  0  0  0  0  0  0
   -3.8650   22.6360  -30.9120 C   0  0  0  0  0  0  0  0  0  0  0  0
   -3.0620   22.2270  -31.7930 O   0  0  0  0  0  0  0  0  0  0  0  0
   -3.3360   23.0240  -29.5590 C   0  0  0  0  0  0  0  0  0  0  0  0
   -2.1290   23.9020  -29.6770 C   0  0  0  0  0  0  0  0  0  0  0  0
   -1.0380   23.4260  -30.0890 O   0  0  0  0  0  0  0  0  0  0  0  0
   -2.2180   25.2530  -29.3700 O   0  0  0  0  0  0  0  0  0  0  0  0
   -3.8540   26.0500  -30.0770 H   0  0  0  0  0  0  0  0  0  0  0  0
   -8.2798   24.0801  -31.4932 H   0  0  0  0  0  0  0  0  0  0  0  0
   -9.3568   21.6059  -32.4517 H   0  0  0  0  0  0  0  0  0  0  0  0
   -8.7334   19.2306  -32.9991 H   0  0  0  0  0  0  0  0  0  0  0  0
   -7.1099   16.7616  -34.1623 H   0  0  0  0  0  0  0  0  0  0  0  0
   -6.7207   18.3860  -34.8311 H   0  0  0  0  0  0  0  0  0  0  0  0
   -5.1742   16.3898  -35.4723 H   0  0  0  0  0  0  0  0  0  0  0  0
   -4.4149   17.9514  -34.8912 H   0  0  0  0  0  0  0  0  0  0  0  0
   -4.0160   15.3930  -33.9760 H   0  0  0  0  0  0  0  0  0  0  0  0
   -2.7678   16.2411  -32.3116 H   0  0  0  0  0  0  0  0  0  0  0  0
   -3.7461   18.9345  -33.2792 H   0  0  0  0  0  0  0  0  0  0  0  0
   -2.5040   18.8657  -32.1389 H   0  0  0  0  0  0  0  0  0  0  0  0
   -2.3455   16.7346  -35.2982 H   0  0  0  0  0  0  0  0  0  0  0  0
   -0.9974   16.4996  -34.3103 H   0  0  0  0  0  0  0  0  0  0  0  0
   -5.8461   15.3101  -32.6340 H   0  0  0  0  0  0  0  0  0  0  0  0
   -4.3754   15.5873  -31.6033 H   0  0  0  0  0  0  0  0  0  0  0  0
   -6.4904   16.9676  -31.0521 H   0  0  0  0  0  0  0  0  0  0  0  0
   -4.9193   17.8455  -31.2207 H   0  0  0  0  0  0  0  0  0  0  0  0
   -4.5949   20.0686  -31.9088 H   0  0  0  0  0  0  0  0  0  0  0  0
   -4.1203   23.5653  -29.0096 H   0  0  0  0  0  0  0  0  0  0  0  0
   -3.0471   22.1075  -29.0238 H   0  0  0  0  0  0  0  0  0  0  0  0
  1  2  1  0
  2  3  2  0
  2  4  1  0
  4  5  2  0
  5  6  1  0
  6  7  2  0
  7  8  1  0
  8  9  2  0
  9 10  1  0
 10 11  1  0
 11 12  1  0
 12 13  1  0
 13 14  1  0
 14 15  1  0
 15 16  1  0
 16 17  1  0
 13 18  1  0
 18 19  1  0
  9 20  1  0
 20 21  2  0
 21 22  1  0
 22 23  1  0
 23 24  2  0
 23 25  1  0
 25 26  1  0
 26 27  2  0
 26 28  1  0
 22  4  1  0
 21  6  1  0
 19 10  1  0
 17 14  1  0
  1 29  1  0
  5 30  1  0
  7 31  1  0
  8 32  1  0
 11 33  1  0
 11 34  1  0
 12 35  1  0
 12 36  1  0
 13 37  1  0
 14 38  1  0
 15 39  1  0
 15 40  1  0
 17 41  1  0
 17 42  1  0
 18 43  1  0
 18 44  1  0
 19 45  1  0
 19 46  1  0
 20 47  1  0
 25 48  1  0
 25 49  1  0
M  CHG  3   1  -1  13   1  28  -1
M  END
>  <UniqueID>  (62) 
61

>  <SMILES>  (62) 
[NH-]C(=O)c1cc2ccc(N3CC[NH+](C4COC4)CC3)cc2n1C(=O)CC(=O)[O-]

>  <Energy>  (62) 
171.599730694625

>  <Genealogy>  (62) 
[NH-]C(=O)c1cc2ccc(N3CC[NH+](C4COC4)CC3)cc2n1C(=O)CC(=O)[O-] (protonated)
[NH-]C(=O)c1cc2ccc(N3CC[NH+](C4COC4)CC3)cc2n1C(=O)CC(=O)[O-] (3D coordinates assigned)
[NH-]C(=O)c1cc2ccc(N3CC[NH+](C4COC4)CC3)cc2n1C(=O)CC(=O)[O-] (nonaromatic ring conformer: 171.599730694625 kcal/mol)

>  <smiles>  (62) 
NC(=O)c1cc2ccc(N3CCN(C4COC4)CC3)cc2n1C(=O)CC(=O)O

>  <score_type>  (62) 
oracle

>  <origin>  (62) 
adg

>  <m_score__min__energy>  (62) 
-11.93

>  <m_primary>  (62) 
energy

$$$$
63:0
     RDKit          3D

 45 47  0  0  0  0  0  0  0  0999 V2000
   -8.1150   18.5390  -32.2340 C   0  0  0  0  0  0  0  0  0  0  0  0
   -7.9820   20.0170  -32.0220 C   0  0  0  0  0  0  0  0  0  0  0  0
   -9.0990   20.8660  -32.2170 C   0  0  0  0  0  0  0  0  0  0  0  0
   -8.9990   22.2480  -31.9790 C   0  0  0  0  0  0  0  0  0  0  0  0
   -7.7740   22.7470  -31.5450 C   0  0  0  0  0  0  0  0  0  0  0  0
   -7.4040   24.0330  -31.2190 C   0  0  0  0  0  0  0  0  0  0  0  0
   -6.0680   23.9440  -30.8280 C   0  0  0  0  0  0  0  0  0  0  0  0
   -5.2490   25.1020  -30.4110 C   0  0  0  0  0  0  0  0  0  0  0  0
   -3.8820   25.1850  -30.8080 N   0  0  0  0  0  0  0  0  0  0  0  0
   -5.7420   26.0170  -29.7010 O   0  0  0  0  0  0  0  0  0  0  0  0
   -5.6320   22.6580  -30.9160 N   0  0  0  0  0  0  0  0  0  0  0  0
   -4.3300   22.1540  -30.5820 C   0  0  0  0  0  0  0  0  0  0  0  0
   -3.8000   22.5210  -29.4980 O   0  0  0  0  0  0  0  0  0  0  0  0
   -3.6330   21.1240  -31.4540 C   0  0  2  0  0  0  0  0  0  0  0  0
   -2.0960   21.1040  -31.2220 C   0  0  0  0  0  0  0  0  0  0  0  0
   -1.3570   21.9220  -32.2920 C   0  0  0  0  0  0  0  0  0  0  0  0
   -1.5660   21.3860  -33.6680 N   0  0  1  0  0  0  0  0  0  0  0  0
   -0.4460   20.4950  -34.0590 C   0  0  0  0  0  0  0  0  0  0  0  0
    0.5170   21.1790  -34.9880 C   0  0  0  0  0  0  0  0  0  0  0  0
    1.3980   20.5130  -35.5910 O   0  0  0  0  0  0  0  0  0  0  0  0
    0.4160   22.5470  -35.2090 O   0  0  0  0  0  0  0  0  0  0  0  0
   -2.8790   20.7020  -33.8430 C   0  0  0  0  0  0  0  0  0  0  0  0
   -3.9690   21.3160  -32.9560 C   0  0  0  0  0  0  0  0  0  0  0  0
   -6.6870   21.9360  -31.3500 C   0  0  0  0  0  0  0  0  0  0  0  0
   -6.7610   20.5570  -31.5630 C   0  0  0  0  0  0  0  0  0  0  0  0
   -8.1607   18.0314  -31.2592 H   0  0  0  0  0  0  0  0  0  0  0  0
   -9.0355   18.3310  -32.7992 H   0  0  0  0  0  0  0  0  0  0  0  0
   -7.2464   18.1700  -32.7992 H   0  0  0  0  0  0  0  0  0  0  0  0
  -10.0540   20.4398  -32.5580 H   0  0  0  0  0  0  0  0  0  0  0  0
   -9.8613   22.9138  -32.1309 H   0  0  0  0  0  0  0  0  0  0  0  0
   -8.0288   24.9374  -31.2585 H   0  0  0  0  0  0  0  0  0  0  0  0
   -3.5030   26.0530  -31.2470 H   0  0  0  0  0  0  0  0  0  0  0  0
   -4.0229   20.1417  -31.1489 H   0  0  0  0  0  0  0  0  0  0  0  0
   -1.8779   21.5303  -30.2317 H   0  0  0  0  0  0  0  0  0  0  0  0
   -1.7502   20.0616  -31.2830 H   0  0  0  0  0  0  0  0  0  0  0  0
   -1.7229   22.9588  -32.2582 H   0  0  0  0  0  0  0  0  0  0  0  0
   -0.2808   21.8648  -32.0715 H   0  0  0  0  0  0  0  0  0  0  0  0
   -1.5500   22.2110  -34.3180 H   0  0  0  0  0  0  0  0  0  0  0  0
    0.0943   20.1844  -33.1526 H   0  0  0  0  0  0  0  0  0  0  0  0
   -0.8692   19.6270  -34.5858 H   0  0  0  0  0  0  0  0  0  0  0  0
   -3.1870   20.7884  -34.8954 H   0  0  0  0  0  0  0  0  0  0  0  0
   -2.7554   19.6490  -33.5499 H   0  0  0  0  0  0  0  0  0  0  0  0
   -4.0466   22.3916  -33.1731 H   0  0  0  0  0  0  0  0  0  0  0  0
   -4.9225   20.8112  -33.1703 H   0  0  0  0  0  0  0  0  0  0  0  0
   -5.8912   19.9095  -31.3780 H   0  0  0  0  0  0  0  0  0  0  0  0
  1  2  1  0
  2  3  2  0
  3  4  1  0
  4  5  2  0
  5  6  1  0
  6  7  2  0
  7  8  1  0
  8  9  1  0
  8 10  2  0
  7 11  1  0
 11 12  1  0
 12 13  2  0
 12 14  1  0
 14 15  1  0
 15 16  1  0
 16 17  1  0
 17 18  1  0
 18 19  1  0
 19 20  2  0
 19 21  1  0
 17 22  1  0
 22 23  1  0
 11 24  1  0
 24 25  2  0
 25  2  1  0
 24  5  1  0
 23 14  1  0
  1 26  1  0
  1 27  1  0
  1 28  1  0
  3 29  1  0
  4 30  1  0
  6 31  1  0
  9 32  1  0
 14 33  1  1
 15 34  1  0
 15 35  1  0
 16 36  1  0
 16 37  1  0
 17 38  1  6
 18 39  1  0
 18 40  1  0
 22 41  1  0
 22 42  1  0
 23 43  1  0
 23 44  1  0
 25 45  1  0
M  CHG  3   9  -1  17   1  21  -1
M  END
>  <UniqueID>  (63) 
62

>  <SMILES>  (63) 
Cc1ccc2cc(C([NH-])=O)n(C(=O)C3CC[NH+](CC(=O)[O-])CC3)c2c1

>  <Energy>  (63) 
95.18441311555465

>  <Genealogy>  (63) 
Cc1ccc2cc(C([NH-])=O)n(C(=O)C3CC[NH+](CC(=O)[O-])CC3)c2c1 (protonated)
Cc1ccc2cc(C([NH-])=O)n(C(=O)C3CC[NH+](CC(=O)[O-])CC3)c2c1 (3D coordinates assigned)
Cc1ccc2cc(C([NH-])=O)n(C(=O)C3CC[NH+](CC(=O)[O-])CC3)c2c1 (nonaromatic ring conformer: 95.18441311555465 kcal/mol)

>  <smiles>  (63) 
Cc1ccc2cc(C(N)=O)n(C(=O)C3CCN(CC(=O)O)CC3)c2c1

>  <score_type>  (63) 
oracle

>  <origin>  (63) 
adg

>  <m_score__min__energy>  (63) 
-11.359999999999999

>  <m_primary>  (63) 
energy

$$$$
64:0
     RDKit          3D

 35 36  0  0  0  0  0  0  0  0999 V2000
   -6.1120   16.7820  -33.0730 C   0  0  0  0  0  0  0  0  0  0  0  0
   -6.7180   17.9480  -33.7070 N   0  0  0  0  0  0  0  0  0  0  0  0
   -7.1210   19.1260  -32.9840 C   0  0  0  0  0  0  0  0  0  0  0  0
   -8.5010   19.3650  -32.7740 C   0  0  0  0  0  0  0  0  0  0  0  0
   -8.9380   20.4950  -32.0630 C   0  0  0  0  0  0  0  0  0  0  0  0
   -7.9730   21.3750  -31.5820 C   0  0  0  0  0  0  0  0  0  0  0  0
   -8.1190   22.5210  -30.8350 C   0  0  0  0  0  0  0  0  0  0  0  0
   -6.8260   22.9870  -30.6220 C   0  0  0  0  0  0  0  0  0  0  0  0
   -6.5240   24.2400  -29.9020 C   0  0  0  0  0  0  0  0  0  0  0  0
   -5.2950   24.4090  -29.1950 N   0  0  0  0  0  0  0  0  0  0  0  0
   -7.3410   25.1980  -29.9570 O   0  0  0  0  0  0  0  0  0  0  0  0
   -5.9130   22.1590  -31.2020 N   0  0  0  0  0  0  0  0  0  0  0  0
   -4.4810   22.2360  -31.0950 C   0  0  0  0  0  0  0  0  0  0  0  0
   -3.8180   22.9120  -31.9280 O   0  0  0  0  0  0  0  0  0  0  0  0
   -3.8280   21.5560  -30.0630 O   0  0  0  0  0  0  0  0  0  0  0  0
   -3.0320   22.2180  -29.0840 C   0  0  0  0  0  0  0  0  0  0  0  0
   -2.0890   23.0540  -29.7120 O   0  0  0  0  0  0  0  0  0  0  0  0
   -2.4670   24.6810  -29.3530 P   0  0  0  0  0  0  0  0  0  0  0  0
   -3.1150   24.7440  -27.9890 O   0  0  0  0  0  0  0  0  0  0  0  0
   -1.0620   25.6240  -29.3380 O   0  0  0  0  0  0  0  0  0  0  0  0
   -3.5460   25.2930  -30.5030 O   0  0  0  0  0  0  0  0  0  0  0  0
   -6.6330   21.1750  -31.7890 C   0  0  0  0  0  0  0  0  0  0  0  0
   -6.1690   20.0450  -32.4760 C   0  0  0  0  0  0  0  0  0  0  0  0
   -6.1675   16.8888  -31.9796 H   0  0  0  0  0  0  0  0  0  0  0  0
   -6.6527   15.8748  -33.3807 H   0  0  0  0  0  0  0  0  0  0  0  0
   -5.0589   16.7032  -33.3807 H   0  0  0  0  0  0  0  0  0  0  0  0
   -6.8620   17.9160  -34.7420 H   0  0  0  0  0  0  0  0  0  0  0  0
   -9.2411   18.6558  -33.1732 H   0  0  0  0  0  0  0  0  0  0  0  0
  -10.0090   20.6785  -31.8918 H   0  0  0  0  0  0  0  0  0  0  0  0
   -9.0578   22.9723  -30.4817 H   0  0  0  0  0  0  0  0  0  0  0  0
   -5.1160   25.2860  -28.6570 H   0  0  0  0  0  0  0  0  0  0  0  0
   -4.5300   23.7010  -29.2650 H   0  0  0  0  0  0  0  0  0  0  0  0
   -3.6819   22.8248  -28.4363 H   0  0  0  0  0  0  0  0  0  0  0  0
   -2.5016   21.4653  -28.4822 H   0  0  0  0  0  0  0  0  0  0  0  0
   -5.0914   19.8753  -32.6176 H   0  0  0  0  0  0  0  0  0  0  0  0
  1  2  1  0
  2  3  1  0
  3  4  2  0
  4  5  1  0
  5  6  2  0
  6  7  1  0
  7  8  2  0
  8  9  1  0
  9 10  1  0
  9 11  2  0
  8 12  1  0
 12 13  1  0
 13 14  2  0
 13 15  1  0
 15 16  1  0
 16 17  1  0
 17 18  1  0
 18 19  2  0
 18 20  1  0
 18 21  1  0
 12 22  1  0
 22 23  2  0
 23  3  1  0
 22  6  1  0
  1 24  1  0
  1 25  1  0
  1 26  1  0
  2 27  1  0
  4 28  1  0
  5 29  1  0
  7 30  1  0
 10 31  1  0
 10 32  1  0
 16 33  1  0
 16 34  1  0
 23 35  1  0
M  CHG  2  20  -1  21  -1
M  END
>  <UniqueID>  (64) 
63

>  <SMILES>  (64) 
CNc1ccc2cc(C(N)=O)n(C(=O)OCOP(=O)([O-])[O-])c2c1

>  <Energy>  (64) 
70.56388350145612

>  <Genealogy>  (64) 
CNc1ccc2cc(C(N)=O)n(C(=O)OCOP(=O)([O-])[O-])c2c1 (protonated)
CNc1ccc2cc(C(N)=O)n(C(=O)OCOP(=O)([O-])[O-])c2c1 (3D coordinates assigned)
CNc1ccc2cc(C(N)=O)n(C(=O)OCOP(=O)([O-])[O-])c2c1 (optimized conformer: 70.56388350145612 kcal/mol)

>  <smiles>  (64) 
CNc1ccc2cc(C(N)=O)n(C(=O)OCOP(=O)(O)O)c2c1

>  <score_type>  (64) 
oracle

>  <origin>  (64) 
adg

>  <m_score__min__energy>  (64) 
-12.07

>  <m_primary>  (64) 
energy

$$$$
65:0
     RDKit          3D

 42 43  0  0  0  0  0  0  0  0999 V2000
   -3.0250   25.2800  -30.3710 H   0  0  0  0  0  0  0  0  0  0  0  0
   -3.8720   25.6440  -30.8610 N   0  0  0  0  0  0  0  0  0  0  0  0
   -5.1800   25.2460  -30.4590 C   0  0  0  0  0  0  0  0  0  0  0  0
   -5.8610   26.0170  -29.7310 O   0  0  0  0  0  0  0  0  0  0  0  0
   -5.7670   23.9750  -30.9290 C   0  0  0  0  0  0  0  0  0  0  0  0
   -7.1400   23.7490  -31.0040 C   0  0  0  0  0  0  0  0  0  0  0  0
   -7.9456   24.4217  -30.6745 H   0  0  0  0  0  0  0  0  0  0  0  0
   -7.2740   22.5050  -31.5780 C   0  0  0  0  0  0  0  0  0  0  0  0
   -8.4190   21.7800  -31.8820 C   0  0  0  0  0  0  0  0  0  0  0  0
   -9.4194   22.1918  -31.6829 H   0  0  0  0  0  0  0  0  0  0  0  0
   -8.2620   20.5060  -32.4510 C   0  0  0  0  0  0  0  0  0  0  0  0
   -9.1532   19.9146  -32.7078 H   0  0  0  0  0  0  0  0  0  0  0  0
   -6.9680   19.9670  -32.7010 C   0  0  0  0  0  0  0  0  0  0  0  0
   -6.8160   18.6480  -33.2840 N   0  0  0  0  0  0  0  0  0  0  0  0
   -7.4610   17.4830  -32.6680 C   0  0  0  0  0  0  0  0  0  0  0  0
   -7.4113   17.5728  -31.5728 H   0  0  0  0  0  0  0  0  0  0  0  0
   -8.5134   17.4364  -32.9847 H   0  0  0  0  0  0  0  0  0  0  0  0
   -6.9419   16.5664  -32.9847 H   0  0  0  0  0  0  0  0  0  0  0  0
   -6.0290   18.4650  -34.5090 C   0  0  0  0  0  0  0  0  0  0  0  0
   -4.9891   18.2232  -34.2441 H   0  0  0  0  0  0  0  0  0  0  0  0
   -6.4574   17.6425  -35.1006 H   0  0  0  0  0  0  0  0  0  0  0  0
   -6.0506   19.3921  -35.1006 H   0  0  0  0  0  0  0  0  0  0  0  0
   -5.8290   20.7420  -32.3660 C   0  0  0  0  0  0  0  0  0  0  0  0
   -4.8153   20.3479  -32.5305 H   0  0  0  0  0  0  0  0  0  0  0  0
   -6.0180   22.0180  -31.8220 C   0  0  0  0  0  0  0  0  0  0  0  0
   -5.0800   22.9070  -31.4270 N   0  0  0  0  0  0  0  0  0  0  0  0
   -3.6590   22.7110  -31.4680 C   0  0  0  0  0  0  0  0  0  0  0  0
   -2.9350   23.1470  -30.5320 O   0  0  0  0  0  0  0  0  0  0  0  0
   -3.0860   22.0620  -32.5720 O   0  0  0  0  0  0  0  0  0  0  0  0
   -2.3010   20.8980  -32.5320 C   0  0  0  0  0  0  0  0  0  0  0  0
   -2.8350   19.6820  -32.7010 C   0  0  0  0  0  0  0  0  0  0  0  0
   -3.9166   19.5750  -32.8704 H   0  0  0  0  0  0  0  0  0  0  0  0
   -2.1922   18.7899  -32.6704 H   0  0  0  0  0  0  0  0  0  0  0  0
   -0.8430   21.0100  -32.3060 C   0  0  0  0  0  0  0  0  0  0  0  0
   -0.4877   20.9505  -31.2667 H   0  0  0  0  0  0  0  0  0  0  0  0
    0.0810   21.1780  -33.2630 C   0  0  0  0  0  0  0  0  0  0  0  0
    1.1135   21.3838  -32.9442 H   0  0  0  0  0  0  0  0  0  0  0  0
   -0.1860   21.1070  -34.7130 C   0  0  0  0  0  0  0  0  0  0  0  0
   -0.8546   20.3256  -35.1035 H   0  0  0  0  0  0  0  0  0  0  0  0
    0.3700   21.9740  -35.5540 C   0  0  0  0  0  0  0  0  0  0  0  0
    0.1602   21.9067  -36.6317 H   0  0  0  0  0  0  0  0  0  0  0  0
    1.0398   22.7585  -35.1720 H   0  0  0  0  0  0  0  0  0  0  0  0
  1  2  1  0
  2  3  1  0
  3  4  2  0
  3  5  1  0
  5  6  2  0
  6  7  1  0
  6  8  1  0
  8  9  2  0
  9 10  1  0
  9 11  1  0
 11 12  1  0
 11 13  2  0
 13 14  1  0
 14 15  1  0
 15 16  1  0
 15 17  1  0
 15 18  1  0
 14 19  1  0
 19 20  1  0
 19 21  1  0
 19 22  1  0
 13 23  1  0
 23 24  1  0
 23 25  2  0
 25 26  1  0
 26 27  1  0
 27 28  2  0
 27 29  1  0
 29 30  1  0
 30 31  2  0
 31 32  1  0
 31 33  1  0
 30 34  1  0
 34 35  1  0
 34 36  2  0
 36 37  1  0
 36 38  1  0
 38 39  1  0
 38 40  2  0
 40 41  1  0
 40 42  1  0
 26  5  1  0
 25  8  1  0
M  CHG  1   2  -1
M  END
>  <UniqueID>  (65) 
64

>  <SMILES>  (65) 
C=C/C=C\C(=C)OC(=O)n1c(C([NH-])=O)cc2ccc(N(C)C)cc21

>  <Energy>  (65) 
86.5435326969978

>  <Genealogy>  (65) 
C=C/C=C\C(=C)OC(=O)n1c(C([NH-])=O)cc2ccc(N(C)C)cc21 (protonated)
C=C/C=C\C(=C)OC(=O)n1c(C([NH-])=O)cc2ccc(N(C)C)cc21 (cis-trans isomerization)
C=C/C=C\C(=C)OC(=O)n1c(C([NH-])=O)cc2ccc(N(C)C)cc21 (3D coordinates assigned)
C=C/C=C\C(=C)OC(=O)n1c(C([NH-])=O)cc2ccc(N(C)C)cc21 (optimized conformer: 86.5435326969978 kcal/mol)

>  <smiles>  (65) 
C=C/C=C\C(=C)OC(=O)n1c(C(N)=O)cc2ccc(N(C)C)cc21

>  <score_type>  (65) 
oracle

>  <origin>  (65) 
adg

>  <m_score__min__energy>  (65) 
-10.74

>  <m_primary>  (65) 
energy

$$$$
66:0
     RDKit          3D

 46 47  0  0  0  0  0  0  0  0999 V2000
   -2.2900   25.6100  -26.1020 C   0  0  0  0  0  0  0  0  0  0  0  0
   -1.9190   24.5120  -27.1250 C   0  0  0  0  0  0  0  0  0  0  0  0
   -1.0540   23.4510  -26.4190 C   0  0  0  0  0  0  0  0  0  0  0  0
   -1.1260   25.0900  -28.2770 C   0  0  0  0  0  0  0  0  0  0  0  0
   -1.5800   26.0470  -28.9610 O   0  0  0  0  0  0  0  0  0  0  0  0
    0.1560   24.6220  -28.5430 O   0  0  0  0  0  0  0  0  0  0  0  0
   -3.1870   23.8820  -27.6710 C   0  0  0  0  0  0  0  0  0  0  0  0
   -4.2150   24.5950  -27.8510 O   0  0  0  0  0  0  0  0  0  0  0  0
   -3.1970   22.5330  -28.0460 O   0  0  0  0  0  0  0  0  0  0  0  0
   -2.5850   22.0530  -29.2400 C   0  0  0  0  0  0  0  0  0  0  0  0
   -3.5750   21.6050  -30.1620 O   0  0  0  0  0  0  0  0  0  0  0  0
   -4.1000   22.4160  -31.1720 C   0  0  0  0  0  0  0  0  0  0  0  0
   -3.3420   22.9150  -32.0480 O   0  0  0  0  0  0  0  0  0  0  0  0
   -5.5070   22.7060  -31.1920 N   0  0  0  0  0  0  0  0  0  0  0  0
   -6.1130   23.9030  -30.9490 C   0  0  0  0  0  0  0  0  0  0  0  0
   -5.4590   25.1100  -30.4030 C   0  0  0  0  0  0  0  0  0  0  0  0
   -4.0490   25.2890  -30.5000 N   0  0  0  0  0  0  0  0  0  0  0  0
   -6.1470   25.9720  -29.7940 O   0  0  0  0  0  0  0  0  0  0  0  0
   -7.4780   23.8210  -31.2070 C   0  0  0  0  0  0  0  0  0  0  0  0
   -7.6970   22.5240  -31.6130 C   0  0  0  0  0  0  0  0  0  0  0  0
   -8.8720   21.8990  -32.0150 C   0  0  0  0  0  0  0  0  0  0  0  0
   -8.7990   20.5560  -32.4200 C   0  0  0  0  0  0  0  0  0  0  0  0
   -7.5580   19.8620  -32.4180 C   0  0  0  0  0  0  0  0  0  0  0  0
   -7.4590   18.4890  -32.8390 N   0  0  0  0  0  0  0  0  0  0  0  0
   -6.4570   17.5570  -32.3130 C   0  0  0  0  0  0  0  0  0  0  0  0
   -6.3150   16.3700  -33.2110 C   0  0  0  0  0  0  0  0  0  0  0  0
   -7.0840   16.2250  -34.1970 O   0  0  0  0  0  0  0  0  0  0  0  0
   -5.3500   15.4070  -32.9420 O   0  0  0  0  0  0  0  0  0  0  0  0
   -6.3890   20.5360  -32.0000 C   0  0  0  0  0  0  0  0  0  0  0  0
   -6.4930   21.8710  -31.5930 C   0  0  0  0  0  0  0  0  0  0  0  0
   -2.1583   25.2202  -25.0818 H   0  0  0  0  0  0  0  0  0  0  0  0
   -1.6370   26.4830  -26.2481 H   0  0  0  0  0  0  0  0  0  0  0  0
   -3.3387   25.9080  -26.2481 H   0  0  0  0  0  0  0  0  0  0  0  0
   -1.1485   23.5669  -25.3292 H   0  0  0  0  0  0  0  0  0  0  0  0
   -1.3940   22.4467  -26.7118 H   0  0  0  0  0  0  0  0  0  0  0  0
   -0.0018   23.5817  -26.7118 H   0  0  0  0  0  0  0  0  0  0  0  0
   -2.0026   22.8649  -29.7001 H   0  0  0  0  0  0  0  0  0  0  0  0
   -1.9254   21.2095  -28.9879 H   0  0  0  0  0  0  0  0  0  0  0  0
   -3.4970   25.6610  -29.6950 H   0  0  0  0  0  0  0  0  0  0  0  0
   -8.2242   24.6230  -31.1075 H   0  0  0  0  0  0  0  0  0  0  0  0
   -9.8299   22.4399  -32.0159 H   0  0  0  0  0  0  0  0  0  0  0  0
   -9.7126   20.0351  -32.7425 H   0  0  0  0  0  0  0  0  0  0  0  0
   -8.1430   18.1430  -33.5520 H   0  0  0  0  0  0  0  0  0  0  0  0
   -5.4879   18.0723  -32.2400 H   0  0  0  0  0  0  0  0  0  0  0  0
   -6.7821   17.2121  -31.3204 H   0  0  0  0  0  0  0  0  0  0  0  0
   -5.4165   20.0219  -31.9945 H   0  0  0  0  0  0  0  0  0  0  0  0
  1  2  1  0
  2  3  1  0
  2  4  1  0
  4  5  2  0
  4  6  1  0
  2  7  1  0
  7  8  2  0
  7  9  1  0
  9 10  1  0
 10 11  1  0
 11 12  1  0
 12 13  2  0
 12 14  1  0
 14 15  1  0
 15 16  1  0
 16 17  1  0
 16 18  2  0
 15 19  2  0
 19 20  1  0
 20 21  2  0
 21 22  1  0
 22 23  2  0
 23 24  1  0
 24 25  1  0
 25 26  1  0
 26 27  2  0
 26 28  1  0
 23 29  1  0
 29 30  2  0
 30 14  1  0
 30 20  1  0
  1 31  1  0
  1 32  1  0
  1 33  1  0
  3 34  1  0
  3 35  1  0
  3 36  1  0
 10 37  1  0
 10 38  1  0
 17 39  1  0
 19 40  1  0
 21 41  1  0
 22 42  1  0
 24 43  1  0
 25 44  1  0
 25 45  1  0
 29 46  1  0
M  CHG  3   6  -1  17  -1  28  -1
M  END
>  <UniqueID>  (66) 
65

>  <SMILES>  (66) 
CC(C)(C(=O)[O-])C(=O)OCOC(=O)n1c(C([NH-])=O)cc2ccc(NCC(=O)[O-])cc21

>  <Energy>  (66) 
78.83488227130557

>  <Genealogy>  (66) 
CC(C)(C(=O)[O-])C(=O)OCOC(=O)n1c(C([NH-])=O)cc2ccc(NCC(=O)[O-])cc21 (protonated)
CC(C)(C(=O)[O-])C(=O)OCOC(=O)n1c(C([NH-])=O)cc2ccc(NCC(=O)[O-])cc21 (3D coordinates assigned)
CC(C)(C(=O)[O-])C(=O)OCOC(=O)n1c(C([NH-])=O)cc2ccc(NCC(=O)[O-])cc21 (optimized conformer: 78.83488227130557 kcal/mol)

>  <smiles>  (66) 
CC(C)(C(=O)O)C(=O)OCOC(=O)n1c(C(N)=O)cc2ccc(NCC(=O)O)cc21

>  <score_type>  (66) 
oracle

>  <origin>  (66) 
adg

>  <m_score__min__energy>  (66) 
-12.98

>  <m_primary>  (66) 
energy

$$$$
67:0
     RDKit          3D

 40 41  0  0  0  0  0  0  0  0999 V2000
   -7.0100   18.5570  -33.0830 C   0  0  0  0  0  0  0  0  0  0  0  0
   -7.1510   19.9370  -32.5160 C   0  0  0  0  0  0  0  0  0  0  0  0
   -8.4370   20.5050  -32.3380 C   0  0  0  0  0  0  0  0  0  0  0  0
   -8.5790   21.8160  -31.8530 C   0  0  0  0  0  0  0  0  0  0  0  0
   -7.4230   22.5330  -31.5620 C   0  0  0  0  0  0  0  0  0  0  0  0
   -7.2720   23.8250  -31.1130 C   0  0  0  0  0  0  0  0  0  0  0  0
   -5.8970   24.0260  -31.0170 C   0  0  0  0  0  0  0  0  0  0  0  0
   -5.2900   25.2650  -30.4890 C   0  0  0  0  0  0  0  0  0  0  0  0
   -3.9840   25.6510  -30.9100 N   0  0  0  0  0  0  0  0  0  0  0  0
   -5.9290   26.0110  -29.7000 O   0  0  0  0  0  0  0  0  0  0  0  0
   -5.2220   22.9040  -31.3980 N   0  0  0  0  0  0  0  0  0  0  0  0
   -3.8010   22.7330  -31.5150 C   0  0  0  0  0  0  0  0  0  0  0  0
   -3.3060   22.2740  -32.5810 O   0  0  0  0  0  0  0  0  0  0  0  0
   -2.9680   23.0970  -30.4520 O   0  0  0  0  0  0  0  0  0  0  0  0
   -2.4580   22.1540  -29.5140 C   0  0  0  0  0  0  0  0  0  0  0  0
   -2.9970   22.4380  -28.1380 C   0  0  0  0  0  0  0  0  0  0  0  0
   -3.5280   21.4960  -27.4870 O   0  0  0  0  0  0  0  0  0  0  0  0
   -2.9430   23.7630  -27.5610 N   0  0  0  0  0  0  0  0  0  0  0  0
   -4.1980   24.4810  -27.3180 C   0  0  0  0  0  0  0  0  0  0  0  0
   -1.6680   24.3870  -27.1730 C   0  0  0  0  0  0  0  0  0  0  0  0
   -0.9340   24.8700  -28.3830 C   0  0  0  0  0  0  0  0  0  0  0  0
    0.2770   24.5700  -28.5520 O   0  0  0  0  0  0  0  0  0  0  0  0
   -1.5790   25.6730  -29.3150 O   0  0  0  0  0  0  0  0  0  0  0  0
   -6.1710   21.9980  -31.7260 C   0  0  0  0  0  0  0  0  0  0  0  0
   -5.9990   20.7020  -32.2250 C   0  0  0  0  0  0  0  0  0  0  0  0
   -6.9356   17.8290  -32.2617 H   0  0  0  0  0  0  0  0  0  0  0  0
   -7.8889   18.3232  -33.7017 H   0  0  0  0  0  0  0  0  0  0  0  0
   -6.1019   18.5058  -33.7017 H   0  0  0  0  0  0  0  0  0  0  0  0
   -9.3322   19.9141  -32.5818 H   0  0  0  0  0  0  0  0  0  0  0  0
   -9.5740   22.2619  -31.7078 H   0  0  0  0  0  0  0  0  0  0  0  0
   -8.0687   24.5465  -30.8793 H   0  0  0  0  0  0  0  0  0  0  0  0
   -3.1340   25.2650  -30.4430 H   0  0  0  0  0  0  0  0  0  0  0  0
   -2.7586   21.1408  -29.8189 H   0  0  0  0  0  0  0  0  0  0  0  0
   -1.3610   22.2321  -29.4904 H   0  0  0  0  0  0  0  0  0  0  0  0
   -4.3627   24.5752  -26.2345 H   0  0  0  0  0  0  0  0  0  0  0  0
   -4.1405   25.4828  -27.7686 H   0  0  0  0  0  0  0  0  0  0  0  0
   -5.0325   23.9237  -27.7686 H   0  0  0  0  0  0  0  0  0  0  0  0
   -1.8694   25.2391  -26.5072 H   0  0  0  0  0  0  0  0  0  0  0  0
   -1.0486   23.6402  -26.6547 H   0  0  0  0  0  0  0  0  0  0  0  0
   -4.9923   20.2891  -32.3867 H   0  0  0  0  0  0  0  0  0  0  0  0
  1  2  1  0
  2  3  2  0
  3  4  1  0
  4  5  2  0
  5  6  1  0
  6  7  2  0
  7  8  1  0
  8  9  1  0
  8 10  2  0
  7 11  1  0
 11 12  1  0
 12 13  2  0
 12 14  1  0
 14 15  1  0
 15 16  1  0
 16 17  2  0
 16 18  1  0
 18 19  1  0
 18 20  1  0
 20 21  1  0
 21 22  2  0
 21 23  1  0
 11 24  1  0
 24 25  2  0
 25  2  1  0
 24  5  1  0
  1 26  1  0
  1 27  1  0
  1 28  1  0
  3 29  1  0
  4 30  1  0
  6 31  1  0
  9 32  1  0
 15 33  1  0
 15 34  1  0
 19 35  1  0
 19 36  1  0
 19 37  1  0
 20 38  1  0
 20 39  1  0
 25 40  1  0
M  CHG  2   9  -1  23  -1
M  END
>  <UniqueID>  (67) 
66

>  <SMILES>  (67) 
Cc1ccc2cc(C([NH-])=O)n(C(=O)OCC(=O)N(C)CC(=O)[O-])c2c1

>  <Energy>  (67) 
73.42020348916945

>  <Genealogy>  (67) 
Cc1ccc2cc(C([NH-])=O)n(C(=O)OCC(=O)N(C)CC(=O)[O-])c2c1 (protonated)
Cc1ccc2cc(C([NH-])=O)n(C(=O)OCC(=O)N(C)CC(=O)[O-])c2c1 (3D coordinates assigned)
Cc1ccc2cc(C([NH-])=O)n(C(=O)OCC(=O)N(C)CC(=O)[O-])c2c1 (optimized conformer: 73.42020348916945 kcal/mol)

>  <smiles>  (67) 
Cc1ccc2cc(C(N)=O)n(C(=O)OCC(=O)N(C)CC(=O)O)c2c1

>  <score_type>  (67) 
oracle

>  <origin>  (67) 
adg

>  <m_score__min__energy>  (67) 
-12.390000000000001

>  <m_primary>  (67) 
energy

$$$$
68:0
     RDKit          3D

 38 39  0  0  0  0  0  0  0  0999 V2000
   -7.4150   18.4450  -32.7040 C   0  0  0  0  0  0  0  0  0  0  0  0
   -7.4630   19.8700  -32.2370 C   0  0  0  0  0  0  0  0  0  0  0  0
   -8.7100   20.5120  -32.0390 C   0  0  0  0  0  0  0  0  0  0  0  0
   -8.7670   21.8540  -31.6250 C   0  0  0  0  0  0  0  0  0  0  0  0
   -7.5640   22.5300  -31.4400 C   0  0  0  0  0  0  0  0  0  0  0  0
   -7.3260   23.8200  -31.0200 C   0  0  0  0  0  0  0  0  0  0  0  0
   -5.9390   23.9520  -31.0010 C   0  0  0  0  0  0  0  0  0  0  0  0
   -5.2350   25.2000  -30.6380 C   0  0  0  0  0  0  0  0  0  0  0  0
   -3.8290   25.3100  -30.8530 N   0  0  0  0  0  0  0  0  0  0  0  0
   -5.8580   26.1660  -30.1280 O   0  0  0  0  0  0  0  0  0  0  0  0
   -5.3450   22.7920  -31.4000 N   0  0  0  0  0  0  0  0  0  0  0  0
   -3.9390   22.5040  -31.4640 C   0  0  0  0  0  0  0  0  0  0  0  0
   -3.4100   22.3050  -32.5890 O   0  0  0  0  0  0  0  0  0  0  0  0
   -3.1380   22.4460  -30.2180 C   0  0  0  0  0  0  0  0  0  0  0  0
   -3.6650   21.9420  -29.1910 O   0  0  0  0  0  0  0  0  0  0  0  0
   -1.7970   22.9510  -30.1010 N   0  0  0  0  0  0  0  0  0  0  0  0
   -1.0200   23.2040  -28.8900 C   0  0  0  0  0  0  0  0  0  0  0  0
   -1.3480   24.5900  -28.3100 C   0  0  1  0  0  0  0  0  0  0  0  0
   -1.5350   25.5160  -29.3460 O   0  0  0  0  0  0  0  0  0  0  0  0
   -2.5990   24.5400  -27.4190 C   0  0  0  0  0  0  0  0  0  0  0  0
   -3.7620   24.4130  -28.1930 O   0  0  0  0  0  0  0  0  0  0  0  0
   -6.3510   21.9300  -31.6570 C   0  0  0  0  0  0  0  0  0  0  0  0
   -6.2640   20.5910  -32.0520 C   0  0  0  0  0  0  0  0  0  0  0  0
   -7.3924   17.7741  -31.8326 H   0  0  0  0  0  0  0  0  0  0  0  0
   -8.3063   18.2278  -33.3109 H   0  0  0  0  0  0  0  0  0  0  0  0
   -6.5111   18.2883  -33.3109 H   0  0  0  0  0  0  0  0  0  0  0  0
   -9.6428   19.9549  -32.2109 H   0  0  0  0  0  0  0  0  0  0  0  0
   -9.7314   22.3542  -31.4526 H   0  0  0  0  0  0  0  0  0  0  0  0
   -8.0723   24.5837  -30.7557 H   0  0  0  0  0  0  0  0  0  0  0  0
   -3.1560   24.7370  -30.2960 H   0  0  0  0  0  0  0  0  0  0  0  0
   -1.2583   22.4342  -28.1413 H   0  0  0  0  0  0  0  0  0  0  0  0
    0.0497   23.1726  -29.1446 H   0  0  0  0  0  0  0  0  0  0  0  0
   -0.4973   24.9067  -27.6887 H   0  0  0  0  0  0  0  0  0  0  0  0
   -1.8210   25.0020  -30.1460 H   0  0  0  0  0  0  0  0  0  0  0  0
   -2.5228   23.6780  -26.7399 H   0  0  0  0  0  0  0  0  0  0  0  0
   -2.6594   25.4773  -26.8464 H   0  0  0  0  0  0  0  0  0  0  0  0
   -3.4740   24.1490  -29.1050 H   0  0  0  0  0  0  0  0  0  0  0  0
   -5.2868   20.1126  -32.2141 H   0  0  0  0  0  0  0  0  0  0  0  0
  1  2  1  0
  2  3  2  0
  3  4  1  0
  4  5  2  0
  5  6  1  0
  6  7  2  0
  7  8  1  0
  8  9  1  0
  8 10  2  0
  7 11  1  0
 11 12  1  0
 12 13  2  0
 12 14  1  0
 14 15  2  0
 14 16  1  0
 16 17  1  0
 17 18  1  0
 18 19  1  0
 18 20  1  0
 20 21  1  0
 11 22  1  0
 22 23  2  0
 23  2  1  0
 22  5  1  0
  1 24  1  0
  1 25  1  0
  1 26  1  0
  3 27  1  0
  4 28  1  0
  6 29  1  0
  9 30  1  0
 17 31  1  0
 17 32  1  0
 18 33  1  1
 19 34  1  0
 20 35  1  0
 20 36  1  0
 21 37  1  0
 23 38  1  0
M  CHG  2   9  -1  16  -1
M  END
>  <UniqueID>  (68) 
67

>  <SMILES>  (68) 
Cc1ccc2cc(C([NH-])=O)n(C(=O)C(=O)[N-]C[C@@H](O)CO)c2c1

>  <Energy>  (68) 
75.99347169853958

>  <Genealogy>  (68) 
Cc1ccc2cc(C([NH-])=O)n(C(=O)C(=O)[N-]CC(O)CO)c2c1 (protonated)
Cc1ccc2cc(C([NH-])=O)n(C(=O)C(=O)[N-]C[C@@H](O)CO)c2c1 (chirality)
Cc1ccc2cc(C([NH-])=O)n(C(=O)C(=O)[N-]C[C@@H](O)CO)c2c1 (3D coordinates assigned)
Cc1ccc2cc(C([NH-])=O)n(C(=O)C(=O)[N-]C[C@@H](O)CO)c2c1 (optimized conformer: 75.99347169853958 kcal/mol)

>  <smiles>  (68) 
Cc1ccc2cc(C(N)=O)n(C(=O)C(=O)NCC(O)CO)c2c1

>  <score_type>  (68) 
oracle

>  <origin>  (68) 
adg

>  <m_score__min__energy>  (68) 
-10.5

>  <m_primary>  (68) 
energy

$$$$
69:0
     RDKit          3D

 30 31  0  0  0  0  0  0  0  0999 V2000
   -3.2750   24.9460  -30.9890 H   0  0  0  0  0  0  0  0  0  0  0  0
   -4.0070   25.6750  -30.8420 N   0  0  0  0  0  0  0  0  0  0  0  0
   -5.3560   25.3140  -30.5610 C   0  0  0  0  0  0  0  0  0  0  0  0
   -6.1110   26.1480  -29.9940 O   0  0  0  0  0  0  0  0  0  0  0  0
   -5.8880   23.9890  -30.9460 C   0  0  0  0  0  0  0  0  0  0  0  0
   -7.2210   23.7600  -31.2860 C   0  0  0  0  0  0  0  0  0  0  0  0
   -8.0421   24.4920  -31.2929 H   0  0  0  0  0  0  0  0  0  0  0  0
   -7.2920   22.4250  -31.6110 C   0  0  0  0  0  0  0  0  0  0  0  0
   -8.3820   21.6520  -32.0010 C   0  0  0  0  0  0  0  0  0  0  0  0
   -9.3800   22.0991  -32.1201 H   0  0  0  0  0  0  0  0  0  0  0  0
   -8.1690   20.2830  -32.2380 C   0  0  0  0  0  0  0  0  0  0  0  0
   -9.0096   19.6476  -32.5538 H   0  0  0  0  0  0  0  0  0  0  0  0
   -6.8810   19.7130  -32.0740 C   0  0  0  0  0  0  0  0  0  0  0  0
   -6.6610   18.2470  -32.3090 C   0  0  0  0  0  0  0  0  0  0  0  0
   -6.2824   18.0987  -33.3311 H   0  0  0  0  0  0  0  0  0  0  0  0
   -5.7380   17.7620  -31.4010 F   0  0  0  0  0  0  0  0  0  0  0  0
   -7.8550   17.5670  -32.1550 F   0  0  0  0  0  0  0  0  0  0  0  0
   -5.8000   20.5290  -31.6710 C   0  0  0  0  0  0  0  0  0  0  0  0
   -4.7963   20.1033  -31.5246 H   0  0  0  0  0  0  0  0  0  0  0  0
   -6.0380   21.8910  -31.4630 C   0  0  0  0  0  0  0  0  0  0  0  0
   -5.1660   22.8400  -31.0610 N   0  0  0  0  0  0  0  0  0  0  0  0
   -3.7790   22.6420  -30.7460 C   0  0  0  0  0  0  0  0  0  0  0  0
   -2.9140   22.8320  -31.6410 O   0  0  0  0  0  0  0  0  0  0  0  0
   -3.3860   22.3030  -29.3600 C   0  0  0  0  0  0  0  0  0  0  0  0
   -3.8761   21.4306  -28.9031 H   0  0  0  0  0  0  0  0  0  0  0  0
   -2.4880   22.9590  -28.6070 C   0  0  0  0  0  0  0  0  0  0  0  0
   -2.4351   22.6866  -27.5426 H   0  0  0  0  0  0  0  0  0  0  0  0
   -1.5670   24.0100  -29.0750 C   0  0  0  0  0  0  0  0  0  0  0  0
   -0.3790   23.7070  -29.3560 O   0  0  0  0  0  0  0  0  0  0  0  0
   -2.0090   25.3070  -29.3100 O   0  0  0  0  0  0  0  0  0  0  0  0
  1  2  1  0
  2  3  1  0
  3  4  2  0
  3  5  1  0
  5  6  2  0
  6  7  1  0
  6  8  1  0
  8  9  2  0
  9 10  1  0
  9 11  1  0
 11 12  1  0
 11 13  2  0
 13 14  1  0
 14 15  1  0
 14 16  1  0
 14 17  1  0
 13 18  1  0
 18 19  1  0
 18 20  2  0
 20 21  1  0
 21 22  1  0
 22 23  2  0
 22 24  1  0
 24 25  1  0
 24 26  2  0
 26 27  1  0
 26 28  1  0
 28 29  2  0
 28 30  1  0
 21  5  1  0
 20  8  1  0
M  CHG  2   2  -1  30  -1
M  END
>  <UniqueID>  (69) 
68

>  <SMILES>  (69) 
[NH-]C(=O)c1cc2ccc(C(F)F)cc2n1C(=O)/C=C\C(=O)[O-]

>  <Energy>  (69) 
75.88591049457848

>  <Genealogy>  (69) 
[NH-]C(=O)c1cc2ccc(C(F)F)cc2n1C(=O)/C=C\C(=O)[O-] (protonated)
[NH-]C(=O)c1cc2ccc(C(F)F)cc2n1C(=O)/C=C\C(=O)[O-] (cis-trans isomerization)
[NH-]C(=O)c1cc2ccc(C(F)F)cc2n1C(=O)/C=C\C(=O)[O-] (3D coordinates assigned)
[NH-]C(=O)c1cc2ccc(C(F)F)cc2n1C(=O)/C=C\C(=O)[O-] (optimized conformer: 75.88591049457848 kcal/mol)

>  <smiles>  (69) 
NC(=O)c1cc2ccc(C(F)F)cc2n1C(=O)/C=C\C(=O)O

>  <score_type>  (69) 
oracle

>  <origin>  (69) 
adg

>  <m_score__min__energy>  (69) 
-11.529999999999999

>  <m_primary>  (69) 
energy

$$$$
70:0
     RDKit          3D

 44 45  0  0  0  0  0  0  0  0999 V2000
   -0.0790   24.9590  -27.5060 C   0  0  0  0  0  0  0  0  0  0  0  0
   -1.2710   25.2640  -26.9800 C   0  0  0  0  0  0  0  0  0  0  0  0
   -1.3470   25.9040  -25.6230 C   0  0  0  0  0  0  0  0  0  0  0  0
   -2.5250   24.9160  -27.6850 C   0  0  0  0  0  0  0  0  0  0  0  0
   -3.5500   24.5670  -27.0360 O   0  0  0  0  0  0  0  0  0  0  0  0
   -2.5670   24.9770  -29.0830 O   0  0  0  0  0  0  0  0  0  0  0  0
   -2.4670   23.8240  -29.9120 C   0  0  0  0  0  0  0  0  0  0  0  0
   -3.5490   23.8070  -30.8390 O   0  0  0  0  0  0  0  0  0  0  0  0
   -4.1610   22.6260  -31.2660 C   0  0  0  0  0  0  0  0  0  0  0  0
   -3.4610   21.6710  -31.7020 O   0  0  0  0  0  0  0  0  0  0  0  0
   -5.5920   22.5050  -31.2060 N   0  0  0  0  0  0  0  0  0  0  0  0
   -6.4740   23.4180  -30.7090 C   0  0  0  0  0  0  0  0  0  0  0  0
   -6.1220   24.6500  -29.9750 C   0  0  0  0  0  0  0  0  0  0  0  0
   -5.0000   24.6900  -29.0920 N   0  0  0  0  0  0  0  0  0  0  0  0
   -6.8570   25.6670  -30.0860 O   0  0  0  0  0  0  0  0  0  0  0  0
   -7.7850   23.0150  -30.9450 C   0  0  0  0  0  0  0  0  0  0  0  0
   -7.6810   21.8090  -31.5970 C   0  0  0  0  0  0  0  0  0  0  0  0
   -8.6780   20.9710  -32.0820 C   0  0  0  0  0  0  0  0  0  0  0  0
   -8.2880   19.8010  -32.7530 C   0  0  0  0  0  0  0  0  0  0  0  0
   -6.9130   19.4850  -32.9430 C   0  0  0  0  0  0  0  0  0  0  0  0
   -6.5230   18.2790  -33.6510 N   0  0  0  0  0  0  0  0  0  0  0  0
   -5.7580   18.3630  -34.9010 C   0  0  0  0  0  0  0  0  0  0  0  0
   -6.8850   16.9570  -33.1280 C   0  0  0  0  0  0  0  0  0  0  0  0
   -5.9320   20.3750  -32.4310 C   0  0  0  0  0  0  0  0  0  0  0  0
   -6.3500   21.5220  -31.7460 C   0  0  0  0  0  0  0  0  0  0  0  0
   -0.0199   24.4903  -28.4994 H   0  0  0  0  0  0  0  0  0  0  0  0
    0.8417   25.1770  -26.9450 H   0  0  0  0  0  0  0  0  0  0  0  0
   -1.2551   25.1299  -24.8469 H   0  0  0  0  0  0  0  0  0  0  0  0
   -0.5289   26.6313  -25.5143 H   0  0  0  0  0  0  0  0  0  0  0  0
   -2.3127   26.4194  -25.5143 H   0  0  0  0  0  0  0  0  0  0  0  0
   -1.5144   23.8496  -30.4615 H   0  0  0  0  0  0  0  0  0  0  0  0
   -2.5071   22.9198  -29.2869 H   0  0  0  0  0  0  0  0  0  0  0  0
   -4.4700   23.8240  -28.8520 H   0  0  0  0  0  0  0  0  0  0  0  0
   -4.7410   25.5820  -28.6150 H   0  0  0  0  0  0  0  0  0  0  0  0
   -8.7071   23.5474  -30.6690 H   0  0  0  0  0  0  0  0  0  0  0  0
   -9.7412   21.2171  -31.9442 H   0  0  0  0  0  0  0  0  0  0  0  0
   -9.0582   19.1167  -33.1385 H   0  0  0  0  0  0  0  0  0  0  0  0
   -4.6891   18.4804  -34.6695 H   0  0  0  0  0  0  0  0  0  0  0  0
   -5.9078   17.4430  -35.4851 H   0  0  0  0  0  0  0  0  0  0  0  0
   -6.1039   19.2286  -35.4851 H   0  0  0  0  0  0  0  0  0  0  0  0
   -6.8778   16.9832  -32.0283 H   0  0  0  0  0  0  0  0  0  0  0  0
   -7.8906   16.6855  -33.4818 H   0  0  0  0  0  0  0  0  0  0  0  0
   -6.1580   16.2111  -33.4818 H   0  0  0  0  0  0  0  0  0  0  0  0
   -4.8610   20.1665  -32.5704 H   0  0  0  0  0  0  0  0  0  0  0  0
  1  2  2  0
  2  3  1  0
  2  4  1  0
  4  5  2  0
  4  6  1  0
  6  7  1  0
  7  8  1  0
  8  9  1  0
  9 10  2  0
  9 11  1  0
 11 12  1  0
 12 13  1  0
 13 14  1  0
 13 15  2  0
 12 16  2  0
 16 17  1  0
 17 18  2  0
 18 19  1  0
 19 20  2  0
 20 21  1  0
 21 22  1  0
 21 23  1  0
 20 24  1  0
 24 25  2  0
 25 11  1  0
 25 17  1  0
  1 26  1  0
  1 27  1  0
  3 28  1  0
  3 29  1  0
  3 30  1  0
  7 31  1  0
  7 32  1  0
 14 33  1  0
 14 34  1  0
 16 35  1  0
 18 36  1  0
 19 37  1  0
 22 38  1  0
 22 39  1  0
 22 40  1  0
 23 41  1  0
 23 42  1  0
 23 43  1  0
 24 44  1  0
M  END
>  <UniqueID>  (70) 
69

>  <SMILES>  (70) 
C=C(C)C(=O)OCOC(=O)n1c(C(N)=O)cc2ccc(N(C)C)cc21

>  <Energy>  (70) 
79.08929885951879

>  <Genealogy>  (70) 
C=C(C)C(=O)OCOC(=O)n1c(C(N)=O)cc2ccc(N(C)C)cc21 (3D coordinates assigned)
C=C(C)C(=O)OCOC(=O)n1c(C(N)=O)cc2ccc(N(C)C)cc21 (optimized conformer: 79.08929885951879 kcal/mol)

>  <smiles>  (70) 
C=C(C)C(=O)OCOC(=O)n1c(C(N)=O)cc2ccc(N(C)C)cc21

>  <score_type>  (70) 
oracle

>  <origin>  (70) 
adg

>  <m_score__min__energy>  (70) 
-9.6400000000000006

>  <m_primary>  (70) 
energy

$$$$
71:0
     RDKit          3D

 65 70  0  0  0  0  0  0  0  0999 V2000
   -0.8580   21.9180  -25.2550 C   0  0  0  0  0  0  0  0  0  0  0  0
   -0.5050   23.0230  -26.2800 C   0  0  2  0  0  0  0  0  0  0  0  0
   -1.3030   22.8630  -27.5960 C   0  0  0  0  0  0  0  0  0  0  0  0
   -0.8090   23.3470  -28.8290 C   0  0  0  0  0  0  0  0  0  0  0  0
   -1.5180   23.1460  -30.0170 C   0  0  0  0  0  0  0  0  0  0  0  0
   -2.7310   22.4430  -30.0160 C   0  0  0  0  0  0  0  0  0  0  0  0
   -3.4780   22.2320  -31.2800 C   0  0  0  0  0  0  0  0  0  0  0  0
   -2.8740   21.8140  -32.3060 O   0  0  0  0  0  0  0  0  0  0  0  0
   -4.8850   22.5020  -31.3600 N   0  0  0  0  0  0  0  0  0  0  0  0
   -5.5560   23.5810  -30.8710 C   0  0  0  0  0  0  0  0  0  0  0  0
   -4.9410   24.7710  -30.2450 C   0  0  0  0  0  0  0  0  0  0  0  0
   -3.7070   25.2970  -30.7230 N   0  0  0  0  0  0  0  0  0  0  0  0
   -5.5190   25.3360  -29.2780 O   0  0  0  0  0  0  0  0  0  0  0  0
   -6.9290   23.4270  -31.0630 C   0  0  0  0  0  0  0  0  0  0  0  0
   -7.0760   22.2080  -31.6850 C   0  0  0  0  0  0  0  0  0  0  0  0
   -8.2260   21.5370  -32.0830 C   0  0  0  0  0  0  0  0  0  0  0  0
   -8.0820   20.2650  -32.6640 C   0  0  0  0  0  0  0  0  0  0  0  0
   -6.7930   19.6840  -32.8380 C   0  0  0  0  0  0  0  0  0  0  0  0
   -6.6110   18.3850  -33.4360 N   0  0  0  0  0  0  0  0  0  0  0  0
   -5.7890   17.3060  -32.8830 C   0  0  0  0  0  0  0  0  0  0  0  0
   -6.0210   16.0000  -33.6420 C   0  0  0  0  0  0  0  0  0  0  0  0
   -7.1610   16.0970  -34.4510 O   0  0  0  0  0  0  0  0  0  0  0  0
   -5.6510   20.4060  -32.4210 C   0  0  0  0  0  0  0  0  0  0  0  0
   -5.8280   21.6690  -31.8500 C   0  0  0  0  0  0  0  0  0  0  0  0
   -3.2120   21.9230  -28.8060 C   0  0  0  0  0  0  0  0  0  0  0  0
   -2.5030   22.1180  -27.6190 C   0  0  0  0  0  0  0  0  0  0  0  0
    0.9880   22.8520  -26.5900 C   0  0  0  0  0  0  0  0  0  0  0  0
    1.8580   23.8790  -26.7230 C   0  0  0  0  0  0  0  0  0  0  0  0
    3.2070   23.6270  -27.2720 C   0  0  0  0  0  0  0  0  0  0  0  0
    3.8920   24.6300  -27.8290 C   0  0  0  0  0  0  0  0  0  0  0  0
    3.3110   25.9870  -27.9260 C   0  0  0  0  0  0  0  0  0  0  0  0
    2.1590   26.2910  -27.3130 C   0  0  0  0  0  0  0  0  0  0  0  0
    1.5100   25.3150  -26.3570 C   0  0  1  0  0  0  0  0  0  0  0  0
    0.0260   25.4640  -26.2640 C   0  0  0  0  0  0  0  0  0  0  0  0
   -0.6700   26.4500  -26.7290 N   0  0  0  0  0  0  0  0  0  0  0  0
   -2.0300   26.1430  -26.4470 C   0  0  0  0  0  0  0  0  0  0  0  0
   -2.1510   24.9800  -25.8250 C   0  0  0  0  0  0  0  0  0  0  0  0
   -0.7860   24.4080  -25.6120 C   0  0  1  0  0  0  0  0  0  0  0  0
   -0.7326   22.3104  -24.2350 H   0  0  0  0  0  0  0  0  0  0  0  0
   -1.9016   21.6025  -25.4008 H   0  0  0  0  0  0  0  0  0  0  0  0
   -0.1905   21.0559  -25.4008 H   0  0  0  0  0  0  0  0  0  0  0  0
    0.1474   23.8898  -28.8540 H   0  0  0  0  0  0  0  0  0  0  0  0
   -1.1200   23.5435  -30.9623 H   0  0  0  0  0  0  0  0  0  0  0  0
   -2.8530   25.3010  -30.1210 H   0  0  0  0  0  0  0  0  0  0  0  0
   -7.7252   24.1304  -30.7779 H   0  0  0  0  0  0  0  0  0  0  0  0
   -9.2201   21.9880  -31.9474 H   0  0  0  0  0  0  0  0  0  0  0  0
   -8.9756   19.7115  -32.9882 H   0  0  0  0  0  0  0  0  0  0  0  0
   -7.0530   18.2050  -34.3650 H   0  0  0  0  0  0  0  0  0  0  0  0
   -4.7279   17.5849  -32.9621 H   0  0  0  0  0  0  0  0  0  0  0  0
   -6.0691   17.1551  -31.8300 H   0  0  0  0  0  0  0  0  0  0  0  0
   -5.1459   15.7885  -34.2740 H   0  0  0  0  0  0  0  0  0  0  0  0
   -6.1695   15.1881  -32.9148 H   0  0  0  0  0  0  0  0  0  0  0  0
   -7.1910   15.2660  -34.9880 H   0  0  0  0  0  0  0  0  0  0  0  0
   -4.6435   19.9819  -32.5436 H   0  0  0  0  0  0  0  0  0  0  0  0
   -4.1551   21.3571  -28.7917 H   0  0  0  0  0  0  0  0  0  0  0  0
   -2.8862   21.6832  -26.6840 H   0  0  0  0  0  0  0  0  0  0  0  0
    1.3752   21.8296  -26.7118 H   0  0  0  0  0  0  0  0  0  0  0  0
    3.6447   22.6191  -27.2223 H   0  0  0  0  0  0  0  0  0  0  0  0
    4.9027   24.4439  -28.2212 H   0  0  0  0  0  0  0  0  0  0  0  0
    3.8330   26.7588  -28.5107 H   0  0  0  0  0  0  0  0  0  0  0  0
    1.6796   27.2618  -27.5073 H   0  0  0  0  0  0  0  0  0  0  0  0
    1.9203   25.5577  -25.3657 H   0  0  0  0  0  0  0  0  0  0  0  0
   -2.8774   26.7920  -26.7129 H   0  0  0  0  0  0  0  0  0  0  0  0
   -3.0978   24.5128  -25.5165 H   0  0  0  0  0  0  0  0  0  0  0  0
   -0.5910   24.1890  -24.5518 H   0  0  0  0  0  0  0  0  0  0  0  0
  2  1  1  1
  2  3  1  0
  3  4  2  0
  4  5  1  0
  5  6  2  0
  6  7  1  0
  7  8  2  0
  7  9  1  0
  9 10  1  0
 10 11  1  0
 11 12  1  0
 11 13  2  0
 10 14  2  0
 14 15  1  0
 15 16  2  0
 16 17  1  0
 17 18  2  0
 18 19  1  0
 19 20  1  0
 20 21  1  0
 21 22  1  0
 18 23  1  0
 23 24  2  0
  6 25  1  0
 25 26  2  0
  2 27  1  0
 27 28  2  0
 28 29  1  0
 29 30  2  0
 30 31  1  0
 31 32  2  0
 32 33  1  0
 33 34  1  0
 34 35  2  0
 35 36  1  0
 36 37  2  0
 37 38  1  0
 38  2  1  0
 26  3  1  0
 33 28  1  0
 38 34  1  0
 24  9  1  0
 24 15  1  0
  1 39  1  0
  1 40  1  0
  1 41  1  0
  4 42  1  0
  5 43  1  0
 12 44  1  0
 14 45  1  0
 16 46  1  0
 17 47  1  0
 19 48  1  0
 20 49  1  0
 20 50  1  0
 21 51  1  0
 21 52  1  0
 22 53  1  0
 23 54  1  0
 25 55  1  0
 26 56  1  0
 27 57  1  0
 29 58  1  0
 30 59  1  0
 31 60  1  0
 32 61  1  0
 33 62  1  1
 36 63  1  0
 37 64  1  0
 38 65  1  1
M  CHG  1  12  -1
M  END
>  <UniqueID>  (71) 
70

>  <SMILES>  (71) 
C[C@]1(c2ccc(C(=O)n3c(C([NH-])=O)cc4ccc(NCCO)cc43)cc2)C=C2C=CC=C[C@H]2C2=NC=CC21

>  <Energy>  (71) 
141.80459705083837

>  <Genealogy>  (71) 
CC1(c2ccc(C(=O)n3c(C([NH-])=O)cc4ccc(NCCO)cc43)cc2)C=C2C=CC=CC2C2=NC=CC21 (protonated)
C[C@]1(c2ccc(C(=O)n3c(C([NH-])=O)cc4ccc(NCCO)cc43)cc2)C=C2C=CC=C[C@H]2C2=NC=CC21 (chirality)
C[C@]1(c2ccc(C(=O)n3c(C([NH-])=O)cc4ccc(NCCO)cc43)cc2)C=C2C=CC=C[C@H]2C2=NC=CC21 (3D coordinates assigned)
C[C@]1(c2ccc(C(=O)n3c(C([NH-])=O)cc4ccc(NCCO)cc43)cc2)C=C2C=CC=C[C@H]2C2=NC=CC21 (nonaromatic ring conformer: 141.80459705083837 kcal/mol)

>  <smiles>  (71) 
CC1(c2ccc(C(=O)n3c(C(N)=O)cc4ccc(NCCO)cc43)cc2)C=C2C=CC=CC2C2=NC=CC21

>  <score_type>  (71) 
oracle

>  <origin>  (71) 
adg

>  <m_score__min__energy>  (71) 
-12.890000000000001

>  <m_primary>  (71) 
energy

$$$$
72:0
     RDKit          3D

 31 32  0  0  0  0  0  0  0  0999 V2000
   -3.9120   25.6550  -30.8870 N   0  0  0  0  0  0  0  0  0  0  0  0
   -5.1480   25.0760  -30.4780 C   0  0  0  0  0  0  0  0  0  0  0  0
   -5.8780   25.6950  -29.6590 O   0  0  0  0  0  0  0  0  0  0  0  0
   -5.5780   23.7810  -31.0450 C   0  0  0  0  0  0  0  0  0  0  0  0
   -6.8950   23.4960  -31.3970 C   0  0  0  0  0  0  0  0  0  0  0  0
   -6.8880   22.1790  -31.8000 C   0  0  0  0  0  0  0  0  0  0  0  0
   -7.9260   21.3840  -32.2760 C   0  0  0  0  0  0  0  0  0  0  0  0
   -7.6240   20.0650  -32.6560 C   0  0  0  0  0  0  0  0  0  0  0  0
   -6.3010   19.5700  -32.5500 C   0  0  0  0  0  0  0  0  0  0  0  0
   -5.9800   18.1760  -33.0060 C   0  0  0  0  0  0  0  0  0  0  0  0
   -5.7030   18.1680  -34.7650 Cl  0  0  0  0  0  0  0  0  0  0  0  0
   -5.2710   20.4110  -32.0740 C   0  0  0  0  0  0  0  0  0  0  0  0
   -5.6040   21.7140  -31.6860 C   0  0  0  0  0  0  0  0  0  0  0  0
   -4.7860   22.6860  -31.2260 N   0  0  0  0  0  0  0  0  0  0  0  0
   -3.3640   22.5920  -31.0560 C   0  0  0  0  0  0  0  0  0  0  0  0
   -2.6750   21.9280  -31.8790 O   0  0  0  0  0  0  0  0  0  0  0  0
   -2.7470   23.2530  -29.9890 O   0  0  0  0  0  0  0  0  0  0  0  0
   -1.3500   23.1730  -29.7160 C   0  0  0  0  0  0  0  0  0  0  0  0
   -0.8390   24.5450  -28.6360 P   0  0  0  0  0  0  0  0  0  0  0  0
   -1.5120   24.4000  -27.2910 O   0  0  0  0  0  0  0  0  0  0  0  0
    0.8390   24.5260  -28.4260 O   0  0  0  0  0  0  0  0  0  0  0  0
   -1.2990   26.0130  -29.3380 O   0  0  0  0  0  0  0  0  0  0  0  0
   -3.0040   25.3050  -30.5110 H   0  0  0  0  0  0  0  0  0  0  0  0
   -7.7575   24.1778  -31.3608 H   0  0  0  0  0  0  0  0  0  0  0  0
   -8.9511   21.7756  -32.3525 H   0  0  0  0  0  0  0  0  0  0  0  0
   -8.4217   19.4116  -33.0389 H   0  0  0  0  0  0  0  0  0  0  0  0
   -5.0741   17.8227  -32.4917 H   0  0  0  0  0  0  0  0  0  0  0  0
   -6.8236   17.5116  -32.7673 H   0  0  0  0  0  0  0  0  0  0  0  0
   -4.2335   20.0512  -32.0098 H   0  0  0  0  0  0  0  0  0  0  0  0
   -1.1318   22.2174  -29.2168 H   0  0  0  0  0  0  0  0  0  0  0  0
   -0.7956   23.2378  -30.6639 H   0  0  0  0  0  0  0  0  0  0  0  0
  1  2  1  0
  2  3  2  0
  2  4  1  0
  4  5  2  0
  5  6  1  0
  6  7  2  0
  7  8  1  0
  8  9  2  0
  9 10  1  0
 10 11  1  0
  9 12  1  0
 12 13  2  0
 13 14  1  0
 14 15  1  0
 15 16  2  0
 15 17  1  0
 17 18  1  0
 18 19  1  0
 19 20  2  0
 19 21  1  0
 19 22  1  0
 14  4  1  0
 13  6  1  0
  1 23  1  0
  5 24  1  0
  7 25  1  0
  8 26  1  0
 10 27  1  0
 10 28  1  0
 12 29  1  0
 18 30  1  0
 18 31  1  0
M  CHG  3   1  -1  21  -1  22  -1
M  END
>  <UniqueID>  (72) 
71

>  <SMILES>  (72) 
[NH-]C(=O)c1cc2ccc(CCl)cc2n1C(=O)OCP(=O)([O-])[O-]

>  <Energy>  (72) 
64.09082390830905

>  <Genealogy>  (72) 
[NH-]C(=O)c1cc2ccc(CCl)cc2n1C(=O)OCP(=O)([O-])[O-] (protonated)
[NH-]C(=O)c1cc2ccc(CCl)cc2n1C(=O)OCP(=O)([O-])[O-] (3D coordinates assigned)
[NH-]C(=O)c1cc2ccc(CCl)cc2n1C(=O)OCP(=O)([O-])[O-] (optimized conformer: 64.09082390830905 kcal/mol)

>  <smiles>  (72) 
NC(=O)c1cc2ccc(CCl)cc2n1C(=O)OCP(=O)(O)O

>  <score_type>  (72) 
oracle

>  <origin>  (72) 
adg

>  <m_score__min__energy>  (72) 
-13.82

>  <m_primary>  (72) 
energy

$$$$
73:0
     RDKit          3D

 40 41  0  0  0  0  0  0  0  0999 V2000
   -7.2260   18.5730  -33.0920 C   0  0  0  0  0  0  0  0  0  0  0  0
   -7.3040   19.9530  -32.5100 C   0  0  0  0  0  0  0  0  0  0  0  0
   -8.5660   20.5550  -32.2860 C   0  0  0  0  0  0  0  0  0  0  0  0
   -8.6550   21.8650  -31.7890 C   0  0  0  0  0  0  0  0  0  0  0  0
   -7.4690   22.5470  -31.5300 C   0  0  0  0  0  0  0  0  0  0  0  0
   -7.2660   23.8320  -31.0830 C   0  0  0  0  0  0  0  0  0  0  0  0
   -5.8820   23.9940  -31.0360 C   0  0  0  0  0  0  0  0  0  0  0  0
   -5.2200   25.2170  -30.5370 C   0  0  0  0  0  0  0  0  0  0  0  0
   -3.8690   25.4910  -30.9010 N   0  0  0  0  0  0  0  0  0  0  0  0
   -5.8440   26.0400  -29.8170 O   0  0  0  0  0  0  0  0  0  0  0  0
   -5.2550   22.8530  -31.4430 N   0  0  0  0  0  0  0  0  0  0  0  0
   -3.8460   22.6330  -31.6150 C   0  0  0  0  0  0  0  0  0  0  0  0
   -3.4200   22.0680  -32.6580 O   0  0  0  0  0  0  0  0  0  0  0  0
   -2.9550   23.0220  -30.6090 O   0  0  0  0  0  0  0  0  0  0  0  0
   -3.2070   22.7940  -29.2250 C   0  0  0  0  0  0  0  0  0  0  0  0
   -3.6190   24.0060  -28.6000 O   0  0  0  0  0  0  0  0  0  0  0  0
   -2.9330   24.5740  -27.5230 C   0  0  0  0  0  0  0  0  0  0  0  0
   -3.1080   24.1380  -26.3500 O   0  0  0  0  0  0  0  0  0  0  0  0
   -1.9340   25.6660  -27.7870 C   0  0  1  0  0  0  0  0  0  0  0  0
   -0.9480   25.8430  -26.6280 C   0  0  0  0  0  0  0  0  0  0  0  0
   -1.2270   25.4140  -29.0410 N   0  0  0  0  0  0  0  0  0  0  0  0
   -0.4900   24.2180  -29.3120 C   0  0  0  0  0  0  0  0  0  0  0  0
    0.7060   24.1230  -28.9360 O   0  0  0  0  0  0  0  0  0  0  0  0
   -6.2400   21.9770  -31.7390 C   0  0  0  0  0  0  0  0  0  0  0  0
   -6.1210   20.6790  -32.2490 C   0  0  0  0  0  0  0  0  0  0  0  0
   -7.1842   17.8338  -32.2785 H   0  0  0  0  0  0  0  0  0  0  0  0
   -8.1150   18.3858  -33.7122 H   0  0  0  0  0  0  0  0  0  0  0  0
   -6.3216   18.4872  -33.7122 H   0  0  0  0  0  0  0  0  0  0  0  0
   -9.4851   19.9910  -32.5034 H   0  0  0  0  0  0  0  0  0  0  0  0
   -9.6317   22.3381  -31.6097 H   0  0  0  0  0  0  0  0  0  0  0  0
   -8.0332   24.5746  -30.8186 H   0  0  0  0  0  0  0  0  0  0  0  0
   -3.0780   25.2110  -30.2790 H   0  0  0  0  0  0  0  0  0  0  0  0
   -4.0013   22.0406  -29.1184 H   0  0  0  0  0  0  0  0  0  0  0  0
   -2.2855   22.4342  -28.7441 H   0  0  0  0  0  0  0  0  0  0  0  0
   -2.4918   26.6099  -27.8763 H   0  0  0  0  0  0  0  0  0  0  0  0
   -1.4843   25.7467  -25.6724 H   0  0  0  0  0  0  0  0  0  0  0  0
   -0.1672   25.0707  -26.6897 H   0  0  0  0  0  0  0  0  0  0  0  0
   -0.4846   26.8387  -26.6897 H   0  0  0  0  0  0  0  0  0  0  0  0
   -0.9681   23.3845  -29.8474 H   0  0  0  0  0  0  0  0  0  0  0  0
   -5.1326   20.2362  -32.4414 H   0  0  0  0  0  0  0  0  0  0  0  0
  1  2  1  0
  2  3  2  0
  3  4  1  0
  4  5  2  0
  5  6  1  0
  6  7  2  0
  7  8  1  0
  8  9  1  0
  8 10  2  0
  7 11  1  0
 11 12  1  0
 12 13  2  0
 12 14  1  0
 14 15  1  0
 15 16  1  0
 16 17  1  0
 17 18  2  0
 17 19  1  0
 19 20  1  0
 19 21  1  0
 21 22  1  0
 22 23  2  0
 11 24  1  0
 24 25  2  0
 25  2  1  0
 24  5  1  0
  1 26  1  0
  1 27  1  0
  1 28  1  0
  3 29  1  0
  4 30  1  0
  6 31  1  0
  9 32  1  0
 15 33  1  0
 15 34  1  0
 19 35  1  6
 20 36  1  0
 20 37  1  0
 20 38  1  0
 22 39  1  0
 25 40  1  0
M  CHG  2   9  -1  21  -1
M  END
>  <UniqueID>  (73) 
72

>  <SMILES>  (73) 
Cc1ccc2cc(C([NH-])=O)n(C(=O)OCOC(=O)[C@@H](C)[N-]C=O)c2c1

>  <Energy>  (73) 
68.28066307502024

>  <Genealogy>  (73) 
Cc1ccc2cc(C([NH-])=O)n(C(=O)OCOC(=O)C(C)[N-]C=O)c2c1 (protonated)
Cc1ccc2cc(C([NH-])=O)n(C(=O)OCOC(=O)[C@@H](C)[N-]C=O)c2c1 (chirality)
Cc1ccc2cc(C([NH-])=O)n(C(=O)OCOC(=O)[C@@H](C)[N-]C=O)c2c1 (3D coordinates assigned)
Cc1ccc2cc(C([NH-])=O)n(C(=O)OCOC(=O)[C@@H](C)[N-]C=O)c2c1 (optimized conformer: 68.28066307502024 kcal/mol)

>  <smiles>  (73) 
Cc1ccc2cc(C(N)=O)n(C(=O)OCOC(=O)C(C)NC=O)c2c1

>  <score_type>  (73) 
oracle

>  <origin>  (73) 
adg

>  <m_score__min__energy>  (73) 
-11.06

>  <m_primary>  (73) 
energy

$$$$
74:0
     RDKit          3D

 45 46  0  0  0  0  0  0  0  0999 V2000
   -3.8710   24.5820  -27.1850 C   0  0  0  0  0  0  0  0  0  0  0  0
   -3.0330   23.7940  -28.1070 N   0  0  1  0  0  0  0  0  0  0  0  0
   -1.5990   23.8380  -27.7320 C   0  0  0  0  0  0  0  0  0  0  0  0
   -0.7990   24.8920  -28.5200 C   0  0  0  0  0  0  0  0  0  0  0  0
   -1.6210   25.9490  -28.9340 O   0  0  0  0  0  0  0  0  0  0  0  0
   -3.4870   22.4150  -28.1160 C   0  0  0  0  0  0  0  0  0  0  0  0
   -4.4710   22.0920  -27.4620 O   0  0  0  0  0  0  0  0  0  0  0  0
   -2.7090   21.3740  -28.8960 C   0  0  0  0  0  0  0  0  0  0  0  0
   -3.1020   21.2670  -30.3780 C   0  0  0  0  0  0  0  0  0  0  0  0
   -3.6660   22.5610  -30.8980 C   0  0  0  0  0  0  0  0  0  0  0  0
   -2.8860   23.5160  -31.1620 O   0  0  0  0  0  0  0  0  0  0  0  0
   -5.0820   22.7320  -31.0630 N   0  0  0  0  0  0  0  0  0  0  0  0
   -5.8350   23.8260  -30.7570 C   0  0  0  0  0  0  0  0  0  0  0  0
   -5.3430   25.0850  -30.1530 C   0  0  0  0  0  0  0  0  0  0  0  0
   -4.0590   25.6100  -30.4770 N   0  0  0  0  0  0  0  0  0  0  0  0
   -6.0670   25.7010  -29.3250 O   0  0  0  0  0  0  0  0  0  0  0  0
   -7.1770   23.5880  -31.0520 C   0  0  0  0  0  0  0  0  0  0  0  0
   -7.2210   22.3080  -31.5560 C   0  0  0  0  0  0  0  0  0  0  0  0
   -8.2980   21.5690  -32.0340 C   0  0  0  0  0  0  0  0  0  0  0  0
   -8.0430   20.2800  -32.5320 C   0  0  0  0  0  0  0  0  0  0  0  0
   -6.7260   19.7510  -32.5410 C   0  0  0  0  0  0  0  0  0  0  0  0
   -6.4640   18.3940  -33.1420 C   0  0  0  0  0  0  0  0  0  0  0  0
   -6.1130   18.5050  -34.4770 F   0  0  0  0  0  0  0  0  0  0  0  0
   -7.6060   17.6220  -33.0400 F   0  0  0  0  0  0  0  0  0  0  0  0
   -5.4290   17.7610  -32.4740 F   0  0  0  0  0  0  0  0  0  0  0  0
   -5.6550   20.5450  -32.0690 C   0  0  0  0  0  0  0  0  0  0  0  0
   -5.9430   21.8150  -31.5570 C   0  0  0  0  0  0  0  0  0  0  0  0
   -3.6069   24.3337  -26.1465 H   0  0  0  0  0  0  0  0  0  0  0  0
   -3.7004   25.6545  -27.3603 H   0  0  0  0  0  0  0  0  0  0  0  0
   -4.9310   24.3459  -27.3603 H   0  0  0  0  0  0  0  0  0  0  0  0
   -3.1500   24.1900  -29.0690 H   0  0  0  0  0  0  0  0  0  0  0  0
   -1.5249   24.0722  -26.6598 H   0  0  0  0  0  0  0  0  0  0  0  0
   -1.1680   22.8544  -27.9703 H   0  0  0  0  0  0  0  0  0  0  0  0
    0.0001   25.2898  -27.8773 H   0  0  0  0  0  0  0  0  0  0  0  0
   -0.3754   24.4104  -29.4137 H   0  0  0  0  0  0  0  0  0  0  0  0
   -2.0130   25.6810  -29.8070 H   0  0  0  0  0  0  0  0  0  0  0  0
   -1.6406   21.6301  -28.8409 H   0  0  0  0  0  0  0  0  0  0  0  0
   -2.9405   20.4008  -28.4385 H   0  0  0  0  0  0  0  0  0  0  0  0
   -2.2097   21.0052  -30.9656 H   0  0  0  0  0  0  0  0  0  0  0  0
   -3.8770   20.4921  -30.4725 H   0  0  0  0  0  0  0  0  0  0  0  0
   -3.2020   25.2820  -29.9770 H   0  0  0  0  0  0  0  0  0  0  0  0
   -8.0222   24.2778  -30.9115 H   0  0  0  0  0  0  0  0  0  0  0  0
   -9.3179   21.9809  -32.0225 H   0  0  0  0  0  0  0  0  0  0  0  0
   -8.8746   19.6733  -32.9198 H   0  0  0  0  0  0  0  0  0  0  0  0
   -4.6204   20.1731  -32.1036 H   0  0  0  0  0  0  0  0  0  0  0  0
  1  2  1  0
  2  3  1  0
  3  4  1  0
  4  5  1  0
  2  6  1  0
  6  7  2  0
  6  8  1  0
  8  9  1  0
  9 10  1  0
 10 11  2  0
 10 12  1  0
 12 13  1  0
 13 14  1  0
 14 15  1  0
 14 16  2  0
 13 17  2  0
 17 18  1  0
 18 19  2  0
 19 20  1  0
 20 21  2  0
 21 22  1  0
 22 23  1  0
 22 24  1  0
 22 25  1  0
 21 26  1  0
 26 27  2  0
 27 12  1  0
 27 18  1  0
  1 28  1  0
  1 29  1  0
  1 30  1  0
  2 31  1  6
  3 32  1  0
  3 33  1  0
  4 34  1  0
  4 35  1  0
  5 36  1  0
  8 37  1  0
  8 38  1  0
  9 39  1  0
  9 40  1  0
 15 41  1  0
 17 42  1  0
 19 43  1  0
 20 44  1  0
 26 45  1  0
M  CHG  2   2   1  15  -1
M  END
>  <UniqueID>  (74) 
73

>  <SMILES>  (74) 
C[N@@H+](CCO)C(=O)CCC(=O)n1c(C([NH-])=O)cc2ccc(C(F)(F)F)cc21

>  <Energy>  (74) 
82.42935170140277

>  <Genealogy>  (74) 
C[NH+](CCO)C(=O)CCC(=O)n1c(C([NH-])=O)cc2ccc(C(F)(F)F)cc21 (protonated)
C[N@@H+](CCO)C(=O)CCC(=O)n1c(C([NH-])=O)cc2ccc(C(F)(F)F)cc21 (chirality)
C[N@@H+](CCO)C(=O)CCC(=O)n1c(C([NH-])=O)cc2ccc(C(F)(F)F)cc21 (3D coordinates assigned)
C[N@@H+](CCO)C(=O)CCC(=O)n1c(C([NH-])=O)cc2ccc(C(F)(F)F)cc21 (optimized conformer: 82.42935170140277 kcal/mol)

>  <smiles>  (74) 
CN(CCO)C(=O)CCC(=O)n1c(C(N)=O)cc2ccc(C(F)(F)F)cc21

>  <score_type>  (74) 
oracle

>  <origin>  (74) 
adg

>  <m_score__min__energy>  (74) 
-9.7699999999999996

>  <m_primary>  (74) 
energy

$$$$
75:0
     RDKit          3D

 43 44  0  0  0  0  0  0  0  0999 V2000
   -0.8610   23.5580  -26.0030 C   0  0  0  0  0  0  0  0  0  0  0  0
   -1.4890   23.9990  -27.2510 N   0  0  0  0  0  0  0  0  0  0  0  0
   -2.6360   24.9160  -27.2200 C   0  0  0  0  0  0  0  0  0  0  0  0
   -3.9480   24.1320  -27.2460 C   0  0  0  0  0  0  0  0  0  0  0  0
   -3.9340   23.1940  -28.2880 O   0  0  0  0  0  0  0  0  0  0  0  0
   -0.9650   23.5430  -28.5120 C   0  0  0  0  0  0  0  0  0  0  0  0
    0.1340   23.9940  -28.9390 O   0  0  0  0  0  0  0  0  0  0  0  0
   -1.6730   22.5960  -29.2610 O   0  0  0  0  0  0  0  0  0  0  0  0
   -1.6350   22.5450  -30.6840 C   0  0  0  0  0  0  0  0  0  0  0  0
   -2.7290   23.2740  -31.2330 O   0  0  0  0  0  0  0  0  0  0  0  0
   -3.8240   22.6520  -31.8450 C   0  0  0  0  0  0  0  0  0  0  0  0
   -3.6510   21.8990  -32.8420 O   0  0  0  0  0  0  0  0  0  0  0  0
   -5.1530   22.8990  -31.3570 N   0  0  0  0  0  0  0  0  0  0  0  0
   -5.6590   24.0690  -30.8750 C   0  0  0  0  0  0  0  0  0  0  0  0
   -4.8870   25.2960  -30.5980 C   0  0  0  0  0  0  0  0  0  0  0  0
   -3.5280   25.2000  -30.1770 N   0  0  0  0  0  0  0  0  0  0  0  0
   -5.4020   26.4310  -30.7680 O   0  0  0  0  0  0  0  0  0  0  0  0
   -7.0150   23.9320  -30.5840 C   0  0  0  0  0  0  0  0  0  0  0  0
   -7.3250   22.6290  -30.9010 C   0  0  0  0  0  0  0  0  0  0  0  0
   -8.5360   21.9490  -30.8070 C   0  0  0  0  0  0  0  0  0  0  0  0
   -8.5730   20.6090  -31.2240 C   0  0  0  0  0  0  0  0  0  0  0  0
   -7.4140   19.9790  -31.7480 C   0  0  0  0  0  0  0  0  0  0  0  0
   -7.4580   18.5290  -32.1560 C   0  0  0  0  0  0  0  0  0  0  0  0
   -6.8850   18.3540  -33.4040 F   0  0  0  0  0  0  0  0  0  0  0  0
   -6.7610   17.7740  -31.2310 F   0  0  0  0  0  0  0  0  0  0  0  0
   -8.7650   18.0750  -32.2150 F   0  0  0  0  0  0  0  0  0  0  0  0
   -6.1970   20.6970  -31.8050 C   0  0  0  0  0  0  0  0  0  0  0  0
   -6.1850   22.0260  -31.3650 C   0  0  0  0  0  0  0  0  0  0  0  0
   -1.4268   23.9553  -25.1474 H   0  0  0  0  0  0  0  0  0  0  0  0
   -0.8585   22.4588  -25.9623 H   0  0  0  0  0  0  0  0  0  0  0  0
    0.1738   23.9288  -25.9623 H   0  0  0  0  0  0  0  0  0  0  0  0
   -2.5927   25.5192  -26.3011 H   0  0  0  0  0  0  0  0  0  0  0  0
   -2.5938   25.5691  -28.1042 H   0  0  0  0  0  0  0  0  0  0  0  0
   -4.0764   23.6077  -26.2876 H   0  0  0  0  0  0  0  0  0  0  0  0
   -4.7804   24.8329  -27.4068 H   0  0  0  0  0  0  0  0  0  0  0  0
   -3.3780   23.5840  -29.0120 H   0  0  0  0  0  0  0  0  0  0  0  0
   -0.6911   22.9852  -31.0381 H   0  0  0  0  0  0  0  0  0  0  0  0
   -1.7053   21.4959  -31.0070 H   0  0  0  0  0  0  0  0  0  0  0  0
   -3.0980   24.2720  -29.9640 H   0  0  0  0  0  0  0  0  0  0  0  0
   -7.6930   24.7013  -30.1858 H   0  0  0  0  0  0  0  0  0  0  0  0
   -9.4366   22.4465  -30.4178 H   0  0  0  0  0  0  0  0  0  0  0  0
   -9.5113   20.0405  -31.1437 H   0  0  0  0  0  0  0  0  0  0  0  0
   -5.2809   20.2222  -32.1863 H   0  0  0  0  0  0  0  0  0  0  0  0
  1  2  1  0
  2  3  1  0
  3  4  1  0
  4  5  1  0
  2  6  1  0
  6  7  2  0
  6  8  1  0
  8  9  1  0
  9 10  1  0
 10 11  1  0
 11 12  2  0
 11 13  1  0
 13 14  1  0
 14 15  1  0
 15 16  1  0
 15 17  2  0
 14 18  2  0
 18 19  1  0
 19 20  2  0
 20 21  1  0
 21 22  2  0
 22 23  1  0
 23 24  1  0
 23 25  1  0
 23 26  1  0
 22 27  1  0
 27 28  2  0
 28 13  1  0
 28 19  1  0
  1 29  1  0
  1 30  1  0
  1 31  1  0
  3 32  1  0
  3 33  1  0
  4 34  1  0
  4 35  1  0
  5 36  1  0
  9 37  1  0
  9 38  1  0
 16 39  1  0
 18 40  1  0
 20 41  1  0
 21 42  1  0
 27 43  1  0
M  CHG  1  16  -1
M  END
>  <UniqueID>  (75) 
74

>  <SMILES>  (75) 
CN(CCO)C(=O)OCOC(=O)n1c(C([NH-])=O)cc2ccc(C(F)(F)F)cc21

>  <Energy>  (75) 
73.50303179761873

>  <Genealogy>  (75) 
CN(CCO)C(=O)OCOC(=O)n1c(C([NH-])=O)cc2ccc(C(F)(F)F)cc21 (protonated)
CN(CCO)C(=O)OCOC(=O)n1c(C([NH-])=O)cc2ccc(C(F)(F)F)cc21 (3D coordinates assigned)
CN(CCO)C(=O)OCOC(=O)n1c(C([NH-])=O)cc2ccc(C(F)(F)F)cc21 (optimized conformer: 73.50303179761873 kcal/mol)

>  <smiles>  (75) 
CN(CCO)C(=O)OCOC(=O)n1c(C(N)=O)cc2ccc(C(F)(F)F)cc21

>  <score_type>  (75) 
oracle

>  <origin>  (75) 
adg

>  <m_score__min__energy>  (75) 
-9.3300000000000001

>  <m_primary>  (75) 
energy

$$$$
76:0
     RDKit          3D

 51 52  0  0  0  0  0  0  0  0999 V2000
   -0.8800   26.4580  -29.8980 H   0  0  0  0  0  0  0  0  0  0  0  0
   -1.2340   26.3760  -28.9190 N   0  0  0  0  0  0  0  0  0  0  0  0
   -1.8050   25.1580  -28.4460 C   0  0  0  0  0  0  0  0  0  0  0  0
   -2.1800   25.0770  -27.2470 O   0  0  0  0  0  0  0  0  0  0  0  0
   -1.9760   24.0170  -29.3690 C   0  0  0  0  0  0  0  0  0  0  0  0
   -1.0070   23.0350  -29.5790 C   0  0  0  0  0  0  0  0  0  0  0  0
   -0.0288   22.9459  -29.0838 H   0  0  0  0  0  0  0  0  0  0  0  0
   -1.5370   22.2010  -30.5390 C   0  0  0  0  0  0  0  0  0  0  0  0
   -1.0110   21.0490  -31.1170 C   0  0  0  0  0  0  0  0  0  0  0  0
   -0.0140   20.6784  -30.8365 H   0  0  0  0  0  0  0  0  0  0  0  0
   -1.7930   20.3740  -32.0700 C   0  0  0  0  0  0  0  0  0  0  0  0
   -1.4073   19.4582  -32.5417 H   0  0  0  0  0  0  0  0  0  0  0  0
   -3.0750   20.8630  -32.4290 C   0  0  0  0  0  0  0  0  0  0  0  0
   -3.9180   20.1110  -33.4140 C   0  0  0  0  0  0  0  0  0  0  0  0
   -4.7510   19.6234  -32.8863 H   0  0  0  0  0  0  0  0  0  0  0  0
   -4.3169   20.8104  -34.1635 H   0  0  0  0  0  0  0  0  0  0  0  0
   -3.1480   19.1520  -34.0440 F   0  0  0  0  0  0  0  0  0  0  0  0
   -3.5820   22.0250  -31.8090 C   0  0  0  0  0  0  0  0  0  0  0  0
   -4.5850   22.4040  -32.0548 H   0  0  0  0  0  0  0  0  0  0  0  0
   -2.7760   22.6820  -30.8740 C   0  0  0  0  0  0  0  0  0  0  0  0
   -3.0540   23.8010  -30.1720 N   0  0  0  0  0  0  0  0  0  0  0  0
   -4.2860   24.5390  -30.1970 C   0  0  0  0  0  0  0  0  0  0  0  0
   -4.3460   25.6100  -30.8560 O   0  0  0  0  0  0  0  0  0  0  0  0
   -5.4720   24.1170  -29.4230 C   0  0  0  0  0  0  0  0  0  0  0  0
   -5.4100   24.1926  -28.3273 H   0  0  0  0  0  0  0  0  0  0  0  0
   -6.6170   23.6500  -29.9410 C   0  0  0  0  0  0  0  0  0  0  0  0
   -7.4066   23.3439  -29.2390 H   0  0  0  0  0  0  0  0  0  0  0  0
   -6.9010   23.5140  -31.4120 C   0  0  0  0  0  0  0  0  0  0  0  0
   -5.9569   23.5811  -31.9724 H   0  0  0  0  0  0  0  0  0  0  0  0
   -7.5798   24.3216  -31.7235 H   0  0  0  0  0  0  0  0  0  0  0  0
   -7.5370   22.2200  -31.6860 N   0  0  0  0  0  0  0  0  0  0  0  0
   -6.7320   21.0280  -31.7230 C   0  0  0  0  0  0  0  0  0  0  0  0
   -5.8230   20.8570  -30.8650 O   0  0  0  0  0  0  0  0  0  0  0  0
   -6.9690   20.0680  -32.7200 O   0  0  0  0  0  0  0  0  0  0  0  0
   -6.9930   18.6430  -32.5470 C   0  0  0  0  0  0  0  0  0  0  0  0
   -6.4940   17.9330  -33.8200 C   0  0  0  0  0  0  0  0  0  0  0  0
   -5.8825   17.0629  -33.5388 H   0  0  0  0  0  0  0  0  0  0  0  0
   -7.3564   17.5981  -34.4151 H   0  0  0  0  0  0  0  0  0  0  0  0
   -5.8868   18.6310  -34.4151 H   0  0  0  0  0  0  0  0  0  0  0  0
   -6.1470   18.2310  -31.3270 C   0  0  0  0  0  0  0  0  0  0  0  0
   -6.6840   18.4925  -30.4033 H   0  0  0  0  0  0  0  0  0  0  0  0
   -5.9698   17.1457  -31.3534 H   0  0  0  0  0  0  0  0  0  0  0  0
   -5.1833   18.7607  -31.3534 H   0  0  0  0  0  0  0  0  0  0  0  0
   -8.4540   18.2440  -32.2960 C   0  0  0  0  0  0  0  0  0  0  0  0
   -8.6394   18.1934  -31.2129 H   0  0  0  0  0  0  0  0  0  0  0  0
   -9.1214   18.9928  -32.7476 H   0  0  0  0  0  0  0  0  0  0  0  0
   -8.6481   17.2599  -32.7476 H   0  0  0  0  0  0  0  0  0  0  0  0
   -8.9750   22.1390  -31.9490 C   0  0  0  0  0  0  0  0  0  0  0  0
   -9.5211   22.1082  -30.9946 H   0  0  0  0  0  0  0  0  0  0  0  0
   -9.2926   23.0207  -32.5250 H   0  0  0  0  0  0  0  0  0  0  0  0
   -9.1916   21.2272  -32.5250 H   0  0  0  0  0  0  0  0  0  0  0  0
  1  2  1  0
  2  3  1  0
  3  4  2  0
  3  5  1  0
  5  6  2  0
  6  7  1  0
  6  8  1  0
  8  9  2  0
  9 10  1  0
  9 11  1  0
 11 12  1  0
 11 13  2  0
 13 14  1  0
 14 15  1  0
 14 16  1  0
 14 17  1  0
 13 18  1  0
 18 19  1  0
 18 20  2  0
 20 21  1  0
 21 22  1  0
 22 23  2  0
 22 24  1  0
 24 25  1  0
 24 26  2  0
 26 27  1  0
 26 28  1  0
 28 29  1  0
 28 30  1  0
 28 31  1  0
 31 32  1  0
 32 33  2  0
 32 34  1  0
 34 35  1  0
 35 36  1  0
 36 37  1  0
 36 38  1  0
 36 39  1  0
 35 40  1  0
 40 41  1  0
 40 42  1  0
 40 43  1  0
 35 44  1  0
 44 45  1  0
 44 46  1  0
 44 47  1  0
 31 48  1  0
 48 49  1  0
 48 50  1  0
 48 51  1  0
 21  5  1  0
 20  8  1  0
M  CHG  1   2  -1
M  END
>  <UniqueID>  (76) 
75

>  <SMILES>  (76) 
CN(C/C=C\C(=O)n1c(C([NH-])=O)cc2ccc(CF)cc21)C(=O)OC(C)(C)C

>  <Energy>  (76) 
81.26910614063449

>  <Genealogy>  (76) 
CN(CC=CC(=O)n1c(C([NH-])=O)cc2ccc(CF)cc21)C(=O)OC(C)(C)C (protonated)
CN(C/C=C\C(=O)n1c(C([NH-])=O)cc2ccc(CF)cc21)C(=O)OC(C)(C)C (cis-trans isomerization)
CN(C/C=C\C(=O)n1c(C([NH-])=O)cc2ccc(CF)cc21)C(=O)OC(C)(C)C (3D coordinates assigned)
CN(C/C=C\C(=O)n1c(C([NH-])=O)cc2ccc(CF)cc21)C(=O)OC(C)(C)C (optimized conformer: 81.26910614063449 kcal/mol)

>  <smiles>  (76) 
CN(CC=CC(=O)n1c(C(N)=O)cc2ccc(CF)cc21)C(=O)OC(C)(C)C

>  <score_type>  (76) 
oracle

>  <origin>  (76) 
adg

>  <m_score__min__energy>  (76) 
-10.76

>  <m_primary>  (76) 
energy

$$$$
77:0
     RDKit          3D

 39 40  0  0  0  0  0  0  0  0999 V2000
   -7.6690   18.5040  -32.6900 C   0  0  0  0  0  0  0  0  0  0  0  0
   -7.6650   19.9200  -32.1960 C   0  0  0  0  0  0  0  0  0  0  0  0
   -8.8610   20.5110  -31.7180 C   0  0  0  0  0  0  0  0  0  0  0  0
   -8.8610   21.8280  -31.2280 C   0  0  0  0  0  0  0  0  0  0  0  0
   -7.6530   22.5170  -31.2100 C   0  0  0  0  0  0  0  0  0  0  0  0
   -7.3730   23.8020  -30.8040 C   0  0  0  0  0  0  0  0  0  0  0  0
   -6.0040   23.9630  -31.0020 C   0  0  0  0  0  0  0  0  0  0  0  0
   -5.2640   25.1810  -30.6070 C   0  0  0  0  0  0  0  0  0  0  0  0
   -3.8760   25.2960  -30.9120 N   0  0  0  0  0  0  0  0  0  0  0  0
   -5.8510   26.1370  -30.0360 O   0  0  0  0  0  0  0  0  0  0  0  0
   -5.4580   22.8250  -31.5190 N   0  0  0  0  0  0  0  0  0  0  0  0
   -4.0950   22.5960  -31.9140 C   0  0  0  0  0  0  0  0  0  0  0  0
   -3.8180   22.3690  -33.1250 O   0  0  0  0  0  0  0  0  0  0  0  0
   -3.0850   22.5990  -30.9490 O   0  0  0  0  0  0  0  0  0  0  0  0
   -1.8100   22.0010  -31.1620 C   0  0  0  0  0  0  0  0  0  0  0  0
   -0.9610   22.2860  -30.0570 O   0  0  0  0  0  0  0  0  0  0  0  0
   -1.3910   22.2030  -28.7260 C   0  0  0  0  0  0  0  0  0  0  0  0
   -1.9210   21.1410  -28.2990 O   0  0  0  0  0  0  0  0  0  0  0  0
   -1.2180   23.3260  -27.8490 N   0  0  0  0  0  0  0  0  0  0  0  0
   -0.2520   23.2450  -26.7550 C   0  0  0  0  0  0  0  0  0  0  0  0
   -2.1880   24.7560  -28.0560 S   0  0  0  0  0  0  0  0  0  0  0  0
   -2.1290   25.6070  -26.8170 O   0  0  0  0  0  0  0  0  0  0  0  0
   -3.6120   24.3620  -28.3230 O   0  0  0  0  0  0  0  0  0  0  0  0
   -1.6010   25.6600  -29.3460 O   0  0  0  0  0  0  0  0  0  0  0  0
   -6.4810   21.9490  -31.6380 C   0  0  0  0  0  0  0  0  0  0  0  0
   -6.4560   20.6450  -32.1490 C   0  0  0  0  0  0  0  0  0  0  0  0
   -7.6709   17.8162  -31.8316 H   0  0  0  0  0  0  0  0  0  0  0  0
   -8.5676   18.3311  -33.3004 H   0  0  0  0  0  0  0  0  0  0  0  0
   -6.7714   18.3261  -33.3004 H   0  0  0  0  0  0  0  0  0  0  0  0
   -9.7974   19.9339  -31.7306 H   0  0  0  0  0  0  0  0  0  0  0  0
   -9.7880   22.2995  -30.8697 H   0  0  0  0  0  0  0  0  0  0  0  0
   -8.0808   24.5446  -30.4071 H   0  0  0  0  0  0  0  0  0  0  0  0
   -3.1690   24.6960  -30.4330 H   0  0  0  0  0  0  0  0  0  0  0  0
   -1.9281   20.9119  -31.2621 H   0  0  0  0  0  0  0  0  0  0  0  0
   -1.3636   22.4079  -32.0813 H   0  0  0  0  0  0  0  0  0  0  0  0
   -0.7832   23.2895  -25.7928 H   0  0  0  0  0  0  0  0  0  0  0  0
    0.3020   22.2972  -26.8245 H   0  0  0  0  0  0  0  0  0  0  0  0
    0.4521   24.0873  -26.8245 H   0  0  0  0  0  0  0  0  0  0  0  0
   -5.5164   20.1973  -32.5050 H   0  0  0  0  0  0  0  0  0  0  0  0
  1  2  1  0
  2  3  2  0
  3  4  1  0
  4  5  2  0
  5  6  1  0
  6  7  2  0
  7  8  1  0
  8  9  1  0
  8 10  2  0
  7 11  1  0
 11 12  1  0
 12 13  2  0
 12 14  1  0
 14 15  1  0
 15 16  1  0
 16 17  1  0
 17 18  2  0
 17 19  1  0
 19 20  1  0
 19 21  1  0
 21 22  2  0
 21 23  2  0
 21 24  1  0
 11 25  1  0
 25 26  2  0
 26  2  1  0
 25  5  1  0
  1 27  1  0
  1 28  1  0
  1 29  1  0
  3 30  1  0
  4 31  1  0
  6 32  1  0
  9 33  1  0
 15 34  1  0
 15 35  1  0
 20 36  1  0
 20 37  1  0
 20 38  1  0
 26 39  1  0
M  CHG  2   9  -1  24  -1
M  END
>  <UniqueID>  (77) 
76

>  <SMILES>  (77) 
Cc1ccc2cc(C([NH-])=O)n(C(=O)OCOC(=O)N(C)S(=O)(=O)[O-])c2c1

>  <Energy>  (77) 
71.81227631039216

>  <Genealogy>  (77) 
Cc1ccc2cc(C([NH-])=O)n(C(=O)OCOC(=O)N(C)S(=O)(=O)[O-])c2c1 (protonated)
Cc1ccc2cc(C([NH-])=O)n(C(=O)OCOC(=O)N(C)S(=O)(=O)[O-])c2c1 (3D coordinates assigned)
Cc1ccc2cc(C([NH-])=O)n(C(=O)OCOC(=O)N(C)S(=O)(=O)[O-])c2c1 (optimized conformer: 71.81227631039216 kcal/mol)

>  <smiles>  (77) 
Cc1ccc2cc(C(N)=O)n(C(=O)OCOC(=O)N(C)S(=O)(=O)O)c2c1

>  <score_type>  (77) 
oracle

>  <origin>  (77) 
adg

>  <m_score__min__energy>  (77) 
-12.68

>  <m_primary>  (77) 
energy

$$$$
78:0
     RDKit          3D

 41 42  0  0  0  0  0  0  0  0999 V2000
   -5.1460   24.8110  -29.0260 N   0  0  0  0  0  0  0  0  0  0  0  0
   -6.3570   24.5680  -29.7430 C   0  0  0  0  0  0  0  0  0  0  0  0
   -7.2640   25.4420  -29.7360 O   0  0  0  0  0  0  0  0  0  0  0  0
   -6.5380   23.3410  -30.5450 C   0  0  0  0  0  0  0  0  0  0  0  0
   -7.7840   22.7840  -30.8190 C   0  0  0  0  0  0  0  0  0  0  0  0
   -7.5280   21.7050  -31.6330 C   0  0  0  0  0  0  0  0  0  0  0  0
   -8.4060   20.7890  -32.2040 C   0  0  0  0  0  0  0  0  0  0  0  0
   -7.8630   19.7510  -32.9790 C   0  0  0  0  0  0  0  0  0  0  0  0
   -6.4590   19.6300  -33.1490 C   0  0  0  0  0  0  0  0  0  0  0  0
   -5.8920   18.5330  -34.0130 C   0  0  0  0  0  0  0  0  0  0  0  0
   -6.0670   18.8260  -35.3540 F   0  0  0  0  0  0  0  0  0  0  0  0
   -6.5380   17.3460  -33.7230 F   0  0  0  0  0  0  0  0  0  0  0  0
   -4.5360   18.3760  -33.7790 F   0  0  0  0  0  0  0  0  0  0  0  0
   -5.6010   20.5940  -32.5700 C   0  0  0  0  0  0  0  0  0  0  0  0
   -6.1710   21.6310  -31.8200 C   0  0  0  0  0  0  0  0  0  0  0  0
   -5.5480   22.6310  -31.1540 N   0  0  0  0  0  0  0  0  0  0  0  0
   -4.1300   22.8210  -31.0110 C   0  0  0  0  0  0  0  0  0  0  0  0
   -3.6300   23.9670  -31.1750 O   0  0  0  0  0  0  0  0  0  0  0  0
   -3.3160   21.7240  -30.6940 O   0  0  0  0  0  0  0  0  0  0  0  0
   -1.9280   21.7730  -30.5280 C   0  0  0  0  0  0  0  0  0  0  0  0
   -1.1590   21.9550  -31.5120 O   0  0  0  0  0  0  0  0  0  0  0  0
   -1.3860   21.6230  -29.2120 N   0  0  0  0  0  0  0  0  0  0  0  0
   -1.0110   22.7430  -28.3510 C   0  0  2  0  0  0  0  0  0  0  0  0
   -2.2050   23.1530  -27.4710 C   0  0  0  0  0  0  0  0  0  0  0  0
   -3.3920   23.1340  -28.2160 O   0  0  0  0  0  0  0  0  0  0  0  0
   -0.5130   23.9020  -29.2320 C   0  0  0  0  0  0  0  0  0  0  0  0
   -1.2670   25.1690  -28.9690 C   0  0  0  0  0  0  0  0  0  0  0  0
   -2.4580   25.2920  -29.3570 O   0  0  0  0  0  0  0  0  0  0  0  0
   -0.6620   26.2050  -28.2680 O   0  0  0  0  0  0  0  0  0  0  0  0
   -5.0520   25.6630  -28.4300 H   0  0  0  0  0  0  0  0  0  0  0  0
   -4.3150   24.1910  -29.1450 H   0  0  0  0  0  0  0  0  0  0  0  0
   -8.7641   23.1323  -30.4610 H   0  0  0  0  0  0  0  0  0  0  0  0
   -9.4922   20.8751  -32.0531 H   0  0  0  0  0  0  0  0  0  0  0  0
   -8.5335   19.0235  -33.4597 H   0  0  0  0  0  0  0  0  0  0  0  0
   -4.5112   20.5309  -32.7055 H   0  0  0  0  0  0  0  0  0  0  0  0
   -0.1957   22.4515  -27.6726 H   0  0  0  0  0  0  0  0  0  0  0  0
   -2.2938   22.4493  -26.6302 H   0  0  0  0  0  0  0  0  0  0  0  0
   -2.0367   24.1730  -27.0950 H   0  0  0  0  0  0  0  0  0  0  0  0
   -3.1210   23.2090  -29.1680 H   0  0  0  0  0  0  0  0  0  0  0  0
    0.5535   24.0735  -29.0242 H   0  0  0  0  0  0  0  0  0  0  0  0
   -0.6729   23.6229  -30.2839 H   0  0  0  0  0  0  0  0  0  0  0  0
  1  2  1  0
  2  3  2  0
  2  4  1  0
  4  5  2  0
  5  6  1  0
  6  7  2  0
  7  8  1  0
  8  9  2  0
  9 10  1  0
 10 11  1  0
 10 12  1  0
 10 13  1  0
  9 14  1  0
 14 15  2  0
 15 16  1  0
 16 17  1  0
 17 18  2  0
 17 19  1  0
 19 20  1  0
 20 21  2  0
 20 22  1  0
 22 23  1  0
 23 24  1  0
 24 25  1  0
 23 26  1  0
 26 27  1  0
 27 28  2  0
 27 29  1  0
 16  4  1  0
 15  6  1  0
  1 30  1  0
  1 31  1  0
  5 32  1  0
  7 33  1  0
  8 34  1  0
 14 35  1  0
 23 36  1  1
 24 37  1  0
 24 38  1  0
 25 39  1  0
 26 40  1  0
 26 41  1  0
M  CHG  2  22  -1  29  -1
M  END
>  <UniqueID>  (78) 
77

>  <SMILES>  (78) 
NC(=O)c1cc2ccc(C(F)(F)F)cc2n1C(=O)OC(=O)[N-][C@H](CO)CC(=O)[O-]

>  <Energy>  (78) 
76.72328867593257

>  <Genealogy>  (78) 
NC(=O)c1cc2ccc(C(F)(F)F)cc2n1C(=O)OC(=O)[N-]C(CO)CC(=O)[O-] (protonated)
NC(=O)c1cc2ccc(C(F)(F)F)cc2n1C(=O)OC(=O)[N-][C@H](CO)CC(=O)[O-] (chirality)
NC(=O)c1cc2ccc(C(F)(F)F)cc2n1C(=O)OC(=O)[N-][C@H](CO)CC(=O)[O-] (3D coordinates assigned)
NC(=O)c1cc2ccc(C(F)(F)F)cc2n1C(=O)OC(=O)[N-][C@H](CO)CC(=O)[O-] (optimized conformer: 76.72328867593257 kcal/mol)

>  <smiles>  (78) 
NC(=O)c1cc2ccc(C(F)(F)F)cc2n1C(=O)OC(=O)NC(CO)CC(=O)O

>  <score_type>  (78) 
oracle

>  <origin>  (78) 
adg

>  <m_score__min__energy>  (78) 
-10.390000000000001

>  <m_primary>  (78) 
energy

$$$$
79:0
     RDKit          3D

 40 42  0  0  0  0  0  0  0  0999 V2000
   -5.7260   25.0830  -29.1980 N   0  0  0  0  0  0  0  0  0  0  0  0
   -5.3340   24.5480  -30.4640 C   0  0  0  0  0  0  0  0  0  0  0  0
   -4.5450   25.2060  -31.1890 O   0  0  0  0  0  0  0  0  0  0  0  0
   -5.8660   23.2500  -30.9360 C   0  0  0  0  0  0  0  0  0  0  0  0
   -7.2200   22.9180  -30.9590 C   0  0  0  0  0  0  0  0  0  0  0  0
   -7.2810   21.6780  -31.5540 C   0  0  0  0  0  0  0  0  0  0  0  0
   -8.3760   20.8630  -31.8210 C   0  0  0  0  0  0  0  0  0  0  0  0
   -8.1390   19.6160  -32.4260 C   0  0  0  0  0  0  0  0  0  0  0  0
   -6.8200   19.2140  -32.7670 C   0  0  0  0  0  0  0  0  0  0  0  0
   -6.5740   17.8500  -33.3620 C   0  0  0  0  0  0  0  0  0  0  0  0
   -6.4710   17.9310  -34.7400 F   0  0  0  0  0  0  0  0  0  0  0  0
   -5.3990   17.3080  -32.8720 F   0  0  0  0  0  0  0  0  0  0  0  0
   -7.6260   17.0150  -33.0360 F   0  0  0  0  0  0  0  0  0  0  0  0
   -5.7320   20.0630  -32.4580 C   0  0  0  0  0  0  0  0  0  0  0  0
   -6.0010   21.3000  -31.8660 C   0  0  0  0  0  0  0  0  0  0  0  0
   -5.1220   22.2520  -31.4900 N   0  0  0  0  0  0  0  0  0  0  0  0
   -3.6940   22.1710  -31.6020 C   0  0  0  0  0  0  0  0  0  0  0  0
   -3.1510   22.3370  -32.7280 O   0  0  0  0  0  0  0  0  0  0  0  0
   -2.8650   21.7350  -30.4260 C   0  0  0  0  0  0  0  0  0  0  0  0
   -2.3110   22.9100  -29.6780 C   0  0  0  0  0  0  0  0  0  0  0  0
   -1.2290   23.4390  -30.0450 O   0  0  0  0  0  0  0  0  0  0  0  0
   -2.9880   23.4140  -28.5270 N   0  0  0  0  0  0  0  0  0  0  0  0
   -2.7830   24.4780  -27.5290 C   0  0  0  0  0  0  0  0  0  0  0  0
   -4.0250   24.1980  -26.7440 C   0  0  0  0  0  0  0  0  0  0  0  0
   -4.9670   25.2280  -26.8640 O   0  0  0  0  0  0  0  0  0  0  0  0
   -4.2170   23.1230  -27.7660 C   0  0  0  0  0  0  0  0  0  0  0  0
   -5.3710   26.0170  -28.8930 H   0  0  0  0  0  0  0  0  0  0  0  0
   -6.3320   24.5420  -28.5420 H   0  0  0  0  0  0  0  0  0  0  0  0
   -8.0606   23.5190  -30.5820 H   0  0  0  0  0  0  0  0  0  0  0  0
   -9.3968   21.1843  -31.5665 H   0  0  0  0  0  0  0  0  0  0  0  0
   -8.9842   18.9445  -32.6375 H   0  0  0  0  0  0  0  0  0  0  0  0
   -4.6987   19.7570  -32.6784 H   0  0  0  0  0  0  0  0  0  0  0  0
   -3.4940   21.1424  -29.7454 H   0  0  0  0  0  0  0  0  0  0  0  0
   -2.0219   21.1364  -30.8013 H   0  0  0  0  0  0  0  0  0  0  0  0
   -1.8660   24.3357  -26.9384 H   0  0  0  0  0  0  0  0  0  0  0  0
   -2.6491   25.5020  -27.9077 H   0  0  0  0  0  0  0  0  0  0  0  0
   -4.0498   24.0270  -25.6577 H   0  0  0  0  0  0  0  0  0  0  0  0
   -4.4450   26.0470  -27.0650 H   0  0  0  0  0  0  0  0  0  0  0  0
   -4.2165   22.1143  -27.3272 H   0  0  0  0  0  0  0  0  0  0  0  0
   -5.1651   23.1239  -28.3238 H   0  0  0  0  0  0  0  0  0  0  0  0
  1  2  1  0
  2  3  2  0
  2  4  1  0
  4  5  2  0
  5  6  1  0
  6  7  2  0
  7  8  1  0
  8  9  2  0
  9 10  1  0
 10 11  1  0
 10 12  1  0
 10 13  1  0
  9 14  1  0
 14 15  2  0
 15 16  1  0
 16 17  1  0
 17 18  2  0
 17 19  1  0
 19 20  1  0
 20 21  2  0
 20 22  1  0
 22 23  1  0
 23 24  1  0
 24 25  1  0
 24 26  1  0
 16  4  1  0
 26 22  1  0
 15  6  1  0
  1 27  1  0
  1 28  1  0
  5 29  1  0
  7 30  1  0
  8 31  1  0
 14 32  1  0
 19 33  1  0
 19 34  1  0
 23 35  1  0
 23 36  1  0
 24 37  1  0
 25 38  1  0
 26 39  1  0
 26 40  1  0
M  END
>  <UniqueID>  (79) 
78

>  <SMILES>  (79) 
NC(=O)c1cc2ccc(C(F)(F)F)cc2n1C(=O)CC(=O)N1CC(O)C1

>  <Energy>  (79) 
123.60554808861494

>  <Genealogy>  (79) 
NC(=O)c1cc2ccc(C(F)(F)F)cc2n1C(=O)CC(=O)N1CC(O)C1 (3D coordinates assigned)
NC(=O)c1cc2ccc(C(F)(F)F)cc2n1C(=O)CC(=O)N1CC(O)C1 (nonaromatic ring conformer: 123.60554808861494 kcal/mol)

>  <smiles>  (79) 
NC(=O)c1cc2ccc(C(F)(F)F)cc2n1C(=O)CC(=O)N1CC(O)C1

>  <score_type>  (79) 
oracle

>  <origin>  (79) 
adg

>  <m_score__min__energy>  (79) 
-9.4700000000000006

>  <m_primary>  (79) 
energy

$$$$
80:0
     RDKit          3D

 39 40  0  0  0  0  0  0  0  0999 V2000
   -5.3000   17.7240  -34.9500 C   0  0  0  0  0  0  0  0  0  0  0  0
   -6.2050   16.7890  -34.4040 O   0  0  0  0  0  0  0  0  0  0  0  0
   -5.8350   16.4580  -33.0790 C   0  0  0  0  0  0  0  0  0  0  0  0
   -6.4490   17.4500  -32.0840 C   0  0  0  0  0  0  0  0  0  0  0  0
   -7.2350   18.4710  -32.7780 N   0  0  0  0  0  0  0  0  0  0  0  0
   -7.3610   19.8420  -32.3510 C   0  0  0  0  0  0  0  0  0  0  0  0
   -8.6460   20.4410  -32.3420 C   0  0  0  0  0  0  0  0  0  0  0  0
   -8.8170   21.7770  -31.9430 C   0  0  0  0  0  0  0  0  0  0  0  0
   -7.6900   22.4890  -31.5460 C   0  0  0  0  0  0  0  0  0  0  0  0
   -7.5650   23.7990  -31.1410 C   0  0  0  0  0  0  0  0  0  0  0  0
   -6.2070   23.9780  -30.8830 C   0  0  0  0  0  0  0  0  0  0  0  0
   -5.6070   25.2340  -30.3740 C   0  0  0  0  0  0  0  0  0  0  0  0
   -4.2600   25.5890  -30.6960 N   0  0  0  0  0  0  0  0  0  0  0  0
   -6.2890   26.0150  -29.6590 O   0  0  0  0  0  0  0  0  0  0  0  0
   -5.5250   22.8210  -31.1110 N   0  0  0  0  0  0  0  0  0  0  0  0
   -4.1090   22.6090  -31.0090 C   0  0  0  0  0  0  0  0  0  0  0  0
   -3.4310   22.4020  -32.0520 O   0  0  0  0  0  0  0  0  0  0  0  0
   -3.4200   22.6710  -29.6800 C   0  0  0  0  0  0  0  0  0  0  0  0
   -2.2270   23.5690  -29.7640 C   0  0  0  0  0  0  0  0  0  0  0  0
   -1.0960   23.0930  -30.0440 O   0  0  0  0  0  0  0  0  0  0  0  0
   -2.3540   24.9240  -29.4850 O   0  0  0  0  0  0  0  0  0  0  0  0
   -6.4450   21.9220  -31.5230 C   0  0  0  0  0  0  0  0  0  0  0  0
   -6.2390   20.6000  -31.9340 C   0  0  0  0  0  0  0  0  0  0  0  0
   -4.7858   18.2553  -34.1356 H   0  0  0  0  0  0  0  0  0  0  0  0
   -4.5590   17.1981  -35.5700 H   0  0  0  0  0  0  0  0  0  0  0  0
   -5.8497   18.4474  -35.5700 H   0  0  0  0  0  0  0  0  0  0  0  0
   -6.1927   15.4442  -32.8462 H   0  0  0  0  0  0  0  0  0  0  0  0
   -4.7392   16.5033  -32.9947 H   0  0  0  0  0  0  0  0  0  0  0  0
   -7.1031   16.9036  -31.3887 H   0  0  0  0  0  0  0  0  0  0  0  0
   -5.6343   17.9470  -31.5370 H   0  0  0  0  0  0  0  0  0  0  0  0
   -7.7430   18.1720  -33.6420 H   0  0  0  0  0  0  0  0  0  0  0  0
   -9.5214   19.8513  -32.6518 H   0  0  0  0  0  0  0  0  0  0  0  0
   -9.8121   22.2459  -31.9445 H   0  0  0  0  0  0  0  0  0  0  0  0
   -8.3666   24.5457  -31.0421 H   0  0  0  0  0  0  0  0  0  0  0  0
   -3.8630   26.4930  -30.3580 H   0  0  0  0  0  0  0  0  0  0  0  0
   -3.6370   24.9440  -31.2280 H   0  0  0  0  0  0  0  0  0  0  0  0
   -4.1183   23.0625  -28.9255 H   0  0  0  0  0  0  0  0  0  0  0  0
   -3.0920   21.6603  -29.3957 H   0  0  0  0  0  0  0  0  0  0  0  0
   -5.2307   20.1603  -31.9333 H   0  0  0  0  0  0  0  0  0  0  0  0
  1  2  1  0
  2  3  1  0
  3  4  1  0
  4  5  1  0
  5  6  1  0
  6  7  2  0
  7  8  1  0
  8  9  2  0
  9 10  1  0
 10 11  2  0
 11 12  1  0
 12 13  1  0
 12 14  2  0
 11 15  1  0
 15 16  1  0
 16 17  2  0
 16 18  1  0
 18 19  1  0
 19 20  2  0
 19 21  1  0
 15 22  1  0
 22 23  2  0
 23  6  1  0
 22  9  1  0
  1 24  1  0
  1 25  1  0
  1 26  1  0
  3 27  1  0
  3 28  1  0
  4 29  1  0
  4 30  1  0
  5 31  1  0
  7 32  1  0
  8 33  1  0
 10 34  1  0
 13 35  1  0
 13 36  1  0
 18 37  1  0
 18 38  1  0
 23 39  1  0
M  CHG  1  21  -1
M  END
>  <UniqueID>  (80) 
79

>  <SMILES>  (80) 
COCCNc1ccc2cc(C(N)=O)n(C(=O)CC(=O)[O-])c2c1

>  <Energy>  (80) 
76.20905868526015

>  <Genealogy>  (80) 
COCCNc1ccc2cc(C(N)=O)n(C(=O)CC(=O)[O-])c2c1 (protonated)
COCCNc1ccc2cc(C(N)=O)n(C(=O)CC(=O)[O-])c2c1 (3D coordinates assigned)
COCCNc1ccc2cc(C(N)=O)n(C(=O)CC(=O)[O-])c2c1 (optimized conformer: 76.20905868526015 kcal/mol)

>  <smiles>  (80) 
COCCNc1ccc2cc(C(N)=O)n(C(=O)CC(=O)O)c2c1

>  <score_type>  (80) 
oracle

>  <origin>  (80) 
adg

>  <m_score__min__energy>  (80) 
-10.06

>  <m_primary>  (80) 
energy

$$$$
81:0
     RDKit          3D

 51 52  0  0  0  0  0  0  0  0999 V2000
   -9.1410   18.4950  -31.9380 C   0  0  0  0  0  0  0  0  0  0  0  0
   -7.7500   18.5710  -32.4940 C   0  0  0  0  0  0  0  0  0  0  0  0
   -7.2590   17.5300  -33.3190 C   0  0  0  0  0  0  0  0  0  0  0  0
   -5.9500   17.5770  -33.8270 C   0  0  0  0  0  0  0  0  0  0  0  0
   -5.1530   18.6630  -33.4760 C   0  0  0  0  0  0  0  0  0  0  0  0
   -3.8620   18.9640  -33.8410 C   0  0  0  0  0  0  0  0  0  0  0  0
   -3.5670   20.1650  -33.1990 C   0  0  0  0  0  0  0  0  0  0  0  0
   -2.2390   20.8110  -33.2360 C   0  0  0  0  0  0  0  0  0  0  0  0
   -1.7860   21.6150  -32.1460 N   0  0  0  0  0  0  0  0  0  0  0  0
   -1.5050   20.6870  -34.2510 O   0  0  0  0  0  0  0  0  0  0  0  0
   -4.6360   20.5910  -32.4650 N   0  0  0  0  0  0  0  0  0  0  0  0
   -4.7520   21.8050  -31.7030 C   0  0  0  0  0  0  0  0  0  0  0  0
   -4.5000   21.7980  -30.4660 O   0  0  0  0  0  0  0  0  0  0  0  0
   -5.1260   22.9930  -32.3420 O   0  0  0  0  0  0  0  0  0  0  0  0
   -6.2530   23.7840  -31.9650 C   0  0  0  0  0  0  0  0  0  0  0  0
   -6.2740   24.0290  -30.4520 C   0  0  0  0  0  0  0  0  0  0  0  0
   -5.6780   25.3800  -30.0490 C   0  0  0  0  0  0  0  0  0  0  0  0
   -4.4250   25.5510  -30.6710 O   0  0  0  0  0  0  0  0  0  0  0  0
   -3.2910   24.5580  -29.8750 P   0  0  1  0  0  0  0  0  0  0  0  0
   -2.7760   23.5290  -30.8540 O   0  0  0  0  0  0  0  0  0  0  0  0
   -1.9970   25.5120  -29.3410 O   0  0  0  0  0  0  0  0  0  0  0  0
   -4.0360   23.7700  -28.5580 O   0  0  0  0  0  0  0  0  0  0  0  0
   -3.2390   23.9540  -27.4140 C   0  0  0  0  0  0  0  0  0  0  0  0
   -2.3990   22.7030  -27.1830 C   0  0  0  0  0  0  0  0  0  0  0  0
   -1.0890   22.9300  -27.6400 O   0  0  0  0  0  0  0  0  0  0  0  0
   -0.7340   21.7000  -28.8270 P   0  0  0  0  0  0  0  0  0  0  0  0
   -0.5680   22.8080  -30.1550 O   0  0  0  0  0  0  0  0  0  0  0  0
   -2.3950   21.2930  -29.1530 O   0  0  0  0  0  0  0  0  0  0  0  0
   -5.6000   19.6600  -32.6480 C   0  0  0  0  0  0  0  0  0  0  0  0
   -6.9060   19.6480  -32.1440 C   0  0  0  0  0  0  0  0  0  0  0  0
   -9.0972   18.4974  -30.8389 H   0  0  0  0  0  0  0  0  0  0  0  0
   -9.7220   19.3627  -32.2837 H   0  0  0  0  0  0  0  0  0  0  0  0
   -9.6240   17.5691  -32.2837 H   0  0  0  0  0  0  0  0  0  0  0  0
   -7.9085   16.6768  -33.5643 H   0  0  0  0  0  0  0  0  0  0  0  0
   -5.5668   16.7804  -34.4817 H   0  0  0  0  0  0  0  0  0  0  0  0
   -3.2021   18.3806  -34.4999 H   0  0  0  0  0  0  0  0  0  0  0  0
   -0.8650   22.1040  -32.2010 H   0  0  0  0  0  0  0  0  0  0  0  0
   -2.3470   21.7080  -31.2700 H   0  0  0  0  0  0  0  0  0  0  0  0
   -6.2026   24.7520  -32.4850 H   0  0  0  0  0  0  0  0  0  0  0  0
   -7.1689   23.2425  -32.2440 H   0  0  0  0  0  0  0  0  0  0  0  0
   -7.3177   23.9909  -30.1066 H   0  0  0  0  0  0  0  0  0  0  0  0
   -5.6546   23.2480  -29.9869 H   0  0  0  0  0  0  0  0  0  0  0  0
   -6.3557   26.1872  -30.3639 H   0  0  0  0  0  0  0  0  0  0  0  0
   -5.5497   25.4103  -28.9569 H   0  0  0  0  0  0  0  0  0  0  0  0
   -2.5768   24.8198  -27.5621 H   0  0  0  0  0  0  0  0  0  0  0  0
   -3.8822   24.1343  -26.5401 H   0  0  0  0  0  0  0  0  0  0  0  0
   -2.3775   22.4685  -26.1085 H   0  0  0  0  0  0  0  0  0  0  0  0
   -2.8390   21.8579  -27.7328 H   0  0  0  0  0  0  0  0  0  0  0  0
   -1.0270   23.6330  -29.8540 H   0  0  0  0  0  0  0  0  0  0  0  0
   -2.8470   22.1450  -29.3760 H   0  0  0  0  0  0  0  0  0  0  0  0
   -7.2659   20.4572  -31.4916 H   0  0  0  0  0  0  0  0  0  0  0  0
  1  2  1  0
  2  3  2  0
  3  4  1  0
  4  5  2  0
  5  6  1  0
  6  7  2  0
  7  8  1  0
  8  9  1  0
  8 10  2  0
  7 11  1  0
 11 12  1  0
 12 13  2  0
 12 14  1  0
 14 15  1  0
 15 16  1  0
 16 17  1  0
 17 18  1  0
 18 19  1  0
 19 20  2  0
 19 21  1  1
 19 22  1  0
 22 23  1  0
 23 24  1  0
 24 25  1  0
 25 26  1  0
 26 27  1  0
 26 28  1  0
 11 29  1  0
 29 30  2  0
 30  2  1  0
 29  5  1  0
  1 31  1  0
  1 32  1  0
  1 33  1  0
  3 34  1  0
  4 35  1  0
  6 36  1  0
  9 37  1  0
  9 38  1  0
 15 39  1  0
 15 40  1  0
 16 41  1  0
 16 42  1  0
 17 43  1  0
 17 44  1  0
 23 45  1  0
 23 46  1  0
 24 47  1  0
 24 48  1  0
 27 49  1  0
 28 50  1  0
 30 51  1  0
M  CHG  1  21  -1
M  END
>  <UniqueID>  (81) 
80

>  <SMILES>  (81) 
Cc1ccc2cc(C(N)=O)n(C(=O)OCCCO[P@@](=O)([O-])OCCOP(O)O)c2c1

>  <Energy>  (81) 
75.08046295997765

>  <Genealogy>  (81) 
Cc1ccc2cc(C(N)=O)n(C(=O)OCCCOP(=O)([O-])OCCOP(O)O)c2c1 (protonated)
Cc1ccc2cc(C(N)=O)n(C(=O)OCCCO[P@@](=O)([O-])OCCOP(O)O)c2c1 (chirality)
Cc1ccc2cc(C(N)=O)n(C(=O)OCCCO[P@@](=O)([O-])OCCOP(O)O)c2c1 (3D coordinates assigned)
Cc1ccc2cc(C(N)=O)n(C(=O)OCCCO[P@@](=O)([O-])OCCOP(O)O)c2c1 (optimized conformer: 75.08046295997765 kcal/mol)

>  <smiles>  (81) 
Cc1ccc2cc(C(N)=O)n(C(=O)OCCCOP(=O)(O)OCCOP(O)O)c2c1

>  <score_type>  (81) 
oracle

>  <origin>  (81) 
adg

>  <m_score__min__energy>  (81) 
-10.41

>  <m_primary>  (81) 
energy

$$$$
82:0
     RDKit          3D

 39 40  0  0  0  0  0  0  0  0999 V2000
   -4.2100   24.5340  -27.1400 C   0  0  0  0  0  0  0  0  0  0  0  0
   -3.1020   23.8830  -27.8390 N   0  0  0  0  0  0  0  0  0  0  0  0
   -1.8520   24.6140  -27.6020 C   0  0  0  0  0  0  0  0  0  0  0  0
   -0.8800   24.3060  -28.6930 C   0  0  0  0  0  0  0  0  0  0  0  0
    0.3490   24.5250  -28.5170 O   0  0  0  0  0  0  0  0  0  0  0  0
   -1.3400   23.7310  -29.8830 O   0  0  0  0  0  0  0  0  0  0  0  0
   -1.8060   22.3880  -29.9630 C   0  0  0  0  0  0  0  0  0  0  0  0
   -3.2300   22.3650  -30.0470 O   0  0  0  0  0  0  0  0  0  0  0  0
   -3.9180   22.5100  -31.2560 C   0  0  0  0  0  0  0  0  0  0  0  0
   -3.3370   22.2780  -32.3520 O   0  0  0  0  0  0  0  0  0  0  0  0
   -5.3050   22.8820  -31.2490 N   0  0  0  0  0  0  0  0  0  0  0  0
   -5.8510   24.0530  -30.8170 C   0  0  0  0  0  0  0  0  0  0  0  0
   -5.1040   25.2710  -30.4470 C   0  0  0  0  0  0  0  0  0  0  0  0
   -3.6800   25.2910  -30.4770 N   0  0  0  0  0  0  0  0  0  0  0  0
   -5.7300   26.3240  -30.1550 O   0  0  0  0  0  0  0  0  0  0  0  0
   -7.2430   23.9880  -30.8550 C   0  0  0  0  0  0  0  0  0  0  0  0
   -7.5360   22.7320  -31.3360 C   0  0  0  0  0  0  0  0  0  0  0  0
   -8.7670   22.1230  -31.5580 C   0  0  0  0  0  0  0  0  0  0  0  0
   -8.7720   20.7990  -32.0250 C   0  0  0  0  0  0  0  0  0  0  0  0
   -7.5550   20.1140  -32.2660 C   0  0  0  0  0  0  0  0  0  0  0  0
   -7.5700   18.6840  -32.7160 C   0  0  0  0  0  0  0  0  0  0  0  0
   -6.3240   20.7590  -32.0140 C   0  0  0  0  0  0  0  0  0  0  0  0
   -6.3490   22.0850  -31.5660 C   0  0  0  0  0  0  0  0  0  0  0  0
   -4.0605   24.4461  -26.0538 H   0  0  0  0  0  0  0  0  0  0  0  0
   -4.2464   25.5971  -27.4203 H   0  0  0  0  0  0  0  0  0  0  0  0
   -5.1563   24.0483  -27.4203 H   0  0  0  0  0  0  0  0  0  0  0  0
   -3.3130   23.9210  -28.8630 H   0  0  0  0  0  0  0  0  0  0  0  0
   -2.0565   25.6947  -27.5876 H   0  0  0  0  0  0  0  0  0  0  0  0
   -1.4264   24.3081  -26.6349 H   0  0  0  0  0  0  0  0  0  0  0  0
   -1.3814   21.9087  -30.8574 H   0  0  0  0  0  0  0  0  0  0  0  0
   -1.4908   21.8442  -29.0603 H   0  0  0  0  0  0  0  0  0  0  0  0
   -3.1230   24.5650  -29.9750 H   0  0  0  0  0  0  0  0  0  0  0  0
   -7.9556   24.7733  -30.5628 H   0  0  0  0  0  0  0  0  0  0  0  0
   -9.7077   22.6624  -31.3733 H   0  0  0  0  0  0  0  0  0  0  0  0
   -9.7295   20.2885  -32.2055 H   0  0  0  0  0  0  0  0  0  0  0  0
   -7.5769   18.0230  -31.8368 H   0  0  0  0  0  0  0  0  0  0  0  0
   -8.4701   18.4993  -33.3207 H   0  0  0  0  0  0  0  0  0  0  0  0
   -6.6739   18.4805  -33.3207 H   0  0  0  0  0  0  0  0  0  0  0  0
   -5.3700   20.2328  -32.1659 H   0  0  0  0  0  0  0  0  0  0  0  0
  1  2  1  0
  2  3  1  0
  3  4  1  0
  4  5  2  0
  4  6  1  0
  6  7  1  0
  7  8  1  0
  8  9  1  0
  9 10  2  0
  9 11  1  0
 11 12  1  0
 12 13  1  0
 13 14  1  0
 13 15  2  0
 12 16  2  0
 16 17  1  0
 17 18  2  0
 18 19  1  0
 19 20  2  0
 20 21  1  0
 20 22  1  0
 22 23  2  0
 23 11  1  0
 23 17  1  0
  1 24  1  0
  1 25  1  0
  1 26  1  0
  2 27  1  0
  3 28  1  0
  3 29  1  0
  7 30  1  0
  7 31  1  0
 14 32  1  0
 16 33  1  0
 18 34  1  0
 19 35  1  0
 21 36  1  0
 21 37  1  0
 21 38  1  0
 22 39  1  0
M  CHG  1  14  -1
M  END
>  <UniqueID>  (82) 
81

>  <SMILES>  (82) 
CNCC(=O)OCOC(=O)n1c(C([NH-])=O)cc2ccc(C)cc21

>  <Energy>  (82) 
70.57350034135914

>  <Genealogy>  (82) 
CNCC(=O)OCOC(=O)n1c(C([NH-])=O)cc2ccc(C)cc21 (protonated)
CNCC(=O)OCOC(=O)n1c(C([NH-])=O)cc2ccc(C)cc21 (3D coordinates assigned)
CNCC(=O)OCOC(=O)n1c(C([NH-])=O)cc2ccc(C)cc21 (optimized conformer: 70.57350034135914 kcal/mol)

>  <smiles>  (82) 
CNCC(=O)OCOC(=O)n1c(C(N)=O)cc2ccc(C)cc21

>  <score_type>  (82) 
oracle

>  <origin>  (82) 
adg

>  <m_score__min__energy>  (82) 
-9.8300000000000001

>  <m_primary>  (82) 
energy

$$$$
83:0
     RDKit          3D

 46 48  0  0  0  0  0  0  0  0999 V2000
   -5.7360   18.1000  -34.4960 C   0  0  0  0  0  0  0  0  0  0  0  0
   -6.8420   18.0520  -33.4470 C   0  0  0  0  0  0  0  0  0  0  0  0
   -7.0530   19.4090  -32.8330 C   0  0  0  0  0  0  0  0  0  0  0  0
   -8.3600   19.8420  -32.4940 C   0  0  0  0  0  0  0  0  0  0  0  0
   -8.5660   21.0980  -31.8990 C   0  0  0  0  0  0  0  0  0  0  0  0
   -7.4500   21.8890  -31.6410 C   0  0  0  0  0  0  0  0  0  0  0  0
   -7.3660   23.1470  -31.0900 C   0  0  0  0  0  0  0  0  0  0  0  0
   -6.0060   23.4520  -31.0700 C   0  0  0  0  0  0  0  0  0  0  0  0
   -5.4440   24.6800  -30.4650 C   0  0  0  0  0  0  0  0  0  0  0  0
   -5.3870   24.8320  -29.0460 N   0  0  0  0  0  0  0  0  0  0  0  0
   -4.9770   25.5910  -31.1980 O   0  0  0  0  0  0  0  0  0  0  0  0
   -5.2780   22.4210  -31.5880 N   0  0  0  0  0  0  0  0  0  0  0  0
   -3.8580   22.3760  -31.7980 C   0  0  0  0  0  0  0  0  0  0  0  0
   -3.3720   21.5840  -32.6520 O   0  0  0  0  0  0  0  0  0  0  0  0
   -3.0190   23.2240  -31.0650 O   0  0  0  0  0  0  0  0  0  0  0  0
   -2.5480   22.9140  -29.7540 C   0  0  0  0  0  0  0  0  0  0  0  0
   -2.3560   24.1630  -28.9370 C   0  0  0  0  0  0  0  0  0  0  0  0
   -2.8400   25.2510  -29.3530 O   0  0  0  0  0  0  0  0  0  0  0  0
   -1.6960   24.1240  -27.6590 N   0  0  0  0  0  0  0  0  0  0  0  0
   -1.1380   22.9230  -27.0620 C   0  0  0  0  0  0  0  0  0  0  0  0
   -0.4890   23.3730  -25.7580 C   0  0  0  0  0  0  0  0  0  0  0  0
   -1.0320   24.7710  -25.4760 C   0  0  0  0  0  0  0  0  0  0  0  0
   -1.5690   25.2900  -26.8020 C   0  0  0  0  0  0  0  0  0  0  0  0
   -6.1770   21.4730  -31.9340 C   0  0  0  0  0  0  0  0  0  0  0  0
   -5.9420   20.2340  -32.5440 C   0  0  0  0  0  0  0  0  0  0  0  0
   -4.7574   18.1425  -33.9954 H   0  0  0  0  0  0  0  0  0  0  0  0
   -5.7875   17.1988  -35.1246 H   0  0  0  0  0  0  0  0  0  0  0  0
   -5.8654   18.9934  -35.1246 H   0  0  0  0  0  0  0  0  0  0  0  0
   -7.7770   17.7220  -33.9232 H   0  0  0  0  0  0  0  0  0  0  0  0
   -6.5473   17.3478  -32.6550 H   0  0  0  0  0  0  0  0  0  0  0  0
   -9.2207   19.1884  -32.6988 H   0  0  0  0  0  0  0  0  0  0  0  0
   -9.5782   21.4456  -31.6448 H   0  0  0  0  0  0  0  0  0  0  0  0
   -8.1960   23.7781  -30.7396 H   0  0  0  0  0  0  0  0  0  0  0  0
   -4.9310   25.6740  -28.6280 H   0  0  0  0  0  0  0  0  0  0  0  0
   -5.8290   24.1370  -28.4070 H   0  0  0  0  0  0  0  0  0  0  0  0
   -3.2821   22.2662  -29.2525 H   0  0  0  0  0  0  0  0  0  0  0  0
   -1.5781   22.4029  -29.8434 H   0  0  0  0  0  0  0  0  0  0  0  0
   -1.9329   22.1896  -26.8615 H   0  0  0  0  0  0  0  0  0  0  0  0
   -0.4116   22.4375  -27.7303 H   0  0  0  0  0  0  0  0  0  0  0  0
   -0.7577   22.6870  -24.9411 H   0  0  0  0  0  0  0  0  0  0  0  0
    0.6083   23.3759  -25.8351 H   0  0  0  0  0  0  0  0  0  0  0  0
   -1.8386   24.7240  -24.7295 H   0  0  0  0  0  0  0  0  0  0  0  0
   -0.2508   25.4319  -25.0722 H   0  0  0  0  0  0  0  0  0  0  0  0
   -2.5490   25.7684  -26.6579 H   0  0  0  0  0  0  0  0  0  0  0  0
   -0.9019   26.0460  -27.2418 H   0  0  0  0  0  0  0  0  0  0  0  0
   -4.9199   19.9115  -32.7916 H   0  0  0  0  0  0  0  0  0  0  0  0
  1  2  1  0
  2  3  1  0
  3  4  2  0
  4  5  1  0
  5  6  2  0
  6  7  1  0
  7  8  2  0
  8  9  1  0
  9 10  1  0
  9 11  2  0
  8 12  1  0
 12 13  1  0
 13 14  2  0
 13 15  1  0
 15 16  1  0
 16 17  1  0
 17 18  2  0
 17 19  1  0
 19 20  1  0
 20 21  1  0
 21 22  1  0
 22 23  1  0
 12 24  1  0
 24 25  2  0
 25  3  1  0
 24  6  1  0
 23 19  1  0
  1 26  1  0
  1 27  1  0
  1 28  1  0
  2 29  1  0
  2 30  1  0
  4 31  1  0
  5 32  1  0
  7 33  1  0
 10 34  1  0
 10 35  1  0
 16 36  1  0
 16 37  1  0
 20 38  1  0
 20 39  1  0
 21 40  1  0
 21 41  1  0
 22 42  1  0
 22 43  1  0
 23 44  1  0
 23 45  1  0
 25 46  1  0
M  END
>  <UniqueID>  (83) 
82

>  <SMILES>  (83) 
CCc1ccc2cc(C(N)=O)n(C(=O)OCC(=O)N3CCCC3)c2c1

>  <Energy>  (83) 
79.29300127680673

>  <Genealogy>  (83) 
CCc1ccc2cc(C(N)=O)n(C(=O)OCC(=O)N3CCCC3)c2c1 (3D coordinates assigned)
CCc1ccc2cc(C(N)=O)n(C(=O)OCC(=O)N3CCCC3)c2c1 (nonaromatic ring conformer: 79.29300127680673 kcal/mol)

>  <smiles>  (83) 
CCc1ccc2cc(C(N)=O)n(C(=O)OCC(=O)N3CCCC3)c2c1

>  <score_type>  (83) 
oracle

>  <origin>  (83) 
adg

>  <m_score__min__energy>  (83) 
-9.6899999999999995

>  <m_primary>  (83) 
energy

$$$$
84:0
     RDKit          3D

 41 42  0  0  0  0  0  0  0  0999 V2000
   -3.4930   25.6870  -29.6570 H   0  0  0  0  0  0  0  0  0  0  0  0
   -3.8140   25.1440  -30.4890 N   0  0  0  0  0  0  0  0  0  0  0  0
   -5.1860   25.1490  -30.8720 C   0  0  0  0  0  0  0  0  0  0  0  0
   -5.8180   26.2410  -30.9050 O   0  0  0  0  0  0  0  0  0  0  0  0
   -5.8390   23.8830  -31.2560 C   0  0  0  0  0  0  0  0  0  0  0  0
   -7.2160   23.7460  -31.4250 C   0  0  0  0  0  0  0  0  0  0  0  0
   -7.9763   24.5392  -31.3727 H   0  0  0  0  0  0  0  0  0  0  0  0
   -7.4220   22.4090  -31.6710 C   0  0  0  0  0  0  0  0  0  0  0  0
   -8.5970   21.7100  -31.9110 C   0  0  0  0  0  0  0  0  0  0  0  0
   -9.5700   22.2229  -31.9232 H   0  0  0  0  0  0  0  0  0  0  0  0
   -8.5040   20.3260  -32.1380 C   0  0  0  0  0  0  0  0  0  0  0  0
   -9.4169   19.7474  -32.3425 H   0  0  0  0  0  0  0  0  0  0  0  0
   -7.2490   19.6650  -32.1070 C   0  0  0  0  0  0  0  0  0  0  0  0
   -7.1620   18.1910  -32.4040 C   0  0  0  0  0  0  0  0  0  0  0  0
   -6.6750   17.9790  -33.6830 F   0  0  0  0  0  0  0  0  0  0  0  0
   -8.4090   17.6010  -32.3120 F   0  0  0  0  0  0  0  0  0  0  0  0
   -6.3110   17.5900  -31.4930 F   0  0  0  0  0  0  0  0  0  0  0  0
   -6.0750   20.4170  -31.8870 C   0  0  0  0  0  0  0  0  0  0  0  0
   -5.0867   19.9342  -31.8980 H   0  0  0  0  0  0  0  0  0  0  0  0
   -6.1980   21.7890  -31.6550 C   0  0  0  0  0  0  0  0  0  0  0  0
   -5.2130   22.6820  -31.4180 N   0  0  0  0  0  0  0  0  0  0  0  0
   -3.8090   22.3890  -31.3380 C   0  0  0  0  0  0  0  0  0  0  0  0
   -3.0790   22.6410  -32.3310 O   0  0  0  0  0  0  0  0  0  0  0  0
   -3.2090   21.7200  -30.1680 C   0  0  0  0  0  0  0  0  0  0  0  0
   -2.4967   20.9060  -30.3683 H   0  0  0  0  0  0  0  0  0  0  0  0
   -3.4530   22.0140  -28.8820 C   0  0  0  0  0  0  0  0  0  0  0  0
   -3.0557   21.3261  -28.1211 H   0  0  0  0  0  0  0  0  0  0  0  0
   -4.2140   23.1900  -28.4060 C   0  0  0  0  0  0  0  0  0  0  0  0
   -5.4570   23.2480  -28.6060 O   0  0  0  0  0  0  0  0  0  0  0  0
   -3.5110   24.3220  -27.8420 N   0  0  1  0  0  0  0  0  0  0  0  0
   -3.5810   25.1120  -28.5240 H   0  0  0  0  0  0  0  0  0  0  0  0
   -4.1710   24.7740  -26.6040 C   0  0  0  0  0  0  0  0  0  0  0  0
   -3.6165   24.3942  -25.7332 H   0  0  0  0  0  0  0  0  0  0  0  0
   -4.1870   25.8736  -26.5775 H   0  0  0  0  0  0  0  0  0  0  0  0
   -5.2020   24.3915  -26.5775 H   0  0  0  0  0  0  0  0  0  0  0  0
   -2.0580   24.0570  -27.6740 C   0  0  0  0  0  0  0  0  0  0  0  0
   -1.8185   24.1206  -26.6023 H   0  0  0  0  0  0  0  0  0  0  0  0
   -1.8702   23.0592  -28.0974 H   0  0  0  0  0  0  0  0  0  0  0  0
   -1.1600   25.0140  -28.4150 C   0  0  0  0  0  0  0  0  0  0  0  0
   -1.6300   26.0460  -28.9710 O   0  0  0  0  0  0  0  0  0  0  0  0
    0.2010   24.7390  -28.5140 O   0  0  0  0  0  0  0  0  0  0  0  0
  1  2  1  0
  2  3  1  0
  3  4  2  0
  3  5  1  0
  5  6  2  0
  6  7  1  0
  6  8  1  0
  8  9  2  0
  9 10  1  0
  9 11  1  0
 11 12  1  0
 11 13  2  0
 13 14  1  0
 14 15  1  0
 14 16  1  0
 14 17  1  0
 13 18  1  0
 18 19  1  0
 18 20  2  0
 20 21  1  0
 21 22  1  0
 22 23  2  0
 22 24  1  0
 24 25  1  0
 24 26  2  0
 26 27  1  0
 26 28  1  0
 28 29  2  0
 28 30  1  0
 30 31  1  6
 30 32  1  0
 32 33  1  0
 32 34  1  0
 32 35  1  0
 30 36  1  0
 36 37  1  0
 36 38  1  0
 36 39  1  0
 39 40  2  0
 39 41  1  0
 21  5  1  0
 20  8  1  0
M  CHG  3   2  -1  30   1  41  -1
M  END
>  <UniqueID>  (84) 
83

>  <SMILES>  (84) 
C[N@@H+](CC(=O)[O-])C(=O)/C=C\C(=O)n1c(C([NH-])=O)cc2ccc(C(F)(F)F)cc21

>  <Energy>  (84) 
90.47068134524024

>  <Genealogy>  (84) 
C[NH+](CC(=O)[O-])C(=O)/C=C\C(=O)n1c(C([NH-])=O)cc2ccc(C(F)(F)F)cc21 (protonated)
C[N@@H+](CC(=O)[O-])C(=O)/C=C\C(=O)n1c(C([NH-])=O)cc2ccc(C(F)(F)F)cc21 (chirality)
C[N@@H+](CC(=O)[O-])C(=O)/C=C\C(=O)n1c(C([NH-])=O)cc2ccc(C(F)(F)F)cc21 (cis-trans isomerization)
C[N@@H+](CC(=O)[O-])C(=O)/C=C\C(=O)n1c(C([NH-])=O)cc2ccc(C(F)(F)F)cc21 (3D coordinates assigned)
C[N@@H+](CC(=O)[O-])C(=O)/C=C\C(=O)n1c(C([NH-])=O)cc2ccc(C(F)(F)F)cc21 (optimized conformer: 90.47068134524024 kcal/mol)

>  <smiles>  (84) 
CN(CC(=O)O)C(=O)/C=C\C(=O)n1c(C(N)=O)cc2ccc(C(F)(F)F)cc21

>  <score_type>  (84) 
oracle

>  <origin>  (84) 
adg

>  <m_score__min__energy>  (84) 
-11.99

>  <m_primary>  (84) 
energy

$$$$
85:0
     RDKit          3D

 37 38  0  0  0  0  0  0  0  0999 V2000
   -4.8960   17.6630  -35.0160 C   0  0  0  0  0  0  0  0  0  0  0  0
   -5.6860   16.9500  -34.2050 C   0  0  0  0  0  0  0  0  0  0  0  0
   -5.3170   15.2550  -33.9100 Cl  0  0  0  0  0  0  0  0  0  0  0  0
   -6.8520   17.5870  -33.4880 C   0  0  0  0  0  0  0  0  0  0  0  0
   -6.4900   18.0190  -32.1300 N   0  0  0  0  0  0  0  0  0  0  0  0
   -6.6500   19.4450  -31.9690 C   0  0  0  0  0  0  0  0  0  0  0  0
   -7.8750   20.0720  -32.3150 C   0  0  0  0  0  0  0  0  0  0  0  0
   -8.0480   21.4540  -32.1410 C   0  0  0  0  0  0  0  0  0  0  0  0
   -6.9870   22.1830  -31.6120 C   0  0  0  0  0  0  0  0  0  0  0  0
   -6.8810   23.5300  -31.3560 C   0  0  0  0  0  0  0  0  0  0  0  0
   -5.6020   23.7070  -30.8300 C   0  0  0  0  0  0  0  0  0  0  0  0
   -5.0990   25.0050  -30.3320 C   0  0  0  0  0  0  0  0  0  0  0  0
   -3.8950   25.5510  -30.8640 N   0  0  0  0  0  0  0  0  0  0  0  0
   -5.7400   25.6550  -29.4640 O   0  0  0  0  0  0  0  0  0  0  0  0
   -4.9410   22.5150  -30.7720 N   0  0  0  0  0  0  0  0  0  0  0  0
   -3.5920   22.2730  -30.3440 C   0  0  0  0  0  0  0  0  0  0  0  0
   -3.2090   21.0960  -30.1060 O   0  0  0  0  0  0  0  0  0  0  0  0
   -2.7150   23.3510  -30.1700 O   0  0  0  0  0  0  0  0  0  0  0  0
   -2.3160   23.8370  -28.8900 C   0  0  0  0  0  0  0  0  0  0  0  0
   -1.0940   24.6890  -29.0150 C   0  0  0  0  0  0  0  0  0  0  0  0
    0.0470   24.1860  -28.8450 O   0  0  0  0  0  0  0  0  0  0  0  0
   -1.2140   26.0470  -29.2880 O   0  0  0  0  0  0  0  0  0  0  0  0
   -5.8040   21.5930  -31.2510 C   0  0  0  0  0  0  0  0  0  0  0  0
   -5.5960   20.2210  -31.4300 C   0  0  0  0  0  0  0  0  0  0  0  0
   -5.1177   18.7233  -35.2072 H   0  0  0  0  0  0  0  0  0  0  0  0
   -4.0248   17.1889  -35.4916 H   0  0  0  0  0  0  0  0  0  0  0  0
   -7.1873   18.4631  -34.0625 H   0  0  0  0  0  0  0  0  0  0  0  0
   -7.6526   16.8372  -33.4055 H   0  0  0  0  0  0  0  0  0  0  0  0
   -7.1120   17.5290  -31.4450 H   0  0  0  0  0  0  0  0  0  0  0  0
   -5.5060   17.7300  -31.9130 H   0  0  0  0  0  0  0  0  0  0  0  0
   -8.6984   19.4682  -32.7242 H   0  0  0  0  0  0  0  0  0  0  0  0
   -8.9932   21.9458  -32.4144 H   0  0  0  0  0  0  0  0  0  0  0  0
   -7.6435   24.3036  -31.5294 H   0  0  0  0  0  0  0  0  0  0  0  0
   -2.9660   25.2970  -30.4600 H   0  0  0  0  0  0  0  0  0  0  0  0
   -3.1323   24.4348  -28.4585 H   0  0  0  0  0  0  0  0  0  0  0  0
   -2.0894   22.9809  -28.2375 H   0  0  0  0  0  0  0  0  0  0  0  0
   -4.6365   19.7566  -31.1584 H   0  0  0  0  0  0  0  0  0  0  0  0
  1  2  2  0
  2  3  1  0
  2  4  1  0
  4  5  1  0
  5  6  1  0
  6  7  2  0
  7  8  1  0
  8  9  2  0
  9 10  1  0
 10 11  2  0
 11 12  1  0
 12 13  1  0
 12 14  2  0
 11 15  1  0
 15 16  1  0
 16 17  2  0
 16 18  1  0
 18 19  1  0
 19 20  1  0
 20 21  2  0
 20 22  1  0
 15 23  1  0
 23 24  2  0
 24  6  1  0
 23  9  1  0
  1 25  1  0
  1 26  1  0
  4 27  1  0
  4 28  1  0
  5 29  1  0
  5 30  1  0
  7 31  1  0
  8 32  1  0
 10 33  1  0
 13 34  1  0
 19 35  1  0
 19 36  1  0
 24 37  1  0
M  CHG  3   5   1  13  -1  22  -1
M  END
>  <UniqueID>  (85) 
84

>  <SMILES>  (85) 
C=C(Cl)C[NH2+]c1ccc2cc(C([NH-])=O)n(C(=O)OCC(=O)[O-])c2c1

>  <Energy>  (85) 
72.28539670812863

>  <Genealogy>  (85) 
C=C(Cl)C[NH2+]c1ccc2cc(C([NH-])=O)n(C(=O)OCC(=O)[O-])c2c1 (protonated)
C=C(Cl)C[NH2+]c1ccc2cc(C([NH-])=O)n(C(=O)OCC(=O)[O-])c2c1 (3D coordinates assigned)
C=C(Cl)C[NH2+]c1ccc2cc(C([NH-])=O)n(C(=O)OCC(=O)[O-])c2c1 (optimized conformer: 72.28539670812863 kcal/mol)

>  <smiles>  (85) 
C=C(Cl)CNc1ccc2cc(C(N)=O)n(C(=O)OCC(=O)O)c2c1

>  <score_type>  (85) 
oracle

>  <origin>  (85) 
adg

>  <m_score__min__energy>  (85) 
-11.949999999999999

>  <m_primary>  (85) 
energy

$$$$
86:0
     RDKit          3D

 33 34  0  0  0  0  0  0  0  0999 V2000
   -4.2220   25.6190  -30.8420 N   0  0  0  0  0  0  0  0  0  0  0  0
   -5.5660   25.2320  -30.5710 C   0  0  0  0  0  0  0  0  0  0  0  0
   -6.3250   26.0330  -29.9630 O   0  0  0  0  0  0  0  0  0  0  0  0
   -6.0740   23.8980  -30.9610 C   0  0  0  0  0  0  0  0  0  0  0  0
   -7.4130   23.6420  -31.2510 C   0  0  0  0  0  0  0  0  0  0  0  0
   -7.4750   22.2990  -31.5420 C   0  0  0  0  0  0  0  0  0  0  0  0
   -8.5560   21.5190  -31.9410 C   0  0  0  0  0  0  0  0  0  0  0  0
   -8.3180   20.1670  -32.2420 C   0  0  0  0  0  0  0  0  0  0  0  0
   -7.0130   19.6260  -32.1450 C   0  0  0  0  0  0  0  0  0  0  0  0
   -6.7600   18.1990  -32.5280 C   0  0  0  0  0  0  0  0  0  0  0  0
   -5.6530   18.1230  -34.3520 I   0  0  0  0  0  0  0  0  0  0  0  0
   -5.9360   20.4530  -31.7540 C   0  0  0  0  0  0  0  0  0  0  0  0
   -6.2080   21.7870  -31.4290 C   0  0  0  0  0  0  0  0  0  0  0  0
   -5.3380   22.7530  -31.0580 N   0  0  0  0  0  0  0  0  0  0  0  0
   -3.9180   22.6090  -30.9070 C   0  0  0  0  0  0  0  0  0  0  0  0
   -3.2050   22.3550  -31.9160 O   0  0  0  0  0  0  0  0  0  0  0  0
   -3.2560   22.7650  -29.5640 C   0  0  0  0  0  0  0  0  0  0  0  0
   -1.7300   22.8750  -29.6860 C   0  0  0  0  0  0  0  0  0  0  0  0
   -1.0620   24.2480  -28.6880 P   0  0  0  0  0  0  0  0  0  0  0  0
   -1.5660   24.1170  -27.2680 O   0  0  0  0  0  0  0  0  0  0  0  0
    0.6270   24.2160  -28.6800 O   0  0  0  0  0  0  0  0  0  0  0  0
   -1.5890   25.7200  -29.3290 O   0  0  0  0  0  0  0  0  0  0  0  0
   -3.5120   25.6700  -30.0770 H   0  0  0  0  0  0  0  0  0  0  0  0
   -8.2447   24.3620  -31.2478 H   0  0  0  0  0  0  0  0  0  0  0  0
   -9.5661   21.9475  -32.0185 H   0  0  0  0  0  0  0  0  0  0  0  0
   -9.1530   19.5233  -32.5558 H   0  0  0  0  0  0  0  0  0  0  0  0
   -6.1853   17.7038  -31.7315 H   0  0  0  0  0  0  0  0  0  0  0  0
   -7.7224   17.6846  -32.6663 H   0  0  0  0  0  0  0  0  0  0  0  0
   -4.9103   20.0586  -31.7063 H   0  0  0  0  0  0  0  0  0  0  0  0
   -3.6406   23.6759  -29.0819 H   0  0  0  0  0  0  0  0  0  0  0  0
   -3.4860   21.8713  -28.9653 H   0  0  0  0  0  0  0  0  0  0  0  0
   -1.2774   21.9332  -29.3423 H   0  0  0  0  0  0  0  0  0  0  0  0
   -1.4867   23.0717  -30.7406 H   0  0  0  0  0  0  0  0  0  0  0  0
  1  2  1  0
  2  3  2  0
  2  4  1  0
  4  5  2  0
  5  6  1  0
  6  7  2  0
  7  8  1  0
  8  9  2  0
  9 10  1  0
 10 11  1  0
  9 12  1  0
 12 13  2  0
 13 14  1  0
 14 15  1  0
 15 16  2  0
 15 17  1  0
 17 18  1  0
 18 19  1  0
 19 20  2  0
 19 21  1  0
 19 22  1  0
 14  4  1  0
 13  6  1  0
  1 23  1  0
  5 24  1  0
  7 25  1  0
  8 26  1  0
 10 27  1  0
 10 28  1  0
 12 29  1  0
 17 30  1  0
 17 31  1  0
 18 32  1  0
 18 33  1  0
M  CHG  3   1  -1  21  -1  22  -1
M  END
>  <UniqueID>  (86) 
85

>  <SMILES>  (86) 
[NH-]C(=O)c1cc2ccc(CI)cc2n1C(=O)CCP(=O)([O-])[O-]

>  <Energy>  (86) 
65.91955700038979

>  <Genealogy>  (86) 
[NH-]C(=O)c1cc2ccc(CI)cc2n1C(=O)CCP(=O)([O-])[O-] (protonated)
[NH-]C(=O)c1cc2ccc(CI)cc2n1C(=O)CCP(=O)([O-])[O-] (3D coordinates assigned)
[NH-]C(=O)c1cc2ccc(CI)cc2n1C(=O)CCP(=O)([O-])[O-] (optimized conformer: 65.91955700038979 kcal/mol)

>  <smiles>  (86) 
NC(=O)c1cc2ccc(CI)cc2n1C(=O)CCP(=O)(O)O

>  <score_type>  (86) 
oracle

>  <origin>  (86) 
adg

>  <m_score__min__energy>  (86) 
-15.109999999999999

>  <m_primary>  (86) 
energy

$$$$
87:0
     RDKit          3D

 39 40  0  0  0  0  0  0  0  0999 V2000
   -6.7260   17.8970  -33.2470 C   0  0  0  0  0  0  0  0  0  0  0  0
   -7.1650   19.2150  -32.6820 C   0  0  0  0  0  0  0  0  0  0  0  0
   -8.5410   19.5490  -32.6510 C   0  0  0  0  0  0  0  0  0  0  0  0
   -8.9640   20.7930  -32.1510 C   0  0  0  0  0  0  0  0  0  0  0  0
   -7.9890   21.6850  -31.7130 C   0  0  0  0  0  0  0  0  0  0  0  0
   -8.1190   22.9420  -31.1700 C   0  0  0  0  0  0  0  0  0  0  0  0
   -6.8170   23.3700  -30.9040 C   0  0  0  0  0  0  0  0  0  0  0  0
   -6.4670   24.7000  -30.3450 C   0  0  0  0  0  0  0  0  0  0  0  0
   -5.2490   25.3550  -30.7020 N   0  0  0  0  0  0  0  0  0  0  0  0
   -7.2440   25.2690  -29.5340 O   0  0  0  0  0  0  0  0  0  0  0  0
   -5.9220   22.4130  -31.2820 N   0  0  0  0  0  0  0  0  0  0  0  0
   -4.4910   22.4610  -31.1680 C   0  0  0  0  0  0  0  0  0  0  0  0
   -3.8520   23.4140  -31.6870 O   0  0  0  0  0  0  0  0  0  0  0  0
   -3.7400   21.3540  -30.4910 C   0  0  0  0  0  0  0  0  0  0  0  0
   -2.3440   21.6400  -30.4790 O   0  0  0  0  0  0  0  0  0  0  0  0
   -1.7040   22.2850  -29.4150 C   0  0  0  0  0  0  0  0  0  0  0  0
   -0.4460   22.3770  -29.3790 O   0  0  0  0  0  0  0  0  0  0  0  0
   -2.5230   22.9040  -28.3290 C   0  0  0  0  0  0  0  0  0  0  0  0
   -1.8780   24.2020  -27.8440 C   0  0  0  0  0  0  0  0  0  0  0  0
   -2.0580   25.2870  -28.8580 C   0  0  0  0  0  0  0  0  0  0  0  0
   -1.2230   26.2240  -28.9400 O   0  0  0  0  0  0  0  0  0  0  0  0
   -3.1230   25.2360  -29.7500 O   0  0  0  0  0  0  0  0  0  0  0  0
   -6.6540   21.3880  -31.7660 C   0  0  0  0  0  0  0  0  0  0  0  0
   -6.2050   20.1490  -32.2380 C   0  0  0  0  0  0  0  0  0  0  0  0
   -6.4952   17.2041  -32.4245 H   0  0  0  0  0  0  0  0  0  0  0  0
   -7.5325   17.4763  -33.8655 H   0  0  0  0  0  0  0  0  0  0  0  0
   -5.8283   18.0439  -33.8655 H   0  0  0  0  0  0  0  0  0  0  0  0
   -9.2853   18.8287  -33.0214 H   0  0  0  0  0  0  0  0  0  0  0  0
  -10.0318   21.0534  -32.1072 H   0  0  0  0  0  0  0  0  0  0  0  0
   -9.0523   23.4939  -30.9844 H   0  0  0  0  0  0  0  0  0  0  0  0
   -5.0010   26.2690  -30.2620 H   0  0  0  0  0  0  0  0  0  0  0  0
   -4.6070   24.9670  -31.4270 H   0  0  0  0  0  0  0  0  0  0  0  0
   -4.0986   21.2519  -29.4561 H   0  0  0  0  0  0  0  0  0  0  0  0
   -3.9091   20.4171  -31.0420 H   0  0  0  0  0  0  0  0  0  0  0  0
   -3.5297   23.1224  -28.7149 H   0  0  0  0  0  0  0  0  0  0  0  0
   -2.5839   22.2008  -27.4853 H   0  0  0  0  0  0  0  0  0  0  0  0
   -2.3485   24.5087  -26.8982 H   0  0  0  0  0  0  0  0  0  0  0  0
   -0.8019   24.0302  -27.6939 H   0  0  0  0  0  0  0  0  0  0  0  0
   -5.1316   19.9097  -32.2622 H   0  0  0  0  0  0  0  0  0  0  0  0
  1  2  1  0
  2  3  2  0
  3  4  1  0
  4  5  2  0
  5  6  1  0
  6  7  2  0
  7  8  1  0
  8  9  1  0
  8 10  2  0
  7 11  1  0
 11 12  1  0
 12 13  2  0
 12 14  1  0
 14 15  1  0
 15 16  1  0
 16 17  2  0
 16 18  1  0
 18 19  1  0
 19 20  1  0
 20 21  2  0
 20 22  1  0
 11 23  1  0
 23 24  2  0
 24  2  1  0
 23  5  1  0
  1 25  1  0
  1 26  1  0
  1 27  1  0
  3 28  1  0
  4 29  1  0
  6 30  1  0
  9 31  1  0
  9 32  1  0
 14 33  1  0
 14 34  1  0
 18 35  1  0
 18 36  1  0
 19 37  1  0
 19 38  1  0
 24 39  1  0
M  CHG  1  22  -1
M  END
>  <UniqueID>  (87) 
86

>  <SMILES>  (87) 
Cc1ccc2cc(C(N)=O)n(C(=O)COC(=O)CCC(=O)[O-])c2c1

>  <Energy>  (87) 
69.92690731971163

>  <Genealogy>  (87) 
Cc1ccc2cc(C(N)=O)n(C(=O)COC(=O)CCC(=O)[O-])c2c1 (protonated)
Cc1ccc2cc(C(N)=O)n(C(=O)COC(=O)CCC(=O)[O-])c2c1 (3D coordinates assigned)
Cc1ccc2cc(C(N)=O)n(C(=O)COC(=O)CCC(=O)[O-])c2c1 (optimized conformer: 69.92690731971163 kcal/mol)

>  <smiles>  (87) 
Cc1ccc2cc(C(N)=O)n(C(=O)COC(=O)CCC(=O)O)c2c1

>  <score_type>  (87) 
oracle

>  <origin>  (87) 
adg

>  <m_score__min__energy>  (87) 
-10.83

>  <m_primary>  (87) 
energy

$$$$
88:0
     RDKit          3D

 46 48  0  0  0  0  0  0  0  0999 V2000
   -5.3610   24.5060  -29.1060 C   0  0  0  0  0  0  0  0  0  0  0  0
   -4.3690   24.5960  -30.2240 C   0  0  0  0  0  0  0  0  0  0  0  0
   -4.2370   25.6940  -30.8280 O   0  0  0  0  0  0  0  0  0  0  0  0
   -3.6010   23.4470  -30.6220 N   0  0  0  0  0  0  0  0  0  0  0  0
   -2.3200   23.1290  -30.2720 C   0  0  0  0  0  0  0  0  0  0  0  0
   -1.4180   23.9330  -29.4230 C   0  0  0  0  0  0  0  0  0  0  0  0
   -1.7590   25.2820  -29.0990 N   0  0  0  0  0  0  0  0  0  0  0  0
   -0.3360   23.4590  -28.9890 O   0  0  0  0  0  0  0  0  0  0  0  0
   -1.9570   21.8990  -30.8200 C   0  0  0  0  0  0  0  0  0  0  0  0
   -3.0580   21.4740  -31.5320 C   0  0  0  0  0  0  0  0  0  0  0  0
   -3.2520   20.3040  -32.2590 C   0  0  0  0  0  0  0  0  0  0  0  0
   -4.5100   20.0970  -32.8520 C   0  0  0  0  0  0  0  0  0  0  0  0
   -5.5600   21.0350  -32.6690 C   0  0  0  0  0  0  0  0  0  0  0  0
   -6.8660   20.7920  -33.2360 N   0  0  0  0  0  0  0  0  0  0  0  0
   -7.8710   20.6200  -32.1750 C   0  0  0  0  0  0  0  0  0  0  0  0
   -8.9180   19.5620  -32.5710 C   0  0  0  0  0  0  0  0  0  0  0  0
   -8.6400   18.1800  -31.9520 C   0  0  0  0  0  0  0  0  0  0  0  0
   -7.1600   17.9260  -31.6330 C   0  0  0  0  0  0  0  0  0  0  0  0
   -6.4010   17.5310  -32.8160 N   0  0  0  0  0  0  0  0  0  0  0  0
   -5.5640   16.4820  -32.9160 C   0  0  0  0  0  0  0  0  0  0  0  0
   -5.0680   16.4430  -34.2040 C   0  0  0  0  0  0  0  0  0  0  0  0
   -5.6570   17.5220  -34.8360 C   0  0  0  0  0  0  0  0  0  0  0  0
   -6.4710   18.1600  -33.9780 N   0  0  0  0  0  0  0  0  0  0  0  0
   -5.3140   22.2210  -31.9340 C   0  0  0  0  0  0  0  0  0  0  0  0
   -4.0370   22.4220  -31.3930 C   0  0  0  0  0  0  0  0  0  0  0  0
   -4.8327   24.5539  -28.1423 H   0  0  0  0  0  0  0  0  0  0  0  0
   -6.0707   25.3435  -29.1772 H   0  0  0  0  0  0  0  0  0  0  0  0
   -5.9084   23.5545  -29.1772 H   0  0  0  0  0  0  0  0  0  0  0  0
   -2.7120   25.6610  -29.2910 H   0  0  0  0  0  0  0  0  0  0  0  0
   -0.9948   21.3779  -30.7077 H   0  0  0  0  0  0  0  0  0  0  0  0
   -2.4459   19.5634  -32.3667 H   0  0  0  0  0  0  0  0  0  0  0  0
   -4.6824   19.1993  -33.4639 H   0  0  0  0  0  0  0  0  0  0  0  0
   -7.1470   21.5980  -33.8460 H   0  0  0  0  0  0  0  0  0  0  0  0
   -6.8230   19.9360  -33.8360 H   0  0  0  0  0  0  0  0  0  0  0  0
   -7.3673   20.2991  -31.2513 H   0  0  0  0  0  0  0  0  0  0  0  0
   -8.3849   21.5803  -32.0208 H   0  0  0  0  0  0  0  0  0  0  0  0
   -9.9074   19.9046  -32.2339 H   0  0  0  0  0  0  0  0  0  0  0  0
   -8.8737   19.4480  -33.6642 H   0  0  0  0  0  0  0  0  0  0  0  0
   -9.2145   18.0974  -31.0176 H   0  0  0  0  0  0  0  0  0  0  0  0
   -8.9381   17.4302  -32.6996 H   0  0  0  0  0  0  0  0  0  0  0  0
   -6.7226   18.8483  -31.2231 H   0  0  0  0  0  0  0  0  0  0  0  0
   -7.1076   17.1012  -30.9071 H   0  0  0  0  0  0  0  0  0  0  0  0
   -5.3171   15.7761  -32.1093 H   0  0  0  0  0  0  0  0  0  0  0  0
   -4.3620   15.7158  -34.6315 H   0  0  0  0  0  0  0  0  0  0  0  0
   -5.4854   17.8141  -35.8825 H   0  0  0  0  0  0  0  0  0  0  0  0
   -6.1085   22.9682  -31.7910 H   0  0  0  0  0  0  0  0  0  0  0  0
  1  2  1  0
  2  3  2  0
  2  4  1  0
  4  5  1  0
  5  6  1  0
  6  7  1  0
  6  8  2  0
  5  9  2  0
  9 10  1  0
 10 11  2  0
 11 12  1  0
 12 13  2  0
 13 14  1  0
 14 15  1  0
 15 16  1  0
 16 17  1  0
 17 18  1  0
 18 19  1  0
 19 20  1  0
 20 21  2  0
 21 22  1  0
 22 23  2  0
 13 24  1  0
 24 25  2  0
 25  4  1  0
 25 10  1  0
 23 19  1  0
  1 26  1  0
  1 27  1  0
  1 28  1  0
  7 29  1  0
  9 30  1  0
 11 31  1  0
 12 32  1  0
 14 33  1  0
 14 34  1  0
 15 35  1  0
 15 36  1  0
 16 37  1  0
 16 38  1  0
 17 39  1  0
 17 40  1  0
 18 41  1  0
 18 42  1  0
 20 43  1  0
 21 44  1  0
 22 45  1  0
 24 46  1  0
M  CHG  2   7  -1  14   1
M  END
>  <UniqueID>  (88) 
87

>  <SMILES>  (88) 
CC(=O)n1c(C([NH-])=O)cc2ccc([NH2+]CCCCn3cccn3)cc21

>  <Energy>  (88) 
110.67660185048896

>  <Genealogy>  (88) 
CC(=O)n1c(C([NH-])=O)cc2ccc([NH2+]CCCCn3cccn3)cc21 (protonated)
CC(=O)n1c(C([NH-])=O)cc2ccc([NH2+]CCCCn3cccn3)cc21 (3D coordinates assigned)
CC(=O)n1c(C([NH-])=O)cc2ccc([NH2+]CCCCn3cccn3)cc21 (optimized conformer: 110.67660185048896 kcal/mol)

>  <smiles>  (88) 
CC(=O)n1c(C(N)=O)cc2ccc(NCCCCn3cccn3)cc21

>  <score_type>  (88) 
oracle

>  <origin>  (88) 
adg

>  <m_score__min__energy>  (88) 
-10.27

>  <m_primary>  (88) 
energy

$$$$
89:0
     RDKit          3D

 34 35  0  0  0  0  0  0  0  0999 V2000
   -4.9190   24.7570  -29.0100 N   0  0  0  0  0  0  0  0  0  0  0  0
   -6.0810   24.6300  -29.8320 C   0  0  0  0  0  0  0  0  0  0  0  0
   -6.8700   25.6050  -29.9340 O   0  0  0  0  0  0  0  0  0  0  0  0
   -6.3410   23.3830  -30.5850 C   0  0  0  0  0  0  0  0  0  0  0  0
   -7.5470   23.1030  -31.2260 C   0  0  0  0  0  0  0  0  0  0  0  0
   -7.4320   21.8040  -31.6640 C   0  0  0  0  0  0  0  0  0  0  0  0
   -8.3370   21.0120  -32.3640 C   0  0  0  0  0  0  0  0  0  0  0  0
   -7.9500   19.7030  -32.6930 C   0  0  0  0  0  0  0  0  0  0  0  0
   -6.6830   19.1990  -32.3010 C   0  0  0  0  0  0  0  0  0  0  0  0
   -6.2590   17.8110  -32.7060 C   0  0  0  0  0  0  0  0  0  0  0  0
   -5.0510   17.8460  -33.3830 F   0  0  0  0  0  0  0  0  0  0  0  0
   -7.2230   17.2650  -33.5330 F   0  0  0  0  0  0  0  0  0  0  0  0
   -6.1070   17.0030  -31.5940 F   0  0  0  0  0  0  0  0  0  0  0  0
   -5.7850   20.0420  -31.6050 C   0  0  0  0  0  0  0  0  0  0  0  0
   -6.1970   21.3420  -31.2910 C   0  0  0  0  0  0  0  0  0  0  0  0
   -5.5080   22.3060  -30.6410 N   0  0  0  0  0  0  0  0  0  0  0  0
   -4.1540   22.2060  -30.1620 C   0  0  0  0  0  0  0  0  0  0  0  0
   -3.9360   21.8140  -28.9840 O   0  0  0  0  0  0  0  0  0  0  0  0
   -2.9860   22.5190  -31.0590 C   0  0  0  0  0  0  0  0  0  0  0  0
   -1.6850   22.7040  -30.2720 C   0  0  0  0  0  0  0  0  0  0  0  0
   -1.7850   24.0540  -29.0990 S   0  0  0  0  0  0  0  0  0  0  0  0
   -0.4090   24.5760  -28.8050 O   0  0  0  0  0  0  0  0  0  0  0  0
   -2.4020   23.5510  -27.8250 O   0  0  0  0  0  0  0  0  0  0  0  0
   -2.7340   25.2970  -29.7150 O   0  0  0  0  0  0  0  0  0  0  0  0
   -4.2700   23.9530  -28.8600 H   0  0  0  0  0  0  0  0  0  0  0  0
   -4.7250   25.6540  -28.5130 H   0  0  0  0  0  0  0  0  0  0  0  0
   -8.4069   23.7769  -31.3542 H   0  0  0  0  0  0  0  0  0  0  0  0
   -9.3256   21.3997  -32.6509 H   0  0  0  0  0  0  0  0  0  0  0  0
   -8.6378   19.0601  -33.2619 H   0  0  0  0  0  0  0  0  0  0  0  0
   -4.7856   19.6837  -31.3172 H   0  0  0  0  0  0  0  0  0  0  0  0
   -2.8545   21.6910  -31.7712 H   0  0  0  0  0  0  0  0  0  0  0  0
   -3.2033   23.4637  -31.5789 H   0  0  0  0  0  0  0  0  0  0  0  0
   -1.4679   21.7751  -29.7243 H   0  0  0  0  0  0  0  0  0  0  0  0
   -0.8878   22.9423  -30.9916 H   0  0  0  0  0  0  0  0  0  0  0  0
  1  2  1  0
  2  3  2  0
  2  4  1  0
  4  5  2  0
  5  6  1  0
  6  7  2  0
  7  8  1  0
  8  9  2  0
  9 10  1  0
 10 11  1  0
 10 12  1  0
 10 13  1  0
  9 14  1  0
 14 15  2  0
 15 16  1  0
 16 17  1  0
 17 18  2  0
 17 19  1  0
 19 20  1  0
 20 21  1  0
 21 22  2  0
 21 23  2  0
 21 24  1  0
 16  4  1  0
 15  6  1  0
  1 25  1  0
  1 26  1  0
  5 27  1  0
  7 28  1  0
  8 29  1  0
 14 30  1  0
 19 31  1  0
 19 32  1  0
 20 33  1  0
 20 34  1  0
M  CHG  1  24  -1
M  END
>  <UniqueID>  (89) 
88

>  <SMILES>  (89) 
NC(=O)c1cc2ccc(C(F)(F)F)cc2n1C(=O)CCS(=O)(=O)[O-]

>  <Energy>  (89) 
67.62251983798525

>  <Genealogy>  (89) 
NC(=O)c1cc2ccc(C(F)(F)F)cc2n1C(=O)CCS(=O)(=O)[O-] (protonated)
NC(=O)c1cc2ccc(C(F)(F)F)cc2n1C(=O)CCS(=O)(=O)[O-] (3D coordinates assigned)
NC(=O)c1cc2ccc(C(F)(F)F)cc2n1C(=O)CCS(=O)(=O)[O-] (optimized conformer: 67.62251983798525 kcal/mol)

>  <smiles>  (89) 
NC(=O)c1cc2ccc(C(F)(F)F)cc2n1C(=O)CCS(=O)(=O)O

>  <score_type>  (89) 
oracle

>  <origin>  (89) 
adg

>  <m_score__min__energy>  (89) 
-11.220000000000001

>  <m_primary>  (89) 
energy

$$$$
90:0
     RDKit          3D

 46 48  0  0  0  0  0  0  0  0999 V2000
    1.3460   19.7230  -31.3760 N   0  0  0  0  0  0  0  0  0  0  0  0
    0.7140   20.0540  -32.6130 C   0  0  0  0  0  0  0  0  0  0  0  0
    1.3930   20.5980  -33.5250 O   0  0  0  0  0  0  0  0  0  0  0  0
   -0.7290   19.8180  -32.8270 C   0  0  0  0  0  0  0  0  0  0  0  0
   -1.2340   19.0310  -33.8570 C   0  0  0  0  0  0  0  0  0  0  0  0
   -2.6020   19.0850  -33.7160 C   0  0  0  0  0  0  0  0  0  0  0  0
   -3.5980   18.4710  -34.4600 C   0  0  0  0  0  0  0  0  0  0  0  0
   -4.9320   18.6620  -34.0660 C   0  0  0  0  0  0  0  0  0  0  0  0
   -5.2670   19.4500  -32.9210 C   0  0  0  0  0  0  0  0  0  0  0  0
   -6.6600   19.6350  -32.5090 N   0  0  0  0  0  0  0  0  0  0  0  0
   -7.5470   18.4470  -32.4580 C   0  0  0  0  0  0  0  0  0  0  0  0
   -8.9620   18.7050  -31.9290 C   0  0  0  0  0  0  0  0  0  0  0  0
   -9.4930   20.0450  -32.3980 C   0  0  0  0  0  0  0  0  0  0  0  0
   -8.6070   21.1300  -31.8200 C   0  0  0  0  0  0  0  0  0  0  0  0
   -7.1720   21.0190  -32.3400 C   0  0  0  0  0  0  0  0  0  0  0  0
   -4.2000   20.0580  -32.2000 C   0  0  0  0  0  0  0  0  0  0  0  0
   -2.8840   19.8720  -32.6340 C   0  0  0  0  0  0  0  0  0  0  0  0
   -1.7420   20.3360  -32.0770 N   0  0  0  0  0  0  0  0  0  0  0  0
   -1.6140   21.0900  -30.8590 C   0  0  0  0  0  0  0  0  0  0  0  0
   -0.8960   20.6420  -29.9270 O   0  0  0  0  0  0  0  0  0  0  0  0
   -2.2440   22.4500  -30.7250 C   0  0  0  0  0  0  0  0  0  0  0  0
   -1.4720   23.3650  -29.7580 C   0  0  0  0  0  0  0  0  0  0  0  0
   -2.4370   24.8350  -29.2680 P   0  0  0  0  0  0  0  0  0  0  0  0
   -3.2380   24.5290  -28.0230 O   0  0  0  0  0  0  0  0  0  0  0  0
   -1.3710   26.1060  -28.9420 O   0  0  0  0  0  0  0  0  0  0  0  0
   -3.4860   25.3010  -30.5100 O   0  0  0  0  0  0  0  0  0  0  0  0
    2.3770   19.8460  -31.2660 H   0  0  0  0  0  0  0  0  0  0  0  0
    0.7870   19.4530  -30.5380 H   0  0  0  0  0  0  0  0  0  0  0  0
   -0.6624   18.4830  -34.6205 H   0  0  0  0  0  0  0  0  0  0  0  0
   -3.3499   17.8516  -35.3345 H   0  0  0  0  0  0  0  0  0  0  0  0
   -5.7376   18.1948  -34.6515 H   0  0  0  0  0  0  0  0  0  0  0  0
   -7.6342   18.0446  -33.4780 H   0  0  0  0  0  0  0  0  0  0  0  0
   -7.0798   17.7504  -31.7463 H   0  0  0  0  0  0  0  0  0  0  0  0
   -9.6297   17.9092  -32.2907 H   0  0  0  0  0  0  0  0  0  0  0  0
   -8.9239   18.7137  -30.8297 H   0  0  0  0  0  0  0  0  0  0  0  0
   -9.4707   20.0912  -33.4968 H   0  0  0  0  0  0  0  0  0  0  0  0
  -10.5317   20.1821  -32.0630 H   0  0  0  0  0  0  0  0  0  0  0  0
   -9.0144   22.1121  -32.1021 H   0  0  0  0  0  0  0  0  0  0  0  0
   -8.5876   21.0134  -30.7264 H   0  0  0  0  0  0  0  0  0  0  0  0
   -7.1261   21.5195  -33.3185 H   0  0  0  0  0  0  0  0  0  0  0  0
   -6.5355   21.4858  -31.5739 H   0  0  0  0  0  0  0  0  0  0  0  0
   -4.4094   20.6687  -31.3094 H   0  0  0  0  0  0  0  0  0  0  0  0
   -2.2695   22.9261  -31.7163 H   0  0  0  0  0  0  0  0  0  0  0  0
   -3.2559   22.3106  -30.3168 H   0  0  0  0  0  0  0  0  0  0  0  0
   -1.2200   22.7909  -28.8542 H   0  0  0  0  0  0  0  0  0  0  0  0
   -0.5687   23.7159  -30.2785 H   0  0  0  0  0  0  0  0  0  0  0  0
  1  2  1  0
  2  3  2  0
  2  4  1  0
  4  5  2  0
  5  6  1  0
  6  7  2  0
  7  8  1  0
  8  9  2  0
  9 10  1  0
 10 11  1  0
 11 12  1  0
 12 13  1  0
 13 14  1  0
 14 15  1  0
  9 16  1  0
 16 17  2  0
 17 18  1  0
 18 19  1  0
 19 20  2  0
 19 21  1  0
 21 22  1  0
 22 23  1  0
 23 24  2  0
 23 25  1  0
 23 26  1  0
 18  4  1  0
 17  6  1  0
 15 10  1  0
  1 27  1  0
  1 28  1  0
  5 29  1  0
  7 30  1  0
  8 31  1  0
 11 32  1  0
 11 33  1  0
 12 34  1  0
 12 35  1  0
 13 36  1  0
 13 37  1  0
 14 38  1  0
 14 39  1  0
 15 40  1  0
 15 41  1  0
 16 42  1  0
 21 43  1  0
 21 44  1  0
 22 45  1  0
 22 46  1  0
M  CHG  2  25  -1  26  -1
M  END
>  <UniqueID>  (90) 
89

>  <SMILES>  (90) 
NC(=O)c1cc2ccc(N3CCCCC3)cc2n1C(=O)CCP(=O)([O-])[O-]

>  <Energy>  (90) 
88.50788084156132

>  <Genealogy>  (90) 
NC(=O)c1cc2ccc(N3CCCCC3)cc2n1C(=O)CCP(=O)([O-])[O-] (protonated)
NC(=O)c1cc2ccc(N3CCCCC3)cc2n1C(=O)CCP(=O)([O-])[O-] (3D coordinates assigned)
NC(=O)c1cc2ccc(N3CCCCC3)cc2n1C(=O)CCP(=O)([O-])[O-] (nonaromatic ring conformer: 88.50788084156132 kcal/mol)

>  <smiles>  (90) 
NC(=O)c1cc2ccc(N3CCCCC3)cc2n1C(=O)CCP(=O)(O)O

>  <score_type>  (90) 
oracle

>  <origin>  (90) 
adg

>  <m_score__min__energy>  (90) 
-13.81

>  <m_primary>  (90) 
energy

$$$$
91:0
     RDKit          3D

 47 48  0  0  0  0  0  0  0  0999 V2000
   -0.7570   22.1930  -26.3800 C   0  0  0  0  0  0  0  0  0  0  0  0
   -1.2800   22.7600  -27.6300 N   0  0  0  0  0  0  0  0  0  0  0  0
   -0.5960   23.9100  -28.2450 C   0  0  0  0  0  0  0  0  0  0  0  0
   -1.5760   24.9900  -28.5790 C   0  0  0  0  0  0  0  0  0  0  0  0
   -1.2270   25.9530  -29.3100 O   0  0  0  0  0  0  0  0  0  0  0  0
   -2.8780   24.9260  -28.0990 O   0  0  0  0  0  0  0  0  0  0  0  0
   -2.4870   22.1890  -28.1910 C   0  0  0  0  0  0  0  0  0  0  0  0
   -3.5180   22.0980  -27.4690 O   0  0  0  0  0  0  0  0  0  0  0  0
   -2.5830   21.7440  -29.6350 C   0  0  0  0  0  0  0  0  0  0  0  0
   -2.6630   22.9260  -30.6080 C   0  0  0  0  0  0  0  0  0  0  0  0
   -3.5910   22.6280  -31.7540 C   0  0  0  0  0  0  0  0  0  0  0  0
   -3.1190   22.2070  -32.8430 O   0  0  0  0  0  0  0  0  0  0  0  0
   -5.0140   22.7090  -31.5790 N   0  0  0  0  0  0  0  0  0  0  0  0
   -5.7250   23.6760  -30.9360 C   0  0  0  0  0  0  0  0  0  0  0  0
   -5.1930   24.9690  -30.4640 C   0  0  0  0  0  0  0  0  0  0  0  0
   -3.8980   25.4140  -30.8600 N   0  0  0  0  0  0  0  0  0  0  0  0
   -5.9060   25.7110  -29.7360 O   0  0  0  0  0  0  0  0  0  0  0  0
   -7.0720   23.3250  -30.8670 C   0  0  0  0  0  0  0  0  0  0  0  0
   -7.1630   22.1090  -31.5070 C   0  0  0  0  0  0  0  0  0  0  0  0
   -8.2680   21.3010  -31.7360 C   0  0  0  0  0  0  0  0  0  0  0  0
   -8.0710   20.0920  -32.4220 C   0  0  0  0  0  0  0  0  0  0  0  0
   -6.7760   19.6970  -32.8730 C   0  0  0  0  0  0  0  0  0  0  0  0
   -6.5850   18.4430  -33.5860 N   0  0  0  0  0  0  0  0  0  0  0  0
   -7.1840   17.1980  -33.0870 C   0  0  0  0  0  0  0  0  0  0  0  0
   -5.7830   18.3960  -34.8160 C   0  0  0  0  0  0  0  0  0  0  0  0
   -5.6780   20.5610  -32.6080 C   0  0  0  0  0  0  0  0  0  0  0  0
   -5.9100   21.7620  -31.9320 C   0  0  0  0  0  0  0  0  0  0  0  0
   -1.2248   22.7002  -25.5233 H   0  0  0  0  0  0  0  0  0  0  0  0
   -0.9874   21.1181  -26.3403 H   0  0  0  0  0  0  0  0  0  0  0  0
    0.3329   22.3360  -26.3403 H   0  0  0  0  0  0  0  0  0  0  0  0
    0.1509   24.3051  -27.5407 H   0  0  0  0  0  0  0  0  0  0  0  0
   -0.1067   23.5767  -29.1721 H   0  0  0  0  0  0  0  0  0  0  0  0
   -1.6935   21.1449  -29.8797 H   0  0  0  0  0  0  0  0  0  0  0  0
   -3.5072   21.1575  -29.7439 H   0  0  0  0  0  0  0  0  0  0  0  0
   -3.0326   23.8103  -30.0681 H   0  0  0  0  0  0  0  0  0  0  0  0
   -1.6575   23.1104  -31.0141 H   0  0  0  0  0  0  0  0  0  0  0  0
   -3.0730   25.2920  -30.2350 H   0  0  0  0  0  0  0  0  0  0  0  0
   -7.8879   23.8969  -30.4010 H   0  0  0  0  0  0  0  0  0  0  0  0
   -9.2688   21.5991  -31.3902 H   0  0  0  0  0  0  0  0  0  0  0  0
   -8.9324   19.4359  -32.6158 H   0  0  0  0  0  0  0  0  0  0  0  0
   -7.1808   17.2047  -31.9870 H   0  0  0  0  0  0  0  0  0  0  0  0
   -8.2192   17.1179  -33.4502 H   0  0  0  0  0  0  0  0  0  0  0  0
   -6.6005   16.3391  -33.4502 H   0  0  0  0  0  0  0  0  0  0  0  0
   -4.7160   18.3335  -34.5559 H   0  0  0  0  0  0  0  0  0  0  0  0
   -6.0688   17.5131  -35.4066 H   0  0  0  0  0  0  0  0  0  0  0  0
   -5.9637   19.3063  -35.4066 H   0  0  0  0  0  0  0  0  0  0  0  0
   -4.6621   20.2883  -32.9300 H   0  0  0  0  0  0  0  0  0  0  0  0
  1  2  1  0
  2  3  1  0
  3  4  1  0
  4  5  2  0
  4  6  1  0
  2  7  1  0
  7  8  2  0
  7  9  1  0
  9 10  1  0
 10 11  1  0
 11 12  2  0
 11 13  1  0
 13 14  1  0
 14 15  1  0
 15 16  1  0
 15 17  2  0
 14 18  2  0
 18 19  1  0
 19 20  2  0
 20 21  1  0
 21 22  2  0
 22 23  1  0
 23 24  1  0
 23 25  1  0
 22 26  1  0
 26 27  2  0
 27 13  1  0
 27 19  1  0
  1 28  1  0
  1 29  1  0
  1 30  1  0
  3 31  1  0
  3 32  1  0
  9 33  1  0
  9 34  1  0
 10 35  1  0
 10 36  1  0
 16 37  1  0
 18 38  1  0
 20 39  1  0
 21 40  1  0
 24 41  1  0
 24 42  1  0
 24 43  1  0
 25 44  1  0
 25 45  1  0
 25 46  1  0
 26 47  1  0
M  CHG  2   6  -1  16  -1
M  END
>  <UniqueID>  (91) 
90

>  <SMILES>  (91) 
CN(CC(=O)[O-])C(=O)CCC(=O)n1c(C([NH-])=O)cc2ccc(N(C)C)cc21

>  <Energy>  (91) 
80.03333668266366

>  <Genealogy>  (91) 
CN(CC(=O)[O-])C(=O)CCC(=O)n1c(C([NH-])=O)cc2ccc(N(C)C)cc21 (protonated)
CN(CC(=O)[O-])C(=O)CCC(=O)n1c(C([NH-])=O)cc2ccc(N(C)C)cc21 (3D coordinates assigned)
CN(CC(=O)[O-])C(=O)CCC(=O)n1c(C([NH-])=O)cc2ccc(N(C)C)cc21 (optimized conformer: 80.03333668266366 kcal/mol)

>  <smiles>  (91) 
CN(CC(=O)O)C(=O)CCC(=O)n1c(C(N)=O)cc2ccc(N(C)C)cc21

>  <score_type>  (91) 
oracle

>  <origin>  (91) 
adg

>  <m_score__min__energy>  (91) 
-13.039999999999999

>  <m_primary>  (91) 
energy

$$$$
92:0
     RDKit          3D

 32 33  0  0  0  0  0  0  0  0999 V2000
   -8.4820   19.7610  -33.4330 N   0  0  0  0  0  0  0  0  0  0  0  0
   -8.8860   20.6760  -32.4120 C   0  0  0  0  0  0  0  0  0  0  0  0
  -10.0600   20.6060  -31.9700 O   0  0  0  0  0  0  0  0  0  0  0  0
   -7.9520   21.7030  -31.8810 C   0  0  0  0  0  0  0  0  0  0  0  0
   -8.3400   22.8600  -31.2040 C   0  0  0  0  0  0  0  0  0  0  0  0
   -7.1690   23.4890  -30.8450 C   0  0  0  0  0  0  0  0  0  0  0  0
   -6.9640   24.6830  -30.1610 C   0  0  0  0  0  0  0  0  0  0  0  0
   -5.6390   25.0990  -29.9440 C   0  0  0  0  0  0  0  0  0  0  0  0
   -4.5470   24.3260  -30.4140 C   0  0  0  0  0  0  0  0  0  0  0  0
   -3.2050   24.7910  -30.1750 N   0  0  0  0  0  0  0  0  0  0  0  0
   -2.2540   24.0830  -29.3160 C   0  0  0  0  0  0  0  0  0  0  0  0
   -1.1330   24.9860  -28.9100 C   0  0  0  0  0  0  0  0  0  0  0  0
   -0.0730   24.5040  -28.4310 O   0  0  0  0  0  0  0  0  0  0  0  0
   -1.2370   26.3570  -29.1070 O   0  0  0  0  0  0  0  0  0  0  0  0
   -4.8010   23.1190  -31.1110 C   0  0  0  0  0  0  0  0  0  0  0  0
   -6.1290   22.7240  -31.2980 C   0  0  0  0  0  0  0  0  0  0  0  0
   -6.5910   21.6260  -31.9320 N   0  0  0  0  0  0  0  0  0  0  0  0
   -5.7960   20.6030  -32.5490 C   0  0  0  0  0  0  0  0  0  0  0  0
   -5.7870   20.4940  -33.8050 O   0  0  0  0  0  0  0  0  0  0  0  0
   -4.9890   19.6460  -31.7260 C   0  0  0  0  0  0  0  0  0  0  0  0
   -5.8240   18.7030  -31.1540 F   0  0  0  0  0  0  0  0  0  0  0  0
   -4.0430   19.0030  -32.5050 F   0  0  0  0  0  0  0  0  0  0  0  0
   -4.3390   20.3430  -30.7240 F   0  0  0  0  0  0  0  0  0  0  0  0
   -7.5210   19.7660  -33.8340 H   0  0  0  0  0  0  0  0  0  0  0  0
   -9.1630   19.0610  -33.8010 H   0  0  0  0  0  0  0  0  0  0  0  0
   -9.3665   23.1986  -30.9999 H   0  0  0  0  0  0  0  0  0  0  0  0
   -7.8127   25.2831  -29.8011 H   0  0  0  0  0  0  0  0  0  0  0  0
   -5.4466   26.0368  -29.4023 H   0  0  0  0  0  0  0  0  0  0  0  0
   -2.8980   25.6740  -30.6470 H   0  0  0  0  0  0  0  0  0  0  0  0
   -2.7761   23.7284  -28.4151 H   0  0  0  0  0  0  0  0  0  0  0  0
   -1.8375   23.2327  -29.8759 H   0  0  0  0  0  0  0  0  0  0  0  0
   -3.9723   22.5067  -31.4962 H   0  0  0  0  0  0  0  0  0  0  0  0
  1  2  1  0
  2  3  2  0
  2  4  1  0
  4  5  2  0
  5  6  1  0
  6  7  2  0
  7  8  1  0
  8  9  2  0
  9 10  1  0
 10 11  1  0
 11 12  1  0
 12 13  2  0
 12 14  1  0
  9 15  1  0
 15 16  2  0
 16 17  1  0
 17 18  1  0
 18 19  2  0
 18 20  1  0
 20 21  1  0
 20 22  1  0
 20 23  1  0
 17  4  1  0
 16  6  1  0
  1 24  1  0
  1 25  1  0
  5 26  1  0
  7 27  1  0
  8 28  1  0
 10 29  1  0
 11 30  1  0
 11 31  1  0
 15 32  1  0
M  CHG  1  14  -1
M  END
>  <UniqueID>  (92) 
91

>  <SMILES>  (92) 
NC(=O)c1cc2ccc(NCC(=O)[O-])cc2n1C(=O)C(F)(F)F

>  <Energy>  (92) 
70.55152176784048

>  <Genealogy>  (92) 
NC(=O)c1cc2ccc(NCC(=O)[O-])cc2n1C(=O)C(F)(F)F (protonated)
NC(=O)c1cc2ccc(NCC(=O)[O-])cc2n1C(=O)C(F)(F)F (3D coordinates assigned)
NC(=O)c1cc2ccc(NCC(=O)[O-])cc2n1C(=O)C(F)(F)F (optimized conformer: 70.55152176784048 kcal/mol)

>  <smiles>  (92) 
NC(=O)c1cc2ccc(NCC(=O)O)cc2n1C(=O)C(F)(F)F

>  <score_type>  (92) 
oracle

>  <origin>  (92) 
adg

>  <m_score__min__energy>  (92) 
-9.2200000000000006

>  <m_primary>  (92) 
energy

$$$$
93:0
     RDKit          3D

 38 39  0  0  0  0  0  0  0  0999 V2000
   -6.9240   18.2500  -32.4330 C   0  0  0  0  0  0  0  0  0  0  0  0
   -7.1150   19.6890  -32.0580 C   0  0  0  0  0  0  0  0  0  0  0  0
   -8.3910   20.2920  -32.1870 C   0  0  0  0  0  0  0  0  0  0  0  0
   -8.5730   21.6520  -31.8860 C   0  0  0  0  0  0  0  0  0  0  0  0
   -7.4650   22.3820  -31.4660 C   0  0  0  0  0  0  0  0  0  0  0  0
   -7.3530   23.7140  -31.1410 C   0  0  0  0  0  0  0  0  0  0  0  0
   -6.0110   23.9040  -30.8140 C   0  0  0  0  0  0  0  0  0  0  0  0
   -5.4680   25.1870  -30.3210 C   0  0  0  0  0  0  0  0  0  0  0  0
   -4.2310   25.6770  -30.8330 N   0  0  0  0  0  0  0  0  0  0  0  0
   -6.1030   25.8750  -29.4800 O   0  0  0  0  0  0  0  0  0  0  0  0
   -5.3190   22.7360  -30.9380 N   0  0  0  0  0  0  0  0  0  0  0  0
   -3.9080   22.5310  -30.7670 C   0  0  0  0  0  0  0  0  0  0  0  0
   -3.0890   23.3730  -31.2290 O   0  0  0  0  0  0  0  0  0  0  0  0
   -3.4480   21.4100  -30.0670 O   0  0  0  0  0  0  0  0  0  0  0  0
   -2.2850   20.6830  -30.4490 C   0  0  0  0  0  0  0  0  0  0  0  0
   -1.4580   20.4680  -29.3100 O   0  0  0  0  0  0  0  0  0  0  0  0
   -0.7270   21.4940  -28.7050 C   0  0  0  0  0  0  0  0  0  0  0  0
    0.3320   21.2340  -28.0690 O   0  0  0  0  0  0  0  0  0  0  0  0
   -1.1900   22.8440  -28.8190 N   0  0  0  0  0  0  0  0  0  0  0  0
   -0.4860   23.9710  -28.2110 C   0  0  0  0  0  0  0  0  0  0  0  0
   -1.1230   25.2590  -28.6240 C   0  0  0  0  0  0  0  0  0  0  0  0
   -2.1570   25.2550  -29.3430 O   0  0  0  0  0  0  0  0  0  0  0  0
   -0.5560   26.4680  -28.2390 O   0  0  0  0  0  0  0  0  0  0  0  0
   -6.2230   21.8130  -31.3350 C   0  0  0  0  0  0  0  0  0  0  0  0
   -6.0090   20.4640  -31.6450 C   0  0  0  0  0  0  0  0  0  0  0  0
   -6.8432   17.6409  -31.5206 H   0  0  0  0  0  0  0  0  0  0  0  0
   -7.7847   17.9085  -33.0268 H   0  0  0  0  0  0  0  0  0  0  0  0
   -6.0040   18.1448  -33.0268 H   0  0  0  0  0  0  0  0  0  0  0  0
   -9.2467   19.6896  -32.5259 H   0  0  0  0  0  0  0  0  0  0  0  0
   -9.5614   22.1257  -31.9794 H   0  0  0  0  0  0  0  0  0  0  0  0
   -8.1528   24.4692  -31.1394 H   0  0  0  0  0  0  0  0  0  0  0  0
   -3.3200   25.2950  -30.4930 H   0  0  0  0  0  0  0  0  0  0  0  0
   -2.5831   19.7127  -30.8729 H   0  0  0  0  0  0  0  0  0  0  0  0
   -1.7262   21.2587  -31.2015 H   0  0  0  0  0  0  0  0  0  0  0  0
   -2.0530   23.0310  -29.3770 H   0  0  0  0  0  0  0  0  0  0  0  0
   -0.5292   23.8787  -27.1157 H   0  0  0  0  0  0  0  0  0  0  0  0
    0.5615   23.9640  -28.5466 H   0  0  0  0  0  0  0  0  0  0  0  0
   -5.0056   20.0197  -31.5688 H   0  0  0  0  0  0  0  0  0  0  0  0
  1  2  1  0
  2  3  2  0
  3  4  1  0
  4  5  2  0
  5  6  1  0
  6  7  2  0
  7  8  1  0
  8  9  1  0
  8 10  2  0
  7 11  1  0
 11 12  1  0
 12 13  2  0
 12 14  1  0
 14 15  1  0
 15 16  1  0
 16 17  1  0
 17 18  2  0
 17 19  1  0
 19 20  1  0
 20 21  1  0
 21 22  2  0
 21 23  1  0
 11 24  1  0
 24 25  2  0
 25  2  1  0
 24  5  1  0
  1 26  1  0
  1 27  1  0
  1 28  1  0
  3 29  1  0
  4 30  1  0
  6 31  1  0
  9 32  1  0
 15 33  1  0
 15 34  1  0
 19 35  1  0
 20 36  1  0
 20 37  1  0
 25 38  1  0
M  CHG  2   9  -1  23  -1
M  END
>  <UniqueID>  (93) 
92

>  <SMILES>  (93) 
Cc1ccc2cc(C([NH-])=O)n(C(=O)OCOC(=O)NCC(=O)[O-])c2c1

>  <Energy>  (93) 
69.53586615529795

>  <Genealogy>  (93) 
Cc1ccc2cc(C([NH-])=O)n(C(=O)OCOC(=O)NCC(=O)[O-])c2c1 (protonated)
Cc1ccc2cc(C([NH-])=O)n(C(=O)OCOC(=O)NCC(=O)[O-])c2c1 (3D coordinates assigned)
Cc1ccc2cc(C([NH-])=O)n(C(=O)OCOC(=O)NCC(=O)[O-])c2c1 (optimized conformer: 69.53586615529795 kcal/mol)

>  <smiles>  (93) 
Cc1ccc2cc(C(N)=O)n(C(=O)OCOC(=O)NCC(=O)O)c2c1

>  <score_type>  (93) 
oracle

>  <origin>  (93) 
adg

>  <m_score__min__energy>  (93) 
-11.56

>  <m_primary>  (93) 
energy

$$$$
94:0
     RDKit          3D

 38 39  0  0  0  0  0  0  0  0999 V2000
   -3.9920   25.2820  -30.5320 N   0  0  0  0  0  0  0  0  0  0  0  0
   -5.4130   25.1810  -30.4960 C   0  0  0  0  0  0  0  0  0  0  0  0
   -6.0910   26.1620  -30.0960 O   0  0  0  0  0  0  0  0  0  0  0  0
   -6.0690   23.9160  -30.8880 C   0  0  0  0  0  0  0  0  0  0  0  0
   -7.4250   23.8150  -31.1890 C   0  0  0  0  0  0  0  0  0  0  0  0
   -7.6140   22.5110  -31.5860 C   0  0  0  0  0  0  0  0  0  0  0  0
   -8.7760   21.8560  -31.9860 C   0  0  0  0  0  0  0  0  0  0  0  0
   -8.6860   20.4930  -32.3120 C   0  0  0  0  0  0  0  0  0  0  0  0
   -7.4460   19.8110  -32.2290 C   0  0  0  0  0  0  0  0  0  0  0  0
   -7.3750   18.3490  -32.5660 C   0  0  0  0  0  0  0  0  0  0  0  0
   -6.8680   17.6460  -31.4890 F   0  0  0  0  0  0  0  0  0  0  0  0
   -6.5500   18.1640  -33.6610 F   0  0  0  0  0  0  0  0  0  0  0  0
   -6.2880   20.5080  -31.8170 C   0  0  0  0  0  0  0  0  0  0  0  0
   -6.4040   21.8700  -31.5150 C   0  0  0  0  0  0  0  0  0  0  0  0
   -5.4450   22.7200  -31.0860 N   0  0  0  0  0  0  0  0  0  0  0  0
   -4.0730   22.3900  -30.8180 C   0  0  0  0  0  0  0  0  0  0  0  0
   -3.1940   22.5920  -31.7000 O   0  0  0  0  0  0  0  0  0  0  0  0
   -3.7220   21.8300  -29.5830 O   0  0  0  0  0  0  0  0  0  0  0  0
   -2.7730   20.7750  -29.4400 C   0  0  0  0  0  0  0  0  0  0  0  0
   -1.4840   21.2980  -28.7950 C   0  0  0  0  0  0  0  0  0  0  0  0
   -0.8060   22.3730  -29.6560 C   0  0  0  0  0  0  0  0  0  0  0  0
   -1.5260   23.6460  -29.5950 N   0  0  0  0  0  0  0  0  0  0  0  0
   -0.9420   24.8080  -28.9970 C   0  0  0  0  0  0  0  0  0  0  0  0
    0.2200   24.7650  -28.5120 O   0  0  0  0  0  0  0  0  0  0  0  0
   -1.6600   25.9950  -28.9500 O   0  0  0  0  0  0  0  0  0  0  0  0
   -3.4610   25.6750  -29.7220 H   0  0  0  0  0  0  0  0  0  0  0  0
   -8.1837   24.6088  -31.1234 H   0  0  0  0  0  0  0  0  0  0  0  0
   -9.7357   22.3903  -32.0449 H   0  0  0  0  0  0  0  0  0  0  0  0
   -9.5862   19.9494  -32.6348 H   0  0  0  0  0  0  0  0  0  0  0  0
   -8.3858   17.9835  -32.7999 H   0  0  0  0  0  0  0  0  0  0  0  0
   -5.3193   19.9931  -31.7356 H   0  0  0  0  0  0  0  0  0  0  0  0
   -3.2016   19.9858  -28.8048 H   0  0  0  0  0  0  0  0  0  0  0  0
   -2.5353   20.3721  -30.4356 H   0  0  0  0  0  0  0  0  0  0  0  0
   -1.7281   21.7307  -27.8136 H   0  0  0  0  0  0  0  0  0  0  0  0
   -0.7869   20.4531  -28.6947 H   0  0  0  0  0  0  0  0  0  0  0  0
    0.2209   22.5260  -29.2926 H   0  0  0  0  0  0  0  0  0  0  0  0
   -0.8060   22.0276  -30.7004 H   0  0  0  0  0  0  0  0  0  0  0  0
   -2.4970   23.7260  -29.9740 H   0  0  0  0  0  0  0  0  0  0  0  0
  1  2  1  0
  2  3  2  0
  2  4  1  0
  4  5  2  0
  5  6  1  0
  6  7  2  0
  7  8  1  0
  8  9  2  0
  9 10  1  0
 10 11  1  0
 10 12  1  0
  9 13  1  0
 13 14  2  0
 14 15  1  0
 15 16  1  0
 16 17  2  0
 16 18  1  0
 18 19  1  0
 19 20  1  0
 20 21  1  0
 21 22  1  0
 22 23  1  0
 23 24  2  0
 23 25  1  0
 15  4  1  0
 14  6  1  0
  1 26  1  0
  5 27  1  0
  7 28  1  0
  8 29  1  0
 10 30  1  0
 13 31  1  0
 19 32  1  0
 19 33  1  0
 20 34  1  0
 20 35  1  0
 21 36  1  0
 21 37  1  0
 22 38  1  0
M  CHG  2   1  -1  25  -1
M  END
>  <UniqueID>  (94) 
93

>  <SMILES>  (94) 
[NH-]C(=O)c1cc2ccc(C(F)F)cc2n1C(=O)OCCCNC(=O)[O-]

>  <Energy>  (94) 
69.2089132911204

>  <Genealogy>  (94) 
[NH-]C(=O)c1cc2ccc(C(F)F)cc2n1C(=O)OCCCNC(=O)[O-] (protonated)
[NH-]C(=O)c1cc2ccc(C(F)F)cc2n1C(=O)OCCCNC(=O)[O-] (3D coordinates assigned)
[NH-]C(=O)c1cc2ccc(C(F)F)cc2n1C(=O)OCCCNC(=O)[O-] (optimized conformer: 69.2089132911204 kcal/mol)

>  <smiles>  (94) 
NC(=O)c1cc2ccc(C(F)F)cc2n1C(=O)OCCCNC(=O)O

>  <score_type>  (94) 
oracle

>  <origin>  (94) 
adg

>  <m_score__min__energy>  (94) 
-11.77

>  <m_primary>  (94) 
energy

$$$$
95:0
     RDKit          3D

 37 38  0  0  0  0  0  0  0  0999 V2000
   -1.3880   21.1900  -33.3060 C   0  0  0  0  0  0  0  0  0  0  0  0
   -2.5020   21.4110  -32.2850 C   0  0  2  0  0  0  0  0  0  0  0  0
   -1.7840   21.8150  -30.7060 Cl  0  0  0  0  0  0  0  0  0  0  0  0
   -3.2910   20.2320  -32.1390 O   0  0  0  0  0  0  0  0  0  0  0  0
   -4.2230   19.8020  -33.0910 C   0  0  0  0  0  0  0  0  0  0  0  0
   -3.8340   19.3430  -34.2000 O   0  0  0  0  0  0  0  0  0  0  0  0
   -5.6280   19.8990  -32.8040 N   0  0  0  0  0  0  0  0  0  0  0  0
   -6.5910   18.9770  -33.0820 C   0  0  0  0  0  0  0  0  0  0  0  0
   -6.4120   17.7630  -33.9040 C   0  0  0  0  0  0  0  0  0  0  0  0
   -5.7030   17.8070  -35.1420 N   0  0  0  0  0  0  0  0  0  0  0  0
   -6.9410   16.6810  -33.5330 O   0  0  0  0  0  0  0  0  0  0  0  0
   -7.8100   19.3520  -32.5270 C   0  0  0  0  0  0  0  0  0  0  0  0
   -7.5690   20.5540  -31.9010 C   0  0  0  0  0  0  0  0  0  0  0  0
   -8.4270   21.3660  -31.1650 C   0  0  0  0  0  0  0  0  0  0  0  0
   -7.8970   22.5310  -30.5880 C   0  0  0  0  0  0  0  0  0  0  0  0
   -6.5290   22.8610  -30.7530 C   0  0  0  0  0  0  0  0  0  0  0  0
   -5.9650   24.0880  -30.0840 C   0  0  0  0  0  0  0  0  0  0  0  0
   -4.5480   23.8440  -29.5500 C   0  0  0  0  0  0  0  0  0  0  0  0
   -3.6020   24.9250  -29.9760 C   0  0  0  0  0  0  0  0  0  0  0  0
   -3.8900   25.6700  -30.9490 O   0  0  0  0  0  0  0  0  0  0  0  0
   -2.3840   25.0810  -29.3270 O   0  0  0  0  0  0  0  0  0  0  0  0
   -5.6860   22.0080  -31.5000 C   0  0  0  0  0  0  0  0  0  0  0  0
   -6.2440   20.8630  -32.0810 C   0  0  0  0  0  0  0  0  0  0  0  0
   -0.4404   21.0020  -32.7799 H   0  0  0  0  0  0  0  0  0  0  0  0
   -1.6354   20.3234  -33.9368 H   0  0  0  0  0  0  0  0  0  0  0  0
   -1.2858   22.0854  -33.9368 H   0  0  0  0  0  0  0  0  0  0  0  0
   -3.1416   22.2330  -32.6387 H   0  0  0  0  0  0  0  0  0  0  0  0
   -5.5480   16.9320  -35.6890 H   0  0  0  0  0  0  0  0  0  0  0  0
   -5.3990   18.7160  -35.5560 H   0  0  0  0  0  0  0  0  0  0  0  0
   -8.7630   18.8049  -32.5775 H   0  0  0  0  0  0  0  0  0  0  0  0
   -9.4877   21.1031  -31.0393 H   0  0  0  0  0  0  0  0  0  0  0  0
   -8.5503   23.1942  -30.0020 H   0  0  0  0  0  0  0  0  0  0  0  0
   -5.9337   24.9096  -30.8148 H   0  0  0  0  0  0  0  0  0  0  0  0
   -6.6129   24.3417  -29.2320 H   0  0  0  0  0  0  0  0  0  0  0  0
   -4.5817   23.8123  -28.4510 H   0  0  0  0  0  0  0  0  0  0  0  0
   -4.1861   22.8899  -29.9607 H   0  0  0  0  0  0  0  0  0  0  0  0
   -4.6173   22.2380  -31.6221 H   0  0  0  0  0  0  0  0  0  0  0  0
  1  2  1  0
  2  3  1  0
  2  4  1  0
  4  5  1  0
  5  6  2  0
  5  7  1  0
  7  8  1  0
  8  9  1  0
  9 10  1  0
  9 11  2  0
  8 12  2  0
 12 13  1  0
 13 14  2  0
 14 15  1  0
 15 16  2  0
 16 17  1  0
 17 18  1  0
 18 19  1  0
 19 20  2  0
 19 21  1  0
 16 22  1  0
 22 23  2  0
 23  7  1  0
 23 13  1  0
  1 24  1  0
  1 25  1  0
  1 26  1  0
  2 27  1  6
 10 28  1  0
 10 29  1  0
 12 30  1  0
 14 31  1  0
 15 32  1  0
 17 33  1  0
 17 34  1  0
 18 35  1  0
 18 36  1  0
 22 37  1  0
M  CHG  1  21  -1
M  END
>  <UniqueID>  (95) 
94

>  <SMILES>  (95) 
C[C@H](Cl)OC(=O)n1c(C(N)=O)cc2ccc(CCC(=O)[O-])cc21

>  <Energy>  (95) 
68.20802695244211

>  <Genealogy>  (95) 
CC(Cl)OC(=O)n1c(C(N)=O)cc2ccc(CCC(=O)[O-])cc21 (protonated)
C[C@H](Cl)OC(=O)n1c(C(N)=O)cc2ccc(CCC(=O)[O-])cc21 (chirality)
C[C@H](Cl)OC(=O)n1c(C(N)=O)cc2ccc(CCC(=O)[O-])cc21 (3D coordinates assigned)
C[C@H](Cl)OC(=O)n1c(C(N)=O)cc2ccc(CCC(=O)[O-])cc21 (optimized conformer: 68.20802695244211 kcal/mol)

>  <smiles>  (95) 
CC(Cl)OC(=O)n1c(C(N)=O)cc2ccc(CCC(=O)O)cc21

>  <score_type>  (95) 
oracle

>  <origin>  (95) 
adg

>  <m_score__min__energy>  (95) 
-9.9299999999999997

>  <m_primary>  (95) 
energy

$$$$
96:0
     RDKit          3D

 40 42  0  0  0  0  0  0  0  0999 V2000
   -3.6110   25.1750  -30.4650 N   0  0  0  0  0  0  0  0  0  0  0  0
   -5.0250   25.3100  -30.5820 C   0  0  0  0  0  0  0  0  0  0  0  0
   -5.5490   26.4470  -30.4420 O   0  0  0  0  0  0  0  0  0  0  0  0
   -5.8740   24.1490  -30.9220 C   0  0  0  0  0  0  0  0  0  0  0  0
   -7.2630   24.1580  -30.8080 C   0  0  0  0  0  0  0  0  0  0  0  0
   -7.6760   22.9420  -31.3010 C   0  0  0  0  0  0  0  0  0  0  0  0
   -8.9560   22.4100  -31.4130 C   0  0  0  0  0  0  0  0  0  0  0  0
   -9.0890   21.1110  -31.9310 C   0  0  0  0  0  0  0  0  0  0  0  0
   -7.9440   20.3650  -32.3230 C   0  0  0  0  0  0  0  0  0  0  0  0
   -8.0550   19.0290  -32.8510 N   0  0  0  0  0  0  0  0  0  0  0  0
   -7.4170   17.8500  -32.2610 C   0  0  0  0  0  0  0  0  0  0  0  0
   -6.1830   17.4680  -33.0350 C   0  0  0  0  0  0  0  0  0  0  0  0
   -5.8720   18.1080  -34.2460 C   0  0  0  0  0  0  0  0  0  0  0  0
   -4.7260   17.7440  -34.9610 C   0  0  0  0  0  0  0  0  0  0  0  0
   -3.8890   16.7350  -34.4770 C   0  0  0  0  0  0  0  0  0  0  0  0
   -4.1980   16.0850  -33.2790 C   0  0  0  0  0  0  0  0  0  0  0  0
   -3.3870   15.1020  -32.8130 F   0  0  0  0  0  0  0  0  0  0  0  0
   -5.3420   16.4460  -32.5610 C   0  0  0  0  0  0  0  0  0  0  0  0
   -6.6620   20.9410  -32.1860 C   0  0  0  0  0  0  0  0  0  0  0  0
   -6.5610   22.2440  -31.6840 C   0  0  0  0  0  0  0  0  0  0  0  0
   -5.4450   22.9720  -31.4560 N   0  0  0  0  0  0  0  0  0  0  0  0
   -4.0890   22.5370  -31.6420 C   0  0  0  0  0  0  0  0  0  0  0  0
   -3.2910   22.5230  -30.6650 O   0  0  0  0  0  0  0  0  0  0  0  0
   -3.6530   22.1490  -32.9130 O   0  0  0  0  0  0  0  0  0  0  0  0
   -3.5300   20.7860  -33.2990 C   0  0  0  0  0  0  0  0  0  0  0  0
   -1.8390   20.4550  -33.7360 Cl  0  0  0  0  0  0  0  0  0  0  0  0
   -3.0660   24.6160  -31.1560 H   0  0  0  0  0  0  0  0  0  0  0  0
   -7.8945   24.9654  -30.4089 H   0  0  0  0  0  0  0  0  0  0  0  0
   -9.8387   22.9896  -31.1049 H   0  0  0  0  0  0  0  0  0  0  0  0
  -10.0898   20.6663  -32.0344 H   0  0  0  0  0  0  0  0  0  0  0  0
   -8.6680   18.8710  -33.6830 H   0  0  0  0  0  0  0  0  0  0  0  0
   -7.1360   18.0740  -31.2213 H   0  0  0  0  0  0  0  0  0  0  0  0
   -8.1276   17.0109  -32.2925 H   0  0  0  0  0  0  0  0  0  0  0  0
   -6.5319   18.8982  -34.6335 H   0  0  0  0  0  0  0  0  0  0  0  0
   -4.4834   18.2528  -35.9056 H   0  0  0  0  0  0  0  0  0  0  0  0
   -2.9867   16.4523  -35.0391 H   0  0  0  0  0  0  0  0  0  0  0  0
   -5.5851   15.9283  -31.6214 H   0  0  0  0  0  0  0  0  0  0  0  0
   -5.7606   20.3771  -32.4681 H   0  0  0  0  0  0  0  0  0  0  0  0
   -3.8276   20.1378  -32.4616 H   0  0  0  0  0  0  0  0  0  0  0  0
   -4.1817   20.5852  -34.1621 H   0  0  0  0  0  0  0  0  0  0  0  0
  1  2  1  0
  2  3  2  0
  2  4  1  0
  4  5  2  0
  5  6  1  0
  6  7  2  0
  7  8  1  0
  8  9  2  0
  9 10  1  0
 10 11  1  0
 11 12  1  0
 12 13  2  0
 13 14  1  0
 14 15  2  0
 15 16  1  0
 16 17  1  0
 16 18  2  0
  9 19  1  0
 19 20  2  0
 20 21  1  0
 21 22  1  0
 22 23  2  0
 22 24  1  0
 24 25  1  0
 25 26  1  0
 21  4  1  0
 20  6  1  0
 18 12  1  0
  1 27  1  0
  5 28  1  0
  7 29  1  0
  8 30  1  0
 10 31  1  0
 11 32  1  0
 11 33  1  0
 13 34  1  0
 14 35  1  0
 15 36  1  0
 18 37  1  0
 19 38  1  0
 25 39  1  0
 25 40  1  0
M  CHG  1   1  -1
M  END
>  <UniqueID>  (96) 
95

>  <SMILES>  (96) 
[NH-]C(=O)c1cc2ccc(NCc3cccc(F)c3)cc2n1C(=O)OCCl

>  <Energy>  (96) 
78.68586103774815

>  <Genealogy>  (96) 
[NH-]C(=O)c1cc2ccc(NCc3cccc(F)c3)cc2n1C(=O)OCCl (protonated)
[NH-]C(=O)c1cc2ccc(NCc3cccc(F)c3)cc2n1C(=O)OCCl (3D coordinates assigned)
[NH-]C(=O)c1cc2ccc(NCc3cccc(F)c3)cc2n1C(=O)OCCl (optimized conformer: 78.68586103774815 kcal/mol)

>  <smiles>  (96) 
NC(=O)c1cc2ccc(NCc3cccc(F)c3)cc2n1C(=O)OCCl

>  <score_type>  (96) 
oracle

>  <origin>  (96) 
adg

>  <m_score__min__energy>  (96) 
-11.1

>  <m_primary>  (96) 
energy

$$$$
