0:0
     RDKit          3D

 38 39  0  0  0  0  0  0  0  0999 V2000
   -9.1080   20.8360  -31.3630 C   0  0  0  0  0  0  0  0  0  0  0  0
   -9.4200   22.2090  -31.9490 C   0  0  0  0  0  0  0  0  0  0  0  0
   -8.2610   23.0390  -31.9310 O   0  0  0  0  0  0  0  0  0  0  0  0
   -7.2460   22.9270  -30.9730 C   0  0  0  0  0  0  0  0  0  0  0  0
   -7.5110   23.0620  -29.7470 O   0  0  0  0  0  0  0  0  0  0  0  0
   -5.8950   22.6680  -31.3920 N   0  0  0  0  0  0  0  0  0  0  0  0
   -4.7770   23.3650  -31.0450 C   0  0  0  0  0  0  0  0  0  0  0  0
   -4.7500   24.6430  -30.3060 C   0  0  0  0  0  0  0  0  0  0  0  0
   -5.3640   24.7660  -29.0230 N   0  0  0  0  0  0  0  0  0  0  0  0
   -4.2280   25.6570  -30.8400 O   0  0  0  0  0  0  0  0  0  0  0  0
   -3.6330   22.7400  -31.5340 C   0  0  0  0  0  0  0  0  0  0  0  0
   -4.0870   21.6330  -32.2130 C   0  0  0  0  0  0  0  0  0  0  0  0
   -3.3750   20.6430  -32.8830 C   0  0  0  0  0  0  0  0  0  0  0  0
   -4.0990   19.5900  -33.4640 C   0  0  0  0  0  0  0  0  0  0  0  0
   -5.5120   19.5440  -33.3640 C   0  0  0  0  0  0  0  0  0  0  0  0
   -6.2720   18.3910  -33.9590 C   0  0  0  0  0  0  0  0  0  0  0  0
   -6.8280   17.5260  -32.8750 C   0  0  0  0  0  0  0  0  0  0  0  0
   -7.9410   17.8110  -32.3560 O   0  0  0  0  0  0  0  0  0  0  0  0
   -6.1190   16.3910  -32.4670 O   0  0  0  0  0  0  0  0  0  0  0  0
   -4.8040   16.1060  -32.9270 C   0  0  0  0  0  0  0  0  0  0  0  0
   -6.2010   20.5570  -32.6610 C   0  0  0  0  0  0  0  0  0  0  0  0
   -5.4560   21.6090  -32.1110 C   0  0  0  0  0  0  0  0  0  0  0  0
   -9.1213   20.8945  -30.2646 H   0  0  0  0  0  0  0  0  0  0  0  0
   -9.8647   20.1126  -31.7008 H   0  0  0  0  0  0  0  0  0  0  0  0
   -8.1130   20.5106  -31.7008 H   0  0  0  0  0  0  0  0  0  0  0  0
   -9.7624   22.0892  -32.9875 H   0  0  0  0  0  0  0  0  0  0  0  0
  -10.2045   22.6833  -31.3411 H   0  0  0  0  0  0  0  0  0  0  0  0
   -5.9440   23.9940  -28.6280 H   0  0  0  0  0  0  0  0  0  0  0  0
   -5.3170   25.6690  -28.5020 H   0  0  0  0  0  0  0  0  0  0  0  0
   -2.5893   23.0624  -31.4050 H   0  0  0  0  0  0  0  0  0  0  0  0
   -2.2781   20.6842  -32.9552 H   0  0  0  0  0  0  0  0  0  0  0  0
   -3.5646   18.7931  -34.0019 H   0  0  0  0  0  0  0  0  0  0  0  0
   -7.0975   18.7785  -34.5741 H   0  0  0  0  0  0  0  0  0  0  0  0
   -5.5892   17.7934  -34.5808 H   0  0  0  0  0  0  0  0  0  0  0  0
   -4.1370   15.9615  -32.0643 H   0  0  0  0  0  0  0  0  0  0  0  0
   -4.8191   15.1903  -33.5363 H   0  0  0  0  0  0  0  0  0  0  0  0
   -4.4386   16.9458  -33.5363 H   0  0  0  0  0  0  0  0  0  0  0  0
   -7.2946   20.5211  -32.5481 H   0  0  0  0  0  0  0  0  0  0  0  0
  1  2  1  0
  2  3  1  0
  3  4  1  0
  4  5  2  0
  4  6  1  0
  6  7  1  0
  7  8  1  0
  8  9  1  0
  8 10  2  0
  7 11  2  0
 11 12  1  0
 12 13  2  0
 13 14  1  0
 14 15  2  0
 15 16  1  0
 16 17  1  0
 17 18  2  0
 17 19  1  0
 19 20  1  0
 15 21  1  0
 21 22  2  0
 22  6  1  0
 22 12  1  0
  1 23  1  0
  1 24  1  0
  1 25  1  0
  2 26  1  0
  2 27  1  0
  9 28  1  0
  9 29  1  0
 11 30  1  0
 13 31  1  0
 14 32  1  0
 16 33  1  0
 16 34  1  0
 20 35  1  0
 20 36  1  0
 20 37  1  0
 21 38  1  0
M  END
>  <UniqueID>  (1) 
1

>  <SMILES>  (1) 
CCOC(=O)n1c(C(N)=O)cc2ccc(CC(=O)OC)cc21

>  <Energy>  (1) 
68.75576733650344

>  <Genealogy>  (1) 
CCOC(=O)n1c(C(N)=O)cc2ccc(CC(=O)OC)cc21 (3D coordinates assigned)
CCOC(=O)n1c(C(N)=O)cc2ccc(CC(=O)OC)cc21 (optimized conformer: 68.75576733650344 kcal/mol)

>  <smiles>  (1) 
CCOC(=O)n1c(C(N)=O)cc2ccc(CC(=O)OC)cc21

>  <score_type>  (1) 
oracle

>  <origin>  (1) 
adg

>  <m_score__min__energy>  (1) 
-7.5599999999999996

>  <m_primary>  (1) 
energy

$$$$
1:0
     RDKit          3D

 54 56  0  0  0  0  0  0  0  0999 V2000
   -4.5670   13.2970  -32.9180 C   0  0  0  0  0  0  0  0  0  0  0  0
   -5.2240   14.0550  -34.0780 C   0  0  0  0  0  0  0  0  0  0  0  0
   -6.4570   13.3070  -34.6000 C   0  0  0  0  0  0  0  0  0  0  0  0
   -5.5770   15.4750  -33.6720 C   0  0  0  0  0  0  0  0  0  0  0  0
   -4.5900   16.3190  -33.1350 C   0  0  0  0  0  0  0  0  0  0  0  0
   -4.9030   17.6280  -32.7580 C   0  0  0  0  0  0  0  0  0  0  0  0
   -6.2080   18.1230  -32.9110 C   0  0  0  0  0  0  0  0  0  0  0  0
   -6.5400   19.5160  -32.5160 C   0  0  0  0  0  0  0  0  0  0  0  0
   -7.8680   20.0020  -32.6370 C   0  0  0  0  0  0  0  0  0  0  0  0
   -8.1920   21.3140  -32.2540 C   0  0  0  0  0  0  0  0  0  0  0  0
   -7.1720   22.1230  -31.7650 C   0  0  0  0  0  0  0  0  0  0  0  0
   -7.2150   23.4170  -31.2970 C   0  0  0  0  0  0  0  0  0  0  0  0
   -5.9070   23.7170  -30.9260 C   0  0  0  0  0  0  0  0  0  0  0  0
   -5.4870   25.0410  -30.4240 C   0  0  0  0  0  0  0  0  0  0  0  0
   -4.1570   25.5210  -30.6250 N   0  0  0  0  0  0  0  0  0  0  0  0
   -6.3320   25.7830  -29.8570 O   0  0  0  0  0  0  0  0  0  0  0  0
   -5.0890   22.6490  -31.1420 N   0  0  0  0  0  0  0  0  0  0  0  0
   -3.6990   22.5240  -30.8020 C   0  0  0  0  0  0  0  0  0  0  0  0
   -2.8220   22.9740  -31.5860 O   0  0  0  0  0  0  0  0  0  0  0  0
   -3.3390   21.9060  -29.5950 O   0  0  0  0  0  0  0  0  0  0  0  0
   -2.8880   22.5620  -28.4020 C   0  0  0  0  0  0  0  0  0  0  0  0
   -2.1130   21.5810  -27.5030 C   0  0  0  0  0  0  0  0  0  0  0  0
   -4.0760   23.1770  -27.6400 C   0  0  0  0  0  0  0  0  0  0  0  0
   -1.9400   23.6890  -28.8390 C   0  0  0  0  0  0  0  0  0  0  0  0
   -5.8780   21.6820  -31.6600 C   0  0  0  0  0  0  0  0  0  0  0  0
   -5.5320   20.3710  -32.0090 C   0  0  0  0  0  0  0  0  0  0  0  0
   -7.1960   17.2790  -33.4490 C   0  0  0  0  0  0  0  0  0  0  0  0
   -6.8840   15.9700  -33.8240 C   0  0  0  0  0  0  0  0  0  0  0  0
   -4.9237   13.7086  -31.9623 H   0  0  0  0  0  0  0  0  0  0  0  0
   -4.8317   12.2311  -32.9798 H   0  0  0  0  0  0  0  0  0  0  0  0
   -3.4743   13.4076  -32.9798 H   0  0  0  0  0  0  0  0  0  0  0  0
   -4.4938   14.1113  -34.8988 H   0  0  0  0  0  0  0  0  0  0  0  0
   -7.0536   12.9451  -33.7496 H   0  0  0  0  0  0  0  0  0  0  0  0
   -7.0667   13.9876  -35.2124 H   0  0  0  0  0  0  0  0  0  0  0  0
   -6.1350   12.4518  -35.2124 H   0  0  0  0  0  0  0  0  0  0  0  0
   -3.5626   15.9464  -33.0103 H   0  0  0  0  0  0  0  0  0  0  0  0
   -4.1199   18.2762  -32.3377 H   0  0  0  0  0  0  0  0  0  0  0  0
   -8.6533   19.3430  -33.0357 H   0  0  0  0  0  0  0  0  0  0  0  0
   -9.2221   21.6904  -32.3384 H   0  0  0  0  0  0  0  0  0  0  0  0
   -8.0949   24.0737  -31.2304 H   0  0  0  0  0  0  0  0  0  0  0  0
   -3.8670   26.4410  -30.2250 H   0  0  0  0  0  0  0  0  0  0  0  0
   -3.4850   25.0100  -31.2400 H   0  0  0  0  0  0  0  0  0  0  0  0
   -2.3038   21.8225  -26.4469 H   0  0  0  0  0  0  0  0  0  0  0  0
   -2.4455   20.5531  -27.7099 H   0  0  0  0  0  0  0  0  0  0  0  0
   -1.0360   21.6666  -27.7099 H   0  0  0  0  0  0  0  0  0  0  0  0
   -3.9031   23.0875  -26.5574 H   0  0  0  0  0  0  0  0  0  0  0  0
   -4.1740   24.2391  -27.9091 H   0  0  0  0  0  0  0  0  0  0  0  0
   -4.9998   22.6439  -27.9091 H   0  0  0  0  0  0  0  0  0  0  0  0
   -1.5238   24.1838  -27.9491 H   0  0  0  0  0  0  0  0  0  0  0  0
   -1.1214   23.2670  -29.4404 H   0  0  0  0  0  0  0  0  0  0  0  0
   -2.4960   24.4233  -29.4404 H   0  0  0  0  0  0  0  0  0  0  0  0
   -4.4986   20.0128  -31.8917 H   0  0  0  0  0  0  0  0  0  0  0  0
   -8.2228   17.6527  -33.5755 H   0  0  0  0  0  0  0  0  0  0  0  0
   -7.6677   15.3210  -34.2418 H   0  0  0  0  0  0  0  0  0  0  0  0
  1  2  1  0
  2  3  1  0
  2  4  1  0
  4  5  2  0
  5  6  1  0
  6  7  2  0
  7  8  1  0
  8  9  2  0
  9 10  1  0
 10 11  2  0
 11 12  1  0
 12 13  2  0
 13 14  1  0
 14 15  1  0
 14 16  2  0
 13 17  1  0
 17 18  1  0
 18 19  2  0
 18 20  1  0
 20 21  1  0
 21 22  1  0
 21 23  1  0
 21 24  1  0
 17 25  1  0
 25 26  2  0
  7 27  1  0
 27 28  2  0
 28  4  1  0
 26  8  1  0
 25 11  1  0
  1 29  1  0
  1 30  1  0
  1 31  1  0
  2 32  1  0
  3 33  1  0
  3 34  1  0
  3 35  1  0
  5 36  1  0
  6 37  1  0
  9 38  1  0
 10 39  1  0
 12 40  1  0
 15 41  1  0
 15 42  1  0
 22 43  1  0
 22 44  1  0
 22 45  1  0
 23 46  1  0
 23 47  1  0
 23 48  1  0
 24 49  1  0
 24 50  1  0
 24 51  1  0
 26 52  1  0
 27 53  1  0
 28 54  1  0
M  END
>  <UniqueID>  (2) 
2

>  <SMILES>  (2) 
CC(C)c1ccc(-c2ccc3cc(C(N)=O)n(C(=O)OC(C)(C)C)c3c2)cc1

>  <Energy>  (2) 
91.37002625619161

>  <Genealogy>  (2) 
CC(C)c1ccc(-c2ccc3cc(C(N)=O)n(C(=O)OC(C)(C)C)c3c2)cc1 (3D coordinates assigned)
CC(C)c1ccc(-c2ccc3cc(C(N)=O)n(C(=O)OC(C)(C)C)c3c2)cc1 (optimized conformer: 91.37002625619161 kcal/mol)

>  <smiles>  (2) 
CC(C)c1ccc(-c2ccc3cc(C(N)=O)n(C(=O)OC(C)(C)C)c3c2)cc1

>  <score_type>  (2) 
oracle

>  <origin>  (2) 
adg

>  <m_score__min__energy>  (2) 
-10.27

>  <m_primary>  (2) 
energy

$$$$
2:0
     RDKit          3D

 26 27  0  0  0  0  0  0  0  0999 V2000
   -7.7820   18.6740  -32.7160 C   0  0  0  0  0  0  0  0  0  0  0  0
   -7.6900   20.0410  -32.1050 C   0  0  0  0  0  0  0  0  0  0  0  0
   -8.8300   20.6240  -31.4980 C   0  0  0  0  0  0  0  0  0  0  0  0
   -8.7650   21.9150  -30.9470 C   0  0  0  0  0  0  0  0  0  0  0  0
   -7.5570   22.6010  -31.0350 C   0  0  0  0  0  0  0  0  0  0  0  0
   -7.2120   23.8520  -30.5750 C   0  0  0  0  0  0  0  0  0  0  0  0
   -5.8780   24.0250  -30.9410 C   0  0  0  0  0  0  0  0  0  0  0  0
   -5.1300   25.2810  -30.7220 C   0  0  0  0  0  0  0  0  0  0  0  0
   -3.7270   25.2640  -30.4700 N   0  0  0  0  0  0  0  0  0  0  0  0
   -5.7290   26.3870  -30.8010 O   0  0  0  0  0  0  0  0  0  0  0  0
   -5.4140   22.9210  -31.5920 N   0  0  0  0  0  0  0  0  0  0  0  0
   -4.0800   22.6660  -32.0580 C   0  0  0  0  0  0  0  0  0  0  0  0
   -3.8480   22.3010  -33.4180 N   0  0  0  0  0  0  0  0  0  0  0  0
   -3.1030   22.7980  -31.2740 O   0  0  0  0  0  0  0  0  0  0  0  0
   -6.4550   22.0610  -31.6450 C   0  0  0  0  0  0  0  0  0  0  0  0
   -6.4860   20.7720  -32.1900 C   0  0  0  0  0  0  0  0  0  0  0  0
   -7.8328   17.9184  -31.9182 H   0  0  0  0  0  0  0  0  0  0  0  0
   -8.6864   18.6109  -33.3389 H   0  0  0  0  0  0  0  0  0  0  0  0
   -6.8942   18.4903  -33.3389 H   0  0  0  0  0  0  0  0  0  0  0  0
   -9.7741   20.0610  -31.4578 H   0  0  0  0  0  0  0  0  0  0  0  0
   -9.6412   22.3693  -30.4614 H   0  0  0  0  0  0  0  0  0  0  0  0
   -7.8528   24.5637  -30.0338 H   0  0  0  0  0  0  0  0  0  0  0  0
   -3.0540   24.9470  -31.2030 H   0  0  0  0  0  0  0  0  0  0  0  0
   -4.6370   22.2620  -34.1000 H   0  0  0  0  0  0  0  0  0  0  0  0
   -2.8780   22.1040  -33.7530 H   0  0  0  0  0  0  0  0  0  0  0  0
   -5.5960   20.3406  -32.6714 H   0  0  0  0  0  0  0  0  0  0  0  0
  1  2  1  0
  2  3  2  0
  3  4  1  0
  4  5  2  0
  5  6  1  0
  6  7  2  0
  7  8  1  0
  8  9  1  0
  8 10  2  0
  7 11  1  0
 11 12  1  0
 12 13  1  0
 12 14  2  0
 11 15  1  0
 15 16  2  0
 16  2  1  0
 15  5  1  0
  1 17  1  0
  1 18  1  0
  1 19  1  0
  3 20  1  0
  4 21  1  0
  6 22  1  0
  9 23  1  0
 13 24  1  0
 13 25  1  0
 16 26  1  0
M  CHG  1   9  -1
M  END
>  <UniqueID>  (3) 
3

>  <SMILES>  (3) 
Cc1ccc2cc(C([NH-])=O)n(C(N)=O)c2c1

>  <Energy>  (3) 
64.34700706228831

>  <Genealogy>  (3) 
Cc1ccc2cc(C([NH-])=O)n(C(N)=O)c2c1 (protonated)
Cc1ccc2cc(C([NH-])=O)n(C(N)=O)c2c1 (3D coordinates assigned)
Cc1ccc2cc(C([NH-])=O)n(C(N)=O)c2c1 (optimized conformer: 64.34700706228831 kcal/mol)

>  <smiles>  (3) 
Cc1ccc2cc(C(N)=O)n(C(N)=O)c2c1

>  <score_type>  (3) 
oracle

>  <origin>  (3) 
adg

>  <m_score__min__energy>  (3) 
-9.5600000000000005

>  <m_primary>  (3) 
energy

$$$$
3:0
     RDKit          3D

 52 53  0  0  0  0  0  0  0  0999 V2000
    4.5540   21.9730  -35.4860 C   0  0  0  0  0  0  0  0  0  0  0  0
    3.5290   20.9110  -35.0890 C   0  0  0  0  0  0  0  0  0  0  0  0
    2.0820   21.3970  -35.2940 C   0  0  2  0  0  0  0  0  0  0  0  0
    1.1280   20.2040  -35.5190 C   0  0  0  0  0  0  0  0  0  0  0  0
   -0.1420   20.3820  -34.8060 C   0  0  0  0  0  0  0  0  0  0  0  0
   -1.1960   20.5520  -34.2460 C   0  0  0  0  0  0  0  0  0  0  0  0
   -2.4370   20.7780  -33.5580 C   0  0  0  0  0  0  0  0  0  0  0  0
   -3.5440   19.9310  -33.7960 C   0  0  0  0  0  0  0  0  0  0  0  0
   -4.7550   20.1370  -33.1120 C   0  0  0  0  0  0  0  0  0  0  0  0
   -4.8240   21.1960  -32.2110 C   0  0  0  0  0  0  0  0  0  0  0  0
   -5.8570   21.5960  -31.3950 C   0  0  0  0  0  0  0  0  0  0  0  0
   -5.3680   22.6970  -30.6960 C   0  0  0  0  0  0  0  0  0  0  0  0
   -6.1830   23.4810  -29.7480 C   0  0  0  0  0  0  0  0  0  0  0  0
   -5.6620   24.6530  -29.1190 N   0  0  0  0  0  0  0  0  0  0  0  0
   -7.3770   23.1430  -29.5310 O   0  0  0  0  0  0  0  0  0  0  0  0
   -4.0800   22.9630  -31.0520 N   0  0  0  0  0  0  0  0  0  0  0  0
   -3.1970   23.9360  -30.4650 C   0  0  0  0  0  0  0  0  0  0  0  0
   -2.1450   23.5710  -29.8780 O   0  0  0  0  0  0  0  0  0  0  0  0
   -3.5020   25.2890  -30.5320 O   0  0  0  0  0  0  0  0  0  0  0  0
   -3.7610   22.0360  -31.9840 C   0  0  0  0  0  0  0  0  0  0  0  0
   -2.5370   21.8410  -32.6380 C   0  0  0  0  0  0  0  0  0  0  0  0
    2.0050   22.3800  -36.3820 N   0  0  0  0  0  0  0  0  0  0  0  0
    1.1430   23.5210  -36.4200 C   0  0  0  0  0  0  0  0  0  0  0  0
    0.1110   23.5250  -35.6980 O   0  0  0  0  0  0  0  0  0  0  0  0
    1.4420   24.6020  -37.2610 O   0  0  0  0  0  0  0  0  0  0  0  0
    1.0560   25.9680  -37.0590 C   0  0  0  0  0  0  0  0  0  0  0  0
   -0.4770   26.0920  -36.9660 C   0  0  0  0  0  0  0  0  0  0  0  0
    1.6070   26.8580  -38.1890 C   0  0  0  0  0  0  0  0  0  0  0  0
    1.6720   26.4190  -35.7260 C   0  0  0  0  0  0  0  0  0  0  0  0
    4.9870   22.4216  -34.5797 H   0  0  0  0  0  0  0  0  0  0  0  0
    5.3526   21.5071  -36.0820 H   0  0  0  0  0  0  0  0  0  0  0  0
    4.0601   22.7546  -36.0820 H   0  0  0  0  0  0  0  0  0  0  0  0
    3.6921   20.0134  -35.7036 H   0  0  0  0  0  0  0  0  0  0  0  0
    3.6646   20.6925  -34.0195 H   0  0  0  0  0  0  0  0  0  0  0  0
    1.7541   21.9070  -34.3762 H   0  0  0  0  0  0  0  0  0  0  0  0
    0.9222   20.1104  -36.5955 H   0  0  0  0  0  0  0  0  0  0  0  0
    1.6151   19.2976  -35.1302 H   0  0  0  0  0  0  0  0  0  0  0  0
   -3.4573   19.1071  -34.5197 H   0  0  0  0  0  0  0  0  0  0  0  0
   -5.6215   19.4814  -33.2836 H   0  0  0  0  0  0  0  0  0  0  0  0
   -6.8559   21.1429  -31.3123 H   0  0  0  0  0  0  0  0  0  0  0  0
   -4.7420   25.0540  -29.4050 H   0  0  0  0  0  0  0  0  0  0  0  0
   -6.2380   25.1720  -28.4190 H   0  0  0  0  0  0  0  0  0  0  0  0
   -1.6784   22.4991  -32.4389 H   0  0  0  0  0  0  0  0  0  0  0  0
   -0.7794   26.1165  -35.9087 H   0  0  0  0  0  0  0  0  0  0  0  0
   -0.8006   27.0193  -37.4615 H   0  0  0  0  0  0  0  0  0  0  0  0
   -0.9454   25.2288  -37.4615 H   0  0  0  0  0  0  0  0  0  0  0  0
    2.1386   27.7167  -37.7532 H   0  0  0  0  0  0  0  0  0  0  0  0
    2.3016   26.2736  -38.8104 H   0  0  0  0  0  0  0  0  0  0  0  0
    0.7743   27.2192  -38.8104 H   0  0  0  0  0  0  0  0  0  0  0  0
    1.0929   25.9950  -34.8924 H   0  0  0  0  0  0  0  0  0  0  0  0
    2.7127   26.0678  -35.6655 H   0  0  0  0  0  0  0  0  0  0  0  0
    1.6515   27.5171  -35.6655 H   0  0  0  0  0  0  0  0  0  0  0  0
  1  2  1  0
  2  3  1  0
  3  4  1  0
  4  5  1  0
  5  6  3  0
  6  7  1  0
  7  8  2  0
  8  9  1  0
  9 10  2  0
 10 11  1  0
 11 12  2  0
 12 13  1  0
 13 14  1  0
 13 15  2  0
 12 16  1  0
 16 17  1  0
 17 18  2  0
 17 19  1  0
 16 20  1  0
 20 21  2  0
  3 22  1  0
 22 23  1  0
 23 24  2  0
 23 25  1  0
 25 26  1  0
 26 27  1  0
 26 28  1  0
 26 29  1  0
 21  7  1  0
 20 10  1  0
  1 30  1  0
  1 31  1  0
  1 32  1  0
  2 33  1  0
  2 34  1  0
  3 35  1  1
  4 36  1  0
  4 37  1  0
  8 38  1  0
  9 39  1  0
 11 40  1  0
 14 41  1  0
 14 42  1  0
 21 43  1  0
 27 44  1  0
 27 45  1  0
 27 46  1  0
 28 47  1  0
 28 48  1  0
 28 49  1  0
 29 50  1  0
 29 51  1  0
 29 52  1  0
M  CHG  2  19  -1  22  -1
M  END
>  <UniqueID>  (4) 
4

>  <SMILES>  (4) 
CC[C@H](CC#Cc1ccc2cc(C(N)=O)n(C(=O)[O-])c2c1)[N-]C(=O)OC(C)(C)C

>  <Energy>  (4) 
75.0945336826069

>  <Genealogy>  (4) 
CCC(CC#Cc1ccc2cc(C(N)=O)n(C(=O)[O-])c2c1)[N-]C(=O)OC(C)(C)C (protonated)
CC[C@H](CC#Cc1ccc2cc(C(N)=O)n(C(=O)[O-])c2c1)[N-]C(=O)OC(C)(C)C (chirality)
CC[C@H](CC#Cc1ccc2cc(C(N)=O)n(C(=O)[O-])c2c1)[N-]C(=O)OC(C)(C)C (3D coordinates assigned)
CC[C@H](CC#Cc1ccc2cc(C(N)=O)n(C(=O)[O-])c2c1)[N-]C(=O)OC(C)(C)C (optimized conformer: 75.0945336826069 kcal/mol)

>  <smiles>  (4) 
CCC(CC#Cc1ccc2cc(C(N)=O)n(C(=O)O)c2c1)NC(=O)OC(C)(C)C

>  <score_type>  (4) 
oracle

>  <origin>  (4) 
adg

>  <m_score__min__energy>  (4) 
-10.33

>  <m_primary>  (4) 
energy

$$$$
4:0
     RDKit          3D

 31 32  0  0  0  0  0  0  0  0999 V2000
   -8.6200   21.3350  -31.9800 C   0  0  0  0  0  0  0  0  0  0  0  0
   -7.5860   20.4730  -32.7140 C   0  0  0  0  0  0  0  0  0  0  0  0
   -7.9300   18.9840  -32.6030 C   0  0  0  0  0  0  0  0  0  0  0  0
   -6.1840   20.7490  -32.2040 C   0  0  0  0  0  0  0  0  0  0  0  0
   -5.1430   19.7970  -32.3790 C   0  0  0  0  0  0  0  0  0  0  0  0
   -3.8430   20.0590  -31.9180 C   0  0  0  0  0  0  0  0  0  0  0  0
   -3.6090   21.2720  -31.2800 C   0  0  0  0  0  0  0  0  0  0  0  0
   -2.4450   21.7890  -30.7610 C   0  0  0  0  0  0  0  0  0  0  0  0
   -2.7900   23.0410  -30.2530 C   0  0  0  0  0  0  0  0  0  0  0  0
   -1.8460   23.9070  -29.5180 C   0  0  0  0  0  0  0  0  0  0  0  0
   -2.1110   25.2970  -29.3440 N   0  0  0  0  0  0  0  0  0  0  0  0
   -0.8170   23.4040  -28.9920 O   0  0  0  0  0  0  0  0  0  0  0  0
   -4.1140   23.2920  -30.4610 N   0  0  0  0  0  0  0  0  0  0  0  0
   -4.8370   24.5000  -30.1730 C   0  0  0  0  0  0  0  0  0  0  0  0
   -4.4960   25.7150  -30.8380 N   0  0  0  0  0  0  0  0  0  0  0  0
   -5.7950   24.4850  -29.3560 O   0  0  0  0  0  0  0  0  0  0  0  0
   -4.6020   22.1980  -31.0870 C   0  0  0  0  0  0  0  0  0  0  0  0
   -5.9020   21.9720  -31.5520 C   0  0  0  0  0  0  0  0  0  0  0  0
   -8.4859   21.2232  -30.8939 H   0  0  0  0  0  0  0  0  0  0  0  0
   -8.4828   22.3900  -32.2597 H   0  0  0  0  0  0  0  0  0  0  0  0
   -9.6330   21.0102  -32.2597 H   0  0  0  0  0  0  0  0  0  0  0  0
   -7.6162   20.7463  -33.7791 H   0  0  0  0  0  0  0  0  0  0  0  0
   -7.9954   18.7009  -31.5421 H   0  0  0  0  0  0  0  0  0  0  0  0
   -8.8959   18.7932  -33.0936 H   0  0  0  0  0  0  0  0  0  0  0  0
   -7.1457   18.3889  -33.0936 H   0  0  0  0  0  0  0  0  0  0  0  0
   -5.3587   18.8428  -32.8820 H   0  0  0  0  0  0  0  0  0  0  0  0
   -3.0341   19.3267  -32.0573 H   0  0  0  0  0  0  0  0  0  0  0  0
   -1.4523   21.3153  -30.7491 H   0  0  0  0  0  0  0  0  0  0  0  0
   -3.0900   25.6580  -29.3230 H   0  0  0  0  0  0  0  0  0  0  0  0
   -3.5060   26.0450  -30.8780 H   0  0  0  0  0  0  0  0  0  0  0  0
   -6.6878   22.7291  -31.4135 H   0  0  0  0  0  0  0  0  0  0  0  0
  1  2  1  0
  2  3  1  0
  2  4  1  0
  4  5  2  0
  5  6  1  0
  6  7  2  0
  7  8  1  0
  8  9  2  0
  9 10  1  0
 10 11  1  0
 10 12  2  0
  9 13  1  0
 13 14  1  0
 14 15  1  0
 14 16  2  0
 13 17  1  0
 17 18  2  0
 18  4  1  0
 17  7  1  0
  1 19  1  0
  1 20  1  0
  1 21  1  0
  2 22  1  0
  3 23  1  0
  3 24  1  0
  3 25  1  0
  5 26  1  0
  6 27  1  0
  8 28  1  0
 11 29  1  0
 15 30  1  0
 18 31  1  0
M  CHG  2  11  -1  15  -1
M  END
>  <UniqueID>  (5) 
5

>  <SMILES>  (5) 
CC(C)c1ccc2cc(C([NH-])=O)n(C([NH-])=O)c2c1

>  <Energy>  (5) 
67.152369748115

>  <Genealogy>  (5) 
CC(C)c1ccc2cc(C([NH-])=O)n(C([NH-])=O)c2c1 (protonated)
CC(C)c1ccc2cc(C([NH-])=O)n(C([NH-])=O)c2c1 (3D coordinates assigned)
CC(C)c1ccc2cc(C([NH-])=O)n(C([NH-])=O)c2c1 (optimized conformer: 67.152369748115 kcal/mol)

>  <smiles>  (5) 
CC(C)c1ccc2cc(C(N)=O)n(C(N)=O)c2c1

>  <score_type>  (5) 
oracle

>  <origin>  (5) 
adg

>  <m_score__min__energy>  (5) 
-10.300000000000001

>  <m_primary>  (5) 
energy

$$$$
5:0
     RDKit          3D

 75 77  0  0  0  0  0  0  0  0999 V2000
   -0.8710   22.6190  -28.9070 C   0  0  0  0  0  0  0  0  0  0  0  0
   -1.9130   21.4900  -28.9430 C   0  0  0  0  0  0  0  0  0  0  0  0
   -2.0360   20.8820  -27.5320 C   0  0  0  0  0  0  0  0  0  0  0  0
   -1.4590   20.4230  -29.9580 C   0  0  0  0  0  0  0  0  0  0  0  0
   -3.1570   22.0760  -29.3520 O   0  0  0  0  0  0  0  0  0  0  0  0
   -3.4460   22.6240  -30.6110 C   0  0  0  0  0  0  0  0  0  0  0  0
   -2.5240   23.0540  -31.3560 O   0  0  0  0  0  0  0  0  0  0  0  0
   -4.8100   22.7110  -31.0480 N   0  0  0  0  0  0  0  0  0  0  0  0
   -5.6310   23.8000  -31.0060 C   0  0  0  0  0  0  0  0  0  0  0  0
   -5.3240   25.0900  -30.3560 C   0  0  0  0  0  0  0  0  0  0  0  0
   -4.0220   25.6570  -30.4860 N   0  0  0  0  0  0  0  0  0  0  0  0
   -6.2090   25.7190  -29.7170 O   0  0  0  0  0  0  0  0  0  0  0  0
   -6.8600   23.5070  -31.5930 C   0  0  0  0  0  0  0  0  0  0  0  0
   -6.7680   22.1950  -31.9960 C   0  0  0  0  0  0  0  0  0  0  0  0
   -7.6990   21.3920  -32.6450 C   0  0  0  0  0  0  0  0  0  0  0  0
   -7.3270   20.0760  -32.9670 C   0  0  0  0  0  0  0  0  0  0  0  0
   -6.0310   19.5850  -32.6480 C   0  0  0  0  0  0  0  0  0  0  0  0
   -5.6500   18.2340  -33.0000 N   0  0  0  0  0  0  0  0  0  0  0  0
   -6.5950   17.2070  -33.4110 C   0  0  0  0  0  0  0  0  0  0  0  0
   -5.7950   15.9140  -33.4840 C   0  0  0  0  0  0  0  0  0  0  0  0
   -4.3250   16.3410  -33.5920 C   0  0  1  0  0  0  0  0  0  0  0  0
   -3.8440   16.3520  -35.0550 C   0  0  0  0  0  0  0  0  0  0  0  0
   -2.7090   15.5180  -35.1820 O   0  0  0  0  0  0  0  0  0  0  0  0
   -1.5550   16.1900  -34.7130 C   0  0  0  0  0  0  0  0  0  0  0  0
   -1.6870   17.5910  -34.8230 O   0  0  0  0  0  0  0  0  0  0  0  0
   -0.5520   18.4330  -33.8000 Si  0  0  0  0  0  4  0  0  0  0  0  0
    1.2310   18.0930  -34.2790 C   0  0  0  0  0  0  0  0  0  0  0  0
   -0.7920   17.8920  -32.0220 C   0  0  0  0  0  0  0  0  0  0  0  0
   -0.9240   20.2900  -33.9680 C   0  0  0  0  0  0  0  0  0  0  0  0
   -0.1860   21.0540  -32.8560 C   0  0  0  0  0  0  0  0  0  0  0  0
   -0.4590   20.8090  -35.3410 C   0  0  0  0  0  0  0  0  0  0  0  0
   -2.4400   20.5140  -33.8220 C   0  0  0  0  0  0  0  0  0  0  0  0
   -4.2790   17.7440  -32.9770 C   0  0  0  0  0  0  0  0  0  0  0  0
   -5.1150   20.4400  -31.9870 C   0  0  0  0  0  0  0  0  0  0  0  0
   -5.5230   21.7380  -31.6590 C   0  0  0  0  0  0  0  0  0  0  0  0
   -0.6389   22.8705  -27.8616 H   0  0  0  0  0  0  0  0  0  0  0  0
    0.0459   22.2882  -29.4168 H   0  0  0  0  0  0  0  0  0  0  0  0
   -1.2741   23.5064  -29.4168 H   0  0  0  0  0  0  0  0  0  0  0  0
   -1.8770   21.6679  -26.7790 H   0  0  0  0  0  0  0  0  0  0  0  0
   -3.0397   20.4502  -27.4050 H   0  0  0  0  0  0  0  0  0  0  0  0
   -1.2791   20.0940  -27.4050 H   0  0  0  0  0  0  0  0  0  0  0  0
   -1.0835   19.5406  -29.4191 H   0  0  0  0  0  0  0  0  0  0  0  0
   -2.3111   20.1317  -30.5897 H   0  0  0  0  0  0  0  0  0  0  0  0
   -0.6583   20.8350  -30.5897 H   0  0  0  0  0  0  0  0  0  0  0  0
   -3.2270   25.0950  -30.8650 H   0  0  0  0  0  0  0  0  0  0  0  0
   -7.7211   24.1815  -31.7095 H   0  0  0  0  0  0  0  0  0  0  0  0
   -8.6980   21.7759  -32.8991 H   0  0  0  0  0  0  0  0  0  0  0  0
   -8.0478   19.4166  -33.4726 H   0  0  0  0  0  0  0  0  0  0  0  0
   -7.4057   17.1149  -32.6733 H   0  0  0  0  0  0  0  0  0  0  0  0
   -7.0624   17.4495  -34.3768 H   0  0  0  0  0  0  0  0  0  0  0  0
   -5.9541   15.3128  -32.5767 H   0  0  0  0  0  0  0  0  0  0  0  0
   -6.1018   15.2944  -34.3396 H   0  0  0  0  0  0  0  0  0  0  0  0
   -3.6555   15.6402  -33.0718 H   0  0  0  0  0  0  0  0  0  0  0  0
   -4.6473   15.9807  -35.7083 H   0  0  0  0  0  0  0  0  0  0  0  0
   -3.5802   17.3790  -35.3476 H   0  0  0  0  0  0  0  0  0  0  0  0
   -1.3947   15.9287  -33.6566 H   0  0  0  0  0  0  0  0  0  0  0  0
   -0.7003   15.8761  -35.3302 H   0  0  0  0  0  0  0  0  0  0  0  0
    1.8392   17.9770  -33.3698 H   0  0  0  0  0  0  0  0  0  0  0  0
    1.2811   17.1691  -34.8739 H   0  0  0  0  0  0  0  0  0  0  0  0
    1.6175   18.9336  -34.8739 H   0  0  0  0  0  0  0  0  0  0  0  0
   -0.4399   18.6856  -31.3466 H   0  0  0  0  0  0  0  0  0  0  0  0
   -1.8595   17.7006  -31.8379 H   0  0  0  0  0  0  0  0  0  0  0  0
   -0.2175   16.9722  -31.8379 H   0  0  0  0  0  0  0  0  0  0  0  0
   -0.5311   20.6968  -31.8745 H   0  0  0  0  0  0  0  0  0  0  0  0
    0.8965   20.8819  -32.9490 H   0  0  0  0  0  0  0  0  0  0  0  0
   -0.3955   22.1298  -32.9490 H   0  0  0  0  0  0  0  0  0  0  0  0
    0.2689   21.6214  -35.1986 H   0  0  0  0  0  0  0  0  0  0  0  0
    0.0121   19.9889  -35.9026 H   0  0  0  0  0  0  0  0  0  0  0  0
   -1.3258   21.1875  -35.9026 H   0  0  0  0  0  0  0  0  0  0  0  0
   -2.7038   20.5530  -32.7548 H   0  0  0  0  0  0  0  0  0  0  0  0
   -2.7185   21.4630  -34.3034 H   0  0  0  0  0  0  0  0  0  0  0  0
   -2.9810   19.6860  -34.3034 H   0  0  0  0  0  0  0  0  0  0  0  0
   -3.9067   17.6967  -31.9430 H   0  0  0  0  0  0  0  0  0  0  0  0
   -3.6029   18.4082  -33.5354 H   0  0  0  0  0  0  0  0  0  0  0  0
   -4.1026   20.0904  -31.7364 H   0  0  0  0  0  0  0  0  0  0  0  0
  1  2  1  0
  2  3  1  0
  2  4  1  0
  2  5  1  0
  5  6  1  0
  6  7  2  0
  6  8  1  0
  8  9  1  0
  9 10  1  0
 10 11  1  0
 10 12  2  0
  9 13  2  0
 13 14  1  0
 14 15  2  0
 15 16  1  0
 16 17  2  0
 17 18  1  0
 18 19  1  0
 19 20  1  0
 20 21  1  0
 21 22  1  0
 22 23  1  0
 23 24  1  0
 24 25  1  0
 25 26  1  0
 26 27  1  0
 26 28  1  0
 26 29  1  0
 29 30  1  0
 29 31  1  0
 29 32  1  0
 21 33  1  0
 17 34  1  0
 34 35  2  0
 35  8  1  0
 35 14  1  0
 33 18  1  0
  1 36  1  0
  1 37  1  0
  1 38  1  0
  3 39  1  0
  3 40  1  0
  3 41  1  0
  4 42  1  0
  4 43  1  0
  4 44  1  0
 11 45  1  0
 13 46  1  0
 15 47  1  0
 16 48  1  0
 19 49  1  0
 19 50  1  0
 20 51  1  0
 20 52  1  0
 21 53  1  1
 22 54  1  0
 22 55  1  0
 24 56  1  0
 24 57  1  0
 27 58  1  0
 27 59  1  0
 27 60  1  0
 28 61  1  0
 28 62  1  0
 28 63  1  0
 30 64  1  0
 30 65  1  0
 30 66  1  0
 31 67  1  0
 31 68  1  0
 31 69  1  0
 32 70  1  0
 32 71  1  0
 32 72  1  0
 33 73  1  0
 33 74  1  0
 34 75  1  0
M  CHG  1  11  -1
M  END
>  <UniqueID>  (6) 
6

>  <SMILES>  (6) 
CC(C)(C)OC(=O)n1c(C([NH-])=O)cc2ccc(N3CC[C@@H](COCO[Si](C)(C)C(C)(C)C)C3)cc21

>  <Energy>  (6) 
95.36358064411294

>  <Genealogy>  (6) 
CC(C)(C)OC(=O)n1c(C([NH-])=O)cc2ccc(N3CCC(COCO[Si](C)(C)C(C)(C)C)C3)cc21 (protonated)
CC(C)(C)OC(=O)n1c(C([NH-])=O)cc2ccc(N3CC[C@@H](COCO[Si](C)(C)C(C)(C)C)C3)cc21 (chirality)
CC(C)(C)OC(=O)n1c(C([NH-])=O)cc2ccc(N3CC[C@@H](COCO[Si](C)(C)C(C)(C)C)C3)cc21 (3D coordinates assigned)
CC(C)(C)OC(=O)n1c(C([NH-])=O)cc2ccc(N3CC[C@@H](COCO[Si](C)(C)C(C)(C)C)C3)cc21 (nonaromatic ring conformer: 95.36358064411294 kcal/mol)

>  <smiles>  (6) 
CC(C)(C)OC(=O)n1c(C(N)=O)cc2ccc(N3CCC(COCO[Si](C)(C)C(C)(C)C)C3)cc21

>  <score_type>  (6) 
oracle

>  <origin>  (6) 
adg

>  <m_score__min__energy>  (6) 
-11.19

>  <m_primary>  (6) 
energy

$$$$
6:0
     RDKit          3D

 50 53  0  0  0  0  0  0  0  0999 V2000
    1.4410   19.1510  -34.4640 N   0  0  0  0  0  0  0  0  0  0  0  0
    0.2360   18.4690  -34.8170 C   0  0  0  0  0  0  0  0  0  0  0  0
    0.2890   17.5020  -35.6230 O   0  0  0  0  0  0  0  0  0  0  0  0
   -1.0750   18.9140  -34.3040 C   0  0  0  0  0  0  0  0  0  0  0  0
   -2.2280   18.1350  -34.3590 C   0  0  0  0  0  0  0  0  0  0  0  0
   -3.2300   18.9320  -33.8570 C   0  0  0  0  0  0  0  0  0  0  0  0
   -4.5820   18.6620  -33.6720 C   0  0  0  0  0  0  0  0  0  0  0  0
   -5.3840   19.6640  -33.1020 C   0  0  0  0  0  0  0  0  0  0  0  0
   -4.8250   20.9120  -32.7180 C   0  0  0  0  0  0  0  0  0  0  0  0
   -5.6800   21.9610  -32.1060 C   0  0  0  0  0  0  0  0  0  0  0  0
   -7.0790   21.8270  -32.0970 C   0  0  0  0  0  0  0  0  0  0  0  0
   -7.8800   22.8090  -31.5090 C   0  0  0  0  0  0  0  0  0  0  0  0
   -7.2970   23.9360  -30.9290 C   0  0  0  0  0  0  0  0  0  0  0  0
   -5.9040   24.0970  -30.9430 C   0  0  0  0  0  0  0  0  0  0  0  0
   -5.2730   25.2950  -30.2880 C   0  0  0  0  0  0  0  0  0  0  0  0
   -3.9220   25.3860  -30.6530 O   0  0  0  0  0  0  0  0  0  0  0  0
   -5.0990   23.1020  -31.5200 C   0  0  0  0  0  0  0  0  0  0  0  0
   -3.4440   21.1450  -32.9200 C   0  0  0  0  0  0  0  0  0  0  0  0
   -2.6740   20.1370  -33.5100 C   0  0  0  0  0  0  0  0  0  0  0  0
   -1.3490   20.1390  -33.7730 N   0  0  0  0  0  0  0  0  0  0  0  0
   -0.4160   21.1830  -33.4630 C   0  0  0  0  0  0  0  0  0  0  0  0
    0.1840   21.7860  -34.3960 O   0  0  0  0  0  0  0  0  0  0  0  0
   -0.1870   21.5390  -32.1290 O   0  0  0  0  0  0  0  0  0  0  0  0
   -0.6560   20.7700  -31.0250 C   0  0  0  0  0  0  0  0  0  0  0  0
   -1.4720   21.6340  -30.1030 C   0  0  0  0  0  0  0  0  0  0  0  0
   -1.0500   22.9340  -29.7770 C   0  0  0  0  0  0  0  0  0  0  0  0
   -1.8380   23.7460  -28.9550 C   0  0  0  0  0  0  0  0  0  0  0  0
   -3.0540   23.2680  -28.4570 C   0  0  0  0  0  0  0  0  0  0  0  0
   -3.4830   21.9770  -28.7820 C   0  0  0  0  0  0  0  0  0  0  0  0
   -2.6980   21.1640  -29.6040 C   0  0  0  0  0  0  0  0  0  0  0  0
    2.3630   18.7940  -34.7980 H   0  0  0  0  0  0  0  0  0  0  0  0
    1.4170   20.0590  -33.9470 H   0  0  0  0  0  0  0  0  0  0  0  0
   -2.3181   17.1019  -34.7259 H   0  0  0  0  0  0  0  0  0  0  0  0
   -5.0105   17.6918  -33.9637 H   0  0  0  0  0  0  0  0  0  0  0  0
   -6.4580   19.4802  -32.9511 H   0  0  0  0  0  0  0  0  0  0  0  0
   -7.5463   20.9432  -32.5559 H   0  0  0  0  0  0  0  0  0  0  0  0
   -8.9739   22.6933  -31.5033 H   0  0  0  0  0  0  0  0  0  0  0  0
   -7.9324   24.7011  -30.4590 H   0  0  0  0  0  0  0  0  0  0  0  0
   -5.7994   26.2056  -30.6102 H   0  0  0  0  0  0  0  0  0  0  0  0
   -5.3452   25.1887  -29.1955 H   0  0  0  0  0  0  0  0  0  0  0  0
   -3.9040   25.6820  -31.6000 H   0  0  0  0  0  0  0  0  0  0  0  0
   -4.0048   23.2147  -31.5143 H   0  0  0  0  0  0  0  0  0  0  0  0
   -2.9855   22.0987  -32.6194 H   0  0  0  0  0  0  0  0  0  0  0  0
   -1.2798   19.9435  -31.3961 H   0  0  0  0  0  0  0  0  0  0  0  0
    0.2068   20.3690  -30.4730 H   0  0  0  0  0  0  0  0  0  0  0  0
   -0.0957   23.3147  -30.1700 H   0  0  0  0  0  0  0  0  0  0  0  0
   -1.5009   24.7616  -28.7000 H   0  0  0  0  0  0  0  0  0  0  0  0
   -3.6729   23.9070  -27.8100 H   0  0  0  0  0  0  0  0  0  0  0  0
   -4.4396   21.6011  -28.3900 H   0  0  0  0  0  0  0  0  0  0  0  0
   -3.0418   20.1513  -29.8614 H   0  0  0  0  0  0  0  0  0  0  0  0
  1  2  1  0
  2  3  2  0
  2  4  1  0
  4  5  2  0
  5  6  1  0
  6  7  2  0
  7  8  1  0
  8  9  2  0
  9 10  1  0
 10 11  2  0
 11 12  1  0
 12 13  2  0
 13 14  1  0
 14 15  1  0
 15 16  1  0
 14 17  2  0
  9 18  1  0
 18 19  2  0
 19 20  1  0
 20 21  1  0
 21 22  2  0
 21 23  1  0
 23 24  1  0
 24 25  1  0
 25 26  2  0
 26 27  1  0
 27 28  2  0
 28 29  1  0
 29 30  2  0
 20  4  1  0
 30 25  1  0
 19  6  1  0
 17 10  1  0
  1 31  1  0
  1 32  1  0
  5 33  1  0
  7 34  1  0
  8 35  1  0
 11 36  1  0
 12 37  1  0
 13 38  1  0
 15 39  1  0
 15 40  1  0
 16 41  1  0
 17 42  1  0
 18 43  1  0
 24 44  1  0
 24 45  1  0
 26 46  1  0
 27 47  1  0
 28 48  1  0
 29 49  1  0
 30 50  1  0
M  END
>  <UniqueID>  (7) 
7

>  <SMILES>  (7) 
NC(=O)c1cc2ccc(-c3cccc(CO)c3)cc2n1C(=O)OCc1ccccc1

>  <Energy>  (7) 
95.945889719956

>  <Genealogy>  (7) 
NC(=O)c1cc2ccc(-c3cccc(CO)c3)cc2n1C(=O)OCc1ccccc1 (3D coordinates assigned)
NC(=O)c1cc2ccc(-c3cccc(CO)c3)cc2n1C(=O)OCc1ccccc1 (optimized conformer: 95.945889719956 kcal/mol)

>  <smiles>  (7) 
NC(=O)c1cc2ccc(-c3cccc(CO)c3)cc2n1C(=O)OCc1ccccc1

>  <score_type>  (7) 
oracle

>  <origin>  (7) 
adg

>  <m_score__min__energy>  (7) 
-10.369999999999999

>  <m_primary>  (7) 
energy

$$$$
7:0
     RDKit          3D

 38 40  0  0  0  0  0  0  0  0999 V2000
   -1.9840   25.4470  -28.4030 N   0  0  0  0  0  0  0  0  0  0  0  0
   -1.0330   24.4680  -28.8250 C   0  0  0  0  0  0  0  0  0  0  0  0
    0.1570   24.5570  -28.4240 O   0  0  0  0  0  0  0  0  0  0  0  0
   -1.4260   23.3840  -29.7530 C   0  0  0  0  0  0  0  0  0  0  0  0
   -0.5940   22.3220  -30.1010 C   0  0  0  0  0  0  0  0  0  0  0  0
   -1.3630   21.5000  -30.8920 C   0  0  0  0  0  0  0  0  0  0  0  0
   -1.0320   20.3050  -31.5260 C   0  0  0  0  0  0  0  0  0  0  0  0
   -2.0180   19.6820  -32.3100 C   0  0  0  0  0  0  0  0  0  0  0  0
   -3.3060   20.2560  -32.4400 C   0  0  0  0  0  0  0  0  0  0  0  0
   -4.3370   19.6040  -33.3230 C   0  0  0  0  0  0  0  0  0  0  0  0
   -5.5780   20.4930  -33.4470 C   0  0  0  0  0  0  0  0  0  0  0  0
   -6.7750   19.8180  -32.8360 C   0  0  0  0  0  0  0  0  0  0  0  0
   -6.7940   18.4230  -32.6690 C   0  0  0  0  0  0  0  0  0  0  0  0
   -7.8940   17.8010  -32.0690 C   0  0  0  0  0  0  0  0  0  0  0  0
   -8.9760   18.5650  -31.6250 C   0  0  0  0  0  0  0  0  0  0  0  0
   -8.9570   19.9560  -31.7750 C   0  0  0  0  0  0  0  0  0  0  0  0
   -7.8600   20.5820  -32.3730 C   0  0  0  0  0  0  0  0  0  0  0  0
   -3.6020   21.4760  -31.7910 C   0  0  0  0  0  0  0  0  0  0  0  0
   -2.6070   22.0670  -31.0030 C   0  0  0  0  0  0  0  0  0  0  0  0
   -2.6610   23.2260  -30.3100 N   0  0  0  0  0  0  0  0  0  0  0  0
   -3.7710   24.1380  -30.2450 C   0  0  0  0  0  0  0  0  0  0  0  0
   -3.6790   25.2910  -30.7430 O   0  0  0  0  0  0  0  0  0  0  0  0
   -4.9500   23.7640  -29.6140 O   0  0  0  0  0  0  0  0  0  0  0  0
   -1.6880   26.2310  -27.7810 H   0  0  0  0  0  0  0  0  0  0  0  0
   -2.9900   25.3770  -28.6710 H   0  0  0  0  0  0  0  0  0  0  0  0
    0.4551   22.1725  -29.8059 H   0  0  0  0  0  0  0  0  0  0  0  0
   -0.0307   19.8629  -31.4166 H   0  0  0  0  0  0  0  0  0  0  0  0
   -1.7870   18.7393  -32.8277 H   0  0  0  0  0  0  0  0  0  0  0  0
   -3.9069   19.4417  -34.3223 H   0  0  0  0  0  0  0  0  0  0  0  0
   -4.6315   18.6432  -32.8757 H   0  0  0  0  0  0  0  0  0  0  0  0
   -5.3946   21.4446  -32.9266 H   0  0  0  0  0  0  0  0  0  0  0  0
   -5.7790   20.6752  -34.5130 H   0  0  0  0  0  0  0  0  0  0  0  0
   -5.9413   17.8181  -33.0111 H   0  0  0  0  0  0  0  0  0  0  0  0
   -7.9070   16.7079  -31.9465 H   0  0  0  0  0  0  0  0  0  0  0  0
   -9.8421   18.0735  -31.1579 H   0  0  0  0  0  0  0  0  0  0  0  0
   -9.8071   20.5579  -31.4216 H   0  0  0  0  0  0  0  0  0  0  0  0
   -7.8456   21.6765  -32.4817 H   0  0  0  0  0  0  0  0  0  0  0  0
   -4.5888   21.9491  -31.9021 H   0  0  0  0  0  0  0  0  0  0  0  0
  1  2  1  0
  2  3  2  0
  2  4  1  0
  4  5  2  0
  5  6  1  0
  6  7  2  0
  7  8  1  0
  8  9  2  0
  9 10  1  0
 10 11  1  0
 11 12  1  0
 12 13  2  0
 13 14  1  0
 14 15  2  0
 15 16  1  0
 16 17  2  0
  9 18  1  0
 18 19  2  0
 19 20  1  0
 20 21  1  0
 21 22  2  0
 21 23  1  0
 20  4  1  0
 19  6  1  0
 17 12  1  0
  1 24  1  0
  1 25  1  0
  5 26  1  0
  7 27  1  0
  8 28  1  0
 10 29  1  0
 10 30  1  0
 11 31  1  0
 11 32  1  0
 13 33  1  0
 14 34  1  0
 15 35  1  0
 16 36  1  0
 17 37  1  0
 18 38  1  0
M  CHG  1  23  -1
M  END
>  <UniqueID>  (8) 
8

>  <SMILES>  (8) 
NC(=O)c1cc2ccc(CCc3ccccc3)cc2n1C(=O)[O-]

>  <Energy>  (8) 
76.32765646585385

>  <Genealogy>  (8) 
NC(=O)c1cc2ccc(CCc3ccccc3)cc2n1C(=O)[O-] (protonated)
NC(=O)c1cc2ccc(CCc3ccccc3)cc2n1C(=O)[O-] (3D coordinates assigned)
NC(=O)c1cc2ccc(CCc3ccccc3)cc2n1C(=O)[O-] (optimized conformer: 76.32765646585385 kcal/mol)

>  <smiles>  (8) 
NC(=O)c1cc2ccc(CCc3ccccc3)cc2n1C(=O)O

>  <score_type>  (8) 
oracle

>  <origin>  (8) 
adg

>  <m_score__min__energy>  (8) 
-9.9600000000000009

>  <m_primary>  (8) 
energy

$$$$
8:0
     RDKit          3D

 42 43  0  0  0  0  0  0  0  0999 V2000
   -8.7550   21.3200  -31.5860 C   0  0  0  0  0  0  0  0  0  0  0  0
   -9.1660   20.0520  -32.3270 C   0  0  0  0  0  0  0  0  0  0  0  0
   -8.7230   18.7970  -31.5680 C   0  0  0  0  0  0  0  0  0  0  0  0
   -7.2740   18.6520  -31.6410 N   0  0  0  0  0  0  0  0  0  0  0  0
   -6.5410   18.6580  -32.8730 C   0  0  0  0  0  0  0  0  0  0  0  0
   -6.5540   17.6460  -33.6230 O   0  0  0  0  0  0  0  0  0  0  0  0
   -5.7560   19.8690  -33.2840 C   0  0  0  0  0  0  0  0  0  0  0  0
   -4.3270   19.5570  -33.4460 N   0  0  0  0  0  0  0  0  0  0  0  0
   -3.9420   18.4840  -34.3700 C   0  0  0  0  0  0  0  0  0  0  0  0
   -3.3150   20.2480  -32.6700 C   0  0  0  0  0  0  0  0  0  0  0  0
   -1.9990   19.7170  -32.5650 C   0  0  0  0  0  0  0  0  0  0  0  0
   -1.0200   20.3540  -31.7840 C   0  0  0  0  0  0  0  0  0  0  0  0
   -1.3760   21.5210  -31.1170 C   0  0  0  0  0  0  0  0  0  0  0  0
   -0.6420   22.3070  -30.2580 C   0  0  0  0  0  0  0  0  0  0  0  0
   -1.5080   23.3220  -29.8570 C   0  0  0  0  0  0  0  0  0  0  0  0
   -1.1040   24.4370  -28.9740 C   0  0  0  0  0  0  0  0  0  0  0  0
   -1.8480   25.6530  -28.9810 N   0  0  0  0  0  0  0  0  0  0  0  0
   -0.1270   24.3170  -28.1900 O   0  0  0  0  0  0  0  0  0  0  0  0
   -2.7290   23.1680  -30.4440 N   0  0  0  0  0  0  0  0  0  0  0  0
   -3.9160   23.9490  -30.2240 C   0  0  0  0  0  0  0  0  0  0  0  0
   -3.9710   25.3090  -30.6470 N   0  0  0  0  0  0  0  0  0  0  0  0
   -4.9220   23.4290  -29.6700 O   0  0  0  0  0  0  0  0  0  0  0  0
   -2.6280   22.0630  -31.2150 C   0  0  0  0  0  0  0  0  0  0  0  0
   -3.6240   21.4480  -31.9810 C   0  0  0  0  0  0  0  0  0  0  0  0
   -8.8116   21.1455  -30.5014 H   0  0  0  0  0  0  0  0  0  0  0  0
   -7.7241   21.5876  -31.8611 H   0  0  0  0  0  0  0  0  0  0  0  0
   -9.4329   22.1415  -31.8611 H   0  0  0  0  0  0  0  0  0  0  0  0
  -10.2607   20.0384  -32.4345 H   0  0  0  0  0  0  0  0  0  0  0  0
   -8.6788   20.0521  -33.3132 H   0  0  0  0  0  0  0  0  0  0  0  0
   -9.0273   18.8827  -30.5144 H   0  0  0  0  0  0  0  0  0  0  0  0
   -9.1963   17.9149  -32.0240 H   0  0  0  0  0  0  0  0  0  0  0  0
   -6.1507   20.2430  -34.2402 H   0  0  0  0  0  0  0  0  0  0  0  0
   -5.8557   20.6287  -32.4947 H   0  0  0  0  0  0  0  0  0  0  0  0
   -3.6253   17.6012  -33.7952 H   0  0  0  0  0  0  0  0  0  0  0  0
   -4.8014   18.2199  -35.0037 H   0  0  0  0  0  0  0  0  0  0  0  0
   -3.1107   18.8265  -35.0037 H   0  0  0  0  0  0  0  0  0  0  0  0
   -1.7440   18.7927  -33.1041 H   0  0  0  0  0  0  0  0  0  0  0  0
   -0.0032   19.9422  -31.7027 H   0  0  0  0  0  0  0  0  0  0  0  0
    0.4052   22.1642  -29.9531 H   0  0  0  0  0  0  0  0  0  0  0  0
   -2.8660   25.6580  -29.2160 H   0  0  0  0  0  0  0  0  0  0  0  0
   -3.8290   26.0880  -29.9660 H   0  0  0  0  0  0  0  0  0  0  0  0
   -4.6300   21.8880  -32.0476 H   0  0  0  0  0  0  0  0  0  0  0  0
  1  2  1  0
  2  3  1  0
  3  4  1  0
  4  5  1  0
  5  6  2  0
  5  7  1  0
  7  8  1  0
  8  9  1  0
  8 10  1  0
 10 11  2  0
 11 12  1  0
 12 13  2  0
 13 14  1  0
 14 15  2  0
 15 16  1  0
 16 17  1  0
 16 18  2  0
 15 19  1  0
 19 20  1  0
 20 21  1  0
 20 22  2  0
 19 23  1  0
 23 24  2  0
 24 10  1  0
 23 13  1  0
  1 25  1  0
  1 26  1  0
  1 27  1  0
  2 28  1  0
  2 29  1  0
  3 30  1  0
  3 31  1  0
  7 32  1  0
  7 33  1  0
  9 34  1  0
  9 35  1  0
  9 36  1  0
 11 37  1  0
 12 38  1  0
 14 39  1  0
 17 40  1  0
 21 41  1  0
 24 42  1  0
M  CHG  3   4  -1  17  -1  21  -1
M  END
>  <UniqueID>  (9) 
9

>  <SMILES>  (9) 
CCC[N-]C(=O)CN(C)c1ccc2cc(C([NH-])=O)n(C([NH-])=O)c2c1

>  <Energy>  (9) 
73.88587004867418

>  <Genealogy>  (9) 
CCC[N-]C(=O)CN(C)c1ccc2cc(C([NH-])=O)n(C([NH-])=O)c2c1 (protonated)
CCC[N-]C(=O)CN(C)c1ccc2cc(C([NH-])=O)n(C([NH-])=O)c2c1 (3D coordinates assigned)
CCC[N-]C(=O)CN(C)c1ccc2cc(C([NH-])=O)n(C([NH-])=O)c2c1 (optimized conformer: 73.88587004867418 kcal/mol)

>  <smiles>  (9) 
CCCNC(=O)CN(C)c1ccc2cc(C(N)=O)n(C(N)=O)c2c1

>  <score_type>  (9) 
oracle

>  <origin>  (9) 
adg

>  <m_score__min__energy>  (9) 
-10.529999999999999

>  <m_primary>  (9) 
energy

$$$$
9:0
     RDKit          3D

 48 50  0  0  0  0  0  0  0  0999 V2000
   -8.9570   21.2430  -31.6360 C   0  0  0  0  0  0  0  0  0  0  0  0
   -8.0090   20.0660  -31.9400 C   0  0  0  0  0  0  0  0  0  0  0  0
   -8.6900   18.7360  -31.5570 C   0  0  0  0  0  0  0  0  0  0  0  0
   -6.8320   20.2150  -31.1790 O   0  0  0  0  0  0  0  0  0  0  0  0
   -7.5840   20.0640  -33.4350 C   0  0  0  0  0  0  0  0  0  0  0  0
   -6.2020   19.5880  -33.6580 N   0  0  0  0  0  0  0  0  0  0  0  0
   -6.0050   18.2850  -34.0130 C   0  0  0  0  0  0  0  0  0  0  0  0
   -4.7260   17.7980  -34.2300 C   0  0  0  0  0  0  0  0  0  0  0  0
   -3.6430   18.6520  -34.0660 C   0  0  0  0  0  0  0  0  0  0  0  0
   -2.4810   18.2050  -34.2680 O   0  0  0  0  0  0  0  0  0  0  0  0
   -3.8420   19.9570  -33.6900 N   0  0  0  0  0  0  0  0  0  0  0  0
   -2.6900   20.8560  -33.4740 C   0  0  0  0  0  0  0  0  0  0  0  0
   -2.5590   21.2020  -32.0130 C   0  0  0  0  0  0  0  0  0  0  0  0
   -1.8260   20.3580  -31.1420 C   0  0  0  0  0  0  0  0  0  0  0  0
   -1.6850   20.6810  -29.7830 C   0  0  0  0  0  0  0  0  0  0  0  0
   -2.2710   21.8580  -29.3280 C   0  0  0  0  0  0  0  0  0  0  0  0
   -2.3120   22.3910  -28.0590 C   0  0  0  0  0  0  0  0  0  0  0  0
   -3.0390   23.5710  -28.1820 C   0  0  0  0  0  0  0  0  0  0  0  0
   -3.2740   24.4980  -27.0570 C   0  0  0  0  0  0  0  0  0  0  0  0
   -4.5820   24.9940  -26.7680 N   0  0  0  0  0  0  0  0  0  0  0  0
   -2.2950   24.9040  -26.3760 O   0  0  0  0  0  0  0  0  0  0  0  0
   -3.4450   23.7580  -29.4690 N   0  0  0  0  0  0  0  0  0  0  0  0
   -4.3050   24.7940  -29.9740 C   0  0  0  0  0  0  0  0  0  0  0  0
   -3.8650   25.6420  -30.7940 O   0  0  0  0  0  0  0  0  0  0  0  0
   -5.6290   24.8740  -29.5620 O   0  0  0  0  0  0  0  0  0  0  0  0
   -2.9630   22.7000  -30.1600 C   0  0  0  0  0  0  0  0  0  0  0  0
   -3.1410   22.3880  -31.5140 C   0  0  0  0  0  0  0  0  0  0  0  0
   -5.1200   20.4160  -33.4740 C   0  0  0  0  0  0  0  0  0  0  0  0
   -5.3020   21.6080  -33.0990 O   0  0  0  0  0  0  0  0  0  0  0  0
   -9.0542   21.3637  -30.5470 H   0  0  0  0  0  0  0  0  0  0  0  0
   -8.5472   22.1660  -32.0721 H   0  0  0  0  0  0  0  0  0  0  0  0
   -9.9461   21.0392  -32.0721 H   0  0  0  0  0  0  0  0  0  0  0  0
   -8.7345   18.6491  -30.4613 H   0  0  0  0  0  0  0  0  0  0  0  0
   -9.7100   18.7146  -31.9683 H   0  0  0  0  0  0  0  0  0  0  0  0
   -8.1111   17.8959  -31.9683 H   0  0  0  0  0  0  0  0  0  0  0  0
   -6.3800   21.0540  -31.4600 H   0  0  0  0  0  0  0  0  0  0  0  0
   -8.2711   19.4090  -33.9908 H   0  0  0  0  0  0  0  0  0  0  0  0
   -7.6256   21.1066  -33.7831 H   0  0  0  0  0  0  0  0  0  0  0  0
   -6.8698   17.6150  -34.1280 H   0  0  0  0  0  0  0  0  0  0  0  0
   -4.5707   16.7505  -34.5277 H   0  0  0  0  0  0  0  0  0  0  0  0
   -1.7709   20.3545  -33.8113 H   0  0  0  0  0  0  0  0  0  0  0  0
   -2.8481   21.7818  -34.0467 H   0  0  0  0  0  0  0  0  0  0  0  0
   -1.3629   19.4407  -31.5346 H   0  0  0  0  0  0  0  0  0  0  0  0
   -1.1283   20.0237  -29.0989 H   0  0  0  0  0  0  0  0  0  0  0  0
   -1.8658   21.9735  -27.1443 H   0  0  0  0  0  0  0  0  0  0  0  0
   -4.7350   25.6190  -25.9450 H   0  0  0  0  0  0  0  0  0  0  0  0
   -5.3820   24.8140  -27.4140 H   0  0  0  0  0  0  0  0  0  0  0  0
   -3.7205   23.0512  -32.1730 H   0  0  0  0  0  0  0  0  0  0  0  0
  1  2  1  0
  2  3  1  0
  2  4  1  0
  2  5  1  0
  5  6  1  0
  6  7  1  0
  7  8  2  0
  8  9  1  0
  9 10  2  0
  9 11  1  0
 11 12  1  0
 12 13  1  0
 13 14  2  0
 14 15  1  0
 15 16  2  0
 16 17  1  0
 17 18  2  0
 18 19  1  0
 19 20  1  0
 19 21  2  0
 18 22  1  0
 22 23  1  0
 23 24  2  0
 23 25  1  0
 22 26  1  0
 26 27  2  0
 11 28  1  0
 28 29  2  0
 28  6  1  0
 27 13  1  0
 26 16  1  0
  1 30  1  0
  1 31  1  0
  1 32  1  0
  3 33  1  0
  3 34  1  0
  3 35  1  0
  4 36  1  0
  5 37  1  0
  5 38  1  0
  7 39  1  0
  8 40  1  0
 12 41  1  0
 12 42  1  0
 14 43  1  0
 15 44  1  0
 17 45  1  0
 20 46  1  0
 20 47  1  0
 27 48  1  0
M  CHG  1  25  -1
M  END
>  <UniqueID>  (10) 
10

>  <SMILES>  (10) 
CC(C)(O)Cn1ccc(=O)n(Cc2ccc3cc(C(N)=O)n(C(=O)[O-])c3c2)c1=O

>  <Energy>  (10) 
93.60586132768475

>  <Genealogy>  (10) 
CC(C)(O)Cn1ccc(=O)n(Cc2ccc3cc(C(N)=O)n(C(=O)[O-])c3c2)c1=O (protonated)
CC(C)(O)Cn1ccc(=O)n(Cc2ccc3cc(C(N)=O)n(C(=O)[O-])c3c2)c1=O (3D coordinates assigned)
CC(C)(O)Cn1ccc(=O)n(Cc2ccc3cc(C(N)=O)n(C(=O)[O-])c3c2)c1=O (optimized conformer: 93.60586132768475 kcal/mol)

>  <smiles>  (10) 
CC(C)(O)Cn1ccc(=O)n(Cc2ccc3cc(C(N)=O)n(C(=O)O)c3c2)c1=O

>  <score_type>  (10) 
oracle

>  <origin>  (10) 
adg

>  <m_score__min__energy>  (10) 
-10.58

>  <m_primary>  (10) 
energy

$$$$
10:0
     RDKit          3D

 44 46  0  0  0  0  0  0  0  0999 V2000
   -1.7030   23.3090  -27.8440 C   0  0  0  0  0  0  0  0  0  0  0  0
   -2.9100   22.7370  -28.6020 C   0  0  0  0  0  0  0  0  0  0  0  0
   -2.8010   21.2000  -28.6230 C   0  0  0  0  0  0  0  0  0  0  0  0
   -4.2020   23.1810  -27.8890 C   0  0  0  0  0  0  0  0  0  0  0  0
   -2.8630   23.2660  -29.9350 O   0  0  0  0  0  0  0  0  0  0  0  0
   -3.4940   22.7280  -31.0670 C   0  0  0  0  0  0  0  0  0  0  0  0
   -2.8290   22.1430  -31.9620 O   0  0  0  0  0  0  0  0  0  0  0  0
   -4.9210   22.8290  -31.1930 N   0  0  0  0  0  0  0  0  0  0  0  0
   -5.7120   23.8940  -30.8730 C   0  0  0  0  0  0  0  0  0  0  0  0
   -5.2380   25.2350  -30.4730 C   0  0  0  0  0  0  0  0  0  0  0  0
   -3.9290   25.6620  -30.8430 N   0  0  0  0  0  0  0  0  0  0  0  0
   -5.9610   25.9950  -29.7780 O   0  0  0  0  0  0  0  0  0  0  0  0
   -7.0550   23.5740  -31.0530 C   0  0  0  0  0  0  0  0  0  0  0  0
   -7.0660   22.2730  -31.5000 C   0  0  0  0  0  0  0  0  0  0  0  0
   -8.1360   21.4480  -31.8270 C   0  0  0  0  0  0  0  0  0  0  0  0
   -7.8550   20.1330  -32.2340 C   0  0  0  0  0  0  0  0  0  0  0  0
   -6.5160   19.6630  -32.3010 C   0  0  0  0  0  0  0  0  0  0  0  0
   -6.2330   18.2670  -32.7200 C   0  0  0  0  0  0  0  0  0  0  0  0
   -6.3110   17.8910  -34.0710 C   0  0  0  0  0  0  0  0  0  0  0  0
   -6.0400   16.5760  -34.4510 C   0  0  0  0  0  0  0  0  0  0  0  0
   -5.6920   15.6390  -33.4760 C   0  0  0  0  0  0  0  0  0  0  0  0
   -5.4280   14.3590  -33.8340 F   0  0  0  0  0  0  0  0  0  0  0  0
   -5.6200   16.0100  -32.1700 N   0  0  0  0  0  0  0  0  0  0  0  0
   -5.8780   17.2870  -31.7750 C   0  0  0  0  0  0  0  0  0  0  0  0
   -5.4560   20.5360  -31.9600 C   0  0  0  0  0  0  0  0  0  0  0  0
   -5.7660   21.8450  -31.5750 C   0  0  0  0  0  0  0  0  0  0  0  0
   -1.8774   23.2264  -26.7611 H   0  0  0  0  0  0  0  0  0  0  0  0
   -0.7989   22.7436  -28.1140 H   0  0  0  0  0  0  0  0  0  0  0  0
   -1.5682   24.3668  -28.1140 H   0  0  0  0  0  0  0  0  0  0  0  0
   -2.7741   20.8202  -27.5910 H   0  0  0  0  0  0  0  0  0  0  0  0
   -3.6715   20.7778  -29.1465 H   0  0  0  0  0  0  0  0  0  0  0  0
   -1.8797   20.9049  -29.1465 H   0  0  0  0  0  0  0  0  0  0  0  0
   -4.0556   23.1307  -26.7999 H   0  0  0  0  0  0  0  0  0  0  0  0
   -4.4444   24.2140  -28.1791 H   0  0  0  0  0  0  0  0  0  0  0  0
   -5.0282   22.5152  -28.1791 H   0  0  0  0  0  0  0  0  0  0  0  0
   -3.0840   25.2890  -30.3540 H   0  0  0  0  0  0  0  0  0  0  0  0
   -7.9241   24.2244  -30.8752 H   0  0  0  0  0  0  0  0  0  0  0  0
   -9.1717   21.8138  -31.7688 H   0  0  0  0  0  0  0  0  0  0  0  0
   -8.6816   19.4593  -32.5040 H   0  0  0  0  0  0  0  0  0  0  0  0
   -6.5867   18.6357  -34.8322 H   0  0  0  0  0  0  0  0  0  0  0  0
   -6.1000   16.2803  -35.5088 H   0  0  0  0  0  0  0  0  0  0  0  0
   -5.3620   15.2980  -31.4500 H   0  0  0  0  0  0  0  0  0  0  0  0
   -5.8085   17.5543  -30.7102 H   0  0  0  0  0  0  0  0  0  0  0  0
   -4.4114   20.1932  -31.9967 H   0  0  0  0  0  0  0  0  0  0  0  0
  1  2  1  0
  2  3  1  0
  2  4  1  0
  2  5  1  0
  5  6  1  0
  6  7  2  0
  6  8  1  0
  8  9  1  0
  9 10  1  0
 10 11  1  0
 10 12  2  0
  9 13  2  0
 13 14  1  0
 14 15  2  0
 15 16  1  0
 16 17  2  0
 17 18  1  0
 18 19  2  0
 19 20  1  0
 20 21  2  0
 21 22  1  0
 21 23  1  0
 23 24  2  0
 17 25  1  0
 25 26  2  0
 26  8  1  0
 26 14  1  0
 24 18  1  0
  1 27  1  0
  1 28  1  0
  1 29  1  0
  3 30  1  0
  3 31  1  0
  3 32  1  0
  4 33  1  0
  4 34  1  0
  4 35  1  0
 11 36  1  0
 13 37  1  0
 15 38  1  0
 16 39  1  0
 19 40  1  0
 20 41  1  0
 23 42  1  0
 24 43  1  0
 25 44  1  0
M  CHG  2  11  -1  23   1
M  END
>  <UniqueID>  (11) 
11

>  <SMILES>  (11) 
CC(C)(C)OC(=O)n1c(C([NH-])=O)cc2ccc(-c3ccc(F)[nH+]c3)cc21

>  <Energy>  (11) 
85.39419894457063

>  <Genealogy>  (11) 
CC(C)(C)OC(=O)n1c(C([NH-])=O)cc2ccc(-c3ccc(F)[nH+]c3)cc21 (protonated)
CC(C)(C)OC(=O)n1c(C([NH-])=O)cc2ccc(-c3ccc(F)[nH+]c3)cc21 (3D coordinates assigned)
CC(C)(C)OC(=O)n1c(C([NH-])=O)cc2ccc(-c3ccc(F)[nH+]c3)cc21 (optimized conformer: 85.39419894457063 kcal/mol)

>  <smiles>  (11) 
CC(C)(C)OC(=O)n1c(C(N)=O)cc2ccc(-c3ccc(F)nc3)cc21

>  <score_type>  (11) 
oracle

>  <origin>  (11) 
adg

>  <m_score__min__energy>  (11) 
-10.41

>  <m_primary>  (11) 
energy

$$$$
11:0
     RDKit          3D

 29 30  0  0  0  0  0  0  0  0999 V2000
   -6.1120   17.2150  -34.2120 C   0  0  0  0  0  0  0  0  0  0  0  0
   -5.5870   18.4000  -34.5420 C   0  0  0  0  0  0  0  0  0  0  0  0
   -4.7310   19.1800  -33.5840 C   0  0  0  0  0  0  0  0  0  0  0  0
   -5.5160   20.3020  -32.9610 C   0  0  0  0  0  0  0  0  0  0  0  0
   -6.9320   20.2530  -32.9490 C   0  0  0  0  0  0  0  0  0  0  0  0
   -7.6790   21.2710  -32.3320 C   0  0  0  0  0  0  0  0  0  0  0  0
   -6.9850   22.3220  -31.7400 C   0  0  0  0  0  0  0  0  0  0  0  0
   -7.4570   23.4100  -31.0440 C   0  0  0  0  0  0  0  0  0  0  0  0
   -6.3240   24.1200  -30.6590 C   0  0  0  0  0  0  0  0  0  0  0  0
   -6.3790   25.4030  -29.9310 C   0  0  0  0  0  0  0  0  0  0  0  0
   -5.5580   26.5070  -30.3140 N   0  0  0  0  0  0  0  0  0  0  0  0
   -7.2060   25.5460  -28.9910 O   0  0  0  0  0  0  0  0  0  0  0  0
   -5.1920   23.4920  -31.0860 N   0  0  0  0  0  0  0  0  0  0  0  0
   -3.8300   23.8460  -30.7900 C   0  0  0  0  0  0  0  0  0  0  0  0
   -2.9300   22.9650  -30.7910 O   0  0  0  0  0  0  0  0  0  0  0  0
   -3.4900   25.1620  -30.5020 O   0  0  0  0  0  0  0  0  0  0  0  0
   -5.6140   22.3920  -31.7510 C   0  0  0  0  0  0  0  0  0  0  0  0
   -4.8460   21.3790  -32.3400 C   0  0  0  0  0  0  0  0  0  0  0  0
   -6.7345   16.6685  -34.9357 H   0  0  0  0  0  0  0  0  0  0  0  0
   -5.9212   16.7869  -33.2169 H   0  0  0  0  0  0  0  0  0  0  0  0
   -5.7870   18.8147  -35.5410 H   0  0  0  0  0  0  0  0  0  0  0  0
   -4.3714   18.5074  -32.7913 H   0  0  0  0  0  0  0  0  0  0  0  0
   -3.8814   19.6074  -34.1367 H   0  0  0  0  0  0  0  0  0  0  0  0
   -7.4518   19.4098  -33.4274 H   0  0  0  0  0  0  0  0  0  0  0  0
   -8.7784   21.2381  -32.3174 H   0  0  0  0  0  0  0  0  0  0  0  0
   -8.5067   23.6648  -30.8359 H   0  0  0  0  0  0  0  0  0  0  0  0
   -5.5830   27.3940  -29.7640 H   0  0  0  0  0  0  0  0  0  0  0  0
   -4.9900   26.4780  -31.1890 H   0  0  0  0  0  0  0  0  0  0  0  0
   -3.7470   21.4215  -32.3192 H   0  0  0  0  0  0  0  0  0  0  0  0
  1  2  2  0
  2  3  1  0
  3  4  1  0
  4  5  2  0
  5  6  1  0
  6  7  2  0
  7  8  1  0
  8  9  2  0
  9 10  1  0
 10 11  1  0
 10 12  2  0
  9 13  1  0
 13 14  1  0
 14 15  2  0
 14 16  1  0
 13 17  1  0
 17 18  2  0
 18  4  1  0
 17  7  1  0
  1 19  1  0
  1 20  1  0
  2 21  1  0
  3 22  1  0
  3 23  1  0
  5 24  1  0
  6 25  1  0
  8 26  1  0
 11 27  1  0
 11 28  1  0
 18 29  1  0
M  CHG  1  16  -1
M  END
>  <UniqueID>  (12) 
12

>  <SMILES>  (12) 
C=CCc1ccc2cc(C(N)=O)n(C(=O)[O-])c2c1

>  <Energy>  (12) 
66.03214193806672

>  <Genealogy>  (12) 
C=CCc1ccc2cc(C(N)=O)n(C(=O)[O-])c2c1 (protonated)
C=CCc1ccc2cc(C(N)=O)n(C(=O)[O-])c2c1 (3D coordinates assigned)
C=CCc1ccc2cc(C(N)=O)n(C(=O)[O-])c2c1 (optimized conformer: 66.03214193806672 kcal/mol)

>  <smiles>  (12) 
C=CCc1ccc2cc(C(N)=O)n(C(=O)O)c2c1

>  <score_type>  (12) 
oracle

>  <origin>  (12) 
adg

>  <m_score__min__energy>  (12) 
-8.6500000000000004

>  <m_primary>  (12) 
energy

$$$$
12:0
     RDKit          3D

 59 60  0  0  0  0  0  0  0  0999 V2000
   -6.0780   16.9260  -31.2920 C   0  0  0  0  0  0  0  0  0  0  0  0
   -6.4550   17.1200  -32.7710 C   0  0  2  0  0  0  0  0  0  0  0  0
   -6.1310   15.8900  -33.6600 C   0  0  0  0  0  0  0  0  0  0  0  0
   -4.6540   15.6770  -34.1200 C   0  0  0  0  0  0  0  0  0  0  0  0
   -4.5920   14.3270  -34.8700 C   0  0  0  0  0  0  0  0  0  0  0  0
   -3.6900   15.6360  -32.9120 C   0  0  0  0  0  0  0  0  0  0  0  0
   -4.2950   16.7370  -35.0200 O   0  0  0  0  0  0  0  0  0  0  0  0
   -3.2880   17.6910  -34.8170 C   0  0  0  0  0  0  0  0  0  0  0  0
   -1.9240   17.3090  -34.9750 N   0  0  0  0  0  0  0  0  0  0  0  0
   -3.5670   18.8780  -34.5020 O   0  0  0  0  0  0  0  0  0  0  0  0
   -5.9140   18.3570  -33.3540 N   0  0  0  0  0  0  0  0  0  0  0  0
   -6.2270   19.6620  -32.8580 C   0  0  0  0  0  0  0  0  0  0  0  0
   -7.5760   20.0720  -32.7490 C   0  0  0  0  0  0  0  0  0  0  0  0
   -7.8950   21.3460  -32.2510 C   0  0  0  0  0  0  0  0  0  0  0  0
   -6.8460   22.1720  -31.8550 C   0  0  0  0  0  0  0  0  0  0  0  0
   -6.8700   23.4490  -31.3430 C   0  0  0  0  0  0  0  0  0  0  0  0
   -5.5360   23.7820  -31.1150 C   0  0  0  0  0  0  0  0  0  0  0  0
   -5.1150   25.0460  -30.4720 C   0  0  0  0  0  0  0  0  0  0  0  0
   -3.8790   25.6510  -30.8440 N   0  0  0  0  0  0  0  0  0  0  0  0
   -5.8480   25.6170  -29.6260 O   0  0  0  0  0  0  0  0  0  0  0  0
   -4.7170   22.7540  -31.4820 N   0  0  0  0  0  0  0  0  0  0  0  0
   -3.2800   22.7090  -31.4490 C   0  0  0  0  0  0  0  0  0  0  0  0
   -2.6540   22.0320  -32.3070 O   0  0  0  0  0  0  0  0  0  0  0  0
   -2.5940   23.3950  -30.4370 O   0  0  0  0  0  0  0  0  0  0  0  0
   -2.4020   22.9540  -29.0860 C   0  0  0  0  0  0  0  0  0  0  0  0
   -2.6090   24.1750  -28.1750 C   0  0  0  0  0  0  0  0  0  0  0  0
   -3.4350   21.8750  -28.7080 C   0  0  0  0  0  0  0  0  0  0  0  0
   -0.9690   22.4270  -28.8920 C   0  0  0  0  0  0  0  0  0  0  0  0
   -5.5350   21.7740  -31.9280 C   0  0  0  0  0  0  0  0  0  0  0  0
   -5.1900   20.5180  -32.4400 C   0  0  0  0  0  0  0  0  0  0  0  0
   -6.8746   17.3359  -30.6537 H   0  0  0  0  0  0  0  0  0  0  0  0
   -5.9559   15.8531  -31.0824 H   0  0  0  0  0  0  0  0  0  0  0  0
   -5.1340   17.4503  -31.0824 H   0  0  0  0  0  0  0  0  0  0  0  0
   -7.5501   17.2234  -32.7603 H   0  0  0  0  0  0  0  0  0  0  0  0
   -6.4290   14.9935  -33.0966 H   0  0  0  0  0  0  0  0  0  0  0  0
   -6.6815   16.0776  -34.5937 H   0  0  0  0  0  0  0  0  0  0  0  0
   -4.5542   13.5040  -34.1411 H   0  0  0  0  0  0  0  0  0  0  0  0
   -5.4860   14.2169  -35.5013 H   0  0  0  0  0  0  0  0  0  0  0  0
   -3.6916   14.2993  -35.5013 H   0  0  0  0  0  0  0  0  0  0  0  0
   -4.2710   15.6607  -31.9783 H   0  0  0  0  0  0  0  0  0  0  0  0
   -3.0947   14.7117  -32.9491 H   0  0  0  0  0  0  0  0  0  0  0  0
   -3.0184   16.5064  -32.9491 H   0  0  0  0  0  0  0  0  0  0  0  0
   -1.1590   18.0020  -34.8270 H   0  0  0  0  0  0  0  0  0  0  0  0
   -1.6830   16.3260  -35.2320 H   0  0  0  0  0  0  0  0  0  0  0  0
   -5.6540   18.3080  -34.3680 H   0  0  0  0  0  0  0  0  0  0  0  0
   -8.3811   19.3884  -33.0564 H   0  0  0  0  0  0  0  0  0  0  0  0
   -8.9402   21.6807  -32.1762 H   0  0  0  0  0  0  0  0  0  0  0  0
   -7.7548   24.0746  -31.1537 H   0  0  0  0  0  0  0  0  0  0  0  0
   -2.9730   25.2930  -30.4620 H   0  0  0  0  0  0  0  0  0  0  0  0
   -2.5556   23.8603  -27.1223 H   0  0  0  0  0  0  0  0  0  0  0  0
   -1.8242   24.9193  -28.3754 H   0  0  0  0  0  0  0  0  0  0  0  0
   -3.5952   24.6190  -28.3754 H   0  0  0  0  0  0  0  0  0  0  0  0
   -3.5049   21.8020  -27.6127 H   0  0  0  0  0  0  0  0  0  0  0  0
   -4.4176   22.1475  -29.1207 H   0  0  0  0  0  0  0  0  0  0  0  0
   -3.1200   20.9052  -29.1207 H   0  0  0  0  0  0  0  0  0  0  0  0
   -0.7503   22.3466  -27.8170 H   0  0  0  0  0  0  0  0  0  0  0  0
   -0.8763   21.4359  -29.3602 H   0  0  0  0  0  0  0  0  0  0  0  0
   -0.2563   23.1218  -29.3602 H   0  0  0  0  0  0  0  0  0  0  0  0
   -4.1372   20.2079  -32.5139 H   0  0  0  0  0  0  0  0  0  0  0  0
  1  2  1  0
  2  3  1  0
  3  4  1  0
  4  5  1  0
  4  6  1  0
  4  7  1  0
  7  8  1  0
  8  9  1  0
  8 10  2  0
  2 11  1  0
 11 12  1  0
 12 13  2  0
 13 14  1  0
 14 15  2  0
 15 16  1  0
 16 17  2  0
 17 18  1  0
 18 19  1  0
 18 20  2  0
 17 21  1  0
 21 22  1  0
 22 23  2  0
 22 24  1  0
 24 25  1  0
 25 26  1  0
 25 27  1  0
 25 28  1  0
 21 29  1  0
 29 30  2  0
 30 12  1  0
 29 15  1  0
  1 31  1  0
  1 32  1  0
  1 33  1  0
  2 34  1  1
  3 35  1  0
  3 36  1  0
  5 37  1  0
  5 38  1  0
  5 39  1  0
  6 40  1  0
  6 41  1  0
  6 42  1  0
  9 43  1  0
  9 44  1  0
 11 45  1  0
 13 46  1  0
 14 47  1  0
 16 48  1  0
 19 49  1  0
 26 50  1  0
 26 51  1  0
 26 52  1  0
 27 53  1  0
 27 54  1  0
 27 55  1  0
 28 56  1  0
 28 57  1  0
 28 58  1  0
 30 59  1  0
M  CHG  1  19  -1
M  END
>  <UniqueID>  (13) 
13

>  <SMILES>  (13) 
C[C@H](CC(C)(C)OC(N)=O)Nc1ccc2cc(C([NH-])=O)n(C(=O)OC(C)(C)C)c2c1

>  <Energy>  (13) 
97.29833166811666

>  <Genealogy>  (13) 
C[C@H](CC(C)(C)OC(N)=O)Nc1ccc2cc(C([NH-])=O)n(C(=O)OC(C)(C)C)c2c1 (protonated)
C[C@H](CC(C)(C)OC(N)=O)Nc1ccc2cc(C([NH-])=O)n(C(=O)OC(C)(C)C)c2c1 (3D coordinates assigned)
C[C@H](CC(C)(C)OC(N)=O)Nc1ccc2cc(C([NH-])=O)n(C(=O)OC(C)(C)C)c2c1 (optimized conformer: 97.29833166811666 kcal/mol)

>  <smiles>  (13) 
C[C@H](CC(C)(C)OC(N)=O)Nc1ccc2cc(C(N)=O)n(C(=O)OC(C)(C)C)c2c1

>  <score_type>  (13) 
oracle

>  <origin>  (13) 
adg

>  <m_score__min__energy>  (13) 
-10.970000000000001

>  <m_primary>  (13) 
energy

$$$$
13:0
     RDKit          3D

 52 55  0  0  0  0  0  0  0  0999 V2000
   -4.9940   14.5780  -34.0420 C   0  0  0  0  0  0  0  0  0  0  0  0
   -5.6320   15.8040  -34.5460 N   0  0  0  0  0  0  0  0  0  0  0  0
   -6.8890   16.1000  -33.8110 C   0  0  0  0  0  0  0  0  0  0  0  0
   -6.7380   17.2230  -32.7740 C   0  0  0  0  0  0  0  0  0  0  0  0
   -6.1920   18.4320  -33.4070 N   0  0  0  0  0  0  0  0  0  0  0  0
   -6.4690   19.7370  -32.8560 C   0  0  0  0  0  0  0  0  0  0  0  0
   -7.8090   20.1860  -32.7090 C   0  0  0  0  0  0  0  0  0  0  0  0
   -8.0890   21.4580  -32.1810 C   0  0  0  0  0  0  0  0  0  0  0  0
   -7.0170   22.2590  -31.8050 C   0  0  0  0  0  0  0  0  0  0  0  0
   -7.0000   23.5360  -31.2910 C   0  0  0  0  0  0  0  0  0  0  0  0
   -5.6510   23.8450  -31.1140 C   0  0  0  0  0  0  0  0  0  0  0  0
   -5.1750   25.1000  -30.4920 C   0  0  0  0  0  0  0  0  0  0  0  0
   -3.9170   25.6660  -30.8510 N   0  0  0  0  0  0  0  0  0  0  0  0
   -5.8680   25.6560  -29.5990 O   0  0  0  0  0  0  0  0  0  0  0  0
   -4.8690   22.8030  -31.5120 N   0  0  0  0  0  0  0  0  0  0  0  0
   -3.4380   22.7390  -31.5480 C   0  0  0  0  0  0  0  0  0  0  0  0
   -2.8540   22.2970  -32.5760 O   0  0  0  0  0  0  0  0  0  0  0  0
   -2.7000   23.1600  -30.4360 O   0  0  0  0  0  0  0  0  0  0  0  0
   -3.1340   22.9660  -29.0910 C   0  0  0  0  0  0  0  0  0  0  0  0
   -2.6120   24.0650  -28.2030 C   0  0  0  0  0  0  0  0  0  0  0  0
   -3.2700   24.3890  -27.0040 C   0  0  0  0  0  0  0  0  0  0  0  0
   -2.7660   25.3950  -26.1730 C   0  0  0  0  0  0  0  0  0  0  0  0
   -1.6040   26.0830  -26.5320 C   0  0  0  0  0  0  0  0  0  0  0  0
   -0.9490   25.7720  -27.7280 C   0  0  0  0  0  0  0  0  0  0  0  0
   -1.4530   24.7710  -28.5640 C   0  0  0  0  0  0  0  0  0  0  0  0
   -5.7180   21.8390  -31.9250 C   0  0  0  0  0  0  0  0  0  0  0  0
   -5.4080   20.5850  -32.4590 C   0  0  0  0  0  0  0  0  0  0  0  0
   -5.3390   18.2850  -34.5950 C   0  0  0  0  0  0  0  0  0  0  0  0
   -4.6540   16.9160  -34.5780 C   0  0  0  0  0  0  0  0  0  0  0  0
   -4.9990   14.5876  -32.9421 H   0  0  0  0  0  0  0  0  0  0  0  0
   -5.5497   13.7002  -34.4035 H   0  0  0  0  0  0  0  0  0  0  0  0
   -3.9562   14.5294  -34.4035 H   0  0  0  0  0  0  0  0  0  0  0  0
   -7.6570   16.3988  -34.5396 H   0  0  0  0  0  0  0  0  0  0  0  0
   -7.1684   15.1875  -33.2639 H   0  0  0  0  0  0  0  0  0  0  0  0
   -7.7232   17.4529  -32.3421 H   0  0  0  0  0  0  0  0  0  0  0  0
   -6.0485   16.8902  -31.9841 H   0  0  0  0  0  0  0  0  0  0  0  0
   -8.6379   19.5296  -33.0124 H   0  0  0  0  0  0  0  0  0  0  0  0
   -9.1254   21.8092  -32.0687 H   0  0  0  0  0  0  0  0  0  0  0  0
   -7.8659   24.1765  -31.0674 H   0  0  0  0  0  0  0  0  0  0  0  0
   -3.0270   25.3000  -30.4450 H   0  0  0  0  0  0  0  0  0  0  0  0
   -4.2336   22.9689  -29.0617 H   0  0  0  0  0  0  0  0  0  0  0  0
   -2.7468   22.0024  -28.7284 H   0  0  0  0  0  0  0  0  0  0  0  0
   -4.1849   23.8494  -26.7180 H   0  0  0  0  0  0  0  0  0  0  0  0
   -3.2850   25.6448  -25.2358 H   0  0  0  0  0  0  0  0  0  0  0  0
   -1.2045   26.8689  -25.8742 H   0  0  0  0  0  0  0  0  0  0  0  0
   -0.0358   26.3158  -28.0114 H   0  0  0  0  0  0  0  0  0  0  0  0
   -0.9397   24.5356  -29.5080 H   0  0  0  0  0  0  0  0  0  0  0  0
   -4.3615   20.2642  -32.5683 H   0  0  0  0  0  0  0  0  0  0  0  0
   -5.9569   18.3725  -35.5008 H   0  0  0  0  0  0  0  0  0  0  0  0
   -4.5724   19.0738  -34.5904 H   0  0  0  0  0  0  0  0  0  0  0  0
   -4.0348   16.8179  -35.4819 H   0  0  0  0  0  0  0  0  0  0  0  0
   -4.0416   16.8549  -33.6662 H   0  0  0  0  0  0  0  0  0  0  0  0
  1  2  1  0
  2  3  1  0
  3  4  1  0
  4  5  1  0
  5  6  1  0
  6  7  2  0
  7  8  1  0
  8  9  2  0
  9 10  1  0
 10 11  2  0
 11 12  1  0
 12 13  1  0
 12 14  2  0
 11 15  1  0
 15 16  1  0
 16 17  2  0
 16 18  1  0
 18 19  1  0
 19 20  1  0
 20 21  2  0
 21 22  1  0
 22 23  2  0
 23 24  1  0
 24 25  2  0
 15 26  1  0
 26 27  2  0
  5 28  1  0
 28 29  1  0
 29  2  1  0
 27  6  1  0
 26  9  1  0
 25 20  1  0
  1 30  1  0
  1 31  1  0
  1 32  1  0
  3 33  1  0
  3 34  1  0
  4 35  1  0
  4 36  1  0
  7 37  1  0
  8 38  1  0
 10 39  1  0
 13 40  1  0
 19 41  1  0
 19 42  1  0
 21 43  1  0
 22 44  1  0
 23 45  1  0
 24 46  1  0
 25 47  1  0
 27 48  1  0
 28 49  1  0
 28 50  1  0
 29 51  1  0
 29 52  1  0
M  CHG  1  13  -1
M  END
>  <UniqueID>  (14) 
14

>  <SMILES>  (14) 
CN1CCN(c2ccc3cc(C([NH-])=O)n(C(=O)OCc4ccccc4)c3c2)CC1

>  <Energy>  (14) 
101.83779504019448

>  <Genealogy>  (14) 
CN1CCN(c2ccc3cc(C([NH-])=O)n(C(=O)OCc4ccccc4)c3c2)CC1 (protonated)
CN1CCN(c2ccc3cc(C([NH-])=O)n(C(=O)OCc4ccccc4)c3c2)CC1 (3D coordinates assigned)
CN1CCN(c2ccc3cc(C([NH-])=O)n(C(=O)OCc4ccccc4)c3c2)CC1 (nonaromatic ring conformer: 101.83779504019448 kcal/mol)

>  <smiles>  (14) 
CN1CCN(c2ccc3cc(C(N)=O)n(C(=O)OCc4ccccc4)c3c2)CC1

>  <score_type>  (14) 
oracle

>  <origin>  (14) 
adg

>  <m_score__min__energy>  (14) 
-12.039999999999999

>  <m_primary>  (14) 
energy

$$$$
14:0
     RDKit          3D

 39 40  0  0  0  0  0  0  0  0999 V2000
   -9.0770   21.9220  -31.5270 C   0  0  0  0  0  0  0  0  0  0  0  0
   -8.6060   20.5280  -31.5110 N   0  0  0  0  0  0  0  0  0  0  0  0
   -9.3330   19.7090  -32.4940 C   0  0  0  0  0  0  0  0  0  0  0  0
   -7.1360   20.4130  -31.6370 C   0  0  0  0  0  0  0  0  0  0  0  0
   -6.6660   19.4670  -32.7630 C   0  0  0  0  0  0  0  0  0  0  0  0
   -5.5970   20.1420  -33.6290 C   0  0  0  0  0  0  0  0  0  0  0  0
   -4.4380   20.5940  -32.7830 C   0  0  0  0  0  0  0  0  0  0  0  0
   -3.3300   19.7360  -32.5800 C   0  0  0  0  0  0  0  0  0  0  0  0
   -2.2640   20.1250  -31.7540 C   0  0  0  0  0  0  0  0  0  0  0  0
   -2.3340   21.3750  -31.1440 C   0  0  0  0  0  0  0  0  0  0  0  0
   -1.4630   21.9800  -30.2690 C   0  0  0  0  0  0  0  0  0  0  0  0
   -2.0420   23.2070  -29.9620 C   0  0  0  0  0  0  0  0  0  0  0  0
   -1.3990   24.2130  -29.0940 C   0  0  0  0  0  0  0  0  0  0  0  0
   -2.1640   25.2390  -28.4610 N   0  0  0  0  0  0  0  0  0  0  0  0
   -0.1480   24.2010  -28.9550 O   0  0  0  0  0  0  0  0  0  0  0  0
   -3.2330   23.3540  -30.6090 N   0  0  0  0  0  0  0  0  0  0  0  0
   -4.1820   24.4230  -30.4530 C   0  0  0  0  0  0  0  0  0  0  0  0
   -3.8610   25.6080  -30.7320 O   0  0  0  0  0  0  0  0  0  0  0  0
   -5.4680   24.1590  -29.9980 O   0  0  0  0  0  0  0  0  0  0  0  0
   -3.3970   22.2230  -31.3330 C   0  0  0  0  0  0  0  0  0  0  0  0
   -4.4820   21.8500  -32.1370 C   0  0  0  0  0  0  0  0  0  0  0  0
   -9.1980   22.2800  -30.4940 H   0  0  0  0  0  0  0  0  0  0  0  0
   -8.3417   22.5515  -32.0495 H   0  0  0  0  0  0  0  0  0  0  0  0
  -10.0434   21.9765  -32.0495 H   0  0  0  0  0  0  0  0  0  0  0  0
   -9.9740   18.9868  -31.9671 H   0  0  0  0  0  0  0  0  0  0  0  0
   -9.9559   20.3602  -33.1248 H   0  0  0  0  0  0  0  0  0  0  0  0
   -8.6125   19.1677  -33.1248 H   0  0  0  0  0  0  0  0  0  0  0  0
   -6.7281   21.4149  -31.8364 H   0  0  0  0  0  0  0  0  0  0  0  0
   -6.7720   19.9829  -30.6923 H   0  0  0  0  0  0  0  0  0  0  0  0
   -6.2446   18.5548  -32.3154 H   0  0  0  0  0  0  0  0  0  0  0  0
   -7.5290   19.2180  -33.3979 H   0  0  0  0  0  0  0  0  0  0  0  0
   -5.2370   19.4260  -34.3825 H   0  0  0  0  0  0  0  0  0  0  0  0
   -6.0412   21.0202  -34.1203 H   0  0  0  0  0  0  0  0  0  0  0  0
   -3.3044   18.7540  -33.0750 H   0  0  0  0  0  0  0  0  0  0  0  0
   -1.4002   19.4632  -31.5935 H   0  0  0  0  0  0  0  0  0  0  0  0
   -0.5107   21.5790  -29.8919 H   0  0  0  0  0  0  0  0  0  0  0  0
   -1.6980   25.9210  -27.8210 H   0  0  0  0  0  0  0  0  0  0  0  0
   -3.1740   25.3760  -28.6860 H   0  0  0  0  0  0  0  0  0  0  0  0
   -5.3467   22.5183  -32.2623 H   0  0  0  0  0  0  0  0  0  0  0  0
  1  2  1  0
  2  3  1  0
  2  4  1  0
  4  5  1  0
  5  6  1  0
  6  7  1  0
  7  8  2  0
  8  9  1  0
  9 10  2  0
 10 11  1  0
 11 12  2  0
 12 13  1  0
 13 14  1  0
 13 15  2  0
 12 16  1  0
 16 17  1  0
 17 18  2  0
 17 19  1  0
 16 20  1  0
 20 21  2  0
 21  7  1  0
 20 10  1  0
  1 22  1  0
  1 23  1  0
  1 24  1  0
  3 25  1  0
  3 26  1  0
  3 27  1  0
  4 28  1  0
  4 29  1  0
  5 30  1  0
  5 31  1  0
  6 32  1  0
  6 33  1  0
  8 34  1  0
  9 35  1  0
 11 36  1  0
 14 37  1  0
 14 38  1  0
 21 39  1  0
M  CHG  1  19  -1
M  END
>  <UniqueID>  (15) 
15

>  <SMILES>  (15) 
CN(C)CCCc1ccc2cc(C(N)=O)n(C(=O)[O-])c2c1

>  <Energy>  (15) 
77.36072219274182

>  <Genealogy>  (15) 
CN(C)CCCc1ccc2cc(C(N)=O)n(C(=O)[O-])c2c1 (protonated)
CN(C)CCCc1ccc2cc(C(N)=O)n(C(=O)[O-])c2c1 (3D coordinates assigned)
CN(C)CCCc1ccc2cc(C(N)=O)n(C(=O)[O-])c2c1 (optimized conformer: 77.36072219274182 kcal/mol)

>  <smiles>  (15) 
CN(C)CCCc1ccc2cc(C(N)=O)n(C(=O)O)c2c1

>  <score_type>  (15) 
oracle

>  <origin>  (15) 
adg

>  <m_score__min__energy>  (15) 
-8.6699999999999999

>  <m_primary>  (15) 
energy

$$$$
15:0
     RDKit          3D

 52 54  0  0  0  0  0  0  0  0999 V2000
   -4.0440   15.9220  -33.3920 C   0  0  0  0  0  0  0  0  0  0  0  0
   -5.4490   16.3490  -33.3220 N   0  0  0  0  0  0  0  0  0  0  0  0
   -5.7290   16.9650  -32.0060 C   0  0  0  0  0  0  0  0  0  0  0  0
   -7.1020   17.6480  -31.9860 C   0  0  0  0  0  0  0  0  0  0  0  0
   -7.2320   18.7380  -33.0820 C   0  0  0  0  0  0  0  0  0  0  0  0
   -7.3160   20.1360  -32.4950 C   0  0  0  0  0  0  0  0  0  0  0  0
   -8.5700   20.7090  -32.1530 C   0  0  0  0  0  0  0  0  0  0  0  0
   -8.6450   21.9920  -31.5890 C   0  0  0  0  0  0  0  0  0  0  0  0
   -7.4570   22.6840  -31.3800 C   0  0  0  0  0  0  0  0  0  0  0  0
   -7.2400   23.9250  -30.8270 C   0  0  0  0  0  0  0  0  0  0  0  0
   -5.8580   24.1060  -30.8540 C   0  0  0  0  0  0  0  0  0  0  0  0
   -5.1940   25.3560  -30.4310 C   0  0  0  0  0  0  0  0  0  0  0  0
   -3.8680   25.6630  -30.8550 N   0  0  0  0  0  0  0  0  0  0  0  0
   -5.8230   26.1890  -29.7240 O   0  0  0  0  0  0  0  0  0  0  0  0
   -5.2450   23.0140  -31.3930 N   0  0  0  0  0  0  0  0  0  0  0  0
   -3.8380   22.7690  -31.5300 C   0  0  0  0  0  0  0  0  0  0  0  0
   -3.0470   23.1570  -30.6280 O   0  0  0  0  0  0  0  0  0  0  0  0
   -3.3660   22.0760  -32.6540 O   0  0  0  0  0  0  0  0  0  0  0  0
   -2.6060   20.8600  -32.6480 C   0  0  0  0  0  0  0  0  0  0  0  0
   -1.1370   21.2440  -32.8790 C   0  0  0  0  0  0  0  0  0  0  0  0
   -2.7280   20.1510  -31.2860 C   0  0  0  0  0  0  0  0  0  0  0  0
   -3.0620   19.9310  -33.7890 C   0  0  0  0  0  0  0  0  0  0  0  0
   -6.2370   22.1560  -31.7130 C   0  0  0  0  0  0  0  0  0  0  0  0
   -6.1310   20.8710  -32.2590 C   0  0  0  0  0  0  0  0  0  0  0  0
   -6.1030   18.6560  -34.1280 C   0  0  0  0  0  0  0  0  0  0  0  0
   -5.8200   17.1920  -34.4930 C   0  0  0  0  0  0  0  0  0  0  0  0
   -3.6463   15.8011  -32.3735 H   0  0  0  0  0  0  0  0  0  0  0  0
   -3.9784   14.9633  -33.9274 H   0  0  0  0  0  0  0  0  0  0  0  0
   -3.4560   16.6820  -33.9274 H   0  0  0  0  0  0  0  0  0  0  0  0
   -5.7077   16.1825  -31.2332 H   0  0  0  0  0  0  0  0  0  0  0  0
   -4.9610   17.7281  -31.8117 H   0  0  0  0  0  0  0  0  0  0  0  0
   -7.8786   16.8865  -32.1503 H   0  0  0  0  0  0  0  0  0  0  0  0
   -7.2207   18.1375  -31.0081 H   0  0  0  0  0  0  0  0  0  0  0  0
   -8.1810   18.5326  -33.5988 H   0  0  0  0  0  0  0  0  0  0  0  0
   -9.4941   20.1399  -32.3325 H   0  0  0  0  0  0  0  0  0  0  0  0
   -9.6145   22.4369  -31.3203 H   0  0  0  0  0  0  0  0  0  0  0  0
   -7.9967   24.6259  -30.4446 H   0  0  0  0  0  0  0  0  0  0  0  0
   -3.0400   25.2940  -30.3370 H   0  0  0  0  0  0  0  0  0  0  0  0
   -0.6354   21.3751  -31.9089 H   0  0  0  0  0  0  0  0  0  0  0  0
   -0.6346   20.4470  -33.4468 H   0  0  0  0  0  0  0  0  0  0  0  0
   -1.0889   22.1849  -33.4468 H   0  0  0  0  0  0  0  0  0  0  0  0
   -2.6015   20.8860  -30.4774 H   0  0  0  0  0  0  0  0  0  0  0  0
   -3.7199   19.6827  -31.2040 H   0  0  0  0  0  0  0  0  0  0  0  0
   -1.9497   19.3780  -31.2040 H   0  0  0  0  0  0  0  0  0  0  0  0
   -3.5090   19.0203  -33.3639 H   0  0  0  0  0  0  0  0  0  0  0  0
   -3.8076   20.4504  -34.4090 H   0  0  0  0  0  0  0  0  0  0  0  0
   -2.1950   19.6589  -34.4090 H   0  0  0  0  0  0  0  0  0  0  0  0
   -5.1469   20.4423  -32.4993 H   0  0  0  0  0  0  0  0  0  0  0  0
   -6.4061   19.2034  -35.0327 H   0  0  0  0  0  0  0  0  0  0  0  0
   -5.1907   19.1021  -33.7054 H   0  0  0  0  0  0  0  0  0  0  0  0
   -6.7233   16.7675  -34.9554 H   0  0  0  0  0  0  0  0  0  0  0  0
   -4.9600   17.1898  -35.1789 H   0  0  0  0  0  0  0  0  0  0  0  0
  1  2  1  0
  2  3  1  0
  3  4  1  0
  4  5  1  0
  5  6  1  0
  6  7  2  0
  7  8  1  0
  8  9  2  0
  9 10  1  0
 10 11  2  0
 11 12  1  0
 12 13  1  0
 12 14  2  0
 11 15  1  0
 15 16  1  0
 16 17  2  0
 16 18  1  0
 18 19  1  0
 19 20  1  0
 19 21  1  0
 19 22  1  0
 15 23  1  0
 23 24  2  0
  5 25  1  0
 25 26  1  0
 26  2  1  0
 24  6  1  0
 23  9  1  0
  1 27  1  0
  1 28  1  0
  1 29  1  0
  3 30  1  0
  3 31  1  0
  4 32  1  0
  4 33  1  0
  5 34  1  0
  7 35  1  0
  8 36  1  0
 10 37  1  0
 13 38  1  0
 20 39  1  0
 20 40  1  0
 20 41  1  0
 21 42  1  0
 21 43  1  0
 21 44  1  0
 22 45  1  0
 22 46  1  0
 22 47  1  0
 24 48  1  0
 25 49  1  0
 25 50  1  0
 26 51  1  0
 26 52  1  0
M  CHG  1  13  -1
M  END
>  <UniqueID>  (16) 
16

>  <SMILES>  (16) 
CN1CCC(c2ccc3cc(C([NH-])=O)n(C(=O)OC(C)(C)C)c3c2)CC1

>  <Energy>  (16) 
95.41427453804299

>  <Genealogy>  (16) 
CN1CCC(c2ccc3cc(C([NH-])=O)n(C(=O)OC(C)(C)C)c3c2)CC1 (protonated)
CN1CCC(c2ccc3cc(C([NH-])=O)n(C(=O)OC(C)(C)C)c3c2)CC1 (3D coordinates assigned)
CN1CCC(c2ccc3cc(C([NH-])=O)n(C(=O)OC(C)(C)C)c3c2)CC1 (nonaromatic ring conformer: 95.41427453804299 kcal/mol)

>  <smiles>  (16) 
CN1CCC(c2ccc3cc(C(N)=O)n(C(=O)OC(C)(C)C)c3c2)CC1

>  <score_type>  (16) 
oracle

>  <origin>  (16) 
adg

>  <m_score__min__energy>  (16) 
-11.94

>  <m_primary>  (16) 
energy

$$$$
16:0
     RDKit          3D

 37 38  0  0  0  0  0  0  0  0999 V2000
   -6.7830   18.5580  -33.0580 C   0  0  0  0  0  0  0  0  0  0  0  0
   -6.9600   19.9370  -32.4960 C   0  0  0  0  0  0  0  0  0  0  0  0
   -8.2590   20.4780  -32.3410 C   0  0  0  0  0  0  0  0  0  0  0  0
   -8.4370   21.7780  -31.8380 C   0  0  0  0  0  0  0  0  0  0  0  0
   -7.3000   22.5160  -31.5210 C   0  0  0  0  0  0  0  0  0  0  0  0
   -7.1850   23.7850  -31.0010 C   0  0  0  0  0  0  0  0  0  0  0  0
   -5.8160   24.0130  -30.8820 C   0  0  0  0  0  0  0  0  0  0  0  0
   -5.2400   25.2990  -30.4360 C   0  0  0  0  0  0  0  0  0  0  0  0
   -3.9250   25.6670  -30.8430 N   0  0  0  0  0  0  0  0  0  0  0  0
   -5.8830   26.0610  -29.6660 O   0  0  0  0  0  0  0  0  0  0  0  0
   -5.1110   22.9260  -31.3090 N   0  0  0  0  0  0  0  0  0  0  0  0
   -3.6880   22.7370  -31.2750 C   0  0  0  0  0  0  0  0  0  0  0  0
   -3.1140   22.1480  -32.2290 O   0  0  0  0  0  0  0  0  0  0  0  0
   -2.9590   23.1910  -30.1650 O   0  0  0  0  0  0  0  0  0  0  0  0
   -2.9610   22.6120  -28.8510 C   0  0  0  0  0  0  0  0  0  0  0  0
   -2.8460   21.0780  -28.9330 C   0  0  0  0  0  0  0  0  0  0  0  0
   -1.7320   23.1640  -28.1120 C   0  0  0  0  0  0  0  0  0  0  0  0
   -4.2310   23.0230  -28.0810 C   0  0  0  0  0  0  0  0  0  0  0  0
   -6.0340   22.0190  -31.6980 C   0  0  0  0  0  0  0  0  0  0  0  0
   -5.8280   20.7210  -32.1790 C   0  0  0  0  0  0  0  0  0  0  0  0
   -6.6902   17.8353  -32.2339 H   0  0  0  0  0  0  0  0  0  0  0  0
   -7.6553   18.2992  -33.6762 H   0  0  0  0  0  0  0  0  0  0  0  0
   -5.8736   18.5279  -33.6762 H   0  0  0  0  0  0  0  0  0  0  0  0
   -9.1369   19.8753  -32.6168 H   0  0  0  0  0  0  0  0  0  0  0  0
   -9.4435   22.1994  -31.6991 H   0  0  0  0  0  0  0  0  0  0  0  0
   -8.0010   24.4732  -30.7356 H   0  0  0  0  0  0  0  0  0  0  0  0
   -3.0860   25.2960  -30.3440 H   0  0  0  0  0  0  0  0  0  0  0  0
   -2.8145   20.6578  -27.9169 H   0  0  0  0  0  0  0  0  0  0  0  0
   -3.7163   20.6733  -29.4703 H   0  0  0  0  0  0  0  0  0  0  0  0
   -1.9251   20.8075  -29.4703 H   0  0  0  0  0  0  0  0  0  0  0  0
   -1.8937   23.0914  -27.0264 H   0  0  0  0  0  0  0  0  0  0  0  0
   -0.8433   22.5786  -28.3903 H   0  0  0  0  0  0  0  0  0  0  0  0
   -1.5792   24.2172  -28.3903 H   0  0  0  0  0  0  0  0  0  0  0  0
   -4.0401   22.9612  -26.9994 H   0  0  0  0  0  0  0  0  0  0  0  0
   -4.5032   24.0551  -28.3470 H   0  0  0  0  0  0  0  0  0  0  0  0
   -5.0562   22.3461  -28.3470 H   0  0  0  0  0  0  0  0  0  0  0  0
   -4.8112   20.3215  -32.3070 H   0  0  0  0  0  0  0  0  0  0  0  0
  1  2  1  0
  2  3  2  0
  3  4  1  0
  4  5  2  0
  5  6  1  0
  6  7  2  0
  7  8  1  0
  8  9  1  0
  8 10  2  0
  7 11  1  0
 11 12  1  0
 12 13  2  0
 12 14  1  0
 14 15  1  0
 15 16  1  0
 15 17  1  0
 15 18  1  0
 11 19  1  0
 19 20  2  0
 20  2  1  0
 19  5  1  0
  1 21  1  0
  1 22  1  0
  1 23  1  0
  3 24  1  0
  4 25  1  0
  6 26  1  0
  9 27  1  0
 16 28  1  0
 16 29  1  0
 16 30  1  0
 17 31  1  0
 17 32  1  0
 17 33  1  0
 18 34  1  0
 18 35  1  0
 18 36  1  0
 20 37  1  0
M  CHG  1   9  -1
M  END
>  <UniqueID>  (17) 
17

>  <SMILES>  (17) 
Cc1ccc2cc(C([NH-])=O)n(C(=O)OC(C)(C)C)c2c1

>  <Energy>  (17) 
70.10395307495406

>  <Genealogy>  (17) 
Cc1ccc2cc(C([NH-])=O)n(C(=O)OC(C)(C)C)c2c1 (protonated)
Cc1ccc2cc(C([NH-])=O)n(C(=O)OC(C)(C)C)c2c1 (3D coordinates assigned)
Cc1ccc2cc(C([NH-])=O)n(C(=O)OC(C)(C)C)c2c1 (optimized conformer: 70.10395307495406 kcal/mol)

>  <smiles>  (17) 
Cc1ccc2cc(C(N)=O)n(C(=O)OC(C)(C)C)c2c1

>  <score_type>  (17) 
oracle

>  <origin>  (17) 
adg

>  <m_score__min__energy>  (17) 
-10.06

>  <m_primary>  (17) 
energy

$$$$
17:0
     RDKit          3D

 43 44  0  0  0  0  0  0  0  0999 V2000
   -6.1140   16.0270  -34.1990 C   0  0  0  0  0  0  0  0  0  0  0  0
   -5.5600   17.3870  -34.6090 C   0  0  0  0  0  0  0  0  0  0  0  0
   -5.6700   18.3200  -33.5350 O   0  0  0  0  0  0  0  0  0  0  0  0
   -6.6170   18.2070  -32.5100 C   0  0  0  0  0  0  0  0  0  0  0  0
   -6.3500   17.5560  -31.4620 O   0  0  0  0  0  0  0  0  0  0  0  0
   -7.9310   18.9240  -32.6500 C   0  0  1  0  0  0  0  0  0  0  0  0
   -9.0730   18.1710  -31.9550 C   0  0  0  0  0  0  0  0  0  0  0  0
   -7.8170   20.3470  -32.1380 C   0  0  0  0  0  0  0  0  0  0  0  0
   -8.9710   21.0690  -31.7320 C   0  0  0  0  0  0  0  0  0  0  0  0
   -8.8630   22.3820  -31.2470 C   0  0  0  0  0  0  0  0  0  0  0  0
   -7.5960   22.9520  -31.1840 C   0  0  0  0  0  0  0  0  0  0  0  0
   -7.2060   24.1940  -30.7360 C   0  0  0  0  0  0  0  0  0  0  0  0
   -5.8230   24.2260  -30.8940 C   0  0  0  0  0  0  0  0  0  0  0  0
   -4.9980   25.4190  -30.6110 C   0  0  0  0  0  0  0  0  0  0  0  0
   -3.5870   25.2880  -30.4630 N   0  0  0  0  0  0  0  0  0  0  0  0
   -5.5320   26.5510  -30.4620 O   0  0  0  0  0  0  0  0  0  0  0  0
   -5.3740   23.0470  -31.4120 N   0  0  0  0  0  0  0  0  0  0  0  0
   -4.0160   22.6570  -31.6730 C   0  0  0  0  0  0  0  0  0  0  0  0
   -3.6750   22.3060  -32.8360 O   0  0  0  0  0  0  0  0  0  0  0  0
   -3.0730   22.6950  -30.6390 O   0  0  0  0  0  0  0  0  0  0  0  0
   -3.2120   21.9650  -29.4220 C   0  0  0  0  0  0  0  0  0  0  0  0
   -3.9040   22.8130  -28.3630 C   0  0  0  0  0  0  0  0  0  0  0  0
   -6.4730   22.2790  -31.5870 C   0  0  0  0  0  0  0  0  0  0  0  0
   -6.5470   20.9640  -32.0580 C   0  0  0  0  0  0  0  0  0  0  0  0
   -6.1420   15.9582  -33.1015 H   0  0  0  0  0  0  0  0  0  0  0  0
   -7.1316   15.9096  -34.5998 H   0  0  0  0  0  0  0  0  0  0  0  0
   -5.4681   15.2320  -34.5998 H   0  0  0  0  0  0  0  0  0  0  0  0
   -4.5009   17.2773  -34.8852 H   0  0  0  0  0  0  0  0  0  0  0  0
   -6.1402   17.7623  -35.4649 H   0  0  0  0  0  0  0  0  0  0  0  0
   -8.1793   18.9596  -33.7210 H   0  0  0  0  0  0  0  0  0  0  0  0
   -8.9537   18.2496  -30.8643 H   0  0  0  0  0  0  0  0  0  0  0  0
  -10.0364   18.6116  -32.2512 H   0  0  0  0  0  0  0  0  0  0  0  0
   -9.0476   17.1119  -32.2512 H   0  0  0  0  0  0  0  0  0  0  0  0
   -9.9608   20.5937  -31.7984 H   0  0  0  0  0  0  0  0  0  0  0  0
   -9.7534   22.9429  -30.9266 H   0  0  0  0  0  0  0  0  0  0  0  0
   -7.8502   24.9917  -30.3378 H   0  0  0  0  0  0  0  0  0  0  0  0
   -3.0150   24.7990  -31.1870 H   0  0  0  0  0  0  0  0  0  0  0  0
   -3.8106   21.0613  -29.6091 H   0  0  0  0  0  0  0  0  0  0  0  0
   -2.2111   21.6904  -29.0574 H   0  0  0  0  0  0  0  0  0  0  0  0
   -3.6147   22.4584  -27.3627 H   0  0  0  0  0  0  0  0  0  0  0  0
   -3.6027   23.8644  -28.4807 H   0  0  0  0  0  0  0  0  0  0  0  0
   -4.9944   22.7287  -28.4807 H   0  0  0  0  0  0  0  0  0  0  0  0
   -5.6383   20.4223  -32.3592 H   0  0  0  0  0  0  0  0  0  0  0  0
  1  2  1  0
  2  3  1  0
  3  4  1  0
  4  5  2  0
  4  6  1  0
  6  7  1  0
  6  8  1  0
  8  9  2  0
  9 10  1  0
 10 11  2  0
 11 12  1  0
 12 13  2  0
 13 14  1  0
 14 15  1  0
 14 16  2  0
 13 17  1  0
 17 18  1  0
 18 19  2  0
 18 20  1  0
 20 21  1  0
 21 22  1  0
 17 23  1  0
 23 24  2  0
 24  8  1  0
 23 11  1  0
  1 25  1  0
  1 26  1  0
  1 27  1  0
  2 28  1  0
  2 29  1  0
  6 30  1  6
  7 31  1  0
  7 32  1  0
  7 33  1  0
  9 34  1  0
 10 35  1  0
 12 36  1  0
 15 37  1  0
 21 38  1  0
 21 39  1  0
 22 40  1  0
 22 41  1  0
 22 42  1  0
 24 43  1  0
M  CHG  1  15  -1
M  END
>  <UniqueID>  (18) 
18

>  <SMILES>  (18) 
CCOC(=O)[C@@H](C)c1ccc2cc(C([NH-])=O)n(C(=O)OCC)c2c1

>  <Energy>  (18) 
71.81568704835851

>  <Genealogy>  (18) 
CCOC(=O)C(C)c1ccc2cc(C([NH-])=O)n(C(=O)OCC)c2c1 (protonated)
CCOC(=O)[C@@H](C)c1ccc2cc(C([NH-])=O)n(C(=O)OCC)c2c1 (chirality)
CCOC(=O)[C@@H](C)c1ccc2cc(C([NH-])=O)n(C(=O)OCC)c2c1 (3D coordinates assigned)
CCOC(=O)[C@@H](C)c1ccc2cc(C([NH-])=O)n(C(=O)OCC)c2c1 (optimized conformer: 71.81568704835851 kcal/mol)

>  <smiles>  (18) 
CCOC(=O)C(C)c1ccc2cc(C(N)=O)n(C(=O)OCC)c2c1

>  <score_type>  (18) 
oracle

>  <origin>  (18) 
adg

>  <m_score__min__energy>  (18) 
-10.23

>  <m_primary>  (18) 
energy

$$$$
18:0
     RDKit          3D

 52 55  0  0  0  0  0  0  0  0999 V2000
   -2.7330   21.9580  -32.2200 C   0  0  0  0  0  0  0  0  0  0  0  0
   -3.5320   22.5240  -31.0900 C   0  0  0  0  0  0  0  0  0  0  0  0
   -2.9360   22.9230  -30.0550 O   0  0  0  0  0  0  0  0  0  0  0  0
   -4.9620   22.6250  -31.1750 N   0  0  0  0  0  0  0  0  0  0  0  0
   -5.7300   23.7330  -30.9650 C   0  0  0  0  0  0  0  0  0  0  0  0
   -5.2410   25.0480  -30.4990 C   0  0  0  0  0  0  0  0  0  0  0  0
   -3.8400   25.2960  -30.4190 N   0  0  0  0  0  0  0  0  0  0  0  0
   -6.0490   25.9650  -30.1940 O   0  0  0  0  0  0  0  0  0  0  0  0
   -7.0750   23.4440  -31.1910 C   0  0  0  0  0  0  0  0  0  0  0  0
   -7.1070   22.1170  -31.5510 C   0  0  0  0  0  0  0  0  0  0  0  0
   -8.1850   21.3110  -31.9040 C   0  0  0  0  0  0  0  0  0  0  0  0
   -7.9230   19.9790  -32.2630 C   0  0  0  0  0  0  0  0  0  0  0  0
   -6.5950   19.4760  -32.2730 C   0  0  0  0  0  0  0  0  0  0  0  0
   -6.3270   18.0680  -32.6650 C   0  0  0  0  0  0  0  0  0  0  0  0
   -7.0540   17.4650  -33.7060 C   0  0  0  0  0  0  0  0  0  0  0  0
   -6.8030   16.1400  -34.0750 C   0  0  0  0  0  0  0  0  0  0  0  0
   -5.8090   15.3960  -33.4140 C   0  0  0  0  0  0  0  0  0  0  0  0
   -5.5300   14.0610  -33.7410 O   0  0  0  0  0  0  0  0  0  0  0  0
   -4.3070   13.5860  -34.2300 C   0  0  0  0  0  0  0  0  0  0  0  0
   -3.8920   12.4370  -33.9190 O   0  0  0  0  0  0  0  0  0  0  0  0
   -3.5630   14.4080  -35.1370 N   0  0  0  0  0  0  0  0  0  0  0  0
   -2.6740   15.5160  -34.7800 C   0  0  0  0  0  0  0  0  0  0  0  0
   -3.3710   16.8770  -34.9270 C   0  0  0  0  0  0  0  0  0  0  0  0
   -2.4210   18.0270  -34.5150 C   0  0  0  0  0  0  0  0  0  0  0  0
   -1.2590   17.5840  -33.8290 O   0  0  0  0  0  0  0  0  0  0  0  0
   -1.6140   16.6900  -32.7910 C   0  0  0  0  0  0  0  0  0  0  0  0
   -2.0790   15.3410  -33.3680 C   0  0  0  0  0  0  0  0  0  0  0  0
   -5.1000   15.9880  -32.3630 C   0  0  0  0  0  0  0  0  0  0  0  0
   -5.3490   17.3130  -31.9940 C   0  0  0  0  0  0  0  0  0  0  0  0
   -5.5270   20.3290  -31.9090 C   0  0  0  0  0  0  0  0  0  0  0  0
   -5.8210   21.6450  -31.5370 C   0  0  0  0  0  0  0  0  0  0  0  0
   -1.8975   21.3661  -31.8180 H   0  0  0  0  0  0  0  0  0  0  0  0
   -3.3760   21.3128  -32.8367 H   0  0  0  0  0  0  0  0  0  0  0  0
   -2.3377   22.7786  -32.8367 H   0  0  0  0  0  0  0  0  0  0  0  0
   -3.3240   25.7230  -31.2200 H   0  0  0  0  0  0  0  0  0  0  0  0
   -7.9291   24.1313  -31.1006 H   0  0  0  0  0  0  0  0  0  0  0  0
   -9.2118   21.7055  -31.9019 H   0  0  0  0  0  0  0  0  0  0  0  0
   -8.7567   19.3170  -32.5399 H   0  0  0  0  0  0  0  0  0  0  0  0
   -7.8275   18.0409  -34.2352 H   0  0  0  0  0  0  0  0  0  0  0  0
   -7.3853   15.6775  -34.8856 H   0  0  0  0  0  0  0  0  0  0  0  0
   -1.8375   15.4961  -35.4941 H   0  0  0  0  0  0  0  0  0  0  0  0
   -3.6728   17.0164  -35.9755 H   0  0  0  0  0  0  0  0  0  0  0  0
   -4.2528   16.8949  -34.2697 H   0  0  0  0  0  0  0  0  0  0  0  0
   -2.1064   18.5611  -35.4237 H   0  0  0  0  0  0  0  0  0  0  0  0
   -2.9784   18.6745  -33.8222 H   0  0  0  0  0  0  0  0  0  0  0  0
   -0.7404   16.5236  -32.1436 H   0  0  0  0  0  0  0  0  0  0  0  0
   -2.4400   17.1302  -32.2131 H   0  0  0  0  0  0  0  0  0  0  0  0
   -1.2184   14.6581  -33.4230 H   0  0  0  0  0  0  0  0  0  0  0  0
   -2.8580   14.9294  -32.7094 H   0  0  0  0  0  0  0  0  0  0  0  0
   -4.3397   15.4054  -31.8222 H   0  0  0  0  0  0  0  0  0  0  0  0
   -4.7758   17.7682  -31.1729 H   0  0  0  0  0  0  0  0  0  0  0  0
   -4.4888   19.9657  -31.9183 H   0  0  0  0  0  0  0  0  0  0  0  0
  1  2  1  0
  2  3  2  0
  2  4  1  0
  4  5  1  0
  5  6  1  0
  6  7  1  0
  6  8  2  0
  5  9  2  0
  9 10  1  0
 10 11  2  0
 11 12  1  0
 12 13  2  0
 13 14  1  0
 14 15  2  0
 15 16  1  0
 16 17  2  0
 17 18  1  0
 18 19  1  0
 19 20  2  0
 19 21  1  0
 21 22  1  0
 22 23  1  0
 23 24  1  0
 24 25  1  0
 25 26  1  0
 26 27  1  0
 17 28  1  0
 28 29  2  0
 13 30  1  0
 30 31  2  0
 31  4  1  0
 31 10  1  0
 29 14  1  0
 27 22  1  0
  1 32  1  0
  1 33  1  0
  1 34  1  0
  7 35  1  0
  9 36  1  0
 11 37  1  0
 12 38  1  0
 15 39  1  0
 16 40  1  0
 22 41  1  0
 23 42  1  0
 23 43  1  0
 24 44  1  0
 24 45  1  0
 26 46  1  0
 26 47  1  0
 27 48  1  0
 27 49  1  0
 28 50  1  0
 29 51  1  0
 30 52  1  0
M  CHG  2   7  -1  21  -1
M  END
>  <UniqueID>  (19) 
19

>  <SMILES>  (19) 
CC(=O)n1c(C([NH-])=O)cc2ccc(-c3ccc(OC(=O)[N-]C4CCOCC4)cc3)cc21

>  <Energy>  (19) 
109.68342183027468

>  <Genealogy>  (19) 
CC(=O)n1c(C([NH-])=O)cc2ccc(-c3ccc(OC(=O)[N-]C4CCOCC4)cc3)cc21 (protonated)
CC(=O)n1c(C([NH-])=O)cc2ccc(-c3ccc(OC(=O)[N-]C4CCOCC4)cc3)cc21 (3D coordinates assigned)
CC(=O)n1c(C([NH-])=O)cc2ccc(-c3ccc(OC(=O)[N-]C4CCOCC4)cc3)cc21 (nonaromatic ring conformer: 109.68342183027468 kcal/mol)

>  <smiles>  (19) 
CC(=O)n1c(C(N)=O)cc2ccc(-c3ccc(OC(=O)NC4CCOCC4)cc3)cc21

>  <score_type>  (19) 
oracle

>  <origin>  (19) 
adg

>  <m_score__min__energy>  (19) 
-10.32

>  <m_primary>  (19) 
energy

$$$$
19:0
     RDKit          3D

 50 52  0  0  0  0  0  0  0  0999 V2000
   -8.5990   19.9830  -32.2680 C   0  0  0  0  0  0  0  0  0  0  0  0
   -7.4790   19.5250  -33.1050 N   0  0  2  0  0  0  0  0  0  0  0  0
   -6.8280   18.3340  -32.5490 C   0  0  0  0  0  0  0  0  0  0  0  0
   -5.4020   18.3260  -33.0810 C   0  0  0  0  0  0  0  0  0  0  0  0
   -5.1100   19.7790  -33.4670 C   0  0  2  0  0  0  0  0  0  0  0  0
   -3.9440   20.3730  -32.6970 C   0  0  0  0  0  0  0  0  0  0  0  0
   -2.6790   19.7270  -32.6810 C   0  0  0  0  0  0  0  0  0  0  0  0
   -1.6000   20.2790  -31.9710 C   0  0  0  0  0  0  0  0  0  0  0  0
   -1.8130   21.4670  -31.2800 C   0  0  0  0  0  0  0  0  0  0  0  0
   -0.9390   22.2270  -30.5370 C   0  0  0  0  0  0  0  0  0  0  0  0
   -1.6860   23.3140  -30.0870 C   0  0  0  0  0  0  0  0  0  0  0  0
   -1.1510   24.3480  -29.1760 C   0  0  0  0  0  0  0  0  0  0  0  0
   -1.8730   25.5610  -28.9790 N   0  0  0  0  0  0  0  0  0  0  0  0
   -0.0450   24.1870  -28.5970 O   0  0  0  0  0  0  0  0  0  0  0  0
   -2.9700   23.2320  -30.5380 N   0  0  0  0  0  0  0  0  0  0  0  0
   -4.0240   24.1900  -30.3600 C   0  0  0  0  0  0  0  0  0  0  0  0
   -3.8680   25.3720  -30.7680 O   0  0  0  0  0  0  0  0  0  0  0  0
   -5.2070   23.8010  -29.7120 O   0  0  0  0  0  0  0  0  0  0  0  0
   -6.5390   23.9140  -30.2340 C   0  0  0  0  0  0  0  0  0  0  0  0
   -7.1150   25.2430  -29.7220 C   0  0  0  0  0  0  0  0  0  0  0  0
   -7.4220   22.7600  -29.7240 C   0  0  0  0  0  0  0  0  0  0  0  0
   -6.5180   23.9410  -31.7740 C   0  0  0  0  0  0  0  0  0  0  0  0
   -3.0320   22.0950  -31.2660 C   0  0  0  0  0  0  0  0  0  0  0  0
   -4.1200   21.5780  -31.9790 C   0  0  0  0  0  0  0  0  0  0  0  0
   -6.4220   20.5370  -33.2260 C   0  0  0  0  0  0  0  0  0  0  0  0
   -8.3320   19.8738  -31.2065 H   0  0  0  0  0  0  0  0  0  0  0  0
   -8.8112   21.0401  -32.4859 H   0  0  0  0  0  0  0  0  0  0  0  0
   -9.4911   19.3775  -32.4859 H   0  0  0  0  0  0  0  0  0  0  0  0
   -7.8430   19.2970  -34.0610 H   0  0  0  0  0  0  0  0  0  0  0  0
   -6.8223   18.3833  -31.4501 H   0  0  0  0  0  0  0  0  0  0  0  0
   -7.3638   17.4183  -32.8397 H   0  0  0  0  0  0  0  0  0  0  0  0
   -4.7021   17.9851  -32.3038 H   0  0  0  0  0  0  0  0  0  0  0  0
   -5.2852   17.6421  -33.9346 H   0  0  0  0  0  0  0  0  0  0  0  0
   -4.7915   19.8518  -34.5174 H   0  0  0  0  0  0  0  0  0  0  0  0
   -2.5429   18.7840  -33.2307 H   0  0  0  0  0  0  0  0  0  0  0  0
   -0.6164   19.7866  -31.9618 H   0  0  0  0  0  0  0  0  0  0  0  0
    0.1233   22.0205  -30.3401 H   0  0  0  0  0  0  0  0  0  0  0  0
   -2.8530   25.6650  -29.3250 H   0  0  0  0  0  0  0  0  0  0  0  0
   -7.1150   25.2431  -28.6220 H   0  0  0  0  0  0  0  0  0  0  0  0
   -6.4971   26.0759  -30.0887 H   0  0  0  0  0  0  0  0  0  0  0  0
   -8.1453   25.3616  -30.0887 H   0  0  0  0  0  0  0  0  0  0  0  0
   -7.4235   22.7580  -28.6240 H   0  0  0  0  0  0  0  0  0  0  0  0
   -8.4499   22.8946  -30.0919 H   0  0  0  0  0  0  0  0  0  0  0  0
   -7.0233   21.8031  -30.0919 H   0  0  0  0  0  0  0  0  0  0  0  0
   -5.8765   24.7659  -32.1175 H   0  0  0  0  0  0  0  0  0  0  0  0
   -6.1223   22.9868  -32.1521 H   0  0  0  0  0  0  0  0  0  0  0  0
   -7.5402   24.0896  -32.1521 H   0  0  0  0  0  0  0  0  0  0  0  0
   -5.0896   22.0974  -31.9806 H   0  0  0  0  0  0  0  0  0  0  0  0
   -6.3543   21.1268  -32.3000 H   0  0  0  0  0  0  0  0  0  0  0  0
   -6.6337   21.2330  -34.0511 H   0  0  0  0  0  0  0  0  0  0  0  0
  1  2  1  0
  2  3  1  0
  3  4  1  0
  4  5  1  0
  5  6  1  0
  6  7  2  0
  7  8  1  0
  8  9  2  0
  9 10  1  0
 10 11  2  0
 11 12  1  0
 12 13  1  0
 12 14  2  0
 11 15  1  0
 15 16  1  0
 16 17  2  0
 16 18  1  0
 18 19  1  0
 19 20  1  0
 19 21  1  0
 19 22  1  0
 15 23  1  0
 23 24  2  0
  5 25  1  0
 25  2  1  0
 24  6  1  0
 23  9  1  0
  1 26  1  0
  1 27  1  0
  1 28  1  0
  2 29  1  6
  3 30  1  0
  3 31  1  0
  4 32  1  0
  4 33  1  0
  5 34  1  6
  7 35  1  0
  8 36  1  0
 10 37  1  0
 13 38  1  0
 20 39  1  0
 20 40  1  0
 20 41  1  0
 21 42  1  0
 21 43  1  0
 21 44  1  0
 22 45  1  0
 22 46  1  0
 22 47  1  0
 24 48  1  0
 25 49  1  0
 25 50  1  0
M  CHG  2   2   1  13  -1
M  END
>  <UniqueID>  (20) 
20

>  <SMILES>  (20) 
C[N@@H+]1CC[C@H](c2ccc3cc(C([NH-])=O)n(C(=O)OC(C)(C)C)c3c2)C1

>  <Energy>  (20) 
88.78712098439173

>  <Genealogy>  (20) 
C[NH+]1CC[C@H](c2ccc3cc(C([NH-])=O)n(C(=O)OC(C)(C)C)c3c2)C1 (protonated)
C[N@@H+]1CC[C@H](c2ccc3cc(C([NH-])=O)n(C(=O)OC(C)(C)C)c3c2)C1 (chirality)
C[N@@H+]1CC[C@H](c2ccc3cc(C([NH-])=O)n(C(=O)OC(C)(C)C)c3c2)C1 (3D coordinates assigned)
C[N@@H+]1CC[C@H](c2ccc3cc(C([NH-])=O)n(C(=O)OC(C)(C)C)c3c2)C1 (nonaromatic ring conformer: 88.78712098439173 kcal/mol)

>  <smiles>  (20) 
CN1CC[C@H](c2ccc3cc(C(N)=O)n(C(=O)OC(C)(C)C)c3c2)C1

>  <score_type>  (20) 
oracle

>  <origin>  (20) 
adg

>  <m_score__min__energy>  (20) 
-11.050000000000001

>  <m_primary>  (20) 
energy

$$$$
20:0
     RDKit          3D

 57 59  0  0  0  0  0  0  0  0999 V2000
   -3.0610   17.3890  -34.9530 C   0  0  0  0  0  0  0  0  0  0  0  0
   -4.0610   17.2490  -33.7950 C   0  0  2  0  0  0  0  0  0  0  0  0
   -4.4120   15.7570  -33.5290 C   0  0  0  0  0  0  0  0  0  0  0  0
   -5.7560   15.3390  -34.1340 C   0  0  0  0  0  0  0  0  0  0  0  0
   -6.9280   16.1650  -33.5730 C   0  0  0  0  0  0  0  0  0  0  0  0
   -6.5320   17.6110  -33.1880 C   0  0  2  0  0  0  0  0  0  0  0  0
   -7.6880   18.5250  -33.1580 N   0  0  0  0  0  0  0  0  0  0  0  0
   -7.7810   19.8100  -32.5070 C   0  0  0  0  0  0  0  0  0  0  0  0
   -8.9760   20.2660  -31.8870 C   0  0  0  0  0  0  0  0  0  0  0  0
   -9.0160   21.5030  -31.2240 C   0  0  0  0  0  0  0  0  0  0  0  0
   -7.8540   22.2640  -31.1870 C   0  0  0  0  0  0  0  0  0  0  0  0
   -7.6120   23.4760  -30.5840 C   0  0  0  0  0  0  0  0  0  0  0  0
   -6.2770   23.7580  -30.8500 C   0  0  0  0  0  0  0  0  0  0  0  0
   -5.6150   25.0110  -30.4450 C   0  0  0  0  0  0  0  0  0  0  0  0
   -6.0070   25.6990  -29.2590 N   0  0  0  0  0  0  0  0  0  0  0  0
   -4.6510   25.4500  -31.1250 O   0  0  0  0  0  0  0  0  0  0  0  0
   -5.7070   22.7550  -31.5740 N   0  0  0  0  0  0  0  0  0  0  0  0
   -4.3200   22.6280  -31.9300 C   0  0  0  0  0  0  0  0  0  0  0  0
   -3.9920   21.9820  -32.9610 O   0  0  0  0  0  0  0  0  0  0  0  0
   -3.3440   23.2260  -31.1170 O   0  0  0  0  0  0  0  0  0  0  0  0
   -2.7120   22.6390  -29.9710 C   0  0  0  0  0  0  0  0  0  0  0  0
   -1.6710   23.6030  -29.3680 C   0  0  0  0  0  0  0  0  0  0  0  0
   -2.0570   21.2960  -30.3440 C   0  0  0  0  0  0  0  0  0  0  0  0
   -3.8130   22.3820  -28.9310 C   0  0  0  0  0  0  0  0  0  0  0  0
   -6.6900   21.8460  -31.7750 C   0  0  0  0  0  0  0  0  0  0  0  0
   -6.6170   20.6080  -32.4240 C   0  0  0  0  0  0  0  0  0  0  0  0
   -5.3110   18.1730  -33.9640 C   0  0  2  0  0  0  0  0  0  0  0  0
   -5.6080   18.4390  -35.3140 O   0  0  0  0  0  0  0  0  0  0  0  0
   -2.0482   17.5308  -34.5478 H   0  0  0  0  0  0  0  0  0  0  0  0
   -3.0849   16.4788  -35.5702 H   0  0  0  0  0  0  0  0  0  0  0  0
   -3.3339   18.2577  -35.5702 H   0  0  0  0  0  0  0  0  0  0  0  0
   -3.5669   17.6148  -32.8828 H   0  0  0  0  0  0  0  0  0  0  0  0
   -3.6213   15.1283  -33.9644 H   0  0  0  0  0  0  0  0  0  0  0  0
   -4.4881   15.6270  -32.4394 H   0  0  0  0  0  0  0  0  0  0  0  0
   -5.7130   15.4799  -35.2241 H   0  0  0  0  0  0  0  0  0  0  0  0
   -5.9305   14.2847  -33.8734 H   0  0  0  0  0  0  0  0  0  0  0  0
   -7.7187   16.2115  -34.3363 H   0  0  0  0  0  0  0  0  0  0  0  0
   -7.2667   15.6653  -32.6535 H   0  0  0  0  0  0  0  0  0  0  0  0
   -6.1713   17.5426  -32.1511 H   0  0  0  0  0  0  0  0  0  0  0  0
   -8.5930   18.1070  -33.4790 H   0  0  0  0  0  0  0  0  0  0  0  0
   -9.8809   19.6419  -31.9271 H   0  0  0  0  0  0  0  0  0  0  0  0
   -9.9410   21.8596  -30.7474 H   0  0  0  0  0  0  0  0  0  0  0  0
   -8.3231   24.0911  -30.0130 H   0  0  0  0  0  0  0  0  0  0  0  0
   -6.6830   25.2690  -28.5890 H   0  0  0  0  0  0  0  0  0  0  0  0
   -5.5600   26.6060  -29.0060 H   0  0  0  0  0  0  0  0  0  0  0  0
   -1.7210   23.5567  -28.2701 H   0  0  0  0  0  0  0  0  0  0  0  0
   -0.6643   23.3111  -29.7018 H   0  0  0  0  0  0  0  0  0  0  0  0
   -1.8848   24.6291  -29.7018 H   0  0  0  0  0  0  0  0  0  0  0  0
   -1.7909   20.7505  -29.4266 H   0  0  0  0  0  0  0  0  0  0  0  0
   -2.7634   20.6954  -30.9359 H   0  0  0  0  0  0  0  0  0  0  0  0
   -1.1489   21.4828  -30.9359 H   0  0  0  0  0  0  0  0  0  0  0  0
   -3.3921   22.4803  -27.9195 H   0  0  0  0  0  0  0  0  0  0  0  0
   -4.6218   23.1155  -29.0644 H   0  0  0  0  0  0  0  0  0  0  0  0
   -4.2135   21.3662  -29.0644 H   0  0  0  0  0  0  0  0  0  0  0  0
   -5.6694   20.2617  -32.8623 H   0  0  0  0  0  0  0  0  0  0  0  0
   -5.0586   19.1459  -33.5171 H   0  0  0  0  0  0  0  0  0  0  0  0
   -6.5480   18.7440  -35.3720 H   0  0  0  0  0  0  0  0  0  0  0  0
  1  2  1  0
  2  3  1  0
  3  4  1  0
  4  5  1  0
  5  6  1  0
  6  7  1  0
  7  8  1  0
  8  9  2  0
  9 10  1  0
 10 11  2  0
 11 12  1  0
 12 13  2  0
 13 14  1  0
 14 15  1  0
 14 16  2  0
 13 17  1  0
 17 18  1  0
 18 19  2  0
 18 20  1  0
 20 21  1  0
 21 22  1  0
 21 23  1  0
 21 24  1  0
 17 25  1  0
 25 26  2  0
  6 27  1  0
 27 28  1  0
 27  2  1  0
 26  8  1  0
 25 11  1  0
  1 29  1  0
  1 30  1  0
  1 31  1  0
  2 32  1  1
  3 33  1  0
  3 34  1  0
  4 35  1  0
  4 36  1  0
  5 37  1  0
  5 38  1  0
  6 39  1  1
  7 40  1  0
  9 41  1  0
 10 42  1  0
 12 43  1  0
 15 44  1  0
 15 45  1  0
 22 46  1  0
 22 47  1  0
 22 48  1  0
 23 49  1  0
 23 50  1  0
 23 51  1  0
 24 52  1  0
 24 53  1  0
 24 54  1  0
 26 55  1  0
 27 56  1  1
 28 57  1  0
M  END
>  <UniqueID>  (21) 
21

>  <SMILES>  (21) 
C[C@@H]1CCC[C@H](Nc2ccc3cc(C(N)=O)n(C(=O)OC(C)(C)C)c3c2)[C@@H]1O

>  <Energy>  (21) 
105.37026054591875

>  <Genealogy>  (21) 
C[C@@H]1CCC[C@H](Nc2ccc3cc(C(N)=O)n(C(=O)OC(C)(C)C)c3c2)[C@@H]1O (3D coordinates assigned)
C[C@@H]1CCC[C@H](Nc2ccc3cc(C(N)=O)n(C(=O)OC(C)(C)C)c3c2)[C@@H]1O (nonaromatic ring conformer: 105.37026054591875 kcal/mol)

>  <smiles>  (21) 
C[C@@H]1CCC[C@H](Nc2ccc3cc(C(N)=O)n(C(=O)OC(C)(C)C)c3c2)[C@@H]1O

>  <score_type>  (21) 
oracle

>  <origin>  (21) 
adg

>  <m_score__min__energy>  (21) 
-10.470000000000001

>  <m_primary>  (21) 
energy

$$$$
21:0
     RDKit          3D

 25 26  0  0  0  0  0  0  0  0999 V2000
   -3.9870   19.3300  -33.5940 C   0  0  0  0  0  0  0  0  0  0  0  0
   -4.9220   20.3730  -33.0590 C   0  0  0  0  0  0  0  0  0  0  0  0
   -6.3210   20.2280  -33.2320 C   0  0  0  0  0  0  0  0  0  0  0  0
   -7.2090   21.1710  -32.6920 C   0  0  0  0  0  0  0  0  0  0  0  0
   -6.6730   22.2440  -31.9850 C   0  0  0  0  0  0  0  0  0  0  0  0
   -7.3060   23.2740  -31.3300 C   0  0  0  0  0  0  0  0  0  0  0  0
   -6.2850   24.0420  -30.7780 C   0  0  0  0  0  0  0  0  0  0  0  0
   -6.5240   25.2950  -30.0350 C   0  0  0  0  0  0  0  0  0  0  0  0
   -5.6830   26.4350  -30.2190 N   0  0  0  0  0  0  0  0  0  0  0  0
   -7.5200   25.3800  -29.2680 O   0  0  0  0  0  0  0  0  0  0  0  0
   -5.0670   23.5030  -31.0650 N   0  0  0  0  0  0  0  0  0  0  0  0
   -3.7870   23.9340  -30.5730 C   0  0  0  0  0  0  0  0  0  0  0  0
   -2.9230   23.0920  -30.2130 O   0  0  0  0  0  0  0  0  0  0  0  0
   -3.4900   25.2890  -30.4820 O   0  0  0  0  0  0  0  0  0  0  0  0
   -5.3210   22.4020  -31.8100 C   0  0  0  0  0  0  0  0  0  0  0  0
   -4.4140   21.4640  -32.3200 C   0  0  0  0  0  0  0  0  0  0  0  0
   -3.5114   18.7994  -32.7560 H   0  0  0  0  0  0  0  0  0  0  0  0
   -4.5506   18.6132  -34.2092 H   0  0  0  0  0  0  0  0  0  0  0  0
   -3.2131   19.8122  -34.2092 H   0  0  0  0  0  0  0  0  0  0  0  0
   -6.7144   19.3686  -33.7946 H   0  0  0  0  0  0  0  0  0  0  0  0
   -8.2960   21.0656  -32.8234 H   0  0  0  0  0  0  0  0  0  0  0  0
   -8.3889   23.4529  -31.2577 H   0  0  0  0  0  0  0  0  0  0  0  0
   -4.9540   26.4510  -30.9660 H   0  0  0  0  0  0  0  0  0  0  0  0
   -5.8450   27.3010  -29.6600 H   0  0  0  0  0  0  0  0  0  0  0  0
   -3.3330   21.5745  -32.1491 H   0  0  0  0  0  0  0  0  0  0  0  0
  1  2  1  0
  2  3  2  0
  3  4  1  0
  4  5  2  0
  5  6  1  0
  6  7  2  0
  7  8  1  0
  8  9  1  0
  8 10  2  0
  7 11  1  0
 11 12  1  0
 12 13  2  0
 12 14  1  0
 11 15  1  0
 15 16  2  0
 16  2  1  0
 15  5  1  0
  1 17  1  0
  1 18  1  0
  1 19  1  0
  3 20  1  0
  4 21  1  0
  6 22  1  0
  9 23  1  0
  9 24  1  0
 16 25  1  0
M  CHG  1  14  -1
M  END
>  <UniqueID>  (22) 
22

>  <SMILES>  (22) 
Cc1ccc2cc(C(N)=O)n(C(=O)[O-])c2c1

>  <Energy>  (22) 
64.83387180691065

>  <Genealogy>  (22) 
Cc1ccc2cc(C(N)=O)n(C(=O)[O-])c2c1 (protonated)
Cc1ccc2cc(C(N)=O)n(C(=O)[O-])c2c1 (3D coordinates assigned)
Cc1ccc2cc(C(N)=O)n(C(=O)[O-])c2c1 (optimized conformer: 64.83387180691065 kcal/mol)

>  <smiles>  (22) 
Cc1ccc2cc(C(N)=O)n(C(=O)O)c2c1

>  <score_type>  (22) 
oracle

>  <origin>  (22) 
adg

>  <m_score__min__energy>  (22) 
-8.1500000000000004

>  <m_primary>  (22) 
energy

$$$$
22:0
     RDKit          3D

 32 33  0  0  0  0  0  0  0  0999 V2000
   -9.4360   21.2420  -31.2460 C   0  0  0  0  0  0  0  0  0  0  0  0
   -9.4310   22.5800  -31.9660 C   0  0  0  0  0  0  0  0  0  0  0  0
   -8.2820   23.3250  -31.5780 O   0  0  0  0  0  0  0  0  0  0  0  0
   -7.3230   22.8290  -30.6900 C   0  0  0  0  0  0  0  0  0  0  0  0
   -7.5960   22.7100  -29.4640 O   0  0  0  0  0  0  0  0  0  0  0  0
   -6.0240   22.4580  -31.1800 N   0  0  0  0  0  0  0  0  0  0  0  0
   -4.8810   23.2000  -31.1260 C   0  0  0  0  0  0  0  0  0  0  0  0
   -4.7090   24.4720  -30.3960 C   0  0  0  0  0  0  0  0  0  0  0  0
   -5.4450   24.7470  -29.2040 N   0  0  0  0  0  0  0  0  0  0  0  0
   -3.8570   25.3060  -30.8030 O   0  0  0  0  0  0  0  0  0  0  0  0
   -3.8520   22.5710  -31.8210 C   0  0  0  0  0  0  0  0  0  0  0  0
   -4.3970   21.4010  -32.2980 C   0  0  0  0  0  0  0  0  0  0  0  0
   -3.8200   20.3940  -33.0660 C   0  0  0  0  0  0  0  0  0  0  0  0
   -4.6280   19.3110  -33.4470 C   0  0  0  0  0  0  0  0  0  0  0  0
   -5.9940   19.2650  -33.0760 C   0  0  0  0  0  0  0  0  0  0  0  0
   -6.8400   18.0900  -33.4690 C   0  0  0  0  0  0  0  0  0  0  0  0
   -6.5440   20.2990  -32.2850 C   0  0  0  0  0  0  0  0  0  0  0  0
   -5.7100   21.3560  -31.9010 C   0  0  0  0  0  0  0  0  0  0  0  0
   -9.4354   21.4106  -30.1590 H   0  0  0  0  0  0  0  0  0  0  0  0
  -10.3363   20.6768  -31.5289 H   0  0  0  0  0  0  0  0  0  0  0  0
   -8.5400   20.6700  -31.5289 H   0  0  0  0  0  0  0  0  0  0  0  0
   -9.4084   22.4112  -33.0527 H   0  0  0  0  0  0  0  0  0  0  0  0
  -10.3385   23.1420  -31.7002 H   0  0  0  0  0  0  0  0  0  0  0  0
   -6.0330   24.0130  -28.7510 H   0  0  0  0  0  0  0  0  0  0  0  0
   -5.3430   25.6700  -28.7270 H   0  0  0  0  0  0  0  0  0  0  0  0
   -2.8223   22.9323  -31.9594 H   0  0  0  0  0  0  0  0  0  0  0  0
   -2.7628   20.4451  -33.3655 H   0  0  0  0  0  0  0  0  0  0  0  0
   -4.1962   18.4907  -34.0391 H   0  0  0  0  0  0  0  0  0  0  0  0
   -7.2055   17.5824  -32.5642 H   0  0  0  0  0  0  0  0  0  0  0  0
   -7.6963   18.4379  -34.0655 H   0  0  0  0  0  0  0  0  0  0  0  0
   -6.2385   17.3883  -34.0655 H   0  0  0  0  0  0  0  0  0  0  0  0
   -7.6003   20.2740  -31.9789 H   0  0  0  0  0  0  0  0  0  0  0  0
  1  2  1  0
  2  3  1  0
  3  4  1  0
  4  5  2  0
  4  6  1  0
  6  7  1  0
  7  8  1  0
  8  9  1  0
  8 10  2  0
  7 11  2  0
 11 12  1  0
 12 13  2  0
 13 14  1  0
 14 15  2  0
 15 16  1  0
 15 17  1  0
 17 18  2  0
 18  6  1  0
 18 12  1  0
  1 19  1  0
  1 20  1  0
  1 21  1  0
  2 22  1  0
  2 23  1  0
  9 24  1  0
  9 25  1  0
 11 26  1  0
 13 27  1  0
 14 28  1  0
 16 29  1  0
 16 30  1  0
 16 31  1  0
 17 32  1  0
M  END
>  <UniqueID>  (23) 
23

>  <SMILES>  (23) 
CCOC(=O)n1c(C(N)=O)cc2ccc(C)cc21

>  <Energy>  (23) 
65.54648140272248

>  <Genealogy>  (23) 
CCOC(=O)n1c(C(N)=O)cc2ccc(C)cc21 (3D coordinates assigned)
CCOC(=O)n1c(C(N)=O)cc2ccc(C)cc21 (optimized conformer: 65.54648140272248 kcal/mol)

>  <smiles>  (23) 
CCOC(=O)n1c(C(N)=O)cc2ccc(C)cc21

>  <score_type>  (23) 
oracle

>  <origin>  (23) 
adg

>  <m_score__min__energy>  (23) 
-7.7999999999999998

>  <m_primary>  (23) 
energy

$$$$
23:0
     RDKit          3D

 60 63  0  0  0  0  0  0  0  0999 V2000
    2.1430   18.8700  -37.5590 C   0  0  0  0  0  0  0  0  0  0  0  0
    2.2840   19.0420  -36.1540 O   0  0  0  0  0  0  0  0  0  0  0  0
    1.3040   19.6560  -35.3670 C   0  0  0  0  0  0  0  0  0  0  0  0
    0.1510   19.0090  -35.0510 N   0  0  0  0  0  0  0  0  0  0  0  0
   -0.7960   19.5780  -34.2990 N   0  0  0  0  0  0  0  0  0  0  0  0
   -1.9850   18.8190  -34.0120 C   0  0  0  0  0  0  0  0  0  0  0  0
   -3.2550   19.3580  -34.2440 C   0  0  0  0  0  0  0  0  0  0  0  0
   -4.4180   18.6310  -33.9430 C   0  0  0  0  0  0  0  0  0  0  0  0
   -5.7480   19.2370  -34.3210 C   0  0  0  0  0  0  0  0  0  0  0  0
   -4.3110   17.3390  -33.3550 C   0  0  0  0  0  0  0  0  0  0  0  0
   -5.5550   16.5730  -32.9140 C   0  0  0  0  0  0  0  0  0  0  0  0
   -6.3280   17.2920  -31.7910 C   0  0  0  0  0  0  0  0  0  0  0  0
   -7.6510   17.8980  -32.2670 C   0  0  0  0  0  0  0  0  0  0  0  0
   -7.7250   19.3560  -31.9020 C   0  0  0  0  0  0  0  0  0  0  0  0
   -8.9690   20.0350  -31.9350 C   0  0  0  0  0  0  0  0  0  0  0  0
   -9.0440   21.4070  -31.6440 C   0  0  0  0  0  0  0  0  0  0  0  0
   -7.8630   22.0720  -31.3290 C   0  0  0  0  0  0  0  0  0  0  0  0
   -7.6470   23.4000  -31.0400 C   0  0  0  0  0  0  0  0  0  0  0  0
   -6.2740   23.5140  -30.8270 C   0  0  0  0  0  0  0  0  0  0  0  0
   -5.6050   24.7660  -30.4060 C   0  0  0  0  0  0  0  0  0  0  0  0
   -5.8880   25.3540  -29.1350 N   0  0  0  0  0  0  0  0  0  0  0  0
   -4.7530   25.3100  -31.1580 O   0  0  0  0  0  0  0  0  0  0  0  0
   -5.6650   22.3020  -30.9760 N   0  0  0  0  0  0  0  0  0  0  0  0
   -4.2590   22.0150  -30.8990 C   0  0  0  0  0  0  0  0  0  0  0  0
   -3.3030   22.9800  -31.3330 N   0  0  0  0  0  0  0  0  0  0  0  0
   -3.8630   20.9090  -30.4450 O   0  0  0  0  0  0  0  0  0  0  0  0
   -6.6520   21.4300  -31.2850 C   0  0  0  0  0  0  0  0  0  0  0  0
   -6.5450   20.0680  -31.5890 C   0  0  0  0  0  0  0  0  0  0  0  0
   -3.0160   16.7790  -33.1590 C   0  0  0  0  0  0  0  0  0  0  0  0
   -2.8170   15.3570  -32.6860 C   0  0  0  0  0  0  0  0  0  0  0  0
   -1.8760   17.5360  -33.4730 C   0  0  0  0  0  0  0  0  0  0  0  0
   -0.6210   20.8590  -33.8430 C   0  0  0  0  0  0  0  0  0  0  0  0
   -1.5160   21.4380  -33.1700 O   0  0  0  0  0  0  0  0  0  0  0  0
    0.5230   21.5280  -34.1390 N   0  0  0  0  0  0  0  0  0  0  0  0
    1.4920   20.9500  -34.8880 C   0  0  0  0  0  0  0  0  0  0  0  0
    2.5470   21.5860  -35.1500 O   0  0  0  0  0  0  0  0  0  0  0  0
    1.4573   18.0335  -37.7590 H   0  0  0  0  0  0  0  0  0  0  0  0
    1.7368   19.7912  -38.0022 H   0  0  0  0  0  0  0  0  0  0  0  0
    3.1259   18.6524  -38.0022 H   0  0  0  0  0  0  0  0  0  0  0  0
   -3.3440   20.3685  -34.6694 H   0  0  0  0  0  0  0  0  0  0  0  0
   -6.3073   19.4919  -33.4088 H   0  0  0  0  0  0  0  0  0  0  0  0
   -5.5805   20.1477  -34.9148 H   0  0  0  0  0  0  0  0  0  0  0  0
   -6.3253   18.5130  -34.9148 H   0  0  0  0  0  0  0  0  0  0  0  0
   -6.2218   16.4553  -33.7809 H   0  0  0  0  0  0  0  0  0  0  0  0
   -5.2247   15.6003  -32.5205 H   0  0  0  0  0  0  0  0  0  0  0  0
   -6.5423   16.5660  -30.9929 H   0  0  0  0  0  0  0  0  0  0  0  0
   -5.6967   18.1196  -31.4354 H   0  0  0  0  0  0  0  0  0  0  0  0
   -7.7242   17.7943  -33.3597 H   0  0  0  0  0  0  0  0  0  0  0  0
   -8.4814   17.3667  -31.7789 H   0  0  0  0  0  0  0  0  0  0  0  0
   -9.8847   19.4818  -32.1911 H   0  0  0  0  0  0  0  0  0  0  0  0
  -10.0064   21.9393  -31.6645 H   0  0  0  0  0  0  0  0  0  0  0  0
   -8.3984   24.2017  -30.9881 H   0  0  0  0  0  0  0  0  0  0  0  0
   -6.6260   24.9640  -28.5090 H   0  0  0  0  0  0  0  0  0  0  0  0
   -5.3840   26.2170  -28.8350 H   0  0  0  0  0  0  0  0  0  0  0  0
   -3.5560   23.9900  -31.4040 H   0  0  0  0  0  0  0  0  0  0  0  0
   -5.5671   19.5644  -31.5844 H   0  0  0  0  0  0  0  0  0  0  0  0
   -2.8137   15.3335  -31.5863 H   0  0  0  0  0  0  0  0  0  0  0  0
   -3.6357   14.7269  -33.0638 H   0  0  0  0  0  0  0  0  0  0  0  0
   -1.8568   14.9759  -33.0638 H   0  0  0  0  0  0  0  0  0  0  0  0
   -0.8783   17.1101  -33.2909 H   0  0  0  0  0  0  0  0  0  0  0  0
  1  2  1  0
  2  3  1  0
  3  4  2  0
  4  5  1  0
  5  6  1  0
  6  7  2  0
  7  8  1  0
  8  9  1  0
  8 10  2  0
 10 11  1  0
 11 12  1  0
 12 13  1  0
 13 14  1  0
 14 15  2  0
 15 16  1  0
 16 17  2  0
 17 18  1  0
 18 19  2  0
 19 20  1  0
 20 21  1  0
 20 22  2  0
 19 23  1  0
 23 24  1  0
 24 25  1  0
 24 26  2  0
 23 27  1  0
 27 28  2  0
 10 29  1  0
 29 30  1  0
 29 31  2  0
  5 32  1  0
 32 33  2  0
 32 34  1  0
 34 35  1  0
 35 36  2  0
 35  3  1  0
 31  6  1  0
 28 14  1  0
 27 17  1  0
  1 37  1  0
  1 38  1  0
  1 39  1  0
  7 40  1  0
  9 41  1  0
  9 42  1  0
  9 43  1  0
 11 44  1  0
 11 45  1  0
 12 46  1  0
 12 47  1  0
 13 48  1  0
 13 49  1  0
 15 50  1  0
 16 51  1  0
 18 52  1  0
 21 53  1  0
 21 54  1  0
 25 55  1  0
 28 56  1  0
 30 57  1  0
 30 58  1  0
 30 59  1  0
 31 60  1  0
M  CHG  2  25  -1  34  -1
M  END
>  <UniqueID>  (24) 
24

>  <SMILES>  (24) 
COc1nn(-c2cc(C)c(CCCc3ccc4cc(C(N)=O)n(C([NH-])=O)c4c3)c(C)c2)c(=O)[n-]c1=O

>  <Energy>  (24) 
109.48091439315425

>  <Genealogy>  (24) 
COc1nn(-c2cc(C)c(CCCc3ccc4cc(C(N)=O)n(C([NH-])=O)c4c3)c(C)c2)c(=O)[n-]c1=O (protonated)
COc1nn(-c2cc(C)c(CCCc3ccc4cc(C(N)=O)n(C([NH-])=O)c4c3)c(C)c2)c(=O)[n-]c1=O (3D coordinates assigned)
COc1nn(-c2cc(C)c(CCCc3ccc4cc(C(N)=O)n(C([NH-])=O)c4c3)c(C)c2)c(=O)[n-]c1=O (optimized conformer: 109.48091439315425 kcal/mol)

>  <smiles>  (24) 
COc1nn(-c2cc(C)c(CCCc3ccc4cc(C(N)=O)n(C(N)=O)c4c3)c(C)c2)c(=O)[nH]c1=O

>  <score_type>  (24) 
oracle

>  <origin>  (24) 
adg

>  <m_score__min__energy>  (24) 
-10.82

>  <m_primary>  (24) 
energy

$$$$
24:0
     RDKit          3D

 66 71  0  0  0  0  0  0  0  0999 V2000
   -4.0410   25.6030  -30.6640 N   0  0  0  0  0  0  0  0  0  0  0  0
   -4.1920   24.6080  -29.6530 C   0  0  0  0  0  0  0  0  0  0  0  0
   -5.3080   24.4720  -29.0840 O   0  0  0  0  0  0  0  0  0  0  0  0
   -3.0340   23.7790  -29.2570 C   0  0  0  0  0  0  0  0  0  0  0  0
   -2.2590   24.0270  -28.1250 C   0  0  0  0  0  0  0  0  0  0  0  0
   -1.3500   22.9940  -28.0710 C   0  0  0  0  0  0  0  0  0  0  0  0
   -0.3190   22.7520  -27.1670 C   0  0  0  0  0  0  0  0  0  0  0  0
    0.4900   21.6210  -27.3780 C   0  0  0  0  0  0  0  0  0  0  0  0
    0.2550   20.7630  -28.4800 C   0  0  0  0  0  0  0  0  0  0  0  0
    1.1470   19.5730  -28.7120 C   0  0  0  0  0  0  0  0  0  0  0  0
    0.8800   18.9830  -30.0280 N   0  0  0  0  0  0  0  0  0  0  0  0
    1.0280   19.7560  -31.1080 N   0  0  0  0  0  0  0  0  0  0  0  0
    0.7910   19.3090  -32.3700 C   0  0  0  0  0  0  0  0  0  0  0  0
    0.9430   20.2680  -33.4890 C   0  0  0  0  0  0  0  0  0  0  0  0
    2.1780   20.3970  -34.1410 C   0  0  0  0  0  0  0  0  0  0  0  0
    2.3260   21.3140  -35.1840 C   0  0  0  0  0  0  0  0  0  0  0  0
    1.2400   22.1090  -35.5560 C   0  0  0  0  0  0  0  0  0  0  0  0
    0.0550   21.9900  -34.9010 N   0  0  0  0  0  0  0  0  0  0  0  0
   -0.1160   21.1020  -33.8850 C   0  0  0  0  0  0  0  0  0  0  0  0
    0.3870   17.9690  -32.5560 C   0  0  0  0  0  0  0  0  0  0  0  0
    0.2210   17.3640  -33.8990 C   0  0  0  0  0  0  0  0  0  0  0  0
   -1.0250   16.8480  -34.2990 C   0  0  0  0  0  0  0  0  0  0  0  0
   -1.1780   16.2820  -35.5680 C   0  0  0  0  0  0  0  0  0  0  0  0
   -0.0940   16.2310  -36.4480 C   0  0  0  0  0  0  0  0  0  0  0  0
    1.1450   16.7510  -36.0620 C   0  0  0  0  0  0  0  0  0  0  0  0
    1.3010   17.3200  -34.7950 C   0  0  0  0  0  0  0  0  0  0  0  0
    0.2010   17.1700  -31.4250 C   0  0  0  0  0  0  0  0  0  0  0  0
    0.4520   17.6900  -30.1570 C   0  0  0  0  0  0  0  0  0  0  0  0
    0.2910   16.9560  -29.1440 O   0  0  0  0  0  0  0  0  0  0  0  0
   -0.7920   21.0480  -29.3830 C   0  0  0  0  0  0  0  0  0  0  0  0
   -1.5910   22.1700  -29.1390 C   0  0  0  0  0  0  0  0  0  0  0  0
   -2.6190   22.6390  -29.8780 N   0  0  0  0  0  0  0  0  0  0  0  0
   -3.0800   22.0950  -31.1230 C   0  0  0  0  0  0  0  0  0  0  0  0
   -2.3070   22.0700  -32.1200 O   0  0  0  0  0  0  0  0  0  0  0  0
   -4.3980   21.6420  -31.2370 O   0  0  0  0  0  0  0  0  0  0  0  0
   -5.1360   21.6910  -32.4550 C   0  0  0  0  0  0  0  0  0  0  0  0
   -5.0480   20.3660  -33.1640 C   0  0  0  0  0  0  0  0  0  0  0  0
   -3.7910   19.7970  -33.4320 C   0  0  0  0  0  0  0  0  0  0  0  0
   -3.7000   18.5470  -34.0540 C   0  0  0  0  0  0  0  0  0  0  0  0
   -4.8620   17.8530  -34.4030 C   0  0  0  0  0  0  0  0  0  0  0  0
   -6.1160   18.4070  -34.1290 C   0  0  0  0  0  0  0  0  0  0  0  0
   -6.2110   19.6590  -33.5090 C   0  0  0  0  0  0  0  0  0  0  0  0
   -3.1570   25.6770  -31.2120 H   0  0  0  0  0  0  0  0  0  0  0  0
   -2.3536   24.8692  -27.4237 H   0  0  0  0  0  0  0  0  0  0  0  0
   -0.1427   23.4244  -26.3144 H   0  0  0  0  0  0  0  0  0  0  0  0
    1.3122   21.4010  -26.6812 H   0  0  0  0  0  0  0  0  0  0  0  0
    2.1983   19.8933  -28.6649 H   0  0  0  0  0  0  0  0  0  0  0  0
    0.9463   18.8198  -27.9358 H   0  0  0  0  0  0  0  0  0  0  0  0
    3.0308   19.7754  -33.8306 H   0  0  0  0  0  0  0  0  0  0  0  0
    3.2888   21.4090  -35.7074 H   0  0  0  0  0  0  0  0  0  0  0  0
    1.3435   22.8315  -36.3790 H   0  0  0  0  0  0  0  0  0  0  0  0
   -1.0867   21.0366  -33.3717 H   0  0  0  0  0  0  0  0  0  0  0  0
   -1.8820   16.8900  -33.6107 H   0  0  0  0  0  0  0  0  0  0  0  0
   -2.1534   15.8761  -35.8742 H   0  0  0  0  0  0  0  0  0  0  0  0
   -0.2154   15.7817  -37.4447 H   0  0  0  0  0  0  0  0  0  0  0  0
    1.9976   16.7123  -36.7559 H   0  0  0  0  0  0  0  0  0  0  0  0
    2.2753   17.7356  -34.4982 H   0  0  0  0  0  0  0  0  0  0  0  0
   -0.1434   16.1312  -31.5356 H   0  0  0  0  0  0  0  0  0  0  0  0
   -0.9748   20.4043  -30.2561 H   0  0  0  0  0  0  0  0  0  0  0  0
   -6.1897   21.9164  -32.2337 H   0  0  0  0  0  0  0  0  0  0  0  0
   -4.7145   22.4750  -33.1013 H   0  0  0  0  0  0  0  0  0  0  0  0
   -2.8746   20.3369  -33.1514 H   0  0  0  0  0  0  0  0  0  0  0  0
   -2.7135   18.1102  -34.2685 H   0  0  0  0  0  0  0  0  0  0  0  0
   -4.7898   16.8709  -34.8932 H   0  0  0  0  0  0  0  0  0  0  0  0
   -7.0298   17.8584  -34.4010 H   0  0  0  0  0  0  0  0  0  0  0  0
   -7.1995   20.0898  -33.2916 H   0  0  0  0  0  0  0  0  0  0  0  0
  1  2  1  0
  2  3  2  0
  2  4  1  0
  4  5  2  0
  5  6  1  0
  6  7  2  0
  7  8  1  0
  8  9  2  0
  9 10  1  0
 10 11  1  0
 11 12  1  0
 12 13  2  0
 13 14  1  0
 14 15  2  0
 15 16  1  0
 16 17  2  0
 17 18  1  0
 18 19  2  0
 13 20  1  0
 20 21  1  0
 21 22  2  0
 22 23  1  0
 23 24  2  0
 24 25  1  0
 25 26  2  0
 20 27  2  0
 27 28  1  0
 28 29  2  0
  9 30  1  0
 30 31  2  0
 31 32  1  0
 32 33  1  0
 33 34  2  0
 33 35  1  0
 35 36  1  0
 36 37  1  0
 37 38  2  0
 38 39  1  0
 39 40  2  0
 40 41  1  0
 41 42  2  0
 32  4  1  0
 42 37  1  0
 31  6  1  0
 28 11  1  0
 19 14  1  0
 26 21  1  0
  1 43  1  0
  5 44  1  0
  7 45  1  0
  8 46  1  0
 10 47  1  0
 10 48  1  0
 15 49  1  0
 16 50  1  0
 17 51  1  0
 19 52  1  0
 22 53  1  0
 23 54  1  0
 24 55  1  0
 25 56  1  0
 26 57  1  0
 27 58  1  0
 30 59  1  0
 36 60  1  0
 36 61  1  0
 38 62  1  0
 39 63  1  0
 40 64  1  0
 41 65  1  0
 42 66  1  0
M  CHG  1   1  -1
M  END
>  <UniqueID>  (25) 
25

>  <SMILES>  (25) 
[NH-]C(=O)c1cc2ccc(Cn3nc(-c4cccnc4)c(-c4ccccc4)cc3=O)cc2n1C(=O)OCc1ccccc1

>  <Energy>  (25) 
124.69441163962422

>  <Genealogy>  (25) 
[NH-]C(=O)c1cc2ccc(Cn3nc(-c4cccnc4)c(-c4ccccc4)cc3=O)cc2n1C(=O)OCc1ccccc1 (protonated)
[NH-]C(=O)c1cc2ccc(Cn3nc(-c4cccnc4)c(-c4ccccc4)cc3=O)cc2n1C(=O)OCc1ccccc1 (3D coordinates assigned)
[NH-]C(=O)c1cc2ccc(Cn3nc(-c4cccnc4)c(-c4ccccc4)cc3=O)cc2n1C(=O)OCc1ccccc1 (optimized conformer: 124.69441163962422 kcal/mol)

>  <smiles>  (25) 
NC(=O)c1cc2ccc(Cn3nc(-c4cccnc4)c(-c4ccccc4)cc3=O)cc2n1C(=O)OCc1ccccc1

>  <score_type>  (25) 
oracle

>  <origin>  (25) 
adg

>  <m_score__min__energy>  (25) 
-13.69

>  <m_primary>  (25) 
energy

$$$$
25:0
     RDKit          3D

 50 52  0  0  0  0  0  0  0  0999 V2000
   -8.7120   19.1270  -31.2420 C   0  0  0  0  0  0  0  0  0  0  0  0
   -8.3090   20.5160  -31.7550 C   0  0  0  0  0  0  0  0  0  0  0  0
   -9.5520   21.4230  -31.7730 C   0  0  0  0  0  0  0  0  0  0  0  0
   -7.7170   20.3710  -33.1690 C   0  0  0  0  0  0  0  0  0  0  0  0
   -7.3260   21.0310  -30.8470 O   0  0  0  0  0  0  0  0  0  0  0  0
   -6.6830   22.2750  -30.9310 C   0  0  0  0  0  0  0  0  0  0  0  0
   -7.3230   23.3480  -30.7750 O   0  0  0  0  0  0  0  0  0  0  0  0
   -5.2720   22.3190  -31.1870 N   0  0  0  0  0  0  0  0  0  0  0  0
   -4.3960   23.3110  -30.8630 C   0  0  0  0  0  0  0  0  0  0  0  0
   -4.7500   24.6280  -30.2940 C   0  0  0  0  0  0  0  0  0  0  0  0
   -5.7060   24.7500  -29.2390 N   0  0  0  0  0  0  0  0  0  0  0  0
   -4.2420   25.6700  -30.7860 O   0  0  0  0  0  0  0  0  0  0  0  0
   -3.0930   22.9410  -31.1850 C   0  0  0  0  0  0  0  0  0  0  0  0
   -3.1990   21.6830  -31.7340 C   0  0  0  0  0  0  0  0  0  0  0  0
   -2.2110   20.8330  -32.2200 C   0  0  0  0  0  0  0  0  0  0  0  0
   -2.6030   19.5730  -32.7010 C   0  0  0  0  0  0  0  0  0  0  0  0
   -3.9660   19.1770  -32.6770 C   0  0  0  0  0  0  0  0  0  0  0  0
   -4.3670   17.8360  -33.1740 C   0  0  0  0  0  0  0  0  0  0  0  0
   -3.7880   17.3000  -34.3420 C   0  0  0  0  0  0  0  0  0  0  0  0
   -4.1710   16.0390  -34.8090 C   0  0  0  0  0  0  0  0  0  0  0  0
   -5.1300   15.2980  -34.1150 C   0  0  0  0  0  0  0  0  0  0  0  0
   -5.7390   13.7120  -34.5320 S   0  0  0  0  0  0  0  0  0  0  0  0
   -0.2810   18.1520  -31.2130 F   0  0  0  0  0  0  0  0  0  0  0  0
   -2.0070   14.7350  -33.2760 F   0  0  0  0  0  0  0  0  0  0  0  0
   -0.9530   16.9350  -31.9510 F   0  0  0  0  0  0  0  0  0  0  0  0
   -1.2540   15.8160  -35.8760 F   0  0  0  0  0  0  0  0  0  0  0  0
    0.8850   19.8910  -30.7080 F   0  0  0  0  0  0  0  0  0  0  0  0
   -5.7080   15.8150  -32.9560 C   0  0  0  0  0  0  0  0  0  0  0  0
   -5.3330   17.0780  -32.4850 C   0  0  0  0  0  0  0  0  0  0  0  0
   -4.9400   20.0700  -32.1710 C   0  0  0  0  0  0  0  0  0  0  0  0
   -4.5220   21.3280  -31.7210 C   0  0  0  0  0  0  0  0  0  0  0  0
   -8.7117   19.1281  -30.1420 H   0  0  0  0  0  0  0  0  0  0  0  0
   -9.7192   18.8789  -31.6081 H   0  0  0  0  0  0  0  0  0  0  0  0
   -7.9940   18.3784  -31.6081 H   0  0  0  0  0  0  0  0  0  0  0  0
   -9.8580   21.6463  -30.7403 H   0  0  0  0  0  0  0  0  0  0  0  0
   -9.3139   22.3611  -32.2958 H   0  0  0  0  0  0  0  0  0  0  0  0
  -10.3727   20.9100  -32.2958 H   0  0  0  0  0  0  0  0  0  0  0  0
   -6.6510   20.1099  -33.0952 H   0  0  0  0  0  0  0  0  0  0  0  0
   -8.2522   19.5774  -33.7110 H   0  0  0  0  0  0  0  0  0  0  0  0
   -7.8249   21.3221  -33.7110 H   0  0  0  0  0  0  0  0  0  0  0  0
   -6.2790   23.9340  -28.9320 H   0  0  0  0  0  0  0  0  0  0  0  0
   -5.9000   25.6840  -28.8160 H   0  0  0  0  0  0  0  0  0  0  0  0
   -2.1753   23.5282  -31.0332 H   0  0  0  0  0  0  0  0  0  0  0  0
   -1.1543   21.1385  -32.2274 H   0  0  0  0  0  0  0  0  0  0  0  0
   -1.8443   18.8844  -33.1013 H   0  0  0  0  0  0  0  0  0  0  0  0
   -3.0293   17.8780  -34.8901 H   0  0  0  0  0  0  0  0  0  0  0  0
   -3.7167   15.6303  -35.7236 H   0  0  0  0  0  0  0  0  0  0  0  0
   -6.4613   15.2279  -32.4102 H   0  0  0  0  0  0  0  0  0  0  0  0
   -5.7952   17.4808  -31.5717 H   0  0  0  0  0  0  0  0  0  0  0  0
   -6.0010   19.7824  -32.1321 H   0  0  0  0  0  0  0  0  0  0  0  0
  1  2  1  0
  2  3  1  0
  2  4  1  0
  2  5  1  0
  5  6  1  0
  6  7  2  0
  6  8  1  0
  8  9  1  0
  9 10  1  0
 10 11  1  0
 10 12  2  0
  9 13  2  0
 13 14  1  0
 14 15  2  0
 15 16  1  0
 16 17  2  0
 17 18  1  0
 18 19  2  0
 19 20  1  0
 20 21  2  0
 21 22  1  0
 22 23  1  0
 22 24  1  0
 22 25  1  0
 22 26  1  0
 22 27  1  0
 21 28  1  0
 28 29  2  0
 17 30  1  0
 30 31  2  0
 31  8  1  0
 31 14  1  0
 29 18  1  0
  1 32  1  0
  1 33  1  0
  1 34  1  0
  3 35  1  0
  3 36  1  0
  3 37  1  0
  4 38  1  0
  4 39  1  0
  4 40  1  0
 11 41  1  0
 11 42  1  0
 13 43  1  0
 15 44  1  0
 16 45  1  0
 19 46  1  0
 20 47  1  0
 28 48  1  0
 29 49  1  0
 30 50  1  0
M  END
>  <UniqueID>  (26) 
26

>  <SMILES>  (26) 
CC(C)(C)OC(=O)n1c(C(N)=O)cc2ccc(-c3ccc(S(F)(F)(F)(F)F)cc3)cc21

>  <Energy>  (26) 
82.88503800827571

>  <Genealogy>  (26) 
CC(C)(C)OC(=O)n1c(C(N)=O)cc2ccc(-c3ccc(S(F)(F)(F)(F)F)cc3)cc21 (3D coordinates assigned)
CC(C)(C)OC(=O)n1c(C(N)=O)cc2ccc(-c3ccc(S(F)(F)(F)(F)F)cc3)cc21 (optimized conformer: 82.88503800827571 kcal/mol)

>  <smiles>  (26) 
CC(C)(C)OC(=O)n1c(C(N)=O)cc2ccc(-c3ccc(S(F)(F)(F)(F)F)cc3)cc21

>  <score_type>  (26) 
oracle

>  <origin>  (26) 
adg

>  <m_score__min__energy>  (26) 
-9.3000000000000007

>  <m_primary>  (26) 
energy

$$$$
26:0
     RDKit          3D

 54 56  0  0  0  0  0  0  0  0999 V2000
    1.1340   23.5340  -35.8140 C   0  0  0  0  0  0  0  0  0  0  0  0
    0.2610   22.6060  -35.2130 O   0  0  0  0  0  0  0  0  0  0  0  0
    0.2320   21.4210  -35.9750 C   0  0  0  0  0  0  0  0  0  0  0  0
    0.4940   20.2110  -35.0720 C   0  0  0  0  0  0  0  0  0  0  0  0
   -0.7380   19.8550  -34.3220 N   0  0  0  0  0  0  0  0  0  0  0  0
   -0.5990   20.1390  -32.8740 C   0  0  0  0  0  0  0  0  0  0  0  0
   -1.1560   21.5250  -32.5460 C   0  0  0  0  0  0  0  0  0  0  0  0
   -2.0740   21.9030  -33.5310 O   0  0  0  0  0  0  0  0  0  0  0  0
   -1.1290   18.4430  -34.5500 C   0  0  0  0  0  0  0  0  0  0  0  0
   -2.5940   18.2720  -34.2520 C   0  0  0  0  0  0  0  0  0  0  0  0
   -3.2500   17.0940  -34.6440 C   0  0  0  0  0  0  0  0  0  0  0  0
   -4.6170   16.9410  -34.4120 C   0  0  0  0  0  0  0  0  0  0  0  0
   -5.3470   17.9670  -33.8080 C   0  0  0  0  0  0  0  0  0  0  0  0
   -4.7170   19.1680  -33.4290 C   0  0  0  0  0  0  0  0  0  0  0  0
   -5.5090   20.2860  -32.8490 C   0  0  0  0  0  0  0  0  0  0  0  0
   -6.9280   20.2790  -32.9110 C   0  0  0  0  0  0  0  0  0  0  0  0
   -7.6810   21.3120  -32.3300 C   0  0  0  0  0  0  0  0  0  0  0  0
   -6.9960   22.3470  -31.7040 C   0  0  0  0  0  0  0  0  0  0  0  0
   -7.4770   23.4560  -31.0450 C   0  0  0  0  0  0  0  0  0  0  0  0
   -6.3470   24.1510  -30.6180 C   0  0  0  0  0  0  0  0  0  0  0  0
   -6.3970   25.4660  -29.9460 C   0  0  0  0  0  0  0  0  0  0  0  0
   -5.5150   26.5220  -30.3390 N   0  0  0  0  0  0  0  0  0  0  0  0
   -7.2000   25.6600  -28.9950 O   0  0  0  0  0  0  0  0  0  0  0  0
   -5.2110   23.4950  -30.9940 N   0  0  0  0  0  0  0  0  0  0  0  0
   -3.8510   23.8650  -30.7060 C   0  0  0  0  0  0  0  0  0  0  0  0
   -2.9720   22.9790  -30.5330 O   0  0  0  0  0  0  0  0  0  0  0  0
   -3.4900   25.2060  -30.6090 O   0  0  0  0  0  0  0  0  0  0  0  0
   -5.6270   22.3920  -31.6570 C   0  0  0  0  0  0  0  0  0  0  0  0
   -4.8530   21.3630  -32.2030 C   0  0  0  0  0  0  0  0  0  0  0  0
   -3.3310   19.3040  -33.6460 C   0  0  0  0  0  0  0  0  0  0  0  0
    1.6644   24.0978  -35.0325 H   0  0  0  0  0  0  0  0  0  0  0  0
    1.8638   22.9990  -36.4394 H   0  0  0  0  0  0  0  0  0  0  0  0
    0.5555   24.2298  -36.4394 H   0  0  0  0  0  0  0  0  0  0  0  0
   -0.7557   21.3158  -36.4476 H   0  0  0  0  0  0  0  0  0  0  0  0
    1.0123   21.4699  -36.7487 H   0  0  0  0  0  0  0  0  0  0  0  0
    0.8027   19.3556  -35.6909 H   0  0  0  0  0  0  0  0  0  0  0  0
    1.2902   20.4628  -34.3560 H   0  0  0  0  0  0  0  0  0  0  0  0
   -1.1533   19.3809  -32.3012 H   0  0  0  0  0  0  0  0  0  0  0  0
    0.4675   20.1107  -32.6059 H   0  0  0  0  0  0  0  0  0  0  0  0
   -1.6585   21.4963  -31.5679 H   0  0  0  0  0  0  0  0  0  0  0  0
   -0.3322   22.2532  -32.5134 H   0  0  0  0  0  0  0  0  0  0  0  0
   -1.5940   21.8400  -34.3990 H   0  0  0  0  0  0  0  0  0  0  0  0
   -0.9346   18.1738  -35.5987 H   0  0  0  0  0  0  0  0  0  0  0  0
   -0.5422   17.7893  -33.8879 H   0  0  0  0  0  0  0  0  0  0  0  0
   -2.6840   16.2891  -35.1357 H   0  0  0  0  0  0  0  0  0  0  0  0
   -5.1218   16.0089  -34.7058 H   0  0  0  0  0  0  0  0  0  0  0  0
   -6.4240   17.8358  -33.6267 H   0  0  0  0  0  0  0  0  0  0  0  0
   -7.4444   19.4526  -33.4214 H   0  0  0  0  0  0  0  0  0  0  0  0
   -8.7803   21.3025  -32.3691 H   0  0  0  0  0  0  0  0  0  0  0  0
   -8.5297   23.7344  -30.8887 H   0  0  0  0  0  0  0  0  0  0  0  0
   -5.5300   27.4350  -29.8350 H   0  0  0  0  0  0  0  0  0  0  0  0
   -4.8790   26.4160  -31.1590 H   0  0  0  0  0  0  0  0  0  0  0  0
   -3.7556   21.3893  -32.1322 H   0  0  0  0  0  0  0  0  0  0  0  0
   -2.8204   20.2282  -33.3376 H   0  0  0  0  0  0  0  0  0  0  0  0
  1  2  1  0
  2  3  1  0
  3  4  1  0
  4  5  1  0
  5  6  1  0
  6  7  1  0
  7  8  1  0
  5  9  1  0
  9 10  1  0
 10 11  2  0
 11 12  1  0
 12 13  2  0
 13 14  1  0
 14 15  1  0
 15 16  2  0
 16 17  1  0
 17 18  2  0
 18 19  1  0
 19 20  2  0
 20 21  1  0
 21 22  1  0
 21 23  2  0
 20 24  1  0
 24 25  1  0
 25 26  2  0
 25 27  1  0
 24 28  1  0
 28 29  2  0
 14 30  2  0
 30 10  1  0
 29 15  1  0
 28 18  1  0
  1 31  1  0
  1 32  1  0
  1 33  1  0
  3 34  1  0
  3 35  1  0
  4 36  1  0
  4 37  1  0
  6 38  1  0
  6 39  1  0
  7 40  1  0
  7 41  1  0
  8 42  1  0
  9 43  1  0
  9 44  1  0
 11 45  1  0
 12 46  1  0
 13 47  1  0
 16 48  1  0
 17 49  1  0
 19 50  1  0
 22 51  1  0
 22 52  1  0
 29 53  1  0
 30 54  1  0
M  CHG  1  27  -1
M  END
>  <UniqueID>  (27) 
27

>  <SMILES>  (27) 
COCCN(CCO)Cc1cccc(-c2ccc3cc(C(N)=O)n(C(=O)[O-])c3c2)c1

>  <Energy>  (27) 
100.15278919728068

>  <Genealogy>  (27) 
COCCN(CCO)Cc1cccc(-c2ccc3cc(C(N)=O)n(C(=O)[O-])c3c2)c1 (protonated)
COCCN(CCO)Cc1cccc(-c2ccc3cc(C(N)=O)n(C(=O)[O-])c3c2)c1 (3D coordinates assigned)
COCCN(CCO)Cc1cccc(-c2ccc3cc(C(N)=O)n(C(=O)[O-])c3c2)c1 (optimized conformer: 100.15278919728068 kcal/mol)

>  <smiles>  (27) 
COCCN(CCO)Cc1cccc(-c2ccc3cc(C(N)=O)n(C(=O)O)c3c2)c1

>  <score_type>  (27) 
oracle

>  <origin>  (27) 
adg

>  <m_score__min__energy>  (27) 
-10.109999999999999

>  <m_primary>  (27) 
energy

$$$$
27:0
     RDKit          3D

 47 49  0  0  0  0  0  0  0  0999 V2000
   -5.4100   14.2400  -34.0980 C   0  0  0  0  0  0  0  0  0  0  0  0
   -5.6600   15.6540  -33.6650 C   0  0  0  0  0  0  0  0  0  0  0  0
   -6.1590   16.5940  -34.5760 C   0  0  0  0  0  0  0  0  0  0  0  0
   -6.4290   17.9030  -34.1650 C   0  0  0  0  0  0  0  0  0  0  0  0
   -6.2140   18.2900  -32.8300 C   0  0  0  0  0  0  0  0  0  0  0  0
   -6.4950   19.6810  -32.3940 C   0  0  0  0  0  0  0  0  0  0  0  0
   -7.8320   20.1510  -32.3030 C   0  0  0  0  0  0  0  0  0  0  0  0
   -8.1090   21.4620  -31.8810 C   0  0  0  0  0  0  0  0  0  0  0  0
   -7.0330   22.2860  -31.5640 C   0  0  0  0  0  0  0  0  0  0  0  0
   -7.0160   23.5840  -31.1080 C   0  0  0  0  0  0  0  0  0  0  0  0
   -5.6690   23.9020  -30.9500 C   0  0  0  0  0  0  0  0  0  0  0  0
   -5.1900   25.2440  -30.5550 C   0  0  0  0  0  0  0  0  0  0  0  0
   -3.8700   25.6760  -30.8730 N   0  0  0  0  0  0  0  0  0  0  0  0
   -5.9740   26.0390  -29.9700 O   0  0  0  0  0  0  0  0  0  0  0  0
   -4.8850   22.8390  -31.2850 N   0  0  0  0  0  0  0  0  0  0  0  0
   -3.4570   22.7250  -31.1830 C   0  0  0  0  0  0  0  0  0  0  0  0
   -2.8080   22.1600  -32.1030 O   0  0  0  0  0  0  0  0  0  0  0  0
   -2.8030   23.2740  -30.0690 O   0  0  0  0  0  0  0  0  0  0  0  0
   -2.7820   22.7310  -28.7410 C   0  0  0  0  0  0  0  0  0  0  0  0
   -3.8960   23.4320  -27.9490 C   0  0  0  0  0  0  0  0  0  0  0  0
   -3.0670   21.2160  -28.7690 C   0  0  0  0  0  0  0  0  0  0  0  0
   -1.4310   23.0190  -28.0610 C   0  0  0  0  0  0  0  0  0  0  0  0
   -5.7340   21.8590  -31.6610 C   0  0  0  0  0  0  0  0  0  0  0  0
   -5.4300   20.5520  -32.0600 C   0  0  0  0  0  0  0  0  0  0  0  0
   -5.7300   17.3370  -31.9160 C   0  0  0  0  0  0  0  0  0  0  0  0
   -5.4620   16.0290  -32.3290 C   0  0  0  0  0  0  0  0  0  0  0  0
   -5.2968   13.5995  -33.2109 H   0  0  0  0  0  0  0  0  0  0  0  0
   -6.2594   13.8854  -34.7003 H   0  0  0  0  0  0  0  0  0  0  0  0
   -4.4905   14.1981  -34.7003 H   0  0  0  0  0  0  0  0  0  0  0  0
   -6.3395   16.3007  -35.6207 H   0  0  0  0  0  0  0  0  0  0  0  0
   -6.8123   18.6352  -34.8909 H   0  0  0  0  0  0  0  0  0  0  0  0
   -8.6622   19.4792  -32.5666 H   0  0  0  0  0  0  0  0  0  0  0  0
   -9.1441   21.8260  -31.8035 H   0  0  0  0  0  0  0  0  0  0  0  0
   -7.8820   24.2328  -30.9102 H   0  0  0  0  0  0  0  0  0  0  0  0
   -3.0420   25.2840  -30.3720 H   0  0  0  0  0  0  0  0  0  0  0  0
   -3.7093   23.3145  -26.8713 H   0  0  0  0  0  0  0  0  0  0  0  0
   -3.9098   24.5019  -28.2043 H   0  0  0  0  0  0  0  0  0  0  0  0
   -4.8665   22.9816  -28.2043 H   0  0  0  0  0  0  0  0  0  0  0  0
   -3.1383   20.8372  -27.7387 H   0  0  0  0  0  0  0  0  0  0  0  0
   -4.0157   21.0310  -29.2941 H   0  0  0  0  0  0  0  0  0  0  0  0
   -2.2504   20.6989  -29.2941 H   0  0  0  0  0  0  0  0  0  0  0  0
   -1.5572   22.9921  -26.9686 H   0  0  0  0  0  0  0  0  0  0  0  0
   -0.6980   22.2569  -28.3643 H   0  0  0  0  0  0  0  0  0  0  0  0
   -1.0725   24.0137  -28.3643 H   0  0  0  0  0  0  0  0  0  0  0  0
   -4.3861   20.2091  -32.1129 H   0  0  0  0  0  0  0  0  0  0  0  0
   -5.5610   17.6234  -30.8675 H   0  0  0  0  0  0  0  0  0  0  0  0
   -5.0939   15.2901  -31.6020 H   0  0  0  0  0  0  0  0  0  0  0  0
  1  2  1  0
  2  3  2  0
  3  4  1  0
  4  5  2  0
  5  6  1  0
  6  7  2  0
  7  8  1  0
  8  9  2  0
  9 10  1  0
 10 11  2  0
 11 12  1  0
 12 13  1  0
 12 14  2  0
 11 15  1  0
 15 16  1  0
 16 17  2  0
 16 18  1  0
 18 19  1  0
 19 20  1  0
 19 21  1  0
 19 22  1  0
 15 23  1  0
 23 24  2  0
  5 25  1  0
 25 26  2  0
 26  2  1  0
 24  6  1  0
 23  9  1  0
  1 27  1  0
  1 28  1  0
  1 29  1  0
  3 30  1  0
  4 31  1  0
  7 32  1  0
  8 33  1  0
 10 34  1  0
 13 35  1  0
 20 36  1  0
 20 37  1  0
 20 38  1  0
 21 39  1  0
 21 40  1  0
 21 41  1  0
 22 42  1  0
 22 43  1  0
 22 44  1  0
 24 45  1  0
 25 46  1  0
 26 47  1  0
M  CHG  1  13  -1
M  END
>  <UniqueID>  (28) 
28

>  <SMILES>  (28) 
Cc1ccc(-c2ccc3cc(C([NH-])=O)n(C(=O)OC(C)(C)C)c3c2)cc1

>  <Energy>  (28) 
87.58045454382449

>  <Genealogy>  (28) 
Cc1ccc(-c2ccc3cc(C([NH-])=O)n(C(=O)OC(C)(C)C)c3c2)cc1 (protonated)
Cc1ccc(-c2ccc3cc(C([NH-])=O)n(C(=O)OC(C)(C)C)c3c2)cc1 (3D coordinates assigned)
Cc1ccc(-c2ccc3cc(C([NH-])=O)n(C(=O)OC(C)(C)C)c3c2)cc1 (optimized conformer: 87.58045454382449 kcal/mol)

>  <smiles>  (28) 
Cc1ccc(-c2ccc3cc(C(N)=O)n(C(=O)OC(C)(C)C)c3c2)cc1

>  <score_type>  (28) 
oracle

>  <origin>  (28) 
adg

>  <m_score__min__energy>  (28) 
-11.26

>  <m_primary>  (28) 
energy

$$$$
28:0
     RDKit          3D

 42 44  0  0  0  0  0  0  0  0999 V2000
   -3.4730   22.2890  -28.7060 C   0  0  0  0  0  0  0  0  0  0  0  0
   -2.8490   22.9290  -29.8740 N   0  0  0  0  0  0  0  0  0  0  0  0
   -1.3930   22.7070  -29.8710 C   0  0  0  0  0  0  0  0  0  0  0  0
   -3.4490   22.4200  -31.0860 C   0  0  0  0  0  0  0  0  0  0  0  0
   -2.7490   21.7960  -31.9310 O   0  0  0  0  0  0  0  0  0  0  0  0
   -4.8640   22.5510  -31.3050 N   0  0  0  0  0  0  0  0  0  0  0  0
   -5.6630   23.6080  -30.9840 C   0  0  0  0  0  0  0  0  0  0  0  0
   -5.2120   24.9030  -30.4280 C   0  0  0  0  0  0  0  0  0  0  0  0
   -3.8450   25.3000  -30.4940 N   0  0  0  0  0  0  0  0  0  0  0  0
   -6.0540   25.6830  -29.9080 O   0  0  0  0  0  0  0  0  0  0  0  0
   -6.9910   23.3260  -31.2950 C   0  0  0  0  0  0  0  0  0  0  0  0
   -6.9820   22.0540  -31.8190 C   0  0  0  0  0  0  0  0  0  0  0  0
   -8.0330   21.2670  -32.2790 C   0  0  0  0  0  0  0  0  0  0  0  0
   -7.7370   19.9730  -32.7370 C   0  0  0  0  0  0  0  0  0  0  0  0
   -6.4040   19.4820  -32.7180 C   0  0  0  0  0  0  0  0  0  0  0  0
   -6.1040   18.1080  -33.1930 C   0  0  0  0  0  0  0  0  0  0  0  0
   -4.7780   17.7120  -33.4450 C   0  0  0  0  0  0  0  0  0  0  0  0
   -4.4960   16.4190  -33.8930 C   0  0  0  0  0  0  0  0  0  0  0  0
   -5.5330   15.4930  -34.1010 C   0  0  0  0  0  0  0  0  0  0  0  0
   -5.2380   14.1230  -34.5770 C   0  0  0  0  0  0  0  0  0  0  0  0
   -6.1700   13.3010  -34.7800 O   0  0  0  0  0  0  0  0  0  0  0  0
   -3.9260   13.7240  -34.8070 O   0  0  0  0  0  0  0  0  0  0  0  0
   -6.8570   15.8860  -33.8490 C   0  0  0  0  0  0  0  0  0  0  0  0
   -7.1390   17.1800  -33.3990 C   0  0  0  0  0  0  0  0  0  0  0  0
   -5.3650   20.3150  -32.2400 C   0  0  0  0  0  0  0  0  0  0  0  0
   -5.6870   21.6060  -31.8110 C   0  0  0  0  0  0  0  0  0  0  0  0
   -3.0536   22.7191  -27.7845 H   0  0  0  0  0  0  0  0  0  0  0  0
   -4.5591   22.4616  -28.7300 H   0  0  0  0  0  0  0  0  0  0  0  0
   -3.2730   21.2076  -28.7300 H   0  0  0  0  0  0  0  0  0  0  0  0
   -3.0230   23.9590  -29.8050 H   0  0  0  0  0  0  0  0  0  0  0  0
   -1.0326   22.6521  -28.8332 H   0  0  0  0  0  0  0  0  0  0  0  0
   -1.1649   21.7637  -30.3888 H   0  0  0  0  0  0  0  0  0  0  0  0
   -0.8941   23.5395  -30.3888 H   0  0  0  0  0  0  0  0  0  0  0  0
   -3.5230   26.0000  -31.1990 H   0  0  0  0  0  0  0  0  0  0  0  0
   -7.8626   23.9816  -31.1519 H   0  0  0  0  0  0  0  0  0  0  0  0
   -9.0652   21.6471  -32.2838 H   0  0  0  0  0  0  0  0  0  0  0  0
   -8.5469   19.3318  -33.1150 H   0  0  0  0  0  0  0  0  0  0  0  0
   -3.9563   18.4262  -33.2881 H   0  0  0  0  0  0  0  0  0  0  0  0
   -3.4540   16.1232  -34.0845 H   0  0  0  0  0  0  0  0  0  0  0  0
   -7.6783   15.1714  -34.0065 H   0  0  0  0  0  0  0  0  0  0  0  0
   -8.1810   17.4741  -33.2045 H   0  0  0  0  0  0  0  0  0  0  0  0
   -4.3263   19.9546  -32.2067 H   0  0  0  0  0  0  0  0  0  0  0  0
  1  2  1  0
  2  3  1  0
  2  4  1  0
  4  5  2  0
  4  6  1  0
  6  7  1  0
  7  8  1  0
  8  9  1  0
  8 10  2  0
  7 11  2  0
 11 12  1  0
 12 13  2  0
 13 14  1  0
 14 15  2  0
 15 16  1  0
 16 17  2  0
 17 18  1  0
 18 19  2  0
 19 20  1  0
 20 21  2  0
 20 22  1  0
 19 23  1  0
 23 24  2  0
 15 25  1  0
 25 26  2  0
 26  6  1  0
 26 12  1  0
 24 16  1  0
  1 27  1  0
  1 28  1  0
  1 29  1  0
  2 30  1  0
  3 31  1  0
  3 32  1  0
  3 33  1  0
  9 34  1  0
 11 35  1  0
 13 36  1  0
 14 37  1  0
 17 38  1  0
 18 39  1  0
 23 40  1  0
 24 41  1  0
 25 42  1  0
M  CHG  3   2   1   9  -1  22  -1
M  END
>  <UniqueID>  (29) 
29

>  <SMILES>  (29) 
C[NH+](C)C(=O)n1c(C([NH-])=O)cc2ccc(-c3ccc(C(=O)[O-])cc3)cc21

>  <Energy>  (29) 
90.56579179161861

>  <Genealogy>  (29) 
C[NH+](C)C(=O)n1c(C([NH-])=O)cc2ccc(-c3ccc(C(=O)[O-])cc3)cc21 (protonated)
C[NH+](C)C(=O)n1c(C([NH-])=O)cc2ccc(-c3ccc(C(=O)[O-])cc3)cc21 (3D coordinates assigned)
C[NH+](C)C(=O)n1c(C([NH-])=O)cc2ccc(-c3ccc(C(=O)[O-])cc3)cc21 (optimized conformer: 90.56579179161861 kcal/mol)

>  <smiles>  (29) 
CN(C)C(=O)n1c(C(N)=O)cc2ccc(-c3ccc(C(=O)O)cc3)cc21

>  <score_type>  (29) 
oracle

>  <origin>  (29) 
adg

>  <m_score__min__energy>  (29) 
-9.6400000000000006

>  <m_primary>  (29) 
energy

$$$$
29:0
     RDKit          3D

 54 56  0  0  0  0  0  0  0  0999 V2000
   -8.2220   12.4000  -33.9830 C   0  0  0  0  0  0  0  0  0  0  0  0
   -7.4490   13.3330  -34.8680 C   0  0  0  0  0  0  0  0  0  0  0  0
   -8.0530   13.8970  -35.8200 O   0  0  0  0  0  0  0  0  0  0  0  0
   -6.0460   13.5980  -34.6480 N   0  0  0  0  0  0  0  0  0  0  0  0
   -5.0810   12.4990  -34.7450 C   0  0  0  0  0  0  0  0  0  0  0  0
   -5.5940   14.8880  -34.2010 C   0  0  0  0  0  0  0  0  0  0  0  0
   -4.2620   15.0730  -33.8060 C   0  0  0  0  0  0  0  0  0  0  0  0
   -3.8220   16.3250  -33.3670 C   0  0  0  0  0  0  0  0  0  0  0  0
   -4.7090   17.4140  -33.3110 C   0  0  0  0  0  0  0  0  0  0  0  0
   -4.2440   18.7450  -32.8470 C   0  0  0  0  0  0  0  0  0  0  0  0
   -2.8570   19.0510  -32.8130 C   0  0  0  0  0  0  0  0  0  0  0  0
   -2.4090   20.3100  -32.3800 C   0  0  0  0  0  0  0  0  0  0  0  0
   -3.3620   21.2410  -31.9800 C   0  0  0  0  0  0  0  0  0  0  0  0
   -3.2060   22.5350  -31.5390 C   0  0  0  0  0  0  0  0  0  0  0  0
   -4.4950   22.9980  -31.2880 C   0  0  0  0  0  0  0  0  0  0  0  0
   -4.7810   24.3260  -30.7060 C   0  0  0  0  0  0  0  0  0  0  0  0
   -3.7400   25.2760  -30.4950 N   0  0  0  0  0  0  0  0  0  0  0  0
   -5.9700   24.6440  -30.4340 O   0  0  0  0  0  0  0  0  0  0  0  0
   -5.4140   22.0310  -31.5730 N   0  0  0  0  0  0  0  0  0  0  0  0
   -6.8450   22.1260  -31.5210 C   0  0  0  0  0  0  0  0  0  0  0  0
   -7.4140   23.1950  -31.8680 O   0  0  0  0  0  0  0  0  0  0  0  0
   -7.5920   21.0100  -31.1130 O   0  0  0  0  0  0  0  0  0  0  0  0
   -8.5180   20.2660  -31.9160 C   0  0  0  0  0  0  0  0  0  0  0  0
   -8.6920   18.8930  -31.2490 C   0  0  0  0  0  0  0  0  0  0  0  0
   -9.8850   20.9760  -31.9640 C   0  0  0  0  0  0  0  0  0  0  0  0
   -7.9610   20.0600  -33.3370 C   0  0  0  0  0  0  0  0  0  0  0  0
   -4.7030   20.9610  -31.9900 C   0  0  0  0  0  0  0  0  0  0  0  0
   -5.1800   19.7230  -32.4360 C   0  0  0  0  0  0  0  0  0  0  0  0
   -6.0470   17.2220  -33.7010 C   0  0  0  0  0  0  0  0  0  0  0  0
   -6.4850   15.9690  -34.1380 C   0  0  0  0  0  0  0  0  0  0  0  0
   -8.0206   12.6430  -32.9293 H   0  0  0  0  0  0  0  0  0  0  0  0
   -9.2977   12.5095  -34.1855 H   0  0  0  0  0  0  0  0  0  0  0  0
   -7.9144   11.3635  -34.1855 H   0  0  0  0  0  0  0  0  0  0  0  0
   -4.7943   12.1725  -33.7344 H   0  0  0  0  0  0  0  0  0  0  0  0
   -5.5371   11.6573  -35.2867 H   0  0  0  0  0  0  0  0  0  0  0  0
   -4.1873   12.8425  -35.2867 H   0  0  0  0  0  0  0  0  0  0  0  0
   -3.5587   14.2279  -33.8417 H   0  0  0  0  0  0  0  0  0  0  0  0
   -2.7734   16.4591  -33.0630 H   0  0  0  0  0  0  0  0  0  0  0  0
   -2.1253   18.2931  -33.1295 H   0  0  0  0  0  0  0  0  0  0  0  0
   -1.3363   20.5525  -32.3579 H   0  0  0  0  0  0  0  0  0  0  0  0
   -2.2629   23.0867  -31.4117 H   0  0  0  0  0  0  0  0  0  0  0  0
   -3.5090   25.9910  -31.2190 H   0  0  0  0  0  0  0  0  0  0  0  0
   -8.6769   19.0120  -30.1556 H   0  0  0  0  0  0  0  0  0  0  0  0
   -9.6529   18.4549  -31.5569 H   0  0  0  0  0  0  0  0  0  0  0  0
   -7.8708   18.2291  -31.5569 H   0  0  0  0  0  0  0  0  0  0  0  0
  -10.2389   21.1598  -30.9388 H   0  0  0  0  0  0  0  0  0  0  0  0
   -9.7819   21.9345  -32.4937 H   0  0  0  0  0  0  0  0  0  0  0  0
  -10.6099   20.3404  -32.4937 H   0  0  0  0  0  0  0  0  0  0  0  0
   -6.9309   19.6790  -33.2754 H   0  0  0  0  0  0  0  0  0  0  0  0
   -8.5887   19.3345  -33.8753 H   0  0  0  0  0  0  0  0  0  0  0  0
   -7.9656   21.0193  -33.8753 H   0  0  0  0  0  0  0  0  0  0  0  0
   -6.2597   19.5149  -32.4663 H   0  0  0  0  0  0  0  0  0  0  0  0
   -6.7535   18.0642  -33.6617 H   0  0  0  0  0  0  0  0  0  0  0  0
   -7.5351   15.8298  -34.4344 H   0  0  0  0  0  0  0  0  0  0  0  0
  1  2  1  0
  2  3  2  0
  2  4  1  0
  4  5  1  0
  4  6  1  0
  6  7  2  0
  7  8  1  0
  8  9  2  0
  9 10  1  0
 10 11  2  0
 11 12  1  0
 12 13  2  0
 13 14  1  0
 14 15  2  0
 15 16  1  0
 16 17  1  0
 16 18  2  0
 15 19  1  0
 19 20  1  0
 20 21  2  0
 20 22  1  0
 22 23  1  0
 23 24  1  0
 23 25  1  0
 23 26  1  0
 19 27  1  0
 27 28  2  0
  9 29  1  0
 29 30  2  0
 30  6  1  0
 28 10  1  0
 27 13  1  0
  1 31  1  0
  1 32  1  0
  1 33  1  0
  5 34  1  0
  5 35  1  0
  5 36  1  0
  7 37  1  0
  8 38  1  0
 11 39  1  0
 12 40  1  0
 14 41  1  0
 17 42  1  0
 24 43  1  0
 24 44  1  0
 24 45  1  0
 25 46  1  0
 25 47  1  0
 25 48  1  0
 26 49  1  0
 26 50  1  0
 26 51  1  0
 28 52  1  0
 29 53  1  0
 30 54  1  0
M  CHG  1  17  -1
M  END
>  <UniqueID>  (30) 
30

>  <SMILES>  (30) 
CC(=O)N(C)c1ccc(-c2ccc3cc(C([NH-])=O)n(C(=O)OC(C)(C)C)c3c2)cc1

>  <Energy>  (30) 
99.3476218567227

>  <Genealogy>  (30) 
CC(=O)N(C)c1ccc(-c2ccc3cc(C([NH-])=O)n(C(=O)OC(C)(C)C)c3c2)cc1 (protonated)
CC(=O)N(C)c1ccc(-c2ccc3cc(C([NH-])=O)n(C(=O)OC(C)(C)C)c3c2)cc1 (3D coordinates assigned)
CC(=O)N(C)c1ccc(-c2ccc3cc(C([NH-])=O)n(C(=O)OC(C)(C)C)c3c2)cc1 (optimized conformer: 99.3476218567227 kcal/mol)

>  <smiles>  (30) 
CC(=O)N(C)c1ccc(-c2ccc3cc(C(N)=O)n(C(=O)OC(C)(C)C)c3c2)cc1

>  <score_type>  (30) 
oracle

>  <origin>  (30) 
adg

>  <m_score__min__energy>  (30) 
-11.27

>  <m_primary>  (30) 
energy

$$$$
30:0
     RDKit          3D

 46 48  0  0  0  0  0  0  0  0999 V2000
   -1.7360   25.3150  -29.3330 N   0  0  0  0  0  0  0  0  0  0  0  0
   -1.4480   23.9280  -29.1790 C   0  0  0  0  0  0  0  0  0  0  0  0
   -0.8000   23.5420  -28.1690 O   0  0  0  0  0  0  0  0  0  0  0  0
   -1.9430   22.9330  -30.1550 C   0  0  0  0  0  0  0  0  0  0  0  0
   -1.1780   21.8610  -30.6090 C   0  0  0  0  0  0  0  0  0  0  0  0
   -2.0150   21.1380  -31.4280 C   0  0  0  0  0  0  0  0  0  0  0  0
   -1.7680   19.9790  -32.1600 C   0  0  0  0  0  0  0  0  0  0  0  0
   -2.8080   19.4680  -32.9540 C   0  0  0  0  0  0  0  0  0  0  0  0
   -4.0660   20.1200  -33.0030 C   0  0  0  0  0  0  0  0  0  0  0  0
   -5.1610   19.5890  -33.8900 C   0  0  0  0  0  0  0  0  0  0  0  0
   -5.3010   18.0640  -33.7830 C   0  0  0  0  0  0  0  0  0  0  0  0
   -6.4320   17.6440  -32.8350 C   0  0  0  0  0  0  0  0  0  0  0  0
   -6.4340   18.4720  -31.6860 O   0  0  0  0  0  0  0  0  0  0  0  0
   -7.6340   19.2180  -31.5940 C   0  0  1  0  0  0  0  0  0  0  0  0
   -7.2870   20.7050  -31.7870 C   0  0  0  0  0  0  0  0  0  0  0  0
   -8.5420   21.5790  -31.6530 C   0  0  0  0  0  0  0  0  0  0  0  0
   -9.8160   20.8070  -32.0180 C   0  0  0  0  0  0  0  0  0  0  0  0
   -9.5000   19.6940  -33.0290 C   0  0  0  0  0  0  0  0  0  0  0  0
   -8.5590   18.7310  -32.5660 O   0  0  0  0  0  0  0  0  0  0  0  0
   -4.2770   21.2970  -32.2510 C   0  0  0  0  0  0  0  0  0  0  0  0
   -3.2290   21.7730  -31.4540 C   0  0  0  0  0  0  0  0  0  0  0  0
   -3.2010   22.8800  -30.6780 N   0  0  0  0  0  0  0  0  0  0  0  0
   -4.2590   23.8390  -30.5260 C   0  0  0  0  0  0  0  0  0  0  0  0
   -4.0410   25.2090  -30.8560 N   0  0  0  0  0  0  0  0  0  0  0  0
   -5.3840   23.4760  -30.0890 O   0  0  0  0  0  0  0  0  0  0  0  0
   -2.7120   25.6730  -29.2490 H   0  0  0  0  0  0  0  0  0  0  0  0
   -0.1285   21.6396  -30.3649 H   0  0  0  0  0  0  0  0  0  0  0  0
   -0.7889   19.4794  -32.1176 H   0  0  0  0  0  0  0  0  0  0  0  0
   -2.6449   18.5535  -33.5432 H   0  0  0  0  0  0  0  0  0  0  0  0
   -6.1132   20.0543  -33.5955 H   0  0  0  0  0  0  0  0  0  0  0  0
   -4.9029   19.8337  -34.9309 H   0  0  0  0  0  0  0  0  0  0  0  0
   -5.5100   17.6577  -34.7836 H   0  0  0  0  0  0  0  0  0  0  0  0
   -4.3587   17.6691  -33.3755 H   0  0  0  0  0  0  0  0  0  0  0  0
   -7.3969   17.7395  -33.3544 H   0  0  0  0  0  0  0  0  0  0  0  0
   -6.2756   16.5996  -32.5270 H   0  0  0  0  0  0  0  0  0  0  0  0
   -8.1137   19.1072  -30.6103 H   0  0  0  0  0  0  0  0  0  0  0  0
   -6.5543   21.0064  -31.0239 H   0  0  0  0  0  0  0  0  0  0  0  0
   -6.8680   20.8416  -32.7948 H   0  0  0  0  0  0  0  0  0  0  0  0
   -8.6231   21.9284  -30.6131 H   0  0  0  0  0  0  0  0  0  0  0  0
   -8.4445   22.4257  -32.3484 H   0  0  0  0  0  0  0  0  0  0  0  0
  -10.2411   20.3591  -31.1077 H   0  0  0  0  0  0  0  0  0  0  0  0
  -10.5370   21.5040  -32.4701 H   0  0  0  0  0  0  0  0  0  0  0  0
  -10.4374   19.1713  -33.2700 H   0  0  0  0  0  0  0  0  0  0  0  0
   -9.0457   20.1828  -33.9035 H   0  0  0  0  0  0  0  0  0  0  0  0
   -5.2405   21.8263  -32.2906 H   0  0  0  0  0  0  0  0  0  0  0  0
   -3.0820   25.6180  -30.8410 H   0  0  0  0  0  0  0  0  0  0  0  0
  1  2  1  0
  2  3  2  0
  2  4  1  0
  4  5  2  0
  5  6  1  0
  6  7  2  0
  7  8  1  0
  8  9  2  0
  9 10  1  0
 10 11  1  0
 11 12  1  0
 12 13  1  0
 13 14  1  0
 14 15  1  0
 15 16  1  0
 16 17  1  0
 17 18  1  0
 18 19  1  0
  9 20  1  0
 20 21  2  0
 21 22  1  0
 22 23  1  0
 23 24  1  0
 23 25  2  0
 22  4  1  0
 21  6  1  0
 19 14  1  0
  1 26  1  0
  5 27  1  0
  7 28  1  0
  8 29  1  0
 10 30  1  0
 10 31  1  0
 11 32  1  0
 11 33  1  0
 12 34  1  0
 12 35  1  0
 14 36  1  1
 15 37  1  0
 15 38  1  0
 16 39  1  0
 16 40  1  0
 17 41  1  0
 17 42  1  0
 18 43  1  0
 18 44  1  0
 20 45  1  0
 24 46  1  0
M  CHG  2   1  -1  24  -1
M  END
>  <UniqueID>  (31) 
31

>  <SMILES>  (31) 
[NH-]C(=O)c1cc2ccc(CCCO[C@H]3CCCCO3)cc2n1C([NH-])=O

>  <Energy>  (31) 
94.35319463661058

>  <Genealogy>  (31) 
[NH-]C(=O)c1cc2ccc(CCCOC3CCCCO3)cc2n1C([NH-])=O (protonated)
[NH-]C(=O)c1cc2ccc(CCCO[C@H]3CCCCO3)cc2n1C([NH-])=O (chirality)
[NH-]C(=O)c1cc2ccc(CCCO[C@H]3CCCCO3)cc2n1C([NH-])=O (3D coordinates assigned)
[NH-]C(=O)c1cc2ccc(CCCO[C@H]3CCCCO3)cc2n1C([NH-])=O (nonaromatic ring conformer: 94.35319463661058 kcal/mol)

>  <smiles>  (31) 
NC(=O)c1cc2ccc(CCCOC3CCCCO3)cc2n1C(N)=O

>  <score_type>  (31) 
oracle

>  <origin>  (31) 
adg

>  <m_score__min__energy>  (31) 
-11.720000000000001

>  <m_primary>  (31) 
energy

$$$$
31:0
     RDKit          3D

 36 38  0  0  0  0  0  0  0  0999 V2000
   -3.5250   25.1080  -30.4770 N   0  0  0  0  0  0  0  0  0  0  0  0
   -4.9300   25.2050  -30.6830 C   0  0  0  0  0  0  0  0  0  0  0  0
   -5.4750   26.3410  -30.6880 O   0  0  0  0  0  0  0  0  0  0  0  0
   -5.7500   23.9990  -30.9320 C   0  0  0  0  0  0  0  0  0  0  0  0
   -7.0890   23.8890  -30.5590 C   0  0  0  0  0  0  0  0  0  0  0  0
   -7.4990   22.6610  -31.0260 C   0  0  0  0  0  0  0  0  0  0  0  0
   -8.7360   22.0320  -30.9280 C   0  0  0  0  0  0  0  0  0  0  0  0
   -8.8670   20.7480  -31.4820 C   0  0  0  0  0  0  0  0  0  0  0  0
   -7.7620   20.1120  -32.1020 C   0  0  0  0  0  0  0  0  0  0  0  0
   -7.9240   18.7490  -32.7180 C   0  0  0  0  0  0  0  0  0  0  0  0
   -6.5900   18.2260  -33.1820 C   0  0  0  0  0  0  0  0  0  0  0  0
   -6.1050   18.5760  -34.4530 C   0  0  0  0  0  0  0  0  0  0  0  0
   -4.8510   18.1260  -34.8800 C   0  0  0  0  0  0  0  0  0  0  0  0
   -4.0690   17.3320  -34.0390 C   0  0  0  0  0  0  0  0  0  0  0  0
   -2.8530   16.8970  -34.4530 F   0  0  0  0  0  0  0  0  0  0  0  0
   -4.5380   16.9860  -32.7680 C   0  0  0  0  0  0  0  0  0  0  0  0
   -5.7910   17.4330  -32.3350 C   0  0  0  0  0  0  0  0  0  0  0  0
   -6.2210   17.0920  -31.0940 F   0  0  0  0  0  0  0  0  0  0  0  0
   -6.5230   20.7840  -32.1870 C   0  0  0  0  0  0  0  0  0  0  0  0
   -6.4280   22.0720  -31.6490 C   0  0  0  0  0  0  0  0  0  0  0  0
   -5.3490   22.8820  -31.6010 N   0  0  0  0  0  0  0  0  0  0  0  0
   -4.0350   22.5740  -32.0930 C   0  0  0  0  0  0  0  0  0  0  0  0
   -3.8330   22.2690  -33.4720 N   0  0  0  0  0  0  0  0  0  0  0  0
   -3.0540   22.5640  -31.3020 O   0  0  0  0  0  0  0  0  0  0  0  0
   -2.8970   24.7290  -31.2210 H   0  0  0  0  0  0  0  0  0  0  0  0
   -7.6903   24.6273  -30.0082 H   0  0  0  0  0  0  0  0  0  0  0  0
   -9.5851   22.5249  -30.4320 H   0  0  0  0  0  0  0  0  0  0  0  0
   -9.8366   20.2307  -31.4343 H   0  0  0  0  0  0  0  0  0  0  0  0
   -8.3443   18.0601  -31.9705 H   0  0  0  0  0  0  0  0  0  0  0  0
   -8.6005   18.8238  -33.5822 H   0  0  0  0  0  0  0  0  0  0  0  0
   -6.7145   19.2074  -35.1162 H   0  0  0  0  0  0  0  0  0  0  0  0
   -4.4808   18.3981  -35.8795 H   0  0  0  0  0  0  0  0  0  0  0  0
   -3.9201   16.3607  -32.1068 H   0  0  0  0  0  0  0  0  0  0  0  0
   -5.6543   20.3068  -32.6642 H   0  0  0  0  0  0  0  0  0  0  0  0
   -4.6230   22.3340  -34.1510 H   0  0  0  0  0  0  0  0  0  0  0  0
   -2.8830   22.0150  -33.8220 H   0  0  0  0  0  0  0  0  0  0  0  0
  1  2  1  0
  2  3  2  0
  2  4  1  0
  4  5  2  0
  5  6  1  0
  6  7  2  0
  7  8  1  0
  8  9  2  0
  9 10  1  0
 10 11  1  0
 11 12  2  0
 12 13  1  0
 13 14  2  0
 14 15  1  0
 14 16  1  0
 16 17  2  0
 17 18  1  0
  9 19  1  0
 19 20  2  0
 20 21  1  0
 21 22  1  0
 22 23  1  0
 22 24  2  0
 21  4  1  0
 20  6  1  0
 17 11  1  0
  1 25  1  0
  5 26  1  0
  7 27  1  0
  8 28  1  0
 10 29  1  0
 10 30  1  0
 12 31  1  0
 13 32  1  0
 16 33  1  0
 19 34  1  0
 23 35  1  0
 23 36  1  0
M  CHG  1   1  -1
M  END
>  <UniqueID>  (32) 
32

>  <SMILES>  (32) 
[NH-]C(=O)c1cc2ccc(Cc3ccc(F)cc3F)cc2n1C(N)=O

>  <Energy>  (32) 
76.13667640340802

>  <Genealogy>  (32) 
[NH-]C(=O)c1cc2ccc(Cc3ccc(F)cc3F)cc2n1C(N)=O (protonated)
[NH-]C(=O)c1cc2ccc(Cc3ccc(F)cc3F)cc2n1C(N)=O (3D coordinates assigned)
[NH-]C(=O)c1cc2ccc(Cc3ccc(F)cc3F)cc2n1C(N)=O (optimized conformer: 76.13667640340802 kcal/mol)

>  <smiles>  (32) 
NC(=O)c1cc2ccc(Cc3ccc(F)cc3F)cc2n1C(N)=O

>  <score_type>  (32) 
oracle

>  <origin>  (32) 
adg

>  <m_score__min__energy>  (32) 
-11.279999999999999

>  <m_primary>  (32) 
energy

$$$$
32:0
     RDKit          3D

 50 53  0  0  0  0  0  0  0  0999 V2000
   -8.5270   19.9090  -32.1450 C   0  0  0  0  0  0  0  0  0  0  0  0
   -8.7690   21.3980  -31.8750 C   0  0  0  0  0  0  0  0  0  0  0  0
   -9.8410   21.5970  -30.7980 C   0  0  0  0  0  0  0  0  0  0  0  0
   -7.4770   22.1010  -31.5010 C   0  0  0  0  0  0  0  0  0  0  0  0
   -7.1910   22.4320  -30.1640 C   0  0  0  0  0  0  0  0  0  0  0  0
   -5.9910   23.0660  -29.8300 C   0  0  0  0  0  0  0  0  0  0  0  0
   -5.0480   23.3770  -30.8240 C   0  0  0  0  0  0  0  0  0  0  0  0
   -3.7640   24.0230  -30.4640 C   0  0  0  0  0  0  0  0  0  0  0  0
   -3.6680   25.2800  -30.4780 O   0  0  0  0  0  0  0  0  0  0  0  0
   -2.6240   23.2390  -30.0770 N   0  0  0  0  0  0  0  0  0  0  0  0
   -1.7130   23.5150  -29.1020 C   0  0  0  0  0  0  0  0  0  0  0  0
   -1.6340   24.7670  -28.3200 C   0  0  0  0  0  0  0  0  0  0  0  0
   -1.3450   26.0120  -28.9510 N   0  0  0  0  0  0  0  0  0  0  0  0
   -1.7930   24.7330  -27.0710 O   0  0  0  0  0  0  0  0  0  0  0  0
   -0.8050   22.4650  -28.9740 C   0  0  0  0  0  0  0  0  0  0  0  0
   -1.1930   21.5300  -29.9070 C   0  0  0  0  0  0  0  0  0  0  0  0
   -0.6500   20.2870  -30.2130 C   0  0  0  0  0  0  0  0  0  0  0  0
   -1.2680   19.5260  -31.2200 C   0  0  0  0  0  0  0  0  0  0  0  0
   -2.4180   20.0110  -31.8980 C   0  0  0  0  0  0  0  0  0  0  0  0
   -3.0600   19.2080  -32.9680 C   0  0  0  0  0  0  0  0  0  0  0  0
   -2.4390   18.4090  -33.9200 C   0  0  0  0  0  0  0  0  0  0  0  0
   -3.3720   17.8660  -34.7260 N   0  0  0  0  0  0  0  0  0  0  0  0
   -4.5550   18.2860  -34.3080 N   0  0  0  0  0  0  0  0  0  0  0  0
   -5.8110   17.9690  -34.9720 C   0  0  0  0  0  0  0  0  0  0  0  0
   -4.4100   19.1080  -33.2540 C   0  0  0  0  0  0  0  0  0  0  0  0
   -2.9450   21.2760  -31.5460 C   0  0  0  0  0  0  0  0  0  0  0  0
   -2.2950   22.0190  -30.5550 C   0  0  0  0  0  0  0  0  0  0  0  0
   -5.3420   23.0610  -32.1620 C   0  0  0  0  0  0  0  0  0  0  0  0
   -6.5410   22.4260  -32.4950 C   0  0  0  0  0  0  0  0  0  0  0  0
   -8.4398   19.3724  -31.1887 H   0  0  0  0  0  0  0  0  0  0  0  0
   -9.3703   19.4988  -32.7200 H   0  0  0  0  0  0  0  0  0  0  0  0
   -7.5972   19.7870  -32.7200 H   0  0  0  0  0  0  0  0  0  0  0  0
   -9.1414   21.8532  -32.8045 H   0  0  0  0  0  0  0  0  0  0  0  0
   -9.3809   21.5116  -29.8025 H   0  0  0  0  0  0  0  0  0  0  0  0
  -10.2918   22.5942  -30.9092 H   0  0  0  0  0  0  0  0  0  0  0  0
  -10.6197   20.8281  -30.9092 H   0  0  0  0  0  0  0  0  0  0  0  0
   -7.9179   22.1898  -29.3747 H   0  0  0  0  0  0  0  0  0  0  0  0
   -5.7833   23.3234  -28.7809 H   0  0  0  0  0  0  0  0  0  0  0  0
   -1.2330   26.0760  -29.9870 H   0  0  0  0  0  0  0  0  0  0  0  0
    0.0421   22.3978  -28.2755 H   0  0  0  0  0  0  0  0  0  0  0  0
    0.2370   19.9105  -29.6826 H   0  0  0  0  0  0  0  0  0  0  0  0
   -0.8556   18.5417  -31.4866 H   0  0  0  0  0  0  0  0  0  0  0  0
   -1.3544   18.2453  -34.0027 H   0  0  0  0  0  0  0  0  0  0  0  0
   -6.5861   17.7734  -34.2163 H   0  0  0  0  0  0  0  0  0  0  0  0
   -6.1178   18.8179  -35.6007 H   0  0  0  0  0  0  0  0  0  0  0  0
   -5.6782   17.0762  -35.6007 H   0  0  0  0  0  0  0  0  0  0  0  0
   -5.2235   19.6134  -32.7129 H   0  0  0  0  0  0  0  0  0  0  0  0
   -3.8463   21.6667  -32.0409 H   0  0  0  0  0  0  0  0  0  0  0  0
   -4.6218   23.3159  -32.9534 H   0  0  0  0  0  0  0  0  0  0  0  0
   -6.7533   22.1785  -33.5456 H   0  0  0  0  0  0  0  0  0  0  0  0
  1  2  1  0
  2  3  1  0
  2  4  1  0
  4  5  2  0
  5  6  1  0
  6  7  2  0
  7  8  1  0
  8  9  2  0
  8 10  1  0
 10 11  1  0
 11 12  1  0
 12 13  1  0
 12 14  2  0
 11 15  2  0
 15 16  1  0
 16 17  2  0
 17 18  1  0
 18 19  2  0
 19 20  1  0
 20 21  1  0
 21 22  2  0
 22 23  1  0
 23 24  1  0
 23 25  1  0
 19 26  1  0
 26 27  2  0
  7 28  1  0
 28 29  2  0
 29  4  1  0
 27 10  1  0
 27 16  1  0
 25 20  2  0
  1 30  1  0
  1 31  1  0
  1 32  1  0
  2 33  1  0
  3 34  1  0
  3 35  1  0
  3 36  1  0
  5 37  1  0
  6 38  1  0
 13 39  1  0
 15 40  1  0
 17 41  1  0
 18 42  1  0
 21 43  1  0
 24 44  1  0
 24 45  1  0
 24 46  1  0
 25 47  1  0
 26 48  1  0
 28 49  1  0
 29 50  1  0
M  CHG  1  13  -1
M  END
>  <UniqueID>  (33) 
33

>  <SMILES>  (33) 
CC(C)c1ccc(C(=O)n2c(C([NH-])=O)cc3ccc(-c4cnn(C)c4)cc32)cc1

>  <Energy>  (33) 
121.8858684083177

>  <Genealogy>  (33) 
CC(C)c1ccc(C(=O)n2c(C([NH-])=O)cc3ccc(-c4cnn(C)c4)cc32)cc1 (protonated)
CC(C)c1ccc(C(=O)n2c(C([NH-])=O)cc3ccc(-c4cnn(C)c4)cc32)cc1 (3D coordinates assigned)
CC(C)c1ccc(C(=O)n2c(C([NH-])=O)cc3ccc(-c4cnn(C)c4)cc32)cc1 (optimized conformer: 121.8858684083177 kcal/mol)

>  <smiles>  (33) 
CC(C)c1ccc(C(=O)n2c(C(N)=O)cc3ccc(-c4cnn(C)c4)cc32)cc1

>  <score_type>  (33) 
oracle

>  <origin>  (33) 
adg

>  <m_score__min__energy>  (33) 
-12.300000000000001

>  <m_primary>  (33) 
energy

$$$$
33:0
     RDKit          3D

 31 32  0  0  0  0  0  0  0  0999 V2000
   -1.9700   25.2920  -29.3440 N   0  0  0  0  0  0  0  0  0  0  0  0
   -1.7230   23.8900  -29.3100 C   0  0  0  0  0  0  0  0  0  0  0  0
   -0.9040   23.4280  -28.4710 O   0  0  0  0  0  0  0  0  0  0  0  0
   -2.4500   22.9650  -30.2050 C   0  0  0  0  0  0  0  0  0  0  0  0
   -1.9010   21.7830  -30.6960 C   0  0  0  0  0  0  0  0  0  0  0  0
   -2.9100   21.1800  -31.4110 C   0  0  0  0  0  0  0  0  0  0  0  0
   -2.9080   19.9880  -32.1300 C   0  0  0  0  0  0  0  0  0  0  0  0
   -4.0840   19.6250  -32.8070 C   0  0  0  0  0  0  0  0  0  0  0  0
   -5.2330   20.4540  -32.7520 C   0  0  0  0  0  0  0  0  0  0  0  0
   -6.4700   20.0790  -33.5230 C   0  0  0  0  0  0  0  0  0  0  0  0
   -7.4980   19.4140  -32.5970 C   0  0  0  0  0  0  0  0  0  0  0  0
   -8.8840   20.0480  -32.7300 C   0  0  0  0  0  0  0  0  0  0  0  0
   -9.0860   21.5740  -31.5460 Br  0  0  0  0  0  0  0  0  0  0  0  0
   -5.1930   21.6630  -32.0230 C   0  0  0  0  0  0  0  0  0  0  0  0
   -4.0140   21.9890  -31.3420 C   0  0  0  0  0  0  0  0  0  0  0  0
   -3.7490   23.0920  -30.6060 N   0  0  0  0  0  0  0  0  0  0  0  0
   -4.6340   24.2010  -30.3840 C   0  0  0  0  0  0  0  0  0  0  0  0
   -4.2860   25.5020  -30.8510 N   0  0  0  0  0  0  0  0  0  0  0  0
   -5.7180   24.0320  -29.7650 O   0  0  0  0  0  0  0  0  0  0  0  0
   -2.9450   25.6670  -29.3300 H   0  0  0  0  0  0  0  0  0  0  0  0
   -0.8772   21.4104  -30.5443 H   0  0  0  0  0  0  0  0  0  0  0  0
   -2.0128   19.3498  -32.1669 H   0  0  0  0  0  0  0  0  0  0  0  0
   -4.1138   18.6895  -33.3848 H   0  0  0  0  0  0  0  0  0  0  0  0
   -6.9115   20.9855  -33.9627 H   0  0  0  0  0  0  0  0  0  0  0  0
   -6.1937   19.3693  -34.3167 H   0  0  0  0  0  0  0  0  0  0  0  0
   -7.5695   18.3469  -32.8541 H   0  0  0  0  0  0  0  0  0  0  0  0
   -7.1596   19.5516  -31.5594 H   0  0  0  0  0  0  0  0  0  0  0  0
   -9.0267   20.3804  -33.7688 H   0  0  0  0  0  0  0  0  0  0  0  0
   -9.6360   19.2945  -32.4528 H   0  0  0  0  0  0  0  0  0  0  0  0
   -6.0660   22.3315  -31.9911 H   0  0  0  0  0  0  0  0  0  0  0  0
   -3.2890   25.7650  -31.0120 H   0  0  0  0  0  0  0  0  0  0  0  0
  1  2  1  0
  2  3  2  0
  2  4  1  0
  4  5  2  0
  5  6  1  0
  6  7  2  0
  7  8  1  0
  8  9  2  0
  9 10  1  0
 10 11  1  0
 11 12  1  0
 12 13  1  0
  9 14  1  0
 14 15  2  0
 15 16  1  0
 16 17  1  0
 17 18  1  0
 17 19  2  0
 16  4  1  0
 15  6  1  0
  1 20  1  0
  5 21  1  0
  7 22  1  0
  8 23  1  0
 10 24  1  0
 10 25  1  0
 11 26  1  0
 11 27  1  0
 12 28  1  0
 12 29  1  0
 14 30  1  0
 18 31  1  0
M  CHG  2   1  -1  18  -1
M  END
>  <UniqueID>  (34) 
34

>  <SMILES>  (34) 
[NH-]C(=O)c1cc2ccc(CCCBr)cc2n1C([NH-])=O

>  <Energy>  (34) 
65.72061426350497

>  <Genealogy>  (34) 
[NH-]C(=O)c1cc2ccc(CCCBr)cc2n1C([NH-])=O (protonated)
[NH-]C(=O)c1cc2ccc(CCCBr)cc2n1C([NH-])=O (3D coordinates assigned)
[NH-]C(=O)c1cc2ccc(CCCBr)cc2n1C([NH-])=O (optimized conformer: 65.72061426350497 kcal/mol)

>  <smiles>  (34) 
NC(=O)c1cc2ccc(CCCBr)cc2n1C(N)=O

>  <score_type>  (34) 
oracle

>  <origin>  (34) 
adg

>  <m_score__min__energy>  (34) 
-10.76

>  <m_primary>  (34) 
energy

$$$$
34:0
     RDKit          3D

 61 65  0  0  0  0  0  0  0  0999 V2000
   -3.8920   25.6710  -30.8440 N   0  0  0  0  0  0  0  0  0  0  0  0
   -5.1620   25.0950  -30.5470 C   0  0  0  0  0  0  0  0  0  0  0  0
   -5.9100   25.6560  -29.7010 O   0  0  0  0  0  0  0  0  0  0  0  0
   -5.5870   23.8250  -31.1700 C   0  0  0  0  0  0  0  0  0  0  0  0
   -6.9230   23.4840  -31.3770 C   0  0  0  0  0  0  0  0  0  0  0  0
   -6.9000   22.1990  -31.8680 C   0  0  0  0  0  0  0  0  0  0  0  0
   -7.9500   21.3640  -32.2420 C   0  0  0  0  0  0  0  0  0  0  0  0
   -7.6310   20.0860  -32.7290 C   0  0  0  0  0  0  0  0  0  0  0  0
   -6.2790   19.6690  -32.8380 C   0  0  0  0  0  0  0  0  0  0  0  0
   -5.9660   18.3600  -33.3480 N   0  0  0  0  0  0  0  0  0  0  0  0
   -5.4020   17.3510  -32.4400 C   0  0  0  0  0  0  0  0  0  0  0  0
   -5.2660   15.9750  -33.1170 C   0  0  0  0  0  0  0  0  0  0  0  0
   -4.6360   16.0260  -34.5370 C   0  0  0  0  0  0  0  0  0  0  0  0
   -3.1710   15.6570  -34.5090 C   0  0  0  0  0  0  0  0  0  0  0  0
   -2.7860   14.7270  -33.7470 O   0  0  0  0  0  0  0  0  0  0  0  0
   -2.2210   16.3460  -35.3350 N   0  0  0  0  0  0  0  0  0  0  0  0
   -0.7800   16.1330  -35.2180 C   0  0  0  0  0  0  0  0  0  0  0  0
   -0.1860   17.0610  -34.1570 C   0  0  0  0  0  0  0  0  0  0  0  0
   -0.4970   18.4940  -34.4720 C   0  0  0  0  0  0  0  0  0  0  0  0
   -1.7060   19.1470  -34.2590 C   0  0  0  0  0  0  0  0  0  0  0  0
   -1.6030   20.4520  -34.6010 N   0  0  0  0  0  0  0  0  0  0  0  0
   -0.3370   20.6290  -35.0140 C   0  0  0  0  0  0  0  0  0  0  0  0
    0.2550   21.8180  -35.4430 C   0  0  0  0  0  0  0  0  0  0  0  0
    1.6130   21.7840  -35.8070 C   0  0  0  0  0  0  0  0  0  0  0  0
    2.3430   20.5750  -35.7320 C   0  0  0  0  0  0  0  0  0  0  0  0
    1.7210   19.3920  -35.2920 C   0  0  0  0  0  0  0  0  0  0  0  0
    0.3710   19.4570  -34.9440 C   0  0  0  0  0  0  0  0  0  0  0  0
   -4.8600   17.3650  -35.2780 C   0  0  0  0  0  0  0  0  0  0  0  0
   -6.1170   18.0700  -34.7790 C   0  0  0  0  0  0  0  0  0  0  0  0
   -5.2420   20.5450  -32.4500 C   0  0  0  0  0  0  0  0  0  0  0  0
   -5.5900   21.8060  -31.9510 C   0  0  0  0  0  0  0  0  0  0  0  0
   -4.7690   22.7950  -31.5320 N   0  0  0  0  0  0  0  0  0  0  0  0
   -3.3320   22.7700  -31.5480 C   0  0  0  0  0  0  0  0  0  0  0  0
   -2.6390   22.1300  -32.6180 N   0  0  0  0  0  0  0  0  0  0  0  0
   -2.6770   23.2870  -30.6020 O   0  0  0  0  0  0  0  0  0  0  0  0
   -3.0190   25.2990  -30.4100 H   0  0  0  0  0  0  0  0  0  0  0  0
   -7.8077   24.1097  -31.1879 H   0  0  0  0  0  0  0  0  0  0  0  0
   -8.9957   21.6949  -32.1586 H   0  0  0  0  0  0  0  0  0  0  0  0
   -8.4377   19.4010  -33.0291 H   0  0  0  0  0  0  0  0  0  0  0  0
   -4.4065   17.6853  -32.1125 H   0  0  0  0  0  0  0  0  0  0  0  0
   -6.0871   17.2425  -31.5862 H   0  0  0  0  0  0  0  0  0  0  0  0
   -4.6335   15.3381  -32.4811 H   0  0  0  0  0  0  0  0  0  0  0  0
   -6.2849   15.5779  -33.2361 H   0  0  0  0  0  0  0  0  0  0  0  0
   -5.1768   15.2669  -35.1212 H   0  0  0  0  0  0  0  0  0  0  0  0
   -2.5610   17.0000  -36.0730 H   0  0  0  0  0  0  0  0  0  0  0  0
   -0.5906   15.0879  -34.9319 H   0  0  0  0  0  0  0  0  0  0  0  0
   -0.3080   16.3523  -36.1871 H   0  0  0  0  0  0  0  0  0  0  0  0
   -0.6120   16.8064  -33.1753 H   0  0  0  0  0  0  0  0  0  0  0  0
    0.9062   16.9306  -34.1446 H   0  0  0  0  0  0  0  0  0  0  0  0
   -2.6169   18.6702  -33.8679 H   0  0  0  0  0  0  0  0  0  0  0  0
   -2.3550   21.1750  -34.5400 H   0  0  0  0  0  0  0  0  0  0  0  0
   -0.3227   22.7526  -35.4948 H   0  0  0  0  0  0  0  0  0  0  0  0
    2.1101   22.7027  -36.1519 H   0  0  0  0  0  0  0  0  0  0  0  0
    3.4046   20.5594  -36.0197 H   0  0  0  0  0  0  0  0  0  0  0  0
    2.2803   18.4472  -35.2245 H   0  0  0  0  0  0  0  0  0  0  0  0
   -3.9914   18.0182  -35.1084 H   0  0  0  0  0  0  0  0  0  0  0  0
   -4.9832   17.1525  -36.3502 H   0  0  0  0  0  0  0  0  0  0  0  0
   -6.2573   19.0099  -35.3330 H   0  0  0  0  0  0  0  0  0  0  0  0
   -6.9931   17.4238  -34.9369 H   0  0  0  0  0  0  0  0  0  0  0  0
   -4.1875   20.2444  -32.5375 H   0  0  0  0  0  0  0  0  0  0  0  0
   -2.8990   22.3170  -33.6110 H   0  0  0  0  0  0  0  0  0  0  0  0
  1  2  1  0
  2  3  2  0
  2  4  1  0
  4  5  2  0
  5  6  1  0
  6  7  2  0
  7  8  1  0
  8  9  2  0
  9 10  1  0
 10 11  1  0
 11 12  1  0
 12 13  1  0
 13 14  1  0
 14 15  2  0
 14 16  1  0
 16 17  1  0
 17 18  1  0
 18 19  1  0
 19 20  2  0
 20 21  1  0
 21 22  1  0
 22 23  2  0
 23 24  1  0
 24 25  2  0
 25 26  1  0
 26 27  2  0
 13 28  1  0
 28 29  1  0
  9 30  1  0
 30 31  2  0
 31 32  1  0
 32 33  1  0
 33 34  1  0
 33 35  2  0
 32  4  1  0
 31  6  1  0
 29 10  1  0
 27 19  1  0
 27 22  1  0
  1 36  1  0
  5 37  1  0
  7 38  1  0
  8 39  1  0
 11 40  1  0
 11 41  1  0
 12 42  1  0
 12 43  1  0
 13 44  1  0
 16 45  1  0
 17 46  1  0
 17 47  1  0
 18 48  1  0
 18 49  1  0
 20 50  1  0
 21 51  1  0
 23 52  1  0
 24 53  1  0
 25 54  1  0
 26 55  1  0
 28 56  1  0
 28 57  1  0
 29 58  1  0
 29 59  1  0
 30 60  1  0
 34 61  1  0
M  CHG  2   1  -1  34  -1
M  END
>  <UniqueID>  (35) 
35

>  <SMILES>  (35) 
[NH-]C(=O)c1cc2ccc(N3CCC(C(=O)NCCc4c[nH]c5ccccc45)CC3)cc2n1C([NH-])=O

>  <Energy>  (35) 
140.3373612466062

>  <Genealogy>  (35) 
[NH-]C(=O)c1cc2ccc(N3CCC(C(=O)NCCc4c[nH]c5ccccc45)CC3)cc2n1C([NH-])=O (protonated)
[NH-]C(=O)c1cc2ccc(N3CCC(C(=O)NCCc4c[nH]c5ccccc45)CC3)cc2n1C([NH-])=O (3D coordinates assigned)
[NH-]C(=O)c1cc2ccc(N3CCC(C(=O)NCCc4c[nH]c5ccccc45)CC3)cc2n1C([NH-])=O (nonaromatic ring conformer: 140.3373612466062 kcal/mol)

>  <smiles>  (35) 
NC(=O)c1cc2ccc(N3CCC(C(=O)NCCc4c[nH]c5ccccc45)CC3)cc2n1C(N)=O

>  <score_type>  (35) 
oracle

>  <origin>  (35) 
adg

>  <m_score__min__energy>  (35) 
-13.4

>  <m_primary>  (35) 
energy

$$$$
35:0
     RDKit          3D

 45 49  0  0  0  0  0  0  0  0999 V2000
   -1.1070   25.7730  -28.9160 N   0  0  0  0  0  0  0  0  0  0  0  0
   -0.7200   24.4150  -28.6980 C   0  0  0  0  0  0  0  0  0  0  0  0
    0.0710   24.1450  -27.7560 O   0  0  0  0  0  0  0  0  0  0  0  0
   -1.1750   23.3360  -29.5940 C   0  0  0  0  0  0  0  0  0  0  0  0
   -0.3700   22.2640  -29.9670 C   0  0  0  0  0  0  0  0  0  0  0  0
   -1.1210   21.5390  -30.8610 C   0  0  0  0  0  0  0  0  0  0  0  0
   -0.8110   20.3710  -31.5500 C   0  0  0  0  0  0  0  0  0  0  0  0
   -1.7870   19.8280  -32.4000 C   0  0  0  0  0  0  0  0  0  0  0  0
   -3.0530   20.4500  -32.5410 C   0  0  0  0  0  0  0  0  0  0  0  0
   -4.0930   19.8400  -33.4610 C   0  0  1  0  0  0  0  0  0  0  0  0
   -4.0700   18.2930  -33.4230 C   0  0  0  0  0  0  0  0  0  0  0  0
   -5.3970   17.8500  -32.7740 C   0  0  0  0  0  0  0  0  0  0  0  0
   -6.1690   19.0680  -32.6150 N   0  0  0  0  0  0  0  0  0  0  0  0
   -5.4670   20.1540  -32.9990 C   0  0  0  0  0  0  0  0  0  0  0  0
   -5.9890   21.4090  -32.8940 N   0  0  0  0  0  0  0  0  0  0  0  0
   -7.2480   21.5430  -32.3980 C   0  0  0  0  0  0  0  0  0  0  0  0
   -7.9820   20.4560  -31.9970 C   0  0  0  0  0  0  0  0  0  0  0  0
   -7.4290   19.1760  -32.1030 C   0  0  0  0  0  0  0  0  0  0  0  0
   -8.0700   18.1570  -31.7330 O   0  0  0  0  0  0  0  0  0  0  0  0
   -9.3050   20.8480  -31.4580 C   0  0  0  0  0  0  0  0  0  0  0  0
   -9.3090   22.3880  -31.5670 C   0  0  0  0  0  0  0  0  0  0  0  0
   -7.9620   22.8190  -32.1890 C   0  0  0  0  0  0  0  0  0  0  0  0
   -3.3370   21.6280  -31.8070 C   0  0  0  0  0  0  0  0  0  0  0  0
   -2.3360   22.1640  -30.9920 C   0  0  0  0  0  0  0  0  0  0  0  0
   -2.3870   23.2710  -30.2160 N   0  0  0  0  0  0  0  0  0  0  0  0
   -3.5190   24.1330  -30.0120 C   0  0  0  0  0  0  0  0  0  0  0  0
   -3.5280   25.3010  -30.4810 O   0  0  0  0  0  0  0  0  0  0  0  0
   -4.6170   23.6870  -29.2850 O   0  0  0  0  0  0  0  0  0  0  0  0
   -1.6130   26.0560  -29.7830 H   0  0  0  0  0  0  0  0  0  0  0  0
   -0.8100   26.5140  -28.2430 H   0  0  0  0  0  0  0  0  0  0  0  0
    0.6504   22.0437  -29.6201 H   0  0  0  0  0  0  0  0  0  0  0  0
    0.1699   19.8873  -31.4322 H   0  0  0  0  0  0  0  0  0  0  0  0
   -1.5670   18.9091  -32.9633 H   0  0  0  0  0  0  0  0  0  0  0  0
   -3.8549   20.2467  -34.4550 H   0  0  0  0  0  0  0  0  0  0  0  0
   -3.9927   17.8891  -34.4433 H   0  0  0  0  0  0  0  0  0  0  0  0
   -3.2055   17.9224  -32.8526 H   0  0  0  0  0  0  0  0  0  0  0  0
   -5.9269   17.1400  -33.4260 H   0  0  0  0  0  0  0  0  0  0  0  0
   -5.2340   17.3387  -31.8138 H   0  0  0  0  0  0  0  0  0  0  0  0
  -10.1170   20.4111  -32.0578 H   0  0  0  0  0  0  0  0  0  0  0  0
   -9.4650   20.4952  -30.4285 H   0  0  0  0  0  0  0  0  0  0  0  0
  -10.1399   22.7159  -32.2089 H   0  0  0  0  0  0  0  0  0  0  0  0
   -9.4381   22.8439  -30.5743 H   0  0  0  0  0  0  0  0  0  0  0  0
   -8.1203   23.3408  -33.1443 H   0  0  0  0  0  0  0  0  0  0  0  0
   -7.4034   23.5204  -31.5517 H   0  0  0  0  0  0  0  0  0  0  0  0
   -4.3233   22.1100  -31.8769 H   0  0  0  0  0  0  0  0  0  0  0  0
  1  2  1  0
  2  3  2  0
  2  4  1  0
  4  5  2  0
  5  6  1  0
  6  7  2  0
  7  8  1  0
  8  9  2  0
  9 10  1  0
 10 11  1  0
 11 12  1  0
 12 13  1  0
 13 14  1  0
 14 15  2  0
 15 16  1  0
 16 17  2  0
 17 18  1  0
 18 19  2  0
 17 20  1  0
 20 21  1  0
 21 22  1  0
  9 23  1  0
 23 24  2  0
 24 25  1  0
 25 26  1  0
 26 27  2  0
 26 28  1  0
 25  4  1  0
 24  6  1  0
 14 10  1  0
 22 16  1  0
 18 13  1  0
  1 29  1  0
  1 30  1  0
  5 31  1  0
  7 32  1  0
  8 33  1  0
 10 34  1  6
 11 35  1  0
 11 36  1  0
 12 37  1  0
 12 38  1  0
 20 39  1  0
 20 40  1  0
 21 41  1  0
 21 42  1  0
 22 43  1  0
 22 44  1  0
 23 45  1  0
M  CHG  1  28  -1
M  END
>  <UniqueID>  (36) 
36

>  <SMILES>  (36) 
NC(=O)c1cc2ccc([C@H]3CCn4c3nc3c(c4=O)CCC3)cc2n1C(=O)[O-]

>  <Energy>  (36) 
108.54590181692369

>  <Genealogy>  (36) 
NC(=O)c1cc2ccc(C3CCn4c3nc3c(c4=O)CCC3)cc2n1C(=O)[O-] (protonated)
NC(=O)c1cc2ccc([C@H]3CCn4c3nc3c(c4=O)CCC3)cc2n1C(=O)[O-] (chirality)
NC(=O)c1cc2ccc([C@H]3CCn4c3nc3c(c4=O)CCC3)cc2n1C(=O)[O-] (3D coordinates assigned)
NC(=O)c1cc2ccc([C@H]3CCn4c3nc3c(c4=O)CCC3)cc2n1C(=O)[O-] (nonaromatic ring conformer: 108.54590181692369 kcal/mol)

>  <smiles>  (36) 
NC(=O)c1cc2ccc(C3CCn4c3nc3c(c4=O)CCC3)cc2n1C(=O)O

>  <score_type>  (36) 
oracle

>  <origin>  (36) 
adg

>  <m_score__min__energy>  (36) 
-11.65

>  <m_primary>  (36) 
energy

$$$$
36:0
     RDKit          3D

 50 52  0  0  0  0  0  0  0  0999 V2000
   -2.7370   22.7360  -30.4870 C   0  0  0  0  0  0  0  0  0  0  0  0
   -3.0380   23.9810  -29.6310 C   0  0  0  0  0  0  0  0  0  0  0  0
   -3.9790   23.6250  -28.4650 C   0  0  0  0  0  0  0  0  0  0  0  0
   -1.7180   24.5200  -29.0580 C   0  0  0  0  0  0  0  0  0  0  0  0
   -3.6050   25.0240  -30.4380 O   0  0  0  0  0  0  0  0  0  0  0  0
   -4.9710   25.3120  -30.5870 C   0  0  0  0  0  0  0  0  0  0  0  0
   -5.4020   26.4910  -30.4670 O   0  0  0  0  0  0  0  0  0  0  0  0
   -5.8840   24.2490  -30.8810 N   0  0  0  0  0  0  0  0  0  0  0  0
   -6.9840   23.8850  -30.0060 C   0  0  0  0  0  0  0  0  0  0  0  0
   -7.5900   22.6220  -30.6080 C   0  0  0  0  0  0  0  0  0  0  0  0
   -7.0620   22.5560  -32.0490 C   0  0  2  0  0  0  0  0  0  0  0  0
   -6.8170   21.1380  -32.5290 C   0  0  0  0  0  0  0  0  0  0  0  0
   -7.8840   20.2050  -32.6260 C   0  0  0  0  0  0  0  0  0  0  0  0
   -7.6520   18.8890  -33.0590 C   0  0  0  0  0  0  0  0  0  0  0  0
   -6.3520   18.5340  -33.3970 C   0  0  0  0  0  0  0  0  0  0  0  0
   -5.8470   17.3230  -33.8130 C   0  0  0  0  0  0  0  0  0  0  0  0
   -4.4840   17.5360  -33.9950 C   0  0  0  0  0  0  0  0  0  0  0  0
   -3.5630   16.5030  -34.5090 C   0  0  0  0  0  0  0  0  0  0  0  0
   -2.4180   16.0940  -33.7600 N   0  0  0  0  0  0  0  0  0  0  0  0
   -3.7580   16.0150  -35.6540 O   0  0  0  0  0  0  0  0  0  0  0  0
   -4.1520   18.8240  -33.6910 N   0  0  0  0  0  0  0  0  0  0  0  0
   -2.8350   19.3970  -33.6370 C   0  0  0  0  0  0  0  0  0  0  0  0
   -2.6540   20.8000  -33.8150 N   0  0  0  0  0  0  0  0  0  0  0  0
   -1.8300   18.6620  -33.4430 O   0  0  0  0  0  0  0  0  0  0  0  0
   -5.3100   19.4220  -33.3290 C   0  0  0  0  0  0  0  0  0  0  0  0
   -5.5080   20.7340  -32.8820 C   0  0  0  0  0  0  0  0  0  0  0  0
   -5.8040   23.4290  -32.0770 C   0  0  0  0  0  0  0  0  0  0  0  0
   -2.5299   21.8796  -29.8285 H   0  0  0  0  0  0  0  0  0  0  0  0
   -3.6061   22.5087  -31.1219 H   0  0  0  0  0  0  0  0  0  0  0  0
   -1.8601   22.9308  -31.1219 H   0  0  0  0  0  0  0  0  0  0  0  0
   -3.4686   23.8181  -27.5099 H   0  0  0  0  0  0  0  0  0  0  0  0
   -4.8880   24.2414  -28.5261 H   0  0  0  0  0  0  0  0  0  0  0  0
   -4.2524   22.5613  -28.5261 H   0  0  0  0  0  0  0  0  0  0  0  0
   -1.7611   24.5024  -27.9590 H   0  0  0  0  0  0  0  0  0  0  0  0
   -0.8845   23.8902  -29.4024 H   0  0  0  0  0  0  0  0  0  0  0  0
   -1.5635   25.5532  -29.4024 H   0  0  0  0  0  0  0  0  0  0  0  0
   -6.6153   23.6862  -28.9889 H   0  0  0  0  0  0  0  0  0  0  0  0
   -7.7256   24.6937  -29.9284 H   0  0  0  0  0  0  0  0  0  0  0  0
   -7.2705   21.7351  -30.0411 H   0  0  0  0  0  0  0  0  0  0  0  0
   -8.6894   22.6443  -30.5782 H   0  0  0  0  0  0  0  0  0  0  0  0
   -7.8132   22.9341  -32.7581 H   0  0  0  0  0  0  0  0  0  0  0  0
   -8.9044   20.5170  -32.3587 H   0  0  0  0  0  0  0  0  0  0  0  0
   -8.4744   18.1618  -33.1283 H   0  0  0  0  0  0  0  0  0  0  0  0
   -6.4025   16.3864  -33.9685 H   0  0  0  0  0  0  0  0  0  0  0  0
   -1.7980   15.3360  -34.1220 H   0  0  0  0  0  0  0  0  0  0  0  0
   -2.1380   16.5940  -32.8870 H   0  0  0  0  0  0  0  0  0  0  0  0
   -2.4070   21.1950  -34.7490 H   0  0  0  0  0  0  0  0  0  0  0  0
   -4.6640   21.4354  -32.8069 H   0  0  0  0  0  0  0  0  0  0  0  0
   -4.8995   22.8033  -32.0561 H   0  0  0  0  0  0  0  0  0  0  0  0
   -5.7464   24.0386  -32.9908 H   0  0  0  0  0  0  0  0  0  0  0  0
  1  2  1  0
  2  3  1  0
  2  4  1  0
  2  5  1  0
  5  6  1  0
  6  7  2  0
  6  8  1  0
  8  9  1  0
  9 10  1  0
 10 11  1  0
 11 12  1  0
 12 13  2  0
 13 14  1  0
 14 15  2  0
 15 16  1  0
 16 17  2  0
 17 18  1  0
 18 19  1  0
 18 20  2  0
 17 21  1  0
 21 22  1  0
 22 23  1  0
 22 24  2  0
 21 25  1  0
 25 26  2  0
 11 27  1  0
 27  8  1  0
 26 12  1  0
 25 15  1  0
  1 28  1  0
  1 29  1  0
  1 30  1  0
  3 31  1  0
  3 32  1  0
  3 33  1  0
  4 34  1  0
  4 35  1  0
  4 36  1  0
  9 37  1  0
  9 38  1  0
 10 39  1  0
 10 40  1  0
 11 41  1  6
 13 42  1  0
 14 43  1  0
 16 44  1  0
 19 45  1  0
 19 46  1  0
 23 47  1  0
 26 48  1  0
 27 49  1  0
 27 50  1  0
M  CHG  1  23  -1
M  END
>  <UniqueID>  (37) 
37

>  <SMILES>  (37) 
CC(C)(C)OC(=O)N1CC[C@H](c2ccc3cc(C(N)=O)n(C([NH-])=O)c3c2)C1

>  <Energy>  (37) 
86.52344581086966

>  <Genealogy>  (37) 
CC(C)(C)OC(=O)N1CCC(c2ccc3cc(C(N)=O)n(C([NH-])=O)c3c2)C1 (protonated)
CC(C)(C)OC(=O)N1CC[C@H](c2ccc3cc(C(N)=O)n(C([NH-])=O)c3c2)C1 (chirality)
CC(C)(C)OC(=O)N1CC[C@H](c2ccc3cc(C(N)=O)n(C([NH-])=O)c3c2)C1 (3D coordinates assigned)
CC(C)(C)OC(=O)N1CC[C@H](c2ccc3cc(C(N)=O)n(C([NH-])=O)c3c2)C1 (nonaromatic ring conformer: 86.52344581086966 kcal/mol)

>  <smiles>  (37) 
CC(C)(C)OC(=O)N1CCC(c2ccc3cc(C(N)=O)n(C(N)=O)c3c2)C1

>  <score_type>  (37) 
oracle

>  <origin>  (37) 
adg

>  <m_score__min__energy>  (37) 
-9.8599999999999994

>  <m_primary>  (37) 
energy

$$$$
37:0
     RDKit          3D

 38 39  0  0  0  0  0  0  0  0999 V2000
   -6.5000   17.4550  -31.6090 C   0  0  0  0  0  0  0  0  0  0  0  0
   -7.1380   17.6750  -32.9810 C   0  0  0  0  0  0  0  0  0  0  0  0
   -6.1790   18.3480  -33.9730 C   0  0  0  0  0  0  0  0  0  0  0  0
   -5.4350   19.4980  -33.3450 C   0  0  0  0  0  0  0  0  0  0  0  0
   -4.0310   19.6070  -33.5110 C   0  0  0  0  0  0  0  0  0  0  0  0
   -3.3260   20.6810  -32.9440 C   0  0  0  0  0  0  0  0  0  0  0  0
   -4.0490   21.6350  -32.2330 C   0  0  0  0  0  0  0  0  0  0  0  0
   -3.6170   22.7630  -31.5740 C   0  0  0  0  0  0  0  0  0  0  0  0
   -4.7670   23.3440  -31.0430 C   0  0  0  0  0  0  0  0  0  0  0  0
   -4.7820   24.6400  -30.3280 C   0  0  0  0  0  0  0  0  0  0  0  0
   -5.3760   24.7530  -29.0340 N   0  0  0  0  0  0  0  0  0  0  0  0
   -4.2380   25.6530  -30.8430 O   0  0  0  0  0  0  0  0  0  0  0  0
   -5.8670   22.6020  -31.3590 N   0  0  0  0  0  0  0  0  0  0  0  0
   -7.2280   22.8360  -30.9640 C   0  0  0  0  0  0  0  0  0  0  0  0
   -7.4930   23.1360  -29.7680 O   0  0  0  0  0  0  0  0  0  0  0  0
   -8.2560   22.7110  -31.9060 O   0  0  0  0  0  0  0  0  0  0  0  0
   -9.4450   21.9580  -31.6780 C   0  0  0  0  0  0  0  0  0  0  0  0
   -9.3430   20.5840  -32.3300 C   0  0  0  0  0  0  0  0  0  0  0  0
   -5.4110   21.5590  -32.0880 C   0  0  0  0  0  0  0  0  0  0  0  0
   -6.1350   20.4880  -32.6220 C   0  0  0  0  0  0  0  0  0  0  0  0
   -7.2268   17.7056  -30.8222 H   0  0  0  0  0  0  0  0  0  0  0  0
   -6.1999   16.4015  -31.5089 H   0  0  0  0  0  0  0  0  0  0  0  0
   -5.6143   18.0996  -31.5089 H   0  0  0  0  0  0  0  0  0  0  0  0
   -7.4414   16.6998  -33.3896 H   0  0  0  0  0  0  0  0  0  0  0  0
   -8.0018   18.3424  -32.8453 H   0  0  0  0  0  0  0  0  0  0  0  0
   -5.4502   17.6026  -34.3241 H   0  0  0  0  0  0  0  0  0  0  0  0
   -6.7757   18.7440  -34.8079 H   0  0  0  0  0  0  0  0  0  0  0  0
   -3.4894   18.8437  -34.0889 H   0  0  0  0  0  0  0  0  0  0  0  0
   -2.2352   20.7660  -33.0582 H   0  0  0  0  0  0  0  0  0  0  0  0
   -2.5833   23.1286  -31.4852 H   0  0  0  0  0  0  0  0  0  0  0  0
   -5.8850   23.9520  -28.5980 H   0  0  0  0  0  0  0  0  0  0  0  0
   -5.3460   25.6620  -28.5220 H   0  0  0  0  0  0  0  0  0  0  0  0
   -9.5924   21.8342  -30.5950 H   0  0  0  0  0  0  0  0  0  0  0  0
  -10.2964   22.4974  -32.1187 H   0  0  0  0  0  0  0  0  0  0  0  0
   -9.2856   19.8111  -31.5494 H   0  0  0  0  0  0  0  0  0  0  0  0
  -10.2306   20.4082  -32.9556 H   0  0  0  0  0  0  0  0  0  0  0  0
   -8.4392   20.5412  -32.9556 H   0  0  0  0  0  0  0  0  0  0  0  0
   -7.2238   20.4188  -32.4819 H   0  0  0  0  0  0  0  0  0  0  0  0
  1  2  1  0
  2  3  1  0
  3  4  1  0
  4  5  2  0
  5  6  1  0
  6  7  2  0
  7  8  1  0
  8  9  2  0
  9 10  1  0
 10 11  1  0
 10 12  2  0
  9 13  1  0
 13 14  1  0
 14 15  2  0
 14 16  1  0
 16 17  1  0
 17 18  1  0
 13 19  1  0
 19 20  2  0
 20  4  1  0
 19  7  1  0
  1 21  1  0
  1 22  1  0
  1 23  1  0
  2 24  1  0
  2 25  1  0
  3 26  1  0
  3 27  1  0
  5 28  1  0
  6 29  1  0
  8 30  1  0
 11 31  1  0
 11 32  1  0
 17 33  1  0
 17 34  1  0
 18 35  1  0
 18 36  1  0
 18 37  1  0
 20 38  1  0
M  END
>  <UniqueID>  (38) 
38

>  <SMILES>  (38) 
CCCc1ccc2cc(C(N)=O)n(C(=O)OCC)c2c1

>  <Energy>  (38) 
67.25771552996633

>  <Genealogy>  (38) 
CCCc1ccc2cc(C(N)=O)n(C(=O)OCC)c2c1 (3D coordinates assigned)
CCCc1ccc2cc(C(N)=O)n(C(=O)OCC)c2c1 (optimized conformer: 67.25771552996633 kcal/mol)

>  <smiles>  (38) 
CCCc1ccc2cc(C(N)=O)n(C(=O)OCC)c2c1

>  <score_type>  (38) 
oracle

>  <origin>  (38) 
adg

>  <m_score__min__energy>  (38) 
-8.1600000000000001

>  <m_primary>  (38) 
energy

$$$$
38:0
     RDKit          3D

 33 35  0  0  0  0  0  0  0  0999 V2000
   -1.5390   26.0360  -28.9000 N   0  0  0  0  0  0  0  0  0  0  0  0
   -0.8240   24.8040  -28.8590 C   0  0  0  0  0  0  0  0  0  0  0  0
    0.2690   24.7460  -28.2360 O   0  0  0  0  0  0  0  0  0  0  0  0
   -1.3160   23.6140  -29.5830 C   0  0  0  0  0  0  0  0  0  0  0  0
   -0.5090   22.5250  -29.9040 C   0  0  0  0  0  0  0  0  0  0  0  0
   -1.3070   21.6860  -30.6450 C   0  0  0  0  0  0  0  0  0  0  0  0
   -1.0200   20.4470  -31.2080 C   0  0  0  0  0  0  0  0  0  0  0  0
   -2.0480   19.7800  -31.8950 C   0  0  0  0  0  0  0  0  0  0  0  0
   -3.3410   20.3570  -32.0100 C   0  0  0  0  0  0  0  0  0  0  0  0
   -4.4130   19.6170  -32.7260 C   0  0  0  0  0  0  0  0  0  0  0  0
   -4.1390   18.8330  -33.8610 C   0  0  0  0  0  0  0  0  0  0  0  0
   -5.1800   18.1540  -34.4950 C   0  0  0  0  0  0  0  0  0  0  0  0
   -6.4800   18.2520  -34.0000 C   0  0  0  0  0  0  0  0  0  0  0  0
   -6.7250   19.0300  -32.8620 C   0  0  0  0  0  0  0  0  0  0  0  0
   -8.1140   19.1440  -32.3040 C   0  0  0  0  0  0  0  0  0  0  0  0
   -8.5960   17.8850  -31.9950 F   0  0  0  0  0  0  0  0  0  0  0  0
   -8.9430   19.7330  -33.2410 F   0  0  0  0  0  0  0  0  0  0  0  0
   -8.1140   19.9170  -31.1560 F   0  0  0  0  0  0  0  0  0  0  0  0
   -5.6920   19.6840  -32.2620 N   0  0  0  0  0  0  0  0  0  0  0  0
   -3.5930   21.6160  -31.4110 C   0  0  0  0  0  0  0  0  0  0  0  0
   -2.5440   22.2660  -30.7490 C   0  0  0  0  0  0  0  0  0  0  0  0
   -2.5680   23.4500  -30.0980 N   0  0  0  0  0  0  0  0  0  0  0  0
   -3.7120   24.2980  -29.9110 C   0  0  0  0  0  0  0  0  0  0  0  0
   -4.5890   24.0050  -29.0570 O   0  0  0  0  0  0  0  0  0  0  0  0
   -3.8470   25.4660  -30.6520 O   0  0  0  0  0  0  0  0  0  0  0  0
   -2.5810   26.0500  -28.9660 H   0  0  0  0  0  0  0  0  0  0  0  0
    0.5433   22.3694  -29.6240 H   0  0  0  0  0  0  0  0  0  0  0  0
   -0.0178   20.0025  -31.1180 H   0  0  0  0  0  0  0  0  0  0  0  0
   -1.8491   18.7983  -32.3497 H   0  0  0  0  0  0  0  0  0  0  0  0
   -3.1115   18.7557  -34.2461 H   0  0  0  0  0  0  0  0  0  0  0  0
   -4.9753   17.5413  -35.3854 H   0  0  0  0  0  0  0  0  0  0  0  0
   -7.3053   17.7230  -34.4990 H   0  0  0  0  0  0  0  0  0  0  0  0
   -4.5919   22.0734  -31.4648 H   0  0  0  0  0  0  0  0  0  0  0  0
  1  2  1  0
  2  3  2  0
  2  4  1  0
  4  5  2  0
  5  6  1  0
  6  7  2  0
  7  8  1  0
  8  9  2  0
  9 10  1  0
 10 11  2  0
 11 12  1  0
 12 13  2  0
 13 14  1  0
 14 15  1  0
 15 16  1  0
 15 17  1  0
 15 18  1  0
 14 19  2  0
  9 20  1  0
 20 21  2  0
 21 22  1  0
 22 23  1  0
 23 24  2  0
 23 25  1  0
 22  4  1  0
 21  6  1  0
 19 10  1  0
  1 26  1  0
  5 27  1  0
  7 28  1  0
  8 29  1  0
 11 30  1  0
 12 31  1  0
 13 32  1  0
 20 33  1  0
M  CHG  2   1  -1  25  -1
M  END
>  <UniqueID>  (39) 
39

>  <SMILES>  (39) 
[NH-]C(=O)c1cc2ccc(-c3cccc(C(F)(F)F)n3)cc2n1C(=O)[O-]

>  <Energy>  (39) 
79.68484247485821

>  <Genealogy>  (39) 
[NH-]C(=O)c1cc2ccc(-c3cccc(C(F)(F)F)n3)cc2n1C(=O)[O-] (protonated)
[NH-]C(=O)c1cc2ccc(-c3cccc(C(F)(F)F)n3)cc2n1C(=O)[O-] (3D coordinates assigned)
[NH-]C(=O)c1cc2ccc(-c3cccc(C(F)(F)F)n3)cc2n1C(=O)[O-] (optimized conformer: 79.68484247485821 kcal/mol)

>  <smiles>  (39) 
NC(=O)c1cc2ccc(-c3cccc(C(F)(F)F)n3)cc2n1C(=O)O

>  <score_type>  (39) 
oracle

>  <origin>  (39) 
adg

>  <m_score__min__energy>  (39) 
-11.56

>  <m_primary>  (39) 
energy

$$$$
39:0
     RDKit          3D

 37 39  0  0  0  0  0  0  0  0999 V2000
   -7.3910   18.2930  -32.6430 C   0  0  0  0  0  0  0  0  0  0  0  0
   -7.4340   19.7450  -32.2740 C   0  0  0  0  0  0  0  0  0  0  0  0
   -8.6770   20.4170  -32.1790 C   0  0  0  0  0  0  0  0  0  0  0  0
   -8.7330   21.7720  -31.8090 C   0  0  0  0  0  0  0  0  0  0  0  0
   -7.5340   22.4180  -31.5230 C   0  0  0  0  0  0  0  0  0  0  0  0
   -7.2980   23.7250  -31.1580 C   0  0  0  0  0  0  0  0  0  0  0  0
   -5.9170   23.8190  -30.9980 C   0  0  0  0  0  0  0  0  0  0  0  0
   -5.2350   25.0380  -30.5150 C   0  0  0  0  0  0  0  0  0  0  0  0
   -3.8720   25.2960  -30.8460 N   0  0  0  0  0  0  0  0  0  0  0  0
   -5.8490   25.8390  -29.7620 O   0  0  0  0  0  0  0  0  0  0  0  0
   -5.3230   22.6210  -31.2630 N   0  0  0  0  0  0  0  0  0  0  0  0
   -3.9200   22.3200  -31.2850 C   0  0  0  0  0  0  0  0  0  0  0  0
   -3.1350   23.0320  -31.9690 O   0  0  0  0  0  0  0  0  0  0  0  0
   -3.4330   21.2280  -30.5580 O   0  0  0  0  0  0  0  0  0  0  0  0
   -2.5050   21.3570  -29.4840 C   0  0  0  0  0  0  0  0  0  0  0  0
   -2.3440   22.8000  -29.1130 C   0  0  0  0  0  0  0  0  0  0  0  0
   -1.3950   23.5820  -29.5730 O   0  0  0  0  0  0  0  0  0  0  0  0
   -1.5900   24.7520  -29.0120 C   0  0  0  0  0  0  0  0  0  0  0  0
   -0.8600   25.7560  -29.2210 O   0  0  0  0  0  0  0  0  0  0  0  0
   -2.6270   24.7610  -28.2060 O   0  0  0  0  0  0  0  0  0  0  0  0
   -3.1250   23.5470  -28.2500 C   0  0  0  0  0  0  0  0  0  0  0  0
   -4.3210   23.0940  -27.4800 C   0  0  0  0  0  0  0  0  0  0  0  0
   -6.3260   21.7730  -31.5790 C   0  0  0  0  0  0  0  0  0  0  0  0
   -6.2400   20.4300  -31.9610 C   0  0  0  0  0  0  0  0  0  0  0  0
   -7.3729   17.6826  -31.7281 H   0  0  0  0  0  0  0  0  0  0  0  0
   -8.2820   18.0388  -33.2359 H   0  0  0  0  0  0  0  0  0  0  0  0
   -6.4865   18.0920  -33.2359 H   0  0  0  0  0  0  0  0  0  0  0  0
   -9.6080   19.8732  -32.3969 H   0  0  0  0  0  0  0  0  0  0  0  0
   -9.6935   22.3045  -31.7475 H   0  0  0  0  0  0  0  0  0  0  0  0
   -8.0414   24.5243  -31.0218 H   0  0  0  0  0  0  0  0  0  0  0  0
   -3.1050   24.6960  -30.4700 H   0  0  0  0  0  0  0  0  0  0  0  0
   -2.8762   20.7967  -28.6132 H   0  0  0  0  0  0  0  0  0  0  0  0
   -1.5308   20.9556  -29.7998 H   0  0  0  0  0  0  0  0  0  0  0  0
   -4.1145   23.1722  -26.4024 H   0  0  0  0  0  0  0  0  0  0  0  0
   -5.1830   23.7279  -27.7351 H   0  0  0  0  0  0  0  0  0  0  0  0
   -4.5468   22.0481  -27.7351 H   0  0  0  0  0  0  0  0  0  0  0  0
   -5.2666   19.9206  -32.0161 H   0  0  0  0  0  0  0  0  0  0  0  0
  1  2  1  0
  2  3  2  0
  3  4  1  0
  4  5  2  0
  5  6  1  0
  6  7  2  0
  7  8  1  0
  8  9  1  0
  8 10  2  0
  7 11  1  0
 11 12  1  0
 12 13  2  0
 12 14  1  0
 14 15  1  0
 15 16  1  0
 16 17  1  0
 17 18  1  0
 18 19  2  0
 18 20  1  0
 20 21  1  0
 21 22  1  0
 11 23  1  0
 23 24  2  0
 24  2  1  0
 23  5  1  0
 21 16  2  0
  1 25  1  0
  1 26  1  0
  1 27  1  0
  3 28  1  0
  4 29  1  0
  6 30  1  0
  9 31  1  0
 15 32  1  0
 15 33  1  0
 22 34  1  0
 22 35  1  0
 22 36  1  0
 24 37  1  0
M  CHG  1   9  -1
M  END
>  <UniqueID>  (40) 
40

>  <SMILES>  (40) 
Cc1ccc2cc(C([NH-])=O)n(C(=O)OCc3oc(=O)oc3C)c2c1

>  <Energy>  (40) 
107.21643514042768

>  <Genealogy>  (40) 
Cc1ccc2cc(C([NH-])=O)n(C(=O)OCc3oc(=O)oc3C)c2c1 (protonated)
Cc1ccc2cc(C([NH-])=O)n(C(=O)OCc3oc(=O)oc3C)c2c1 (3D coordinates assigned)
Cc1ccc2cc(C([NH-])=O)n(C(=O)OCc3oc(=O)oc3C)c2c1 (optimized conformer: 107.21643514042768 kcal/mol)

>  <smiles>  (40) 
Cc1ccc2cc(C(N)=O)n(C(=O)OCc3oc(=O)oc3C)c2c1

>  <score_type>  (40) 
oracle

>  <origin>  (40) 
adg

>  <m_score__min__energy>  (40) 
-10.67

>  <m_primary>  (40) 
energy

$$$$
40:0
     RDKit          3D

 42 44  0  0  0  0  0  0  0  0999 V2000
   -3.2270   21.7360  -32.7820 C   0  0  0  0  0  0  0  0  0  0  0  0
   -3.8420   22.6590  -31.7780 C   0  0  0  0  0  0  0  0  0  0  0  0
   -3.0970   23.4320  -31.1180 O   0  0  0  0  0  0  0  0  0  0  0  0
   -5.2630   22.6740  -31.5570 N   0  0  0  0  0  0  0  0  0  0  0  0
   -5.9930   23.6600  -30.9620 C   0  0  0  0  0  0  0  0  0  0  0  0
   -5.4310   24.8660  -30.3110 C   0  0  0  0  0  0  0  0  0  0  0  0
   -5.7990   25.2170  -28.9750 N   0  0  0  0  0  0  0  0  0  0  0  0
   -4.6020   25.5880  -30.9260 O   0  0  0  0  0  0  0  0  0  0  0  0
   -7.3500   23.3420  -30.9880 C   0  0  0  0  0  0  0  0  0  0  0  0
   -7.4290   22.1260  -31.6270 C   0  0  0  0  0  0  0  0  0  0  0  0
   -8.5400   21.3560  -31.9510 C   0  0  0  0  0  0  0  0  0  0  0  0
   -8.3300   20.1580  -32.6530 C   0  0  0  0  0  0  0  0  0  0  0  0
   -7.0240   19.7490  -33.0190 C   0  0  0  0  0  0  0  0  0  0  0  0
   -6.8590   18.5220  -33.7580 N   0  0  0  0  0  0  0  0  0  0  0  0
   -5.7250   18.2310  -34.6440 C   0  0  0  0  0  0  0  0  0  0  0  0
   -4.8700   17.0250  -34.1740 C   0  0  0  0  0  0  0  0  0  0  0  0
   -5.7490   15.8150  -33.7750 C   0  0  0  0  0  0  0  0  0  0  0  0
   -7.0190   15.8600  -34.3760 O   0  0  0  0  0  0  0  0  0  0  0  0
   -3.7200   16.6740  -35.1060 C   0  0  0  0  0  0  0  0  0  0  0  0
   -2.7480   16.9790  -34.1320 O   0  0  0  0  0  0  0  0  0  0  0  0
   -3.7430   17.3320  -33.1980 C   0  0  0  0  0  0  0  0  0  0  0  0
   -5.9180   20.5680  -32.6800 C   0  0  0  0  0  0  0  0  0  0  0  0
   -6.1560   21.7450  -31.9620 C   0  0  0  0  0  0  0  0  0  0  0  0
   -2.6903   20.9306  -32.2592 H   0  0  0  0  0  0  0  0  0  0  0  0
   -4.0167   21.3014  -33.4125 H   0  0  0  0  0  0  0  0  0  0  0  0
   -2.5218   22.2974  -33.4125 H   0  0  0  0  0  0  0  0  0  0  0  0
   -6.5300   24.6860  -28.4540 H   0  0  0  0  0  0  0  0  0  0  0  0
   -5.3660   26.0490  -28.5160 H   0  0  0  0  0  0  0  0  0  0  0  0
   -8.1817   23.9373  -30.5833 H   0  0  0  0  0  0  0  0  0  0  0  0
   -9.5533   21.6755  -31.6661 H   0  0  0  0  0  0  0  0  0  0  0  0
   -9.1911   19.5288  -32.9223 H   0  0  0  0  0  0  0  0  0  0  0  0
   -7.5270   17.7400  -33.5680 H   0  0  0  0  0  0  0  0  0  0  0  0
   -6.1149   18.0115  -35.6489 H   0  0  0  0  0  0  0  0  0  0  0  0
   -5.0711   19.1155  -34.6360 H   0  0  0  0  0  0  0  0  0  0  0  0
   -5.2418   14.8903  -34.0875 H   0  0  0  0  0  0  0  0  0  0  0  0
   -5.8902   15.8453  -32.6845 H   0  0  0  0  0  0  0  0  0  0  0  0
   -7.2020   14.9590  -34.7490 H   0  0  0  0  0  0  0  0  0  0  0  0
   -3.7136   15.6186  -35.4159 H   0  0  0  0  0  0  0  0  0  0  0  0
   -3.6618   17.1663  -36.0880 H   0  0  0  0  0  0  0  0  0  0  0  0
   -3.7513   16.6919  -32.3034 H   0  0  0  0  0  0  0  0  0  0  0  0
   -3.7026   18.3252  -32.7268 H   0  0  0  0  0  0  0  0  0  0  0  0
   -4.8966   20.2849  -32.9745 H   0  0  0  0  0  0  0  0  0  0  0  0
  1  2  1  0
  2  3  2  0
  2  4  1  0
  4  5  1  0
  5  6  1  0
  6  7  1  0
  6  8  2  0
  5  9  2  0
  9 10  1  0
 10 11  2  0
 11 12  1  0
 12 13  2  0
 13 14  1  0
 14 15  1  0
 15 16  1  0
 16 17  1  0
 17 18  1  0
 16 19  1  0
 19 20  1  0
 20 21  1  0
 13 22  1  0
 22 23  2  0
 23  4  1  0
 23 10  1  0
 21 16  1  0
  1 24  1  0
  1 25  1  0
  1 26  1  0
  7 27  1  0
  7 28  1  0
  9 29  1  0
 11 30  1  0
 12 31  1  0
 14 32  1  0
 15 33  1  0
 15 34  1  0
 17 35  1  0
 17 36  1  0
 18 37  1  0
 19 38  1  0
 19 39  1  0
 21 40  1  0
 21 41  1  0
 22 42  1  0
M  END
>  <UniqueID>  (41) 
41

>  <SMILES>  (41) 
CC(=O)n1c(C(N)=O)cc2ccc(NCC3(CO)COC3)cc21

>  <Energy>  (41) 
148.9619758044656

>  <Genealogy>  (41) 
CC(=O)n1c(C(N)=O)cc2ccc(NCC3(CO)COC3)cc21 (3D coordinates assigned)
CC(=O)n1c(C(N)=O)cc2ccc(NCC3(CO)COC3)cc21 (nonaromatic ring conformer: 148.9619758044656 kcal/mol)

>  <smiles>  (41) 
CC(=O)n1c(C(N)=O)cc2ccc(NCC3(CO)COC3)cc21

>  <score_type>  (41) 
oracle

>  <origin>  (41) 
adg

>  <m_score__min__energy>  (41) 
-8.9700000000000006

>  <m_primary>  (41) 
energy

$$$$
41:0
     RDKit          3D

 53 56  0  0  0  0  0  0  0  0999 V2000
   -6.5310   25.3030  -29.7630 C   0  0  0  0  0  0  0  0  0  0  0  0
   -6.0750   23.8870  -30.1090 C   0  0  0  0  0  0  0  0  0  0  0  0
   -4.7810   23.5020  -29.3830 C   0  0  0  0  0  0  0  0  0  0  0  0
   -3.5680   24.0490  -30.0830 C   0  0  0  0  0  0  0  0  0  0  0  0
   -3.6410   25.1610  -30.6700 O   0  0  0  0  0  0  0  0  0  0  0  0
   -2.3370   23.3110  -30.1040 N   0  0  0  0  0  0  0  0  0  0  0  0
   -1.1580   23.6260  -29.4940 C   0  0  0  0  0  0  0  0  0  0  0  0
   -0.8770   24.8510  -28.7130 C   0  0  0  0  0  0  0  0  0  0  0  0
   -1.6200   26.0480  -28.9190 N   0  0  0  0  0  0  0  0  0  0  0  0
    0.0480   24.8440  -27.8580 O   0  0  0  0  0  0  0  0  0  0  0  0
   -0.2080   22.6340  -29.7370 C   0  0  0  0  0  0  0  0  0  0  0  0
   -0.8490   21.6920  -30.5090 C   0  0  0  0  0  0  0  0  0  0  0  0
   -0.3860   20.4840  -31.0160 C   0  0  0  0  0  0  0  0  0  0  0  0
   -1.2830   19.6860  -31.7450 C   0  0  0  0  0  0  0  0  0  0  0  0
   -2.6270   20.1000  -31.9450 C   0  0  0  0  0  0  0  0  0  0  0  0
   -3.5750   19.2410  -32.6980 C   0  0  0  0  0  0  0  0  0  0  0  0
   -3.2090   18.4840  -33.8110 C   0  0  0  0  0  0  0  0  0  0  0  0
   -4.5690   17.6750  -34.3750 S   0  0  0  0  0  0  0  0  0  0  0  0
   -5.6400   18.2640  -33.2210 C   0  0  0  0  0  0  0  0  0  0  0  0
   -7.0830   17.9440  -33.1720 C   0  0  0  0  0  0  0  0  0  0  0  0
   -7.4380   16.7450  -33.3560 O   0  0  0  0  0  0  0  0  0  0  0  0
   -8.0830   18.9800  -33.0010 N   0  0  0  0  0  0  0  0  0  0  0  0
   -8.5520   18.9860  -31.5950 C   0  0  0  0  0  0  0  0  0  0  0  0
   -9.1240   20.3610  -31.2130 C   0  0  0  0  0  0  0  0  0  0  0  0
   -8.1860   21.4250  -31.3210 O   0  0  0  0  0  0  0  0  0  0  0  0
   -7.1420   21.1780  -32.2530 C   0  0  0  0  0  0  0  0  0  0  0  0
   -7.5860   20.3100  -33.4440 C   0  0  0  0  0  0  0  0  0  0  0  0
   -4.9400   19.1160  -32.3720 C   0  0  0  0  0  0  0  0  0  0  0  0
   -3.0570   21.3380  -31.4110 C   0  0  0  0  0  0  0  0  0  0  0  0
   -2.1330   22.1220  -30.7110 C   0  0  0  0  0  0  0  0  0  0  0  0
   -6.5685   25.4193  -28.6698 H   0  0  0  0  0  0  0  0  0  0  0  0
   -5.8216   26.0301  -30.1850 H   0  0  0  0  0  0  0  0  0  0  0  0
   -7.5314   25.4794  -30.1850 H   0  0  0  0  0  0  0  0  0  0  0  0
   -6.8667   23.1796  -29.8212 H   0  0  0  0  0  0  0  0  0  0  0  0
   -5.8792   23.8500  -31.1908 H   0  0  0  0  0  0  0  0  0  0  0  0
   -4.8134   23.9034  -28.3594 H   0  0  0  0  0  0  0  0  0  0  0  0
   -4.7062   22.4046  -29.3734 H   0  0  0  0  0  0  0  0  0  0  0  0
   -2.6620   26.0350  -28.9580 H   0  0  0  0  0  0  0  0  0  0  0  0
    0.8341   22.6097  -29.3856 H   0  0  0  0  0  0  0  0  0  0  0  0
    0.6528   20.1620  -30.8512 H   0  0  0  0  0  0  0  0  0  0  0  0
   -0.9407   18.7292  -32.1660 H   0  0  0  0  0  0  0  0  0  0  0  0
   -2.2003   18.4265  -34.2459 H   0  0  0  0  0  0  0  0  0  0  0  0
   -8.9010   18.7550  -33.6150 H   0  0  0  0  0  0  0  0  0  0  0  0
   -9.3356   18.2236  -31.4735 H   0  0  0  0  0  0  0  0  0  0  0  0
   -7.6971   18.7664  -30.9385 H   0  0  0  0  0  0  0  0  0  0  0  0
   -9.9736   20.5794  -31.8767 H   0  0  0  0  0  0  0  0  0  0  0  0
   -9.4194   20.3015  -30.1551 H   0  0  0  0  0  0  0  0  0  0  0  0
   -6.7819   22.1432  -32.6387 H   0  0  0  0  0  0  0  0  0  0  0  0
   -6.3531   20.6255  -31.7217 H   0  0  0  0  0  0  0  0  0  0  0  0
   -8.3915   20.8300  -33.9832 H   0  0  0  0  0  0  0  0  0  0  0  0
   -6.7142   20.1504  -34.0956 H   0  0  0  0  0  0  0  0  0  0  0  0
   -5.4079   19.6419  -31.5267 H   0  0  0  0  0  0  0  0  0  0  0  0
   -4.0951   21.6767  -31.5433 H   0  0  0  0  0  0  0  0  0  0  0  0
  1  2  1  0
  2  3  1  0
  3  4  1  0
  4  5  2  0
  4  6  1  0
  6  7  1  0
  7  8  1  0
  8  9  1  0
  8 10  2  0
  7 11  2  0
 11 12  1  0
 12 13  2  0
 13 14  1  0
 14 15  2  0
 15 16  1  0
 16 17  2  0
 17 18  1  0
 18 19  1  0
 19 20  1  0
 20 21  2  0
 20 22  1  0
 22 23  1  0
 23 24  1  0
 24 25  1  0
 25 26  1  0
 26 27  1  0
 19 28  2  0
 15 29  1  0
 29 30  2  0
 30  6  1  0
 30 12  1  0
 28 16  1  0
 27 22  1  0
  1 31  1  0
  1 32  1  0
  1 33  1  0
  2 34  1  0
  2 35  1  0
  3 36  1  0
  3 37  1  0
  9 38  1  0
 11 39  1  0
 13 40  1  0
 14 41  1  0
 17 42  1  0
 22 43  1  0
 23 44  1  0
 23 45  1  0
 24 46  1  0
 24 47  1  0
 26 48  1  0
 26 49  1  0
 27 50  1  0
 27 51  1  0
 28 52  1  0
 29 53  1  0
M  CHG  2   9  -1  22   1
M  END
>  <UniqueID>  (42) 
42

>  <SMILES>  (42) 
CCCC(=O)n1c(C([NH-])=O)cc2ccc(-c3csc(C(=O)[NH+]4CCOCC4)c3)cc21

>  <Energy>  (42) 
135.95327295042793

>  <Genealogy>  (42) 
CCCC(=O)n1c(C([NH-])=O)cc2ccc(-c3csc(C(=O)[NH+]4CCOCC4)c3)cc21 (protonated)
CCCC(=O)n1c(C([NH-])=O)cc2ccc(-c3csc(C(=O)[NH+]4CCOCC4)c3)cc21 (3D coordinates assigned)
CCCC(=O)n1c(C([NH-])=O)cc2ccc(-c3csc(C(=O)[NH+]4CCOCC4)c3)cc21 (nonaromatic ring conformer: 135.95327295042793 kcal/mol)

>  <smiles>  (42) 
CCCC(=O)n1c(C(N)=O)cc2ccc(-c3csc(C(=O)N4CCOCC4)c3)cc21

>  <score_type>  (42) 
oracle

>  <origin>  (42) 
adg

>  <m_score__min__energy>  (42) 
-11.74

>  <m_primary>  (42) 
energy

$$$$
42:0
     RDKit          3D

 65 67  0  0  0  0  0  0  0  0999 V2000
   -4.9300   12.5440  -36.2790 C   0  0  0  0  0  0  0  0  0  0  0  0
   -4.3270   13.3870  -35.1390 C   0  0  0  0  0  0  0  0  0  0  0  0
   -3.4460   14.5170  -35.7060 C   0  0  0  0  0  0  0  0  0  0  0  0
   -3.4590   12.4780  -34.2550 C   0  0  0  0  0  0  0  0  0  0  0  0
   -5.3640   13.9240  -34.3050 O   0  0  0  0  0  0  0  0  0  0  0  0
   -5.1880   14.6100  -33.0930 C   0  0  0  0  0  0  0  0  0  0  0  0
   -4.6160   14.0530  -32.1160 O   0  0  0  0  0  0  0  0  0  0  0  0
   -5.6650   15.9630  -32.9740 N   0  0  0  0  0  0  0  0  0  0  0  0
   -6.1660   16.6450  -34.1760 C   0  0  0  0  0  0  0  0  0  0  0  0
   -6.4070   18.1360  -33.9190 C   0  0  0  0  0  0  0  0  0  0  0  0
   -7.3010   18.3490  -32.6800 C   0  0  0  0  0  0  0  0  0  0  0  0
   -7.3660   19.8260  -32.3330 C   0  0  0  0  0  0  0  0  0  0  0  0
   -8.6040   20.5170  -32.3520 C   0  0  0  0  0  0  0  0  0  0  0  0
   -8.6770   21.8690  -31.9850 C   0  0  0  0  0  0  0  0  0  0  0  0
   -7.5010   22.5060  -31.6030 C   0  0  0  0  0  0  0  0  0  0  0  0
   -7.3060   23.7950  -31.1730 C   0  0  0  0  0  0  0  0  0  0  0  0
   -5.9490   23.8840  -30.8860 C   0  0  0  0  0  0  0  0  0  0  0  0
   -5.3320   25.1020  -30.3360 C   0  0  0  0  0  0  0  0  0  0  0  0
   -3.9200   25.1770  -30.1370 N   0  0  0  0  0  0  0  0  0  0  0  0
   -6.0650   26.0620  -29.9760 O   0  0  0  0  0  0  0  0  0  0  0  0
   -5.3100   22.7060  -31.1550 N   0  0  0  0  0  0  0  0  0  0  0  0
   -3.8850   22.4640  -31.1250 C   0  0  0  0  0  0  0  0  0  0  0  0
   -3.1330   23.0040  -31.9800 O   0  0  0  0  0  0  0  0  0  0  0  0
   -3.3330   21.6610  -30.1160 O   0  0  0  0  0  0  0  0  0  0  0  0
   -3.0250   22.0630  -28.7730 C   0  0  0  0  0  0  0  0  0  0  0  0
   -4.2410   22.7540  -28.1230 C   0  0  0  0  0  0  0  0  0  0  0  0
   -1.7940   22.9910  -28.7500 C   0  0  0  0  0  0  0  0  0  0  0  0
   -2.6980   20.7860  -27.9830 C   0  0  0  0  0  0  0  0  0  0  0  0
   -6.2880   21.8640  -31.5830 C   0  0  0  0  0  0  0  0  0  0  0  0
   -6.1920   20.5100  -31.9350 C   0  0  0  0  0  0  0  0  0  0  0  0
   -6.8770   17.4820  -31.4570 C   0  0  0  0  0  0  0  0  0  0  0  0
   -5.5870   16.6870  -31.6950 C   0  0  0  0  0  0  0  0  0  0  0  0
   -5.5199   11.7193  -35.8526 H   0  0  0  0  0  0  0  0  0  0  0  0
   -5.5808   13.1780  -36.8991 H   0  0  0  0  0  0  0  0  0  0  0  0
   -4.1198   12.1329  -36.8991 H   0  0  0  0  0  0  0  0  0  0  0  0
   -3.0017   15.0868  -34.8766 H   0  0  0  0  0  0  0  0  0  0  0  0
   -2.6454   14.0832  -36.3231 H   0  0  0  0  0  0  0  0  0  0  0  0
   -4.0620   15.1876  -36.3231 H   0  0  0  0  0  0  0  0  0  0  0  0
   -3.6639   12.6926  -33.1958 H   0  0  0  0  0  0  0  0  0  0  0  0
   -3.6954   11.4251  -34.4682 H   0  0  0  0  0  0  0  0  0  0  0  0
   -2.3963   12.6656  -34.4682 H   0  0  0  0  0  0  0  0  0  0  0  0
   -5.4258   16.5368  -34.9825 H   0  0  0  0  0  0  0  0  0  0  0  0
   -7.1245   16.1851  -34.4583 H   0  0  0  0  0  0  0  0  0  0  0  0
   -5.4397   18.6329  -33.7537 H   0  0  0  0  0  0  0  0  0  0  0  0
   -6.9167   18.5634  -34.7951 H   0  0  0  0  0  0  0  0  0  0  0  0
   -8.3112   18.0018  -32.9427 H   0  0  0  0  0  0  0  0  0  0  0  0
   -9.5179   19.9867  -32.6581 H   0  0  0  0  0  0  0  0  0  0  0  0
   -9.6352   22.4090  -31.9989 H   0  0  0  0  0  0  0  0  0  0  0  0
   -8.0622   24.5880  -31.0763 H   0  0  0  0  0  0  0  0  0  0  0  0
   -3.3100   24.3570  -30.3520 H   0  0  0  0  0  0  0  0  0  0  0  0
   -3.4850   26.0520  -29.7640 H   0  0  0  0  0  0  0  0  0  0  0  0
   -4.1501   22.7023  -27.0280 H   0  0  0  0  0  0  0  0  0  0  0  0
   -4.2764   23.8071  -28.4387 H   0  0  0  0  0  0  0  0  0  0  0  0
   -5.1638   22.2454  -28.4387 H   0  0  0  0  0  0  0  0  0  0  0  0
   -1.5136   23.2024  -27.7076 H   0  0  0  0  0  0  0  0  0  0  0  0
   -0.9544   22.4992  -29.2630 H   0  0  0  0  0  0  0  0  0  0  0  0
   -2.0357   23.9335  -29.2630 H   0  0  0  0  0  0  0  0  0  0  0  0
   -2.7522   20.9978  -26.9049 H   0  0  0  0  0  0  0  0  0  0  0  0
   -3.4239   20.0003  -28.2393 H   0  0  0  0  0  0  0  0  0  0  0  0
   -1.6838   20.4459  -28.2393 H   0  0  0  0  0  0  0  0  0  0  0  0
   -5.2235   19.9895  -31.9025 H   0  0  0  0  0  0  0  0  0  0  0  0
   -6.7233   18.1468  -30.5942 H   0  0  0  0  0  0  0  0  0  0  0  0
   -7.6813   16.7527  -31.2801 H   0  0  0  0  0  0  0  0  0  0  0  0
   -4.7329   17.3797  -31.7210 H   0  0  0  0  0  0  0  0  0  0  0  0
   -5.4570   15.9610  -30.8789 H   0  0  0  0  0  0  0  0  0  0  0  0
  1  2  1  0
  2  3  1  0
  2  4  1  0
  2  5  1  0
  5  6  1  0
  6  7  2  0
  6  8  1  0
  8  9  1  0
  9 10  1  0
 10 11  1  0
 11 12  1  0
 12 13  2  0
 13 14  1  0
 14 15  2  0
 15 16  1  0
 16 17  2  0
 17 18  1  0
 18 19  1  0
 18 20  2  0
 17 21  1  0
 21 22  1  0
 22 23  2  0
 22 24  1  0
 24 25  1  0
 25 26  1  0
 25 27  1  0
 25 28  1  0
 21 29  1  0
 29 30  2  0
 11 31  1  0
 31 32  1  0
 32  8  1  0
 30 12  1  0
 29 15  1  0
  1 33  1  0
  1 34  1  0
  1 35  1  0
  3 36  1  0
  3 37  1  0
  3 38  1  0
  4 39  1  0
  4 40  1  0
  4 41  1  0
  9 42  1  0
  9 43  1  0
 10 44  1  0
 10 45  1  0
 11 46  1  0
 13 47  1  0
 14 48  1  0
 16 49  1  0
 19 50  1  0
 19 51  1  0
 26 52  1  0
 26 53  1  0
 26 54  1  0
 27 55  1  0
 27 56  1  0
 27 57  1  0
 28 58  1  0
 28 59  1  0
 28 60  1  0
 30 61  1  0
 31 62  1  0
 31 63  1  0
 32 64  1  0
 32 65  1  0
M  END
>  <UniqueID>  (43) 
43

>  <SMILES>  (43) 
CC(C)(C)OC(=O)N1CCC(c2ccc3cc(C(N)=O)n(C(=O)OC(C)(C)C)c3c2)CC1

>  <Energy>  (43) 
99.70497504466631

>  <Genealogy>  (43) 
CC(C)(C)OC(=O)N1CCC(c2ccc3cc(C(N)=O)n(C(=O)OC(C)(C)C)c3c2)CC1 (3D coordinates assigned)
CC(C)(C)OC(=O)N1CCC(c2ccc3cc(C(N)=O)n(C(=O)OC(C)(C)C)c3c2)CC1 (nonaromatic ring conformer: 99.70497504466631 kcal/mol)

>  <smiles>  (43) 
CC(C)(C)OC(=O)N1CCC(c2ccc3cc(C(N)=O)n(C(=O)OC(C)(C)C)c3c2)CC1

>  <score_type>  (43) 
oracle

>  <origin>  (43) 
adg

>  <m_score__min__energy>  (43) 
-10.57

>  <m_primary>  (43) 
energy

$$$$
43:0
     RDKit          3D

 34 35  0  0  0  0  0  0  0  0999 V2000
   -9.0530   21.2040  -31.9290 C   0  0  0  0  0  0  0  0  0  0  0  0
   -8.8750   19.6860  -31.9210 C   0  0  0  0  0  0  0  0  0  0  0  0
   -7.6550   19.2260  -32.7430 C   0  0  0  0  0  0  0  0  0  0  0  0
   -6.9200   20.3760  -33.4520 C   0  0  0  0  0  0  0  0  0  0  0  0
   -5.6060   20.7140  -32.7950 C   0  0  0  0  0  0  0  0  0  0  0  0
   -4.4980   19.8390  -32.9240 C   0  0  0  0  0  0  0  0  0  0  0  0
   -3.2750   20.1400  -32.3020 C   0  0  0  0  0  0  0  0  0  0  0  0
   -3.1940   21.3100  -31.5540 C   0  0  0  0  0  0  0  0  0  0  0  0
   -2.1290   21.8510  -30.8700 C   0  0  0  0  0  0  0  0  0  0  0  0
   -2.6100   23.0340  -30.3120 C   0  0  0  0  0  0  0  0  0  0  0  0
   -1.8070   23.8970  -29.4210 C   0  0  0  0  0  0  0  0  0  0  0  0
   -2.0490   25.2990  -29.3420 N   0  0  0  0  0  0  0  0  0  0  0  0
   -0.9230   23.3820  -28.6850 O   0  0  0  0  0  0  0  0  0  0  0  0
   -3.9190   23.2210  -30.6440 N   0  0  0  0  0  0  0  0  0  0  0  0
   -4.7530   24.3490  -30.3340 C   0  0  0  0  0  0  0  0  0  0  0  0
   -4.4490   25.6360  -30.8650 N   0  0  0  0  0  0  0  0  0  0  0  0
   -5.7530   24.2090  -29.5790 O   0  0  0  0  0  0  0  0  0  0  0  0
   -4.2620   22.1570  -31.4040 C   0  0  0  0  0  0  0  0  0  0  0  0
   -5.4850   21.8940  -32.0300 C   0  0  0  0  0  0  0  0  0  0  0  0
   -9.0963   21.5736  -30.8938 H   0  0  0  0  0  0  0  0  0  0  0  0
   -8.2034   21.6701  -32.4495 H   0  0  0  0  0  0  0  0  0  0  0  0
   -9.9874   21.4609  -32.4495 H   0  0  0  0  0  0  0  0  0  0  0  0
   -8.7447   19.3524  -30.8809 H   0  0  0  0  0  0  0  0  0  0  0  0
   -9.7712   19.2439  -32.3806 H   0  0  0  0  0  0  0  0  0  0  0  0
   -6.9472   18.7269  -32.0649 H   0  0  0  0  0  0  0  0  0  0  0  0
   -8.0304   18.5518  -33.5269 H   0  0  0  0  0  0  0  0  0  0  0  0
   -6.7278   20.0821  -34.4944 H   0  0  0  0  0  0  0  0  0  0  0  0
   -7.5613   21.2679  -33.3946 H   0  0  0  0  0  0  0  0  0  0  0  0
   -4.5968   18.9171  -33.5159 H   0  0  0  0  0  0  0  0  0  0  0  0
   -2.4078   19.4709  -32.4033 H   0  0  0  0  0  0  0  0  0  0  0  0
   -1.1135   21.4373  -30.7824 H   0  0  0  0  0  0  0  0  0  0  0  0
   -3.0220   25.6760  -29.3190 H   0  0  0  0  0  0  0  0  0  0  0  0
   -3.4640   25.9790  -30.9130 H   0  0  0  0  0  0  0  0  0  0  0  0
   -6.3313   22.5894  -31.9286 H   0  0  0  0  0  0  0  0  0  0  0  0
  1  2  1  0
  2  3  1  0
  3  4  1  0
  4  5  1  0
  5  6  2  0
  6  7  1  0
  7  8  2  0
  8  9  1  0
  9 10  2  0
 10 11  1  0
 11 12  1  0
 11 13  2  0
 10 14  1  0
 14 15  1  0
 15 16  1  0
 15 17  2  0
 14 18  1  0
 18 19  2  0
 19  5  1  0
 18  8  1  0
  1 20  1  0
  1 21  1  0
  1 22  1  0
  2 23  1  0
  2 24  1  0
  3 25  1  0
  3 26  1  0
  4 27  1  0
  4 28  1  0
  6 29  1  0
  7 30  1  0
  9 31  1  0
 12 32  1  0
 16 33  1  0
 19 34  1  0
M  CHG  2  12  -1  16  -1
M  END
>  <UniqueID>  (44) 
44

>  <SMILES>  (44) 
CCCCc1ccc2cc(C([NH-])=O)n(C([NH-])=O)c2c1

>  <Energy>  (44) 
68.28360551769893

>  <Genealogy>  (44) 
CCCCc1ccc2cc(C([NH-])=O)n(C([NH-])=O)c2c1 (protonated)
CCCCc1ccc2cc(C([NH-])=O)n(C([NH-])=O)c2c1 (3D coordinates assigned)
CCCCc1ccc2cc(C([NH-])=O)n(C([NH-])=O)c2c1 (optimized conformer: 68.28360551769893 kcal/mol)

>  <smiles>  (44) 
CCCCc1ccc2cc(C(N)=O)n(C(N)=O)c2c1

>  <score_type>  (44) 
oracle

>  <origin>  (44) 
adg

>  <m_score__min__energy>  (44) 
-10.52

>  <m_primary>  (44) 
energy

$$$$
44:0
     RDKit          3D

 51 54  0  0  0  0  0  0  0  0999 V2000
   -3.3160   24.5990  -30.4760 N   0  0  0  0  0  0  0  0  0  0  0  0
   -3.9150   23.3590  -30.8720 C   0  0  0  0  0  0  0  0  0  0  0  0
   -3.1860   22.3350  -30.9960 O   0  0  0  0  0  0  0  0  0  0  0  0
   -5.3390   23.2780  -31.0950 N   0  0  0  0  0  0  0  0  0  0  0  0
   -6.2850   24.1910  -30.7270 C   0  0  0  0  0  0  0  0  0  0  0  0
   -6.0310   25.5430  -30.1960 C   0  0  0  0  0  0  0  0  0  0  0  0
   -6.4840   25.9160  -28.8910 N   0  0  0  0  0  0  0  0  0  0  0  0
   -5.3710   26.3670  -30.8840 O   0  0  0  0  0  0  0  0  0  0  0  0
   -7.5650   23.7120  -30.9710 C   0  0  0  0  0  0  0  0  0  0  0  0
   -7.3850   22.4710  -31.5290 C   0  0  0  0  0  0  0  0  0  0  0  0
   -8.3330   21.5520  -31.9650 C   0  0  0  0  0  0  0  0  0  0  0  0
   -7.8790   20.3360  -32.4910 C   0  0  0  0  0  0  0  0  0  0  0  0
   -6.4910   20.0480  -32.5670 C   0  0  0  0  0  0  0  0  0  0  0  0
   -6.0290   18.7570  -33.1390 C   0  0  0  0  0  0  0  0  0  0  0  0
   -6.2320   17.5450  -32.4540 C   0  0  0  0  0  0  0  0  0  0  0  0
   -5.8020   16.3410  -33.0150 C   0  0  0  0  0  0  0  0  0  0  0  0
   -5.1750   16.3480  -34.2610 C   0  0  0  0  0  0  0  0  0  0  0  0
   -4.7460   15.1390  -34.8220 O   0  0  0  0  0  0  0  0  0  0  0  0
   -3.3830   14.7210  -34.8550 C   0  0  0  0  0  0  0  0  0  0  0  0
   -2.4480   15.7950  -35.4580 C   0  0  0  0  0  0  0  0  0  0  0  0
   -1.5360   16.4680  -34.5010 N   0  0  0  0  0  0  0  0  0  0  0  0
   -2.1030   16.6890  -33.1650 C   0  0  0  0  0  0  0  0  0  0  0  0
   -2.4310   18.1690  -33.0420 C   0  0  0  0  0  0  0  0  0  0  0  0
   -1.6110   18.8640  -34.1170 C   0  0  0  0  0  0  0  0  0  0  0  0
   -1.0020   17.7530  -34.9690 C   0  0  0  0  0  0  0  0  0  0  0  0
   -4.9840   17.5280  -34.9140 N   0  0  0  0  0  0  0  0  0  0  0  0
   -5.3860   18.7160  -34.3890 C   0  0  0  0  0  0  0  0  0  0  0  0
   -5.5560   21.0070  -32.1010 C   0  0  0  0  0  0  0  0  0  0  0  0
   -6.0360   22.2240  -31.5940 C   0  0  0  0  0  0  0  0  0  0  0  0
   -3.4180   25.4510  -31.0670 H   0  0  0  0  0  0  0  0  0  0  0  0
   -6.9580   25.2260  -28.2580 H   0  0  0  0  0  0  0  0  0  0  0  0
   -6.2180   26.8410  -28.4900 H   0  0  0  0  0  0  0  0  0  0  0  0
   -8.5189   24.2184  -30.7620 H   0  0  0  0  0  0  0  0  0  0  0  0
   -9.4084   21.7736  -31.8987 H   0  0  0  0  0  0  0  0  0  0  0  0
   -8.6076   19.5942  -32.8500 H   0  0  0  0  0  0  0  0  0  0  0  0
   -6.7309   17.5460  -31.4737 H   0  0  0  0  0  0  0  0  0  0  0  0
   -5.9566   15.3934  -32.4781 H   0  0  0  0  0  0  0  0  0  0  0  0
   -3.0554   14.5050  -33.8274 H   0  0  0  0  0  0  0  0  0  0  0  0
   -3.3228   13.8284  -35.4950 H   0  0  0  0  0  0  0  0  0  0  0  0
   -1.8306   15.3106  -36.2288 H   0  0  0  0  0  0  0  0  0  0  0  0
   -3.1097   16.5838  -35.8451 H   0  0  0  0  0  0  0  0  0  0  0  0
   -3.0180   16.0909  -33.0425 H   0  0  0  0  0  0  0  0  0  0  0  0
   -1.3864   16.3868  -32.3871 H   0  0  0  0  0  0  0  0  0  0  0  0
   -3.5049   18.3388  -33.2092 H   0  0  0  0  0  0  0  0  0  0  0  0
   -2.1951   18.5547  -32.0392 H   0  0  0  0  0  0  0  0  0  0  0  0
   -2.2562   19.5075  -34.7331 H   0  0  0  0  0  0  0  0  0  0  0  0
   -0.8332   19.5057  -33.6774 H   0  0  0  0  0  0  0  0  0  0  0  0
   -1.2700   17.9047  -36.0250 H   0  0  0  0  0  0  0  0  0  0  0  0
    0.0942   17.7635  -34.8784 H   0  0  0  0  0  0  0  0  0  0  0  0
   -5.2076   19.6487  -34.9442 H   0  0  0  0  0  0  0  0  0  0  0  0
   -4.4761   20.8009  -32.1363 H   0  0  0  0  0  0  0  0  0  0  0  0
  1  2  1  0
  2  3  2  0
  2  4  1  0
  4  5  1  0
  5  6  1  0
  6  7  1  0
  6  8  2  0
  5  9  2  0
  9 10  1  0
 10 11  2  0
 11 12  1  0
 12 13  2  0
 13 14  1  0
 14 15  2  0
 15 16  1  0
 16 17  2  0
 17 18  1  0
 18 19  1  0
 19 20  1  0
 20 21  1  0
 21 22  1  0
 22 23  1  0
 23 24  1  0
 24 25  1  0
 17 26  1  0
 26 27  2  0
 13 28  1  0
 28 29  2  0
 29  4  1  0
 29 10  1  0
 27 14  1  0
 25 21  1  0
  1 30  1  0
  7 31  1  0
  7 32  1  0
  9 33  1  0
 11 34  1  0
 12 35  1  0
 15 36  1  0
 16 37  1  0
 19 38  1  0
 19 39  1  0
 20 40  1  0
 20 41  1  0
 22 42  1  0
 22 43  1  0
 23 44  1  0
 23 45  1  0
 24 46  1  0
 24 47  1  0
 25 48  1  0
 25 49  1  0
 27 50  1  0
 28 51  1  0
M  CHG  1   1  -1
M  END
>  <UniqueID>  (45) 
45

>  <SMILES>  (45) 
[NH-]C(=O)n1c(C(N)=O)cc2ccc(-c3ccc(OCCN4CCCC4)nc3)cc21

>  <Energy>  (45) 
105.15915389490219

>  <Genealogy>  (45) 
[NH-]C(=O)n1c(C(N)=O)cc2ccc(-c3ccc(OCCN4CCCC4)nc3)cc21 (protonated)
[NH-]C(=O)n1c(C(N)=O)cc2ccc(-c3ccc(OCCN4CCCC4)nc3)cc21 (3D coordinates assigned)
[NH-]C(=O)n1c(C(N)=O)cc2ccc(-c3ccc(OCCN4CCCC4)nc3)cc21 (nonaromatic ring conformer: 105.15915389490219 kcal/mol)

>  <smiles>  (45) 
NC(=O)c1cc2ccc(-c3ccc(OCCN4CCCC4)nc3)cc2n1C(N)=O

>  <score_type>  (45) 
oracle

>  <origin>  (45) 
adg

>  <m_score__min__energy>  (45) 
-9.6699999999999999

>  <m_primary>  (45) 
energy

$$$$
45:0
     RDKit          3D

 34 36  0  0  0  0  0  0  0  0999 V2000
   -1.6130   25.6290  -29.2960 N   0  0  0  0  0  0  0  0  0  0  0  0
   -0.9180   24.3860  -29.2890 C   0  0  0  0  0  0  0  0  0  0  0  0
    0.1220   24.2660  -28.5870 O   0  0  0  0  0  0  0  0  0  0  0  0
   -1.4260   23.2230  -30.0480 C   0  0  0  0  0  0  0  0  0  0  0  0
   -0.6110   22.1910  -30.5050 C   0  0  0  0  0  0  0  0  0  0  0  0
   -1.4650   21.2780  -31.0800 C   0  0  0  0  0  0  0  0  0  0  0  0
   -1.1890   20.0670  -31.7060 C   0  0  0  0  0  0  0  0  0  0  0  0
   -2.2660   19.3430  -32.2420 C   0  0  0  0  0  0  0  0  0  0  0  0
   -3.5930   19.8390  -32.1530 C   0  0  0  0  0  0  0  0  0  0  0  0
   -4.7220   19.0710  -32.7350 C   0  0  0  0  0  0  0  0  0  0  0  0
   -4.4830   18.0530  -33.6740 C   0  0  0  0  0  0  0  0  0  0  0  0
   -5.5440   17.3310  -34.2210 C   0  0  0  0  0  0  0  0  0  0  0  0
   -6.8570   17.6130  -33.8400 C   0  0  0  0  0  0  0  0  0  0  0  0
   -7.1240   18.6250  -32.9030 C   0  0  0  0  0  0  0  0  0  0  0  0
   -8.4800   18.9100  -32.5080 N   0  0  0  0  0  0  0  0  0  0  0  0
   -9.0560   18.2060  -31.6530 O   0  0  0  0  0  0  0  0  0  0  0  0
   -9.1620   19.9670  -33.0650 O   0  0  0  0  0  0  0  0  0  0  0  0
   -6.0480   19.3490  -32.3540 C   0  0  0  0  0  0  0  0  0  0  0  0
   -3.8290   21.0770  -31.5080 C   0  0  0  0  0  0  0  0  0  0  0  0
   -2.7400   21.7660  -30.9660 C   0  0  0  0  0  0  0  0  0  0  0  0
   -2.7340   22.9630  -30.3350 N   0  0  0  0  0  0  0  0  0  0  0  0
   -3.8710   23.8100  -30.1060 C   0  0  0  0  0  0  0  0  0  0  0  0
   -3.9610   25.0800  -30.7460 N   0  0  0  0  0  0  0  0  0  0  0  0
   -4.7910   23.4390  -29.3280 O   0  0  0  0  0  0  0  0  0  0  0  0
   -2.6570   25.6610  -29.3330 H   0  0  0  0  0  0  0  0  0  0  0  0
    0.4837   22.1204  -30.4237 H   0  0  0  0  0  0  0  0  0  0  0  0
   -0.1589   19.6882  -31.7789 H   0  0  0  0  0  0  0  0  0  0  0  0
   -2.0790   18.3788  -32.7374 H   0  0  0  0  0  0  0  0  0  0  0  0
   -3.4516   17.8238  -33.9799 H   0  0  0  0  0  0  0  0  0  0  0  0
   -5.3452   16.5365  -34.9553 H   0  0  0  0  0  0  0  0  0  0  0  0
   -7.6879   17.0391  -34.2763 H   0  0  0  0  0  0  0  0  0  0  0  0
   -6.2465   20.1420  -31.6179 H   0  0  0  0  0  0  0  0  0  0  0  0
   -4.8468   21.4877  -31.4349 H   0  0  0  0  0  0  0  0  0  0  0  0
   -3.1120   25.6720  -30.8850 H   0  0  0  0  0  0  0  0  0  0  0  0
  1  2  1  0
  2  3  2  0
  2  4  1  0
  4  5  2  0
  5  6  1  0
  6  7  2  0
  7  8  1  0
  8  9  2  0
  9 10  1  0
 10 11  2  0
 11 12  1  0
 12 13  2  0
 13 14  1  0
 14 15  1  0
 15 16  2  0
 15 17  1  0
 14 18  2  0
  9 19  1  0
 19 20  2  0
 20 21  1  0
 21 22  1  0
 22 23  1  0
 22 24  2  0
 21  4  1  0
 20  6  1  0
 18 10  1  0
  1 25  1  0
  5 26  1  0
  7 27  1  0
  8 28  1  0
 11 29  1  0
 12 30  1  0
 13 31  1  0
 18 32  1  0
 19 33  1  0
 23 34  1  0
M  CHG  4   1  -1  15   1  17  -1  23  -1
M  END
>  <UniqueID>  (46) 
46

>  <SMILES>  (46) 
[NH-]C(=O)c1cc2ccc(-c3cccc([N+](=O)[O-])c3)cc2n1C([NH-])=O

>  <Energy>  (46) 
82.81304823956962

>  <Genealogy>  (46) 
[NH-]C(=O)c1cc2ccc(-c3cccc([N+](=O)[O-])c3)cc2n1C([NH-])=O (protonated)
[NH-]C(=O)c1cc2ccc(-c3cccc([N+](=O)[O-])c3)cc2n1C([NH-])=O (3D coordinates assigned)
[NH-]C(=O)c1cc2ccc(-c3cccc([N+](=O)[O-])c3)cc2n1C([NH-])=O (optimized conformer: 82.81304823956962 kcal/mol)

>  <smiles>  (46) 
NC(=O)c1cc2ccc(-c3cccc([N+](=O)[O-])c3)cc2n1C(N)=O

>  <score_type>  (46) 
oracle

>  <origin>  (46) 
adg

>  <m_score__min__energy>  (46) 
-11.970000000000001

>  <m_primary>  (46) 
energy

$$$$
46:0
     RDKit          3D

 30 31  0  0  0  0  0  0  0  0999 V2000
   -6.9010   20.4890  -32.5350 C   0  0  0  0  0  0  0  0  0  0  0  0
   -5.6340   20.3270  -33.3830 C   0  0  0  0  0  0  0  0  0  0  0  0
   -5.4870   18.8860  -33.8850 C   0  0  0  0  0  0  0  0  0  0  0  0
   -4.4020   20.7690  -32.6160 C   0  0  0  0  0  0  0  0  0  0  0  0
   -3.2440   19.9470  -32.5640 C   0  0  0  0  0  0  0  0  0  0  0  0
   -2.1080   20.3510  -31.8440 C   0  0  0  0  0  0  0  0  0  0  0  0
   -2.1510   21.5780  -31.1910 C   0  0  0  0  0  0  0  0  0  0  0  0
   -1.2060   22.1940  -30.4050 C   0  0  0  0  0  0  0  0  0  0  0  0
   -1.7860   23.3960  -30.0040 C   0  0  0  0  0  0  0  0  0  0  0  0
   -1.0710   24.4170  -29.2100 C   0  0  0  0  0  0  0  0  0  0  0  0
   -1.6590   25.6890  -28.9510 N   0  0  0  0  0  0  0  0  0  0  0  0
    0.0950   24.1800  -28.7960 O   0  0  0  0  0  0  0  0  0  0  0  0
   -3.0450   23.5140  -30.5140 N   0  0  0  0  0  0  0  0  0  0  0  0
   -4.0010   24.5550  -30.2590 C   0  0  0  0  0  0  0  0  0  0  0  0
   -3.8940   25.6720  -30.8310 O   0  0  0  0  0  0  0  0  0  0  0  0
   -5.0690   24.3310  -29.4000 O   0  0  0  0  0  0  0  0  0  0  0  0
   -3.2520   22.3930  -31.2420 C   0  0  0  0  0  0  0  0  0  0  0  0
   -4.4040   22.0090  -31.9380 C   0  0  0  0  0  0  0  0  0  0  0  0
   -6.6350   20.4550  -31.4682 H   0  0  0  0  0  0  0  0  0  0  0  0
   -7.3746   21.4550  -32.7642 H   0  0  0  0  0  0  0  0  0  0  0  0
   -7.6024   19.6732  -32.7642 H   0  0  0  0  0  0  0  0  0  0  0  0
   -5.7322   20.9802  -34.2626 H   0  0  0  0  0  0  0  0  0  0  0  0
   -5.4174   18.2035  -33.0252 H   0  0  0  0  0  0  0  0  0  0  0  0
   -6.3626   18.6191  -34.4950 H   0  0  0  0  0  0  0  0  0  0  0  0
   -4.5756   18.8014  -34.4950 H   0  0  0  0  0  0  0  0  0  0  0  0
   -3.2374   18.9831  -33.0939 H   0  0  0  0  0  0  0  0  0  0  0  0
   -1.2110   19.7159  -31.7979 H   0  0  0  0  0  0  0  0  0  0  0  0
   -0.2049   21.8180  -30.1474 H   0  0  0  0  0  0  0  0  0  0  0  0
   -2.6900   25.8290  -29.0240 H   0  0  0  0  0  0  0  0  0  0  0  0
   -5.2917   22.6583  -31.9569 H   0  0  0  0  0  0  0  0  0  0  0  0
  1  2  1  0
  2  3  1  0
  2  4  1  0
  4  5  2  0
  5  6  1  0
  6  7  2  0
  7  8  1  0
  8  9  2  0
  9 10  1  0
 10 11  1  0
 10 12  2  0
  9 13  1  0
 13 14  1  0
 14 15  2  0
 14 16  1  0
 13 17  1  0
 17 18  2  0
 18  4  1  0
 17  7  1  0
  1 19  1  0
  1 20  1  0
  1 21  1  0
  2 22  1  0
  3 23  1  0
  3 24  1  0
  3 25  1  0
  5 26  1  0
  6 27  1  0
  8 28  1  0
 11 29  1  0
 18 30  1  0
M  CHG  2  11  -1  16  -1
M  END
>  <UniqueID>  (47) 
47

>  <SMILES>  (47) 
CC(C)c1ccc2cc(C([NH-])=O)n(C(=O)[O-])c2c1

>  <Energy>  (47) 
66.66391097333508

>  <Genealogy>  (47) 
CC(C)c1ccc2cc(C([NH-])=O)n(C(=O)[O-])c2c1 (protonated)
CC(C)c1ccc2cc(C([NH-])=O)n(C(=O)[O-])c2c1 (3D coordinates assigned)
CC(C)c1ccc2cc(C([NH-])=O)n(C(=O)[O-])c2c1 (optimized conformer: 66.66391097333508 kcal/mol)

>  <smiles>  (47) 
CC(C)c1ccc2cc(C(N)=O)n(C(=O)O)c2c1

>  <score_type>  (47) 
oracle

>  <origin>  (47) 
adg

>  <m_score__min__energy>  (47) 
-10.630000000000001

>  <m_primary>  (47) 
energy

$$$$
47:0
     RDKit          3D

 52 54  0  0  0  0  0  0  0  0999 V2000
   -3.0100   21.1450  -28.9850 C   0  0  0  0  0  0  0  0  0  0  0  0
   -2.9020   22.6630  -28.7750 C   0  0  0  0  0  0  0  0  0  0  0  0
   -1.6160   22.9640  -27.9800 C   0  0  0  0  0  0  0  0  0  0  0  0
   -4.1430   23.1510  -28.0070 C   0  0  0  0  0  0  0  0  0  0  0  0
   -2.8410   23.2660  -30.0750 O   0  0  0  0  0  0  0  0  0  0  0  0
   -3.4960   22.8200  -31.2320 C   0  0  0  0  0  0  0  0  0  0  0  0
   -2.8510   22.3140  -32.1880 O   0  0  0  0  0  0  0  0  0  0  0  0
   -4.9280   22.9180  -31.3090 N   0  0  0  0  0  0  0  0  0  0  0  0
   -5.7180   23.9840  -30.9940 C   0  0  0  0  0  0  0  0  0  0  0  0
   -5.2650   25.2500  -30.3800 C   0  0  0  0  0  0  0  0  0  0  0  0
   -3.8920   25.6220  -30.4560 N   0  0  0  0  0  0  0  0  0  0  0  0
   -6.0840   26.0250  -29.8200 O   0  0  0  0  0  0  0  0  0  0  0  0
   -7.0550   23.6910  -31.2540 C   0  0  0  0  0  0  0  0  0  0  0  0
   -7.0610   22.4010  -31.7330 C   0  0  0  0  0  0  0  0  0  0  0  0
   -8.1230   21.6060  -32.1510 C   0  0  0  0  0  0  0  0  0  0  0  0
   -7.8350   20.3130  -32.6190 C   0  0  0  0  0  0  0  0  0  0  0  0
   -6.4970   19.8400  -32.6690 C   0  0  0  0  0  0  0  0  0  0  0  0
   -6.1980   18.4730  -33.1700 C   0  0  0  0  0  0  0  0  0  0  0  0
   -7.1280   17.4320  -33.0030 C   0  0  0  0  0  0  0  0  0  0  0  0
   -6.8460   16.1440  -33.4670 C   0  0  0  0  0  0  0  0  0  0  0  0
   -5.6270   15.8690  -34.1130 C   0  0  0  0  0  0  0  0  0  0  0  0
   -5.2980   14.5560  -34.6030 N   0  0  0  0  0  0  0  0  0  0  0  0
   -6.4390   13.2620  -34.8060 S   0  0  0  0  0  0  0  0  0  0  0  0
   -5.8280   12.0840  -35.9930 C   0  0  0  0  0  0  0  0  0  0  0  0
   -6.6170   12.5630  -33.4870 O   0  0  0  0  0  0  0  0  0  0  0  0
   -7.7680   13.8100  -35.2430 O   0  0  0  0  0  0  0  0  0  0  0  0
   -4.6990   16.9080  -34.2760 C   0  0  0  0  0  0  0  0  0  0  0  0
   -4.9800   18.1970  -33.8120 C   0  0  0  0  0  0  0  0  0  0  0  0
   -5.4460   20.6830  -32.2370 C   0  0  0  0  0  0  0  0  0  0  0  0
   -5.7650   21.9570  -31.7560 C   0  0  0  0  0  0  0  0  0  0  0  0
   -3.0458   20.6413  -28.0078 H   0  0  0  0  0  0  0  0  0  0  0  0
   -3.9266   20.9171  -29.5488 H   0  0  0  0  0  0  0  0  0  0  0  0
   -2.1349   20.7897  -29.5488 H   0  0  0  0  0  0  0  0  0  0  0  0
   -1.8309   22.9137  -26.9024 H   0  0  0  0  0  0  0  0  0  0  0  0
   -0.8450   22.2220  -28.2352 H   0  0  0  0  0  0  0  0  0  0  0  0
   -1.2544   23.9710  -28.2352 H   0  0  0  0  0  0  0  0  0  0  0  0
   -3.9570   23.0779  -26.9253 H   0  0  0  0  0  0  0  0  0  0  0  0
   -4.3509   24.1978  -28.2734 H   0  0  0  0  0  0  0  0  0  0  0  0
   -5.0082   22.5261  -28.2734 H   0  0  0  0  0  0  0  0  0  0  0  0
   -3.4990   26.0520  -31.3230 H   0  0  0  0  0  0  0  0  0  0  0  0
   -7.9225   24.3513  -31.1074 H   0  0  0  0  0  0  0  0  0  0  0  0
   -9.1574   21.9785  -32.1162 H   0  0  0  0  0  0  0  0  0  0  0  0
   -8.6554   19.6595  -32.9505 H   0  0  0  0  0  0  0  0  0  0  0  0
   -8.0867   17.6330  -32.5024 H   0  0  0  0  0  0  0  0  0  0  0  0
   -7.5828   15.3394  -33.3260 H   0  0  0  0  0  0  0  0  0  0  0  0
   -4.3150   14.3620  -34.9010 H   0  0  0  0  0  0  0  0  0  0  0  0
   -5.3838   11.2276  -35.4645 H   0  0  0  0  0  0  0  0  0  0  0  0
   -6.6586   11.7348  -36.6239 H   0  0  0  0  0  0  0  0  0  0  0  0
   -5.0641   12.5618  -36.6239 H   0  0  0  0  0  0  0  0  0  0  0  0
   -3.7393   16.7067  -34.7745 H   0  0  0  0  0  0  0  0  0  0  0  0
   -4.2416   19.0004  -33.9509 H   0  0  0  0  0  0  0  0  0  0  0  0
   -4.4005   20.3437  -32.2785 H   0  0  0  0  0  0  0  0  0  0  0  0
  1  2  1  0
  2  3  1  0
  2  4  1  0
  2  5  1  0
  5  6  1  0
  6  7  2  0
  6  8  1  0
  8  9  1  0
  9 10  1  0
 10 11  1  0
 10 12  2  0
  9 13  2  0
 13 14  1  0
 14 15  2  0
 15 16  1  0
 16 17  2  0
 17 18  1  0
 18 19  2  0
 19 20  1  0
 20 21  2  0
 21 22  1  0
 22 23  1  0
 23 24  1  0
 23 25  2  0
 23 26  2  0
 21 27  1  0
 27 28  2  0
 17 29  1  0
 29 30  2  0
 30  8  1  0
 30 14  1  0
 28 18  1  0
  1 31  1  0
  1 32  1  0
  1 33  1  0
  3 34  1  0
  3 35  1  0
  3 36  1  0
  4 37  1  0
  4 38  1  0
  4 39  1  0
 11 40  1  0
 13 41  1  0
 15 42  1  0
 16 43  1  0
 19 44  1  0
 20 45  1  0
 22 46  1  0
 24 47  1  0
 24 48  1  0
 24 49  1  0
 27 50  1  0
 28 51  1  0
 29 52  1  0
M  CHG  1  11  -1
M  END
>  <UniqueID>  (48) 
48

>  <SMILES>  (48) 
CC(C)(C)OC(=O)n1c(C([NH-])=O)cc2ccc(-c3ccc(NS(C)(=O)=O)cc3)cc21

>  <Energy>  (48) 
91.42250706384284

>  <Genealogy>  (48) 
CC(C)(C)OC(=O)n1c(C([NH-])=O)cc2ccc(-c3ccc(NS(C)(=O)=O)cc3)cc21 (protonated)
CC(C)(C)OC(=O)n1c(C([NH-])=O)cc2ccc(-c3ccc(NS(C)(=O)=O)cc3)cc21 (3D coordinates assigned)
CC(C)(C)OC(=O)n1c(C([NH-])=O)cc2ccc(-c3ccc(NS(C)(=O)=O)cc3)cc21 (optimized conformer: 91.42250706384284 kcal/mol)

>  <smiles>  (48) 
CC(C)(C)OC(=O)n1c(C(N)=O)cc2ccc(-c3ccc(NS(C)(=O)=O)cc3)cc21

>  <score_type>  (48) 
oracle

>  <origin>  (48) 
adg

>  <m_score__min__energy>  (48) 
-11.42

>  <m_primary>  (48) 
energy

$$$$
48:0
     RDKit          3D

 39 41  0  0  0  0  0  0  0  0999 V2000
   -2.0070   20.9610  -32.3690 C   0  0  0  0  0  0  0  0  0  0  0  0
   -2.7240   22.1860  -32.4570 O   0  0  0  0  0  0  0  0  0  0  0  0
   -3.4270   22.7300  -31.3770 C   0  0  0  0  0  0  0  0  0  0  0  0
   -2.8080   23.1260  -30.3520 O   0  0  0  0  0  0  0  0  0  0  0  0
   -4.8600   22.8120  -31.4260 N   0  0  0  0  0  0  0  0  0  0  0  0
   -5.6430   23.8860  -31.1220 C   0  0  0  0  0  0  0  0  0  0  0  0
   -5.1790   25.1580  -30.5270 C   0  0  0  0  0  0  0  0  0  0  0  0
   -3.8900   25.6680  -30.8590 N   0  0  0  0  0  0  0  0  0  0  0  0
   -5.9250   25.8190  -29.7580 O   0  0  0  0  0  0  0  0  0  0  0  0
   -6.9830   23.6000  -31.3710 C   0  0  0  0  0  0  0  0  0  0  0  0
   -6.9990   22.3050  -31.8340 C   0  0  0  0  0  0  0  0  0  0  0  0
   -8.0680   21.5150  -32.2460 C   0  0  0  0  0  0  0  0  0  0  0  0
   -7.7910   20.2180  -32.7060 C   0  0  0  0  0  0  0  0  0  0  0  0
   -6.4570   19.7330  -32.7560 C   0  0  0  0  0  0  0  0  0  0  0  0
   -6.1750   18.3640  -33.2560 C   0  0  0  0  0  0  0  0  0  0  0  0
   -7.1240   17.3380  -33.1100 C   0  0  0  0  0  0  0  0  0  0  0  0
   -6.8590   16.0500  -33.5820 C   0  0  0  0  0  0  0  0  0  0  0  0
   -5.6330   15.7630  -34.2110 C   0  0  0  0  0  0  0  0  0  0  0  0
   -5.3190   14.4860  -34.7010 O   0  0  0  0  0  0  0  0  0  0  0  0
   -6.0770   13.3130  -34.4300 C   0  0  0  0  0  0  0  0  0  0  0  0
   -4.6870   16.7820  -34.3580 C   0  0  0  0  0  0  0  0  0  0  0  0
   -4.9520   18.0720  -33.8860 C   0  0  0  0  0  0  0  0  0  0  0  0
   -5.3990   20.5690  -32.3290 C   0  0  0  0  0  0  0  0  0  0  0  0
   -5.7060   21.8510  -31.8570 C   0  0  0  0  0  0  0  0  0  0  0  0
   -1.8546   20.7005  -31.3112 H   0  0  0  0  0  0  0  0  0  0  0  0
   -2.5811   20.1638  -32.8639 H   0  0  0  0  0  0  0  0  0  0  0  0
   -1.0308   21.0712  -32.8639 H   0  0  0  0  0  0  0  0  0  0  0  0
   -3.0280   25.2720  -30.4210 H   0  0  0  0  0  0  0  0  0  0  0  0
   -7.8453   24.2678  -31.2278 H   0  0  0  0  0  0  0  0  0  0  0  0
   -9.0995   21.8956  -32.2122 H   0  0  0  0  0  0  0  0  0  0  0  0
   -8.6174   19.5692  -33.0318 H   0  0  0  0  0  0  0  0  0  0  0  0
   -8.0851   17.5510  -32.6192 H   0  0  0  0  0  0  0  0  0  0  0  0
   -7.6116   15.2569  -33.4615 H   0  0  0  0  0  0  0  0  0  0  0  0
   -6.1651   13.1766  -33.3421 H   0  0  0  0  0  0  0  0  0  0  0  0
   -7.0803   13.4152  -34.8692 H   0  0  0  0  0  0  0  0  0  0  0  0
   -5.5716   12.4402  -34.8692 H   0  0  0  0  0  0  0  0  0  0  0  0
   -3.7263   16.5676  -34.8489 H   0  0  0  0  0  0  0  0  0  0  0  0
   -4.1983   18.8637  -34.0085 H   0  0  0  0  0  0  0  0  0  0  0  0
   -4.3568   20.2193  -32.3669 H   0  0  0  0  0  0  0  0  0  0  0  0
  1  2  1  0
  2  3  1  0
  3  4  2  0
  3  5  1  0
  5  6  1  0
  6  7  1  0
  7  8  1  0
  7  9  2  0
  6 10  2  0
 10 11  1  0
 11 12  2  0
 12 13  1  0
 13 14  2  0
 14 15  1  0
 15 16  2  0
 16 17  1  0
 17 18  2  0
 18 19  1  0
 19 20  1  0
 18 21  1  0
 21 22  2  0
 14 23  1  0
 23 24  2  0
 24  5  1  0
 24 11  1  0
 22 15  1  0
  1 25  1  0
  1 26  1  0
  1 27  1  0
  8 28  1  0
 10 29  1  0
 12 30  1  0
 13 31  1  0
 16 32  1  0
 17 33  1  0
 20 34  1  0
 20 35  1  0
 20 36  1  0
 21 37  1  0
 22 38  1  0
 23 39  1  0
M  CHG  1   8  -1
M  END
>  <UniqueID>  (49) 
49

>  <SMILES>  (49) 
COC(=O)n1c(C([NH-])=O)cc2ccc(-c3ccc(OC)cc3)cc21

>  <Energy>  (49) 
82.92324584124066

>  <Genealogy>  (49) 
COC(=O)n1c(C([NH-])=O)cc2ccc(-c3ccc(OC)cc3)cc21 (protonated)
COC(=O)n1c(C([NH-])=O)cc2ccc(-c3ccc(OC)cc3)cc21 (3D coordinates assigned)
COC(=O)n1c(C([NH-])=O)cc2ccc(-c3ccc(OC)cc3)cc21 (optimized conformer: 82.92324584124066 kcal/mol)

>  <smiles>  (49) 
COC(=O)n1c(C(N)=O)cc2ccc(-c3ccc(OC)cc3)cc21

>  <score_type>  (49) 
oracle

>  <origin>  (49) 
adg

>  <m_score__min__energy>  (49) 
-10

>  <m_primary>  (49) 
energy

$$$$
49:0
     RDKit          3D

 46 49  0  0  0  0  0  0  0  0999 V2000
   -3.4980   25.0830  -30.4430 N   0  0  0  0  0  0  0  0  0  0  0  0
   -4.8860   25.3060  -30.6730 C   0  0  0  0  0  0  0  0  0  0  0  0
   -5.3620   26.4600  -30.4950 O   0  0  0  0  0  0  0  0  0  0  0  0
   -5.7820   24.2010  -31.0740 C   0  0  0  0  0  0  0  0  0  0  0  0
   -7.1560   24.1990  -30.8390 C   0  0  0  0  0  0  0  0  0  0  0  0
   -7.6030   22.9770  -31.2870 C   0  0  0  0  0  0  0  0  0  0  0  0
   -8.8860   22.4390  -31.2950 C   0  0  0  0  0  0  0  0  0  0  0  0
   -9.0570   21.1510  -31.8300 C   0  0  0  0  0  0  0  0  0  0  0  0
   -7.9540   20.4380  -32.3630 C   0  0  0  0  0  0  0  0  0  0  0  0
   -8.1370   19.0390  -32.8970 C   0  0  0  0  0  0  0  0  0  0  0  0
   -8.0780   17.9880  -31.7790 C   0  0  0  0  0  0  0  0  0  0  0  0
   -6.6440   17.7230  -31.2980 C   0  0  0  0  0  0  0  0  0  0  0  0
   -5.8060   17.3160  -32.4240 N   0  0  0  0  0  0  0  0  0  0  0  0
   -6.0520   16.2940  -33.2790 C   0  0  0  0  0  0  0  0  0  0  0  0
   -5.0820   16.2450  -34.2730 C   0  0  0  0  0  0  0  0  0  0  0  0
   -4.2270   17.2930  -34.0020 C   0  0  0  0  0  0  0  0  0  0  0  0
   -3.0920   17.7330  -34.6800 C   0  0  0  0  0  0  0  0  0  0  0  0
   -2.4250   18.8650  -34.1780 C   0  0  0  0  0  0  0  0  0  0  0  0
   -2.9040   19.5250  -33.0250 C   0  0  0  0  0  0  0  0  0  0  0  0
   -4.0510   19.0570  -32.3610 C   0  0  0  0  0  0  0  0  0  0  0  0
   -4.6920   17.9270  -32.8790 C   0  0  0  0  0  0  0  0  0  0  0  0
   -6.6680   21.0240  -32.3480 C   0  0  0  0  0  0  0  0  0  0  0  0
   -6.5220   22.2920  -31.7780 C   0  0  0  0  0  0  0  0  0  0  0  0
   -5.3970   23.0270  -31.6510 N   0  0  0  0  0  0  0  0  0  0  0  0
   -4.0830   22.6500  -32.0910 C   0  0  0  0  0  0  0  0  0  0  0  0
   -3.8500   22.3030  -33.4550 N   0  0  0  0  0  0  0  0  0  0  0  0
   -3.1270   22.6320  -31.2710 O   0  0  0  0  0  0  0  0  0  0  0  0
   -2.8640   24.7930  -31.2210 H   0  0  0  0  0  0  0  0  0  0  0  0
   -7.7562   25.0042  -30.3902 H   0  0  0  0  0  0  0  0  0  0  0  0
   -9.7404   23.0046  -30.8948 H   0  0  0  0  0  0  0  0  0  0  0  0
  -10.0565   20.6916  -31.8352 H   0  0  0  0  0  0  0  0  0  0  0  0
   -9.1154   18.9736  -33.3955 H   0  0  0  0  0  0  0  0  0  0  0  0
   -7.3184   18.8332  -33.6024 H   0  0  0  0  0  0  0  0  0  0  0  0
   -8.6758   18.3447  -30.9273 H   0  0  0  0  0  0  0  0  0  0  0  0
   -8.4748   17.0455  -32.1842 H   0  0  0  0  0  0  0  0  0  0  0  0
   -6.2339   18.6411  -30.8520 H   0  0  0  0  0  0  0  0  0  0  0  0
   -6.6576   16.9179  -30.5486 H   0  0  0  0  0  0  0  0  0  0  0  0
   -6.9013   15.5997  -33.1976 H   0  0  0  0  0  0  0  0  0  0  0  0
   -5.0111   15.5236  -35.1003 H   0  0  0  0  0  0  0  0  0  0  0  0
   -2.7295   17.2121  -35.5785 H   0  0  0  0  0  0  0  0  0  0  0  0
   -1.5242   19.2387  -34.6869 H   0  0  0  0  0  0  0  0  0  0  0  0
   -2.3758   20.4115  -32.6440 H   0  0  0  0  0  0  0  0  0  0  0  0
   -4.4325   19.5635  -31.4622 H   0  0  0  0  0  0  0  0  0  0  0  0
   -5.8029   20.4951  -32.7745 H   0  0  0  0  0  0  0  0  0  0  0  0
   -4.6430   22.2530  -34.1330 H   0  0  0  0  0  0  0  0  0  0  0  0
   -2.8900   22.0580  -33.7800 H   0  0  0  0  0  0  0  0  0  0  0  0
  1  2  1  0
  2  3  2  0
  2  4  1  0
  4  5  2  0
  5  6  1  0
  6  7  2  0
  7  8  1  0
  8  9  2  0
  9 10  1  0
 10 11  1  0
 11 12  1  0
 12 13  1  0
 13 14  1  0
 14 15  2  0
 15 16  1  0
 16 17  2  0
 17 18  1  0
 18 19  2  0
 19 20  1  0
 20 21  2  0
  9 22  1  0
 22 23  2  0
 23 24  1  0
 24 25  1  0
 25 26  1  0
 25 27  2  0
 24  4  1  0
 23  6  1  0
 21 13  1  0
 21 16  1  0
  1 28  1  0
  5 29  1  0
  7 30  1  0
  8 31  1  0
 10 32  1  0
 10 33  1  0
 11 34  1  0
 11 35  1  0
 12 36  1  0
 12 37  1  0
 14 38  1  0
 15 39  1  0
 17 40  1  0
 18 41  1  0
 19 42  1  0
 20 43  1  0
 22 44  1  0
 26 45  1  0
 26 46  1  0
M  CHG  1   1  -1
M  END
>  <UniqueID>  (50) 
50

>  <SMILES>  (50) 
[NH-]C(=O)c1cc2ccc(CCCn3ccc4ccccc43)cc2n1C(N)=O

>  <Energy>  (50) 
115.90584973250833

>  <Genealogy>  (50) 
[NH-]C(=O)c1cc2ccc(CCCn3ccc4ccccc43)cc2n1C(N)=O (protonated)
[NH-]C(=O)c1cc2ccc(CCCn3ccc4ccccc43)cc2n1C(N)=O (3D coordinates assigned)
[NH-]C(=O)c1cc2ccc(CCCn3ccc4ccccc43)cc2n1C(N)=O (optimized conformer: 115.90584973250833 kcal/mol)

>  <smiles>  (50) 
NC(=O)c1cc2ccc(CCCn3ccc4ccccc43)cc2n1C(N)=O

>  <score_type>  (50) 
oracle

>  <origin>  (50) 
adg

>  <m_score__min__energy>  (50) 
-12.09

>  <m_primary>  (50) 
energy

$$$$
50:0
     RDKit          3D

 53 55  0  0  0  0  0  0  0  0999 V2000
   -3.0890   15.1560  -34.8170 C   0  0  0  0  0  0  0  0  0  0  0  0
   -3.8010   14.0820  -34.1200 N   0  0  0  0  0  0  0  0  0  0  0  0
   -5.2550   14.2820  -34.1760 C   0  0  0  0  0  0  0  0  0  0  0  0
   -5.6200   15.6610  -33.6950 C   0  0  0  0  0  0  0  0  0  0  0  0
   -5.4350   16.0080  -32.3490 C   0  0  0  0  0  0  0  0  0  0  0  0
   -5.7520   17.2930  -31.9000 C   0  0  0  0  0  0  0  0  0  0  0  0
   -6.2580   18.2560  -32.7910 C   0  0  0  0  0  0  0  0  0  0  0  0
   -6.5980   19.6210  -32.3140 C   0  0  0  0  0  0  0  0  0  0  0  0
   -7.9520   20.0300  -32.2050 C   0  0  0  0  0  0  0  0  0  0  0  0
   -8.2810   21.3150  -31.7430 C   0  0  0  0  0  0  0  0  0  0  0  0
   -7.2410   22.1750  -31.4070 C   0  0  0  0  0  0  0  0  0  0  0  0
   -7.2780   23.4570  -30.9060 C   0  0  0  0  0  0  0  0  0  0  0  0
   -5.9460   23.8270  -30.7460 C   0  0  0  0  0  0  0  0  0  0  0  0
   -5.5240   25.1650  -30.2860 C   0  0  0  0  0  0  0  0  0  0  0  0
   -6.1650   25.8050  -29.1810 N   0  0  0  0  0  0  0  0  0  0  0  0
   -4.5450   25.7300  -30.8410 O   0  0  0  0  0  0  0  0  0  0  0  0
   -5.1170   22.8110  -31.1180 N   0  0  0  0  0  0  0  0  0  0  0  0
   -3.6850   22.7630  -31.0100 C   0  0  0  0  0  0  0  0  0  0  0  0
   -3.0280   21.9930  -31.7610 O   0  0  0  0  0  0  0  0  0  0  0  0
   -3.0370   23.5790  -30.0710 O   0  0  0  0  0  0  0  0  0  0  0  0
   -2.7240   23.2360  -28.7140 C   0  0  0  0  0  0  0  0  0  0  0  0
   -1.2080   23.4110  -28.5430 C   0  0  0  0  0  0  0  0  0  0  0  0
   -3.0910   21.7670  -28.4290 C   0  0  0  0  0  0  0  0  0  0  0  0
   -3.4500   24.1790  -27.7360 C   0  0  0  0  0  0  0  0  0  0  0  0
   -5.9260   21.8080  -31.5240 C   0  0  0  0  0  0  0  0  0  0  0  0
   -5.5700   20.5250  -31.9560 C   0  0  0  0  0  0  0  0  0  0  0  0
   -6.4360   17.9060  -34.1420 C   0  0  0  0  0  0  0  0  0  0  0  0
   -6.1190   16.6200  -34.5900 C   0  0  0  0  0  0  0  0  0  0  0  0
   -2.6382   15.8361  -34.0793 H   0  0  0  0  0  0  0  0  0  0  0  0
   -2.2985   14.7229  -35.4475 H   0  0  0  0  0  0  0  0  0  0  0  0
   -3.7957   15.7154  -35.4475 H   0  0  0  0  0  0  0  0  0  0  0  0
   -3.5840   13.1900  -34.6230 H   0  0  0  0  0  0  0  0  0  0  0  0
   -5.5969   14.1592  -35.2143 H   0  0  0  0  0  0  0  0  0  0  0  0
   -5.7400   13.5398  -33.5249 H   0  0  0  0  0  0  0  0  0  0  0  0
   -5.0380   15.2644  -31.6423 H   0  0  0  0  0  0  0  0  0  0  0  0
   -5.6045   17.5531  -30.8414 H   0  0  0  0  0  0  0  0  0  0  0  0
   -8.7544   19.3320  -32.4859 H   0  0  0  0  0  0  0  0  0  0  0  0
   -9.3303   21.6318  -31.6497 H   0  0  0  0  0  0  0  0  0  0  0  0
   -8.1699   24.0600  -30.6804 H   0  0  0  0  0  0  0  0  0  0  0  0
   -5.8820   26.7680  -28.8980 H   0  0  0  0  0  0  0  0  0  0  0  0
   -6.8590   25.2960  -28.5900 H   0  0  0  0  0  0  0  0  0  0  0  0
   -0.9607   23.4395  -27.4715 H   0  0  0  0  0  0  0  0  0  0  0  0
   -0.6857   22.5672  -29.0175 H   0  0  0  0  0  0  0  0  0  0  0  0
   -0.8916   24.3516  -29.0175 H   0  0  0  0  0  0  0  0  0  0  0  0
   -3.1318   21.6035  -27.3420 H   0  0  0  0  0  0  0  0  0  0  0  0
   -4.0730   21.5420  -28.8708 H   0  0  0  0  0  0  0  0  0  0  0  0
   -2.3302   21.1067  -28.8708 H   0  0  0  0  0  0  0  0  0  0  0  0
   -3.2211   23.8817  -26.7020 H   0  0  0  0  0  0  0  0  0  0  0  0
   -3.1120   25.2122  -27.9038 H   0  0  0  0  0  0  0  0  0  0  0  0
   -4.5353   24.1164  -27.9038 H   0  0  0  0  0  0  0  0  0  0  0  0
   -4.5132   20.2258  -32.0159 H   0  0  0  0  0  0  0  0  0  0  0  0
   -6.8276   18.6499  -34.8514 H   0  0  0  0  0  0  0  0  0  0  0  0
   -6.2614   16.3587  -35.6490 H   0  0  0  0  0  0  0  0  0  0  0  0
  1  2  1  0
  2  3  1  0
  3  4  1  0
  4  5  2  0
  5  6  1  0
  6  7  2  0
  7  8  1  0
  8  9  2  0
  9 10  1  0
 10 11  2  0
 11 12  1  0
 12 13  2  0
 13 14  1  0
 14 15  1  0
 14 16  2  0
 13 17  1  0
 17 18  1  0
 18 19  2  0
 18 20  1  0
 20 21  1  0
 21 22  1  0
 21 23  1  0
 21 24  1  0
 17 25  1  0
 25 26  2  0
  7 27  1  0
 27 28  2  0
 28  4  1  0
 26  8  1  0
 25 11  1  0
  1 29  1  0
  1 30  1  0
  1 31  1  0
  2 32  1  0
  3 33  1  0
  3 34  1  0
  5 35  1  0
  6 36  1  0
  9 37  1  0
 10 38  1  0
 12 39  1  0
 15 40  1  0
 15 41  1  0
 22 42  1  0
 22 43  1  0
 22 44  1  0
 23 45  1  0
 23 46  1  0
 23 47  1  0
 24 48  1  0
 24 49  1  0
 24 50  1  0
 26 51  1  0
 27 52  1  0
 28 53  1  0
M  END
>  <UniqueID>  (51) 
51

>  <SMILES>  (51) 
CNCc1ccc(-c2ccc3cc(C(N)=O)n(C(=O)OC(C)(C)C)c3c2)cc1

>  <Energy>  (51) 
92.2628318968874

>  <Genealogy>  (51) 
CNCc1ccc(-c2ccc3cc(C(N)=O)n(C(=O)OC(C)(C)C)c3c2)cc1 (3D coordinates assigned)
CNCc1ccc(-c2ccc3cc(C(N)=O)n(C(=O)OC(C)(C)C)c3c2)cc1 (optimized conformer: 92.2628318968874 kcal/mol)

>  <smiles>  (51) 
CNCc1ccc(-c2ccc3cc(C(N)=O)n(C(=O)OC(C)(C)C)c3c2)cc1

>  <score_type>  (51) 
oracle

>  <origin>  (51) 
adg

>  <m_score__min__energy>  (51) 
-9.7799999999999994

>  <m_primary>  (51) 
energy

$$$$
51:0
     RDKit          3D

 48 50  0  0  0  0  0  0  0  0999 V2000
   -3.1170   21.8640  -28.4970 C   0  0  0  0  0  0  0  0  0  0  0  0
   -2.8760   23.3720  -28.6620 C   0  0  0  0  0  0  0  0  0  0  0  0
   -1.4120   23.6910  -28.2990 C   0  0  0  0  0  0  0  0  0  0  0  0
   -3.8440   24.1350  -27.7370 C   0  0  0  0  0  0  0  0  0  0  0  0
   -3.1350   23.6930  -30.0370 O   0  0  0  0  0  0  0  0  0  0  0  0
   -3.7380   22.8580  -30.9890 C   0  0  0  0  0  0  0  0  0  0  0  0
   -3.0460   22.0680  -31.6860 O   0  0  0  0  0  0  0  0  0  0  0  0
   -5.1620   22.9160  -31.1780 N   0  0  0  0  0  0  0  0  0  0  0  0
   -6.0080   23.9220  -30.8170 C   0  0  0  0  0  0  0  0  0  0  0  0
   -5.6070   25.2460  -30.3010 C   0  0  0  0  0  0  0  0  0  0  0  0
   -6.2680   25.8350  -29.1800 N   0  0  0  0  0  0  0  0  0  0  0  0
   -4.6260   25.8420  -30.8220 O   0  0  0  0  0  0  0  0  0  0  0  0
   -7.3320   23.5550  -31.0400 C   0  0  0  0  0  0  0  0  0  0  0  0
   -7.2720   22.2860  -31.5700 C   0  0  0  0  0  0  0  0  0  0  0  0
   -8.2980   21.4330  -31.9630 C   0  0  0  0  0  0  0  0  0  0  0  0
   -7.9490   20.1580  -32.4400 C   0  0  0  0  0  0  0  0  0  0  0  0
   -6.5900   19.7530  -32.5060 C   0  0  0  0  0  0  0  0  0  0  0  0
   -6.2310   18.3990  -33.0030 C   0  0  0  0  0  0  0  0  0  0  0  0
   -7.1970   17.3830  -33.0600 C   0  0  0  0  0  0  0  0  0  0  0  0
   -6.8660   16.1190  -33.5440 C   0  0  0  0  0  0  0  0  0  0  0  0
   -5.5670   15.8440  -33.9830 C   0  0  0  0  0  0  0  0  0  0  0  0
   -5.2260   14.2260  -34.5900 Cl  0  0  0  0  0  0  0  0  0  0  0  0
   -4.5750   16.8480  -33.9330 C   0  0  0  0  0  0  0  0  0  0  0  0
   -3.1660   16.5660  -34.4090 C   0  0  0  0  0  0  0  0  0  0  0  0
   -3.1430   16.1080  -35.7160 F   0  0  0  0  0  0  0  0  0  0  0  0
   -2.5910   15.6000  -33.6030 F   0  0  0  0  0  0  0  0  0  0  0  0
   -2.4120   17.7240  -34.3410 F   0  0  0  0  0  0  0  0  0  0  0  0
   -4.9230   18.1210  -33.4370 C   0  0  0  0  0  0  0  0  0  0  0  0
   -5.5790   20.6500  -32.0910 C   0  0  0  0  0  0  0  0  0  0  0  0
   -5.9520   21.9220  -31.6400 C   0  0  0  0  0  0  0  0  0  0  0  0
   -3.1569   21.6140  -27.4265 H   0  0  0  0  0  0  0  0  0  0  0  0
   -4.0702   21.5908  -28.9732 H   0  0  0  0  0  0  0  0  0  0  0  0
   -2.2964   21.3073  -28.9732 H   0  0  0  0  0  0  0  0  0  0  0  0
   -1.3024   23.7149  -27.2047 H   0  0  0  0  0  0  0  0  0  0  0  0
   -0.7533   22.9153  -28.7166 H   0  0  0  0  0  0  0  0  0  0  0  0
   -1.1357   24.6704  -28.7166 H   0  0  0  0  0  0  0  0  0  0  0  0
   -3.5854   23.9312  -26.6874 H   0  0  0  0  0  0  0  0  0  0  0  0
   -3.7628   25.2146  -27.9317 H   0  0  0  0  0  0  0  0  0  0  0  0
   -4.8748   23.8039  -27.9317 H   0  0  0  0  0  0  0  0  0  0  0  0
   -6.0100   26.7980  -28.8680 H   0  0  0  0  0  0  0  0  0  0  0  0
   -6.9560   25.2930  -28.6120 H   0  0  0  0  0  0  0  0  0  0  0  0
   -8.2335   24.1515  -30.8363 H   0  0  0  0  0  0  0  0  0  0  0  0
   -9.3505   21.7469  -31.9023 H   0  0  0  0  0  0  0  0  0  0  0  0
   -8.7387   19.4652  -32.7663 H   0  0  0  0  0  0  0  0  0  0  0  0
   -8.2233   17.5858  -32.7201 H   0  0  0  0  0  0  0  0  0  0  0  0
   -7.6327   15.3311  -33.5811 H   0  0  0  0  0  0  0  0  0  0  0  0
   -4.1581   18.9101  -33.3888 H   0  0  0  0  0  0  0  0  0  0  0  0
   -4.5199   20.3543  -32.1218 H   0  0  0  0  0  0  0  0  0  0  0  0
  1  2  1  0
  2  3  1  0
  2  4  1  0
  2  5  1  0
  5  6  1  0
  6  7  2  0
  6  8  1  0
  8  9  1  0
  9 10  1  0
 10 11  1  0
 10 12  2  0
  9 13  2  0
 13 14  1  0
 14 15  2  0
 15 16  1  0
 16 17  2  0
 17 18  1  0
 18 19  2  0
 19 20  1  0
 20 21  2  0
 21 22  1  0
 21 23  1  0
 23 24  1  0
 24 25  1  0
 24 26  1  0
 24 27  1  0
 23 28  2  0
 17 29  1  0
 29 30  2  0
 30  8  1  0
 30 14  1  0
 28 18  1  0
  1 31  1  0
  1 32  1  0
  1 33  1  0
  3 34  1  0
  3 35  1  0
  3 36  1  0
  4 37  1  0
  4 38  1  0
  4 39  1  0
 11 40  1  0
 11 41  1  0
 13 42  1  0
 15 43  1  0
 16 44  1  0
 19 45  1  0
 20 46  1  0
 28 47  1  0
 29 48  1  0
M  END
>  <UniqueID>  (52) 
52

>  <SMILES>  (52) 
CC(C)(C)OC(=O)n1c(C(N)=O)cc2ccc(-c3ccc(Cl)c(C(F)(F)F)c3)cc21

>  <Energy>  (52) 
91.88986333110056

>  <Genealogy>  (52) 
CC(C)(C)OC(=O)n1c(C(N)=O)cc2ccc(-c3ccc(Cl)c(C(F)(F)F)c3)cc21 (3D coordinates assigned)
CC(C)(C)OC(=O)n1c(C(N)=O)cc2ccc(-c3ccc(Cl)c(C(F)(F)F)c3)cc21 (optimized conformer: 91.88986333110056 kcal/mol)

>  <smiles>  (52) 
CC(C)(C)OC(=O)n1c(C(N)=O)cc2ccc(-c3ccc(Cl)c(C(F)(F)F)c3)cc21

>  <score_type>  (52) 
oracle

>  <origin>  (52) 
adg

>  <m_score__min__energy>  (52) 
-9.9800000000000004

>  <m_primary>  (52) 
energy

$$$$
52:0
     RDKit          3D

 39 40  0  0  0  0  0  0  0  0999 V2000
   -1.1010   21.2810  -33.1280 C   0  0  0  0  0  0  0  0  0  0  0  0
   -2.5450   20.8910  -32.7590 C   0  0  0  0  0  0  0  0  0  0  0  0
   -2.5500   20.2790  -31.3500 C   0  0  0  0  0  0  0  0  0  0  0  0
   -3.1010   19.8530  -33.7530 C   0  0  0  0  0  0  0  0  0  0  0  0
   -3.3870   22.0510  -32.7180 O   0  0  0  0  0  0  0  0  0  0  0  0
   -3.8220   22.7230  -31.5650 C   0  0  0  0  0  0  0  0  0  0  0  0
   -2.9980   23.1690  -30.7230 O   0  0  0  0  0  0  0  0  0  0  0  0
   -5.2280   22.9280  -31.3610 N   0  0  0  0  0  0  0  0  0  0  0  0
   -5.8590   24.0650  -30.9480 C   0  0  0  0  0  0  0  0  0  0  0  0
   -5.2020   25.2960  -30.4620 C   0  0  0  0  0  0  0  0  0  0  0  0
   -3.8680   25.6170  -30.8460 N   0  0  0  0  0  0  0  0  0  0  0  0
   -5.8110   26.0520  -29.6580 O   0  0  0  0  0  0  0  0  0  0  0  0
   -7.2410   23.8870  -30.9620 C   0  0  0  0  0  0  0  0  0  0  0  0
   -7.4390   22.5950  -31.3920 C   0  0  0  0  0  0  0  0  0  0  0  0
   -8.6220   21.8940  -31.6070 C   0  0  0  0  0  0  0  0  0  0  0  0
   -8.5300   20.5760  -32.0870 C   0  0  0  0  0  0  0  0  0  0  0  0
   -7.2660   19.9880  -32.3390 C   0  0  0  0  0  0  0  0  0  0  0  0
   -7.1810   18.5930  -32.8940 C   0  0  0  0  0  0  0  0  0  0  0  0
   -6.0260   18.4740  -33.8400 C   0  0  0  0  0  0  0  0  0  0  0  0
   -6.0860   18.9680  -34.9550 O   0  0  0  0  0  0  0  0  0  0  0  0
   -6.0860   20.7330  -32.1190 C   0  0  0  0  0  0  0  0  0  0  0  0
   -6.2080   22.0370  -31.6240 C   0  0  0  0  0  0  0  0  0  0  0  0
   -0.5175   21.4386  -32.2089 H   0  0  0  0  0  0  0  0  0  0  0  0
   -0.6430   20.4744  -33.7193 H   0  0  0  0  0  0  0  0  0  0  0  0
   -1.1114   22.2085  -33.7193 H   0  0  0  0  0  0  0  0  0  0  0  0
   -2.5434   21.0841  -30.6005 H   0  0  0  0  0  0  0  0  0  0  0  0
   -3.4532   19.6647  -31.2203 H   0  0  0  0  0  0  0  0  0  0  0  0
   -1.6570   19.6500  -31.2203 H   0  0  0  0  0  0  0  0  0  0  0  0
   -3.5492   19.0163  -33.1970 H   0  0  0  0  0  0  0  0  0  0  0  0
   -3.8671   20.3249  -34.3858 H   0  0  0  0  0  0  0  0  0  0  0  0
   -2.2836   19.4768  -34.3858 H   0  0  0  0  0  0  0  0  0  0  0  0
   -3.0530   25.2910  -30.2820 H   0  0  0  0  0  0  0  0  0  0  0  0
   -8.0106   24.6234  -30.6874 H   0  0  0  0  0  0  0  0  0  0  0  0
   -9.5995   22.3574  -31.4073 H   0  0  0  0  0  0  0  0  0  0  0  0
   -9.4471   19.9964  -32.2685 H   0  0  0  0  0  0  0  0  0  0  0  0
   -7.0454   17.8817  -32.0660 H   0  0  0  0  0  0  0  0  0  0  0  0
   -8.1106   18.3694  -33.4379 H   0  0  0  0  0  0  0  0  0  0  0  0
   -5.1175   17.9379  -33.5282 H   0  0  0  0  0  0  0  0  0  0  0  0
   -5.0973   20.3000  -32.3310 H   0  0  0  0  0  0  0  0  0  0  0  0
  1  2  1  0
  2  3  1  0
  2  4  1  0
  2  5  1  0
  5  6  1  0
  6  7  2  0
  6  8  1  0
  8  9  1  0
  9 10  1  0
 10 11  1  0
 10 12  2  0
  9 13  2  0
 13 14  1  0
 14 15  2  0
 15 16  1  0
 16 17  2  0
 17 18  1  0
 18 19  1  0
 19 20  2  0
 17 21  1  0
 21 22  2  0
 22  8  1  0
 22 14  1  0
  1 23  1  0
  1 24  1  0
  1 25  1  0
  3 26  1  0
  3 27  1  0
  3 28  1  0
  4 29  1  0
  4 30  1  0
  4 31  1  0
 11 32  1  0
 13 33  1  0
 15 34  1  0
 16 35  1  0
 18 36  1  0
 18 37  1  0
 19 38  1  0
 21 39  1  0
M  CHG  1  11  -1
M  END
>  <UniqueID>  (53) 
53

>  <SMILES>  (53) 
CC(C)(C)OC(=O)n1c(C([NH-])=O)cc2ccc(CC=O)cc21

>  <Energy>  (53) 
71.04871012269825

>  <Genealogy>  (53) 
CC(C)(C)OC(=O)n1c(C([NH-])=O)cc2ccc(CC=O)cc21 (protonated)
CC(C)(C)OC(=O)n1c(C([NH-])=O)cc2ccc(CC=O)cc21 (3D coordinates assigned)
CC(C)(C)OC(=O)n1c(C([NH-])=O)cc2ccc(CC=O)cc21 (optimized conformer: 71.04871012269825 kcal/mol)

>  <smiles>  (53) 
CC(C)(C)OC(=O)n1c(C(N)=O)cc2ccc(CC=O)cc21

>  <score_type>  (53) 
oracle

>  <origin>  (53) 
adg

>  <m_score__min__energy>  (53) 
-9.9499999999999993

>  <m_primary>  (53) 
energy

$$$$
53:0
     RDKit          3D

 43 45  0  0  0  0  0  0  0  0999 V2000
   -3.6680   24.1920  -27.2020 C   0  0  0  0  0  0  0  0  0  0  0  0
   -4.5720   24.2570  -28.4260 C   0  0  0  0  0  0  0  0  0  0  0  0
   -3.7490   24.3350  -29.6780 C   0  0  0  0  0  0  0  0  0  0  0  0
   -3.8760   25.3260  -30.4430 O   0  0  0  0  0  0  0  0  0  0  0  0
   -2.7440   23.3470  -29.9560 N   0  0  0  0  0  0  0  0  0  0  0  0
   -1.3980   23.4390  -29.7680 C   0  0  0  0  0  0  0  0  0  0  0  0
   -0.6930   24.5390  -29.0780 C   0  0  0  0  0  0  0  0  0  0  0  0
   -1.2410   25.8580  -29.0260 N   0  0  0  0  0  0  0  0  0  0  0  0
    0.3940   24.3010  -28.4870 O   0  0  0  0  0  0  0  0  0  0  0  0
   -0.7540   22.3210  -30.2920 C   0  0  0  0  0  0  0  0  0  0  0  0
   -1.7590   21.5280  -30.8000 C   0  0  0  0  0  0  0  0  0  0  0  0
   -1.6910   20.3020  -31.4530 C   0  0  0  0  0  0  0  0  0  0  0  0
   -2.8910   19.7280  -31.9060 C   0  0  0  0  0  0  0  0  0  0  0  0
   -4.1340   20.3870  -31.7060 C   0  0  0  0  0  0  0  0  0  0  0  0
   -5.3940   19.7780  -32.2010 C   0  0  0  0  0  0  0  0  0  0  0  0
   -5.3800   18.5310  -32.8480 C   0  0  0  0  0  0  0  0  0  0  0  0
   -6.5780   17.9740  -33.3110 C   0  0  0  0  0  0  0  0  0  0  0  0
   -6.5800   16.6420  -33.9910 C   0  0  0  0  0  0  0  0  0  0  0  0
   -7.7510   18.6390  -33.1240 N   0  0  0  0  0  0  0  0  0  0  0  0
   -7.8020   19.8450  -32.4980 C   0  0  0  0  0  0  0  0  0  0  0  0
   -9.1150   20.5430  -32.3350 C   0  0  0  0  0  0  0  0  0  0  0  0
   -6.6220   20.4370  -32.0300 C   0  0  0  0  0  0  0  0  0  0  0  0
   -4.1580   21.6340  -31.0370 C   0  0  0  0  0  0  0  0  0  0  0  0
   -2.9490   22.1710  -30.5850 C   0  0  0  0  0  0  0  0  0  0  0  0
   -4.2817   24.2361  -26.2902 H   0  0  0  0  0  0  0  0  0  0  0  0
   -3.0991   23.2506  -27.2159 H   0  0  0  0  0  0  0  0  0  0  0  0
   -2.9703   25.0423  -27.2159 H   0  0  0  0  0  0  0  0  0  0  0  0
   -5.2009   23.3552  -28.4608 H   0  0  0  0  0  0  0  0  0  0  0  0
   -5.2038   25.1548  -28.3568 H   0  0  0  0  0  0  0  0  0  0  0  0
   -2.2170   26.0520  -29.3360 H   0  0  0  0  0  0  0  0  0  0  0  0
   -0.6970   26.6320  -28.5830 H   0  0  0  0  0  0  0  0  0  0  0  0
    0.3266   22.1152  -30.2987 H   0  0  0  0  0  0  0  0  0  0  0  0
   -0.7267   19.7967  -31.6102 H   0  0  0  0  0  0  0  0  0  0  0  0
   -2.8679   18.7567  -32.4217 H   0  0  0  0  0  0  0  0  0  0  0  0
   -4.4306   17.9940  -32.9903 H   0  0  0  0  0  0  0  0  0  0  0  0
   -6.5812   15.8439  -33.2340 H   0  0  0  0  0  0  0  0  0  0  0  0
   -7.4783   16.5526  -34.6196 H   0  0  0  0  0  0  0  0  0  0  0  0
   -5.6820   16.5499  -34.6196 H   0  0  0  0  0  0  0  0  0  0  0  0
   -9.3370   20.6610  -31.2641 H   0  0  0  0  0  0  0  0  0  0  0  0
   -9.0651   21.5337  -32.8105 H   0  0  0  0  0  0  0  0  0  0  0  0
   -9.9083   19.9476  -32.8105 H   0  0  0  0  0  0  0  0  0  0  0  0
   -6.6573   21.4160  -31.5296 H   0  0  0  0  0  0  0  0  0  0  0  0
   -5.1060   22.1683  -30.8764 H   0  0  0  0  0  0  0  0  0  0  0  0
  1  2  1  0
  2  3  1  0
  3  4  2  0
  3  5  1  0
  5  6  1  0
  6  7  1  0
  7  8  1  0
  7  9  2  0
  6 10  2  0
 10 11  1  0
 11 12  2  0
 12 13  1  0
 13 14  2  0
 14 15  1  0
 15 16  2  0
 16 17  1  0
 17 18  1  0
 17 19  2  0
 19 20  1  0
 20 21  1  0
 20 22  2  0
 14 23  1  0
 23 24  2  0
 24  5  1  0
 24 11  1  0
 22 15  1  0
  1 25  1  0
  1 26  1  0
  1 27  1  0
  2 28  1  0
  2 29  1  0
  8 30  1  0
  8 31  1  0
 10 32  1  0
 12 33  1  0
 13 34  1  0
 16 35  1  0
 18 36  1  0
 18 37  1  0
 18 38  1  0
 21 39  1  0
 21 40  1  0
 21 41  1  0
 22 42  1  0
 23 43  1  0
M  END
>  <UniqueID>  (54) 
54

>  <SMILES>  (54) 
CCC(=O)n1c(C(N)=O)cc2ccc(-c3cc(C)nc(C)c3)cc21

>  <Energy>  (54) 
84.90524900226943

>  <Genealogy>  (54) 
CCC(=O)n1c(C(N)=O)cc2ccc(-c3cc(C)nc(C)c3)cc21 (3D coordinates assigned)
CCC(=O)n1c(C(N)=O)cc2ccc(-c3cc(C)nc(C)c3)cc21 (optimized conformer: 84.90524900226943 kcal/mol)

>  <smiles>  (54) 
CCC(=O)n1c(C(N)=O)cc2ccc(-c3cc(C)nc(C)c3)cc21

>  <score_type>  (54) 
oracle

>  <origin>  (54) 
adg

>  <m_score__min__energy>  (54) 
-9.1199999999999992

>  <m_primary>  (54) 
energy

$$$$
54:0
     RDKit          3D

 46 47  0  0  0  0  0  0  0  0999 V2000
   -4.1770   23.0040  -27.9430 C   0  0  0  0  0  0  0  0  0  0  0  0
   -3.1310   22.1090  -28.6340 C   0  0  0  0  0  0  0  0  0  0  0  0
   -1.8790   22.9480  -28.9360 C   0  0  0  0  0  0  0  0  0  0  0  0
   -2.7330   20.9330  -27.7220 C   0  0  0  0  0  0  0  0  0  0  0  0
   -3.6300   21.6280  -29.8900 O   0  0  0  0  0  0  0  0  0  0  0  0
   -4.0220   22.4120  -30.9860 C   0  0  0  0  0  0  0  0  0  0  0  0
   -3.1930   22.7350  -31.8780 O   0  0  0  0  0  0  0  0  0  0  0  0
   -5.3780   22.8760  -31.0710 N   0  0  0  0  0  0  0  0  0  0  0  0
   -5.8520   24.1320  -30.8290 C   0  0  0  0  0  0  0  0  0  0  0  0
   -5.0320   25.3360  -30.5790 C   0  0  0  0  0  0  0  0  0  0  0  0
   -3.6170   25.2170  -30.4550 N   0  0  0  0  0  0  0  0  0  0  0  0
   -5.5700   26.4650  -30.4370 O   0  0  0  0  0  0  0  0  0  0  0  0
   -7.2420   24.1560  -30.9280 C   0  0  0  0  0  0  0  0  0  0  0  0
   -7.6080   22.8690  -31.2470 C   0  0  0  0  0  0  0  0  0  0  0  0
   -8.8720   22.3220  -31.4440 C   0  0  0  0  0  0  0  0  0  0  0  0
   -8.9590   20.9490  -31.7280 C   0  0  0  0  0  0  0  0  0  0  0  0
   -7.7880   20.1540  -31.8110 C   0  0  0  0  0  0  0  0  0  0  0  0
   -7.9010   18.6750  -32.0820 C   0  0  0  0  0  0  0  0  0  0  0  0
   -6.5580   17.9500  -31.8990 C   0  0  0  0  0  0  0  0  0  0  0  0
   -6.0140   17.2990  -33.1800 C   0  0  0  0  0  0  0  0  0  0  0  0
   -5.4670   18.4960  -34.3940 S   0  0  0  0  0  0  0  0  0  0  0  0
   -5.3570   17.8190  -35.7300 O   0  0  0  0  0  0  0  0  0  0  0  0
   -6.4580   19.6200  -34.4930 O   0  0  0  0  0  0  0  0  0  0  0  0
   -3.9620   19.1150  -33.9760 O   0  0  0  0  0  0  0  0  0  0  0  0
   -6.5230   20.7440  -31.6010 C   0  0  0  0  0  0  0  0  0  0  0  0
   -6.4650   22.1170  -31.3310 C   0  0  0  0  0  0  0  0  0  0  0  0
   -4.0725   22.9146  -26.8516 H   0  0  0  0  0  0  0  0  0  0  0  0
   -4.0188   24.0507  -28.2420 H   0  0  0  0  0  0  0  0  0  0  0  0
   -5.1867   22.6859  -28.2420 H   0  0  0  0  0  0  0  0  0  0  0  0
   -1.4111   23.2616  -27.9912 H   0  0  0  0  0  0  0  0  0  0  0  0
   -1.1650   22.3453  -29.5165 H   0  0  0  0  0  0  0  0  0  0  0  0
   -2.1650   23.8375  -29.5165 H   0  0  0  0  0  0  0  0  0  0  0  0
   -2.8351   21.2347  -26.6691 H   0  0  0  0  0  0  0  0  0  0  0  0
   -3.3906   20.0744  -27.9228 H   0  0  0  0  0  0  0  0  0  0  0  0
   -1.6891   20.6502  -27.9228 H   0  0  0  0  0  0  0  0  0  0  0  0
   -3.0440   24.7940  -31.2190 H   0  0  0  0  0  0  0  0  0  0  0  0
   -7.9058   25.0209  -30.7820 H   0  0  0  0  0  0  0  0  0  0  0  0
   -9.7758   22.9457  -31.3793 H   0  0  0  0  0  0  0  0  0  0  0  0
   -9.9443   20.4866  -31.8874 H   0  0  0  0  0  0  0  0  0  0  0  0
   -8.6355   18.2420  -31.3870 H   0  0  0  0  0  0  0  0  0  0  0  0
   -8.2166   18.5451  -33.1277 H   0  0  0  0  0  0  0  0  0  0  0  0
   -5.8173   18.6808  -31.5421 H   0  0  0  0  0  0  0  0  0  0  0  0
   -6.7337   17.1357  -31.1807 H   0  0  0  0  0  0  0  0  0  0  0  0
   -5.1621   16.6566  -32.9124 H   0  0  0  0  0  0  0  0  0  0  0  0
   -6.8356   16.7237  -33.6316 H   0  0  0  0  0  0  0  0  0  0  0  0
   -5.6049   20.1400  -31.6483 H   0  0  0  0  0  0  0  0  0  0  0  0
  1  2  1  0
  2  3  1  0
  2  4  1  0
  2  5  1  0
  5  6  1  0
  6  7  2  0
  6  8  1  0
  8  9  1  0
  9 10  1  0
 10 11  1  0
 10 12  2  0
  9 13  2  0
 13 14  1  0
 14 15  2  0
 15 16  1  0
 16 17  2  0
 17 18  1  0
 18 19  1  0
 19 20  1  0
 20 21  1  0
 21 22  2  0
 21 23  2  0
 21 24  1  0
 17 25  1  0
 25 26  2  0
 26  8  1  0
 26 14  1  0
  1 27  1  0
  1 28  1  0
  1 29  1  0
  3 30  1  0
  3 31  1  0
  3 32  1  0
  4 33  1  0
  4 34  1  0
  4 35  1  0
 11 36  1  0
 13 37  1  0
 15 38  1  0
 16 39  1  0
 18 40  1  0
 18 41  1  0
 19 42  1  0
 19 43  1  0
 20 44  1  0
 20 45  1  0
 25 46  1  0
M  CHG  2  11  -1  24  -1
M  END
>  <UniqueID>  (55) 
55

>  <SMILES>  (55) 
CC(C)(C)OC(=O)n1c(C([NH-])=O)cc2ccc(CCCS(=O)(=O)[O-])cc21

>  <Energy>  (55) 
71.5812115997961

>  <Genealogy>  (55) 
CC(C)(C)OC(=O)n1c(C([NH-])=O)cc2ccc(CCCS(=O)(=O)[O-])cc21 (protonated)
CC(C)(C)OC(=O)n1c(C([NH-])=O)cc2ccc(CCCS(=O)(=O)[O-])cc21 (3D coordinates assigned)
CC(C)(C)OC(=O)n1c(C([NH-])=O)cc2ccc(CCCS(=O)(=O)[O-])cc21 (optimized conformer: 71.5812115997961 kcal/mol)

>  <smiles>  (55) 
CC(C)(C)OC(=O)n1c(C(N)=O)cc2ccc(CCCS(=O)(=O)O)cc21

>  <score_type>  (55) 
oracle

>  <origin>  (55) 
adg

>  <m_score__min__energy>  (55) 
-11.24

>  <m_primary>  (55) 
energy

$$$$
55:0
     RDKit          3D

 50 52  0  0  0  0  0  0  0  0999 V2000
   -6.6250   24.8520  -30.3160 C   0  0  0  0  0  0  0  0  0  0  0  0
   -6.3060   23.5690  -31.1070 C   0  0  0  0  0  0  0  0  0  0  0  0
   -7.2320   23.4420  -32.3320 C   0  0  0  0  0  0  0  0  0  0  0  0
   -6.5230   22.3540  -30.1940 C   0  0  0  0  0  0  0  0  0  0  0  0
   -4.9290   23.5540  -31.5120 O   0  0  0  0  0  0  0  0  0  0  0  0
   -3.8420   24.0640  -30.7850 C   0  0  0  0  0  0  0  0  0  0  0  0
   -3.7920   25.2810  -30.4640 O   0  0  0  0  0  0  0  0  0  0  0  0
   -2.7850   23.1790  -30.3820 N   0  0  0  0  0  0  0  0  0  0  0  0
   -1.8170   23.4080  -29.4500 C   0  0  0  0  0  0  0  0  0  0  0  0
   -1.7470   24.5700  -28.5410 C   0  0  0  0  0  0  0  0  0  0  0  0
   -1.3170   25.8350  -29.0390 N   0  0  0  0  0  0  0  0  0  0  0  0
   -2.0280   24.4520  -27.3190 O   0  0  0  0  0  0  0  0  0  0  0  0
   -0.9230   22.3410  -29.4020 C   0  0  0  0  0  0  0  0  0  0  0  0
   -1.3790   21.4410  -30.3370 C   0  0  0  0  0  0  0  0  0  0  0  0
   -0.8660   20.2010  -30.7110 C   0  0  0  0  0  0  0  0  0  0  0  0
   -1.5310   19.4920  -31.7250 C   0  0  0  0  0  0  0  0  0  0  0  0
   -2.6770   20.0380  -32.3550 C   0  0  0  0  0  0  0  0  0  0  0  0
   -3.3980   19.2580  -33.4190 C   0  0  0  0  0  0  0  0  0  0  0  0
   -4.8710   19.2100  -33.1160 C   0  0  0  0  0  0  0  0  0  0  0  0
   -5.7610   20.0590  -33.7910 C   0  0  0  0  0  0  0  0  0  0  0  0
   -7.1240   20.0420  -33.4830 C   0  0  0  0  0  0  0  0  0  0  0  0
   -7.6170   19.1930  -32.4760 C   0  0  0  0  0  0  0  0  0  0  0  0
   -9.0940   19.1390  -32.1770 C   0  0  0  0  0  0  0  0  0  0  0  0
   -9.4360   17.9160  -31.6260 F   0  0  0  0  0  0  0  0  0  0  0  0
   -9.4140   20.1420  -31.2820 F   0  0  0  0  0  0  0  0  0  0  0  0
   -9.8340   19.3140  -33.3340 F   0  0  0  0  0  0  0  0  0  0  0  0
   -6.7240   18.3330  -31.8120 C   0  0  0  0  0  0  0  0  0  0  0  0
   -5.3610   18.3500  -32.1210 C   0  0  0  0  0  0  0  0  0  0  0  0
   -3.1740   21.2950  -31.9430 C   0  0  0  0  0  0  0  0  0  0  0  0
   -2.5030   21.9700  -30.9170 C   0  0  0  0  0  0  0  0  0  0  0  0
   -6.5724   24.6406  -29.2378 H   0  0  0  0  0  0  0  0  0  0  0  0
   -5.8936   25.6324  -30.5727 H   0  0  0  0  0  0  0  0  0  0  0  0
   -7.6368   25.1990  -30.5727 H   0  0  0  0  0  0  0  0  0  0  0  0
   -8.2692   23.2997  -31.9944 H   0  0  0  0  0  0  0  0  0  0  0  0
   -7.1660   24.3576  -32.9381 H   0  0  0  0  0  0  0  0  0  0  0  0
   -6.9219   22.5780  -32.9381 H   0  0  0  0  0  0  0  0  0  0  0  0
   -6.4664   22.6710  -29.1422 H   0  0  0  0  0  0  0  0  0  0  0  0
   -7.5132   21.9181  -30.3928 H   0  0  0  0  0  0  0  0  0  0  0  0
   -5.7449   21.6023  -30.3928 H   0  0  0  0  0  0  0  0  0  0  0  0
   -1.2370   26.0090  -30.0650 H   0  0  0  0  0  0  0  0  0  0  0  0
   -0.0399   22.2396  -28.7540 H   0  0  0  0  0  0  0  0  0  0  0  0
    0.0322   19.7897  -30.2271 H   0  0  0  0  0  0  0  0  0  0  0  0
   -1.1588   18.5038  -32.0329 H   0  0  0  0  0  0  0  0  0  0  0  0
   -3.2427   19.7431  -34.3940 H   0  0  0  0  0  0  0  0  0  0  0  0
   -3.0019   18.2321  -33.4442 H   0  0  0  0  0  0  0  0  0  0  0  0
   -5.3839   20.7416  -34.5668 H   0  0  0  0  0  0  0  0  0  0  0  0
   -7.8162   20.6973  -34.0321 H   0  0  0  0  0  0  0  0  0  0  0  0
   -7.1010   17.6419  -31.0438 H   0  0  0  0  0  0  0  0  0  0  0  0
   -4.6691   17.6862  -31.5818 H   0  0  0  0  0  0  0  0  0  0  0  0
   -4.0656   21.7318  -32.4166 H   0  0  0  0  0  0  0  0  0  0  0  0
  1  2  1  0
  2  3  1  0
  2  4  1  0
  2  5  1  0
  5  6  1  0
  6  7  2  0
  6  8  1  0
  8  9  1  0
  9 10  1  0
 10 11  1  0
 10 12  2  0
  9 13  2  0
 13 14  1  0
 14 15  2  0
 15 16  1  0
 16 17  2  0
 17 18  1  0
 18 19  1  0
 19 20  2  0
 20 21  1  0
 21 22  2  0
 22 23  1  0
 23 24  1  0
 23 25  1  0
 23 26  1  0
 22 27  1  0
 27 28  2  0
 17 29  1  0
 29 30  2  0
 30  8  1  0
 30 14  1  0
 28 19  1  0
  1 31  1  0
  1 32  1  0
  1 33  1  0
  3 34  1  0
  3 35  1  0
  3 36  1  0
  4 37  1  0
  4 38  1  0
  4 39  1  0
 11 40  1  0
 13 41  1  0
 15 42  1  0
 16 43  1  0
 18 44  1  0
 18 45  1  0
 20 46  1  0
 21 47  1  0
 27 48  1  0
 28 49  1  0
 29 50  1  0
M  CHG  1  11  -1
M  END
>  <UniqueID>  (56) 
56

>  <SMILES>  (56) 
CC(C)(C)OC(=O)n1c(C([NH-])=O)cc2ccc(Cc3ccc(C(F)(F)F)cc3)cc21

>  <Energy>  (56) 
84.76144182457875

>  <Genealogy>  (56) 
CC(C)(C)OC(=O)n1c(C([NH-])=O)cc2ccc(Cc3ccc(C(F)(F)F)cc3)cc21 (protonated)
CC(C)(C)OC(=O)n1c(C([NH-])=O)cc2ccc(Cc3ccc(C(F)(F)F)cc3)cc21 (3D coordinates assigned)
CC(C)(C)OC(=O)n1c(C([NH-])=O)cc2ccc(Cc3ccc(C(F)(F)F)cc3)cc21 (optimized conformer: 84.76144182457875 kcal/mol)

>  <smiles>  (56) 
CC(C)(C)OC(=O)n1c(C(N)=O)cc2ccc(Cc3ccc(C(F)(F)F)cc3)cc21

>  <score_type>  (56) 
oracle

>  <origin>  (56) 
adg

>  <m_score__min__energy>  (56) 
-11.619999999999999

>  <m_primary>  (56) 
energy

$$$$
56:0
     RDKit          3D

 57 58  0  0  0  0  0  0  0  0999 V2000
   -1.8370   19.6860  -31.9830 C   0  0  0  0  0  0  0  0  0  0  0  0
   -2.2320   19.8580  -33.4580 C   0  0  0  0  0  0  0  0  0  0  0  0
   -0.9920   20.3140  -34.2520 C   0  0  0  0  0  0  0  0  0  0  0  0
   -3.3510   20.9130  -33.5530 C   0  0  0  0  0  0  0  0  0  0  0  0
   -2.7050   18.5850  -33.9230 O   0  0  0  0  0  0  0  0  0  0  0  0
   -4.0330   18.2600  -34.2400 C   0  0  0  0  0  0  0  0  0  0  0  0
   -4.3360   17.8020  -35.3750 O   0  0  0  0  0  0  0  0  0  0  0  0
   -5.0540   18.4680  -33.2560 N   0  0  0  0  0  0  0  0  0  0  0  0
   -6.4530   18.1120  -33.4920 C   0  0  0  0  0  0  0  0  0  0  0  0
   -7.3110   18.4180  -32.2560 C   0  0  0  0  0  0  0  0  0  0  0  0
   -7.3670   19.8980  -31.9750 C   0  0  0  0  0  0  0  0  0  0  0  0
   -8.5770   20.6120  -32.1610 C   0  0  0  0  0  0  0  0  0  0  0  0
   -8.6360   21.9950  -31.9230 C   0  0  0  0  0  0  0  0  0  0  0  0
   -7.4730   22.6380  -31.5100 C   0  0  0  0  0  0  0  0  0  0  0  0
   -7.2440   23.9700  -31.2530 C   0  0  0  0  0  0  0  0  0  0  0  0
   -5.8960   24.0530  -30.9150 C   0  0  0  0  0  0  0  0  0  0  0  0
   -5.2440   25.3060  -30.4810 C   0  0  0  0  0  0  0  0  0  0  0  0
   -3.8970   25.5970  -30.8470 N   0  0  0  0  0  0  0  0  0  0  0  0
   -5.8660   26.1090  -29.7360 O   0  0  0  0  0  0  0  0  0  0  0  0
   -5.3110   22.8230  -30.9690 N   0  0  0  0  0  0  0  0  0  0  0  0
   -3.9180   22.5010  -30.8290 C   0  0  0  0  0  0  0  0  0  0  0  0
   -3.0700   23.0500  -31.5830 O   0  0  0  0  0  0  0  0  0  0  0  0
   -3.5250   21.5490  -29.8770 O   0  0  0  0  0  0  0  0  0  0  0  0
   -2.9000   21.8180  -28.6140 C   0  0  0  0  0  0  0  0  0  0  0  0
   -2.7250   20.5150  -27.8090 C   0  0  0  0  0  0  0  0  0  0  0  0
   -3.8380   22.7540  -27.8410 C   0  0  0  0  0  0  0  0  0  0  0  0
   -1.5450   22.5190  -28.8160 C   0  0  0  0  0  0  0  0  0  0  0  0
   -6.2930   21.9650  -31.3270 C   0  0  0  0  0  0  0  0  0  0  0  0
   -6.2040   20.5860  -31.5590 C   0  0  0  0  0  0  0  0  0  0  0  0
   -2.6555   20.0424  -31.3403 H   0  0  0  0  0  0  0  0  0  0  0  0
   -1.6450   18.6228  -31.7764 H   0  0  0  0  0  0  0  0  0  0  0  0
   -0.9278   20.2697  -31.7764 H   0  0  0  0  0  0  0  0  0  0  0  0
   -0.1956   20.6069  -33.5520 H   0  0  0  0  0  0  0  0  0  0  0  0
   -0.6377   19.4873  -34.8853 H   0  0  0  0  0  0  0  0  0  0  0  0
   -1.2577   21.1732  -34.8853 H   0  0  0  0  0  0  0  0  0  0  0  0
   -3.6638   21.2079  -32.5405 H   0  0  0  0  0  0  0  0  0  0  0  0
   -2.9779   21.7956  -34.0932 H   0  0  0  0  0  0  0  0  0  0  0  0
   -4.2101   20.4886  -34.0932 H   0  0  0  0  0  0  0  0  0  0  0  0
   -4.7980   18.9420  -32.3610 H   0  0  0  0  0  0  0  0  0  0  0  0
   -6.8329   18.6909  -34.3467 H   0  0  0  0  0  0  0  0  0  0  0  0
   -6.5111   17.0339  -33.7027 H   0  0  0  0  0  0  0  0  0  0  0  0
   -8.3324   18.0482  -32.4294 H   0  0  0  0  0  0  0  0  0  0  0  0
   -6.8560   17.9188  -31.3878 H   0  0  0  0  0  0  0  0  0  0  0  0
   -9.4787   20.0779  -32.4950 H   0  0  0  0  0  0  0  0  0  0  0  0
   -9.5739   22.5534  -32.0591 H   0  0  0  0  0  0  0  0  0  0  0  0
   -7.9711   24.7939  -31.3038 H   0  0  0  0  0  0  0  0  0  0  0  0
   -3.1150   24.9660  -30.5640 H   0  0  0  0  0  0  0  0  0  0  0  0
   -2.7555   20.7418  -26.7331 H   0  0  0  0  0  0  0  0  0  0  0  0
   -3.5375   19.8172  -28.0598 H   0  0  0  0  0  0  0  0  0  0  0  0
   -1.7572   20.0563  -28.0598 H   0  0  0  0  0  0  0  0  0  0  0  0
   -3.6923   22.6086  -26.7604 H   0  0  0  0  0  0  0  0  0  0  0  0
   -3.6127   23.7980  -28.1041 H   0  0  0  0  0  0  0  0  0  0  0  0
   -4.8816   22.5265  -28.1041 H   0  0  0  0  0  0  0  0  0  0  0  0
   -1.1012   22.7486  -27.8360 H   0  0  0  0  0  0  0  0  0  0  0  0
   -0.8699   21.8570  -29.3782 H   0  0  0  0  0  0  0  0  0  0  0  0
   -1.6953   23.4525  -29.3782 H   0  0  0  0  0  0  0  0  0  0  0  0
   -5.2525   20.0517  -31.4208 H   0  0  0  0  0  0  0  0  0  0  0  0
  1  2  1  0
  2  3  1  0
  2  4  1  0
  2  5  1  0
  5  6  1  0
  6  7  2  0
  6  8  1  0
  8  9  1  0
  9 10  1  0
 10 11  1  0
 11 12  2  0
 12 13  1  0
 13 14  2  0
 14 15  1  0
 15 16  2  0
 16 17  1  0
 17 18  1  0
 17 19  2  0
 16 20  1  0
 20 21  1  0
 21 22  2  0
 21 23  1  0
 23 24  1  0
 24 25  1  0
 24 26  1  0
 24 27  1  0
 20 28  1  0
 28 29  2  0
 29 11  1  0
 28 14  1  0
  1 30  1  0
  1 31  1  0
  1 32  1  0
  3 33  1  0
  3 34  1  0
  3 35  1  0
  4 36  1  0
  4 37  1  0
  4 38  1  0
  8 39  1  0
  9 40  1  0
  9 41  1  0
 10 42  1  0
 10 43  1  0
 12 44  1  0
 13 45  1  0
 15 46  1  0
 18 47  1  0
 25 48  1  0
 25 49  1  0
 25 50  1  0
 26 51  1  0
 26 52  1  0
 26 53  1  0
 27 54  1  0
 27 55  1  0
 27 56  1  0
 29 57  1  0
M  CHG  1  18  -1
M  END
>  <UniqueID>  (57) 
57

>  <SMILES>  (57) 
CC(C)(C)OC(=O)NCCc1ccc2cc(C([NH-])=O)n(C(=O)OC(C)(C)C)c2c1

>  <Energy>  (57) 
78.99914440604292

>  <Genealogy>  (57) 
CC(C)(C)OC(=O)NCCc1ccc2cc(C([NH-])=O)n(C(=O)OC(C)(C)C)c2c1 (protonated)
CC(C)(C)OC(=O)NCCc1ccc2cc(C([NH-])=O)n(C(=O)OC(C)(C)C)c2c1 (3D coordinates assigned)
CC(C)(C)OC(=O)NCCc1ccc2cc(C([NH-])=O)n(C(=O)OC(C)(C)C)c2c1 (optimized conformer: 78.99914440604292 kcal/mol)

>  <smiles>  (57) 
CC(C)(C)OC(=O)NCCc1ccc2cc(C(N)=O)n(C(=O)OC(C)(C)C)c2c1

>  <score_type>  (57) 
oracle

>  <origin>  (57) 
adg

>  <m_score__min__energy>  (57) 
-10.82

>  <m_primary>  (57) 
energy

$$$$
57:0
     RDKit          3D

 32 33  0  0  0  0  0  0  0  0999 V2000
   -3.9530   24.1910  -27.2980 C   0  0  0  0  0  0  0  0  0  0  0  0
   -4.0610   22.9860  -27.8630 C   0  0  0  0  0  0  0  0  0  0  0  0
   -2.9640   22.4210  -28.7130 C   0  0  0  0  0  0  0  0  0  0  0  0
   -3.5270   21.7580  -29.8400 O   0  0  0  0  0  0  0  0  0  0  0  0
   -3.9650   22.4410  -30.9780 C   0  0  0  0  0  0  0  0  0  0  0  0
   -3.1600   22.7030  -31.9130 O   0  0  0  0  0  0  0  0  0  0  0  0
   -5.3330   22.8700  -31.0670 N   0  0  0  0  0  0  0  0  0  0  0  0
   -5.8420   24.1080  -30.8070 C   0  0  0  0  0  0  0  0  0  0  0  0
   -5.0580   25.3310  -30.5300 C   0  0  0  0  0  0  0  0  0  0  0  0
   -3.6350   25.2920  -30.4690 N   0  0  0  0  0  0  0  0  0  0  0  0
   -5.6520   26.4340  -30.3920 O   0  0  0  0  0  0  0  0  0  0  0  0
   -7.2300   24.0990  -30.9210 C   0  0  0  0  0  0  0  0  0  0  0  0
   -7.5590   22.8110  -31.2720 C   0  0  0  0  0  0  0  0  0  0  0  0
   -8.8060   22.2350  -31.4970 C   0  0  0  0  0  0  0  0  0  0  0  0
   -8.8540   20.8670  -31.8120 C   0  0  0  0  0  0  0  0  0  0  0  0
   -7.6620   20.1020  -31.9070 C   0  0  0  0  0  0  0  0  0  0  0  0
   -7.7300   18.6220  -32.1850 C   0  0  0  0  0  0  0  0  0  0  0  0
   -7.2060   18.3690  -33.4380 F   0  0  0  0  0  0  0  0  0  0  0  0
   -9.0410   18.1780  -32.1450 F   0  0  0  0  0  0  0  0  0  0  0  0
   -7.0060   17.9140  -31.2410 F   0  0  0  0  0  0  0  0  0  0  0  0
   -6.4160   20.7190  -31.6470 C   0  0  0  0  0  0  0  0  0  0  0  0
   -6.3970   22.0880  -31.3550 C   0  0  0  0  0  0  0  0  0  0  0  0
   -4.7727   24.5833  -26.6782 H   0  0  0  0  0  0  0  0  0  0  0  0
   -3.0443   24.7914  -27.4523 H   0  0  0  0  0  0  0  0  0  0  0  0
   -4.9748   22.3955  -27.7010 H   0  0  0  0  0  0  0  0  0  0  0  0
   -2.3103   23.2362  -29.0566 H   0  0  0  0  0  0  0  0  0  0  0  0
   -2.3769   21.7027  -28.1220 H   0  0  0  0  0  0  0  0  0  0  0  0
   -3.0840   24.7310  -31.1550 H   0  0  0  0  0  0  0  0  0  0  0  0
   -7.9173   24.9433  -30.7636 H   0  0  0  0  0  0  0  0  0  0  0  0
   -9.7266   22.8334  -31.4301 H   0  0  0  0  0  0  0  0  0  0  0  0
   -9.8262   20.3830  -31.9870 H   0  0  0  0  0  0  0  0  0  0  0  0
   -5.4833   20.1364  -31.6736 H   0  0  0  0  0  0  0  0  0  0  0  0
  1  2  2  0
  2  3  1  0
  3  4  1  0
  4  5  1  0
  5  6  2  0
  5  7  1  0
  7  8  1  0
  8  9  1  0
  9 10  1  0
  9 11  2  0
  8 12  2  0
 12 13  1  0
 13 14  2  0
 14 15  1  0
 15 16  2  0
 16 17  1  0
 17 18  1  0
 17 19  1  0
 17 20  1  0
 16 21  1  0
 21 22  2  0
 22  7  1  0
 22 13  1  0
  1 23  1  0
  1 24  1  0
  2 25  1  0
  3 26  1  0
  3 27  1  0
 10 28  1  0
 12 29  1  0
 14 30  1  0
 15 31  1  0
 21 32  1  0
M  CHG  1  10  -1
M  END
>  <UniqueID>  (58) 
58

>  <SMILES>  (58) 
C=CCOC(=O)n1c(C([NH-])=O)cc2ccc(C(F)(F)F)cc21

>  <Energy>  (58) 
67.00486694549862

>  <Genealogy>  (58) 
C=CCOC(=O)n1c(C([NH-])=O)cc2ccc(C(F)(F)F)cc21 (protonated)
C=CCOC(=O)n1c(C([NH-])=O)cc2ccc(C(F)(F)F)cc21 (3D coordinates assigned)
C=CCOC(=O)n1c(C([NH-])=O)cc2ccc(C(F)(F)F)cc21 (optimized conformer: 67.00486694549862 kcal/mol)

>  <smiles>  (58) 
C=CCOC(=O)n1c(C(N)=O)cc2ccc(C(F)(F)F)cc21

>  <score_type>  (58) 
oracle

>  <origin>  (58) 
adg

>  <m_score__min__energy>  (58) 
-9.1999999999999993

>  <m_primary>  (58) 
energy

$$$$
58:0
     RDKit          3D

 48 51  0  0  0  0  0  0  0  0999 V2000
   -6.1780   23.7440  -32.0730 C   0  0  0  0  0  0  0  0  0  0  0  0
   -6.2890   23.7290  -30.5380 C   0  0  0  0  0  0  0  0  0  0  0  0
   -6.7790   25.0940  -30.0170 C   0  0  0  0  0  0  0  0  0  0  0  0
   -7.2910   22.6430  -30.1150 C   0  0  0  0  0  0  0  0  0  0  0  0
   -4.9940   23.3930  -29.9390 N   0  0  0  0  0  0  0  0  0  0  0  0
   -3.7220   23.9900  -30.2280 C   0  0  0  0  0  0  0  0  0  0  0  0
   -3.6350   25.2200  -30.4870 O   0  0  0  0  0  0  0  0  0  0  0  0
   -2.5390   23.1750  -30.2250 N   0  0  0  0  0  0  0  0  0  0  0  0
   -1.3720   23.4030  -29.5590 C   0  0  0  0  0  0  0  0  0  0  0  0
   -1.0390   24.6170  -28.7870 C   0  0  0  0  0  0  0  0  0  0  0  0
   -2.0570   25.5100  -28.3310 N   0  0  0  0  0  0  0  0  0  0  0  0
    0.1700   24.9000  -28.5720 O   0  0  0  0  0  0  0  0  0  0  0  0
   -0.4860   22.3440  -29.7460 C   0  0  0  0  0  0  0  0  0  0  0  0
   -1.1470   21.4580  -30.5660 C   0  0  0  0  0  0  0  0  0  0  0  0
   -0.7370   20.2270  -31.0700 C   0  0  0  0  0  0  0  0  0  0  0  0
   -1.6400   19.5120  -31.8760 C   0  0  0  0  0  0  0  0  0  0  0  0
   -2.9290   20.0310  -32.1550 C   0  0  0  0  0  0  0  0  0  0  0  0
   -3.8810   19.2540  -32.9810 C   0  0  0  0  0  0  0  0  0  0  0  0
   -3.4940   18.6170  -34.1640 C   0  0  0  0  0  0  0  0  0  0  0  0
   -4.8110   17.7730  -34.7990 S   0  0  0  0  0  0  0  0  0  0  0  0
   -5.8840   18.2190  -33.5910 C   0  0  0  0  0  0  0  0  0  0  0  0
   -7.2290   17.8780  -33.4750 C   0  0  0  0  0  0  0  0  0  0  0  0
   -7.9520   18.3900  -32.3880 C   0  0  0  0  0  0  0  0  0  0  0  0
   -7.3270   19.2360  -31.4560 C   0  0  0  0  0  0  0  0  0  0  0  0
   -5.9700   19.5710  -31.5950 C   0  0  0  0  0  0  0  0  0  0  0  0
   -5.2410   19.0350  -32.6690 C   0  0  0  0  0  0  0  0  0  0  0  0
   -3.3170   21.2700  -31.6010 C   0  0  0  0  0  0  0  0  0  0  0  0
   -2.3860   21.9800  -30.8360 C   0  0  0  0  0  0  0  0  0  0  0  0
   -5.1265   23.8861  -32.3632 H   0  0  0  0  0  0  0  0  0  0  0  0
   -6.5438   22.7883  -32.4764 H   0  0  0  0  0  0  0  0  0  0  0  0
   -6.7843   24.5684  -32.4764 H   0  0  0  0  0  0  0  0  0  0  0  0
   -6.7771   25.0888  -28.9170 H   0  0  0  0  0  0  0  0  0  0  0  0
   -6.1095   25.8872  -30.3810 H   0  0  0  0  0  0  0  0  0  0  0  0
   -7.8002   25.2803  -30.3810 H   0  0  0  0  0  0  0  0  0  0  0  0
   -7.3365   22.5937  -29.0170 H   0  0  0  0  0  0  0  0  0  0  0  0
   -8.2869   22.8881  -30.5126 H   0  0  0  0  0  0  0  0  0  0  0  0
   -6.9667   21.6700  -30.5126 H   0  0  0  0  0  0  0  0  0  0  0  0
   -3.0470   25.4030  -28.6430 H   0  0  0  0  0  0  0  0  0  0  0  0
   -1.8050   26.3370  -27.7480 H   0  0  0  0  0  0  0  0  0  0  0  0
    0.5258   22.2386  -29.3276 H   0  0  0  0  0  0  0  0  0  0  0  0
    0.2623   19.8262  -30.8447 H   0  0  0  0  0  0  0  0  0  0  0  0
   -1.3429   18.5391  -32.2947 H   0  0  0  0  0  0  0  0  0  0  0  0
   -2.4896   18.6592  -34.6106 H   0  0  0  0  0  0  0  0  0  0  0  0
   -7.7116   17.2243  -34.2164 H   0  0  0  0  0  0  0  0  0  0  0  0
   -9.0132   18.1282  -32.2643 H   0  0  0  0  0  0  0  0  0  0  0  0
   -7.9049   19.6389  -30.6112 H   0  0  0  0  0  0  0  0  0  0  0  0
   -5.4850   20.2439  -30.8726 H   0  0  0  0  0  0  0  0  0  0  0  0
   -4.3289   21.6681  -31.7672 H   0  0  0  0  0  0  0  0  0  0  0  0
  1  2  1  0
  2  3  1  0
  2  4  1  0
  2  5  1  0
  5  6  1  0
  6  7  2  0
  6  8  1  0
  8  9  1  0
  9 10  1  0
 10 11  1  0
 10 12  2  0
  9 13  2  0
 13 14  1  0
 14 15  2  0
 15 16  1  0
 16 17  2  0
 17 18  1  0
 18 19  2  0
 19 20  1  0
 20 21  1  0
 21 22  2  0
 22 23  1  0
 23 24  2  0
 24 25  1  0
 25 26  2  0
 17 27  1  0
 27 28  2  0
 28  8  1  0
 28 14  1  0
 26 18  1  0
 26 21  1  0
  1 29  1  0
  1 30  1  0
  1 31  1  0
  3 32  1  0
  3 33  1  0
  3 34  1  0
  4 35  1  0
  4 36  1  0
  4 37  1  0
 11 38  1  0
 11 39  1  0
 13 40  1  0
 15 41  1  0
 16 42  1  0
 19 43  1  0
 22 44  1  0
 23 45  1  0
 24 46  1  0
 25 47  1  0
 27 48  1  0
M  CHG  1   5  -1
M  END
>  <UniqueID>  (59) 
59

>  <SMILES>  (59) 
CC(C)(C)[N-]C(=O)n1c(C(N)=O)cc2ccc(-c3csc4ccccc34)cc21

>  <Energy>  (59) 
121.21690711407884

>  <Genealogy>  (59) 
CC(C)(C)[N-]C(=O)n1c(C(N)=O)cc2ccc(-c3csc4ccccc34)cc21 (protonated)
CC(C)(C)[N-]C(=O)n1c(C(N)=O)cc2ccc(-c3csc4ccccc34)cc21 (3D coordinates assigned)
CC(C)(C)[N-]C(=O)n1c(C(N)=O)cc2ccc(-c3csc4ccccc34)cc21 (optimized conformer: 121.21690711407884 kcal/mol)

>  <smiles>  (59) 
CC(C)(C)NC(=O)n1c(C(N)=O)cc2ccc(-c3csc4ccccc34)cc21

>  <score_type>  (59) 
oracle

>  <origin>  (59) 
adg

>  <m_score__min__energy>  (59) 
-10.859999999999999

>  <m_primary>  (59) 
energy

$$$$
59:0
     RDKit          3D

 65 68  0  0  0  0  0  0  0  0999 V2000
   -6.6830   22.4430  -30.1750 C   0  0  0  0  0  0  0  0  0  0  0  0
   -6.3540   23.7520  -30.9200 C   0  0  0  0  0  0  0  0  0  0  0  0
   -7.0590   23.7330  -32.2850 C   0  0  0  0  0  0  0  0  0  0  0  0
   -6.8560   24.9710  -30.1210 C   0  0  0  0  0  0  0  0  0  0  0  0
   -4.9430   23.8560  -31.1690 O   0  0  0  0  0  0  0  0  0  0  0  0
   -4.1240   22.8580  -31.7190 C   0  0  0  0  0  0  0  0  0  0  0  0
   -4.4320   22.2940  -32.8040 O   0  0  0  0  0  0  0  0  0  0  0  0
   -2.9090   22.4870  -31.0460 N   0  0  0  0  0  0  0  0  0  0  0  0
   -2.2670   23.1720  -30.0590 C   0  0  0  0  0  0  0  0  0  0  0  0
   -2.7770   24.3630  -29.3490 C   0  0  0  0  0  0  0  0  0  0  0  0
   -4.1290   24.4400  -28.8990 N   0  0  0  0  0  0  0  0  0  0  0  0
   -1.9850   25.3040  -29.0800 O   0  0  0  0  0  0  0  0  0  0  0  0
   -1.0660   22.5480  -29.7310 C   0  0  0  0  0  0  0  0  0  0  0  0
   -1.0000   21.4370  -30.5380 C   0  0  0  0  0  0  0  0  0  0  0  0
   -0.0270   20.4440  -30.6130 C   0  0  0  0  0  0  0  0  0  0  0  0
   -0.2230   19.3980  -31.5300 C   0  0  0  0  0  0  0  0  0  0  0  0
   -1.3680   19.3730  -32.3680 C   0  0  0  0  0  0  0  0  0  0  0  0
   -1.6050   18.2580  -33.2560 N   0  0  0  0  0  0  0  0  0  0  0  0
   -1.0230   16.9350  -32.9990 C   0  0  0  0  0  0  0  0  0  0  0  0
   -2.1510   15.9360  -32.7250 C   0  0  0  0  0  0  0  0  0  0  0  0
   -3.2610   16.1080  -33.6770 N   0  0  0  0  0  0  0  0  0  0  0  0
   -4.4840   15.3740  -33.4820 C   0  0  0  0  0  0  0  0  0  0  0  0
   -4.5780   14.5410  -32.5370 O   0  0  0  0  0  0  0  0  0  0  0  0
   -5.5790   15.5970  -34.3250 O   0  0  0  0  0  0  0  0  0  0  0  0
   -6.8580   15.9920  -33.8420 C   0  0  0  0  0  0  0  0  0  0  0  0
   -6.8070   17.4410  -33.4520 C   0  0  0  0  0  0  0  0  0  0  0  0
   -7.5040   17.8890  -32.3180 C   0  0  0  0  0  0  0  0  0  0  0  0
   -7.4240   19.2290  -31.9240 C   0  0  0  0  0  0  0  0  0  0  0  0
   -6.6440   20.1270  -32.6560 C   0  0  0  0  0  0  0  0  0  0  0  0
   -5.9360   19.6850  -33.7790 C   0  0  0  0  0  0  0  0  0  0  0  0
   -6.0110   18.3460  -34.1750 C   0  0  0  0  0  0  0  0  0  0  0  0
   -3.1070   17.0290  -34.8150 C   0  0  0  0  0  0  0  0  0  0  0  0
   -2.6080   18.3960  -34.3260 C   0  0  0  0  0  0  0  0  0  0  0  0
   -2.3240   20.4100  -32.2690 C   0  0  0  0  0  0  0  0  0  0  0  0
   -2.1210   21.4220  -31.3240 C   0  0  0  0  0  0  0  0  0  0  0  0
   -6.6391   22.6177  -29.0899 H   0  0  0  0  0  0  0  0  0  0  0  0
   -7.6934   22.1076  -30.4518 H   0  0  0  0  0  0  0  0  0  0  0  0
   -5.9513   21.6697  -30.4518 H   0  0  0  0  0  0  0  0  0  0  0  0
   -8.1483   23.7036  -32.1347 H   0  0  0  0  0  0  0  0  0  0  0  0
   -6.7909   24.6387  -32.8488 H   0  0  0  0  0  0  0  0  0  0  0  0
   -6.7425   22.8431  -32.8488 H   0  0  0  0  0  0  0  0  0  0  0  0
   -6.7707   24.7639  -29.0440 H   0  0  0  0  0  0  0  0  0  0  0  0
   -6.2473   25.8515  -30.3744 H   0  0  0  0  0  0  0  0  0  0  0  0
   -7.9082   25.1675  -30.3744 H   0  0  0  0  0  0  0  0  0  0  0  0
   -4.7730   23.6270  -28.9750 H   0  0  0  0  0  0  0  0  0  0  0  0
   -4.4750   25.3050  -28.4270 H   0  0  0  0  0  0  0  0  0  0  0  0
   -0.3270   22.8747  -28.9846 H   0  0  0  0  0  0  0  0  0  0  0  0
    0.8677   20.4775  -29.9739 H   0  0  0  0  0  0  0  0  0  0  0  0
    0.5194   18.5892  -31.5993 H   0  0  0  0  0  0  0  0  0  0  0  0
   -0.4474   16.6088  -33.8778 H   0  0  0  0  0  0  0  0  0  0  0  0
   -0.3543   16.9873  -32.1271 H   0  0  0  0  0  0  0  0  0  0  0  0
   -1.7548   14.9140  -32.8174 H   0  0  0  0  0  0  0  0  0  0  0  0
   -2.5339   16.1146  -31.7094 H   0  0  0  0  0  0  0  0  0  0  0  0
   -7.6107   15.8488  -34.6313 H   0  0  0  0  0  0  0  0  0  0  0  0
   -7.1303   15.3814  -32.9685 H   0  0  0  0  0  0  0  0  0  0  0  0
   -8.1156   17.1831  -31.7370 H   0  0  0  0  0  0  0  0  0  0  0  0
   -7.9755   19.5754  -31.0375 H   0  0  0  0  0  0  0  0  0  0  0  0
   -6.5863   21.1819  -32.3496 H   0  0  0  0  0  0  0  0  0  0  0  0
   -5.3188   20.3927  -34.3519 H   0  0  0  0  0  0  0  0  0  0  0  0
   -5.4463   18.0005  -35.0535 H   0  0  0  0  0  0  0  0  0  0  0  0
   -2.3800   16.6098  -35.5261 H   0  0  0  0  0  0  0  0  0  0  0  0
   -4.0821   17.1577  -35.3075 H   0  0  0  0  0  0  0  0  0  0  0  0
   -2.1553   18.9339  -35.1720 H   0  0  0  0  0  0  0  0  0  0  0  0
   -3.4675   18.9506  -33.9214 H   0  0  0  0  0  0  0  0  0  0  0  0
   -3.2094   20.4211  -32.9216 H   0  0  0  0  0  0  0  0  0  0  0  0
  1  2  1  0
  2  3  1  0
  2  4  1  0
  2  5  1  0
  5  6  1  0
  6  7  2  0
  6  8  1  0
  8  9  1  0
  9 10  1  0
 10 11  1  0
 10 12  2  0
  9 13  2  0
 13 14  1  0
 14 15  2  0
 15 16  1  0
 16 17  2  0
 17 18  1  0
 18 19  1  0
 19 20  1  0
 20 21  1  0
 21 22  1  0
 22 23  2  0
 22 24  1  0
 24 25  1  0
 25 26  1  0
 26 27  2  0
 27 28  1  0
 28 29  2  0
 29 30  1  0
 30 31  2  0
 21 32  1  0
 32 33  1  0
 17 34  1  0
 34 35  2  0
 35  8  1  0
 35 14  1  0
 33 18  1  0
 31 26  1  0
  1 36  1  0
  1 37  1  0
  1 38  1  0
  3 39  1  0
  3 40  1  0
  3 41  1  0
  4 42  1  0
  4 43  1  0
  4 44  1  0
 11 45  1  0
 11 46  1  0
 13 47  1  0
 15 48  1  0
 16 49  1  0
 19 50  1  0
 19 51  1  0
 20 52  1  0
 20 53  1  0
 25 54  1  0
 25 55  1  0
 27 56  1  0
 28 57  1  0
 29 58  1  0
 30 59  1  0
 31 60  1  0
 32 61  1  0
 32 62  1  0
 33 63  1  0
 33 64  1  0
 34 65  1  0
M  END
>  <UniqueID>  (60) 
60

>  <SMILES>  (60) 
CC(C)(C)OC(=O)n1c(C(N)=O)cc2ccc(N3CCN(C(=O)OCc4ccccc4)CC3)cc21

>  <Energy>  (60) 
104.52899162514018

>  <Genealogy>  (60) 
CC(C)(C)OC(=O)n1c(C(N)=O)cc2ccc(N3CCN(C(=O)OCc4ccccc4)CC3)cc21 (3D coordinates assigned)
CC(C)(C)OC(=O)n1c(C(N)=O)cc2ccc(N3CCN(C(=O)OCc4ccccc4)CC3)cc21 (nonaromatic ring conformer: 104.52899162514018 kcal/mol)

>  <smiles>  (60) 
CC(C)(C)OC(=O)n1c(C(N)=O)cc2ccc(N3CCN(C(=O)OCc4ccccc4)CC3)cc21

>  <score_type>  (60) 
oracle

>  <origin>  (60) 
adg

>  <m_score__min__energy>  (60) 
-10.039999999999999

>  <m_primary>  (60) 
energy

$$$$
60:0
     RDKit          3D

 62 63  0  0  0  0  0  0  0  0999 V2000
   -4.1510   22.9350  -27.9490 C   0  0  0  0  0  0  0  0  0  0  0  0
   -3.1210   22.0270  -28.6540 C   0  0  0  0  0  0  0  0  0  0  0  0
   -1.8600   22.8500  -28.9460 C   0  0  0  0  0  0  0  0  0  0  0  0
   -2.7440   20.8350  -27.7560 C   0  0  0  0  0  0  0  0  0  0  0  0
   -3.6250   21.5630  -29.9180 O   0  0  0  0  0  0  0  0  0  0  0  0
   -4.0640   22.3650  -30.9840 C   0  0  0  0  0  0  0  0  0  0  0  0
   -3.2450   22.7320  -31.8750 O   0  0  0  0  0  0  0  0  0  0  0  0
   -5.4420   22.8060  -31.0330 N   0  0  0  0  0  0  0  0  0  0  0  0
   -5.8930   24.0950  -30.9910 C   0  0  0  0  0  0  0  0  0  0  0  0
   -5.1020   25.2830  -30.6520 C   0  0  0  0  0  0  0  0  0  0  0  0
   -3.6940   25.1870  -30.4680 N   0  0  0  0  0  0  0  0  0  0  0  0
   -5.6830   26.3800  -30.4410 O   0  0  0  0  0  0  0  0  0  0  0  0
   -7.2610   24.1560  -31.2290 C   0  0  0  0  0  0  0  0  0  0  0  0
   -7.6600   22.8540  -31.3910 C   0  0  0  0  0  0  0  0  0  0  0  0
   -8.9380   22.3380  -31.5970 C   0  0  0  0  0  0  0  0  0  0  0  0
   -9.0830   20.9440  -31.6580 C   0  0  0  0  0  0  0  0  0  0  0  0
   -7.9580   20.0960  -31.5220 C   0  0  0  0  0  0  0  0  0  0  0  0
   -8.1450   18.6050  -31.4300 C   0  0  0  0  0  0  0  0  0  0  0  0
   -7.3930   17.9010  -32.5610 C   0  0  0  0  0  0  0  0  0  0  0  0
   -6.4700   16.9920  -32.0050 O   0  0  0  0  0  0  0  0  0  0  0  0
   -5.5630   16.1690  -33.2420 Si  0  0  0  0  0  4  0  0  0  0  0  0
   -4.3040   15.0990  -32.3660 C   0  0  0  0  0  0  0  0  0  0  0  0
   -6.6150   15.0090  -34.2800 C   0  0  0  0  0  0  0  0  0  0  0  0
   -4.6800   17.4580  -34.3370 C   0  0  0  0  0  0  0  0  0  0  0  0
   -5.6990   18.1490  -35.2570 C   0  0  0  0  0  0  0  0  0  0  0  0
   -4.0120   18.5160  -33.4390 C   0  0  0  0  0  0  0  0  0  0  0  0
   -3.6060   16.7630  -35.1950 C   0  0  0  0  0  0  0  0  0  0  0  0
   -6.6730   20.6550  -31.3340 C   0  0  0  0  0  0  0  0  0  0  0  0
   -6.5500   22.0530  -31.2670 C   0  0  0  0  0  0  0  0  0  0  0  0
   -4.0403   22.8374  -26.8589 H   0  0  0  0  0  0  0  0  0  0  0  0
   -3.9794   23.9811  -28.2428 H   0  0  0  0  0  0  0  0  0  0  0  0
   -5.1673   22.6336  -28.2428 H   0  0  0  0  0  0  0  0  0  0  0  0
   -1.3932   23.1546  -27.9977 H   0  0  0  0  0  0  0  0  0  0  0  0
   -1.1503   22.2407  -29.5249 H   0  0  0  0  0  0  0  0  0  0  0  0
   -2.1321   23.7449  -29.5249 H   0  0  0  0  0  0  0  0  0  0  0  0
   -2.8366   21.1279  -26.6998 H   0  0  0  0  0  0  0  0  0  0  0  0
   -3.4193   19.9918  -27.9633 H   0  0  0  0  0  0  0  0  0  0  0  0
   -1.7066   20.5335  -27.9633 H   0  0  0  0  0  0  0  0  0  0  0  0
   -3.0830   24.8030  -31.2180 H   0  0  0  0  0  0  0  0  0  0  0  0
   -7.8900   25.0571  -31.2772 H   0  0  0  0  0  0  0  0  0  0  0  0
   -9.8067   23.0035  -31.7084 H   0  0  0  0  0  0  0  0  0  0  0  0
  -10.0801   20.5060  -31.8129 H   0  0  0  0  0  0  0  0  0  0  0  0
   -7.7590   18.2506  -30.4628 H   0  0  0  0  0  0  0  0  0  0  0  0
   -9.2170   18.3744  -31.5174 H   0  0  0  0  0  0  0  0  0  0  0  0
   -8.1079   17.3578  -33.1965 H   0  0  0  0  0  0  0  0  0  0  0  0
   -6.8593   18.6450  -33.1707 H   0  0  0  0  0  0  0  0  0  0  0  0
   -4.4273   15.2038  -31.2780 H   0  0  0  0  0  0  0  0  0  0  0  0
   -4.4537   14.0475  -32.6524 H   0  0  0  0  0  0  0  0  0  0  0  0
   -3.2904   15.4163  -32.6524 H   0  0  0  0  0  0  0  0  0  0  0  0
   -7.2052   14.3582  -33.6181 H   0  0  0  0  0  0  0  0  0  0  0  0
   -7.2932   15.5982  -34.9148 H   0  0  0  0  0  0  0  0  0  0  0  0
   -5.9626   14.3915  -34.9148 H   0  0  0  0  0  0  0  0  0  0  0  0
   -6.4559   18.6623  -34.6457 H   0  0  0  0  0  0  0  0  0  0  0  0
   -5.1811   18.8830  -35.8919 H   0  0  0  0  0  0  0  0  0  0  0  0
   -6.1893   17.3963  -35.8919 H   0  0  0  0  0  0  0  0  0  0  0  0
   -4.1758   18.2566  -32.3827 H   0  0  0  0  0  0  0  0  0  0  0  0
   -2.9321   18.5440  -33.6465 H   0  0  0  0  0  0  0  0  0  0  0  0
   -4.4510   19.5030  -33.6465 H   0  0  0  0  0  0  0  0  0  0  0  0
   -2.8654   16.2837  -34.5379 H   0  0  0  0  0  0  0  0  0  0  0  0
   -4.0808   16.0004  -35.8299 H   0  0  0  0  0  0  0  0  0  0  0  0
   -3.1049   17.5085  -35.8299 H   0  0  0  0  0  0  0  0  0  0  0  0
   -5.7877   20.0086  -31.2421 H   0  0  0  0  0  0  0  0  0  0  0  0
  1  2  1  0
  2  3  1  0
  2  4  1  0
  2  5  1  0
  5  6  1  0
  6  7  2  0
  6  8  1  0
  8  9  1  0
  9 10  1  0
 10 11  1  0
 10 12  2  0
  9 13  2  0
 13 14  1  0
 14 15  2  0
 15 16  1  0
 16 17  2  0
 17 18  1  0
 18 19  1  0
 19 20  1  0
 20 21  1  0
 21 22  1  0
 21 23  1  0
 21 24  1  0
 24 25  1  0
 24 26  1  0
 24 27  1  0
 17 28  1  0
 28 29  2  0
 29  8  1  0
 29 14  1  0
  1 30  1  0
  1 31  1  0
  1 32  1  0
  3 33  1  0
  3 34  1  0
  3 35  1  0
  4 36  1  0
  4 37  1  0
  4 38  1  0
 11 39  1  0
 13 40  1  0
 15 41  1  0
 16 42  1  0
 18 43  1  0
 18 44  1  0
 19 45  1  0
 19 46  1  0
 22 47  1  0
 22 48  1  0
 22 49  1  0
 23 50  1  0
 23 51  1  0
 23 52  1  0
 25 53  1  0
 25 54  1  0
 25 55  1  0
 26 56  1  0
 26 57  1  0
 26 58  1  0
 27 59  1  0
 27 60  1  0
 27 61  1  0
 28 62  1  0
M  CHG  1  11  -1
M  END
>  <UniqueID>  (61) 
61

>  <SMILES>  (61) 
CC(C)(C)OC(=O)n1c(C([NH-])=O)cc2ccc(CCO[Si](C)(C)C(C)(C)C)cc21

>  <Energy>  (61) 
76.35171583932639

>  <Genealogy>  (61) 
CC(C)(C)OC(=O)n1c(C([NH-])=O)cc2ccc(CCO[Si](C)(C)C(C)(C)C)cc21 (protonated)
CC(C)(C)OC(=O)n1c(C([NH-])=O)cc2ccc(CCO[Si](C)(C)C(C)(C)C)cc21 (3D coordinates assigned)
CC(C)(C)OC(=O)n1c(C([NH-])=O)cc2ccc(CCO[Si](C)(C)C(C)(C)C)cc21 (optimized conformer: 76.35171583932639 kcal/mol)

>  <smiles>  (61) 
CC(C)(C)OC(=O)n1c(C(N)=O)cc2ccc(CCO[Si](C)(C)C(C)(C)C)cc21

>  <score_type>  (61) 
oracle

>  <origin>  (61) 
adg

>  <m_score__min__energy>  (61) 
-11.56

>  <m_primary>  (61) 
energy

$$$$
61:0
     RDKit          3D

 59 61  0  0  0  0  0  0  0  0999 V2000
   -3.2100   16.1860  -35.5440 C   0  0  0  0  0  0  0  0  0  0  0  0
   -3.4730   15.8190  -34.0780 C   0  0  0  0  0  0  0  0  0  0  0  0
   -3.9660   14.3640  -33.9460 C   0  0  0  0  0  0  0  0  0  0  0  0
   -4.3770   16.8140  -33.4460 N   0  0  0  0  0  0  0  0  0  0  0  0
   -4.3660   18.1770  -34.0460 C   0  0  0  0  0  0  0  0  0  0  0  0
   -5.7440   18.6390  -34.5460 C   0  0  0  0  0  0  0  0  0  0  0  0
   -6.8450   18.5120  -33.4660 C   0  0  0  0  0  0  0  0  0  0  0  0
   -7.0510   19.8260  -32.7250 C   0  0  0  0  0  0  0  0  0  0  0  0
   -8.3620   20.2270  -32.3580 C   0  0  0  0  0  0  0  0  0  0  0  0
   -8.5870   21.4550  -31.7130 C   0  0  0  0  0  0  0  0  0  0  0  0
   -7.4900   22.2710  -31.4620 C   0  0  0  0  0  0  0  0  0  0  0  0
   -7.4220   23.4950  -30.8360 C   0  0  0  0  0  0  0  0  0  0  0  0
   -6.0740   23.8440  -30.8570 C   0  0  0  0  0  0  0  0  0  0  0  0
   -5.5590   25.1260  -30.3390 C   0  0  0  0  0  0  0  0  0  0  0  0
   -6.1200   25.7320  -29.1730 N   0  0  0  0  0  0  0  0  0  0  0  0
   -4.5730   25.6700  -30.9020 O   0  0  0  0  0  0  0  0  0  0  0  0
   -5.3330   22.8700  -31.4580 N   0  0  0  0  0  0  0  0  0  0  0  0
   -3.9010   22.7970  -31.5640 C   0  0  0  0  0  0  0  0  0  0  0  0
   -3.3770   21.9980  -32.3870 O   0  0  0  0  0  0  0  0  0  0  0  0
   -3.1030   23.6220  -30.7550 O   0  0  0  0  0  0  0  0  0  0  0  0
   -2.5840   23.2970  -29.4570 C   0  0  0  0  0  0  0  0  0  0  0  0
   -1.8610   24.5110  -28.8430 C   0  0  0  0  0  0  0  0  0  0  0  0
   -3.7120   22.8070  -28.5300 C   0  0  0  0  0  0  0  0  0  0  0  0
   -1.5700   22.1580  -29.6450 C   0  0  0  0  0  0  0  0  0  0  0  0
   -6.2170   21.9160  -31.8280 C   0  0  0  0  0  0  0  0  0  0  0  0
   -5.9630   20.6890  -32.4500 C   0  0  0  0  0  0  0  0  0  0  0  0
   -6.6070   17.3240  -32.5000 C   0  0  0  0  0  0  0  0  0  0  0  0
   -5.7170   16.2610  -33.1470 C   0  0  0  0  0  0  0  0  0  0  0  0
   -2.5698   17.0794  -35.5892 H   0  0  0  0  0  0  0  0  0  0  0  0
   -2.7058   15.3477  -36.0471 H   0  0  0  0  0  0  0  0  0  0  0  0
   -4.1658   16.3941  -36.0471 H   0  0  0  0  0  0  0  0  0  0  0  0
   -2.5253   15.8623  -33.5212 H   0  0  0  0  0  0  0  0  0  0  0  0
   -4.0547   14.1021  -32.8813 H   0  0  0  0  0  0  0  0  0  0  0  0
   -4.9481   14.2642  -34.4313 H   0  0  0  0  0  0  0  0  0  0  0  0
   -3.2468   13.6877  -34.4313 H   0  0  0  0  0  0  0  0  0  0  0  0
   -4.0152   18.8894  -33.2849 H   0  0  0  0  0  0  0  0  0  0  0  0
   -3.7007   18.1394  -34.9212 H   0  0  0  0  0  0  0  0  0  0  0  0
   -5.6718   19.6929  -34.8526 H   0  0  0  0  0  0  0  0  0  0  0  0
   -6.0272   17.9889  -35.3870 H   0  0  0  0  0  0  0  0  0  0  0  0
   -7.7818   18.2829  -33.9951 H   0  0  0  0  0  0  0  0  0  0  0  0
   -9.2136   19.5676  -32.5815 H   0  0  0  0  0  0  0  0  0  0  0  0
   -9.6008   21.7613  -31.4156 H   0  0  0  0  0  0  0  0  0  0  0  0
   -8.2547   24.0739  -30.4101 H   0  0  0  0  0  0  0  0  0  0  0  0
   -5.7760   26.6640  -28.8500 H   0  0  0  0  0  0  0  0  0  0  0  0
   -6.8190   25.2260  -28.5860 H   0  0  0  0  0  0  0  0  0  0  0  0
   -1.9004   24.4448  -27.7457 H   0  0  0  0  0  0  0  0  0  0  0  0
   -0.8115   24.5179  -29.1725 H   0  0  0  0  0  0  0  0  0  0  0  0
   -2.3548   25.4371  -29.1725 H   0  0  0  0  0  0  0  0  0  0  0  0
   -3.4080   22.9391  -27.4811 H   0  0  0  0  0  0  0  0  0  0  0  0
   -4.6247   23.3898  -28.7234 H   0  0  0  0  0  0  0  0  0  0  0  0
   -3.9090   21.7422  -28.7234 H   0  0  0  0  0  0  0  0  0  0  0  0
   -1.2436   21.7914  -28.6606 H   0  0  0  0  0  0  0  0  0  0  0  0
   -2.0410   21.3364  -30.2045 H   0  0  0  0  0  0  0  0  0  0  0  0
   -0.6994   22.5308  -30.2045 H   0  0  0  0  0  0  0  0  0  0  0  0
   -4.9367   20.4000  -32.7205 H   0  0  0  0  0  0  0  0  0  0  0  0
   -6.1184   17.6951  -31.5870 H   0  0  0  0  0  0  0  0  0  0  0  0
   -7.5787   16.8682  -32.2591 H   0  0  0  0  0  0  0  0  0  0  0  0
   -5.6112   15.4101  -32.4580 H   0  0  0  0  0  0  0  0  0  0  0  0
   -6.1832   15.9335  -34.0880 H   0  0  0  0  0  0  0  0  0  0  0  0
  1  2  1  0
  2  3  1  0
  2  4  1  0
  4  5  1  0
  5  6  1  0
  6  7  1  0
  7  8  1  0
  8  9  2  0
  9 10  1  0
 10 11  2  0
 11 12  1  0
 12 13  2  0
 13 14  1  0
 14 15  1  0
 14 16  2  0
 13 17  1  0
 17 18  1  0
 18 19  2  0
 18 20  1  0
 20 21  1  0
 21 22  1  0
 21 23  1  0
 21 24  1  0
 17 25  1  0
 25 26  2  0
  7 27  1  0
 27 28  1  0
 28  4  1  0
 26  8  1  0
 25 11  1  0
  1 29  1  0
  1 30  1  0
  1 31  1  0
  2 32  1  0
  3 33  1  0
  3 34  1  0
  3 35  1  0
  5 36  1  0
  5 37  1  0
  6 38  1  0
  6 39  1  0
  7 40  1  0
  9 41  1  0
 10 42  1  0
 12 43  1  0
 15 44  1  0
 15 45  1  0
 22 46  1  0
 22 47  1  0
 22 48  1  0
 23 49  1  0
 23 50  1  0
 23 51  1  0
 24 52  1  0
 24 53  1  0
 24 54  1  0
 26 55  1  0
 27 56  1  0
 27 57  1  0
 28 58  1  0
 28 59  1  0
M  END
>  <UniqueID>  (62) 
62

>  <SMILES>  (62) 
CC(C)N1CCC(c2ccc3cc(C(N)=O)n(C(=O)OC(C)(C)C)c3c2)CC1

>  <Energy>  (62) 
103.20726383893862

>  <Genealogy>  (62) 
CC(C)N1CCC(c2ccc3cc(C(N)=O)n(C(=O)OC(C)(C)C)c3c2)CC1 (3D coordinates assigned)
CC(C)N1CCC(c2ccc3cc(C(N)=O)n(C(=O)OC(C)(C)C)c3c2)CC1 (nonaromatic ring conformer: 103.20726383893862 kcal/mol)

>  <smiles>  (62) 
CC(C)N1CCC(c2ccc3cc(C(N)=O)n(C(=O)OC(C)(C)C)c3c2)CC1

>  <score_type>  (62) 
oracle

>  <origin>  (62) 
adg

>  <m_score__min__energy>  (62) 
-10.74

>  <m_primary>  (62) 
energy

$$$$
62:0
     RDKit          3D

 51 53  0  0  0  0  0  0  0  0999 V2000
   -1.5150   19.9770  -34.0750 C   0  0  0  0  0  0  0  0  0  0  0  0
   -2.5720   19.0250  -33.6230 C   0  0  0  0  0  0  0  0  0  0  0  0
   -2.2820   18.1190  -32.7960 O   0  0  0  0  0  0  0  0  0  0  0  0
   -3.9010   19.1280  -34.1540 N   0  0  0  0  0  0  0  0  0  0  0  0
   -4.9110   18.1280  -33.9430 C   0  0  0  0  0  0  0  0  0  0  0  0
   -4.6510   16.8170  -34.3670 C   0  0  0  0  0  0  0  0  0  0  0  0
   -5.6130   15.8170  -34.2180 C   0  0  0  0  0  0  0  0  0  0  0  0
   -6.8420   16.1130  -33.6300 C   0  0  0  0  0  0  0  0  0  0  0  0
   -7.1080   17.4070  -33.1750 C   0  0  0  0  0  0  0  0  0  0  0  0
   -6.1460   18.4260  -33.3090 C   0  0  0  0  0  0  0  0  0  0  0  0
   -6.4340   19.7620  -32.7330 C   0  0  0  0  0  0  0  0  0  0  0  0
   -7.7770   20.1920  -32.5710 C   0  0  0  0  0  0  0  0  0  0  0  0
   -8.0650   21.4560  -32.0300 C   0  0  0  0  0  0  0  0  0  0  0  0
   -6.9960   22.2700  -31.6670 C   0  0  0  0  0  0  0  0  0  0  0  0
   -6.9910   23.5290  -31.1140 C   0  0  0  0  0  0  0  0  0  0  0  0
   -5.6450   23.8600  -30.9610 C   0  0  0  0  0  0  0  0  0  0  0  0
   -5.1790   25.1780  -30.4800 C   0  0  0  0  0  0  0  0  0  0  0  0
   -3.8870   25.6520  -30.8530 N   0  0  0  0  0  0  0  0  0  0  0  0
   -5.8960   25.8760  -29.7170 O   0  0  0  0  0  0  0  0  0  0  0  0
   -4.8520   22.8390  -31.3950 N   0  0  0  0  0  0  0  0  0  0  0  0
   -3.4180   22.7660  -31.3830 C   0  0  0  0  0  0  0  0  0  0  0  0
   -2.8090   22.2920  -32.3780 O   0  0  0  0  0  0  0  0  0  0  0  0
   -2.7160   23.2470  -30.2670 O   0  0  0  0  0  0  0  0  0  0  0  0
   -2.6200   22.6120  -28.9850 C   0  0  0  0  0  0  0  0  0  0  0  0
   -1.3060   23.0040  -28.2840 C   0  0  0  0  0  0  0  0  0  0  0  0
   -2.7270   21.0820  -29.1270 C   0  0  0  0  0  0  0  0  0  0  0  0
   -3.8010   23.1150  -28.1400 C   0  0  0  0  0  0  0  0  0  0  0  0
   -5.6940   21.8750  -31.8240 C   0  0  0  0  0  0  0  0  0  0  0  0
   -5.3770   20.6100  -32.3330 C   0  0  0  0  0  0  0  0  0  0  0  0
   -1.0220   20.4210  -33.1976 H   0  0  0  0  0  0  0  0  0  0  0  0
   -0.7709   19.4384  -34.6802 H   0  0  0  0  0  0  0  0  0  0  0  0
   -1.9731   20.7731  -34.6802 H   0  0  0  0  0  0  0  0  0  0  0  0
   -4.1900   20.0350  -34.5830 H   0  0  0  0  0  0  0  0  0  0  0  0
   -3.6792   16.5743  -34.8216 H   0  0  0  0  0  0  0  0  0  0  0  0
   -5.4015   14.7947  -34.5647 H   0  0  0  0  0  0  0  0  0  0  0  0
   -7.6036   15.3264  -33.5241 H   0  0  0  0  0  0  0  0  0  0  0  0
   -8.0782   17.6316  -32.7077 H   0  0  0  0  0  0  0  0  0  0  0  0
   -8.6010   19.5284  -32.8723 H   0  0  0  0  0  0  0  0  0  0  0  0
   -9.1039   21.7923  -31.8973 H   0  0  0  0  0  0  0  0  0  0  0  0
   -7.8634   24.1443  -30.8487 H   0  0  0  0  0  0  0  0  0  0  0  0
   -3.0250   25.2760  -30.3980 H   0  0  0  0  0  0  0  0  0  0  0  0
   -1.4455   22.9624  -27.1937 H   0  0  0  0  0  0  0  0  0  0  0  0
   -0.5102   22.3041  -28.5788 H   0  0  0  0  0  0  0  0  0  0  0  0
   -1.0237   24.0255  -28.5788 H   0  0  0  0  0  0  0  0  0  0  0  0
   -2.7591   20.6224  -28.1281 H   0  0  0  0  0  0  0  0  0  0  0  0
   -3.6451   20.8281  -29.6771 H   0  0  0  0  0  0  0  0  0  0  0  0
   -1.8532   20.7028  -29.6771 H   0  0  0  0  0  0  0  0  0  0  0  0
   -3.5581   23.0116  -27.0721 H   0  0  0  0  0  0  0  0  0  0  0  0
   -3.9932   24.1731  -28.3715 H   0  0  0  0  0  0  0  0  0  0  0  0
   -4.6970   22.5204  -28.3715 H   0  0  0  0  0  0  0  0  0  0  0  0
   -4.3300   20.2840  -32.4195 H   0  0  0  0  0  0  0  0  0  0  0  0
  1  2  1  0
  2  3  2  0
  2  4  1  0
  4  5  1  0
  5  6  2  0
  6  7  1  0
  7  8  2  0
  8  9  1  0
  9 10  2  0
 10 11  1  0
 11 12  2  0
 12 13  1  0
 13 14  2  0
 14 15  1  0
 15 16  2  0
 16 17  1  0
 17 18  1  0
 17 19  2  0
 16 20  1  0
 20 21  1  0
 21 22  2  0
 21 23  1  0
 23 24  1  0
 24 25  1  0
 24 26  1  0
 24 27  1  0
 20 28  1  0
 28 29  2  0
 10  5  1  0
 29 11  1  0
 28 14  1  0
  1 30  1  0
  1 31  1  0
  1 32  1  0
  4 33  1  0
  6 34  1  0
  7 35  1  0
  8 36  1  0
  9 37  1  0
 12 38  1  0
 13 39  1  0
 15 40  1  0
 18 41  1  0
 25 42  1  0
 25 43  1  0
 25 44  1  0
 26 45  1  0
 26 46  1  0
 26 47  1  0
 27 48  1  0
 27 49  1  0
 27 50  1  0
 29 51  1  0
M  CHG  1  18  -1
M  END
>  <UniqueID>  (63) 
63

>  <SMILES>  (63) 
CC(=O)Nc1ccccc1-c1ccc2cc(C([NH-])=O)n(C(=O)OC(C)(C)C)c2c1

>  <Energy>  (63) 
93.8649624708076

>  <Genealogy>  (63) 
CC(=O)Nc1ccccc1-c1ccc2cc(C([NH-])=O)n(C(=O)OC(C)(C)C)c2c1 (protonated)
CC(=O)Nc1ccccc1-c1ccc2cc(C([NH-])=O)n(C(=O)OC(C)(C)C)c2c1 (3D coordinates assigned)
CC(=O)Nc1ccccc1-c1ccc2cc(C([NH-])=O)n(C(=O)OC(C)(C)C)c2c1 (optimized conformer: 93.8649624708076 kcal/mol)

>  <smiles>  (63) 
CC(=O)Nc1ccccc1-c1ccc2cc(C(N)=O)n(C(=O)OC(C)(C)C)c2c1

>  <score_type>  (63) 
oracle

>  <origin>  (63) 
adg

>  <m_score__min__energy>  (63) 
-11.58

>  <m_primary>  (63) 
energy

$$$$
63:0
     RDKit          3D

 38 40  0  0  0  0  0  0  0  0999 V2000
   -7.5290   20.8970  -32.2990 C   0  0  0  0  0  0  0  0  0  0  0  0
   -6.2980   20.4790  -33.1200 C   0  0  2  0  0  0  0  0  0  0  0  0
   -6.3490   19.0110  -33.4960 C   0  0  0  0  0  0  0  0  0  0  0  0
   -7.1150   18.1150  -32.7270 C   0  0  0  0  0  0  0  0  0  0  0  0
   -7.1820   16.7620  -33.0730 C   0  0  0  0  0  0  0  0  0  0  0  0
   -6.4890   16.2890  -34.1900 C   0  0  0  0  0  0  0  0  0  0  0  0
   -5.7300   17.1680  -34.9650 C   0  0  0  0  0  0  0  0  0  0  0  0
   -5.6590   18.5220  -34.6240 C   0  0  0  0  0  0  0  0  0  0  0  0
   -4.9760   20.8180  -32.4510 C   0  0  0  0  0  0  0  0  0  0  0  0
   -3.9360   19.8520  -32.4660 C   0  0  0  0  0  0  0  0  0  0  0  0
   -2.7160   20.0940  -31.8120 C   0  0  0  0  0  0  0  0  0  0  0  0
   -2.5610   21.3060  -31.1490 C   0  0  0  0  0  0  0  0  0  0  0  0
   -1.5040   21.7740  -30.4040 C   0  0  0  0  0  0  0  0  0  0  0  0
   -1.9000   23.0280  -29.9520 C   0  0  0  0  0  0  0  0  0  0  0  0
   -1.0310   23.9150  -29.1530 C   0  0  0  0  0  0  0  0  0  0  0  0
   -1.2630   25.3230  -29.0970 N   0  0  0  0  0  0  0  0  0  0  0  0
   -0.0350   23.4290  -28.5540 O   0  0  0  0  0  0  0  0  0  0  0  0
   -3.1590   23.3220  -30.3870 N   0  0  0  0  0  0  0  0  0  0  0  0
   -3.9590   24.4650  -30.0390 C   0  0  0  0  0  0  0  0  0  0  0  0
   -4.7510   24.4130  -29.0600 O   0  0  0  0  0  0  0  0  0  0  0  0
   -3.8690   25.6390  -30.7750 O   0  0  0  0  0  0  0  0  0  0  0  0
   -3.5490   22.2560  -31.1230 C   0  0  0  0  0  0  0  0  0  0  0  0
   -4.7820   22.0320  -31.7470 C   0  0  0  0  0  0  0  0  0  0  0  0
   -7.2982   20.8186  -31.2263 H   0  0  0  0  0  0  0  0  0  0  0  0
   -7.7960   21.9362  -32.5416 H   0  0  0  0  0  0  0  0  0  0  0  0
   -8.3735   20.2353  -32.5416 H   0  0  0  0  0  0  0  0  0  0  0  0
   -6.3431   21.0791  -34.0408 H   0  0  0  0  0  0  0  0  0  0  0  0
   -7.6648   18.4818  -31.8477 H   0  0  0  0  0  0  0  0  0  0  0  0
   -7.7814   16.0687  -32.4646 H   0  0  0  0  0  0  0  0  0  0  0  0
   -6.5413   15.2237  -34.4590 H   0  0  0  0  0  0  0  0  0  0  0  0
   -5.1868   16.7945  -35.8456 H   0  0  0  0  0  0  0  0  0  0  0  0
   -5.0610   19.2101  -35.2396 H   0  0  0  0  0  0  0  0  0  0  0  0
   -4.0872   18.9006  -32.9970 H   0  0  0  0  0  0  0  0  0  0  0  0
   -1.9084   19.3473  -31.8243 H   0  0  0  0  0  0  0  0  0  0  0  0
   -0.5489   21.2649  -30.2075 H   0  0  0  0  0  0  0  0  0  0  0  0
   -1.9710   25.7780  -29.7140 H   0  0  0  0  0  0  0  0  0  0  0  0
   -0.6610   25.9290  -28.4960 H   0  0  0  0  0  0  0  0  0  0  0  0
   -5.5837   22.7832  -31.6918 H   0  0  0  0  0  0  0  0  0  0  0  0
  1  2  1  0
  2  3  1  0
  3  4  2  0
  4  5  1  0
  5  6  2  0
  6  7  1  0
  7  8  2  0
  2  9  1  0
  9 10  2  0
 10 11  1  0
 11 12  2  0
 12 13  1  0
 13 14  2  0
 14 15  1  0
 15 16  1  0
 15 17  2  0
 14 18  1  0
 18 19  1  0
 19 20  2  0
 19 21  1  0
 18 22  1  0
 22 23  2  0
  8  3  1  0
 23  9  1  0
 22 12  1  0
  1 24  1  0
  1 25  1  0
  1 26  1  0
  2 27  1  6
  4 28  1  0
  5 29  1  0
  6 30  1  0
  7 31  1  0
  8 32  1  0
 10 33  1  0
 11 34  1  0
 13 35  1  0
 16 36  1  0
 16 37  1  0
 23 38  1  0
M  CHG  1  21  -1
M  END
>  <UniqueID>  (64) 
64

>  <SMILES>  (64) 
C[C@H](c1ccccc1)c1ccc2cc(C(N)=O)n(C(=O)[O-])c2c1

>  <Energy>  (64) 
81.16134778278875

>  <Genealogy>  (64) 
CC(c1ccccc1)c1ccc2cc(C(N)=O)n(C(=O)[O-])c2c1 (protonated)
C[C@H](c1ccccc1)c1ccc2cc(C(N)=O)n(C(=O)[O-])c2c1 (chirality)
C[C@H](c1ccccc1)c1ccc2cc(C(N)=O)n(C(=O)[O-])c2c1 (3D coordinates assigned)
C[C@H](c1ccccc1)c1ccc2cc(C(N)=O)n(C(=O)[O-])c2c1 (optimized conformer: 81.16134778278875 kcal/mol)

>  <smiles>  (64) 
CC(c1ccccc1)c1ccc2cc(C(N)=O)n(C(=O)O)c2c1

>  <score_type>  (64) 
oracle

>  <origin>  (64) 
adg

>  <m_score__min__energy>  (64) 
-9.8800000000000008

>  <m_primary>  (64) 
energy

$$$$
64:0
     RDKit          3D

 38 40  0  0  0  0  0  0  0  0999 V2000
   -2.0000   20.4340  -33.4290 C   0  0  0  0  0  0  0  0  0  0  0  0
   -2.7350   19.6520  -34.3620 O   0  0  0  0  0  0  0  0  0  0  0  0
   -2.9550   18.2820  -34.1890 C   0  0  0  0  0  0  0  0  0  0  0  0
   -2.0040   17.4640  -34.3350 O   0  0  0  0  0  0  0  0  0  0  0  0
   -4.2650   17.8020  -33.8450 N   0  0  0  0  0  0  0  0  0  0  0  0
   -4.8090   16.5890  -34.1410 C   0  0  0  0  0  0  0  0  0  0  0  0
   -4.0940   15.4440  -34.7410 C   0  0  0  0  0  0  0  0  0  0  0  0
   -3.1700   15.6290  -35.8150 N   0  0  0  0  0  0  0  0  0  0  0  0
   -4.2610   14.2910  -34.2620 O   0  0  0  0  0  0  0  0  0  0  0  0
   -6.1450   16.5400  -33.7550 C   0  0  0  0  0  0  0  0  0  0  0  0
   -6.4050   17.7700  -33.1940 C   0  0  0  0  0  0  0  0  0  0  0  0
   -7.5840   18.2720  -32.6560 C   0  0  0  0  0  0  0  0  0  0  0  0
   -7.5810   19.5930  -32.1810 C   0  0  0  0  0  0  0  0  0  0  0  0
   -6.4090   20.3910  -32.2590 C   0  0  0  0  0  0  0  0  0  0  0  0
   -6.4220   21.7920  -31.7660 C   0  0  0  0  0  0  0  0  0  0  0  0
   -7.6300   22.5060  -31.6840 C   0  0  0  0  0  0  0  0  0  0  0  0
   -7.6430   23.8220  -31.2180 C   0  0  0  0  0  0  0  0  0  0  0  0
   -6.4530   24.4430  -30.8300 C   0  0  0  0  0  0  0  0  0  0  0  0
   -5.2330   23.7500  -30.9040 C   0  0  0  0  0  0  0  0  0  0  0  0
   -3.9700   24.4040  -30.4960 C   0  0  0  0  0  0  0  0  0  0  0  0
   -3.8720   25.6600  -30.4920 O   0  0  0  0  0  0  0  0  0  0  0  0
   -2.8730   23.6410  -30.1110 O   0  0  0  0  0  0  0  0  0  0  0  0
   -5.2270   22.4250  -31.3740 C   0  0  0  0  0  0  0  0  0  0  0  0
   -5.2310   19.8410  -32.8160 C   0  0  0  0  0  0  0  0  0  0  0  0
   -5.2570   18.5140  -33.2620 C   0  0  0  0  0  0  0  0  0  0  0  0
   -2.2765   20.1398  -32.4058 H   0  0  0  0  0  0  0  0  0  0  0  0
   -0.9230   20.2684  -33.5798 H   0  0  0  0  0  0  0  0  0  0  0  0
   -2.2319   21.4986  -33.5798 H   0  0  0  0  0  0  0  0  0  0  0  0
   -2.8830   16.5840  -36.1200 H   0  0  0  0  0  0  0  0  0  0  0  0
   -2.7020   14.8030  -36.2500 H   0  0  0  0  0  0  0  0  0  0  0  0
   -6.8437   15.6986  -33.8729 H   0  0  0  0  0  0  0  0  0  0  0  0
   -8.4919   17.6531  -32.6040 H   0  0  0  0  0  0  0  0  0  0  0  0
   -8.4976   20.0150  -31.7431 H   0  0  0  0  0  0  0  0  0  0  0  0
   -8.5710   22.0249  -31.9889 H   0  0  0  0  0  0  0  0  0  0  0  0
   -8.5936   24.3720  -31.1561 H   0  0  0  0  0  0  0  0  0  0  0  0
   -6.4714   25.4803  -30.4645 H   0  0  0  0  0  0  0  0  0  0  0  0
   -4.2761   21.8756  -31.4363 H   0  0  0  0  0  0  0  0  0  0  0  0
   -4.3139   20.4430  -32.8971 H   0  0  0  0  0  0  0  0  0  0  0  0
  1  2  1  0
  2  3  1  0
  3  4  2  0
  3  5  1  0
  5  6  1  0
  6  7  1  0
  7  8  1  0
  7  9  2  0
  6 10  2  0
 10 11  1  0
 11 12  2  0
 12 13  1  0
 13 14  2  0
 14 15  1  0
 15 16  2  0
 16 17  1  0
 17 18  2  0
 18 19  1  0
 19 20  1  0
 20 21  2  0
 20 22  1  0
 19 23  2  0
 14 24  1  0
 24 25  2  0
 25  5  1  0
 25 11  1  0
 23 15  1  0
  1 26  1  0
  1 27  1  0
  1 28  1  0
  8 29  1  0
  8 30  1  0
 10 31  1  0
 12 32  1  0
 13 33  1  0
 16 34  1  0
 17 35  1  0
 18 36  1  0
 23 37  1  0
 24 38  1  0
M  CHG  1  22  -1
M  END
>  <UniqueID>  (65) 
65

>  <SMILES>  (65) 
COC(=O)n1c(C(N)=O)cc2ccc(-c3cccc(C(=O)[O-])c3)cc21

>  <Energy>  (65) 
84.07019614638014

>  <Genealogy>  (65) 
COC(=O)n1c(C(N)=O)cc2ccc(-c3cccc(C(=O)[O-])c3)cc21 (protonated)
COC(=O)n1c(C(N)=O)cc2ccc(-c3cccc(C(=O)[O-])c3)cc21 (3D coordinates assigned)
COC(=O)n1c(C(N)=O)cc2ccc(-c3cccc(C(=O)[O-])c3)cc21 (optimized conformer: 84.07019614638014 kcal/mol)

>  <smiles>  (65) 
COC(=O)n1c(C(N)=O)cc2ccc(-c3cccc(C(=O)O)c3)cc21

>  <score_type>  (65) 
oracle

>  <origin>  (65) 
adg

>  <m_score__min__energy>  (65) 
-9.6600000000000001

>  <m_primary>  (65) 
energy

$$$$
65:0
     RDKit          3D

 33 35  0  0  0  0  0  0  0  0999 V2000
   -5.3790   14.2210  -34.0340 C   0  0  0  0  0  0  0  0  0  0  0  0
   -5.6400   15.6280  -33.5990 C   0  0  0  0  0  0  0  0  0  0  0  0
   -5.9800   16.5680  -34.5190 N   0  0  0  0  0  0  0  0  0  0  0  0
   -6.2350   17.8490  -34.1540 C   0  0  0  0  0  0  0  0  0  0  0  0
   -6.1610   18.2260  -32.8060 C   0  0  0  0  0  0  0  0  0  0  0  0
   -6.4390   19.6220  -32.3800 C   0  0  0  0  0  0  0  0  0  0  0  0
   -7.7730   20.1060  -32.3400 C   0  0  0  0  0  0  0  0  0  0  0  0
   -8.0480   21.4280  -31.9510 C   0  0  0  0  0  0  0  0  0  0  0  0
   -6.9750   22.2410  -31.5990 C   0  0  0  0  0  0  0  0  0  0  0  0
   -6.9570   23.5600  -31.2090 C   0  0  0  0  0  0  0  0  0  0  0  0
   -5.6150   23.8620  -30.9910 C   0  0  0  0  0  0  0  0  0  0  0  0
   -5.1500   25.1640  -30.4700 C   0  0  0  0  0  0  0  0  0  0  0  0
   -3.8640   25.6740  -30.8120 N   0  0  0  0  0  0  0  0  0  0  0  0
   -5.8790   25.8130  -29.6730 O   0  0  0  0  0  0  0  0  0  0  0  0
   -4.8330   22.7740  -31.2430 N   0  0  0  0  0  0  0  0  0  0  0  0
   -3.3970   22.7030  -31.2290 C   0  0  0  0  0  0  0  0  0  0  0  0
   -2.7470   23.1570  -30.2500 O   0  0  0  0  0  0  0  0  0  0  0  0
   -2.7140   22.1110  -32.2840 O   0  0  0  0  0  0  0  0  0  0  0  0
   -5.6810   21.7890  -31.6130 C   0  0  0  0  0  0  0  0  0  0  0  0
   -5.3760   20.4820  -32.0150 C   0  0  0  0  0  0  0  0  0  0  0  0
   -5.8160   17.2360  -31.8730 C   0  0  0  0  0  0  0  0  0  0  0  0
   -5.5650   15.9650  -32.2820 N   0  0  0  0  0  0  0  0  0  0  0  0
   -5.2600   13.5795  -33.1484 H   0  0  0  0  0  0  0  0  0  0  0  0
   -6.2256   13.8605  -34.6368 H   0  0  0  0  0  0  0  0  0  0  0  0
   -4.4594   14.1882  -34.6368 H   0  0  0  0  0  0  0  0  0  0  0  0
   -6.5007   18.5944  -34.9181 H   0  0  0  0  0  0  0  0  0  0  0  0
   -8.6017   19.4378  -32.6170 H   0  0  0  0  0  0  0  0  0  0  0  0
   -9.0798   21.8085  -31.9255 H   0  0  0  0  0  0  0  0  0  0  0  0
   -7.8193   24.2332  -31.0938 H   0  0  0  0  0  0  0  0  0  0  0  0
   -3.0000   25.2960  -30.3650 H   0  0  0  0  0  0  0  0  0  0  0  0
   -4.3336   20.1321  -32.0462 H   0  0  0  0  0  0  0  0  0  0  0  0
   -5.7485   17.4905  -30.8050 H   0  0  0  0  0  0  0  0  0  0  0  0
   -5.3100   15.2430  -31.5710 H   0  0  0  0  0  0  0  0  0  0  0  0
  1  2  1  0
  2  3  2  0
  3  4  1  0
  4  5  2  0
  5  6  1  0
  6  7  2  0
  7  8  1  0
  8  9  2  0
  9 10  1  0
 10 11  2  0
 11 12  1  0
 12 13  1  0
 12 14  2  0
 11 15  1  0
 15 16  1  0
 16 17  2  0
 16 18  1  0
 15 19  1  0
 19 20  2  0
  5 21  1  0
 21 22  2  0
 22  2  1  0
 20  6  1  0
 19  9  1  0
  1 23  1  0
  1 24  1  0
  1 25  1  0
  4 26  1  0
  7 27  1  0
  8 28  1  0
 10 29  1  0
 13 30  1  0
 20 31  1  0
 21 32  1  0
 22 33  1  0
M  CHG  3  13  -1  18  -1  22   1
M  END
>  <UniqueID>  (66) 
66

>  <SMILES>  (66) 
Cc1ncc(-c2ccc3cc(C([NH-])=O)n(C(=O)[O-])c3c2)c[nH+]1

>  <Energy>  (66) 
79.9161886097826

>  <Genealogy>  (66) 
Cc1ncc(-c2ccc3cc(C([NH-])=O)n(C(=O)[O-])c3c2)c[nH+]1 (protonated)
Cc1ncc(-c2ccc3cc(C([NH-])=O)n(C(=O)[O-])c3c2)c[nH+]1 (3D coordinates assigned)
Cc1ncc(-c2ccc3cc(C([NH-])=O)n(C(=O)[O-])c3c2)c[nH+]1 (optimized conformer: 79.9161886097826 kcal/mol)

>  <smiles>  (66) 
Cc1ncc(-c2ccc3cc(C(N)=O)n(C(=O)O)c3c2)cn1

>  <score_type>  (66) 
oracle

>  <origin>  (66) 
adg

>  <m_score__min__energy>  (66) 
-10.23

>  <m_primary>  (66) 
energy

$$$$
66:0
     RDKit          3D

 34 36  0  0  0  0  0  0  0  0999 V2000
   -4.1770   25.5430  -30.6470 N   0  0  0  0  0  0  0  0  0  0  0  0
   -5.4360   24.9730  -30.2930 C   0  0  0  0  0  0  0  0  0  0  0  0
   -6.1220   25.5050  -29.3790 O   0  0  0  0  0  0  0  0  0  0  0  0
   -5.9130   23.7300  -30.9270 C   0  0  0  0  0  0  0  0  0  0  0  0
   -7.2390   23.5220  -31.2970 C   0  0  0  0  0  0  0  0  0  0  0  0
   -7.2870   22.2280  -31.7630 C   0  0  0  0  0  0  0  0  0  0  0  0
   -8.3610   21.4950  -32.2630 C   0  0  0  0  0  0  0  0  0  0  0  0
   -8.1170   20.1810  -32.6930 C   0  0  0  0  0  0  0  0  0  0  0  0
   -6.8140   19.6340  -32.6210 C   0  0  0  0  0  0  0  0  0  0  0  0
   -6.5760   18.2880  -33.0710 C   0  0  0  0  0  0  0  0  0  0  0  0
   -6.3750   17.1610  -33.4490 C   0  0  0  0  0  0  0  0  0  0  0  0
   -6.1340   15.8160  -33.9010 C   0  0  0  0  0  0  0  0  0  0  0  0
   -7.2130   14.9780  -34.2140 C   0  0  0  0  0  0  0  0  0  0  0  0
   -6.9790   13.6700  -34.6540 C   0  0  0  0  0  0  0  0  0  0  0  0
   -5.6680   13.1980  -34.7800 C   0  0  0  0  0  0  0  0  0  0  0  0
   -4.5900   14.0340  -34.4670 C   0  0  0  0  0  0  0  0  0  0  0  0
   -3.3200   13.5750  -34.5890 F   0  0  0  0  0  0  0  0  0  0  0  0
   -4.8220   15.3410  -34.0280 C   0  0  0  0  0  0  0  0  0  0  0  0
   -5.7480   20.4010  -32.1110 C   0  0  0  0  0  0  0  0  0  0  0  0
   -6.0220   21.7040  -31.6780 C   0  0  0  0  0  0  0  0  0  0  0  0
   -5.1630   22.6180  -31.1750 N   0  0  0  0  0  0  0  0  0  0  0  0
   -3.7400   22.4570  -31.0540 C   0  0  0  0  0  0  0  0  0  0  0  0
   -2.9600   23.4280  -31.2430 O   0  0  0  0  0  0  0  0  0  0  0  0
   -3.5210   25.0420  -31.2860 H   0  0  0  0  0  0  0  0  0  0  0  0
   -3.8630   26.4380  -30.2090 H   0  0  0  0  0  0  0  0  0  0  0  0
   -8.0707   24.2389  -31.2310 H   0  0  0  0  0  0  0  0  0  0  0  0
   -9.3688   21.9322  -32.3191 H   0  0  0  0  0  0  0  0  0  0  0  0
   -8.9440   19.5729  -33.0884 H   0  0  0  0  0  0  0  0  0  0  0  0
   -8.2439   15.3483  -34.1138 H   0  0  0  0  0  0  0  0  0  0  0  0
   -7.8261   13.0130  -34.9008 H   0  0  0  0  0  0  0  0  0  0  0  0
   -5.4845   12.1698  -35.1251 H   0  0  0  0  0  0  0  0  0  0  0  0
   -3.9738   15.9969  -33.7821 H   0  0  0  0  0  0  0  0  0  0  0  0
   -4.7300   19.9882  -32.0546 H   0  0  0  0  0  0  0  0  0  0  0  0
   -3.3261   21.4719  -30.7927 H   0  0  0  0  0  0  0  0  0  0  0  0
  1  2  1  0
  2  3  2  0
  2  4  1  0
  4  5  2  0
  5  6  1  0
  6  7  2  0
  7  8  1  0
  8  9  2  0
  9 10  1  0
 10 11  3  0
 11 12  1  0
 12 13  2  0
 13 14  1  0
 14 15  2  0
 15 16  1  0
 16 17  1  0
 16 18  2  0
  9 19  1  0
 19 20  2  0
 20 21  1  0
 21 22  1  0
 22 23  2  0
 21  4  1  0
 20  6  1  0
 18 12  1  0
  1 24  1  0
  1 25  1  0
  5 26  1  0
  7 27  1  0
  8 28  1  0
 13 29  1  0
 14 30  1  0
 15 31  1  0
 18 32  1  0
 19 33  1  0
 22 34  1  0
M  END
>  <UniqueID>  (67) 
67

>  <SMILES>  (67) 
NC(=O)c1cc2ccc(C#Cc3cccc(F)c3)cc2n1C=O

>  <Energy>  (67) 
71.76139765438302

>  <Genealogy>  (67) 
NC(=O)c1cc2ccc(C#Cc3cccc(F)c3)cc2n1C=O (3D coordinates assigned)
NC(=O)c1cc2ccc(C#Cc3cccc(F)c3)cc2n1C=O (optimized conformer: 71.76139765438302 kcal/mol)

>  <smiles>  (67) 
NC(=O)c1cc2ccc(C#Cc3cccc(F)c3)cc2n1C=O

>  <score_type>  (67) 
oracle

>  <origin>  (67) 
adg

>  <m_score__min__energy>  (67) 
-9.1600000000000001

>  <m_primary>  (67) 
energy

$$$$
67:0
     RDKit          3D

 54 56  0  0  0  0  0  0  0  0999 V2000
   -7.3050   22.6170  -30.5700 C   0  0  0  0  0  0  0  0  0  0  0  0
   -8.2640   22.4730  -31.7500 C   0  0  0  0  0  0  0  0  0  0  0  0
   -9.3080   21.3610  -31.5430 C   0  0  0  0  0  0  0  0  0  0  0  0
   -8.7200   19.9480  -31.3530 C   0  0  0  0  0  0  0  0  0  0  0  0
   -8.9030   19.0030  -32.5550 C   0  0  0  0  0  0  0  0  0  0  0  0
   -7.7690   17.9770  -32.7250 C   0  0  0  0  0  0  0  0  0  0  0  0
   -6.8300   18.3670  -33.8040 N   0  0  0  0  0  0  0  0  0  0  0  0
   -5.5380   17.6270  -33.7680 C   0  0  0  0  0  0  0  0  0  0  0  0
   -4.3410   18.4720  -33.2850 C   0  0  0  0  0  0  0  0  0  0  0  0
   -4.7780   19.4780  -32.2130 C   0  0  0  0  0  0  0  0  0  0  0  0
   -3.5920   20.2330  -31.6390 C   0  0  0  0  0  0  0  0  0  0  0  0
   -2.2940   19.6630  -31.7070 C   0  0  0  0  0  0  0  0  0  0  0  0
   -1.1810   20.3470  -31.1920 C   0  0  0  0  0  0  0  0  0  0  0  0
   -1.3910   21.5910  -30.6080 C   0  0  0  0  0  0  0  0  0  0  0  0
   -0.4910   22.4720  -30.0540 C   0  0  0  0  0  0  0  0  0  0  0  0
   -1.2500   23.5600  -29.6300 C   0  0  0  0  0  0  0  0  0  0  0  0
   -0.6850   24.7090  -28.8940 C   0  0  0  0  0  0  0  0  0  0  0  0
   -1.3190   25.9840  -28.9740 N   0  0  0  0  0  0  0  0  0  0  0  0
    0.3750   24.5880  -28.2260 O   0  0  0  0  0  0  0  0  0  0  0  0
   -2.5700   23.3630  -29.9170 N   0  0  0  0  0  0  0  0  0  0  0  0
   -3.6590   24.2760  -29.7080 C   0  0  0  0  0  0  0  0  0  0  0  0
   -3.7770   25.3020  -30.4280 O   0  0  0  0  0  0  0  0  0  0  0  0
   -4.5780   24.0520  -28.6900 O   0  0  0  0  0  0  0  0  0  0  0  0
   -2.6380   22.1510  -30.5140 C   0  0  0  0  0  0  0  0  0  0  0  0
   -3.7630   21.5010  -31.0340 C   0  0  0  0  0  0  0  0  0  0  0  0
   -5.8540   20.4430  -32.7640 C   0  0  0  0  0  0  0  0  0  0  0  0
   -6.6580   19.8300  -33.9290 C   0  0  0  0  0  0  0  0  0  0  0  0
   -7.8671   22.5326  -29.6283 H   0  0  0  0  0  0  0  0  0  0  0  0
   -6.5452   21.8229  -30.6160 H   0  0  0  0  0  0  0  0  0  0  0  0
   -6.8120   23.5992  -30.6160 H   0  0  0  0  0  0  0  0  0  0  0  0
   -8.7918   23.4277  -31.8915 H   0  0  0  0  0  0  0  0  0  0  0  0
   -7.6639   22.2017  -32.6311 H   0  0  0  0  0  0  0  0  0  0  0  0
   -9.8988   21.6087  -30.6488 H   0  0  0  0  0  0  0  0  0  0  0  0
   -9.9083   21.3249  -32.4641 H   0  0  0  0  0  0  0  0  0  0  0  0
   -7.6420   20.0496  -31.1592 H   0  0  0  0  0  0  0  0  0  0  0  0
   -9.2717   19.4940  -30.5166 H   0  0  0  0  0  0  0  0  0  0  0  0
   -9.8478   18.4552  -32.4232 H   0  0  0  0  0  0  0  0  0  0  0  0
   -8.8995   19.6324  -33.4571 H   0  0  0  0  0  0  0  0  0  0  0  0
   -7.2126   17.9014  -31.7791 H   0  0  0  0  0  0  0  0  0  0  0  0
   -8.2200   17.0113  -32.9971 H   0  0  0  0  0  0  0  0  0  0  0  0
   -5.6506   16.7683  -33.0898 H   0  0  0  0  0  0  0  0  0  0  0  0
   -5.3164   17.3255  -34.8024 H   0  0  0  0  0  0  0  0  0  0  0  0
   -3.5762   17.8042  -32.8617 H   0  0  0  0  0  0  0  0  0  0  0  0
   -3.9340   19.0273  -34.1429 H   0  0  0  0  0  0  0  0  0  0  0  0
   -5.2300   18.9103  -31.3864 H   0  0  0  0  0  0  0  0  0  0  0  0
   -2.1583   18.6738  -32.1686 H   0  0  0  0  0  0  0  0  0  0  0  0
   -0.1726   19.9113  -31.2490 H   0  0  0  0  0  0  0  0  0  0  0  0
    0.5979   22.3440  -29.9648 H   0  0  0  0  0  0  0  0  0  0  0  0
   -2.3590   26.0690  -28.9510 H   0  0  0  0  0  0  0  0  0  0  0  0
   -4.7583   21.9654  -30.9738 H   0  0  0  0  0  0  0  0  0  0  0  0
   -6.5497   20.6968  -31.9506 H   0  0  0  0  0  0  0  0  0  0  0  0
   -5.3372   21.3349  -33.1480 H   0  0  0  0  0  0  0  0  0  0  0  0
   -7.6526   20.2992  -33.9539 H   0  0  0  0  0  0  0  0  0  0  0  0
   -6.0929   20.0175  -34.8539 H   0  0  0  0  0  0  0  0  0  0  0  0
  1  2  1  0
  2  3  1  0
  3  4  1  0
  4  5  1  0
  5  6  1  0
  6  7  1  0
  7  8  1  0
  8  9  1  0
  9 10  1  0
 10 11  1  0
 11 12  2  0
 12 13  1  0
 13 14  2  0
 14 15  1  0
 15 16  2  0
 16 17  1  0
 17 18  1  0
 17 19  2  0
 16 20  1  0
 20 21  1  0
 21 22  2  0
 21 23  1  0
 20 24  1  0
 24 25  2  0
 10 26  1  0
 26 27  1  0
 27  7  1  0
 25 11  1  0
 24 14  1  0
  1 28  1  0
  1 29  1  0
  1 30  1  0
  2 31  1  0
  2 32  1  0
  3 33  1  0
  3 34  1  0
  4 35  1  0
  4 36  1  0
  5 37  1  0
  5 38  1  0
  6 39  1  0
  6 40  1  0
  8 41  1  0
  8 42  1  0
  9 43  1  0
  9 44  1  0
 10 45  1  0
 12 46  1  0
 13 47  1  0
 15 48  1  0
 18 49  1  0
 25 50  1  0
 26 51  1  0
 26 52  1  0
 27 53  1  0
 27 54  1  0
M  CHG  2  18  -1  23  -1
M  END
>  <UniqueID>  (68) 
68

>  <SMILES>  (68) 
CCCCCCN1CCC(c2ccc3cc(C([NH-])=O)n(C(=O)[O-])c3c2)CC1

>  <Energy>  (68) 
98.01055867308557

>  <Genealogy>  (68) 
CCCCCCN1CCC(c2ccc3cc(C([NH-])=O)n(C(=O)[O-])c3c2)CC1 (protonated)
CCCCCCN1CCC(c2ccc3cc(C([NH-])=O)n(C(=O)[O-])c3c2)CC1 (3D coordinates assigned)
CCCCCCN1CCC(c2ccc3cc(C([NH-])=O)n(C(=O)[O-])c3c2)CC1 (nonaromatic ring conformer: 98.01055867308557 kcal/mol)

>  <smiles>  (68) 
CCCCCCN1CCC(c2ccc3cc(C(N)=O)n(C(=O)O)c3c2)CC1

>  <score_type>  (68) 
oracle

>  <origin>  (68) 
adg

>  <m_score__min__energy>  (68) 
-13.130000000000001

>  <m_primary>  (68) 
energy

$$$$
68:0
     RDKit          3D

 44 46  0  0  0  0  0  0  0  0999 V2000
   -1.2940   20.7580  -33.9190 C   0  0  0  0  0  0  0  0  0  0  0  0
   -1.7410   21.1250  -32.4910 C   0  0  0  0  0  0  0  0  0  0  0  0
   -0.5360   21.5640  -31.6370 C   0  0  0  0  0  0  0  0  0  0  0  0
   -2.3890   19.8920  -31.8420 C   0  0  0  0  0  0  0  0  0  0  0  0
   -2.7390   22.1550  -32.5250 O   0  0  0  0  0  0  0  0  0  0  0  0
   -3.4090   22.7020  -31.4200 C   0  0  0  0  0  0  0  0  0  0  0  0
   -2.7730   23.1350  -30.4230 O   0  0  0  0  0  0  0  0  0  0  0  0
   -4.8420   22.7950  -31.4460 N   0  0  0  0  0  0  0  0  0  0  0  0
   -5.6220   23.8630  -31.1170 C   0  0  0  0  0  0  0  0  0  0  0  0
   -5.1560   25.1290  -30.5140 C   0  0  0  0  0  0  0  0  0  0  0  0
   -3.8820   25.6750  -30.8460 N   0  0  0  0  0  0  0  0  0  0  0  0
   -5.8720   25.7130  -29.6570 O   0  0  0  0  0  0  0  0  0  0  0  0
   -6.9660   23.5730  -31.3480 C   0  0  0  0  0  0  0  0  0  0  0  0
   -6.9860   22.2810  -31.8220 C   0  0  0  0  0  0  0  0  0  0  0  0
   -8.0580   21.4880  -32.2180 C   0  0  0  0  0  0  0  0  0  0  0  0
   -7.7810   20.1940  -32.6900 C   0  0  0  0  0  0  0  0  0  0  0  0
   -6.4450   19.7190  -32.7630 C   0  0  0  0  0  0  0  0  0  0  0  0
   -6.1640   18.3570  -33.2790 C   0  0  0  0  0  0  0  0  0  0  0  0
   -7.0860   17.3180  -33.0590 C   0  0  0  0  0  0  0  0  0  0  0  0
   -6.8390   16.0340  -33.5510 C   0  0  0  0  0  0  0  0  0  0  0  0
   -5.6680   15.7700  -34.2630 C   0  0  0  0  0  0  0  0  0  0  0  0
   -4.7370   16.7900  -34.4840 C   0  0  0  0  0  0  0  0  0  0  0  0
   -3.2630   16.4410  -35.3730 Cl  0  0  0  0  0  0  0  0  0  0  0  0
   -4.9790   18.0800  -33.9930 C   0  0  0  0  0  0  0  0  0  0  0  0
   -4.0470   19.0490  -34.1840 F   0  0  0  0  0  0  0  0  0  0  0  0
   -5.3840   20.5600  -32.3600 C   0  0  0  0  0  0  0  0  0  0  0  0
   -5.6910   21.8350  -31.8710 C   0  0  0  0  0  0  0  0  0  0  0  0
   -0.4447   20.0607  -33.8695 H   0  0  0  0  0  0  0  0  0  0  0  0
   -2.1290   20.2815  -34.4535 H   0  0  0  0  0  0  0  0  0  0  0  0
   -0.9892   21.6698  -34.4535 H   0  0  0  0  0  0  0  0  0  0  0  0
   -0.7893   21.4717  -30.5706 H   0  0  0  0  0  0  0  0  0  0  0  0
    0.3282   20.9230  -31.8654 H   0  0  0  0  0  0  0  0  0  0  0  0
   -0.2866   22.6107  -31.8654 H   0  0  0  0  0  0  0  0  0  0  0  0
   -2.3399   19.9855  -30.7471 H   0  0  0  0  0  0  0  0  0  0  0  0
   -3.4405   19.8218  -32.1572 H   0  0  0  0  0  0  0  0  0  0  0  0
   -1.8505   18.9861  -32.1572 H   0  0  0  0  0  0  0  0  0  0  0  0
   -3.0070   25.2850  -30.4340 H   0  0  0  0  0  0  0  0  0  0  0  0
   -7.8282   24.2365  -31.1857 H   0  0  0  0  0  0  0  0  0  0  0  0
   -9.0908   21.8625  -32.1633 H   0  0  0  0  0  0  0  0  0  0  0  0
   -8.6083   19.5417  -33.0065 H   0  0  0  0  0  0  0  0  0  0  0  0
   -8.0090   17.5180  -32.4950 H   0  0  0  0  0  0  0  0  0  0  0  0
   -7.5688   15.2296  -33.3769 H   0  0  0  0  0  0  0  0  0  0  0  0
   -5.4771   14.7585  -34.6508 H   0  0  0  0  0  0  0  0  0  0  0  0
   -4.3400   20.2205  -32.4289 H   0  0  0  0  0  0  0  0  0  0  0  0
  1  2  1  0
  2  3  1  0
  2  4  1  0
  2  5  1  0
  5  6  1  0
  6  7  2  0
  6  8  1  0
  8  9  1  0
  9 10  1  0
 10 11  1  0
 10 12  2  0
  9 13  2  0
 13 14  1  0
 14 15  2  0
 15 16  1  0
 16 17  2  0
 17 18  1  0
 18 19  2  0
 19 20  1  0
 20 21  2  0
 21 22  1  0
 22 23  1  0
 22 24  2  0
 24 25  1  0
 17 26  1  0
 26 27  2  0
 27  8  1  0
 27 14  1  0
 24 18  1  0
  1 28  1  0
  1 29  1  0
  1 30  1  0
  3 31  1  0
  3 32  1  0
  3 33  1  0
  4 34  1  0
  4 35  1  0
  4 36  1  0
 11 37  1  0
 13 38  1  0
 15 39  1  0
 16 40  1  0
 19 41  1  0
 20 42  1  0
 21 43  1  0
 26 44  1  0
M  CHG  1  11  -1
M  END
>  <UniqueID>  (69) 
69

>  <SMILES>  (69) 
CC(C)(C)OC(=O)n1c(C([NH-])=O)cc2ccc(-c3cccc(Cl)c3F)cc21

>  <Energy>  (69) 
86.48592626392823

>  <Genealogy>  (69) 
CC(C)(C)OC(=O)n1c(C([NH-])=O)cc2ccc(-c3cccc(Cl)c3F)cc21 (protonated)
CC(C)(C)OC(=O)n1c(C([NH-])=O)cc2ccc(-c3cccc(Cl)c3F)cc21 (3D coordinates assigned)
CC(C)(C)OC(=O)n1c(C([NH-])=O)cc2ccc(-c3cccc(Cl)c3F)cc21 (optimized conformer: 86.48592626392823 kcal/mol)

>  <smiles>  (69) 
CC(C)(C)OC(=O)n1c(C(N)=O)cc2ccc(-c3cccc(Cl)c3F)cc21

>  <score_type>  (69) 
oracle

>  <origin>  (69) 
adg

>  <m_score__min__energy>  (69) 
-11.69

>  <m_primary>  (69) 
energy

$$$$
69:0
     RDKit          3D

 37 39  0  0  0  0  0  0  0  0999 V2000
   -2.6340   21.4980  -32.8790 C   0  0  0  0  0  0  0  0  0  0  0  0
   -3.1280   21.4960  -31.4370 C   0  0  0  0  0  0  0  0  0  0  0  0
   -3.8070   22.7950  -31.1180 C   0  0  0  0  0  0  0  0  0  0  0  0
   -3.1090   23.8080  -30.8400 O   0  0  0  0  0  0  0  0  0  0  0  0
   -5.2320   22.9230  -31.2260 N   0  0  0  0  0  0  0  0  0  0  0  0
   -6.0250   23.9230  -30.7500 C   0  0  0  0  0  0  0  0  0  0  0  0
   -5.5580   25.1890  -30.1460 C   0  0  0  0  0  0  0  0  0  0  0  0
   -6.1190   25.6850  -28.9300 N   0  0  0  0  0  0  0  0  0  0  0  0
   -4.6160   25.8230  -30.6910 O   0  0  0  0  0  0  0  0  0  0  0  0
   -7.3700   23.6140  -30.9430 C   0  0  0  0  0  0  0  0  0  0  0  0
   -7.3750   22.3890  -31.5700 C   0  0  0  0  0  0  0  0  0  0  0  0
   -8.4400   21.5970  -31.9830 C   0  0  0  0  0  0  0  0  0  0  0  0
   -8.1500   20.3550  -32.5730 C   0  0  0  0  0  0  0  0  0  0  0  0
   -6.8060   19.9220  -32.7320 C   0  0  0  0  0  0  0  0  0  0  0  0
   -6.5090   18.6020  -33.3460 C   0  0  0  0  0  0  0  0  0  0  0  0
   -7.1440   17.4350  -32.8880 C   0  0  0  0  0  0  0  0  0  0  0  0
   -6.8550   16.2020  -33.4750 C   0  0  0  0  0  0  0  0  0  0  0  0
   -5.9330   16.1410  -34.5190 C   0  0  0  0  0  0  0  0  0  0  0  0
   -5.3250   17.2740  -34.9570 N   0  0  0  0  0  0  0  0  0  0  0  0
   -5.5870   18.4870  -34.4010 C   0  0  0  0  0  0  0  0  0  0  0  0
   -5.7510   20.7580  -32.2950 C   0  0  0  0  0  0  0  0  0  0  0  0
   -6.0720   21.9950  -31.7280 C   0  0  0  0  0  0  0  0  0  0  0  0
   -1.5341   21.5024  -32.8898 H   0  0  0  0  0  0  0  0  0  0  0  0
   -3.0021   20.5984  -33.3939 H   0  0  0  0  0  0  0  0  0  0  0  0
   -3.0094   22.3946  -33.3939 H   0  0  0  0  0  0  0  0  0  0  0  0
   -3.8413   20.6701  -31.2988 H   0  0  0  0  0  0  0  0  0  0  0  0
   -2.2675   21.3671  -30.7640 H   0  0  0  0  0  0  0  0  0  0  0  0
   -5.8140   26.6100  -28.5520 H   0  0  0  0  0  0  0  0  0  0  0  0
   -6.7640   25.1020  -28.3520 H   0  0  0  0  0  0  0  0  0  0  0  0
   -8.2418   24.2200  -30.6555 H   0  0  0  0  0  0  0  0  0  0  0  0
   -9.4793   21.9326  -31.8519 H   0  0  0  0  0  0  0  0  0  0  0  0
   -8.9729   19.7105  -32.9157 H   0  0  0  0  0  0  0  0  0  0  0  0
   -7.8709   17.4934  -32.0645 H   0  0  0  0  0  0  0  0  0  0  0  0
   -7.3500   15.2871  -33.1173 H   0  0  0  0  0  0  0  0  0  0  0  0
   -5.6977   15.1745  -34.9885 H   0  0  0  0  0  0  0  0  0  0  0  0
   -5.0743   19.3838  -34.7791 H   0  0  0  0  0  0  0  0  0  0  0  0
   -4.7026   20.4418  -32.3990 H   0  0  0  0  0  0  0  0  0  0  0  0
  1  2  1  0
  2  3  1  0
  3  4  2  0
  3  5  1  0
  5  6  1  0
  6  7  1  0
  7  8  1  0
  7  9  2  0
  6 10  2  0
 10 11  1  0
 11 12  2  0
 12 13  1  0
 13 14  2  0
 14 15  1  0
 15 16  2  0
 16 17  1  0
 17 18  2  0
 18 19  1  0
 19 20  2  0
 14 21  1  0
 21 22  2  0
 22  5  1  0
 22 11  1  0
 20 15  1  0
  1 23  1  0
  1 24  1  0
  1 25  1  0
  2 26  1  0
  2 27  1  0
  8 28  1  0
  8 29  1  0
 10 30  1  0
 12 31  1  0
 13 32  1  0
 16 33  1  0
 17 34  1  0
 18 35  1  0
 20 36  1  0
 21 37  1  0
M  END
>  <UniqueID>  (70) 
70

>  <SMILES>  (70) 
CCC(=O)n1c(C(N)=O)cc2ccc(-c3cccnc3)cc21

>  <Energy>  (70) 
82.23790094338186

>  <Genealogy>  (70) 
CCC(=O)n1c(C(N)=O)cc2ccc(-c3cccnc3)cc21 (3D coordinates assigned)
CCC(=O)n1c(C(N)=O)cc2ccc(-c3cccnc3)cc21 (optimized conformer: 82.23790094338186 kcal/mol)

>  <smiles>  (70) 
CCC(=O)n1c(C(N)=O)cc2ccc(-c3cccnc3)cc21

>  <score_type>  (70) 
oracle

>  <origin>  (70) 
adg

>  <m_score__min__energy>  (70) 
-9.5800000000000001

>  <m_primary>  (70) 
energy

$$$$
70:0
     RDKit          3D

 33 35  0  0  0  0  0  0  0  0999 V2000
   -3.2110   24.6600  -30.1600 N   0  0  0  0  0  0  0  0  0  0  0  0
   -3.8130   23.4800  -30.6890 C   0  0  0  0  0  0  0  0  0  0  0  0
   -3.0740   22.5190  -31.0250 O   0  0  0  0  0  0  0  0  0  0  0  0
   -5.2480   23.3750  -30.7970 N   0  0  0  0  0  0  0  0  0  0  0  0
   -6.1710   24.3320  -30.4920 C   0  0  0  0  0  0  0  0  0  0  0  0
   -5.8890   25.6340  -29.8640 C   0  0  0  0  0  0  0  0  0  0  0  0
   -6.4940   25.9910  -28.6210 N   0  0  0  0  0  0  0  0  0  0  0  0
   -5.1630   26.4690  -30.4650 O   0  0  0  0  0  0  0  0  0  0  0  0
   -7.4430   23.9490  -30.8990 C   0  0  0  0  0  0  0  0  0  0  0  0
   -7.2840   22.6980  -31.4430 C   0  0  0  0  0  0  0  0  0  0  0  0
   -8.2330   21.8380  -31.9860 C   0  0  0  0  0  0  0  0  0  0  0  0
   -7.7980   20.5900  -32.4600 C   0  0  0  0  0  0  0  0  0  0  0  0
   -6.4300   20.2180  -32.3770 C   0  0  0  0  0  0  0  0  0  0  0  0
   -5.9840   18.8880  -32.8660 C   0  0  0  0  0  0  0  0  0  0  0  0
   -5.7420   18.6750  -34.2360 C   0  0  0  0  0  0  0  0  0  0  0  0
   -5.3230   17.4230  -34.6950 C   0  0  0  0  0  0  0  0  0  0  0  0
   -5.1370   16.3730  -33.7940 C   0  0  0  0  0  0  0  0  0  0  0  0
   -5.3720   16.5710  -32.4310 C   0  0  0  0  0  0  0  0  0  0  0  0
   -5.1870   15.5520  -31.5570 F   0  0  0  0  0  0  0  0  0  0  0  0
   -5.7940   17.8220  -31.9670 C   0  0  0  0  0  0  0  0  0  0  0  0
   -5.4970   21.1230  -31.8170 C   0  0  0  0  0  0  0  0  0  0  0  0
   -5.9550   22.3700  -31.3710 C   0  0  0  0  0  0  0  0  0  0  0  0
   -3.7090   25.2490  -29.4570 H   0  0  0  0  0  0  0  0  0  0  0  0
   -6.2800   26.9100  -28.1770 H   0  0  0  0  0  0  0  0  0  0  0  0
   -7.2010   25.3660  -28.1740 H   0  0  0  0  0  0  0  0  0  0  0  0
   -8.3762   24.5238  -30.8057 H   0  0  0  0  0  0  0  0  0  0  0  0
   -9.2928   22.1271  -32.0424 H   0  0  0  0  0  0  0  0  0  0  0  0
   -8.5253   19.8923  -32.9008 H   0  0  0  0  0  0  0  0  0  0  0  0
   -5.8836   19.4994  -34.9504 H   0  0  0  0  0  0  0  0  0  0  0  0
   -5.1395   17.2648  -35.7680 H   0  0  0  0  0  0  0  0  0  0  0  0
   -4.8052   15.3892  -34.1573 H   0  0  0  0  0  0  0  0  0  0  0  0
   -5.9783   17.9731  -30.8931 H   0  0  0  0  0  0  0  0  0  0  0  0
   -4.4339   20.8530  -31.7336 H   0  0  0  0  0  0  0  0  0  0  0  0
  1  2  1  0
  2  3  2  0
  2  4  1  0
  4  5  1  0
  5  6  1  0
  6  7  1  0
  6  8  2  0
  5  9  2  0
  9 10  1  0
 10 11  2  0
 11 12  1  0
 12 13  2  0
 13 14  1  0
 14 15  2  0
 15 16  1  0
 16 17  2  0
 17 18  1  0
 18 19  1  0
 18 20  2  0
 13 21  1  0
 21 22  2  0
 22  4  1  0
 22 10  1  0
 20 14  1  0
  1 23  1  0
  7 24  1  0
  7 25  1  0
  9 26  1  0
 11 27  1  0
 12 28  1  0
 15 29  1  0
 16 30  1  0
 17 31  1  0
 20 32  1  0
 21 33  1  0
M  CHG  1   1  -1
M  END
>  <UniqueID>  (71) 
71

>  <SMILES>  (71) 
[NH-]C(=O)n1c(C(N)=O)cc2ccc(-c3cccc(F)c3)cc21

>  <Energy>  (71) 
83.6299272070767

>  <Genealogy>  (71) 
[NH-]C(=O)n1c(C(N)=O)cc2ccc(-c3cccc(F)c3)cc21 (protonated)
[NH-]C(=O)n1c(C(N)=O)cc2ccc(-c3cccc(F)c3)cc21 (3D coordinates assigned)
[NH-]C(=O)n1c(C(N)=O)cc2ccc(-c3cccc(F)c3)cc21 (optimized conformer: 83.6299272070767 kcal/mol)

>  <smiles>  (71) 
NC(=O)c1cc2ccc(-c3cccc(F)c3)cc2n1C(N)=O

>  <score_type>  (71) 
oracle

>  <origin>  (71) 
adg

>  <m_score__min__energy>  (71) 
-9.7599999999999998

>  <m_primary>  (71) 
energy

$$$$
71:0
     RDKit          3D

 47 49  0  0  0  0  0  0  0  0999 V2000
   -1.8610   24.4790  -28.9580 C   0  0  0  0  0  0  0  0  0  0  0  0
   -2.5650   23.2410  -29.5460 C   0  0  0  0  0  0  0  0  0  0  0  0
   -1.5210   22.1370  -29.7740 C   0  0  0  0  0  0  0  0  0  0  0  0
   -3.6420   22.7150  -28.5780 C   0  0  0  0  0  0  0  0  0  0  0  0
   -3.1420   23.5470  -30.8230 O   0  0  0  0  0  0  0  0  0  0  0  0
   -3.9620   22.7060  -31.5900 C   0  0  0  0  0  0  0  0  0  0  0  0
   -3.4640   21.8990  -32.4220 O   0  0  0  0  0  0  0  0  0  0  0  0
   -5.3880   22.7800  -31.4370 N   0  0  0  0  0  0  0  0  0  0  0  0
   -6.1130   23.7630  -30.8310 C   0  0  0  0  0  0  0  0  0  0  0  0
   -5.5710   25.0430  -30.3250 C   0  0  0  0  0  0  0  0  0  0  0  0
   -6.1220   25.6600  -29.1600 N   0  0  0  0  0  0  0  0  0  0  0  0
   -4.6330   25.6190  -30.9370 O   0  0  0  0  0  0  0  0  0  0  0  0
   -7.4690   23.4390  -30.8370 C   0  0  0  0  0  0  0  0  0  0  0  0
   -7.5520   22.2210  -31.4700 C   0  0  0  0  0  0  0  0  0  0  0  0
   -8.6620   21.4270  -31.7390 C   0  0  0  0  0  0  0  0  0  0  0  0
   -8.4510   20.1970  -32.3840 C   0  0  0  0  0  0  0  0  0  0  0  0
   -7.1420   19.7800  -32.7500 C   0  0  0  0  0  0  0  0  0  0  0  0
   -6.9000   18.4340  -33.4080 C   0  0  2  0  0  0  0  0  0  0  0  0
   -6.2330   17.4700  -32.4530 C   0  0  0  0  0  0  0  0  0  0  0  0
   -4.9160   17.2420  -32.4950 C   0  0  0  0  0  0  0  0  0  0  0  0
   -4.0680   17.8900  -33.5140 C   0  0  0  0  0  0  0  0  0  0  0  0
   -1.9700   17.7730  -33.3390 I   0  0  0  0  0  0  0  0  0  0  0  0
   -4.6180   18.5780  -34.5190 C   0  0  0  0  0  0  0  0  0  0  0  0
   -6.1080   18.5820  -34.7300 C   0  0  0  0  0  0  0  0  0  0  0  0
   -6.0420   20.6150  -32.4490 C   0  0  0  0  0  0  0  0  0  0  0  0
   -6.2830   21.8440  -31.8230 C   0  0  0  0  0  0  0  0  0  0  0  0
   -1.8891   24.4296  -27.8595 H   0  0  0  0  0  0  0  0  0  0  0  0
   -0.8149   24.5017  -29.2974 H   0  0  0  0  0  0  0  0  0  0  0  0
   -2.3764   25.3896  -29.2974 H   0  0  0  0  0  0  0  0  0  0  0  0
   -1.1661   21.7617  -28.8028 H   0  0  0  0  0  0  0  0  0  0  0  0
   -1.9773   21.3123  -30.3412 H   0  0  0  0  0  0  0  0  0  0  0  0
   -0.6722   22.5465  -30.3412 H   0  0  0  0  0  0  0  0  0  0  0  0
   -3.3128   22.8758  -27.5408 H   0  0  0  0  0  0  0  0  0  0  0  0
   -4.5852   23.2539  -28.7510 H   0  0  0  0  0  0  0  0  0  0  0  0
   -3.7969   21.6398  -28.7510 H   0  0  0  0  0  0  0  0  0  0  0  0
   -5.7580   26.5830  -28.8350 H   0  0  0  0  0  0  0  0  0  0  0  0
   -6.8610   25.1880  -28.5950 H   0  0  0  0  0  0  0  0  0  0  0  0
   -8.2975   24.0323  -30.4229 H   0  0  0  0  0  0  0  0  0  0  0  0
   -9.6738   21.7522  -31.4554 H   0  0  0  0  0  0  0  0  0  0  0  0
   -9.3101   19.5478  -32.6089 H   0  0  0  0  0  0  0  0  0  0  0  0
   -7.8799   18.0079  -33.6690 H   0  0  0  0  0  0  0  0  0  0  0  0
   -6.8456   16.9438  -31.7061 H   0  0  0  0  0  0  0  0  0  0  0  0
   -4.4589   16.5626  -31.7605 H   0  0  0  0  0  0  0  0  0  0  0  0
   -3.9723   19.1496  -35.2019 H   0  0  0  0  0  0  0  0  0  0  0  0
   -6.3932   19.5315  -35.2065 H   0  0  0  0  0  0  0  0  0  0  0  0
   -6.3557   17.7177  -35.3638 H   0  0  0  0  0  0  0  0  0  0  0  0
   -5.0171   20.3055  -32.7015 H   0  0  0  0  0  0  0  0  0  0  0  0
  1  2  1  0
  2  3  1  0
  2  4  1  0
  2  5  1  0
  5  6  1  0
  6  7  2  0
  6  8  1  0
  8  9  1  0
  9 10  1  0
 10 11  1  0
 10 12  2  0
  9 13  2  0
 13 14  1  0
 14 15  2  0
 15 16  1  0
 16 17  2  0
 17 18  1  0
 18 19  1  0
 19 20  2  0
 20 21  1  0
 21 22  1  0
 21 23  2  0
 23 24  1  0
 17 25  1  0
 25 26  2  0
 26  8  1  0
 26 14  1  0
 24 18  1  0
  1 27  1  0
  1 28  1  0
  1 29  1  0
  3 30  1  0
  3 31  1  0
  3 32  1  0
  4 33  1  0
  4 34  1  0
  4 35  1  0
 11 36  1  0
 11 37  1  0
 13 38  1  0
 15 39  1  0
 16 40  1  0
 18 41  1  6
 19 42  1  0
 20 43  1  0
 23 44  1  0
 24 45  1  0
 24 46  1  0
 25 47  1  0
M  END
>  <UniqueID>  (72) 
72

>  <SMILES>  (72) 
CC(C)(C)OC(=O)n1c(C(N)=O)cc2ccc([C@@H]3C=CC(I)=CC3)cc21

>  <Energy>  (72) 
83.32655672127633

>  <Genealogy>  (72) 
CC(C)(C)OC(=O)n1c(C(N)=O)cc2ccc([C@@H]3C=CC(I)=CC3)cc21 (chirality)
CC(C)(C)OC(=O)n1c(C(N)=O)cc2ccc([C@@H]3C=CC(I)=CC3)cc21 (3D coordinates assigned)
CC(C)(C)OC(=O)n1c(C(N)=O)cc2ccc([C@@H]3C=CC(I)=CC3)cc21 (nonaromatic ring conformer: 83.32655672127633 kcal/mol)

>  <smiles>  (72) 
CC(C)(C)OC(=O)n1c(C(N)=O)cc2ccc(C3C=CC(I)=CC3)cc21

>  <score_type>  (72) 
oracle

>  <origin>  (72) 
adg

>  <m_score__min__energy>  (72) 
-10.82

>  <m_primary>  (72) 
energy

$$$$
72:0
     RDKit          3D

 75 80  0  0  0  0  0  0  0  0999 V2000
   -5.7200   25.3730  -30.2680 C   0  0  0  0  0  0  0  0  0  0  0  0
   -5.0830   24.0550  -30.6760 C   0  0  0  0  0  0  0  0  0  0  0  0
   -5.5170   23.7010  -31.9860 O   0  0  0  0  0  0  0  0  0  0  0  0
   -5.2070   22.4710  -32.5730 C   0  0  0  0  0  0  0  0  0  0  0  0
   -4.1420   22.3370  -33.2370 O   0  0  0  0  0  0  0  0  0  0  0  0
   -6.0990   21.3540  -32.4190 N   0  0  0  0  0  0  0  0  0  0  0  0
   -7.3440   21.3630  -31.8680 C   0  0  0  0  0  0  0  0  0  0  0  0
   -7.9610   22.4910  -31.1410 C   0  0  0  0  0  0  0  0  0  0  0  0
   -8.0450   23.7900  -31.7290 N   0  0  0  0  0  0  0  0  0  0  0  0
   -8.3640   22.3200  -29.9600 O   0  0  0  0  0  0  0  0  0  0  0  0
   -7.9640   20.1270  -32.0260 C   0  0  0  0  0  0  0  0  0  0  0  0
   -7.0440   19.3440  -32.6860 C   0  0  0  0  0  0  0  0  0  0  0  0
   -7.1390   18.0210  -33.1050 C   0  0  0  0  0  0  0  0  0  0  0  0
   -6.0440   17.4660  -33.7870 C   0  0  0  0  0  0  0  0  0  0  0  0
   -4.8860   18.2420  -34.0450 C   0  0  0  0  0  0  0  0  0  0  0  0
   -3.6990   17.6140  -34.7300 C   0  0  0  0  0  0  0  0  0  0  0  0
   -2.3850   18.2920  -34.3180 C   0  0  0  0  0  0  0  0  0  0  0  0
   -1.6440   17.5170  -33.2640 C   0  0  0  0  0  0  0  0  0  0  0  0
   -1.8370   16.1850  -33.1590 N   0  0  0  0  0  0  0  0  0  0  0  0
   -0.8950   15.7690  -32.3020 C   0  0  0  0  0  0  0  0  0  0  0  0
   -0.1340   16.8390  -31.9180 C   0  0  0  0  0  0  0  0  0  0  0  0
   -0.6300   17.9790  -32.4650 N   0  0  0  0  0  0  0  0  0  0  0  0
    0.0020   19.3410  -32.3790 C   0  0  0  0  0  0  0  0  0  0  0  0
    1.4060   19.2120  -31.6870 C   0  0  0  0  0  0  0  0  0  0  0  0
    1.5080   19.0810  -30.2790 C   0  0  0  0  0  0  0  0  0  0  0  0
    2.7430   18.9470  -29.6380 C   0  0  0  0  0  0  0  0  0  0  0  0
    3.9210   18.9740  -30.3740 C   0  0  0  0  0  0  0  0  0  0  0  0
    3.8680   19.1640  -31.7500 C   0  0  0  0  0  0  0  0  0  0  0  0
    2.6370   19.2970  -32.3970 C   0  0  0  0  0  0  0  0  0  0  0  0
   -0.9650   20.2810  -31.5900 C   0  0  0  0  0  0  0  0  0  0  0  0
   -0.4960   21.4420  -30.9240 C   0  0  0  0  0  0  0  0  0  0  0  0
   -1.3650   22.2650  -30.2030 C   0  0  0  0  0  0  0  0  0  0  0  0
   -2.7190   21.9470  -30.1060 C   0  0  0  0  0  0  0  0  0  0  0  0
   -3.2050   20.7970  -30.7230 C   0  0  0  0  0  0  0  0  0  0  0  0
   -2.3430   19.9720  -31.4460 C   0  0  0  0  0  0  0  0  0  0  0  0
    0.2300   19.9140  -33.8300 C   0  0  0  0  0  0  0  0  0  0  0  0
   -0.0050   21.2730  -34.1800 C   0  0  0  0  0  0  0  0  0  0  0  0
    0.2540   21.7530  -35.4670 C   0  0  0  0  0  0  0  0  0  0  0  0
    0.7530   20.9050  -36.4500 C   0  0  0  0  0  0  0  0  0  0  0  0
    0.9850   19.5680  -36.1520 C   0  0  0  0  0  0  0  0  0  0  0  0
    0.7290   19.0810  -34.8690 C   0  0  0  0  0  0  0  0  0  0  0  0
   -4.8270   19.5840  -33.6060 C   0  0  0  0  0  0  0  0  0  0  0  0
   -5.9250   20.1060  -32.9120 C   0  0  0  0  0  0  0  0  0  0  0  0
   -5.7525   25.4403  -29.1705 H   0  0  0  0  0  0  0  0  0  0  0  0
   -5.1256   26.2072  -30.6691 H   0  0  0  0  0  0  0  0  0  0  0  0
   -6.7429   25.4255  -30.6691 H   0  0  0  0  0  0  0  0  0  0  0  0
   -3.9880   24.1596  -30.6687 H   0  0  0  0  0  0  0  0  0  0  0  0
   -5.3820   23.2692  -29.9667 H   0  0  0  0  0  0  0  0  0  0  0  0
   -7.5670   24.0070  -32.6310 H   0  0  0  0  0  0  0  0  0  0  0  0
   -8.5220   24.5660  -31.2160 H   0  0  0  0  0  0  0  0  0  0  0  0
   -8.9723   19.8379  -31.6947 H   0  0  0  0  0  0  0  0  0  0  0  0
   -8.0441   17.4277  -32.9082 H   0  0  0  0  0  0  0  0  0  0  0  0
   -6.0852   16.4197  -34.1240 H   0  0  0  0  0  0  0  0  0  0  0  0
   -3.6519   16.5492  -34.4579 H   0  0  0  0  0  0  0  0  0  0  0  0
   -3.8238   17.7368  -35.8160 H   0  0  0  0  0  0  0  0  0  0  0  0
   -1.7420   18.3842  -35.2057 H   0  0  0  0  0  0  0  0  0  0  0  0
   -2.6345   19.2766  -33.8959 H   0  0  0  0  0  0  0  0  0  0  0  0
   -0.7557   14.7324  -31.9614 H   0  0  0  0  0  0  0  0  0  0  0  0
    0.7484   16.7843  -31.2635 H   0  0  0  0  0  0  0  0  0  0  0  0
    0.5894   19.0849  -29.6739 H   0  0  0  0  0  0  0  0  0  0  0  0
    2.7823   18.8196  -28.5461 H   0  0  0  0  0  0  0  0  0  0  0  0
    4.8906   18.8457  -29.8705 H   0  0  0  0  0  0  0  0  0  0  0  0
    4.8001   19.2099  -32.3324 H   0  0  0  0  0  0  0  0  0  0  0  0
    2.6184   19.4719  -33.4828 H   0  0  0  0  0  0  0  0  0  0  0  0
    0.5722   21.6995  -30.9760 H   0  0  0  0  0  0  0  0  0  0  0  0
   -0.9787   23.1688  -29.7092 H   0  0  0  0  0  0  0  0  0  0  0  0
   -3.4010   22.6021  -29.5441 H   0  0  0  0  0  0  0  0  0  0  0  0
   -4.2710   20.5385  -30.6401 H   0  0  0  0  0  0  0  0  0  0  0  0
   -2.7407   19.0603  -31.9157 H   0  0  0  0  0  0  0  0  0  0  0  0
   -0.4000   21.9625  -33.4194 H   0  0  0  0  0  0  0  0  0  0  0  0
    0.0616   22.8098  -35.7042 H   0  0  0  0  0  0  0  0  0  0  0  0
    0.9629   21.2910  -37.4584 H   0  0  0  0  0  0  0  0  0  0  0  0
    1.3713   18.8917  -36.9288 H   0  0  0  0  0  0  0  0  0  0  0  0
    0.9193   18.0190  -34.6548 H   0  0  0  0  0  0  0  0  0  0  0  0
   -3.9399   20.2033  -33.8048 H   0  0  0  0  0  0  0  0  0  0  0  0
  1  2  1  0
  2  3  1  0
  3  4  1  0
  4  5  2  0
  4  6  1  0
  6  7  1  0
  7  8  1  0
  8  9  1  0
  8 10  2  0
  7 11  2  0
 11 12  1  0
 12 13  2  0
 13 14  1  0
 14 15  2  0
 15 16  1  0
 16 17  1  0
 17 18  1  0
 18 19  2  0
 19 20  1  0
 20 21  2  0
 21 22  1  0
 22 23  1  0
 23 24  1  0
 24 25  2  0
 25 26  1  0
 26 27  2  0
 27 28  1  0
 28 29  2  0
 23 30  1  0
 30 31  2  0
 31 32  1  0
 32 33  2  0
 33 34  1  0
 34 35  2  0
 23 36  1  0
 36 37  2  0
 37 38  1  0
 38 39  2  0
 39 40  1  0
 40 41  2  0
 15 42  1  0
 42 43  2  0
 43  6  1  0
 43 12  1  0
 22 18  1  0
 29 24  1  0
 35 30  1  0
 41 36  1  0
  1 44  1  0
  1 45  1  0
  1 46  1  0
  2 47  1  0
  2 48  1  0
  9 49  1  0
  9 50  1  0
 11 51  1  0
 13 52  1  0
 14 53  1  0
 16 54  1  0
 16 55  1  0
 17 56  1  0
 17 57  1  0
 20 58  1  0
 21 59  1  0
 25 60  1  0
 26 61  1  0
 27 62  1  0
 28 63  1  0
 29 64  1  0
 31 65  1  0
 32 66  1  0
 33 67  1  0
 34 68  1  0
 35 69  1  0
 37 70  1  0
 38 71  1  0
 39 72  1  0
 40 73  1  0
 41 74  1  0
 42 75  1  0
M  END
>  <UniqueID>  (73) 
73

>  <SMILES>  (73) 
CCOC(=O)n1c(C(N)=O)cc2ccc(CCc3nccn3C(c3ccccc3)(c3ccccc3)c3ccccc3)cc21

>  <Energy>  (73) 
174.44377944449826

>  <Genealogy>  (73) 
CCOC(=O)n1c(C(N)=O)cc2ccc(CCc3nccn3C(c3ccccc3)(c3ccccc3)c3ccccc3)cc21 (3D coordinates assigned)
CCOC(=O)n1c(C(N)=O)cc2ccc(CCc3nccn3C(c3ccccc3)(c3ccccc3)c3ccccc3)cc21 (optimized conformer: 174.44377944449826 kcal/mol)

>  <smiles>  (73) 
CCOC(=O)n1c(C(N)=O)cc2ccc(CCc3nccn3C(c3ccccc3)(c3ccccc3)c3ccccc3)cc21

>  <score_type>  (73) 
oracle

>  <origin>  (73) 
adg

>  <m_score__min__energy>  (73) 
-9.1400000000000006

>  <m_primary>  (73) 
energy

$$$$
73:0
     RDKit          3D

 34 35  0  0  0  0  0  0  0  0999 V2000
   -9.1310   18.9680  -32.3490 C   0  0  0  0  0  0  0  0  0  0  0  0
   -8.2810   20.2180  -32.0800 C   0  0  0  0  0  0  0  0  0  0  0  0
   -9.1690   21.4630  -31.9560 C   0  0  0  0  0  0  0  0  0  0  0  0
   -7.1580   20.3990  -33.1280 C   0  0  0  0  0  0  0  0  0  0  0  0
   -5.8060   20.7050  -32.5280 C   0  0  0  0  0  0  0  0  0  0  0  0
   -4.7430   19.7750  -32.6530 C   0  0  0  0  0  0  0  0  0  0  0  0
   -3.4810   20.0500  -32.1040 C   0  0  0  0  0  0  0  0  0  0  0  0
   -3.3080   21.2620  -31.4410 C   0  0  0  0  0  0  0  0  0  0  0  0
   -2.2010   21.7720  -30.8020 C   0  0  0  0  0  0  0  0  0  0  0  0
   -2.5970   23.0160  -30.3130 C   0  0  0  0  0  0  0  0  0  0  0  0
   -1.6780   23.9520  -29.6330 C   0  0  0  0  0  0  0  0  0  0  0  0
   -2.1070   25.2810  -29.3420 N   0  0  0  0  0  0  0  0  0  0  0  0
   -0.5300   23.5820  -29.2740 O   0  0  0  0  0  0  0  0  0  0  0  0
   -3.9010   23.2600  -30.6270 N   0  0  0  0  0  0  0  0  0  0  0  0
   -4.7020   24.3910  -30.2510 C   0  0  0  0  0  0  0  0  0  0  0  0
   -4.4520   25.6720  -30.8250 N   0  0  0  0  0  0  0  0  0  0  0  0
   -5.6120   24.2650  -29.3880 O   0  0  0  0  0  0  0  0  0  0  0  0
   -4.3210   22.1780  -31.3210 C   0  0  0  0  0  0  0  0  0  0  0  0
   -5.5930   21.9220  -31.8420 C   0  0  0  0  0  0  0  0  0  0  0  0
   -9.4362   18.5192  -31.3922 H   0  0  0  0  0  0  0  0  0  0  0  0
  -10.0256   19.2496  -32.9238 H   0  0  0  0  0  0  0  0  0  0  0  0
   -8.5402   18.2396  -32.9238 H   0  0  0  0  0  0  0  0  0  0  0  0
   -7.7730   20.0750  -31.1149 H   0  0  0  0  0  0  0  0  0  0  0  0
   -9.3325   21.6923  -30.8927 H   0  0  0  0  0  0  0  0  0  0  0  0
   -8.6743   22.3162  -32.4432 H   0  0  0  0  0  0  0  0  0  0  0  0
  -10.1368   21.2731  -32.4432 H   0  0  0  0  0  0  0  0  0  0  0  0
   -7.0759   19.4704  -33.7119 H   0  0  0  0  0  0  0  0  0  0  0  0
   -7.4358   21.2639  -33.7482 H   0  0  0  0  0  0  0  0  0  0  0  0
   -4.9093   18.8274  -33.1862 H   0  0  0  0  0  0  0  0  0  0  0  0
   -2.6541   19.3302  -32.1947 H   0  0  0  0  0  0  0  0  0  0  0  0
   -1.2134   21.2986  -30.6990 H   0  0  0  0  0  0  0  0  0  0  0  0
   -3.1230   25.5250  -29.3300 H   0  0  0  0  0  0  0  0  0  0  0  0
   -3.4810   26.0520  -30.8870 H   0  0  0  0  0  0  0  0  0  0  0  0
   -6.4083   22.6504  -31.7208 H   0  0  0  0  0  0  0  0  0  0  0  0
  1  2  1  0
  2  3  1  0
  2  4  1  0
  4  5  1  0
  5  6  2  0
  6  7  1  0
  7  8  2  0
  8  9  1  0
  9 10  2  0
 10 11  1  0
 11 12  1  0
 11 13  2  0
 10 14  1  0
 14 15  1  0
 15 16  1  0
 15 17  2  0
 14 18  1  0
 18 19  2  0
 19  5  1  0
 18  8  1  0
  1 20  1  0
  1 21  1  0
  1 22  1  0
  2 23  1  0
  3 24  1  0
  3 25  1  0
  3 26  1  0
  4 27  1  0
  4 28  1  0
  6 29  1  0
  7 30  1  0
  9 31  1  0
 12 32  1  0
 16 33  1  0
 19 34  1  0
M  CHG  2  12  -1  16  -1
M  END
>  <UniqueID>  (74) 
74

>  <SMILES>  (74) 
CC(C)Cc1ccc2cc(C([NH-])=O)n(C([NH-])=O)c2c1

>  <Energy>  (74) 
67.56946627075823

>  <Genealogy>  (74) 
CC(C)Cc1ccc2cc(C([NH-])=O)n(C([NH-])=O)c2c1 (protonated)
CC(C)Cc1ccc2cc(C([NH-])=O)n(C([NH-])=O)c2c1 (3D coordinates assigned)
CC(C)Cc1ccc2cc(C([NH-])=O)n(C([NH-])=O)c2c1 (optimized conformer: 67.56946627075823 kcal/mol)

>  <smiles>  (74) 
CC(C)Cc1ccc2cc(C(N)=O)n(C(N)=O)c2c1

>  <score_type>  (74) 
oracle

>  <origin>  (74) 
adg

>  <m_score__min__energy>  (74) 
-10.69

>  <m_primary>  (74) 
energy

$$$$
74:0
     RDKit          3D

 32 33  0  0  0  0  0  0  0  0999 V2000
   -5.3600   16.9960  -32.3580 C   0  0  0  0  0  0  0  0  0  0  0  0
   -6.4930   16.9940  -33.7860 S   0  0  0  0  0  0  0  0  0  0  0  0
   -5.7040   18.3920  -34.6680 C   0  0  0  0  0  0  0  0  0  0  0  0
   -4.8140   19.2140  -33.7310 C   0  0  0  0  0  0  0  0  0  0  0  0
   -5.5950   20.2820  -33.0120 C   0  0  0  0  0  0  0  0  0  0  0  0
   -7.0110   20.2370  -32.9870 C   0  0  0  0  0  0  0  0  0  0  0  0
   -7.7470   21.2430  -32.3410 C   0  0  0  0  0  0  0  0  0  0  0  0
   -7.0440   22.2850  -31.7430 C   0  0  0  0  0  0  0  0  0  0  0  0
   -7.5050   23.3670  -31.0300 C   0  0  0  0  0  0  0  0  0  0  0  0
   -6.3660   24.0760  -30.6610 C   0  0  0  0  0  0  0  0  0  0  0  0
   -6.4110   25.3560  -29.9260 C   0  0  0  0  0  0  0  0  0  0  0  0
   -5.5610   26.4460  -30.2850 N   0  0  0  0  0  0  0  0  0  0  0  0
   -7.2540   25.5100  -29.0020 O   0  0  0  0  0  0  0  0  0  0  0  0
   -5.2410   23.4530  -31.1130 N   0  0  0  0  0  0  0  0  0  0  0  0
   -3.8750   23.8110  -30.8430 C   0  0  0  0  0  0  0  0  0  0  0  0
   -3.0080   22.9170  -30.6560 O   0  0  0  0  0  0  0  0  0  0  0  0
   -3.4950   25.1460  -30.7880 O   0  0  0  0  0  0  0  0  0  0  0  0
   -5.6740   22.3560  -31.7760 C   0  0  0  0  0  0  0  0  0  0  0  0
   -4.9150   21.3540  -32.3930 C   0  0  0  0  0  0  0  0  0  0  0  0
   -5.9445   16.9950  -31.4262 H   0  0  0  0  0  0  0  0  0  0  0  0
   -4.7243   16.0990  -32.3931 H   0  0  0  0  0  0  0  0  0  0  0  0
   -4.7275   17.8953  -32.3931 H   0  0  0  0  0  0  0  0  0  0  0  0
   -5.0889   17.9955  -35.4892 H   0  0  0  0  0  0  0  0  0  0  0  0
   -6.4972   19.0482  -35.0557 H   0  0  0  0  0  0  0  0  0  0  0  0
   -4.3629   18.5409  -32.9870 H   0  0  0  0  0  0  0  0  0  0  0  0
   -4.0407   19.7066  -34.3388 H   0  0  0  0  0  0  0  0  0  0  0  0
   -7.5385   19.4061  -33.4783 H   0  0  0  0  0  0  0  0  0  0  0  0
   -8.8460   21.2088  -32.3084 H   0  0  0  0  0  0  0  0  0  0  0  0
   -8.5510   23.6183  -30.8004 H   0  0  0  0  0  0  0  0  0  0  0  0
   -4.9750   26.4100  -31.1490 H   0  0  0  0  0  0  0  0  0  0  0  0
   -5.5790   27.3290  -29.7300 H   0  0  0  0  0  0  0  0  0  0  0  0
   -3.8160   21.4006  -32.3955 H   0  0  0  0  0  0  0  0  0  0  0  0
  1  2  1  0
  2  3  1  0
  3  4  1  0
  4  5  1  0
  5  6  2  0
  6  7  1  0
  7  8  2  0
  8  9  1  0
  9 10  2  0
 10 11  1  0
 11 12  1  0
 11 13  2  0
 10 14  1  0
 14 15  1  0
 15 16  2  0
 15 17  1  0
 14 18  1  0
 18 19  2  0
 19  5  1  0
 18  8  1  0
  1 20  1  0
  1 21  1  0
  1 22  1  0
  3 23  1  0
  3 24  1  0
  4 25  1  0
  4 26  1  0
  6 27  1  0
  7 28  1  0
  9 29  1  0
 12 30  1  0
 12 31  1  0
 19 32  1  0
M  CHG  1  17  -1
M  END
>  <UniqueID>  (75) 
75

>  <SMILES>  (75) 
CSCCc1ccc2cc(C(N)=O)n(C(=O)[O-])c2c1

>  <Energy>  (75) 
66.64581643786921

>  <Genealogy>  (75) 
CSCCc1ccc2cc(C(N)=O)n(C(=O)[O-])c2c1 (protonated)
CSCCc1ccc2cc(C(N)=O)n(C(=O)[O-])c2c1 (3D coordinates assigned)
CSCCc1ccc2cc(C(N)=O)n(C(=O)[O-])c2c1 (optimized conformer: 66.64581643786921 kcal/mol)

>  <smiles>  (75) 
CSCCc1ccc2cc(C(N)=O)n(C(=O)O)c2c1

>  <score_type>  (75) 
oracle

>  <origin>  (75) 
adg

>  <m_score__min__energy>  (75) 
-8.7200000000000006

>  <m_primary>  (75) 
energy

$$$$
75:0
     RDKit          3D

 65 67  0  0  0  0  0  0  0  0999 V2000
   -8.0050   22.0360  -30.3780 C   0  0  0  0  0  0  0  0  0  0  0  0
   -7.9240   22.5360  -31.8330 C   0  0  0  0  0  0  0  0  0  0  0  0
   -6.9570   23.7290  -31.9470 C   0  0  0  0  0  0  0  0  0  0  0  0
   -9.3240   22.9880  -32.2820 C   0  0  0  0  0  0  0  0  0  0  0  0
   -7.5210   21.4760  -32.7120 O   0  0  0  0  0  0  0  0  0  0  0  0
   -6.2680   20.8420  -32.7300 C   0  0  0  0  0  0  0  0  0  0  0  0
   -5.2090   21.4970  -32.5330 O   0  0  0  0  0  0  0  0  0  0  0  0
   -6.1940   19.4330  -32.9980 N   0  0  0  0  0  0  0  0  0  0  0  0
   -7.1560   18.4910  -32.7810 C   0  0  0  0  0  0  0  0  0  0  0  0
   -8.5500   18.7670  -32.3660 C   0  0  0  0  0  0  0  0  0  0  0  0
   -9.3380   19.7400  -33.0530 N   0  0  0  0  0  0  0  0  0  0  0  0
   -9.0460   18.1640  -31.3770 O   0  0  0  0  0  0  0  0  0  0  0  0
   -6.6730   17.2210  -33.0960 C   0  0  0  0  0  0  0  0  0  0  0  0
   -5.3790   17.4170  -33.5180 C   0  0  0  0  0  0  0  0  0  0  0  0
   -4.4290   16.4960  -33.9420 C   0  0  0  0  0  0  0  0  0  0  0  0
   -3.1580   16.9740  -34.3010 C   0  0  0  0  0  0  0  0  0  0  0  0
   -2.8530   18.3610  -34.2200 C   0  0  0  0  0  0  0  0  0  0  0  0
   -1.5590   18.8800  -34.5860 N   0  0  0  0  0  0  0  0  0  0  0  0
   -0.2870   18.1970  -34.3440 C   0  0  0  0  0  0  0  0  0  0  0  0
    0.8330   19.2100  -34.0750 C   0  0  0  0  0  0  0  0  0  0  0  0
    0.2940   20.4830  -33.7150 O   0  0  0  0  0  0  0  0  0  0  0  0
   -0.4910   20.7450  -32.5810 C   0  0  0  0  0  0  0  0  0  0  0  0
   -1.6080   21.5760  -32.7280 C   0  0  0  0  0  0  0  0  0  0  0  0
   -2.4200   21.8810  -31.6330 C   0  0  0  0  0  0  0  0  0  0  0  0
   -2.1190   21.3620  -30.3640 C   0  0  0  0  0  0  0  0  0  0  0  0
   -3.0010   21.6740  -29.1840 C   0  0  0  0  0  0  0  0  0  0  0  0
   -4.2040   22.5240  -29.6180 C   0  0  0  0  0  0  0  0  0  0  0  0
   -4.2240   23.8950  -28.9310 C   0  0  0  0  0  0  0  0  0  0  0  0
   -3.4690   24.9200  -29.7190 C   0  0  0  0  0  0  0  0  0  0  0  0
   -2.3280   25.2980  -29.3410 O   0  0  0  0  0  0  0  0  0  0  0  0
   -4.0060   25.4260  -30.8950 O   0  0  0  0  0  0  0  0  0  0  0  0
   -1.0160   20.5090  -30.2160 C   0  0  0  0  0  0  0  0  0  0  0  0
   -0.2060   20.2020  -31.3130 C   0  0  0  0  0  0  0  0  0  0  0  0
   -3.8500   19.2630  -33.7820 C   0  0  0  0  0  0  0  0  0  0  0  0
   -5.1130   18.7590  -33.4500 C   0  0  0  0  0  0  0  0  0  0  0  0
   -7.8676   22.8838  -29.6908 H   0  0  0  0  0  0  0  0  0  0  0  0
   -8.9892   21.5772  -30.2022 H   0  0  0  0  0  0  0  0  0  0  0  0
   -7.2160   21.2900  -30.2022 H   0  0  0  0  0  0  0  0  0  0  0  0
   -6.6784   24.0727  -30.9399 H   0  0  0  0  0  0  0  0  0  0  0  0
   -6.0532   23.4177  -32.4913 H   0  0  0  0  0  0  0  0  0  0  0  0
   -7.4486   24.5488  -32.4913 H   0  0  0  0  0  0  0  0  0  0  0  0
   -9.9458   23.1888  -31.3971 H   0  0  0  0  0  0  0  0  0  0  0  0
   -9.2377   23.9039  -32.8850 H   0  0  0  0  0  0  0  0  0  0  0  0
   -9.7896   22.1945  -32.8850 H   0  0  0  0  0  0  0  0  0  0  0  0
  -10.3110   19.9430  -32.7370 H   0  0  0  0  0  0  0  0  0  0  0  0
   -8.9820   20.2210  -33.9090 H   0  0  0  0  0  0  0  0  0  0  0  0
   -7.2127   16.2653  -33.0225 H   0  0  0  0  0  0  0  0  0  0  0  0
   -4.6656   15.4230  -33.9950 H   0  0  0  0  0  0  0  0  0  0  0  0
   -2.3897   16.2677  -34.6487 H   0  0  0  0  0  0  0  0  0  0  0  0
   -1.5150   19.8000  -35.0790 H   0  0  0  0  0  0  0  0  0  0  0  0
   -0.3929   17.5363  -33.4710 H   0  0  0  0  0  0  0  0  0  0  0  0
   -0.0256   17.6117  -35.2379 H   0  0  0  0  0  0  0  0  0  0  0  0
    1.4631   18.8402  -33.2527 H   0  0  0  0  0  0  0  0  0  0  0  0
    1.4282   19.3274  -34.9926 H   0  0  0  0  0  0  0  0  0  0  0  0
   -1.8490   21.9934  -33.7168 H   0  0  0  0  0  0  0  0  0  0  0  0
   -3.2982   22.5300  -31.7656 H   0  0  0  0  0  0  0  0  0  0  0  0
   -3.3631   20.7329  -28.7445 H   0  0  0  0  0  0  0  0  0  0  0  0
   -2.4160   22.2394  -28.4437 H   0  0  0  0  0  0  0  0  0  0  0  0
   -4.1571   22.6742  -30.7067 H   0  0  0  0  0  0  0  0  0  0  0  0
   -5.1189   21.9873  -29.3264 H   0  0  0  0  0  0  0  0  0  0  0  0
   -5.2679   24.2251  -28.8243 H   0  0  0  0  0  0  0  0  0  0  0  0
   -3.7405   23.7933  -27.9482 H   0  0  0  0  0  0  0  0  0  0  0  0
   -0.7866   20.0786  -29.2300 H   0  0  0  0  0  0  0  0  0  0  0  0
    0.6580   19.5332  -31.1854 H   0  0  0  0  0  0  0  0  0  0  0  0
   -3.6373   20.3394  -33.7037 H   0  0  0  0  0  0  0  0  0  0  0  0
  1  2  1  0
  2  3  1  0
  2  4  1  0
  2  5  1  0
  5  6  1  0
  6  7  2  0
  6  8  1  0
  8  9  1  0
  9 10  1  0
 10 11  1  0
 10 12  2  0
  9 13  2  0
 13 14  1  0
 14 15  2  0
 15 16  1  0
 16 17  2  0
 17 18  1  0
 18 19  1  0
 19 20  1  0
 20 21  1  0
 21 22  1  0
 22 23  2  0
 23 24  1  0
 24 25  2  0
 25 26  1  0
 26 27  1  0
 27 28  1  0
 28 29  1  0
 29 30  2  0
 29 31  1  0
 25 32  1  0
 32 33  2  0
 17 34  1  0
 34 35  2  0
 35  8  1  0
 35 14  1  0
 33 22  1  0
  1 36  1  0
  1 37  1  0
  1 38  1  0
  3 39  1  0
  3 40  1  0
  3 41  1  0
  4 42  1  0
  4 43  1  0
  4 44  1  0
 11 45  1  0
 11 46  1  0
 13 47  1  0
 15 48  1  0
 16 49  1  0
 18 50  1  0
 19 51  1  0
 19 52  1  0
 20 53  1  0
 20 54  1  0
 23 55  1  0
 24 56  1  0
 26 57  1  0
 26 58  1  0
 27 59  1  0
 27 60  1  0
 28 61  1  0
 28 62  1  0
 32 63  1  0
 33 64  1  0
 34 65  1  0
M  CHG  1  31  -1
M  END
>  <UniqueID>  (76) 
76

>  <SMILES>  (76) 
CC(C)(C)OC(=O)n1c(C(N)=O)cc2ccc(NCCOc3ccc(CCCC(=O)[O-])cc3)cc21

>  <Energy>  (76) 
93.37613661441821

>  <Genealogy>  (76) 
CC(C)(C)OC(=O)n1c(C(N)=O)cc2ccc(NCCOc3ccc(CCCC(=O)[O-])cc3)cc21 (protonated)
CC(C)(C)OC(=O)n1c(C(N)=O)cc2ccc(NCCOc3ccc(CCCC(=O)[O-])cc3)cc21 (3D coordinates assigned)
CC(C)(C)OC(=O)n1c(C(N)=O)cc2ccc(NCCOc3ccc(CCCC(=O)[O-])cc3)cc21 (optimized conformer: 93.37613661441821 kcal/mol)

>  <smiles>  (76) 
CC(C)(C)OC(=O)n1c(C(N)=O)cc2ccc(NCCOc3ccc(CCCC(=O)O)cc3)cc21

>  <score_type>  (76) 
oracle

>  <origin>  (76) 
adg

>  <m_score__min__energy>  (76) 
-11.640000000000001

>  <m_primary>  (76) 
energy

$$$$
76:0
     RDKit          3D

 27 28  0  0  0  0  0  0  0  0999 V2000
   -6.5980   20.5270  -32.7630 C   0  0  0  0  0  0  0  0  0  0  0  0
   -5.2860   20.1570  -33.4450 C   0  0  0  0  0  0  0  0  0  0  0  0
   -4.1110   20.6460  -32.6420 C   0  0  0  0  0  0  0  0  0  0  0  0
   -2.9100   19.8970  -32.6120 C   0  0  0  0  0  0  0  0  0  0  0  0
   -1.8000   20.3530  -31.8820 C   0  0  0  0  0  0  0  0  0  0  0  0
   -1.9160   21.5660  -31.2080 C   0  0  0  0  0  0  0  0  0  0  0  0
   -1.0070   22.2270  -30.4140 C   0  0  0  0  0  0  0  0  0  0  0  0
   -1.6560   23.3880  -30.0000 C   0  0  0  0  0  0  0  0  0  0  0  0
   -1.0000   24.4390  -29.1930 C   0  0  0  0  0  0  0  0  0  0  0  0
   -1.6320   25.6970  -28.9760 N   0  0  0  0  0  0  0  0  0  0  0  0
    0.1560   24.2400  -28.7320 O   0  0  0  0  0  0  0  0  0  0  0  0
   -2.9190   23.4410  -30.5110 N   0  0  0  0  0  0  0  0  0  0  0  0
   -3.9340   24.4220  -30.2440 C   0  0  0  0  0  0  0  0  0  0  0  0
   -4.8720   24.1670  -29.4440 O   0  0  0  0  0  0  0  0  0  0  0  0
   -3.8740   25.6730  -30.8460 O   0  0  0  0  0  0  0  0  0  0  0  0
   -3.0610   22.3180  -31.2510 C   0  0  0  0  0  0  0  0  0  0  0  0
   -4.1890   21.8790  -31.9550 C   0  0  0  0  0  0  0  0  0  0  0  0
   -6.4670   20.4901  -31.6715 H   0  0  0  0  0  0  0  0  0  0  0  0
   -6.8931   21.5434  -33.0627 H   0  0  0  0  0  0  0  0  0  0  0  0
   -7.3807   19.8146  -33.0627 H   0  0  0  0  0  0  0  0  0  0  0  0
   -5.2261   19.0630  -33.5426 H   0  0  0  0  0  0  0  0  0  0  0  0
   -5.2577   20.6316  -34.4370 H   0  0  0  0  0  0  0  0  0  0  0  0
   -2.8455   18.9487  -33.1657 H   0  0  0  0  0  0  0  0  0  0  0  0
   -0.8680   19.7700  -31.8439 H   0  0  0  0  0  0  0  0  0  0  0  0
    0.0143   21.9069  -30.1603 H   0  0  0  0  0  0  0  0  0  0  0  0
   -2.6690   25.7990  -29.0590 H   0  0  0  0  0  0  0  0  0  0  0  0
   -5.1115   22.4778  -31.9730 H   0  0  0  0  0  0  0  0  0  0  0  0
  1  2  1  0
  2  3  1  0
  3  4  2  0
  4  5  1  0
  5  6  2  0
  6  7  1  0
  7  8  2  0
  8  9  1  0
  9 10  1  0
  9 11  2  0
  8 12  1  0
 12 13  1  0
 13 14  2  0
 13 15  1  0
 12 16  1  0
 16 17  2  0
 17  3  1  0
 16  6  1  0
  1 18  1  0
  1 19  1  0
  1 20  1  0
  2 21  1  0
  2 22  1  0
  4 23  1  0
  5 24  1  0
  7 25  1  0
 10 26  1  0
 17 27  1  0
M  CHG  2  10  -1  15  -1
M  END
>  <UniqueID>  (77) 
77

>  <SMILES>  (77) 
CCc1ccc2cc(C([NH-])=O)n(C(=O)[O-])c2c1

>  <Energy>  (77) 
63.98979709113915

>  <Genealogy>  (77) 
CCc1ccc2cc(C([NH-])=O)n(C(=O)[O-])c2c1 (protonated)
CCc1ccc2cc(C([NH-])=O)n(C(=O)[O-])c2c1 (3D coordinates assigned)
CCc1ccc2cc(C([NH-])=O)n(C(=O)[O-])c2c1 (optimized conformer: 63.98979709113915 kcal/mol)

>  <smiles>  (77) 
CCc1ccc2cc(C(N)=O)n(C(=O)O)c2c1

>  <score_type>  (77) 
oracle

>  <origin>  (77) 
adg

>  <m_score__min__energy>  (77) 
-10.07

>  <m_primary>  (77) 
energy

$$$$
77:0
     RDKit          3D

 40 41  0  0  0  0  0  0  0  0999 V2000
   -6.7370   17.7120  -32.0020 C   0  0  0  0  0  0  0  0  0  0  0  0
   -7.1810   18.6980  -33.0770 C   0  0  0  0  0  0  0  0  0  0  0  0
   -7.2690   20.0920  -32.5170 C   0  0  0  0  0  0  0  0  0  0  0  0
   -8.5290   20.6390  -32.1680 C   0  0  0  0  0  0  0  0  0  0  0  0
   -8.6190   21.9230  -31.6050 C   0  0  0  0  0  0  0  0  0  0  0  0
   -7.4380   22.6310  -31.4010 C   0  0  0  0  0  0  0  0  0  0  0  0
   -7.2350   23.8760  -30.8500 C   0  0  0  0  0  0  0  0  0  0  0  0
   -5.8560   24.0740  -30.8780 C   0  0  0  0  0  0  0  0  0  0  0  0
   -5.2050   25.3310  -30.4530 C   0  0  0  0  0  0  0  0  0  0  0  0
   -3.8640   25.6050  -30.8510 N   0  0  0  0  0  0  0  0  0  0  0  0
   -5.8070   26.1510  -29.7100 O   0  0  0  0  0  0  0  0  0  0  0  0
   -5.2300   22.9910  -31.4200 N   0  0  0  0  0  0  0  0  0  0  0  0
   -3.8200   22.7690  -31.5770 C   0  0  0  0  0  0  0  0  0  0  0  0
   -3.0220   23.1670  -30.6850 O   0  0  0  0  0  0  0  0  0  0  0  0
   -3.3530   22.0860  -32.7100 O   0  0  0  0  0  0  0  0  0  0  0  0
   -2.5320   20.9110  -32.7180 C   0  0  0  0  0  0  0  0  0  0  0  0
   -3.2950   19.8310  -33.5010 C   0  0  0  0  0  0  0  0  0  0  0  0
   -1.1920   21.1880  -33.4260 C   0  0  0  0  0  0  0  0  0  0  0  0
   -2.2940   20.4080  -31.2810 C   0  0  0  0  0  0  0  0  0  0  0  0
   -6.2120   22.1190  -31.7380 C   0  0  0  0  0  0  0  0  0  0  0  0
   -6.0900   20.8350  -32.2850 C   0  0  0  0  0  0  0  0  0  0  0  0
   -6.9304   18.1416  -31.0080 H   0  0  0  0  0  0  0  0  0  0  0  0
   -7.2991   16.7728  -32.1112 H   0  0  0  0  0  0  0  0  0  0  0  0
   -5.6612   17.5103  -32.1112 H   0  0  0  0  0  0  0  0  0  0  0  0
   -6.4528   18.6854  -33.9014 H   0  0  0  0  0  0  0  0  0  0  0  0
   -8.1752   18.3999  -33.4412 H   0  0  0  0  0  0  0  0  0  0  0  0
   -9.4442   20.0533  -32.3394 H   0  0  0  0  0  0  0  0  0  0  0  0
   -9.5932   22.3557  -31.3336 H   0  0  0  0  0  0  0  0  0  0  0  0
   -7.9998   24.5683  -30.4682 H   0  0  0  0  0  0  0  0  0  0  0  0
   -3.0560   25.2900  -30.2690 H   0  0  0  0  0  0  0  0  0  0  0  0
   -3.7819   19.1417  -32.7954 H   0  0  0  0  0  0  0  0  0  0  0  0
   -4.0581   20.3073  -34.1340 H   0  0  0  0  0  0  0  0  0  0  0  0
   -2.5911   19.2709  -34.1340 H   0  0  0  0  0  0  0  0  0  0  0  0
   -0.4064   21.3504  -32.6734 H   0  0  0  0  0  0  0  0  0  0  0  0
   -0.9246   20.3261  -34.0550 H   0  0  0  0  0  0  0  0  0  0  0  0
   -1.2883   22.0852  -34.0550 H   0  0  0  0  0  0  0  0  0  0  0  0
   -2.6510   21.1625  -30.5646 H   0  0  0  0  0  0  0  0  0  0  0  0
   -2.8424   19.4671  -31.1263 H   0  0  0  0  0  0  0  0  0  0  0  0
   -1.2187   20.2354  -31.1263 H   0  0  0  0  0  0  0  0  0  0  0  0
   -5.1021   20.4163  -32.5275 H   0  0  0  0  0  0  0  0  0  0  0  0
  1  2  1  0
  2  3  1  0
  3  4  2  0
  4  5  1  0
  5  6  2  0
  6  7  1  0
  7  8  2  0
  8  9  1  0
  9 10  1  0
  9 11  2  0
  8 12  1  0
 12 13  1  0
 13 14  2  0
 13 15  1  0
 15 16  1  0
 16 17  1  0
 16 18  1  0
 16 19  1  0
 12 20  1  0
 20 21  2  0
 21  3  1  0
 20  6  1  0
  1 22  1  0
  1 23  1  0
  1 24  1  0
  2 25  1  0
  2 26  1  0
  4 27  1  0
  5 28  1  0
  7 29  1  0
 10 30  1  0
 17 31  1  0
 17 32  1  0
 17 33  1  0
 18 34  1  0
 18 35  1  0
 18 36  1  0
 19 37  1  0
 19 38  1  0
 19 39  1  0
 21 40  1  0
M  CHG  1  10  -1
M  END
>  <UniqueID>  (78) 
78

>  <SMILES>  (78) 
CCc1ccc2cc(C([NH-])=O)n(C(=O)OC(C)(C)C)c2c1

>  <Energy>  (78) 
70.12283358502702

>  <Genealogy>  (78) 
CCc1ccc2cc(C([NH-])=O)n(C(=O)OC(C)(C)C)c2c1 (protonated)
CCc1ccc2cc(C([NH-])=O)n(C(=O)OC(C)(C)C)c2c1 (3D coordinates assigned)
CCc1ccc2cc(C([NH-])=O)n(C(=O)OC(C)(C)C)c2c1 (optimized conformer: 70.12283358502702 kcal/mol)

>  <smiles>  (78) 
CCc1ccc2cc(C(N)=O)n(C(=O)OC(C)(C)C)c2c1

>  <score_type>  (78) 
oracle

>  <origin>  (78) 
adg

>  <m_score__min__energy>  (78) 
-10.33

>  <m_primary>  (78) 
energy

$$$$
78:0
     RDKit          3D

 36 38  0  0  0  0  0  0  0  0999 V2000
   -4.6010   13.3820  -32.6180 C   0  0  0  0  0  0  0  0  0  0  0  0
   -5.3780   14.2030  -33.4810 O   0  0  0  0  0  0  0  0  0  0  0  0
   -5.6790   15.5360  -33.1880 C   0  0  0  0  0  0  0  0  0  0  0  0
   -6.1620   16.3690  -34.1990 C   0  0  0  0  0  0  0  0  0  0  0  0
   -6.4620   17.7010  -33.9080 C   0  0  0  0  0  0  0  0  0  0  0  0
   -6.2780   18.2000  -32.6080 C   0  0  0  0  0  0  0  0  0  0  0  0
   -6.5910   19.6150  -32.2840 C   0  0  0  0  0  0  0  0  0  0  0  0
   -7.8840   20.1420  -32.5450 C   0  0  0  0  0  0  0  0  0  0  0  0
   -8.1950   21.4750  -32.2310 C   0  0  0  0  0  0  0  0  0  0  0  0
   -7.1960   22.2630  -31.6670 C   0  0  0  0  0  0  0  0  0  0  0  0
   -7.2350   23.5710  -31.2410 C   0  0  0  0  0  0  0  0  0  0  0  0
   -5.9600   23.8370  -30.7470 C   0  0  0  0  0  0  0  0  0  0  0  0
   -5.5400   25.1600  -30.2380 C   0  0  0  0  0  0  0  0  0  0  0  0
   -4.2330   25.6670  -30.4940 N   0  0  0  0  0  0  0  0  0  0  0  0
   -6.3620   25.8710  -29.5990 O   0  0  0  0  0  0  0  0  0  0  0  0
   -5.1650   22.7350  -30.8640 N   0  0  0  0  0  0  0  0  0  0  0  0
   -3.8130   22.5740  -30.4070 C   0  0  0  0  0  0  0  0  0  0  0  0
   -2.7840   23.4440  -30.8780 N   0  0  0  0  0  0  0  0  0  0  0  0
   -3.5290   21.6570  -29.5920 O   0  0  0  0  0  0  0  0  0  0  0  0
   -5.9370   21.7800  -31.4260 C   0  0  0  0  0  0  0  0  0  0  0  0
   -5.6050   20.4510  -31.7080 C   0  0  0  0  0  0  0  0  0  0  0  0
   -5.7880   17.3250  -31.6220 C   0  0  0  0  0  0  0  0  0  0  0  0
   -5.5060   16.0310  -31.9310 N   0  0  0  0  0  0  0  0  0  0  0  0
   -4.8333   13.6274  -31.5712 H   0  0  0  0  0  0  0  0  0  0  0  0
   -4.8367   12.3244  -32.8077 H   0  0  0  0  0  0  0  0  0  0  0  0
   -3.5321   13.5591  -32.8077 H   0  0  0  0  0  0  0  0  0  0  0  0
   -6.3051   15.9786  -35.2174 H   0  0  0  0  0  0  0  0  0  0  0  0
   -6.8439   18.3622  -34.6998 H   0  0  0  0  0  0  0  0  0  0  0  0
   -8.6515   19.4978  -32.9988 H   0  0  0  0  0  0  0  0  0  0  0  0
   -9.1976   21.8839  -32.4249 H   0  0  0  0  0  0  0  0  0  0  0  0
   -8.0913   24.2602  -31.2819 H   0  0  0  0  0  0  0  0  0  0  0  0
   -3.5030   25.6690  -29.7490 H   0  0  0  0  0  0  0  0  0  0  0  0
   -3.0140   24.2470  -31.5040 H   0  0  0  0  0  0  0  0  0  0  0  0
   -1.7960   23.3090  -30.5690 H   0  0  0  0  0  0  0  0  0  0  0  0
   -4.5994   20.0639  -31.4869 H   0  0  0  0  0  0  0  0  0  0  0  0
   -5.6321   17.6891  -30.5958 H   0  0  0  0  0  0  0  0  0  0  0  0
  1  2  1  0
  2  3  1  0
  3  4  2  0
  4  5  1  0
  5  6  2  0
  6  7  1  0
  7  8  2  0
  8  9  1  0
  9 10  2  0
 10 11  1  0
 11 12  2  0
 12 13  1  0
 13 14  1  0
 13 15  2  0
 12 16  1  0
 16 17  1  0
 17 18  1  0
 17 19  2  0
 16 20  1  0
 20 21  2  0
  6 22  1  0
 22 23  2  0
 23  3  1  0
 21  7  1  0
 20 10  1  0
  1 24  1  0
  1 25  1  0
  1 26  1  0
  4 27  1  0
  5 28  1  0
  8 29  1  0
  9 30  1  0
 11 31  1  0
 14 32  1  0
 18 33  1  0
 18 34  1  0
 21 35  1  0
 22 36  1  0
M  CHG  1  14  -1
M  END
>  <UniqueID>  (79) 
79

>  <SMILES>  (79) 
COc1ccc(-c2ccc3cc(C([NH-])=O)n(C(N)=O)c3c2)cn1

>  <Energy>  (79) 
81.02230332108547

>  <Genealogy>  (79) 
COc1ccc(-c2ccc3cc(C([NH-])=O)n(C(N)=O)c3c2)cn1 (protonated)
COc1ccc(-c2ccc3cc(C([NH-])=O)n(C(N)=O)c3c2)cn1 (3D coordinates assigned)
COc1ccc(-c2ccc3cc(C([NH-])=O)n(C(N)=O)c3c2)cn1 (optimized conformer: 81.02230332108547 kcal/mol)

>  <smiles>  (79) 
COc1ccc(-c2ccc3cc(C(N)=O)n(C(N)=O)c3c2)cn1

>  <score_type>  (79) 
oracle

>  <origin>  (79) 
adg

>  <m_score__min__energy>  (79) 
-10.25

>  <m_primary>  (79) 
energy

$$$$
79:0
     RDKit          3D

 40 42  0  0  0  0  0  0  0  0999 V2000
   -7.2170   17.2180  -32.9020 C   0  0  0  0  0  0  0  0  0  0  0  0
   -7.5340   18.6520  -32.5670 C   0  0  0  0  0  0  0  0  0  0  0  0
   -8.7530   18.9450  -31.9300 C   0  0  0  0  0  0  0  0  0  0  0  0
   -9.1000   20.2620  -31.6290 C   0  0  0  0  0  0  0  0  0  0  0  0
   -8.2390   21.3050  -31.9640 C   0  0  0  0  0  0  0  0  0  0  0  0
   -7.0200   21.0340  -32.5860 C   0  0  0  0  0  0  0  0  0  0  0  0
   -6.6330   19.7090  -32.8680 C   0  0  0  0  0  0  0  0  0  0  0  0
   -5.2980   19.4620  -33.5460 C   0  0  0  0  0  0  0  0  0  0  0  0
   -4.5130   20.6960  -33.6440 N   0  0  0  0  0  0  0  0  0  0  0  0
   -3.5430   21.1220  -32.6670 C   0  0  0  0  0  0  0  0  0  0  0  0
   -2.3680   20.3530  -32.4850 C   0  0  0  0  0  0  0  0  0  0  0  0
   -1.3960   20.7310  -31.5430 C   0  0  0  0  0  0  0  0  0  0  0  0
   -1.6200   21.8880  -30.8050 C   0  0  0  0  0  0  0  0  0  0  0  0
   -0.8610   22.4630  -29.8120 C   0  0  0  0  0  0  0  0  0  0  0  0
   -1.5660   23.5960  -29.4200 C   0  0  0  0  0  0  0  0  0  0  0  0
   -1.0720   24.5500  -28.4060 C   0  0  0  0  0  0  0  0  0  0  0  0
   -1.9750   25.3490  -27.6410 N   0  0  0  0  0  0  0  0  0  0  0  0
    0.1680   24.7010  -28.2540 O   0  0  0  0  0  0  0  0  0  0  0  0
   -2.7240   23.7140  -30.1310 N   0  0  0  0  0  0  0  0  0  0  0  0
   -3.7680   24.6870  -29.9500 C   0  0  0  0  0  0  0  0  0  0  0  0
   -3.8640   25.6680  -30.7320 O   0  0  0  0  0  0  0  0  0  0  0  0
   -4.6820   24.5550  -28.9110 O   0  0  0  0  0  0  0  0  0  0  0  0
   -2.7410   22.6590  -30.9770 C   0  0  0  0  0  0  0  0  0  0  0  0
   -3.7370   22.2890  -31.8870 C   0  0  0  0  0  0  0  0  0  0  0  0
   -7.0901   16.6437  -31.9724 H   0  0  0  0  0  0  0  0  0  0  0  0
   -8.0417   16.7877  -33.4891 H   0  0  0  0  0  0  0  0  0  0  0  0
   -6.2878   17.1754  -33.4891 H   0  0  0  0  0  0  0  0  0  0  0  0
   -9.4399   18.1272  -31.6664 H   0  0  0  0  0  0  0  0  0  0  0  0
  -10.0545   20.4775  -31.1265 H   0  0  0  0  0  0  0  0  0  0  0  0
   -8.5209   22.3439  -31.7377 H   0  0  0  0  0  0  0  0  0  0  0  0
   -6.3530   21.8648  -32.8595 H   0  0  0  0  0  0  0  0  0  0  0  0
   -4.7310   18.7223  -32.9617 H   0  0  0  0  0  0  0  0  0  0  0  0
   -5.4893   19.0910  -34.5637 H   0  0  0  0  0  0  0  0  0  0  0  0
   -4.6830   21.3050  -34.4770 H   0  0  0  0  0  0  0  0  0  0  0  0
   -2.2139   19.4470  -33.0895 H   0  0  0  0  0  0  0  0  0  0  0  0
   -0.4865   20.1304  -31.3942 H   0  0  0  0  0  0  0  0  0  0  0  0
    0.0989   22.1033  -29.4131 H   0  0  0  0  0  0  0  0  0  0  0  0
   -2.9950   25.3740  -27.8620 H   0  0  0  0  0  0  0  0  0  0  0  0
   -1.6100   25.9890  -26.9020 H   0  0  0  0  0  0  0  0  0  0  0  0
   -4.6512   22.8911  -31.9947 H   0  0  0  0  0  0  0  0  0  0  0  0
  1  2  1  0
  2  3  2  0
  3  4  1  0
  4  5  2  0
  5  6  1  0
  6  7  2  0
  7  8  1  0
  8  9  1  0
  9 10  1  0
 10 11  2  0
 11 12  1  0
 12 13  2  0
 13 14  1  0
 14 15  2  0
 15 16  1  0
 16 17  1  0
 16 18  2  0
 15 19  1  0
 19 20  1  0
 20 21  2  0
 20 22  1  0
 19 23  1  0
 23 24  2  0
  7  2  1  0
 24 10  1  0
 23 13  1  0
  1 25  1  0
  1 26  1  0
  1 27  1  0
  3 28  1  0
  4 29  1  0
  5 30  1  0
  6 31  1  0
  8 32  1  0
  8 33  1  0
  9 34  1  0
 11 35  1  0
 12 36  1  0
 14 37  1  0
 17 38  1  0
 17 39  1  0
 24 40  1  0
M  CHG  1  22  -1
M  END
>  <UniqueID>  (80) 
80

>  <SMILES>  (80) 
Cc1ccccc1CNc1ccc2cc(C(N)=O)n(C(=O)[O-])c2c1

>  <Energy>  (80) 
82.93657328057344

>  <Genealogy>  (80) 
Cc1ccccc1CNc1ccc2cc(C(N)=O)n(C(=O)[O-])c2c1 (protonated)
Cc1ccccc1CNc1ccc2cc(C(N)=O)n(C(=O)[O-])c2c1 (3D coordinates assigned)
Cc1ccccc1CNc1ccc2cc(C(N)=O)n(C(=O)[O-])c2c1 (optimized conformer: 82.93657328057344 kcal/mol)

>  <smiles>  (80) 
Cc1ccccc1CNc1ccc2cc(C(N)=O)n(C(=O)O)c2c1

>  <score_type>  (80) 
oracle

>  <origin>  (80) 
adg

>  <m_score__min__energy>  (80) 
-10.220000000000001

>  <m_primary>  (80) 
energy

$$$$
80:0
     RDKit          3D

 79 83  0  0  0  0  0  0  0  0999 V2000
    0.0630   21.4550  -33.9940 C   0  0  0  0  0  0  0  0  0  0  0  0
    0.4250   20.5190  -32.9840 O   0  0  0  0  0  0  0  0  0  0  0  0
   -0.0010   19.1800  -32.9490 C   0  0  0  0  0  0  0  0  0  0  0  0
   -0.8500   18.6430  -33.9350 C   0  0  0  0  0  0  0  0  0  0  0  0
   -1.2820   17.3080  -33.8610 C   0  0  0  0  0  0  0  0  0  0  0  0
   -2.2050   16.7850  -34.8400 N   0  0  0  0  0  0  0  0  0  0  0  0
   -3.5710   16.8780  -34.3910 C   0  0  0  0  0  0  0  0  0  0  0  0
   -4.3490   15.7660  -34.2770 N   0  0  0  0  0  0  0  0  0  0  0  0
   -5.6180   15.8400  -33.8070 C   0  0  0  0  0  0  0  0  0  0  0  0
   -6.1500   17.0700  -33.4040 C   0  0  0  0  0  0  0  0  0  0  0  0
   -7.5640   17.1350  -32.8930 C   0  0  0  0  0  0  0  0  0  0  0  0
   -5.3110   18.2030  -33.4650 C   0  0  0  0  0  0  0  0  0  0  0  0
   -5.7340   19.5260  -32.9670 C   0  0  0  0  0  0  0  0  0  0  0  0
   -7.0680   19.9600  -33.1570 C   0  0  0  0  0  0  0  0  0  0  0  0
   -7.4790   21.2280  -32.7110 C   0  0  0  0  0  0  0  0  0  0  0  0
   -6.5320   22.0390  -32.0880 C   0  0  0  0  0  0  0  0  0  0  0  0
   -6.6450   23.3210  -31.6020 C   0  0  0  0  0  0  0  0  0  0  0  0
   -5.3750   23.6540  -31.1360 C   0  0  0  0  0  0  0  0  0  0  0  0
   -5.0590   24.9340  -30.4650 C   0  0  0  0  0  0  0  0  0  0  0  0
   -3.8800   25.6610  -30.7930 N   0  0  0  0  0  0  0  0  0  0  0  0
   -5.8190   25.3690  -29.5580 O   0  0  0  0  0  0  0  0  0  0  0  0
   -4.5100   22.6180  -31.3290 N   0  0  0  0  0  0  0  0  0  0  0  0
   -3.0920   22.6000  -31.1130 C   0  0  0  0  0  0  0  0  0  0  0  0
   -2.3480   21.9740  -31.9140 O   0  0  0  0  0  0  0  0  0  0  0  0
   -2.5580   23.2420  -29.9840 O   0  0  0  0  0  0  0  0  0  0  0  0
   -2.5470   22.7300  -28.6420 C   0  0  0  0  0  0  0  0  0  0  0  0
   -3.7190   23.3130  -27.8290 C   0  0  0  0  0  0  0  0  0  0  0  0
   -2.7150   21.2050  -28.7300 C   0  0  0  0  0  0  0  0  0  0  0  0
   -1.2000   23.0400  -27.9600 C   0  0  0  0  0  0  0  0  0  0  0  0
   -5.2360   21.6360  -31.9050 C   0  0  0  0  0  0  0  0  0  0  0  0
   -4.7970   20.3840  -32.3520 C   0  0  0  0  0  0  0  0  0  0  0  0
   -4.0540   18.0750  -33.9680 N   0  0  0  0  0  0  0  0  0  0  0  0
   -0.8640   16.5120  -32.7840 C   0  0  0  0  0  0  0  0  0  0  0  0
   -0.0150   17.0340  -31.8070 C   0  0  0  0  0  0  0  0  0  0  0  0
    0.4250   18.3630  -31.8850 C   0  0  0  0  0  0  0  0  0  0  0  0
    1.2750   18.8930  -30.8570 N   0  0  0  0  0  0  0  0  0  0  0  0
    0.7500   19.8230  -29.8540 C   0  0  0  0  0  0  0  0  0  0  0  0
    1.2390   19.3840  -28.4710 C   0  0  0  0  0  0  0  0  0  0  0  0
    2.7200   19.2780  -28.3850 N   0  0  0  0  0  0  0  0  0  0  0  0
    3.1240   18.1620  -27.5130 C   0  0  0  0  0  0  0  0  0  0  0  0
    3.4280   19.2260  -29.6880 C   0  0  0  0  0  0  0  0  0  0  0  0
    2.6620   18.4300  -30.7550 C   0  0  0  0  0  0  0  0  0  0  0  0
   -0.2956   22.3822  -33.5231 H   0  0  0  0  0  0  0  0  0  0  0  0
    0.9401   21.6769  -34.6196 H   0  0  0  0  0  0  0  0  0  0  0  0
   -0.7352   21.0290  -34.6196 H   0  0  0  0  0  0  0  0  0  0  0  0
   -1.1789   19.2755  -34.7727 H   0  0  0  0  0  0  0  0  0  0  0  0
   -1.9750   15.7830  -35.0330 H   0  0  0  0  0  0  0  0  0  0  0  0
   -2.1150   17.3100  -35.7420 H   0  0  0  0  0  0  0  0  0  0  0  0
   -6.2322   14.9297  -33.7421 H   0  0  0  0  0  0  0  0  0  0  0  0
   -7.5567   17.1347  -31.7930 H   0  0  0  0  0  0  0  0  0  0  0  0
   -8.0432   18.0561  -33.2562 H   0  0  0  0  0  0  0  0  0  0  0  0
   -8.1257   16.2617  -33.2562 H   0  0  0  0  0  0  0  0  0  0  0  0
   -7.7898   19.2986  -33.6585 H   0  0  0  0  0  0  0  0  0  0  0  0
   -8.5154   21.5695  -32.8493 H   0  0  0  0  0  0  0  0  0  0  0  0
   -7.5472   23.9501  -31.5849 H   0  0  0  0  0  0  0  0  0  0  0  0
   -2.9360   25.2980  -30.5340 H   0  0  0  0  0  0  0  0  0  0  0  0
   -3.5080   23.2080  -26.7545 H   0  0  0  0  0  0  0  0  0  0  0  0
   -3.8428   24.3777  -28.0760 H   0  0  0  0  0  0  0  0  0  0  0  0
   -4.6429   22.7694  -28.0760 H   0  0  0  0  0  0  0  0  0  0  0  0
   -2.7616   20.7821  -27.7156 H   0  0  0  0  0  0  0  0  0  0  0  0
   -3.6446   20.9690  -29.2687 H   0  0  0  0  0  0  0  0  0  0  0  0
   -1.8591   20.7723  -29.2687 H   0  0  0  0  0  0  0  0  0  0  0  0
   -1.3268   23.0108  -26.8677 H   0  0  0  0  0  0  0  0  0  0  0  0
   -0.4545   22.2899  -28.2628 H   0  0  0  0  0  0  0  0  0  0  0  0
   -0.8574   24.0405  -28.2628 H   0  0  0  0  0  0  0  0  0  0  0  0
   -3.7482   20.0767  -32.2271 H   0  0  0  0  0  0  0  0  0  0  0  0
   -1.2076   15.4697  -32.7091 H   0  0  0  0  0  0  0  0  0  0  0  0
    0.3111   16.3987  -30.9703 H   0  0  0  0  0  0  0  0  0  0  0  0
    1.1105   20.8400  -30.0681 H   0  0  0  0  0  0  0  0  0  0  0  0
   -0.3497   19.8197  -29.8803 H   0  0  0  0  0  0  0  0  0  0  0  0
    0.8965   20.1196  -27.7283 H   0  0  0  0  0  0  0  0  0  0  0  0
    0.8257   18.3830  -28.2783 H   0  0  0  0  0  0  0  0  0  0  0  0
    3.0156   18.4615  -26.4601 H   0  0  0  0  0  0  0  0  0  0  0  0
    2.4846   17.2897  -27.7138 H   0  0  0  0  0  0  0  0  0  0  0  0
    4.1736   17.9012  -27.7138 H   0  0  0  0  0  0  0  0  0  0  0  0
    3.5690   20.2545  -30.0518 H   0  0  0  0  0  0  0  0  0  0  0  0
    4.3875   18.7146  -29.5213 H   0  0  0  0  0  0  0  0  0  0  0  0
    3.1582   18.5616  -31.7279 H   0  0  0  0  0  0  0  0  0  0  0  0
    2.6580   17.3685  -30.4664 H   0  0  0  0  0  0  0  0  0  0  0  0
  1  2  1  0
  2  3  1  0
  3  4  2  0
  4  5  1  0
  5  6  1  0
  6  7  1  0
  7  8  2  0
  8  9  1  0
  9 10  2  0
 10 11  1  0
 10 12  1  0
 12 13  1  0
 13 14  2  0
 14 15  1  0
 15 16  2  0
 16 17  1  0
 17 18  2  0
 18 19  1  0
 19 20  1  0
 19 21  2  0
 18 22  1  0
 22 23  1  0
 23 24  2  0
 23 25  1  0
 25 26  1  0
 26 27  1  0
 26 28  1  0
 26 29  1  0
 22 30  1  0
 30 31  2  0
 12 32  2  0
  5 33  2  0
 33 34  1  0
 34 35  2  0
 35 36  1  0
 36 37  1  0
 37 38  1  0
 38 39  1  0
 39 40  1  0
 39 41  1  0
 41 42  1  0
 35  3  1  0
 42 36  1  0
 32  7  1  0
 31 13  1  0
 30 16  1  0
  1 43  1  0
  1 44  1  0
  1 45  1  0
  4 46  1  0
  6 47  1  0
  6 48  1  0
  9 49  1  0
 11 50  1  0
 11 51  1  0
 11 52  1  0
 14 53  1  0
 15 54  1  0
 17 55  1  0
 20 56  1  0
 27 57  1  0
 27 58  1  0
 27 59  1  0
 28 60  1  0
 28 61  1  0
 28 62  1  0
 29 63  1  0
 29 64  1  0
 29 65  1  0
 31 66  1  0
 33 67  1  0
 34 68  1  0
 37 69  1  0
 37 70  1  0
 38 71  1  0
 38 72  1  0
 40 73  1  0
 40 74  1  0
 40 75  1  0
 41 76  1  0
 41 77  1  0
 42 78  1  0
 42 79  1  0
M  CHG  2   6   1  20  -1
M  END
>  <UniqueID>  (81) 
81

>  <SMILES>  (81) 
COc1cc([NH2+]c2ncc(C)c(-c3ccc4cc(C([NH-])=O)n(C(=O)OC(C)(C)C)c4c3)n2)ccc1N1CCN(C)CC1

>  <Energy>  (81) 
139.40960644147168

>  <Genealogy>  (81) 
COc1cc([NH2+]c2ncc(C)c(-c3ccc4cc(C([NH-])=O)n(C(=O)OC(C)(C)C)c4c3)n2)ccc1N1CCN(C)CC1 (protonated)
COc1cc([NH2+]c2ncc(C)c(-c3ccc4cc(C([NH-])=O)n(C(=O)OC(C)(C)C)c4c3)n2)ccc1N1CCN(C)CC1 (3D coordinates assigned)
COc1cc([NH2+]c2ncc(C)c(-c3ccc4cc(C([NH-])=O)n(C(=O)OC(C)(C)C)c4c3)n2)ccc1N1CCN(C)CC1 (nonaromatic ring conformer: 139.40960644147168 kcal/mol)

>  <smiles>  (81) 
COc1cc(Nc2ncc(C)c(-c3ccc4cc(C(N)=O)n(C(=O)OC(C)(C)C)c4c3)n2)ccc1N1CCN(C)CC1

>  <score_type>  (81) 
oracle

>  <origin>  (81) 
adg

>  <m_score__min__energy>  (81) 
-11.73

>  <m_primary>  (81) 
energy

$$$$
81:0
     RDKit          3D

 58 61  0  0  0  0  0  0  0  0999 V2000
   -5.1140   14.4340  -34.5930 C   0  0  0  0  0  0  0  0  0  0  0  0
   -5.4560   15.7810  -34.0250 C   0  0  0  0  0  0  0  0  0  0  0  0
   -5.4310   16.9200  -34.8380 C   0  0  0  0  0  0  0  0  0  0  0  0
   -5.7370   18.1740  -34.3000 C   0  0  0  0  0  0  0  0  0  0  0  0
   -6.0540   18.3170  -32.9370 C   0  0  0  0  0  0  0  0  0  0  0  0
   -6.4350   19.6500  -32.3930 C   0  0  0  0  0  0  0  0  0  0  0  0
   -7.7960   20.0200  -32.2300 C   0  0  0  0  0  0  0  0  0  0  0  0
   -8.1460   21.3000  -31.7560 C   0  0  0  0  0  0  0  0  0  0  0  0
   -7.1200   22.1760  -31.4260 C   0  0  0  0  0  0  0  0  0  0  0  0
   -7.1650   23.4550  -30.9090 C   0  0  0  0  0  0  0  0  0  0  0  0
   -5.8350   23.8250  -30.7300 C   0  0  0  0  0  0  0  0  0  0  0  0
   -5.4060   25.1380  -30.2030 C   0  0  0  0  0  0  0  0  0  0  0  0
   -6.1460   25.7980  -29.1740 N   0  0  0  0  0  0  0  0  0  0  0  0
   -4.3590   25.6760  -30.6480 O   0  0  0  0  0  0  0  0  0  0  0  0
   -5.0030   22.8130  -31.0920 N   0  0  0  0  0  0  0  0  0  0  0  0
   -3.5800   22.7250  -30.8920 C   0  0  0  0  0  0  0  0  0  0  0  0
   -2.8190   22.7440  -31.9000 O   0  0  0  0  0  0  0  0  0  0  0  0
   -3.0120   22.6420  -29.5620 N   0  0  0  0  0  0  0  0  0  0  0  0
   -1.5650   22.4150  -29.4260 C   0  0  0  0  0  0  0  0  0  0  0  0
   -1.0480   22.7840  -28.0180 C   0  0  2  0  0  0  0  0  0  0  0  0
   -0.8920   21.5460  -27.1060 C   0  0  0  0  0  0  0  0  0  0  0  0
   -1.8960   23.8510  -27.4320 N   0  0  0  0  0  0  0  0  0  0  0  0
   -1.2760   24.4480  -26.2320 C   0  0  0  0  0  0  0  0  0  0  0  0
   -3.3070   23.4310  -27.2040 C   0  0  1  0  0  0  0  0  0  0  0  0
   -4.2090   24.6640  -27.0190 C   0  0  0  0  0  0  0  0  0  0  0  0
   -3.8540   22.5410  -28.3620 C   0  0  0  0  0  0  0  0  0  0  0  0
   -5.8010   21.8180  -31.5350 C   0  0  0  0  0  0  0  0  0  0  0  0
   -5.4240   20.5670  -32.0240 C   0  0  0  0  0  0  0  0  0  0  0  0
   -6.0450   17.1690  -32.1200 C   0  0  0  0  0  0  0  0  0  0  0  0
   -6.3820   17.2460  -30.8090 F   0  0  0  0  0  0  0  0  0  0  0  0
   -5.7430   15.9160  -32.6630 C   0  0  0  0  0  0  0  0  0  0  0  0
   -4.9339   13.7247  -33.7717 H   0  0  0  0  0  0  0  0  0  0  0  0
   -5.9493   14.0741  -35.2117 H   0  0  0  0  0  0  0  0  0  0  0  0
   -4.2082   14.5162  -35.2117 H   0  0  0  0  0  0  0  0  0  0  0  0
   -5.1700   16.8286  -35.9027 H   0  0  0  0  0  0  0  0  0  0  0  0
   -5.7297   19.0604  -34.9513 H   0  0  0  0  0  0  0  0  0  0  0  0
   -8.5880   19.2977  -32.4771 H   0  0  0  0  0  0  0  0  0  0  0  0
   -9.2000   21.5965  -31.6505 H   0  0  0  0  0  0  0  0  0  0  0  0
   -8.0604   24.0539  -30.6861 H   0  0  0  0  0  0  0  0  0  0  0  0
   -6.8520   25.2830  -28.6040 H   0  0  0  0  0  0  0  0  0  0  0  0
   -5.9180   26.7740  -28.9000 H   0  0  0  0  0  0  0  0  0  0  0  0
   -1.3537   21.3520  -29.6140 H   0  0  0  0  0  0  0  0  0  0  0  0
   -1.0514   23.0594  -30.1547 H   0  0  0  0  0  0  0  0  0  0  0  0
   -0.0297   23.1895  -28.1110 H   0  0  0  0  0  0  0  0  0  0  0  0
   -0.9315   21.8595  -26.0524 H   0  0  0  0  0  0  0  0  0  0  0  0
   -1.7078   20.8364  -27.3083 H   0  0  0  0  0  0  0  0  0  0  0  0
    0.0744   21.0610  -27.3083 H   0  0  0  0  0  0  0  0  0  0  0  0
   -1.7291   24.0117  -25.3296 H   0  0  0  0  0  0  0  0  0  0  0  0
   -0.1956   24.2415  -26.2363 H   0  0  0  0  0  0  0  0  0  0  0  0
   -1.4415   25.5355  -26.2363 H   0  0  0  0  0  0  0  0  0  0  0  0
   -3.3192   22.8245  -26.2864 H   0  0  0  0  0  0  0  0  0  0  0  0
   -4.3503   24.8572  -25.9453 H   0  0  0  0  0  0  0  0  0  0  0  0
   -3.7358   25.5384  -27.4897 H   0  0  0  0  0  0  0  0  0  0  0  0
   -5.1856   24.4778  -27.4897 H   0  0  0  0  0  0  0  0  0  0  0  0
   -3.8760   21.4932  -28.0278 H   0  0  0  0  0  0  0  0  0  0  0  0
   -4.8647   22.8912  -28.6188 H   0  0  0  0  0  0  0  0  0  0  0  0
   -4.3614   20.2994  -32.1206 H   0  0  0  0  0  0  0  0  0  0  0  0
   -5.7311   15.0287  -32.0129 H   0  0  0  0  0  0  0  0  0  0  0  0
  1  2  1  0
  2  3  2  0
  3  4  1  0
  4  5  2  0
  5  6  1  0
  6  7  2  0
  7  8  1  0
  8  9  2  0
  9 10  1  0
 10 11  2  0
 11 12  1  0
 12 13  1  0
 12 14  2  0
 11 15  1  0
 15 16  1  0
 16 17  2  0
 16 18  1  0
 18 19  1  0
 19 20  1  0
 20 21  1  0
 20 22  1  0
 22 23  1  0
 22 24  1  0
 24 25  1  0
 24 26  1  0
 15 27  1  0
 27 28  2  0
  5 29  1  0
 29 30  1  0
 29 31  2  0
 31  2  1  0
 28  6  1  0
 27  9  1  0
 26 18  1  0
  1 32  1  0
  1 33  1  0
  1 34  1  0
  3 35  1  0
  4 36  1  0
  7 37  1  0
  8 38  1  0
 10 39  1  0
 13 40  1  0
 13 41  1  0
 19 42  1  0
 19 43  1  0
 20 44  1  6
 21 45  1  0
 21 46  1  0
 21 47  1  0
 23 48  1  0
 23 49  1  0
 23 50  1  0
 24 51  1  1
 25 52  1  0
 25 53  1  0
 25 54  1  0
 26 55  1  0
 26 56  1  0
 28 57  1  0
 31 58  1  0
M  END
>  <UniqueID>  (82) 
82

>  <SMILES>  (82) 
Cc1ccc(-c2ccc3cc(C(N)=O)n(C(=O)N4C[C@H](C)N(C)[C@@H](C)C4)c3c2)c(F)c1

>  <Energy>  (82) 
117.86107821658578

>  <Genealogy>  (82) 
Cc1ccc(-c2ccc3cc(C(N)=O)n(C(=O)N4C[C@H](C)N(C)[C@@H](C)C4)c3c2)c(F)c1 (chirality)
Cc1ccc(-c2ccc3cc(C(N)=O)n(C(=O)N4C[C@H](C)N(C)[C@@H](C)C4)c3c2)c(F)c1 (3D coordinates assigned)
Cc1ccc(-c2ccc3cc(C(N)=O)n(C(=O)N4C[C@H](C)N(C)[C@@H](C)C4)c3c2)c(F)c1 (nonaromatic ring conformer: 117.86107821658578 kcal/mol)

>  <smiles>  (82) 
Cc1ccc(-c2ccc3cc(C(N)=O)n(C(=O)N4CC(C)N(C)C(C)C4)c3c2)c(F)c1

>  <score_type>  (82) 
oracle

>  <origin>  (82) 
adg

>  <m_score__min__energy>  (82) 
-11.380000000000001

>  <m_primary>  (82) 
energy

$$$$
82:0
     RDKit          3D

 42 44  0  0  0  0  0  0  0  0999 V2000
   -2.4950   16.1680  -33.4180 C   0  0  0  0  0  0  0  0  0  0  0  0
   -3.8250   16.0360  -32.7380 C   0  0  0  0  0  0  0  0  0  0  0  0
   -4.0490   14.9950  -32.0620 O   0  0  0  0  0  0  0  0  0  0  0  0
   -4.8510   17.0480  -32.8640 N   0  0  0  0  0  0  0  0  0  0  0  0
   -4.7190   18.1290  -33.8540 C   0  0  0  0  0  0  0  0  0  0  0  0
   -6.0830   18.5490  -34.4170 C   0  0  0  0  0  0  0  0  0  0  0  0
   -7.1930   18.7170  -33.3580 C   0  0  0  0  0  0  0  0  0  0  0  0
   -7.2340   20.1000  -32.7140 C   0  0  0  0  0  0  0  0  0  0  0  0
   -8.4950   20.6700  -32.3850 C   0  0  0  0  0  0  0  0  0  0  0  0
   -8.5840   21.9330  -31.7760 C   0  0  0  0  0  0  0  0  0  0  0  0
   -7.4020   22.6130  -31.5100 C   0  0  0  0  0  0  0  0  0  0  0  0
   -7.2000   23.8310  -30.9040 C   0  0  0  0  0  0  0  0  0  0  0  0
   -5.8180   24.0090  -30.8840 C   0  0  0  0  0  0  0  0  0  0  0  0
   -5.1630   25.2360  -30.3840 C   0  0  0  0  0  0  0  0  0  0  0  0
   -3.8770   25.6280  -30.8570 N   0  0  0  0  0  0  0  0  0  0  0  0
   -5.7670   25.9740  -29.5600 O   0  0  0  0  0  0  0  0  0  0  0  0
   -5.1920   22.9390  -31.4500 N   0  0  0  0  0  0  0  0  0  0  0  0
   -3.7780   22.6990  -31.5510 C   0  0  0  0  0  0  0  0  0  0  0  0
   -2.9060   23.0930  -30.4960 N   0  0  0  0  0  0  0  0  0  0  0  0
   -3.3020   22.1510  -32.5810 O   0  0  0  0  0  0  0  0  0  0  0  0
   -6.1770   22.0940  -31.8290 C   0  0  0  0  0  0  0  0  0  0  0  0
   -6.0570   20.8300  -32.4160 C   0  0  0  0  0  0  0  0  0  0  0  0
   -7.2130   17.5640  -32.3370 C   0  0  0  0  0  0  0  0  0  0  0  0
   -5.8320   17.2080  -31.7810 C   0  0  0  0  0  0  0  0  0  0  0  0
   -1.7018   16.2467  -32.6599 H   0  0  0  0  0  0  0  0  0  0  0  0
   -2.3151   15.2833  -34.0464 H   0  0  0  0  0  0  0  0  0  0  0  0
   -2.4925   17.0708  -34.0464 H   0  0  0  0  0  0  0  0  0  0  0  0
   -4.2485   18.9988  -33.3722 H   0  0  0  0  0  0  0  0  0  0  0  0
   -4.1022   17.7596  -34.6865 H   0  0  0  0  0  0  0  0  0  0  0  0
   -5.9578   19.5098  -34.9377 H   0  0  0  0  0  0  0  0  0  0  0  0
   -6.4085   17.7358  -35.0824 H   0  0  0  0  0  0  0  0  0  0  0  0
   -8.1399   18.6491  -33.9137 H   0  0  0  0  0  0  0  0  0  0  0  0
   -9.4160   20.1126  -32.6112 H   0  0  0  0  0  0  0  0  0  0  0  0
   -9.5598   22.3701  -31.5177 H   0  0  0  0  0  0  0  0  0  0  0  0
   -7.9665   24.5186  -30.5172 H   0  0  0  0  0  0  0  0  0  0  0  0
   -3.0070   25.2680  -30.4050 H   0  0  0  0  0  0  0  0  0  0  0  0
   -3.1450   23.8970  -29.8730 H   0  0  0  0  0  0  0  0  0  0  0  0
   -5.0658   20.4101  -32.6423 H   0  0  0  0  0  0  0  0  0  0  0  0
   -7.8606   17.8556  -31.4970 H   0  0  0  0  0  0  0  0  0  0  0  0
   -7.5850   16.6740  -32.8657 H   0  0  0  0  0  0  0  0  0  0  0  0
   -5.4972   18.0117  -31.1088 H   0  0  0  0  0  0  0  0  0  0  0  0
   -5.9095   16.2556  -31.2361 H   0  0  0  0  0  0  0  0  0  0  0  0
  1  2  1  0
  2  3  2  0
  2  4  1  0
  4  5  1  0
  5  6  1  0
  6  7  1  0
  7  8  1  0
  8  9  2  0
  9 10  1  0
 10 11  2  0
 11 12  1  0
 12 13  2  0
 13 14  1  0
 14 15  1  0
 14 16  2  0
 13 17  1  0
 17 18  1  0
 18 19  1  0
 18 20  2  0
 17 21  1  0
 21 22  2  0
  7 23  1  0
 23 24  1  0
 24  4  1  0
 22  8  1  0
 21 11  1  0
  1 25  1  0
  1 26  1  0
  1 27  1  0
  5 28  1  0
  5 29  1  0
  6 30  1  0
  6 31  1  0
  7 32  1  0
  9 33  1  0
 10 34  1  0
 12 35  1  0
 15 36  1  0
 19 37  1  0
 22 38  1  0
 23 39  1  0
 23 40  1  0
 24 41  1  0
 24 42  1  0
M  CHG  2  15  -1  19  -1
M  END
>  <UniqueID>  (83) 
83

>  <SMILES>  (83) 
CC(=O)N1CCC(c2ccc3cc(C([NH-])=O)n(C([NH-])=O)c3c2)CC1

>  <Energy>  (83) 
85.83570413763842

>  <Genealogy>  (83) 
CC(=O)N1CCC(c2ccc3cc(C([NH-])=O)n(C([NH-])=O)c3c2)CC1 (protonated)
CC(=O)N1CCC(c2ccc3cc(C([NH-])=O)n(C([NH-])=O)c3c2)CC1 (3D coordinates assigned)
CC(=O)N1CCC(c2ccc3cc(C([NH-])=O)n(C([NH-])=O)c3c2)CC1 (nonaromatic ring conformer: 85.83570413763842 kcal/mol)

>  <smiles>  (83) 
CC(=O)N1CCC(c2ccc3cc(C(N)=O)n(C(N)=O)c3c2)CC1

>  <score_type>  (83) 
oracle

>  <origin>  (83) 
adg

>  <m_score__min__energy>  (83) 
-11.720000000000001

>  <m_primary>  (83) 
energy

$$$$
83:0
     RDKit          3D

 42 44  0  0  0  0  0  0  0  0999 V2000
   -5.3150   16.0370  -32.3630 C   0  0  0  0  0  0  0  0  0  0  0  0
   -6.4580   16.6430  -33.0690 N   0  0  0  0  0  0  0  0  0  0  0  0
   -7.1360   17.6840  -32.2670 C   0  0  0  0  0  0  0  0  0  0  0  0
   -6.3250   18.9880  -32.1700 C   0  0  0  0  0  0  0  0  0  0  0  0
   -5.9320   19.4820  -33.5700 C   0  0  0  0  0  0  0  0  0  0  0  0
   -5.1580   20.7320  -33.5230 N   0  0  0  0  0  0  0  0  0  0  0  0
   -3.9960   21.0450  -32.7190 C   0  0  0  0  0  0  0  0  0  0  0  0
   -2.8340   20.2250  -32.6850 C   0  0  0  0  0  0  0  0  0  0  0  0
   -1.7400   20.5580  -31.8700 C   0  0  0  0  0  0  0  0  0  0  0  0
   -1.8250   21.7100  -31.0970 C   0  0  0  0  0  0  0  0  0  0  0  0
   -0.9250   22.2440  -30.2050 C   0  0  0  0  0  0  0  0  0  0  0  0
   -1.5350   23.3940  -29.7080 C   0  0  0  0  0  0  0  0  0  0  0  0
   -0.8800   24.3390  -28.7780 C   0  0  0  0  0  0  0  0  0  0  0  0
   -1.6470   25.3110  -28.0640 N   0  0  0  0  0  0  0  0  0  0  0  0
    0.3620   24.2760  -28.5810 O   0  0  0  0  0  0  0  0  0  0  0  0
   -2.7660   23.5610  -30.2720 N   0  0  0  0  0  0  0  0  0  0  0  0
   -3.7310   24.5880  -29.9830 C   0  0  0  0  0  0  0  0  0  0  0  0
   -4.4610   24.5060  -28.9610 O   0  0  0  0  0  0  0  0  0  0  0  0
   -3.8780   25.6740  -30.8370 O   0  0  0  0  0  0  0  0  0  0  0  0
   -2.9270   22.5200  -31.1190 C   0  0  0  0  0  0  0  0  0  0  0  0
   -4.0390   22.2030  -31.9080 C   0  0  0  0  0  0  0  0  0  0  0  0
   -5.2500   18.3910  -34.4110 C   0  0  0  0  0  0  0  0  0  0  0  0
   -6.1050   17.1140  -34.4260 C   0  0  0  0  0  0  0  0  0  0  0  0
   -5.4696   16.1189  -31.2770 H   0  0  0  0  0  0  0  0  0  0  0  0
   -5.2319   14.9764  -32.6425 H   0  0  0  0  0  0  0  0  0  0  0  0
   -4.3905   16.5634  -32.6425 H   0  0  0  0  0  0  0  0  0  0  0  0
   -8.1072   17.9085  -32.7322 H   0  0  0  0  0  0  0  0  0  0  0  0
   -7.2522   17.2908  -31.2463 H   0  0  0  0  0  0  0  0  0  0  0  0
   -6.9341   19.7570  -31.6725 H   0  0  0  0  0  0  0  0  0  0  0  0
   -5.4100   18.7957  -31.5906 H   0  0  0  0  0  0  0  0  0  0  0  0
   -6.8707   19.7209  -34.0912 H   0  0  0  0  0  0  0  0  0  0  0  0
   -5.4360   21.4480  -34.2340 H   0  0  0  0  0  0  0  0  0  0  0  0
   -2.7919   19.3177  -33.3056 H   0  0  0  0  0  0  0  0  0  0  0  0
   -0.8409   19.9248  -31.8441 H   0  0  0  0  0  0  0  0  0  0  0  0
    0.0662   21.8475  -29.9400 H   0  0  0  0  0  0  0  0  0  0  0  0
   -1.1810   25.9460  -27.3790 H   0  0  0  0  0  0  0  0  0  0  0  0
   -2.6690   25.4310  -28.2390 H   0  0  0  0  0  0  0  0  0  0  0  0
   -4.9325   22.8446  -31.8974 H   0  0  0  0  0  0  0  0  0  0  0  0
   -5.1227   18.7542  -35.4415 H   0  0  0  0  0  0  0  0  0  0  0  0
   -4.2700   18.1594  -33.9683 H   0  0  0  0  0  0  0  0  0  0  0  0
   -7.0334   17.3194  -34.9790 H   0  0  0  0  0  0  0  0  0  0  0  0
   -5.5098   16.3232  -34.9060 H   0  0  0  0  0  0  0  0  0  0  0  0
  1  2  1  0
  2  3  1  0
  3  4  1  0
  4  5  1  0
  5  6  1  0
  6  7  1  0
  7  8  2  0
  8  9  1  0
  9 10  2  0
 10 11  1  0
 11 12  2  0
 12 13  1  0
 13 14  1  0
 13 15  2  0
 12 16  1  0
 16 17  1  0
 17 18  2  0
 17 19  1  0
 16 20  1  0
 20 21  2  0
  5 22  1  0
 22 23  1  0
 23  2  1  0
 21  7  1  0
 20 10  1  0
  1 24  1  0
  1 25  1  0
  1 26  1  0
  3 27  1  0
  3 28  1  0
  4 29  1  0
  4 30  1  0
  5 31  1  0
  6 32  1  0
  8 33  1  0
  9 34  1  0
 11 35  1  0
 14 36  1  0
 14 37  1  0
 21 38  1  0
 22 39  1  0
 22 40  1  0
 23 41  1  0
 23 42  1  0
M  CHG  1  19  -1
M  END
>  <UniqueID>  (84) 
84

>  <SMILES>  (84) 
CN1CCC(Nc2ccc3cc(C(N)=O)n(C(=O)[O-])c3c2)CC1

>  <Energy>  (84) 
87.60971720636606

>  <Genealogy>  (84) 
CN1CCC(Nc2ccc3cc(C(N)=O)n(C(=O)[O-])c3c2)CC1 (protonated)
CN1CCC(Nc2ccc3cc(C(N)=O)n(C(=O)[O-])c3c2)CC1 (3D coordinates assigned)
CN1CCC(Nc2ccc3cc(C(N)=O)n(C(=O)[O-])c3c2)CC1 (nonaromatic ring conformer: 87.60971720636606 kcal/mol)

>  <smiles>  (84) 
CN1CCC(Nc2ccc3cc(C(N)=O)n(C(=O)O)c3c2)CC1

>  <score_type>  (84) 
oracle

>  <origin>  (84) 
adg

>  <m_score__min__energy>  (84) 
-9.5199999999999996

>  <m_primary>  (84) 
energy

$$$$
84:0
     RDKit          3D

 32 33  0  0  0  0  0  0  0  0999 V2000
   -4.0720   23.3270  -27.9960 C   0  0  0  0  0  0  0  0  0  0  0  0
   -3.1730   22.1680  -28.4110 C   0  0  0  0  0  0  0  0  0  0  0  0
   -3.5550   21.6720  -29.7280 N   0  0  0  0  0  0  0  0  0  0  0  0
   -4.0410   22.5090  -30.7830 C   0  0  0  0  0  0  0  0  0  0  0  0
   -3.2300   23.0720  -31.5670 O   0  0  0  0  0  0  0  0  0  0  0  0
   -5.4530   22.7200  -30.9390 N   0  0  0  0  0  0  0  0  0  0  0  0
   -6.1300   23.8980  -30.8330 C   0  0  0  0  0  0  0  0  0  0  0  0
   -5.5640   25.1830  -30.3760 C   0  0  0  0  0  0  0  0  0  0  0  0
   -4.2390   25.5790  -30.7360 N   0  0  0  0  0  0  0  0  0  0  0  0
   -6.2400   25.9200  -29.6100 O   0  0  0  0  0  0  0  0  0  0  0  0
   -7.4680   23.7300  -31.1790 C   0  0  0  0  0  0  0  0  0  0  0  0
   -7.5950   22.3970  -31.4950 C   0  0  0  0  0  0  0  0  0  0  0  0
   -8.7120   21.6820  -31.9170 C   0  0  0  0  0  0  0  0  0  0  0  0
   -8.5490   20.3180  -32.2110 C   0  0  0  0  0  0  0  0  0  0  0  0
   -7.2750   19.7010  -32.1110 C   0  0  0  0  0  0  0  0  0  0  0  0
   -7.1180   18.2290  -32.3980 C   0  0  0  0  0  0  0  0  0  0  0  0
   -6.1970   17.6590  -31.5380 F   0  0  0  0  0  0  0  0  0  0  0  0
   -8.3380   17.6010  -32.2320 F   0  0  0  0  0  0  0  0  0  0  0  0
   -6.6810   18.0290  -33.6960 F   0  0  0  0  0  0  0  0  0  0  0  0
   -6.1690   20.4580  -31.6580 C   0  0  0  0  0  0  0  0  0  0  0  0
   -6.3650   21.8090  -31.3470 C   0  0  0  0  0  0  0  0  0  0  0  0
   -4.1152   23.3827  -26.8983 H   0  0  0  0  0  0  0  0  0  0  0  0
   -3.6651   24.2678  -28.3951 H   0  0  0  0  0  0  0  0  0  0  0  0
   -5.0844   23.1669  -28.3951 H   0  0  0  0  0  0  0  0  0  0  0  0
   -2.1290   22.5130  -28.4429 H   0  0  0  0  0  0  0  0  0  0  0  0
   -3.2810   21.3540  -27.6790 H   0  0  0  0  0  0  0  0  0  0  0  0
   -3.5900   24.9180  -31.2160 H   0  0  0  0  0  0  0  0  0  0  0  0
   -3.8720   26.5100  -30.4400 H   0  0  0  0  0  0  0  0  0  0  0  0
   -8.2550   24.4984  -31.1961 H   0  0  0  0  0  0  0  0  0  0  0  0
   -9.6927   22.1701  -32.0173 H   0  0  0  0  0  0  0  0  0  0  0  0
   -9.4190   19.7213  -32.5223 H   0  0  0  0  0  0  0  0  0  0  0  0
   -5.1767   19.9953  -31.5524 H   0  0  0  0  0  0  0  0  0  0  0  0
  1  2  1  0
  2  3  1  0
  3  4  1  0
  4  5  2  0
  4  6  1  0
  6  7  1  0
  7  8  1  0
  8  9  1  0
  8 10  2  0
  7 11  2  0
 11 12  1  0
 12 13  2  0
 13 14  1  0
 14 15  2  0
 15 16  1  0
 16 17  1  0
 16 18  1  0
 16 19  1  0
 15 20  1  0
 20 21  2  0
 21  6  1  0
 21 12  1  0
  1 22  1  0
  1 23  1  0
  1 24  1  0
  2 25  1  0
  2 26  1  0
  9 27  1  0
  9 28  1  0
 11 29  1  0
 13 30  1  0
 14 31  1  0
 20 32  1  0
M  CHG  1   3  -1
M  END
>  <UniqueID>  (85) 
85

>  <SMILES>  (85) 
CC[N-]C(=O)n1c(C(N)=O)cc2ccc(C(F)(F)F)cc21

>  <Energy>  (85) 
68.00576442117628

>  <Genealogy>  (85) 
CC[N-]C(=O)n1c(C(N)=O)cc2ccc(C(F)(F)F)cc21 (protonated)
CC[N-]C(=O)n1c(C(N)=O)cc2ccc(C(F)(F)F)cc21 (3D coordinates assigned)
CC[N-]C(=O)n1c(C(N)=O)cc2ccc(C(F)(F)F)cc21 (optimized conformer: 68.00576442117628 kcal/mol)

>  <smiles>  (85) 
CCNC(=O)n1c(C(N)=O)cc2ccc(C(F)(F)F)cc21

>  <score_type>  (85) 
oracle

>  <origin>  (85) 
adg

>  <m_score__min__energy>  (85) 
-7.8099999999999996

>  <m_primary>  (85) 
energy

$$$$
85:0
     RDKit          3D

 44 46  0  0  0  0  0  0  0  0999 V2000
   -6.4900   17.1560  -34.0410 C   0  0  0  0  0  0  0  0  0  0  0  0
   -5.7590   18.3870  -34.5650 C   0  0  0  0  0  0  0  0  0  0  0  0
   -6.2220   19.5640  -33.9050 O   0  0  0  0  0  0  0  0  0  0  0  0
   -6.0790   19.7870  -32.5300 C   0  0  0  0  0  0  0  0  0  0  0  0
   -5.6250   18.8800  -31.7800 O   0  0  0  0  0  0  0  0  0  0  0  0
   -6.4730   21.0490  -31.9700 N   0  0  0  0  0  0  0  0  0  0  0  0
   -7.7240   21.5900  -31.9270 C   0  0  0  0  0  0  0  0  0  0  0  0
   -8.9700   20.9070  -32.3390 C   0  0  0  0  0  0  0  0  0  0  0  0
   -8.9650   19.9670  -33.4160 N   0  0  0  0  0  0  0  0  0  0  0  0
  -10.0590   21.1740  -31.7630 O   0  0  0  0  0  0  0  0  0  0  0  0
   -7.6850   22.8570  -31.3450 C   0  0  0  0  0  0  0  0  0  0  0  0
   -6.3640   23.0750  -31.0310 C   0  0  0  0  0  0  0  0  0  0  0  0
   -5.7550   24.1810  -30.4430 C   0  0  0  0  0  0  0  0  0  0  0  0
   -4.3630   24.1460  -30.2570 C   0  0  0  0  0  0  0  0  0  0  0  0
   -3.6060   23.0150  -30.6600 C   0  0  0  0  0  0  0  0  0  0  0  0
   -2.1020   23.0020  -30.4650 C   0  0  2  0  0  0  0  0  0  0  0  0
   -1.4530   21.9290  -31.3540 C   0  0  0  0  0  0  0  0  0  0  0  0
   -1.7480   22.8860  -28.9830 C   0  0  0  0  0  0  0  0  0  0  0  0
   -1.8500   21.6540  -28.2970 C   0  0  0  0  0  0  0  0  0  0  0  0
   -1.5660   21.5750  -26.9710 N   0  0  0  0  0  0  0  0  0  0  0  0
   -1.1870   22.6630  -26.2530 C   0  0  0  0  0  0  0  0  0  0  0  0
   -1.0940   23.9090  -26.8700 C   0  0  0  0  0  0  0  0  0  0  0  0
   -1.3840   24.0300  -28.2330 C   0  0  0  0  0  0  0  0  0  0  0  0
   -1.3050   25.6830  -28.9670 S   0  0  0  0  0  0  0  0  0  0  0  0
   -4.2640   21.9180  -31.2670 C   0  0  0  0  0  0  0  0  0  0  0  0
   -5.6530   21.9710  -31.4180 C   0  0  0  0  0  0  0  0  0  0  0  0
   -6.4838   17.1664  -32.9411 H   0  0  0  0  0  0  0  0  0  0  0  0
   -7.5291   17.1653  -34.4019 H   0  0  0  0  0  0  0  0  0  0  0  0
   -5.9846   16.2481  -34.4019 H   0  0  0  0  0  0  0  0  0  0  0  0
   -4.6802   18.2714  -34.3837 H   0  0  0  0  0  0  0  0  0  0  0  0
   -5.9551   18.4841  -35.6430 H   0  0  0  0  0  0  0  0  0  0  0  0
   -8.0790   19.6790  -33.8800 H   0  0  0  0  0  0  0  0  0  0  0  0
   -9.8570   19.5210  -33.7250 H   0  0  0  0  0  0  0  0  0  0  0  0
   -8.5318   23.5378  -31.1735 H   0  0  0  0  0  0  0  0  0  0  0  0
   -6.3462   25.0555  -30.1336 H   0  0  0  0  0  0  0  0  0  0  0  0
   -3.8542   25.0044  -29.7940 H   0  0  0  0  0  0  0  0  0  0  0  0
   -1.6783   23.9621  -30.7948 H   0  0  0  0  0  0  0  0  0  0  0  0
   -0.9878   21.1598  -30.7200 H   0  0  0  0  0  0  0  0  0  0  0  0
   -2.2219   21.4648  -31.9891 H   0  0  0  0  0  0  0  0  0  0  0  0
   -0.6849   22.3945  -31.9891 H   0  0  0  0  0  0  0  0  0  0  0  0
   -2.1622   20.7510  -28.8421 H   0  0  0  0  0  0  0  0  0  0  0  0
   -0.9531   22.5609  -25.1830 H   0  0  0  0  0  0  0  0  0  0  0  0
   -0.7940   24.7930  -26.2881 H   0  0  0  0  0  0  0  0  0  0  0  0
   -3.6945   21.0426  -31.6125 H   0  0  0  0  0  0  0  0  0  0  0  0
  1  2  1  0
  2  3  1  0
  3  4  1  0
  4  5  2  0
  4  6  1  0
  6  7  1  0
  7  8  1  0
  8  9  1  0
  8 10  2  0
  7 11  2  0
 11 12  1  0
 12 13  2  0
 13 14  1  0
 14 15  2  0
 15 16  1  0
 16 17  1  0
 16 18  1  0
 18 19  2  0
 19 20  1  0
 20 21  2  0
 21 22  1  0
 22 23  2  0
 23 24  1  0
 15 25  1  0
 25 26  2  0
 26  6  1  0
 26 12  1  0
 23 18  1  0
  1 27  1  0
  1 28  1  0
  1 29  1  0
  2 30  1  0
  2 31  1  0
  9 32  1  0
  9 33  1  0
 11 34  1  0
 13 35  1  0
 14 36  1  0
 16 37  1  6
 17 38  1  0
 17 39  1  0
 17 40  1  0
 19 41  1  0
 21 42  1  0
 22 43  1  0
 25 44  1  0
M  CHG  1  24  -1
M  END
>  <UniqueID>  (86) 
86

>  <SMILES>  (86) 
CCOC(=O)n1c(C(N)=O)cc2ccc([C@H](C)c3cnccc3[S-])cc21

>  <Energy>  (86) 
83.51582205242701

>  <Genealogy>  (86) 
CCOC(=O)n1c(C(N)=O)cc2ccc(C(C)c3cnccc3[S-])cc21 (protonated)
CCOC(=O)n1c(C(N)=O)cc2ccc([C@H](C)c3cnccc3[S-])cc21 (chirality)
CCOC(=O)n1c(C(N)=O)cc2ccc([C@H](C)c3cnccc3[S-])cc21 (3D coordinates assigned)
CCOC(=O)n1c(C(N)=O)cc2ccc([C@H](C)c3cnccc3[S-])cc21 (optimized conformer: 83.51582205242701 kcal/mol)

>  <smiles>  (86) 
CCOC(=O)n1c(C(N)=O)cc2ccc(C(C)c3cnccc3S)cc21

>  <score_type>  (86) 
oracle

>  <origin>  (86) 
adg

>  <m_score__min__energy>  (86) 
-9

>  <m_primary>  (86) 
energy

$$$$
86:0
     RDKit          3D

 40 41  0  0  0  0  0  0  0  0999 V2000
   -4.1890   24.9140  -26.3380 C   0  0  0  0  0  0  0  0  0  0  0  0
   -3.5770   24.1780  -27.2700 C   0  0  0  0  0  0  0  0  0  0  0  0
   -4.1580   22.8810  -27.7630 C   0  0  0  0  0  0  0  0  0  0  0  0
   -3.0930   21.9530  -28.3580 C   0  0  0  0  0  0  0  0  0  0  0  0
   -3.4470   21.5540  -29.6810 O   0  0  0  0  0  0  0  0  0  0  0  0
   -3.8740   22.4440  -30.6760 C   0  0  0  0  0  0  0  0  0  0  0  0
   -3.0310   23.0800  -31.3660 O   0  0  0  0  0  0  0  0  0  0  0  0
   -5.2780   22.6120  -30.9270 N   0  0  0  0  0  0  0  0  0  0  0  0
   -6.0050   23.7630  -30.8510 C   0  0  0  0  0  0  0  0  0  0  0  0
   -5.5060   25.0630  -30.3500 C   0  0  0  0  0  0  0  0  0  0  0  0
   -4.1950   25.5200  -30.6850 N   0  0  0  0  0  0  0  0  0  0  0  0
   -6.2480   25.7970  -29.6450 O   0  0  0  0  0  0  0  0  0  0  0  0
   -7.3290   23.5280  -31.2190 C   0  0  0  0  0  0  0  0  0  0  0  0
   -7.3910   22.1880  -31.5230 C   0  0  0  0  0  0  0  0  0  0  0  0
   -8.4690   21.4160  -31.9500 C   0  0  0  0  0  0  0  0  0  0  0  0
   -8.2430   20.0550  -32.2090 C   0  0  0  0  0  0  0  0  0  0  0  0
   -6.9500   19.4960  -32.0530 C   0  0  0  0  0  0  0  0  0  0  0  0
   -6.7200   18.0320  -32.3170 C   0  0  0  0  0  0  0  0  0  0  0  0
   -6.4690   17.7870  -33.7780 C   0  0  0  0  0  0  0  0  0  0  0  0
   -5.7360   18.6270  -34.5150 C   0  0  0  0  0  0  0  0  0  0  0  0
   -5.8820   20.3080  -31.6080 C   0  0  0  0  0  0  0  0  0  0  0  0
   -6.1410   21.6560  -31.3390 C   0  0  0  0  0  0  0  0  0  0  0  0
   -3.7377   25.8581  -25.9988 H   0  0  0  0  0  0  0  0  0  0  0  0
   -5.1442   24.5759  -25.9098 H   0  0  0  0  0  0  0  0  0  0  0  0
   -2.6224   24.5300  -27.6882 H   0  0  0  0  0  0  0  0  0  0  0  0
   -4.6426   22.3676  -26.9194 H   0  0  0  0  0  0  0  0  0  0  0  0
   -4.8796   23.1175  -28.5589 H   0  0  0  0  0  0  0  0  0  0  0  0
   -2.1294   22.4828  -28.3873 H   0  0  0  0  0  0  0  0  0  0  0  0
   -3.0184   21.0543  -27.7281 H   0  0  0  0  0  0  0  0  0  0  0  0
   -3.8670   26.4560  -30.3600 H   0  0  0  0  0  0  0  0  0  0  0  0
   -3.5300   24.9170  -31.2210 H   0  0  0  0  0  0  0  0  0  0  0  0
   -8.1499   24.2591  -31.2580 H   0  0  0  0  0  0  0  0  0  0  0  0
   -9.4672   21.8595  -32.0803 H   0  0  0  0  0  0  0  0  0  0  0  0
   -9.0770   19.4166  -32.5360 H   0  0  0  0  0  0  0  0  0  0  0  0
   -5.8470   17.6940  -31.7393 H   0  0  0  0  0  0  0  0  0  0  0  0
   -7.6182   17.4736  -32.0148 H   0  0  0  0  0  0  0  0  0  0  0  0
   -6.8996   16.8933  -34.2532 H   0  0  0  0  0  0  0  0  0  0  0  0
   -5.5699   18.4204  -35.5826 H   0  0  0  0  0  0  0  0  0  0  0  0
   -5.2988   19.5250  -34.0540 H   0  0  0  0  0  0  0  0  0  0  0  0
   -4.8729   19.8904  -31.4766 H   0  0  0  0  0  0  0  0  0  0  0  0
  1  2  2  0
  2  3  1  0
  3  4  1  0
  4  5  1  0
  5  6  1  0
  6  7  2  0
  6  8  1  0
  8  9  1  0
  9 10  1  0
 10 11  1  0
 10 12  2  0
  9 13  2  0
 13 14  1  0
 14 15  2  0
 15 16  1  0
 16 17  2  0
 17 18  1  0
 18 19  1  0
 19 20  2  0
 17 21  1  0
 21 22  2  0
 22  8  1  0
 22 14  1  0
  1 23  1  0
  1 24  1  0
  2 25  1  0
  3 26  1  0
  3 27  1  0
  4 28  1  0
  4 29  1  0
 11 30  1  0
 11 31  1  0
 13 32  1  0
 15 33  1  0
 16 34  1  0
 18 35  1  0
 18 36  1  0
 19 37  1  0
 20 38  1  0
 20 39  1  0
 21 40  1  0
M  END
>  <UniqueID>  (87) 
87

>  <SMILES>  (87) 
C=CCCOC(=O)n1c(C(N)=O)cc2ccc(CC=C)cc21

>  <Energy>  (87) 
69.23772604664238

>  <Genealogy>  (87) 
C=CCCOC(=O)n1c(C(N)=O)cc2ccc(CC=C)cc21 (3D coordinates assigned)
C=CCCOC(=O)n1c(C(N)=O)cc2ccc(CC=C)cc21 (optimized conformer: 69.23772604664238 kcal/mol)

>  <smiles>  (87) 
C=CCCOC(=O)n1c(C(N)=O)cc2ccc(CC=C)cc21

>  <score_type>  (87) 
oracle

>  <origin>  (87) 
adg

>  <m_score__min__energy>  (87) 
-8.4299999999999997

>  <m_primary>  (87) 
energy

$$$$
87:0
     RDKit          3D

 38 40  0  0  0  0  0  0  0  0999 V2000
   -3.7210   21.9020  -33.0990 C   0  0  0  0  0  0  0  0  0  0  0  0
   -4.0660   22.4860  -31.7670 C   0  0  0  0  0  0  0  0  0  0  0  0
   -3.1840   22.5380  -30.8690 O   0  0  0  0  0  0  0  0  0  0  0  0
   -5.4060   22.9120  -31.4750 N   0  0  0  0  0  0  0  0  0  0  0  0
   -5.8290   24.1400  -31.0610 C   0  0  0  0  0  0  0  0  0  0  0  0
   -4.9610   25.2710  -30.6740 C   0  0  0  0  0  0  0  0  0  0  0  0
   -3.5630   25.0840  -30.4690 N   0  0  0  0  0  0  0  0  0  0  0  0
   -5.4650   26.4090  -30.4820 O   0  0  0  0  0  0  0  0  0  0  0  0
   -7.2200   24.1690  -30.9680 C   0  0  0  0  0  0  0  0  0  0  0  0
   -7.6370   22.9080  -31.3300 C   0  0  0  0  0  0  0  0  0  0  0  0
   -8.9200   22.3760  -31.4110 C   0  0  0  0  0  0  0  0  0  0  0  0
   -9.0540   21.0400  -31.8260 C   0  0  0  0  0  0  0  0  0  0  0  0
   -7.9110   20.2710  -32.1630 C   0  0  0  0  0  0  0  0  0  0  0  0
   -8.0650   18.8330  -32.5740 C   0  0  0  0  0  0  0  0  0  0  0  0
   -6.7610   18.3030  -33.0920 C   0  0  0  0  0  0  0  0  0  0  0  0
   -6.0950   17.2630  -32.4350 C   0  0  0  0  0  0  0  0  0  0  0  0
   -4.9060   16.7710  -32.9700 C   0  0  0  0  0  0  0  0  0  0  0  0
   -4.4080   17.3240  -34.1530 C   0  0  0  0  0  0  0  0  0  0  0  0
   -3.1330   16.8120  -34.7580 C   0  0  0  0  0  0  0  0  0  0  0  0
   -2.5520   15.8630  -33.9350 F   0  0  0  0  0  0  0  0  0  0  0  0
   -3.4000   16.2350  -35.9870 F   0  0  0  0  0  0  0  0  0  0  0  0
   -2.2490   17.8590  -34.9290 F   0  0  0  0  0  0  0  0  0  0  0  0
   -5.1020   18.3250  -34.7590 N   0  0  0  0  0  0  0  0  0  0  0  0
   -6.2410   18.7970  -34.2480 N   0  0  0  0  0  0  0  0  0  0  0  0
   -6.6240   20.8430  -32.0580 C   0  0  0  0  0  0  0  0  0  0  0  0
   -6.5220   22.1700  -31.6300 C   0  0  0  0  0  0  0  0  0  0  0  0
   -3.1663   20.9631  -32.9551 H   0  0  0  0  0  0  0  0  0  0  0  0
   -4.6447   21.6998  -33.6610 H   0  0  0  0  0  0  0  0  0  0  0  0
   -3.0981   22.6134  -33.6610 H   0  0  0  0  0  0  0  0  0  0  0  0
   -2.9610   24.6720  -31.2170 H   0  0  0  0  0  0  0  0  0  0  0  0
   -7.8505   25.0193  -30.6688 H   0  0  0  0  0  0  0  0  0  0  0  0
   -9.8022   22.9823  -31.1580 H   0  0  0  0  0  0  0  0  0  0  0  0
  -10.0542   20.5868  -31.8900 H   0  0  0  0  0  0  0  0  0  0  0  0
   -8.3801   18.2377  -31.7043 H   0  0  0  0  0  0  0  0  0  0  0  0
   -8.8227   18.7646  -33.3685 H   0  0  0  0  0  0  0  0  0  0  0  0
   -6.5051   16.8385  -31.5068 H   0  0  0  0  0  0  0  0  0  0  0  0
   -4.3652   15.9561  -32.4666 H   0  0  0  0  0  0  0  0  0  0  0  0
   -5.7252   20.2596  -32.3065 H   0  0  0  0  0  0  0  0  0  0  0  0
  1  2  1  0
  2  3  2  0
  2  4  1  0
  4  5  1  0
  5  6  1  0
  6  7  1  0
  6  8  2  0
  5  9  2  0
  9 10  1  0
 10 11  2  0
 11 12  1  0
 12 13  2  0
 13 14  1  0
 14 15  1  0
 15 16  2  0
 16 17  1  0
 17 18  2  0
 18 19  1  0
 19 20  1  0
 19 21  1  0
 19 22  1  0
 18 23  1  0
 23 24  2  0
 13 25  1  0
 25 26  2  0
 26  4  1  0
 26 10  1  0
 24 15  1  0
  1 27  1  0
  1 28  1  0
  1 29  1  0
  7 30  1  0
  9 31  1  0
 11 32  1  0
 12 33  1  0
 14 34  1  0
 14 35  1  0
 16 36  1  0
 17 37  1  0
 25 38  1  0
M  CHG  1   7  -1
M  END
>  <UniqueID>  (88) 
88

>  <SMILES>  (88) 
CC(=O)n1c(C([NH-])=O)cc2ccc(Cc3ccc(C(F)(F)F)nn3)cc21

>  <Energy>  (88) 
78.47261728512761

>  <Genealogy>  (88) 
CC(=O)n1c(C([NH-])=O)cc2ccc(Cc3ccc(C(F)(F)F)nn3)cc21 (protonated)
CC(=O)n1c(C([NH-])=O)cc2ccc(Cc3ccc(C(F)(F)F)nn3)cc21 (3D coordinates assigned)
CC(=O)n1c(C([NH-])=O)cc2ccc(Cc3ccc(C(F)(F)F)nn3)cc21 (optimized conformer: 78.47261728512761 kcal/mol)

>  <smiles>  (88) 
CC(=O)n1c(C(N)=O)cc2ccc(Cc3ccc(C(F)(F)F)nn3)cc21

>  <score_type>  (88) 
oracle

>  <origin>  (88) 
adg

>  <m_score__min__energy>  (88) 
-11.31

>  <m_primary>  (88) 
energy

$$$$
88:0
     RDKit          3D

 38 39  0  0  0  0  0  0  0  0999 V2000
   -3.9990   23.0570  -28.3760 C   0  0  0  0  0  0  0  0  0  0  0  0
   -2.7160   22.9950  -29.2170 C   0  0  0  0  0  0  0  0  0  0  0  0
   -2.1990   21.5450  -29.2300 C   0  0  0  0  0  0  0  0  0  0  0  0
   -1.6680   23.9420  -28.6000 C   0  0  0  0  0  0  0  0  0  0  0  0
   -3.0590   23.4200  -30.5440 O   0  0  0  0  0  0  0  0  0  0  0  0
   -3.8500   22.7160  -31.4640 C   0  0  0  0  0  0  0  0  0  0  0  0
   -3.3230   22.0300  -32.3800 O   0  0  0  0  0  0  0  0  0  0  0  0
   -5.2820   22.7820  -31.3590 N   0  0  0  0  0  0  0  0  0  0  0  0
   -6.0410   23.8600  -31.0150 C   0  0  0  0  0  0  0  0  0  0  0  0
   -5.5320   25.1550  -30.5220 C   0  0  0  0  0  0  0  0  0  0  0  0
   -4.1920   25.5730  -30.7880 N   0  0  0  0  0  0  0  0  0  0  0  0
   -6.2740   25.8800  -29.8080 O   0  0  0  0  0  0  0  0  0  0  0  0
   -7.3960   23.5650  -31.1370 C   0  0  0  0  0  0  0  0  0  0  0  0
   -7.4470   22.2550  -31.5590 C   0  0  0  0  0  0  0  0  0  0  0  0
   -8.5450   21.4500  -31.8460 C   0  0  0  0  0  0  0  0  0  0  0  0
   -8.3020   20.1410  -32.2930 C   0  0  0  0  0  0  0  0  0  0  0  0
   -6.9760   19.6710  -32.4660 C   0  0  0  0  0  0  0  0  0  0  0  0
   -6.7290   18.2650  -32.9250 C   0  0  0  0  0  0  0  0  0  0  0  0
   -5.7210   18.2840  -34.5780 Br  0  0  0  0  0  0  0  0  0  0  0  0
   -5.8870   20.5140  -32.1540 C   0  0  0  0  0  0  0  0  0  0  0  0
   -6.1570   21.8060  -31.6880 C   0  0  0  0  0  0  0  0  0  0  0  0
   -3.7380   23.0444  -27.3075 H   0  0  0  0  0  0  0  0  0  0  0  0
   -4.5458   23.9826  -28.6090 H   0  0  0  0  0  0  0  0  0  0  0  0
   -4.6325   22.1884  -28.6090 H   0  0  0  0  0  0  0  0  0  0  0  0
   -2.0729   21.1914  -28.1960 H   0  0  0  0  0  0  0  0  0  0  0  0
   -2.9233   20.9021  -29.7516 H   0  0  0  0  0  0  0  0  0  0  0  0
   -1.2314   21.5054  -29.7516 H   0  0  0  0  0  0  0  0  0  0  0  0
   -1.7267   23.8889  -27.5029 H   0  0  0  0  0  0  0  0  0  0  0  0
   -0.6625   23.6401  -28.9284 H   0  0  0  0  0  0  0  0  0  0  0  0
   -1.8668   24.9728  -28.9284 H   0  0  0  0  0  0  0  0  0  0  0  0
   -3.8630   26.5110  -30.4680 H   0  0  0  0  0  0  0  0  0  0  0  0
   -3.5000   24.9250  -31.2240 H   0  0  0  0  0  0  0  0  0  0  0  0
   -8.2452   24.2355  -30.9386 H   0  0  0  0  0  0  0  0  0  0  0  0
   -9.5714   21.8271  -31.7265 H   0  0  0  0  0  0  0  0  0  0  0  0
   -9.1490   19.4739  -32.5110 H   0  0  0  0  0  0  0  0  0  0  0  0
   -6.1587   17.7242  -32.1554 H   0  0  0  0  0  0  0  0  0  0  0  0
   -7.6930   17.7624  -33.0926 H   0  0  0  0  0  0  0  0  0  0  0  0
   -4.8512   20.1637  -32.2743 H   0  0  0  0  0  0  0  0  0  0  0  0
  1  2  1  0
  2  3  1  0
  2  4  1  0
  2  5  1  0
  5  6  1  0
  6  7  2  0
  6  8  1  0
  8  9  1  0
  9 10  1  0
 10 11  1  0
 10 12  2  0
  9 13  2  0
 13 14  1  0
 14 15  2  0
 15 16  1  0
 16 17  2  0
 17 18  1  0
 18 19  1  0
 17 20  1  0
 20 21  2  0
 21  8  1  0
 21 14  1  0
  1 22  1  0
  1 23  1  0
  1 24  1  0
  3 25  1  0
  3 26  1  0
  3 27  1  0
  4 28  1  0
  4 29  1  0
  4 30  1  0
 11 31  1  0
 11 32  1  0
 13 33  1  0
 15 34  1  0
 16 35  1  0
 18 36  1  0
 18 37  1  0
 20 38  1  0
M  END
>  <UniqueID>  (89) 
89

>  <SMILES>  (89) 
CC(C)(C)OC(=O)n1c(C(N)=O)cc2ccc(CBr)cc21

>  <Energy>  (89) 
71.03822352664639

>  <Genealogy>  (89) 
CC(C)(C)OC(=O)n1c(C(N)=O)cc2ccc(CBr)cc21 (3D coordinates assigned)
CC(C)(C)OC(=O)n1c(C(N)=O)cc2ccc(CBr)cc21 (optimized conformer: 71.03822352664639 kcal/mol)

>  <smiles>  (89) 
CC(C)(C)OC(=O)n1c(C(N)=O)cc2ccc(CBr)cc21

>  <score_type>  (89) 
oracle

>  <origin>  (89) 
adg

>  <m_score__min__energy>  (89) 
-8.6999999999999993

>  <m_primary>  (89) 
energy

$$$$
89:0
     RDKit          3D

 33 34  0  0  0  0  0  0  0  0999 V2000
   -3.6820   19.6740  -33.9090 N   0  0  0  0  0  0  0  0  0  0  0  0
   -4.6240   19.0100  -34.0090 C   0  0  0  0  0  0  0  0  0  0  0  0
   -5.8190   18.1680  -34.1380 C   0  0  0  0  0  0  0  0  0  0  0  0
   -6.4920   17.9840  -32.7720 C   0  0  0  0  0  0  0  0  0  0  0  0
   -7.8600   18.6780  -32.6990 C   0  0  0  0  0  0  0  0  0  0  0  0
   -7.7600   20.0550  -32.0930 C   0  0  0  0  0  0  0  0  0  0  0  0
   -8.8960   20.6460  -31.4860 C   0  0  0  0  0  0  0  0  0  0  0  0
   -8.8230   21.9350  -30.9310 C   0  0  0  0  0  0  0  0  0  0  0  0
   -7.6090   22.6120  -31.0140 C   0  0  0  0  0  0  0  0  0  0  0  0
   -7.2540   23.8560  -30.5440 C   0  0  0  0  0  0  0  0  0  0  0  0
   -5.9160   24.0180  -30.9010 C   0  0  0  0  0  0  0  0  0  0  0  0
   -5.1480   25.2550  -30.6440 C   0  0  0  0  0  0  0  0  0  0  0  0
   -3.7410   25.2140  -30.4240 N   0  0  0  0  0  0  0  0  0  0  0  0
   -5.7380   26.3680  -30.6530 O   0  0  0  0  0  0  0  0  0  0  0  0
   -5.4620   22.9170  -31.5630 N   0  0  0  0  0  0  0  0  0  0  0  0
   -4.1330   22.6590  -32.0390 C   0  0  0  0  0  0  0  0  0  0  0  0
   -3.9250   22.1060  -33.3380 N   0  0  0  0  0  0  0  0  0  0  0  0
   -3.1410   22.9170  -31.3050 O   0  0  0  0  0  0  0  0  0  0  0  0
   -6.5090   22.0640  -31.6210 C   0  0  0  0  0  0  0  0  0  0  0  0
   -6.5460   20.7730  -32.1590 C   0  0  0  0  0  0  0  0  0  0  0  0
   -6.5274   18.6473  -34.8297 H   0  0  0  0  0  0  0  0  0  0  0  0
   -5.5215   17.1824  -34.5254 H   0  0  0  0  0  0  0  0  0  0  0  0
   -6.6305   16.9084  -32.5877 H   0  0  0  0  0  0  0  0  0  0  0  0
   -5.8415   18.4409  -32.0117 H   0  0  0  0  0  0  0  0  0  0  0  0
   -8.2689   18.7660  -33.7164 H   0  0  0  0  0  0  0  0  0  0  0  0
   -8.5168   18.0706  -32.0589 H   0  0  0  0  0  0  0  0  0  0  0  0
   -9.8445   20.0902  -31.4489 H   0  0  0  0  0  0  0  0  0  0  0  0
   -9.6971   22.3945  -30.4464 H   0  0  0  0  0  0  0  0  0  0  0  0
   -7.8907   24.5706  -30.0019 H   0  0  0  0  0  0  0  0  0  0  0  0
   -3.0770   25.0660  -31.2170 H   0  0  0  0  0  0  0  0  0  0  0  0
   -2.9580   21.8920  -33.6710 H   0  0  0  0  0  0  0  0  0  0  0  0
   -4.7300   21.9460  -33.9810 H   0  0  0  0  0  0  0  0  0  0  0  0
   -5.6523   20.3288  -32.6215 H   0  0  0  0  0  0  0  0  0  0  0  0
  1  2  3  0
  2  3  1  0
  3  4  1  0
  4  5  1  0
  5  6  1  0
  6  7  2  0
  7  8  1  0
  8  9  2  0
  9 10  1  0
 10 11  2  0
 11 12  1  0
 12 13  1  0
 12 14  2  0
 11 15  1  0
 15 16  1  0
 16 17  1  0
 16 18  2  0
 15 19  1  0
 19 20  2  0
 20  6  1  0
 19  9  1  0
  3 21  1  0
  3 22  1  0
  4 23  1  0
  4 24  1  0
  5 25  1  0
  5 26  1  0
  7 27  1  0
  8 28  1  0
 10 29  1  0
 13 30  1  0
 17 31  1  0
 17 32  1  0
 20 33  1  0
M  CHG  1  13  -1
M  END
>  <UniqueID>  (90) 
90

>  <SMILES>  (90) 
N#CCCCc1ccc2cc(C([NH-])=O)n(C(N)=O)c2c1

>  <Energy>  (90) 
65.69806078520567

>  <Genealogy>  (90) 
N#CCCCc1ccc2cc(C([NH-])=O)n(C(N)=O)c2c1 (protonated)
N#CCCCc1ccc2cc(C([NH-])=O)n(C(N)=O)c2c1 (3D coordinates assigned)
N#CCCCc1ccc2cc(C([NH-])=O)n(C(N)=O)c2c1 (optimized conformer: 65.69806078520567 kcal/mol)

>  <smiles>  (90) 
N#CCCCc1ccc2cc(C(N)=O)n(C(N)=O)c2c1

>  <score_type>  (90) 
oracle

>  <origin>  (90) 
adg

>  <m_score__min__energy>  (90) 
-10.57

>  <m_primary>  (90) 
energy

$$$$
90:0
     RDKit          3D

 29 31  0  0  0  0  0  0  0  0999 V2000
   -1.4750   25.9380  -28.9350 N   0  0  0  0  0  0  0  0  0  0  0  0
   -0.8850   24.6450  -29.0320 C   0  0  0  0  0  0  0  0  0  0  0  0
    0.1790   24.4040  -28.4010 O   0  0  0  0  0  0  0  0  0  0  0  0
   -1.5330   23.5680  -29.8110 C   0  0  0  0  0  0  0  0  0  0  0  0
   -0.8550   22.4380  -30.2610 C   0  0  0  0  0  0  0  0  0  0  0  0
   -1.8150   21.6500  -30.8550 C   0  0  0  0  0  0  0  0  0  0  0  0
   -1.6940   20.4140  -31.4820 C   0  0  0  0  0  0  0  0  0  0  0  0
   -2.8500   19.8410  -32.0370 C   0  0  0  0  0  0  0  0  0  0  0  0
   -4.0960   20.5120  -31.9640 C   0  0  0  0  0  0  0  0  0  0  0  0
   -5.2970   19.9010  -32.5640 C   0  0  0  0  0  0  0  0  0  0  0  0
   -5.3010   19.1840  -33.7070 N   0  0  0  0  0  0  0  0  0  0  0  0
   -6.5530   18.8100  -33.9110 N   0  0  0  0  0  0  0  0  0  0  0  0
   -7.2670   19.3120  -32.8860 C   0  0  0  0  0  0  0  0  0  0  0  0
   -8.7370   19.1280  -32.7200 C   0  0  0  0  0  0  0  0  0  0  0  0
   -8.9850   18.3630  -31.5960 F   0  0  0  0  0  0  0  0  0  0  0  0
   -9.3470   20.3600  -32.5810 F   0  0  0  0  0  0  0  0  0  0  0  0
   -6.5040   19.9820  -32.0560 O   0  0  0  0  0  0  0  0  0  0  0  0
   -4.1790   21.7680  -31.3200 C   0  0  0  0  0  0  0  0  0  0  0  0
   -3.0140   22.3060  -30.7590 C   0  0  0  0  0  0  0  0  0  0  0  0
   -2.8590   23.4880  -30.1220 N   0  0  0  0  0  0  0  0  0  0  0  0
   -3.8760   24.4800  -29.9090 C   0  0  0  0  0  0  0  0  0  0  0  0
   -4.7580   24.3080  -29.0280 O   0  0  0  0  0  0  0  0  0  0  0  0
   -3.8790   25.6520  -30.6560 O   0  0  0  0  0  0  0  0  0  0  0  0
   -2.5110   26.0600  -28.9680 H   0  0  0  0  0  0  0  0  0  0  0  0
    0.2189   22.2212  -30.1628 H   0  0  0  0  0  0  0  0  0  0  0  0
   -0.7227   19.9012  -31.5413 H   0  0  0  0  0  0  0  0  0  0  0  0
   -2.7875   18.8614  -32.5334 H   0  0  0  0  0  0  0  0  0  0  0  0
   -9.1406   18.6179  -33.6070 H   0  0  0  0  0  0  0  0  0  0  0  0
   -5.1349   22.3091  -31.2611 H   0  0  0  0  0  0  0  0  0  0  0  0
  1  2  1  0
  2  3  2  0
  2  4  1  0
  4  5  2  0
  5  6  1  0
  6  7  2  0
  7  8  1  0
  8  9  2  0
  9 10  1  0
 10 11  2  0
 11 12  1  0
 12 13  2  0
 13 14  1  0
 14 15  1  0
 14 16  1  0
 13 17  1  0
  9 18  1  0
 18 19  2  0
 19 20  1  0
 20 21  1  0
 21 22  2  0
 21 23  1  0
 20  4  1  0
 19  6  1  0
 17 10  1  0
  1 24  1  0
  5 25  1  0
  7 26  1  0
  8 27  1  0
 14 28  1  0
 18 29  1  0
M  CHG  2   1  -1  23  -1
M  END
>  <UniqueID>  (91) 
91

>  <SMILES>  (91) 
[NH-]C(=O)c1cc2ccc(-c3nnc(C(F)F)o3)cc2n1C(=O)[O-]

>  <Energy>  (91) 
104.85546937917628

>  <Genealogy>  (91) 
[NH-]C(=O)c1cc2ccc(-c3nnc(C(F)F)o3)cc2n1C(=O)[O-] (protonated)
[NH-]C(=O)c1cc2ccc(-c3nnc(C(F)F)o3)cc2n1C(=O)[O-] (3D coordinates assigned)
[NH-]C(=O)c1cc2ccc(-c3nnc(C(F)F)o3)cc2n1C(=O)[O-] (optimized conformer: 104.85546937917628 kcal/mol)

>  <smiles>  (91) 
NC(=O)c1cc2ccc(-c3nnc(C(F)F)o3)cc2n1C(=O)O

>  <score_type>  (91) 
oracle

>  <origin>  (91) 
adg

>  <m_score__min__energy>  (91) 
-10.640000000000001

>  <m_primary>  (91) 
energy

$$$$
91:0
     RDKit          3D

 57 60  0  0  0  0  0  0  0  0999 V2000
   -3.4300   17.2450  -33.2480 C   0  0  0  0  0  0  0  0  0  0  0  0
   -4.5930   16.3390  -33.3280 N   0  0  0  0  0  0  0  0  0  0  0  0
   -5.4320   16.6370  -34.5120 C   0  0  0  0  0  0  0  0  0  0  0  0
   -6.0960   18.0220  -34.4120 C   0  0  0  0  0  0  0  0  0  0  0  0
   -6.4890   18.3110  -33.0290 N   0  0  0  0  0  0  0  0  0  0  0  0
   -6.7180   19.6700  -32.6090 C   0  0  0  0  0  0  0  0  0  0  0  0
   -8.0250   20.2200  -32.6440 C   0  0  0  0  0  0  0  0  0  0  0  0
   -8.2620   21.5410  -32.2290 C   0  0  0  0  0  0  0  0  0  0  0  0
   -7.1780   22.2860  -31.7760 C   0  0  0  0  0  0  0  0  0  0  0  0
   -7.1160   23.5870  -31.3280 C   0  0  0  0  0  0  0  0  0  0  0  0
   -5.7760   23.8040  -31.0090 C   0  0  0  0  0  0  0  0  0  0  0  0
   -5.2550   25.0670  -30.4490 C   0  0  0  0  0  0  0  0  0  0  0  0
   -3.8620   25.3620  -30.5300 N   0  0  0  0  0  0  0  0  0  0  0  0
   -6.0310   25.8990  -29.9100 O   0  0  0  0  0  0  0  0  0  0  0  0
   -5.0420   22.6850  -31.2580 N   0  0  0  0  0  0  0  0  0  0  0  0
   -3.6310   22.4910  -31.0820 C   0  0  0  0  0  0  0  0  0  0  0  0
   -2.9110   22.3170  -32.1030 O   0  0  0  0  0  0  0  0  0  0  0  0
   -3.0260   22.5370  -29.7690 N   0  0  0  0  0  0  0  0  0  0  0  0
   -3.8540   22.4340  -28.5560 C   0  0  0  0  0  0  0  0  0  0  0  0
   -3.7870   23.7400  -27.7470 C   0  0  0  0  0  0  0  0  0  0  0  0
   -2.4090   24.4300  -27.8130 C   0  0  0  0  0  0  0  0  0  0  0  0
   -1.2960   23.4610  -28.2240 C   0  0  0  0  0  0  0  0  0  0  0  0
   -1.5920   22.8700  -29.6220 C   0  0  1  0  0  0  0  0  0  0  0  0
   -0.7130   21.6370  -29.8960 C   0  0  0  0  0  0  0  0  0  0  0  0
   -1.4910   20.4940  -29.9300 F   0  0  0  0  0  0  0  0  0  0  0  0
   -0.0810   21.7690  -31.1200 F   0  0  0  0  0  0  0  0  0  0  0  0
    0.2460   21.4980  -28.9090 F   0  0  0  0  0  0  0  0  0  0  0  0
   -5.9120   21.7640  -31.7190 C   0  0  0  0  0  0  0  0  0  0  0  0
   -5.6450   20.4570  -32.1330 C   0  0  0  0  0  0  0  0  0  0  0  0
   -6.6510   17.1890  -32.1000 C   0  0  0  0  0  0  0  0  0  0  0  0
   -5.3680   16.3350  -32.0540 C   0  0  0  0  0  0  0  0  0  0  0  0
   -3.1855   17.4355  -32.1926 H   0  0  0  0  0  0  0  0  0  0  0  0
   -2.5670   16.7787  -33.7459 H   0  0  0  0  0  0  0  0  0  0  0  0
   -3.6710   18.1958  -33.7459 H   0  0  0  0  0  0  0  0  0  0  0  0
   -4.2070   15.3740  -33.4660 H   0  0  0  0  0  0  0  0  0  0  0  0
   -4.7996   16.6101  -35.4117 H   0  0  0  0  0  0  0  0  0  0  0  0
   -6.2287   15.8803  -34.5640 H   0  0  0  0  0  0  0  0  0  0  0  0
   -5.3846   18.7887  -34.7527 H   0  0  0  0  0  0  0  0  0  0  0  0
   -6.9965   18.0284  -35.0437 H   0  0  0  0  0  0  0  0  0  0  0  0
   -8.8638   19.6042  -33.0007 H   0  0  0  0  0  0  0  0  0  0  0  0
   -9.2732   21.9728  -32.2612 H   0  0  0  0  0  0  0  0  0  0  0  0
   -7.9468   24.3026  -31.2405 H   0  0  0  0  0  0  0  0  0  0  0  0
   -3.4980   26.0410  -31.2330 H   0  0  0  0  0  0  0  0  0  0  0  0
   -4.8975   22.2402  -28.8451 H   0  0  0  0  0  0  0  0  0  0  0  0
   -3.4740   21.6100  -27.9343 H   0  0  0  0  0  0  0  0  0  0  0  0
   -4.5439   24.4339  -28.1414 H   0  0  0  0  0  0  0  0  0  0  0  0
   -3.9706   23.4801  -26.6940 H   0  0  0  0  0  0  0  0  0  0  0  0
   -2.4567   25.2470  -28.5480 H   0  0  0  0  0  0  0  0  0  0  0  0
   -2.1726   24.8092  -26.8078 H   0  0  0  0  0  0  0  0  0  0  0  0
   -0.3374   23.9998  -28.2528 H   0  0  0  0  0  0  0  0  0  0  0  0
   -1.2445   22.6419  -27.4915 H   0  0  0  0  0  0  0  0  0  0  0  0
   -1.3455   23.6384  -30.3695 H   0  0  0  0  0  0  0  0  0  0  0  0
   -4.6240   20.0500  -32.0896 H   0  0  0  0  0  0  0  0  0  0  0  0
   -6.8616   17.5800  -31.0937 H   0  0  0  0  0  0  0  0  0  0  0  0
   -7.4846   16.5596  -32.4450 H   0  0  0  0  0  0  0  0  0  0  0  0
   -4.7212   16.7246  -31.2540 H   0  0  0  0  0  0  0  0  0  0  0  0
   -5.6824   15.2962  -31.8750 H   0  0  0  0  0  0  0  0  0  0  0  0
  1  2  1  0
  2  3  1  0
  3  4  1  0
  4  5  1  0
  5  6  1  0
  6  7  2  0
  7  8  1  0
  8  9  2  0
  9 10  1  0
 10 11  2  0
 11 12  1  0
 12 13  1  0
 12 14  2  0
 11 15  1  0
 15 16  1  0
 16 17  2  0
 16 18  1  0
 18 19  1  0
 19 20  1  0
 20 21  1  0
 21 22  1  0
 22 23  1  0
 23 24  1  0
 24 25  1  0
 24 26  1  0
 24 27  1  0
 15 28  1  0
 28 29  2  0
  5 30  1  0
 30 31  1  0
 31  2  1  0
 29  6  1  0
 28  9  1  0
 23 18  1  0
  1 32  1  0
  1 33  1  0
  1 34  1  0
  2 35  1  0
  3 36  1  0
  3 37  1  0
  4 38  1  0
  4 39  1  0
  7 40  1  0
  8 41  1  0
 10 42  1  0
 13 43  1  0
 19 44  1  0
 19 45  1  0
 20 46  1  0
 20 47  1  0
 21 48  1  0
 21 49  1  0
 22 50  1  0
 22 51  1  0
 23 52  1  6
 29 53  1  0
 30 54  1  0
 30 55  1  0
 31 56  1  0
 31 57  1  0
M  CHG  2   2   1  13  -1
M  END
>  <UniqueID>  (92) 
92

>  <SMILES>  (92) 
C[NH+]1CCN(c2ccc3cc(C([NH-])=O)n(C(=O)N4CCCC[C@H]4C(F)(F)F)c3c2)CC1

>  <Energy>  (92) 
110.39284266110006

>  <Genealogy>  (92) 
C[NH+]1CCN(c2ccc3cc(C([NH-])=O)n(C(=O)N4CCCCC4C(F)(F)F)c3c2)CC1 (protonated)
C[NH+]1CCN(c2ccc3cc(C([NH-])=O)n(C(=O)N4CCCC[C@H]4C(F)(F)F)c3c2)CC1 (chirality)
C[NH+]1CCN(c2ccc3cc(C([NH-])=O)n(C(=O)N4CCCC[C@H]4C(F)(F)F)c3c2)CC1 (3D coordinates assigned)
C[NH+]1CCN(c2ccc3cc(C([NH-])=O)n(C(=O)N4CCCC[C@H]4C(F)(F)F)c3c2)CC1 (nonaromatic ring conformer: 110.39284266110006 kcal/mol)

>  <smiles>  (92) 
CN1CCN(c2ccc3cc(C(N)=O)n(C(=O)N4CCCCC4C(F)(F)F)c3c2)CC1

>  <score_type>  (92) 
oracle

>  <origin>  (92) 
adg

>  <m_score__min__energy>  (92) 
-11.300000000000001

>  <m_primary>  (92) 
energy

$$$$
92:0
     RDKit          3D

 55 59  0  0  0  0  0  0  0  0999 V2000
   -9.5720   19.6300  -33.0470 C   0  0  0  0  0  0  0  0  0  0  0  0
   -8.2260   20.0860  -32.5640 C   0  0  0  0  0  0  0  0  0  0  0  0
   -8.1260   20.9380  -31.4530 C   0  0  0  0  0  0  0  0  0  0  0  0
   -6.8770   21.3930  -31.0180 C   0  0  0  0  0  0  0  0  0  0  0  0
   -5.7110   21.0120  -31.7040 C   0  0  0  0  0  0  0  0  0  0  0  0
   -4.4290   21.4380  -31.3140 C   0  0  0  0  0  0  0  0  0  0  0  0
   -4.2410   22.3000  -30.1870 N   0  0  0  0  0  0  0  0  0  0  0  0
   -4.7040   23.6940  -30.2990 C   0  0  0  0  0  0  0  0  0  0  0  0
   -4.4210   24.5280  -29.0440 C   0  0  0  0  0  0  0  0  0  0  0  0
   -2.7160   24.3640  -28.5490 S   0  0  0  0  0  0  0  0  0  0  0  0
   -1.8520   25.3040  -29.3410 O   0  0  0  0  0  0  0  0  0  0  0  0
   -2.5890   24.6800  -27.0850 O   0  0  0  0  0  0  0  0  0  0  0  0
   -2.2160   22.6810  -28.8480 C   0  0  0  0  0  0  0  0  0  0  0  0
   -3.4550   21.8130  -29.0460 C   0  0  0  0  0  0  0  0  0  0  0  0
   -3.3430   21.0170  -32.0120 N   0  0  0  0  0  0  0  0  0  0  0  0
   -3.4550   20.1970  -33.0920 C   0  0  0  0  0  0  0  0  0  0  0  0
   -2.2410   19.7450  -33.8160 C   0  0  0  0  0  0  0  0  0  0  0  0
   -2.0520   18.3680  -34.1090 C   0  0  0  0  0  0  0  0  0  0  0  0
   -0.9190   17.9310  -34.8140 C   0  0  0  0  0  0  0  0  0  0  0  0
    0.0060   18.8860  -35.2210 C   0  0  0  0  0  0  0  0  0  0  0  0
    1.1870   18.7320  -35.9100 C   0  0  0  0  0  0  0  0  0  0  0  0
    1.6990   20.0180  -36.0520 C   0  0  0  0  0  0  0  0  0  0  0  0
    2.9140   20.3220  -36.8330 C   0  0  0  0  0  0  0  0  0  0  0  0
    3.9780   21.0920  -36.2740 N   0  0  0  0  0  0  0  0  0  0  0  0
    2.9810   19.9640  -38.0380 O   0  0  0  0  0  0  0  0  0  0  0  0
    0.8810   20.9330  -35.4580 N   0  0  0  0  0  0  0  0  0  0  0  0
    1.1290   22.3390  -35.2750 C   0  0  0  0  0  0  0  0  0  0  0  0
    0.1840   23.3010  -35.7410 N   0  0  0  0  0  0  0  0  0  0  0  0
    2.1870   22.7330  -34.7160 O   0  0  0  0  0  0  0  0  0  0  0  0
   -0.1580   20.2220  -34.9590 C   0  0  0  0  0  0  0  0  0  0  0  0
   -1.2680   20.6830  -34.2390 C   0  0  0  0  0  0  0  0  0  0  0  0
   -4.6880   19.7820  -33.4880 N   0  0  0  0  0  0  0  0  0  0  0  0
   -5.8120   20.1650  -32.8270 C   0  0  0  0  0  0  0  0  0  0  0  0
   -7.0640   19.7130  -33.2560 C   0  0  0  0  0  0  0  0  0  0  0  0
  -10.2169   19.4115  -32.1831 H   0  0  0  0  0  0  0  0  0  0  0  0
  -10.0310   20.4228  -33.6560 H   0  0  0  0  0  0  0  0  0  0  0  0
   -9.4546   18.7215  -33.6560 H   0  0  0  0  0  0  0  0  0  0  0  0
   -9.0366   21.2501  -30.9206 H   0  0  0  0  0  0  0  0  0  0  0  0
   -6.8072   22.0496  -30.1382 H   0  0  0  0  0  0  0  0  0  0  0  0
   -4.1944   24.1639  -31.1531 H   0  0  0  0  0  0  0  0  0  0  0  0
   -5.7954   23.6658  -30.4330 H   0  0  0  0  0  0  0  0  0  0  0  0
   -4.6348   25.5857  -29.2576 H   0  0  0  0  0  0  0  0  0  0  0  0
   -5.0626   24.1662  -28.2270 H   0  0  0  0  0  0  0  0  0  0  0  0
   -1.5900   22.6389  -29.7515 H   0  0  0  0  0  0  0  0  0  0  0  0
   -1.6405   22.3098  -27.9872 H   0  0  0  0  0  0  0  0  0  0  0  0
   -3.1444   20.7750  -29.2359 H   0  0  0  0  0  0  0  0  0  0  0  0
   -4.0744   21.8608  -28.1382 H   0  0  0  0  0  0  0  0  0  0  0  0
   -2.8027   17.6347  -33.7794 H   0  0  0  0  0  0  0  0  0  0  0  0
   -0.7677   16.8647  -35.0377 H   0  0  0  0  0  0  0  0  0  0  0  0
    1.6314   17.7929  -36.2714 H   0  0  0  0  0  0  0  0  0  0  0  0
    4.8300   21.3000  -36.8400 H   0  0  0  0  0  0  0  0  0  0  0  0
    3.8780   21.5570  -35.3450 H   0  0  0  0  0  0  0  0  0  0  0  0
   -0.8400   23.1010  -35.7210 H   0  0  0  0  0  0  0  0  0  0  0  0
   -1.3814   21.7522  -34.0069 H   0  0  0  0  0  0  0  0  0  0  0  0
   -7.1380   19.0622  -34.1398 H   0  0  0  0  0  0  0  0  0  0  0  0
  1  2  1  0
  2  3  2  0
  3  4  1  0
  4  5  2  0
  5  6  1  0
  6  7  1  0
  7  8  1  0
  8  9  1  0
  9 10  1  0
 10 11  2  0
 10 12  2  0
 10 13  1  0
 13 14  1  0
  6 15  2  0
 15 16  1  0
 16 17  1  0
 17 18  2  0
 18 19  1  0
 19 20  2  0
 20 21  1  0
 21 22  2  0
 22 23  1  0
 23 24  1  0
 23 25  2  0
 22 26  1  0
 26 27  1  0
 27 28  1  0
 27 29  2  0
 26 30  1  0
 30 31  2  0
 16 32  2  0
 32 33  1  0
 33 34  2  0
 34  2  1  0
 33  5  1  0
 14  7  1  0
 31 17  1  0
 30 20  1  0
  1 35  1  0
  1 36  1  0
  1 37  1  0
  3 38  1  0
  4 39  1  0
  8 40  1  0
  8 41  1  0
  9 42  1  0
  9 43  1  0
 13 44  1  0
 13 45  1  0
 14 46  1  0
 14 47  1  0
 18 48  1  0
 19 49  1  0
 21 50  1  0
 24 51  1  0
 24 52  1  0
 28 53  1  0
 31 54  1  0
 34 55  1  0
M  CHG  1  28  -1
M  END
>  <UniqueID>  (93) 
93

>  <SMILES>  (93) 
Cc1ccc2c(N3CCS(=O)(=O)CC3)nc(-c3ccc4cc(C(N)=O)n(C([NH-])=O)c4c3)nc2c1

>  <Energy>  (93) 
105.2877304811546

>  <Genealogy>  (93) 
Cc1ccc2c(N3CCS(=O)(=O)CC3)nc(-c3ccc4cc(C(N)=O)n(C([NH-])=O)c4c3)nc2c1 (protonated)
Cc1ccc2c(N3CCS(=O)(=O)CC3)nc(-c3ccc4cc(C(N)=O)n(C([NH-])=O)c4c3)nc2c1 (3D coordinates assigned)
Cc1ccc2c(N3CCS(=O)(=O)CC3)nc(-c3ccc4cc(C(N)=O)n(C([NH-])=O)c4c3)nc2c1 (nonaromatic ring conformer: 105.2877304811546 kcal/mol)

>  <smiles>  (93) 
Cc1ccc2c(N3CCS(=O)(=O)CC3)nc(-c3ccc4cc(C(N)=O)n(C(N)=O)c4c3)nc2c1

>  <score_type>  (93) 
oracle

>  <origin>  (93) 
adg

>  <m_score__min__energy>  (93) 
-11.109999999999999

>  <m_primary>  (93) 
energy

$$$$
93:0
     RDKit          3D

 54 57  0  0  0  0  0  0  0  0999 V2000
   -9.0790   20.7410  -32.1550 C   0  0  0  0  0  0  0  0  0  0  0  0
   -7.8770   21.0240  -31.2530 C   0  0  0  0  0  0  0  0  0  0  0  0
   -7.8610   22.4310  -30.7950 N   0  0  0  0  0  0  0  0  0  0  0  0
   -6.7590   22.6780  -29.8250 C   0  0  0  0  0  0  0  0  0  0  0  0
   -6.3130   24.1450  -29.8080 C   0  0  0  0  0  0  0  0  0  0  0  0
   -5.7540   24.5650  -31.1820 C   0  0  0  0  0  0  0  0  0  0  0  0
   -4.3180   24.2980  -31.2210 N   0  0  0  0  0  0  0  0  0  0  0  0
   -3.4850   24.2260  -30.0590 C   0  0  0  0  0  0  0  0  0  0  0  0
   -3.7770   24.8950  -29.0320 O   0  0  0  0  0  0  0  0  0  0  0  0
   -2.3300   23.3710  -30.0570 N   0  0  0  0  0  0  0  0  0  0  0  0
   -1.1040   23.6340  -29.5190 C   0  0  0  0  0  0  0  0  0  0  0  0
   -0.7680   24.8010  -28.6750 C   0  0  0  0  0  0  0  0  0  0  0  0
   -1.5460   25.9970  -28.7440 N   0  0  0  0  0  0  0  0  0  0  0  0
    0.2320   24.7630  -27.9100 O   0  0  0  0  0  0  0  0  0  0  0  0
   -0.2190   22.5940  -29.7930 C   0  0  0  0  0  0  0  0  0  0  0  0
   -0.9450   21.6770  -30.5180 C   0  0  0  0  0  0  0  0  0  0  0  0
   -0.5550   20.4570  -31.0600 C   0  0  0  0  0  0  0  0  0  0  0  0
   -1.5070   19.7270  -31.7900 C   0  0  0  0  0  0  0  0  0  0  0  0
   -2.8240   20.2250  -31.9720 C   0  0  0  0  0  0  0  0  0  0  0  0
   -3.8190   19.4510  -32.7550 C   0  0  0  0  0  0  0  0  0  0  0  0
   -5.1770   19.8230  -32.7570 C   0  0  0  0  0  0  0  0  0  0  0  0
   -6.1110   19.0910  -33.4950 C   0  0  0  0  0  0  0  0  0  0  0  0
   -5.7040   17.9810  -34.2400 C   0  0  0  0  0  0  0  0  0  0  0  0
   -6.6140   17.2740  -34.9540 F   0  0  0  0  0  0  0  0  0  0  0  0
   -4.3590   17.6010  -34.2460 C   0  0  0  0  0  0  0  0  0  0  0  0
   -3.9600   16.5260  -34.9710 F   0  0  0  0  0  0  0  0  0  0  0  0
   -3.4210   18.3300  -33.5090 C   0  0  0  0  0  0  0  0  0  0  0  0
   -3.1790   21.4720  -31.4010 C   0  0  0  0  0  0  0  0  0  0  0  0
   -2.2150   22.1690  -30.6640 C   0  0  0  0  0  0  0  0  0  0  0  0
   -6.4610   23.8280  -32.3440 C   0  0  0  0  0  0  0  0  0  0  0  0
   -7.8720   23.3750  -31.9440 C   0  0  0  0  0  0  0  0  0  0  0  0
   -9.9626   20.5330  -31.5338 H   0  0  0  0  0  0  0  0  0  0  0  0
   -9.2753   21.6175  -32.7900 H   0  0  0  0  0  0  0  0  0  0  0  0
   -8.8637   19.8690  -32.7900 H   0  0  0  0  0  0  0  0  0  0  0  0
   -7.9256   20.3630  -30.3751 H   0  0  0  0  0  0  0  0  0  0  0  0
   -6.9603   20.8395  -31.8323 H   0  0  0  0  0  0  0  0  0  0  0  0
   -7.1063   22.4027  -28.8182 H   0  0  0  0  0  0  0  0  0  0  0  0
   -5.8969   22.0690  -30.1346 H   0  0  0  0  0  0  0  0  0  0  0  0
   -7.1756   24.7810  -29.5602 H   0  0  0  0  0  0  0  0  0  0  0  0
   -5.5202   24.2630  -29.0546 H   0  0  0  0  0  0  0  0  0  0  0  0
   -5.9425   25.6408  -31.3130 H   0  0  0  0  0  0  0  0  0  0  0  0
   -1.2800   26.8280  -28.1700 H   0  0  0  0  0  0  0  0  0  0  0  0
   -2.4090   26.0500  -29.3280 H   0  0  0  0  0  0  0  0  0  0  0  0
    0.8369   22.5211  -29.4933 H   0  0  0  0  0  0  0  0  0  0  0  0
    0.4674   20.0757  -30.9212 H   0  0  0  0  0  0  0  0  0  0  0  0
   -1.2286   18.7565  -32.2266 H   0  0  0  0  0  0  0  0  0  0  0  0
   -5.5050   20.6959  -32.1736 H   0  0  0  0  0  0  0  0  0  0  0  0
   -7.1697   19.3894  -33.4895 H   0  0  0  0  0  0  0  0  0  0  0  0
   -2.3640   18.0257  -33.5181 H   0  0  0  0  0  0  0  0  0  0  0  0
   -4.1904   21.8834  -31.5341 H   0  0  0  0  0  0  0  0  0  0  0  0
   -6.5341   24.5068  -33.2065 H   0  0  0  0  0  0  0  0  0  0  0  0
   -5.8701   22.9357  -32.5984 H   0  0  0  0  0  0  0  0  0  0  0  0
   -8.4621   24.2611  -31.6673 H   0  0  0  0  0  0  0  0  0  0  0  0
   -8.3118   22.8499  -32.8047 H   0  0  0  0  0  0  0  0  0  0  0  0
  1  2  1  0
  2  3  1  0
  3  4  1  0
  4  5  1  0
  5  6  1  0
  6  7  1  0
  7  8  1  0
  8  9  2  0
  8 10  1  0
 10 11  1  0
 11 12  1  0
 12 13  1  0
 12 14  2  0
 11 15  2  0
 15 16  1  0
 16 17  2  0
 17 18  1  0
 18 19  2  0
 19 20  1  0
 20 21  2  0
 21 22  1  0
 22 23  2  0
 23 24  1  0
 23 25  1  0
 25 26  1  0
 25 27  2  0
 19 28  1  0
 28 29  2  0
  6 30  1  0
 30 31  1  0
 31  3  1  0
 29 10  1  0
 29 16  1  0
 27 20  1  0
  1 32  1  0
  1 33  1  0
  1 34  1  0
  2 35  1  0
  2 36  1  0
  4 37  1  0
  4 38  1  0
  5 39  1  0
  5 40  1  0
  6 41  1  0
 13 42  1  0
 13 43  1  0
 15 44  1  0
 17 45  1  0
 18 46  1  0
 21 47  1  0
 22 48  1  0
 27 49  1  0
 28 50  1  0
 30 51  1  0
 30 52  1  0
 31 53  1  0
 31 54  1  0
M  CHG  1   7  -1
M  END
>  <UniqueID>  (94) 
94

>  <SMILES>  (94) 
CCN1CCC([N-]C(=O)n2c(C(N)=O)cc3ccc(-c4ccc(F)c(F)c4)cc32)CC1

>  <Energy>  (94) 
105.77284955791937

>  <Genealogy>  (94) 
CCN1CCC([N-]C(=O)n2c(C(N)=O)cc3ccc(-c4ccc(F)c(F)c4)cc32)CC1 (protonated)
CCN1CCC([N-]C(=O)n2c(C(N)=O)cc3ccc(-c4ccc(F)c(F)c4)cc32)CC1 (3D coordinates assigned)
CCN1CCC([N-]C(=O)n2c(C(N)=O)cc3ccc(-c4ccc(F)c(F)c4)cc32)CC1 (nonaromatic ring conformer: 105.77284955791937 kcal/mol)

>  <smiles>  (94) 
CCN1CCC(NC(=O)n2c(C(N)=O)cc3ccc(-c4ccc(F)c(F)c4)cc32)CC1

>  <score_type>  (94) 
oracle

>  <origin>  (94) 
adg

>  <m_score__min__energy>  (94) 
-11.42

>  <m_primary>  (94) 
energy

$$$$
94:0
     RDKit          3D

 80 83  0  0  0  0  0  0  0  0999 V2000
   -5.7030   13.3050  -34.6000 C   0  0  0  0  0  0  0  0  0  0  0  0
   -4.5270   14.3130  -34.6750 C   0  0  1  0  0  0  0  0  0  0  0  0
   -5.0030   15.6860  -34.1830 C   0  0  0  0  0  0  0  0  0  0  0  0
   -4.6900   16.8470  -34.9110 C   0  0  0  0  0  0  0  0  0  0  0  0
   -5.0480   18.1110  -34.4300 C   0  0  0  0  0  0  0  0  0  0  0  0
   -5.7770   18.2530  -33.2320 C   0  0  0  0  0  0  0  0  0  0  0  0
   -6.1310   19.6100  -32.6960 C   0  0  0  0  0  0  0  0  0  0  0  0
   -7.4710   20.0950  -32.7710 C   0  0  0  0  0  0  0  0  0  0  0  0
   -7.7970   21.3920  -32.3460 C   0  0  0  0  0  0  0  0  0  0  0  0
   -6.7850   22.1870  -31.8280 C   0  0  0  0  0  0  0  0  0  0  0  0
   -6.8390   23.4650  -31.3290 C   0  0  0  0  0  0  0  0  0  0  0  0
   -5.5450   23.7500  -30.9040 C   0  0  0  0  0  0  0  0  0  0  0  0
   -5.1310   25.0720  -30.3880 C   0  0  0  0  0  0  0  0  0  0  0  0
   -3.9030   25.6530  -30.8190 N   0  0  0  0  0  0  0  0  0  0  0  0
   -5.8350   25.6850  -29.5390 O   0  0  0  0  0  0  0  0  0  0  0  0
   -4.7230   22.6840  -31.1220 N   0  0  0  0  0  0  0  0  0  0  0  0
   -3.3800   22.5110  -30.6390 C   0  0  0  0  0  0  0  0  0  0  0  0
   -2.7770   23.4770  -30.0890 O   0  0  0  0  0  0  0  0  0  0  0  0
   -2.7380   21.2780  -30.8310 O   0  0  0  0  0  0  0  0  0  0  0  0
   -1.8950   20.9100  -31.9320 C   0  0  0  0  0  0  0  0  0  0  0  0
   -2.4030   21.5420  -33.2440 C   0  0  0  0  0  0  0  0  0  0  0  0
   -1.8220   19.3760  -32.0590 C   0  0  0  0  0  0  0  0  0  0  0  0
   -0.4880   21.4530  -31.6270 C   0  0  0  0  0  0  0  0  0  0  0  0
   -5.4970   21.7370  -31.7040 C   0  0  0  0  0  0  0  0  0  0  0  0
   -5.1360   20.4520  -32.1370 C   0  0  0  0  0  0  0  0  0  0  0  0
   -6.1430   17.0820  -32.5390 C   0  0  0  0  0  0  0  0  0  0  0  0
   -5.7340   15.8250  -32.9880 C   0  0  0  0  0  0  0  0  0  0  0  0
   -3.3020   13.8690  -33.9220 N   0  0  0  0  0  0  0  0  0  0  0  0
   -2.1690   13.4450  -34.7840 C   0  0  0  0  0  0  0  0  0  0  0  0
   -1.5850   14.6220  -35.5770 C   0  0  0  0  0  0  0  0  0  0  0  0
   -1.3670   15.7860  -34.7140 N   0  0  0  0  0  0  0  0  0  0  0  0
   -0.7250   16.9570  -35.2620 C   0  0  0  0  0  0  0  0  0  0  0  0
   -0.4120   16.9780  -36.4840 O   0  0  0  0  0  0  0  0  0  0  0  0
   -0.4420   18.0560  -34.4360 O   0  0  0  0  0  0  0  0  0  0  0  0
    0.7210   18.8960  -34.5090 C   0  0  0  0  0  0  0  0  0  0  0  0
    1.3120   19.1170  -33.1040 C   0  0  0  0  0  0  0  0  0  0  0  0
    0.2660   20.2550  -35.0750 C   0  0  0  0  0  0  0  0  0  0  0  0
    1.7770   18.2910  -35.4560 C   0  0  0  0  0  0  0  0  0  0  0  0
   -1.5440   15.6430  -33.2650 C   0  0  0  0  0  0  0  0  0  0  0  0
   -2.8560   14.8950  -32.9200 C   0  0  0  0  0  0  0  0  0  0  0  0
   -5.9430   13.0993  -33.5464 H   0  0  0  0  0  0  0  0  0  0  0  0
   -6.5846   13.7323  -35.1002 H   0  0  0  0  0  0  0  0  0  0  0  0
   -5.4156   12.3684  -35.1002 H   0  0  0  0  0  0  0  0  0  0  0  0
   -4.2183   14.3738  -35.7290 H   0  0  0  0  0  0  0  0  0  0  0  0
   -4.1576   16.7607  -35.8697 H   0  0  0  0  0  0  0  0  0  0  0  0
   -4.7560   19.0081  -34.9956 H   0  0  0  0  0  0  0  0  0  0  0  0
   -8.2614   19.4414  -33.1685 H   0  0  0  0  0  0  0  0  0  0  0  0
   -8.8278   21.7684  -32.4216 H   0  0  0  0  0  0  0  0  0  0  0  0
   -7.7184   24.1237  -31.2764 H   0  0  0  0  0  0  0  0  0  0  0  0
   -2.9890   25.3000  -30.4520 H   0  0  0  0  0  0  0  0  0  0  0  0
   -3.0765   22.3799  -33.0107 H   0  0  0  0  0  0  0  0  0  0  0  0
   -1.5474   21.9111  -33.8285 H   0  0  0  0  0  0  0  0  0  0  0  0
   -2.9475   20.7858  -33.8285 H   0  0  0  0  0  0  0  0  0  0  0  0
   -1.8006   18.9256  -31.0557 H   0  0  0  0  0  0  0  0  0  0  0  0
   -2.7038   19.0110  -32.6060 H   0  0  0  0  0  0  0  0  0  0  0  0
   -0.9095   19.0964  -32.6060 H   0  0  0  0  0  0  0  0  0  0  0  0
   -0.3445   21.5084  -30.5378 H   0  0  0  0  0  0  0  0  0  0  0  0
    0.2666   20.7815  -32.0626 H   0  0  0  0  0  0  0  0  0  0  0  0
   -0.3802   22.4573  -32.0626 H   0  0  0  0  0  0  0  0  0  0  0  0
   -4.0970   20.1030  -32.0443 H   0  0  0  0  0  0  0  0  0  0  0  0
   -6.7597   17.1594  -31.6314 H   0  0  0  0  0  0  0  0  0  0  0  0
   -5.9865   14.9305  -32.3997 H   0  0  0  0  0  0  0  0  0  0  0  0
   -3.5740   13.0120  -33.3800 H   0  0  0  0  0  0  0  0  0  0  0  0
   -1.3794   13.0166  -34.1491 H   0  0  0  0  0  0  0  0  0  0  0  0
   -2.5452   12.7017  -35.5023 H   0  0  0  0  0  0  0  0  0  0  0  0
   -0.6242   14.3166  -36.0171 H   0  0  0  0  0  0  0  0  0  0  0  0
   -2.3009   14.9011  -36.3642 H   0  0  0  0  0  0  0  0  0  0  0  0
    0.5666   18.8382  -32.3446 H   0  0  0  0  0  0  0  0  0  0  0  0
    2.2103   18.4940  -32.9819 H   0  0  0  0  0  0  0  0  0  0  0  0
    1.5812   20.1765  -32.9819 H   0  0  0  0  0  0  0  0  0  0  0  0
    0.0368   20.9396  -34.2451 H   0  0  0  0  0  0  0  0  0  0  0  0
    1.0699   20.6829  -35.6920 H   0  0  0  0  0  0  0  0  0  0  0  0
   -0.6335   20.1126  -35.6920 H   0  0  0  0  0  0  0  0  0  0  0  0
    2.5807   17.8305  -34.8627 H   0  0  0  0  0  0  0  0  0  0  0  0
    1.3053   17.5261  -36.0904 H   0  0  0  0  0  0  0  0  0  0  0  0
    2.1983   19.0848  -36.0904 H   0  0  0  0  0  0  0  0  0  0  0  0
   -0.6933   15.0783  -32.8558 H   0  0  0  0  0  0  0  0  0  0  0  0
   -1.5968   16.6496  -32.8246 H   0  0  0  0  0  0  0  0  0  0  0  0
   -2.7114   14.3856  -31.9558 H   0  0  0  0  0  0  0  0  0  0  0  0
   -3.6441   15.6623  -32.9045 H   0  0  0  0  0  0  0  0  0  0  0  0
  1  2  1  0
  2  3  1  0
  3  4  2  0
  4  5  1  0
  5  6  2  0
  6  7  1  0
  7  8  2  0
  8  9  1  0
  9 10  2  0
 10 11  1  0
 11 12  2  0
 12 13  1  0
 13 14  1  0
 13 15  2  0
 12 16  1  0
 16 17  1  0
 17 18  2  0
 17 19  1  0
 19 20  1  0
 20 21  1  0
 20 22  1  0
 20 23  1  0
 16 24  1  0
 24 25  2  0
  6 26  1  0
 26 27  2  0
  2 28  1  0
 28 29  1  0
 29 30  1  0
 30 31  1  0
 31 32  1  0
 32 33  2  0
 32 34  1  0
 34 35  1  0
 35 36  1  0
 35 37  1  0
 35 38  1  0
 31 39  1  0
 39 40  1  0
 27  3  1  0
 40 28  1  0
 25  7  1  0
 24 10  1  0
  1 41  1  0
  1 42  1  0
  1 43  1  0
  2 44  1  6
  4 45  1  0
  5 46  1  0
  8 47  1  0
  9 48  1  0
 11 49  1  0
 14 50  1  0
 21 51  1  0
 21 52  1  0
 21 53  1  0
 22 54  1  0
 22 55  1  0
 22 56  1  0
 23 57  1  0
 23 58  1  0
 23 59  1  0
 25 60  1  0
 26 61  1  0
 27 62  1  0
 28 63  1  0
 29 64  1  0
 29 65  1  0
 30 66  1  0
 30 67  1  0
 36 68  1  0
 36 69  1  0
 36 70  1  0
 37 71  1  0
 37 72  1  0
 37 73  1  0
 38 74  1  0
 38 75  1  0
 38 76  1  0
 39 77  1  0
 39 78  1  0
 40 79  1  0
 40 80  1  0
M  CHG  2  14  -1  28   1
M  END
>  <UniqueID>  (95) 
95

>  <SMILES>  (95) 
C[C@@H](c1ccc(-c2ccc3cc(C([NH-])=O)n(C(=O)OC(C)(C)C)c3c2)cc1)[NH+]1CCN(C(=O)OC(C)(C)C)CC1

>  <Energy>  (95) 
133.86930374324845

>  <Genealogy>  (95) 
C[C@@H](c1ccc(-c2ccc3cc(C([NH-])=O)n(C(=O)OC(C)(C)C)c3c2)cc1)[NH+]1CCN(C(=O)OC(C)(C)C)CC1 (protonated)
C[C@@H](c1ccc(-c2ccc3cc(C([NH-])=O)n(C(=O)OC(C)(C)C)c3c2)cc1)[NH+]1CCN(C(=O)OC(C)(C)C)CC1 (3D coordinates assigned)
C[C@@H](c1ccc(-c2ccc3cc(C([NH-])=O)n(C(=O)OC(C)(C)C)c3c2)cc1)[NH+]1CCN(C(=O)OC(C)(C)C)CC1 (nonaromatic ring conformer: 133.86930374324845 kcal/mol)

>  <smiles>  (95) 
C[C@@H](c1ccc(-c2ccc3cc(C(N)=O)n(C(=O)OC(C)(C)C)c3c2)cc1)N1CCN(C(=O)OC(C)(C)C)CC1

>  <score_type>  (95) 
oracle

>  <origin>  (95) 
adg

>  <m_score__min__energy>  (95) 
-12.15

>  <m_primary>  (95) 
energy

$$$$
95:0
     RDKit          3D

 51 54  0  0  0  0  0  0  0  0999 V2000
   -2.7050   21.5160  -27.4910 C   0  0  0  0  0  0  0  0  0  0  0  0
   -3.1600   22.7040  -28.3620 C   0  0  0  0  0  0  0  0  0  0  0  0
   -1.9660   23.6160  -28.7040 C   0  0  0  0  0  0  0  0  0  0  0  0
   -4.2010   23.5210  -27.5830 C   0  0  0  0  0  0  0  0  0  0  0  0
   -3.7980   22.2360  -29.5590 O   0  0  0  0  0  0  0  0  0  0  0  0
   -4.2610   23.0270  -30.6200 C   0  0  0  0  0  0  0  0  0  0  0  0
   -3.4750   23.7780  -31.2590 O   0  0  0  0  0  0  0  0  0  0  0  0
   -5.6480   22.9690  -30.9910 N   0  0  0  0  0  0  0  0  0  0  0  0
   -6.6170   23.8890  -30.7170 C   0  0  0  0  0  0  0  0  0  0  0  0
   -6.3880   25.2220  -30.1180 C   0  0  0  0  0  0  0  0  0  0  0  0
   -5.2320   25.9880  -30.4620 N   0  0  0  0  0  0  0  0  0  0  0  0
   -7.1990   25.6820  -29.2710 O   0  0  0  0  0  0  0  0  0  0  0  0
   -7.8580   23.4390  -31.1660 C   0  0  0  0  0  0  0  0  0  0  0  0
   -7.6180   22.2070  -31.7290 C   0  0  0  0  0  0  0  0  0  0  0  0
   -8.5000   21.3060  -32.3160 C   0  0  0  0  0  0  0  0  0  0  0  0
   -7.9820   20.0890  -32.7870 C   0  0  0  0  0  0  0  0  0  0  0  0
   -6.6010   19.7980  -32.6640 C   0  0  0  0  0  0  0  0  0  0  0  0
   -6.0700   18.4970  -33.1320 C   0  0  0  0  0  0  0  0  0  0  0  0
   -6.9290   17.3860  -33.1110 C   0  0  0  0  0  0  0  0  0  0  0  0
   -6.5010   16.1440  -33.5780 C   0  0  0  0  0  0  0  0  0  0  0  0
   -5.2070   15.9870  -34.0710 C   0  0  0  0  0  0  0  0  0  0  0  0
   -4.3200   17.0730  -34.0880 C   0  0  0  0  0  0  0  0  0  0  0  0
   -3.0120   16.9020  -34.5700 C   0  0  0  0  0  0  0  0  0  0  0  0
   -2.1180   17.9730  -34.5690 C   0  0  0  0  0  0  0  0  0  0  0  0
   -2.5140   19.2180  -34.0800 C   0  0  0  0  0  0  0  0  0  0  0  0
   -3.8130   19.4050  -33.5990 C   0  0  0  0  0  0  0  0  0  0  0  0
   -4.7420   18.3420  -33.6090 C   0  0  0  0  0  0  0  0  0  0  0  0
   -5.7360   20.7320  -32.0530 C   0  0  0  0  0  0  0  0  0  0  0  0
   -6.2780   21.9440  -31.6090 C   0  0  0  0  0  0  0  0  0  0  0  0
   -2.8063   21.7806  -26.4281 H   0  0  0  0  0  0  0  0  0  0  0  0
   -3.3307   20.6387  -27.7117 H   0  0  0  0  0  0  0  0  0  0  0  0
   -1.6533   21.2811  -27.7117 H   0  0  0  0  0  0  0  0  0  0  0  0
   -1.4990   23.9727  -27.7742 H   0  0  0  0  0  0  0  0  0  0  0  0
   -1.2282   23.0494  -29.2910 H   0  0  0  0  0  0  0  0  0  0  0  0
   -2.3185   24.4769  -29.2910 H   0  0  0  0  0  0  0  0  0  0  0  0
   -4.0357   23.3913  -26.5033 H   0  0  0  0  0  0  0  0  0  0  0  0
   -4.1020   24.5850  -27.8439 H   0  0  0  0  0  0  0  0  0  0  0  0
   -5.2110   23.1720  -27.8439 H   0  0  0  0  0  0  0  0  0  0  0  0
   -4.5670   25.6650  -31.1970 H   0  0  0  0  0  0  0  0  0  0  0  0
   -5.0610   26.9110  -30.0040 H   0  0  0  0  0  0  0  0  0  0  0  0
   -8.8241   23.9589  -31.0868 H   0  0  0  0  0  0  0  0  0  0  0  0
   -9.5709   21.5398  -32.4085 H   0  0  0  0  0  0  0  0  0  0  0  0
   -8.6543   19.3551  -33.2555 H   0  0  0  0  0  0  0  0  0  0  0  0
   -7.9517   17.4971  -32.7214 H   0  0  0  0  0  0  0  0  0  0  0  0
   -7.1874   15.2847  -33.5572 H   0  0  0  0  0  0  0  0  0  0  0  0
   -4.8800   15.0069  -34.4484 H   0  0  0  0  0  0  0  0  0  0  0  0
   -2.6914   15.9206  -34.9495 H   0  0  0  0  0  0  0  0  0  0  0  0
   -1.0973   17.8352  -34.9552 H   0  0  0  0  0  0  0  0  0  0  0  0
   -1.8012   20.0558  -34.0729 H   0  0  0  0  0  0  0  0  0  0  0  0
   -4.1140   20.3887  -33.2094 H   0  0  0  0  0  0  0  0  0  0  0  0
   -4.6651   20.5132  -31.9292 H   0  0  0  0  0  0  0  0  0  0  0  0
  1  2  1  0
  2  3  1  0
  2  4  1  0
  2  5  1  0
  5  6  1  0
  6  7  2  0
  6  8  1  0
  8  9  1  0
  9 10  1  0
 10 11  1  0
 10 12  2  0
  9 13  2  0
 13 14  1  0
 14 15  2  0
 15 16  1  0
 16 17  2  0
 17 18  1  0
 18 19  2  0
 19 20  1  0
 20 21  2  0
 21 22  1  0
 22 23  2  0
 23 24  1  0
 24 25  2  0
 25 26  1  0
 26 27  2  0
 17 28  1  0
 28 29  2  0
 29  8  1  0
 29 14  1  0
 27 18  1  0
 27 22  1  0
  1 30  1  0
  1 31  1  0
  1 32  1  0
  3 33  1  0
  3 34  1  0
  3 35  1  0
  4 36  1  0
  4 37  1  0
  4 38  1  0
 11 39  1  0
 11 40  1  0
 13 41  1  0
 15 42  1  0
 16 43  1  0
 19 44  1  0
 20 45  1  0
 21 46  1  0
 23 47  1  0
 24 48  1  0
 25 49  1  0
 26 50  1  0
 28 51  1  0
M  END
>  <UniqueID>  (96) 
96

>  <SMILES>  (96) 
CC(C)(C)OC(=O)n1c(C(N)=O)cc2ccc(-c3cccc4ccccc34)cc21

>  <Energy>  (96) 
100.67448776386354

>  <Genealogy>  (96) 
CC(C)(C)OC(=O)n1c(C(N)=O)cc2ccc(-c3cccc4ccccc34)cc21 (3D coordinates assigned)
CC(C)(C)OC(=O)n1c(C(N)=O)cc2ccc(-c3cccc4ccccc34)cc21 (optimized conformer: 100.67448776386354 kcal/mol)

>  <smiles>  (96) 
CC(C)(C)OC(=O)n1c(C(N)=O)cc2ccc(-c3cccc4ccccc34)cc21

>  <score_type>  (96) 
oracle

>  <origin>  (96) 
adg

>  <m_score__min__energy>  (96) 
-10.960000000000001

>  <m_primary>  (96) 
energy

$$$$
