0:0
     RDKit          3D

 53 56  0  0  0  0  0  0  0  0999 V2000
   -2.5620   21.8880  -32.0970 C   0  0  0  0  0  0  0  0  0  0  0  0
   -3.4640   22.7540  -31.2770 C   0  0  0  0  0  0  0  0  0  0  0  0
   -2.9610   23.5020  -30.3960 O   0  0  0  0  0  0  0  0  0  0  0  0
   -4.8850   22.7620  -31.4920 N   0  0  0  0  0  0  0  0  0  0  0  0
   -5.7630   23.7390  -31.1340 C   0  0  0  0  0  0  0  0  0  0  0  0
   -5.4060   25.0620  -30.5800 C   0  0  0  0  0  0  0  0  0  0  0  0
   -4.1370   25.6610  -30.8470 N   0  0  0  0  0  0  0  0  0  0  0  0
   -6.2540   25.6950  -29.8960 O   0  0  0  0  0  0  0  0  0  0  0  0
   -7.0740   23.3380  -31.3780 C   0  0  0  0  0  0  0  0  0  0  0  0
   -6.9720   22.0720  -31.9070 C   0  0  0  0  0  0  0  0  0  0  0  0
   -7.9690   21.1890  -32.3090 C   0  0  0  0  0  0  0  0  0  0  0  0
   -7.5800   19.9210  -32.7710 C   0  0  0  0  0  0  0  0  0  0  0  0
   -6.2100   19.5510  -32.8120 C   0  0  0  0  0  0  0  0  0  0  0  0
   -5.8130   18.2010  -33.2860 C   0  0  0  0  0  0  0  0  0  0  0  0
   -6.7110   17.1220  -33.2040 C   0  0  0  0  0  0  0  0  0  0  0  0
   -6.3390   15.8520  -33.6540 C   0  0  0  0  0  0  0  0  0  0  0  0
   -5.0620   15.6380  -34.1930 C   0  0  0  0  0  0  0  0  0  0  0  0
   -4.6620   14.2770  -34.7020 C   0  0  0  0  0  0  0  0  0  0  0  0
   -3.6400   13.6600  -33.8260 N   0  0  0  0  0  0  0  0  0  0  0  0
   -3.6330   14.2420  -32.4560 C   0  0  0  0  0  0  0  0  0  0  0  0
   -4.2020   13.3070  -31.3680 C   0  0  0  0  0  0  0  0  0  0  0  0
   -5.3670   12.4810  -31.9070 C   0  0  0  0  0  0  0  0  0  0  0  0
   -4.9400   11.6270  -33.1130 C   0  0  0  0  0  0  0  0  0  0  0  0
   -3.6900   12.1800  -33.8260 C   0  0  0  0  0  0  0  0  0  0  0  0
   -4.1640   16.7110  -34.2810 C   0  0  0  0  0  0  0  0  0  0  0  0
   -4.5340   17.9810  -33.8300 C   0  0  0  0  0  0  0  0  0  0  0  0
   -5.2280   20.4770  -32.3890 C   0  0  0  0  0  0  0  0  0  0  0  0
   -5.6410   21.7430  -31.9590 C   0  0  0  0  0  0  0  0  0  0  0  0
   -1.9306   21.2818  -31.4308 H   0  0  0  0  0  0  0  0  0  0  0  0
   -3.1680   21.2247  -32.7317 H   0  0  0  0  0  0  0  0  0  0  0  0
   -1.9239   22.5205  -32.7317 H   0  0  0  0  0  0  0  0  0  0  0  0
   -3.4870   25.2590  -31.5570 H   0  0  0  0  0  0  0  0  0  0  0  0
   -3.8850   26.5710  -30.4010 H   0  0  0  0  0  0  0  0  0  0  0  0
   -7.9939   23.9106  -31.1885 H   0  0  0  0  0  0  0  0  0  0  0  0
   -9.0302   21.4753  -32.2663 H   0  0  0  0  0  0  0  0  0  0  0  0
   -8.3461   19.2059  -33.1051 H   0  0  0  0  0  0  0  0  0  0  0  0
   -7.7147   17.2787  -32.7821 H   0  0  0  0  0  0  0  0  0  0  0  0
   -7.0511   15.0165  -33.5851 H   0  0  0  0  0  0  0  0  0  0  0  0
   -5.5501   13.6285  -34.7300 H   0  0  0  0  0  0  0  0  0  0  0  0
   -4.2356   14.3920  -35.7094 H   0  0  0  0  0  0  0  0  0  0  0  0
   -2.5940   14.4875  -32.1909 H   0  0  0  0  0  0  0  0  0  0  0  0
   -4.2861   15.1267  -32.4853 H   0  0  0  0  0  0  0  0  0  0  0  0
   -3.4072   12.6273  -31.0270 H   0  0  0  0  0  0  0  0  0  0  0  0
   -4.5677   13.9238  -30.5339 H   0  0  0  0  0  0  0  0  0  0  0  0
   -5.7335   11.8170  -31.1103 H   0  0  0  0  0  0  0  0  0  0  0  0
   -6.1580   13.1715  -32.2349 H   0  0  0  0  0  0  0  0  0  0  0  0
   -4.7218   10.6077  -32.7618 H   0  0  0  0  0  0  0  0  0  0  0  0
   -5.7674   11.6415  -33.8377 H   0  0  0  0  0  0  0  0  0  0  0  0
   -2.7947   11.7976  -33.3139 H   0  0  0  0  0  0  0  0  0  0  0  0
   -3.7316   11.8489  -34.8742 H   0  0  0  0  0  0  0  0  0  0  0  0
   -3.1625   16.5524  -34.7074 H   0  0  0  0  0  0  0  0  0  0  0  0
   -3.8201   18.8149  -33.9008 H   0  0  0  0  0  0  0  0  0  0  0  0
   -4.1616   20.2075  -32.3979 H   0  0  0  0  0  0  0  0  0  0  0  0
  1  2  1  0
  2  3  2  0
  2  4  1  0
  4  5  1  0
  5  6  1  0
  6  7  1  0
  6  8  2  0
  5  9  2  0
  9 10  1  0
 10 11  2  0
 11 12  1  0
 12 13  2  0
 13 14  1  0
 14 15  2  0
 15 16  1  0
 16 17  2  0
 17 18  1  0
 18 19  1  0
 19 20  1  0
 20 21  1  0
 21 22  1  0
 22 23  1  0
 23 24  1  0
 17 25  1  0
 25 26  2  0
 13 27  1  0
 27 28  2  0
 28  4  1  0
 28 10  1  0
 26 14  1  0
 24 19  1  0
  1 29  1  0
  1 30  1  0
  1 31  1  0
  7 32  1  0
  7 33  1  0
  9 34  1  0
 11 35  1  0
 12 36  1  0
 15 37  1  0
 16 38  1  0
 18 39  1  0
 18 40  1  0
 20 41  1  0
 20 42  1  0
 21 43  1  0
 21 44  1  0
 22 45  1  0
 22 46  1  0
 23 47  1  0
 23 48  1  0
 24 49  1  0
 24 50  1  0
 25 51  1  0
 26 52  1  0
 27 53  1  0
M  END
>  <UniqueID>  (1) 
1

>  <SMILES>  (1) 
CC(=O)n1c(C(N)=O)cc2ccc(-c3ccc(CN4CCCCC4)cc3)cc21

>  <Energy>  (1) 
108.81757693656924

>  <Genealogy>  (1) 
CC(=O)n1c(C(N)=O)cc2ccc(-c3ccc(CN4CCCCC4)cc3)cc21 (3D coordinates assigned)
CC(=O)n1c(C(N)=O)cc2ccc(-c3ccc(CN4CCCCC4)cc3)cc21 (nonaromatic ring conformer: 108.81757693656924 kcal/mol)

>  <smiles>  (1) 
CC(=O)n1c(C(N)=O)cc2ccc(-c3ccc(CN4CCCCC4)cc3)cc21

>  <score_type>  (1) 
oracle

>  <origin>  (1) 
adg

>  <m_score__min__energy>  (1) 
-10.140000000000001

>  <m_primary>  (1) 
energy

$$$$
1:0
     RDKit          3D

 48 50  0  0  0  0  0  0  0  0999 V2000
   -4.5670   14.6230  -34.6700 C   0  0  0  0  0  0  0  0  0  0  0  0
   -5.1000   15.9280  -34.1580 C   0  0  0  0  0  0  0  0  0  0  0  0
   -5.6380   16.0130  -32.8650 C   0  0  0  0  0  0  0  0  0  0  0  0
   -6.1020   17.2360  -32.3730 C   0  0  0  0  0  0  0  0  0  0  0  0
   -6.0240   18.3990  -33.1610 C   0  0  0  0  0  0  0  0  0  0  0  0
   -6.5160   19.6990  -32.6380 C   0  0  0  0  0  0  0  0  0  0  0  0
   -7.9080   19.9700  -32.5890 C   0  0  0  0  0  0  0  0  0  0  0  0
   -8.3840   21.2020  -32.1100 C   0  0  0  0  0  0  0  0  0  0  0  0
   -7.4520   22.1390  -31.6780 C   0  0  0  0  0  0  0  0  0  0  0  0
   -7.6390   23.4170  -31.2040 C   0  0  0  0  0  0  0  0  0  0  0  0
   -6.3610   23.9010  -30.9400 C   0  0  0  0  0  0  0  0  0  0  0  0
   -6.1020   25.2330  -30.3580 C   0  0  0  0  0  0  0  0  0  0  0  0
   -5.0280   26.0490  -30.8300 N   0  0  0  0  0  0  0  0  0  0  0  0
   -6.8060   25.6370  -29.3940 O   0  0  0  0  0  0  0  0  0  0  0  0
   -5.4180   22.9670  -31.2480 N   0  0  0  0  0  0  0  0  0  0  0  0
   -3.9920   23.1400  -31.2350 C   0  0  0  0  0  0  0  0  0  0  0  0
   -3.2700   22.4460  -32.0000 O   0  0  0  0  0  0  0  0  0  0  0  0
   -3.4210   24.0830  -30.3680 O   0  0  0  0  0  0  0  0  0  0  0  0
   -2.9680   23.8450  -29.0270 C   0  0  0  0  0  0  0  0  0  0  0  0
   -1.8350   24.8220  -28.6560 C   0  0  0  0  0  0  0  0  0  0  0  0
   -4.1630   24.0910  -28.0950 C   0  0  0  0  0  0  0  0  0  0  0  0
   -2.5020   22.3860  -28.8610 C   0  0  0  0  0  0  0  0  0  0  0  0
   -6.1030   21.8910  -31.6980 C   0  0  0  0  0  0  0  0  0  0  0  0
   -5.6000   20.6810  -32.1910 C   0  0  0  0  0  0  0  0  0  0  0  0
   -5.4650   18.3110  -34.4490 C   0  0  0  0  0  0  0  0  0  0  0  0
   -5.0030   17.0870  -34.9390 C   0  0  0  0  0  0  0  0  0  0  0  0
   -4.3028   13.9762  -33.8204 H   0  0  0  0  0  0  0  0  0  0  0  0
   -5.3351   14.1282  -35.2826 H   0  0  0  0  0  0  0  0  0  0  0  0
   -3.6722   14.8074  -35.2826 H   0  0  0  0  0  0  0  0  0  0  0  0
   -5.6949   15.1127  -32.2355 H   0  0  0  0  0  0  0  0  0  0  0  0
   -6.5316   17.2898  -31.3618 H   0  0  0  0  0  0  0  0  0  0  0  0
   -8.6227   19.2066  -32.9300 H   0  0  0  0  0  0  0  0  0  0  0  0
   -9.4619   21.4188  -32.0777 H   0  0  0  0  0  0  0  0  0  0  0  0
   -8.5944   23.9437  -31.0637 H   0  0  0  0  0  0  0  0  0  0  0  0
   -4.8900   27.0080  -30.4430 H   0  0  0  0  0  0  0  0  0  0  0  0
   -4.3250   25.6750  -31.5040 H   0  0  0  0  0  0  0  0  0  0  0  0
   -1.7545   24.8914  -27.5611 H   0  0  0  0  0  0  0  0  0  0  0  0
   -0.8844   24.4557  -29.0710 H   0  0  0  0  0  0  0  0  0  0  0  0
   -2.0575   25.8161  -29.0710 H   0  0  0  0  0  0  0  0  0  0  0  0
   -3.8318   24.0228  -27.0483 H   0  0  0  0  0  0  0  0  0  0  0  0
   -4.5756   25.0929  -28.2845 H   0  0  0  0  0  0  0  0  0  0  0  0
   -4.9378   23.3335  -28.2845 H   0  0  0  0  0  0  0  0  0  0  0  0
   -2.4251   22.1452  -27.7904 H   0  0  0  0  0  0  0  0  0  0  0  0
   -3.2297   21.7123  -29.3370 H   0  0  0  0  0  0  0  0  0  0  0  0
   -1.5185   22.2588  -29.3370 H   0  0  0  0  0  0  0  0  0  0  0  0
   -4.5161   20.4975  -32.2301 H   0  0  0  0  0  0  0  0  0  0  0  0
   -5.3911   19.2126  -35.0749 H   0  0  0  0  0  0  0  0  0  0  0  0
   -4.5602   17.0329  -35.9445 H   0  0  0  0  0  0  0  0  0  0  0  0
  1  2  1  0
  2  3  2  0
  3  4  1  0
  4  5  2  0
  5  6  1  0
  6  7  2  0
  7  8  1  0
  8  9  2  0
  9 10  1  0
 10 11  2  0
 11 12  1  0
 12 13  1  0
 12 14  2  0
 11 15  1  0
 15 16  1  0
 16 17  2  0
 16 18  1  0
 18 19  1  0
 19 20  1  0
 19 21  1  0
 19 22  1  0
 15 23  1  0
 23 24  2  0
  5 25  1  0
 25 26  2  0
 26  2  1  0
 24  6  1  0
 23  9  1  0
  1 27  1  0
  1 28  1  0
  1 29  1  0
  3 30  1  0
  4 31  1  0
  7 32  1  0
  8 33  1  0
 10 34  1  0
 13 35  1  0
 13 36  1  0
 20 37  1  0
 20 38  1  0
 20 39  1  0
 21 40  1  0
 21 41  1  0
 21 42  1  0
 22 43  1  0
 22 44  1  0
 22 45  1  0
 24 46  1  0
 25 47  1  0
 26 48  1  0
M  END
>  <UniqueID>  (2) 
2

>  <SMILES>  (2) 
Cc1ccc(-c2ccc3cc(C(N)=O)n(C(=O)OC(C)(C)C)c3c2)cc1

>  <Energy>  (2) 
88.56015760004364

>  <Genealogy>  (2) 
Cc1ccc(-c2ccc3cc(C(N)=O)n(C(=O)OC(C)(C)C)c3c2)cc1 (3D coordinates assigned)
Cc1ccc(-c2ccc3cc(C(N)=O)n(C(=O)OC(C)(C)C)c3c2)cc1 (optimized conformer: 88.56015760004364 kcal/mol)

>  <smiles>  (2) 
Cc1ccc(-c2ccc3cc(C(N)=O)n(C(=O)OC(C)(C)C)c3c2)cc1

>  <score_type>  (2) 
oracle

>  <origin>  (2) 
adg

>  <m_score__min__energy>  (2) 
-9.9700000000000006

>  <m_primary>  (2) 
energy

$$$$
2:0
     RDKit          3D

 38 40  0  0  0  0  0  0  0  0999 V2000
   -4.1480   25.4380  -30.8300 N   0  0  0  0  0  0  0  0  0  0  0  0
   -4.2300   24.0710  -30.4360 C   0  0  0  0  0  0  0  0  0  0  0  0
   -5.2920   23.6400  -29.9140 O   0  0  0  0  0  0  0  0  0  0  0  0
   -3.1060   23.1940  -30.6230 N   0  0  0  0  0  0  0  0  0  0  0  0
   -1.9030   23.2400  -29.9830 C   0  0  0  0  0  0  0  0  0  0  0  0
   -1.4380   24.3200  -29.0910 C   0  0  0  0  0  0  0  0  0  0  0  0
   -2.3540   25.2640  -28.5310 N   0  0  0  0  0  0  0  0  0  0  0  0
   -0.2050   24.4490  -28.8660 O   0  0  0  0  0  0  0  0  0  0  0  0
   -1.1190   22.1420  -30.3260 C   0  0  0  0  0  0  0  0  0  0  0  0
   -1.8780   21.4190  -31.2170 C   0  0  0  0  0  0  0  0  0  0  0  0
   -1.5970   20.2180  -31.8620 C   0  0  0  0  0  0  0  0  0  0  0  0
   -2.5840   19.6730  -32.6980 C   0  0  0  0  0  0  0  0  0  0  0  0
   -3.8250   20.3320  -32.8750 C   0  0  0  0  0  0  0  0  0  0  0  0
   -4.8930   19.7130  -33.7350 C   0  0  0  0  0  0  0  0  0  0  0  0
   -5.8540   18.8800  -32.8820 C   0  0  0  0  0  0  0  0  0  0  0  0
   -7.0980   19.6620  -32.5760 C   0  0  0  0  0  0  0  0  0  0  0  0
   -8.3580   19.0450  -32.6060 C   0  0  0  0  0  0  0  0  0  0  0  0
   -9.4940   19.7920  -32.2850 C   0  0  0  0  0  0  0  0  0  0  0  0
   -9.3650   21.1360  -31.9320 C   0  0  0  0  0  0  0  0  0  0  0  0
   -8.0930   21.7150  -31.9000 C   0  0  0  0  0  0  0  0  0  0  0  0
   -6.9990   20.9720  -32.2160 N   0  0  0  0  0  0  0  0  0  0  0  0
   -4.0830   21.5420  -32.1920 C   0  0  0  0  0  0  0  0  0  0  0  0
   -3.0730   22.0740  -31.3790 C   0  0  0  0  0  0  0  0  0  0  0  0
   -3.5060   25.7380  -31.5960 H   0  0  0  0  0  0  0  0  0  0  0  0
   -2.0100   26.0060  -27.8820 H   0  0  0  0  0  0  0  0  0  0  0  0
   -3.3560   25.2800  -28.8200 H   0  0  0  0  0  0  0  0  0  0  0  0
   -0.1086   21.9035  -29.9624 H   0  0  0  0  0  0  0  0  0  0  0  0
   -0.6308   19.7114  -31.7209 H   0  0  0  0  0  0  0  0  0  0  0  0
   -2.3917   18.7245  -33.2209 H   0  0  0  0  0  0  0  0  0  0  0  0
   -5.4570   20.5102  -34.2414 H   0  0  0  0  0  0  0  0  0  0  0  0
   -4.4154   19.0558  -34.4766 H   0  0  0  0  0  0  0  0  0  0  0  0
   -6.1265   17.9666  -33.4311 H   0  0  0  0  0  0  0  0  0  0  0  0
   -5.3559   18.6197  -31.9364 H   0  0  0  0  0  0  0  0  0  0  0  0
   -8.4503   17.9836  -32.8796 H   0  0  0  0  0  0  0  0  0  0  0  0
  -10.4881   19.3218  -32.3104 H   0  0  0  0  0  0  0  0  0  0  0  0
  -10.2543   21.7331  -31.6817 H   0  0  0  0  0  0  0  0  0  0  0  0
   -7.9771   22.7722  -31.6190 H   0  0  0  0  0  0  0  0  0  0  0  0
   -5.0515   22.0531  -32.2958 H   0  0  0  0  0  0  0  0  0  0  0  0
  1  2  1  0
  2  3  2  0
  2  4  1  0
  4  5  1  0
  5  6  1  0
  6  7  1  0
  6  8  2  0
  5  9  2  0
  9 10  1  0
 10 11  2  0
 11 12  1  0
 12 13  2  0
 13 14  1  0
 14 15  1  0
 15 16  1  0
 16 17  2  0
 17 18  1  0
 18 19  2  0
 19 20  1  0
 20 21  2  0
 13 22  1  0
 22 23  2  0
 23  4  1  0
 23 10  1  0
 21 16  1  0
  1 24  1  0
  7 25  1  0
  7 26  1  0
  9 27  1  0
 11 28  1  0
 12 29  1  0
 14 30  1  0
 14 31  1  0
 15 32  1  0
 15 33  1  0
 17 34  1  0
 18 35  1  0
 19 36  1  0
 20 37  1  0
 22 38  1  0
M  CHG  1   1  -1
M  END
>  <UniqueID>  (3) 
3

>  <SMILES>  (3) 
[NH-]C(=O)n1c(C(N)=O)cc2ccc(CCc3ccccn3)cc21

>  <Energy>  (3) 
77.17517225745766

>  <Genealogy>  (3) 
[NH-]C(=O)n1c(C(N)=O)cc2ccc(CCc3ccccn3)cc21 (protonated)
[NH-]C(=O)n1c(C(N)=O)cc2ccc(CCc3ccccn3)cc21 (3D coordinates assigned)
[NH-]C(=O)n1c(C(N)=O)cc2ccc(CCc3ccccn3)cc21 (optimized conformer: 77.17517225745766 kcal/mol)

>  <smiles>  (3) 
NC(=O)c1cc2ccc(CCc3ccccn3)cc2n1C(N)=O

>  <score_type>  (3) 
oracle

>  <origin>  (3) 
adg

>  <m_score__min__energy>  (3) 
-9.5800000000000001

>  <m_primary>  (3) 
energy

$$$$
3:0
     RDKit          3D

 42 44  0  0  0  0  0  0  0  0999 V2000
   -5.7630   18.4980  -34.5800 C   0  0  0  0  0  0  0  0  0  0  0  0
   -6.2600   17.3150  -33.7510 C   0  0  0  0  0  0  0  0  0  0  0  0
   -5.4340   16.0630  -34.0440 C   0  0  0  0  0  0  0  0  0  0  0  0
   -6.1520   17.7430  -31.9730 S   0  0  0  0  0  0  0  0  0  0  0  0
   -7.2680   19.1550  -32.0700 C   0  0  0  0  0  0  0  0  0  0  0  0
   -8.6100   18.9270  -32.4040 C   0  0  0  0  0  0  0  0  0  0  0  0
   -9.4960   19.9980  -32.5370 C   0  0  0  0  0  0  0  0  0  0  0  0
   -9.0490   21.3060  -32.3390 C   0  0  0  0  0  0  0  0  0  0  0  0
   -7.7150   21.5450  -31.9990 C   0  0  0  0  0  0  0  0  0  0  0  0
   -6.8160   20.4760  -31.8480 C   0  0  0  0  0  0  0  0  0  0  0  0
   -5.4090   20.7650  -31.4970 C   0  0  0  0  0  0  0  0  0  0  0  0
   -4.3980   19.8040  -31.7470 C   0  0  0  0  0  0  0  0  0  0  0  0
   -3.0590   20.0720  -31.4150 C   0  0  0  0  0  0  0  0  0  0  0  0
   -2.7640   21.3030  -30.8370 C   0  0  0  0  0  0  0  0  0  0  0  0
   -1.5620   21.8060  -30.3980 C   0  0  0  0  0  0  0  0  0  0  0  0
   -1.8530   23.0740  -29.8970 C   0  0  0  0  0  0  0  0  0  0  0  0
   -0.8290   24.0160  -29.3960 C   0  0  0  0  0  0  0  0  0  0  0  0
   -1.0970   25.4190  -29.3370 N   0  0  0  0  0  0  0  0  0  0  0  0
    0.2810   23.5860  -28.9850 O   0  0  0  0  0  0  0  0  0  0  0  0
   -3.1860   23.3430  -30.0190 N   0  0  0  0  0  0  0  0  0  0  0  0
   -3.8880   24.5100  -29.5620 C   0  0  0  0  0  0  0  0  0  0  0  0
   -4.4620   24.5090  -28.4410 O   0  0  0  0  0  0  0  0  0  0  0  0
   -3.9570   25.6460  -30.3570 O   0  0  0  0  0  0  0  0  0  0  0  0
   -3.7290   22.2480  -30.5970 C   0  0  0  0  0  0  0  0  0  0  0  0
   -5.0720   21.9990  -30.8990 C   0  0  0  0  0  0  0  0  0  0  0  0
   -5.4257   19.3008  -33.9079 H   0  0  0  0  0  0  0  0  0  0  0  0
   -4.9247   18.1746  -35.2145 H   0  0  0  0  0  0  0  0  0  0  0  0
   -6.5807   18.8704  -35.2145 H   0  0  0  0  0  0  0  0  0  0  0  0
   -7.3055   17.1016  -34.0180 H   0  0  0  0  0  0  0  0  0  0  0  0
   -5.1263   15.5967  -33.0964 H   0  0  0  0  0  0  0  0  0  0  0  0
   -6.0403   15.3510  -34.6232 H   0  0  0  0  0  0  0  0  0  0  0  0
   -4.5409   16.3402  -34.6232 H   0  0  0  0  0  0  0  0  0  0  0  0
   -8.9672   17.8987  -32.5622 H   0  0  0  0  0  0  0  0  0  0  0  0
  -10.5480   19.8110  -32.7982 H   0  0  0  0  0  0  0  0  0  0  0  0
   -9.7473   22.1485  -32.4507 H   0  0  0  0  0  0  0  0  0  0  0  0
   -7.3662   22.5773  -31.8485 H   0  0  0  0  0  0  0  0  0  0  0  0
   -4.6636   18.8398  -32.2050 H   0  0  0  0  0  0  0  0  0  0  0  0
   -2.2684   19.3315  -31.6062 H   0  0  0  0  0  0  0  0  0  0  0  0
   -0.5795   21.3127  -30.4344 H   0  0  0  0  0  0  0  0  0  0  0  0
   -0.3840   26.0730  -28.9430 H   0  0  0  0  0  0  0  0  0  0  0  0
   -1.9860   25.8180  -29.7100 H   0  0  0  0  0  0  0  0  0  0  0  0
   -5.8472   22.7468  -30.6759 H   0  0  0  0  0  0  0  0  0  0  0  0
  1  2  1  0
  2  3  1  0
  2  4  1  0
  4  5  1  0
  5  6  2  0
  6  7  1  0
  7  8  2  0
  8  9  1  0
  9 10  2  0
 10 11  1  0
 11 12  2  0
 12 13  1  0
 13 14  2  0
 14 15  1  0
 15 16  2  0
 16 17  1  0
 17 18  1  0
 17 19  2  0
 16 20  1  0
 20 21  1  0
 21 22  2  0
 21 23  1  0
 20 24  1  0
 24 25  2  0
 10  5  1  0
 25 11  1  0
 24 14  1  0
  1 26  1  0
  1 27  1  0
  1 28  1  0
  2 29  1  0
  3 30  1  0
  3 31  1  0
  3 32  1  0
  6 33  1  0
  7 34  1  0
  8 35  1  0
  9 36  1  0
 12 37  1  0
 13 38  1  0
 15 39  1  0
 18 40  1  0
 18 41  1  0
 25 42  1  0
M  CHG  1  23  -1
M  END
>  <UniqueID>  (4) 
4

>  <SMILES>  (4) 
CC(C)Sc1ccccc1-c1ccc2cc(C(N)=O)n(C(=O)[O-])c2c1

>  <Energy>  (4) 
81.6456939421051

>  <Genealogy>  (4) 
CC(C)Sc1ccccc1-c1ccc2cc(C(N)=O)n(C(=O)[O-])c2c1 (protonated)
CC(C)Sc1ccccc1-c1ccc2cc(C(N)=O)n(C(=O)[O-])c2c1 (3D coordinates assigned)
CC(C)Sc1ccccc1-c1ccc2cc(C(N)=O)n(C(=O)[O-])c2c1 (optimized conformer: 81.6456939421051 kcal/mol)

>  <smiles>  (4) 
CC(C)Sc1ccccc1-c1ccc2cc(C(N)=O)n(C(=O)O)c2c1

>  <score_type>  (4) 
oracle

>  <origin>  (4) 
adg

>  <m_score__min__energy>  (4) 
-10.380000000000001

>  <m_primary>  (4) 
energy

$$$$
4:0
     RDKit          3D

 69 71  0  0  0  0  0  0  0  0999 V2000
   -3.6470   15.5060  -34.1560 C   0  0  0  0  0  0  0  0  0  0  0  0
   -5.0780   15.5580  -33.5660 C   0  0  0  0  0  0  0  0  0  0  0  0
   -5.7520   14.2140  -33.8960 C   0  0  0  0  0  0  0  0  0  0  0  0
   -5.0250   15.6730  -32.0250 C   0  0  0  0  0  0  0  0  0  0  0  0
   -5.9180   16.5570  -34.1490 O   0  0  0  0  0  0  0  0  0  0  0  0
   -5.7420   18.1530  -33.5300 P   0  0  0  0  0  0  0  0  0  0  0  0
   -5.8100   19.2240  -34.5970 O   0  0  0  0  0  0  0  0  0  0  0  0
   -4.2840   18.3280  -32.6360 O   0  0  0  0  0  0  0  0  0  0  0  0
   -3.2540   19.0820  -33.2690 C   0  0  0  0  0  0  0  0  0  0  0  0
   -2.0560   19.0250  -32.3040 C   0  0  0  0  0  0  0  0  0  0  0  0
   -2.8090   18.4430  -34.6030 C   0  0  0  0  0  0  0  0  0  0  0  0
   -3.6180   20.5720  -33.4630 C   0  0  0  0  0  0  0  0  0  0  0  0
   -7.0640   18.4440  -32.2940 C   0  0  0  0  0  0  0  0  0  0  0  0
   -6.7410   17.7700  -31.1290 F   0  0  0  0  0  0  0  0  0  0  0  0
   -8.2570   17.9190  -32.7530 F   0  0  0  0  0  0  0  0  0  0  0  0
   -7.1980   19.9190  -31.9950 C   0  0  0  0  0  0  0  0  0  0  0  0
   -8.4320   20.5950  -32.1850 C   0  0  0  0  0  0  0  0  0  0  0  0
   -8.5400   21.9730  -31.9320 C   0  0  0  0  0  0  0  0  0  0  0  0
   -7.3990   22.6520  -31.5200 C   0  0  0  0  0  0  0  0  0  0  0  0
   -7.2240   23.9800  -31.2050 C   0  0  0  0  0  0  0  0  0  0  0  0
   -5.8780   24.1060  -30.8640 C   0  0  0  0  0  0  0  0  0  0  0  0
   -5.2530   25.3850  -30.4610 C   0  0  0  0  0  0  0  0  0  0  0  0
   -3.9090   25.6690  -30.8440 N   0  0  0  0  0  0  0  0  0  0  0  0
   -5.8920   26.2340  -29.7880 O   0  0  0  0  0  0  0  0  0  0  0  0
   -5.2430   22.9060  -30.9800 N   0  0  0  0  0  0  0  0  0  0  0  0
   -3.8510   22.6270  -30.7460 C   0  0  0  0  0  0  0  0  0  0  0  0
   -3.0040   23.0550  -31.5770 O   0  0  0  0  0  0  0  0  0  0  0  0
   -3.3690   21.9280  -29.4780 C   0  0  0  0  0  0  0  0  0  0  0  0
   -1.8310   22.0470  -29.2370 C   0  0  0  0  0  0  0  0  0  0  0  0
   -1.4380   23.0710  -28.1540 C   0  0  0  0  0  0  0  0  0  0  0  0
   -2.3760   24.2800  -28.1650 C   0  0  0  0  0  0  0  0  0  0  0  0
   -3.8370   23.8790  -27.8800 C   0  0  0  0  0  0  0  0  0  0  0  0
   -4.1490   22.4110  -28.2350 C   0  0  0  0  0  0  0  0  0  0  0  0
   -6.1920   22.0220  -31.3630 C   0  0  0  0  0  0  0  0  0  0  0  0
   -6.0620   20.6480  -31.5760 C   0  0  0  0  0  0  0  0  0  0  0  0
   -2.9134   15.4793  -33.3368 H   0  0  0  0  0  0  0  0  0  0  0  0
   -3.5382   14.6033  -34.7751 H   0  0  0  0  0  0  0  0  0  0  0  0
   -3.4730   16.3984  -34.7751 H   0  0  0  0  0  0  0  0  0  0  0  0
   -6.0122   13.6951  -32.9616 H   0  0  0  0  0  0  0  0  0  0  0  0
   -6.6656   14.3958  -34.4811 H   0  0  0  0  0  0  0  0  0  0  0  0
   -5.0599   13.5906  -34.4811 H   0  0  0  0  0  0  0  0  0  0  0  0
   -5.4451   14.7616  -31.5746 H   0  0  0  0  0  0  0  0  0  0  0  0
   -3.9804   15.7937  -31.7020 H   0  0  0  0  0  0  0  0  0  0  0  0
   -5.6118   16.5456  -31.7020 H   0  0  0  0  0  0  0  0  0  0  0  0
   -2.4200   19.0423  -31.2661 H   0  0  0  0  0  0  0  0  0  0  0  0
   -1.4886   18.0988  -32.4782 H   0  0  0  0  0  0  0  0  0  0  0  0
   -1.4033   19.8931  -32.4782 H   0  0  0  0  0  0  0  0  0  0  0  0
   -2.1915   17.5563  -34.3968 H   0  0  0  0  0  0  0  0  0  0  0  0
   -3.6963   18.1455  -35.1811 H   0  0  0  0  0  0  0  0  0  0  0  0
   -2.2223   19.1721  -35.1811 H   0  0  0  0  0  0  0  0  0  0  0  0
   -3.7352   21.0518  -32.4801 H   0  0  0  0  0  0  0  0  0  0  0  0
   -2.8164   21.0753  -34.0235 H   0  0  0  0  0  0  0  0  0  0  0  0
   -4.5614   20.6490  -34.0235 H   0  0  0  0  0  0  0  0  0  0  0  0
   -9.3120   20.0346  -32.5336 H   0  0  0  0  0  0  0  0  0  0  0  0
   -9.4983   22.4985  -32.0562 H   0  0  0  0  0  0  0  0  0  0  0  0
   -7.9850   24.7741  -31.2192 H   0  0  0  0  0  0  0  0  0  0  0  0
   -3.1320   25.0140  -30.6050 H   0  0  0  0  0  0  0  0  0  0  0  0
   -3.5763   20.8598  -29.6395 H   0  0  0  0  0  0  0  0  0  0  0  0
   -1.4523   21.0602  -28.9322 H   0  0  0  0  0  0  0  0  0  0  0  0
   -1.3898   22.4003  -30.1807 H   0  0  0  0  0  0  0  0  0  0  0  0
   -1.4892   22.5868  -27.1676 H   0  0  0  0  0  0  0  0  0  0  0  0
   -0.4167   23.4222  -28.3627 H   0  0  0  0  0  0  0  0  0  0  0  0
   -2.0463   24.9925  -27.3945 H   0  0  0  0  0  0  0  0  0  0  0  0
   -2.3366   24.7319  -29.1671 H   0  0  0  0  0  0  0  0  0  0  0  0
   -4.0372   24.0289  -26.8088 H   0  0  0  0  0  0  0  0  0  0  0  0
   -4.4768   24.5098  -28.5146 H   0  0  0  0  0  0  0  0  0  0  0  0
   -3.8786   21.7753  -27.3790 H   0  0  0  0  0  0  0  0  0  0  0  0
   -5.2226   22.3420  -28.4645 H   0  0  0  0  0  0  0  0  0  0  0  0
   -5.0966   20.1441  -31.4211 H   0  0  0  0  0  0  0  0  0  0  0  0
  1  2  1  0
  2  3  1  0
  2  4  1  0
  2  5  1  0
  5  6  1  0
  6  7  2  0
  6  8  1  0
  8  9  1  0
  9 10  1  0
  9 11  1  0
  9 12  1  0
  6 13  1  0
 13 14  1  0
 13 15  1  0
 13 16  1  0
 16 17  2  0
 17 18  1  0
 18 19  2  0
 19 20  1  0
 20 21  2  0
 21 22  1  0
 22 23  1  0
 22 24  2  0
 21 25  1  0
 25 26  1  0
 26 27  2  0
 26 28  1  0
 28 29  1  0
 29 30  1  0
 30 31  1  0
 31 32  1  0
 32 33  1  0
 25 34  1  0
 34 35  2  0
 35 16  1  0
 34 19  1  0
 33 28  1  0
  1 36  1  0
  1 37  1  0
  1 38  1  0
  3 39  1  0
  3 40  1  0
  3 41  1  0
  4 42  1  0
  4 43  1  0
  4 44  1  0
 10 45  1  0
 10 46  1  0
 10 47  1  0
 11 48  1  0
 11 49  1  0
 11 50  1  0
 12 51  1  0
 12 52  1  0
 12 53  1  0
 17 54  1  0
 18 55  1  0
 20 56  1  0
 23 57  1  0
 28 58  1  0
 29 59  1  0
 29 60  1  0
 30 61  1  0
 30 62  1  0
 31 63  1  0
 31 64  1  0
 32 65  1  0
 32 66  1  0
 33 67  1  0
 33 68  1  0
 35 69  1  0
M  CHG  1  23  -1
M  END
>  <UniqueID>  (5) 
5

>  <SMILES>  (5) 
CC(C)(C)OP(=O)(OC(C)(C)C)C(F)(F)c1ccc2cc(C([NH-])=O)n(C(=O)C3CCCCC3)c2c1

>  <Energy>  (5) 
122.08193054109505

>  <Genealogy>  (5) 
CC(C)(C)OP(=O)(OC(C)(C)C)C(F)(F)c1ccc2cc(C([NH-])=O)n(C(=O)C3CCCCC3)c2c1 (protonated)
CC(C)(C)OP(=O)(OC(C)(C)C)C(F)(F)c1ccc2cc(C([NH-])=O)n(C(=O)C3CCCCC3)c2c1 (3D coordinates assigned)
CC(C)(C)OP(=O)(OC(C)(C)C)C(F)(F)c1ccc2cc(C([NH-])=O)n(C(=O)C3CCCCC3)c2c1 (nonaromatic ring conformer: 122.08193054109505 kcal/mol)

>  <smiles>  (5) 
CC(C)(C)OP(=O)(OC(C)(C)C)C(F)(F)c1ccc2cc(C(N)=O)n(C(=O)C3CCCCC3)c2c1

>  <score_type>  (5) 
oracle

>  <origin>  (5) 
adg

>  <m_score__min__energy>  (5) 
-12.039999999999999

>  <m_primary>  (5) 
energy

$$$$
5:0
     RDKit          3D

 55 58  0  0  0  0  0  0  0  0999 V2000
   -1.2100   20.7520  -31.6630 C   0  0  0  0  0  0  0  0  0  0  0  0
   -2.3680   20.9990  -32.6220 C   0  0  0  0  0  0  0  0  0  0  0  0
   -2.8750   22.3230  -32.4680 O   0  0  0  0  0  0  0  0  0  0  0  0
   -3.5410   22.7650  -31.3190 C   0  0  0  0  0  0  0  0  0  0  0  0
   -2.8930   23.0350  -30.2710 O   0  0  0  0  0  0  0  0  0  0  0  0
   -4.9710   22.8840  -31.3270 N   0  0  0  0  0  0  0  0  0  0  0  0
   -5.7260   23.9450  -30.9220 C   0  0  0  0  0  0  0  0  0  0  0  0
   -5.2150   25.2760  -30.5310 C   0  0  0  0  0  0  0  0  0  0  0  0
   -3.8840   25.6750  -30.8510 N   0  0  0  0  0  0  0  0  0  0  0  0
   -5.9790   26.0910  -29.9480 O   0  0  0  0  0  0  0  0  0  0  0  0
   -7.0820   23.6390  -31.0050 C   0  0  0  0  0  0  0  0  0  0  0  0
   -7.1360   22.3510  -31.4870 C   0  0  0  0  0  0  0  0  0  0  0  0
   -8.2350   21.5440  -31.7560 C   0  0  0  0  0  0  0  0  0  0  0  0
   -7.9960   20.2400  -32.2220 C   0  0  0  0  0  0  0  0  0  0  0  0
   -6.6700   19.7580  -32.4050 C   0  0  0  0  0  0  0  0  0  0  0  0
   -6.4360   18.4100  -32.8740 N   0  0  0  0  0  0  0  0  0  0  0  0
   -7.4930   17.4210  -33.0620 C   0  0  0  0  0  0  0  0  0  0  0  0
   -6.8390   16.2220  -33.7390 C   0  0  0  0  0  0  0  0  0  0  0  0
   -5.3410   16.3890  -33.4600 C   0  0  1  0  0  0  0  0  0  0  0  0
   -4.7940   15.4710  -32.3490 C   0  0  0  0  0  0  0  0  0  0  0  0
   -3.8400   14.8340  -33.3720 C   0  0  1  0  0  0  0  0  0  0  0  0
   -3.9990   13.3770  -33.6320 N   0  0  0  0  0  0  0  0  0  0  0  0
   -4.3500   12.6780  -32.3850 C   0  0  0  0  0  0  0  0  0  0  0  0
   -4.9430   12.9960  -34.7020 C   0  0  0  0  0  0  0  0  0  0  0  0
   -4.3920   15.7400  -34.4790 C   0  0  0  0  0  0  0  0  0  0  0  0
   -5.1210   17.8870  -33.2200 C   0  0  0  0  0  0  0  0  0  0  0  0
   -5.5820   20.6180  -32.1160 C   0  0  0  0  0  0  0  0  0  0  0  0
   -5.8500   21.9180  -31.6710 C   0  0  0  0  0  0  0  0  0  0  0  0
   -1.5697   20.8287  -30.6263 H   0  0  0  0  0  0  0  0  0  0  0  0
   -0.7995   19.7461  -31.8352 H   0  0  0  0  0  0  0  0  0  0  0  0
   -0.4248   21.5029  -31.8352 H   0  0  0  0  0  0  0  0  0  0  0  0
   -2.0161   20.8648  -33.6555 H   0  0  0  0  0  0  0  0  0  0  0  0
   -3.1726   20.2833  -32.3974 H   0  0  0  0  0  0  0  0  0  0  0  0
   -3.0620   25.1790  -30.4430 H   0  0  0  0  0  0  0  0  0  0  0  0
   -7.9297   24.2886  -30.7414 H   0  0  0  0  0  0  0  0  0  0  0  0
   -9.2602   21.9145  -31.6087 H   0  0  0  0  0  0  0  0  0  0  0  0
   -8.8475   19.5816  -32.4488 H   0  0  0  0  0  0  0  0  0  0  0  0
   -7.9164   17.1262  -32.0905 H   0  0  0  0  0  0  0  0  0  0  0  0
   -8.3158   17.8248  -33.6702 H   0  0  0  0  0  0  0  0  0  0  0  0
   -7.2118   15.2814  -33.3073 H   0  0  0  0  0  0  0  0  0  0  0  0
   -7.0603   16.1793  -34.8157 H   0  0  0  0  0  0  0  0  0  0  0  0
   -4.2883   16.0041  -31.5304 H   0  0  0  0  0  0  0  0  0  0  0  0
   -5.4729   14.8481  -31.7481 H   0  0  0  0  0  0  0  0  0  0  0  0
   -2.7643   14.8078  -33.1435 H   0  0  0  0  0  0  0  0  0  0  0  0
   -4.0432   13.2890  -31.5233 H   0  0  0  0  0  0  0  0  0  0  0  0
   -5.4372   12.5144  -32.3499 H   0  0  0  0  0  0  0  0  0  0  0  0
   -3.8319   11.7083  -32.3499 H   0  0  0  0  0  0  0  0  0  0  0  0
   -5.8741   12.6202  -34.2528 H   0  0  0  0  0  0  0  0  0  0  0  0
   -5.1651   13.8749  -35.3251 H   0  0  0  0  0  0  0  0  0  0  0  0
   -4.4928   12.2091  -35.3251 H   0  0  0  0  0  0  0  0  0  0  0  0
   -3.6507   16.4304  -34.9077 H   0  0  0  0  0  0  0  0  0  0  0  0
   -4.7824   15.3092  -35.4128 H   0  0  0  0  0  0  0  0  0  0  0  0
   -4.4119   18.0463  -32.3943 H   0  0  0  0  0  0  0  0  0  0  0  0
   -4.6954   18.3888  -34.1015 H   0  0  0  0  0  0  0  0  0  0  0  0
   -4.5456   20.2707  -32.2390 H   0  0  0  0  0  0  0  0  0  0  0  0
  1  2  1  0
  2  3  1  0
  3  4  1  0
  4  5  2  0
  4  6  1  0
  6  7  1  0
  7  8  1  0
  8  9  1  0
  8 10  2  0
  7 11  2  0
 11 12  1  0
 12 13  2  0
 13 14  1  0
 14 15  2  0
 15 16  1  0
 16 17  1  0
 17 18  1  0
 19 18  1  6
 19 20  1  0
 20 21  1  0
 21 22  1  0
 22 23  1  0
 22 24  1  0
 21 25  1  0
 19 26  1  0
 15 27  1  0
 27 28  2  0
 28  6  1  0
 28 12  1  0
 26 16  1  0
 25 19  1  0
  1 29  1  0
  1 30  1  0
  1 31  1  0
  2 32  1  0
  2 33  1  0
  9 34  1  0
 11 35  1  0
 13 36  1  0
 14 37  1  0
 17 38  1  0
 17 39  1  0
 18 40  1  0
 18 41  1  0
 20 42  1  0
 20 43  1  0
 21 44  1  1
 23 45  1  0
 23 46  1  0
 23 47  1  0
 24 48  1  0
 24 49  1  0
 24 50  1  0
 25 51  1  0
 25 52  1  0
 26 53  1  0
 26 54  1  0
 27 55  1  0
M  CHG  1   9  -1
M  END
>  <UniqueID>  (6) 
6

>  <SMILES>  (6) 
CCOC(=O)n1c(C([NH-])=O)cc2ccc(N3CCC4(CC(N(C)C)C4)C3)cc21

>  <Energy>  (6) 
166.20636616595706

>  <Genealogy>  (6) 
CCOC(=O)n1c(C([NH-])=O)cc2ccc(N3CCC4(CC(N(C)C)C4)C3)cc21 (protonated)
CCOC(=O)n1c(C([NH-])=O)cc2ccc(N3CCC4(CC(N(C)C)C4)C3)cc21 (3D coordinates assigned)
CCOC(=O)n1c(C([NH-])=O)cc2ccc(N3CCC4(CC(N(C)C)C4)C3)cc21 (nonaromatic ring conformer: 166.20636616595706 kcal/mol)

>  <smiles>  (6) 
CCOC(=O)n1c(C(N)=O)cc2ccc(N3CCC4(CC(N(C)C)C4)C3)cc21

>  <score_type>  (6) 
oracle

>  <origin>  (6) 
adg

>  <m_score__min__energy>  (6) 
-10.81

>  <m_primary>  (6) 
energy

$$$$
6:0
     RDKit          3D

 45 47  0  0  0  0  0  0  0  0999 V2000
   -7.2430   17.1400  -32.9090 C   0  0  0  0  0  0  0  0  0  0  0  0
   -6.4980   16.9200  -34.2470 C   0  0  0  0  0  0  0  0  0  0  0  0
   -5.8000   15.5400  -34.1690 C   0  0  0  0  0  0  0  0  0  0  0  0
   -5.5170   18.0140  -34.5260 N   0  0  0  0  0  0  0  0  0  0  0  0
   -4.1110   17.5890  -34.2830 C   0  0  0  0  0  0  0  0  0  0  0  0
   -3.1540   18.7600  -34.0390 C   0  0  0  0  0  0  0  0  0  0  0  0
   -3.6110   19.5520  -32.8910 N   0  0  0  0  0  0  0  0  0  0  0  0
   -2.6680   20.2680  -32.0580 C   0  0  0  0  0  0  0  0  0  0  0  0
   -1.3720   19.7350  -31.8120 C   0  0  0  0  0  0  0  0  0  0  0  0
   -0.4510   20.4210  -31.0050 C   0  0  0  0  0  0  0  0  0  0  0  0
   -0.8370   21.6410  -30.4610 C   0  0  0  0  0  0  0  0  0  0  0  0
   -0.1510   22.4920  -29.6270 C   0  0  0  0  0  0  0  0  0  0  0  0
   -1.0200   23.5540  -29.3920 C   0  0  0  0  0  0  0  0  0  0  0  0
   -0.6510   24.7380  -28.5940 C   0  0  0  0  0  0  0  0  0  0  0  0
   -1.4060   25.9490  -28.6750 N   0  0  0  0  0  0  0  0  0  0  0  0
    0.3840   24.7030  -27.8790 O   0  0  0  0  0  0  0  0  0  0  0  0
   -2.2040   23.3620  -30.0400 N   0  0  0  0  0  0  0  0  0  0  0  0
   -3.3850   24.1760  -29.9470 C   0  0  0  0  0  0  0  0  0  0  0  0
   -4.2930   23.8980  -29.1190 O   0  0  0  0  0  0  0  0  0  0  0  0
   -3.5420   25.2810  -30.7760 O   0  0  0  0  0  0  0  0  0  0  0  0
   -2.0740   22.1860  -30.6960 C   0  0  0  0  0  0  0  0  0  0  0  0
   -3.0210   21.5120  -31.4760 C   0  0  0  0  0  0  0  0  0  0  0  0
   -5.0450   19.5620  -32.5850 C   0  0  0  0  0  0  0  0  0  0  0  0
   -5.8620   19.2990  -33.8560 C   0  0  0  0  0  0  0  0  0  0  0  0
   -6.5594   16.9381  -32.0712 H   0  0  0  0  0  0  0  0  0  0  0  0
   -7.5953   18.1805  -32.8523 H   0  0  0  0  0  0  0  0  0  0  0  0
   -8.1040   16.4578  -32.8523 H   0  0  0  0  0  0  0  0  0  0  0  0
   -7.2141   16.9401  -35.0817 H   0  0  0  0  0  0  0  0  0  0  0  0
   -5.6583   15.2598  -33.1148 H   0  0  0  0  0  0  0  0  0  0  0  0
   -6.4244   14.7845  -34.6684 H   0  0  0  0  0  0  0  0  0  0  0  0
   -4.8215   15.5953  -34.6684 H   0  0  0  0  0  0  0  0  0  0  0  0
   -4.0927   16.9340  -33.3994 H   0  0  0  0  0  0  0  0  0  0  0  0
   -3.7667   17.0726  -35.1912 H   0  0  0  0  0  0  0  0  0  0  0  0
   -2.1461   18.3699  -33.8342 H   0  0  0  0  0  0  0  0  0  0  0  0
   -3.1321   19.4003  -34.9332 H   0  0  0  0  0  0  0  0  0  0  0  0
   -1.0878   18.7717  -32.2606 H   0  0  0  0  0  0  0  0  0  0  0  0
    0.5482   20.0051  -30.8084 H   0  0  0  0  0  0  0  0  0  0  0  0
    0.8667   22.3616  -29.2303 H   0  0  0  0  0  0  0  0  0  0  0  0
   -2.2030   26.0480  -29.3410 H   0  0  0  0  0  0  0  0  0  0  0  0
   -1.1690   26.7540  -28.0550 H   0  0  0  0  0  0  0  0  0  0  0  0
   -4.0218   21.9400  -31.6347 H   0  0  0  0  0  0  0  0  0  0  0  0
   -5.2636   18.7785  -31.8445 H   0  0  0  0  0  0  0  0  0  0  0  0
   -5.3181   20.5483  -32.1816 H   0  0  0  0  0  0  0  0  0  0  0  0
   -6.9283   19.2764  -33.5866 H   0  0  0  0  0  0  0  0  0  0  0  0
   -5.6291   20.1074  -34.5647 H   0  0  0  0  0  0  0  0  0  0  0  0
  1  2  1  0
  2  3  1  0
  2  4  1  0
  4  5  1  0
  5  6  1  0
  6  7  1  0
  7  8  1  0
  8  9  2  0
  9 10  1  0
 10 11  2  0
 11 12  1  0
 12 13  2  0
 13 14  1  0
 14 15  1  0
 14 16  2  0
 13 17  1  0
 17 18  1  0
 18 19  2  0
 18 20  1  0
 17 21  1  0
 21 22  2  0
  7 23  1  0
 23 24  1  0
 24  4  1  0
 22  8  1  0
 21 11  1  0
  1 25  1  0
  1 26  1  0
  1 27  1  0
  2 28  1  0
  3 29  1  0
  3 30  1  0
  3 31  1  0
  5 32  1  0
  5 33  1  0
  6 34  1  0
  6 35  1  0
  9 36  1  0
 10 37  1  0
 12 38  1  0
 15 39  1  0
 15 40  1  0
 22 41  1  0
 23 42  1  0
 23 43  1  0
 24 44  1  0
 24 45  1  0
M  CHG  1  20  -1
M  END
>  <UniqueID>  (7) 
7

>  <SMILES>  (7) 
CC(C)N1CCN(c2ccc3cc(C(N)=O)n(C(=O)[O-])c3c2)CC1

>  <Energy>  (7) 
100.14587644505066

>  <Genealogy>  (7) 
CC(C)N1CCN(c2ccc3cc(C(N)=O)n(C(=O)[O-])c3c2)CC1 (protonated)
CC(C)N1CCN(c2ccc3cc(C(N)=O)n(C(=O)[O-])c3c2)CC1 (3D coordinates assigned)
CC(C)N1CCN(c2ccc3cc(C(N)=O)n(C(=O)[O-])c3c2)CC1 (nonaromatic ring conformer: 100.14587644505066 kcal/mol)

>  <smiles>  (7) 
CC(C)N1CCN(c2ccc3cc(C(N)=O)n(C(=O)O)c3c2)CC1

>  <score_type>  (7) 
oracle

>  <origin>  (7) 
adg

>  <m_score__min__energy>  (7) 
-9.3300000000000001

>  <m_primary>  (7) 
energy

$$$$
7:0
     RDKit          3D

 56 59  0  0  0  0  0  0  0  0999 V2000
   -3.5390   21.2640  -30.2420 C   0  0  0  0  0  0  0  0  0  0  0  0
   -3.9260   22.4880  -31.0110 C   0  0  0  0  0  0  0  0  0  0  0  0
   -3.0300   23.1680  -31.5790 O   0  0  0  0  0  0  0  0  0  0  0  0
   -5.3060   22.8460  -31.1730 N   0  0  0  0  0  0  0  0  0  0  0  0
   -5.9170   24.0200  -30.8440 C   0  0  0  0  0  0  0  0  0  0  0  0
   -5.2340   25.2620  -30.4270 C   0  0  0  0  0  0  0  0  0  0  0  0
   -3.8100   25.2990  -30.3470 N   0  0  0  0  0  0  0  0  0  0  0  0
   -5.8960   26.2850  -30.1060 O   0  0  0  0  0  0  0  0  0  0  0  0
   -7.2940   23.9210  -31.0390 C   0  0  0  0  0  0  0  0  0  0  0  0
   -7.5080   22.6430  -31.5060 C   0  0  0  0  0  0  0  0  0  0  0  0
   -8.6940   21.9910  -31.8290 C   0  0  0  0  0  0  0  0  0  0  0  0
   -8.6170   20.6490  -32.2440 C   0  0  0  0  0  0  0  0  0  0  0  0
   -7.3650   19.9940  -32.3390 C   0  0  0  0  0  0  0  0  0  0  0  0
   -7.3010   18.5450  -32.7390 C   0  0  0  0  0  0  0  0  0  0  0  0
   -6.2850   18.2980  -33.8650 C   0  0  0  0  0  0  0  0  0  0  0  0
   -5.2480   17.2540  -33.4930 C   0  0  0  0  0  0  0  0  0  0  0  0
   -5.6820   16.1090  -32.7930 C   0  0  0  0  0  0  0  0  0  0  0  0
   -4.7760   15.1190  -32.4110 C   0  0  0  0  0  0  0  0  0  0  0  0
   -3.4250   15.2470  -32.7310 C   0  0  0  0  0  0  0  0  0  0  0  0
   -2.9720   16.3700  -33.4260 C   0  0  0  0  0  0  0  0  0  0  0  0
   -3.8640   17.3920  -33.8020 C   0  0  0  0  0  0  0  0  0  0  0  0
   -3.3130   18.5900  -34.5460 C   0  0  0  0  0  0  0  0  0  0  0  0
   -2.1990   19.2110  -33.8000 N   0  0  0  0  0  0  0  0  0  0  0  0
   -2.5090   20.6120  -33.4440 C   0  0  0  0  0  0  0  0  0  0  0  0
   -1.2480   21.3310  -32.9340 C   0  0  0  0  0  0  0  0  0  0  0  0
   -0.1240   21.2840  -33.8070 O   0  0  0  0  0  0  0  0  0  0  0  0
   -0.3010   20.4260  -34.9190 C   0  0  0  0  0  0  0  0  0  0  0  0
   -0.9060   19.0710  -34.5180 C   0  0  0  0  0  0  0  0  0  0  0  0
   -6.1800   20.6900  -32.0060 C   0  0  0  0  0  0  0  0  0  0  0  0
   -6.2900   22.0190  -31.5890 C   0  0  0  0  0  0  0  0  0  0  0  0
   -3.6048   21.4722  -29.1639 H   0  0  0  0  0  0  0  0  0  0  0  0
   -4.2202   20.4392  -30.4984 H   0  0  0  0  0  0  0  0  0  0  0  0
   -2.5075   20.9808  -30.4984 H   0  0  0  0  0  0  0  0  0  0  0  0
   -3.2260   25.3430  -31.2110 H   0  0  0  0  0  0  0  0  0  0  0  0
   -8.0500   24.6993  -30.8581 H   0  0  0  0  0  0  0  0  0  0  0  0
   -9.6621   22.5090  -31.7619 H   0  0  0  0  0  0  0  0  0  0  0  0
   -9.5380   20.1033  -32.4971 H   0  0  0  0  0  0  0  0  0  0  0  0
   -7.0101   17.9480  -31.8621 H   0  0  0  0  0  0  0  0  0  0  0  0
   -8.2944   18.2530  -33.1105 H   0  0  0  0  0  0  0  0  0  0  0  0
   -6.8259   17.9550  -34.7593 H   0  0  0  0  0  0  0  0  0  0  0  0
   -5.7553   19.2440  -34.0509 H   0  0  0  0  0  0  0  0  0  0  0  0
   -6.7477   15.9951  -32.5452 H   0  0  0  0  0  0  0  0  0  0  0  0
   -5.1280   14.2365  -31.8567 H   0  0  0  0  0  0  0  0  0  0  0  0
   -2.7143   14.4613  -32.4352 H   0  0  0  0  0  0  0  0  0  0  0  0
   -1.9059   16.4571  -33.6827 H   0  0  0  0  0  0  0  0  0  0  0  0
   -2.9486   18.2648  -35.5316 H   0  0  0  0  0  0  0  0  0  0  0  0
   -4.1166   19.3328  -34.6577 H   0  0  0  0  0  0  0  0  0  0  0  0
   -2.8893   21.1357  -34.3334 H   0  0  0  0  0  0  0  0  0  0  0  0
   -3.2675   20.6167  -32.6473 H   0  0  0  0  0  0  0  0  0  0  0  0
   -1.5039   22.3876  -32.7665 H   0  0  0  0  0  0  0  0  0  0  0  0
   -0.9446   20.7999  -32.0197 H   0  0  0  0  0  0  0  0  0  0  0  0
   -0.9733   20.9145  -35.6396 H   0  0  0  0  0  0  0  0  0  0  0  0
    0.6890   20.2361  -35.3593 H   0  0  0  0  0  0  0  0  0  0  0  0
   -1.0715   18.4761  -35.4284 H   0  0  0  0  0  0  0  0  0  0  0  0
   -0.1977   18.5798  -33.8346 H   0  0  0  0  0  0  0  0  0  0  0  0
   -5.1982   20.1985  -32.0734 H   0  0  0  0  0  0  0  0  0  0  0  0
  1  2  1  0
  2  3  2  0
  2  4  1  0
  4  5  1  0
  5  6  1  0
  6  7  1  0
  6  8  2  0
  5  9  2  0
  9 10  1  0
 10 11  2  0
 11 12  1  0
 12 13  2  0
 13 14  1  0
 14 15  1  0
 15 16  1  0
 16 17  2  0
 17 18  1  0
 18 19  2  0
 19 20  1  0
 20 21  2  0
 21 22  1  0
 22 23  1  0
 23 24  1  0
 24 25  1  0
 25 26  1  0
 26 27  1  0
 27 28  1  0
 13 29  1  0
 29 30  2  0
 30  4  1  0
 30 10  1  0
 21 16  1  0
 28 23  1  0
  1 31  1  0
  1 32  1  0
  1 33  1  0
  7 34  1  0
  9 35  1  0
 11 36  1  0
 12 37  1  0
 14 38  1  0
 14 39  1  0
 15 40  1  0
 15 41  1  0
 17 42  1  0
 18 43  1  0
 19 44  1  0
 20 45  1  0
 22 46  1  0
 22 47  1  0
 24 48  1  0
 24 49  1  0
 25 50  1  0
 25 51  1  0
 27 52  1  0
 27 53  1  0
 28 54  1  0
 28 55  1  0
 29 56  1  0
M  CHG  1   7  -1
M  END
>  <UniqueID>  (8) 
8

>  <SMILES>  (8) 
CC(=O)n1c(C([NH-])=O)cc2ccc(CCc3ccccc3CN3CCOCC3)cc21

>  <Energy>  (8) 
108.54509476842661

>  <Genealogy>  (8) 
CC(=O)n1c(C([NH-])=O)cc2ccc(CCc3ccccc3CN3CCOCC3)cc21 (protonated)
CC(=O)n1c(C([NH-])=O)cc2ccc(CCc3ccccc3CN3CCOCC3)cc21 (3D coordinates assigned)
CC(=O)n1c(C([NH-])=O)cc2ccc(CCc3ccccc3CN3CCOCC3)cc21 (nonaromatic ring conformer: 108.54509476842661 kcal/mol)

>  <smiles>  (8) 
CC(=O)n1c(C(N)=O)cc2ccc(CCc3ccccc3CN3CCOCC3)cc21

>  <score_type>  (8) 
oracle

>  <origin>  (8) 
adg

>  <m_score__min__energy>  (8) 
-12.23

>  <m_primary>  (8) 
energy

$$$$
8:0
     RDKit          3D

 45 47  0  0  0  0  0  0  0  0999 V2000
   -6.3560   16.5020  -34.3590 C   0  0  0  0  0  0  0  0  0  0  0  0
   -5.7880   17.8040  -34.0300 N   0  0  0  0  0  0  0  0  0  0  0  0
   -4.7050   18.0240  -33.2630 C   0  0  0  0  0  0  0  0  0  0  0  0
   -4.5410   19.3970  -33.1250 C   0  0  0  0  0  0  0  0  0  0  0  0
   -3.4840   20.1110  -32.3660 C   0  0  0  0  0  0  0  0  0  0  0  0
   -2.1810   19.5570  -32.2490 C   0  0  0  0  0  0  0  0  0  0  0  0
   -1.1700   20.2310  -31.5430 C   0  0  0  0  0  0  0  0  0  0  0  0
   -1.4870   21.4510  -30.9550 C   0  0  0  0  0  0  0  0  0  0  0  0
   -0.6950   22.3200  -30.2420 C   0  0  0  0  0  0  0  0  0  0  0  0
   -1.5250   23.3890  -29.9110 C   0  0  0  0  0  0  0  0  0  0  0  0
   -1.0960   24.5230  -29.0670 C   0  0  0  0  0  0  0  0  0  0  0  0
   -1.9270   25.6770  -28.9530 N   0  0  0  0  0  0  0  0  0  0  0  0
    0.0150   24.5030  -28.4750 O   0  0  0  0  0  0  0  0  0  0  0  0
   -2.7800   23.1880  -30.4040 N   0  0  0  0  0  0  0  0  0  0  0  0
   -3.8990   24.0870  -30.3430 C   0  0  0  0  0  0  0  0  0  0  0  0
   -3.7760   25.2630  -30.7770 O   0  0  0  0  0  0  0  0  0  0  0  0
   -5.1070   23.6460  -29.7820 O   0  0  0  0  0  0  0  0  0  0  0  0
   -6.4250   23.9120  -30.2840 C   0  0  0  0  0  0  0  0  0  0  0  0
   -7.3420   22.7960  -29.7610 C   0  0  0  0  0  0  0  0  0  0  0  0
   -6.4360   23.8840  -31.8230 C   0  0  0  0  0  0  0  0  0  0  0  0
   -6.9410   25.2660  -29.7600 C   0  0  0  0  0  0  0  0  0  0  0  0
   -2.7400   21.9970  -31.0390 C   0  0  0  0  0  0  0  0  0  0  0  0
   -3.7610   21.3570  -31.7520 C   0  0  0  0  0  0  0  0  0  0  0  0
   -5.5940   19.9540  -33.8410 C   0  0  0  0  0  0  0  0  0  0  0  0
   -6.3320   18.9620  -34.3680 N   0  0  0  0  0  0  0  0  0  0  0  0
   -6.5924   15.9601  -33.4314 H   0  0  0  0  0  0  0  0  0  0  0  0
   -7.2753   16.6410  -34.9469 H   0  0  0  0  0  0  0  0  0  0  0  0
   -5.6288   15.9227  -34.9469 H   0  0  0  0  0  0  0  0  0  0  0  0
   -4.0601   17.2502  -32.8211 H   0  0  0  0  0  0  0  0  0  0  0  0
   -1.9604   18.5866  -32.7177 H   0  0  0  0  0  0  0  0  0  0  0  0
   -0.1587   19.8067  -31.4580 H   0  0  0  0  0  0  0  0  0  0  0  0
    0.3680   22.1973  -29.9871 H   0  0  0  0  0  0  0  0  0  0  0  0
   -2.9010   25.6760  -29.3310 H   0  0  0  0  0  0  0  0  0  0  0  0
   -7.3367   22.8024  -28.6610 H   0  0  0  0  0  0  0  0  0  0  0  0
   -8.3669   22.9634  -30.1237 H   0  0  0  0  0  0  0  0  0  0  0  0
   -6.9790   21.8230  -30.1237 H   0  0  0  0  0  0  0  0  0  0  0  0
   -6.8178   22.9122  -32.1693 H   0  0  0  0  0  0  0  0  0  0  0  0
   -7.0850   24.6883  -32.1997 H   0  0  0  0  0  0  0  0  0  0  0  0
   -5.4131   24.0315  -32.1997 H   0  0  0  0  0  0  0  0  0  0  0  0
   -6.9382   25.2586  -28.6600 H   0  0  0  0  0  0  0  0  0  0  0  0
   -6.2873   26.0728  -30.1229 H   0  0  0  0  0  0  0  0  0  0  0  0
   -7.9659   25.4332  -30.1229 H   0  0  0  0  0  0  0  0  0  0  0  0
   -4.7587   21.8129  -31.8337 H   0  0  0  0  0  0  0  0  0  0  0  0
   -5.7910   21.0299  -33.9573 H   0  0  0  0  0  0  0  0  0  0  0  0
   -7.2000   19.0740  -34.9370 H   0  0  0  0  0  0  0  0  0  0  0  0
  1  2  1  0
  2  3  1  0
  3  4  2  0
  4  5  1  0
  5  6  2  0
  6  7  1  0
  7  8  2  0
  8  9  1  0
  9 10  2  0
 10 11  1  0
 11 12  1  0
 11 13  2  0
 10 14  1  0
 14 15  1  0
 15 16  2  0
 15 17  1  0
 17 18  1  0
 18 19  1  0
 18 20  1  0
 18 21  1  0
 14 22  1  0
 22 23  2  0
  4 24  1  0
 24 25  2  0
 25  2  1  0
 23  5  1  0
 22  8  1  0
  1 26  1  0
  1 27  1  0
  1 28  1  0
  3 29  1  0
  6 30  1  0
  7 31  1  0
  9 32  1  0
 12 33  1  0
 19 34  1  0
 19 35  1  0
 19 36  1  0
 20 37  1  0
 20 38  1  0
 20 39  1  0
 21 40  1  0
 21 41  1  0
 21 42  1  0
 23 43  1  0
 24 44  1  0
 25 45  1  0
M  CHG  2  12  -1  25   1
M  END
>  <UniqueID>  (9) 
9

>  <SMILES>  (9) 
Cn1cc(-c2ccc3cc(C([NH-])=O)n(C(=O)OC(C)(C)C)c3c2)c[nH+]1

>  <Energy>  (9) 
112.30760712412648

>  <Genealogy>  (9) 
Cn1cc(-c2ccc3cc(C([NH-])=O)n(C(=O)OC(C)(C)C)c3c2)c[nH+]1 (protonated)
Cn1cc(-c2ccc3cc(C([NH-])=O)n(C(=O)OC(C)(C)C)c3c2)c[nH+]1 (3D coordinates assigned)
Cn1cc(-c2ccc3cc(C([NH-])=O)n(C(=O)OC(C)(C)C)c3c2)c[nH+]1 (optimized conformer: 112.30760712412648 kcal/mol)

>  <smiles>  (9) 
Cn1cc(-c2ccc3cc(C(N)=O)n(C(=O)OC(C)(C)C)c3c2)cn1

>  <score_type>  (9) 
oracle

>  <origin>  (9) 
adg

>  <m_score__min__energy>  (9) 
-10.75

>  <m_primary>  (9) 
energy

$$$$
9:0
     RDKit          3D

 41 43  0  0  0  0  0  0  0  0999 V2000
   -6.9330   17.8620  -31.7180 C   0  0  0  0  0  0  0  0  0  0  0  0
   -7.7400   18.7670  -32.6420 C   0  0  0  0  0  0  0  0  0  0  0  0
   -7.6940   20.1930  -32.1640 C   0  0  0  0  0  0  0  0  0  0  0  0
   -8.8900   20.9460  -32.0600 C   0  0  0  0  0  0  0  0  0  0  0  0
   -8.8570   22.2860  -31.6360 C   0  0  0  0  0  0  0  0  0  0  0  0
   -7.6190   22.8460  -31.3390 C   0  0  0  0  0  0  0  0  0  0  0  0
   -7.3000   24.1090  -30.8950 C   0  0  0  0  0  0  0  0  0  0  0  0
   -5.9120   24.1180  -30.7690 C   0  0  0  0  0  0  0  0  0  0  0  0
   -5.1340   25.3220  -30.4070 C   0  0  0  0  0  0  0  0  0  0  0  0
   -3.7120   25.2790  -30.3280 N   0  0  0  0  0  0  0  0  0  0  0  0
   -5.7310   26.4140  -30.2110 O   0  0  0  0  0  0  0  0  0  0  0  0
   -5.3950   22.9040  -31.1110 N   0  0  0  0  0  0  0  0  0  0  0  0
   -4.0250   22.4830  -31.0500 C   0  0  0  0  0  0  0  0  0  0  0  0
   -3.1260   23.1900  -31.5810 O   0  0  0  0  0  0  0  0  0  0  0  0
   -3.6940   21.2960  -30.3890 O   0  0  0  0  0  0  0  0  0  0  0  0
   -2.7230   21.2270  -29.3460 C   0  0  0  0  0  0  0  0  0  0  0  0
   -2.7250   22.5020  -28.5480 C   0  0  0  0  0  0  0  0  0  0  0  0
   -1.5850   23.3200  -28.5310 C   0  0  0  0  0  0  0  0  0  0  0  0
   -1.5920   24.5250  -27.8210 C   0  0  0  0  0  0  0  0  0  0  0  0
   -2.7380   24.9200  -27.1260 C   0  0  0  0  0  0  0  0  0  0  0  0
   -3.8790   24.1150  -27.1430 C   0  0  0  0  0  0  0  0  0  0  0  0
   -3.8760   22.9090  -27.8510 C   0  0  0  0  0  0  0  0  0  0  0  0
   -6.4500   22.1390  -31.4620 C   0  0  0  0  0  0  0  0  0  0  0  0
   -6.4530   20.7990  -31.8660 C   0  0  0  0  0  0  0  0  0  0  0  0
   -7.1573   18.1135  -30.6709 H   0  0  0  0  0  0  0  0  0  0  0  0
   -7.2001   16.8120  -31.9082 H   0  0  0  0  0  0  0  0  0  0  0  0
   -5.8594   18.0075  -31.9082 H   0  0  0  0  0  0  0  0  0  0  0  0
   -7.3201   18.7129  -33.6573 H   0  0  0  0  0  0  0  0  0  0  0  0
   -8.7865   18.4282  -32.6429 H   0  0  0  0  0  0  0  0  0  0  0  0
   -9.8527   20.4779  -32.3133 H   0  0  0  0  0  0  0  0  0  0  0  0
   -9.7821   22.8737  -31.5420 H   0  0  0  0  0  0  0  0  0  0  0  0
   -7.9937   24.9363  -30.6842 H   0  0  0  0  0  0  0  0  0  0  0  0
   -3.1230   25.3610  -31.1860 H   0  0  0  0  0  0  0  0  0  0  0  0
   -2.9621   20.3829  -28.6825 H   0  0  0  0  0  0  0  0  0  0  0  0
   -1.7275   21.0846  -29.7918 H   0  0  0  0  0  0  0  0  0  0  0  0
   -0.6819   23.0122  -29.0784 H   0  0  0  0  0  0  0  0  0  0  0  0
   -0.6952   25.1618  -27.8097 H   0  0  0  0  0  0  0  0  0  0  0  0
   -2.7414   25.8661  -26.5649 H   0  0  0  0  0  0  0  0  0  0  0  0
   -4.7815   24.4300  -26.5987 H   0  0  0  0  0  0  0  0  0  0  0  0
   -4.7765   22.2773  -27.8625 H   0  0  0  0  0  0  0  0  0  0  0  0
   -5.5138   20.2325  -31.9493 H   0  0  0  0  0  0  0  0  0  0  0  0
  1  2  1  0
  2  3  1  0
  3  4  2  0
  4  5  1  0
  5  6  2  0
  6  7  1  0
  7  8  2  0
  8  9  1  0
  9 10  1  0
  9 11  2  0
  8 12  1  0
 12 13  1  0
 13 14  2  0
 13 15  1  0
 15 16  1  0
 16 17  1  0
 17 18  2  0
 18 19  1  0
 19 20  2  0
 20 21  1  0
 21 22  2  0
 12 23  1  0
 23 24  2  0
 24  3  1  0
 23  6  1  0
 22 17  1  0
  1 25  1  0
  1 26  1  0
  1 27  1  0
  2 28  1  0
  2 29  1  0
  4 30  1  0
  5 31  1  0
  7 32  1  0
 10 33  1  0
 16 34  1  0
 16 35  1  0
 18 36  1  0
 19 37  1  0
 20 38  1  0
 21 39  1  0
 22 40  1  0
 24 41  1  0
M  CHG  1  10  -1
M  END
>  <UniqueID>  (10) 
10

>  <SMILES>  (10) 
CCc1ccc2cc(C([NH-])=O)n(C(=O)OCc3ccccc3)c2c1

>  <Energy>  (10) 
77.03340925509572

>  <Genealogy>  (10) 
CCc1ccc2cc(C([NH-])=O)n(C(=O)OCc3ccccc3)c2c1 (protonated)
CCc1ccc2cc(C([NH-])=O)n(C(=O)OCc3ccccc3)c2c1 (3D coordinates assigned)
CCc1ccc2cc(C([NH-])=O)n(C(=O)OCc3ccccc3)c2c1 (optimized conformer: 77.03340925509572 kcal/mol)

>  <smiles>  (10) 
CCc1ccc2cc(C(N)=O)n(C(=O)OCc3ccccc3)c2c1

>  <score_type>  (10) 
oracle

>  <origin>  (10) 
adg

>  <m_score__min__energy>  (10) 
-11.17

>  <m_primary>  (10) 
energy

$$$$
10:0
     RDKit          3D

 37 39  0  0  0  0  0  0  0  0999 V2000
   -4.5940   13.3280  -32.4780 C   0  0  0  0  0  0  0  0  0  0  0  0
   -4.7580   13.3990  -33.9660 C   0  0  0  0  0  0  0  0  0  0  0  0
   -4.1180   12.5910  -34.6880 O   0  0  0  0  0  0  0  0  0  0  0  0
   -5.5880   14.3850  -34.5960 N   0  0  0  0  0  0  0  0  0  0  0  0
   -5.7970   15.7340  -34.1600 C   0  0  0  0  0  0  0  0  0  0  0  0
   -4.7910   16.7070  -34.2640 C   0  0  0  0  0  0  0  0  0  0  0  0
   -5.0330   17.9980  -33.7940 C   0  0  0  0  0  0  0  0  0  0  0  0
   -6.2660   18.3180  -33.2030 C   0  0  0  0  0  0  0  0  0  0  0  0
   -6.5350   19.6880  -32.6970 C   0  0  0  0  0  0  0  0  0  0  0  0
   -7.8670   20.1810  -32.6340 C   0  0  0  0  0  0  0  0  0  0  0  0
   -8.1320   21.4780  -32.1670 C   0  0  0  0  0  0  0  0  0  0  0  0
   -7.0550   22.2610  -31.7650 C   0  0  0  0  0  0  0  0  0  0  0  0
   -7.0270   23.5550  -31.2990 C   0  0  0  0  0  0  0  0  0  0  0  0
   -5.6820   23.8330  -31.0620 C   0  0  0  0  0  0  0  0  0  0  0  0
   -5.2080   25.0970  -30.4630 C   0  0  0  0  0  0  0  0  0  0  0  0
   -3.9610   25.6690  -30.8500 N   0  0  0  0  0  0  0  0  0  0  0  0
   -5.8890   25.6540  -29.5610 O   0  0  0  0  0  0  0  0  0  0  0  0
   -4.9090   22.7560  -31.3780 N   0  0  0  0  0  0  0  0  0  0  0  0
   -3.4750   22.6670  -31.3650 C   0  0  0  0  0  0  0  0  0  0  0  0
   -2.7340   23.1680  -30.2550 N   0  0  0  0  0  0  0  0  0  0  0  0
   -2.8630   22.1760  -32.3510 O   0  0  0  0  0  0  0  0  0  0  0  0
   -5.7650   21.8010  -31.8030 C   0  0  0  0  0  0  0  0  0  0  0  0
   -5.4680   20.5190  -32.2790 C   0  0  0  0  0  0  0  0  0  0  0  0
   -7.2320   17.3050  -33.0930 C   0  0  0  0  0  0  0  0  0  0  0  0
   -6.9750   16.0550  -33.5620 N   0  0  0  0  0  0  0  0  0  0  0  0
   -5.4988   13.7197  -31.9903 H   0  0  0  0  0  0  0  0  0  0  0  0
   -4.4382   12.2819  -32.1758 H   0  0  0  0  0  0  0  0  0  0  0  0
   -3.7246   13.9303  -32.1758 H   0  0  0  0  0  0  0  0  0  0  0  0
   -3.8191   16.4536  -34.7127 H   0  0  0  0  0  0  0  0  0  0  0  0
   -4.2541   18.7692  -33.8868 H   0  0  0  0  0  0  0  0  0  0  0  0
   -8.7000   19.5383  -32.9551 H   0  0  0  0  0  0  0  0  0  0  0  0
   -9.1611   21.8637  -32.1203 H   0  0  0  0  0  0  0  0  0  0  0  0
   -7.8840   24.2274  -31.1460 H   0  0  0  0  0  0  0  0  0  0  0  0
   -3.0600   25.3010  -30.4710 H   0  0  0  0  0  0  0  0  0  0  0  0
   -3.0110   24.0540  -29.7800 H   0  0  0  0  0  0  0  0  0  0  0  0
   -4.4278   20.1647  -32.3273 H   0  0  0  0  0  0  0  0  0  0  0  0
   -8.2028   17.5241  -32.6244 H   0  0  0  0  0  0  0  0  0  0  0  0
  1  2  1  0
  2  3  2  0
  2  4  1  0
  4  5  1  0
  5  6  2  0
  6  7  1  0
  7  8  2  0
  8  9  1  0
  9 10  2  0
 10 11  1  0
 11 12  2  0
 12 13  1  0
 13 14  2  0
 14 15  1  0
 15 16  1  0
 15 17  2  0
 14 18  1  0
 18 19  1  0
 19 20  1  0
 19 21  2  0
 18 22  1  0
 22 23  2  0
  8 24  1  0
 24 25  2  0
 25  5  1  0
 23  9  1  0
 22 12  1  0
  1 26  1  0
  1 27  1  0
  1 28  1  0
  6 29  1  0
  7 30  1  0
 10 31  1  0
 11 32  1  0
 13 33  1  0
 16 34  1  0
 20 35  1  0
 23 36  1  0
 24 37  1  0
M  CHG  3   4  -1  16  -1  20  -1
M  END
>  <UniqueID>  (11) 
11

>  <SMILES>  (11) 
CC(=O)[N-]c1ccc(-c2ccc3cc(C([NH-])=O)n(C([NH-])=O)c3c2)cn1

>  <Energy>  (11) 
88.43839543037922

>  <Genealogy>  (11) 
CC(=O)[N-]c1ccc(-c2ccc3cc(C([NH-])=O)n(C([NH-])=O)c3c2)cn1 (protonated)
CC(=O)[N-]c1ccc(-c2ccc3cc(C([NH-])=O)n(C([NH-])=O)c3c2)cn1 (3D coordinates assigned)
CC(=O)[N-]c1ccc(-c2ccc3cc(C([NH-])=O)n(C([NH-])=O)c3c2)cn1 (optimized conformer: 88.43839543037922 kcal/mol)

>  <smiles>  (11) 
CC(=O)Nc1ccc(-c2ccc3cc(C(N)=O)n(C(N)=O)c3c2)cn1

>  <score_type>  (11) 
oracle

>  <origin>  (11) 
adg

>  <m_score__min__energy>  (11) 
-10.609999999999999

>  <m_primary>  (11) 
energy

$$$$
11:0
     RDKit          3D

 44 46  0  0  0  0  0  0  0  0999 V2000
   -2.7230   21.0980  -29.0850 C   0  0  0  0  0  0  0  0  0  0  0  0
   -2.7080   22.6260  -28.9240 C   0  0  0  0  0  0  0  0  0  0  0  0
   -1.4480   23.0300  -28.1350 C   0  0  0  0  0  0  0  0  0  0  0  0
   -3.9820   23.0630  -28.1770 C   0  0  0  0  0  0  0  0  0  0  0  0
   -2.6770   23.1890  -30.2430 O   0  0  0  0  0  0  0  0  0  0  0  0
   -3.3410   22.6930  -31.3750 C   0  0  0  0  0  0  0  0  0  0  0  0
   -2.7010   22.1630  -32.3220 O   0  0  0  0  0  0  0  0  0  0  0  0
   -4.7740   22.7660  -31.4370 N   0  0  0  0  0  0  0  0  0  0  0  0
   -5.5740   23.8300  -31.1440 C   0  0  0  0  0  0  0  0  0  0  0  0
   -5.1380   25.1030  -30.5350 C   0  0  0  0  0  0  0  0  0  0  0  0
   -3.8640   25.6650  -30.8400 N   0  0  0  0  0  0  0  0  0  0  0  0
   -5.8800   25.6800  -29.6960 O   0  0  0  0  0  0  0  0  0  0  0  0
   -6.9060   23.5280  -31.4210 C   0  0  0  0  0  0  0  0  0  0  0  0
   -6.8980   22.2330  -31.8880 C   0  0  0  0  0  0  0  0  0  0  0  0
   -7.9490   21.4320  -32.3240 C   0  0  0  0  0  0  0  0  0  0  0  0
   -7.6450   20.1400  -32.7830 C   0  0  0  0  0  0  0  0  0  0  0  0
   -6.3050   19.6730  -32.8030 C   0  0  0  0  0  0  0  0  0  0  0  0
   -5.9900   18.3130  -33.3060 C   0  0  0  0  0  0  0  0  0  0  0  0
   -4.8150   18.0950  -34.0510 C   0  0  0  0  0  0  0  0  0  0  0  0
   -4.5080   16.8180  -34.5310 C   0  0  0  0  0  0  0  0  0  0  0  0
   -3.3760   16.6220  -35.2520 F   0  0  0  0  0  0  0  0  0  0  0  0
   -5.3670   15.7470  -34.2720 C   0  0  0  0  0  0  0  0  0  0  0  0
   -5.0690   14.5080  -34.7360 F   0  0  0  0  0  0  0  0  0  0  0  0
   -6.5330   15.9510  -33.5290 C   0  0  0  0  0  0  0  0  0  0  0  0
   -6.8460   17.2250  -33.0450 C   0  0  0  0  0  0  0  0  0  0  0  0
   -7.9650   17.3840  -32.2920 F   0  0  0  0  0  0  0  0  0  0  0  0
   -5.2650   20.5210  -32.3580 C   0  0  0  0  0  0  0  0  0  0  0  0
   -5.5990   21.7960  -31.8890 C   0  0  0  0  0  0  0  0  0  0  0  0
   -2.7276   20.6247  -28.0920 H   0  0  0  0  0  0  0  0  0  0  0  0
   -3.6241   20.7965  -29.6391 H   0  0  0  0  0  0  0  0  0  0  0  0
   -1.8279   20.7789  -29.6391 H   0  0  0  0  0  0  0  0  0  0  0  0
   -1.6539   22.9640  -27.0565 H   0  0  0  0  0  0  0  0  0  0  0  0
   -0.6210   22.3520  -28.3926 H   0  0  0  0  0  0  0  0  0  0  0  0
   -1.1694   24.0625  -28.3926 H   0  0  0  0  0  0  0  0  0  0  0  0
   -3.8095   23.0038  -27.0922 H   0  0  0  0  0  0  0  0  0  0  0  0
   -4.2318   24.0982  -28.4526 H   0  0  0  0  0  0  0  0  0  0  0  0
   -4.8146   22.3991  -28.4526 H   0  0  0  0  0  0  0  0  0  0  0  0
   -2.9920   25.2800  -30.4160 H   0  0  0  0  0  0  0  0  0  0  0  0
   -7.7789   24.1852  -31.2935 H   0  0  0  0  0  0  0  0  0  0  0  0
   -8.9857   21.7994  -32.3096 H   0  0  0  0  0  0  0  0  0  0  0  0
   -8.4551   19.4823  -33.1311 H   0  0  0  0  0  0  0  0  0  0  0  0
   -4.1345   18.9344  -34.2566 H   0  0  0  0  0  0  0  0  0  0  0  0
   -7.2070   15.1062  -33.3242 H   0  0  0  0  0  0  0  0  0  0  0  0
   -4.2175   20.1860  -32.3800 H   0  0  0  0  0  0  0  0  0  0  0  0
  1  2  1  0
  2  3  1  0
  2  4  1  0
  2  5  1  0
  5  6  1  0
  6  7  2  0
  6  8  1  0
  8  9  1  0
  9 10  1  0
 10 11  1  0
 10 12  2  0
  9 13  2  0
 13 14  1  0
 14 15  2  0
 15 16  1  0
 16 17  2  0
 17 18  1  0
 18 19  2  0
 19 20  1  0
 20 21  1  0
 20 22  2  0
 22 23  1  0
 22 24  1  0
 24 25  2  0
 25 26  1  0
 17 27  1  0
 27 28  2  0
 28  8  1  0
 28 14  1  0
 25 18  1  0
  1 29  1  0
  1 30  1  0
  1 31  1  0
  3 32  1  0
  3 33  1  0
  3 34  1  0
  4 35  1  0
  4 36  1  0
  4 37  1  0
 11 38  1  0
 13 39  1  0
 15 40  1  0
 16 41  1  0
 19 42  1  0
 24 43  1  0
 27 44  1  0
M  CHG  1  11  -1
M  END
>  <UniqueID>  (12) 
12

>  <SMILES>  (12) 
CC(C)(C)OC(=O)n1c(C([NH-])=O)cc2ccc(-c3cc(F)c(F)cc3F)cc21

>  <Energy>  (12) 
86.79595270067763

>  <Genealogy>  (12) 
CC(C)(C)OC(=O)n1c(C([NH-])=O)cc2ccc(-c3cc(F)c(F)cc3F)cc21 (protonated)
CC(C)(C)OC(=O)n1c(C([NH-])=O)cc2ccc(-c3cc(F)c(F)cc3F)cc21 (3D coordinates assigned)
CC(C)(C)OC(=O)n1c(C([NH-])=O)cc2ccc(-c3cc(F)c(F)cc3F)cc21 (optimized conformer: 86.79595270067763 kcal/mol)

>  <smiles>  (12) 
CC(C)(C)OC(=O)n1c(C(N)=O)cc2ccc(-c3cc(F)c(F)cc3F)cc21

>  <score_type>  (12) 
oracle

>  <origin>  (12) 
adg

>  <m_score__min__energy>  (12) 
-11.029999999999999

>  <m_primary>  (12) 
energy

$$$$
12:0
     RDKit          3D

 37 38  0  0  0  0  0  0  0  0999 V2000
   -2.5590   20.2650  -33.7290 C   0  0  0  0  0  0  0  0  0  0  0  0
   -2.2110   21.1230  -32.5170 C   0  0  0  0  0  0  0  0  0  0  0  0
   -3.0070   22.3050  -32.4930 O   0  0  0  0  0  0  0  0  0  0  0  0
   -3.7340   22.7240  -31.3730 C   0  0  0  0  0  0  0  0  0  0  0  0
   -3.1350   23.0440  -30.3090 O   0  0  0  0  0  0  0  0  0  0  0  0
   -5.1680   22.7850  -31.4320 N   0  0  0  0  0  0  0  0  0  0  0  0
   -5.9740   23.7810  -30.9690 C   0  0  0  0  0  0  0  0  0  0  0  0
   -5.5230   25.0860  -30.4450 C   0  0  0  0  0  0  0  0  0  0  0  0
   -4.1720   25.5210  -30.6040 N   0  0  0  0  0  0  0  0  0  0  0  0
   -6.3580   25.8540  -29.8960 O   0  0  0  0  0  0  0  0  0  0  0  0
   -7.3140   23.4290  -31.1000 C   0  0  0  0  0  0  0  0  0  0  0  0
   -7.3050   22.1800  -31.6780 C   0  0  0  0  0  0  0  0  0  0  0  0
   -8.3640   21.3490  -32.0210 C   0  0  0  0  0  0  0  0  0  0  0  0
   -8.0670   20.0910  -32.5690 C   0  0  0  0  0  0  0  0  0  0  0  0
   -6.7190   19.6710  -32.7580 C   0  0  0  0  0  0  0  0  0  0  0  0
   -6.4210   18.3640  -33.3140 N   0  0  0  0  0  0  0  0  0  0  0  0
   -5.7210   18.2400  -34.5990 C   0  0  0  0  0  0  0  0  0  0  0  0
   -6.8160   17.1420  -32.6020 C   0  0  0  0  0  0  0  0  0  0  0  0
   -5.6720   20.5550  -32.3890 C   0  0  0  0  0  0  0  0  0  0  0  0
   -5.9990   21.8120  -31.8670 C   0  0  0  0  0  0  0  0  0  0  0  0
   -2.9524   19.2950  -33.3908 H   0  0  0  0  0  0  0  0  0  0  0  0
   -3.3201   20.7782  -34.3352 H   0  0  0  0  0  0  0  0  0  0  0  0
   -1.6555   20.1030  -34.3352 H   0  0  0  0  0  0  0  0  0  0  0  0
   -2.3954   20.5445  -31.5998 H   0  0  0  0  0  0  0  0  0  0  0  0
   -1.1511   21.4108  -32.5792 H   0  0  0  0  0  0  0  0  0  0  0  0
   -3.8610   26.4270  -30.1900 H   0  0  0  0  0  0  0  0  0  0  0  0
   -3.5020   24.9920  -31.2040 H   0  0  0  0  0  0  0  0  0  0  0  0
   -8.1922   24.0220  -30.8048 H   0  0  0  0  0  0  0  0  0  0  0  0
   -9.4056   21.6675  -31.8676 H   0  0  0  0  0  0  0  0  0  0  0  0
   -8.8886   19.4187  -32.8571 H   0  0  0  0  0  0  0  0  0  0  0  0
   -4.6527   18.0508  -34.4178 H   0  0  0  0  0  0  0  0  0  0  0  0
   -6.1497   17.4038  -35.1709 H   0  0  0  0  0  0  0  0  0  0  0  0
   -5.8363   19.1726  -35.1709 H   0  0  0  0  0  0  0  0  0  0  0  0
   -6.7600   17.3154  -31.5172 H   0  0  0  0  0  0  0  0  0  0  0  0
   -7.8466   16.8739  -32.8777 H   0  0  0  0  0  0  0  0  0  0  0  0
   -6.1374   16.3214  -32.8777 H   0  0  0  0  0  0  0  0  0  0  0  0
   -4.6202   20.2572  -32.5112 H   0  0  0  0  0  0  0  0  0  0  0  0
  1  2  1  0
  2  3  1  0
  3  4  1  0
  4  5  2  0
  4  6  1  0
  6  7  1  0
  7  8  1  0
  8  9  1  0
  8 10  2  0
  7 11  2  0
 11 12  1  0
 12 13  2  0
 13 14  1  0
 14 15  2  0
 15 16  1  0
 16 17  1  0
 16 18  1  0
 15 19  1  0
 19 20  2  0
 20  6  1  0
 20 12  1  0
  1 21  1  0
  1 22  1  0
  1 23  1  0
  2 24  1  0
  2 25  1  0
  9 26  1  0
  9 27  1  0
 11 28  1  0
 13 29  1  0
 14 30  1  0
 17 31  1  0
 17 32  1  0
 17 33  1  0
 18 34  1  0
 18 35  1  0
 18 36  1  0
 19 37  1  0
M  END
>  <UniqueID>  (13) 
13

>  <SMILES>  (13) 
CCOC(=O)n1c(C(N)=O)cc2ccc(N(C)C)cc21

>  <Energy>  (13) 
73.57695343442685

>  <Genealogy>  (13) 
CCOC(=O)n1c(C(N)=O)cc2ccc(N(C)C)cc21 (3D coordinates assigned)
CCOC(=O)n1c(C(N)=O)cc2ccc(N(C)C)cc21 (optimized conformer: 73.57695343442685 kcal/mol)

>  <smiles>  (13) 
CCOC(=O)n1c(C(N)=O)cc2ccc(N(C)C)cc21

>  <score_type>  (13) 
oracle

>  <origin>  (13) 
adg

>  <m_score__min__energy>  (13) 
-8.0500000000000007

>  <m_primary>  (13) 
energy

$$$$
13:0
     RDKit          3D

 38 40  0  0  0  0  0  0  0  0999 V2000
   -4.0780   18.6410  -33.8510 C   0  0  0  0  0  0  0  0  0  0  0  0
   -5.5310   18.4910  -34.3220 C   0  0  1  0  0  0  0  0  0  0  0  0
   -5.8030   17.0750  -34.8320 C   0  0  0  0  0  0  0  0  0  0  0  0
   -6.4650   16.3430  -33.6750 C   0  0  0  0  0  0  0  0  0  0  0  0
   -7.0820   17.4280  -32.8020 C   0  0  0  0  0  0  0  0  0  0  0  0
   -6.4500   18.6800  -33.2000 N   0  0  0  0  0  0  0  0  0  0  0  0
   -6.7820   19.9620  -32.6070 C   0  0  0  0  0  0  0  0  0  0  0  0
   -8.1420   20.3480  -32.4420 C   0  0  0  0  0  0  0  0  0  0  0  0
   -8.4830   21.5900  -31.8840 C   0  0  0  0  0  0  0  0  0  0  0  0
   -7.4510   22.4310  -31.4840 C   0  0  0  0  0  0  0  0  0  0  0  0
   -7.5030   23.6990  -30.9510 C   0  0  0  0  0  0  0  0  0  0  0  0
   -6.1760   24.0700  -30.7620 C   0  0  0  0  0  0  0  0  0  0  0  0
   -5.7700   25.3550  -30.1570 C   0  0  0  0  0  0  0  0  0  0  0  0
   -6.4090   25.8550  -28.9810 N   0  0  0  0  0  0  0  0  0  0  0  0
   -4.8810   26.0490  -30.7180 O   0  0  0  0  0  0  0  0  0  0  0  0
   -5.3340   23.0800  -31.1720 N   0  0  0  0  0  0  0  0  0  0  0  0
   -3.8990   23.1280  -31.2410 C   0  0  0  0  0  0  0  0  0  0  0  0
   -3.1710   24.0850  -30.4760 N   0  0  0  0  0  0  0  0  0  0  0  0
   -3.2760   22.3270  -31.9880 O   0  0  0  0  0  0  0  0  0  0  0  0
   -6.1340   22.0800  -31.6120 C   0  0  0  0  0  0  0  0  0  0  0  0
   -5.7650   20.8600  -32.1910 C   0  0  0  0  0  0  0  0  0  0  0  0
   -4.0475   18.6442  -32.7514 H   0  0  0  0  0  0  0  0  0  0  0  0
   -3.4803   17.7998  -34.2320 H   0  0  0  0  0  0  0  0  0  0  0  0
   -3.6648   19.5866  -34.2320 H   0  0  0  0  0  0  0  0  0  0  0  0
   -5.6814   19.2389  -35.1145 H   0  0  0  0  0  0  0  0  0  0  0  0
   -6.4743   17.1030  -35.7029 H   0  0  0  0  0  0  0  0  0  0  0  0
   -4.8782   16.5741  -35.1544 H   0  0  0  0  0  0  0  0  0  0  0  0
   -7.2436   15.6611  -34.0474 H   0  0  0  0  0  0  0  0  0  0  0  0
   -5.7428   15.7315  -33.1141 H   0  0  0  0  0  0  0  0  0  0  0  0
   -8.1681   17.4795  -32.9686 H   0  0  0  0  0  0  0  0  0  0  0  0
   -6.9227   17.2210  -31.7335 H   0  0  0  0  0  0  0  0  0  0  0  0
   -8.9405   19.6604  -32.7576 H   0  0  0  0  0  0  0  0  0  0  0  0
   -9.5351   21.8888  -31.7668 H   0  0  0  0  0  0  0  0  0  0  0  0
   -8.4013   24.2917  -30.7234 H   0  0  0  0  0  0  0  0  0  0  0  0
   -6.0790   26.7440  -28.5440 H   0  0  0  0  0  0  0  0  0  0  0  0
   -7.2620   25.3950  -28.5940 H   0  0  0  0  0  0  0  0  0  0  0  0
   -3.0760   25.0720  -30.8020 H   0  0  0  0  0  0  0  0  0  0  0  0
   -4.7038   20.6016  -32.3214 H   0  0  0  0  0  0  0  0  0  0  0  0
  1  2  1  0
  2  3  1  0
  3  4  1  0
  4  5  1  0
  5  6  1  0
  6  7  1  0
  7  8  2  0
  8  9  1  0
  9 10  2  0
 10 11  1  0
 11 12  2  0
 12 13  1  0
 13 14  1  0
 13 15  2  0
 12 16  1  0
 16 17  1  0
 17 18  1  0
 17 19  2  0
 16 20  1  0
 20 21  2  0
  6  2  1  0
 21  7  1  0
 20 10  1  0
  1 22  1  0
  1 23  1  0
  1 24  1  0
  2 25  1  6
  3 26  1  0
  3 27  1  0
  4 28  1  0
  4 29  1  0
  5 30  1  0
  5 31  1  0
  8 32  1  0
  9 33  1  0
 11 34  1  0
 14 35  1  0
 14 36  1  0
 18 37  1  0
 21 38  1  0
M  CHG  1  18  -1
M  END
>  <UniqueID>  (14) 
14

>  <SMILES>  (14) 
C[C@H]1CCCN1c1ccc2cc(C(N)=O)n(C([NH-])=O)c2c1

>  <Energy>  (14) 
79.31569671857659

>  <Genealogy>  (14) 
C[C@H]1CCCN1c1ccc2cc(C(N)=O)n(C([NH-])=O)c2c1 (protonated)
C[C@H]1CCCN1c1ccc2cc(C(N)=O)n(C([NH-])=O)c2c1 (3D coordinates assigned)
C[C@H]1CCCN1c1ccc2cc(C(N)=O)n(C([NH-])=O)c2c1 (nonaromatic ring conformer: 79.31569671857659 kcal/mol)

>  <smiles>  (14) 
C[C@H]1CCCN1c1ccc2cc(C(N)=O)n(C(N)=O)c2c1

>  <score_type>  (14) 
oracle

>  <origin>  (14) 
adg

>  <m_score__min__energy>  (14) 
-9.5500000000000007

>  <m_primary>  (14) 
energy

$$$$
14:0
     RDKit          3D

 44 45  0  0  0  0  0  0  0  0999 V2000
   -4.5960   16.1860  -32.6730 C   0  0  0  0  0  0  0  0  0  0  0  0
   -5.7760   16.1050  -33.6540 C   0  0  0  0  0  0  0  0  0  0  0  0
   -5.5810   17.1640  -34.7550 C   0  0  0  0  0  0  0  0  0  0  0  0
   -5.8190   14.6910  -34.2620 C   0  0  0  0  0  0  0  0  0  0  0  0
   -6.9710   16.3690  -32.9010 O   0  0  0  0  0  0  0  0  0  0  0  0
   -7.2240   17.5090  -32.1250 C   0  0  0  0  0  0  0  0  0  0  0  0
   -6.6110   17.7040  -31.0410 O   0  0  0  0  0  0  0  0  0  0  0  0
   -8.1840   18.4660  -32.5900 N   0  0  0  0  0  0  0  0  0  0  0  0
   -8.2970   19.8080  -32.0190 C   0  0  0  0  0  0  0  0  0  0  0  0
   -7.5590   20.8370  -32.8840 C   0  0  0  0  0  0  0  0  0  0  0  0
   -6.1450   21.0520  -32.4080 C   0  0  0  0  0  0  0  0  0  0  0  0
   -5.1870   20.0130  -32.5310 C   0  0  0  0  0  0  0  0  0  0  0  0
   -3.8860   20.1770  -32.0310 C   0  0  0  0  0  0  0  0  0  0  0  0
   -3.5780   21.3760  -31.3960 C   0  0  0  0  0  0  0  0  0  0  0  0
   -2.4020   21.7910  -30.8150 C   0  0  0  0  0  0  0  0  0  0  0  0
   -2.6650   23.0660  -30.3190 C   0  0  0  0  0  0  0  0  0  0  0  0
   -1.6900   23.8460  -29.5290 C   0  0  0  0  0  0  0  0  0  0  0  0
   -1.8710   25.2420  -29.3100 N   0  0  0  0  0  0  0  0  0  0  0  0
   -0.7090   23.2600  -28.9980 O   0  0  0  0  0  0  0  0  0  0  0  0
   -3.9520   23.4300  -30.5930 N   0  0  0  0  0  0  0  0  0  0  0  0
   -4.5910   24.6860  -30.3170 C   0  0  0  0  0  0  0  0  0  0  0  0
   -4.1650   25.7470  -30.8450 O   0  0  0  0  0  0  0  0  0  0  0  0
   -5.7010   24.7400  -29.4830 O   0  0  0  0  0  0  0  0  0  0  0  0
   -4.4980   22.3820  -31.2500 C   0  0  0  0  0  0  0  0  0  0  0  0
   -5.7920   22.2600  -31.7670 C   0  0  0  0  0  0  0  0  0  0  0  0
   -4.9750   16.1600  -31.6407 H   0  0  0  0  0  0  0  0  0  0  0  0
   -3.9227   15.3320  -32.8380 H   0  0  0  0  0  0  0  0  0  0  0  0
   -4.0457   17.1240  -32.8380 H   0  0  0  0  0  0  0  0  0  0  0  0
   -5.4003   18.1453  -34.2920 H   0  0  0  0  0  0  0  0  0  0  0  0
   -4.7184   16.8889  -35.3797 H   0  0  0  0  0  0  0  0  0  0  0  0
   -6.4850   17.2142  -35.3797 H   0  0  0  0  0  0  0  0  0  0  0  0
   -5.8417   13.9450  -33.4540 H   0  0  0  0  0  0  0  0  0  0  0  0
   -6.7207   14.5862  -34.8832 H   0  0  0  0  0  0  0  0  0  0  0  0
   -4.9253   14.5316  -34.8832 H   0  0  0  0  0  0  0  0  0  0  0  0
   -8.6880   18.2650  -33.4830 H   0  0  0  0  0  0  0  0  0  0  0  0
   -9.3599   20.0849  -31.9586 H   0  0  0  0  0  0  0  0  0  0  0  0
   -7.8429   19.8021  -31.0171 H   0  0  0  0  0  0  0  0  0  0  0  0
   -7.5347   20.4775  -33.9233 H   0  0  0  0  0  0  0  0  0  0  0  0
   -8.0953   21.7947  -32.8112 H   0  0  0  0  0  0  0  0  0  0  0  0
   -5.4666   19.0697  -33.0230 H   0  0  0  0  0  0  0  0  0  0  0  0
   -3.1331   19.3822  -32.1378 H   0  0  0  0  0  0  0  0  0  0  0  0
   -1.4552   21.2343  -30.7549 H   0  0  0  0  0  0  0  0  0  0  0  0
   -2.8250   25.6670  -29.3170 H   0  0  0  0  0  0  0  0  0  0  0  0
   -6.5158   23.0834  -31.6767 H   0  0  0  0  0  0  0  0  0  0  0  0
  1  2  1  0
  2  3  1  0
  2  4  1  0
  2  5  1  0
  5  6  1  0
  6  7  2  0
  6  8  1  0
  8  9  1  0
  9 10  1  0
 10 11  1  0
 11 12  2  0
 12 13  1  0
 13 14  2  0
 14 15  1  0
 15 16  2  0
 16 17  1  0
 17 18  1  0
 17 19  2  0
 16 20  1  0
 20 21  1  0
 21 22  2  0
 21 23  1  0
 20 24  1  0
 24 25  2  0
 25 11  1  0
 24 14  1  0
  1 26  1  0
  1 27  1  0
  1 28  1  0
  3 29  1  0
  3 30  1  0
  3 31  1  0
  4 32  1  0
  4 33  1  0
  4 34  1  0
  8 35  1  0
  9 36  1  0
  9 37  1  0
 10 38  1  0
 10 39  1  0
 12 40  1  0
 13 41  1  0
 15 42  1  0
 18 43  1  0
 25 44  1  0
M  CHG  2  18  -1  23  -1
M  END
>  <UniqueID>  (15) 
15

>  <SMILES>  (15) 
CC(C)(C)OC(=O)NCCc1ccc2cc(C([NH-])=O)n(C(=O)[O-])c2c1

>  <Energy>  (15) 
72.21159244898226

>  <Genealogy>  (15) 
CC(C)(C)OC(=O)NCCc1ccc2cc(C([NH-])=O)n(C(=O)[O-])c2c1 (protonated)
CC(C)(C)OC(=O)NCCc1ccc2cc(C([NH-])=O)n(C(=O)[O-])c2c1 (3D coordinates assigned)
CC(C)(C)OC(=O)NCCc1ccc2cc(C([NH-])=O)n(C(=O)[O-])c2c1 (optimized conformer: 72.21159244898226 kcal/mol)

>  <smiles>  (15) 
CC(C)(C)OC(=O)NCCc1ccc2cc(C(N)=O)n(C(=O)O)c2c1

>  <score_type>  (15) 
oracle

>  <origin>  (15) 
adg

>  <m_score__min__energy>  (15) 
-11.48

>  <m_primary>  (15) 
energy

$$$$
15:0
     RDKit          3D

 48 51  0  0  0  0  0  0  0  0999 V2000
   -1.9470   19.7760  -34.1950 C   0  0  0  0  0  0  0  0  0  0  0  0
   -3.3230   19.4200  -34.2240 O   0  0  0  0  0  0  0  0  0  0  0  0
   -4.1700   19.5870  -33.1230 C   0  0  0  0  0  0  0  0  0  0  0  0
   -3.8320   20.3440  -32.1720 O   0  0  0  0  0  0  0  0  0  0  0  0
   -5.4280   18.8940  -33.0750 N   0  0  0  0  0  0  0  0  0  0  0  0
   -5.6500   17.5640  -33.2670 C   0  0  0  0  0  0  0  0  0  0  0  0
   -4.6510   16.5760  -33.7250 C   0  0  0  0  0  0  0  0  0  0  0  0
   -3.7850   16.8560  -34.8260 N   0  0  0  0  0  0  0  0  0  0  0  0
   -4.6010   15.4460  -33.1710 O   0  0  0  0  0  0  0  0  0  0  0  0
   -6.9840   17.2470  -33.0240 C   0  0  0  0  0  0  0  0  0  0  0  0
   -7.5830   18.4370  -32.6860 C   0  0  0  0  0  0  0  0  0  0  0  0
   -8.9050   18.7060  -32.3390 C   0  0  0  0  0  0  0  0  0  0  0  0
   -9.2430   20.0270  -32.0080 C   0  0  0  0  0  0  0  0  0  0  0  0
   -8.2570   21.0470  -32.0110 C   0  0  0  0  0  0  0  0  0  0  0  0
   -8.6410   22.4700  -31.6960 C   0  0  0  0  0  0  0  0  0  0  0  0
   -7.6540   23.4730  -32.3080 C   0  0  0  0  0  0  0  0  0  0  0  0
   -6.4630   23.7020  -31.4110 C   0  0  0  0  0  0  0  0  0  0  0  0
   -6.5790   24.5170  -30.2760 C   0  0  0  0  0  0  0  0  0  0  0  0
   -5.4640   24.7730  -29.4730 C   0  0  0  0  0  0  0  0  0  0  0  0
   -4.2110   24.2230  -29.7970 C   0  0  0  0  0  0  0  0  0  0  0  0
   -3.0290   24.4980  -28.9510 C   0  0  0  0  0  0  0  0  0  0  0  0
   -2.0100   25.2980  -29.3360 N   0  0  0  0  0  0  0  0  0  0  0  0
   -1.1640   25.2730  -28.2930 C   0  0  0  0  0  0  0  0  0  0  0  0
   -1.6820   24.4690  -27.3080 C   0  0  0  0  0  0  0  0  0  0  0  0
   -2.8630   23.9750  -27.7160 N   0  0  0  0  0  0  0  0  0  0  0  0
   -4.0960   23.4120  -30.9400 C   0  0  0  0  0  0  0  0  0  0  0  0
   -5.2130   23.1560  -31.7410 C   0  0  0  0  0  0  0  0  0  0  0  0
   -6.9280   20.7380  -32.3700 C   0  0  0  0  0  0  0  0  0  0  0  0
   -6.6240   19.4170  -32.7200 C   0  0  0  0  0  0  0  0  0  0  0  0
   -1.6126   19.8625  -33.1506 H   0  0  0  0  0  0  0  0  0  0  0  0
   -1.3569   19.0010  -34.7060 H   0  0  0  0  0  0  0  0  0  0  0  0
   -1.8068   20.7400  -34.7060 H   0  0  0  0  0  0  0  0  0  0  0  0
   -3.0590   16.1620  -35.1090 H   0  0  0  0  0  0  0  0  0  0  0  0
   -3.9180   17.7080  -35.4130 H   0  0  0  0  0  0  0  0  0  0  0  0
   -7.4572   16.2561  -33.0887 H   0  0  0  0  0  0  0  0  0  0  0  0
   -9.6610   17.9071  -32.3249 H   0  0  0  0  0  0  0  0  0  0  0  0
  -10.2819   20.2739  -31.7438 H   0  0  0  0  0  0  0  0  0  0  0  0
   -9.6451   22.6661  -32.1002 H   0  0  0  0  0  0  0  0  0  0  0  0
   -8.6244   22.5958  -30.6033 H   0  0  0  0  0  0  0  0  0  0  0  0
   -7.3025   23.0828  -33.2745 H   0  0  0  0  0  0  0  0  0  0  0  0
   -8.1759   24.4327  -32.4366 H   0  0  0  0  0  0  0  0  0  0  0  0
   -7.5529   24.9574  -30.0161 H   0  0  0  0  0  0  0  0  0  0  0  0
   -5.5673   25.4090  -28.5815 H   0  0  0  0  0  0  0  0  0  0  0  0
   -0.2067   25.8119  -28.2369 H   0  0  0  0  0  0  0  0  0  0  0  0
   -1.2056   24.2620  -26.3384 H   0  0  0  0  0  0  0  0  0  0  0  0
   -3.1214   22.9764  -31.2055 H   0  0  0  0  0  0  0  0  0  0  0  0
   -5.1115   22.5230  -32.6349 H   0  0  0  0  0  0  0  0  0  0  0  0
   -6.1501   21.5157  -32.3748 H   0  0  0  0  0  0  0  0  0  0  0  0
  1  2  1  0
  2  3  1  0
  3  4  2  0
  3  5  1  0
  5  6  1  0
  6  7  1  0
  7  8  1  0
  7  9  2  0
  6 10  2  0
 10 11  1  0
 11 12  2  0
 12 13  1  0
 13 14  2  0
 14 15  1  0
 15 16  1  0
 16 17  1  0
 17 18  2  0
 18 19  1  0
 19 20  2  0
 20 21  1  0
 21 22  2  0
 22 23  1  0
 23 24  2  0
 24 25  1  0
 20 26  1  0
 26 27  2  0
 14 28  1  0
 28 29  2  0
 29  5  1  0
 29 11  1  0
 27 17  1  0
 25 21  1  0
  1 30  1  0
  1 31  1  0
  1 32  1  0
  8 33  1  0
  8 34  1  0
 10 35  1  0
 12 36  1  0
 13 37  1  0
 15 38  1  0
 15 39  1  0
 16 40  1  0
 16 41  1  0
 18 42  1  0
 19 43  1  0
 23 44  1  0
 24 45  1  0
 26 46  1  0
 27 47  1  0
 28 48  1  0
M  CHG  1  25  -1
M  END
>  <UniqueID>  (16) 
16

>  <SMILES>  (16) 
COC(=O)n1c(C(N)=O)cc2ccc(CCc3ccc(-c4ncc[n-]4)cc3)cc21

>  <Energy>  (16) 
113.38843131930663

>  <Genealogy>  (16) 
COC(=O)n1c(C(N)=O)cc2ccc(CCc3ccc(-c4ncc[n-]4)cc3)cc21 (protonated)
COC(=O)n1c(C(N)=O)cc2ccc(CCc3ccc(-c4ncc[n-]4)cc3)cc21 (3D coordinates assigned)
COC(=O)n1c(C(N)=O)cc2ccc(CCc3ccc(-c4ncc[n-]4)cc3)cc21 (optimized conformer: 113.38843131930663 kcal/mol)

>  <smiles>  (16) 
COC(=O)n1c(C(N)=O)cc2ccc(CCc3ccc(-c4ncc[nH]4)cc3)cc21

>  <score_type>  (16) 
oracle

>  <origin>  (16) 
adg

>  <m_score__min__energy>  (16) 
-10.4

>  <m_primary>  (16) 
energy

$$$$
16:0
     RDKit          3D

 44 47  0  0  0  0  0  0  0  0999 V2000
   -1.4820   25.7770  -28.9610 N   0  0  0  0  0  0  0  0  0  0  0  0
   -0.9570   24.4590  -29.0950 C   0  0  0  0  0  0  0  0  0  0  0  0
    0.1690   24.1900  -28.5980 O   0  0  0  0  0  0  0  0  0  0  0  0
   -1.6840   23.4250  -29.8600 C   0  0  0  0  0  0  0  0  0  0  0  0
   -1.1060   22.2240  -30.2630 C   0  0  0  0  0  0  0  0  0  0  0  0
   -2.0680   21.5910  -31.0160 C   0  0  0  0  0  0  0  0  0  0  0  0
   -2.0380   20.3530  -31.6480 C   0  0  0  0  0  0  0  0  0  0  0  0
   -3.1920   19.9300  -32.3270 C   0  0  0  0  0  0  0  0  0  0  0  0
   -4.3540   20.7460  -32.3690 C   0  0  0  0  0  0  0  0  0  0  0  0
   -5.5960   20.2230  -33.0760 C   0  0  0  0  0  0  0  0  0  0  0  0
   -5.6150   18.7040  -33.1850 C   0  0  0  0  0  0  0  0  0  0  0  0
   -5.7060   18.1110  -34.4580 C   0  0  0  0  0  0  0  0  0  0  0  0
   -5.7570   16.7200  -34.5930 C   0  0  0  0  0  0  0  0  0  0  0  0
   -5.7300   15.9050  -33.4600 C   0  0  0  0  0  0  0  0  0  0  0  0
   -5.6580   16.4800  -32.1890 C   0  0  0  0  0  0  0  0  0  0  0  0
   -5.6060   17.8700  -32.0480 C   0  0  0  0  0  0  0  0  0  0  0  0
   -6.8840   20.7880  -32.4910 C   0  0  0  0  0  0  0  0  0  0  0  0
   -7.1210   22.1760  -32.3990 C   0  0  0  0  0  0  0  0  0  0  0  0
   -8.3320   22.6560  -31.8930 C   0  0  0  0  0  0  0  0  0  0  0  0
   -9.3240   21.7650  -31.4830 C   0  0  0  0  0  0  0  0  0  0  0  0
   -9.1100   20.3890  -31.5840 C   0  0  0  0  0  0  0  0  0  0  0  0
   -7.9020   19.9020  -32.0900 C   0  0  0  0  0  0  0  0  0  0  0  0
   -4.3470   21.9940  -31.6960 C   0  0  0  0  0  0  0  0  0  0  0  0
   -3.1760   22.3980  -31.0440 C   0  0  0  0  0  0  0  0  0  0  0  0
   -2.9580   23.5280  -30.3350 N   0  0  0  0  0  0  0  0  0  0  0  0
   -3.9160   24.5630  -30.0630 C   0  0  0  0  0  0  0  0  0  0  0  0
   -3.8610   25.6590  -30.6800 O   0  0  0  0  0  0  0  0  0  0  0  0
   -4.9330   24.3520  -29.1390 O   0  0  0  0  0  0  0  0  0  0  0  0
   -2.5120   25.9490  -28.9670 H   0  0  0  0  0  0  0  0  0  0  0  0
   -0.0951   21.8589  -30.0291 H   0  0  0  0  0  0  0  0  0  0  0  0
   -1.1366   19.7233  -31.6170 H   0  0  0  0  0  0  0  0  0  0  0  0
   -3.1963   18.9534  -32.8333 H   0  0  0  0  0  0  0  0  0  0  0  0
   -5.5403   20.5987  -34.1084 H   0  0  0  0  0  0  0  0  0  0  0  0
   -5.7373   18.7472  -35.3548 H   0  0  0  0  0  0  0  0  0  0  0  0
   -5.8185   16.2673  -35.5937 H   0  0  0  0  0  0  0  0  0  0  0  0
   -5.7654   14.8109  -33.5680 H   0  0  0  0  0  0  0  0  0  0  0  0
   -5.6422   15.8373  -31.2964 H   0  0  0  0  0  0  0  0  0  0  0  0
   -5.5578   18.3159  -31.0436 H   0  0  0  0  0  0  0  0  0  0  0  0
   -6.3471   22.8852  -32.7279 H   0  0  0  0  0  0  0  0  0  0  0  0
   -8.5036   23.7399  -31.8178 H   0  0  0  0  0  0  0  0  0  0  0  0
  -10.2741   22.1462  -31.0804 H   0  0  0  0  0  0  0  0  0  0  0  0
   -9.8941   19.6868  -31.2645 H   0  0  0  0  0  0  0  0  0  0  0  0
   -7.7450   18.8166  -32.1758 H   0  0  0  0  0  0  0  0  0  0  0  0
   -5.2433   22.6316  -31.6864 H   0  0  0  0  0  0  0  0  0  0  0  0
  1  2  1  0
  2  3  2  0
  2  4  1  0
  4  5  2  0
  5  6  1  0
  6  7  2  0
  7  8  1  0
  8  9  2  0
  9 10  1  0
 10 11  1  0
 11 12  2  0
 12 13  1  0
 13 14  2  0
 14 15  1  0
 15 16  2  0
 10 17  1  0
 17 18  2  0
 18 19  1  0
 19 20  2  0
 20 21  1  0
 21 22  2  0
  9 23  1  0
 23 24  2  0
 24 25  1  0
 25 26  1  0
 26 27  2  0
 26 28  1  0
 25  4  1  0
 24  6  1  0
 16 11  1  0
 22 17  1  0
  1 29  1  0
  5 30  1  0
  7 31  1  0
  8 32  1  0
 10 33  1  0
 12 34  1  0
 13 35  1  0
 14 36  1  0
 15 37  1  0
 16 38  1  0
 18 39  1  0
 19 40  1  0
 20 41  1  0
 21 42  1  0
 22 43  1  0
 23 44  1  0
M  CHG  2   1  -1  28  -1
M  END
>  <UniqueID>  (17) 
17

>  <SMILES>  (17) 
[NH-]C(=O)c1cc2ccc(C(c3ccccc3)c3ccccc3)cc2n1C(=O)[O-]

>  <Energy>  (17) 
93.36948674552524

>  <Genealogy>  (17) 
[NH-]C(=O)c1cc2ccc(C(c3ccccc3)c3ccccc3)cc2n1C(=O)[O-] (protonated)
[NH-]C(=O)c1cc2ccc(C(c3ccccc3)c3ccccc3)cc2n1C(=O)[O-] (3D coordinates assigned)
[NH-]C(=O)c1cc2ccc(C(c3ccccc3)c3ccccc3)cc2n1C(=O)[O-] (optimized conformer: 93.36948674552524 kcal/mol)

>  <smiles>  (17) 
NC(=O)c1cc2ccc(C(c3ccccc3)c3ccccc3)cc2n1C(=O)O

>  <score_type>  (17) 
oracle

>  <origin>  (17) 
adg

>  <m_score__min__energy>  (17) 
-14.539999999999999

>  <m_primary>  (17) 
energy

$$$$
17:0
     RDKit          3D

 55 57  0  0  0  0  0  0  0  0999 V2000
   -5.2800   13.4940  -33.4570 C   0  0  0  0  0  0  0  0  0  0  0  0
   -4.9970   14.7890  -32.7950 N   0  0  0  0  0  0  0  0  0  0  0  0
   -3.5540   15.0880  -32.8490 C   0  0  0  0  0  0  0  0  0  0  0  0
   -5.7940   15.9440  -33.2990 C   0  0  2  0  0  0  0  0  0  0  0  0
   -5.2660   16.5700  -34.5980 C   0  0  0  0  0  0  0  0  0  0  0  0
   -5.7260   18.0210  -34.5510 C   0  0  0  0  0  0  0  0  0  0  0  0
   -6.0090   18.3100  -33.1510 N   0  0  0  0  0  0  0  0  0  0  0  0
   -6.3270   19.6280  -32.6490 C   0  0  0  0  0  0  0  0  0  0  0  0
   -7.6730   20.0920  -32.6290 C   0  0  0  0  0  0  0  0  0  0  0  0
   -7.9850   21.3830  -32.1710 C   0  0  0  0  0  0  0  0  0  0  0  0
   -6.9440   22.1910  -31.7310 C   0  0  0  0  0  0  0  0  0  0  0  0
   -6.9550   23.4960  -31.2890 C   0  0  0  0  0  0  0  0  0  0  0  0
   -5.6230   23.8070  -31.0200 C   0  0  0  0  0  0  0  0  0  0  0  0
   -5.1740   25.1030  -30.4690 C   0  0  0  0  0  0  0  0  0  0  0  0
   -3.9210   25.6640  -30.8470 N   0  0  0  0  0  0  0  0  0  0  0  0
   -5.8880   25.7030  -29.6210 O   0  0  0  0  0  0  0  0  0  0  0  0
   -4.8260   22.7350  -31.2800 N   0  0  0  0  0  0  0  0  0  0  0  0
   -3.3980   22.6670  -31.2220 C   0  0  0  0  0  0  0  0  0  0  0  0
   -2.7620   22.1520  -32.1800 O   0  0  0  0  0  0  0  0  0  0  0  0
   -2.7320   23.1990  -30.1070 O   0  0  0  0  0  0  0  0  0  0  0  0
   -2.6890   22.6270  -28.7920 C   0  0  0  0  0  0  0  0  0  0  0  0
   -1.4140   23.0630  -28.0460 C   0  0  0  0  0  0  0  0  0  0  0  0
   -2.7690   21.0930  -28.8730 C   0  0  0  0  0  0  0  0  0  0  0  0
   -3.9140   23.1550  -28.0310 C   0  0  0  0  0  0  0  0  0  0  0  0
   -5.6470   21.7570  -31.7180 C   0  0  0  0  0  0  0  0  0  0  0  0
   -5.3010   20.4850  -32.1800 C   0  0  0  0  0  0  0  0  0  0  0  0
   -5.9540   17.1160  -32.3190 C   0  0  0  0  0  0  0  0  0  0  0  0
   -5.4490   12.7209  -32.6930 H   0  0  0  0  0  0  0  0  0  0  0  0
   -6.1780   13.5916  -34.0847 H   0  0  0  0  0  0  0  0  0  0  0  0
   -4.4231   13.2081  -34.0847 H   0  0  0  0  0  0  0  0  0  0  0  0
   -5.2360   14.6720  -31.7810 H   0  0  0  0  0  0  0  0  0  0  0  0
   -3.1580   15.1701  -31.8260 H   0  0  0  0  0  0  0  0  0  0  0  0
   -3.0316   14.2790  -33.3806 H   0  0  0  0  0  0  0  0  0  0  0  0
   -3.3960   16.0380  -33.3806 H   0  0  0  0  0  0  0  0  0  0  0  0
   -6.7625   15.4486  -33.4617 H   0  0  0  0  0  0  0  0  0  0  0  0
   -4.1681   16.5134  -34.6362 H   0  0  0  0  0  0  0  0  0  0  0  0
   -5.6393   16.0467  -35.4906 H   0  0  0  0  0  0  0  0  0  0  0  0
   -4.9330   18.6852  -34.9252 H   0  0  0  0  0  0  0  0  0  0  0  0
   -6.6126   18.1822  -35.1818 H   0  0  0  0  0  0  0  0  0  0  0  0
   -8.4799   19.4303  -32.9770 H   0  0  0  0  0  0  0  0  0  0  0  0
   -9.0241   21.7438  -32.1611 H   0  0  0  0  0  0  0  0  0  0  0  0
   -7.8295   24.1531  -31.1730 H   0  0  0  0  0  0  0  0  0  0  0  0
   -3.0260   25.2950  -30.4570 H   0  0  0  0  0  0  0  0  0  0  0  0
   -1.5858   23.0043  -26.9611 H   0  0  0  0  0  0  0  0  0  0  0  0
   -0.5822   22.3982  -28.3221 H   0  0  0  0  0  0  0  0  0  0  0  0
   -1.1634   24.0979  -28.3221 H   0  0  0  0  0  0  0  0  0  0  0  0
   -2.7909   20.6728  -27.8567 H   0  0  0  0  0  0  0  0  0  0  0  0
   -3.6836   20.8014  -29.4101 H   0  0  0  0  0  0  0  0  0  0  0  0
   -1.8897   20.7078  -29.4101 H   0  0  0  0  0  0  0  0  0  0  0  0
   -3.7345   23.0776  -26.9485 H   0  0  0  0  0  0  0  0  0  0  0  0
   -4.0869   24.2076  -28.2997 H   0  0  0  0  0  0  0  0  0  0  0  0
   -4.7979   22.5580  -28.2997 H   0  0  0  0  0  0  0  0  0  0  0  0
   -4.2517   20.1549  -32.1797 H   0  0  0  0  0  0  0  0  0  0  0  0
   -5.0956   17.1641  -31.6329 H   0  0  0  0  0  0  0  0  0  0  0  0
   -6.8545   17.0090  -31.6964 H   0  0  0  0  0  0  0  0  0  0  0  0
  1  2  1  0
  2  3  1  0
  2  4  1  0
  4  5  1  0
  5  6  1  0
  6  7  1  0
  7  8  1  0
  8  9  2  0
  9 10  1  0
 10 11  2  0
 11 12  1  0
 12 13  2  0
 13 14  1  0
 14 15  1  0
 14 16  2  0
 13 17  1  0
 17 18  1  0
 18 19  2  0
 18 20  1  0
 20 21  1  0
 21 22  1  0
 21 23  1  0
 21 24  1  0
 17 25  1  0
 25 26  2  0
  7 27  1  0
 27  4  1  0
 26  8  1  0
 25 11  1  0
  1 28  1  0
  1 29  1  0
  1 30  1  0
  2 31  1  0
  3 32  1  0
  3 33  1  0
  3 34  1  0
  4 35  1  6
  5 36  1  0
  5 37  1  0
  6 38  1  0
  6 39  1  0
  9 40  1  0
 10 41  1  0
 12 42  1  0
 15 43  1  0
 22 44  1  0
 22 45  1  0
 22 46  1  0
 23 47  1  0
 23 48  1  0
 23 49  1  0
 24 50  1  0
 24 51  1  0
 24 52  1  0
 26 53  1  0
 27 54  1  0
 27 55  1  0
M  CHG  2   2   1  15  -1
M  END
>  <UniqueID>  (18) 
18

>  <SMILES>  (18) 
C[NH+](C)[C@@H]1CCN(c2ccc3cc(C([NH-])=O)n(C(=O)OC(C)(C)C)c3c2)C1

>  <Energy>  (18) 
100.71115779088171

>  <Genealogy>  (18) 
C[NH+](C)C1CCN(c2ccc3cc(C([NH-])=O)n(C(=O)OC(C)(C)C)c3c2)C1 (protonated)
C[NH+](C)[C@@H]1CCN(c2ccc3cc(C([NH-])=O)n(C(=O)OC(C)(C)C)c3c2)C1 (chirality)
C[NH+](C)[C@@H]1CCN(c2ccc3cc(C([NH-])=O)n(C(=O)OC(C)(C)C)c3c2)C1 (3D coordinates assigned)
C[NH+](C)[C@@H]1CCN(c2ccc3cc(C([NH-])=O)n(C(=O)OC(C)(C)C)c3c2)C1 (nonaromatic ring conformer: 100.71115779088171 kcal/mol)

>  <smiles>  (18) 
CN(C)C1CCN(c2ccc3cc(C(N)=O)n(C(=O)OC(C)(C)C)c3c2)C1

>  <score_type>  (18) 
oracle

>  <origin>  (18) 
adg

>  <m_score__min__energy>  (18) 
-10.73

>  <m_primary>  (18) 
energy

$$$$
18:0
     RDKit          3D

 32 33  0  0  0  0  0  0  0  0999 V2000
   -8.9310   18.5420  -31.8020 C   0  0  0  0  0  0  0  0  0  0  0  0
   -7.9870   19.4410  -32.5440 C   0  0  0  0  0  0  0  0  0  0  0  0
   -8.4300   20.4300  -33.1100 O   0  0  0  0  0  0  0  0  0  0  0  0
   -6.5130   19.1420  -32.6220 C   0  0  0  0  0  0  0  0  0  0  0  0
   -5.7640   20.3460  -32.9820 N   0  0  0  0  0  0  0  0  0  0  0  0
   -4.5700   20.7970  -32.3130 C   0  0  0  0  0  0  0  0  0  0  0  0
   -3.4070   19.9890  -32.3700 C   0  0  0  0  0  0  0  0  0  0  0  0
   -2.2150   20.3970  -31.7490 C   0  0  0  0  0  0  0  0  0  0  0  0
   -2.2150   21.6090  -31.0670 C   0  0  0  0  0  0  0  0  0  0  0  0
   -1.1920   22.2540  -30.4140 C   0  0  0  0  0  0  0  0  0  0  0  0
   -1.7500   23.4340  -29.9330 C   0  0  0  0  0  0  0  0  0  0  0  0
   -1.0040   24.4100  -29.1130 C   0  0  0  0  0  0  0  0  0  0  0  0
   -1.4580   25.7570  -28.9720 N   0  0  0  0  0  0  0  0  0  0  0  0
    0.0180   24.0330  -28.4810 O   0  0  0  0  0  0  0  0  0  0  0  0
   -3.0640   23.5260  -30.2860 N   0  0  0  0  0  0  0  0  0  0  0  0
   -3.9480   24.6420  -30.0820 C   0  0  0  0  0  0  0  0  0  0  0  0
   -3.8930   25.6430  -30.8440 O   0  0  0  0  0  0  0  0  0  0  0  0
   -4.8740   24.6300  -29.0460 O   0  0  0  0  0  0  0  0  0  0  0  0
   -3.3350   22.3960  -30.9790 C   0  0  0  0  0  0  0  0  0  0  0  0
   -4.5300   22.0240  -31.6060 C   0  0  0  0  0  0  0  0  0  0  0  0
   -8.7902   18.6760  -30.7193 H   0  0  0  0  0  0  0  0  0  0  0  0
   -9.9669   18.7957  -32.0713 H   0  0  0  0  0  0  0  0  0  0  0  0
   -8.7281   17.4949  -32.0713 H   0  0  0  0  0  0  0  0  0  0  0  0
   -6.1652   18.7783  -31.6438 H   0  0  0  0  0  0  0  0  0  0  0  0
   -6.3459   18.3754  -33.3930 H   0  0  0  0  0  0  0  0  0  0  0  0
   -6.1410   20.9220  -33.7700 H   0  0  0  0  0  0  0  0  0  0  0  0
   -3.4383   19.0298  -32.9076 H   0  0  0  0  0  0  0  0  0  0  0  0
   -1.3084   19.7762  -31.8006 H   0  0  0  0  0  0  0  0  0  0  0  0
   -0.1536   21.9105  -30.2967 H   0  0  0  0  0  0  0  0  0  0  0  0
   -0.8970   26.4430  -28.4190 H   0  0  0  0  0  0  0  0  0  0  0  0
   -2.3870   26.0550  -29.3400 H   0  0  0  0  0  0  0  0  0  0  0  0
   -5.4185   22.6702  -31.5510 H   0  0  0  0  0  0  0  0  0  0  0  0
  1  2  1  0
  2  3  2  0
  2  4  1  0
  4  5  1  0
  5  6  1  0
  6  7  2  0
  7  8  1  0
  8  9  2  0
  9 10  1  0
 10 11  2  0
 11 12  1  0
 12 13  1  0
 12 14  2  0
 11 15  1  0
 15 16  1  0
 16 17  2  0
 16 18  1  0
 15 19  1  0
 19 20  2  0
 20  6  1  0
 19  9  1  0
  1 21  1  0
  1 22  1  0
  1 23  1  0
  4 24  1  0
  4 25  1  0
  5 26  1  0
  7 27  1  0
  8 28  1  0
 10 29  1  0
 13 30  1  0
 13 31  1  0
 20 32  1  0
M  CHG  1  18  -1
M  END
>  <UniqueID>  (19) 
19

>  <SMILES>  (19) 
CC(=O)CNc1ccc2cc(C(N)=O)n(C(=O)[O-])c2c1

>  <Energy>  (19) 
68.12523123357812

>  <Genealogy>  (19) 
CC(=O)CNc1ccc2cc(C(N)=O)n(C(=O)[O-])c2c1 (protonated)
CC(=O)CNc1ccc2cc(C(N)=O)n(C(=O)[O-])c2c1 (3D coordinates assigned)
CC(=O)CNc1ccc2cc(C(N)=O)n(C(=O)[O-])c2c1 (optimized conformer: 68.12523123357812 kcal/mol)

>  <smiles>  (19) 
CC(=O)CNc1ccc2cc(C(N)=O)n(C(=O)O)c2c1

>  <score_type>  (19) 
oracle

>  <origin>  (19) 
adg

>  <m_score__min__energy>  (19) 
-8.5899999999999999

>  <m_primary>  (19) 
energy

$$$$
19:0
     RDKit          3D

 29 31  0  0  0  0  0  0  0  0999 V2000
   -3.1740   23.9710  -30.6220 N   0  0  0  0  0  0  0  0  0  0  0  0
   -3.9400   23.0440  -31.3890 C   0  0  0  0  0  0  0  0  0  0  0  0
   -3.3510   22.2420  -32.1620 O   0  0  0  0  0  0  0  0  0  0  0  0
   -5.3750   23.0330  -31.2910 N   0  0  0  0  0  0  0  0  0  0  0  0
   -6.1830   24.0430  -30.8620 C   0  0  0  0  0  0  0  0  0  0  0  0
   -5.7370   25.3040  -30.2370 C   0  0  0  0  0  0  0  0  0  0  0  0
   -6.3080   25.7650  -29.0110 N   0  0  0  0  0  0  0  0  0  0  0  0
   -4.8770   26.0150  -30.8230 O   0  0  0  0  0  0  0  0  0  0  0  0
   -7.5240   23.7090  -31.0350 C   0  0  0  0  0  0  0  0  0  0  0  0
   -7.5140   22.4440  -31.5770 C   0  0  0  0  0  0  0  0  0  0  0  0
   -8.5740   21.6310  -31.9600 C   0  0  0  0  0  0  0  0  0  0  0  0
   -8.2750   20.3810  -32.5270 C   0  0  0  0  0  0  0  0  0  0  0  0
   -6.9270   19.9670  -32.7120 C   0  0  0  0  0  0  0  0  0  0  0  0
   -6.6000   18.6510  -33.3210 C   0  0  0  0  0  0  0  0  0  0  0  0
   -7.1230   17.4290  -32.8880 C   0  0  0  0  0  0  0  0  0  0  0  0
   -6.4880   16.2200  -33.8670 S   0  0  0  0  0  0  0  0  0  0  0  0
   -5.5790   17.2790  -34.7990 C   0  0  0  0  0  0  0  0  0  0  0  0
   -5.7480   18.5520  -34.3810 N   0  0  0  0  0  0  0  0  0  0  0  0
   -5.8800   20.8270  -32.3030 C   0  0  0  0  0  0  0  0  0  0  0  0
   -6.2070   22.0590  -31.7230 C   0  0  0  0  0  0  0  0  0  0  0  0
   -3.1060   24.9740  -30.9050 H   0  0  0  0  0  0  0  0  0  0  0  0
   -7.1340   25.2860  -28.5880 H   0  0  0  0  0  0  0  0  0  0  0  0
   -5.9540   26.6390  -28.5640 H   0  0  0  0  0  0  0  0  0  0  0  0
   -8.4026   24.3242  -30.7908 H   0  0  0  0  0  0  0  0  0  0  0  0
   -9.6158   21.9565  -31.8233 H   0  0  0  0  0  0  0  0  0  0  0  0
   -9.0944   19.7135  -32.8320 H   0  0  0  0  0  0  0  0  0  0  0  0
   -7.8257   17.2845  -32.0541 H   0  0  0  0  0  0  0  0  0  0  0  0
   -4.9331   16.9772  -35.6367 H   0  0  0  0  0  0  0  0  0  0  0  0
   -4.8287   20.5331  -32.4382 H   0  0  0  0  0  0  0  0  0  0  0  0
  1  2  1  0
  2  3  2  0
  2  4  1  0
  4  5  1  0
  5  6  1  0
  6  7  1  0
  6  8  2  0
  5  9  2  0
  9 10  1  0
 10 11  2  0
 11 12  1  0
 12 13  2  0
 13 14  1  0
 14 15  2  0
 15 16  1  0
 16 17  1  0
 17 18  2  0
 13 19  1  0
 19 20  2  0
 20  4  1  0
 20 10  1  0
 18 14  1  0
  1 21  1  0
  7 22  1  0
  7 23  1  0
  9 24  1  0
 11 25  1  0
 12 26  1  0
 15 27  1  0
 17 28  1  0
 19 29  1  0
M  CHG  1   1  -1
M  END
>  <UniqueID>  (20) 
20

>  <SMILES>  (20) 
[NH-]C(=O)n1c(C(N)=O)cc2ccc(-c3cscn3)cc21

>  <Energy>  (20) 
103.15360369503668

>  <Genealogy>  (20) 
[NH-]C(=O)n1c(C(N)=O)cc2ccc(-c3cscn3)cc21 (protonated)
[NH-]C(=O)n1c(C(N)=O)cc2ccc(-c3cscn3)cc21 (3D coordinates assigned)
[NH-]C(=O)n1c(C(N)=O)cc2ccc(-c3cscn3)cc21 (optimized conformer: 103.15360369503668 kcal/mol)

>  <smiles>  (20) 
NC(=O)c1cc2ccc(-c3cscn3)cc2n1C(N)=O

>  <score_type>  (20) 
oracle

>  <origin>  (20) 
adg

>  <m_score__min__energy>  (20) 
-9.3100000000000005

>  <m_primary>  (20) 
energy

$$$$
20:0
     RDKit          3D

 28 29  0  0  0  0  0  0  0  0999 V2000
   -2.1580   21.1640  -32.6290 C   0  0  0  0  0  0  0  0  0  0  0  0
   -3.2770   22.0390  -32.6820 O   0  0  0  0  0  0  0  0  0  0  0  0
   -3.7760   22.6940  -31.5530 C   0  0  0  0  0  0  0  0  0  0  0  0
   -2.9870   23.1400  -30.6760 O   0  0  0  0  0  0  0  0  0  0  0  0
   -5.1920   22.8810  -31.4030 N   0  0  0  0  0  0  0  0  0  0  0  0
   -5.8520   24.0030  -30.9960 C   0  0  0  0  0  0  0  0  0  0  0  0
   -5.2290   25.2310  -30.4590 C   0  0  0  0  0  0  0  0  0  0  0  0
   -3.9160   25.6210  -30.8510 N   0  0  0  0  0  0  0  0  0  0  0  0
   -5.8470   25.9210  -29.6040 O   0  0  0  0  0  0  0  0  0  0  0  0
   -7.2300   23.8140  -31.0720 C   0  0  0  0  0  0  0  0  0  0  0  0
   -7.3980   22.5290  -31.5340 C   0  0  0  0  0  0  0  0  0  0  0  0
   -8.5650   21.8180  -31.7980 C   0  0  0  0  0  0  0  0  0  0  0  0
   -8.4400   20.5090  -32.2930 C   0  0  0  0  0  0  0  0  0  0  0  0
   -7.1630   19.9470  -32.5310 C   0  0  0  0  0  0  0  0  0  0  0  0
   -7.0430   18.5390  -33.0350 C   0  0  0  0  0  0  0  0  0  0  0  0
   -5.9990   20.6920  -32.2370 C   0  0  0  0  0  0  0  0  0  0  0  0
   -6.1530   21.9870  -31.7260 C   0  0  0  0  0  0  0  0  0  0  0  0
   -1.8998   20.9621  -31.5790 H   0  0  0  0  0  0  0  0  0  0  0  0
   -2.4074   20.2189  -33.1335 H   0  0  0  0  0  0  0  0  0  0  0  0
   -1.3009   21.6339  -33.1335 H   0  0  0  0  0  0  0  0  0  0  0  0
   -3.0760   25.2770  -30.3350 H   0  0  0  0  0  0  0  0  0  0  0  0
   -8.0172   24.5387  -30.8167 H   0  0  0  0  0  0  0  0  0  0  0  0
   -9.5542   22.2668  -31.6246 H   0  0  0  0  0  0  0  0  0  0  0  0
   -9.3432   19.9153  -32.4975 H   0  0  0  0  0  0  0  0  0  0  0  0
   -6.9841   17.8478  -32.1814 H   0  0  0  0  0  0  0  0  0  0  0  0
   -7.9234   18.2922  -33.6466 H   0  0  0  0  0  0  0  0  0  0  0  0
   -6.1336   18.4447  -33.6466 H   0  0  0  0  0  0  0  0  0  0  0  0
   -4.9987   20.2664  -32.4049 H   0  0  0  0  0  0  0  0  0  0  0  0
  1  2  1  0
  2  3  1  0
  3  4  2  0
  3  5  1  0
  5  6  1  0
  6  7  1  0
  7  8  1  0
  7  9  2  0
  6 10  2  0
 10 11  1  0
 11 12  2  0
 12 13  1  0
 13 14  2  0
 14 15  1  0
 14 16  1  0
 16 17  2  0
 17  5  1  0
 17 11  1  0
  1 18  1  0
  1 19  1  0
  1 20  1  0
  8 21  1  0
 10 22  1  0
 12 23  1  0
 13 24  1  0
 15 25  1  0
 15 26  1  0
 15 27  1  0
 16 28  1  0
M  CHG  1   8  -1
M  END
>  <UniqueID>  (21) 
21

>  <SMILES>  (21) 
COC(=O)n1c(C([NH-])=O)cc2ccc(C)cc21

>  <Energy>  (21) 
64.93844762154663

>  <Genealogy>  (21) 
COC(=O)n1c(C([NH-])=O)cc2ccc(C)cc21 (protonated)
COC(=O)n1c(C([NH-])=O)cc2ccc(C)cc21 (3D coordinates assigned)
COC(=O)n1c(C([NH-])=O)cc2ccc(C)cc21 (optimized conformer: 64.93844762154663 kcal/mol)

>  <smiles>  (21) 
COC(=O)n1c(C(N)=O)cc2ccc(C)cc21

>  <score_type>  (21) 
oracle

>  <origin>  (21) 
adg

>  <m_score__min__energy>  (21) 
-9.4800000000000004

>  <m_primary>  (21) 
energy

$$$$
21:0
     RDKit          3D

 39 41  0  0  0  0  0  0  0  0999 V2000
   -4.1050   25.3520  -30.6920 N   0  0  0  0  0  0  0  0  0  0  0  0
   -5.5070   25.1910  -30.4880 C   0  0  0  0  0  0  0  0  0  0  0  0
   -6.1690   26.1370  -29.9830 O   0  0  0  0  0  0  0  0  0  0  0  0
   -6.1990   23.9560  -30.9070 C   0  0  0  0  0  0  0  0  0  0  0  0
   -7.5760   23.8790  -31.1100 C   0  0  0  0  0  0  0  0  0  0  0  0
   -7.8070   22.6020  -31.5700 C   0  0  0  0  0  0  0  0  0  0  0  0
   -9.0010   21.9780  -31.9170 C   0  0  0  0  0  0  0  0  0  0  0  0
   -8.9460   20.6350  -32.3280 C   0  0  0  0  0  0  0  0  0  0  0  0
   -7.7100   19.9470  -32.3770 C   0  0  0  0  0  0  0  0  0  0  0  0
   -7.6690   18.5770  -32.7840 N   0  0  0  0  0  0  0  0  0  0  0  0
   -6.5180   20.6110  -32.0170 C   0  0  0  0  0  0  0  0  0  0  0  0
   -6.6000   21.9540  -31.6300 C   0  0  0  0  0  0  0  0  0  0  0  0
   -5.6040   22.7720  -31.2240 N   0  0  0  0  0  0  0  0  0  0  0  0
   -4.2230   22.4120  -31.0610 C   0  0  0  0  0  0  0  0  0  0  0  0
   -3.3740   22.7800  -31.9180 O   0  0  0  0  0  0  0  0  0  0  0  0
   -3.8330   21.6390  -29.9610 O   0  0  0  0  0  0  0  0  0  0  0  0
   -3.1720   22.1730  -28.8160 C   0  0  0  0  0  0  0  0  0  0  0  0
   -2.9970   23.6950  -28.9560 C   0  0  1  0  0  0  0  0  0  0  0  0
   -3.8450   24.3740  -28.0260 O   0  0  0  0  0  0  0  0  0  0  0  0
   -3.3910   24.7860  -26.7710 C   0  0  0  0  0  0  0  0  0  0  0  0
   -4.1980   25.2840  -25.9460 O   0  0  0  0  0  0  0  0  0  0  0  0
   -2.0340   24.7010  -26.4550 O   0  0  0  0  0  0  0  0  0  0  0  0
   -1.1070   24.0250  -27.3020 C   0  0  0  0  0  0  0  0  0  0  0  0
   -1.5220   24.1330  -28.7790 C   0  0  2  0  0  0  0  0  0  0  0  0
   -1.3700   25.4660  -29.1950 O   0  0  0  0  0  0  0  0  0  0  0  0
   -3.4770   25.6330  -29.9070 H   0  0  0  0  0  0  0  0  0  0  0  0
   -8.3203   24.6707  -30.9389 H   0  0  0  0  0  0  0  0  0  0  0  0
   -9.9579   22.5186  -31.8712 H   0  0  0  0  0  0  0  0  0  0  0  0
   -9.8716   20.1141  -32.6141 H   0  0  0  0  0  0  0  0  0  0  0  0
   -8.3090   18.2220  -33.5300 H   0  0  0  0  0  0  0  0  0  0  0  0
   -6.9980   17.9090  -32.3440 H   0  0  0  0  0  0  0  0  0  0  0  0
   -5.5507   20.0877  -32.0398 H   0  0  0  0  0  0  0  0  0  0  0  0
   -3.7716   21.9585  -27.9190 H   0  0  0  0  0  0  0  0  0  0  0  0
   -2.1793   21.7072  -28.7288 H   0  0  0  0  0  0  0  0  0  0  0  0
   -3.2907   23.9721  -29.9792 H   0  0  0  0  0  0  0  0  0  0  0  0
   -0.1112   24.4749  -27.1753 H   0  0  0  0  0  0  0  0  0  0  0  0
   -1.0907   22.9614  -27.0217 H   0  0  0  0  0  0  0  0  0  0  0  0
   -0.8862   23.4733  -29.3877 H   0  0  0  0  0  0  0  0  0  0  0  0
   -2.1440   25.6740  -29.7810 H   0  0  0  0  0  0  0  0  0  0  0  0
  1  2  1  0
  2  3  2  0
  2  4  1  0
  4  5  2  0
  5  6  1  0
  6  7  2  0
  7  8  1  0
  8  9  2  0
  9 10  1  0
  9 11  1  0
 11 12  2  0
 12 13  1  0
 13 14  1  0
 14 15  2  0
 14 16  1  0
 16 17  1  0
 17 18  1  0
 18 19  1  0
 19 20  1  0
 20 21  2  0
 20 22  1  0
 22 23  1  0
 23 24  1  0
 24 25  1  0
 13  4  1  0
 24 18  1  0
 12  6  1  0
  1 26  1  0
  5 27  1  0
  7 28  1  0
  8 29  1  0
 10 30  1  0
 10 31  1  0
 11 32  1  0
 17 33  1  0
 17 34  1  0
 18 35  1  6
 23 36  1  0
 23 37  1  0
 24 38  1  6
 25 39  1  0
M  CHG  1   1  -1
M  END
>  <UniqueID>  (22) 
22

>  <SMILES>  (22) 
[NH-]C(=O)c1cc2ccc(N)cc2n1C(=O)OC[C@H]1OC(=O)OC[C@@H]1O

>  <Energy>  (22) 
76.29222130681002

>  <Genealogy>  (22) 
[NH-]C(=O)c1cc2ccc(N)cc2n1C(=O)OCC1OC(=O)OCC1O (protonated)
[NH-]C(=O)c1cc2ccc(N)cc2n1C(=O)OC[C@H]1OC(=O)OC[C@@H]1O (chirality)
[NH-]C(=O)c1cc2ccc(N)cc2n1C(=O)OC[C@H]1OC(=O)OC[C@@H]1O (3D coordinates assigned)
[NH-]C(=O)c1cc2ccc(N)cc2n1C(=O)OC[C@H]1OC(=O)OC[C@@H]1O (nonaromatic ring conformer: 76.29222130681002 kcal/mol)

>  <smiles>  (22) 
NC(=O)c1cc2ccc(N)cc2n1C(=O)OCC1OC(=O)OCC1O

>  <score_type>  (22) 
oracle

>  <origin>  (22) 
adg

>  <m_score__min__energy>  (22) 
-10.130000000000001

>  <m_primary>  (22) 
energy

$$$$
22:0
     RDKit          3D

 36 38  0  0  0  0  0  0  0  0999 V2000
   -3.8780   25.3880  -30.4850 N   0  0  0  0  0  0  0  0  0  0  0  0
   -5.2540   25.0180  -30.4800 C   0  0  0  0  0  0  0  0  0  0  0  0
   -6.0930   25.7700  -29.9150 O   0  0  0  0  0  0  0  0  0  0  0  0
   -5.7020   23.7460  -31.0830 C   0  0  0  0  0  0  0  0  0  0  0  0
   -7.0420   23.4250  -31.2950 C   0  0  0  0  0  0  0  0  0  0  0  0
   -7.0370   22.1350  -31.7730 C   0  0  0  0  0  0  0  0  0  0  0  0
   -8.0950   21.3190  -32.1590 C   0  0  0  0  0  0  0  0  0  0  0  0
   -7.7950   20.0330  -32.6380 C   0  0  0  0  0  0  0  0  0  0  0  0
   -6.4490   19.5870  -32.7320 C   0  0  0  0  0  0  0  0  0  0  0  0
   -6.1420   18.2290  -33.2490 C   0  0  0  0  0  0  0  0  0  0  0  0
   -7.1360   17.2360  -33.2750 C   0  0  0  0  0  0  0  0  0  0  0  0
   -6.8510   15.9640  -33.7760 C   0  0  0  0  0  0  0  0  0  0  0  0
   -5.5710   15.6640  -34.2450 C   0  0  0  0  0  0  0  0  0  0  0  0
   -4.5530   16.6310  -34.2010 C   0  0  0  0  0  0  0  0  0  0  0  0
   -3.1800   16.3230  -34.7480 C   0  0  0  0  0  0  0  0  0  0  0  0
   -3.2580   15.9130  -36.0680 F   0  0  0  0  0  0  0  0  0  0  0  0
   -2.5810   15.3130  -34.0170 F   0  0  0  0  0  0  0  0  0  0  0  0
   -2.3970   17.4600  -34.6740 F   0  0  0  0  0  0  0  0  0  0  0  0
   -4.8530   17.9180  -33.7220 C   0  0  0  0  0  0  0  0  0  0  0  0
   -5.4020   20.4500  -32.3290 C   0  0  0  0  0  0  0  0  0  0  0  0
   -5.7340   21.7180  -31.8410 C   0  0  0  0  0  0  0  0  0  0  0  0
   -4.9010   22.6980  -31.4260 N   0  0  0  0  0  0  0  0  0  0  0  0
   -3.4660   22.6480  -31.4350 C   0  0  0  0  0  0  0  0  0  0  0  0
   -2.7190   23.1320  -30.3190 N   0  0  0  0  0  0  0  0  0  0  0  0
   -2.8590   22.2060  -32.4460 O   0  0  0  0  0  0  0  0  0  0  0  0
   -3.4930   26.0190  -31.2220 H   0  0  0  0  0  0  0  0  0  0  0  0
   -7.9175   24.0669  -31.1177 H   0  0  0  0  0  0  0  0  0  0  0  0
   -9.1353   21.6700  -32.0913 H   0  0  0  0  0  0  0  0  0  0  0  0
   -8.6120   19.3630  -32.9441 H   0  0  0  0  0  0  0  0  0  0  0  0
   -8.1445   17.4620  -32.8985 H   0  0  0  0  0  0  0  0  0  0  0  0
   -7.6379   15.1958  -33.8011 H   0  0  0  0  0  0  0  0  0  0  0  0
   -5.3581   14.6643  -34.6515 H   0  0  0  0  0  0  0  0  0  0  0  0
   -4.0710   18.6916  -33.7167 H   0  0  0  0  0  0  0  0  0  0  0  0
   -4.3516   20.1308  -32.3980 H   0  0  0  0  0  0  0  0  0  0  0  0
   -3.2040   23.5710  -29.5060 H   0  0  0  0  0  0  0  0  0  0  0  0
   -1.6760   23.0830  -30.3220 H   0  0  0  0  0  0  0  0  0  0  0  0
  1  2  1  0
  2  3  2  0
  2  4  1  0
  4  5  2  0
  5  6  1  0
  6  7  2  0
  7  8  1  0
  8  9  2  0
  9 10  1  0
 10 11  2  0
 11 12  1  0
 12 13  2  0
 13 14  1  0
 14 15  1  0
 15 16  1  0
 15 17  1  0
 15 18  1  0
 14 19  2  0
  9 20  1  0
 20 21  2  0
 21 22  1  0
 22 23  1  0
 23 24  1  0
 23 25  2  0
 22  4  1  0
 21  6  1  0
 19 10  1  0
  1 26  1  0
  5 27  1  0
  7 28  1  0
  8 29  1  0
 11 30  1  0
 12 31  1  0
 13 32  1  0
 19 33  1  0
 20 34  1  0
 24 35  1  0
 24 36  1  0
M  CHG  1   1  -1
M  END
>  <UniqueID>  (23) 
23

>  <SMILES>  (23) 
[NH-]C(=O)c1cc2ccc(-c3cccc(C(F)(F)F)c3)cc2n1C(N)=O

>  <Energy>  (23) 
83.13539216305242

>  <Genealogy>  (23) 
[NH-]C(=O)c1cc2ccc(-c3cccc(C(F)(F)F)c3)cc2n1C(N)=O (protonated)
[NH-]C(=O)c1cc2ccc(-c3cccc(C(F)(F)F)c3)cc2n1C(N)=O (3D coordinates assigned)
[NH-]C(=O)c1cc2ccc(-c3cccc(C(F)(F)F)c3)cc2n1C(N)=O (optimized conformer: 83.13539216305242 kcal/mol)

>  <smiles>  (23) 
NC(=O)c1cc2ccc(-c3cccc(C(F)(F)F)c3)cc2n1C(N)=O

>  <score_type>  (23) 
oracle

>  <origin>  (23) 
adg

>  <m_score__min__energy>  (23) 
-10.74

>  <m_primary>  (23) 
energy

$$$$
23:0
     RDKit          3D

 35 37  0  0  0  0  0  0  0  0999 V2000
   -5.4910   26.5510  -30.3360 N   0  0  0  0  0  0  0  0  0  0  0  0
   -6.3460   25.4850  -29.9220 C   0  0  0  0  0  0  0  0  0  0  0  0
   -7.1500   25.6730  -28.9710 O   0  0  0  0  0  0  0  0  0  0  0  0
   -6.3520   24.1900  -30.6310 C   0  0  0  0  0  0  0  0  0  0  0  0
   -7.5180   23.5160  -30.9830 C   0  0  0  0  0  0  0  0  0  0  0  0
   -7.0990   22.4010  -31.6710 C   0  0  0  0  0  0  0  0  0  0  0  0
   -7.8420   21.3720  -32.2380 C   0  0  0  0  0  0  0  0  0  0  0  0
   -7.1470   20.3200  -32.8570 C   0  0  0  0  0  0  0  0  0  0  0  0
   -5.7270   20.3080  -32.8910 C   0  0  0  0  0  0  0  0  0  0  0  0
   -5.0020   19.1830  -33.5340 C   0  0  0  0  0  0  0  0  0  0  0  0
   -5.7090   18.1080  -34.1000 C   0  0  0  0  0  0  0  0  0  0  0  0
   -5.0250   17.0590  -34.7170 C   0  0  0  0  0  0  0  0  0  0  0  0
   -3.6290   17.0630  -34.7690 C   0  0  0  0  0  0  0  0  0  0  0  0
   -2.9000   18.1130  -34.1860 C   0  0  0  0  0  0  0  0  0  0  0  0
   -1.3950   18.1460  -34.2880 C   0  0  0  0  0  0  0  0  0  0  0  0
   -0.8150   17.5990  -33.1570 F   0  0  0  0  0  0  0  0  0  0  0  0
   -0.9460   19.4490  -34.4180 F   0  0  0  0  0  0  0  0  0  0  0  0
   -0.9980   17.4200  -35.3940 F   0  0  0  0  0  0  0  0  0  0  0  0
   -3.5950   19.1800  -33.5920 C   0  0  0  0  0  0  0  0  0  0  0  0
   -5.0090   21.3750  -32.3000 C   0  0  0  0  0  0  0  0  0  0  0  0
   -5.7280   22.4210  -31.7110 C   0  0  0  0  0  0  0  0  0  0  0  0
   -5.2530   23.5140  -31.0710 N   0  0  0  0  0  0  0  0  0  0  0  0
   -3.8730   23.8260  -30.8110 C   0  0  0  0  0  0  0  0  0  0  0  0
   -2.9940   22.9280  -30.8870 O   0  0  0  0  0  0  0  0  0  0  0  0
   -3.4940   25.1210  -30.4780 O   0  0  0  0  0  0  0  0  0  0  0  0
   -4.9400   26.4870  -31.2200 H   0  0  0  0  0  0  0  0  0  0  0  0
   -5.4730   27.4460  -29.7990 H   0  0  0  0  0  0  0  0  0  0  0  0
   -8.5535   23.8119  -30.7588 H   0  0  0  0  0  0  0  0  0  0  0  0
   -8.9414   21.3813  -32.2030 H   0  0  0  0  0  0  0  0  0  0  0  0
   -7.7089   19.4959  -33.3208 H   0  0  0  0  0  0  0  0  0  0  0  0
   -6.8080   18.0932  -34.0565 H   0  0  0  0  0  0  0  0  0  0  0  0
   -5.5875   16.2260  -35.1640 H   0  0  0  0  0  0  0  0  0  0  0  0
   -3.0978   16.2397  -35.2690 H   0  0  0  0  0  0  0  0  0  0  0  0
   -3.0325   20.0242  -33.1666 H   0  0  0  0  0  0  0  0  0  0  0  0
   -3.9090   21.3818  -32.3036 H   0  0  0  0  0  0  0  0  0  0  0  0
  1  2  1  0
  2  3  2  0
  2  4  1  0
  4  5  2  0
  5  6  1  0
  6  7  2  0
  7  8  1  0
  8  9  2  0
  9 10  1  0
 10 11  2  0
 11 12  1  0
 12 13  2  0
 13 14  1  0
 14 15  1  0
 15 16  1  0
 15 17  1  0
 15 18  1  0
 14 19  2  0
  9 20  1  0
 20 21  2  0
 21 22  1  0
 22 23  1  0
 23 24  2  0
 23 25  1  0
 22  4  1  0
 21  6  1  0
 19 10  1  0
  1 26  1  0
  1 27  1  0
  5 28  1  0
  7 29  1  0
  8 30  1  0
 11 31  1  0
 12 32  1  0
 13 33  1  0
 19 34  1  0
 20 35  1  0
M  CHG  1  25  -1
M  END
>  <UniqueID>  (24) 
24

>  <SMILES>  (24) 
NC(=O)c1cc2ccc(-c3cccc(C(F)(F)F)c3)cc2n1C(=O)[O-]

>  <Energy>  (24) 
83.67564235488052

>  <Genealogy>  (24) 
NC(=O)c1cc2ccc(-c3cccc(C(F)(F)F)c3)cc2n1C(=O)[O-] (protonated)
NC(=O)c1cc2ccc(-c3cccc(C(F)(F)F)c3)cc2n1C(=O)[O-] (3D coordinates assigned)
NC(=O)c1cc2ccc(-c3cccc(C(F)(F)F)c3)cc2n1C(=O)[O-] (optimized conformer: 83.67564235488052 kcal/mol)

>  <smiles>  (24) 
NC(=O)c1cc2ccc(-c3cccc(C(F)(F)F)c3)cc2n1C(=O)O

>  <score_type>  (24) 
oracle

>  <origin>  (24) 
adg

>  <m_score__min__energy>  (24) 
-9.5299999999999994

>  <m_primary>  (24) 
energy

$$$$
24:0
     RDKit          3D

 36 38  0  0  0  0  0  0  0  0999 V2000
   -2.6500   19.9310  -33.5140 C   0  0  0  0  0  0  0  0  0  0  0  0
   -3.9140   19.6710  -34.1180 O   0  0  0  0  0  0  0  0  0  0  0  0
   -4.6750   18.5100  -33.9030 C   0  0  0  0  0  0  0  0  0  0  0  0
   -4.2540   17.2470  -34.3640 C   0  0  0  0  0  0  0  0  0  0  0  0
   -5.0000   16.1400  -34.1090 N   0  0  0  0  0  0  0  0  0  0  0  0
   -6.1620   16.2050  -33.4120 C   0  0  0  0  0  0  0  0  0  0  0  0
   -6.6260   17.4320  -32.9380 C   0  0  0  0  0  0  0  0  0  0  0  0
   -5.8890   18.6000  -33.1880 C   0  0  0  0  0  0  0  0  0  0  0  0
   -6.3930   19.9030  -32.6930 C   0  0  0  0  0  0  0  0  0  0  0  0
   -7.7790   20.1980  -32.7360 C   0  0  0  0  0  0  0  0  0  0  0  0
   -8.2680   21.4210  -32.2470 C   0  0  0  0  0  0  0  0  0  0  0  0
   -7.3510   22.3290  -31.7260 C   0  0  0  0  0  0  0  0  0  0  0  0
   -7.5560   23.5680  -31.1650 C   0  0  0  0  0  0  0  0  0  0  0  0
   -6.2910   24.0230  -30.7990 C   0  0  0  0  0  0  0  0  0  0  0  0
   -6.0280   25.3630  -30.2270 C   0  0  0  0  0  0  0  0  0  0  0  0
   -6.5470   25.7250  -28.9470 N   0  0  0  0  0  0  0  0  0  0  0  0
   -5.3630   26.2110  -30.8810 O   0  0  0  0  0  0  0  0  0  0  0  0
   -5.3400   23.1010  -31.1230 N   0  0  0  0  0  0  0  0  0  0  0  0
   -3.9280   23.1690  -30.8590 C   0  0  0  0  0  0  0  0  0  0  0  0
   -3.3190   24.4120  -30.5200 N   0  0  0  0  0  0  0  0  0  0  0  0
   -3.2210   22.1280  -30.9260 O   0  0  0  0  0  0  0  0  0  0  0  0
   -6.0060   22.0680  -31.6880 C   0  0  0  0  0  0  0  0  0  0  0  0
   -5.4950   20.8490  -32.1480 C   0  0  0  0  0  0  0  0  0  0  0  0
   -2.7553   19.9093  -32.4193 H   0  0  0  0  0  0  0  0  0  0  0  0
   -1.9285   19.1625  -33.8282 H   0  0  0  0  0  0  0  0  0  0  0  0
   -2.2904   20.9219  -33.8282 H   0  0  0  0  0  0  0  0  0  0  0  0
   -3.3170   17.1565  -34.9331 H   0  0  0  0  0  0  0  0  0  0  0  0
   -6.7393   15.2885  -33.2203 H   0  0  0  0  0  0  0  0  0  0  0  0
   -7.5666   17.4841  -32.3700 H   0  0  0  0  0  0  0  0  0  0  0  0
   -8.4792   19.4613  -33.1568 H   0  0  0  0  0  0  0  0  0  0  0  0
   -9.3427   21.6537  -32.2751 H   0  0  0  0  0  0  0  0  0  0  0  0
   -8.5156   24.0893  -31.0332 H   0  0  0  0  0  0  0  0  0  0  0  0
   -6.3880   26.6860  -28.5700 H   0  0  0  0  0  0  0  0  0  0  0  0
   -7.0520   25.0340  -28.3500 H   0  0  0  0  0  0  0  0  0  0  0  0
   -3.4490   25.2550  -31.1220 H   0  0  0  0  0  0  0  0  0  0  0  0
   -4.4184   20.6318  -32.0868 H   0  0  0  0  0  0  0  0  0  0  0  0
  1  2  1  0
  2  3  1  0
  3  4  2  0
  4  5  1  0
  5  6  2  0
  6  7  1  0
  7  8  2  0
  8  9  1  0
  9 10  2  0
 10 11  1  0
 11 12  2  0
 12 13  1  0
 13 14  2  0
 14 15  1  0
 15 16  1  0
 15 17  2  0
 14 18  1  0
 18 19  1  0
 19 20  1  0
 19 21  2  0
 18 22  1  0
 22 23  2  0
  8  3  1  0
 23  9  1  0
 22 12  1  0
  1 24  1  0
  1 25  1  0
  1 26  1  0
  4 27  1  0
  6 28  1  0
  7 29  1  0
 10 30  1  0
 11 31  1  0
 13 32  1  0
 16 33  1  0
 16 34  1  0
 20 35  1  0
 23 36  1  0
M  CHG  1  20  -1
M  END
>  <UniqueID>  (25) 
25

>  <SMILES>  (25) 
COc1cnccc1-c1ccc2cc(C(N)=O)n(C([NH-])=O)c2c1

>  <Energy>  (25) 
84.04803999040374

>  <Genealogy>  (25) 
COc1cnccc1-c1ccc2cc(C(N)=O)n(C([NH-])=O)c2c1 (protonated)
COc1cnccc1-c1ccc2cc(C(N)=O)n(C([NH-])=O)c2c1 (3D coordinates assigned)
COc1cnccc1-c1ccc2cc(C(N)=O)n(C([NH-])=O)c2c1 (optimized conformer: 84.04803999040374 kcal/mol)

>  <smiles>  (25) 
COc1cnccc1-c1ccc2cc(C(N)=O)n(C(N)=O)c2c1

>  <score_type>  (25) 
oracle

>  <origin>  (25) 
adg

>  <m_score__min__energy>  (25) 
-9.4600000000000009

>  <m_primary>  (25) 
energy

$$$$
25:0
     RDKit          3D

 44 45  0  0  0  0  0  0  0  0999 V2000
   -6.4020   17.4400  -31.9640 C   0  0  0  0  0  0  0  0  0  0  0  0
   -6.9650   18.3680  -33.0480 C   0  0  0  0  0  0  0  0  0  0  0  0
   -6.0570   18.3870  -34.2840 C   0  0  0  0  0  0  0  0  0  0  0  0
   -7.1830   19.7690  -32.5090 C   0  0  0  0  0  0  0  0  0  0  0  0
   -8.4940   20.2820  -32.3210 C   0  0  0  0  0  0  0  0  0  0  0  0
   -8.6940   21.5840  -31.8350 C   0  0  0  0  0  0  0  0  0  0  0  0
   -7.5720   22.3490  -31.5370 C   0  0  0  0  0  0  0  0  0  0  0  0
   -7.4800   23.6470  -31.0870 C   0  0  0  0  0  0  0  0  0  0  0  0
   -6.1160   23.9010  -30.9760 C   0  0  0  0  0  0  0  0  0  0  0  0
   -5.5650   25.1710  -30.4620 C   0  0  0  0  0  0  0  0  0  0  0  0
   -4.2260   25.5710  -30.7590 N   0  0  0  0  0  0  0  0  0  0  0  0
   -6.2700   25.8890  -29.7040 O   0  0  0  0  0  0  0  0  0  0  0  0
   -5.3910   22.8110  -31.3540 N   0  0  0  0  0  0  0  0  0  0  0  0
   -3.9640   22.7100  -31.4820 C   0  0  0  0  0  0  0  0  0  0  0  0
   -3.2230   23.1300  -30.5530 O   0  0  0  0  0  0  0  0  0  0  0  0
   -3.4140   22.1450  -32.6430 O   0  0  0  0  0  0  0  0  0  0  0  0
   -2.5800   20.9790  -32.7090 C   0  0  0  0  0  0  0  0  0  0  0  0
   -3.1310   19.9770  -33.7410 C   0  0  0  0  0  0  0  0  0  0  0  0
   -2.6070   20.3260  -31.3190 C   0  0  0  0  0  0  0  0  0  0  0  0
   -1.1290   21.3700  -33.0480 C   0  0  0  0  0  0  0  0  0  0  0  0
   -6.2970   21.8670  -31.6930 C   0  0  0  0  0  0  0  0  0  0  0  0
   -6.0680   20.5810  -32.1960 C   0  0  0  0  0  0  0  0  0  0  0  0
   -6.6476   17.8447  -30.9711 H   0  0  0  0  0  0  0  0  0  0  0  0
   -6.8452   16.4390  -32.0718 H   0  0  0  0  0  0  0  0  0  0  0  0
   -5.3095   17.3708  -32.0718 H   0  0  0  0  0  0  0  0  0  0  0  0
   -7.9436   17.9706  -33.3554 H   0  0  0  0  0  0  0  0  0  0  0  0
   -5.0044   18.4090  -33.9654 H   0  0  0  0  0  0  0  0  0  0  0  0
   -6.2389   17.4849  -34.8865 H   0  0  0  0  0  0  0  0  0  0  0  0
   -6.2765   19.2807  -34.8865 H   0  0  0  0  0  0  0  0  0  0  0  0
   -9.3634   19.6515  -32.5591 H   0  0  0  0  0  0  0  0  0  0  0  0
   -9.7079   21.9867  -31.6943 H   0  0  0  0  0  0  0  0  0  0  0  0
   -8.3077   24.3361  -30.8630 H   0  0  0  0  0  0  0  0  0  0  0  0
   -3.8690   26.4930  -30.4240 H   0  0  0  0  0  0  0  0  0  0  0  0
   -3.5610   24.9230  -31.2360 H   0  0  0  0  0  0  0  0  0  0  0  0
   -3.5970   19.1296  -33.2167 H   0  0  0  0  0  0  0  0  0  0  0  0
   -3.8818   20.4757  -34.3716 H   0  0  0  0  0  0  0  0  0  0  0  0
   -2.3078   19.6101  -34.3716 H   0  0  0  0  0  0  0  0  0  0  0  0
   -2.5747   21.1078  -30.5459 H   0  0  0  0  0  0  0  0  0  0  0  0
   -3.5302   19.7384  -31.2078 H   0  0  0  0  0  0  0  0  0  0  0  0
   -1.7355   19.6641  -31.2078 H   0  0  0  0  0  0  0  0  0  0  0  0
   -0.5633   21.5224  -32.1170 H   0  0  0  0  0  0  0  0  0  0  0  0
   -0.6601   20.5662  -33.6345 H   0  0  0  0  0  0  0  0  0  0  0  0
   -1.1275   22.3006  -33.6345 H   0  0  0  0  0  0  0  0  0  0  0  0
   -5.0432   20.2100  -32.3446 H   0  0  0  0  0  0  0  0  0  0  0  0
  1  2  1  0
  2  3  1  0
  2  4  1  0
  4  5  2  0
  5  6  1  0
  6  7  2  0
  7  8  1  0
  8  9  2  0
  9 10  1  0
 10 11  1  0
 10 12  2  0
  9 13  1  0
 13 14  1  0
 14 15  2  0
 14 16  1  0
 16 17  1  0
 17 18  1  0
 17 19  1  0
 17 20  1  0
 13 21  1  0
 21 22  2  0
 22  4  1  0
 21  7  1  0
  1 23  1  0
  1 24  1  0
  1 25  1  0
  2 26  1  0
  3 27  1  0
  3 28  1  0
  3 29  1  0
  5 30  1  0
  6 31  1  0
  8 32  1  0
 11 33  1  0
 11 34  1  0
 18 35  1  0
 18 36  1  0
 18 37  1  0
 19 38  1  0
 19 39  1  0
 19 40  1  0
 20 41  1  0
 20 42  1  0
 20 43  1  0
 22 44  1  0
M  END
>  <UniqueID>  (26) 
26

>  <SMILES>  (26) 
CC(C)c1ccc2cc(C(N)=O)n(C(=O)OC(C)(C)C)c2c1

>  <Energy>  (26) 
74.27999425754238

>  <Genealogy>  (26) 
CC(C)c1ccc2cc(C(N)=O)n(C(=O)OC(C)(C)C)c2c1 (3D coordinates assigned)
CC(C)c1ccc2cc(C(N)=O)n(C(=O)OC(C)(C)C)c2c1 (optimized conformer: 74.27999425754238 kcal/mol)

>  <smiles>  (26) 
CC(C)c1ccc2cc(C(N)=O)n(C(=O)OC(C)(C)C)c2c1

>  <score_type>  (26) 
oracle

>  <origin>  (26) 
adg

>  <m_score__min__energy>  (26) 
-9.3499999999999996

>  <m_primary>  (26) 
energy

$$$$
26:0
     RDKit          3D

 26 27  0  0  0  0  0  0  0  0999 V2000
   -6.8350   18.4280  -33.4590 C   0  0  0  0  0  0  0  0  0  0  0  0
   -7.0760   19.7370  -32.7660 C   0  0  0  0  0  0  0  0  0  0  0  0
   -8.4000   20.1580  -32.4900 C   0  0  0  0  0  0  0  0  0  0  0  0
   -8.6420   21.4030  -31.8850 C   0  0  0  0  0  0  0  0  0  0  0  0
   -7.5450   22.2020  -31.5760 C   0  0  0  0  0  0  0  0  0  0  0  0
   -7.4960   23.4570  -31.0150 C   0  0  0  0  0  0  0  0  0  0  0  0
   -6.1420   23.7820  -30.9520 C   0  0  0  0  0  0  0  0  0  0  0  0
   -5.6190   25.0140  -30.3220 C   0  0  0  0  0  0  0  0  0  0  0  0
   -6.1170   25.4550  -29.0580 N   0  0  0  0  0  0  0  0  0  0  0  0
   -4.7030   25.6710  -30.8840 O   0  0  0  0  0  0  0  0  0  0  0  0
   -5.3840   22.7690  -31.4590 N   0  0  0  0  0  0  0  0  0  0  0  0
   -3.9570   22.7440  -31.6360 C   0  0  0  0  0  0  0  0  0  0  0  0
   -3.1180   23.5700  -30.8330 N   0  0  0  0  0  0  0  0  0  0  0  0
   -3.4420   22.0060  -32.5180 O   0  0  0  0  0  0  0  0  0  0  0  0
   -6.2580   21.8080  -31.8360 C   0  0  0  0  0  0  0  0  0  0  0  0
   -5.9880   20.5810  -32.4530 C   0  0  0  0  0  0  0  0  0  0  0  0
   -6.6894   17.6371  -32.7085 H   0  0  0  0  0  0  0  0  0  0  0  0
   -7.7028   18.1810  -34.0883 H   0  0  0  0  0  0  0  0  0  0  0  0
   -5.9362   18.5063  -34.0883 H   0  0  0  0  0  0  0  0  0  0  0  0
   -9.2457   19.5050  -32.7514 H   0  0  0  0  0  0  0  0  0  0  0  0
   -9.6666   21.7358  -31.6625 H   0  0  0  0  0  0  0  0  0  0  0  0
   -8.3454   24.0735  -30.6858 H   0  0  0  0  0  0  0  0  0  0  0  0
   -5.7140   26.3050  -28.6030 H   0  0  0  0  0  0  0  0  0  0  0  0
   -6.9120   24.9690  -28.5870 H   0  0  0  0  0  0  0  0  0  0  0  0
   -3.1050   24.6060  -30.9610 H   0  0  0  0  0  0  0  0  0  0  0  0
   -4.9558   20.2821  -32.6878 H   0  0  0  0  0  0  0  0  0  0  0  0
  1  2  1  0
  2  3  2  0
  3  4  1  0
  4  5  2  0
  5  6  1  0
  6  7  2  0
  7  8  1  0
  8  9  1  0
  8 10  2  0
  7 11  1  0
 11 12  1  0
 12 13  1  0
 12 14  2  0
 11 15  1  0
 15 16  2  0
 16  2  1  0
 15  5  1  0
  1 17  1  0
  1 18  1  0
  1 19  1  0
  3 20  1  0
  4 21  1  0
  6 22  1  0
  9 23  1  0
  9 24  1  0
 13 25  1  0
 16 26  1  0
M  CHG  1  13  -1
M  END
>  <UniqueID>  (27) 
27

>  <SMILES>  (27) 
Cc1ccc2cc(C(N)=O)n(C([NH-])=O)c2c1

>  <Energy>  (27) 
64.47305670077176

>  <Genealogy>  (27) 
Cc1ccc2cc(C(N)=O)n(C([NH-])=O)c2c1 (protonated)
Cc1ccc2cc(C(N)=O)n(C([NH-])=O)c2c1 (3D coordinates assigned)
Cc1ccc2cc(C(N)=O)n(C([NH-])=O)c2c1 (optimized conformer: 64.47305670077176 kcal/mol)

>  <smiles>  (27) 
Cc1ccc2cc(C(N)=O)n(C(N)=O)c2c1

>  <score_type>  (27) 
oracle

>  <origin>  (27) 
adg

>  <m_score__min__energy>  (27) 
-8.2200000000000006

>  <m_primary>  (27) 
energy

$$$$
27:0
     RDKit          3D

 29 30  0  0  0  0  0  0  0  0999 V2000
   -5.7420   18.6380  -34.5220 C   0  0  0  0  0  0  0  0  0  0  0  0
   -6.8320   18.4890  -33.4670 C   0  0  0  0  0  0  0  0  0  0  0  0
   -7.0630   19.7930  -32.7520 C   0  0  0  0  0  0  0  0  0  0  0  0
   -8.3790   20.1910  -32.4100 C   0  0  0  0  0  0  0  0  0  0  0  0
   -8.6090   21.4140  -31.7580 C   0  0  0  0  0  0  0  0  0  0  0  0
   -7.5110   22.2230  -31.4800 C   0  0  0  0  0  0  0  0  0  0  0  0
   -7.4490   23.4400  -30.8420 C   0  0  0  0  0  0  0  0  0  0  0  0
   -6.0980   23.7850  -30.8360 C   0  0  0  0  0  0  0  0  0  0  0  0
   -5.5770   25.0710  -30.3190 C   0  0  0  0  0  0  0  0  0  0  0  0
   -6.1320   25.6650  -29.1440 N   0  0  0  0  0  0  0  0  0  0  0  0
   -4.6530   25.6710  -30.9310 O   0  0  0  0  0  0  0  0  0  0  0  0
   -5.3550   22.8190  -31.4470 N   0  0  0  0  0  0  0  0  0  0  0  0
   -3.9260   22.7770  -31.5940 C   0  0  0  0  0  0  0  0  0  0  0  0
   -3.0960   23.6440  -30.8230 N   0  0  0  0  0  0  0  0  0  0  0  0
   -3.3970   21.9750  -32.4080 O   0  0  0  0  0  0  0  0  0  0  0  0
   -6.2350   21.8680  -31.8340 C   0  0  0  0  0  0  0  0  0  0  0  0
   -5.9740   20.6450  -32.4640 C   0  0  0  0  0  0  0  0  0  0  0  0
   -4.7686   18.7711  -34.0273 H   0  0  0  0  0  0  0  0  0  0  0  0
   -5.7138   17.7354  -35.1501 H   0  0  0  0  0  0  0  0  0  0  0  0
   -5.9570   19.5151  -35.1501 H   0  0  0  0  0  0  0  0  0  0  0  0
   -7.7663   18.1745  -33.9551 H   0  0  0  0  0  0  0  0  0  0  0  0
   -6.5122   17.7351  -32.7326 H   0  0  0  0  0  0  0  0  0  0  0  0
   -9.2281   19.5368  -32.6571 H   0  0  0  0  0  0  0  0  0  0  0  0
   -9.6263   21.7230  -31.4757 H   0  0  0  0  0  0  0  0  0  0  0  0
   -8.2869   24.0181  -30.4252 H   0  0  0  0  0  0  0  0  0  0  0  0
   -5.7830   26.5900  -28.8100 H   0  0  0  0  0  0  0  0  0  0  0  0
   -6.8560   25.1720  -28.5760 H   0  0  0  0  0  0  0  0  0  0  0  0
   -3.0680   24.6700  -31.0140 H   0  0  0  0  0  0  0  0  0  0  0  0
   -4.9463   20.3550  -32.7281 H   0  0  0  0  0  0  0  0  0  0  0  0
  1  2  1  0
  2  3  1  0
  3  4  2  0
  4  5  1  0
  5  6  2  0
  6  7  1  0
  7  8  2  0
  8  9  1  0
  9 10  1  0
  9 11  2  0
  8 12  1  0
 12 13  1  0
 13 14  1  0
 13 15  2  0
 12 16  1  0
 16 17  2  0
 17  3  1  0
 16  6  1  0
  1 18  1  0
  1 19  1  0
  1 20  1  0
  2 21  1  0
  2 22  1  0
  4 23  1  0
  5 24  1  0
  7 25  1  0
 10 26  1  0
 10 27  1  0
 14 28  1  0
 17 29  1  0
M  CHG  1  14  -1
M  END
>  <UniqueID>  (28) 
28

>  <SMILES>  (28) 
CCc1ccc2cc(C(N)=O)n(C([NH-])=O)c2c1

>  <Energy>  (28) 
64.65765445462952

>  <Genealogy>  (28) 
CCc1ccc2cc(C(N)=O)n(C([NH-])=O)c2c1 (protonated)
CCc1ccc2cc(C(N)=O)n(C([NH-])=O)c2c1 (3D coordinates assigned)
CCc1ccc2cc(C(N)=O)n(C([NH-])=O)c2c1 (optimized conformer: 64.65765445462952 kcal/mol)

>  <smiles>  (28) 
CCc1ccc2cc(C(N)=O)n(C(N)=O)c2c1

>  <score_type>  (28) 
oracle

>  <origin>  (28) 
adg

>  <m_score__min__energy>  (28) 
-8.5500000000000007

>  <m_primary>  (28) 
energy

$$$$
28:0
     RDKit          3D

 37 39  0  0  0  0  0  0  0  0999 V2000
   -8.3000   18.6510  -31.6740 C   0  0  0  0  0  0  0  0  0  0  0  0
   -7.8100   18.9440  -33.0160 N   0  0  0  0  0  0  0  0  0  0  0  0
   -6.4500   18.7320  -33.4300 C   0  0  0  0  0  0  0  0  0  0  0  0
   -6.1210   17.8560  -34.4760 C   0  0  0  0  0  0  0  0  0  0  0  0
   -4.7830   17.6820  -34.8300 C   0  0  0  0  0  0  0  0  0  0  0  0
   -3.7780   18.3770  -34.1480 C   0  0  0  0  0  0  0  0  0  0  0  0
   -2.4390   18.1620  -34.4730 O   0  0  0  0  0  0  0  0  0  0  0  0
   -4.1400   19.2690  -33.1190 C   0  0  0  0  0  0  0  0  0  0  0  0
   -3.1330   20.0480  -32.3630 C   0  0  0  0  0  0  0  0  0  0  0  0
   -1.8070   19.5570  -32.2530 C   0  0  0  0  0  0  0  0  0  0  0  0
   -0.8390   20.2580  -31.5160 C   0  0  0  0  0  0  0  0  0  0  0  0
   -1.2230   21.4450  -30.8990 C   0  0  0  0  0  0  0  0  0  0  0  0
   -0.4980   22.3010  -30.1030 C   0  0  0  0  0  0  0  0  0  0  0  0
   -1.3880   23.3110  -29.7400 C   0  0  0  0  0  0  0  0  0  0  0  0
   -0.9980   24.4900  -28.9380 C   0  0  0  0  0  0  0  0  0  0  0  0
   -1.7980   25.6690  -28.9750 N   0  0  0  0  0  0  0  0  0  0  0  0
    0.0170   24.4570  -28.1940 O   0  0  0  0  0  0  0  0  0  0  0  0
   -2.6170   23.0830  -30.2860 N   0  0  0  0  0  0  0  0  0  0  0  0
   -3.8160   23.8550  -30.1090 C   0  0  0  0  0  0  0  0  0  0  0  0
   -3.9190   25.1600  -30.6740 N   0  0  0  0  0  0  0  0  0  0  0  0
   -4.7880   23.3780  -29.4650 O   0  0  0  0  0  0  0  0  0  0  0  0
   -2.4970   21.9380  -30.9940 C   0  0  0  0  0  0  0  0  0  0  0  0
   -3.4880   21.2490  -31.7040 C   0  0  0  0  0  0  0  0  0  0  0  0
   -5.4560   19.4040  -32.7900 N   0  0  0  0  0  0  0  0  0  0  0  0
   -7.6041   19.0671  -30.9306 H   0  0  0  0  0  0  0  0  0  0  0  0
   -9.2937   19.1033  -31.5396 H   0  0  0  0  0  0  0  0  0  0  0  0
   -8.3718   17.5616  -31.5396 H   0  0  0  0  0  0  0  0  0  0  0  0
   -8.4860   19.3290  -33.7130 H   0  0  0  0  0  0  0  0  0  0  0  0
   -6.9118   17.3111  -35.0123 H   0  0  0  0  0  0  0  0  0  0  0  0
   -4.5170   16.9962  -35.6479 H   0  0  0  0  0  0  0  0  0  0  0  0
   -1.8860   17.4520  -34.0080 H   0  0  0  0  0  0  0  0  0  0  0  0
   -1.5335   18.6152  -32.7513 H   0  0  0  0  0  0  0  0  0  0  0  0
    0.1906   19.8808  -31.4290 H   0  0  0  0  0  0  0  0  0  0  0  0
    0.5594   22.2084  -29.8142 H   0  0  0  0  0  0  0  0  0  0  0  0
   -2.7950   25.6320  -29.2850 H   0  0  0  0  0  0  0  0  0  0  0  0
   -3.0660   25.7300  -30.8670 H   0  0  0  0  0  0  0  0  0  0  0  0
   -4.5181   21.6323  -31.7484 H   0  0  0  0  0  0  0  0  0  0  0  0
  1  2  1  0
  2  3  1  0
  3  4  2  0
  4  5  1  0
  5  6  2  0
  6  7  1  0
  6  8  1  0
  8  9  1  0
  9 10  2  0
 10 11  1  0
 11 12  2  0
 12 13  1  0
 13 14  2  0
 14 15  1  0
 15 16  1  0
 15 17  2  0
 14 18  1  0
 18 19  1  0
 19 20  1  0
 19 21  2  0
 18 22  1  0
 22 23  2  0
  8 24  2  0
 24  3  1  0
 23  9  1  0
 22 12  1  0
  1 25  1  0
  1 26  1  0
  1 27  1  0
  2 28  1  0
  4 29  1  0
  5 30  1  0
  7 31  1  0
 10 32  1  0
 11 33  1  0
 13 34  1  0
 16 35  1  0
 20 36  1  0
 23 37  1  0
M  CHG  2  16  -1  20  -1
M  END
>  <UniqueID>  (29) 
29

>  <SMILES>  (29) 
CNc1ccc(O)c(-c2ccc3cc(C([NH-])=O)n(C([NH-])=O)c3c2)n1

>  <Energy>  (29) 
82.51988134686853

>  <Genealogy>  (29) 
CNc1ccc(O)c(-c2ccc3cc(C([NH-])=O)n(C([NH-])=O)c3c2)n1 (protonated)
CNc1ccc(O)c(-c2ccc3cc(C([NH-])=O)n(C([NH-])=O)c3c2)n1 (3D coordinates assigned)
CNc1ccc(O)c(-c2ccc3cc(C([NH-])=O)n(C([NH-])=O)c3c2)n1 (optimized conformer: 82.51988134686853 kcal/mol)

>  <smiles>  (29) 
CNc1ccc(O)c(-c2ccc3cc(C(N)=O)n(C(N)=O)c3c2)n1

>  <score_type>  (29) 
oracle

>  <origin>  (29) 
adg

>  <m_score__min__energy>  (29) 
-11.369999999999999

>  <m_primary>  (29) 
energy

$$$$
29:0
     RDKit          3D

 44 45  0  0  0  0  0  0  0  0999 V2000
   -3.3000   19.5810  -33.1840 C   0  0  0  0  0  0  0  0  0  0  0  0
   -4.3910   18.8250  -33.8720 C   0  0  0  0  0  0  0  0  0  0  0  0
   -4.1220   18.1690  -34.9140 O   0  0  0  0  0  0  0  0  0  0  0  0
   -5.7360   18.8370  -33.3630 N   0  0  0  0  0  0  0  0  0  0  0  0
   -6.5670   17.7680  -33.2090 C   0  0  0  0  0  0  0  0  0  0  0  0
   -6.2780   16.3870  -33.6600 C   0  0  0  0  0  0  0  0  0  0  0  0
   -4.9370   15.8950  -33.7050 N   0  0  0  0  0  0  0  0  0  0  0  0
   -7.2210   15.6210  -33.9930 O   0  0  0  0  0  0  0  0  0  0  0  0
   -7.7700   18.1680  -32.6270 C   0  0  0  0  0  0  0  0  0  0  0  0
   -7.6440   19.5220  -32.4210 C   0  0  0  0  0  0  0  0  0  0  0  0
   -8.5360   20.4280  -31.8570 C   0  0  0  0  0  0  0  0  0  0  0  0
   -8.1290   21.7670  -31.7390 C   0  0  0  0  0  0  0  0  0  0  0  0
   -6.8410   22.1720  -32.1710 C   0  0  0  0  0  0  0  0  0  0  0  0
   -6.3990   23.6080  -32.0220 C   0  0  0  0  0  0  0  0  0  0  0  0
   -5.2200   23.7580  -31.0250 C   0  0  1  0  0  0  0  0  0  0  0  0
   -3.9440   23.2020  -31.5350 N   0  0  0  0  0  0  0  0  0  0  0  0
   -3.3390   22.0870  -30.7700 C   0  0  0  0  0  0  0  0  0  0  0  0
   -3.5730   22.3200  -29.2710 C   0  0  0  0  0  0  0  0  0  0  0  0
   -1.8300   21.9680  -31.0280 C   0  0  0  0  0  0  0  0  0  0  0  0
   -5.0220   25.1620  -30.5110 C   0  0  0  0  0  0  0  0  0  0  0  0
   -3.8690   25.6680  -30.5180 O   0  0  0  0  0  0  0  0  0  0  0  0
   -6.0870   25.9120  -30.0270 O   0  0  0  0  0  0  0  0  0  0  0  0
   -5.9660   21.2230  -32.7460 C   0  0  0  0  0  0  0  0  0  0  0  0
   -6.4060   19.9010  -32.8700 C   0  0  0  0  0  0  0  0  0  0  0  0
   -3.4247   19.4946  -32.0945 H   0  0  0  0  0  0  0  0  0  0  0  0
   -2.3247   19.1641  -33.4756 H   0  0  0  0  0  0  0  0  0  0  0  0
   -3.3478   20.6406  -33.4756 H   0  0  0  0  0  0  0  0  0  0  0  0
   -4.7520   14.9080  -33.9890 H   0  0  0  0  0  0  0  0  0  0  0  0
   -4.1220   16.5130  -33.5020 H   0  0  0  0  0  0  0  0  0  0  0  0
   -8.6360   17.5346  -32.3842 H   0  0  0  0  0  0  0  0  0  0  0  0
   -9.5301   20.1056  -31.5138 H   0  0  0  0  0  0  0  0  0  0  0  0
   -8.8166   22.5090  -31.3070 H   0  0  0  0  0  0  0  0  0  0  0  0
   -6.0813   23.9847  -33.0055 H   0  0  0  0  0  0  0  0  0  0  0  0
   -7.2495   24.1839  -31.6282 H   0  0  0  0  0  0  0  0  0  0  0  0
   -5.5291   23.1464  -30.1646 H   0  0  0  0  0  0  0  0  0  0  0  0
   -3.2560   23.9920  -31.5550 H   0  0  0  0  0  0  0  0  0  0  0  0
   -3.8158   21.1523  -31.1002 H   0  0  0  0  0  0  0  0  0  0  0  0
   -2.9112   21.6610  -28.6898 H   0  0  0  0  0  0  0  0  0  0  0  0
   -3.3540   23.3694  -29.0245 H   0  0  0  0  0  0  0  0  0  0  0  0
   -4.6215   22.0965  -29.0245 H   0  0  0  0  0  0  0  0  0  0  0  0
   -1.2960   21.9259  -30.0673 H   0  0  0  0  0  0  0  0  0  0  0  0
   -1.6271   21.0511  -31.6008 H   0  0  0  0  0  0  0  0  0  0  0  0
   -1.4859   22.8418  -31.6008 H   0  0  0  0  0  0  0  0  0  0  0  0
   -4.9627   21.5169  -33.0880 H   0  0  0  0  0  0  0  0  0  0  0  0
  1  2  1  0
  2  3  2  0
  2  4  1  0
  4  5  1  0
  5  6  1  0
  6  7  1  0
  6  8  2  0
  5  9  2  0
  9 10  1  0
 10 11  2  0
 11 12  1  0
 12 13  2  0
 13 14  1  0
 14 15  1  0
 15 16  1  0
 16 17  1  0
 17 18  1  0
 17 19  1  0
 15 20  1  0
 20 21  2  0
 20 22  1  0
 13 23  1  0
 23 24  2  0
 24  4  1  0
 24 10  1  0
  1 25  1  0
  1 26  1  0
  1 27  1  0
  7 28  1  0
  7 29  1  0
  9 30  1  0
 11 31  1  0
 12 32  1  0
 14 33  1  0
 14 34  1  0
 15 35  1  1
 16 36  1  0
 17 37  1  0
 18 38  1  0
 18 39  1  0
 18 40  1  0
 19 41  1  0
 19 42  1  0
 19 43  1  0
 23 44  1  0
M  CHG  1  22  -1
M  END
>  <UniqueID>  (30) 
30

>  <SMILES>  (30) 
CC(=O)n1c(C(N)=O)cc2ccc(C[C@@H](NC(C)C)C(=O)[O-])cc21

>  <Energy>  (30) 
84.00465274910795

>  <Genealogy>  (30) 
CC(=O)n1c(C(N)=O)cc2ccc(CC(NC(C)C)C(=O)[O-])cc21 (protonated)
CC(=O)n1c(C(N)=O)cc2ccc(C[C@@H](NC(C)C)C(=O)[O-])cc21 (chirality)
CC(=O)n1c(C(N)=O)cc2ccc(C[C@@H](NC(C)C)C(=O)[O-])cc21 (3D coordinates assigned)
CC(=O)n1c(C(N)=O)cc2ccc(C[C@@H](NC(C)C)C(=O)[O-])cc21 (optimized conformer: 84.00465274910795 kcal/mol)

>  <smiles>  (30) 
CC(=O)n1c(C(N)=O)cc2ccc(CC(NC(C)C)C(=O)O)cc21

>  <score_type>  (30) 
oracle

>  <origin>  (30) 
adg

>  <m_score__min__energy>  (30) 
-9.8800000000000008

>  <m_primary>  (30) 
energy

$$$$
30:0
     RDKit          3D

 45 47  0  0  0  0  0  0  0  0999 V2000
   -3.0780   21.2530  -28.8820 C   0  0  0  0  0  0  0  0  0  0  0  0
   -2.9770   22.7720  -28.9630 C   0  0  0  0  0  0  0  0  0  0  0  0
   -2.7100   23.1870  -30.3010 O   0  0  0  0  0  0  0  0  0  0  0  0
   -3.4100   22.7050  -31.4130 C   0  0  0  0  0  0  0  0  0  0  0  0
   -2.7930   22.1590  -32.3690 O   0  0  0  0  0  0  0  0  0  0  0  0
   -4.8410   22.8180  -31.4560 N   0  0  0  0  0  0  0  0  0  0  0  0
   -5.6090   23.8280  -30.9610 C   0  0  0  0  0  0  0  0  0  0  0  0
   -5.1140   25.1120  -30.4230 C   0  0  0  0  0  0  0  0  0  0  0  0
   -3.8660   25.6540  -30.8470 N   0  0  0  0  0  0  0  0  0  0  0  0
   -5.8260   25.7640  -29.6130 O   0  0  0  0  0  0  0  0  0  0  0  0
   -6.9610   23.5260  -31.1030 C   0  0  0  0  0  0  0  0  0  0  0  0
   -6.9960   22.2910  -31.7100 C   0  0  0  0  0  0  0  0  0  0  0  0
   -8.0800   21.5100  -32.0800 C   0  0  0  0  0  0  0  0  0  0  0  0
   -7.8270   20.2590  -32.6640 C   0  0  0  0  0  0  0  0  0  0  0  0
   -6.4930   19.7860  -32.8680 C   0  0  0  0  0  0  0  0  0  0  0  0
   -6.2380   18.4760  -33.4670 N   0  0  0  0  0  0  0  0  0  0  0  0
   -5.0060   18.2840  -34.2660 C   0  0  0  0  0  0  0  0  0  0  0  0
   -4.8630   16.9000  -34.9150 C   0  0  0  0  0  0  0  0  0  0  0  0
   -5.4010   15.8170  -34.0870 N   0  0  0  0  0  0  0  0  0  0  0  0
   -4.6460   15.6150  -32.8390 C   0  0  0  0  0  0  0  0  0  0  0  0
   -6.8340   16.0350  -33.8600 C   0  0  0  0  0  0  0  0  0  0  0  0
   -7.1360   17.3500  -33.1260 C   0  0  0  0  0  0  0  0  0  0  0  0
   -5.4190   20.6360  -32.4720 C   0  0  0  0  0  0  0  0  0  0  0  0
   -5.7060   21.8850  -31.9110 C   0  0  0  0  0  0  0  0  0  0  0  0
   -3.0986   20.9426  -27.8269 H   0  0  0  0  0  0  0  0  0  0  0  0
   -4.0003   20.9198  -29.3803 H   0  0  0  0  0  0  0  0  0  0  0  0
   -2.2080   20.8006  -29.3803 H   0  0  0  0  0  0  0  0  0  0  0  0
   -3.9268   23.2157  -28.6297 H   0  0  0  0  0  0  0  0  0  0  0  0
   -2.1525   23.1074  -28.3166 H   0  0  0  0  0  0  0  0  0  0  0  0
   -2.9650   25.2860  -30.4700 H   0  0  0  0  0  0  0  0  0  0  0  0
   -7.8183   24.1429  -30.7956 H   0  0  0  0  0  0  0  0  0  0  0  0
   -9.1102   21.8611  -31.9203 H   0  0  0  0  0  0  0  0  0  0  0  0
   -8.6740   19.6282  -32.9717 H   0  0  0  0  0  0  0  0  0  0  0  0
   -4.9971   19.0387  -35.0662 H   0  0  0  0  0  0  0  0  0  0  0  0
   -4.1653   18.3826  -33.5635 H   0  0  0  0  0  0  0  0  0  0  0  0
   -5.4003   16.9065  -35.8748 H   0  0  0  0  0  0  0  0  0  0  0  0
   -3.7876   16.7091  -35.0455 H   0  0  0  0  0  0  0  0  0  0  0  0
   -5.3071   15.7919  -31.9778 H   0  0  0  0  0  0  0  0  0  0  0  0
   -4.2656   14.5835  -32.8035 H   0  0  0  0  0  0  0  0  0  0  0  0
   -3.8013   16.3187  -32.8035 H   0  0  0  0  0  0  0  0  0  0  0  0
   -7.3438   16.0533  -34.8346 H   0  0  0  0  0  0  0  0  0  0  0  0
   -7.1930   15.2140  -33.2220 H   0  0  0  0  0  0  0  0  0  0  0  0
   -8.1661   17.6487  -33.3704 H   0  0  0  0  0  0  0  0  0  0  0  0
   -6.9829   17.1474  -32.0557 H   0  0  0  0  0  0  0  0  0  0  0  0
   -4.3760   20.3132  -32.6061 H   0  0  0  0  0  0  0  0  0  0  0  0
  1  2  1  0
  2  3  1  0
  3  4  1  0
  4  5  2  0
  4  6  1  0
  6  7  1  0
  7  8  1  0
  8  9  1  0
  8 10  2  0
  7 11  2  0
 11 12  1  0
 12 13  2  0
 13 14  1  0
 14 15  2  0
 15 16  1  0
 16 17  1  0
 17 18  1  0
 18 19  1  0
 19 20  1  0
 19 21  1  0
 21 22  1  0
 15 23  1  0
 23 24  2  0
 24  6  1  0
 24 12  1  0
 22 16  1  0
  1 25  1  0
  1 26  1  0
  1 27  1  0
  2 28  1  0
  2 29  1  0
  9 30  1  0
 11 31  1  0
 13 32  1  0
 14 33  1  0
 17 34  1  0
 17 35  1  0
 18 36  1  0
 18 37  1  0
 20 38  1  0
 20 39  1  0
 20 40  1  0
 21 41  1  0
 21 42  1  0
 22 43  1  0
 22 44  1  0
 23 45  1  0
M  CHG  1   9  -1
M  END
>  <UniqueID>  (31) 
31

>  <SMILES>  (31) 
CCOC(=O)n1c(C([NH-])=O)cc2ccc(N3CCN(C)CC3)cc21

>  <Energy>  (31) 
92.08168257630294

>  <Genealogy>  (31) 
CCOC(=O)n1c(C([NH-])=O)cc2ccc(N3CCN(C)CC3)cc21 (protonated)
CCOC(=O)n1c(C([NH-])=O)cc2ccc(N3CCN(C)CC3)cc21 (3D coordinates assigned)
CCOC(=O)n1c(C([NH-])=O)cc2ccc(N3CCN(C)CC3)cc21 (nonaromatic ring conformer: 92.08168257630294 kcal/mol)

>  <smiles>  (31) 
CCOC(=O)n1c(C(N)=O)cc2ccc(N3CCN(C)CC3)cc21

>  <score_type>  (31) 
oracle

>  <origin>  (31) 
adg

>  <m_score__min__energy>  (31) 
-10.31

>  <m_primary>  (31) 
energy

$$$$
31:0
     RDKit          3D

 41 43  0  0  0  0  0  0  0  0999 V2000
   -1.7000   19.2640  -34.1910 C   0  0  0  0  0  0  0  0  0  0  0  0
   -1.5110   17.7510  -34.1780 C   0  0  0  0  0  0  0  0  0  0  0  0
   -2.7190   17.0890  -34.5460 O   0  0  0  0  0  0  0  0  0  0  0  0
   -3.5050   16.3610  -33.6450 C   0  0  0  0  0  0  0  0  0  0  0  0
   -2.9710   15.5230  -32.8670 O   0  0  0  0  0  0  0  0  0  0  0  0
   -4.9250   16.5710  -33.6030 N   0  0  0  0  0  0  0  0  0  0  0  0
   -5.9050   15.6690  -33.8890 C   0  0  0  0  0  0  0  0  0  0  0  0
   -5.7010   14.3230  -34.4630 C   0  0  0  0  0  0  0  0  0  0  0  0
   -4.3900   13.8230  -34.7280 N   0  0  0  0  0  0  0  0  0  0  0  0
   -6.7030   13.6260  -34.7740 O   0  0  0  0  0  0  0  0  0  0  0  0
   -7.1610   16.2030  -33.6140 C   0  0  0  0  0  0  0  0  0  0  0  0
   -6.9210   17.4790  -33.1600 C   0  0  0  0  0  0  0  0  0  0  0  0
   -7.8120   18.4560  -32.7280 C   0  0  0  0  0  0  0  0  0  0  0  0
   -7.2850   19.6750  -32.2740 C   0  0  0  0  0  0  0  0  0  0  0  0
   -5.8840   19.8960  -32.2510 C   0  0  0  0  0  0  0  0  0  0  0  0
   -5.3350   21.1780  -31.7480 C   0  0  0  0  0  0  0  0  0  0  0  0
   -6.2050   22.2090  -31.3550 C   0  0  0  0  0  0  0  0  0  0  0  0
   -5.7020   23.4230  -30.8830 C   0  0  0  0  0  0  0  0  0  0  0  0
   -4.3160   23.6340  -30.7920 C   0  0  0  0  0  0  0  0  0  0  0  0
   -3.7780   24.9190  -30.2930 C   0  0  0  0  0  0  0  0  0  0  0  0
   -4.3880   25.9990  -30.5170 O   0  0  0  0  0  0  0  0  0  0  0  0
   -2.5920   24.9530  -29.5690 O   0  0  0  0  0  0  0  0  0  0  0  0
   -3.4440   22.6020  -31.1780 C   0  0  0  0  0  0  0  0  0  0  0  0
   -3.9460   21.3860  -31.6520 C   0  0  0  0  0  0  0  0  0  0  0  0
   -3.0720   20.3990  -31.9800 F   0  0  0  0  0  0  0  0  0  0  0  0
   -5.0100   18.8740  -32.6910 C   0  0  0  0  0  0  0  0  0  0  0  0
   -5.5640   17.6770  -33.1590 C   0  0  0  0  0  0  0  0  0  0  0  0
   -1.7465   19.6366  -33.1571 H   0  0  0  0  0  0  0  0  0  0  0  0
   -0.8537   19.7348  -34.7127 H   0  0  0  0  0  0  0  0  0  0  0  0
   -2.6361   19.5121  -34.7127 H   0  0  0  0  0  0  0  0  0  0  0  0
   -0.7189   17.4799  -34.8915 H   0  0  0  0  0  0  0  0  0  0  0  0
   -1.2320   17.4382  -33.1610 H   0  0  0  0  0  0  0  0  0  0  0  0
   -4.2640   12.8540  -35.0950 H   0  0  0  0  0  0  0  0  0  0  0  0
   -3.5500   14.4380  -34.6450 H   0  0  0  0  0  0  0  0  0  0  0  0
   -8.1369   15.7098  -33.7341 H   0  0  0  0  0  0  0  0  0  0  0  0
   -8.8975   18.2784  -32.7418 H   0  0  0  0  0  0  0  0  0  0  0  0
   -7.9662   20.4681  -31.9321 H   0  0  0  0  0  0  0  0  0  0  0  0
   -7.2927   22.0583  -31.4198 H   0  0  0  0  0  0  0  0  0  0  0  0
   -6.3964   24.2205  -30.5800 H   0  0  0  0  0  0  0  0  0  0  0  0
   -2.3566   22.7520  -31.1067 H   0  0  0  0  0  0  0  0  0  0  0  0
   -3.9196   19.0170  -32.6658 H   0  0  0  0  0  0  0  0  0  0  0  0
  1  2  1  0
  2  3  1  0
  3  4  1  0
  4  5  2  0
  4  6  1  0
  6  7  1  0
  7  8  1  0
  8  9  1  0
  8 10  2  0
  7 11  2  0
 11 12  1  0
 12 13  2  0
 13 14  1  0
 14 15  2  0
 15 16  1  0
 16 17  2  0
 17 18  1  0
 18 19  2  0
 19 20  1  0
 20 21  2  0
 20 22  1  0
 19 23  1  0
 23 24  2  0
 24 25  1  0
 15 26  1  0
 26 27  2  0
 27  6  1  0
 27 12  1  0
 24 16  1  0
  1 28  1  0
  1 29  1  0
  1 30  1  0
  2 31  1  0
  2 32  1  0
  9 33  1  0
  9 34  1  0
 11 35  1  0
 13 36  1  0
 14 37  1  0
 17 38  1  0
 18 39  1  0
 23 40  1  0
 26 41  1  0
M  CHG  1  22  -1
M  END
>  <UniqueID>  (32) 
32

>  <SMILES>  (32) 
CCOC(=O)n1c(C(N)=O)cc2ccc(-c3ccc(C(=O)[O-])cc3F)cc21

>  <Energy>  (32) 
85.8079791136853

>  <Genealogy>  (32) 
CCOC(=O)n1c(C(N)=O)cc2ccc(-c3ccc(C(=O)[O-])cc3F)cc21 (protonated)
CCOC(=O)n1c(C(N)=O)cc2ccc(-c3ccc(C(=O)[O-])cc3F)cc21 (3D coordinates assigned)
CCOC(=O)n1c(C(N)=O)cc2ccc(-c3ccc(C(=O)[O-])cc3F)cc21 (optimized conformer: 85.8079791136853 kcal/mol)

>  <smiles>  (32) 
CCOC(=O)n1c(C(N)=O)cc2ccc(-c3ccc(C(=O)O)cc3F)cc21

>  <score_type>  (32) 
oracle

>  <origin>  (32) 
adg

>  <m_score__min__energy>  (32) 
-8.9399999999999995

>  <m_primary>  (32) 
energy

$$$$
32:0
     RDKit          3D

 27 28  0  0  0  0  0  0  0  0999 V2000
   -8.2320   23.3120  -31.9430 C   0  0  0  0  0  0  0  0  0  0  0  0
   -7.1810   22.8760  -30.9730 C   0  0  0  0  0  0  0  0  0  0  0  0
   -7.4660   22.8110  -29.7470 O   0  0  0  0  0  0  0  0  0  0  0  0
   -5.8520   22.5500  -31.4140 N   0  0  0  0  0  0  0  0  0  0  0  0
   -4.6890   23.1460  -31.0280 C   0  0  0  0  0  0  0  0  0  0  0  0
   -4.5770   24.3510  -30.1810 C   0  0  0  0  0  0  0  0  0  0  0  0
   -5.3120   24.4750  -28.9620 N   0  0  0  0  0  0  0  0  0  0  0  0
   -3.8560   25.3100  -30.5640 O   0  0  0  0  0  0  0  0  0  0  0  0
   -3.5920   22.4730  -31.5570 C   0  0  0  0  0  0  0  0  0  0  0  0
   -4.1200   21.4380  -32.2930 C   0  0  0  0  0  0  0  0  0  0  0  0
   -3.4780   20.4350  -33.0140 C   0  0  0  0  0  0  0  0  0  0  0  0
   -4.2740   19.4600  -33.6380 C   0  0  0  0  0  0  0  0  0  0  0  0
   -5.6850   19.4980  -33.5170 C   0  0  0  0  0  0  0  0  0  0  0  0
   -6.4830   18.4890  -34.1410 N   0  0  0  0  0  0  0  0  0  0  0  0
   -6.3010   20.5270  -32.7750 C   0  0  0  0  0  0  0  0  0  0  0  0
   -5.4860   21.5020  -32.1870 C   0  0  0  0  0  0  0  0  0  0  0  0
   -9.1112   23.6767  -31.3916 H   0  0  0  0  0  0  0  0  0  0  0  0
   -7.8349   24.1196  -32.5755 H   0  0  0  0  0  0  0  0  0  0  0  0
   -8.5232   22.4604  -32.5755 H   0  0  0  0  0  0  0  0  0  0  0  0
   -5.1770   25.3120  -28.3530 H   0  0  0  0  0  0  0  0  0  0  0  0
   -6.0590   23.7910  -28.7090 H   0  0  0  0  0  0  0  0  0  0  0  0
   -2.5286   22.7169  -31.4164 H   0  0  0  0  0  0  0  0  0  0  0  0
   -2.3812   20.4068  -33.0927 H   0  0  0  0  0  0  0  0  0  0  0  0
   -3.7980   18.6608  -34.2251 H   0  0  0  0  0  0  0  0  0  0  0  0
   -6.8470   18.6200  -35.1110 H   0  0  0  0  0  0  0  0  0  0  0  0
   -6.7130   17.6030  -33.6390 H   0  0  0  0  0  0  0  0  0  0  0  0
   -7.3945   20.5628  -32.6610 H   0  0  0  0  0  0  0  0  0  0  0  0
  1  2  1  0
  2  3  2  0
  2  4  1  0
  4  5  1  0
  5  6  1  0
  6  7  1  0
  6  8  2  0
  5  9  2  0
  9 10  1  0
 10 11  2  0
 11 12  1  0
 12 13  2  0
 13 14  1  0
 13 15  1  0
 15 16  2  0
 16  4  1  0
 16 10  1  0
  1 17  1  0
  1 18  1  0
  1 19  1  0
  7 20  1  0
  7 21  1  0
  9 22  1  0
 11 23  1  0
 12 24  1  0
 14 25  1  0
 14 26  1  0
 15 27  1  0
M  END
>  <UniqueID>  (33) 
33

>  <SMILES>  (33) 
CC(=O)n1c(C(N)=O)cc2ccc(N)cc21

>  <Energy>  (33) 
65.80652290747291

>  <Genealogy>  (33) 
CC(=O)n1c(C(N)=O)cc2ccc(N)cc21 (3D coordinates assigned)
CC(=O)n1c(C(N)=O)cc2ccc(N)cc21 (optimized conformer: 65.80652290747291 kcal/mol)

>  <smiles>  (33) 
CC(=O)n1c(C(N)=O)cc2ccc(N)cc21

>  <score_type>  (33) 
oracle

>  <origin>  (33) 
adg

>  <m_score__min__energy>  (33) 
-6.75

>  <m_primary>  (33) 
energy

$$$$
33:0
     RDKit          3D

 30 32  0  0  0  0  0  0  0  0999 V2000
   -1.5880   26.0290  -28.8480 N   0  0  0  0  0  0  0  0  0  0  0  0
   -0.8680   24.8000  -28.8340 C   0  0  0  0  0  0  0  0  0  0  0  0
    0.2450   24.7440  -28.2440 O   0  0  0  0  0  0  0  0  0  0  0  0
   -1.3760   23.6120  -29.5500 C   0  0  0  0  0  0  0  0  0  0  0  0
   -0.5940   22.4930  -29.8280 C   0  0  0  0  0  0  0  0  0  0  0  0
   -1.3970   21.6650  -30.5780 C   0  0  0  0  0  0  0  0  0  0  0  0
   -1.1300   20.4110  -31.1190 C   0  0  0  0  0  0  0  0  0  0  0  0
   -2.1570   19.7670  -31.8280 C   0  0  0  0  0  0  0  0  0  0  0  0
   -3.4300   20.3760  -31.9750 C   0  0  0  0  0  0  0  0  0  0  0  0
   -4.5110   19.6880  -32.7230 C   0  0  0  0  0  0  0  0  0  0  0  0
   -5.8290   19.7180  -32.2390 C   0  0  0  0  0  0  0  0  0  0  0  0
   -6.8420   19.0700  -32.9520 C   0  0  0  0  0  0  0  0  0  0  0  0
   -8.4940   19.1070  -32.3670 Cl  0  0  0  0  0  0  0  0  0  0  0  0
   -6.5510   18.4110  -34.1040 N   0  0  0  0  0  0  0  0  0  0  0  0
   -5.2850   18.3580  -34.5950 C   0  0  0  0  0  0  0  0  0  0  0  0
   -4.2410   18.9920  -33.9160 C   0  0  0  0  0  0  0  0  0  0  0  0
   -2.9770   18.8940  -34.4020 F   0  0  0  0  0  0  0  0  0  0  0  0
   -3.6600   21.6550  -31.4140 C   0  0  0  0  0  0  0  0  0  0  0  0
   -2.6120   22.2810  -30.7290 C   0  0  0  0  0  0  0  0  0  0  0  0
   -2.6170   23.4780  -30.1000 N   0  0  0  0  0  0  0  0  0  0  0  0
   -3.7390   24.3650  -29.9610 C   0  0  0  0  0  0  0  0  0  0  0  0
   -3.8240   25.3990  -30.6740 O   0  0  0  0  0  0  0  0  0  0  0  0
   -4.7550   24.0760  -29.0600 O   0  0  0  0  0  0  0  0  0  0  0  0
   -2.6260   26.0420  -28.9590 H   0  0  0  0  0  0  0  0  0  0  0  0
    0.4445   22.3104  -29.5146 H   0  0  0  0  0  0  0  0  0  0  0  0
   -0.1444   19.9385  -30.9951 H   0  0  0  0  0  0  0  0  0  0  0  0
   -1.9723   18.7789  -32.2746 H   0  0  0  0  0  0  0  0  0  0  0  0
   -6.0630   20.2484  -31.3041 H   0  0  0  0  0  0  0  0  0  0  0  0
   -5.0814   17.8146  -35.5295 H   0  0  0  0  0  0  0  0  0  0  0  0
   -4.6394   22.1456  -31.5140 H   0  0  0  0  0  0  0  0  0  0  0  0
  1  2  1  0
  2  3  2  0
  2  4  1  0
  4  5  2  0
  5  6  1  0
  6  7  2  0
  7  8  1  0
  8  9  2  0
  9 10  1  0
 10 11  2  0
 11 12  1  0
 12 13  1  0
 12 14  2  0
 14 15  1  0
 15 16  2  0
 16 17  1  0
  9 18  1  0
 18 19  2  0
 19 20  1  0
 20 21  1  0
 21 22  2  0
 21 23  1  0
 20  4  1  0
 19  6  1  0
 16 10  1  0
  1 24  1  0
  5 25  1  0
  7 26  1  0
  8 27  1  0
 11 28  1  0
 15 29  1  0
 18 30  1  0
M  CHG  2   1  -1  23  -1
M  END
>  <UniqueID>  (34) 
34

>  <SMILES>  (34) 
[NH-]C(=O)c1cc2ccc(-c3cc(Cl)ncc3F)cc2n1C(=O)[O-]

>  <Energy>  (34) 
79.74935782003539

>  <Genealogy>  (34) 
[NH-]C(=O)c1cc2ccc(-c3cc(Cl)ncc3F)cc2n1C(=O)[O-] (protonated)
[NH-]C(=O)c1cc2ccc(-c3cc(Cl)ncc3F)cc2n1C(=O)[O-] (3D coordinates assigned)
[NH-]C(=O)c1cc2ccc(-c3cc(Cl)ncc3F)cc2n1C(=O)[O-] (optimized conformer: 79.74935782003539 kcal/mol)

>  <smiles>  (34) 
NC(=O)c1cc2ccc(-c3cc(Cl)ncc3F)cc2n1C(=O)O

>  <score_type>  (34) 
oracle

>  <origin>  (34) 
adg

>  <m_score__min__energy>  (34) 
-11.880000000000001

>  <m_primary>  (34) 
energy

$$$$
34:0
     RDKit          3D

 38 40  0  0  0  0  0  0  0  0999 V2000
   -2.7770   21.1890  -33.4300 C   0  0  0  0  0  0  0  0  0  0  0  0
   -2.2520   20.8150  -32.0480 C   0  0  0  0  0  0  0  0  0  0  0  0
   -3.1250   21.2990  -31.0310 O   0  0  0  0  0  0  0  0  0  0  0  0
   -3.7550   22.5480  -31.0860 C   0  0  0  0  0  0  0  0  0  0  0  0
   -3.0730   23.6080  -31.0460 O   0  0  0  0  0  0  0  0  0  0  0  0
   -5.1870   22.6220  -31.1930 N   0  0  0  0  0  0  0  0  0  0  0  0
   -5.9840   23.6900  -30.9060 C   0  0  0  0  0  0  0  0  0  0  0  0
   -5.5480   24.9480  -30.2680 C   0  0  0  0  0  0  0  0  0  0  0  0
   -6.1230   25.3940  -29.0390 N   0  0  0  0  0  0  0  0  0  0  0  0
   -4.6910   25.6690  -30.8450 O   0  0  0  0  0  0  0  0  0  0  0  0
   -7.3050   23.4230  -31.2510 C   0  0  0  0  0  0  0  0  0  0  0  0
   -7.2980   22.1410  -31.7500 C   0  0  0  0  0  0  0  0  0  0  0  0
   -8.3430   21.3720  -32.2530 C   0  0  0  0  0  0  0  0  0  0  0  0
   -8.0430   20.0880  -32.7370 C   0  0  0  0  0  0  0  0  0  0  0  0
   -6.7110   19.5970  -32.7210 C   0  0  0  0  0  0  0  0  0  0  0  0
   -6.4060   18.2440  -33.2490 C   0  0  0  0  0  0  0  0  0  0  0  0
   -7.2630   17.1580  -32.9910 C   0  0  0  0  0  0  0  0  0  0  0  0
   -6.9740   15.9230  -33.4810 N   0  0  0  0  0  0  0  0  0  0  0  0
   -5.8640   15.6920  -34.2290 C   0  0  0  0  0  0  0  0  0  0  0  0
   -4.9830   16.7360  -34.5140 C   0  0  0  0  0  0  0  0  0  0  0  0
   -3.8770   16.5120  -35.2630 F   0  0  0  0  0  0  0  0  0  0  0  0
   -5.2550   18.0130  -34.0220 C   0  0  0  0  0  0  0  0  0  0  0  0
   -5.6770   20.4130  -32.2020 C   0  0  0  0  0  0  0  0  0  0  0  0
   -6.0080   21.6790  -31.7060 C   0  0  0  0  0  0  0  0  0  0  0  0
   -3.6687   21.8243  -33.3239 H   0  0  0  0  0  0  0  0  0  0  0  0
   -1.9994   21.7378  -33.9815 H   0  0  0  0  0  0  0  0  0  0  0  0
   -3.0416   20.2748  -33.9815 H   0  0  0  0  0  0  0  0  0  0  0  0
   -2.1814   19.7199  -31.9725 H   0  0  0  0  0  0  0  0  0  0  0  0
   -1.2605   21.2711  -31.9103 H   0  0  0  0  0  0  0  0  0  0  0  0
   -6.9530   24.9140  -28.6270 H   0  0  0  0  0  0  0  0  0  0  0  0
   -5.7720   26.2650  -28.5820 H   0  0  0  0  0  0  0  0  0  0  0  0
   -8.1705   24.0939  -31.1470 H   0  0  0  0  0  0  0  0  0  0  0  0
   -9.3729   21.7580  -32.2710 H   0  0  0  0  0  0  0  0  0  0  0  0
   -8.8504   19.4548  -33.1335 H   0  0  0  0  0  0  0  0  0  0  0  0
   -8.1716   17.3090  -32.3897 H   0  0  0  0  0  0  0  0  0  0  0  0
   -5.6593   14.6808  -34.6105 H   0  0  0  0  0  0  0  0  0  0  0  0
   -4.5659   18.8423  -34.2399 H   0  0  0  0  0  0  0  0  0  0  0  0
   -4.6355   20.0594  -32.1889 H   0  0  0  0  0  0  0  0  0  0  0  0
  1  2  1  0
  2  3  1  0
  3  4  1  0
  4  5  2  0
  4  6  1  0
  6  7  1  0
  7  8  1  0
  8  9  1  0
  8 10  2  0
  7 11  2  0
 11 12  1  0
 12 13  2  0
 13 14  1  0
 14 15  2  0
 15 16  1  0
 16 17  2  0
 17 18  1  0
 18 19  2  0
 19 20  1  0
 20 21  1  0
 20 22  2  0
 15 23  1  0
 23 24  2  0
 24  6  1  0
 24 12  1  0
 22 16  1  0
  1 25  1  0
  1 26  1  0
  1 27  1  0
  2 28  1  0
  2 29  1  0
  9 30  1  0
  9 31  1  0
 11 32  1  0
 13 33  1  0
 14 34  1  0
 17 35  1  0
 19 36  1  0
 22 37  1  0
 23 38  1  0
M  END
>  <UniqueID>  (35) 
35

>  <SMILES>  (35) 
CCOC(=O)n1c(C(N)=O)cc2ccc(-c3cncc(F)c3)cc21

>  <Energy>  (35) 
82.00810987960782

>  <Genealogy>  (35) 
CCOC(=O)n1c(C(N)=O)cc2ccc(-c3cncc(F)c3)cc21 (3D coordinates assigned)
CCOC(=O)n1c(C(N)=O)cc2ccc(-c3cncc(F)c3)cc21 (optimized conformer: 82.00810987960782 kcal/mol)

>  <smiles>  (35) 
CCOC(=O)n1c(C(N)=O)cc2ccc(-c3cncc(F)c3)cc21

>  <score_type>  (35) 
oracle

>  <origin>  (35) 
adg

>  <m_score__min__energy>  (35) 
-8.9299999999999997

>  <m_primary>  (35) 
energy

$$$$
35:0
     RDKit          3D

 31 32  0  0  0  0  0  0  0  0999 V2000
   -2.9420   19.8250  -33.2560 C   0  0  0  0  0  0  0  0  0  0  0  0
   -2.3490   21.0880  -32.6420 C   0  0  0  0  0  0  0  0  0  0  0  0
   -3.2930   22.1550  -32.6780 O   0  0  0  0  0  0  0  0  0  0  0  0
   -3.7990   22.7770  -31.5290 C   0  0  0  0  0  0  0  0  0  0  0  0
   -3.0210   23.1330  -30.6020 O   0  0  0  0  0  0  0  0  0  0  0  0
   -5.2140   22.9810  -31.3950 N   0  0  0  0  0  0  0  0  0  0  0  0
   -5.8570   24.0530  -30.8510 C   0  0  0  0  0  0  0  0  0  0  0  0
   -5.2260   25.3200  -30.4230 C   0  0  0  0  0  0  0  0  0  0  0  0
   -3.9090   25.6620  -30.8430 N   0  0  0  0  0  0  0  0  0  0  0  0
   -5.8790   26.1330  -29.7160 O   0  0  0  0  0  0  0  0  0  0  0  0
   -7.2330   23.8340  -30.8240 C   0  0  0  0  0  0  0  0  0  0  0  0
   -7.4160   22.5900  -31.3820 C   0  0  0  0  0  0  0  0  0  0  0  0
   -8.5870   21.8650  -31.5890 C   0  0  0  0  0  0  0  0  0  0  0  0
   -8.4760   20.5840  -32.1560 C   0  0  0  0  0  0  0  0  0  0  0  0
   -7.2080   20.0590  -32.5070 C   0  0  0  0  0  0  0  0  0  0  0  0
   -7.1000   18.6700  -33.0640 C   0  0  0  0  0  0  0  0  0  0  0  0
   -6.0410   20.8160  -32.2680 C   0  0  0  0  0  0  0  0  0  0  0  0
   -6.1820   22.0960  -31.7180 C   0  0  0  0  0  0  0  0  0  0  0  0
   -3.2622   19.1431  -32.4544 H   0  0  0  0  0  0  0  0  0  0  0  0
   -3.8089   20.0920  -33.8783 H   0  0  0  0  0  0  0  0  0  0  0  0
   -2.1829   19.3286  -33.8783 H   0  0  0  0  0  0  0  0  0  0  0  0
   -2.0718   20.8859  -31.5969 H   0  0  0  0  0  0  0  0  0  0  0  0
   -1.4612   21.3807  -33.2218 H   0  0  0  0  0  0  0  0  0  0  0  0
   -3.0720   25.2960  -30.3360 H   0  0  0  0  0  0  0  0  0  0  0  0
   -8.0084   24.5121  -30.4382 H   0  0  0  0  0  0  0  0  0  0  0  0
   -9.5679   22.2820  -31.3172 H   0  0  0  0  0  0  0  0  0  0  0  0
   -9.3815   19.9838  -32.3287 H   0  0  0  0  0  0  0  0  0  0  0  0
   -7.0438   17.9467  -32.2371 H   0  0  0  0  0  0  0  0  0  0  0  0
   -7.9840   18.4529  -33.6816 H   0  0  0  0  0  0  0  0  0  0  0  0
   -6.1931   18.5921  -33.6816 H   0  0  0  0  0  0  0  0  0  0  0  0
   -5.0467   20.4110  -32.5075 H   0  0  0  0  0  0  0  0  0  0  0  0
  1  2  1  0
  2  3  1  0
  3  4  1  0
  4  5  2  0
  4  6  1  0
  6  7  1  0
  7  8  1  0
  8  9  1  0
  8 10  2  0
  7 11  2  0
 11 12  1  0
 12 13  2  0
 13 14  1  0
 14 15  2  0
 15 16  1  0
 15 17  1  0
 17 18  2  0
 18  6  1  0
 18 12  1  0
  1 19  1  0
  1 20  1  0
  1 21  1  0
  2 22  1  0
  2 23  1  0
  9 24  1  0
 11 25  1  0
 13 26  1  0
 14 27  1  0
 16 28  1  0
 16 29  1  0
 16 30  1  0
 17 31  1  0
M  CHG  1   9  -1
M  END
>  <UniqueID>  (36) 
36

>  <SMILES>  (36) 
CCOC(=O)n1c(C([NH-])=O)cc2ccc(C)cc21

>  <Energy>  (36) 
65.72889586980246

>  <Genealogy>  (36) 
CCOC(=O)n1c(C([NH-])=O)cc2ccc(C)cc21 (protonated)
CCOC(=O)n1c(C([NH-])=O)cc2ccc(C)cc21 (3D coordinates assigned)
CCOC(=O)n1c(C([NH-])=O)cc2ccc(C)cc21 (optimized conformer: 65.72889586980246 kcal/mol)

>  <smiles>  (36) 
CCOC(=O)n1c(C(N)=O)cc2ccc(C)cc21

>  <score_type>  (36) 
oracle

>  <origin>  (36) 
adg

>  <m_score__min__energy>  (36) 
-9.3499999999999996

>  <m_primary>  (36) 
energy

$$$$
36:0
     RDKit          3D

 33 34  0  0  0  0  0  0  0  0999 V2000
   -8.3920   18.5280  -32.0220 C   0  0  0  0  0  0  0  0  0  0  0  0
   -7.0100   18.0630  -31.5790 C   0  0  0  0  0  0  0  0  0  0  0  0
   -6.1680   17.8480  -32.7090 O   0  0  0  0  0  0  0  0  0  0  0  0
   -5.7480   18.8750  -33.5620 C   0  0  0  0  0  0  0  0  0  0  0  0
   -5.2880   18.6170  -34.7070 O   0  0  0  0  0  0  0  0  0  0  0  0
   -5.8950   20.2960  -33.1230 C   0  0  0  0  0  0  0  0  0  0  0  0
   -4.6180   20.7650  -32.4850 C   0  0  0  0  0  0  0  0  0  0  0  0
   -3.4540   19.9590  -32.5470 C   0  0  0  0  0  0  0  0  0  0  0  0
   -2.2630   20.3730  -31.9300 C   0  0  0  0  0  0  0  0  0  0  0  0
   -2.2700   21.5850  -31.2470 C   0  0  0  0  0  0  0  0  0  0  0  0
   -1.2540   22.2300  -30.5790 C   0  0  0  0  0  0  0  0  0  0  0  0
   -1.8210   23.4040  -30.0880 C   0  0  0  0  0  0  0  0  0  0  0  0
   -1.0940   24.3580  -29.2260 C   0  0  0  0  0  0  0  0  0  0  0  0
   -1.5990   25.6690  -28.9930 N   0  0  0  0  0  0  0  0  0  0  0  0
   -0.0370   23.9920  -28.6450 O   0  0  0  0  0  0  0  0  0  0  0  0
   -3.1350   23.4870  -30.4440 N   0  0  0  0  0  0  0  0  0  0  0  0
   -4.0400   24.5790  -30.2150 C   0  0  0  0  0  0  0  0  0  0  0  0
   -3.8730   25.6790  -30.8030 O   0  0  0  0  0  0  0  0  0  0  0  0
   -5.0930   24.4400  -29.3190 O   0  0  0  0  0  0  0  0  0  0  0  0
   -3.3950   22.3640  -31.1510 C   0  0  0  0  0  0  0  0  0  0  0  0
   -4.5900   21.9850  -31.7730 C   0  0  0  0  0  0  0  0  0  0  0  0
   -9.0102   18.7360  -31.1363 H   0  0  0  0  0  0  0  0  0  0  0  0
   -8.2952   19.4431  -32.6247 H   0  0  0  0  0  0  0  0  0  0  0  0
   -8.8681   17.7406  -32.6247 H   0  0  0  0  0  0  0  0  0  0  0  0
   -6.5596   18.8313  -30.9333 H   0  0  0  0  0  0  0  0  0  0  0  0
   -7.1135   17.1166  -31.0281 H   0  0  0  0  0  0  0  0  0  0  0  0
   -6.1206   20.9266  -33.9956 H   0  0  0  0  0  0  0  0  0  0  0  0
   -6.7144   20.3681  -32.3926 H   0  0  0  0  0  0  0  0  0  0  0  0
   -3.4841   18.9994  -33.0840 H   0  0  0  0  0  0  0  0  0  0  0  0
   -1.3525   19.7582  -31.9848 H   0  0  0  0  0  0  0  0  0  0  0  0
   -0.2147   21.8905  -30.4584 H   0  0  0  0  0  0  0  0  0  0  0  0
   -2.6260   25.8590  -29.0060 H   0  0  0  0  0  0  0  0  0  0  0  0
   -5.4852   22.6211  -31.7091 H   0  0  0  0  0  0  0  0  0  0  0  0
  1  2  1  0
  2  3  1  0
  3  4  1  0
  4  5  2  0
  4  6  1  0
  6  7  1  0
  7  8  2  0
  8  9  1  0
  9 10  2  0
 10 11  1  0
 11 12  2  0
 12 13  1  0
 13 14  1  0
 13 15  2  0
 12 16  1  0
 16 17  1  0
 17 18  2  0
 17 19  1  0
 16 20  1  0
 20 21  2  0
 21  7  1  0
 20 10  1  0
  1 22  1  0
  1 23  1  0
  1 24  1  0
  2 25  1  0
  2 26  1  0
  6 27  1  0
  6 28  1  0
  8 29  1  0
  9 30  1  0
 11 31  1  0
 14 32  1  0
 21 33  1  0
M  CHG  2  14  -1  19  -1
M  END
>  <UniqueID>  (37) 
37

>  <SMILES>  (37) 
CCOC(=O)Cc1ccc2cc(C([NH-])=O)n(C(=O)[O-])c2c1

>  <Energy>  (37) 
66.84661453262854

>  <Genealogy>  (37) 
CCOC(=O)Cc1ccc2cc(C([NH-])=O)n(C(=O)[O-])c2c1 (protonated)
CCOC(=O)Cc1ccc2cc(C([NH-])=O)n(C(=O)[O-])c2c1 (3D coordinates assigned)
CCOC(=O)Cc1ccc2cc(C([NH-])=O)n(C(=O)[O-])c2c1 (optimized conformer: 66.84661453262854 kcal/mol)

>  <smiles>  (37) 
CCOC(=O)Cc1ccc2cc(C(N)=O)n(C(=O)O)c2c1

>  <score_type>  (37) 
oracle

>  <origin>  (37) 
adg

>  <m_score__min__energy>  (37) 
-10.390000000000001

>  <m_primary>  (37) 
energy

$$$$
37:0
     RDKit          3D

 55 57  0  0  0  0  0  0  0  0999 V2000
   -7.9510   22.0740  -30.6460 C   0  0  0  0  0  0  0  0  0  0  0  0
   -7.1950   22.7800  -29.7970 C   0  0  0  0  0  0  0  0  0  0  0  0
   -6.3060   23.9170  -30.2650 C   0  0  0  0  0  0  0  0  0  0  0  0
   -6.8720   25.2470  -29.7290 C   0  0  0  0  0  0  0  0  0  0  0  0
   -6.2870   23.9270  -31.8060 C   0  0  0  0  0  0  0  0  0  0  0  0
   -4.9870   23.6790  -29.7500 O   0  0  0  0  0  0  0  0  0  0  0  0
   -3.7770   24.0660  -30.3480 C   0  0  0  0  0  0  0  0  0  0  0  0
   -3.6380   25.2170  -30.8430 O   0  0  0  0  0  0  0  0  0  0  0  0
   -2.6750   23.1460  -30.3680 N   0  0  0  0  0  0  0  0  0  0  0  0
   -1.4070   23.3550  -29.9150 C   0  0  0  0  0  0  0  0  0  0  0  0
   -0.9450   24.5260  -29.1400 C   0  0  0  0  0  0  0  0  0  0  0  0
   -1.8020   25.6420  -28.9190 N   0  0  0  0  0  0  0  0  0  0  0  0
    0.2050   24.5180  -28.6250 O   0  0  0  0  0  0  0  0  0  0  0  0
   -0.5930   22.2660  -30.2190 C   0  0  0  0  0  0  0  0  0  0  0  0
   -1.4100   21.3720  -30.8720 C   0  0  0  0  0  0  0  0  0  0  0  0
   -1.1170   20.1270  -31.4190 C   0  0  0  0  0  0  0  0  0  0  0  0
   -2.1490   19.4370  -32.0780 C   0  0  0  0  0  0  0  0  0  0  0  0
   -3.4460   19.9990  -32.1790 C   0  0  0  0  0  0  0  0  0  0  0  0
   -4.4860   19.2980  -32.8850 N   0  0  0  0  0  0  0  0  0  0  0  0
   -5.6960   20.0200  -33.2930 C   0  0  0  0  0  0  0  0  0  0  0  0
   -6.7740   19.0640  -33.8360 C   0  0  0  0  0  0  0  0  0  0  0  0
   -6.9280   17.8390  -33.0150 N   0  0  0  0  0  0  0  0  0  0  0  0
   -8.0750   17.8310  -32.0820 C   0  0  0  0  0  0  0  0  0  0  0  0
   -8.8430   19.1600  -32.0100 C   0  0  0  0  0  0  0  0  0  0  0  0
   -9.7000   19.3110  -33.0840 F   0  0  0  0  0  0  0  0  0  0  0  0
   -5.6910   17.2250  -32.4750 C   0  0  0  0  0  0  0  0  0  0  0  0
   -4.4260   17.8460  -33.0640 C   0  0  0  0  0  0  0  0  0  0  0  0
   -3.7020   21.2690  -31.6140 C   0  0  0  0  0  0  0  0  0  0  0  0
   -2.6610   21.9260  -30.9490 C   0  0  0  0  0  0  0  0  0  0  0  0
   -8.5833   21.2563  -30.2699 H   0  0  0  0  0  0  0  0  0  0  0  0
   -7.9401   22.3114  -31.7200 H   0  0  0  0  0  0  0  0  0  0  0  0
   -7.2188   22.5282  -28.7265 H   0  0  0  0  0  0  0  0  0  0  0  0
   -6.8654   25.2315  -28.6291 H   0  0  0  0  0  0  0  0  0  0  0  0
   -6.2508   26.0809  -30.0877 H   0  0  0  0  0  0  0  0  0  0  0  0
   -7.9036   25.3775  -30.0877 H   0  0  0  0  0  0  0  0  0  0  0  0
   -5.3648   24.4124  -32.1582 H   0  0  0  0  0  0  0  0  0  0  0  0
   -6.3230   22.8931  -32.1799 H   0  0  0  0  0  0  0  0  0  0  0  0
   -7.1596   24.4827  -32.1799 H   0  0  0  0  0  0  0  0  0  0  0  0
   -2.7590   25.6750  -29.3340 H   0  0  0  0  0  0  0  0  0  0  0  0
    0.4755   22.1464  -29.9865 H   0  0  0  0  0  0  0  0  0  0  0  0
   -0.1083   19.6957  -31.3382 H   0  0  0  0  0  0  0  0  0  0  0  0
   -1.9478   18.4501  -32.5201 H   0  0  0  0  0  0  0  0  0  0  0  0
   -6.1013   20.5568  -32.4226 H   0  0  0  0  0  0  0  0  0  0  0  0
   -5.4229   20.7204  -34.0961 H   0  0  0  0  0  0  0  0  0  0  0  0
   -7.7366   19.5960  -33.8559 H   0  0  0  0  0  0  0  0  0  0  0  0
   -6.4584   18.7489  -34.8415 H   0  0  0  0  0  0  0  0  0  0  0  0
   -8.7750   17.0459  -32.4039 H   0  0  0  0  0  0  0  0  0  0  0  0
   -7.6624   17.6517  -31.0782 H   0  0  0  0  0  0  0  0  0  0  0  0
   -9.4291   19.1837  -31.0795 H   0  0  0  0  0  0  0  0  0  0  0  0
   -8.1121   19.9817  -32.0347 H   0  0  0  0  0  0  0  0  0  0  0  0
   -5.6763   17.3620  -31.3837 H   0  0  0  0  0  0  0  0  0  0  0  0
   -5.6993   16.1595  -32.7482 H   0  0  0  0  0  0  0  0  0  0  0  0
   -3.5419   17.4458  -32.5460 H   0  0  0  0  0  0  0  0  0  0  0  0
   -4.3543   17.6040  -34.1346 H   0  0  0  0  0  0  0  0  0  0  0  0
   -4.6972   21.7305  -31.6953 H   0  0  0  0  0  0  0  0  0  0  0  0
  1  2  2  0
  2  3  1  0
  3  4  1  0
  3  5  1  0
  3  6  1  0
  6  7  1  0
  7  8  2  0
  7  9  1  0
  9 10  1  0
 10 11  1  0
 11 12  1  0
 11 13  2  0
 10 14  2  0
 14 15  1  0
 15 16  2  0
 16 17  1  0
 17 18  2  0
 18 19  1  0
 19 20  1  0
 20 21  1  0
 21 22  1  0
 22 23  1  0
 23 24  1  0
 24 25  1  0
 22 26  1  0
 26 27  1  0
 18 28  1  0
 28 29  2  0
 29  9  1  0
 29 15  1  0
 27 19  1  0
  1 30  1  0
  1 31  1  0
  2 32  1  0
  4 33  1  0
  4 34  1  0
  4 35  1  0
  5 36  1  0
  5 37  1  0
  5 38  1  0
 12 39  1  0
 14 40  1  0
 16 41  1  0
 17 42  1  0
 20 43  1  0
 20 44  1  0
 21 45  1  0
 21 46  1  0
 23 47  1  0
 23 48  1  0
 24 49  1  0
 24 50  1  0
 26 51  1  0
 26 52  1  0
 27 53  1  0
 27 54  1  0
 28 55  1  0
M  CHG  1  12  -1
M  END
>  <UniqueID>  (38) 
38

>  <SMILES>  (38) 
C=CC(C)(C)OC(=O)n1c(C([NH-])=O)cc2ccc(N3CCN(CCF)CC3)cc21

>  <Energy>  (38) 
104.44814646800478

>  <Genealogy>  (38) 
C=CC(C)(C)OC(=O)n1c(C([NH-])=O)cc2ccc(N3CCN(CCF)CC3)cc21 (protonated)
C=CC(C)(C)OC(=O)n1c(C([NH-])=O)cc2ccc(N3CCN(CCF)CC3)cc21 (3D coordinates assigned)
C=CC(C)(C)OC(=O)n1c(C([NH-])=O)cc2ccc(N3CCN(CCF)CC3)cc21 (nonaromatic ring conformer: 104.44814646800478 kcal/mol)

>  <smiles>  (38) 
C=CC(C)(C)OC(=O)n1c(C(N)=O)cc2ccc(N3CCN(CCF)CC3)cc21

>  <score_type>  (38) 
oracle

>  <origin>  (38) 
adg

>  <m_score__min__energy>  (38) 
-11.050000000000001

>  <m_primary>  (38) 
energy

$$$$
38:0
     RDKit          3D

 65 68  0  0  0  0  0  0  0  0999 V2000
   -0.8480   23.3670  -36.0760 H   0  0  0  0  0  0  0  0  0  0  0  0
    0.0720   23.1750  -35.7610 O   0  0  0  0  0  0  0  0  0  0  0  0
    0.2680   21.7930  -35.8770 C   0  0  0  0  0  0  0  0  0  0  0  0
    0.3057   21.5225  -36.9426 H   0  0  0  0  0  0  0  0  0  0  0  0
   -0.5658   21.2761  -35.3794 H   0  0  0  0  0  0  0  0  0  0  0  0
    1.5530   21.3780  -35.2180 C   0  0  0  0  0  0  0  0  0  0  0  0
    2.4530   21.9749  -35.4271 H   0  0  0  0  0  0  0  0  0  0  0  0
    1.6760   20.3300  -34.3930 C   0  0  0  0  0  0  0  0  0  0  0  0
    2.6635   20.1385  -33.9479 H   0  0  0  0  0  0  0  0  0  0  0  0
    0.5660   19.4110  -34.0410 C   0  0  0  0  0  0  0  0  0  0  0  0
    0.5331   18.4234  -34.5242 H   0  0  0  0  0  0  0  0  0  0  0  0
   -0.4070   19.7250  -33.1570 C   0  0  0  0  0  0  0  0  0  0  0  0
   -1.4380   18.7180  -32.7920 C   0  0  0  0  0  0  0  0  0  0  0  0
   -1.2050   17.8500  -31.9080 O   0  0  0  0  0  0  0  0  0  0  0  0
   -2.6850   18.6770  -33.4990 N   0  0  0  0  0  0  0  0  0  0  0  0
   -3.1770   17.6630  -34.2610 C   0  0  0  0  0  0  0  0  0  0  0  0
   -2.4230   16.4800  -34.7290 C   0  0  0  0  0  0  0  0  0  0  0  0
   -2.6090   16.0560  -35.9030 O   0  0  0  0  0  0  0  0  0  0  0  0
   -1.4610   15.8260  -33.8970 N   0  0  0  0  0  0  0  0  0  0  0  0
   -1.1240   16.2580  -33.0120 H   0  0  0  0  0  0  0  0  0  0  0  0
   -0.9740   14.9710  -34.2450 H   0  0  0  0  0  0  0  0  0  0  0  0
   -4.5360   17.8560  -34.5080 C   0  0  0  0  0  0  0  0  0  0  0  0
   -5.2073   17.2077  -35.0903 H   0  0  0  0  0  0  0  0  0  0  0  0
   -4.8580   19.0320  -33.8670 C   0  0  0  0  0  0  0  0  0  0  0  0
   -6.0840   19.6710  -33.7230 C   0  0  0  0  0  0  0  0  0  0  0  0
   -6.9902   19.2716  -34.2018 H   0  0  0  0  0  0  0  0  0  0  0  0
   -6.1320   20.8420  -32.9480 C   0  0  0  0  0  0  0  0  0  0  0  0
   -7.0931   21.3577  -32.8052 H   0  0  0  0  0  0  0  0  0  0  0  0
   -4.9550   21.3720  -32.3440 C   0  0  0  0  0  0  0  0  0  0  0  0
   -5.0080   22.6410  -31.5580 C   0  0  0  0  0  0  0  0  0  0  0  0
   -6.2130   23.3610  -31.4380 C   0  0  0  0  0  0  0  0  0  0  0  0
   -7.1218   22.9883  -31.9332 H   0  0  0  0  0  0  0  0  0  0  0  0
   -6.2650   24.5440  -30.6960 C   0  0  0  0  0  0  0  0  0  0  0  0
   -7.2181   25.0831  -30.5913 H   0  0  0  0  0  0  0  0  0  0  0  0
   -5.1150   25.0440  -30.0880 C   0  0  0  0  0  0  0  0  0  0  0  0
   -5.1657   25.9691  -29.4950 H   0  0  0  0  0  0  0  0  0  0  0  0
   -3.8980   24.3730  -30.2300 C   0  0  0  0  0  0  0  0  0  0  0  0
   -2.7260   24.9350  -29.6240 N   0  0  0  0  0  0  0  0  0  0  0  0
   -1.5950   24.1840  -29.1720 C   0  0  0  0  0  0  0  0  0  0  0  0
   -0.4930   24.7720  -29.0110 O   0  0  0  0  0  0  0  0  0  0  0  0
   -1.6970   22.8000  -28.9800 O   0  0  0  0  0  0  0  0  0  0  0  0
   -2.4160   22.2070  -27.8970 C   0  0  0  0  0  0  0  0  0  0  0  0
   -3.1899   22.9190  -27.5743 H   0  0  0  0  0  0  0  0  0  0  0  0
   -2.9940   20.8790  -28.3550 C   0  0  0  0  0  0  0  0  0  0  0  0
   -3.9058   20.6399  -27.7881 H   0  0  0  0  0  0  0  0  0  0  0  0
   -3.2757   20.8998  -29.4181 H   0  0  0  0  0  0  0  0  0  0  0  0
   -1.9140   19.8550  -28.0780 C   0  0  0  0  0  0  0  0  0  0  0  0
   -2.3590   18.8666  -27.8910 H   0  0  0  0  0  0  0  0  0  0  0  0
   -1.2297   19.7396  -28.9314 H   0  0  0  0  0  0  0  0  0  0  0  0
   -1.1930   20.3580  -26.8370 C   0  0  0  0  0  0  0  0  0  0  0  0
   -1.5815   19.8515  -25.9412 H   0  0  0  0  0  0  0  0  0  0  0  0
   -0.1140   20.1522  -26.8950 H   0  0  0  0  0  0  0  0  0  0  0  0
   -1.4630   21.8600  -26.7520 C   0  0  0  0  0  0  0  0  0  0  0  0
   -1.9274   22.1065  -25.7858 H   0  0  0  0  0  0  0  0  0  0  0  0
   -0.5273   22.4328  -26.8319 H   0  0  0  0  0  0  0  0  0  0  0  0
   -3.8530   23.1560  -30.9320 C   0  0  0  0  0  0  0  0  0  0  0  0
   -2.9066   22.5988  -30.9941 H   0  0  0  0  0  0  0  0  0  0  0  0
   -3.7310   20.6770  -32.5090 C   0  0  0  0  0  0  0  0  0  0  0  0
   -2.8066   21.0508  -32.0446 H   0  0  0  0  0  0  0  0  0  0  0  0
   -3.7220   19.5080  -33.2730 C   0  0  0  0  0  0  0  0  0  0  0  0
   -0.5270   21.0820  -32.5750 C   0  0  0  0  0  0  0  0  0  0  0  0
   -0.5755   21.9487  -33.2506 H   0  0  0  0  0  0  0  0  0  0  0  0
   -0.5780   21.2860  -31.2600 C   0  0  0  0  0  0  0  0  0  0  0  0
   -0.6673   22.3088  -30.8651 H   0  0  0  0  0  0  0  0  0  0  0  0
   -0.5309   20.4317  -30.5687 H   0  0  0  0  0  0  0  0  0  0  0  0
  1  2  1  0
  2  3  1  0
  3  4  1  0
  3  5  1  0
  3  6  1  0
  6  7  1  0
  6  8  2  0
  8  9  1  0
  8 10  1  0
 10 11  1  0
 10 12  2  0
 12 13  1  0
 13 14  2  0
 13 15  1  0
 15 16  1  0
 16 17  1  0
 17 18  2  0
 17 19  1  0
 19 20  1  0
 19 21  1  0
 16 22  2  0
 22 23  1  0
 22 24  1  0
 24 25  2  0
 25 26  1  0
 25 27  1  0
 27 28  1  0
 27 29  2  0
 29 30  1  0
 30 31  2  0
 31 32  1  0
 31 33  1  0
 33 34  1  0
 33 35  2  0
 35 36  1  0
 35 37  1  0
 37 38  1  0
 38 39  1  0
 39 40  2  0
 39 41  1  0
 41 42  1  0
 42 43  1  0
 42 44  1  0
 44 45  1  0
 44 46  1  0
 44 47  1  0
 47 48  1  0
 47 49  1  0
 47 50  1  0
 50 51  1  0
 50 52  1  0
 50 53  1  0
 53 54  1  0
 53 55  1  0
 37 56  2  0
 56 57  1  0
 29 58  1  0
 58 59  1  0
 58 60  2  0
 12 61  1  0
 61 62  1  0
 61 63  2  0
 63 64  1  0
 63 65  1  0
 60 15  1  0
 60 24  1  0
 56 30  1  0
 53 42  1  0
M  CHG  1  38  -1
M  END
>  <UniqueID>  (39) 
39

>  <SMILES>  (39) 
C=C/C(=C\C=C/CO)C(=O)n1c(C(N)=O)cc2ccc(-c3cccc([N-]C(=O)OC4CCCC4)c3)cc21

>  <Energy>  (39) 
119.17296375738107

>  <Genealogy>  (39) 
C=C/C(=C\C=C/CO)C(=O)n1c(C(N)=O)cc2ccc(-c3cccc([N-]C(=O)OC4CCCC4)c3)cc21 (protonated)
C=C/C(=C\C=C/CO)C(=O)n1c(C(N)=O)cc2ccc(-c3cccc([N-]C(=O)OC4CCCC4)c3)cc21 (cis-trans isomerization)
C=C/C(=C\C=C/CO)C(=O)n1c(C(N)=O)cc2ccc(-c3cccc([N-]C(=O)OC4CCCC4)c3)cc21 (3D coordinates assigned)
C=C/C(=C\C=C/CO)C(=O)n1c(C(N)=O)cc2ccc(-c3cccc([N-]C(=O)OC4CCCC4)c3)cc21 (nonaromatic ring conformer: 119.17296375738107 kcal/mol)

>  <smiles>  (39) 
C=C/C(=C\C=C/CO)C(=O)n1c(C(N)=O)cc2ccc(-c3cccc(NC(=O)OC4CCCC4)c3)cc21

>  <score_type>  (39) 
oracle

>  <origin>  (39) 
adg

>  <m_score__min__energy>  (39) 
-11.68

>  <m_primary>  (39) 
energy

$$$$
39:0
     RDKit          3D

 35 37  0  0  0  0  0  0  0  0999 V2000
   -5.4510   26.5560  -30.3460 N   0  0  0  0  0  0  0  0  0  0  0  0
   -6.3260   25.4910  -29.9730 C   0  0  0  0  0  0  0  0  0  0  0  0
   -7.0650   25.6240  -28.9620 O   0  0  0  0  0  0  0  0  0  0  0  0
   -6.3300   24.2120  -30.7120 C   0  0  0  0  0  0  0  0  0  0  0  0
   -7.4940   23.5880  -31.1500 C   0  0  0  0  0  0  0  0  0  0  0  0
   -7.0780   22.4090  -31.7240 C   0  0  0  0  0  0  0  0  0  0  0  0
   -7.8190   21.4040  -32.3360 C   0  0  0  0  0  0  0  0  0  0  0  0
   -7.1270   20.3110  -32.8800 C   0  0  0  0  0  0  0  0  0  0  0  0
   -5.7110   20.2410  -32.8140 C   0  0  0  0  0  0  0  0  0  0  0  0
   -4.9870   19.0870  -33.4040 C   0  0  0  0  0  0  0  0  0  0  0  0
   -5.6930   18.0270  -33.9980 C   0  0  0  0  0  0  0  0  0  0  0  0
   -5.0110   16.9420  -34.5550 C   0  0  0  0  0  0  0  0  0  0  0  0
   -3.6060   16.9010  -34.5450 C   0  0  0  0  0  0  0  0  0  0  0  0
   -2.8720   15.7060  -35.1000 C   0  0  0  0  0  0  0  0  0  0  0  0
   -3.1240   15.5630  -36.4540 F   0  0  0  0  0  0  0  0  0  0  0  0
   -3.2940   14.5660  -34.4410 F   0  0  0  0  0  0  0  0  0  0  0  0
   -1.5060   15.8480  -34.9270 F   0  0  0  0  0  0  0  0  0  0  0  0
   -2.9000   17.9460  -33.9270 C   0  0  0  0  0  0  0  0  0  0  0  0
   -3.5830   19.0320  -33.3720 C   0  0  0  0  0  0  0  0  0  0  0  0
   -4.9920   21.2860  -32.1840 C   0  0  0  0  0  0  0  0  0  0  0  0
   -5.7110   22.3540  -31.6320 C   0  0  0  0  0  0  0  0  0  0  0  0
   -5.2340   23.4600  -31.0140 N   0  0  0  0  0  0  0  0  0  0  0  0
   -3.8540   23.8210  -30.8330 C   0  0  0  0  0  0  0  0  0  0  0  0
   -2.9460   22.9600  -30.9680 O   0  0  0  0  0  0  0  0  0  0  0  0
   -3.5090   25.1280  -30.5130 O   0  0  0  0  0  0  0  0  0  0  0  0
   -4.7130   26.4190  -31.0710 H   0  0  0  0  0  0  0  0  0  0  0  0
   -5.4870   27.4660  -29.8340 H   0  0  0  0  0  0  0  0  0  0  0  0
   -8.5257   23.9581  -31.0572 H   0  0  0  0  0  0  0  0  0  0  0  0
   -8.9159   21.4640  -32.3921 H   0  0  0  0  0  0  0  0  0  0  0  0
   -7.6890   19.4984  -33.3636 H   0  0  0  0  0  0  0  0  0  0  0  0
   -6.7924   18.0516  -34.0247 H   0  0  0  0  0  0  0  0  0  0  0  0
   -5.5780   16.1136  -35.0048 H   0  0  0  0  0  0  0  0  0  0  0  0
   -1.8016   17.9096  -33.8794 H   0  0  0  0  0  0  0  0  0  0  0  0
   -3.0162   19.8514  -32.9058 H   0  0  0  0  0  0  0  0  0  0  0  0
   -3.8937   21.2596  -32.1294 H   0  0  0  0  0  0  0  0  0  0  0  0
  1  2  1  0
  2  3  2  0
  2  4  1  0
  4  5  2  0
  5  6  1  0
  6  7  2  0
  7  8  1  0
  8  9  2  0
  9 10  1  0
 10 11  2  0
 11 12  1  0
 12 13  2  0
 13 14  1  0
 14 15  1  0
 14 16  1  0
 14 17  1  0
 13 18  1  0
 18 19  2  0
  9 20  1  0
 20 21  2  0
 21 22  1  0
 22 23  1  0
 23 24  2  0
 23 25  1  0
 22  4  1  0
 21  6  1  0
 19 10  1  0
  1 26  1  0
  1 27  1  0
  5 28  1  0
  7 29  1  0
  8 30  1  0
 11 31  1  0
 12 32  1  0
 18 33  1  0
 19 34  1  0
 20 35  1  0
M  CHG  1  25  -1
M  END
>  <UniqueID>  (40) 
40

>  <SMILES>  (40) 
NC(=O)c1cc2ccc(-c3ccc(C(F)(F)F)cc3)cc2n1C(=O)[O-]

>  <Energy>  (40) 
83.65735939219033

>  <Genealogy>  (40) 
NC(=O)c1cc2ccc(-c3ccc(C(F)(F)F)cc3)cc2n1C(=O)[O-] (protonated)
NC(=O)c1cc2ccc(-c3ccc(C(F)(F)F)cc3)cc2n1C(=O)[O-] (3D coordinates assigned)
NC(=O)c1cc2ccc(-c3ccc(C(F)(F)F)cc3)cc2n1C(=O)[O-] (optimized conformer: 83.65735939219033 kcal/mol)

>  <smiles>  (40) 
NC(=O)c1cc2ccc(-c3ccc(C(F)(F)F)cc3)cc2n1C(=O)O

>  <score_type>  (40) 
oracle

>  <origin>  (40) 
adg

>  <m_score__min__energy>  (40) 
-9.3399999999999999

>  <m_primary>  (40) 
energy

$$$$
40:0
     RDKit          3D

 33 35  0  0  0  0  0  0  0  0999 V2000
   -3.8690   25.3620  -30.5220 N   0  0  0  0  0  0  0  0  0  0  0  0
   -5.2440   24.9880  -30.5170 C   0  0  0  0  0  0  0  0  0  0  0  0
   -6.0850   25.7370  -29.9510 O   0  0  0  0  0  0  0  0  0  0  0  0
   -5.6880   23.7140  -31.1200 C   0  0  0  0  0  0  0  0  0  0  0  0
   -7.0250   23.3960  -31.3470 C   0  0  0  0  0  0  0  0  0  0  0  0
   -7.0170   22.1030  -31.8200 C   0  0  0  0  0  0  0  0  0  0  0  0
   -8.0720   21.2870  -32.2150 C   0  0  0  0  0  0  0  0  0  0  0  0
   -7.7680   19.9990  -32.6870 C   0  0  0  0  0  0  0  0  0  0  0  0
   -6.4220   19.5500  -32.7610 C   0  0  0  0  0  0  0  0  0  0  0  0
   -6.1120   18.1890  -33.2690 C   0  0  0  0  0  0  0  0  0  0  0  0
   -4.8020   17.8530  -33.6610 C   0  0  0  0  0  0  0  0  0  0  0  0
   -4.5130   16.5700  -34.1380 C   0  0  0  0  0  0  0  0  0  0  0  0
   -5.5240   15.6110  -34.2290 C   0  0  0  0  0  0  0  0  0  0  0  0
   -5.2410   14.3690  -34.6920 F   0  0  0  0  0  0  0  0  0  0  0  0
   -6.8280   15.9330  -33.8430 C   0  0  0  0  0  0  0  0  0  0  0  0
   -7.1220   17.2140  -33.3650 C   0  0  0  0  0  0  0  0  0  0  0  0
   -5.3790   20.4120  -32.3490 C   0  0  0  0  0  0  0  0  0  0  0  0
   -5.7140   21.6830  -31.8700 C   0  0  0  0  0  0  0  0  0  0  0  0
   -4.8840   22.6630  -31.4490 N   0  0  0  0  0  0  0  0  0  0  0  0
   -3.4490   22.6100  -31.4390 C   0  0  0  0  0  0  0  0  0  0  0  0
   -2.7160   23.1040  -30.3180 N   0  0  0  0  0  0  0  0  0  0  0  0
   -2.8290   22.1580  -32.4380 O   0  0  0  0  0  0  0  0  0  0  0  0
   -3.4970   26.0290  -31.2330 H   0  0  0  0  0  0  0  0  0  0  0  0
   -7.9010   24.0408  -31.1832 H   0  0  0  0  0  0  0  0  0  0  0  0
   -9.1126   21.6393  -32.1595 H   0  0  0  0  0  0  0  0  0  0  0  0
   -8.5820   19.3301  -33.0031 H   0  0  0  0  0  0  0  0  0  0  0  0
   -4.0011   18.6038  -33.5918 H   0  0  0  0  0  0  0  0  0  0  0  0
   -3.4869   16.3160  -34.4421 H   0  0  0  0  0  0  0  0  0  0  0  0
   -7.6244   15.1777  -33.9153 H   0  0  0  0  0  0  0  0  0  0  0  0
   -8.1501   17.4611  -33.0619 H   0  0  0  0  0  0  0  0  0  0  0  0
   -4.3285   20.0904  -32.4040 H   0  0  0  0  0  0  0  0  0  0  0  0
   -3.2110   23.5510  -29.5160 H   0  0  0  0  0  0  0  0  0  0  0  0
   -1.6720   23.0530  -30.3060 H   0  0  0  0  0  0  0  0  0  0  0  0
  1  2  1  0
  2  3  2  0
  2  4  1  0
  4  5  2  0
  5  6  1  0
  6  7  2  0
  7  8  1  0
  8  9  2  0
  9 10  1  0
 10 11  2  0
 11 12  1  0
 12 13  2  0
 13 14  1  0
 13 15  1  0
 15 16  2  0
  9 17  1  0
 17 18  2  0
 18 19  1  0
 19 20  1  0
 20 21  1  0
 20 22  2  0
 19  4  1  0
 18  6  1  0
 16 10  1  0
  1 23  1  0
  5 24  1  0
  7 25  1  0
  8 26  1  0
 11 27  1  0
 12 28  1  0
 15 29  1  0
 16 30  1  0
 17 31  1  0
 21 32  1  0
 21 33  1  0
M  CHG  1   1  -1
M  END
>  <UniqueID>  (41) 
41

>  <SMILES>  (41) 
[NH-]C(=O)c1cc2ccc(-c3ccc(F)cc3)cc2n1C(N)=O

>  <Energy>  (41) 
79.74577607761877

>  <Genealogy>  (41) 
[NH-]C(=O)c1cc2ccc(-c3ccc(F)cc3)cc2n1C(N)=O (protonated)
[NH-]C(=O)c1cc2ccc(-c3ccc(F)cc3)cc2n1C(N)=O (3D coordinates assigned)
[NH-]C(=O)c1cc2ccc(-c3ccc(F)cc3)cc2n1C(N)=O (optimized conformer: 79.74577607761877 kcal/mol)

>  <smiles>  (41) 
NC(=O)c1cc2ccc(-c3ccc(F)cc3)cc2n1C(N)=O

>  <score_type>  (41) 
oracle

>  <origin>  (41) 
adg

>  <m_score__min__energy>  (41) 
-10.41

>  <m_primary>  (41) 
energy

$$$$
41:0
     RDKit          3D

 44 46  0  0  0  0  0  0  0  0999 V2000
   -7.1300   23.5150  -30.7390 C   0  0  0  0  0  0  0  0  0  0  0  0
   -6.0980   24.2300  -31.6090 C   0  0  0  0  0  0  0  0  0  0  0  0
   -5.4250   25.3830  -30.8640 C   0  0  0  0  0  0  0  0  0  0  0  0
   -4.0950   25.0240  -30.5030 O   0  0  0  0  0  0  0  0  0  0  0  0
   -3.7930   23.8520  -29.8030 C   0  0  0  0  0  0  0  0  0  0  0  0
   -4.5330   23.4670  -28.8580 O   0  0  0  0  0  0  0  0  0  0  0  0
   -2.6220   23.0980  -30.1500 N   0  0  0  0  0  0  0  0  0  0  0  0
   -1.3410   23.3220  -29.7440 C   0  0  0  0  0  0  0  0  0  0  0  0
   -0.8680   24.4970  -28.9850 C   0  0  0  0  0  0  0  0  0  0  0  0
   -1.6570   25.6840  -28.9490 N   0  0  0  0  0  0  0  0  0  0  0  0
    0.2100   24.4530  -28.3360 O   0  0  0  0  0  0  0  0  0  0  0  0
   -0.4960   22.3220  -30.2200 C   0  0  0  0  0  0  0  0  0  0  0  0
   -1.3070   21.4750  -30.9410 C   0  0  0  0  0  0  0  0  0  0  0  0
   -0.9930   20.3110  -31.6280 C   0  0  0  0  0  0  0  0  0  0  0  0
   -2.0340   19.6180  -32.2670 C   0  0  0  0  0  0  0  0  0  0  0  0
   -3.3830   20.0830  -32.2090 C   0  0  0  0  0  0  0  0  0  0  0  0
   -4.4630   19.3480  -32.8680 N   0  0  0  0  0  0  0  0  0  0  0  0
   -5.8650   19.7540  -32.6300 C   0  0  0  0  0  0  0  0  0  0  0  0
   -6.8900   18.8540  -33.3250 C   0  0  0  0  0  0  0  0  0  0  0  0
   -6.4340   18.4560  -34.5960 O   0  0  0  0  0  0  0  0  0  0  0  0
   -5.3500   17.5770  -34.4220 C   0  0  0  0  0  0  0  0  0  0  0  0
   -4.1280   18.3150  -33.8700 C   0  0  0  0  0  0  0  0  0  0  0  0
   -3.6450   21.2870  -31.4940 C   0  0  0  0  0  0  0  0  0  0  0  0
   -2.5830   21.9620  -30.8850 C   0  0  0  0  0  0  0  0  0  0  0  0
   -6.8922   23.6798  -29.6777 H   0  0  0  0  0  0  0  0  0  0  0  0
   -8.1320   23.9134  -30.9564 H   0  0  0  0  0  0  0  0  0  0  0  0
   -7.1090   22.4369  -30.9564 H   0  0  0  0  0  0  0  0  0  0  0  0
   -5.3279   23.5064  -31.9146 H   0  0  0  0  0  0  0  0  0  0  0  0
   -6.6194   24.6471  -32.4832 H   0  0  0  0  0  0  0  0  0  0  0  0
   -5.3984   26.2698  -31.5143 H   0  0  0  0  0  0  0  0  0  0  0  0
   -5.9979   25.6043  -29.9514 H   0  0  0  0  0  0  0  0  0  0  0  0
   -2.6650   25.6660  -29.2170 H   0  0  0  0  0  0  0  0  0  0  0  0
    0.5876   22.2291  -30.0550 H   0  0  0  0  0  0  0  0  0  0  0  0
    0.0422   19.9415  -31.6709 H   0  0  0  0  0  0  0  0  0  0  0  0
   -1.8054   18.6974  -32.8240 H   0  0  0  0  0  0  0  0  0  0  0  0
   -6.0559   19.7267  -31.5470 H   0  0  0  0  0  0  0  0  0  0  0  0
   -5.9844   20.7634  -33.0505 H   0  0  0  0  0  0  0  0  0  0  0  0
   -7.0600   17.9595  -32.7077 H   0  0  0  0  0  0  0  0  0  0  0  0
   -7.8248   19.4201  -33.4501 H   0  0  0  0  0  0  0  0  0  0  0  0
   -5.6398   16.7837  -33.7172 H   0  0  0  0  0  0  0  0  0  0  0  0
   -5.0873   17.1469  -35.3998 H   0  0  0  0  0  0  0  0  0  0  0  0
   -3.4600   17.5783  -33.3999 H   0  0  0  0  0  0  0  0  0  0  0  0
   -3.6525   18.8303  -34.7176 H   0  0  0  0  0  0  0  0  0  0  0  0
   -4.6697   21.6805  -31.4220 H   0  0  0  0  0  0  0  0  0  0  0  0
  1  2  1  0
  2  3  1  0
  3  4  1  0
  4  5  1  0
  5  6  2  0
  5  7  1  0
  7  8  1  0
  8  9  1  0
  9 10  1  0
  9 11  2  0
  8 12  2  0
 12 13  1  0
 13 14  2  0
 14 15  1  0
 15 16  2  0
 16 17  1  0
 17 18  1  0
 18 19  1  0
 19 20  1  0
 20 21  1  0
 21 22  1  0
 16 23  1  0
 23 24  2  0
 24  7  1  0
 24 13  1  0
 22 17  1  0
  1 25  1  0
  1 26  1  0
  1 27  1  0
  2 28  1  0
  2 29  1  0
  3 30  1  0
  3 31  1  0
 10 32  1  0
 12 33  1  0
 14 34  1  0
 15 35  1  0
 18 36  1  0
 18 37  1  0
 19 38  1  0
 19 39  1  0
 21 40  1  0
 21 41  1  0
 22 42  1  0
 22 43  1  0
 23 44  1  0
M  CHG  1  10  -1
M  END
>  <UniqueID>  (42) 
42

>  <SMILES>  (42) 
CCCOC(=O)n1c(C([NH-])=O)cc2ccc(N3CCOCC3)cc21

>  <Energy>  (42) 
84.5622879595585

>  <Genealogy>  (42) 
CCCOC(=O)n1c(C([NH-])=O)cc2ccc(N3CCOCC3)cc21 (protonated)
CCCOC(=O)n1c(C([NH-])=O)cc2ccc(N3CCOCC3)cc21 (3D coordinates assigned)
CCCOC(=O)n1c(C([NH-])=O)cc2ccc(N3CCOCC3)cc21 (nonaromatic ring conformer: 84.5622879595585 kcal/mol)

>  <smiles>  (42) 
CCCOC(=O)n1c(C(N)=O)cc2ccc(N3CCOCC3)cc21

>  <score_type>  (42) 
oracle

>  <origin>  (42) 
adg

>  <m_score__min__energy>  (42) 
-10.109999999999999

>  <m_primary>  (42) 
energy

$$$$
42:0
     RDKit          3D

 29 31  0  0  0  0  0  0  0  0999 V2000
   -5.5990   26.5810  -30.1390 N   0  0  0  0  0  0  0  0  0  0  0  0
   -6.4560   25.4810  -29.8360 C   0  0  0  0  0  0  0  0  0  0  0  0
   -7.3590   25.6220  -28.9690 O   0  0  0  0  0  0  0  0  0  0  0  0
   -6.3460   24.2010  -30.5650 C   0  0  0  0  0  0  0  0  0  0  0  0
   -7.4480   23.4810  -31.0160 C   0  0  0  0  0  0  0  0  0  0  0  0
   -6.9240   22.4020  -31.6900 C   0  0  0  0  0  0  0  0  0  0  0  0
   -7.5710   21.3490  -32.3260 C   0  0  0  0  0  0  0  0  0  0  0  0
   -6.7810   20.3430  -32.9060 C   0  0  0  0  0  0  0  0  0  0  0  0
   -5.3640   20.3980  -32.8370 C   0  0  0  0  0  0  0  0  0  0  0  0
   -4.5480   19.3150  -33.4450 C   0  0  0  0  0  0  0  0  0  0  0  0
   -3.1550   19.2830  -33.5600 C   0  0  0  0  0  0  0  0  0  0  0  0
   -2.6700   18.1270  -34.1850 C   0  0  0  0  0  0  0  0  0  0  0  0
   -3.6720   17.2490  -34.5630 C   0  0  0  0  0  0  0  0  0  0  0  0
   -3.4380   15.7120  -35.3700 Cl  0  0  0  0  0  0  0  0  0  0  0  0
   -5.1560   17.8960  -34.1300 S   0  0  0  0  0  0  0  0  0  0  0  0
   -4.7470   21.4860  -32.1730 C   0  0  0  0  0  0  0  0  0  0  0  0
   -5.5580   22.4860  -31.6240 C   0  0  0  0  0  0  0  0  0  0  0  0
   -5.1850   23.5870  -30.9320 N   0  0  0  0  0  0  0  0  0  0  0  0
   -3.8470   23.9580  -30.5620 C   0  0  0  0  0  0  0  0  0  0  0  0
   -2.9890   23.0730  -30.3070 O   0  0  0  0  0  0  0  0  0  0  0  0
   -3.4830   25.2970  -30.4820 O   0  0  0  0  0  0  0  0  0  0  0  0
   -4.9580   26.5550  -30.9620 H   0  0  0  0  0  0  0  0  0  0  0  0
   -5.6650   27.4650  -29.5870 H   0  0  0  0  0  0  0  0  0  0  0  0
   -8.5106   23.7227  -30.8658 H   0  0  0  0  0  0  0  0  0  0  0  0
   -8.6691   21.3049  -32.3737 H   0  0  0  0  0  0  0  0  0  0  0  0
   -7.2668   19.5010  -33.4208 H   0  0  0  0  0  0  0  0  0  0  0  0
   -2.5019   20.0891  -33.1944 H   0  0  0  0  0  0  0  0  0  0  0  0
   -1.6007   17.9358  -34.3582 H   0  0  0  0  0  0  0  0  0  0  0  0
   -3.6517   21.5441  -32.0903 H   0  0  0  0  0  0  0  0  0  0  0  0
  1  2  1  0
  2  3  2  0
  2  4  1  0
  4  5  2  0
  5  6  1  0
  6  7  2  0
  7  8  1  0
  8  9  2  0
  9 10  1  0
 10 11  2  0
 11 12  1  0
 12 13  2  0
 13 14  1  0
 13 15  1  0
  9 16  1  0
 16 17  2  0
 17 18  1  0
 18 19  1  0
 19 20  2  0
 19 21  1  0
 18  4  1  0
 17  6  1  0
 15 10  1  0
  1 22  1  0
  1 23  1  0
  5 24  1  0
  7 25  1  0
  8 26  1  0
 11 27  1  0
 12 28  1  0
 16 29  1  0
M  CHG  1  21  -1
M  END
>  <UniqueID>  (43) 
43

>  <SMILES>  (43) 
NC(=O)c1cc2ccc(-c3ccc(Cl)s3)cc2n1C(=O)[O-]

>  <Energy>  (43) 
100.695047203984

>  <Genealogy>  (43) 
NC(=O)c1cc2ccc(-c3ccc(Cl)s3)cc2n1C(=O)[O-] (protonated)
NC(=O)c1cc2ccc(-c3ccc(Cl)s3)cc2n1C(=O)[O-] (3D coordinates assigned)
NC(=O)c1cc2ccc(-c3ccc(Cl)s3)cc2n1C(=O)[O-] (optimized conformer: 100.695047203984 kcal/mol)

>  <smiles>  (43) 
NC(=O)c1cc2ccc(-c3ccc(Cl)s3)cc2n1C(=O)O

>  <score_type>  (43) 
oracle

>  <origin>  (43) 
adg

>  <m_score__min__energy>  (43) 
-10.07

>  <m_primary>  (43) 
energy

$$$$
43:0
     RDKit          3D

 34 36  0  0  0  0  0  0  0  0999 V2000
   -7.1430   21.2450  -31.7790 C   0  0  0  0  0  0  0  0  0  0  0  0
   -6.5560   20.2310  -32.7090 C   0  0  0  0  0  0  0  0  0  0  0  0
   -7.2840   19.4480  -33.5260 N   0  0  0  0  0  0  0  0  0  0  0  0
   -6.4710   18.6830  -34.1930 O   0  0  0  0  0  0  0  0  0  0  0  0
   -5.2260   18.9180  -33.8440 C   0  0  0  0  0  0  0  0  0  0  0  0
   -4.0500   18.1990  -34.4240 C   0  0  0  0  0  0  0  0  0  0  0  0
   -5.2140   19.9190  -32.8790 C   0  0  0  0  0  0  0  0  0  0  0  0
   -4.0460   20.5070  -32.1920 C   0  0  0  0  0  0  0  0  0  0  0  0
   -2.7980   19.8350  -32.2040 C   0  0  0  0  0  0  0  0  0  0  0  0
   -1.6780   20.3920  -31.5650 C   0  0  0  0  0  0  0  0  0  0  0  0
   -1.8350   21.6130  -30.9190 C   0  0  0  0  0  0  0  0  0  0  0  0
   -0.9130   22.3840  -30.2470 C   0  0  0  0  0  0  0  0  0  0  0  0
   -1.6170   23.5050  -29.8130 C   0  0  0  0  0  0  0  0  0  0  0  0
   -1.0200   24.5600  -28.9670 C   0  0  0  0  0  0  0  0  0  0  0  0
   -1.5600   25.8780  -28.9500 N   0  0  0  0  0  0  0  0  0  0  0  0
   -0.0520   24.2790  -28.2120 O   0  0  0  0  0  0  0  0  0  0  0  0
   -2.9200   23.4360  -30.2080 N   0  0  0  0  0  0  0  0  0  0  0  0
   -3.9410   24.4340  -30.0450 C   0  0  0  0  0  0  0  0  0  0  0  0
   -4.9220   24.2230  -29.2830 O   0  0  0  0  0  0  0  0  0  0  0  0
   -3.8700   25.6310  -30.7480 O   0  0  0  0  0  0  0  0  0  0  0  0
   -3.0380   22.2700  -30.8820 C   0  0  0  0  0  0  0  0  0  0  0  0
   -4.1670   21.7470  -31.5240 C   0  0  0  0  0  0  0  0  0  0  0  0
   -6.9639   20.9355  -30.7387 H   0  0  0  0  0  0  0  0  0  0  0  0
   -6.6711   22.2225  -31.9572 H   0  0  0  0  0  0  0  0  0  0  0  0
   -8.2257   21.3226  -31.9572 H   0  0  0  0  0  0  0  0  0  0  0  0
   -8.3240   19.4430  -33.6270 H   0  0  0  0  0  0  0  0  0  0  0  0
   -3.4185   17.8129  -33.6103 H   0  0  0  0  0  0  0  0  0  0  0  0
   -4.4017   17.3613  -35.0442 H   0  0  0  0  0  0  0  0  0  0  0  0
   -3.4647   18.8939  -35.0442 H   0  0  0  0  0  0  0  0  0  0  0  0
   -2.7057   18.8674  -32.7190 H   0  0  0  0  0  0  0  0  0  0  0  0
   -0.7058   19.8775  -31.5754 H   0  0  0  0  0  0  0  0  0  0  0  0
    0.1524   22.1620  -30.0870 H   0  0  0  0  0  0  0  0  0  0  0  0
   -2.5920   26.0360  -28.9690 H   0  0  0  0  0  0  0  0  0  0  0  0
   -5.1248   22.2878  -31.5090 H   0  0  0  0  0  0  0  0  0  0  0  0
  1  2  1  0
  2  3  2  0
  3  4  1  0
  4  5  1  0
  5  6  1  0
  5  7  2  0
  7  8  1  0
  8  9  2  0
  9 10  1  0
 10 11  2  0
 11 12  1  0
 12 13  2  0
 13 14  1  0
 14 15  1  0
 14 16  2  0
 13 17  1  0
 17 18  1  0
 18 19  2  0
 18 20  1  0
 17 21  1  0
 21 22  2  0
  7  2  1  0
 22  8  1  0
 21 11  1  0
  1 23  1  0
  1 24  1  0
  1 25  1  0
  3 26  1  0
  6 27  1  0
  6 28  1  0
  6 29  1  0
  9 30  1  0
 10 31  1  0
 12 32  1  0
 15 33  1  0
 22 34  1  0
M  CHG  3   3   1  15  -1  20  -1
M  END
>  <UniqueID>  (44) 
44

>  <SMILES>  (44) 
Cc1[nH+]oc(C)c1-c1ccc2cc(C([NH-])=O)n(C(=O)[O-])c2c1

>  <Energy>  (44) 
110.30062481521695

>  <Genealogy>  (44) 
Cc1[nH+]oc(C)c1-c1ccc2cc(C([NH-])=O)n(C(=O)[O-])c2c1 (protonated)
Cc1[nH+]oc(C)c1-c1ccc2cc(C([NH-])=O)n(C(=O)[O-])c2c1 (3D coordinates assigned)
Cc1[nH+]oc(C)c1-c1ccc2cc(C([NH-])=O)n(C(=O)[O-])c2c1 (optimized conformer: 110.30062481521695 kcal/mol)

>  <smiles>  (44) 
Cc1noc(C)c1-c1ccc2cc(C(N)=O)n(C(=O)O)c2c1

>  <score_type>  (44) 
oracle

>  <origin>  (44) 
adg

>  <m_score__min__energy>  (44) 
-11.65

>  <m_primary>  (44) 
energy

$$$$
44:0
     RDKit          3D

 43 45  0  0  0  0  0  0  0  0999 V2000
   -2.9470   20.8490  -32.8450 C   0  0  0  0  0  0  0  0  0  0  0  0
   -3.5230   22.1500  -32.8430 O   0  0  0  0  0  0  0  0  0  0  0  0
   -3.9310   22.7940  -31.6720 C   0  0  0  0  0  0  0  0  0  0  0  0
   -3.0780   23.1820  -30.8280 O   0  0  0  0  0  0  0  0  0  0  0  0
   -5.3280   23.0420  -31.4450 N   0  0  0  0  0  0  0  0  0  0  0  0
   -5.9160   24.1790  -30.9760 C   0  0  0  0  0  0  0  0  0  0  0  0
   -5.2130   25.3680  -30.4480 C   0  0  0  0  0  0  0  0  0  0  0  0
   -3.8790   25.6710  -30.8510 N   0  0  0  0  0  0  0  0  0  0  0  0
   -5.7790   26.0980  -29.5920 O   0  0  0  0  0  0  0  0  0  0  0  0
   -7.3040   24.0490  -30.9780 C   0  0  0  0  0  0  0  0  0  0  0  0
   -7.5500   22.7820  -31.4560 C   0  0  0  0  0  0  0  0  0  0  0  0
   -8.7570   22.1250  -31.6710 C   0  0  0  0  0  0  0  0  0  0  0  0
   -8.7140   20.8230  -32.1960 C   0  0  0  0  0  0  0  0  0  0  0  0
   -7.4760   20.2060  -32.5160 C   0  0  0  0  0  0  0  0  0  0  0  0
   -7.4570   18.7850  -33.0620 C   0  0  2  0  0  0  0  0  0  0  0  0
   -7.5010   17.7540  -31.9220 C   0  0  0  0  0  0  0  0  0  0  0  0
   -6.1230   17.4110  -31.3300 C   0  0  0  0  0  0  0  0  0  0  0  0
   -5.0080   17.3440  -32.2970 N   0  0  0  0  0  0  0  0  0  0  0  0
   -5.3660   17.3760  -33.7240 C   0  0  1  0  0  0  0  0  0  0  0  0
   -5.8760   16.0110  -34.2080 C   0  0  0  0  0  0  0  0  0  0  0  0
   -6.3040   18.5510  -34.0720 C   0  0  0  0  0  0  0  0  0  0  0  0
   -6.2710   20.9110  -32.2790 C   0  0  0  0  0  0  0  0  0  0  0  0
   -6.3430   22.1960  -31.7310 C   0  0  0  0  0  0  0  0  0  0  0  0
   -2.7980   20.5124  -31.8084 H   0  0  0  0  0  0  0  0  0  0  0  0
   -3.6201   20.1508  -33.3641 H   0  0  0  0  0  0  0  0  0  0  0  0
   -1.9776   20.8780  -33.3641 H   0  0  0  0  0  0  0  0  0  0  0  0
   -3.0610   25.2910  -30.3260 H   0  0  0  0  0  0  0  0  0  0  0  0
   -8.0448   24.7992  -30.6644 H   0  0  0  0  0  0  0  0  0  0  0  0
   -9.7160   22.6103  -31.4370 H   0  0  0  0  0  0  0  0  0  0  0  0
   -9.6525   20.2737  -32.3615 H   0  0  0  0  0  0  0  0  0  0  0  0
   -8.3758   18.6385  -33.6488 H   0  0  0  0  0  0  0  0  0  0  0  0
   -8.1322   18.1570  -31.1163 H   0  0  0  0  0  0  0  0  0  0  0  0
   -7.9015   16.8239  -32.3516 H   0  0  0  0  0  0  0  0  0  0  0  0
   -5.8759   18.1790  -30.5823 H   0  0  0  0  0  0  0  0  0  0  0  0
   -6.2198   16.3974  -30.9139 H   0  0  0  0  0  0  0  0  0  0  0  0
   -4.3460   18.1330  -32.1060 H   0  0  0  0  0  0  0  0  0  0  0  0
   -4.4446   17.5735  -34.2914 H   0  0  0  0  0  0  0  0  0  0  0  0
   -6.1122   15.3788  -33.3394 H   0  0  0  0  0  0  0  0  0  0  0  0
   -6.7819   16.1525  -34.8157 H   0  0  0  0  0  0  0  0  0  0  0  0
   -5.0992   15.5238  -34.8157 H   0  0  0  0  0  0  0  0  0  0  0  0
   -5.6994   19.4687  -34.1195 H   0  0  0  0  0  0  0  0  0  0  0  0
   -6.7795   18.2938  -35.0300 H   0  0  0  0  0  0  0  0  0  0  0  0
   -5.2984   20.4575  -32.5208 H   0  0  0  0  0  0  0  0  0  0  0  0
  1  2  1  0
  2  3  1  0
  3  4  2  0
  3  5  1  0
  5  6  1  0
  6  7  1  0
  7  8  1  0
  7  9  2  0
  6 10  2  0
 10 11  1  0
 11 12  2  0
 12 13  1  0
 13 14  2  0
 14 15  1  0
 15 16  1  0
 16 17  1  0
 17 18  1  0
 18 19  1  0
 19 20  1  0
 19 21  1  0
 14 22  1  0
 22 23  2  0
 23  5  1  0
 23 11  1  0
 21 15  1  0
  1 24  1  0
  1 25  1  0
  1 26  1  0
  8 27  1  0
 10 28  1  0
 12 29  1  0
 13 30  1  0
 15 31  1  6
 16 32  1  0
 16 33  1  0
 17 34  1  0
 17 35  1  0
 18 36  1  0
 19 37  1  6
 20 38  1  0
 20 39  1  0
 20 40  1  0
 21 41  1  0
 21 42  1  0
 22 43  1  0
M  CHG  1   8  -1
M  END
>  <UniqueID>  (45) 
45

>  <SMILES>  (45) 
COC(=O)n1c(C([NH-])=O)cc2ccc([C@@H]3CCN[C@@H](C)C3)cc21

>  <Energy>  (45) 
92.468864868089

>  <Genealogy>  (45) 
COC(=O)n1c(C([NH-])=O)cc2ccc(C3CCNC(C)C3)cc21 (protonated)
COC(=O)n1c(C([NH-])=O)cc2ccc([C@@H]3CCN[C@@H](C)C3)cc21 (chirality)
COC(=O)n1c(C([NH-])=O)cc2ccc([C@@H]3CCN[C@@H](C)C3)cc21 (3D coordinates assigned)
COC(=O)n1c(C([NH-])=O)cc2ccc([C@@H]3CCN[C@@H](C)C3)cc21 (nonaromatic ring conformer: 92.468864868089 kcal/mol)

>  <smiles>  (45) 
COC(=O)n1c(C(N)=O)cc2ccc(C3CCNC(C)C3)cc21

>  <score_type>  (45) 
oracle

>  <origin>  (45) 
adg

>  <m_score__min__energy>  (45) 
-11.140000000000001

>  <m_primary>  (45) 
energy

$$$$
45:0
     RDKit          3D

 28 29  0  0  0  0  0  0  0  0999 V2000
   -3.4390   21.2980  -30.0940 C   0  0  0  0  0  0  0  0  0  0  0  0
   -3.9560   22.5050  -30.8130 C   0  0  0  0  0  0  0  0  0  0  0  0
   -3.1360   23.3370  -31.2830 O   0  0  0  0  0  0  0  0  0  0  0  0
   -5.3660   22.6990  -31.0150 N   0  0  0  0  0  0  0  0  0  0  0  0
   -6.1120   23.8000  -30.7200 C   0  0  0  0  0  0  0  0  0  0  0  0
   -5.5760   25.1010  -30.2600 C   0  0  0  0  0  0  0  0  0  0  0  0
   -4.2420   25.4980  -30.5840 N   0  0  0  0  0  0  0  0  0  0  0  0
   -6.2860   25.8610  -29.5510 O   0  0  0  0  0  0  0  0  0  0  0  0
   -7.4580   23.5680  -31.0060 C   0  0  0  0  0  0  0  0  0  0  0  0
   -7.5080   22.2820  -31.4960 C   0  0  0  0  0  0  0  0  0  0  0  0
   -8.5970   21.5310  -31.9300 C   0  0  0  0  0  0  0  0  0  0  0  0
   -8.3580   20.2160  -32.3670 C   0  0  0  0  0  0  0  0  0  0  0  0
   -7.0440   19.6850  -32.3700 C   0  0  0  0  0  0  0  0  0  0  0  0
   -6.8080   18.2660  -32.7930 C   0  0  0  0  0  0  0  0  0  0  0  0
   -5.9660   20.4730  -31.9090 C   0  0  0  0  0  0  0  0  0  0  0  0
   -6.2320   21.7820  -31.4930 C   0  0  0  0  0  0  0  0  0  0  0  0
   -3.5085   21.4602  -29.0083 H   0  0  0  0  0  0  0  0  0  0  0  0
   -4.0399   20.4198  -30.3727 H   0  0  0  0  0  0  0  0  0  0  0  0
   -2.3887   21.1271  -30.3727 H   0  0  0  0  0  0  0  0  0  0  0  0
   -3.8630   26.4010  -30.2220 H   0  0  0  0  0  0  0  0  0  0  0  0
   -3.6430   24.9240  -31.2160 H   0  0  0  0  0  0  0  0  0  0  0  0
   -8.2991   24.2636  -30.8693 H   0  0  0  0  0  0  0  0  0  0  0  0
   -9.6128   21.9532  -31.9310 H   0  0  0  0  0  0  0  0  0  0  0  0
   -9.1982   19.5941  -32.7095 H   0  0  0  0  0  0  0  0  0  0  0  0
   -6.7023   17.6304  -31.9015 H   0  0  0  0  0  0  0  0  0  0  0  0
   -7.6603   17.9159  -33.3939 H   0  0  0  0  0  0  0  0  0  0  0  0
   -5.8883   18.2106  -33.3939 H   0  0  0  0  0  0  0  0  0  0  0  0
   -4.9438   20.0678  -31.8779 H   0  0  0  0  0  0  0  0  0  0  0  0
  1  2  1  0
  2  3  2  0
  2  4  1  0
  4  5  1  0
  5  6  1  0
  6  7  1  0
  6  8  2  0
  5  9  2  0
  9 10  1  0
 10 11  2  0
 11 12  1  0
 12 13  2  0
 13 14  1  0
 13 15  1  0
 15 16  2  0
 16  4  1  0
 16 10  1  0
  1 17  1  0
  1 18  1  0
  1 19  1  0
  7 20  1  0
  7 21  1  0
  9 22  1  0
 11 23  1  0
 12 24  1  0
 14 25  1  0
 14 26  1  0
 14 27  1  0
 15 28  1  0
M  END
>  <UniqueID>  (46) 
46

>  <SMILES>  (46) 
CC(=O)n1c(C(N)=O)cc2ccc(C)cc21

>  <Energy>  (46) 
66.05083411385618

>  <Genealogy>  (46) 
CC(=O)n1c(C(N)=O)cc2ccc(C)cc21 (3D coordinates assigned)
CC(=O)n1c(C(N)=O)cc2ccc(C)cc21 (optimized conformer: 66.05083411385618 kcal/mol)

>  <smiles>  (46) 
CC(=O)n1c(C(N)=O)cc2ccc(C)cc21

>  <score_type>  (46) 
oracle

>  <origin>  (46) 
adg

>  <m_score__min__energy>  (46) 
-7.4800000000000004

>  <m_primary>  (46) 
energy

$$$$
46:0
     RDKit          3D

 40 42  0  0  0  0  0  0  0  0999 V2000
   -1.3730   26.0040  -28.9760 N   0  0  0  0  0  0  0  0  0  0  0  0
   -0.7440   24.7270  -28.9120 C   0  0  0  0  0  0  0  0  0  0  0  0
    0.3700   24.6170  -28.3360 O   0  0  0  0  0  0  0  0  0  0  0  0
   -1.3520   23.5480  -29.5620 C   0  0  0  0  0  0  0  0  0  0  0  0
   -0.6270   22.4120  -29.9170 C   0  0  0  0  0  0  0  0  0  0  0  0
   -1.5230   21.5980  -30.5710 C   0  0  0  0  0  0  0  0  0  0  0  0
   -1.3420   20.3360  -31.1280 C   0  0  0  0  0  0  0  0  0  0  0  0
   -2.4520   19.7100  -31.7160 C   0  0  0  0  0  0  0  0  0  0  0  0
   -3.7210   20.3480  -31.7350 C   0  0  0  0  0  0  0  0  0  0  0  0
   -4.9220   19.6560  -32.3570 C   0  0  0  0  0  0  0  0  0  0  0  0
   -6.1390   20.6330  -32.4400 C   0  0  0  0  0  0  0  0  0  0  0  0
   -7.3280   20.1470  -33.2920 C   0  0  0  0  0  0  0  0  0  0  0  0
   -7.7460   18.6760  -33.0610 C   0  0  0  0  0  0  0  0  0  0  0  0
   -6.6750   17.6120  -33.3600 C   0  0  0  0  0  0  0  0  0  0  0  0
   -5.5690   18.0760  -34.3160 C   0  0  0  0  0  0  0  0  0  0  0  0
   -4.5020   18.9970  -33.6960 C   0  0  0  0  0  0  0  0  0  0  0  0
   -3.8630   21.6310  -31.1550 C   0  0  0  0  0  0  0  0  0  0  0  0
   -2.7350   22.2370  -30.5920 C   0  0  0  0  0  0  0  0  0  0  0  0
   -2.6470   23.4370  -29.9730 N   0  0  0  0  0  0  0  0  0  0  0  0
   -3.7290   24.3460  -29.7170 C   0  0  0  0  0  0  0  0  0  0  0  0
   -4.5430   24.1200  -28.7820 O   0  0  0  0  0  0  0  0  0  0  0  0
   -3.8740   25.4980  -30.4810 O   0  0  0  0  0  0  0  0  0  0  0  0
   -2.4130   26.0940  -28.9270 H   0  0  0  0  0  0  0  0  0  0  0  0
    0.4355   22.2093  -29.7169 H   0  0  0  0  0  0  0  0  0  0  0  0
   -0.3585   19.8437  -31.1081 H   0  0  0  0  0  0  0  0  0  0  0  0
   -2.3379   18.7134  -32.1675 H   0  0  0  0  0  0  0  0  0  0  0  0
   -5.2771   18.8327  -31.7198 H   0  0  0  0  0  0  0  0  0  0  0  0
   -6.5043   20.8058  -31.4169 H   0  0  0  0  0  0  0  0  0  0  0  0
   -5.7633   21.5391  -32.9378 H   0  0  0  0  0  0  0  0  0  0  0  0
   -8.1936   20.7865  -33.0644 H   0  0  0  0  0  0  0  0  0  0  0  0
   -6.9986   20.2098  -34.3396 H   0  0  0  0  0  0  0  0  0  0  0  0
   -8.0379   18.5715  -32.0056 H   0  0  0  0  0  0  0  0  0  0  0  0
   -8.5597   18.4847  -33.7760 H   0  0  0  0  0  0  0  0  0  0  0  0
   -6.2067   17.3188  -32.4088 H   0  0  0  0  0  0  0  0  0  0  0  0
   -7.1916   16.7789  -33.8590 H   0  0  0  0  0  0  0  0  0  0  0  0
   -5.0603   17.1819  -34.7056 H   0  0  0  0  0  0  0  0  0  0  0  0
   -6.0705   18.6733  -35.0917 H   0  0  0  0  0  0  0  0  0  0  0  0
   -3.5956   18.4003  -33.5160 H   0  0  0  0  0  0  0  0  0  0  0  0
   -4.3418   19.8168  -34.4118 H   0  0  0  0  0  0  0  0  0  0  0  0
   -4.8381   22.1401  -31.1471 H   0  0  0  0  0  0  0  0  0  0  0  0
  1  2  1  0
  2  3  2  0
  2  4  1  0
  4  5  2  0
  5  6  1  0
  6  7  2  0
  7  8  1  0
  8  9  2  0
  9 10  1  0
 10 11  1  0
 11 12  1  0
 12 13  1  0
 13 14  1  0
 14 15  1  0
 15 16  1  0
  9 17  1  0
 17 18  2  0
 18 19  1  0
 19 20  1  0
 20 21  2  0
 20 22  1  0
 19  4  1  0
 18  6  1  0
 16 10  1  0
  1 23  1  0
  5 24  1  0
  7 25  1  0
  8 26  1  0
 10 27  1  0
 11 28  1  0
 11 29  1  0
 12 30  1  0
 12 31  1  0
 13 32  1  0
 13 33  1  0
 14 34  1  0
 14 35  1  0
 15 36  1  0
 15 37  1  0
 16 38  1  0
 16 39  1  0
 17 40  1  0
M  CHG  2   1  -1  22  -1
M  END
>  <UniqueID>  (47) 
47

>  <SMILES>  (47) 
[NH-]C(=O)c1cc2ccc(C3CCCCCC3)cc2n1C(=O)[O-]

>  <Energy>  (47) 
90.12178788295068

>  <Genealogy>  (47) 
[NH-]C(=O)c1cc2ccc(C3CCCCCC3)cc2n1C(=O)[O-] (protonated)
[NH-]C(=O)c1cc2ccc(C3CCCCCC3)cc2n1C(=O)[O-] (3D coordinates assigned)
[NH-]C(=O)c1cc2ccc(C3CCCCCC3)cc2n1C(=O)[O-] (nonaromatic ring conformer: 90.12178788295068 kcal/mol)

>  <smiles>  (47) 
NC(=O)c1cc2ccc(C3CCCCCC3)cc2n1C(=O)O

>  <score_type>  (47) 
oracle

>  <origin>  (47) 
adg

>  <m_score__min__energy>  (47) 
-10.91

>  <m_primary>  (47) 
energy

$$$$
47:0
     RDKit          3D

 32 34  0  0  0  0  0  0  0  0999 V2000
   -3.8690   25.6530  -30.8360 N   0  0  0  0  0  0  0  0  0  0  0  0
   -5.1180   25.1190  -30.4030 C   0  0  0  0  0  0  0  0  0  0  0  0
   -5.8150   25.7720  -29.5820 O   0  0  0  0  0  0  0  0  0  0  0  0
   -5.6290   23.8440  -30.9450 C   0  0  0  0  0  0  0  0  0  0  0  0
   -6.9860   23.5480  -31.0540 C   0  0  0  0  0  0  0  0  0  0  0  0
   -7.0430   22.3260  -31.6830 C   0  0  0  0  0  0  0  0  0  0  0  0
   -8.1430   21.5540  -32.0350 C   0  0  0  0  0  0  0  0  0  0  0  0
   -7.9090   20.3150  -32.6530 C   0  0  0  0  0  0  0  0  0  0  0  0
   -6.5860   19.8610  -32.9030 C   0  0  0  0  0  0  0  0  0  0  0  0
   -6.3490   18.5430  -33.5450 C   0  0  0  0  0  0  0  0  0  0  0  0
   -5.4380   18.2520  -34.5490 C   0  0  0  0  0  0  0  0  0  0  0  0
   -5.5200   16.9810  -34.8660 O   0  0  0  0  0  0  0  0  0  0  0  0
   -6.4380   16.4190  -34.1150 C   0  0  0  0  0  0  0  0  0  0  0  0
   -6.8320   14.9820  -34.2120 C   0  0  0  0  0  0  0  0  0  0  0  0
   -5.7240   14.2250  -34.6060 O   0  0  0  0  0  0  0  0  0  0  0  0
   -6.9970   17.3510  -33.2670 C   0  0  0  0  0  0  0  0  0  0  0  0
   -5.4930   20.6810  -32.5260 C   0  0  0  0  0  0  0  0  0  0  0  0
   -5.7580   21.9200  -31.9290 C   0  0  0  0  0  0  0  0  0  0  0  0
   -4.8760   22.8400  -31.4800 N   0  0  0  0  0  0  0  0  0  0  0  0
   -3.4440   22.7220  -31.4780 C   0  0  0  0  0  0  0  0  0  0  0  0
   -2.8470   22.2120  -32.4600 O   0  0  0  0  0  0  0  0  0  0  0  0
   -2.7080   23.1450  -30.3780 O   0  0  0  0  0  0  0  0  0  0  0  0
   -2.9680   25.2860  -30.4610 H   0  0  0  0  0  0  0  0  0  0  0  0
   -7.8320   24.1612  -30.7101 H   0  0  0  0  0  0  0  0  0  0  0  0
   -9.1669   21.9029  -31.8355 H   0  0  0  0  0  0  0  0  0  0  0  0
   -8.7624   19.6867  -32.9479 H   0  0  0  0  0  0  0  0  0  0  0  0
   -4.7507   18.9766  -35.0100 H   0  0  0  0  0  0  0  0  0  0  0  0
   -7.1870   14.6312  -33.2317 H   0  0  0  0  0  0  0  0  0  0  0  0
   -7.6375   14.8697  -34.9527 H   0  0  0  0  0  0  0  0  0  0  0  0
   -5.0220   14.8770  -34.8620 H   0  0  0  0  0  0  0  0  0  0  0  0
   -7.7914   17.1831  -32.5249 H   0  0  0  0  0  0  0  0  0  0  0  0
   -4.4580   20.3511  -32.6987 H   0  0  0  0  0  0  0  0  0  0  0  0
  1  2  1  0
  2  3  2  0
  2  4  1  0
  4  5  2  0
  5  6  1  0
  6  7  2  0
  7  8  1  0
  8  9  2  0
  9 10  1  0
 10 11  2  0
 11 12  1  0
 12 13  1  0
 13 14  1  0
 14 15  1  0
 13 16  2  0
  9 17  1  0
 17 18  2  0
 18 19  1  0
 19 20  1  0
 20 21  2  0
 20 22  1  0
 19  4  1  0
 18  6  1  0
 16 10  1  0
  1 23  1  0
  5 24  1  0
  7 25  1  0
  8 26  1  0
 11 27  1  0
 14 28  1  0
 14 29  1  0
 15 30  1  0
 16 31  1  0
 17 32  1  0
M  CHG  2   1  -1  22  -1
M  END
>  <UniqueID>  (48) 
48

>  <SMILES>  (48) 
[NH-]C(=O)c1cc2ccc(-c3coc(CO)c3)cc2n1C(=O)[O-]

>  <Energy>  (48) 
101.56579259803115

>  <Genealogy>  (48) 
[NH-]C(=O)c1cc2ccc(-c3coc(CO)c3)cc2n1C(=O)[O-] (protonated)
[NH-]C(=O)c1cc2ccc(-c3coc(CO)c3)cc2n1C(=O)[O-] (3D coordinates assigned)
[NH-]C(=O)c1cc2ccc(-c3coc(CO)c3)cc2n1C(=O)[O-] (optimized conformer: 101.56579259803115 kcal/mol)

>  <smiles>  (48) 
NC(=O)c1cc2ccc(-c3coc(CO)c3)cc2n1C(=O)O

>  <score_type>  (48) 
oracle

>  <origin>  (48) 
adg

>  <m_score__min__energy>  (48) 
-10.94

>  <m_primary>  (48) 
energy

$$$$
48:0
     RDKit          3D

 39 41  0  0  0  0  0  0  0  0999 V2000
   -6.8860   24.3030  -30.2390 C   0  0  0  0  0  0  0  0  0  0  0  0
   -7.2540   22.8670  -29.8780 C   0  0  0  0  0  0  0  0  0  0  0  0
   -7.5430   22.1120  -31.0520 O   0  0  0  0  0  0  0  0  0  0  0  0
   -6.6330   21.9460  -32.1030 C   0  0  0  0  0  0  0  0  0  0  0  0
   -6.1810   22.9490  -32.7190 O   0  0  0  0  0  0  0  0  0  0  0  0
   -6.2430   20.5850  -32.5060 C   0  0  0  0  0  0  0  0  0  0  0  0
   -7.2990   19.4910  -33.2270 S   0  0  0  0  0  0  0  0  0  0  0  0
   -6.1620   18.2840  -33.4840 C   0  0  0  0  0  0  0  0  0  0  0  0
   -6.4900   16.7320  -34.2250 Cl  0  0  0  0  0  0  0  0  0  0  0  0
   -4.9330   18.7100  -33.0090 C   0  0  0  0  0  0  0  0  0  0  0  0
   -4.9670   19.9980  -32.4470 C   0  0  0  0  0  0  0  0  0  0  0  0
   -3.7800   20.6050  -31.8100 C   0  0  0  0  0  0  0  0  0  0  0  0
   -2.5240   19.9540  -31.8890 C   0  0  0  0  0  0  0  0  0  0  0  0
   -1.3870   20.5170  -31.2840 C   0  0  0  0  0  0  0  0  0  0  0  0
   -1.5400   21.7150  -30.5930 C   0  0  0  0  0  0  0  0  0  0  0  0
   -0.6030   22.4890  -29.9490 C   0  0  0  0  0  0  0  0  0  0  0  0
   -1.3100   23.5790  -29.4490 C   0  0  0  0  0  0  0  0  0  0  0  0
   -0.6930   24.6370  -28.6240 C   0  0  0  0  0  0  0  0  0  0  0  0
   -1.4680   25.7190  -28.1070 N   0  0  0  0  0  0  0  0  0  0  0  0
    0.5280   24.5540  -28.3250 O   0  0  0  0  0  0  0  0  0  0  0  0
   -2.6300   23.4920  -29.7790 N   0  0  0  0  0  0  0  0  0  0  0  0
   -3.6530   24.4790  -29.5610 C   0  0  0  0  0  0  0  0  0  0  0  0
   -4.3400   24.5400  -28.3140 N   0  0  0  0  0  0  0  0  0  0  0  0
   -3.9400   25.3060  -30.4670 O   0  0  0  0  0  0  0  0  0  0  0  0
   -2.7550   22.3410  -30.4760 C   0  0  0  0  0  0  0  0  0  0  0  0
   -3.9000   21.8110  -31.0820 C   0  0  0  0  0  0  0  0  0  0  0  0
   -6.7366   24.8858  -29.3181 H   0  0  0  0  0  0  0  0  0  0  0  0
   -5.9580   24.3063  -30.8296 H   0  0  0  0  0  0  0  0  0  0  0  0
   -7.6980   24.7522  -30.8296 H   0  0  0  0  0  0  0  0  0  0  0  0
   -6.4112   22.4006  -29.3468 H   0  0  0  0  0  0  0  0  0  0  0  0
   -8.1477   22.8808  -29.2368 H   0  0  0  0  0  0  0  0  0  0  0  0
   -4.0194   18.1001  -33.0659 H   0  0  0  0  0  0  0  0  0  0  0  0
   -2.4379   18.9994  -32.4287 H   0  0  0  0  0  0  0  0  0  0  0  0
   -0.4056   20.0252  -31.3547 H   0  0  0  0  0  0  0  0  0  0  0  0
    0.4742   22.2895  -29.8502 H   0  0  0  0  0  0  0  0  0  0  0  0
   -2.5070   25.7290  -28.1970 H   0  0  0  0  0  0  0  0  0  0  0  0
   -1.0070   26.4770  -27.5560 H   0  0  0  0  0  0  0  0  0  0  0  0
   -5.3560   24.3120  -28.2490 H   0  0  0  0  0  0  0  0  0  0  0  0
   -4.8707   22.3210  -30.9939 H   0  0  0  0  0  0  0  0  0  0  0  0
  1  2  1  0
  2  3  1  0
  3  4  1  0
  4  5  2  0
  4  6  1  0
  6  7  1  0
  7  8  1  0
  8  9  1  0
  8 10  2  0
 10 11  1  0
 11 12  1  0
 12 13  2  0
 13 14  1  0
 14 15  2  0
 15 16  1  0
 16 17  2  0
 17 18  1  0
 18 19  1  0
 18 20  2  0
 17 21  1  0
 21 22  1  0
 22 23  1  0
 22 24  2  0
 21 25  1  0
 25 26  2  0
 11  6  2  0
 26 12  1  0
 25 15  1  0
  1 27  1  0
  1 28  1  0
  1 29  1  0
  2 30  1  0
  2 31  1  0
 10 32  1  0
 13 33  1  0
 14 34  1  0
 16 35  1  0
 19 36  1  0
 19 37  1  0
 23 38  1  0
 26 39  1  0
M  CHG  1  23  -1
M  END
>  <UniqueID>  (49) 
49

>  <SMILES>  (49) 
CCOC(=O)c1sc(Cl)cc1-c1ccc2cc(C(N)=O)n(C([NH-])=O)c2c1

>  <Energy>  (49) 
109.1601866864091

>  <Genealogy>  (49) 
CCOC(=O)c1sc(Cl)cc1-c1ccc2cc(C(N)=O)n(C([NH-])=O)c2c1 (protonated)
CCOC(=O)c1sc(Cl)cc1-c1ccc2cc(C(N)=O)n(C([NH-])=O)c2c1 (3D coordinates assigned)
CCOC(=O)c1sc(Cl)cc1-c1ccc2cc(C(N)=O)n(C([NH-])=O)c2c1 (optimized conformer: 109.1601866864091 kcal/mol)

>  <smiles>  (49) 
CCOC(=O)c1sc(Cl)cc1-c1ccc2cc(C(N)=O)n(C(N)=O)c2c1

>  <score_type>  (49) 
oracle

>  <origin>  (49) 
adg

>  <m_score__min__energy>  (49) 
-9.7300000000000004

>  <m_primary>  (49) 
energy

$$$$
49:0
     RDKit          3D

 53 55  0  0  0  0  0  0  0  0999 V2000
   -8.0010   13.0190  -35.8780 C   0  0  0  0  0  0  0  0  0  0  0  0
   -7.3670   13.9050  -34.9650 O   0  0  0  0  0  0  0  0  0  0  0  0
   -6.3000   13.5130  -34.1510 C   0  0  0  0  0  0  0  0  0  0  0  0
   -6.3920   12.4920  -33.4160 O   0  0  0  0  0  0  0  0  0  0  0  0
   -5.0610   14.3470  -34.1140 C   0  0  0  0  0  0  0  0  0  0  0  0
   -5.3930   15.7400  -33.6530 C   0  0  0  0  0  0  0  0  0  0  0  0
   -5.7530   16.7230  -34.5870 C   0  0  0  0  0  0  0  0  0  0  0  0
   -6.1030   18.0080  -34.1600 C   0  0  0  0  0  0  0  0  0  0  0  0
   -6.1010   18.3330  -32.7920 C   0  0  0  0  0  0  0  0  0  0  0  0
   -6.4780   19.6970  -32.3380 C   0  0  0  0  0  0  0  0  0  0  0  0
   -7.8390   20.1010  -32.3250 C   0  0  0  0  0  0  0  0  0  0  0  0
   -8.2020   21.3950  -31.9140 C   0  0  0  0  0  0  0  0  0  0  0  0
   -7.1890   22.2620  -31.5160 C   0  0  0  0  0  0  0  0  0  0  0  0
   -7.2580   23.5730  -31.1050 C   0  0  0  0  0  0  0  0  0  0  0  0
   -5.9410   23.9510  -30.8510 C   0  0  0  0  0  0  0  0  0  0  0  0
   -5.5610   25.2730  -30.3110 C   0  0  0  0  0  0  0  0  0  0  0  0
   -4.2330   25.7590  -30.4950 N   0  0  0  0  0  0  0  0  0  0  0  0
   -6.4060   25.9950  -29.7180 O   0  0  0  0  0  0  0  0  0  0  0  0
   -5.0910   22.9140  -31.1010 N   0  0  0  0  0  0  0  0  0  0  0  0
   -3.6560   22.9110  -31.0390 C   0  0  0  0  0  0  0  0  0  0  0  0
   -2.9930   22.3000  -31.9180 O   0  0  0  0  0  0  0  0  0  0  0  0
   -3.0150   23.5640  -29.9750 O   0  0  0  0  0  0  0  0  0  0  0  0
   -2.9690   23.1260  -28.6110 C   0  0  0  0  0  0  0  0  0  0  0  0
   -3.0750   21.5920  -28.5280 C   0  0  0  0  0  0  0  0  0  0  0  0
   -1.6110   23.5630  -28.0410 C   0  0  0  0  0  0  0  0  0  0  0  0
   -4.0890   23.7960  -27.7910 C   0  0  0  0  0  0  0  0  0  0  0  0
   -5.8720   21.8870  -31.5050 C   0  0  0  0  0  0  0  0  0  0  0  0
   -5.4790   20.6100  -31.9230 C   0  0  0  0  0  0  0  0  0  0  0  0
   -5.7430   17.3420  -31.8600 C   0  0  0  0  0  0  0  0  0  0  0  0
   -5.3980   16.0560  -32.2870 C   0  0  0  0  0  0  0  0  0  0  0  0
   -8.5522   12.2487  -35.3186 H   0  0  0  0  0  0  0  0  0  0  0  0
   -8.7011   13.5840  -36.5110 H   0  0  0  0  0  0  0  0  0  0  0  0
   -7.2403   12.5387  -36.5110 H   0  0  0  0  0  0  0  0  0  0  0  0
   -4.3384   13.8954  -33.4183 H   0  0  0  0  0  0  0  0  0  0  0  0
   -4.6268   14.3943  -35.1236 H   0  0  0  0  0  0  0  0  0  0  0  0
   -5.7600   16.4819  -35.6602 H   0  0  0  0  0  0  0  0  0  0  0  0
   -6.3824   18.7713  -34.9011 H   0  0  0  0  0  0  0  0  0  0  0  0
   -8.6190   19.3924  -32.6405 H   0  0  0  0  0  0  0  0  0  0  0  0
   -9.2551   21.7128  -31.9071 H   0  0  0  0  0  0  0  0  0  0  0  0
   -8.1613   24.1918  -30.9993 H   0  0  0  0  0  0  0  0  0  0  0  0
   -3.5210   25.6740  -29.7360 H   0  0  0  0  0  0  0  0  0  0  0  0
   -3.0964   21.2825  -27.4727 H   0  0  0  0  0  0  0  0  0  0  0  0
   -3.9982   21.2608  -29.0260 H   0  0  0  0  0  0  0  0  0  0  0  0
   -2.2062   21.1369  -29.0260 H   0  0  0  0  0  0  0  0  0  0  0  0
   -1.6532   23.5494  -26.9419 H   0  0  0  0  0  0  0  0  0  0  0  0
   -0.8286   22.8713  -28.3865 H   0  0  0  0  0  0  0  0  0  0  0  0
   -1.3788   24.5812  -28.3865 H   0  0  0  0  0  0  0  0  0  0  0  0
   -3.8819   23.6721  -26.7178 H   0  0  0  0  0  0  0  0  0  0  0  0
   -4.1311   24.8678  -28.0350 H   0  0  0  0  0  0  0  0  0  0  0  0
   -5.0533   23.3263  -28.0350 H   0  0  0  0  0  0  0  0  0  0  0  0
   -4.4173   20.3224  -31.9288 H   0  0  0  0  0  0  0  0  0  0  0  0
   -5.7344   17.5808  -30.7863 H   0  0  0  0  0  0  0  0  0  0  0  0
   -5.1290   15.2879  -31.5470 H   0  0  0  0  0  0  0  0  0  0  0  0
  1  2  1  0
  2  3  1  0
  3  4  2  0
  3  5  1  0
  5  6  1  0
  6  7  2  0
  7  8  1  0
  8  9  2  0
  9 10  1  0
 10 11  2  0
 11 12  1  0
 12 13  2  0
 13 14  1  0
 14 15  2  0
 15 16  1  0
 16 17  1  0
 16 18  2  0
 15 19  1  0
 19 20  1  0
 20 21  2  0
 20 22  1  0
 22 23  1  0
 23 24  1  0
 23 25  1  0
 23 26  1  0
 19 27  1  0
 27 28  2  0
  9 29  1  0
 29 30  2  0
 30  6  1  0
 28 10  1  0
 27 13  1  0
  1 31  1  0
  1 32  1  0
  1 33  1  0
  5 34  1  0
  5 35  1  0
  7 36  1  0
  8 37  1  0
 11 38  1  0
 12 39  1  0
 14 40  1  0
 17 41  1  0
 24 42  1  0
 24 43  1  0
 24 44  1  0
 25 45  1  0
 25 46  1  0
 25 47  1  0
 26 48  1  0
 26 49  1  0
 26 50  1  0
 28 51  1  0
 29 52  1  0
 30 53  1  0
M  CHG  1  17  -1
M  END
>  <UniqueID>  (50) 
50

>  <SMILES>  (50) 
COC(=O)Cc1ccc(-c2ccc3cc(C([NH-])=O)n(C(=O)OC(C)(C)C)c3c2)cc1

>  <Energy>  (50) 
89.63136348174446

>  <Genealogy>  (50) 
COC(=O)Cc1ccc(-c2ccc3cc(C([NH-])=O)n(C(=O)OC(C)(C)C)c3c2)cc1 (protonated)
COC(=O)Cc1ccc(-c2ccc3cc(C([NH-])=O)n(C(=O)OC(C)(C)C)c3c2)cc1 (3D coordinates assigned)
COC(=O)Cc1ccc(-c2ccc3cc(C([NH-])=O)n(C(=O)OC(C)(C)C)c3c2)cc1 (optimized conformer: 89.63136348174446 kcal/mol)

>  <smiles>  (50) 
COC(=O)Cc1ccc(-c2ccc3cc(C(N)=O)n(C(=O)OC(C)(C)C)c3c2)cc1

>  <score_type>  (50) 
oracle

>  <origin>  (50) 
adg

>  <m_score__min__energy>  (50) 
-11.050000000000001

>  <m_primary>  (50) 
energy

$$$$
50:0
     RDKit          3D

 28 29  0  0  0  0  0  0  0  0999 V2000
   -3.8780   25.6440  -30.8680 N   0  0  0  0  0  0  0  0  0  0  0  0
   -5.1960   25.3090  -30.4410 C   0  0  0  0  0  0  0  0  0  0  0  0
   -5.8470   26.1330  -29.7450 O   0  0  0  0  0  0  0  0  0  0  0  0
   -5.8280   24.0370  -30.8490 C   0  0  0  0  0  0  0  0  0  0  0  0
   -7.2030   23.8190  -30.8080 C   0  0  0  0  0  0  0  0  0  0  0  0
   -7.3900   22.5690  -31.3550 C   0  0  0  0  0  0  0  0  0  0  0  0
   -8.5620   21.8470  -31.5600 C   0  0  0  0  0  0  0  0  0  0  0  0
   -8.4560   20.5660  -32.1260 C   0  0  0  0  0  0  0  0  0  0  0  0
   -7.1890   20.0280  -32.4610 C   0  0  0  0  0  0  0  0  0  0  0  0
   -7.0930   18.6610  -33.0860 C   0  0  0  0  0  0  0  0  0  0  0  0
   -5.8270   18.5330  -33.9320 C   0  0  0  0  0  0  0  0  0  0  0  0
   -6.0920   18.9450  -35.2250 F   0  0  0  0  0  0  0  0  0  0  0  0
   -5.3990   17.2170  -33.9570 F   0  0  0  0  0  0  0  0  0  0  0  0
   -6.0210   20.7940  -32.2490 C   0  0  0  0  0  0  0  0  0  0  0  0
   -6.1590   22.0740  -31.6990 C   0  0  0  0  0  0  0  0  0  0  0  0
   -5.1870   22.9630  -31.3910 N   0  0  0  0  0  0  0  0  0  0  0  0
   -3.7730   22.7550  -31.5240 C   0  0  0  0  0  0  0  0  0  0  0  0
   -2.8890   23.1340  -30.4710 N   0  0  0  0  0  0  0  0  0  0  0  0
   -3.3070   22.2070  -32.5590 O   0  0  0  0  0  0  0  0  0  0  0  0
   -3.0410   25.2940  -30.3510 H   0  0  0  0  0  0  0  0  0  0  0  0
   -7.9752   24.5002  -30.4211 H   0  0  0  0  0  0  0  0  0  0  0  0
   -9.5414   22.2668  -31.2871 H   0  0  0  0  0  0  0  0  0  0  0  0
   -9.3651   19.9750  -32.3109 H   0  0  0  0  0  0  0  0  0  0  0  0
   -7.0718   17.9022  -32.2899 H   0  0  0  0  0  0  0  0  0  0  0  0
   -7.9664   18.5117  -33.7378 H   0  0  0  0  0  0  0  0  0  0  0  0
   -5.0406   19.1625  -33.4900 H   0  0  0  0  0  0  0  0  0  0  0  0
   -5.0294   20.3952  -32.5092 H   0  0  0  0  0  0  0  0  0  0  0  0
   -2.4510   24.0810  -30.4530 H   0  0  0  0  0  0  0  0  0  0  0  0
  1  2  1  0
  2  3  2  0
  2  4  1  0
  4  5  2  0
  5  6  1  0
  6  7  2  0
  7  8  1  0
  8  9  2  0
  9 10  1  0
 10 11  1  0
 11 12  1  0
 11 13  1  0
  9 14  1  0
 14 15  2  0
 15 16  1  0
 16 17  1  0
 17 18  1  0
 17 19  2  0
 16  4  1  0
 15  6  1  0
  1 20  1  0
  5 21  1  0
  7 22  1  0
  8 23  1  0
 10 24  1  0
 10 25  1  0
 11 26  1  0
 14 27  1  0
 18 28  1  0
M  CHG  2   1  -1  18  -1
M  END
>  <UniqueID>  (51) 
51

>  <SMILES>  (51) 
[NH-]C(=O)c1cc2ccc(CC(F)F)cc2n1C([NH-])=O

>  <Energy>  (51) 
64.86326241702625

>  <Genealogy>  (51) 
[NH-]C(=O)c1cc2ccc(CC(F)F)cc2n1C([NH-])=O (protonated)
[NH-]C(=O)c1cc2ccc(CC(F)F)cc2n1C([NH-])=O (3D coordinates assigned)
[NH-]C(=O)c1cc2ccc(CC(F)F)cc2n1C([NH-])=O (optimized conformer: 64.86326241702625 kcal/mol)

>  <smiles>  (51) 
NC(=O)c1cc2ccc(CC(F)F)cc2n1C(N)=O

>  <score_type>  (51) 
oracle

>  <origin>  (51) 
adg

>  <m_score__min__energy>  (51) 
-9.4399999999999995

>  <m_primary>  (51) 
energy

$$$$
51:0
     RDKit          3D

 46 49  0  0  0  0  0  0  0  0999 V2000
   -3.8600   25.3170  -30.5490 N   0  0  0  0  0  0  0  0  0  0  0  0
   -5.2590   25.1070  -30.3690 C   0  0  0  0  0  0  0  0  0  0  0  0
   -5.9360   25.9690  -29.7490 O   0  0  0  0  0  0  0  0  0  0  0  0
   -5.9170   23.8880  -30.8840 C   0  0  0  0  0  0  0  0  0  0  0  0
   -7.2890   23.7770  -31.1070 C   0  0  0  0  0  0  0  0  0  0  0  0
   -7.4850   22.4850  -31.5480 C   0  0  0  0  0  0  0  0  0  0  0  0
   -8.6530   21.8290  -31.9250 C   0  0  0  0  0  0  0  0  0  0  0  0
   -8.5500   20.4930  -32.3490 C   0  0  0  0  0  0  0  0  0  0  0  0
   -7.2910   19.8400  -32.3840 C   0  0  0  0  0  0  0  0  0  0  0  0
   -7.1870   18.4180  -32.8680 C   0  0  0  0  0  0  0  0  0  0  0  0
   -5.8520   18.1660  -33.5770 C   0  0  0  0  0  0  0  0  0  0  0  0
   -5.9950   18.3140  -35.0230 N   0  0  0  0  0  0  0  0  0  0  0  0
   -6.1260   20.5430  -32.0040 C   0  0  0  0  0  0  0  0  0  0  0  0
   -6.2630   21.8680  -31.5820 C   0  0  0  0  0  0  0  0  0  0  0  0
   -5.2950   22.7140  -31.1780 N   0  0  0  0  0  0  0  0  0  0  0  0
   -3.8930   22.4220  -31.1130 C   0  0  0  0  0  0  0  0  0  0  0  0
   -3.3110   21.9850  -32.1420 O   0  0  0  0  0  0  0  0  0  0  0  0
   -3.1560   22.6310  -29.8940 N   0  0  0  0  0  0  0  0  0  0  0  0
   -1.7010   22.8780  -29.9680 C   0  0  0  0  0  0  0  0  0  0  0  0
   -1.1370   23.3290  -28.6050 C   0  0  1  0  0  0  0  0  0  0  0  0
   -1.5830   24.7490  -28.2570 C   0  0  0  0  0  0  0  0  0  0  0  0
   -2.8450   24.5220  -27.4560 C   0  0  0  0  0  0  0  0  0  0  0  0
   -2.9710   23.0000  -27.4350 C   0  0  1  0  0  0  0  0  0  0  0  0
   -3.8460   22.4880  -28.5950 C   0  0  0  0  0  0  0  0  0  0  0  0
   -1.6710   22.4950  -27.6090 O   0  0  0  0  0  0  0  0  0  0  0  0
   -3.5060   26.0340  -31.2200 H   0  0  0  0  0  0  0  0  0  0  0  0
   -8.0530   24.5550  -30.9619 H   0  0  0  0  0  0  0  0  0  0  0  0
   -9.6265   22.3402  -31.8922 H   0  0  0  0  0  0  0  0  0  0  0  0
   -9.4547   19.9482  -32.6568 H   0  0  0  0  0  0  0  0  0  0  0  0
   -7.2683   17.7395  -32.0060 H   0  0  0  0  0  0  0  0  0  0  0  0
   -8.0005   18.2357  -33.5857 H   0  0  0  0  0  0  0  0  0  0  0  0
   -5.1081   18.8898  -33.2125 H   0  0  0  0  0  0  0  0  0  0  0  0
   -5.5262   17.1382  -33.3589 H   0  0  0  0  0  0  0  0  0  0  0  0
   -5.1080   18.7190  -35.4000 H   0  0  0  0  0  0  0  0  0  0  0  0
   -6.7440   19.0240  -35.1980 H   0  0  0  0  0  0  0  0  0  0  0  0
   -5.1381   20.0605  -32.0394 H   0  0  0  0  0  0  0  0  0  0  0  0
   -1.1957   21.9505  -30.2753 H   0  0  0  0  0  0  0  0  0  0  0  0
   -1.5226   23.6802  -30.6992 H   0  0  0  0  0  0  0  0  0  0  0  0
   -0.0394   23.2837  -28.6612 H   0  0  0  0  0  0  0  0  0  0  0  0
   -0.8209   25.2667  -27.6560 H   0  0  0  0  0  0  0  0  0  0  0  0
   -1.7393   25.3835  -29.1418 H   0  0  0  0  0  0  0  0  0  0  0  0
   -2.7441   24.9242  -26.4372 H   0  0  0  0  0  0  0  0  0  0  0  0
   -3.7255   25.0235  -27.8839 H   0  0  0  0  0  0  0  0  0  0  0  0
   -3.4364   22.6772  -26.4920 H   0  0  0  0  0  0  0  0  0  0  0  0
   -4.0769   21.4257  -28.4273 H   0  0  0  0  0  0  0  0  0  0  0  0
   -4.7677   23.0876  -28.6245 H   0  0  0  0  0  0  0  0  0  0  0  0
  1  2  1  0
  2  3  2  0
  2  4  1  0
  4  5  2  0
  5  6  1  0
  6  7  2  0
  7  8  1  0
  8  9  2  0
  9 10  1  0
 10 11  1  0
 11 12  1  0
  9 13  1  0
 13 14  2  0
 14 15  1  0
 15 16  1  0
 16 17  2  0
 16 18  1  0
 18 19  1  0
 19 20  1  0
 20 21  1  0
 21 22  1  0
 22 23  1  0
 23 24  1  0
 23 25  1  0
 15  4  1  0
 24 18  1  0
 14  6  1  0
 25 20  1  0
  1 26  1  0
  5 27  1  0
  7 28  1  0
  8 29  1  0
 10 30  1  0
 10 31  1  0
 11 32  1  0
 11 33  1  0
 12 34  1  0
 12 35  1  0
 13 36  1  0
 19 37  1  0
 19 38  1  0
 20 39  1  6
 21 40  1  0
 21 41  1  0
 22 42  1  0
 22 43  1  0
 23 44  1  1
 24 45  1  0
 24 46  1  0
M  CHG  1   1  -1
M  END
>  <UniqueID>  (52) 
52

>  <SMILES>  (52) 
[NH-]C(=O)c1cc2ccc(CCN)cc2n1C(=O)N1C[C@H]2CC[C@@H](C1)O2

>  <Energy>  (52) 
88.59935306926383

>  <Genealogy>  (52) 
[NH-]C(=O)c1cc2ccc(CCN)cc2n1C(=O)N1CC2CCC(C1)O2 (protonated)
[NH-]C(=O)c1cc2ccc(CCN)cc2n1C(=O)N1C[C@H]2CC[C@@H](C1)O2 (chirality)
[NH-]C(=O)c1cc2ccc(CCN)cc2n1C(=O)N1C[C@H]2CC[C@@H](C1)O2 (3D coordinates assigned)
[NH-]C(=O)c1cc2ccc(CCN)cc2n1C(=O)N1C[C@H]2CC[C@@H](C1)O2 (nonaromatic ring conformer: 88.59935306926383 kcal/mol)

>  <smiles>  (52) 
NCCc1ccc2cc(C(N)=O)n(C(=O)N3CC4CCC(C3)O4)c2c1

>  <score_type>  (52) 
oracle

>  <origin>  (52) 
adg

>  <m_score__min__energy>  (52) 
-11.68

>  <m_primary>  (52) 
energy

$$$$
52:0
     RDKit          3D

 51 54  0  0  0  0  0  0  0  0999 V2000
   -3.1450   21.6860  -33.4540 C   0  0  0  0  0  0  0  0  0  0  0  0
   -2.5920   21.1840  -32.1070 C   0  0  0  0  0  0  0  0  0  0  0  0
   -1.0990   21.5350  -31.9650 C   0  0  0  0  0  0  0  0  0  0  0  0
   -2.7520   19.6570  -32.0440 C   0  0  0  0  0  0  0  0  0  0  0  0
   -3.3460   21.7330  -31.0160 O   0  0  0  0  0  0  0  0  0  0  0  0
   -4.0800   22.9280  -31.0280 C   0  0  0  0  0  0  0  0  0  0  0  0
   -3.5020   24.0440  -30.9230 O   0  0  0  0  0  0  0  0  0  0  0  0
   -5.5080   22.8780  -31.1680 N   0  0  0  0  0  0  0  0  0  0  0  0
   -6.4030   23.8770  -30.9300 C   0  0  0  0  0  0  0  0  0  0  0  0
   -6.0960   25.1860  -30.3210 C   0  0  0  0  0  0  0  0  0  0  0  0
   -5.0520   26.0160  -30.8350 N   0  0  0  0  0  0  0  0  0  0  0  0
   -6.7300   25.5560  -29.2970 O   0  0  0  0  0  0  0  0  0  0  0  0
   -7.6880   23.4830  -31.2940 C   0  0  0  0  0  0  0  0  0  0  0  0
   -7.5550   22.1920  -31.7530 C   0  0  0  0  0  0  0  0  0  0  0  0
   -8.5140   21.3180  -32.2550 C   0  0  0  0  0  0  0  0  0  0  0  0
   -8.0890   20.0530  -32.6930 C   0  0  0  0  0  0  0  0  0  0  0  0
   -6.7190   19.6860  -32.6340 C   0  0  0  0  0  0  0  0  0  0  0  0
   -6.2780   18.3490  -33.1090 C   0  0  0  0  0  0  0  0  0  0  0  0
   -6.1240   17.2800  -32.2140 C   0  0  0  0  0  0  0  0  0  0  0  0
   -5.7100   16.0280  -32.6740 C   0  0  0  0  0  0  0  0  0  0  0  0
   -5.4450   15.8430  -34.0410 C   0  0  0  0  0  0  0  0  0  0  0  0
   -5.0090   14.5720  -34.5610 N   0  0  0  0  0  0  0  0  0  0  0  0
   -5.6700   13.3980  -34.5730 C   0  0  0  0  0  0  0  0  0  0  0  0
   -4.8600   12.4580  -35.1660 C   0  0  0  0  0  0  0  0  0  0  0  0
   -3.6940   13.0280  -35.5290 N   0  0  0  0  0  0  0  0  0  0  0  0
   -3.8200   14.3160  -35.1460 C   0  0  0  0  0  0  0  0  0  0  0  0
   -5.6000   16.8960  -34.8910 N   0  0  0  0  0  0  0  0  0  0  0  0
   -6.0050   18.1220  -34.4680 C   0  0  0  0  0  0  0  0  0  0  0  0
   -5.7750   20.6060  -32.1220 C   0  0  0  0  0  0  0  0  0  0  0  0
   -6.2300   21.8510  -31.6690 C   0  0  0  0  0  0  0  0  0  0  0  0
   -3.9482   22.4151  -33.2718 H   0  0  0  0  0  0  0  0  0  0  0  0
   -2.3372   22.1657  -34.0261 H   0  0  0  0  0  0  0  0  0  0  0  0
   -3.5445   20.8357  -34.0261 H   0  0  0  0  0  0  0  0  0  0  0  0
   -0.8367   21.5967  -30.8985 H   0  0  0  0  0  0  0  0  0  0  0  0
   -0.4915   20.7552  -32.4475 H   0  0  0  0  0  0  0  0  0  0  0  0
   -0.9026   22.5038  -32.4475 H   0  0  0  0  0  0  0  0  0  0  0  0
   -2.7857   19.3349  -30.9927 H   0  0  0  0  0  0  0  0  0  0  0  0
   -3.6856   19.3651  -32.5471 H   0  0  0  0  0  0  0  0  0  0  0  0
   -1.8991   19.1779  -32.5471 H   0  0  0  0  0  0  0  0  0  0  0  0
   -4.4040   25.6720  -31.5750 H   0  0  0  0  0  0  0  0  0  0  0  0
   -4.8740   26.9550  -30.4130 H   0  0  0  0  0  0  0  0  0  0  0  0
   -8.6119   24.0765  -31.2287 H   0  0  0  0  0  0  0  0  0  0  0  0
   -9.5735   21.6090  -32.3073 H   0  0  0  0  0  0  0  0  0  0  0  0
   -8.8266   19.3381  -33.0865 H   0  0  0  0  0  0  0  0  0  0  0  0
   -6.3305   17.4286  -31.1438 H   0  0  0  0  0  0  0  0  0  0  0  0
   -5.5921   15.1913  -31.9697 H   0  0  0  0  0  0  0  0  0  0  0  0
   -6.6812   13.2221  -34.1775 H   0  0  0  0  0  0  0  0  0  0  0  0
   -5.1238   11.4013  -35.3206 H   0  0  0  0  0  0  0  0  0  0  0  0
   -3.0380   15.0752  -35.2946 H   0  0  0  0  0  0  0  0  0  0  0  0
   -6.1197   18.9409  -35.1934 H   0  0  0  0  0  0  0  0  0  0  0  0
   -4.7061   20.3495  -32.0803 H   0  0  0  0  0  0  0  0  0  0  0  0
  1  2  1  0
  2  3  1  0
  2  4  1  0
  2  5  1  0
  5  6  1  0
  6  7  2  0
  6  8  1  0
  8  9  1  0
  9 10  1  0
 10 11  1  0
 10 12  2  0
  9 13  2  0
 13 14  1  0
 14 15  2  0
 15 16  1  0
 16 17  2  0
 17 18  1  0
 18 19  2  0
 19 20  1  0
 20 21  2  0
 21 22  1  0
 22 23  1  0
 23 24  2  0
 24 25  1  0
 25 26  2  0
 21 27  1  0
 27 28  2  0
 17 29  1  0
 29 30  2  0
 30  8  1  0
 30 14  1  0
 28 18  1  0
 26 22  1  0
  1 31  1  0
  1 32  1  0
  1 33  1  0
  3 34  1  0
  3 35  1  0
  3 36  1  0
  4 37  1  0
  4 38  1  0
  4 39  1  0
 11 40  1  0
 11 41  1  0
 13 42  1  0
 15 43  1  0
 16 44  1  0
 19 45  1  0
 20 46  1  0
 23 47  1  0
 24 48  1  0
 26 49  1  0
 28 50  1  0
 29 51  1  0
M  END
>  <UniqueID>  (53) 
53

>  <SMILES>  (53) 
CC(C)(C)OC(=O)n1c(C(N)=O)cc2ccc(-c3ccc(-n4ccnc4)nc3)cc21

>  <Energy>  (53) 
126.12976599633055

>  <Genealogy>  (53) 
CC(C)(C)OC(=O)n1c(C(N)=O)cc2ccc(-c3ccc(-n4ccnc4)nc3)cc21 (3D coordinates assigned)
CC(C)(C)OC(=O)n1c(C(N)=O)cc2ccc(-c3ccc(-n4ccnc4)nc3)cc21 (optimized conformer: 126.12976599633055 kcal/mol)

>  <smiles>  (53) 
CC(C)(C)OC(=O)n1c(C(N)=O)cc2ccc(-c3ccc(-n4ccnc4)nc3)cc21

>  <score_type>  (53) 
oracle

>  <origin>  (53) 
adg

>  <m_score__min__energy>  (53) 
-9.4700000000000006

>  <m_primary>  (53) 
energy

$$$$
53:0
     RDKit          3D

 36 38  0  0  0  0  0  0  0  0999 V2000
   -3.4510   16.9960  -34.2410 N   0  0  0  0  0  0  0  0  0  0  0  0
   -4.6100   17.6530  -34.7470 C   0  0  0  0  0  0  0  0  0  0  0  0
   -4.9650   17.4440  -35.9380 O   0  0  0  0  0  0  0  0  0  0  0  0
   -5.4220   18.5380  -33.8850 C   0  0  0  0  0  0  0  0  0  0  0  0
   -6.7380   18.2590  -33.5200 C   0  0  0  0  0  0  0  0  0  0  0  0
   -7.1060   19.2810  -32.6740 C   0  0  0  0  0  0  0  0  0  0  0  0
   -8.3160   19.5160  -32.0280 C   0  0  0  0  0  0  0  0  0  0  0  0
   -8.4270   20.6730  -31.2410 C   0  0  0  0  0  0  0  0  0  0  0  0
   -7.3380   21.5780  -31.1170 C   0  0  0  0  0  0  0  0  0  0  0  0
   -7.4410   22.8440  -30.2840 C   0  0  1  0  0  0  0  0  0  0  0  0
   -6.2340   23.1190  -29.3840 C   0  0  0  0  0  0  0  0  0  0  0  0
   -5.9820   24.4360  -30.1290 C   0  0  1  0  0  0  0  0  0  0  0  0
   -6.2090   25.5440  -29.2970 O   0  0  0  0  0  0  0  0  0  0  0  0
   -4.6400   24.5070  -30.8150 C   0  0  0  0  0  0  0  0  0  0  0  0
   -4.2520   23.5640  -31.5530 O   0  0  0  0  0  0  0  0  0  0  0  0
   -3.8640   25.6560  -30.7120 O   0  0  0  0  0  0  0  0  0  0  0  0
   -7.1740   24.1390  -31.0530 C   0  0  0  0  0  0  0  0  0  0  0  0
   -6.1280   21.3010  -31.7930 C   0  0  0  0  0  0  0  0  0  0  0  0
   -6.0390   20.1300  -32.5530 C   0  0  0  0  0  0  0  0  0  0  0  0
   -4.9960   19.6880  -33.2900 N   0  0  0  0  0  0  0  0  0  0  0  0
   -3.7370   20.3540  -33.4640 C   0  0  0  0  0  0  0  0  0  0  0  0
   -3.6790   21.7780  -33.5470 N   0  0  0  0  0  0  0  0  0  0  0  0
   -2.6750   19.6820  -33.5500 O   0  0  0  0  0  0  0  0  0  0  0  0
   -2.6940   17.5340  -33.7630 H   0  0  0  0  0  0  0  0  0  0  0  0
   -7.3519   17.4041  -33.8398 H   0  0  0  0  0  0  0  0  0  0  0  0
   -9.1591   18.8170  -32.1309 H   0  0  0  0  0  0  0  0  0  0  0  0
   -9.3692   20.8821  -30.7133 H   0  0  0  0  0  0  0  0  0  0  0  0
   -8.4301   22.6590  -29.8397 H   0  0  0  0  0  0  0  0  0  0  0  0
   -5.4220   22.3836  -29.4839 H   0  0  0  0  0  0  0  0  0  0  0  0
   -6.3410   23.1092  -28.2893 H   0  0  0  0  0  0  0  0  0  0  0  0
   -5.3280   25.9780  -29.1520 H   0  0  0  0  0  0  0  0  0  0  0  0
   -6.8991   23.9876  -32.1073 H   0  0  0  0  0  0  0  0  0  0  0  0
   -7.9733   24.8822  -31.1896 H   0  0  0  0  0  0  0  0  0  0  0  0
   -5.2746   21.9915  -31.7230 H   0  0  0  0  0  0  0  0  0  0  0  0
   -2.7660   22.2610  -33.7030 H   0  0  0  0  0  0  0  0  0  0  0  0
   -4.5400   22.3520  -33.4150 H   0  0  0  0  0  0  0  0  0  0  0  0
  1  2  1  0
  2  3  2  0
  2  4  1  0
  4  5  2  0
  5  6  1  0
  6  7  2  0
  7  8  1  0
  8  9  2  0
  9 10  1  0
 10 11  1  0
 11 12  1  0
 12 13  1  1
 12 14  1  0
 14 15  2  0
 14 16  1  0
 12 17  1  0
  9 18  1  0
 18 19  2  0
 19 20  1  0
 20 21  1  0
 21 22  1  0
 21 23  2  0
 20  4  1  0
 19  6  1  0
 17 10  1  0
  1 24  1  0
  5 25  1  0
  7 26  1  0
  8 27  1  0
 10 28  1  1
 11 29  1  0
 11 30  1  0
 13 31  1  0
 17 32  1  0
 17 33  1  0
 18 34  1  0
 22 35  1  0
 22 36  1  0
M  CHG  2   1  -1  16  -1
M  END
>  <UniqueID>  (54) 
54

>  <SMILES>  (54) 
[NH-]C(=O)c1cc2ccc(C3CC(O)(C(=O)[O-])C3)cc2n1C(N)=O

>  <Energy>  (54) 
140.37151762246265

>  <Genealogy>  (54) 
[NH-]C(=O)c1cc2ccc(C3CC(O)(C(=O)[O-])C3)cc2n1C(N)=O (protonated)
[NH-]C(=O)c1cc2ccc(C3CC(O)(C(=O)[O-])C3)cc2n1C(N)=O (3D coordinates assigned)
[NH-]C(=O)c1cc2ccc(C3CC(O)(C(=O)[O-])C3)cc2n1C(N)=O (nonaromatic ring conformer: 140.37151762246265 kcal/mol)

>  <smiles>  (54) 
NC(=O)c1cc2ccc(C3CC(O)(C(=O)O)C3)cc2n1C(N)=O

>  <score_type>  (54) 
oracle

>  <origin>  (54) 
adg

>  <m_score__min__energy>  (54) 
-10.35

>  <m_primary>  (54) 
energy

$$$$
54:0
     RDKit          3D

 44 45  0  0  0  0  0  0  0  0999 V2000
   -9.1140   21.2130  -30.8160 C   0  0  0  0  0  0  0  0  0  0  0  0
   -9.2540   22.2600  -31.9160 C   0  0  0  0  0  0  0  0  0  0  0  0
   -7.9940   22.8650  -32.1980 O   0  0  0  0  0  0  0  0  0  0  0  0
   -7.0050   23.0700  -31.2300 C   0  0  0  0  0  0  0  0  0  0  0  0
   -7.3030   23.5610  -30.1070 O   0  0  0  0  0  0  0  0  0  0  0  0
   -5.6420   22.7140  -31.5140 N   0  0  0  0  0  0  0  0  0  0  0  0
   -4.5130   23.2840  -31.0050 C   0  0  0  0  0  0  0  0  0  0  0  0
   -4.4590   24.5020  -30.1740 C   0  0  0  0  0  0  0  0  0  0  0  0
   -5.1190   24.5660  -28.9080 N   0  0  0  0  0  0  0  0  0  0  0  0
   -3.8650   25.5240  -30.6120 O   0  0  0  0  0  0  0  0  0  0  0  0
   -3.3810   22.5860  -31.4170 C   0  0  0  0  0  0  0  0  0  0  0  0
   -3.8520   21.5680  -32.2140 C   0  0  0  0  0  0  0  0  0  0  0  0
   -3.1610   20.5610  -32.8790 C   0  0  0  0  0  0  0  0  0  0  0  0
   -3.9060   19.6140  -33.6000 C   0  0  0  0  0  0  0  0  0  0  0  0
   -5.3230   19.6800  -33.6280 C   0  0  0  0  0  0  0  0  0  0  0  0
   -6.1130   18.6450  -34.3870 C   0  0  0  0  0  0  0  0  0  0  0  0
   -6.3510   17.3430  -33.5940 C   0  0  0  0  0  0  0  0  0  0  0  0
   -7.1420   17.4710  -32.2650 C   0  0  0  0  0  0  0  0  0  0  0  0
   -6.2410   17.7500  -31.0550 C   0  0  0  0  0  0  0  0  0  0  0  0
   -8.2940   18.4820  -32.3430 C   0  0  0  0  0  0  0  0  0  0  0  0
   -5.9890   20.7250  -32.9510 C   0  0  0  0  0  0  0  0  0  0  0  0
   -5.2200   21.6660  -32.2560 C   0  0  0  0  0  0  0  0  0  0  0  0
   -9.1795   21.7027  -29.8332 H   0  0  0  0  0  0  0  0  0  0  0  0
   -9.9210   20.4715  -30.9107 H   0  0  0  0  0  0  0  0  0  0  0  0
   -8.1405   20.7096  -30.9107 H   0  0  0  0  0  0  0  0  0  0  0  0
   -9.6351   21.7772  -32.8279 H   0  0  0  0  0  0  0  0  0  0  0  0
   -9.9527   23.0389  -31.5766 H   0  0  0  0  0  0  0  0  0  0  0  0
   -5.0330   25.4220  -28.3160 H   0  0  0  0  0  0  0  0  0  0  0  0
   -5.7590   23.8040  -28.5950 H   0  0  0  0  0  0  0  0  0  0  0  0
   -2.3335   22.8022  -31.1602 H   0  0  0  0  0  0  0  0  0  0  0  0
   -2.0629   20.5079  -32.8413 H   0  0  0  0  0  0  0  0  0  0  0  0
   -3.3865   18.8140  -34.1479 H   0  0  0  0  0  0  0  0  0  0  0  0
   -7.0906   19.0766  -34.6478 H   0  0  0  0  0  0  0  0  0  0  0  0
   -5.5224   18.3772  -35.2755 H   0  0  0  0  0  0  0  0  0  0  0  0
   -6.9050   16.6520  -34.2464 H   0  0  0  0  0  0  0  0  0  0  0  0
   -5.3491   16.9954  -33.3017 H   0  0  0  0  0  0  0  0  0  0  0  0
   -7.5945   16.4804  -32.1101 H   0  0  0  0  0  0  0  0  0  0  0  0
   -6.8070   17.5747  -30.1282 H   0  0  0  0  0  0  0  0  0  0  0  0
   -5.3693   17.0797  -31.0846 H   0  0  0  0  0  0  0  0  0  0  0  0
   -5.9007   18.7956  -31.0846 H   0  0  0  0  0  0  0  0  0  0  0  0
   -8.6088   18.7583  -31.3259 H   0  0  0  0  0  0  0  0  0  0  0  0
   -7.9570   19.3812  -32.8795 H   0  0  0  0  0  0  0  0  0  0  0  0
   -9.1419   18.0311  -32.8795 H   0  0  0  0  0  0  0  0  0  0  0  0
   -7.0864   20.7980  -32.9693 H   0  0  0  0  0  0  0  0  0  0  0  0
  1  2  1  0
  2  3  1  0
  3  4  1  0
  4  5  2  0
  4  6  1  0
  6  7  1  0
  7  8  1  0
  8  9  1  0
  8 10  2  0
  7 11  2  0
 11 12  1  0
 12 13  2  0
 13 14  1  0
 14 15  2  0
 15 16  1  0
 16 17  1  0
 17 18  1  0
 18 19  1  0
 18 20  1  0
 15 21  1  0
 21 22  2  0
 22  6  1  0
 22 12  1  0
  1 23  1  0
  1 24  1  0
  1 25  1  0
  2 26  1  0
  2 27  1  0
  9 28  1  0
  9 29  1  0
 11 30  1  0
 13 31  1  0
 14 32  1  0
 16 33  1  0
 16 34  1  0
 17 35  1  0
 17 36  1  0
 18 37  1  0
 19 38  1  0
 19 39  1  0
 19 40  1  0
 20 41  1  0
 20 42  1  0
 20 43  1  0
 21 44  1  0
M  END
>  <UniqueID>  (55) 
55

>  <SMILES>  (55) 
CCOC(=O)n1c(C(N)=O)cc2ccc(CCC(C)C)cc21

>  <Energy>  (55) 
73.95845243426675

>  <Genealogy>  (55) 
CCOC(=O)n1c(C(N)=O)cc2ccc(CCC(C)C)cc21 (3D coordinates assigned)
CCOC(=O)n1c(C(N)=O)cc2ccc(CCC(C)C)cc21 (optimized conformer: 73.95845243426675 kcal/mol)

>  <smiles>  (55) 
CCOC(=O)n1c(C(N)=O)cc2ccc(CCC(C)C)cc21

>  <score_type>  (55) 
oracle

>  <origin>  (55) 
adg

>  <m_score__min__energy>  (55) 
-8.5999999999999996

>  <m_primary>  (55) 
energy

$$$$
55:0
     RDKit          3D

 30 32  0  0  0  0  0  0  0  0999 V2000
   -3.8700   25.4180  -30.4990 N   0  0  0  0  0  0  0  0  0  0  0  0
   -5.2630   25.1240  -30.4080 C   0  0  0  0  0  0  0  0  0  0  0  0
   -6.0380   25.9650  -29.8810 O   0  0  0  0  0  0  0  0  0  0  0  0
   -5.7730   23.8260  -30.8950 C   0  0  0  0  0  0  0  0  0  0  0  0
   -7.1290   23.5330  -31.0320 C   0  0  0  0  0  0  0  0  0  0  0  0
   -7.1760   22.2800  -31.5990 C   0  0  0  0  0  0  0  0  0  0  0  0
   -8.2680   21.4980  -31.9530 C   0  0  0  0  0  0  0  0  0  0  0  0
   -8.0210   20.2300  -32.5090 C   0  0  0  0  0  0  0  0  0  0  0  0
   -6.6920   19.7640  -32.6960 C   0  0  0  0  0  0  0  0  0  0  0  0
   -6.4430   18.4190  -33.2760 C   0  0  0  0  0  0  0  0  0  0  0  0
   -5.4040   18.1430  -34.1860 C   0  0  0  0  0  0  0  0  0  0  0  0
   -5.3590   16.8190  -34.6000 C   0  0  0  0  0  0  0  0  0  0  0  0
   -6.6050   15.9910  -33.8390 S   0  0  0  0  0  0  0  0  0  0  0  0
   -7.2140   17.2970  -32.9760 C   0  0  0  0  0  0  0  0  0  0  0  0
   -5.6080   20.5940  -32.3210 C   0  0  0  0  0  0  0  0  0  0  0  0
   -5.8870   21.8550  -31.7840 C   0  0  0  0  0  0  0  0  0  0  0  0
   -5.0140   22.7910  -31.3530 N   0  0  0  0  0  0  0  0  0  0  0  0
   -3.5820   22.6720  -31.3350 C   0  0  0  0  0  0  0  0  0  0  0  0
   -2.8270   23.1770  -30.2340 N   0  0  0  0  0  0  0  0  0  0  0  0
   -2.9880   22.0880  -32.2800 O   0  0  0  0  0  0  0  0  0  0  0  0
   -3.5010   26.0400  -31.2520 H   0  0  0  0  0  0  0  0  0  0  0  0
   -7.9806   24.1684  -30.7473 H   0  0  0  0  0  0  0  0  0  0  0  0
   -9.2959   21.8599  -31.8029 H   0  0  0  0  0  0  0  0  0  0  0  0
   -8.8671   19.5913  -32.8026 H   0  0  0  0  0  0  0  0  0  0  0  0
   -4.6937   18.9064  -34.5363 H   0  0  0  0  0  0  0  0  0  0  0  0
   -4.6328   16.3873  -35.3045 H   0  0  0  0  0  0  0  0  0  0  0  0
   -8.0743   17.2713  -32.2910 H   0  0  0  0  0  0  0  0  0  0  0  0
   -4.5695   20.2547  -32.4491 H   0  0  0  0  0  0  0  0  0  0  0  0
   -3.3100   23.5900  -29.4050 H   0  0  0  0  0  0  0  0  0  0  0  0
   -1.7860   23.1020  -30.2290 H   0  0  0  0  0  0  0  0  0  0  0  0
  1  2  1  0
  2  3  2  0
  2  4  1  0
  4  5  2  0
  5  6  1  0
  6  7  2  0
  7  8  1  0
  8  9  2  0
  9 10  1  0
 10 11  1  0
 11 12  2  0
 12 13  1  0
 13 14  1  0
  9 15  1  0
 15 16  2  0
 16 17  1  0
 17 18  1  0
 18 19  1  0
 18 20  2  0
 17  4  1  0
 16  6  1  0
 14 10  2  0
  1 21  1  0
  5 22  1  0
  7 23  1  0
  8 24  1  0
 11 25  1  0
 12 26  1  0
 14 27  1  0
 15 28  1  0
 19 29  1  0
 19 30  1  0
M  CHG  1   1  -1
M  END
>  <UniqueID>  (56) 
56

>  <SMILES>  (56) 
[NH-]C(=O)c1cc2ccc(-c3ccsc3)cc2n1C(N)=O

>  <Energy>  (56) 
100.07080684283106

>  <Genealogy>  (56) 
[NH-]C(=O)c1cc2ccc(-c3ccsc3)cc2n1C(N)=O (protonated)
[NH-]C(=O)c1cc2ccc(-c3ccsc3)cc2n1C(N)=O (3D coordinates assigned)
[NH-]C(=O)c1cc2ccc(-c3ccsc3)cc2n1C(N)=O (optimized conformer: 100.07080684283106 kcal/mol)

>  <smiles>  (56) 
NC(=O)c1cc2ccc(-c3ccsc3)cc2n1C(N)=O

>  <score_type>  (56) 
oracle

>  <origin>  (56) 
adg

>  <m_score__min__energy>  (56) 
-10.52

>  <m_primary>  (56) 
energy

$$$$
56:0
     RDKit          3D

 43 45  0  0  0  0  0  0  0  0999 V2000
   -9.1370   20.4290  -31.9860 C   0  0  0  0  0  0  0  0  0  0  0  0
   -7.9830   19.4790  -31.8750 C   0  0  0  0  0  0  0  0  0  0  0  0
   -8.1880   18.3460  -31.3620 O   0  0  0  0  0  0  0  0  0  0  0  0
   -6.6200   19.8390  -32.3510 C   0  0  0  0  0  0  0  0  0  0  0  0
   -5.7160   18.8560  -32.7970 C   0  0  0  0  0  0  0  0  0  0  0  0
   -4.4340   19.2100  -33.2230 C   0  0  0  0  0  0  0  0  0  0  0  0
   -4.0260   20.5510  -33.2190 C   0  0  0  0  0  0  0  0  0  0  0  0
   -2.6050   20.9050  -33.5870 C   0  0  0  0  0  0  0  0  0  0  0  0
   -1.5890   20.2130  -32.6620 C   0  0  0  0  0  0  0  0  0  0  0  0
   -1.7020   20.7060  -31.2430 C   0  0  0  0  0  0  0  0  0  0  0  0
   -0.9700   20.0720  -30.2080 C   0  0  0  0  0  0  0  0  0  0  0  0
   -1.0190   20.5640  -28.8930 C   0  0  0  0  0  0  0  0  0  0  0  0
   -1.7830   21.7030  -28.6500 C   0  0  0  0  0  0  0  0  0  0  0  0
   -2.0030   22.3850  -27.4760 C   0  0  0  0  0  0  0  0  0  0  0  0
   -2.8260   23.4530  -27.8210 C   0  0  0  0  0  0  0  0  0  0  0  0
   -3.2490   24.4930  -26.8630 C   0  0  0  0  0  0  0  0  0  0  0  0
   -4.5720   25.0280  -26.8890 N   0  0  0  0  0  0  0  0  0  0  0  0
   -2.4110   24.9580  -26.0440 O   0  0  0  0  0  0  0  0  0  0  0  0
   -3.1200   23.4270  -29.1520 N   0  0  0  0  0  0  0  0  0  0  0  0
   -4.0100   24.3010  -29.8660 C   0  0  0  0  0  0  0  0  0  0  0  0
   -5.2580   24.1730  -29.7530 O   0  0  0  0  0  0  0  0  0  0  0  0
   -3.5020   25.2990  -30.6880 O   0  0  0  0  0  0  0  0  0  0  0  0
   -2.4730   22.3460  -29.6450 C   0  0  0  0  0  0  0  0  0  0  0  0
   -2.4730   21.8550  -30.9550 C   0  0  0  0  0  0  0  0  0  0  0  0
   -4.9250   21.5390  -32.7790 C   0  0  0  0  0  0  0  0  0  0  0  0
   -4.5530   22.8440  -32.7350 F   0  0  0  0  0  0  0  0  0  0  0  0
   -6.2070   21.1840  -32.3520 C   0  0  0  0  0  0  0  0  0  0  0  0
   -9.4786   20.7102  -30.9789 H   0  0  0  0  0  0  0  0  0  0  0  0
   -8.8188   21.3304  -32.5303 H   0  0  0  0  0  0  0  0  0  0  0  0
   -9.9605   19.9436  -32.5303 H   0  0  0  0  0  0  0  0  0  0  0  0
   -6.0223   17.7996  -32.8100 H   0  0  0  0  0  0  0  0  0  0  0  0
   -3.7382   18.4295  -33.5647 H   0  0  0  0  0  0  0  0  0  0  0  0
   -2.4160   20.5895  -34.6237 H   0  0  0  0  0  0  0  0  0  0  0  0
   -2.4831   21.9928  -33.4778 H   0  0  0  0  0  0  0  0  0  0  0  0
   -1.7728   19.1286  -32.6784 H   0  0  0  0  0  0  0  0  0  0  0  0
   -0.5780   20.4469  -33.0269 H   0  0  0  0  0  0  0  0  0  0  0  0
   -0.3581   19.1869  -30.4364 H   0  0  0  0  0  0  0  0  0  0  0  0
   -0.4708   20.0650  -28.0802 H   0  0  0  0  0  0  0  0  0  0  0  0
   -1.6120   22.1389  -26.4777 H   0  0  0  0  0  0  0  0  0  0  0  0
   -4.8650   25.7370  -26.1810 H   0  0  0  0  0  0  0  0  0  0  0  0
   -5.2360   24.7880  -27.6580 H   0  0  0  0  0  0  0  0  0  0  0  0
   -3.0592   22.3515  -31.7423 H   0  0  0  0  0  0  0  0  0  0  0  0
   -6.9022   21.9659  -32.0123 H   0  0  0  0  0  0  0  0  0  0  0  0
  1  2  1  0
  2  3  2  0
  2  4  1  0
  4  5  2  0
  5  6  1  0
  6  7  2  0
  7  8  1  0
  8  9  1  0
  9 10  1  0
 10 11  2  0
 11 12  1  0
 12 13  2  0
 13 14  1  0
 14 15  2  0
 15 16  1  0
 16 17  1  0
 16 18  2  0
 15 19  1  0
 19 20  1  0
 20 21  2  0
 20 22  1  0
 19 23  1  0
 23 24  2  0
  7 25  1  0
 25 26  1  0
 25 27  2  0
 27  4  1  0
 24 10  1  0
 23 13  1  0
  1 28  1  0
  1 29  1  0
  1 30  1  0
  5 31  1  0
  6 32  1  0
  8 33  1  0
  8 34  1  0
  9 35  1  0
  9 36  1  0
 11 37  1  0
 12 38  1  0
 14 39  1  0
 17 40  1  0
 17 41  1  0
 24 42  1  0
 27 43  1  0
M  CHG  1  22  -1
M  END
>  <UniqueID>  (57) 
57

>  <SMILES>  (57) 
CC(=O)c1ccc(CCc2ccc3cc(C(N)=O)n(C(=O)[O-])c3c2)c(F)c1

>  <Energy>  (57) 
81.41336851190054

>  <Genealogy>  (57) 
CC(=O)c1ccc(CCc2ccc3cc(C(N)=O)n(C(=O)[O-])c3c2)c(F)c1 (protonated)
CC(=O)c1ccc(CCc2ccc3cc(C(N)=O)n(C(=O)[O-])c3c2)c(F)c1 (3D coordinates assigned)
CC(=O)c1ccc(CCc2ccc3cc(C(N)=O)n(C(=O)[O-])c3c2)c(F)c1 (optimized conformer: 81.41336851190054 kcal/mol)

>  <smiles>  (57) 
CC(=O)c1ccc(CCc2ccc3cc(C(N)=O)n(C(=O)O)c3c2)c(F)c1

>  <score_type>  (57) 
oracle

>  <origin>  (57) 
adg

>  <m_score__min__energy>  (57) 
-10.220000000000001

>  <m_primary>  (57) 
energy

$$$$
57:0
     RDKit          3D

 37 38  0  0  0  0  0  0  0  0999 V2000
   -3.0660   21.5130  -33.1230 C   0  0  0  0  0  0  0  0  0  0  0  0
   -3.5170   20.2350  -32.6900 O   0  0  0  0  0  0  0  0  0  0  0  0
   -4.3000   19.4000  -33.4940 C   0  0  0  0  0  0  0  0  0  0  0  0
   -3.8360   18.9410  -34.5720 O   0  0  0  0  0  0  0  0  0  0  0  0
   -5.6310   19.0520  -33.0810 N   0  0  0  0  0  0  0  0  0  0  0  0
   -6.2250   17.8270  -33.1480 C   0  0  0  0  0  0  0  0  0  0  0  0
   -5.5440   16.5610  -33.5040 C   0  0  0  0  0  0  0  0  0  0  0  0
   -4.8760   16.4180  -34.7580 N   0  0  0  0  0  0  0  0  0  0  0  0
   -5.5810   15.5820  -32.7140 O   0  0  0  0  0  0  0  0  0  0  0  0
   -7.5540   17.9040  -32.7320 C   0  0  0  0  0  0  0  0  0  0  0  0
   -7.7560   19.2240  -32.4030 C   0  0  0  0  0  0  0  0  0  0  0  0
   -8.9000   19.8620  -31.9310 C   0  0  0  0  0  0  0  0  0  0  0  0
   -8.8320   21.2450  -31.6920 C   0  0  0  0  0  0  0  0  0  0  0  0
   -7.6350   21.9610  -31.9420 C   0  0  0  0  0  0  0  0  0  0  0  0
   -7.5690   23.4370  -31.6560 C   0  0  0  0  0  0  0  0  0  0  0  0
   -6.9550   23.6890  -30.2720 C   0  0  0  0  0  0  0  0  0  0  0  0
   -6.0970   24.9610  -30.2390 C   0  0  0  0  0  0  0  0  0  0  0  0
   -4.7200   24.7180  -30.7800 C   0  0  0  0  0  0  0  0  0  0  0  0
   -3.8620   25.6400  -30.7680 O   0  0  0  0  0  0  0  0  0  0  0  0
   -4.3920   23.4780  -31.3190 O   0  0  0  0  0  0  0  0  0  0  0  0
   -6.4910   21.2770  -32.4090 C   0  0  0  0  0  0  0  0  0  0  0  0
   -6.5820   19.8970  -32.6220 C   0  0  0  0  0  0  0  0  0  0  0  0
   -2.8447   22.1400  -32.2467 H   0  0  0  0  0  0  0  0  0  0  0  0
   -2.1553   21.3947  -33.7285 H   0  0  0  0  0  0  0  0  0  0  0  0
   -3.8492   21.9924  -33.7285 H   0  0  0  0  0  0  0  0  0  0  0  0
   -4.4280   15.5100  -35.0150 H   0  0  0  0  0  0  0  0  0  0  0  0
   -4.7940   17.2190  -35.4240 H   0  0  0  0  0  0  0  0  0  0  0  0
   -8.2849   17.0837  -32.6785 H   0  0  0  0  0  0  0  0  0  0  0  0
   -9.8286   19.3006  -31.7507 H   0  0  0  0  0  0  0  0  0  0  0  0
   -9.7152   21.7762  -31.3077 H   0  0  0  0  0  0  0  0  0  0  0  0
   -6.9494   23.9268  -32.4216 H   0  0  0  0  0  0  0  0  0  0  0  0
   -8.5888   23.8489  -31.6733 H   0  0  0  0  0  0  0  0  0  0  0  0
   -7.7676   23.7911  -29.5377 H   0  0  0  0  0  0  0  0  0  0  0  0
   -6.3025   22.8363  -30.0327 H   0  0  0  0  0  0  0  0  0  0  0  0
   -6.5865   25.7365  -30.8465 H   0  0  0  0  0  0  0  0  0  0  0  0
   -6.0010   25.2816  -29.1911 H   0  0  0  0  0  0  0  0  0  0  0  0
   -5.5514   21.8159  -32.6006 H   0  0  0  0  0  0  0  0  0  0  0  0
  1  2  1  0
  2  3  1  0
  3  4  2  0
  3  5  1  0
  5  6  1  0
  6  7  1  0
  7  8  1  0
  7  9  2  0
  6 10  2  0
 10 11  1  0
 11 12  2  0
 12 13  1  0
 13 14  2  0
 14 15  1  0
 15 16  1  0
 16 17  1  0
 17 18  1  0
 18 19  2  0
 18 20  1  0
 14 21  1  0
 21 22  2  0
 22  5  1  0
 22 11  1  0
  1 23  1  0
  1 24  1  0
  1 25  1  0
  8 26  1  0
  8 27  1  0
 10 28  1  0
 12 29  1  0
 13 30  1  0
 15 31  1  0
 15 32  1  0
 16 33  1  0
 16 34  1  0
 17 35  1  0
 17 36  1  0
 21 37  1  0
M  CHG  1  20  -1
M  END
>  <UniqueID>  (58) 
58

>  <SMILES>  (58) 
COC(=O)n1c(C(N)=O)cc2ccc(CCCC(=O)[O-])cc21

>  <Energy>  (58) 
68.33285793891318

>  <Genealogy>  (58) 
COC(=O)n1c(C(N)=O)cc2ccc(CCCC(=O)[O-])cc21 (protonated)
COC(=O)n1c(C(N)=O)cc2ccc(CCCC(=O)[O-])cc21 (3D coordinates assigned)
COC(=O)n1c(C(N)=O)cc2ccc(CCCC(=O)[O-])cc21 (optimized conformer: 68.33285793891318 kcal/mol)

>  <smiles>  (58) 
COC(=O)n1c(C(N)=O)cc2ccc(CCCC(=O)O)cc21

>  <score_type>  (58) 
oracle

>  <origin>  (58) 
adg

>  <m_score__min__energy>  (58) 
-10.01

>  <m_primary>  (58) 
energy

$$$$
58:0
     RDKit          3D

 50 52  0  0  0  0  0  0  0  0999 V2000
   -2.0830   18.2080  -34.2410 C   0  0  0  0  0  0  0  0  0  0  0  0
   -2.6160   19.3330  -33.7540 C   0  0  0  0  0  0  0  0  0  0  0  0
   -2.3490   19.7980  -32.3480 C   0  0  0  0  0  0  0  0  0  0  0  0
   -1.8300   21.2400  -32.3150 C   0  0  0  0  0  0  0  0  0  0  0  0
   -2.9010   22.1790  -32.3920 O   0  0  0  0  0  0  0  0  0  0  0  0
   -3.5740   22.6740  -31.2690 C   0  0  0  0  0  0  0  0  0  0  0  0
   -2.9350   23.0030  -30.2340 O   0  0  0  0  0  0  0  0  0  0  0  0
   -5.0010   22.8230  -31.3070 N   0  0  0  0  0  0  0  0  0  0  0  0
   -5.7330   23.9460  -31.0540 C   0  0  0  0  0  0  0  0  0  0  0  0
   -5.2110   25.2240  -30.5310 C   0  0  0  0  0  0  0  0  0  0  0  0
   -3.8900   25.6610  -30.8430 N   0  0  0  0  0  0  0  0  0  0  0  0
   -5.9220   25.9190  -29.7560 O   0  0  0  0  0  0  0  0  0  0  0  0
   -7.0890   23.7020  -31.2700 C   0  0  0  0  0  0  0  0  0  0  0  0
   -7.1660   22.3830  -31.6550 C   0  0  0  0  0  0  0  0  0  0  0  0
   -8.2720   21.6150  -32.0000 C   0  0  0  0  0  0  0  0  0  0  0  0
   -8.0560   20.2800  -32.3810 C   0  0  0  0  0  0  0  0  0  0  0  0
   -6.7450   19.7370  -32.4150 C   0  0  0  0  0  0  0  0  0  0  0  0
   -6.5320   18.2950  -32.8390 C   0  0  0  0  0  0  0  0  0  0  0  0
   -6.1340   18.1920  -34.3310 C   0  0  0  0  0  0  0  0  0  0  0  0
   -5.1270   17.0560  -34.6030 C   0  0  0  0  0  0  0  0  0  0  0  0
   -5.3830   15.8540  -33.7830 N   0  0  0  0  0  0  0  0  0  0  0  0
   -6.5960   15.1400  -34.2190 C   0  0  0  0  0  0  0  0  0  0  0  0
   -5.3720   16.1080  -32.3180 C   0  0  0  0  0  0  0  0  0  0  0  0
   -5.5090   17.5940  -31.9340 C   0  0  0  0  0  0  0  0  0  0  0  0
   -5.6450   20.5560  -32.0600 C   0  0  0  0  0  0  0  0  0  0  0  0
   -5.8940   21.8750  -31.6680 C   0  0  0  0  0  0  0  0  0  0  0  0
   -2.3002   17.8988  -35.2741 H   0  0  0  0  0  0  0  0  0  0  0  0
   -1.4272   17.5915  -33.6087 H   0  0  0  0  0  0  0  0  0  0  0  0
   -3.2695   19.9371  -34.4006 H   0  0  0  0  0  0  0  0  0  0  0  0
   -3.2838   19.7426  -31.7709 H   0  0  0  0  0  0  0  0  0  0  0  0
   -1.5770   19.1464  -31.9128 H   0  0  0  0  0  0  0  0  0  0  0  0
   -1.2792   21.4010  -31.3765 H   0  0  0  0  0  0  0  0  0  0  0  0
   -1.1724   21.3919  -33.1836 H   0  0  0  0  0  0  0  0  0  0  0  0
   -3.0550   25.1650  -30.4610 H   0  0  0  0  0  0  0  0  0  0  0  0
   -7.9206   24.4130  -31.1567 H   0  0  0  0  0  0  0  0  0  0  0  0
   -9.2863   22.0398  -31.9755 H   0  0  0  0  0  0  0  0  0  0  0  0
   -8.9132   19.6480  -32.6563 H   0  0  0  0  0  0  0  0  0  0  0  0
   -7.4925   17.7717  -32.7222 H   0  0  0  0  0  0  0  0  0  0  0  0
   -7.0412   18.0073  -34.9250 H   0  0  0  0  0  0  0  0  0  0  0  0
   -5.6492   19.1389  -34.6110 H   0  0  0  0  0  0  0  0  0  0  0  0
   -5.1909   16.7768  -35.6651 H   0  0  0  0  0  0  0  0  0  0  0  0
   -4.1270   17.4301  -34.3383 H   0  0  0  0  0  0  0  0  0  0  0  0
   -7.1623   14.8067  -33.3368 H   0  0  0  0  0  0  0  0  0  0  0  0
   -7.2212   15.8142  -34.8228 H   0  0  0  0  0  0  0  0  0  0  0  0
   -6.3100   14.2662  -34.8228 H   0  0  0  0  0  0  0  0  0  0  0  0
   -6.2093   15.5562  -31.8658 H   0  0  0  0  0  0  0  0  0  0  0  0
   -4.3919   15.7744  -31.9465 H   0  0  0  0  0  0  0  0  0  0  0  0
   -5.8415   17.6677  -30.8881 H   0  0  0  0  0  0  0  0  0  0  0  0
   -4.5318   18.0835  -32.0586 H   0  0  0  0  0  0  0  0  0  0  0  0
   -4.6180   20.1632  -32.0920 H   0  0  0  0  0  0  0  0  0  0  0  0
  1  2  2  0
  2  3  1  0
  3  4  1  0
  4  5  1  0
  5  6  1  0
  6  7  2  0
  6  8  1  0
  8  9  1  0
  9 10  1  0
 10 11  1  0
 10 12  2  0
  9 13  2  0
 13 14  1  0
 14 15  2  0
 15 16  1  0
 16 17  2  0
 17 18  1  0
 18 19  1  0
 19 20  1  0
 20 21  1  0
 21 22  1  0
 21 23  1  0
 23 24  1  0
 17 25  1  0
 25 26  2  0
 26  8  1  0
 26 14  1  0
 24 18  1  0
  1 27  1  0
  1 28  1  0
  2 29  1  0
  3 30  1  0
  3 31  1  0
  4 32  1  0
  4 33  1  0
 11 34  1  0
 13 35  1  0
 15 36  1  0
 16 37  1  0
 18 38  1  0
 19 39  1  0
 19 40  1  0
 20 41  1  0
 20 42  1  0
 22 43  1  0
 22 44  1  0
 22 45  1  0
 23 46  1  0
 23 47  1  0
 24 48  1  0
 24 49  1  0
 25 50  1  0
M  CHG  1  11  -1
M  END
>  <UniqueID>  (59) 
59

>  <SMILES>  (59) 
C=CCCOC(=O)n1c(C([NH-])=O)cc2ccc(C3CCN(C)CC3)cc21

>  <Energy>  (59) 
92.605780423032

>  <Genealogy>  (59) 
C=CCCOC(=O)n1c(C([NH-])=O)cc2ccc(C3CCN(C)CC3)cc21 (protonated)
C=CCCOC(=O)n1c(C([NH-])=O)cc2ccc(C3CCN(C)CC3)cc21 (3D coordinates assigned)
C=CCCOC(=O)n1c(C([NH-])=O)cc2ccc(C3CCN(C)CC3)cc21 (nonaromatic ring conformer: 92.605780423032 kcal/mol)

>  <smiles>  (59) 
C=CCCOC(=O)n1c(C(N)=O)cc2ccc(C3CCN(C)CC3)cc21

>  <score_type>  (59) 
oracle

>  <origin>  (59) 
adg

>  <m_score__min__energy>  (59) 
-11.09

>  <m_primary>  (59) 
energy

$$$$
59:0
     RDKit          3D

 24 25  0  0  0  0  0  0  0  0999 V2000
   -5.4890   20.2910  -33.3140 C   0  0  0  0  0  0  0  0  0  0  0  0
   -4.2730   20.7770  -32.5820 C   0  0  0  0  0  0  0  0  0  0  0  0
   -3.1120   19.9680  -32.5210 C   0  0  0  0  0  0  0  0  0  0  0  0
   -1.9840   20.3890  -31.7970 C   0  0  0  0  0  0  0  0  0  0  0  0
   -2.0500   21.6150  -31.1430 C   0  0  0  0  0  0  0  0  0  0  0  0
   -1.1190   22.2440  -30.3480 C   0  0  0  0  0  0  0  0  0  0  0  0
   -1.7220   23.4320  -29.9420 C   0  0  0  0  0  0  0  0  0  0  0  0
   -1.0300   24.4590  -29.1350 C   0  0  0  0  0  0  0  0  0  0  0  0
   -1.6050   25.7470  -28.9350 N   0  0  0  0  0  0  0  0  0  0  0  0
    0.1090   24.2110  -28.6560 O   0  0  0  0  0  0  0  0  0  0  0  0
   -2.9820   23.5310  -30.4570 N   0  0  0  0  0  0  0  0  0  0  0  0
   -3.9590   24.5540  -30.2090 C   0  0  0  0  0  0  0  0  0  0  0  0
   -3.8650   25.6750  -30.7750 O   0  0  0  0  0  0  0  0  0  0  0  0
   -5.0040   24.3260  -29.3230 O   0  0  0  0  0  0  0  0  0  0  0  0
   -3.1650   22.4120  -31.1930 C   0  0  0  0  0  0  0  0  0  0  0  0
   -4.3090   22.0080  -31.8910 C   0  0  0  0  0  0  0  0  0  0  0  0
   -6.2561   19.9844  -32.5876 H   0  0  0  0  0  0  0  0  0  0  0  0
   -5.8846   21.1001  -33.9455 H   0  0  0  0  0  0  0  0  0  0  0  0
   -5.2179   19.4321  -33.9455 H   0  0  0  0  0  0  0  0  0  0  0  0
   -3.0933   19.0012  -33.0453 H   0  0  0  0  0  0  0  0  0  0  0  0
   -1.0770   19.7686  -31.7488 H   0  0  0  0  0  0  0  0  0  0  0  0
   -0.1123   21.8847  -30.0884 H   0  0  0  0  0  0  0  0  0  0  0  0
   -2.6390   25.8850  -28.9690 H   0  0  0  0  0  0  0  0  0  0  0  0
   -5.2136   22.6338  -31.9010 H   0  0  0  0  0  0  0  0  0  0  0  0
  1  2  1  0
  2  3  2  0
  3  4  1  0
  4  5  2  0
  5  6  1  0
  6  7  2  0
  7  8  1  0
  8  9  1  0
  8 10  2  0
  7 11  1  0
 11 12  1  0
 12 13  2  0
 12 14  1  0
 11 15  1  0
 15 16  2  0
 16  2  1  0
 15  5  1  0
  1 17  1  0
  1 18  1  0
  1 19  1  0
  3 20  1  0
  4 21  1  0
  6 22  1  0
  9 23  1  0
 16 24  1  0
M  CHG  2   9  -1  14  -1
M  END
>  <UniqueID>  (60) 
60

>  <SMILES>  (60) 
Cc1ccc2cc(C([NH-])=O)n(C(=O)[O-])c2c1

>  <Energy>  (60) 
63.793267574038886

>  <Genealogy>  (60) 
Cc1ccc2cc(C([NH-])=O)n(C(=O)[O-])c2c1 (protonated)
Cc1ccc2cc(C([NH-])=O)n(C(=O)[O-])c2c1 (3D coordinates assigned)
Cc1ccc2cc(C([NH-])=O)n(C(=O)[O-])c2c1 (optimized conformer: 63.793267574038886 kcal/mol)

>  <smiles>  (60) 
Cc1ccc2cc(C(N)=O)n(C(=O)O)c2c1

>  <score_type>  (60) 
oracle

>  <origin>  (60) 
adg

>  <m_score__min__energy>  (60) 
-9.8100000000000005

>  <m_primary>  (60) 
energy

$$$$
60:0
     RDKit          3D

 44 45  0  0  0  0  0  0  0  0999 V2000
   -5.8380   18.3310  -34.7260 C   0  0  0  0  0  0  0  0  0  0  0  0
   -5.4120   18.5330  -33.2630 C   0  0  0  0  0  0  0  0  0  0  0  0
   -6.3110   17.6660  -32.3600 C   0  0  0  0  0  0  0  0  0  0  0  0
   -3.9350   18.1290  -33.1110 C   0  0  0  0  0  0  0  0  0  0  0  0
   -5.5870   19.9240  -32.9620 O   0  0  0  0  0  0  0  0  0  0  0  0
   -5.4930   20.5230  -31.6960 C   0  0  0  0  0  0  0  0  0  0  0  0
   -4.6640   20.1050  -30.8440 O   0  0  0  0  0  0  0  0  0  0  0  0
   -6.3580   21.6220  -31.3700 N   0  0  0  0  0  0  0  0  0  0  0  0
   -7.6890   21.7420  -31.6380 C   0  0  0  0  0  0  0  0  0  0  0  0
   -8.5570   20.6870  -32.1980 C   0  0  0  0  0  0  0  0  0  0  0  0
   -8.2630   20.0770  -33.4560 N   0  0  0  0  0  0  0  0  0  0  0  0
   -9.5440   20.2790  -31.5290 O   0  0  0  0  0  0  0  0  0  0  0  0
   -8.1550   22.9970  -31.2580 C   0  0  0  0  0  0  0  0  0  0  0  0
   -7.0620   23.6450  -30.7290 C   0  0  0  0  0  0  0  0  0  0  0  0
   -6.9500   24.9280  -30.2020 C   0  0  0  0  0  0  0  0  0  0  0  0
   -5.6880   25.3460  -29.7510 C   0  0  0  0  0  0  0  0  0  0  0  0
   -4.5600   24.4940  -29.8420 C   0  0  0  0  0  0  0  0  0  0  0  0
   -3.2840   24.9760  -29.3740 N   0  0  0  0  0  0  0  0  0  0  0  0
   -2.1380   24.1350  -29.0190 C   0  0  0  0  0  0  0  0  0  0  0  0
   -0.8590   24.9660  -28.8890 C   0  0  0  0  0  0  0  0  0  0  0  0
   -1.1120   26.3270  -29.1120 O   0  0  0  0  0  0  0  0  0  0  0  0
   -4.7140   23.2000  -30.3980 C   0  0  0  0  0  0  0  0  0  0  0  0
   -5.9890   22.7960  -30.8120 C   0  0  0  0  0  0  0  0  0  0  0  0
   -6.8315   17.8599  -34.7569 H   0  0  0  0  0  0  0  0  0  0  0  0
   -5.8785   19.3058  -35.2340 H   0  0  0  0  0  0  0  0  0  0  0  0
   -5.1089   17.6827  -35.2340 H   0  0  0  0  0  0  0  0  0  0  0  0
   -6.0875   17.8815  -31.3047 H   0  0  0  0  0  0  0  0  0  0  0  0
   -7.3670   17.8953  -32.5654 H   0  0  0  0  0  0  0  0  0  0  0  0
   -6.1201   16.6023  -32.5654 H   0  0  0  0  0  0  0  0  0  0  0  0
   -3.6819   18.0598  -32.0428 H   0  0  0  0  0  0  0  0  0  0  0  0
   -3.7706   17.1529  -33.5908 H   0  0  0  0  0  0  0  0  0  0  0  0
   -3.2967   18.8855  -33.5908 H   0  0  0  0  0  0  0  0  0  0  0  0
   -8.9130   19.3630  -33.8560 H   0  0  0  0  0  0  0  0  0  0  0  0
   -7.3640   20.2660  -33.9510 H   0  0  0  0  0  0  0  0  0  0  0  0
   -9.1783   23.3877  -31.3589 H   0  0  0  0  0  0  0  0  0  0  0  0
   -7.8233   25.5940  -30.1407 H   0  0  0  0  0  0  0  0  0  0  0  0
   -5.5732   26.3515  -29.3199 H   0  0  0  0  0  0  0  0  0  0  0  0
   -3.1520   26.0100  -29.2820 H   0  0  0  0  0  0  0  0  0  0  0  0
   -2.3417   23.6379  -28.0591 H   0  0  0  0  0  0  0  0  0  0  0  0
   -1.9908   23.3928  -29.8174 H   0  0  0  0  0  0  0  0  0  0  0  0
   -0.4502   24.8387  -27.8758 H   0  0  0  0  0  0  0  0  0  0  0  0
   -0.1398   24.6177  -29.6449 H   0  0  0  0  0  0  0  0  0  0  0  0
   -1.2320   26.4410  -30.0910 H   0  0  0  0  0  0  0  0  0  0  0  0
   -3.8502   22.5270  -30.5022 H   0  0  0  0  0  0  0  0  0  0  0  0
  1  2  1  0
  2  3  1  0
  2  4  1  0
  2  5  1  0
  5  6  1  0
  6  7  2  0
  6  8  1  0
  8  9  1  0
  9 10  1  0
 10 11  1  0
 10 12  2  0
  9 13  2  0
 13 14  1  0
 14 15  2  0
 15 16  1  0
 16 17  2  0
 17 18  1  0
 18 19  1  0
 19 20  1  0
 20 21  1  0
 17 22  1  0
 22 23  2  0
 23  8  1  0
 23 14  1  0
  1 24  1  0
  1 25  1  0
  1 26  1  0
  3 27  1  0
  3 28  1  0
  3 29  1  0
  4 30  1  0
  4 31  1  0
  4 32  1  0
 11 33  1  0
 11 34  1  0
 13 35  1  0
 15 36  1  0
 16 37  1  0
 18 38  1  0
 19 39  1  0
 19 40  1  0
 20 41  1  0
 20 42  1  0
 21 43  1  0
 22 44  1  0
M  END
>  <UniqueID>  (61) 
61

>  <SMILES>  (61) 
CC(C)(C)OC(=O)n1c(C(N)=O)cc2ccc(NCCO)cc21

>  <Energy>  (61) 
75.73513800498789

>  <Genealogy>  (61) 
CC(C)(C)OC(=O)n1c(C(N)=O)cc2ccc(NCCO)cc21 (3D coordinates assigned)
CC(C)(C)OC(=O)n1c(C(N)=O)cc2ccc(NCCO)cc21 (optimized conformer: 75.73513800498789 kcal/mol)

>  <smiles>  (61) 
CC(C)(C)OC(=O)n1c(C(N)=O)cc2ccc(NCCO)cc21

>  <score_type>  (61) 
oracle

>  <origin>  (61) 
adg

>  <m_score__min__energy>  (61) 
-8.5399999999999991

>  <m_primary>  (61) 
energy

$$$$
61:0
     RDKit          3D

 38 39  0  0  0  0  0  0  0  0999 V2000
   -8.4620   18.5160  -32.3260 C   0  0  0  0  0  0  0  0  0  0  0  0
   -6.9390   18.6630  -32.5310 C   0  0  0  0  0  0  0  0  0  0  0  0
   -6.5210   17.7800  -33.7260 C   0  0  0  0  0  0  0  0  0  0  0  0
   -6.2260   18.1860  -31.2480 C   0  0  0  0  0  0  0  0  0  0  0  0
   -6.6290   20.1610  -32.8130 C   0  0  0  0  0  0  0  0  0  0  0  0
   -5.3130   20.3820  -33.4260 N   0  0  0  0  0  0  0  0  0  0  0  0
   -4.1580   20.8040  -32.6740 C   0  0  0  0  0  0  0  0  0  0  0  0
   -2.9690   20.0250  -32.6340 C   0  0  0  0  0  0  0  0  0  0  0  0
   -1.8580   20.4490  -31.8860 C   0  0  0  0  0  0  0  0  0  0  0  0
   -1.9550   21.6520  -31.1950 C   0  0  0  0  0  0  0  0  0  0  0  0
   -1.0440   22.2780  -30.3780 C   0  0  0  0  0  0  0  0  0  0  0  0
   -1.6740   23.4430  -29.9460 C   0  0  0  0  0  0  0  0  0  0  0  0
   -1.0080   24.4640  -29.1110 C   0  0  0  0  0  0  0  0  0  0  0  0
   -1.5700   25.7640  -28.9550 N   0  0  0  0  0  0  0  0  0  0  0  0
    0.0980   24.2010  -28.5680 O   0  0  0  0  0  0  0  0  0  0  0  0
   -2.9300   23.5290  -30.4690 N   0  0  0  0  0  0  0  0  0  0  0  0
   -3.9300   24.5240  -30.1920 C   0  0  0  0  0  0  0  0  0  0  0  0
   -3.8680   25.6570  -30.7380 O   0  0  0  0  0  0  0  0  0  0  0  0
   -4.9890   24.2360  -29.3410 O   0  0  0  0  0  0  0  0  0  0  0  0
   -3.0860   22.4260  -31.2350 C   0  0  0  0  0  0  0  0  0  0  0  0
   -4.2140   22.0190  -31.9560 C   0  0  0  0  0  0  0  0  0  0  0  0
   -8.6867   18.4943  -31.2494 H   0  0  0  0  0  0  0  0  0  0  0  0
   -8.9786   19.3685  -32.7913 H   0  0  0  0  0  0  0  0  0  0  0  0
   -8.8060   17.5805  -32.7913 H   0  0  0  0  0  0  0  0  0  0  0  0
   -6.0782   16.8445  -33.3535 H   0  0  0  0  0  0  0  0  0  0  0  0
   -7.4053   17.5488  -34.3381 H   0  0  0  0  0  0  0  0  0  0  0  0
   -5.7817   18.3174  -34.3381 H   0  0  0  0  0  0  0  0  0  0  0  0
   -6.7732   18.5521  -30.3668 H   0  0  0  0  0  0  0  0  0  0  0  0
   -6.1977   17.0865  -31.2314 H   0  0  0  0  0  0  0  0  0  0  0  0
   -5.1989   18.5795  -31.2314 H   0  0  0  0  0  0  0  0  0  0  0  0
   -7.3998   20.5541  -33.4922 H   0  0  0  0  0  0  0  0  0  0  0  0
   -6.6246   20.6786  -31.8424 H   0  0  0  0  0  0  0  0  0  0  0  0
   -5.1870   20.2350  -34.4510 H   0  0  0  0  0  0  0  0  0  0  0  0
   -2.9186   19.0801  -33.1949 H   0  0  0  0  0  0  0  0  0  0  0  0
   -0.9381   19.8470  -31.8480 H   0  0  0  0  0  0  0  0  0  0  0  0
   -0.0321   21.9324  -30.1200 H   0  0  0  0  0  0  0  0  0  0  0  0
   -2.6040   25.9080  -28.9700 H   0  0  0  0  0  0  0  0  0  0  0  0
   -5.1265   22.6333  -31.9635 H   0  0  0  0  0  0  0  0  0  0  0  0
  1  2  1  0
  2  3  1  0
  2  4  1  0
  2  5  1  0
  5  6  1  0
  6  7  1  0
  7  8  2  0
  8  9  1  0
  9 10  2  0
 10 11  1  0
 11 12  2  0
 12 13  1  0
 13 14  1  0
 13 15  2  0
 12 16  1  0
 16 17  1  0
 17 18  2  0
 17 19  1  0
 16 20  1  0
 20 21  2  0
 21  7  1  0
 20 10  1  0
  1 22  1  0
  1 23  1  0
  1 24  1  0
  3 25  1  0
  3 26  1  0
  3 27  1  0
  4 28  1  0
  4 29  1  0
  4 30  1  0
  5 31  1  0
  5 32  1  0
  6 33  1  0
  8 34  1  0
  9 35  1  0
 11 36  1  0
 14 37  1  0
 21 38  1  0
M  CHG  2  14  -1  19  -1
M  END
>  <UniqueID>  (62) 
62

>  <SMILES>  (62) 
CC(C)(C)CNc1ccc2cc(C([NH-])=O)n(C(=O)[O-])c2c1

>  <Energy>  (62) 
73.30487314269045

>  <Genealogy>  (62) 
CC(C)(C)CNc1ccc2cc(C([NH-])=O)n(C(=O)[O-])c2c1 (protonated)
CC(C)(C)CNc1ccc2cc(C([NH-])=O)n(C(=O)[O-])c2c1 (3D coordinates assigned)
CC(C)(C)CNc1ccc2cc(C([NH-])=O)n(C(=O)[O-])c2c1 (optimized conformer: 73.30487314269045 kcal/mol)

>  <smiles>  (62) 
CC(C)(C)CNc1ccc2cc(C(N)=O)n(C(=O)O)c2c1

>  <score_type>  (62) 
oracle

>  <origin>  (62) 
adg

>  <m_score__min__energy>  (62) 
-11.460000000000001

>  <m_primary>  (62) 
energy

$$$$
62:0
     RDKit          3D

 31 32  0  0  0  0  0  0  0  0999 V2000
   -9.0170   20.4580  -32.1200 C   0  0  0  0  0  0  0  0  0  0  0  0
   -7.8410   19.6010  -32.5910 C   0  0  0  0  0  0  0  0  0  0  0  0
   -6.8610   20.3850  -33.4750 C   0  0  0  0  0  0  0  0  0  0  0  0
   -5.5760   20.7000  -32.7520 C   0  0  0  0  0  0  0  0  0  0  0  0
   -4.4640   19.8300  -32.8750 C   0  0  0  0  0  0  0  0  0  0  0  0
   -3.2480   20.1300  -32.2390 C   0  0  0  0  0  0  0  0  0  0  0  0
   -3.1750   21.2990  -31.4880 C   0  0  0  0  0  0  0  0  0  0  0  0
   -2.1160   21.8430  -30.7990 C   0  0  0  0  0  0  0  0  0  0  0  0
   -2.6000   23.0280  -30.2500 C   0  0  0  0  0  0  0  0  0  0  0  0
   -1.8030   23.9000  -29.3610 C   0  0  0  0  0  0  0  0  0  0  0  0
   -2.0540   25.3040  -29.3370 N   0  0  0  0  0  0  0  0  0  0  0  0
   -0.8800   23.4260  -28.6490 O   0  0  0  0  0  0  0  0  0  0  0  0
   -3.9080   23.2130  -30.5920 N   0  0  0  0  0  0  0  0  0  0  0  0
   -4.7480   24.3360  -30.2800 C   0  0  0  0  0  0  0  0  0  0  0  0
   -4.4810   25.6140  -30.8530 N   0  0  0  0  0  0  0  0  0  0  0  0
   -5.7190   24.2010  -29.4890 O   0  0  0  0  0  0  0  0  0  0  0  0
   -4.2450   22.1450  -31.3480 C   0  0  0  0  0  0  0  0  0  0  0  0
   -5.4630   21.8810  -31.9850 C   0  0  0  0  0  0  0  0  0  0  0  0
   -9.0408   20.4754  -31.0204 H   0  0  0  0  0  0  0  0  0  0  0  0
   -8.8990   21.4834  -32.5004 H   0  0  0  0  0  0  0  0  0  0  0  0
   -9.9569   20.0316  -32.5004 H   0  0  0  0  0  0  0  0  0  0  0  0
   -7.3000   19.2284  -31.7087 H   0  0  0  0  0  0  0  0  0  0  0  0
   -8.2483   18.7755  -33.1932 H   0  0  0  0  0  0  0  0  0  0  0  0
   -6.6287   19.7844  -34.3668 H   0  0  0  0  0  0  0  0  0  0  0  0
   -7.3384   21.3371  -33.7498 H   0  0  0  0  0  0  0  0  0  0  0  0
   -4.5540   18.9117  -33.4738 H   0  0  0  0  0  0  0  0  0  0  0  0
   -2.3798   19.4610  -32.3319 H   0  0  0  0  0  0  0  0  0  0  0  0
   -1.1013   21.4295  -30.7021 H   0  0  0  0  0  0  0  0  0  0  0  0
   -3.0300   25.6730  -29.3080 H   0  0  0  0  0  0  0  0  0  0  0  0
   -3.5120   26.0020  -30.8710 H   0  0  0  0  0  0  0  0  0  0  0  0
   -6.3108   22.5755  -31.8908 H   0  0  0  0  0  0  0  0  0  0  0  0
  1  2  1  0
  2  3  1  0
  3  4  1  0
  4  5  2  0
  5  6  1  0
  6  7  2  0
  7  8  1  0
  8  9  2  0
  9 10  1  0
 10 11  1  0
 10 12  2  0
  9 13  1  0
 13 14  1  0
 14 15  1  0
 14 16  2  0
 13 17  1  0
 17 18  2  0
 18  4  1  0
 17  7  1  0
  1 19  1  0
  1 20  1  0
  1 21  1  0
  2 22  1  0
  2 23  1  0
  3 24  1  0
  3 25  1  0
  5 26  1  0
  6 27  1  0
  8 28  1  0
 11 29  1  0
 15 30  1  0
 18 31  1  0
M  CHG  2  11  -1  15  -1
M  END
>  <UniqueID>  (63) 
63

>  <SMILES>  (63) 
CCCc1ccc2cc(C([NH-])=O)n(C([NH-])=O)c2c1

>  <Energy>  (63) 
65.00994573828548

>  <Genealogy>  (63) 
CCCc1ccc2cc(C([NH-])=O)n(C([NH-])=O)c2c1 (protonated)
CCCc1ccc2cc(C([NH-])=O)n(C([NH-])=O)c2c1 (3D coordinates assigned)
CCCc1ccc2cc(C([NH-])=O)n(C([NH-])=O)c2c1 (optimized conformer: 65.00994573828548 kcal/mol)

>  <smiles>  (63) 
CCCc1ccc2cc(C(N)=O)n(C(N)=O)c2c1

>  <score_type>  (63) 
oracle

>  <origin>  (63) 
adg

>  <m_score__min__energy>  (63) 
-10.130000000000001

>  <m_primary>  (63) 
energy

$$$$
63:0
     RDKit          3D

 41 43  0  0  0  0  0  0  0  0999 V2000
   -1.8700   20.9960  -32.2550 C   0  0  0  0  0  0  0  0  0  0  0  0
   -2.7010   22.1420  -32.3880 O   0  0  0  0  0  0  0  0  0  0  0  0
   -3.3980   22.6970  -31.3090 C   0  0  0  0  0  0  0  0  0  0  0  0
   -2.7730   23.1240  -30.3000 O   0  0  0  0  0  0  0  0  0  0  0  0
   -4.8320   22.7580  -31.3420 N   0  0  0  0  0  0  0  0  0  0  0  0
   -5.6240   23.8420  -31.0980 C   0  0  0  0  0  0  0  0  0  0  0  0
   -5.1720   25.1450  -30.5690 C   0  0  0  0  0  0  0  0  0  0  0  0
   -3.8750   25.6500  -30.8730 N   0  0  0  0  0  0  0  0  0  0  0  0
   -5.9250   25.8000  -29.7990 O   0  0  0  0  0  0  0  0  0  0  0  0
   -6.9610   23.5330  -31.3350 C   0  0  0  0  0  0  0  0  0  0  0  0
   -6.9660   22.2140  -31.7290 C   0  0  0  0  0  0  0  0  0  0  0  0
   -8.0290   21.3960  -32.0990 C   0  0  0  0  0  0  0  0  0  0  0  0
   -7.7410   20.0780  -32.4890 C   0  0  0  0  0  0  0  0  0  0  0  0
   -6.4030   19.6020  -32.5120 C   0  0  0  0  0  0  0  0  0  0  0  0
   -6.1100   18.2100  -32.9380 C   0  0  0  0  0  0  0  0  0  0  0  0
   -4.8080   17.6890  -32.8330 C   0  0  0  0  0  0  0  0  0  0  0  0
   -4.5340   16.3780  -33.2350 C   0  0  0  0  0  0  0  0  0  0  0  0
   -5.5540   15.5710  -33.7510 C   0  0  0  0  0  0  0  0  0  0  0  0
   -5.2110   13.9150  -34.2390 S   0  0  0  0  0  0  0  0  0  0  0  0
   -4.6340   12.9920  -32.8320 C   0  0  0  0  0  0  0  0  0  0  0  0
   -6.4580   13.2750  -34.7820 O   0  0  0  0  0  0  0  0  0  0  0  0
   -4.1580   13.9070  -35.3120 O   0  0  0  0  0  0  0  0  0  0  0  0
   -6.8540   16.0800  -33.8520 C   0  0  0  0  0  0  0  0  0  0  0  0
   -7.1310   17.3900  -33.4530 C   0  0  0  0  0  0  0  0  0  0  0  0
   -5.3510   20.4680  -32.1280 C   0  0  0  0  0  0  0  0  0  0  0  0
   -5.6700   21.7700  -31.7260 C   0  0  0  0  0  0  0  0  0  0  0  0
   -1.7126   20.7790  -31.1882 H   0  0  0  0  0  0  0  0  0  0  0  0
   -2.3543   20.1339  -32.7370 H   0  0  0  0  0  0  0  0  0  0  0  0
   -0.9001   21.1884  -32.7370 H   0  0  0  0  0  0  0  0  0  0  0  0
   -3.0250   25.2630  -30.4070 H   0  0  0  0  0  0  0  0  0  0  0  0
   -7.8287   24.2009  -31.2297 H   0  0  0  0  0  0  0  0  0  0  0  0
   -9.0633   21.7702  -32.0864 H   0  0  0  0  0  0  0  0  0  0  0  0
   -8.5617   19.4060  -32.7802 H   0  0  0  0  0  0  0  0  0  0  0  0
   -3.9992   18.3173  -32.4317 H   0  0  0  0  0  0  0  0  0  0  0  0
   -3.5126   15.9796  -33.1452 H   0  0  0  0  0  0  0  0  0  0  0  0
   -4.9499   13.4973  -31.9074 H   0  0  0  0  0  0  0  0  0  0  0  0
   -5.0592   11.9779  -32.8593 H   0  0  0  0  0  0  0  0  0  0  0  0
   -3.5361   12.9301  -32.8593 H   0  0  0  0  0  0  0  0  0  0  0  0
   -7.6612   15.4458  -34.2473 H   0  0  0  0  0  0  0  0  0  0  0  0
   -8.1545   17.7832  -33.5421 H   0  0  0  0  0  0  0  0  0  0  0  0
   -4.3060   20.1251  -32.1452 H   0  0  0  0  0  0  0  0  0  0  0  0
  1  2  1  0
  2  3  1  0
  3  4  2  0
  3  5  1  0
  5  6  1  0
  6  7  1  0
  7  8  1  0
  7  9  2  0
  6 10  2  0
 10 11  1  0
 11 12  2  0
 12 13  1  0
 13 14  2  0
 14 15  1  0
 15 16  2  0
 16 17  1  0
 17 18  2  0
 18 19  1  0
 19 20  1  0
 19 21  2  0
 19 22  2  0
 18 23  1  0
 23 24  2  0
 14 25  1  0
 25 26  2  0
 26  5  1  0
 26 11  1  0
 24 15  1  0
  1 27  1  0
  1 28  1  0
  1 29  1  0
  8 30  1  0
 10 31  1  0
 12 32  1  0
 13 33  1  0
 16 34  1  0
 17 35  1  0
 20 36  1  0
 20 37  1  0
 20 38  1  0
 23 39  1  0
 24 40  1  0
 25 41  1  0
M  CHG  1   8  -1
M  END
>  <UniqueID>  (64) 
64

>  <SMILES>  (64) 
COC(=O)n1c(C([NH-])=O)cc2ccc(-c3ccc(S(C)(=O)=O)cc3)cc21

>  <Energy>  (64) 
83.2774507181316

>  <Genealogy>  (64) 
COC(=O)n1c(C([NH-])=O)cc2ccc(-c3ccc(S(C)(=O)=O)cc3)cc21 (protonated)
COC(=O)n1c(C([NH-])=O)cc2ccc(-c3ccc(S(C)(=O)=O)cc3)cc21 (3D coordinates assigned)
COC(=O)n1c(C([NH-])=O)cc2ccc(-c3ccc(S(C)(=O)=O)cc3)cc21 (optimized conformer: 83.2774507181316 kcal/mol)

>  <smiles>  (64) 
COC(=O)n1c(C(N)=O)cc2ccc(-c3ccc(S(C)(=O)=O)cc3)cc21

>  <score_type>  (64) 
oracle

>  <origin>  (64) 
adg

>  <m_score__min__energy>  (64) 
-10.529999999999999

>  <m_primary>  (64) 
energy

$$$$
64:0
     RDKit          3D

 26 27  0  0  0  0  0  0  0  0999 V2000
   -8.3810   18.5690  -31.6870 N   0  0  0  0  0  0  0  0  0  0  0  0
   -7.8730   19.3930  -32.3210 C   0  0  0  0  0  0  0  0  0  0  0  0
   -7.2300   20.4380  -33.1240 C   0  0  0  0  0  0  0  0  0  0  0  0
   -5.8760   20.7580  -32.5580 C   0  0  0  0  0  0  0  0  0  0  0  0
   -4.8020   19.8490  -32.7230 C   0  0  0  0  0  0  0  0  0  0  0  0
   -3.5350   20.1300  -32.1840 C   0  0  0  0  0  0  0  0  0  0  0  0
   -3.3790   21.3170  -31.4720 C   0  0  0  0  0  0  0  0  0  0  0  0
   -2.2630   21.8430  -30.8640 C   0  0  0  0  0  0  0  0  0  0  0  0
   -2.6800   23.0500  -30.3060 C   0  0  0  0  0  0  0  0  0  0  0  0
   -1.8080   23.9040  -29.4730 C   0  0  0  0  0  0  0  0  0  0  0  0
   -2.0700   25.2970  -29.3280 N   0  0  0  0  0  0  0  0  0  0  0  0
   -0.8480   23.3870  -28.8420 O   0  0  0  0  0  0  0  0  0  0  0  0
   -4.0000   23.2660  -30.5660 N   0  0  0  0  0  0  0  0  0  0  0  0
   -4.7820   24.4280  -30.2500 C   0  0  0  0  0  0  0  0  0  0  0  0
   -4.4690   25.6870  -30.8400 N   0  0  0  0  0  0  0  0  0  0  0  0
   -5.7690   24.3350  -29.4720 O   0  0  0  0  0  0  0  0  0  0  0  0
   -4.4140   22.1940  -31.2780 C   0  0  0  0  0  0  0  0  0  0  0  0
   -5.6820   21.9470  -31.8200 C   0  0  0  0  0  0  0  0  0  0  0  0
   -7.1181   20.0849  -34.1598 H   0  0  0  0  0  0  0  0  0  0  0  0
   -7.8535   21.3440  -33.1051 H   0  0  0  0  0  0  0  0  0  0  0  0
   -4.9615   18.9133  -33.2789 H   0  0  0  0  0  0  0  0  0  0  0  0
   -2.6934   19.4349  -32.3200 H   0  0  0  0  0  0  0  0  0  0  0  0
   -1.2551   21.4040  -30.8262 H   0  0  0  0  0  0  0  0  0  0  0  0
   -3.0480   25.6620  -29.3210 H   0  0  0  0  0  0  0  0  0  0  0  0
   -3.4870   26.0430  -30.8570 H   0  0  0  0  0  0  0  0  0  0  0  0
   -6.5060   22.6610  -31.6746 H   0  0  0  0  0  0  0  0  0  0  0  0
  1  2  3  0
  2  3  1  0
  3  4  1  0
  4  5  2  0
  5  6  1  0
  6  7  2  0
  7  8  1  0
  8  9  2  0
  9 10  1  0
 10 11  1  0
 10 12  2  0
  9 13  1  0
 13 14  1  0
 14 15  1  0
 14 16  2  0
 13 17  1  0
 17 18  2  0
 18  4  1  0
 17  7  1  0
  3 19  1  0
  3 20  1  0
  5 21  1  0
  6 22  1  0
  8 23  1  0
 11 24  1  0
 15 25  1  0
 18 26  1  0
M  CHG  2  11  -1  15  -1
M  END
>  <UniqueID>  (65) 
65

>  <SMILES>  (65) 
N#CCc1ccc2cc(C([NH-])=O)n(C([NH-])=O)c2c1

>  <Energy>  (65) 
64.11367006602983

>  <Genealogy>  (65) 
N#CCc1ccc2cc(C([NH-])=O)n(C([NH-])=O)c2c1 (protonated)
N#CCc1ccc2cc(C([NH-])=O)n(C([NH-])=O)c2c1 (3D coordinates assigned)
N#CCc1ccc2cc(C([NH-])=O)n(C([NH-])=O)c2c1 (optimized conformer: 64.11367006602983 kcal/mol)

>  <smiles>  (65) 
N#CCc1ccc2cc(C(N)=O)n(C(N)=O)c2c1

>  <score_type>  (65) 
oracle

>  <origin>  (65) 
adg

>  <m_score__min__energy>  (65) 
-10.06

>  <m_primary>  (65) 
energy

$$$$
65:0
     RDKit          3D

 41 43  0  0  0  0  0  0  0  0999 V2000
   -6.3020   15.0600  -34.1810 C   0  0  0  0  0  0  0  0  0  0  0  0
   -6.8710   16.3280  -34.4950 O   0  0  0  0  0  0  0  0  0  0  0  0
   -6.4960   17.5360  -33.8900 C   0  0  0  0  0  0  0  0  0  0  0  0
   -5.3070   18.2060  -34.2220 C   0  0  0  0  0  0  0  0  0  0  0  0
   -4.9790   19.4100  -33.5950 C   0  0  0  0  0  0  0  0  0  0  0  0
   -5.8240   19.9620  -32.6220 C   0  0  0  0  0  0  0  0  0  0  0  0
   -5.4410   21.2430  -32.0000 C   0  0  0  0  0  0  0  0  0  0  0  0
   -6.1410   22.4300  -32.3240 C   0  0  0  0  0  0  0  0  0  0  0  0
   -5.7900   23.6520  -31.7270 C   0  0  0  0  0  0  0  0  0  0  0  0
   -4.7370   23.6530  -30.8160 C   0  0  0  0  0  0  0  0  0  0  0  0
   -4.2060   24.6850  -30.0790 C   0  0  0  0  0  0  0  0  0  0  0  0
   -3.1790   24.1150  -29.3280 C   0  0  0  0  0  0  0  0  0  0  0  0
   -2.2780   24.8970  -28.4580 C   0  0  0  0  0  0  0  0  0  0  0  0
   -1.5720   26.0280  -28.9620 N   0  0  0  0  0  0  0  0  0  0  0  0
   -2.1690   24.5950  -27.2390 O   0  0  0  0  0  0  0  0  0  0  0  0
   -3.0860   22.7790  -29.5830 N   0  0  0  0  0  0  0  0  0  0  0  0
   -2.2260   21.8180  -28.9510 C   0  0  0  0  0  0  0  0  0  0  0  0
   -0.9290   22.2020  -28.5000 N   0  0  0  0  0  0  0  0  0  0  0  0
   -2.6260   20.6390  -28.7620 O   0  0  0  0  0  0  0  0  0  0  0  0
   -4.0440   22.5120  -30.4990 C   0  0  0  0  0  0  0  0  0  0  0  0
   -4.3860   21.2780  -31.0630 C   0  0  0  0  0  0  0  0  0  0  0  0
   -7.0250   19.2940  -32.2790 C   0  0  0  0  0  0  0  0  0  0  0  0
   -8.0080   19.8800  -31.2900 C   0  0  0  0  0  0  0  0  0  0  0  0
   -9.1500   20.5360  -32.0060 C   0  0  0  0  0  0  0  0  0  0  0  0
   -9.8600   19.8900  -32.7600 O   0  0  0  0  0  0  0  0  0  0  0  0
   -7.3470   18.0880  -32.9270 C   0  0  0  0  0  0  0  0  0  0  0  0
   -6.2491   14.9422  -33.0886 H   0  0  0  0  0  0  0  0  0  0  0  0
   -6.9282   14.2617  -34.6060 H   0  0  0  0  0  0  0  0  0  0  0  0
   -5.2894   14.9971  -34.6060 H   0  0  0  0  0  0  0  0  0  0  0  0
   -4.6315   17.7807  -34.9789 H   0  0  0  0  0  0  0  0  0  0  0  0
   -4.0488   19.9302  -33.8672 H   0  0  0  0  0  0  0  0  0  0  0  0
   -6.9670   22.3951  -33.0496 H   0  0  0  0  0  0  0  0  0  0  0  0
   -6.3298   24.5787  -31.9714 H   0  0  0  0  0  0  0  0  0  0  0  0
   -4.5242   25.7380  -30.0814 H   0  0  0  0  0  0  0  0  0  0  0  0
   -1.2390   26.0550  -29.9520 H   0  0  0  0  0  0  0  0  0  0  0  0
   -0.7800   23.1110  -28.0070 H   0  0  0  0  0  0  0  0  0  0  0  0
   -3.8475   20.3604  -30.7838 H   0  0  0  0  0  0  0  0  0  0  0  0
   -8.3977   19.0761  -30.6483 H   0  0  0  0  0  0  0  0  0  0  0  0
   -7.4902   20.6359  -30.6813 H   0  0  0  0  0  0  0  0  0  0  0  0
   -9.3495   21.6066  -31.8509 H   0  0  0  0  0  0  0  0  0  0  0  0
   -8.2836   17.5703  -32.6723 H   0  0  0  0  0  0  0  0  0  0  0  0
  1  2  1  0
  2  3  1  0
  3  4  2  0
  4  5  1  0
  5  6  2  0
  6  7  1  0
  7  8  2  0
  8  9  1  0
  9 10  2  0
 10 11  1  0
 11 12  2  0
 12 13  1  0
 13 14  1  0
 13 15  2  0
 12 16  1  0
 16 17  1  0
 17 18  1  0
 17 19  2  0
 16 20  1  0
 20 21  2  0
  6 22  1  0
 22 23  1  0
 23 24  1  0
 24 25  2  0
 22 26  2  0
 26  3  1  0
 21  7  1  0
 20 10  1  0
  1 27  1  0
  1 28  1  0
  1 29  1  0
  4 30  1  0
  5 31  1  0
  8 32  1  0
  9 33  1  0
 11 34  1  0
 14 35  1  0
 18 36  1  0
 21 37  1  0
 23 38  1  0
 23 39  1  0
 24 40  1  0
 26 41  1  0
M  CHG  2  14  -1  18  -1
M  END
>  <UniqueID>  (66) 
66

>  <SMILES>  (66) 
COc1ccc(-c2ccc3cc(C([NH-])=O)n(C([NH-])=O)c3c2)c(CC=O)c1

>  <Energy>  (66) 
88.40641973072903

>  <Genealogy>  (66) 
COc1ccc(-c2ccc3cc(C([NH-])=O)n(C([NH-])=O)c3c2)c(CC=O)c1 (protonated)
COc1ccc(-c2ccc3cc(C([NH-])=O)n(C([NH-])=O)c3c2)c(CC=O)c1 (3D coordinates assigned)
COc1ccc(-c2ccc3cc(C([NH-])=O)n(C([NH-])=O)c3c2)c(CC=O)c1 (optimized conformer: 88.40641973072903 kcal/mol)

>  <smiles>  (66) 
COc1ccc(-c2ccc3cc(C(N)=O)n(C(N)=O)c3c2)c(CC=O)c1

>  <score_type>  (66) 
oracle

>  <origin>  (66) 
adg

>  <m_score__min__energy>  (66) 
-10.699999999999999

>  <m_primary>  (66) 
energy

$$$$
66:0
     RDKit          3D

 52 54  0  0  0  0  0  0  0  0999 V2000
   -1.9800   17.7700  -33.9500 C   0  0  0  0  0  0  0  0  0  0  0  0
   -3.1710   18.6830  -34.2220 C   0  0  0  0  0  0  0  0  0  0  0  0
   -4.3230   18.2260  -33.5160 O   0  0  0  0  0  0  0  0  0  0  0  0
   -5.6020   18.1680  -34.0840 C   0  0  0  0  0  0  0  0  0  0  0  0
   -5.8030   18.5540  -35.2680 O   0  0  0  0  0  0  0  0  0  0  0  0
   -6.7500   17.6840  -33.2560 C   0  0  0  0  0  0  0  0  0  0  0  0
   -6.7840   18.4250  -31.9190 C   0  0  0  0  0  0  0  0  0  0  0  0
   -7.7850   19.5470  -31.9550 C   0  0  0  0  0  0  0  0  0  0  0  0
   -8.7980   19.4720  -31.2690 O   0  0  0  0  0  0  0  0  0  0  0  0
   -7.5000   20.7860  -32.7640 C   0  0  0  0  0  0  0  0  0  0  0  0
   -6.3290   21.5660  -32.2220 C   0  0  0  0  0  0  0  0  0  0  0  0
   -6.5250   22.8400  -31.6660 C   0  0  0  0  0  0  0  0  0  0  0  0
   -5.4380   23.5750  -31.1880 C   0  0  0  0  0  0  0  0  0  0  0  0
   -5.7370   25.3010  -30.4170 Br  0  0  0  0  0  0  0  0  0  0  0  0
   -4.1420   23.0520  -31.2730 C   0  0  0  0  0  0  0  0  0  0  0  0
   -3.1050   23.7640  -30.7630 F   0  0  0  0  0  0  0  0  0  0  0  0
   -3.9260   21.7850  -31.8520 C   0  0  0  0  0  0  0  0  0  0  0  0
   -2.5570   21.2240  -31.9760 C   0  0  0  0  0  0  0  0  0  0  0  0
   -2.0230   20.3990  -30.9510 C   0  0  0  0  0  0  0  0  0  0  0  0
   -0.7310   19.8610  -31.0640 C   0  0  0  0  0  0  0  0  0  0  0  0
    0.0120   20.1780  -32.1950 C   0  0  0  0  0  0  0  0  0  0  0  0
    1.2750   19.7740  -32.5630 C   0  0  0  0  0  0  0  0  0  0  0  0
    1.5170   20.3950  -33.7840 C   0  0  0  0  0  0  0  0  0  0  0  0
    2.7980   20.2890  -34.5070 C   0  0  0  0  0  0  0  0  0  0  0  0
    2.9060   20.6730  -35.8770 N   0  0  0  0  0  0  0  0  0  0  0  0
    3.8280   19.8990  -33.8910 O   0  0  0  0  0  0  0  0  0  0  0  0
    0.4430   21.1410  -34.1680 N   0  0  0  0  0  0  0  0  0  0  0  0
    0.2720   21.8550  -35.4050 C   0  0  0  0  0  0  0  0  0  0  0  0
    0.4090   23.1050  -35.4420 O   0  0  0  0  0  0  0  0  0  0  0  0
   -0.0450   21.1760  -36.5730 O   0  0  0  0  0  0  0  0  0  0  0  0
   -0.4720   20.9990  -33.1820 C   0  0  0  0  0  0  0  0  0  0  0  0
   -1.7670   21.5250  -33.1100 C   0  0  0  0  0  0  0  0  0  0  0  0
   -5.0280   21.0500  -32.3220 C   0  0  0  0  0  0  0  0  0  0  0  0
   -1.8405   17.6630  -32.8641 H   0  0  0  0  0  0  0  0  0  0  0  0
   -2.1667   16.7814  -34.3948 H   0  0  0  0  0  0  0  0  0  0  0  0
   -1.0738   18.2070  -34.3948 H   0  0  0  0  0  0  0  0  0  0  0  0
   -2.9267   19.7040  -33.8936 H   0  0  0  0  0  0  0  0  0  0  0  0
   -3.3877   18.6728  -35.3004 H   0  0  0  0  0  0  0  0  0  0  0  0
   -7.6905   17.8660  -33.7966 H   0  0  0  0  0  0  0  0  0  0  0  0
   -6.6285   16.6071  -33.0673 H   0  0  0  0  0  0  0  0  0  0  0  0
   -7.0621   17.7191  -31.1225 H   0  0  0  0  0  0  0  0  0  0  0  0
   -5.7873   18.8481  -31.7251 H   0  0  0  0  0  0  0  0  0  0  0  0
   -7.2784   20.4891  -33.7997 H   0  0  0  0  0  0  0  0  0  0  0  0
   -8.3881   21.4330  -32.7131 H   0  0  0  0  0  0  0  0  0  0  0  0
   -7.5394   23.2613  -31.6066 H   0  0  0  0  0  0  0  0  0  0  0  0
   -2.6279   20.1791  -30.0590 H   0  0  0  0  0  0  0  0  0  0  0  0
   -0.3190   19.2079  -30.2806 H   0  0  0  0  0  0  0  0  0  0  0  0
    1.9491   19.1034  -32.0099 H   0  0  0  0  0  0  0  0  0  0  0  0
    3.8070   20.5400  -36.3880 H   0  0  0  0  0  0  0  0  0  0  0  0
    2.1150   21.1410  -36.3690 H   0  0  0  0  0  0  0  0  0  0  0  0
   -2.1618   22.1587  -33.9178 H   0  0  0  0  0  0  0  0  0  0  0  0
   -4.8688   20.0595  -32.7731 H   0  0  0  0  0  0  0  0  0  0  0  0
  1  2  1  0
  2  3  1  0
  3  4  1  0
  4  5  2  0
  4  6  1  0
  6  7  1  0
  7  8  1  0
  8  9  2  0
  8 10  1  0
 10 11  1  0
 11 12  2  0
 12 13  1  0
 13 14  1  0
 13 15  2  0
 15 16  1  0
 15 17  1  0
 17 18  1  0
 18 19  2  0
 19 20  1  0
 20 21  2  0
 21 22  1  0
 22 23  2  0
 23 24  1  0
 24 25  1  0
 24 26  2  0
 23 27  1  0
 27 28  1  0
 28 29  2  0
 28 30  1  0
 27 31  1  0
 31 32  2  0
 17 33  2  0
 33 11  1  0
 32 18  1  0
 31 21  1  0
  1 34  1  0
  1 35  1  0
  1 36  1  0
  2 37  1  0
  2 38  1  0
  6 39  1  0
  6 40  1  0
  7 41  1  0
  7 42  1  0
 10 43  1  0
 10 44  1  0
 12 45  1  0
 19 46  1  0
 20 47  1  0
 22 48  1  0
 25 49  1  0
 25 50  1  0
 32 51  1  0
 33 52  1  0
M  CHG  1  30  -1
M  END
>  <UniqueID>  (67) 
67

>  <SMILES>  (67) 
CCOC(=O)CCC(=O)Cc1cc(Br)c(F)c(-c2ccc3cc(C(N)=O)n(C(=O)[O-])c3c2)c1

>  <Energy>  (67) 
90.76206096125182

>  <Genealogy>  (67) 
CCOC(=O)CCC(=O)Cc1cc(Br)c(F)c(-c2ccc3cc(C(N)=O)n(C(=O)[O-])c3c2)c1 (protonated)
CCOC(=O)CCC(=O)Cc1cc(Br)c(F)c(-c2ccc3cc(C(N)=O)n(C(=O)[O-])c3c2)c1 (3D coordinates assigned)
CCOC(=O)CCC(=O)Cc1cc(Br)c(F)c(-c2ccc3cc(C(N)=O)n(C(=O)[O-])c3c2)c1 (optimized conformer: 90.76206096125182 kcal/mol)

>  <smiles>  (67) 
CCOC(=O)CCC(=O)Cc1cc(Br)c(F)c(-c2ccc3cc(C(N)=O)n(C(=O)O)c3c2)c1

>  <score_type>  (67) 
oracle

>  <origin>  (67) 
adg

>  <m_score__min__energy>  (67) 
-10.789999999999999

>  <m_primary>  (67) 
energy

$$$$
67:0
     RDKit          3D

 47 50  0  0  0  0  0  0  0  0999 V2000
   -3.9220   25.6500  -30.8650 N   0  0  0  0  0  0  0  0  0  0  0  0
   -5.1790   25.1540  -30.4120 C   0  0  0  0  0  0  0  0  0  0  0  0
   -5.7630   25.7300  -29.4550 O   0  0  0  0  0  0  0  0  0  0  0  0
   -5.7770   23.9430  -31.0110 C   0  0  0  0  0  0  0  0  0  0  0  0
   -7.1510   23.7460  -31.1320 C   0  0  0  0  0  0  0  0  0  0  0  0
   -7.2940   22.4740  -31.6370 C   0  0  0  0  0  0  0  0  0  0  0  0
   -8.4450   21.7620  -31.9560 C   0  0  0  0  0  0  0  0  0  0  0  0
   -8.2960   20.4700  -32.4830 C   0  0  0  0  0  0  0  0  0  0  0  0
   -7.0040   19.9140  -32.6960 C   0  0  0  0  0  0  0  0  0  0  0  0
   -6.8170   18.5190  -33.2650 C   0  0  1  0  0  0  0  0  0  0  0  0
   -6.0780   18.4750  -34.6010 C   0  0  0  0  0  0  0  0  0  0  0  0
   -4.9730   17.6260  -33.9660 C   0  0  1  0  0  0  0  0  0  0  0  0
   -3.6080   18.2820  -34.0020 C   0  0  0  0  0  0  0  0  0  0  0  0
   -3.5270   19.5380  -34.0810 O   0  0  0  0  0  0  0  0  0  0  0  0
   -2.4000   17.5040  -33.8880 N   0  0  0  0  0  0  0  0  0  0  0  0
   -1.2180   17.8960  -34.6650 C   0  0  0  0  0  0  0  0  0  0  0  0
    0.0580   17.4410  -33.9480 C   0  0  0  0  0  0  0  0  0  0  0  0
   -0.0130   16.0690  -33.6120 O   0  0  0  0  0  0  0  0  0  0  0  0
   -1.0440   15.8640  -32.6650 C   0  0  0  0  0  0  0  0  0  0  0  0
   -2.4120   16.1690  -33.2800 C   0  0  0  0  0  0  0  0  0  0  0  0
   -5.6990   17.7020  -32.6160 C   0  0  0  0  0  0  0  0  0  0  0  0
   -5.8600   20.6720  -32.3570 C   0  0  0  0  0  0  0  0  0  0  0  0
   -6.0410   21.9500  -31.8130 C   0  0  0  0  0  0  0  0  0  0  0  0
   -5.0970   22.8400  -31.4350 N   0  0  0  0  0  0  0  0  0  0  0  0
   -3.6760   22.6710  -31.5470 C   0  0  0  0  0  0  0  0  0  0  0  0
   -3.1220   21.9470  -32.6450 N   0  0  0  0  0  0  0  0  0  0  0  0
   -2.9110   23.1370  -30.6610 O   0  0  0  0  0  0  0  0  0  0  0  0
   -3.0280   25.2890  -30.4650 H   0  0  0  0  0  0  0  0  0  0  0  0
   -7.9514   24.4564  -30.8778 H   0  0  0  0  0  0  0  0  0  0  0  0
   -9.4426   22.1985  -31.7999 H   0  0  0  0  0  0  0  0  0  0  0  0
   -9.1895   19.8797  -32.7346 H   0  0  0  0  0  0  0  0  0  0  0  0
   -7.8606   18.1789  -33.1928 H   0  0  0  0  0  0  0  0  0  0  0  0
   -6.6312   17.9643  -35.4030 H   0  0  0  0  0  0  0  0  0  0  0  0
   -5.8283   19.4073  -35.1287 H   0  0  0  0  0  0  0  0  0  0  0  0
   -4.6957   16.6465  -34.3828 H   0  0  0  0  0  0  0  0  0  0  0  0
   -1.2639   17.4269  -35.6589 H   0  0  0  0  0  0  0  0  0  0  0  0
   -1.2020   18.9910  -34.7685 H   0  0  0  0  0  0  0  0  0  0  0  0
    0.9210   17.6053  -34.6100 H   0  0  0  0  0  0  0  0  0  0  0  0
    0.1673   18.0242  -33.0217 H   0  0  0  0  0  0  0  0  0  0  0  0
   -1.0240   14.8163  -32.3305 H   0  0  0  0  0  0  0  0  0  0  0  0
   -0.8808   16.5399  -31.8127 H   0  0  0  0  0  0  0  0  0  0  0  0
   -2.6404   15.4189  -34.0515 H   0  0  0  0  0  0  0  0  0  0  0  0
   -3.1785   16.1371  -32.4917 H   0  0  0  0  0  0  0  0  0  0  0  0
   -6.0241   16.7265  -32.2252 H   0  0  0  0  0  0  0  0  0  0  0  0
   -5.1784   18.0801  -31.7238 H   0  0  0  0  0  0  0  0  0  0  0  0
   -4.8498   20.2671  -32.5169 H   0  0  0  0  0  0  0  0  0  0  0  0
   -3.7350   21.5790  -33.4060 H   0  0  0  0  0  0  0  0  0  0  0  0
  1  2  1  0
  2  3  2  0
  2  4  1  0
  4  5  2  0
  5  6  1  0
  6  7  2  0
  7  8  1  0
  8  9  2  0
  9 10  1  0
 10 11  1  0
 11 12  1  0
 12 13  1  0
 13 14  2  0
 13 15  1  0
 15 16  1  0
 16 17  1  0
 17 18  1  0
 18 19  1  0
 19 20  1  0
 12 21  1  0
  9 22  1  0
 22 23  2  0
 23 24  1  0
 24 25  1  0
 25 26  1  0
 25 27  2  0
 24  4  1  0
 23  6  1  0
 21 10  1  0
 20 15  1  0
  1 28  1  0
  5 29  1  0
  7 30  1  0
  8 31  1  0
 10 32  1  6
 11 33  1  0
 11 34  1  0
 12 35  1  6
 16 36  1  0
 16 37  1  0
 17 38  1  0
 17 39  1  0
 19 40  1  0
 19 41  1  0
 20 42  1  0
 20 43  1  0
 21 44  1  0
 21 45  1  0
 22 46  1  0
 26 47  1  0
M  CHG  2   1  -1  26  -1
M  END
>  <UniqueID>  (68) 
68

>  <SMILES>  (68) 
[NH-]C(=O)c1cc2ccc(C3CC(C(=O)N4CCOCC4)C3)cc2n1C([NH-])=O

>  <Energy>  (68) 
154.19223054872697

>  <Genealogy>  (68) 
[NH-]C(=O)c1cc2ccc(C3CC(C(=O)N4CCOCC4)C3)cc2n1C([NH-])=O (protonated)
[NH-]C(=O)c1cc2ccc(C3CC(C(=O)N4CCOCC4)C3)cc2n1C([NH-])=O (3D coordinates assigned)
[NH-]C(=O)c1cc2ccc(C3CC(C(=O)N4CCOCC4)C3)cc2n1C([NH-])=O (nonaromatic ring conformer: 154.19223054872697 kcal/mol)

>  <smiles>  (68) 
NC(=O)c1cc2ccc(C3CC(C(=O)N4CCOCC4)C3)cc2n1C(N)=O

>  <score_type>  (68) 
oracle

>  <origin>  (68) 
adg

>  <m_score__min__energy>  (68) 
-12.56

>  <m_primary>  (68) 
energy

$$$$
68:0
     RDKit          3D

 40 42  0  0  0  0  0  0  0  0999 V2000
   -3.8380   23.1660  -28.0630 C   0  0  0  0  0  0  0  0  0  0  0  0
   -2.7240   22.5480  -28.9010 C   0  0  0  0  0  0  0  0  0  0  0  0
   -2.6400   23.1870  -30.1730 O   0  0  0  0  0  0  0  0  0  0  0  0
   -3.3040   22.7230  -31.3150 C   0  0  0  0  0  0  0  0  0  0  0  0
   -2.6510   22.2700  -32.2940 O   0  0  0  0  0  0  0  0  0  0  0  0
   -4.7400   22.7350  -31.3550 N   0  0  0  0  0  0  0  0  0  0  0  0
   -5.5780   23.7740  -31.0770 C   0  0  0  0  0  0  0  0  0  0  0  0
   -5.1820   25.0850  -30.5200 C   0  0  0  0  0  0  0  0  0  0  0  0
   -3.9250   25.6710  -30.8440 N   0  0  0  0  0  0  0  0  0  0  0  0
   -5.9460   25.6720  -29.7080 O   0  0  0  0  0  0  0  0  0  0  0  0
   -6.9020   23.4080  -31.3090 C   0  0  0  0  0  0  0  0  0  0  0  0
   -6.8510   22.0990  -31.7310 C   0  0  0  0  0  0  0  0  0  0  0  0
   -7.8770   21.2390  -32.1110 C   0  0  0  0  0  0  0  0  0  0  0  0
   -7.5310   19.9440  -32.5300 C   0  0  0  0  0  0  0  0  0  0  0  0
   -6.1740   19.5340  -32.5620 C   0  0  0  0  0  0  0  0  0  0  0  0
   -5.8200   18.1780  -33.0390 C   0  0  0  0  0  0  0  0  0  0  0  0
   -5.5200   17.9980  -34.4000 C   0  0  0  0  0  0  0  0  0  0  0  0
   -5.1320   16.7460  -34.8830 C   0  0  0  0  0  0  0  0  0  0  0  0
   -5.0410   15.6600  -34.0130 C   0  0  0  0  0  0  0  0  0  0  0  0
   -5.3470   15.8180  -32.6610 C   0  0  0  0  0  0  0  0  0  0  0  0
   -5.7480   17.0680  -32.1600 C   0  0  0  0  0  0  0  0  0  0  0  0
   -6.1170   17.1750  -30.7780 N   0  0  0  0  0  0  0  0  0  0  0  0
   -5.1580   20.4400  -32.1830 C   0  0  0  0  0  0  0  0  0  0  0  0
   -5.5350   21.7170  -31.7500 C   0  0  0  0  0  0  0  0  0  0  0  0
   -3.6075   23.0381  -26.9951 H   0  0  0  0  0  0  0  0  0  0  0  0
   -3.9194   24.2382  -28.2947 H   0  0  0  0  0  0  0  0  0  0  0  0
   -4.7908   22.6675  -28.2947 H   0  0  0  0  0  0  0  0  0  0  0  0
   -1.7663   22.6662  -28.3730 H   0  0  0  0  0  0  0  0  0  0  0  0
   -2.9449   21.4813  -29.0537 H   0  0  0  0  0  0  0  0  0  0  0  0
   -3.0370   25.2900  -30.4490 H   0  0  0  0  0  0  0  0  0  0  0  0
   -7.7983   24.0329  -31.1818 H   0  0  0  0  0  0  0  0  0  0  0  0
   -8.9276   21.5638  -32.0840 H   0  0  0  0  0  0  0  0  0  0  0  0
   -8.3200   19.2413  -32.8362 H   0  0  0  0  0  0  0  0  0  0  0  0
   -5.5913   18.8507  -35.0913 H   0  0  0  0  0  0  0  0  0  0  0  0
   -4.8982   16.6167  -35.9501 H   0  0  0  0  0  0  0  0  0  0  0  0
   -4.7273   14.6767  -34.3935 H   0  0  0  0  0  0  0  0  0  0  0  0
   -5.2737   14.9563  -31.9812 H   0  0  0  0  0  0  0  0  0  0  0  0
   -6.4680   18.0790  -30.3920 H   0  0  0  0  0  0  0  0  0  0  0  0
   -5.9790   16.3880  -30.1070 H   0  0  0  0  0  0  0  0  0  0  0  0
   -4.0980   20.1494  -32.2270 H   0  0  0  0  0  0  0  0  0  0  0  0
  1  2  1  0
  2  3  1  0
  3  4  1  0
  4  5  2  0
  4  6  1  0
  6  7  1  0
  7  8  1  0
  8  9  1  0
  8 10  2  0
  7 11  2  0
 11 12  1  0
 12 13  2  0
 13 14  1  0
 14 15  2  0
 15 16  1  0
 16 17  2  0
 17 18  1  0
 18 19  2  0
 19 20  1  0
 20 21  2  0
 21 22  1  0
 15 23  1  0
 23 24  2  0
 24  6  1  0
 24 12  1  0
 21 16  1  0
  1 25  1  0
  1 26  1  0
  1 27  1  0
  2 28  1  0
  2 29  1  0
  9 30  1  0
 11 31  1  0
 13 32  1  0
 14 33  1  0
 17 34  1  0
 18 35  1  0
 19 36  1  0
 20 37  1  0
 22 38  1  0
 22 39  1  0
 23 40  1  0
M  CHG  1   9  -1
M  END
>  <UniqueID>  (69) 
69

>  <SMILES>  (69) 
CCOC(=O)n1c(C([NH-])=O)cc2ccc(-c3ccccc3N)cc21

>  <Energy>  (69) 
84.74012939052871

>  <Genealogy>  (69) 
CCOC(=O)n1c(C([NH-])=O)cc2ccc(-c3ccccc3N)cc21 (protonated)
CCOC(=O)n1c(C([NH-])=O)cc2ccc(-c3ccccc3N)cc21 (3D coordinates assigned)
CCOC(=O)n1c(C([NH-])=O)cc2ccc(-c3ccccc3N)cc21 (optimized conformer: 84.74012939052871 kcal/mol)

>  <smiles>  (69) 
CCOC(=O)n1c(C(N)=O)cc2ccc(-c3ccccc3N)cc21

>  <score_type>  (69) 
oracle

>  <origin>  (69) 
adg

>  <m_score__min__energy>  (69) 
-10.49

>  <m_primary>  (69) 
energy

$$$$
69:0
     RDKit          3D

 30 31  0  0  0  0  0  0  0  0999 V2000
   -1.9790   25.2990  -29.3450 N   0  0  0  0  0  0  0  0  0  0  0  0
   -1.7300   23.8990  -29.2330 C   0  0  0  0  0  0  0  0  0  0  0  0
   -0.8720   23.4880  -28.4080 O   0  0  0  0  0  0  0  0  0  0  0  0
   -2.5090   22.9470  -30.0520 C   0  0  0  0  0  0  0  0  0  0  0  0
   -2.0160   21.7120  -30.4680 C   0  0  0  0  0  0  0  0  0  0  0  0
   -2.9950   21.1820  -31.2770 C   0  0  0  0  0  0  0  0  0  0  0  0
   -3.0340   19.9700  -31.9590 C   0  0  0  0  0  0  0  0  0  0  0  0
   -4.1840   19.6720  -32.7090 C   0  0  0  0  0  0  0  0  0  0  0  0
   -5.2730   20.5790  -32.7510 C   0  0  0  0  0  0  0  0  0  0  0  0
   -6.4940   20.2590  -33.5740 C   0  0  0  0  0  0  0  0  0  0  0  0
   -7.7410   20.0860  -32.6980 C   0  0  0  0  0  0  0  0  0  0  0  0
   -7.9950   18.6460  -32.3750 C   0  0  0  0  0  0  0  0  0  0  0  0
   -7.0850   17.7910  -32.5360 O   0  0  0  0  0  0  0  0  0  0  0  0
   -9.2500   18.2420  -31.9390 O   0  0  0  0  0  0  0  0  0  0  0  0
   -5.1950   21.8030  -32.0510 C   0  0  0  0  0  0  0  0  0  0  0  0
   -4.0300   22.0810  -31.3270 C   0  0  0  0  0  0  0  0  0  0  0  0
   -3.7480   23.1700  -30.5760 N   0  0  0  0  0  0  0  0  0  0  0  0
   -4.6220   24.2840  -30.3350 C   0  0  0  0  0  0  0  0  0  0  0  0
   -4.2830   25.5810  -30.8220 N   0  0  0  0  0  0  0  0  0  0  0  0
   -5.6790   24.1270  -29.6680 O   0  0  0  0  0  0  0  0  0  0  0  0
   -2.9500   25.6780  -29.2850 H   0  0  0  0  0  0  0  0  0  0  0  0
   -1.0494   21.2572  -30.2055 H   0  0  0  0  0  0  0  0  0  0  0  0
   -2.1899   19.2663  -31.9124 H   0  0  0  0  0  0  0  0  0  0  0  0
   -4.2400   18.7266  -33.2686 H   0  0  0  0  0  0  0  0  0  0  0  0
   -6.6693   21.0797  -34.2852 H   0  0  0  0  0  0  0  0  0  0  0  0
   -6.3123   19.3111  -34.1017 H   0  0  0  0  0  0  0  0  0  0  0  0
   -7.5976   20.6420  -31.7597 H   0  0  0  0  0  0  0  0  0  0  0  0
   -8.6078   20.4707  -33.2553 H   0  0  0  0  0  0  0  0  0  0  0  0
   -6.0290   22.5199  -32.0742 H   0  0  0  0  0  0  0  0  0  0  0  0
   -3.2920   25.8360  -31.0250 H   0  0  0  0  0  0  0  0  0  0  0  0
  1  2  1  0
  2  3  2  0
  2  4  1  0
  4  5  2  0
  5  6  1  0
  6  7  2  0
  7  8  1  0
  8  9  2  0
  9 10  1  0
 10 11  1  0
 11 12  1  0
 12 13  2  0
 12 14  1  0
  9 15  1  0
 15 16  2  0
 16 17  1  0
 17 18  1  0
 18 19  1  0
 18 20  2  0
 17  4  1  0
 16  6  1  0
  1 21  1  0
  5 22  1  0
  7 23  1  0
  8 24  1  0
 10 25  1  0
 10 26  1  0
 11 27  1  0
 11 28  1  0
 15 29  1  0
 19 30  1  0
M  CHG  3   1  -1  14  -1  19  -1
M  END
>  <UniqueID>  (70) 
70

>  <SMILES>  (70) 
[NH-]C(=O)c1cc2ccc(CCC(=O)[O-])cc2n1C([NH-])=O

>  <Energy>  (70) 
65.89001436582699

>  <Genealogy>  (70) 
[NH-]C(=O)c1cc2ccc(CCC(=O)[O-])cc2n1C([NH-])=O (protonated)
[NH-]C(=O)c1cc2ccc(CCC(=O)[O-])cc2n1C([NH-])=O (3D coordinates assigned)
[NH-]C(=O)c1cc2ccc(CCC(=O)[O-])cc2n1C([NH-])=O (optimized conformer: 65.89001436582699 kcal/mol)

>  <smiles>  (70) 
NC(=O)c1cc2ccc(CCC(=O)O)cc2n1C(N)=O

>  <score_type>  (70) 
oracle

>  <origin>  (70) 
adg

>  <m_score__min__energy>  (70) 
-10.130000000000001

>  <m_primary>  (70) 
energy

$$$$
70:0
     RDKit          3D

 46 49  0  0  0  0  0  0  0  0999 V2000
   -1.5980   26.0790  -28.9320 N   0  0  0  0  0  0  0  0  0  0  0  0
   -0.8340   24.8880  -28.7660 C   0  0  0  0  0  0  0  0  0  0  0  0
    0.2050   24.9170  -28.0520 O   0  0  0  0  0  0  0  0  0  0  0  0
   -1.2070   23.6410  -29.4630 C   0  0  0  0  0  0  0  0  0  0  0  0
   -0.2950   22.6360  -29.7770 C   0  0  0  0  0  0  0  0  0  0  0  0
   -1.0080   21.7070  -30.4980 C   0  0  0  0  0  0  0  0  0  0  0  0
   -0.6000   20.5000  -31.0550 C   0  0  0  0  0  0  0  0  0  0  0  0
   -1.5590   19.7260  -31.7280 C   0  0  0  0  0  0  0  0  0  0  0  0
   -2.9070   20.1620  -31.8270 C   0  0  0  0  0  0  0  0  0  0  0  0
   -3.9140   19.3300  -32.5310 C   0  0  0  0  0  0  0  0  0  0  0  0
   -3.5940   18.6890  -33.7420 C   0  0  0  0  0  0  0  0  0  0  0  0
   -4.5430   17.9040  -34.4010 C   0  0  0  0  0  0  0  0  0  0  0  0
   -5.8260   17.7400  -33.8700 C   0  0  0  0  0  0  0  0  0  0  0  0
   -6.7380   16.9350  -34.5720 O   0  0  0  0  0  0  0  0  0  0  0  0
   -6.8840   15.5240  -34.4140 C   0  0  0  0  0  0  0  0  0  0  0  0
   -5.5930   14.8980  -33.9550 C   0  0  0  0  0  0  0  0  0  0  0  0
   -5.2120   14.9810  -32.6060 C   0  0  0  0  0  0  0  0  0  0  0  0
   -4.0090   14.4100  -32.1770 C   0  0  0  0  0  0  0  0  0  0  0  0
   -3.1750   13.7630  -33.0930 C   0  0  0  0  0  0  0  0  0  0  0  0
   -3.5420   13.6880  -34.4400 C   0  0  0  0  0  0  0  0  0  0  0  0
   -4.7430   14.2570  -34.8730 C   0  0  0  0  0  0  0  0  0  0  0  0
   -6.1540   18.3830  -32.6620 C   0  0  0  0  0  0  0  0  0  0  0  0
   -5.2060   19.1670  -32.0000 C   0  0  0  0  0  0  0  0  0  0  0  0
   -3.2820   21.3970  -31.2450 C   0  0  0  0  0  0  0  0  0  0  0  0
   -2.2990   22.1550  -30.5970 C   0  0  0  0  0  0  0  0  0  0  0  0
   -2.4400   23.3410  -29.9640 N   0  0  0  0  0  0  0  0  0  0  0  0
   -3.6650   24.0670  -29.7800 C   0  0  0  0  0  0  0  0  0  0  0  0
   -4.6350   23.6100  -28.8400 N   0  0  0  0  0  0  0  0  0  0  0  0
   -3.9020   25.0930  -30.4690 O   0  0  0  0  0  0  0  0  0  0  0  0
   -2.6410   26.0460  -28.9750 H   0  0  0  0  0  0  0  0  0  0  0  0
    0.7702   22.5943  -29.5057 H   0  0  0  0  0  0  0  0  0  0  0  0
    0.4432   20.1615  -30.9709 H   0  0  0  0  0  0  0  0  0  0  0  0
   -1.2625   18.7700  -32.1842 H   0  0  0  0  0  0  0  0  0  0  0  0
   -2.5889   18.8070  -34.1730 H   0  0  0  0  0  0  0  0  0  0  0  0
   -4.2783   17.4098  -35.3474 H   0  0  0  0  0  0  0  0  0  0  0  0
   -7.6666   15.3243  -33.6672 H   0  0  0  0  0  0  0  0  0  0  0  0
   -7.1599   15.0883  -35.3856 H   0  0  0  0  0  0  0  0  0  0  0  0
   -5.8619   15.4969  -31.8838 H   0  0  0  0  0  0  0  0  0  0  0  0
   -3.7192   14.4704  -31.1176 H   0  0  0  0  0  0  0  0  0  0  0  0
   -2.2302   13.3129  -32.7543 H   0  0  0  0  0  0  0  0  0  0  0  0
   -2.8841   13.1801  -35.1606 H   0  0  0  0  0  0  0  0  0  0  0  0
   -5.0239   14.2031  -35.9352 H   0  0  0  0  0  0  0  0  0  0  0  0
   -7.1619   18.2677  -32.2368 H   0  0  0  0  0  0  0  0  0  0  0  0
   -5.4727   19.6616  -31.0543 H   0  0  0  0  0  0  0  0  0  0  0  0
   -4.3214   21.7528  -31.3006 H   0  0  0  0  0  0  0  0  0  0  0  0
   -5.3720   24.2530  -28.4740 H   0  0  0  0  0  0  0  0  0  0  0  0
  1  2  1  0
  2  3  2  0
  2  4  1  0
  4  5  2  0
  5  6  1  0
  6  7  2  0
  7  8  1  0
  8  9  2  0
  9 10  1  0
 10 11  2  0
 11 12  1  0
 12 13  2  0
 13 14  1  0
 14 15  1  0
 15 16  1  0
 16 17  2  0
 17 18  1  0
 18 19  2  0
 19 20  1  0
 20 21  2  0
 13 22  1  0
 22 23  2  0
  9 24  1  0
 24 25  2  0
 25 26  1  0
 26 27  1  0
 27 28  1  0
 27 29  2  0
 26  4  1  0
 25  6  1  0
 23 10  1  0
 21 16  1  0
  1 30  1  0
  5 31  1  0
  7 32  1  0
  8 33  1  0
 11 34  1  0
 12 35  1  0
 15 36  1  0
 15 37  1  0
 17 38  1  0
 18 39  1  0
 19 40  1  0
 20 41  1  0
 21 42  1  0
 22 43  1  0
 23 44  1  0
 24 45  1  0
 28 46  1  0
M  CHG  2   1  -1  28  -1
M  END
>  <UniqueID>  (71) 
71

>  <SMILES>  (71) 
[NH-]C(=O)c1cc2ccc(-c3ccc(OCc4ccccc4)cc3)cc2n1C([NH-])=O

>  <Energy>  (71) 
95.40833220463176

>  <Genealogy>  (71) 
[NH-]C(=O)c1cc2ccc(-c3ccc(OCc4ccccc4)cc3)cc2n1C([NH-])=O (protonated)
[NH-]C(=O)c1cc2ccc(-c3ccc(OCc4ccccc4)cc3)cc2n1C([NH-])=O (3D coordinates assigned)
[NH-]C(=O)c1cc2ccc(-c3ccc(OCc4ccccc4)cc3)cc2n1C([NH-])=O (optimized conformer: 95.40833220463176 kcal/mol)

>  <smiles>  (71) 
NC(=O)c1cc2ccc(-c3ccc(OCc4ccccc4)cc3)cc2n1C(N)=O

>  <score_type>  (71) 
oracle

>  <origin>  (71) 
adg

>  <m_score__min__energy>  (71) 
-10.970000000000001

>  <m_primary>  (71) 
energy

$$$$
71:0
     RDKit          3D

 34 36  0  0  0  0  0  0  0  0999 V2000
   -3.9130   25.6520  -30.8540 N   0  0  0  0  0  0  0  0  0  0  0  0
   -5.2040   25.1660  -30.4930 C   0  0  0  0  0  0  0  0  0  0  0  0
   -5.9440   25.8710  -29.7600 O   0  0  0  0  0  0  0  0  0  0  0  0
   -5.6700   23.8630  -31.0130 C   0  0  0  0  0  0  0  0  0  0  0  0
   -7.0150   23.5450  -31.1930 C   0  0  0  0  0  0  0  0  0  0  0  0
   -7.0280   22.2320  -31.6070 C   0  0  0  0  0  0  0  0  0  0  0  0
   -8.0990   21.4120  -31.9440 C   0  0  0  0  0  0  0  0  0  0  0  0
   -7.8190   20.1030  -32.3690 C   0  0  0  0  0  0  0  0  0  0  0  0
   -6.4800   19.6380  -32.4590 C   0  0  0  0  0  0  0  0  0  0  0  0
   -6.1950   18.2570  -32.9220 C   0  0  0  0  0  0  0  0  0  0  0  0
   -4.8840   17.8570  -33.2330 C   0  0  0  0  0  0  0  0  0  0  0  0
   -4.6310   16.5540  -33.6650 C   0  0  0  0  0  0  0  0  0  0  0  0
   -5.6920   15.6490  -33.7880 C   0  0  0  0  0  0  0  0  0  0  0  0
   -5.4400   14.2440  -34.2510 C   0  0  0  0  0  0  0  0  0  0  0  0
   -6.5760   13.7150  -34.8410 F   0  0  0  0  0  0  0  0  0  0  0  0
   -5.0900   13.4540  -33.1710 F   0  0  0  0  0  0  0  0  0  0  0  0
   -4.4120   14.2350  -35.1750 F   0  0  0  0  0  0  0  0  0  0  0  0
   -6.9550   16.0520  -33.4840 N   0  0  0  0  0  0  0  0  0  0  0  0
   -7.2280   17.3140  -33.0580 C   0  0  0  0  0  0  0  0  0  0  0  0
   -5.4190   20.5070  -32.1080 C   0  0  0  0  0  0  0  0  0  0  0  0
   -5.7300   21.8000  -31.6680 C   0  0  0  0  0  0  0  0  0  0  0  0
   -4.8820   22.7890  -31.3080 N   0  0  0  0  0  0  0  0  0  0  0  0
   -3.4470   22.7240  -31.3030 C   0  0  0  0  0  0  0  0  0  0  0  0
   -2.7080   23.2440  -30.2000 N   0  0  0  0  0  0  0  0  0  0  0  0
   -2.8330   22.1980  -32.2700 O   0  0  0  0  0  0  0  0  0  0  0  0
   -3.0540   25.3010  -30.3750 H   0  0  0  0  0  0  0  0  0  0  0  0
   -7.8823   24.2035  -31.0373 H   0  0  0  0  0  0  0  0  0  0  0  0
   -9.1345   21.7775  -31.8797 H   0  0  0  0  0  0  0  0  0  0  0  0
   -8.6470   19.4296  -32.6355 H   0  0  0  0  0  0  0  0  0  0  0  0
   -4.0547   18.5731  -33.1357 H   0  0  0  0  0  0  0  0  0  0  0  0
   -3.6048   16.2404  -33.9072 H   0  0  0  0  0  0  0  0  0  0  0  0
   -8.2632   17.5984  -32.8185 H   0  0  0  0  0  0  0  0  0  0  0  0
   -4.3730   20.1741  -32.1792 H   0  0  0  0  0  0  0  0  0  0  0  0
   -2.3880   24.2370  -30.1900 H   0  0  0  0  0  0  0  0  0  0  0  0
  1  2  1  0
  2  3  2  0
  2  4  1  0
  4  5  2  0
  5  6  1  0
  6  7  2  0
  7  8  1  0
  8  9  2  0
  9 10  1  0
 10 11  2  0
 11 12  1  0
 12 13  2  0
 13 14  1  0
 14 15  1  0
 14 16  1  0
 14 17  1  0
 13 18  1  0
 18 19  2  0
  9 20  1  0
 20 21  2  0
 21 22  1  0
 22 23  1  0
 23 24  1  0
 23 25  2  0
 22  4  1  0
 21  6  1  0
 19 10  1  0
  1 26  1  0
  5 27  1  0
  7 28  1  0
  8 29  1  0
 11 30  1  0
 12 31  1  0
 19 32  1  0
 20 33  1  0
 24 34  1  0
M  CHG  2   1  -1  24  -1
M  END
>  <UniqueID>  (72) 
72

>  <SMILES>  (72) 
[NH-]C(=O)c1cc2ccc(-c3ccc(C(F)(F)F)nc3)cc2n1C([NH-])=O

>  <Energy>  (72) 
81.0605216127488

>  <Genealogy>  (72) 
[NH-]C(=O)c1cc2ccc(-c3ccc(C(F)(F)F)nc3)cc2n1C([NH-])=O (protonated)
[NH-]C(=O)c1cc2ccc(-c3ccc(C(F)(F)F)nc3)cc2n1C([NH-])=O (3D coordinates assigned)
[NH-]C(=O)c1cc2ccc(-c3ccc(C(F)(F)F)nc3)cc2n1C([NH-])=O (optimized conformer: 81.0605216127488 kcal/mol)

>  <smiles>  (72) 
NC(=O)c1cc2ccc(-c3ccc(C(F)(F)F)nc3)cc2n1C(N)=O

>  <score_type>  (72) 
oracle

>  <origin>  (72) 
adg

>  <m_score__min__energy>  (72) 
-10.43

>  <m_primary>  (72) 
energy

$$$$
72:0
     RDKit          3D

 30 32  0  0  0  0  0  0  0  0999 V2000
   -3.1310   23.5720  -30.8430 N   0  0  0  0  0  0  0  0  0  0  0  0
   -3.9780   22.7120  -31.6010 C   0  0  0  0  0  0  0  0  0  0  0  0
   -3.4730   21.9480  -32.4670 O   0  0  0  0  0  0  0  0  0  0  0  0
   -5.4010   22.7210  -31.3900 N   0  0  0  0  0  0  0  0  0  0  0  0
   -6.1530   23.7340  -30.8770 C   0  0  0  0  0  0  0  0  0  0  0  0
   -5.6340   24.9830  -30.2840 C   0  0  0  0  0  0  0  0  0  0  0  0
   -6.1140   25.4620  -29.0280 N   0  0  0  0  0  0  0  0  0  0  0  0
   -4.7910   25.6680  -30.9240 O   0  0  0  0  0  0  0  0  0  0  0  0
   -7.5080   23.4240  -30.9430 C   0  0  0  0  0  0  0  0  0  0  0  0
   -7.5660   22.1710  -31.5070 C   0  0  0  0  0  0  0  0  0  0  0  0
   -8.6690   21.3860  -31.8240 C   0  0  0  0  0  0  0  0  0  0  0  0
   -8.4410   20.1470  -32.4440 C   0  0  0  0  0  0  0  0  0  0  0  0
   -7.1170   19.7150  -32.7490 C   0  0  0  0  0  0  0  0  0  0  0  0
   -6.8020   18.3950  -33.4330 C   0  0  0  0  0  0  0  0  0  0  0  0
   -5.4290   17.7890  -33.1800 C   0  0  0  0  0  0  0  0  0  0  0  0
   -5.7500   18.4120  -34.5330 C   0  0  0  0  0  0  0  0  0  0  0  0
   -6.0280   20.5500  -32.4110 C   0  0  0  0  0  0  0  0  0  0  0  0
   -6.2830   21.7690  -31.7720 C   0  0  0  0  0  0  0  0  0  0  0  0
   -3.1090   24.6000  -31.0250 H   0  0  0  0  0  0  0  0  0  0  0  0
   -6.9330   25.0180  -28.5570 H   0  0  0  0  0  0  0  0  0  0  0  0
   -5.7040   26.3250  -28.6050 H   0  0  0  0  0  0  0  0  0  0  0  0
   -8.3523   24.0478  -30.6143 H   0  0  0  0  0  0  0  0  0  0  0  0
   -9.6901   21.7256  -31.5958 H   0  0  0  0  0  0  0  0  0  0  0  0
   -9.2948   19.5014  -32.6976 H   0  0  0  0  0  0  0  0  0  0  0  0
   -7.8383   18.0349  -33.3535 H   0  0  0  0  0  0  0  0  0  0  0  0
   -4.7248   18.2878  -32.4979 H   0  0  0  0  0  0  0  0  0  0  0  0
   -5.0615   16.8087  -32.8424 H   0  0  0  0  0  0  0  0  0  0  0  0
   -5.2776   19.3606  -34.8278 H   0  0  0  0  0  0  0  0  0  0  0  0
   -5.7103   18.0680  -35.5771 H   0  0  0  0  0  0  0  0  0  0  0  0
   -4.9971   20.2470  -32.6462 H   0  0  0  0  0  0  0  0  0  0  0  0
  1  2  1  0
  2  3  2  0
  2  4  1  0
  4  5  1  0
  5  6  1  0
  6  7  1  0
  6  8  2  0
  5  9  2  0
  9 10  1  0
 10 11  2  0
 11 12  1  0
 12 13  2  0
 13 14  1  0
 14 15  1  0
 15 16  1  0
 13 17  1  0
 17 18  2  0
 18  4  1  0
 18 10  1  0
 16 14  1  0
  1 19  1  0
  7 20  1  0
  7 21  1  0
  9 22  1  0
 11 23  1  0
 12 24  1  0
 14 25  1  0
 15 26  1  0
 15 27  1  0
 16 28  1  0
 16 29  1  0
 17 30  1  0
M  CHG  1   1  -1
M  END
>  <UniqueID>  (73) 
73

>  <SMILES>  (73) 
[NH-]C(=O)n1c(C(N)=O)cc2ccc(C3CC3)cc21

>  <Energy>  (73) 
338.8536026088065

>  <Genealogy>  (73) 
[NH-]C(=O)n1c(C(N)=O)cc2ccc(C3CC3)cc21 (protonated)
[NH-]C(=O)n1c(C(N)=O)cc2ccc(C3CC3)cc21 (3D coordinates assigned)
[NH-]C(=O)n1c(C(N)=O)cc2ccc(C3CC3)cc21 (nonaromatic ring conformer: 338.8536026088065 kcal/mol)

>  <smiles>  (73) 
NC(=O)c1cc2ccc(C3CC3)cc2n1C(N)=O

>  <score_type>  (73) 
oracle

>  <origin>  (73) 
adg

>  <m_score__min__energy>  (73) 
-8.9399999999999995

>  <m_primary>  (73) 
energy

$$$$
73:0
     RDKit          3D

 36 38  0  0  0  0  0  0  0  0999 V2000
   -2.2020   20.9030  -32.3210 C   0  0  0  0  0  0  0  0  0  0  0  0
   -2.9180   22.1310  -32.3550 O   0  0  0  0  0  0  0  0  0  0  0  0
   -3.6200   22.6260  -31.2510 C   0  0  0  0  0  0  0  0  0  0  0  0
   -2.9950   23.0600  -30.2450 O   0  0  0  0  0  0  0  0  0  0  0  0
   -5.0570   22.6390  -31.2670 N   0  0  0  0  0  0  0  0  0  0  0  0
   -5.8750   23.7040  -31.0290 C   0  0  0  0  0  0  0  0  0  0  0  0
   -5.4480   25.0280  -30.5380 C   0  0  0  0  0  0  0  0  0  0  0  0
   -4.1350   25.5280  -30.7990 N   0  0  0  0  0  0  0  0  0  0  0  0
   -6.2370   25.7080  -29.8270 O   0  0  0  0  0  0  0  0  0  0  0  0
   -7.2040   23.3660  -31.2650 C   0  0  0  0  0  0  0  0  0  0  0  0
   -7.1800   22.0440  -31.6460 C   0  0  0  0  0  0  0  0  0  0  0  0
   -8.2250   21.2040  -32.0160 C   0  0  0  0  0  0  0  0  0  0  0  0
   -7.9100   19.8920  -32.4030 C   0  0  0  0  0  0  0  0  0  0  0  0
   -6.5630   19.4440  -32.4250 C   0  0  0  0  0  0  0  0  0  0  0  0
   -6.2400   18.0570  -32.8500 C   0  0  0  0  0  0  0  0  0  0  0  0
   -6.4930   17.6350  -34.1690 C   0  0  0  0  0  0  0  0  0  0  0  0
   -6.1860   16.3310  -34.5670 C   0  0  0  0  0  0  0  0  0  0  0  0
   -5.6270   15.4320  -33.6540 C   0  0  0  0  0  0  0  0  0  0  0  0
   -5.2440   13.7950  -34.1560 Cl  0  0  0  0  0  0  0  0  0  0  0  0
   -5.3720   15.8400  -32.3420 C   0  0  0  0  0  0  0  0  0  0  0  0
   -5.6750   17.1440  -31.9390 C   0  0  0  0  0  0  0  0  0  0  0  0
   -5.5290   20.3320  -32.0430 C   0  0  0  0  0  0  0  0  0  0  0  0
   -5.8740   21.6280  -31.6420 C   0  0  0  0  0  0  0  0  0  0  0  0
   -2.0299   20.6078  -31.2754 H   0  0  0  0  0  0  0  0  0  0  0  0
   -2.7870   20.1232  -32.8306 H   0  0  0  0  0  0  0  0  0  0  0  0
   -1.2352   21.0280  -32.8306 H   0  0  0  0  0  0  0  0  0  0  0  0
   -3.4060   24.9240  -31.2380 H   0  0  0  0  0  0  0  0  0  0  0  0
   -3.8650   26.4840  -30.4770 H   0  0  0  0  0  0  0  0  0  0  0  0
   -8.0856   24.0167  -31.1678 H   0  0  0  0  0  0  0  0  0  0  0  0
   -9.2667   21.5571  -32.0057 H   0  0  0  0  0  0  0  0  0  0  0  0
   -8.7167   19.2025  -32.6928 H   0  0  0  0  0  0  0  0  0  0  0  0
   -6.9355   18.3366  -34.8915 H   0  0  0  0  0  0  0  0  0  0  0  0
   -6.3846   16.0114  -35.6006 H   0  0  0  0  0  0  0  0  0  0  0  0
   -4.9314   15.1328  -31.6239 H   0  0  0  0  0  0  0  0  0  0  0  0
   -5.4709   17.4584  -30.9048 H   0  0  0  0  0  0  0  0  0  0  0  0
   -4.4771   20.0106  -32.0609 H   0  0  0  0  0  0  0  0  0  0  0  0
  1  2  1  0
  2  3  1  0
  3  4  2  0
  3  5  1  0
  5  6  1  0
  6  7  1  0
  7  8  1  0
  7  9  2  0
  6 10  2  0
 10 11  1  0
 11 12  2  0
 12 13  1  0
 13 14  2  0
 14 15  1  0
 15 16  2  0
 16 17  1  0
 17 18  2  0
 18 19  1  0
 18 20  1  0
 20 21  2  0
 14 22  1  0
 22 23  2  0
 23  5  1  0
 23 11  1  0
 21 15  1  0
  1 24  1  0
  1 25  1  0
  1 26  1  0
  8 27  1  0
  8 28  1  0
 10 29  1  0
 12 30  1  0
 13 31  1  0
 16 32  1  0
 17 33  1  0
 20 34  1  0
 21 35  1  0
 22 36  1  0
M  END
>  <UniqueID>  (74) 
74

>  <SMILES>  (74) 
COC(=O)n1c(C(N)=O)cc2ccc(-c3ccc(Cl)cc3)cc21

>  <Energy>  (74) 
81.10465057368722

>  <Genealogy>  (74) 
COC(=O)n1c(C(N)=O)cc2ccc(-c3ccc(Cl)cc3)cc21 (3D coordinates assigned)
COC(=O)n1c(C(N)=O)cc2ccc(-c3ccc(Cl)cc3)cc21 (optimized conformer: 81.10465057368722 kcal/mol)

>  <smiles>  (74) 
COC(=O)n1c(C(N)=O)cc2ccc(-c3ccc(Cl)cc3)cc21

>  <score_type>  (74) 
oracle

>  <origin>  (74) 
adg

>  <m_score__min__energy>  (74) 
-9.0399999999999991

>  <m_primary>  (74) 
energy

$$$$
74:0
     RDKit          3D

 41 42  0  0  0  0  0  0  0  0999 V2000
   -7.2320   23.9120  -31.3160 C   0  0  0  0  0  0  0  0  0  0  0  0
   -7.1880   22.4660  -31.1420 N   0  0  0  0  0  0  0  0  0  0  0  0
   -8.2440   21.6170  -31.6100 C   0  0  0  0  0  0  0  0  0  0  0  0
   -9.1580   22.0870  -32.3400 O   0  0  0  0  0  0  0  0  0  0  0  0
   -8.2360   20.1510  -31.2750 C   0  0  0  0  0  0  0  0  0  0  0  0
   -7.6440   19.2760  -32.3930 C   0  0  0  0  0  0  0  0  0  0  0  0
   -6.1920   18.8140  -32.1610 C   0  0  0  0  0  0  0  0  0  0  0  0
   -5.1790   19.3640  -33.1850 C   0  0  0  0  0  0  0  0  0  0  0  0
   -3.9940   20.0370  -32.5360 C   0  0  0  0  0  0  0  0  0  0  0  0
   -2.7000   19.4680  -32.6580 C   0  0  0  0  0  0  0  0  0  0  0  0
   -1.5860   20.0850  -32.0680 C   0  0  0  0  0  0  0  0  0  0  0  0
   -1.7920   21.2690  -31.3660 C   0  0  0  0  0  0  0  0  0  0  0  0
   -0.8930   22.0740  -30.7060 C   0  0  0  0  0  0  0  0  0  0  0  0
   -1.6490   23.1220  -30.1840 C   0  0  0  0  0  0  0  0  0  0  0  0
   -1.0830   24.1800  -29.3220 C   0  0  0  0  0  0  0  0  0  0  0  0
   -1.6330   25.4950  -29.3130 N   0  0  0  0  0  0  0  0  0  0  0  0
   -0.1270   23.9080  -28.5470 O   0  0  0  0  0  0  0  0  0  0  0  0
   -2.9640   22.9750  -30.5160 N   0  0  0  0  0  0  0  0  0  0  0  0
   -4.0510   23.8670  -30.2260 C   0  0  0  0  0  0  0  0  0  0  0  0
   -3.9960   25.2270  -30.6530 N   0  0  0  0  0  0  0  0  0  0  0  0
   -5.0530   23.4560  -29.5840 O   0  0  0  0  0  0  0  0  0  0  0  0
   -3.0340   21.8350  -31.2390 C   0  0  0  0  0  0  0  0  0  0  0  0
   -4.1580   21.2550  -31.8380 C   0  0  0  0  0  0  0  0  0  0  0  0
   -7.2468   24.3997  -30.3301 H   0  0  0  0  0  0  0  0  0  0  0  0
   -6.3435   24.2413  -31.8746 H   0  0  0  0  0  0  0  0  0  0  0  0
   -8.1389   24.1867  -31.8746 H   0  0  0  0  0  0  0  0  0  0  0  0
   -6.3710   22.0460  -30.6460 H   0  0  0  0  0  0  0  0  0  0  0  0
   -7.6386   20.0042  -30.3631 H   0  0  0  0  0  0  0  0  0  0  0  0
   -9.2827   19.8418  -31.1382 H   0  0  0  0  0  0  0  0  0  0  0  0
   -8.2745   18.3804  -32.4950 H   0  0  0  0  0  0  0  0  0  0  0  0
   -7.6256   19.9035  -33.2963 H   0  0  0  0  0  0  0  0  0  0  0  0
   -5.8817   19.1437  -31.1585 H   0  0  0  0  0  0  0  0  0  0  0  0
   -6.1886   17.7196  -32.2717 H   0  0  0  0  0  0  0  0  0  0  0  0
   -4.8143   18.5289  -33.8012 H   0  0  0  0  0  0  0  0  0  0  0  0
   -5.6990   20.1220  -33.7891 H   0  0  0  0  0  0  0  0  0  0  0  0
   -2.5684   18.5325  -33.2215 H   0  0  0  0  0  0  0  0  0  0  0  0
   -0.5812   19.6464  -32.1576 H   0  0  0  0  0  0  0  0  0  0  0  0
    0.1924   21.9227  -30.6104 H   0  0  0  0  0  0  0  0  0  0  0  0
   -2.6670   25.6450  -29.3280 H   0  0  0  0  0  0  0  0  0  0  0  0
   -3.0880   25.6700  -30.9140 H   0  0  0  0  0  0  0  0  0  0  0  0
   -5.1450   21.7354  -31.7673 H   0  0  0  0  0  0  0  0  0  0  0  0
  1  2  1  0
  2  3  1  0
  3  4  2  0
  3  5  1  0
  5  6  1  0
  6  7  1  0
  7  8  1  0
  8  9  1  0
  9 10  2  0
 10 11  1  0
 11 12  2  0
 12 13  1  0
 13 14  2  0
 14 15  1  0
 15 16  1  0
 15 17  2  0
 14 18  1  0
 18 19  1  0
 19 20  1  0
 19 21  2  0
 18 22  1  0
 22 23  2  0
 23  9  1  0
 22 12  1  0
  1 24  1  0
  1 25  1  0
  1 26  1  0
  2 27  1  0
  5 28  1  0
  5 29  1  0
  6 30  1  0
  6 31  1  0
  7 32  1  0
  7 33  1  0
  8 34  1  0
  8 35  1  0
 10 36  1  0
 11 37  1  0
 13 38  1  0
 16 39  1  0
 20 40  1  0
 23 41  1  0
M  CHG  2  16  -1  20  -1
M  END
>  <UniqueID>  (75) 
75

>  <SMILES>  (75) 
CNC(=O)CCCCc1ccc2cc(C([NH-])=O)n(C([NH-])=O)c2c1

>  <Energy>  (75) 
70.36307673933214

>  <Genealogy>  (75) 
CNC(=O)CCCCc1ccc2cc(C([NH-])=O)n(C([NH-])=O)c2c1 (protonated)
CNC(=O)CCCCc1ccc2cc(C([NH-])=O)n(C([NH-])=O)c2c1 (3D coordinates assigned)
CNC(=O)CCCCc1ccc2cc(C([NH-])=O)n(C([NH-])=O)c2c1 (optimized conformer: 70.36307673933214 kcal/mol)

>  <smiles>  (75) 
CNC(=O)CCCCc1ccc2cc(C(N)=O)n(C(N)=O)c2c1

>  <score_type>  (75) 
oracle

>  <origin>  (75) 
adg

>  <m_score__min__energy>  (75) 
-11.16

>  <m_primary>  (75) 
energy

$$$$
75:0
     RDKit          3D

 45 46  0  0  0  0  0  0  0  0999 V2000
   -1.7700   20.7970  -29.6180 C   0  0  0  0  0  0  0  0  0  0  0  0
   -2.0510   21.2110  -31.0540 C   0  0  0  0  0  0  0  0  0  0  0  0
   -2.7510   20.1680  -31.7220 O   0  0  0  0  0  0  0  0  0  0  0  0
   -3.4550   20.3720  -32.9130 C   0  0  0  0  0  0  0  0  0  0  0  0
   -2.8570   20.8010  -33.9370 O   0  0  0  0  0  0  0  0  0  0  0  0
   -4.8590   20.0770  -32.9710 N   0  0  0  0  0  0  0  0  0  0  0  0
   -5.4720   19.0670  -33.6520 C   0  0  0  0  0  0  0  0  0  0  0  0
   -4.8070   18.1370  -34.5920 C   0  0  0  0  0  0  0  0  0  0  0  0
   -3.3830   18.0220  -34.6210 N   0  0  0  0  0  0  0  0  0  0  0  0
   -5.4960   17.4120  -35.3580 O   0  0  0  0  0  0  0  0  0  0  0  0
   -6.8480   19.0930  -33.4280 C   0  0  0  0  0  0  0  0  0  0  0  0
   -7.0600   20.1610  -32.5860 C   0  0  0  0  0  0  0  0  0  0  0  0
   -8.2470   20.6630  -32.0600 C   0  0  0  0  0  0  0  0  0  0  0  0
   -8.1720   21.7940  -31.2320 C   0  0  0  0  0  0  0  0  0  0  0  0
   -6.9230   22.3880  -30.9300 C   0  0  0  0  0  0  0  0  0  0  0  0
   -6.8650   23.6480  -30.1070 C   0  0  0  0  0  0  0  0  0  0  0  0
   -6.3900   24.8610  -30.9300 C   0  0  0  0  0  0  0  0  0  0  0  0
   -5.2910   25.6740  -30.2320 C   0  0  0  0  0  0  0  0  0  0  0  0
   -3.9740   25.1810  -30.6200 N   0  0  0  0  0  0  0  0  0  0  0  0
   -3.0690   24.5650  -29.7060 C   0  0  0  0  0  0  0  0  0  0  0  0
   -3.2750   23.3870  -29.3030 O   0  0  0  0  0  0  0  0  0  0  0  0
   -1.9470   25.2780  -29.2790 O   0  0  0  0  0  0  0  0  0  0  0  0
   -1.3880   25.1240  -27.9800 C   0  0  0  0  0  0  0  0  0  0  0  0
   -5.7370   21.8390  -31.4690 C   0  0  0  0  0  0  0  0  0  0  0  0
   -5.8440   20.7340  -32.3210 C   0  0  0  0  0  0  0  0  0  0  0  0
   -2.2522   21.5075  -28.9305 H   0  0  0  0  0  0  0  0  0  0  0  0
   -2.1704   19.7876  -29.4424 H   0  0  0  0  0  0  0  0  0  0  0  0
   -0.6841   20.7964  -29.4424 H   0  0  0  0  0  0  0  0  0  0  0  0
   -2.6635   22.1247  -31.0586 H   0  0  0  0  0  0  0  0  0  0  0  0
   -1.0999   21.4034  -31.5720 H   0  0  0  0  0  0  0  0  0  0  0  0
   -2.9270   17.3340  -35.2600 H   0  0  0  0  0  0  0  0  0  0  0  0
   -2.7770   18.6430  -34.0410 H   0  0  0  0  0  0  0  0  0  0  0  0
   -7.6034   18.4061  -33.8372 H   0  0  0  0  0  0  0  0  0  0  0  0
   -9.2133   20.1884  -32.2861 H   0  0  0  0  0  0  0  0  0  0  0  0
   -9.0940   22.2235  -30.8131 H   0  0  0  0  0  0  0  0  0  0  0  0
   -7.8697   23.8596  -29.7123 H   0  0  0  0  0  0  0  0  0  0  0  0
   -6.1407   23.4872  -29.2949 H   0  0  0  0  0  0  0  0  0  0  0  0
   -5.9989   24.4988  -31.8922 H   0  0  0  0  0  0  0  0  0  0  0  0
   -7.2560   25.5268  -31.0595 H   0  0  0  0  0  0  0  0  0  0  0  0
   -5.3825   26.7314  -30.5212 H   0  0  0  0  0  0  0  0  0  0  0  0
   -5.4057   25.5703  -29.1429 H   0  0  0  0  0  0  0  0  0  0  0  0
   -2.1569   25.3358  -27.2225 H   0  0  0  0  0  0  0  0  0  0  0  0
   -1.0259   24.0927  -27.8565 H   0  0  0  0  0  0  0  0  0  0  0  0
   -0.5489   25.8244  -27.8565 H   0  0  0  0  0  0  0  0  0  0  0  0
   -4.7547   22.2696  -31.2248 H   0  0  0  0  0  0  0  0  0  0  0  0
  1  2  1  0
  2  3  1  0
  3  4  1  0
  4  5  2  0
  4  6  1  0
  6  7  1  0
  7  8  1  0
  8  9  1  0
  8 10  2  0
  7 11  2  0
 11 12  1  0
 12 13  2  0
 13 14  1  0
 14 15  2  0
 15 16  1  0
 16 17  1  0
 17 18  1  0
 18 19  1  0
 19 20  1  0
 20 21  2  0
 20 22  1  0
 22 23  1  0
 15 24  1  0
 24 25  2  0
 25  6  1  0
 25 12  1  0
  1 26  1  0
  1 27  1  0
  1 28  1  0
  2 29  1  0
  2 30  1  0
  9 31  1  0
  9 32  1  0
 11 33  1  0
 13 34  1  0
 14 35  1  0
 16 36  1  0
 16 37  1  0
 17 38  1  0
 17 39  1  0
 18 40  1  0
 18 41  1  0
 23 42  1  0
 23 43  1  0
 23 44  1  0
 24 45  1  0
M  CHG  1  19  -1
M  END
>  <UniqueID>  (76) 
76

>  <SMILES>  (76) 
CCOC(=O)n1c(C(N)=O)cc2ccc(CCC[N-]C(=O)OC)cc21

>  <Energy>  (76) 
66.77352549206842

>  <Genealogy>  (76) 
CCOC(=O)n1c(C(N)=O)cc2ccc(CCC[N-]C(=O)OC)cc21 (protonated)
CCOC(=O)n1c(C(N)=O)cc2ccc(CCC[N-]C(=O)OC)cc21 (3D coordinates assigned)
CCOC(=O)n1c(C(N)=O)cc2ccc(CCC[N-]C(=O)OC)cc21 (optimized conformer: 66.77352549206842 kcal/mol)

>  <smiles>  (76) 
CCOC(=O)n1c(C(N)=O)cc2ccc(CCCNC(=O)OC)cc21

>  <score_type>  (76) 
oracle

>  <origin>  (76) 
adg

>  <m_score__min__energy>  (76) 
-9.4299999999999997

>  <m_primary>  (76) 
energy

$$$$
76:0
     RDKit          3D

 30 32  0  0  0  0  0  0  0  0999 V2000
   -1.3790   25.8720  -28.9640 N   0  0  0  0  0  0  0  0  0  0  0  0
   -0.8570   24.5620  -29.1690 C   0  0  0  0  0  0  0  0  0  0  0  0
    0.2840   24.2760  -28.7150 O   0  0  0  0  0  0  0  0  0  0  0  0
   -1.6550   23.5210  -29.8500 C   0  0  0  0  0  0  0  0  0  0  0  0
   -1.1180   22.3150  -30.2950 C   0  0  0  0  0  0  0  0  0  0  0  0
   -2.1870   21.5990  -30.7840 C   0  0  0  0  0  0  0  0  0  0  0  0
   -2.2260   20.3340  -31.3580 C   0  0  0  0  0  0  0  0  0  0  0  0
   -3.4660   19.8490  -31.8030 C   0  0  0  0  0  0  0  0  0  0  0  0
   -4.6420   20.6350  -31.6760 C   0  0  0  0  0  0  0  0  0  0  0  0
   -5.9460   20.1180  -32.1620 C   0  0  0  0  0  0  0  0  0  0  0  0
   -6.0750   18.7860  -32.5940 C   0  0  0  0  0  0  0  0  0  0  0  0
   -7.3120   18.3220  -33.0470 C   0  0  0  0  0  0  0  0  0  0  0  0
   -8.3860   19.1540  -33.0730 N   0  0  0  0  0  0  0  0  0  0  0  0
   -8.2950   20.4470  -32.6640 C   0  0  0  0  0  0  0  0  0  0  0  0
   -7.0770   20.9530  -32.2020 C   0  0  0  0  0  0  0  0  0  0  0  0
   -4.5580   21.9190  -31.0850 C   0  0  0  0  0  0  0  0  0  0  0  0
   -3.3110   22.3680  -30.6340 C   0  0  0  0  0  0  0  0  0  0  0  0
   -3.0010   23.5530  -30.0640 N   0  0  0  0  0  0  0  0  0  0  0  0
   -3.9060   24.6440  -29.8260 C   0  0  0  0  0  0  0  0  0  0  0  0
   -3.8650   25.6740  -30.5500 O   0  0  0  0  0  0  0  0  0  0  0  0
   -4.8530   24.5640  -28.8130 O   0  0  0  0  0  0  0  0  0  0  0  0
   -2.4080   26.0470  -28.9660 H   0  0  0  0  0  0  0  0  0  0  0  0
   -0.0641   22.0017  -30.2625 H   0  0  0  0  0  0  0  0  0  0  0  0
   -1.3121   19.7304  -31.4607 H   0  0  0  0  0  0  0  0  0  0  0  0
   -3.5275   18.8482  -32.2554 H   0  0  0  0  0  0  0  0  0  0  0  0
   -5.2055   18.1125  -32.5752 H   0  0  0  0  0  0  0  0  0  0  0  0
   -7.4171   17.2801  -33.3837 H   0  0  0  0  0  0  0  0  0  0  0  0
   -9.1821   21.0966  -32.6967 H   0  0  0  0  0  0  0  0  0  0  0  0
   -7.0032   21.9995  -31.8712 H   0  0  0  0  0  0  0  0  0  0  0  0
   -5.4531   22.5500  -30.9825 H   0  0  0  0  0  0  0  0  0  0  0  0
  1  2  1  0
  2  3  2  0
  2  4  1  0
  4  5  2  0
  5  6  1  0
  6  7  2  0
  7  8  1  0
  8  9  2  0
  9 10  1  0
 10 11  2  0
 11 12  1  0
 12 13  2  0
 13 14  1  0
 14 15  2  0
  9 16  1  0
 16 17  2  0
 17 18  1  0
 18 19  1  0
 19 20  2  0
 19 21  1  0
 18  4  1  0
 17  6  1  0
 15 10  1  0
  1 22  1  0
  5 23  1  0
  7 24  1  0
  8 25  1  0
 11 26  1  0
 12 27  1  0
 14 28  1  0
 15 29  1  0
 16 30  1  0
M  CHG  2   1  -1  21  -1
M  END
>  <UniqueID>  (77) 
77

>  <SMILES>  (77) 
[NH-]C(=O)c1cc2ccc(-c3ccncc3)cc2n1C(=O)[O-]

>  <Energy>  (77) 
79.07057026595172

>  <Genealogy>  (77) 
[NH-]C(=O)c1cc2ccc(-c3ccncc3)cc2n1C(=O)[O-] (protonated)
[NH-]C(=O)c1cc2ccc(-c3ccncc3)cc2n1C(=O)[O-] (3D coordinates assigned)
[NH-]C(=O)c1cc2ccc(-c3ccncc3)cc2n1C(=O)[O-] (optimized conformer: 79.07057026595172 kcal/mol)

>  <smiles>  (77) 
NC(=O)c1cc2ccc(-c3ccncc3)cc2n1C(=O)O

>  <score_type>  (77) 
oracle

>  <origin>  (77) 
adg

>  <m_score__min__energy>  (77) 
-10.98

>  <m_primary>  (77) 
energy

$$$$
77:0
     RDKit          3D

 41 42  0  0  0  0  0  0  0  0999 V2000
   -3.4450   18.8770  -33.8340 C   0  0  0  0  0  0  0  0  0  0  0  0
   -4.5340   17.9670  -33.9340 O   0  0  0  0  0  0  0  0  0  0  0  0
   -5.8320   18.3790  -34.2480 C   0  0  0  0  0  0  0  0  0  0  0  0
   -6.0950   18.8750  -35.3770 O   0  0  0  0  0  0  0  0  0  0  0  0
   -6.9060   18.2720  -33.2150 C   0  0  0  0  0  0  0  0  0  0  0  0
   -7.1500   19.6160  -32.5870 C   0  0  0  0  0  0  0  0  0  0  0  0
   -8.4690   20.0190  -32.2620 C   0  0  0  0  0  0  0  0  0  0  0  0
   -8.7120   21.2800  -31.6940 C   0  0  0  0  0  0  0  0  0  0  0  0
   -7.6220   22.1220  -31.4840 C   0  0  0  0  0  0  0  0  0  0  0  0
   -7.5710   23.3780  -30.9250 C   0  0  0  0  0  0  0  0  0  0  0  0
   -6.2290   23.7410  -30.9580 C   0  0  0  0  0  0  0  0  0  0  0  0
   -5.7300   25.0530  -30.4990 C   0  0  0  0  0  0  0  0  0  0  0  0
   -6.1510   25.6110  -29.2540 N   0  0  0  0  0  0  0  0  0  0  0  0
   -4.8760   25.6670  -31.1940 O   0  0  0  0  0  0  0  0  0  0  0  0
   -5.4740   22.7460  -31.5040 N   0  0  0  0  0  0  0  0  0  0  0  0
   -4.0400   22.6960  -31.6000 C   0  0  0  0  0  0  0  0  0  0  0  0
   -3.4870   21.8600  -32.3640 O   0  0  0  0  0  0  0  0  0  0  0  0
   -3.2640   23.5870  -30.8470 O   0  0  0  0  0  0  0  0  0  0  0  0
   -2.7340   23.2780  -29.5590 C   0  0  0  0  0  0  0  0  0  0  0  0
   -2.1460   24.5490  -28.9510 C   0  0  0  0  0  0  0  0  0  0  0  0
   -3.8350   22.7110  -28.6580 C   0  0  0  0  0  0  0  0  0  0  0  0
   -6.3440   21.7600  -31.8230 C   0  0  0  0  0  0  0  0  0  0  0  0
   -6.0710   20.5000  -32.3680 C   0  0  0  0  0  0  0  0  0  0  0  0
   -3.2203   19.0648  -32.7737 H   0  0  0  0  0  0  0  0  0  0  0  0
   -2.5605   18.4457  -34.3255 H   0  0  0  0  0  0  0  0  0  0  0  0
   -3.7123   19.8241  -34.3255 H   0  0  0  0  0  0  0  0  0  0  0  0
   -7.8333   17.9174  -33.6887 H   0  0  0  0  0  0  0  0  0  0  0  0
   -6.5897   17.5616  -32.4370 H   0  0  0  0  0  0  0  0  0  0  0  0
   -9.3104   19.3377  -32.4565 H   0  0  0  0  0  0  0  0  0  0  0  0
   -9.7311   21.5933  -31.4233 H   0  0  0  0  0  0  0  0  0  0  0  0
   -8.4126   23.9693  -30.5350 H   0  0  0  0  0  0  0  0  0  0  0  0
   -6.7240   25.0570  -28.5810 H   0  0  0  0  0  0  0  0  0  0  0  0
   -5.8250   26.5610  -28.9680 H   0  0  0  0  0  0  0  0  0  0  0  0
   -1.9444   22.5179  -29.6528 H   0  0  0  0  0  0  0  0  0  0  0  0
   -2.1782   24.4794  -27.8537 H   0  0  0  0  0  0  0  0  0  0  0  0
   -1.1029   24.6646  -29.2806 H   0  0  0  0  0  0  0  0  0  0  0  0
   -2.7332   25.4188  -29.2806 H   0  0  0  0  0  0  0  0  0  0  0  0
   -3.5562   22.8546  -27.6037 H   0  0  0  0  0  0  0  0  0  0  0  0
   -4.7810   23.2341  -28.8616 H   0  0  0  0  0  0  0  0  0  0  0  0
   -3.9586   21.6371  -28.8616 H   0  0  0  0  0  0  0  0  0  0  0  0
   -5.0413   20.2058  -32.6195 H   0  0  0  0  0  0  0  0  0  0  0  0
  1  2  1  0
  2  3  1  0
  3  4  2  0
  3  5  1  0
  5  6  1  0
  6  7  2  0
  7  8  1  0
  8  9  2  0
  9 10  1  0
 10 11  2  0
 11 12  1  0
 12 13  1  0
 12 14  2  0
 11 15  1  0
 15 16  1  0
 16 17  2  0
 16 18  1  0
 18 19  1  0
 19 20  1  0
 19 21  1  0
 15 22  1  0
 22 23  2  0
 23  6  1  0
 22  9  1  0
  1 24  1  0
  1 25  1  0
  1 26  1  0
  5 27  1  0
  5 28  1  0
  7 29  1  0
  8 30  1  0
 10 31  1  0
 13 32  1  0
 13 33  1  0
 19 34  1  0
 20 35  1  0
 20 36  1  0
 20 37  1  0
 21 38  1  0
 21 39  1  0
 21 40  1  0
 23 41  1  0
M  END
>  <UniqueID>  (78) 
78

>  <SMILES>  (78) 
COC(=O)Cc1ccc2cc(C(N)=O)n(C(=O)OC(C)C)c2c1

>  <Energy>  (78) 
69.45053012711126

>  <Genealogy>  (78) 
COC(=O)Cc1ccc2cc(C(N)=O)n(C(=O)OC(C)C)c2c1 (3D coordinates assigned)
COC(=O)Cc1ccc2cc(C(N)=O)n(C(=O)OC(C)C)c2c1 (optimized conformer: 69.45053012711126 kcal/mol)

>  <smiles>  (78) 
COC(=O)Cc1ccc2cc(C(N)=O)n(C(=O)OC(C)C)c2c1

>  <score_type>  (78) 
oracle

>  <origin>  (78) 
adg

>  <m_score__min__energy>  (78) 
-8.3699999999999992

>  <m_primary>  (78) 
energy

$$$$
78:0
     RDKit          3D

 45 47  0  0  0  0  0  0  0  0999 V2000
   -3.8530   23.3530  -27.9590 C   0  0  0  0  0  0  0  0  0  0  0  0
   -2.9360   22.5110  -28.8380 C   0  0  0  0  0  0  0  0  0  0  0  0
   -2.7770   23.1140  -30.1210 O   0  0  0  0  0  0  0  0  0  0  0  0
   -3.4670   22.6910  -31.2620 C   0  0  0  0  0  0  0  0  0  0  0  0
   -2.8370   22.2540  -32.2640 O   0  0  0  0  0  0  0  0  0  0  0  0
   -4.9000   22.7730  -31.3000 N   0  0  0  0  0  0  0  0  0  0  0  0
   -5.6810   23.8570  -31.0290 C   0  0  0  0  0  0  0  0  0  0  0  0
   -5.2100   25.1500  -30.4880 C   0  0  0  0  0  0  0  0  0  0  0  0
   -3.9220   25.6430  -30.8510 N   0  0  0  0  0  0  0  0  0  0  0  0
   -5.9460   25.8420  -29.7370 O   0  0  0  0  0  0  0  0  0  0  0  0
   -7.0230   23.5620  -31.2550 C   0  0  0  0  0  0  0  0  0  0  0  0
   -7.0420   22.2500  -31.6710 C   0  0  0  0  0  0  0  0  0  0  0  0
   -8.1130   21.4460  -32.0440 C   0  0  0  0  0  0  0  0  0  0  0  0
   -7.8390   20.1340  -32.4600 C   0  0  0  0  0  0  0  0  0  0  0  0
   -6.5050   19.6430  -32.5070 C   0  0  0  0  0  0  0  0  0  0  0  0
   -6.2330   18.2930  -32.9500 N   0  0  0  0  0  0  0  0  0  0  0  0
   -7.2580   17.2740  -33.1280 C   0  0  0  0  0  0  0  0  0  0  0  0
   -6.5570   16.0920  -33.7800 C   0  0  0  0  0  0  0  0  0  0  0  0
   -5.0660   16.2880  -33.4920 C   0  0  1  0  0  0  0  0  0  0  0  0
   -4.2230   15.8140  -34.6020 N   0  0  0  0  0  0  0  0  0  0  0  0
   -3.6480   16.9390  -35.3470 C   0  0  0  0  0  0  0  0  0  0  0  0
   -4.9060   17.7960  -33.2830 C   0  0  0  0  0  0  0  0  0  0  0  0
   -5.4440   20.5000  -32.1170 C   0  0  0  0  0  0  0  0  0  0  0  0
   -5.7510   21.7960  -31.6890 C   0  0  0  0  0  0  0  0  0  0  0  0
   -3.6330   23.1510  -26.9003 H   0  0  0  0  0  0  0  0  0  0  0  0
   -3.6865   24.4194  -28.1711 H   0  0  0  0  0  0  0  0  0  0  0  0
   -4.9014   23.0963  -28.1711 H   0  0  0  0  0  0  0  0  0  0  0  0
   -1.9516   22.4245  -28.3548 H   0  0  0  0  0  0  0  0  0  0  0  0
   -3.3854   21.5154  -28.9676 H   0  0  0  0  0  0  0  0  0  0  0  0
   -3.0550   25.2290  -30.4410 H   0  0  0  0  0  0  0  0  0  0  0  0
   -7.8844   24.2342  -31.1281 H   0  0  0  0  0  0  0  0  0  0  0  0
   -9.1445   21.8269  -32.0140 H   0  0  0  0  0  0  0  0  0  0  0  0
   -8.6691   19.4750  -32.7544 H   0  0  0  0  0  0  0  0  0  0  0  0
   -7.6796   16.9806  -32.1553 H   0  0  0  0  0  0  0  0  0  0  0  0
   -8.0917   17.6412  -33.7445 H   0  0  0  0  0  0  0  0  0  0  0  0
   -6.9115   15.1467  -33.3433 H   0  0  0  0  0  0  0  0  0  0  0  0
   -6.7601   16.0433  -34.8600 H   0  0  0  0  0  0  0  0  0  0  0  0
   -4.7434   15.7061  -32.6160 H   0  0  0  0  0  0  0  0  0  0  0  0
   -4.8350   15.2920  -35.2740 H   0  0  0  0  0  0  0  0  0  0  0  0
   -3.2645   17.6893  -34.6399 H   0  0  0  0  0  0  0  0  0  0  0  0
   -2.8244   16.5770  -35.9799 H   0  0  0  0  0  0  0  0  0  0  0  0
   -4.4239   17.3945  -35.9799 H   0  0  0  0  0  0  0  0  0  0  0  0
   -4.2042   17.9964  -32.4600 H   0  0  0  0  0  0  0  0  0  0  0  0
   -4.5024   18.2886  -34.1799 H   0  0  0  0  0  0  0  0  0  0  0  0
   -4.4009   20.1525  -32.1504 H   0  0  0  0  0  0  0  0  0  0  0  0
  1  2  1  0
  2  3  1  0
  3  4  1  0
  4  5  2  0
  4  6  1  0
  6  7  1  0
  7  8  1  0
  8  9  1  0
  8 10  2  0
  7 11  2  0
 11 12  1  0
 12 13  2  0
 13 14  1  0
 14 15  2  0
 15 16  1  0
 16 17  1  0
 17 18  1  0
 18 19  1  0
 19 20  1  0
 20 21  1  0
 19 22  1  0
 15 23  1  0
 23 24  2  0
 24  6  1  0
 24 12  1  0
 22 16  1  0
  1 25  1  0
  1 26  1  0
  1 27  1  0
  2 28  1  0
  2 29  1  0
  9 30  1  0
 11 31  1  0
 13 32  1  0
 14 33  1  0
 17 34  1  0
 17 35  1  0
 18 36  1  0
 18 37  1  0
 19 38  1  1
 20 39  1  0
 21 40  1  0
 21 41  1  0
 21 42  1  0
 22 43  1  0
 22 44  1  0
 23 45  1  0
M  CHG  1   9  -1
M  END
>  <UniqueID>  (79) 
79

>  <SMILES>  (79) 
CCOC(=O)n1c(C([NH-])=O)cc2ccc(N3CC[C@@H](NC)C3)cc21

>  <Energy>  (79) 
82.02923882625271

>  <Genealogy>  (79) 
CCOC(=O)n1c(C([NH-])=O)cc2ccc(N3CCC(NC)C3)cc21 (protonated)
CCOC(=O)n1c(C([NH-])=O)cc2ccc(N3CC[C@@H](NC)C3)cc21 (chirality)
CCOC(=O)n1c(C([NH-])=O)cc2ccc(N3CC[C@@H](NC)C3)cc21 (3D coordinates assigned)
CCOC(=O)n1c(C([NH-])=O)cc2ccc(N3CC[C@@H](NC)C3)cc21 (nonaromatic ring conformer: 82.02923882625271 kcal/mol)

>  <smiles>  (79) 
CCOC(=O)n1c(C(N)=O)cc2ccc(N3CCC(NC)C3)cc21

>  <score_type>  (79) 
oracle

>  <origin>  (79) 
adg

>  <m_score__min__energy>  (79) 
-10.82

>  <m_primary>  (79) 
energy

$$$$
79:0
     RDKit          3D

 31 33  0  0  0  0  0  0  0  0999 V2000
   -1.3870   25.6410  -29.0670 N   0  0  0  0  0  0  0  0  0  0  0  0
   -0.9100   24.3240  -29.3280 C   0  0  0  0  0  0  0  0  0  0  0  0
    0.2830   24.0330  -29.0460 O   0  0  0  0  0  0  0  0  0  0  0  0
   -1.8020   23.3310  -29.9620 C   0  0  0  0  0  0  0  0  0  0  0  0
   -1.3560   22.1120  -30.4670 C   0  0  0  0  0  0  0  0  0  0  0  0
   -2.4890   21.4520  -30.8840 C   0  0  0  0  0  0  0  0  0  0  0  0
   -2.6290   20.2020  -31.4760 C   0  0  0  0  0  0  0  0  0  0  0  0
   -3.9200   19.7800  -31.8310 C   0  0  0  0  0  0  0  0  0  0  0  0
   -5.0470   20.6120  -31.5980 C   0  0  0  0  0  0  0  0  0  0  0  0
   -6.4060   20.1620  -31.9880 C   0  0  0  0  0  0  0  0  0  0  0  0
   -6.6390   18.8250  -32.3610 C   0  0  0  0  0  0  0  0  0  0  0  0
   -7.9200   18.4040  -32.7280 C   0  0  0  0  0  0  0  0  0  0  0  0
   -8.9840   19.3100  -32.7250 C   0  0  0  0  0  0  0  0  0  0  0  0
  -10.2250   18.8960  -33.0820 F   0  0  0  0  0  0  0  0  0  0  0  0
   -8.7670   20.6400  -32.3560 C   0  0  0  0  0  0  0  0  0  0  0  0
   -9.8000   21.5190  -32.3480 F   0  0  0  0  0  0  0  0  0  0  0  0
   -7.4870   21.0660  -31.9890 C   0  0  0  0  0  0  0  0  0  0  0  0
   -4.8610   21.8780  -30.9920 C   0  0  0  0  0  0  0  0  0  0  0  0
   -3.5640   22.2640  -30.6320 C   0  0  0  0  0  0  0  0  0  0  0  0
   -3.1600   23.4250  -30.0690 N   0  0  0  0  0  0  0  0  0  0  0  0
   -3.9980   24.5390  -29.7210 C   0  0  0  0  0  0  0  0  0  0  0  0
   -4.7080   24.5010  -28.6820 O   0  0  0  0  0  0  0  0  0  0  0  0
   -4.0160   25.6780  -30.5160 O   0  0  0  0  0  0  0  0  0  0  0  0
   -1.1920   26.4230  -29.7310 H   0  0  0  0  0  0  0  0  0  0  0  0
   -0.3177   21.7529  -30.5210 H   0  0  0  0  0  0  0  0  0  0  0  0
   -1.7536   19.5621  -31.6609 H   0  0  0  0  0  0  0  0  0  0  0  0
   -4.0603   18.7927  -32.2954 H   0  0  0  0  0  0  0  0  0  0  0  0
   -5.8065   18.1060  -32.3637 H   0  0  0  0  0  0  0  0  0  0  0  0
   -8.0912   17.3573  -33.0198 H   0  0  0  0  0  0  0  0  0  0  0  0
   -7.3226   22.1143  -31.6990 H   0  0  0  0  0  0  0  0  0  0  0  0
   -5.7169   22.5440  -30.8080 H   0  0  0  0  0  0  0  0  0  0  0  0
  1  2  1  0
  2  3  2  0
  2  4  1  0
  4  5  2  0
  5  6  1  0
  6  7  2  0
  7  8  1  0
  8  9  2  0
  9 10  1  0
 10 11  2  0
 11 12  1  0
 12 13  2  0
 13 14  1  0
 13 15  1  0
 15 16  1  0
 15 17  2  0
  9 18  1  0
 18 19  2  0
 19 20  1  0
 20 21  1  0
 21 22  2  0
 21 23  1  0
 20  4  1  0
 19  6  1  0
 17 10  1  0
  1 24  1  0
  5 25  1  0
  7 26  1  0
  8 27  1  0
 11 28  1  0
 12 29  1  0
 17 30  1  0
 18 31  1  0
M  CHG  2   1  -1  23  -1
M  END
>  <UniqueID>  (80) 
80

>  <SMILES>  (80) 
[NH-]C(=O)c1cc2ccc(-c3ccc(F)c(F)c3)cc2n1C(=O)[O-]

>  <Energy>  (80) 
78.8190469731597

>  <Genealogy>  (80) 
[NH-]C(=O)c1cc2ccc(-c3ccc(F)c(F)c3)cc2n1C(=O)[O-] (protonated)
[NH-]C(=O)c1cc2ccc(-c3ccc(F)c(F)c3)cc2n1C(=O)[O-] (3D coordinates assigned)
[NH-]C(=O)c1cc2ccc(-c3ccc(F)c(F)c3)cc2n1C(=O)[O-] (optimized conformer: 78.8190469731597 kcal/mol)

>  <smiles>  (80) 
NC(=O)c1cc2ccc(-c3ccc(F)c(F)c3)cc2n1C(=O)O

>  <score_type>  (80) 
oracle

>  <origin>  (80) 
adg

>  <m_score__min__energy>  (80) 
-11.49

>  <m_primary>  (80) 
energy

$$$$
80:0
     RDKit          3D

 27 28  0  0  0  0  0  0  0  0999 V2000
   -2.0770   25.2920  -29.3250 N   0  0  0  0  0  0  0  0  0  0  0  0
   -1.8340   23.8880  -29.3260 C   0  0  0  0  0  0  0  0  0  0  0  0
   -0.8640   23.4300  -28.6660 O   0  0  0  0  0  0  0  0  0  0  0  0
   -2.6680   22.9710  -30.1320 C   0  0  0  0  0  0  0  0  0  0  0  0
   -2.2200   21.7370  -30.5980 C   0  0  0  0  0  0  0  0  0  0  0  0
   -3.2490   21.2380  -31.3610 C   0  0  0  0  0  0  0  0  0  0  0  0
   -3.3450   20.0380  -32.0600 C   0  0  0  0  0  0  0  0  0  0  0  0
   -4.5420   19.7680  -32.7440 C   0  0  0  0  0  0  0  0  0  0  0  0
   -5.6190   20.6880  -32.7040 C   0  0  0  0  0  0  0  0  0  0  0  0
   -6.8900   20.3960  -33.4540 C   0  0  0  0  0  0  0  0  0  0  0  0
   -8.0470   20.3070  -32.5070 C   0  0  0  0  0  0  0  0  0  0  0  0
   -9.0400   19.6610  -32.8010 O   0  0  0  0  0  0  0  0  0  0  0  0
   -5.4820   21.9010  -31.9930 C   0  0  0  0  0  0  0  0  0  0  0  0
   -4.2710   22.1530  -31.3370 C   0  0  0  0  0  0  0  0  0  0  0  0
   -3.9300   23.2220  -30.5850 N   0  0  0  0  0  0  0  0  0  0  0  0
   -4.7730   24.3420  -30.2660 C   0  0  0  0  0  0  0  0  0  0  0  0
   -4.5010   25.6260  -30.8210 N   0  0  0  0  0  0  0  0  0  0  0  0
   -5.7640   24.1910  -29.5020 O   0  0  0  0  0  0  0  0  0  0  0  0
   -3.0510   25.6680  -29.3050 H   0  0  0  0  0  0  0  0  0  0  0  0
   -1.2482   21.2622  -30.3978 H   0  0  0  0  0  0  0  0  0  0  0  0
   -2.5092   19.3231  -32.0763 H   0  0  0  0  0  0  0  0  0  0  0  0
   -4.6441   18.8339  -33.3158 H   0  0  0  0  0  0  0  0  0  0  0  0
   -7.0763   21.2021  -34.1789 H   0  0  0  0  0  0  0  0  0  0  0  0
   -6.7825   19.4343  -33.9770 H   0  0  0  0  0  0  0  0  0  0  0  0
   -8.0015   20.8278  -31.5392 H   0  0  0  0  0  0  0  0  0  0  0  0
   -6.3058   22.6290  -31.9557 H   0  0  0  0  0  0  0  0  0  0  0  0
   -3.5280   26.0030  -30.8470 H   0  0  0  0  0  0  0  0  0  0  0  0
  1  2  1  0
  2  3  2  0
  2  4  1  0
  4  5  2  0
  5  6  1  0
  6  7  2  0
  7  8  1  0
  8  9  2  0
  9 10  1  0
 10 11  1  0
 11 12  2  0
  9 13  1  0
 13 14  2  0
 14 15  1  0
 15 16  1  0
 16 17  1  0
 16 18  2  0
 15  4  1  0
 14  6  1  0
  1 19  1  0
  5 20  1  0
  7 21  1  0
  8 22  1  0
 10 23  1  0
 10 24  1  0
 11 25  1  0
 13 26  1  0
 17 27  1  0
M  CHG  2   1  -1  17  -1
M  END
>  <UniqueID>  (81) 
81

>  <SMILES>  (81) 
[NH-]C(=O)c1cc2ccc(CC=O)cc2n1C([NH-])=O

>  <Energy>  (81) 
64.88166891253965

>  <Genealogy>  (81) 
[NH-]C(=O)c1cc2ccc(CC=O)cc2n1C([NH-])=O (protonated)
[NH-]C(=O)c1cc2ccc(CC=O)cc2n1C([NH-])=O (3D coordinates assigned)
[NH-]C(=O)c1cc2ccc(CC=O)cc2n1C([NH-])=O (optimized conformer: 64.88166891253965 kcal/mol)

>  <smiles>  (81) 
NC(=O)c1cc2ccc(CC=O)cc2n1C(N)=O

>  <score_type>  (81) 
oracle

>  <origin>  (81) 
adg

>  <m_score__min__energy>  (81) 
-9.6300000000000008

>  <m_primary>  (81) 
energy

$$$$
81:0
     RDKit          3D

 25 26  0  0  0  0  0  0  0  0999 V2000
   -3.8740   25.6460  -30.8470 N   0  0  0  0  0  0  0  0  0  0  0  0
   -5.1840   25.2490  -30.4450 C   0  0  0  0  0  0  0  0  0  0  0  0
   -5.8470   25.9960  -29.6790 O   0  0  0  0  0  0  0  0  0  0  0  0
   -5.7640   23.9940  -30.9660 C   0  0  0  0  0  0  0  0  0  0  0  0
   -7.1340   23.7850  -31.1150 C   0  0  0  0  0  0  0  0  0  0  0  0
   -7.2610   22.4800  -31.5300 C   0  0  0  0  0  0  0  0  0  0  0  0
   -8.4010   21.7490  -31.8490 C   0  0  0  0  0  0  0  0  0  0  0  0
   -8.2350   20.4240  -32.2820 C   0  0  0  0  0  0  0  0  0  0  0  0
   -6.9420   19.8480  -32.3780 C   0  0  0  0  0  0  0  0  0  0  0  0
   -6.7730   18.4450  -32.9040 C   0  0  0  0  0  0  0  0  0  0  0  0
   -7.9640   17.7580  -32.7590 F   0  0  0  0  0  0  0  0  0  0  0  0
   -5.7790   17.7790  -32.2080 F   0  0  0  0  0  0  0  0  0  0  0  0
   -6.4250   18.4650  -34.2440 F   0  0  0  0  0  0  0  0  0  0  0  0
   -5.8060   20.6320  -32.0680 C   0  0  0  0  0  0  0  0  0  0  0  0
   -6.0030   21.9440  -31.6220 C   0  0  0  0  0  0  0  0  0  0  0  0
   -5.0710   22.8640  -31.2840 N   0  0  0  0  0  0  0  0  0  0  0  0
   -3.6460   22.6860  -31.3310 C   0  0  0  0  0  0  0  0  0  0  0  0
   -2.8280   23.1550  -30.2610 N   0  0  0  0  0  0  0  0  0  0  0  0
   -3.1090   22.1420  -32.3310 O   0  0  0  0  0  0  0  0  0  0  0  0
   -3.0290   25.2960  -30.3430 H   0  0  0  0  0  0  0  0  0  0  0  0
   -7.9421   24.5100  -30.9382 H   0  0  0  0  0  0  0  0  0  0  0  0
   -9.4025   22.1960  -31.7644 H   0  0  0  0  0  0  0  0  0  0  0  0
   -9.1179   19.8252  -32.5501 H   0  0  0  0  0  0  0  0  0  0  0  0
   -4.7916   20.2202  -32.1750 H   0  0  0  0  0  0  0  0  0  0  0  0
   -2.4370   24.1230  -30.2700 H   0  0  0  0  0  0  0  0  0  0  0  0
  1  2  1  0
  2  3  2  0
  2  4  1  0
  4  5  2  0
  5  6  1  0
  6  7  2  0
  7  8  1  0
  8  9  2  0
  9 10  1  0
 10 11  1  0
 10 12  1  0
 10 13  1  0
  9 14  1  0
 14 15  2  0
 15 16  1  0
 16 17  1  0
 17 18  1  0
 17 19  2  0
 16  4  1  0
 15  6  1  0
  1 20  1  0
  5 21  1  0
  7 22  1  0
  8 23  1  0
 14 24  1  0
 18 25  1  0
M  CHG  2   1  -1  18  -1
M  END
>  <UniqueID>  (82) 
82

>  <SMILES>  (82) 
[NH-]C(=O)c1cc2ccc(C(F)(F)F)cc2n1C([NH-])=O

>  <Energy>  (82) 
65.18610158772171

>  <Genealogy>  (82) 
[NH-]C(=O)c1cc2ccc(C(F)(F)F)cc2n1C([NH-])=O (protonated)
[NH-]C(=O)c1cc2ccc(C(F)(F)F)cc2n1C([NH-])=O (3D coordinates assigned)
[NH-]C(=O)c1cc2ccc(C(F)(F)F)cc2n1C([NH-])=O (optimized conformer: 65.18610158772171 kcal/mol)

>  <smiles>  (82) 
NC(=O)c1cc2ccc(C(F)(F)F)cc2n1C(N)=O

>  <score_type>  (82) 
oracle

>  <origin>  (82) 
adg

>  <m_score__min__energy>  (82) 
-9.2699999999999996

>  <m_primary>  (82) 
energy

$$$$
82:0
     RDKit          3D

 41 43  0  0  0  0  0  0  0  0999 V2000
   -9.9860   21.1210  -32.0570 C   0  0  0  0  0  0  0  0  0  0  0  0
   -8.5410   20.8610  -32.3400 C   0  0  0  0  0  0  0  0  0  0  0  0
   -7.6840   21.7260  -32.0180 O   0  0  0  0  0  0  0  0  0  0  0  0
   -8.1570   19.6780  -33.0560 N   0  0  0  0  0  0  0  0  0  0  0  0
   -6.7970   19.2430  -33.2240 C   0  0  0  0  0  0  0  0  0  0  0  0
   -6.4710   18.1610  -34.0620 C   0  0  0  0  0  0  0  0  0  0  0  0
   -5.1410   17.7760  -34.2300 C   0  0  0  0  0  0  0  0  0  0  0  0
   -4.1190   18.4690  -33.5760 C   0  0  0  0  0  0  0  0  0  0  0  0
   -4.4200   19.5670  -32.7510 C   0  0  0  0  0  0  0  0  0  0  0  0
   -3.3360   20.3120  -32.0620 C   0  0  0  0  0  0  0  0  0  0  0  0
   -2.0130   19.7930  -32.0370 C   0  0  0  0  0  0  0  0  0  0  0  0
   -0.9770   20.4940  -31.3940 C   0  0  0  0  0  0  0  0  0  0  0  0
   -1.2900   21.7030  -30.7830 C   0  0  0  0  0  0  0  0  0  0  0  0
   -0.4830   22.5900  -30.1040 C   0  0  0  0  0  0  0  0  0  0  0  0
   -1.3270   23.6280  -29.7090 C   0  0  0  0  0  0  0  0  0  0  0  0
   -0.8890   24.7630  -28.8710 C   0  0  0  0  0  0  0  0  0  0  0  0
   -1.5890   26.0040  -28.9340 N   0  0  0  0  0  0  0  0  0  0  0  0
    0.1170   24.6590  -28.1210 O   0  0  0  0  0  0  0  0  0  0  0  0
   -2.5990   23.3950  -30.1360 N   0  0  0  0  0  0  0  0  0  0  0  0
   -3.7520   24.2390  -29.9900 C   0  0  0  0  0  0  0  0  0  0  0  0
   -4.8320   23.9010  -29.0120 C   0  0  0  0  0  0  0  0  0  0  0  0
   -3.8310   25.3110  -30.6480 O   0  0  0  0  0  0  0  0  0  0  0  0
   -2.5610   22.2120  -30.7850 C   0  0  0  0  0  0  0  0  0  0  0  0
   -3.6100   21.5450  -31.4260 C   0  0  0  0  0  0  0  0  0  0  0  0
   -5.7650   19.9500  -32.5890 C   0  0  0  0  0  0  0  0  0  0  0  0
  -10.1472   21.1500  -30.9693 H   0  0  0  0  0  0  0  0  0  0  0  0
  -10.2779   22.0861  -32.4968 H   0  0  0  0  0  0  0  0  0  0  0  0
  -10.5960   20.3182  -32.4968 H   0  0  0  0  0  0  0  0  0  0  0  0
   -8.9070   19.1480  -33.5550 H   0  0  0  0  0  0  0  0  0  0  0  0
   -7.2690   17.6159  -34.5874 H   0  0  0  0  0  0  0  0  0  0  0  0
   -4.8956   16.9232  -34.8801 H   0  0  0  0  0  0  0  0  0  0  0  0
   -3.0733   18.1538  -33.7073 H   0  0  0  0  0  0  0  0  0  0  0  0
   -1.7969   18.8318  -32.5263 H   0  0  0  0  0  0  0  0  0  0  0  0
    0.0491   20.0980  -31.3751 H   0  0  0  0  0  0  0  0  0  0  0  0
    0.5966   22.4989  -29.9140 H   0  0  0  0  0  0  0  0  0  0  0  0
   -2.6320   26.0310  -28.9690 H   0  0  0  0  0  0  0  0  0  0  0  0
   -4.4496   24.0207  -27.9876 H   0  0  0  0  0  0  0  0  0  0  0  0
   -5.6886   24.5740  -29.1646 H   0  0  0  0  0  0  0  0  0  0  0  0
   -5.1521   22.8597  -29.1646 H   0  0  0  0  0  0  0  0  0  0  0  0
   -4.6247   21.9697  -31.4352 H   0  0  0  0  0  0  0  0  0  0  0  0
   -6.0101   20.8155  -31.9558 H   0  0  0  0  0  0  0  0  0  0  0  0
  1  2  1  0
  2  3  2  0
  2  4  1  0
  4  5  1  0
  5  6  2  0
  6  7  1  0
  7  8  2  0
  8  9  1  0
  9 10  1  0
 10 11  2  0
 11 12  1  0
 12 13  2  0
 13 14  1  0
 14 15  2  0
 15 16  1  0
 16 17  1  0
 16 18  2  0
 15 19  1  0
 19 20  1  0
 20 21  1  0
 20 22  2  0
 19 23  1  0
 23 24  2  0
  9 25  2  0
 25  5  1  0
 24 10  1  0
 23 13  1  0
  1 26  1  0
  1 27  1  0
  1 28  1  0
  4 29  1  0
  6 30  1  0
  7 31  1  0
  8 32  1  0
 11 33  1  0
 12 34  1  0
 14 35  1  0
 17 36  1  0
 21 37  1  0
 21 38  1  0
 21 39  1  0
 24 40  1  0
 25 41  1  0
M  CHG  1  17  -1
M  END
>  <UniqueID>  (83) 
83

>  <SMILES>  (83) 
CC(=O)Nc1cccc(-c2ccc3cc(C([NH-])=O)n(C(C)=O)c3c2)c1

>  <Energy>  (83) 
88.86067350401139

>  <Genealogy>  (83) 
CC(=O)Nc1cccc(-c2ccc3cc(C([NH-])=O)n(C(C)=O)c3c2)c1 (protonated)
CC(=O)Nc1cccc(-c2ccc3cc(C([NH-])=O)n(C(C)=O)c3c2)c1 (3D coordinates assigned)
CC(=O)Nc1cccc(-c2ccc3cc(C([NH-])=O)n(C(C)=O)c3c2)c1 (optimized conformer: 88.86067350401139 kcal/mol)

>  <smiles>  (83) 
CC(=O)Nc1cccc(-c2ccc3cc(C(N)=O)n(C(C)=O)c3c2)c1

>  <score_type>  (83) 
oracle

>  <origin>  (83) 
adg

>  <m_score__min__energy>  (83) 
-11.720000000000001

>  <m_primary>  (83) 
energy

$$$$
83:0
     RDKit          3D

 68 71  0  0  0  0  0  0  0  0999 V2000
    0.6490   20.6140  -36.5390 C   0  0  0  0  0  0  0  0  0  0  0  0
    0.7530   21.5850  -35.3480 C   0  0  0  0  0  0  0  0  0  0  0  0
    2.1120   21.3840  -34.6620 C   0  0  0  0  0  0  0  0  0  0  0  0
    0.6470   23.0450  -35.8260 C   0  0  0  0  0  0  0  0  0  0  0  0
   -0.2600   21.2980  -34.3720 O   0  0  0  0  0  0  0  0  0  0  0  0
   -0.1740   20.3550  -33.3340 C   0  0  0  0  0  0  0  0  0  0  0  0
    0.1910   20.7100  -32.1790 O   0  0  0  0  0  0  0  0  0  0  0  0
   -0.5180   18.9760  -33.5830 N   0  0  0  0  0  0  0  0  0  0  0  0
   -0.4850   17.9980  -32.4810 C   0  0  0  0  0  0  0  0  0  0  0  0
   -1.3040   16.7380  -32.8180 C   0  0  0  0  0  0  0  0  0  0  0  0
   -2.5990   17.0860  -33.5920 C   0  0  0  0  0  0  0  0  0  0  0  0
   -3.6100   17.8340  -32.6980 C   0  0  0  0  0  0  0  0  0  0  0  0
   -4.9390   17.4320  -33.0220 O   0  0  0  0  0  0  0  0  0  0  0  0
   -6.0590   18.2600  -32.8740 C   0  0  0  0  0  0  0  0  0  0  0  0
   -6.1300   19.3780  -33.6120 C   0  0  0  0  0  0  0  0  0  0  0  0
   -7.2480   20.3840  -33.4240 C   0  0  2  0  0  0  0  0  0  0  0  0
   -6.8440   21.4990  -32.4670 C   0  0  0  0  0  0  0  0  0  0  0  0
   -7.8490   22.3180  -31.8860 C   0  0  0  0  0  0  0  0  0  0  0  0
   -7.5190   23.3030  -30.9400 C   0  0  0  0  0  0  0  0  0  0  0  0
   -6.1820   23.4410  -30.5780 C   0  0  0  0  0  0  0  0  0  0  0  0
   -5.5860   24.3100  -29.6910 C   0  0  0  0  0  0  0  0  0  0  0  0
   -4.2270   24.0040  -29.7250 C   0  0  0  0  0  0  0  0  0  0  0  0
   -3.2320   24.6230  -28.8220 C   0  0  0  0  0  0  0  0  0  0  0  0
   -2.0800   25.2850  -29.3410 N   0  0  0  0  0  0  0  0  0  0  0  0
   -3.3680   24.5170  -27.5730 O   0  0  0  0  0  0  0  0  0  0  0  0
   -3.9900   22.9880  -30.6050 N   0  0  0  0  0  0  0  0  0  0  0  0
   -2.7250   22.4140  -30.9790 C   0  0  0  0  0  0  0  0  0  0  0  0
   -2.6220   21.6100  -32.1540 N   0  0  0  0  0  0  0  0  0  0  0  0
   -1.7040   22.6130  -30.2670 O   0  0  0  0  0  0  0  0  0  0  0  0
   -5.1980   22.6540  -31.1130 C   0  0  0  0  0  0  0  0  0  0  0  0
   -5.4950   21.6810  -32.0720 C   0  0  0  0  0  0  0  0  0  0  0  0
   -8.5470   19.6910  -32.9550 C   0  0  0  0  0  0  0  0  0  0  0  0
   -8.2790   18.6570  -31.8980 C   0  0  0  0  0  0  0  0  0  0  0  0
   -7.1470   17.9440  -31.9100 C   0  0  0  0  0  0  0  0  0  0  0  0
   -2.2970   17.8780  -34.8980 C   0  0  0  0  0  0  0  0  0  0  0  0
   -0.9000   18.5210  -34.9250 C   0  0  0  0  0  0  0  0  0  0  0  0
    0.5388   19.5854  -36.1650 H   0  0  0  0  0  0  0  0  0  0  0  0
   -0.2261   20.8772  -37.1513 H   0  0  0  0  0  0  0  0  0  0  0  0
    1.5600   20.6859  -37.1513 H   0  0  0  0  0  0  0  0  0  0  0  0
    1.9782   21.4038  -33.5703 H   0  0  0  0  0  0  0  0  0  0  0  0
    2.5343   20.4136  -34.9621 H   0  0  0  0  0  0  0  0  0  0  0  0
    2.7971   22.1906  -34.9621 H   0  0  0  0  0  0  0  0  0  0  0  0
    0.5984   23.7137  -34.9540 H   0  0  0  0  0  0  0  0  0  0  0  0
    1.5292   23.2971  -36.4327 H   0  0  0  0  0  0  0  0  0  0  0  0
   -0.2624   23.1671  -36.4327 H   0  0  0  0  0  0  0  0  0  0  0  0
    0.5589   17.7060  -32.2937 H   0  0  0  0  0  0  0  0  0  0  0  0
   -0.9268   18.4679  -31.5899 H   0  0  0  0  0  0  0  0  0  0  0  0
   -0.6886   16.0677  -33.4361 H   0  0  0  0  0  0  0  0  0  0  0  0
   -1.5895   16.2521  -31.8733 H   0  0  0  0  0  0  0  0  0  0  0  0
   -3.0635   16.1343  -33.8897 H   0  0  0  0  0  0  0  0  0  0  0  0
   -3.4058   17.6000  -31.6428 H   0  0  0  0  0  0  0  0  0  0  0  0
   -3.5091   18.9163  -32.8667 H   0  0  0  0  0  0  0  0  0  0  0  0
   -5.3581   19.5693  -34.3720 H   0  0  0  0  0  0  0  0  0  0  0  0
   -7.4445   20.8454  -34.4030 H   0  0  0  0  0  0  0  0  0  0  0  0
   -8.8996   22.1791  -32.1807 H   0  0  0  0  0  0  0  0  0  0  0  0
   -8.2944   23.9462  -30.4984 H   0  0  0  0  0  0  0  0  0  0  0  0
   -6.0792   25.0831  -29.0835 H   0  0  0  0  0  0  0  0  0  0  0  0
   -1.4690   24.8190  -30.0510 H   0  0  0  0  0  0  0  0  0  0  0  0
   -1.7540   21.5970  -32.7320 H   0  0  0  0  0  0  0  0  0  0  0  0
   -4.6954   21.0672  -32.5124 H   0  0  0  0  0  0  0  0  0  0  0  0
   -9.2277   20.4514  -32.5445 H   0  0  0  0  0  0  0  0  0  0  0  0
   -8.9959   19.1844  -33.8221 H   0  0  0  0  0  0  0  0  0  0  0  0
   -9.0220   18.4844  -31.1054 H   0  0  0  0  0  0  0  0  0  0  0  0
   -7.0193   17.1146  -31.1988 H   0  0  0  0  0  0  0  0  0  0  0  0
   -2.3769   17.1862  -35.7495 H   0  0  0  0  0  0  0  0  0  0  0  0
   -3.0282   18.6980  -34.9518 H   0  0  0  0  0  0  0  0  0  0  0  0
   -0.1674   17.7805  -35.2784 H   0  0  0  0  0  0  0  0  0  0  0  0
   -0.9200   19.3875  -35.6023 H   0  0  0  0  0  0  0  0  0  0  0  0
  1  2  1  0
  2  3  1  0
  2  4  1  0
  2  5  1  0
  5  6  1  0
  6  7  2  0
  6  8  1  0
  8  9  1  0
  9 10  1  0
 10 11  1  0
 11 12  1  0
 12 13  1  0
 13 14  1  0
 14 15  2  0
 15 16  1  0
 16 17  1  0
 17 18  2  0
 18 19  1  0
 19 20  2  0
 20 21  1  0
 21 22  2  0
 22 23  1  0
 23 24  1  0
 23 25  2  0
 22 26  1  0
 26 27  1  0
 27 28  1  0
 27 29  2  0
 26 30  1  0
 30 31  2  0
 16 32  1  0
 32 33  1  0
 33 34  2  0
 11 35  1  0
 35 36  1  0
 36  8  1  0
 34 14  1  0
 31 17  1  0
 30 20  1  0
  1 37  1  0
  1 38  1  0
  1 39  1  0
  3 40  1  0
  3 41  1  0
  3 42  1  0
  4 43  1  0
  4 44  1  0
  4 45  1  0
  9 46  1  0
  9 47  1  0
 10 48  1  0
 10 49  1  0
 11 50  1  0
 12 51  1  0
 12 52  1  0
 15 53  1  0
 16 54  1  6
 18 55  1  0
 19 56  1  0
 21 57  1  0
 24 58  1  0
 28 59  1  0
 31 60  1  0
 32 61  1  0
 32 62  1  0
 33 63  1  0
 34 64  1  0
 35 65  1  0
 35 66  1  0
 36 67  1  0
 36 68  1  0
M  CHG  2  24  -1  28  -1
M  END
>  <UniqueID>  (84) 
84

>  <SMILES>  (84) 
CC(C)(C)OC(=O)N1CCC(COC2=C[C@H](c3ccc4cc(C([NH-])=O)n(C([NH-])=O)c4c3)CC=C2)CC1

>  <Energy>  (84) 
108.7294237127787

>  <Genealogy>  (84) 
CC(C)(C)OC(=O)N1CCC(COC2=CC(c3ccc4cc(C([NH-])=O)n(C([NH-])=O)c4c3)CC=C2)CC1 (protonated)
CC(C)(C)OC(=O)N1CCC(COC2=C[C@H](c3ccc4cc(C([NH-])=O)n(C([NH-])=O)c4c3)CC=C2)CC1 (chirality)
CC(C)(C)OC(=O)N1CCC(COC2=C[C@H](c3ccc4cc(C([NH-])=O)n(C([NH-])=O)c4c3)CC=C2)CC1 (3D coordinates assigned)
CC(C)(C)OC(=O)N1CCC(COC2=C[C@H](c3ccc4cc(C([NH-])=O)n(C([NH-])=O)c4c3)CC=C2)CC1 (nonaromatic ring conformer: 108.7294237127787 kcal/mol)

>  <smiles>  (84) 
CC(C)(C)OC(=O)N1CCC(COC2=CC(c3ccc4cc(C(N)=O)n(C(N)=O)c4c3)CC=C2)CC1

>  <score_type>  (84) 
oracle

>  <origin>  (84) 
adg

>  <m_score__min__energy>  (84) 
-13.119999999999999

>  <m_primary>  (84) 
energy

$$$$
84:0
     RDKit          3D

 34 36  0  0  0  0  0  0  0  0999 V2000
   -1.6400   25.6790  -29.0130 N   0  0  0  0  0  0  0  0  0  0  0  0
   -1.1120   24.3670  -29.1910 C   0  0  0  0  0  0  0  0  0  0  0  0
    0.0140   24.0840  -28.7010 O   0  0  0  0  0  0  0  0  0  0  0  0
   -1.8370   23.3570  -29.9890 C   0  0  0  0  0  0  0  0  0  0  0  0
   -1.2730   22.1450  -30.3840 C   0  0  0  0  0  0  0  0  0  0  0  0
   -2.2230   21.5420  -31.1760 C   0  0  0  0  0  0  0  0  0  0  0  0
   -2.1940   20.3130  -31.8280 C   0  0  0  0  0  0  0  0  0  0  0  0
   -3.3300   19.9290  -32.5570 C   0  0  0  0  0  0  0  0  0  0  0  0
   -4.4760   20.7680  -32.6180 C   0  0  0  0  0  0  0  0  0  0  0  0
   -5.7180   20.3660  -33.3930 C   0  0  2  0  0  0  0  0  0  0  0  0
   -7.0110   20.3970  -32.5740 C   0  0  0  0  0  0  0  0  0  0  0  0
   -7.1680   18.8900  -32.7570 C   0  0  0  0  0  0  0  0  0  0  0  0
   -5.8800   18.8510  -33.5800 C   0  0  1  0  0  0  0  0  0  0  0  0
   -6.1120   18.4740  -34.9780 N   0  0  0  0  0  0  0  0  0  0  0  0
   -4.4620   22.0090  -31.9410 C   0  0  0  0  0  0  0  0  0  0  0  0
   -3.3090   22.3750  -31.2370 C   0  0  0  0  0  0  0  0  0  0  0  0
   -3.0890   23.4940  -30.5100 N   0  0  0  0  0  0  0  0  0  0  0  0
   -4.0310   24.5510  -30.2620 C   0  0  0  0  0  0  0  0  0  0  0  0
   -3.8860   25.6740  -30.8120 O   0  0  0  0  0  0  0  0  0  0  0  0
   -5.1280   24.3340  -29.4370 O   0  0  0  0  0  0  0  0  0  0  0  0
   -2.6700   25.8450  -28.9960 H   0  0  0  0  0  0  0  0  0  0  0  0
   -0.2797   21.7538  -30.1189 H   0  0  0  0  0  0  0  0  0  0  0  0
   -1.3084   19.6628  -31.7737 H   0  0  0  0  0  0  0  0  0  0  0  0
   -3.3337   18.9659  -33.0884 H   0  0  0  0  0  0  0  0  0  0  0  0
   -5.5936   21.0273  -34.2632 H   0  0  0  0  0  0  0  0  0  0  0  0
   -6.8723   20.7098  -31.5286 H   0  0  0  0  0  0  0  0  0  0  0  0
   -7.8285   21.0784  -32.8523 H   0  0  0  0  0  0  0  0  0  0  0  0
   -7.1185   18.3169  -31.8194 H   0  0  0  0  0  0  0  0  0  0  0  0
   -8.1009   18.4746  -33.1659 H   0  0  0  0  0  0  0  0  0  0  0  0
   -5.0645   18.1628  -33.3128 H   0  0  0  0  0  0  0  0  0  0  0  0
   -5.2270   18.1640  -35.4440 H   0  0  0  0  0  0  0  0  0  0  0  0
   -6.5020   19.2950  -35.4940 H   0  0  0  0  0  0  0  0  0  0  0  0
   -6.8080   17.6940  -35.0100 H   0  0  0  0  0  0  0  0  0  0  0  0
   -5.3387   22.6729  -31.9670 H   0  0  0  0  0  0  0  0  0  0  0  0
  1  2  1  0
  2  3  2  0
  2  4  1  0
  4  5  2  0
  5  6  1  0
  6  7  2  0
  7  8  1  0
  8  9  2  0
  9 10  1  0
 10 11  1  0
 11 12  1  0
 12 13  1  0
 13 14  1  0
  9 15  1  0
 15 16  2  0
 16 17  1  0
 17 18  1  0
 18 19  2  0
 18 20  1  0
 17  4  1  0
 16  6  1  0
 13 10  1  0
  1 21  1  0
  5 22  1  0
  7 23  1  0
  8 24  1  0
 10 25  1  6
 11 26  1  0
 11 27  1  0
 12 28  1  0
 12 29  1  0
 13 30  1  1
 14 31  1  0
 14 32  1  0
 14 33  1  0
 15 34  1  0
M  CHG  3   1  -1  14   1  20  -1
M  END
>  <UniqueID>  (85) 
85

>  <SMILES>  (85) 
[NH-]C(=O)c1cc2ccc([C@@H]3CC[C@H]3[NH3+])cc2n1C(=O)[O-]

>  <Energy>  (85) 
137.0650339022466

>  <Genealogy>  (85) 
[NH-]C(=O)c1cc2ccc(C3CC[C@H]3[NH3+])cc2n1C(=O)[O-] (protonated)
[NH-]C(=O)c1cc2ccc([C@@H]3CC[C@H]3[NH3+])cc2n1C(=O)[O-] (chirality)
[NH-]C(=O)c1cc2ccc([C@@H]3CC[C@H]3[NH3+])cc2n1C(=O)[O-] (3D coordinates assigned)
[NH-]C(=O)c1cc2ccc([C@@H]3CC[C@H]3[NH3+])cc2n1C(=O)[O-] (nonaromatic ring conformer: 137.0650339022466 kcal/mol)

>  <smiles>  (85) 
NC(=O)c1cc2ccc(C3CC[C@H]3N)cc2n1C(=O)O

>  <score_type>  (85) 
oracle

>  <origin>  (85) 
adg

>  <m_score__min__energy>  (85) 
-11.07

>  <m_primary>  (85) 
energy

$$$$
85:0
     RDKit          3D

 50 53  0  0  0  0  0  0  0  0999 V2000
   -4.7140   15.3280  -33.9440 N   0  0  0  0  0  0  0  0  0  0  0  0
   -6.0790   15.8050  -33.9980 C   0  0  0  0  0  0  0  0  0  0  0  0
   -6.9060   14.9640  -34.4180 O   0  0  0  0  0  0  0  0  0  0  0  0
   -6.3770   17.1580  -33.5810 C   0  0  0  0  0  0  0  0  0  0  0  0
   -7.5980   17.4960  -32.9810 C   0  0  0  0  0  0  0  0  0  0  0  0
   -7.6040   18.8400  -32.6930 C   0  0  0  0  0  0  0  0  0  0  0  0
   -8.5550   19.6520  -32.1090 C   0  0  0  0  0  0  0  0  0  0  0  0
   -8.2760   20.9930  -31.9440 C   0  0  0  0  0  0  0  0  0  0  0  0
   -7.0860   21.5030  -32.3510 C   0  0  0  0  0  0  0  0  0  0  0  0
   -6.8040   22.9320  -32.1690 C   0  0  0  0  0  0  0  0  0  0  0  0
   -5.9120   23.2710  -31.0630 C   0  0  0  0  0  0  0  0  0  0  0  0
   -5.5140   22.3580  -30.0800 C   0  0  0  0  0  0  0  0  0  0  0  0
   -4.6670   22.7230  -29.0500 C   0  0  0  0  0  0  0  0  0  0  0  0
   -4.2080   24.0360  -29.0050 C   0  0  0  0  0  0  0  0  0  0  0  0
   -3.3110   24.5090  -27.9530 C   0  0  0  0  0  0  0  0  0  0  0  0
   -1.9430   24.6620  -28.1560 C   0  0  0  0  0  0  0  0  0  0  0  0
   -1.1310   25.1130  -27.1280 C   0  0  0  0  0  0  0  0  0  0  0  0
   -1.6960   25.4130  -25.8890 C   0  0  0  0  0  0  0  0  0  0  0  0
   -0.8010   25.9220  -24.7220 B   0  0  0  0  0  0  0  0  0  0  0  0
   -1.0230   27.2800  -24.2130 O   0  0  0  0  0  0  0  0  0  0  0  0
    0.4770   25.3060  -24.4750 O   0  0  0  0  0  0  0  0  0  0  0  0
   -3.0510   25.2660  -25.6740 C   0  0  0  0  0  0  0  0  0  0  0  0
   -3.8560   24.8140  -26.7060 C   0  0  0  0  0  0  0  0  0  0  0  0
   -4.5770   24.9740  -29.9580 C   0  0  0  0  0  0  0  0  0  0  0  0
   -5.4230   24.5580  -30.9650 C   0  0  0  0  0  0  0  0  0  0  0  0
   -6.1490   20.6610  -32.9350 C   0  0  0  0  0  0  0  0  0  0  0  0
   -6.3800   19.3110  -33.1220 C   0  0  0  0  0  0  0  0  0  0  0  0
   -5.6520   18.2850  -33.6550 N   0  0  0  0  0  0  0  0  0  0  0  0
   -4.3520   18.4240  -34.1890 C   0  0  0  0  0  0  0  0  0  0  0  0
   -3.7630   17.5860  -34.9090 O   0  0  0  0  0  0  0  0  0  0  0  0
   -3.6080   19.5890  -33.9180 O   0  0  0  0  0  0  0  0  0  0  0  0
   -4.2270   15.2480  -34.8670 H   0  0  0  0  0  0  0  0  0  0  0  0
   -4.2680   15.0840  -33.0280 H   0  0  0  0  0  0  0  0  0  0  0  0
   -8.4211   16.7964  -32.7735 H   0  0  0  0  0  0  0  0  0  0  0  0
   -9.5193   19.2369  -31.7806 H   0  0  0  0  0  0  0  0  0  0  0  0
   -9.0231   21.6533  -31.4794 H   0  0  0  0  0  0  0  0  0  0  0  0
   -6.3472   23.3061  -33.0971 H   0  0  0  0  0  0  0  0  0  0  0  0
   -7.7705   23.3972  -31.9249 H   0  0  0  0  0  0  0  0  0  0  0  0
   -5.8845   21.3234  -30.1280 H   0  0  0  0  0  0  0  0  0  0  0  0
   -4.3634   21.9934  -28.2848 H   0  0  0  0  0  0  0  0  0  0  0  0
   -1.5046   24.4240  -29.1364 H   0  0  0  0  0  0  0  0  0  0  0  0
   -0.0494   25.2334  -27.2879 H   0  0  0  0  0  0  0  0  0  0  0  0
   -1.9850   27.3270  -23.9700 H   0  0  0  0  0  0  0  0  0  0  0  0
    0.5900   24.9440  -23.5740 H   0  0  0  0  0  0  0  0  0  0  0  0
   -3.4872   25.5054  -24.6930 H   0  0  0  0  0  0  0  0  0  0  0  0
   -4.9369   24.6942  -26.5405 H   0  0  0  0  0  0  0  0  0  0  0  0
   -4.2092   26.0097  -29.9125 H   0  0  0  0  0  0  0  0  0  0  0  0
   -5.7234   25.2897  -31.7294 H   0  0  0  0  0  0  0  0  0  0  0  0
   -5.1873   21.0839  -33.2609 H   0  0  0  0  0  0  0  0  0  0  0  0
   -2.5800   19.5780  -33.9680 H   0  0  0  0  0  0  0  0  0  0  0  0
  1  2  1  0
  2  3  2  0
  2  4  1  0
  4  5  2  0
  5  6  1  0
  6  7  2  0
  7  8  1  0
  8  9  2  0
  9 10  1  0
 10 11  1  0
 11 12  2  0
 12 13  1  0
 13 14  2  0
 14 15  1  0
 15 16  2  0
 16 17  1  0
 17 18  2  0
 18 19  1  0
 19 20  1  0
 19 21  1  0
 18 22  1  0
 22 23  2  0
 14 24  1  0
 24 25  2  0
  9 26  1  0
 26 27  2  0
 27 28  1  0
 28 29  1  0
 29 30  2  0
 29 31  1  0
 28  4  1  0
 27  6  1  0
 25 11  1  0
 23 15  1  0
  1 32  1  0
  1 33  1  0
  5 34  1  0
  7 35  1  0
  8 36  1  0
 10 37  1  0
 10 38  1  0
 12 39  1  0
 13 40  1  0
 16 41  1  0
 17 42  1  0
 20 43  1  0
 21 44  1  0
 22 45  1  0
 23 46  1  0
 24 47  1  0
 25 48  1  0
 26 49  1  0
 31 50  1  0
M  END
>  <smiles>  (86) 
NC(=O)c1cc2ccc(Cc3ccc(-c4ccc(B(O)O)cc4)cc3)cc2n1C(=O)O

>  <score_type>  (86) 
oracle

>  <origin>  (86) 
adg

>  <m_score__min__energy>  (86) 
-9.25

>  <m_primary>  (86) 
energy

$$$$
86:0
     RDKit          3D

 34 36  0  0  0  0  0  0  0  0999 V2000
   -3.5100   24.9990  -30.4760 N   0  0  0  0  0  0  0  0  0  0  0  0
   -4.9090   25.1120  -30.7210 C   0  0  0  0  0  0  0  0  0  0  0  0
   -5.4340   26.2560  -30.7830 O   0  0  0  0  0  0  0  0  0  0  0  0
   -5.7390   23.9110  -30.9530 C   0  0  0  0  0  0  0  0  0  0  0  0
   -7.0770   23.8180  -30.5770 C   0  0  0  0  0  0  0  0  0  0  0  0
   -7.5060   22.5990  -31.0520 C   0  0  0  0  0  0  0  0  0  0  0  0
   -8.7500   21.9830  -30.9480 C   0  0  0  0  0  0  0  0  0  0  0  0
   -8.9000   20.7050  -31.5100 C   0  0  0  0  0  0  0  0  0  0  0  0
   -7.8140   20.0710  -32.1630 C   0  0  0  0  0  0  0  0  0  0  0  0
   -7.9730   18.6820  -32.7150 C   0  0  0  0  0  0  0  0  0  0  0  0
   -6.6480   18.1570  -33.1690 C   0  0  0  0  0  0  0  0  0  0  0  0
   -6.1070   18.5940  -34.3390 N   0  0  0  0  0  0  0  0  0  0  0  0
   -4.8880   18.1600  -34.7510 C   0  0  0  0  0  0  0  0  0  0  0  0
   -4.1690   17.2600  -33.9640 C   0  0  0  0  0  0  0  0  0  0  0  0
   -4.7310   16.8320  -32.7630 C   0  0  0  0  0  0  0  0  0  0  0  0
   -5.9530   17.2890  -32.3850 N   0  0  0  0  0  0  0  0  0  0  0  0
   -6.5630   20.7210  -32.2370 C   0  0  0  0  0  0  0  0  0  0  0  0
   -6.4460   22.0000  -31.6820 C   0  0  0  0  0  0  0  0  0  0  0  0
   -5.3530   22.7900  -31.6250 N   0  0  0  0  0  0  0  0  0  0  0  0
   -4.0410   22.4550  -32.1050 C   0  0  0  0  0  0  0  0  0  0  0  0
   -3.8200   22.2110  -33.4940 N   0  0  0  0  0  0  0  0  0  0  0  0
   -3.0700   22.4130  -31.3040 O   0  0  0  0  0  0  0  0  0  0  0  0
   -2.8730   24.5710  -31.1850 H   0  0  0  0  0  0  0  0  0  0  0  0
   -7.6659   24.5608  -30.0190 H   0  0  0  0  0  0  0  0  0  0  0  0
   -9.5893   22.4819  -30.4414 H   0  0  0  0  0  0  0  0  0  0  0  0
   -9.8702   20.1909  -31.4427 H   0  0  0  0  0  0  0  0  0  0  0  0
   -8.3771   18.0231  -31.9324 H   0  0  0  0  0  0  0  0  0  0  0  0
   -8.6627   18.7106  -33.5715 H   0  0  0  0  0  0  0  0  0  0  0  0
   -4.4685   18.5172  -35.7030 H   0  0  0  0  0  0  0  0  0  0  0  0
   -3.1813   16.8967  -34.2842 H   0  0  0  0  0  0  0  0  0  0  0  0
   -4.1854   16.1245  -32.1214 H   0  0  0  0  0  0  0  0  0  0  0  0
   -5.7021   20.2343  -32.7187 H   0  0  0  0  0  0  0  0  0  0  0  0
   -2.8690   21.9560  -33.8390 H   0  0  0  0  0  0  0  0  0  0  0  0
   -4.5980   22.3170  -34.1820 H   0  0  0  0  0  0  0  0  0  0  0  0
  1  2  1  0
  2  3  2  0
  2  4  1  0
  4  5  2  0
  5  6  1  0
  6  7  2  0
  7  8  1  0
  8  9  2  0
  9 10  1  0
 10 11  1  0
 11 12  2  0
 12 13  1  0
 13 14  2  0
 14 15  1  0
 15 16  2  0
  9 17  1  0
 17 18  2  0
 18 19  1  0
 19 20  1  0
 20 21  1  0
 20 22  2  0
 19  4  1  0
 18  6  1  0
 16 11  1  0
  1 23  1  0
  5 24  1  0
  7 25  1  0
  8 26  1  0
 10 27  1  0
 10 28  1  0
 13 29  1  0
 14 30  1  0
 15 31  1  0
 17 32  1  0
 21 33  1  0
 21 34  1  0
M  CHG  1   1  -1
M  END
>  <UniqueID>  (87) 
86

>  <SMILES>  (87) 
[NH-]C(=O)c1cc2ccc(Cc3ncccn3)cc2n1C(N)=O

>  <Energy>  (87) 
74.48231075453587

>  <Genealogy>  (87) 
[NH-]C(=O)c1cc2ccc(Cc3ncccn3)cc2n1C(N)=O (protonated)
[NH-]C(=O)c1cc2ccc(Cc3ncccn3)cc2n1C(N)=O (3D coordinates assigned)
[NH-]C(=O)c1cc2ccc(Cc3ncccn3)cc2n1C(N)=O (optimized conformer: 74.48231075453587 kcal/mol)

>  <smiles>  (87) 
NC(=O)c1cc2ccc(Cc3ncccn3)cc2n1C(N)=O

>  <score_type>  (87) 
oracle

>  <origin>  (87) 
adg

>  <m_score__min__energy>  (87) 
-11.289999999999999

>  <m_primary>  (87) 
energy

$$$$
87:0
     RDKit          3D

 32 34  0  0  0  0  0  0  0  0999 V2000
   -6.8340   14.9920  -34.2000 C   0  0  0  0  0  0  0  0  0  0  0  0
   -6.4240   16.3870  -34.1170 N   0  0  0  0  0  0  0  0  0  0  0  0
   -6.9460   17.3120  -33.2920 C   0  0  0  0  0  0  0  0  0  0  0  0
   -6.3440   18.5280  -33.5720 C   0  0  0  0  0  0  0  0  0  0  0  0
   -6.5960   19.8370  -32.9180 C   0  0  0  0  0  0  0  0  0  0  0  0
   -7.9250   20.2730  -32.6670 C   0  0  0  0  0  0  0  0  0  0  0  0
   -8.1740   21.5050  -32.0400 C   0  0  0  0  0  0  0  0  0  0  0  0
   -7.0830   22.2870  -31.6800 C   0  0  0  0  0  0  0  0  0  0  0  0
   -7.0390   23.5060  -31.0440 C   0  0  0  0  0  0  0  0  0  0  0  0
   -5.6860   23.8160  -30.9320 C   0  0  0  0  0  0  0  0  0  0  0  0
   -5.1860   25.0950  -30.3850 C   0  0  0  0  0  0  0  0  0  0  0  0
   -3.9480   25.6290  -30.8480 N   0  0  0  0  0  0  0  0  0  0  0  0
   -5.8220   25.7030  -29.4840 O   0  0  0  0  0  0  0  0  0  0  0  0
   -4.9220   22.8230  -31.4700 N   0  0  0  0  0  0  0  0  0  0  0  0
   -3.4890   22.7270  -31.4900 C   0  0  0  0  0  0  0  0  0  0  0  0
   -2.7220   23.1770  -30.3760 N   0  0  0  0  0  0  0  0  0  0  0  0
   -2.9030   22.2140  -32.4820 O   0  0  0  0  0  0  0  0  0  0  0  0
   -5.7940   21.8960  -31.9260 C   0  0  0  0  0  0  0  0  0  0  0  0
   -5.5140   20.6660  -32.5330 C   0  0  0  0  0  0  0  0  0  0  0  0
   -5.4610   18.2500  -34.6070 C   0  0  0  0  0  0  0  0  0  0  0  0
   -5.5360   16.9430  -34.9240 N   0  0  0  0  0  0  0  0  0  0  0  0
   -6.9539   14.5841  -33.1855 H   0  0  0  0  0  0  0  0  0  0  0  0
   -7.7906   14.9224  -34.7386 H   0  0  0  0  0  0  0  0  0  0  0  0
   -6.0672   14.4159  -34.7386 H   0  0  0  0  0  0  0  0  0  0  0  0
   -7.7169   17.1340  -32.5278 H   0  0  0  0  0  0  0  0  0  0  0  0
   -8.7705   19.6369  -32.9679 H   0  0  0  0  0  0  0  0  0  0  0  0
   -9.2021   21.8409  -31.8398 H   0  0  0  0  0  0  0  0  0  0  0  0
   -7.8918   24.1082  -30.6974 H   0  0  0  0  0  0  0  0  0  0  0  0
   -3.0400   25.2990  -30.4530 H   0  0  0  0  0  0  0  0  0  0  0  0
   -2.4220   24.1750  -30.2990 H   0  0  0  0  0  0  0  0  0  0  0  0
   -4.4750   20.3498  -32.7074 H   0  0  0  0  0  0  0  0  0  0  0  0
   -4.8017   18.9841  -35.0932 H   0  0  0  0  0  0  0  0  0  0  0  0
  1  2  1  0
  2  3  1  0
  3  4  2  0
  4  5  1  0
  5  6  2  0
  6  7  1  0
  7  8  2  0
  8  9  1  0
  9 10  2  0
 10 11  1  0
 11 12  1  0
 11 13  2  0
 10 14  1  0
 14 15  1  0
 15 16  1  0
 15 17  2  0
 14 18  1  0
 18 19  2  0
  4 20  1  0
 20 21  2  0
 21  2  1  0
 19  5  1  0
 18  8  1  0
  1 22  1  0
  1 23  1  0
  1 24  1  0
  3 25  1  0
  6 26  1  0
  7 27  1  0
  9 28  1  0
 12 29  1  0
 16 30  1  0
 19 31  1  0
 20 32  1  0
M  CHG  2  12  -1  16  -1
M  END
>  <UniqueID>  (88) 
87

>  <SMILES>  (88) 
Cn1cc(-c2ccc3cc(C([NH-])=O)n(C([NH-])=O)c3c2)cn1

>  <Energy>  (88) 
104.50051776700923

>  <Genealogy>  (88) 
Cn1cc(-c2ccc3cc(C([NH-])=O)n(C([NH-])=O)c3c2)cn1 (protonated)
Cn1cc(-c2ccc3cc(C([NH-])=O)n(C([NH-])=O)c3c2)cn1 (3D coordinates assigned)
Cn1cc(-c2ccc3cc(C([NH-])=O)n(C([NH-])=O)c3c2)cn1 (optimized conformer: 104.50051776700923 kcal/mol)

>  <smiles>  (88) 
Cn1cc(-c2ccc3cc(C(N)=O)n(C(N)=O)c3c2)cn1

>  <score_type>  (88) 
oracle

>  <origin>  (88) 
adg

>  <m_score__min__energy>  (88) 
-10.890000000000001

>  <m_primary>  (88) 
energy

$$$$
88:0
     RDKit          3D

 36 38  0  0  0  0  0  0  0  0999 V2000
   -2.8850   22.4570  -29.6250 C   0  0  0  0  0  0  0  0  0  0  0  0
   -3.4700   22.3830  -31.0000 C   0  0  0  0  0  0  0  0  0  0  0  0
   -2.7020   22.2580  -31.9900 O   0  0  0  0  0  0  0  0  0  0  0  0
   -4.8840   22.5220  -31.2080 N   0  0  0  0  0  0  0  0  0  0  0  0
   -5.6620   23.6220  -31.0000 C   0  0  0  0  0  0  0  0  0  0  0  0
   -5.2220   24.8860  -30.3750 C   0  0  0  0  0  0  0  0  0  0  0  0
   -3.8640   25.3040  -30.5000 N   0  0  0  0  0  0  0  0  0  0  0  0
   -6.0390   25.6170  -29.7560 O   0  0  0  0  0  0  0  0  0  0  0  0
   -6.9780   23.3670  -31.3840 C   0  0  0  0  0  0  0  0  0  0  0  0
   -6.9820   22.0640  -31.8280 C   0  0  0  0  0  0  0  0  0  0  0  0
   -8.0240   21.2910  -32.3290 C   0  0  0  0  0  0  0  0  0  0  0  0
   -7.7360   19.9750  -32.7280 C   0  0  0  0  0  0  0  0  0  0  0  0
   -6.4170   19.4560  -32.6260 C   0  0  0  0  0  0  0  0  0  0  0  0
   -6.1230   18.0660  -33.0570 C   0  0  0  0  0  0  0  0  0  0  0  0
   -4.7990   17.5890  -33.0810 C   0  0  0  0  0  0  0  0  0  0  0  0
   -4.5220   16.2810  -33.4880 C   0  0  0  0  0  0  0  0  0  0  0  0
   -5.5650   15.4220  -33.8760 C   0  0  0  0  0  0  0  0  0  0  0  0
   -5.2920   14.0400  -34.3080 C   0  0  0  0  0  0  0  0  0  0  0  0
   -5.7180   13.0560  -33.6470 O   0  0  0  0  0  0  0  0  0  0  0  0
   -6.8840   15.8950  -33.8510 C   0  0  0  0  0  0  0  0  0  0  0  0
   -7.1630   17.2030  -33.4460 C   0  0  0  0  0  0  0  0  0  0  0  0
   -5.3870   20.2760  -32.1090 C   0  0  0  0  0  0  0  0  0  0  0  0
   -5.7070   21.5770  -31.7110 C   0  0  0  0  0  0  0  0  0  0  0  0
   -3.6872   22.3555  -28.8793 H   0  0  0  0  0  0  0  0  0  0  0  0
   -2.1561   21.6439  -29.4924 H   0  0  0  0  0  0  0  0  0  0  0  0
   -2.3815   23.4260  -29.4924 H   0  0  0  0  0  0  0  0  0  0  0  0
   -3.5780   25.9810  -31.2420 H   0  0  0  0  0  0  0  0  0  0  0  0
   -7.8314   24.0597  -31.3412 H   0  0  0  0  0  0  0  0  0  0  0  0
   -9.0428   21.6977  -32.4104 H   0  0  0  0  0  0  0  0  0  0  0  0
   -8.5412   19.3388  -33.1241 H   0  0  0  0  0  0  0  0  0  0  0  0
   -3.9752   18.2514  -32.7768 H   0  0  0  0  0  0  0  0  0  0  0  0
   -3.4824   15.9218  -33.5048 H   0  0  0  0  0  0  0  0  0  0  0  0
   -4.7066   13.8647  -35.2227 H   0  0  0  0  0  0  0  0  0  0  0  0
   -7.7071   15.2306  -34.1529 H   0  0  0  0  0  0  0  0  0  0  0  0
   -8.2033   17.5601  -33.4314 H   0  0  0  0  0  0  0  0  0  0  0  0
   -4.3575   19.8984  -32.0221 H   0  0  0  0  0  0  0  0  0  0  0  0
  1  2  1  0
  2  3  2  0
  2  4  1  0
  4  5  1  0
  5  6  1  0
  6  7  1  0
  6  8  2  0
  5  9  2  0
  9 10  1  0
 10 11  2  0
 11 12  1  0
 12 13  2  0
 13 14  1  0
 14 15  2  0
 15 16  1  0
 16 17  2  0
 17 18  1  0
 18 19  2  0
 17 20  1  0
 20 21  2  0
 13 22  1  0
 22 23  2  0
 23  4  1  0
 23 10  1  0
 21 14  1  0
  1 24  1  0
  1 25  1  0
  1 26  1  0
  7 27  1  0
  9 28  1  0
 11 29  1  0
 12 30  1  0
 15 31  1  0
 16 32  1  0
 18 33  1  0
 20 34  1  0
 21 35  1  0
 22 36  1  0
M  CHG  1   7  -1
M  END
>  <UniqueID>  (89) 
88

>  <SMILES>  (89) 
CC(=O)n1c(C([NH-])=O)cc2ccc(-c3ccc(C=O)cc3)cc21

>  <Energy>  (89) 
82.5492314164287

>  <Genealogy>  (89) 
CC(=O)n1c(C([NH-])=O)cc2ccc(-c3ccc(C=O)cc3)cc21 (protonated)
CC(=O)n1c(C([NH-])=O)cc2ccc(-c3ccc(C=O)cc3)cc21 (3D coordinates assigned)
CC(=O)n1c(C([NH-])=O)cc2ccc(-c3ccc(C=O)cc3)cc21 (optimized conformer: 82.5492314164287 kcal/mol)

>  <smiles>  (89) 
CC(=O)n1c(C(N)=O)cc2ccc(-c3ccc(C=O)cc3)cc21

>  <score_type>  (89) 
oracle

>  <origin>  (89) 
adg

>  <m_score__min__energy>  (89) 
-10.630000000000001

>  <m_primary>  (89) 
energy

$$$$
89:0
     RDKit          3D

 32 34  0  0  0  0  0  0  0  0999 V2000
   -3.8700   25.6510  -30.8210 N   0  0  0  0  0  0  0  0  0  0  0  0
   -5.1500   25.1500  -30.4430 C   0  0  0  0  0  0  0  0  0  0  0  0
   -5.9150   25.8730  -29.7500 O   0  0  0  0  0  0  0  0  0  0  0  0
   -5.6120   23.8240  -30.9010 C   0  0  0  0  0  0  0  0  0  0  0  0
   -6.9540   23.5120  -31.1110 C   0  0  0  0  0  0  0  0  0  0  0  0
   -6.9550   22.2340  -31.6200 C   0  0  0  0  0  0  0  0  0  0  0  0
   -8.0200   21.4220  -32.0000 C   0  0  0  0  0  0  0  0  0  0  0  0
   -7.7290   20.1290  -32.4660 C   0  0  0  0  0  0  0  0  0  0  0  0
   -6.3890   19.6660  -32.5390 C   0  0  0  0  0  0  0  0  0  0  0  0
   -6.0960   18.2930  -33.0230 C   0  0  0  0  0  0  0  0  0  0  0  0
   -4.7860   17.9260  -33.3840 C   0  0  0  0  0  0  0  0  0  0  0  0
   -4.5120   16.6330  -33.8400 C   0  0  0  0  0  0  0  0  0  0  0  0
   -5.5400   15.6920  -33.9410 C   0  0  0  0  0  0  0  0  0  0  0  0
   -5.1630   13.9260  -34.5620 Br  0  0  0  0  0  0  0  0  0  0  0  0
   -6.8450   16.0450  -33.5840 C   0  0  0  0  0  0  0  0  0  0  0  0
   -7.1230   17.3370  -33.1290 C   0  0  0  0  0  0  0  0  0  0  0  0
   -5.3350   20.5230  -32.1420 C   0  0  0  0  0  0  0  0  0  0  0  0
   -5.6540   21.8120  -31.6990 C   0  0  0  0  0  0  0  0  0  0  0  0
   -4.8160   22.7760  -31.2560 N   0  0  0  0  0  0  0  0  0  0  0  0
   -3.3910   22.6620  -31.1070 C   0  0  0  0  0  0  0  0  0  0  0  0
   -2.7490   23.1680  -29.9400 N   0  0  0  0  0  0  0  0  0  0  0  0
   -2.7070   22.0850  -31.9930 O   0  0  0  0  0  0  0  0  0  0  0  0
   -2.9960   25.2680  -30.3940 H   0  0  0  0  0  0  0  0  0  0  0  0
   -7.8266   24.1515  -30.9121 H   0  0  0  0  0  0  0  0  0  0  0  0
   -9.0576   21.7818  -31.9373 H   0  0  0  0  0  0  0  0  0  0  0  0
   -8.5500   19.4669  -32.7783 H   0  0  0  0  0  0  0  0  0  0  0  0
   -3.9719   18.6617  -33.3068 H   0  0  0  0  0  0  0  0  0  0  0  0
   -3.4849   16.3559  -34.1199 H   0  0  0  0  0  0  0  0  0  0  0  0
   -7.6546   15.3043  -33.6614 H   0  0  0  0  0  0  0  0  0  0  0  0
   -8.1523   17.6085  -32.8517 H   0  0  0  0  0  0  0  0  0  0  0  0
   -4.2893   20.1840  -32.1807 H   0  0  0  0  0  0  0  0  0  0  0  0
   -2.9450   24.1340  -29.5950 H   0  0  0  0  0  0  0  0  0  0  0  0
  1  2  1  0
  2  3  2  0
  2  4  1  0
  4  5  2  0
  5  6  1  0
  6  7  2  0
  7  8  1  0
  8  9  2  0
  9 10  1  0
 10 11  2  0
 11 12  1  0
 12 13  2  0
 13 14  1  0
 13 15  1  0
 15 16  2  0
  9 17  1  0
 17 18  2  0
 18 19  1  0
 19 20  1  0
 20 21  1  0
 20 22  2  0
 19  4  1  0
 18  6  1  0
 16 10  1  0
  1 23  1  0
  5 24  1  0
  7 25  1  0
  8 26  1  0
 11 27  1  0
 12 28  1  0
 15 29  1  0
 16 30  1  0
 17 31  1  0
 21 32  1  0
M  CHG  2   1  -1  21  -1
M  END
>  <UniqueID>  (90) 
89

>  <SMILES>  (90) 
[NH-]C(=O)c1cc2ccc(-c3ccc(Br)cc3)cc2n1C([NH-])=O

>  <Energy>  (90) 
79.47591742392486

>  <Genealogy>  (90) 
[NH-]C(=O)c1cc2ccc(-c3ccc(Br)cc3)cc2n1C([NH-])=O (protonated)
[NH-]C(=O)c1cc2ccc(-c3ccc(Br)cc3)cc2n1C([NH-])=O (3D coordinates assigned)
[NH-]C(=O)c1cc2ccc(-c3ccc(Br)cc3)cc2n1C([NH-])=O (optimized conformer: 79.47591742392486 kcal/mol)

>  <smiles>  (90) 
NC(=O)c1cc2ccc(-c3ccc(Br)cc3)cc2n1C(N)=O

>  <score_type>  (90) 
oracle

>  <origin>  (90) 
adg

>  <m_score__min__energy>  (90) 
-10.970000000000001

>  <m_primary>  (90) 
energy

$$$$
90:0
     RDKit          3D

 91 95  0  0  0  0  0  0  0  0999 V2000
   -1.9840   28.3210  -35.3790 C   0  0  0  0  0  0  0  0  0  0  0  0
   -0.6800   28.4130  -36.1920 C   0  0  0  0  0  0  0  0  0  0  0  0
   -0.7670   27.4310  -37.3710 C   0  0  0  0  0  0  0  0  0  0  0  0
   -0.4790   29.8390  -36.7440 C   0  0  0  0  0  0  0  0  0  0  0  0
    0.4420   28.0140  -35.3910 O   0  0  0  0  0  0  0  0  0  0  0  0
    1.7170   27.6530  -35.8540 C   0  0  0  0  0  0  0  0  0  0  0  0
    2.5740   28.5360  -36.1360 O   0  0  0  0  0  0  0  0  0  0  0  0
    2.0490   26.2590  -35.9980 N   0  0  0  0  0  0  0  0  0  0  0  0
    3.3670   25.8510  -36.4920 C   0  0  0  0  0  0  0  0  0  0  0  0
    3.6840   24.4260  -36.0330 C   0  0  0  0  0  0  0  0  0  0  0  0
    2.6690   23.4440  -36.4920 N   0  0  0  0  0  0  0  0  0  0  0  0
    2.7670   22.1060  -35.8330 C   0  0  0  0  0  0  0  0  0  0  0  0
    4.1920   21.7620  -35.3170 C   0  0  0  0  0  0  0  0  0  0  0  0
    4.2120   20.4210  -34.5550 C   0  0  0  0  0  0  0  0  0  0  0  0
    3.1360   19.5340  -35.0030 N   0  0  0  0  0  0  0  0  0  0  0  0
    2.7090   18.4510  -34.1620 C   0  0  0  0  0  0  0  0  0  0  0  0
    3.5730   17.6930  -33.6440 O   0  0  0  0  0  0  0  0  0  0  0  0
    1.2690   18.2090  -33.9080 C   0  0  0  0  0  0  0  0  0  0  0  0
    0.5520   19.0240  -33.0120 C   0  0  0  0  0  0  0  0  0  0  0  0
   -0.8080   18.7950  -32.7760 C   0  0  0  0  0  0  0  0  0  0  0  0
   -1.4750   17.7600  -33.4480 C   0  0  0  0  0  0  0  0  0  0  0  0
   -2.9020   17.5060  -33.2030 C   0  0  0  0  0  0  0  0  0  0  0  0
   -3.4040   16.1860  -33.2860 C   0  0  0  0  0  0  0  0  0  0  0  0
   -4.7800   15.9370  -33.1450 C   0  0  0  0  0  0  0  0  0  0  0  0
   -5.6190   17.0240  -32.9140 C   0  0  0  0  0  0  0  0  0  0  0  0
   -6.9820   17.0600  -32.7370 C   0  0  0  0  0  0  0  0  0  0  0  0
   -7.2910   18.4030  -32.5310 C   0  0  0  0  0  0  0  0  0  0  0  0
   -8.6710   18.9210  -32.3970 C   0  0  0  0  0  0  0  0  0  0  0  0
   -9.1290   20.0000  -33.2120 N   0  0  0  0  0  0  0  0  0  0  0  0
   -9.4530   18.4280  -31.5380 O   0  0  0  0  0  0  0  0  0  0  0  0
   -6.1610   19.1670  -32.5720 N   0  0  0  0  0  0  0  0  0  0  0  0
   -6.0500   20.5680  -32.2690 C   0  0  0  0  0  0  0  0  0  0  0  0
   -5.0120   21.0090  -31.7050 O   0  0  0  0  0  0  0  0  0  0  0  0
   -7.1170   21.4240  -32.5830 O   0  0  0  0  0  0  0  0  0  0  0  0
   -7.5650   22.5480  -31.8120 C   0  0  0  0  0  0  0  0  0  0  0  0
   -9.0530   22.8340  -32.0910 C   0  0  0  0  0  0  0  0  0  0  0  0
   -7.3250   22.3050  -30.3090 C   0  0  0  0  0  0  0  0  0  0  0  0
   -6.7340   23.7630  -32.2600 C   0  0  0  0  0  0  0  0  0  0  0  0
   -5.1460   18.3070  -32.8160 C   0  0  0  0  0  0  0  0  0  0  0  0
   -3.7790   18.5840  -32.9520 C   0  0  0  0  0  0  0  0  0  0  0  0
   -0.7710   16.9580  -34.3580 C   0  0  0  0  0  0  0  0  0  0  0  0
    0.5880   17.1790  -34.5830 C   0  0  0  0  0  0  0  0  0  0  0  0
    2.7320   19.5710  -36.4110 C   0  0  0  0  0  0  0  0  0  0  0  0
    2.3400   20.9990  -36.8420 C   0  0  0  0  0  0  0  0  0  0  0  0
    1.2710   23.9730  -36.4680 C   0  0  0  0  0  0  0  0  0  0  0  0
    1.0900   25.2250  -35.6010 C   0  0  0  0  0  0  0  0  0  0  0  0
   -1.7482   28.3376  -34.3047 H   0  0  0  0  0  0  0  0  0  0  0  0
   -2.6310   29.1757  -35.6257 H   0  0  0  0  0  0  0  0  0  0  0  0
   -2.5046   27.3839  -35.6257 H   0  0  0  0  0  0  0  0  0  0  0  0
   -0.8580   26.4042  -36.9870 H   0  0  0  0  0  0  0  0  0  0  0  0
   -1.6473   27.6722  -37.9849 H   0  0  0  0  0  0  0  0  0  0  0  0
    0.1420   27.5137  -37.9849 H   0  0  0  0  0  0  0  0  0  0  0  0
   -0.3794   30.5456  -35.9068 H   0  0  0  0  0  0  0  0  0  0  0  0
    0.4322   29.8689  -37.3594 H   0  0  0  0  0  0  0  0  0  0  0  0
   -1.3465   30.1196  -37.3594 H   0  0  0  0  0  0  0  0  0  0  0  0
    3.3707   25.8882  -37.5914 H   0  0  0  0  0  0  0  0  0  0  0  0
    4.1289   26.5357  -36.0911 H   0  0  0  0  0  0  0  0  0  0  0  0
    4.6649   24.1349  -36.4367 H   0  0  0  0  0  0  0  0  0  0  0  0
    3.6827   24.4201  -34.9330 H   0  0  0  0  0  0  0  0  0  0  0  0
    2.1004   22.1487  -34.9591 H   0  0  0  0  0  0  0  0  0  0  0  0
    4.8760   21.6947  -36.1759 H   0  0  0  0  0  0  0  0  0  0  0  0
    4.5079   22.5559  -34.6243 H   0  0  0  0  0  0  0  0  0  0  0  0
    5.1789   19.9259  -34.7279 H   0  0  0  0  0  0  0  0  0  0  0  0
    4.0651   20.6294  -33.4850 H   0  0  0  0  0  0  0  0  0  0  0  0
    1.0648   19.8474  -32.4933 H   0  0  0  0  0  0  0  0  0  0  0  0
   -1.3553   19.4279  -32.0620 H   0  0  0  0  0  0  0  0  0  0  0  0
   -2.7126   15.3487  -33.4621 H   0  0  0  0  0  0  0  0  0  0  0  0
   -5.1816   14.9153  -33.2149 H   0  0  0  0  0  0  0  0  0  0  0  0
   -7.6798   16.2098  -32.7543 H   0  0  0  0  0  0  0  0  0  0  0  0
  -10.0910   20.3820  -33.0760 H   0  0  0  0  0  0  0  0  0  0  0  0
   -8.5360   20.4010  -33.9690 H   0  0  0  0  0  0  0  0  0  0  0  0
   -9.5915   22.9375  -31.1375 H   0  0  0  0  0  0  0  0  0  0  0  0
   -9.1454   23.7663  -32.6674 H   0  0  0  0  0  0  0  0  0  0  0  0
   -9.4844   22.0023  -32.6674 H   0  0  0  0  0  0  0  0  0  0  0  0
   -7.9786   22.9667  -29.7216 H   0  0  0  0  0  0  0  0  0  0  0  0
   -7.5516   21.2563  -30.0664 H   0  0  0  0  0  0  0  0  0  0  0  0
   -6.2736   22.5186  -30.0664 H   0  0  0  0  0  0  0  0  0  0  0  0
   -6.3655   24.3018  -31.3746 H   0  0  0  0  0  0  0  0  0  0  0  0
   -5.8799   23.4209  -32.8628 H   0  0  0  0  0  0  0  0  0  0  0  0
   -7.3625   24.4350  -32.8628 H   0  0  0  0  0  0  0  0  0  0  0  0
   -3.3996   19.6129  -32.8656 H   0  0  0  0  0  0  0  0  0  0  0  0
   -1.2919   16.1523  -34.8960 H   0  0  0  0  0  0  0  0  0  0  0  0
    1.1327   16.5417  -35.2952 H   0  0  0  0  0  0  0  0  0  0  0  0
    3.5703   19.2257  -37.0339 H   0  0  0  0  0  0  0  0  0  0  0  0
    1.8575   18.9162  -36.5395 H   0  0  0  0  0  0  0  0  0  0  0  0
    2.8170   21.2111  -37.8102 H   0  0  0  0  0  0  0  0  0  0  0  0
    1.2416   21.0245  -36.8958 H   0  0  0  0  0  0  0  0  0  0  0  0
    0.9779   24.2213  -37.4987 H   0  0  0  0  0  0  0  0  0  0  0  0
    0.6420   23.1868  -36.0250 H   0  0  0  0  0  0  0  0  0  0  0  0
    0.0674   25.6100  -35.7279 H   0  0  0  0  0  0  0  0  0  0  0  0
    1.2638   24.9600  -34.5476 H   0  0  0  0  0  0  0  0  0  0  0  0
  1  2  1  0
  2  3  1  0
  2  4  1  0
  2  5  1  0
  5  6  1  0
  6  7  2  0
  6  8  1  0
  8  9  1  0
  9 10  1  0
 10 11  1  0
 11 12  1  0
 12 13  1  0
 13 14  1  0
 14 15  1  0
 15 16  1  0
 16 17  2  0
 16 18  1  0
 18 19  2  0
 19 20  1  0
 20 21  2  0
 21 22  1  0
 22 23  2  0
 23 24  1  0
 24 25  2  0
 25 26  1  0
 26 27  2  0
 27 28  1  0
 28 29  1  0
 28 30  2  0
 27 31  1  0
 31 32  1  0
 32 33  2  0
 32 34  1  0
 34 35  1  0
 35 36  1  0
 35 37  1  0
 35 38  1  0
 31 39  1  0
 39 40  2  0
 21 41  1  0
 41 42  2  0
 15 43  1  0
 43 44  1  0
 11 45  1  0
 45 46  1  0
 46  8  1  0
 44 12  1  0
 42 18  1  0
 40 22  1  0
 39 25  1  0
  1 47  1  0
  1 48  1  0
  1 49  1  0
  3 50  1  0
  3 51  1  0
  3 52  1  0
  4 53  1  0
  4 54  1  0
  4 55  1  0
  9 56  1  0
  9 57  1  0
 10 58  1  0
 10 59  1  0
 12 60  1  0
 13 61  1  0
 13 62  1  0
 14 63  1  0
 14 64  1  0
 19 65  1  0
 20 66  1  0
 23 67  1  0
 24 68  1  0
 26 69  1  0
 29 70  1  0
 29 71  1  0
 36 72  1  0
 36 73  1  0
 36 74  1  0
 37 75  1  0
 37 76  1  0
 37 77  1  0
 38 78  1  0
 38 79  1  0
 38 80  1  0
 40 81  1  0
 41 82  1  0
 42 83  1  0
 43 84  1  0
 43 85  1  0
 44 86  1  0
 44 87  1  0
 45 88  1  0
 45 89  1  0
 46 90  1  0
 46 91  1  0
M  END
>  <UniqueID>  (91) 
90

>  <SMILES>  (91) 
CC(C)(C)OC(=O)N1CCN(C2CCN(C(=O)c3ccc(-c4ccc5cc(C(N)=O)n(C(=O)OC(C)(C)C)c5c4)cc3)CC2)CC1

>  <Energy>  (91) 
152.53901009417922

>  <Genealogy>  (91) 
CC(C)(C)OC(=O)N1CCN(C2CCN(C(=O)c3ccc(-c4ccc5cc(C(N)=O)n(C(=O)OC(C)(C)C)c5c4)cc3)CC2)CC1 (3D coordinates assigned)
CC(C)(C)OC(=O)N1CCN(C2CCN(C(=O)c3ccc(-c4ccc5cc(C(N)=O)n(C(=O)OC(C)(C)C)c5c4)cc3)CC2)CC1 (nonaromatic ring conformer: 152.53901009417922 kcal/mol)

>  <smiles>  (91) 
CC(C)(C)OC(=O)N1CCN(C2CCN(C(=O)c3ccc(-c4ccc5cc(C(N)=O)n(C(=O)OC(C)(C)C)c5c4)cc3)CC2)CC1

>  <score_type>  (91) 
oracle

>  <origin>  (91) 
adg

>  <m_score__min__energy>  (91) 
-10.93

>  <m_primary>  (91) 
energy

$$$$
91:0
     RDKit          3D

 56 58  0  0  0  0  0  0  0  0999 V2000
   -4.7620   15.2370  -32.3320 C   0  0  0  0  0  0  0  0  0  0  0  0
   -5.4100   16.6230  -32.4640 C   0  0  0  0  0  0  0  0  0  0  0  0
   -5.1170   17.3090  -33.7520 N   0  0  0  0  0  0  0  0  0  0  0  0
   -3.7170   17.7830  -33.8810 C   0  0  0  0  0  0  0  0  0  0  0  0
   -3.6160   19.2970  -33.6770 C   0  0  0  0  0  0  0  0  0  0  0  0
   -6.1030   18.3770  -34.0650 C   0  0  0  0  0  0  0  0  0  0  0  0
   -7.2040   18.4310  -32.9930 C   0  0  0  0  0  0  0  0  0  0  0  0
   -7.3660   19.8140  -32.4150 C   0  0  0  0  0  0  0  0  0  0  0  0
   -8.6410   20.4340  -32.3760 C   0  0  0  0  0  0  0  0  0  0  0  0
   -8.7810   21.7490  -31.8960 C   0  0  0  0  0  0  0  0  0  0  0  0
   -7.6370   22.4080  -31.4500 C   0  0  0  0  0  0  0  0  0  0  0  0
   -7.4820   23.6960  -30.9870 C   0  0  0  0  0  0  0  0  0  0  0  0
   -6.1230   23.8250  -30.7130 C   0  0  0  0  0  0  0  0  0  0  0  0
   -5.5170   25.0520  -30.1620 C   0  0  0  0  0  0  0  0  0  0  0  0
   -4.2400   25.5070  -30.6120 N   0  0  0  0  0  0  0  0  0  0  0  0
   -6.1170   25.6880  -29.2550 O   0  0  0  0  0  0  0  0  0  0  0  0
   -5.4570   22.6720  -31.0020 N   0  0  0  0  0  0  0  0  0  0  0  0
   -4.0340   22.4530  -30.9540 C   0  0  0  0  0  0  0  0  0  0  0  0
   -3.2960   22.8950  -31.8760 O   0  0  0  0  0  0  0  0  0  0  0  0
   -3.4730   21.7590  -29.8770 O   0  0  0  0  0  0  0  0  0  0  0  0
   -3.0270   22.3930  -28.6790 C   0  0  0  0  0  0  0  0  0  0  0  0
   -2.1820   23.6070  -29.0140 C   0  0  0  0  0  0  0  0  0  0  0  0
   -2.3330   24.5440  -27.8240 C   0  0  0  0  0  0  0  0  0  0  0  0
   -3.6530   24.1800  -27.1490 C   0  0  0  0  0  0  0  0  0  0  0  0
   -4.1890   22.9390  -27.8590 C   0  0  0  0  0  0  0  0  0  0  0  0
   -6.4010   21.8120  -31.4540 C   0  0  0  0  0  0  0  0  0  0  0  0
   -6.2300   20.5130  -31.9500 C   0  0  0  0  0  0  0  0  0  0  0  0
   -4.6450   14.9868  -31.2672 H   0  0  0  0  0  0  0  0  0  0  0  0
   -5.4020   14.4853  -32.8171 H   0  0  0  0  0  0  0  0  0  0  0  0
   -3.7748   15.2461  -32.8171 H   0  0  0  0  0  0  0  0  0  0  0  0
   -6.5000   16.5049  -32.3753 H   0  0  0  0  0  0  0  0  0  0  0  0
   -4.9851   17.2498  -31.6662 H   0  0  0  0  0  0  0  0  0  0  0  0
   -3.0977   17.2784  -33.1248 H   0  0  0  0  0  0  0  0  0  0  0  0
   -3.3651   17.5474  -34.8962 H   0  0  0  0  0  0  0  0  0  0  0  0
   -3.6010   19.5217  -32.6003 H   0  0  0  0  0  0  0  0  0  0  0  0
   -2.6911   19.6688  -34.1421 H   0  0  0  0  0  0  0  0  0  0  0  0
   -4.4834   19.7883  -34.1421 H   0  0  0  0  0  0  0  0  0  0  0  0
   -5.5856   19.3471  -34.1005 H   0  0  0  0  0  0  0  0  0  0  0  0
   -6.5668   18.1562  -35.0377 H   0  0  0  0  0  0  0  0  0  0  0  0
   -8.1570   18.1228  -33.4477 H   0  0  0  0  0  0  0  0  0  0  0  0
   -6.9142   17.7543  -32.1757 H   0  0  0  0  0  0  0  0  0  0  0  0
   -9.5270   19.8826  -32.7237 H   0  0  0  0  0  0  0  0  0  0  0  0
   -9.7640   22.2422  -31.8734 H   0  0  0  0  0  0  0  0  0  0  0  0
   -8.2642   24.4591  -30.8608 H   0  0  0  0  0  0  0  0  0  0  0  0
   -3.6500   24.9170  -31.2410 H   0  0  0  0  0  0  0  0  0  0  0  0
   -3.8770   26.4370  -30.3020 H   0  0  0  0  0  0  0  0  0  0  0  0
   -2.4712   21.6266  -28.1189 H   0  0  0  0  0  0  0  0  0  0  0  0
   -1.1287   23.3185  -29.1457 H   0  0  0  0  0  0  0  0  0  0  0  0
   -2.5022   24.0824  -29.9528 H   0  0  0  0  0  0  0  0  0  0  0  0
   -1.4969   24.4052  -27.1228 H   0  0  0  0  0  0  0  0  0  0  0  0
   -2.3272   25.5965  -28.1438 H   0  0  0  0  0  0  0  0  0  0  0  0
   -3.4855   23.9632  -26.0837 H   0  0  0  0  0  0  0  0  0  0  0  0
   -4.3705   25.0112  -27.2151 H   0  0  0  0  0  0  0  0  0  0  0  0
   -4.5231   22.1919  -27.1240 H   0  0  0  0  0  0  0  0  0  0  0  0
   -5.0542   23.1791  -28.4944 H   0  0  0  0  0  0  0  0  0  0  0  0
   -5.2335   20.0479  -31.9767 H   0  0  0  0  0  0  0  0  0  0  0  0
  1  2  1  0
  2  3  1  0
  3  4  1  0
  4  5  1  0
  3  6  1  0
  6  7  1  0
  7  8  1  0
  8  9  2  0
  9 10  1  0
 10 11  2  0
 11 12  1  0
 12 13  2  0
 13 14  1  0
 14 15  1  0
 14 16  2  0
 13 17  1  0
 17 18  1  0
 18 19  2  0
 18 20  1  0
 20 21  1  0
 21 22  1  0
 22 23  1  0
 23 24  1  0
 24 25  1  0
 17 26  1  0
 26 27  2  0
 27  8  1  0
 26 11  1  0
 25 21  1  0
  1 28  1  0
  1 29  1  0
  1 30  1  0
  2 31  1  0
  2 32  1  0
  4 33  1  0
  4 34  1  0
  5 35  1  0
  5 36  1  0
  5 37  1  0
  6 38  1  0
  6 39  1  0
  7 40  1  0
  7 41  1  0
  9 42  1  0
 10 43  1  0
 12 44  1  0
 15 45  1  0
 15 46  1  0
 21 47  1  0
 22 48  1  0
 22 49  1  0
 23 50  1  0
 23 51  1  0
 24 52  1  0
 24 53  1  0
 25 54  1  0
 25 55  1  0
 27 56  1  0
M  END
>  <UniqueID>  (92) 
91

>  <SMILES>  (92) 
CCN(CC)CCc1ccc2cc(C(N)=O)n(C(=O)OC3CCCC3)c2c1

>  <Energy>  (92) 
93.90620119319729

>  <Genealogy>  (92) 
CCN(CC)CCc1ccc2cc(C(N)=O)n(C(=O)OC3CCCC3)c2c1 (3D coordinates assigned)
CCN(CC)CCc1ccc2cc(C(N)=O)n(C(=O)OC3CCCC3)c2c1 (nonaromatic ring conformer: 93.90620119319729 kcal/mol)

>  <smiles>  (92) 
CCN(CC)CCc1ccc2cc(C(N)=O)n(C(=O)OC3CCCC3)c2c1

>  <score_type>  (92) 
oracle

>  <origin>  (92) 
adg

>  <m_score__min__energy>  (92) 
-9.5399999999999991

>  <m_primary>  (92) 
energy

$$$$
92:0
     RDKit          3D

 34 36  0  0  0  0  0  0  0  0999 V2000
   -5.4140   26.4370  -30.4280 N   0  0  0  0  0  0  0  0  0  0  0  0
   -6.3100   25.4100  -30.0000 C   0  0  0  0  0  0  0  0  0  0  0  0
   -7.1230   25.6500  -29.0680 O   0  0  0  0  0  0  0  0  0  0  0  0
   -6.3450   24.0970  -30.6730 C   0  0  0  0  0  0  0  0  0  0  0  0
   -7.5250   23.4360  -30.9980 C   0  0  0  0  0  0  0  0  0  0  0  0
   -7.1330   22.2950  -31.6580 C   0  0  0  0  0  0  0  0  0  0  0  0
   -7.8980   21.2630  -32.1880 C   0  0  0  0  0  0  0  0  0  0  0  0
   -7.2280   20.1810  -32.7800 C   0  0  0  0  0  0  0  0  0  0  0  0
   -5.8080   20.1430  -32.8310 C   0  0  0  0  0  0  0  0  0  0  0  0
   -5.0700   18.9560  -33.4300 C   0  0  2  0  0  0  0  0  0  0  0  0
   -5.7600   18.3850  -34.6610 C   0  0  0  0  0  0  0  0  0  0  0  0
   -6.3600   17.0530  -34.2210 C   0  0  0  0  0  0  0  0  0  0  0  0
   -6.0290   16.8220  -32.8130 N   0  0  0  0  0  0  0  0  0  0  0  0
   -4.9910   17.7860  -32.4550 C   0  0  0  0  0  0  0  0  0  0  0  0
   -5.0670   21.2100  -32.2700 C   0  0  0  0  0  0  0  0  0  0  0  0
   -5.7630   22.2860  -31.7070 C   0  0  0  0  0  0  0  0  0  0  0  0
   -5.2620   23.3880  -31.1010 N   0  0  0  0  0  0  0  0  0  0  0  0
   -3.8750   23.6790  -30.8560 C   0  0  0  0  0  0  0  0  0  0  0  0
   -3.0040   22.7780  -30.9830 O   0  0  0  0  0  0  0  0  0  0  0  0
   -3.4790   24.9570  -30.4790 O   0  0  0  0  0  0  0  0  0  0  0  0
   -5.3760   27.3460  -29.9160 H   0  0  0  0  0  0  0  0  0  0  0  0
   -4.8500   26.3310  -31.3000 H   0  0  0  0  0  0  0  0  0  0  0  0
   -8.5530   23.7575  -30.7746 H   0  0  0  0  0  0  0  0  0  0  0  0
   -8.9967   21.2932  -32.1448 H   0  0  0  0  0  0  0  0  0  0  0  0
   -7.8092   19.3519  -33.2099 H   0  0  0  0  0  0  0  0  0  0  0  0
   -4.0784   19.3605  -33.6812 H   0  0  0  0  0  0  0  0  0  0  0  0
   -6.5516   19.0660  -35.0069 H   0  0  0  0  0  0  0  0  0  0  0  0
   -5.0560   18.2557  -35.4963 H   0  0  0  0  0  0  0  0  0  0  0  0
   -7.4528   17.0828  -34.3427 H   0  0  0  0  0  0  0  0  0  0  0  0
   -5.9498   16.2393  -34.8372 H   0  0  0  0  0  0  0  0  0  0  0  0
   -6.8780   17.0270  -32.2350 H   0  0  0  0  0  0  0  0  0  0  0  0
   -5.1547   18.1453  -31.4283 H   0  0  0  0  0  0  0  0  0  0  0  0
   -3.9991   17.3134  -32.5084 H   0  0  0  0  0  0  0  0  0  0  0  0
   -3.9671   21.1942  -32.2762 H   0  0  0  0  0  0  0  0  0  0  0  0
  1  2  1  0
  2  3  2  0
  2  4  1  0
  4  5  2  0
  5  6  1  0
  6  7  2  0
  7  8  1  0
  8  9  2  0
  9 10  1  0
 10 11  1  0
 11 12  1  0
 12 13  1  0
 13 14  1  0
  9 15  1  0
 15 16  2  0
 16 17  1  0
 17 18  1  0
 18 19  2  0
 18 20  1  0
 17  4  1  0
 16  6  1  0
 14 10  1  0
  1 21  1  0
  1 22  1  0
  5 23  1  0
  7 24  1  0
  8 25  1  0
 10 26  1  6
 11 27  1  0
 11 28  1  0
 12 29  1  0
 12 30  1  0
 13 31  1  0
 14 32  1  0
 14 33  1  0
 15 34  1  0
M  CHG  1  20  -1
M  END
>  <UniqueID>  (93) 
92

>  <SMILES>  (93) 
NC(=O)c1cc2ccc([C@@H]3CCNC3)cc2n1C(=O)[O-]

>  <Energy>  (93) 
77.90544839387103

>  <Genealogy>  (93) 
NC(=O)c1cc2ccc(C3CCNC3)cc2n1C(=O)[O-] (protonated)
NC(=O)c1cc2ccc([C@@H]3CCNC3)cc2n1C(=O)[O-] (chirality)
NC(=O)c1cc2ccc([C@@H]3CCNC3)cc2n1C(=O)[O-] (3D coordinates assigned)
NC(=O)c1cc2ccc([C@@H]3CCNC3)cc2n1C(=O)[O-] (nonaromatic ring conformer: 77.90544839387103 kcal/mol)

>  <smiles>  (93) 
NC(=O)c1cc2ccc(C3CCNC3)cc2n1C(=O)O

>  <score_type>  (93) 
oracle

>  <origin>  (93) 
adg

>  <m_score__min__energy>  (93) 
-9.2699999999999996

>  <m_primary>  (93) 
energy

$$$$
93:0
     RDKit          3D

 30 31  0  0  0  0  0  0  0  0999 V2000
   -5.4600   18.1260  -35.2700 N   0  0  0  0  0  0  0  0  0  0  0  0
   -5.8470   18.0120  -34.1860 C   0  0  0  0  0  0  0  0  0  0  0  0
   -6.3400   17.8680  -32.8090 C   0  0  0  0  0  0  0  0  0  0  0  0
   -7.7560   18.4340  -32.6590 C   0  0  0  0  0  0  0  0  0  0  0  0
   -7.7380   19.8750  -32.2190 C   0  0  0  0  0  0  0  0  0  0  0  0
   -8.9550   20.5490  -31.9480 C   0  0  0  0  0  0  0  0  0  0  0  0
   -8.9520   21.8870  -31.5170 C   0  0  0  0  0  0  0  0  0  0  0  0
   -7.7220   22.5170  -31.3540 C   0  0  0  0  0  0  0  0  0  0  0  0
   -7.4290   23.8030  -30.9630 C   0  0  0  0  0  0  0  0  0  0  0  0
   -6.0380   23.8860  -30.9720 C   0  0  0  0  0  0  0  0  0  0  0  0
   -5.2890   25.0780  -30.5230 C   0  0  0  0  0  0  0  0  0  0  0  0
   -3.8910   25.2020  -30.7710 N   0  0  0  0  0  0  0  0  0  0  0  0
   -5.8830   25.9790  -29.8730 O   0  0  0  0  0  0  0  0  0  0  0  0
   -5.4930   22.6990  -31.3640 N   0  0  0  0  0  0  0  0  0  0  0  0
   -4.1070   22.3930  -31.5800 C   0  0  0  0  0  0  0  0  0  0  0  0
   -3.1220   22.7770  -30.6220 N   0  0  0  0  0  0  0  0  0  0  0  0
   -3.7500   21.8100  -32.6400 O   0  0  0  0  0  0  0  0  0  0  0  0
   -6.5360   21.8720  -31.5900 C   0  0  0  0  0  0  0  0  0  0  0  0
   -6.5080   20.5460  -32.0350 C   0  0  0  0  0  0  0  0  0  0  0  0
   -6.3513   16.8007  -32.5429 H   0  0  0  0  0  0  0  0  0  0  0  0
   -5.6704   18.4302  -32.1415 H   0  0  0  0  0  0  0  0  0  0  0  0
   -8.2722   18.3638  -33.6278 H   0  0  0  0  0  0  0  0  0  0  0  0
   -8.2793   17.8476  -31.8893 H   0  0  0  0  0  0  0  0  0  0  0  0
   -9.9109   20.0201  -32.0762 H   0  0  0  0  0  0  0  0  0  0  0  0
   -9.8930   22.4196  -31.3148 H   0  0  0  0  0  0  0  0  0  0  0  0
   -8.1421   24.5979  -30.6990 H   0  0  0  0  0  0  0  0  0  0  0  0
   -3.5000   26.0580  -31.2240 H   0  0  0  0  0  0  0  0  0  0  0  0
   -3.3910   23.3280  -29.7760 H   0  0  0  0  0  0  0  0  0  0  0  0
   -2.1170   22.5430  -30.7750 H   0  0  0  0  0  0  0  0  0  0  0  0
   -5.5530   20.0387  -32.2365 H   0  0  0  0  0  0  0  0  0  0  0  0
  1  2  3  0
  2  3  1  0
  3  4  1  0
  4  5  1  0
  5  6  2  0
  6  7  1  0
  7  8  2  0
  8  9  1  0
  9 10  2  0
 10 11  1  0
 11 12  1  0
 11 13  2  0
 10 14  1  0
 14 15  1  0
 15 16  1  0
 15 17  2  0
 14 18  1  0
 18 19  2  0
 19  5  1  0
 18  8  1  0
  3 20  1  0
  3 21  1  0
  4 22  1  0
  4 23  1  0
  6 24  1  0
  7 25  1  0
  9 26  1  0
 12 27  1  0
 16 28  1  0
 16 29  1  0
 19 30  1  0
M  CHG  1  12  -1
M  END
>  <UniqueID>  (94) 
93

>  <SMILES>  (94) 
N#CCCc1ccc2cc(C([NH-])=O)n(C(N)=O)c2c1

>  <Energy>  (94) 
65.25788344421566

>  <Genealogy>  (94) 
N#CCCc1ccc2cc(C([NH-])=O)n(C(N)=O)c2c1 (protonated)
N#CCCc1ccc2cc(C([NH-])=O)n(C(N)=O)c2c1 (3D coordinates assigned)
N#CCCc1ccc2cc(C([NH-])=O)n(C(N)=O)c2c1 (optimized conformer: 65.25788344421566 kcal/mol)

>  <smiles>  (94) 
N#CCCc1ccc2cc(C(N)=O)n(C(N)=O)c2c1

>  <score_type>  (94) 
oracle

>  <origin>  (94) 
adg

>  <m_score__min__energy>  (94) 
-10.720000000000001

>  <m_primary>  (94) 
energy

$$$$
