0:0
     RDKit          3D

 55 56  0  0  0  0  0  0  0  0999 V2000
   -3.3340   17.2910  -34.1770 C   0  0  0  0  0  0  0  0  0  0  0  0
   -3.9370   18.6070  -34.4400 N   0  0  0  0  0  0  0  0  0  0  0  0
   -3.6200   19.5230  -33.3270 C   0  0  0  0  0  0  0  0  0  0  0  0
   -5.3980   18.4630  -34.6120 C   0  0  0  0  0  0  0  0  0  0  0  0
   -5.8500   17.0260  -34.3170 C   0  0  0  0  0  0  0  0  0  0  0  0
   -6.0760   16.8440  -32.8890 N   0  0  0  0  0  0  0  0  0  0  0  0
   -6.7950   17.7820  -32.0790 C   0  0  0  0  0  0  0  0  0  0  0  0
   -6.5440   17.8860  -30.8460 O   0  0  0  0  0  0  0  0  0  0  0  0
   -7.8830   18.6070  -32.6970 C   0  0  0  0  0  0  0  0  0  0  0  0
   -7.8320   20.0280  -32.1960 C   0  0  0  0  0  0  0  0  0  0  0  0
   -9.0340   20.7510  -31.9940 C   0  0  0  0  0  0  0  0  0  0  0  0
   -9.0020   22.0840  -31.5500 C   0  0  0  0  0  0  0  0  0  0  0  0
   -7.7590   22.6680  -31.3320 C   0  0  0  0  0  0  0  0  0  0  0  0
   -7.4390   23.9270  -30.8770 C   0  0  0  0  0  0  0  0  0  0  0  0
   -6.0470   23.9610  -30.8340 C   0  0  0  0  0  0  0  0  0  0  0  0
   -5.2680   25.1600  -30.4530 C   0  0  0  0  0  0  0  0  0  0  0  0
   -3.9110   25.2870  -30.8740 N   0  0  0  0  0  0  0  0  0  0  0  0
   -5.7780   26.0600  -29.7360 O   0  0  0  0  0  0  0  0  0  0  0  0
   -5.5280   22.7700  -31.2470 N   0  0  0  0  0  0  0  0  0  0  0  0
   -4.1480   22.3730  -31.2640 C   0  0  0  0  0  0  0  0  0  0  0  0
   -3.3090   23.0470  -31.9230 O   0  0  0  0  0  0  0  0  0  0  0  0
   -3.7490   21.2230  -30.5750 O   0  0  0  0  0  0  0  0  0  0  0  0
   -3.3760   21.2230  -29.1980 C   0  0  0  0  0  0  0  0  0  0  0  0
   -2.6950   22.5060  -28.8380 C   0  0  0  0  0  0  0  0  0  0  0  0
   -1.9390   23.0690  -29.6760 O   0  0  0  0  0  0  0  0  0  0  0  0
   -2.8840   23.0540  -27.5640 O   0  0  0  0  0  0  0  0  0  0  0  0
   -2.9870   24.4570  -27.3410 C   0  0  0  0  0  0  0  0  0  0  0  0
   -1.8270   24.9290  -26.6980 O   0  0  0  0  0  0  0  0  0  0  0  0
   -0.8100   25.6710  -27.8540 P   0  0  0  0  0  0  0  0  0  0  0  0
   -0.5120   27.0930  -27.4370 O   0  0  0  0  0  0  0  0  0  0  0  0
    0.6410   24.8130  -28.0130 O   0  0  0  0  0  0  0  0  0  0  0  0
   -1.6050   25.6870  -29.3480 O   0  0  0  0  0  0  0  0  0  0  0  0
   -6.5870   21.9900  -31.5480 C   0  0  0  0  0  0  0  0  0  0  0  0
   -6.5890   20.6570  -31.9730 C   0  0  0  0  0  0  0  0  0  0  0  0
   -3.2609   17.1316  -33.0911 H   0  0  0  0  0  0  0  0  0  0  0  0
   -3.9616   16.5046  -34.6216 H   0  0  0  0  0  0  0  0  0  0  0  0
   -2.3286   17.2529  -34.6216 H   0  0  0  0  0  0  0  0  0  0  0  0
   -3.7970   19.0115  -32.3694 H   0  0  0  0  0  0  0  0  0  0  0  0
   -2.5646   19.8264  -33.3910 H   0  0  0  0  0  0  0  0  0  0  0  0
   -4.2621   20.4138  -33.3910 H   0  0  0  0  0  0  0  0  0  0  0  0
   -5.9104   19.1496  -33.9221 H   0  0  0  0  0  0  0  0  0  0  0  0
   -5.6523   18.7021  -35.6551 H   0  0  0  0  0  0  0  0  0  0  0  0
   -6.7846   16.8220  -34.8601 H   0  0  0  0  0  0  0  0  0  0  0  0
   -5.0618   16.3315  -34.6433 H   0  0  0  0  0  0  0  0  0  0  0  0
   -7.7589   18.6059  -33.7900 H   0  0  0  0  0  0  0  0  0  0  0  0
   -8.8544   18.1716  -32.4198 H   0  0  0  0  0  0  0  0  0  0  0  0
  -10.0014   20.2641  -32.1866 H   0  0  0  0  0  0  0  0  0  0  0  0
   -9.9312   22.6478  -31.3802 H   0  0  0  0  0  0  0  0  0  0  0  0
   -8.1346   24.7346  -30.6051 H   0  0  0  0  0  0  0  0  0  0  0  0
   -3.1650   24.6780  -30.4690 H   0  0  0  0  0  0  0  0  0  0  0  0
   -4.2777   21.1060  -28.5790 H   0  0  0  0  0  0  0  0  0  0  0  0
   -2.6811   20.3895  -29.0183 H   0  0  0  0  0  0  0  0  0  0  0  0
   -3.1034   24.9716  -28.3062 H   0  0  0  0  0  0  0  0  0  0  0  0
   -3.8604   24.6580  -26.7032 H   0  0  0  0  0  0  0  0  0  0  0  0
   -5.6456   20.1133  -32.1293 H   0  0  0  0  0  0  0  0  0  0  0  0
  1  2  1  0
  2  3  1  0
  2  4  1  0
  4  5  1  0
  5  6  1  0
  6  7  1  0
  7  8  2  0
  7  9  1  0
  9 10  1  0
 10 11  2  0
 11 12  1  0
 12 13  2  0
 13 14  1  0
 14 15  2  0
 15 16  1  0
 16 17  1  0
 16 18  2  0
 15 19  1  0
 19 20  1  0
 20 21  2  0
 20 22  1  0
 22 23  1  0
 23 24  1  0
 24 25  2  0
 24 26  1  0
 26 27  1  0
 27 28  1  0
 28 29  1  0
 29 30  2  0
 29 31  1  0
 29 32  1  0
 19 33  1  0
 33 34  2  0
 34 10  1  0
 33 13  1  0
  1 35  1  0
  1 36  1  0
  1 37  1  0
  3 38  1  0
  3 39  1  0
  3 40  1  0
  4 41  1  0
  4 42  1  0
  5 43  1  0
  5 44  1  0
  9 45  1  0
  9 46  1  0
 11 47  1  0
 12 48  1  0
 14 49  1  0
 17 50  1  0
 23 51  1  0
 23 52  1  0
 27 53  1  0
 27 54  1  0
 34 55  1  0
M  CHG  4   6  -1  17  -1  31  -1  32  -1
M  END
>  <UniqueID>  (1) 
1

>  <SMILES>  (1) 
CN(C)CC[N-]C(=O)Cc1ccc2cc(C([NH-])=O)n(C(=O)OCC(=O)OCOP(=O)([O-])[O-])c2c1

>  <Energy>  (1) 
84.56823426635026

>  <Genealogy>  (1) 
CN(C)CC[N-]C(=O)Cc1ccc2cc(C([NH-])=O)n(C(=O)OCC(=O)OCOP(=O)([O-])[O-])c2c1 (protonated)
CN(C)CC[N-]C(=O)Cc1ccc2cc(C([NH-])=O)n(C(=O)OCC(=O)OCOP(=O)([O-])[O-])c2c1 (3D coordinates assigned)
CN(C)CC[N-]C(=O)Cc1ccc2cc(C([NH-])=O)n(C(=O)OCC(=O)OCOP(=O)([O-])[O-])c2c1 (optimized conformer: 84.56823426635026 kcal/mol)

>  <smiles>  (1) 
CN(C)CCNC(=O)Cc1ccc2cc(C(N)=O)n(C(=O)OCC(=O)OCOP(=O)(O)O)c2c1

>  <score_type>  (1) 
oracle

>  <origin>  (1) 
adg

>  <m_score__min__energy>  (1) 
-13.9

>  <m_primary>  (1) 
energy

$$$$
1:0
     RDKit          3D

 38 39  0  0  0  0  0  0  0  0999 V2000
   -0.6150   21.2290  -31.6260 C   0  0  0  0  0  0  0  0  0  0  0  0
   -0.9030   21.0550  -32.7830 C   0  0  0  0  0  0  0  0  0  0  0  0
   -1.2570   20.8430  -34.1900 C   0  0  0  0  0  0  0  0  0  0  0  0
   -2.1380   19.7300  -34.3170 O   0  0  0  0  0  0  0  0  0  0  0  0
   -2.9110   19.2360  -33.2590 C   0  0  0  0  0  0  0  0  0  0  0  0
   -2.3940   18.4780  -32.3950 O   0  0  0  0  0  0  0  0  0  0  0  0
   -4.2990   19.5970  -33.1640 N   0  0  0  0  0  0  0  0  0  0  0  0
   -5.3610   18.9470  -33.7190 C   0  0  0  0  0  0  0  0  0  0  0  0
   -5.2830   17.8280  -34.6800 C   0  0  0  0  0  0  0  0  0  0  0  0
   -4.0600   17.5070  -35.3440 N   0  0  0  0  0  0  0  0  0  0  0  0
   -6.3270   17.1820  -34.9610 O   0  0  0  0  0  0  0  0  0  0  0  0
   -6.5600   19.5120  -33.2960 C   0  0  0  0  0  0  0  0  0  0  0  0
   -6.2000   20.5480  -32.4650 C   0  0  0  0  0  0  0  0  0  0  0  0
   -6.9970   21.4440  -31.7610 C   0  0  0  0  0  0  0  0  0  0  0  0
   -6.3590   22.3950  -30.9490 C   0  0  0  0  0  0  0  0  0  0  0  0
   -4.9420   22.4230  -30.8360 C   0  0  0  0  0  0  0  0  0  0  0  0
   -4.2410   23.4670  -29.9810 C   0  0  1  0  0  0  0  0  0  0  0  0
   -2.7060   23.2750  -30.0100 C   0  0  0  0  0  0  0  0  0  0  0  0
   -1.9760   24.1380  -29.0220 C   0  0  0  0  0  0  0  0  0  0  0  0
   -1.6620   23.6850  -27.8900 O   0  0  0  0  0  0  0  0  0  0  0  0
   -1.6600   25.4510  -29.3470 O   0  0  0  0  0  0  0  0  0  0  0  0
   -4.6800   24.8760  -30.3140 C   0  0  0  0  0  0  0  0  0  0  0  0
   -3.8950   25.6740  -30.8930 O   0  0  0  0  0  0  0  0  0  0  0  0
   -5.9160   25.3420  -29.8800 O   0  0  0  0  0  0  0  0  0  0  0  0
   -4.1690   21.5010  -31.5800 C   0  0  0  0  0  0  0  0  0  0  0  0
   -4.8310   20.5780  -32.3980 C   0  0  0  0  0  0  0  0  0  0  0  0
   -0.3521   21.3878  -30.5698 H   0  0  0  0  0  0  0  0  0  0  0  0
   -1.7530   21.7445  -34.5790 H   0  0  0  0  0  0  0  0  0  0  0  0
   -0.3400   20.6401  -34.7626 H   0  0  0  0  0  0  0  0  0  0  0  0
   -4.0150   16.6880  -35.9900 H   0  0  0  0  0  0  0  0  0  0  0  0
   -3.2220   18.1240  -35.2620 H   0  0  0  0  0  0  0  0  0  0  0  0
   -7.5784   19.1976  -33.5679 H   0  0  0  0  0  0  0  0  0  0  0  0
   -8.0937   21.4087  -31.8380 H   0  0  0  0  0  0  0  0  0  0  0  0
   -6.9628   23.1275  -30.3933 H   0  0  0  0  0  0  0  0  0  0  0  0
   -4.5546   23.3099  -28.9384 H   0  0  0  0  0  0  0  0  0  0  0  0
   -2.4825   22.2218  -29.7844 H   0  0  0  0  0  0  0  0  0  0  0  0
   -2.3620   23.5688  -31.0126 H   0  0  0  0  0  0  0  0  0  0  0  0
   -3.0708   21.5092  -31.5170 H   0  0  0  0  0  0  0  0  0  0  0  0
  1  2  3  0
  2  3  1  0
  3  4  1  0
  4  5  1  0
  5  6  2  0
  5  7  1  0
  7  8  1  0
  8  9  1  0
  9 10  1  0
  9 11  2  0
  8 12  2  0
 12 13  1  0
 13 14  2  0
 14 15  1  0
 15 16  2  0
 16 17  1  0
 17 18  1  0
 18 19  1  0
 19 20  2  0
 19 21  1  0
 17 22  1  0
 22 23  2  0
 22 24  1  0
 16 25  1  0
 25 26  2  0
 26  7  1  0
 26 13  1  0
  1 27  1  0
  3 28  1  0
  3 29  1  0
 10 30  1  0
 10 31  1  0
 12 32  1  0
 14 33  1  0
 15 34  1  0
 17 35  1  1
 18 36  1  0
 18 37  1  0
 25 38  1  0
M  CHG  2  21  -1  24  -1
M  END
>  <UniqueID>  (2) 
2

>  <SMILES>  (2) 
C#CCOC(=O)n1c(C(N)=O)cc2ccc([C@@H](CC(=O)[O-])C(=O)[O-])cc21

>  <Energy>  (2) 
75.12009627108978

>  <Genealogy>  (2) 
C#CCOC(=O)n1c(C(N)=O)cc2ccc(C(CC(=O)[O-])C(=O)[O-])cc21 (protonated)
C#CCOC(=O)n1c(C(N)=O)cc2ccc([C@@H](CC(=O)[O-])C(=O)[O-])cc21 (chirality)
C#CCOC(=O)n1c(C(N)=O)cc2ccc([C@@H](CC(=O)[O-])C(=O)[O-])cc21 (3D coordinates assigned)
C#CCOC(=O)n1c(C(N)=O)cc2ccc([C@@H](CC(=O)[O-])C(=O)[O-])cc21 (optimized conformer: 75.12009627108978 kcal/mol)

>  <smiles>  (2) 
C#CCOC(=O)n1c(C(N)=O)cc2ccc(C(CC(=O)O)C(=O)O)cc21

>  <score_type>  (2) 
oracle

>  <origin>  (2) 
adg

>  <m_score__min__energy>  (2) 
-11.449999999999999

>  <m_primary>  (2) 
energy

$$$$
2:0
     RDKit          3D

 30 31  0  0  0  0  0  0  0  0999 V2000
   -7.2240   17.9150  -31.8040 C   0  0  0  0  0  0  0  0  0  0  0  0
   -6.1440   17.7870  -32.7710 N   0  0  0  0  0  0  0  0  0  0  0  0
   -5.7230   18.8660  -33.6080 C   0  0  0  0  0  0  0  0  0  0  0  0
   -5.2650   18.6400  -34.7610 O   0  0  0  0  0  0  0  0  0  0  0  0
   -5.8750   20.2760  -33.1330 C   0  0  0  0  0  0  0  0  0  0  0  0
   -4.6250   20.7170  -32.4240 C   0  0  0  0  0  0  0  0  0  0  0  0
   -3.4520   19.9250  -32.4930 C   0  0  0  0  0  0  0  0  0  0  0  0
   -2.2640   20.3490  -31.8730 C   0  0  0  0  0  0  0  0  0  0  0  0
   -2.2800   21.5660  -31.1980 C   0  0  0  0  0  0  0  0  0  0  0  0
   -1.2660   22.2270  -30.5420 C   0  0  0  0  0  0  0  0  0  0  0  0
   -1.8390   23.4070  -30.0730 C   0  0  0  0  0  0  0  0  0  0  0  0
   -1.1130   24.3790  -29.2290 C   0  0  0  0  0  0  0  0  0  0  0  0
   -1.6490   25.6770  -28.9790 N   0  0  0  0  0  0  0  0  0  0  0  0
   -0.0290   24.0440  -28.6800 O   0  0  0  0  0  0  0  0  0  0  0  0
   -3.1520   23.4800  -30.4320 N   0  0  0  0  0  0  0  0  0  0  0  0
   -4.0580   24.5750  -30.2260 C   0  0  0  0  0  0  0  0  0  0  0  0
   -3.8840   25.6670  -30.8300 O   0  0  0  0  0  0  0  0  0  0  0  0
   -5.1180   24.4510  -29.3370 O   0  0  0  0  0  0  0  0  0  0  0  0
   -3.4080   22.3430  -31.1180 C   0  0  0  0  0  0  0  0  0  0  0  0
   -4.5990   21.9520  -31.7400 C   0  0  0  0  0  0  0  0  0  0  0  0
   -6.8118   17.8661  -30.7853 H   0  0  0  0  0  0  0  0  0  0  0  0
   -7.7326   18.8797  -31.9479 H   0  0  0  0  0  0  0  0  0  0  0  0
   -7.9440   17.0959  -31.9479 H   0  0  0  0  0  0  0  0  0  0  0  0
   -6.0556   20.9337  -33.9960 H   0  0  0  0  0  0  0  0  0  0  0  0
   -6.7245   20.3329  -32.4365 H   0  0  0  0  0  0  0  0  0  0  0  0
   -3.4714   18.9691  -33.0370 H   0  0  0  0  0  0  0  0  0  0  0  0
   -1.3504   19.7382  -31.9198 H   0  0  0  0  0  0  0  0  0  0  0  0
   -0.2252   21.8943  -30.4152 H   0  0  0  0  0  0  0  0  0  0  0  0
   -2.6790   25.8440  -28.9940 H   0  0  0  0  0  0  0  0  0  0  0  0
   -5.4932   22.5912  -31.6971 H   0  0  0  0  0  0  0  0  0  0  0  0
  1  2  1  0
  2  3  1  0
  3  4  2  0
  3  5  1  0
  5  6  1  0
  6  7  2  0
  7  8  1  0
  8  9  2  0
  9 10  1  0
 10 11  2  0
 11 12  1  0
 12 13  1  0
 12 14  2  0
 11 15  1  0
 15 16  1  0
 16 17  2  0
 16 18  1  0
 15 19  1  0
 19 20  2  0
 20  6  1  0
 19  9  1  0
  1 21  1  0
  1 22  1  0
  1 23  1  0
  5 24  1  0
  5 25  1  0
  7 26  1  0
  8 27  1  0
 10 28  1  0
 13 29  1  0
 20 30  1  0
M  CHG  3   2  -1  13  -1  18  -1
M  END
>  <UniqueID>  (3) 
3

>  <SMILES>  (3) 
C[N-]C(=O)Cc1ccc2cc(C([NH-])=O)n(C(=O)[O-])c2c1

>  <Energy>  (3) 
65.59182536993998

>  <Genealogy>  (3) 
C[N-]C(=O)Cc1ccc2cc(C([NH-])=O)n(C(=O)[O-])c2c1 (protonated)
C[N-]C(=O)Cc1ccc2cc(C([NH-])=O)n(C(=O)[O-])c2c1 (3D coordinates assigned)
C[N-]C(=O)Cc1ccc2cc(C([NH-])=O)n(C(=O)[O-])c2c1 (optimized conformer: 65.59182536993998 kcal/mol)

>  <smiles>  (3) 
CNC(=O)Cc1ccc2cc(C(N)=O)n(C(=O)O)c2c1

>  <score_type>  (3) 
oracle

>  <origin>  (3) 
adg

>  <m_score__min__energy>  (3) 
-10.039999999999999

>  <m_primary>  (3) 
energy

$$$$
3:0
     RDKit          3D

 58 60  0  0  0  0  0  0  0  0999 V2000
   -1.0550   23.6140  -29.3120 C   0  0  0  0  0  0  0  0  0  0  0  0
   -2.1660   24.4630  -29.1350 O   0  0  0  0  0  0  0  0  0  0  0  0
   -3.2140   23.7450  -28.5160 C   0  0  0  0  0  0  0  0  0  0  0  0
   -2.9520   22.2450  -28.6320 C   0  0  0  0  0  0  0  0  0  0  0  0
   -3.5370   21.7240  -29.8250 O   0  0  0  0  0  0  0  0  0  0  0  0
   -4.0070   22.5300  -30.8680 C   0  0  0  0  0  0  0  0  0  0  0  0
   -3.2000   23.0680  -31.6750 O   0  0  0  0  0  0  0  0  0  0  0  0
   -5.4130   22.7800  -30.9940 N   0  0  0  0  0  0  0  0  0  0  0  0
   -6.0710   23.9650  -30.8560 C   0  0  0  0  0  0  0  0  0  0  0  0
   -5.4810   25.2290  -30.3680 C   0  0  0  0  0  0  0  0  0  0  0  0
   -4.2110   25.6750  -30.8350 N   0  0  0  0  0  0  0  0  0  0  0  0
   -6.0880   25.9040  -29.4910 O   0  0  0  0  0  0  0  0  0  0  0  0
   -7.4170   23.8160  -31.1830 C   0  0  0  0  0  0  0  0  0  0  0  0
   -7.5650   22.4910  -31.5310 C   0  0  0  0  0  0  0  0  0  0  0  0
   -8.6860   21.8010  -31.9850 C   0  0  0  0  0  0  0  0  0  0  0  0
   -8.5280   20.4480  -32.3350 C   0  0  0  0  0  0  0  0  0  0  0  0
   -7.2640   19.8150  -32.2210 C   0  0  0  0  0  0  0  0  0  0  0  0
   -7.0870   18.3860  -32.6620 C   0  0  0  0  0  0  0  0  0  0  0  0
   -6.1230   17.6630  -31.7710 C   0  0  0  0  0  0  0  0  0  0  0  0
   -6.1670   17.8310  -30.5210 O   0  0  0  0  0  0  0  0  0  0  0  0
   -5.2220   16.7560  -32.3350 O   0  0  0  0  0  0  0  0  0  0  0  0
   -4.4630   17.0550  -33.5060 C   0  0  0  0  0  0  0  0  0  0  0  0
   -3.5550   18.1920  -33.2730 N   0  0  0  0  0  0  0  0  0  0  0  0
   -4.0680   19.4320  -33.8750 C   0  0  0  0  0  0  0  0  0  0  0  0
   -3.2340   20.6370  -33.3920 C   0  0  0  0  0  0  0  0  0  0  0  0
   -1.8310   20.2870  -33.0600 N   0  0  0  0  0  0  0  0  0  0  0  0
   -1.6450   20.0420  -31.6180 C   0  0  0  0  0  0  0  0  0  0  0  0
   -1.3240   19.1680  -33.8800 C   0  0  0  0  0  0  0  0  0  0  0  0
   -2.1850   17.8920  -33.7420 C   0  0  0  0  0  0  0  0  0  0  0  0
   -6.1510   20.5490  -31.7610 C   0  0  0  0  0  0  0  0  0  0  0  0
   -6.3390   21.8900  -31.4080 C   0  0  0  0  0  0  0  0  0  0  0  0
   -0.6625   23.3141  -28.3292 H   0  0  0  0  0  0  0  0  0  0  0  0
   -1.3630   22.7190  -29.8725 H   0  0  0  0  0  0  0  0  0  0  0  0
   -0.2724   24.1463  -29.8725 H   0  0  0  0  0  0  0  0  0  0  0  0
   -3.2707   24.0248  -27.4537 H   0  0  0  0  0  0  0  0  0  0  0  0
   -4.1643   23.9874  -29.0142 H   0  0  0  0  0  0  0  0  0  0  0  0
   -1.8665   22.0682  -28.6545 H   0  0  0  0  0  0  0  0  0  0  0  0
   -3.4020   21.7382  -27.7656 H   0  0  0  0  0  0  0  0  0  0  0  0
   -3.3790   25.0450  -30.8140 H   0  0  0  0  0  0  0  0  0  0  0  0
   -8.1966   24.5919  -31.1668 H   0  0  0  0  0  0  0  0  0  0  0  0
   -9.6638   22.2982  -32.0673 H   0  0  0  0  0  0  0  0  0  0  0  0
   -9.3931   19.8753  -32.7006 H   0  0  0  0  0  0  0  0  0  0  0  0
   -8.0609   17.8758  -32.6270 H   0  0  0  0  0  0  0  0  0  0  0  0
   -6.6862   18.3831  -33.6864 H   0  0  0  0  0  0  0  0  0  0  0  0
   -3.8691   16.1720  -33.7845 H   0  0  0  0  0  0  0  0  0  0  0  0
   -5.1588   17.3232  -34.3146 H   0  0  0  0  0  0  0  0  0  0  0  0
   -4.0025   19.3593  -34.9706 H   0  0  0  0  0  0  0  0  0  0  0  0
   -5.1161   19.5736  -33.5727 H   0  0  0  0  0  0  0  0  0  0  0  0
   -3.2250   21.3963  -34.1878 H   0  0  0  0  0  0  0  0  0  0  0  0
   -3.7034   21.0079  -32.4689 H   0  0  0  0  0  0  0  0  0  0  0  0
   -2.2120   20.7889  -31.0430 H   0  0  0  0  0  0  0  0  0  0  0  0
   -2.0074   19.0341  -31.3676 H   0  0  0  0  0  0  0  0  0  0  0  0
   -0.5767   20.1202  -31.3676 H   0  0  0  0  0  0  0  0  0  0  0  0
   -1.3204   19.4781  -34.9354 H   0  0  0  0  0  0  0  0  0  0  0  0
   -0.3114   18.9266  -33.5245 H   0  0  0  0  0  0  0  0  0  0  0  0
   -2.2464   17.3980  -34.7229 H   0  0  0  0  0  0  0  0  0  0  0  0
   -1.7070   17.2406  -32.9956 H   0  0  0  0  0  0  0  0  0  0  0  0
   -5.1596   20.0790  -31.6817 H   0  0  0  0  0  0  0  0  0  0  0  0
  1  2  1  0
  2  3  1  0
  3  4  1  0
  4  5  1  0
  5  6  1  0
  6  7  2  0
  6  8  1  0
  8  9  1  0
  9 10  1  0
 10 11  1  0
 10 12  2  0
  9 13  2  0
 13 14  1  0
 14 15  2  0
 15 16  1  0
 16 17  2  0
 17 18  1  0
 18 19  1  0
 19 20  2  0
 19 21  1  0
 21 22  1  0
 22 23  1  0
 23 24  1  0
 24 25  1  0
 25 26  1  0
 26 27  1  0
 26 28  1  0
 28 29  1  0
 17 30  1  0
 30 31  2  0
 31  8  1  0
 31 14  1  0
 29 23  1  0
  1 32  1  0
  1 33  1  0
  1 34  1  0
  3 35  1  0
  3 36  1  0
  4 37  1  0
  4 38  1  0
 11 39  1  0
 13 40  1  0
 15 41  1  0
 16 42  1  0
 18 43  1  0
 18 44  1  0
 22 45  1  0
 22 46  1  0
 24 47  1  0
 24 48  1  0
 25 49  1  0
 25 50  1  0
 27 51  1  0
 27 52  1  0
 27 53  1  0
 28 54  1  0
 28 55  1  0
 29 56  1  0
 29 57  1  0
 30 58  1  0
M  CHG  1  11  -1
M  END
>  <UniqueID>  (4) 
4

>  <SMILES>  (4) 
COCCOC(=O)n1c(C([NH-])=O)cc2ccc(CC(=O)OCN3CCN(C)CC3)cc21

>  <Energy>  (4) 
103.38028479072426

>  <Genealogy>  (4) 
COCCOC(=O)n1c(C([NH-])=O)cc2ccc(CC(=O)OCN3CCN(C)CC3)cc21 (protonated)
COCCOC(=O)n1c(C([NH-])=O)cc2ccc(CC(=O)OCN3CCN(C)CC3)cc21 (3D coordinates assigned)
COCCOC(=O)n1c(C([NH-])=O)cc2ccc(CC(=O)OCN3CCN(C)CC3)cc21 (nonaromatic ring conformer: 103.38028479072426 kcal/mol)

>  <smiles>  (4) 
COCCOC(=O)n1c(C(N)=O)cc2ccc(CC(=O)OCN3CCN(C)CC3)cc21

>  <score_type>  (4) 
oracle

>  <origin>  (4) 
adg

>  <m_score__min__energy>  (4) 
-10.539999999999999

>  <m_primary>  (4) 
energy

$$$$
4:0
     RDKit          3D

 26 27  0  0  0  0  0  0  0  0999 V2000
   -1.6710   25.6780  -28.9560 N   0  0  0  0  0  0  0  0  0  0  0  0
   -1.0960   24.4140  -29.2740 C   0  0  0  0  0  0  0  0  0  0  0  0
    0.0400   24.1200  -28.8160 O   0  0  0  0  0  0  0  0  0  0  0  0
   -1.8370   23.4220  -30.0810 C   0  0  0  0  0  0  0  0  0  0  0  0
   -1.2750   22.2290  -30.5300 C   0  0  0  0  0  0  0  0  0  0  0  0
   -2.3010   21.5560  -31.1560 C   0  0  0  0  0  0  0  0  0  0  0  0
   -2.3010   20.3170  -31.7890 C   0  0  0  0  0  0  0  0  0  0  0  0
   -3.5000   19.8770  -32.3730 C   0  0  0  0  0  0  0  0  0  0  0  0
   -4.6630   20.6850  -32.3300 C   0  0  0  0  0  0  0  0  0  0  0  0
   -5.9450   20.1950  -32.9430 C   0  0  0  0  0  0  0  0  0  0  0  0
   -5.7650   18.8060  -33.4650 C   0  0  0  0  0  0  0  0  0  0  0  0
   -5.3870   18.6180  -34.6520 O   0  0  0  0  0  0  0  0  0  0  0  0
   -6.0630   17.7150  -32.6570 O   0  0  0  0  0  0  0  0  0  0  0  0
   -4.6280   21.9330  -31.6690 C   0  0  0  0  0  0  0  0  0  0  0  0
   -3.4250   22.3380  -31.0780 C   0  0  0  0  0  0  0  0  0  0  0  0
   -3.1570   23.4900  -30.4230 N   0  0  0  0  0  0  0  0  0  0  0  0
   -4.0660   24.5830  -30.2210 C   0  0  0  0  0  0  0  0  0  0  0  0
   -3.9000   25.6690  -30.8370 O   0  0  0  0  0  0  0  0  0  0  0  0
   -5.1510   24.4450  -29.3660 O   0  0  0  0  0  0  0  0  0  0  0  0
   -2.7010   25.8350  -29.0360 H   0  0  0  0  0  0  0  0  0  0  0  0
   -0.2337   21.8954  -30.4102 H   0  0  0  0  0  0  0  0  0  0  0  0
   -1.3904   19.7014  -31.8307 H   0  0  0  0  0  0  0  0  0  0  0  0
   -3.5365   18.8956  -32.8686 H   0  0  0  0  0  0  0  0  0  0  0  0
   -6.7376   20.1974  -32.1802 H   0  0  0  0  0  0  0  0  0  0  0  0
   -6.2244   20.8593  -33.7741 H   0  0  0  0  0  0  0  0  0  0  0  0
   -5.5231   22.5704  -31.6198 H   0  0  0  0  0  0  0  0  0  0  0  0
  1  2  1  0
  2  3  2  0
  2  4  1  0
  4  5  2  0
  5  6  1  0
  6  7  2  0
  7  8  1  0
  8  9  2  0
  9 10  1  0
 10 11  1  0
 11 12  2  0
 11 13  1  0
  9 14  1  0
 14 15  2  0
 15 16  1  0
 16 17  1  0
 17 18  2  0
 17 19  1  0
 16  4  1  0
 15  6  1  0
  1 20  1  0
  5 21  1  0
  7 22  1  0
  8 23  1  0
 10 24  1  0
 10 25  1  0
 14 26  1  0
M  CHG  3   1  -1  13  -1  19  -1
M  END
>  <UniqueID>  (5) 
5

>  <SMILES>  (5) 
[NH-]C(=O)c1cc2ccc(CC(=O)[O-])cc2n1C(=O)[O-]

>  <Energy>  (5) 
64.88032135440226

>  <Genealogy>  (5) 
[NH-]C(=O)c1cc2ccc(CC(=O)[O-])cc2n1C(=O)[O-] (protonated)
[NH-]C(=O)c1cc2ccc(CC(=O)[O-])cc2n1C(=O)[O-] (3D coordinates assigned)
[NH-]C(=O)c1cc2ccc(CC(=O)[O-])cc2n1C(=O)[O-] (optimized conformer: 64.88032135440226 kcal/mol)

>  <smiles>  (5) 
NC(=O)c1cc2ccc(CC(=O)O)cc2n1C(=O)O

>  <score_type>  (5) 
oracle

>  <origin>  (5) 
adg

>  <m_score__min__energy>  (5) 
-9.7799999999999994

>  <m_primary>  (5) 
energy

$$$$
5:0
     RDKit          3D

 44 45  0  0  0  0  0  0  0  0999 V2000
   -2.9840   19.7260  -33.5090 C   0  0  0  0  0  0  0  0  0  0  0  0
   -3.2670   21.0140  -33.2940 C   0  0  0  0  0  0  0  0  0  0  0  0
   -2.4180   21.8770  -32.4040 C   0  0  0  0  0  0  0  0  0  0  0  0
   -3.2350   22.8110  -31.7040 O   0  0  0  0  0  0  0  0  0  0  0  0
   -4.1700   22.4370  -30.7320 C   0  0  0  0  0  0  0  0  0  0  0  0
   -3.7940   21.8560  -29.6770 O   0  0  0  0  0  0  0  0  0  0  0  0
   -5.5640   22.7140  -30.9370 N   0  0  0  0  0  0  0  0  0  0  0  0
   -6.1920   23.9200  -30.8400 C   0  0  0  0  0  0  0  0  0  0  0  0
   -5.5860   25.1730  -30.3470 C   0  0  0  0  0  0  0  0  0  0  0  0
   -4.2600   25.5510  -30.7180 N   0  0  0  0  0  0  0  0  0  0  0  0
   -6.2310   25.8960  -29.5420 O   0  0  0  0  0  0  0  0  0  0  0  0
   -7.5270   23.8120  -31.2210 C   0  0  0  0  0  0  0  0  0  0  0  0
   -7.7050   22.4860  -31.5450 C   0  0  0  0  0  0  0  0  0  0  0  0
   -8.8420   21.8200  -31.9920 C   0  0  0  0  0  0  0  0  0  0  0  0
   -8.7330   20.4490  -32.2770 C   0  0  0  0  0  0  0  0  0  0  0  0
   -7.4940   19.7770  -32.1270 C   0  0  0  0  0  0  0  0  0  0  0  0
   -7.3960   18.3000  -32.4010 C   0  0  0  0  0  0  0  0  0  0  0  0
   -5.9500   17.8050  -32.3060 C   0  0  0  0  0  0  0  0  0  0  0  0
   -5.4990   17.2950  -33.6240 N   0  0  0  0  0  0  0  0  0  0  0  0
   -5.7360   18.2820  -34.6900 C   0  0  0  0  0  0  0  0  0  0  0  0
   -6.1560   16.0240  -33.9630 C   0  0  0  0  0  0  0  0  0  0  0  0
   -6.3630   20.4850  -31.6670 C   0  0  0  0  0  0  0  0  0  0  0  0
   -6.5050   21.8450  -31.3670 C   0  0  0  0  0  0  0  0  0  0  0  0
   -3.6278   19.1238  -34.1669 H   0  0  0  0  0  0  0  0  0  0  0  0
   -2.1072   19.2678  -33.0281 H   0  0  0  0  0  0  0  0  0  0  0  0
   -4.1477   21.4557  -33.7831 H   0  0  0  0  0  0  0  0  0  0  0  0
   -1.8885   21.2417  -31.6788 H   0  0  0  0  0  0  0  0  0  0  0  0
   -1.6915   22.4258  -33.0213 H   0  0  0  0  0  0  0  0  0  0  0  0
   -3.6370   24.8940  -31.2380 H   0  0  0  0  0  0  0  0  0  0  0  0
   -3.8650   26.4620  -30.3940 H   0  0  0  0  0  0  0  0  0  0  0  0
   -8.2785   24.6145  -31.2557 H   0  0  0  0  0  0  0  0  0  0  0  0
   -9.7970   22.3510  -32.1183 H   0  0  0  0  0  0  0  0  0  0  0  0
   -9.6172   19.8917  -32.6198 H   0  0  0  0  0  0  0  0  0  0  0  0
   -8.0080   17.7587  -31.6645 H   0  0  0  0  0  0  0  0  0  0  0  0
   -7.7572   18.1145  -33.4233 H   0  0  0  0  0  0  0  0  0  0  0  0
   -5.3002   18.6366  -31.9958 H   0  0  0  0  0  0  0  0  0  0  0  0
   -5.8952   16.9920  -31.5670 H   0  0  0  0  0  0  0  0  0  0  0  0
   -5.9704   19.2582  -34.2404 H   0  0  0  0  0  0  0  0  0  0  0  0
   -4.8340   18.3724  -35.3131 H   0  0  0  0  0  0  0  0  0  0  0  0
   -6.5807   17.9530  -35.3131 H   0  0  0  0  0  0  0  0  0  0  0  0
   -6.4296   15.4947  -33.0384 H   0  0  0  0  0  0  0  0  0  0  0  0
   -7.0628   16.2257  -34.5521 H   0  0  0  0  0  0  0  0  0  0  0  0
   -5.4671   15.4008  -34.5521 H   0  0  0  0  0  0  0  0  0  0  0  0
   -5.3931   19.9802  -31.5471 H   0  0  0  0  0  0  0  0  0  0  0  0
  1  2  2  0
  2  3  1  0
  3  4  1  0
  4  5  1  0
  5  6  2  0
  5  7  1  0
  7  8  1  0
  8  9  1  0
  9 10  1  0
  9 11  2  0
  8 12  2  0
 12 13  1  0
 13 14  2  0
 14 15  1  0
 15 16  2  0
 16 17  1  0
 17 18  1  0
 18 19  1  0
 19 20  1  0
 19 21  1  0
 16 22  1  0
 22 23  2  0
 23  7  1  0
 23 13  1  0
  1 24  1  0
  1 25  1  0
  2 26  1  0
  3 27  1  0
  3 28  1  0
 10 29  1  0
 10 30  1  0
 12 31  1  0
 14 32  1  0
 15 33  1  0
 17 34  1  0
 17 35  1  0
 18 36  1  0
 18 37  1  0
 20 38  1  0
 20 39  1  0
 20 40  1  0
 21 41  1  0
 21 42  1  0
 21 43  1  0
 22 44  1  0
M  END
>  <UniqueID>  (6) 
6

>  <SMILES>  (6) 
C=CCOC(=O)n1c(C(N)=O)cc2ccc(CCN(C)C)cc21

>  <Energy>  (6) 
78.25398996921184

>  <Genealogy>  (6) 
C=CCOC(=O)n1c(C(N)=O)cc2ccc(CCN(C)C)cc21 (3D coordinates assigned)
C=CCOC(=O)n1c(C(N)=O)cc2ccc(CCN(C)C)cc21 (optimized conformer: 78.25398996921184 kcal/mol)

>  <smiles>  (6) 
C=CCOC(=O)n1c(C(N)=O)cc2ccc(CCN(C)C)cc21

>  <score_type>  (6) 
oracle

>  <origin>  (6) 
adg

>  <m_score__min__energy>  (6) 
-8.2100000000000009

>  <m_primary>  (6) 
energy

$$$$
6:0
     RDKit          3D

 57 58  0  0  0  0  0  0  0  0999 V2000
   -1.5380   25.7440  -26.9510 C   0  0  0  0  0  0  0  0  0  0  0  0
   -0.8750   25.2040  -28.2140 C   0  0  0  0  0  0  0  0  0  0  0  0
   -1.7620   25.2760  -29.3290 O   0  0  0  0  0  0  0  0  0  0  0  0
   -2.6200   24.2370  -29.7070 C   0  0  0  0  0  0  0  0  0  0  0  0
   -2.1920   23.0540  -29.8080 O   0  0  0  0  0  0  0  0  0  0  0  0
   -3.9650   24.5370  -29.9600 O   0  0  0  0  0  0  0  0  0  0  0  0
   -5.0190   24.3110  -29.0230 C   0  0  2  0  0  0  0  0  0  0  0  0
   -4.4480   24.2390  -27.6130 C   0  0  0  0  0  0  0  0  0  0  0  0
   -5.6540   23.0760  -29.3380 O   0  0  0  0  0  0  0  0  0  0  0  0
   -6.9260   23.0100  -29.9230 C   0  0  0  0  0  0  0  0  0  0  0  0
   -7.8650   22.4020  -29.3450 O   0  0  0  0  0  0  0  0  0  0  0  0
   -7.1940   23.7170  -31.2150 C   0  0  0  0  0  0  0  0  0  0  0  0
   -6.4240   23.1170  -32.4000 C   0  0  0  0  0  0  0  0  0  0  0  0
   -4.9390   22.8600  -32.1030 C   0  0  0  0  0  0  0  0  0  0  0  0
   -4.4760   21.5040  -32.5770 C   0  0  0  0  0  0  0  0  0  0  0  0
   -3.3520   21.3880  -33.4350 C   0  0  0  0  0  0  0  0  0  0  0  0
   -2.8970   20.1260  -33.8540 C   0  0  0  0  0  0  0  0  0  0  0  0
   -3.5890   19.0020  -33.4070 C   0  0  0  0  0  0  0  0  0  0  0  0
   -3.3650   17.6650  -33.6530 C   0  0  0  0  0  0  0  0  0  0  0  0
   -4.3810   16.9880  -32.9740 C   0  0  0  0  0  0  0  0  0  0  0  0
   -4.5920   15.5230  -33.0430 C   0  0  0  0  0  0  0  0  0  0  0  0
   -4.9920   14.7820  -31.8850 N   0  0  0  0  0  0  0  0  0  0  0  0
   -4.3920   14.9030  -34.1220 O   0  0  0  0  0  0  0  0  0  0  0  0
   -5.1930   17.8760  -32.3310 N   0  0  0  0  0  0  0  0  0  0  0  0
   -6.3780   17.6010  -31.5660 C   0  0  0  0  0  0  0  0  0  0  0  0
   -6.2880   17.0590  -30.4310 O   0  0  0  0  0  0  0  0  0  0  0  0
   -7.6270   17.9660  -32.0820 O   0  0  0  0  0  0  0  0  0  0  0  0
   -8.4020   19.0400  -31.5650 C   0  0  0  0  0  0  0  0  0  0  0  0
   -8.5910   20.0880  -32.6490 C   0  0  0  0  0  0  0  0  0  0  0  0
   -4.6920   19.1000  -32.6010 C   0  0  0  0  0  0  0  0  0  0  0  0
   -5.1510   20.3410  -32.1460 C   0  0  0  0  0  0  0  0  0  0  0  0
   -1.0315   25.3315  -26.0660 H   0  0  0  0  0  0  0  0  0  0  0  0
   -1.4631   26.8414  -26.9381 H   0  0  0  0  0  0  0  0  0  0  0  0
   -2.5975   25.4486  -26.9381 H   0  0  0  0  0  0  0  0  0  0  0  0
    0.0241   25.7995  -28.4308 H   0  0  0  0  0  0  0  0  0  0  0  0
   -0.6086   24.1500  -28.0462 H   0  0  0  0  0  0  0  0  0  0  0  0
   -5.7457   25.1351  -29.0759 H   0  0  0  0  0  0  0  0  0  0  0  0
   -5.2632   24.3418  -26.8816 H   0  0  0  0  0  0  0  0  0  0  0  0
   -3.9466   23.2705  -27.4695 H   0  0  0  0  0  0  0  0  0  0  0  0
   -3.7218   25.0527  -27.4695 H   0  0  0  0  0  0  0  0  0  0  0  0
   -8.2710   23.6565  -31.4305 H   0  0  0  0  0  0  0  0  0  0  0  0
   -6.8558   24.7570  -31.0965 H   0  0  0  0  0  0  0  0  0  0  0  0
   -6.8946   22.1607  -32.6719 H   0  0  0  0  0  0  0  0  0  0  0  0
   -6.4665   23.8521  -33.2172 H   0  0  0  0  0  0  0  0  0  0  0  0
   -4.3404   23.6325  -32.6079 H   0  0  0  0  0  0  0  0  0  0  0  0
   -4.8082   22.8927  -31.0113 H   0  0  0  0  0  0  0  0  0  0  0  0
   -2.8314   22.2951  -33.7758 H   0  0  0  0  0  0  0  0  0  0  0  0
   -2.0223   20.0286  -34.5139 H   0  0  0  0  0  0  0  0  0  0  0  0
   -2.5575   17.2242  -34.2561 H   0  0  0  0  0  0  0  0  0  0  0  0
   -5.1370   13.7470  -31.9490 H   0  0  0  0  0  0  0  0  0  0  0  0
   -5.2150   15.2580  -30.9850 H   0  0  0  0  0  0  0  0  0  0  0  0
   -9.3839   18.6631  -31.2426 H   0  0  0  0  0  0  0  0  0  0  0  0
   -7.8840   19.4883  -30.7044 H   0  0  0  0  0  0  0  0  0  0  0  0
   -8.7679   21.0690  -32.1838 H   0  0  0  0  0  0  0  0  0  0  0  0
   -7.6871   20.1362  -33.2740 H   0  0  0  0  0  0  0  0  0  0  0  0
   -9.4548   19.8174  -33.2740 H   0  0  0  0  0  0  0  0  0  0  0  0
   -6.0158   20.4089  -31.4696 H   0  0  0  0  0  0  0  0  0  0  0  0
  1  2  1  0
  2  3  1  0
  3  4  1  0
  4  5  2  0
  4  6  1  0
  6  7  1  0
  7  8  1  0
  7  9  1  0
  9 10  1  0
 10 11  2  0
 10 12  1  0
 12 13  1  0
 13 14  1  0
 14 15  1  0
 15 16  2  0
 16 17  1  0
 17 18  2  0
 18 19  1  0
 19 20  2  0
 20 21  1  0
 21 22  1  0
 21 23  2  0
 20 24  1  0
 24 25  1  0
 25 26  2  0
 25 27  1  0
 27 28  1  0
 28 29  1  0
 24 30  1  0
 30 31  2  0
 31 15  1  0
 30 18  1  0
  1 32  1  0
  1 33  1  0
  1 34  1  0
  2 35  1  0
  2 36  1  0
  7 37  1  1
  8 38  1  0
  8 39  1  0
  8 40  1  0
 12 41  1  0
 12 42  1  0
 13 43  1  0
 13 44  1  0
 14 45  1  0
 14 46  1  0
 16 47  1  0
 17 48  1  0
 19 49  1  0
 22 50  1  0
 22 51  1  0
 28 52  1  0
 28 53  1  0
 29 54  1  0
 29 55  1  0
 29 56  1  0
 31 57  1  0
M  END
>  <UniqueID>  (7) 
7

>  <SMILES>  (7) 
CCOC(=O)O[C@H](C)OC(=O)CCCc1ccc2cc(C(N)=O)n(C(=O)OCC)c2c1

>  <Energy>  (7) 
73.5016912785916

>  <Genealogy>  (7) 
CCOC(=O)O[C@H](C)OC(=O)CCCc1ccc2cc(C(N)=O)n(C(=O)OCC)c2c1 (chirality)
CCOC(=O)O[C@H](C)OC(=O)CCCc1ccc2cc(C(N)=O)n(C(=O)OCC)c2c1 (3D coordinates assigned)
CCOC(=O)O[C@H](C)OC(=O)CCCc1ccc2cc(C(N)=O)n(C(=O)OCC)c2c1 (optimized conformer: 73.5016912785916 kcal/mol)

>  <smiles>  (7) 
CCOC(=O)OC(C)OC(=O)CCCc1ccc2cc(C(N)=O)n(C(=O)OCC)c2c1

>  <score_type>  (7) 
oracle

>  <origin>  (7) 
adg

>  <m_score__min__energy>  (7) 
-8.6099999999999994

>  <m_primary>  (7) 
energy

$$$$
7:0
     RDKit          3D

 42 44  0  0  0  0  0  0  0  0999 V2000
   -7.5650   23.0660  -31.7450 C   0  0  0  0  0  0  0  0  0  0  0  0
   -6.4570   23.7710  -31.9820 C   0  0  0  0  0  0  0  0  0  0  0  0
   -6.0180   24.8730  -31.0590 C   0  0  0  0  0  0  0  0  0  0  0  0
   -4.5990   24.8790  -30.9200 O   0  0  0  0  0  0  0  0  0  0  0  0
   -3.9310   24.2980  -29.8350 C   0  0  0  0  0  0  0  0  0  0  0  0
   -4.2720   24.5760  -28.6530 O   0  0  0  0  0  0  0  0  0  0  0  0
   -2.8390   23.3960  -30.0740 N   0  0  0  0  0  0  0  0  0  0  0  0
   -1.5280   23.5620  -29.7400 C   0  0  0  0  0  0  0  0  0  0  0  0
   -0.9710   24.6680  -28.9340 C   0  0  0  0  0  0  0  0  0  0  0  0
   -1.6130   25.9410  -28.9360 N   0  0  0  0  0  0  0  0  0  0  0  0
    0.0880   24.5130  -28.2690 O   0  0  0  0  0  0  0  0  0  0  0  0
   -0.7690   22.4870  -30.1960 C   0  0  0  0  0  0  0  0  0  0  0  0
   -1.6650   21.6460  -30.8170 C   0  0  0  0  0  0  0  0  0  0  0  0
   -1.4540   20.4350  -31.4590 C   0  0  0  0  0  0  0  0  0  0  0  0
   -2.5590   19.7900  -32.0370 C   0  0  0  0  0  0  0  0  0  0  0  0
   -3.8690   20.3600  -31.9770 C   0  0  0  0  0  0  0  0  0  0  0  0
   -5.0120   19.6850  -32.5890 N   0  0  0  0  0  0  0  0  0  0  0  0
   -6.3450   19.8060  -31.9620 C   0  0  0  0  0  0  0  0  0  0  0  0
   -7.4600   19.1160  -32.7540 C   0  0  0  0  0  0  0  0  0  0  0  0
   -7.0090   17.9080  -33.3160 O   0  0  0  0  0  0  0  0  0  0  0  0
   -6.0790   18.2110  -34.3290 C   0  0  0  0  0  0  0  0  0  0  0  0
   -4.7870   18.7780  -33.7360 C   0  0  0  0  0  0  0  0  0  0  0  0
   -4.0230   21.6090  -31.3130 C   0  0  0  0  0  0  0  0  0  0  0  0
   -2.9060   22.2150  -30.7300 C   0  0  0  0  0  0  0  0  0  0  0  0
   -7.8651   22.2643  -32.4358 H   0  0  0  0  0  0  0  0  0  0  0  0
   -8.1782   23.2866  -30.8588 H   0  0  0  0  0  0  0  0  0  0  0  0
   -5.8523   23.5408  -32.8716 H   0  0  0  0  0  0  0  0  0  0  0  0
   -6.3446   25.8397  -31.4699 H   0  0  0  0  0  0  0  0  0  0  0  0
   -6.4694   24.7065  -30.0698 H   0  0  0  0  0  0  0  0  0  0  0  0
   -2.6550   26.0160  -28.9620 H   0  0  0  0  0  0  0  0  0  0  0  0
    0.3155   22.3409  -30.0839 H   0  0  0  0  0  0  0  0  0  0  0  0
   -0.4486   19.9920  -31.5139 H   0  0  0  0  0  0  0  0  0  0  0  0
   -2.4140   18.8260  -32.5466 H   0  0  0  0  0  0  0  0  0  0  0  0
   -6.3001   19.3551  -30.9597 H   0  0  0  0  0  0  0  0  0  0  0  0
   -6.5894   20.8780  -31.9278 H   0  0  0  0  0  0  0  0  0  0  0  0
   -8.3028   18.9057  -32.0791 H   0  0  0  0  0  0  0  0  0  0  0  0
   -7.7748   19.7844  -33.5689 H   0  0  0  0  0  0  0  0  0  0  0  0
   -5.8454   17.2935  -34.8890 H   0  0  0  0  0  0  0  0  0  0  0  0
   -6.5202   18.9672  -34.9949 H   0  0  0  0  0  0  0  0  0  0  0  0
   -4.1612   17.9387  -33.3985 H   0  0  0  0  0  0  0  0  0  0  0  0
   -4.3011   19.3698  -34.5258 H   0  0  0  0  0  0  0  0  0  0  0  0
   -5.0097   22.0923  -31.2590 H   0  0  0  0  0  0  0  0  0  0  0  0
  1  2  2  0
  2  3  1  0
  3  4  1  0
  4  5  1  0
  5  6  2  0
  5  7  1  0
  7  8  1  0
  8  9  1  0
  9 10  1  0
  9 11  2  0
  8 12  2  0
 12 13  1  0
 13 14  2  0
 14 15  1  0
 15 16  2  0
 16 17  1  0
 17 18  1  0
 18 19  1  0
 19 20  1  0
 20 21  1  0
 21 22  1  0
 16 23  1  0
 23 24  2  0
 24  7  1  0
 24 13  1  0
 22 17  1  0
  1 25  1  0
  1 26  1  0
  2 27  1  0
  3 28  1  0
  3 29  1  0
 10 30  1  0
 12 31  1  0
 14 32  1  0
 15 33  1  0
 18 34  1  0
 18 35  1  0
 19 36  1  0
 19 37  1  0
 21 38  1  0
 21 39  1  0
 22 40  1  0
 22 41  1  0
 23 42  1  0
M  CHG  1  10  -1
M  END
>  <UniqueID>  (8) 
8

>  <SMILES>  (8) 
C=CCOC(=O)n1c(C([NH-])=O)cc2ccc(N3CCOCC3)cc21

>  <Energy>  (8) 
85.36362398278312

>  <Genealogy>  (8) 
C=CCOC(=O)n1c(C([NH-])=O)cc2ccc(N3CCOCC3)cc21 (protonated)
C=CCOC(=O)n1c(C([NH-])=O)cc2ccc(N3CCOCC3)cc21 (3D coordinates assigned)
C=CCOC(=O)n1c(C([NH-])=O)cc2ccc(N3CCOCC3)cc21 (nonaromatic ring conformer: 85.36362398278312 kcal/mol)

>  <smiles>  (8) 
C=CCOC(=O)n1c(C(N)=O)cc2ccc(N3CCOCC3)cc21

>  <score_type>  (8) 
oracle

>  <origin>  (8) 
adg

>  <m_score__min__energy>  (8) 
-10.08

>  <m_primary>  (8) 
energy

$$$$
8:0
     RDKit          3D

 50 53  0  0  0  0  0  0  0  0999 V2000
   -2.7890   20.9730  -31.7940 C   0  0  0  0  0  0  0  0  0  0  0  0
   -2.6030   20.7200  -33.2860 C   0  0  0  0  0  0  0  0  0  0  0  0
   -3.7820   20.1470  -33.8470 O   0  0  0  0  0  0  0  0  0  0  0  0
   -4.4590   19.0620  -33.2790 C   0  0  0  0  0  0  0  0  0  0  0  0
   -3.8450   17.9890  -33.0280 O   0  0  0  0  0  0  0  0  0  0  0  0
   -5.8600   19.1730  -32.9820 N   0  0  0  0  0  0  0  0  0  0  0  0
   -6.7740   18.1640  -32.9280 C   0  0  0  0  0  0  0  0  0  0  0  0
   -6.5440   16.7660  -33.3420 C   0  0  0  0  0  0  0  0  0  0  0  0
   -5.5420   15.9630  -32.7160 N   0  0  0  0  0  0  0  0  0  0  0  0
   -7.2050   16.2880  -34.3030 O   0  0  0  0  0  0  0  0  0  0  0  0
   -7.9980   18.6320  -32.4580 C   0  0  0  0  0  0  0  0  0  0  0  0
   -7.8090   19.9770  -32.2330 C   0  0  0  0  0  0  0  0  0  0  0  0
   -8.6890   20.9310  -31.7280 C   0  0  0  0  0  0  0  0  0  0  0  0
   -8.2080   22.2370  -31.5420 C   0  0  0  0  0  0  0  0  0  0  0  0
   -6.8680   22.5650  -31.8660 C   0  0  0  0  0  0  0  0  0  0  0  0
   -6.3440   23.9480  -31.6010 C   0  0  0  0  0  0  0  0  0  0  0  0
   -5.1800   23.8720  -30.7260 N   0  0  0  0  0  0  0  0  0  0  0  0
   -4.9360   22.8910  -29.8220 C   0  0  0  0  0  0  0  0  0  0  0  0
   -3.7830   23.2360  -29.1530 C   0  0  0  0  0  0  0  0  0  0  0  0
   -3.0030   22.6370  -28.1620 C   0  0  0  0  0  0  0  0  0  0  0  0
   -3.3390   21.3850  -27.5550 N   0  0  0  0  0  0  0  0  0  0  0  0
   -2.5110   20.2190  -27.5520 C   0  0  0  0  0  0  0  0  0  0  0  0
   -1.8940   19.8690  -28.5970 O   0  0  0  0  0  0  0  0  0  0  0  0
   -2.4360   19.4430  -26.3930 O   0  0  0  0  0  0  0  0  0  0  0  0
   -3.4840   18.5750  -25.9810 C   0  0  0  0  0  0  0  0  0  0  0  0
   -1.8400   23.2640  -27.8170 N   0  0  0  0  0  0  0  0  0  0  0  0
   -1.4640   24.4530  -28.3890 C   0  0  0  0  0  0  0  0  0  0  0  0
   -2.2430   25.0390  -29.3460 N   0  0  0  0  0  0  0  0  0  0  0  0
   -3.3880   24.4160  -29.7100 C   0  0  0  0  0  0  0  0  0  0  0  0
   -4.2440   24.8150  -30.6650 N   0  0  0  0  0  0  0  0  0  0  0  0
   -6.0020   21.5690  -32.3650 C   0  0  0  0  0  0  0  0  0  0  0  0
   -6.5110   20.2790  -32.5560 C   0  0  0  0  0  0  0  0  0  0  0  0
   -2.2326   20.2162  -31.2216 H   0  0  0  0  0  0  0  0  0  0  0  0
   -2.4107   21.9747  -31.5420 H   0  0  0  0  0  0  0  0  0  0  0  0
   -3.8579   20.9107  -31.5420 H   0  0  0  0  0  0  0  0  0  0  0  0
   -2.3887   21.6736  -33.7907 H   0  0  0  0  0  0  0  0  0  0  0  0
   -1.7663   20.0198  -33.4261 H   0  0  0  0  0  0  0  0  0  0  0  0
   -5.4230   14.9630  -32.9940 H   0  0  0  0  0  0  0  0  0  0  0  0
   -4.8660   16.3760  -32.0360 H   0  0  0  0  0  0  0  0  0  0  0  0
   -8.9189   18.0515  -32.3002 H   0  0  0  0  0  0  0  0  0  0  0  0
   -9.7288   20.6695  -31.4824 H   0  0  0  0  0  0  0  0  0  0  0  0
   -8.8773   23.0125  -31.1412 H   0  0  0  0  0  0  0  0  0  0  0  0
   -6.0563   24.4188  -32.5526 H   0  0  0  0  0  0  0  0  0  0  0  0
   -7.1273   24.5479  -31.1147 H   0  0  0  0  0  0  0  0  0  0  0  0
   -5.5443   21.9899  -29.6548 H   0  0  0  0  0  0  0  0  0  0  0  0
   -3.5228   18.5428  -24.8822 H   0  0  0  0  0  0  0  0  0  0  0  0
   -4.4429   18.9470  -26.3710 H   0  0  0  0  0  0  0  0  0  0  0  0
   -3.2971   17.5636  -26.3710 H   0  0  0  0  0  0  0  0  0  0  0  0
   -0.5281   24.9381  -28.0746 H   0  0  0  0  0  0  0  0  0  0  0  0
   -4.9523   21.8006  -32.5983 H   0  0  0  0  0  0  0  0  0  0  0  0
  1  2  1  0
  2  3  1  0
  3  4  1  0
  4  5  2  0
  4  6  1  0
  6  7  1  0
  7  8  1  0
  8  9  1  0
  8 10  2  0
  7 11  2  0
 11 12  1  0
 12 13  2  0
 13 14  1  0
 14 15  2  0
 15 16  1  0
 16 17  1  0
 17 18  1  0
 18 19  2  0
 19 20  1  0
 20 21  1  0
 21 22  1  0
 22 23  2  0
 22 24  1  0
 24 25  1  0
 20 26  2  0
 26 27  1  0
 27 28  2  0
 28 29  1  0
 29 30  2  0
 15 31  1  0
 31 32  2  0
 32  6  1  0
 32 12  1  0
 30 17  1  0
 29 19  1  0
  1 33  1  0
  1 34  1  0
  1 35  1  0
  2 36  1  0
  2 37  1  0
  9 38  1  0
  9 39  1  0
 11 40  1  0
 13 41  1  0
 14 42  1  0
 16 43  1  0
 16 44  1  0
 18 45  1  0
 25 46  1  0
 25 47  1  0
 25 48  1  0
 27 49  1  0
 31 50  1  0
M  CHG  1  21  -1
M  END
>  <UniqueID>  (9) 
9

>  <SMILES>  (9) 
CCOC(=O)n1c(C(N)=O)cc2ccc(Cn3cc4c([N-]C(=O)OC)ncnc4n3)cc21

>  <Energy>  (9) 
130.20545145767068

>  <Genealogy>  (9) 
CCOC(=O)n1c(C(N)=O)cc2ccc(Cn3cc4c([N-]C(=O)OC)ncnc4n3)cc21 (protonated)
CCOC(=O)n1c(C(N)=O)cc2ccc(Cn3cc4c([N-]C(=O)OC)ncnc4n3)cc21 (3D coordinates assigned)
CCOC(=O)n1c(C(N)=O)cc2ccc(Cn3cc4c([N-]C(=O)OC)ncnc4n3)cc21 (optimized conformer: 130.20545145767068 kcal/mol)

>  <smiles>  (9) 
CCOC(=O)n1c(C(N)=O)cc2ccc(Cn3cc4c(NC(=O)OC)ncnc4n3)cc21

>  <score_type>  (9) 
oracle

>  <origin>  (9) 
adg

>  <m_score__min__energy>  (9) 
-8.9800000000000004

>  <m_primary>  (9) 
energy

$$$$
9:0
     RDKit          3D

 34 35  0  0  0  0  0  0  0  0999 V2000
   -5.2800   15.0360  -33.2270 C   0  0  0  0  0  0  0  0  0  0  0  0
   -4.9810   16.5820  -32.4060 S   0  0  0  0  0  0  0  0  0  0  0  0
   -6.0420   16.7570  -31.1160 O   0  0  0  0  0  0  0  0  0  0  0  0
   -5.1710   17.9450  -33.5450 C   0  0  0  0  0  0  0  0  0  0  0  0
   -4.3370   19.1560  -33.1190 C   0  0  0  0  0  0  0  0  0  0  0  0
   -5.1930   20.2360  -32.5080 C   0  0  0  0  0  0  0  0  0  0  0  0
   -6.6040   20.1150  -32.5250 C   0  0  0  0  0  0  0  0  0  0  0  0
   -7.4150   21.1210  -31.9750 C   0  0  0  0  0  0  0  0  0  0  0  0
   -6.7900   22.2390  -31.4330 C   0  0  0  0  0  0  0  0  0  0  0  0
   -7.3330   23.3430  -30.8160 C   0  0  0  0  0  0  0  0  0  0  0  0
   -6.2480   24.1390  -30.4650 C   0  0  0  0  0  0  0  0  0  0  0  0
   -6.3870   25.4660  -29.8320 C   0  0  0  0  0  0  0  0  0  0  0  0
   -5.5580   26.5610  -30.2210 N   0  0  0  0  0  0  0  0  0  0  0  0
   -7.2910   25.6510  -28.9740 O   0  0  0  0  0  0  0  0  0  0  0  0
   -5.0760   23.5500  -30.8360 N   0  0  0  0  0  0  0  0  0  0  0  0
   -3.7430   24.0040  -30.5450 C   0  0  0  0  0  0  0  0  0  0  0  0
   -3.4880   25.2330  -30.4690 O   0  0  0  0  0  0  0  0  0  0  0  0
   -2.7170   23.0860  -30.3480 O   0  0  0  0  0  0  0  0  0  0  0  0
   -5.4250   22.3860  -31.4300 C   0  0  0  0  0  0  0  0  0  0  0  0
   -4.5930   21.3870  -31.9490 C   0  0  0  0  0  0  0  0  0  0  0  0
   -5.4328   14.2460  -32.4769 H   0  0  0  0  0  0  0  0  0  0  0  0
   -6.1780   15.1227  -33.8563 H   0  0  0  0  0  0  0  0  0  0  0  0
   -4.4144   14.7816  -33.8563 H   0  0  0  0  0  0  0  0  0  0  0  0
   -5.7420   16.0820  -30.4560 H   0  0  0  0  0  0  0  0  0  0  0  0
   -4.8465   17.6222  -34.5453 H   0  0  0  0  0  0  0  0  0  0  0  0
   -6.2301   18.2421  -33.5523 H   0  0  0  0  0  0  0  0  0  0  0  0
   -3.5902   18.8320  -32.3792 H   0  0  0  0  0  0  0  0  0  0  0  0
   -3.8510   19.5697  -34.0149 H   0  0  0  0  0  0  0  0  0  0  0  0
   -7.0691   19.2246  -32.9733 H   0  0  0  0  0  0  0  0  0  0  0  0
   -8.5110   21.0276  -31.9729 H   0  0  0  0  0  0  0  0  0  0  0  0
   -8.3984   23.5514  -30.6383 H   0  0  0  0  0  0  0  0  0  0  0  0
   -5.6450   27.4830  -29.7370 H   0  0  0  0  0  0  0  0  0  0  0  0
   -4.9150   26.4860  -31.0400 H   0  0  0  0  0  0  0  0  0  0  0  0
   -3.4987   21.4952  -31.9224 H   0  0  0  0  0  0  0  0  0  0  0  0
  1  2  1  0
  2  3  1  1
  2  4  1  0
  4  5  1  0
  5  6  1  0
  6  7  2  0
  7  8  1  0
  8  9  2  0
  9 10  1  0
 10 11  2  0
 11 12  1  0
 12 13  1  0
 12 14  2  0
 11 15  1  0
 15 16  1  0
 16 17  2  0
 16 18  1  0
 15 19  1  0
 19 20  2  0
 20  6  1  0
 19  9  1  0
  1 21  1  0
  1 22  1  0
  1 23  1  0
  3 24  1  0
  4 25  1  0
  4 26  1  0
  5 27  1  0
  5 28  1  0
  7 29  1  0
  8 30  1  0
 10 31  1  0
 13 32  1  0
 13 33  1  0
 20 34  1  0
M  CHG  2   2   1  18  -1
M  END
>  <UniqueID>  (10) 
10

>  <SMILES>  (10) 
C[S@+](O)CCc1ccc2cc(C(N)=O)n(C(=O)[O-])c2c1

>  <Energy>  (10) 
64.72842736921773

>  <Genealogy>  (10) 
C[S+](O)CCc1ccc2cc(C(N)=O)n(C(=O)[O-])c2c1 (protonated)
C[S@+](O)CCc1ccc2cc(C(N)=O)n(C(=O)[O-])c2c1 (chirality)
C[S@+](O)CCc1ccc2cc(C(N)=O)n(C(=O)[O-])c2c1 (3D coordinates assigned)
C[S@+](O)CCc1ccc2cc(C(N)=O)n(C(=O)[O-])c2c1 (optimized conformer: 64.72842736921773 kcal/mol)

>  <smiles>  (10) 
C[S+]([O-])CCc1ccc2cc(C(N)=O)n(C(=O)O)c2c1

>  <score_type>  (10) 
oracle

>  <origin>  (10) 
adg

>  <m_score__min__energy>  (10) 
-8.5600000000000005

>  <m_primary>  (10) 
energy

$$$$
10:0
     RDKit          3D

 68 71  0  0  0  0  0  0  0  0999 V2000
   -0.8660   25.8540  -24.5560 C   0  0  0  0  0  0  0  0  0  0  0  0
    0.2020   25.5480  -25.6270 C   0  0  2  0  0  0  0  0  0  0  0  0
   -0.3920   25.6010  -27.0470 C   0  0  0  0  0  0  0  0  0  0  0  0
   -0.9530   24.3100  -27.4750 N   0  0  0  0  0  0  0  0  0  0  0  0
   -1.5330   24.2400  -28.8010 C   0  0  0  0  0  0  0  0  0  0  0  0
   -1.9880   25.2860  -29.3410 O   0  0  0  0  0  0  0  0  0  0  0  0
   -1.6380   22.9470  -29.5610 C   0  0  0  0  0  0  0  0  0  0  0  0
   -3.0040   22.6240  -29.8050 O   0  0  0  0  0  0  0  0  0  0  0  0
   -3.5430   22.4980  -31.0860 C   0  0  0  0  0  0  0  0  0  0  0  0
   -2.7920   22.2480  -32.0700 O   0  0  0  0  0  0  0  0  0  0  0  0
   -4.9550   22.6620  -31.2860 N   0  0  0  0  0  0  0  0  0  0  0  0
   -5.7080   23.7760  -31.0620 C   0  0  0  0  0  0  0  0  0  0  0  0
   -5.2510   25.0150  -30.3970 C   0  0  0  0  0  0  0  0  0  0  0  0
   -4.0570   25.6750  -30.8100 N   0  0  0  0  0  0  0  0  0  0  0  0
   -5.8900   25.4620  -29.4080 O   0  0  0  0  0  0  0  0  0  0  0  0
   -7.0320   23.5550  -31.4360 C   0  0  0  0  0  0  0  0  0  0  0  0
   -7.0720   22.2520  -31.8800 C   0  0  0  0  0  0  0  0  0  0  0  0
   -8.1440   21.4980  -32.3450 C   0  0  0  0  0  0  0  0  0  0  0  0
   -7.8990   20.1650  -32.7170 C   0  0  0  0  0  0  0  0  0  0  0  0
   -6.5960   19.6140  -32.6230 C   0  0  0  0  0  0  0  0  0  0  0  0
   -6.3660   18.2340  -32.9620 N   0  0  0  0  0  0  0  0  0  0  0  0
   -6.0070   17.8300  -34.3250 C   0  0  0  0  0  0  0  0  0  0  0  0
   -4.8060   16.8840  -34.2710 C   0  0  0  0  0  0  0  0  0  0  0  0
   -5.0870   15.7540  -33.3630 N   0  0  0  0  0  0  0  0  0  0  0  0
   -3.9510   14.8200  -33.3580 C   0  0  0  0  0  0  0  0  0  0  0  0
   -5.3450   16.2370  -31.9900 C   0  0  0  0  0  0  0  0  0  0  0  0
   -6.5590   17.1680  -31.9740 C   0  0  0  0  0  0  0  0  0  0  0  0
   -5.5330   20.4160  -32.1510 C   0  0  0  0  0  0  0  0  0  0  0  0
   -5.8070   21.7350  -31.7740 C   0  0  0  0  0  0  0  0  0  0  0  0
   -1.1350   23.2120  -26.5100 C   0  0  0  0  0  0  0  0  0  0  0  0
    0.0660   23.0400  -25.5380 C   0  0  2  0  0  0  0  0  0  0  0  0
   -0.4310   22.4860  -24.1830 C   0  0  0  0  0  0  0  0  0  0  0  0
    0.9240   24.2630  -25.4360 N   0  0  2  0  0  0  0  0  0  0  0  0
    1.8220   24.2850  -24.2620 C   0  0  0  0  0  0  0  0  0  0  0  0
   -0.4278   25.7285  -23.5549 H   0  0  0  0  0  0  0  0  0  0  0  0
   -1.2184   26.8892  -24.6748 H   0  0  0  0  0  0  0  0  0  0  0  0
   -1.7131   25.1624  -24.6748 H   0  0  0  0  0  0  0  0  0  0  0  0
    0.9492   26.3455  -25.5015 H   0  0  0  0  0  0  0  0  0  0  0  0
   -1.1916   26.3562  -27.0663 H   0  0  0  0  0  0  0  0  0  0  0  0
    0.4237   25.8554  -27.7397 H   0  0  0  0  0  0  0  0  0  0  0  0
   -1.1121   23.0476  -30.5219 H   0  0  0  0  0  0  0  0  0  0  0  0
   -1.1826   22.1437  -28.9632 H   0  0  0  0  0  0  0  0  0  0  0  0
   -3.1180   25.2860  -30.5770 H   0  0  0  0  0  0  0  0  0  0  0  0
   -7.8672   24.2691  -31.3870 H   0  0  0  0  0  0  0  0  0  0  0  0
   -9.1523   21.9314  -32.4193 H   0  0  0  0  0  0  0  0  0  0  0  0
   -8.7275   19.5421  -33.0852 H   0  0  0  0  0  0  0  0  0  0  0  0
   -6.8595   17.3155  -34.7925 H   0  0  0  0  0  0  0  0  0  0  0  0
   -5.7492   18.7200  -34.9178 H   0  0  0  0  0  0  0  0  0  0  0  0
   -4.6027   16.4971  -35.2804 H   0  0  0  0  0  0  0  0  0  0  0  0
   -3.9311   17.4359  -33.8969 H   0  0  0  0  0  0  0  0  0  0  0  0
   -3.6705   14.5894  -32.3197 H   0  0  0  0  0  0  0  0  0  0  0  0
   -4.2368   13.8923  -33.8753 H   0  0  0  0  0  0  0  0  0  0  0  0
   -3.0960   15.2798  -33.8753 H   0  0  0  0  0  0  0  0  0  0  0  0
   -5.5390   15.3763  -31.3330 H   0  0  0  0  0  0  0  0  0  0  0  0
   -4.4641   16.7915  -31.6343 H   0  0  0  0  0  0  0  0  0  0  0  0
   -7.4644   16.5953  -32.2236 H   0  0  0  0  0  0  0  0  0  0  0  0
   -6.6711   17.6097  -30.9729 H   0  0  0  0  0  0  0  0  0  0  0  0
   -4.5122   20.0121  -32.0815 H   0  0  0  0  0  0  0  0  0  0  0  0
   -2.0381   23.4158  -25.9160 H   0  0  0  0  0  0  0  0  0  0  0  0
   -1.2203   22.2808  -27.0893 H   0  0  0  0  0  0  0  0  0  0  0  0
    0.7524   22.2904  -25.9587 H   0  0  0  0  0  0  0  0  0  0  0  0
    0.0581   23.0312  -23.3623 H   0  0  0  0  0  0  0  0  0  0  0  0
   -1.5209   22.6160  -24.1113 H   0  0  0  0  0  0  0  0  0  0  0  0
   -0.1838   21.4165  -24.1113 H   0  0  0  0  0  0  0  0  0  0  0  0
    1.5880   24.2000  -26.2480 H   0  0  0  0  0  0  0  0  0  0  0  0
    1.2213   24.2703  -23.3406 H   0  0  0  0  0  0  0  0  0  0  0  0
    2.4784   23.4027  -24.2859 H   0  0  0  0  0  0  0  0  0  0  0  0
    2.4345   25.1984  -24.2859 H   0  0  0  0  0  0  0  0  0  0  0  0
  1  2  1  0
  2  3  1  0
  3  4  1  0
  4  5  1  0
  5  6  2  0
  5  7  1  0
  7  8  1  0
  8  9  1  0
  9 10  2  0
  9 11  1  0
 11 12  1  0
 12 13  1  0
 13 14  1  0
 13 15  2  0
 12 16  2  0
 16 17  1  0
 17 18  2  0
 18 19  1  0
 19 20  2  0
 20 21  1  0
 21 22  1  0
 22 23  1  0
 23 24  1  0
 24 25  1  0
 24 26  1  0
 26 27  1  0
 20 28  1  0
 28 29  2  0
  4 30  1  0
 30 31  1  0
 31 32  1  0
 31 33  1  0
 33 34  1  0
 33  2  1  0
 29 11  1  0
 29 17  1  0
 27 21  1  0
  1 35  1  0
  1 36  1  0
  1 37  1  0
  2 38  1  6
  3 39  1  0
  3 40  1  0
  7 41  1  0
  7 42  1  0
 14 43  1  0
 16 44  1  0
 18 45  1  0
 19 46  1  0
 22 47  1  0
 22 48  1  0
 23 49  1  0
 23 50  1  0
 25 51  1  0
 25 52  1  0
 25 53  1  0
 26 54  1  0
 26 55  1  0
 27 56  1  0
 27 57  1  0
 28 58  1  0
 30 59  1  0
 30 60  1  0
 31 61  1  6
 32 62  1  0
 32 63  1  0
 32 64  1  0
 33 65  1  6
 34 66  1  0
 34 67  1  0
 34 68  1  0
M  CHG  2  14  -1  33   1
M  END
>  <UniqueID>  (11) 
11

>  <SMILES>  (11) 
C[C@@H]1CN(C(=O)COC(=O)n2c(C([NH-])=O)cc3ccc(N4CCN(C)CC4)cc32)C[C@H](C)[N@@H+]1C

>  <Energy>  (11) 
123.59252560879207

>  <Genealogy>  (11) 
C[C@@H]1CN(C(=O)COC(=O)n2c(C([NH-])=O)cc3ccc(N4CCN(C)CC4)cc32)C[C@H](C)[NH+]1C (protonated)
C[C@@H]1CN(C(=O)COC(=O)n2c(C([NH-])=O)cc3ccc(N4CCN(C)CC4)cc32)C[C@H](C)[N@@H+]1C (chirality)
C[C@@H]1CN(C(=O)COC(=O)n2c(C([NH-])=O)cc3ccc(N4CCN(C)CC4)cc32)C[C@H](C)[N@@H+]1C (3D coordinates assigned)
C[C@@H]1CN(C(=O)COC(=O)n2c(C([NH-])=O)cc3ccc(N4CCN(C)CC4)cc32)C[C@H](C)[N@@H+]1C (nonaromatic ring conformer: 123.59252560879207 kcal/mol)

>  <smiles>  (11) 
C[C@@H]1CN(C(=O)COC(=O)n2c(C(N)=O)cc3ccc(N4CCN(C)CC4)cc32)C[C@H](C)N1C

>  <score_type>  (11) 
oracle

>  <origin>  (11) 
adg

>  <m_score__min__energy>  (11) 
-11.789999999999999

>  <m_primary>  (11) 
energy

$$$$
11:0
     RDKit          3D

 47 48  0  0  0  0  0  0  0  0999 V2000
   -1.6630   24.2490  -28.9880 C   0  0  0  0  0  0  0  0  0  0  0  0
   -2.7030   25.2340  -29.2600 N   0  0  0  0  0  0  0  0  0  0  0  0
   -3.8970   24.5560  -30.3280 S   0  0  0  0  0  0  0  0  0  0  0  0
   -3.2530   23.5360  -31.2250 O   0  0  0  0  0  0  0  0  0  0  0  0
   -4.4600   25.6540  -31.1840 O   0  0  0  0  0  0  0  0  0  0  0  0
   -5.2160   23.7650  -29.4030 C   0  0  0  0  0  0  0  0  0  0  0  0
   -6.4700   23.4700  -30.2570 C   0  0  1  0  0  0  0  0  0  0  0  0
   -6.1950   23.5150  -31.7760 C   0  0  0  0  0  0  0  0  0  0  0  0
   -6.0340   22.1470  -32.3950 C   0  0  0  0  0  0  0  0  0  0  0  0
   -7.1750   21.3600  -32.6980 C   0  0  0  0  0  0  0  0  0  0  0  0
   -7.0340   20.0770  -33.2530 C   0  0  0  0  0  0  0  0  0  0  0  0
   -5.7450   19.6020  -33.4790 C   0  0  0  0  0  0  0  0  0  0  0  0
   -5.3200   18.4070  -34.0140 C   0  0  0  0  0  0  0  0  0  0  0  0
   -3.9250   18.4730  -34.0090 C   0  0  0  0  0  0  0  0  0  0  0  0
   -3.0320   17.3760  -34.4460 C   0  0  0  0  0  0  0  0  0  0  0  0
   -1.6120   17.5000  -34.3470 N   0  0  0  0  0  0  0  0  0  0  0  0
   -3.5200   16.3190  -34.9290 O   0  0  0  0  0  0  0  0  0  0  0  0
   -3.5110   19.6600  -33.4820 N   0  0  0  0  0  0  0  0  0  0  0  0
   -2.1610   20.1290  -33.3370 C   0  0  0  0  0  0  0  0  0  0  0  0
   -1.5790   20.6620  -34.3200 O   0  0  0  0  0  0  0  0  0  0  0  0
   -1.4470   19.9860  -32.0530 C   0  0  0  0  0  0  0  0  0  0  0  0
   -1.5860   21.0200  -30.9820 C   0  0  0  0  0  0  0  0  0  0  0  0
   -0.6890   18.9960  -31.8630 O   0  0  0  0  0  0  0  0  0  0  0  0
   -4.6340   20.3420  -33.1750 C   0  0  0  0  0  0  0  0  0  0  0  0
   -4.7450   21.6340  -32.6530 C   0  0  0  0  0  0  0  0  0  0  0  0
   -6.9620   22.1800  -29.9240 O   0  0  0  0  0  0  0  0  0  0  0  0
   -8.3620   22.1150  -30.0860 C   0  0  0  0  0  0  0  0  0  0  0  0
   -1.5419   24.1343  -27.9007 H   0  0  0  0  0  0  0  0  0  0  0  0
   -1.9488   23.2827  -29.4290 H   0  0  0  0  0  0  0  0  0  0  0  0
   -0.7136   24.5869  -29.4290 H   0  0  0  0  0  0  0  0  0  0  0  0
   -4.8375   22.8146  -28.9986 H   0  0  0  0  0  0  0  0  0  0  0  0
   -5.5198   24.4620  -28.6081 H   0  0  0  0  0  0  0  0  0  0  0  0
   -7.2051   24.2569  -30.0323 H   0  0  0  0  0  0  0  0  0  0  0  0
   -7.0368   24.0240  -32.2682 H   0  0  0  0  0  0  0  0  0  0  0  0
   -5.2452   24.0511  -31.9193 H   0  0  0  0  0  0  0  0  0  0  0  0
   -8.1803   21.7584  -32.4963 H   0  0  0  0  0  0  0  0  0  0  0  0
   -7.9148   19.4667  -33.5013 H   0  0  0  0  0  0  0  0  0  0  0  0
   -5.9466   17.5760  -34.3701 H   0  0  0  0  0  0  0  0  0  0  0  0
   -0.9950   16.7310  -34.6930 H   0  0  0  0  0  0  0  0  0  0  0  0
   -1.1660   18.3270  -33.8940 H   0  0  0  0  0  0  0  0  0  0  0  0
   -1.5211   20.5373  -29.9957 H   0  0  0  0  0  0  0  0  0  0  0  0
   -0.7794   21.7614  -31.0812 H   0  0  0  0  0  0  0  0  0  0  0  0
   -2.5597   21.5220  -31.0812 H   0  0  0  0  0  0  0  0  0  0  0  0
   -3.8481   22.2370  -32.4481 H   0  0  0  0  0  0  0  0  0  0  0  0
   -8.8448   22.0926  -29.0979 H   0  0  0  0  0  0  0  0  0  0  0  0
   -8.7080   22.9980  -30.6432 H   0  0  0  0  0  0  0  0  0  0  0  0
   -8.6247   21.2037  -30.6432 H   0  0  0  0  0  0  0  0  0  0  0  0
  1  2  1  0
  2  3  1  0
  3  4  2  0
  3  5  2  0
  3  6  1  0
  6  7  1  0
  7  8  1  0
  8  9  1  0
  9 10  2  0
 10 11  1  0
 11 12  2  0
 12 13  1  0
 13 14  2  0
 14 15  1  0
 15 16  1  0
 15 17  2  0
 14 18  1  0
 18 19  1  0
 19 20  2  0
 19 21  1  0
 21 22  1  0
 21 23  2  0
 18 24  1  0
 24 25  2  0
  7 26  1  0
 26 27  1  0
 25  9  1  0
 24 12  1  0
  1 28  1  0
  1 29  1  0
  1 30  1  0
  6 31  1  0
  6 32  1  0
  7 33  1  6
  8 34  1  0
  8 35  1  0
 10 36  1  0
 11 37  1  0
 13 38  1  0
 16 39  1  0
 16 40  1  0
 22 41  1  0
 22 42  1  0
 22 43  1  0
 25 44  1  0
 27 45  1  0
 27 46  1  0
 27 47  1  0
M  CHG  1   2  -1
M  END
>  <UniqueID>  (12) 
12

>  <SMILES>  (12) 
C[N-]S(=O)(=O)C[C@@H](Cc1ccc2cc(C(N)=O)n(C(=O)C(C)=O)c2c1)OC

>  <Energy>  (12) 
77.56970666743192

>  <Genealogy>  (12) 
C[N-]S(=O)(=O)CC(Cc1ccc2cc(C(N)=O)n(C(=O)C(C)=O)c2c1)OC (protonated)
C[N-]S(=O)(=O)C[C@@H](Cc1ccc2cc(C(N)=O)n(C(=O)C(C)=O)c2c1)OC (chirality)
C[N-]S(=O)(=O)C[C@@H](Cc1ccc2cc(C(N)=O)n(C(=O)C(C)=O)c2c1)OC (3D coordinates assigned)
C[N-]S(=O)(=O)C[C@@H](Cc1ccc2cc(C(N)=O)n(C(=O)C(C)=O)c2c1)OC (optimized conformer: 77.56970666743192 kcal/mol)

>  <smiles>  (12) 
CNS(=O)(=O)CC(Cc1ccc2cc(C(N)=O)n(C(=O)C(C)=O)c2c1)OC

>  <score_type>  (12) 
oracle

>  <origin>  (12) 
adg

>  <m_score__min__energy>  (12) 
-9.9399999999999995

>  <m_primary>  (12) 
energy

$$$$
12:0
     RDKit          3D

 55 56  0  0  0  0  0  0  0  0999 V2000
   -1.0840   20.9750  -33.7010 C   0  0  0  0  0  0  0  0  0  0  0  0
   -2.0070   20.0960  -32.9600 N   0  0  0  0  0  0  0  0  0  0  0  0
   -1.2350   19.1030  -32.1950 C   0  0  0  0  0  0  0  0  0  0  0  0
   -2.9560   19.4330  -33.8790 C   0  0  0  0  0  0  0  0  0  0  0  0
   -3.5560   18.1740  -33.2370 C   0  0  0  0  0  0  0  0  0  0  0  0
   -4.6540   17.6490  -34.0490 N   0  0  0  0  0  0  0  0  0  0  0  0
   -5.9390   18.2510  -34.2710 C   0  0  0  0  0  0  0  0  0  0  0  0
   -6.1120   18.9260  -35.3210 O   0  0  0  0  0  0  0  0  0  0  0  0
   -7.0800   18.1260  -33.2970 C   0  0  0  0  0  0  0  0  0  0  0  0
   -7.2580   19.4130  -32.5390 C   0  0  0  0  0  0  0  0  0  0  0  0
   -8.4840   19.6910  -31.8860 C   0  0  0  0  0  0  0  0  0  0  0  0
   -8.6670   20.8980  -31.1930 C   0  0  0  0  0  0  0  0  0  0  0  0
   -7.6180   21.8130  -31.1850 C   0  0  0  0  0  0  0  0  0  0  0  0
   -7.5180   23.0350  -30.5630 C   0  0  0  0  0  0  0  0  0  0  0  0
   -6.2470   23.5050  -30.8790 C   0  0  0  0  0  0  0  0  0  0  0  0
   -5.7400   24.8230  -30.4500 C   0  0  0  0  0  0  0  0  0  0  0  0
   -6.0380   25.3420  -29.1530 N   0  0  0  0  0  0  0  0  0  0  0  0
   -4.9940   25.4810  -31.2210 O   0  0  0  0  0  0  0  0  0  0  0  0
   -5.5780   22.6050  -31.6550 N   0  0  0  0  0  0  0  0  0  0  0  0
   -4.2000   22.6700  -32.0630 C   0  0  0  0  0  0  0  0  0  0  0  0
   -3.8580   22.2210  -33.1900 O   0  0  0  0  0  0  0  0  0  0  0  0
   -3.2510   23.2290  -31.1950 O   0  0  0  0  0  0  0  0  0  0  0  0
   -2.7380   22.6360  -29.9940 C   0  0  0  0  0  0  0  0  0  0  0  0
   -1.2060   22.6980  -30.0780 C   0  0  0  0  0  0  0  0  0  0  0  0
   -3.2030   23.4280  -28.7570 C   0  0  0  0  0  0  0  0  0  0  0  0
   -3.1700   21.1600  -29.8880 C   0  0  0  0  0  0  0  0  0  0  0  0
   -6.4340   21.5720  -31.8350 C   0  0  0  0  0  0  0  0  0  0  0  0
   -6.2170   20.3680  -32.5180 C   0  0  0  0  0  0  0  0  0  0  0  0
   -0.4770   21.5531  -32.9887 H   0  0  0  0  0  0  0  0  0  0  0  0
   -0.4238   20.3635  -34.3336 H   0  0  0  0  0  0  0  0  0  0  0  0
   -1.6626   21.6643  -34.3336 H   0  0  0  0  0  0  0  0  0  0  0  0
   -1.3735   19.2811  -31.1184 H   0  0  0  0  0  0  0  0  0  0  0  0
   -1.5864   18.0917  -32.4475 H   0  0  0  0  0  0  0  0  0  0  0  0
   -0.1683   19.1942  -32.4475 H   0  0  0  0  0  0  0  0  0  0  0  0
   -3.7679   20.1334  -34.1243 H   0  0  0  0  0  0  0  0  0  0  0  0
   -2.4136   19.1374  -34.7892 H   0  0  0  0  0  0  0  0  0  0  0  0
   -2.7733   17.4061  -33.1493 H   0  0  0  0  0  0  0  0  0  0  0  0
   -3.9474   18.4375  -32.2433 H   0  0  0  0  0  0  0  0  0  0  0  0
   -8.0045   17.8975  -33.8475 H   0  0  0  0  0  0  0  0  0  0  0  0
   -6.8578   17.3174  -32.5851 H   0  0  0  0  0  0  0  0  0  0  0  0
   -9.3001   18.9543  -31.9223 H   0  0  0  0  0  0  0  0  0  0  0  0
   -9.6112   21.1143  -30.6718 H   0  0  0  0  0  0  0  0  0  0  0  0
   -8.2802   23.5346  -29.9470 H   0  0  0  0  0  0  0  0  0  0  0  0
   -6.5110   24.7540  -28.4320 H   0  0  0  0  0  0  0  0  0  0  0  0
   -5.7110   26.2960  -28.8810 H   0  0  0  0  0  0  0  0  0  0  0  0
   -0.7835   22.7151  -29.0625 H   0  0  0  0  0  0  0  0  0  0  0  0
   -0.8322   21.8142  -30.6158 H   0  0  0  0  0  0  0  0  0  0  0  0
   -0.9048   23.6091  -30.6158 H   0  0  0  0  0  0  0  0  0  0  0  0
   -2.8921   22.8984  -27.8444 H   0  0  0  0  0  0  0  0  0  0  0  0
   -2.7499   24.4303  -28.7717 H   0  0  0  0  0  0  0  0  0  0  0  0
   -4.2990   23.5208  -28.7717 H   0  0  0  0  0  0  0  0  0  0  0  0
   -3.2527   20.8774  -28.8282 H   0  0  0  0  0  0  0  0  0  0  0  0
   -4.1448   21.0270  -30.3801 H   0  0  0  0  0  0  0  0  0  0  0  0
   -2.4208   20.5224  -30.3801 H   0  0  0  0  0  0  0  0  0  0  0  0
   -5.2607   20.1714  -33.0248 H   0  0  0  0  0  0  0  0  0  0  0  0
  1  2  1  0
  2  3  1  0
  2  4  1  0
  4  5  1  0
  5  6  1  0
  6  7  1  0
  7  8  2  0
  7  9  1  0
  9 10  1  0
 10 11  2  0
 11 12  1  0
 12 13  2  0
 13 14  1  0
 14 15  2  0
 15 16  1  0
 16 17  1  0
 16 18  2  0
 15 19  1  0
 19 20  1  0
 20 21  2  0
 20 22  1  0
 22 23  1  0
 23 24  1  0
 23 25  1  0
 23 26  1  0
 19 27  1  0
 27 28  2  0
 28 10  1  0
 27 13  1  0
  1 29  1  0
  1 30  1  0
  1 31  1  0
  3 32  1  0
  3 33  1  0
  3 34  1  0
  4 35  1  0
  4 36  1  0
  5 37  1  0
  5 38  1  0
  9 39  1  0
  9 40  1  0
 11 41  1  0
 12 42  1  0
 14 43  1  0
 17 44  1  0
 17 45  1  0
 24 46  1  0
 24 47  1  0
 24 48  1  0
 25 49  1  0
 25 50  1  0
 25 51  1  0
 26 52  1  0
 26 53  1  0
 26 54  1  0
 28 55  1  0
M  CHG  1   6  -1
M  END
>  <UniqueID>  (13) 
13

>  <SMILES>  (13) 
CN(C)CC[N-]C(=O)Cc1ccc2cc(C(N)=O)n(C(=O)OC(C)(C)C)c2c1

>  <Energy>  (13) 
86.02280456992047

>  <Genealogy>  (13) 
CN(C)CC[N-]C(=O)Cc1ccc2cc(C(N)=O)n(C(=O)OC(C)(C)C)c2c1 (protonated)
CN(C)CC[N-]C(=O)Cc1ccc2cc(C(N)=O)n(C(=O)OC(C)(C)C)c2c1 (3D coordinates assigned)
CN(C)CC[N-]C(=O)Cc1ccc2cc(C(N)=O)n(C(=O)OC(C)(C)C)c2c1 (optimized conformer: 86.02280456992047 kcal/mol)

>  <smiles>  (13) 
CN(C)CCNC(=O)Cc1ccc2cc(C(N)=O)n(C(=O)OC(C)(C)C)c2c1

>  <score_type>  (13) 
oracle

>  <origin>  (13) 
adg

>  <m_score__min__energy>  (13) 
-10.06

>  <m_primary>  (13) 
energy

$$$$
13:0
     RDKit          3D

 40 42  0  0  0  0  0  0  0  0999 V2000
   -1.2500   25.4400  -29.0970 N   0  0  0  0  0  0  0  0  0  0  0  0
   -0.6880   24.1270  -29.1220 C   0  0  0  0  0  0  0  0  0  0  0  0
    0.3860   23.9050  -28.5040 O   0  0  0  0  0  0  0  0  0  0  0  0
   -1.3070   23.0450  -29.9160 C   0  0  0  0  0  0  0  0  0  0  0  0
   -0.6240   21.8970  -30.3030 C   0  0  0  0  0  0  0  0  0  0  0  0
   -1.5160   21.1890  -31.0760 C   0  0  0  0  0  0  0  0  0  0  0  0
   -1.3690   19.9580  -31.7060 C   0  0  0  0  0  0  0  0  0  0  0  0
   -2.4690   19.4420  -32.4070 C   0  0  0  0  0  0  0  0  0  0  0  0
   -3.6940   20.1570  -32.4710 C   0  0  0  0  0  0  0  0  0  0  0  0
   -4.8770   19.5430  -33.2050 C   0  0  1  0  0  0  0  0  0  0  0  0
   -4.6820   18.0370  -33.5350 C   0  0  0  0  0  0  0  0  0  0  0  0
   -4.7890   17.6710  -34.9900 C   0  0  0  0  0  0  0  0  0  0  0  0
   -5.7090   18.1500  -35.7030 O   0  0  0  0  0  0  0  0  0  0  0  0
   -3.9200   16.7360  -35.5400 O   0  0  0  0  0  0  0  0  0  0  0  0
   -6.2100   19.8950  -32.5520 C   0  0  0  0  0  0  0  0  0  0  0  0
   -7.0010   18.9410  -31.8800 C   0  0  0  0  0  0  0  0  0  0  0  0
   -8.1990   19.3170  -31.2640 C   0  0  0  0  0  0  0  0  0  0  0  0
   -8.6180   20.6480  -31.2980 C   0  0  0  0  0  0  0  0  0  0  0  0
   -7.8360   21.6100  -31.9410 C   0  0  0  0  0  0  0  0  0  0  0  0
   -8.3520   23.2860  -31.9670 Cl  0  0  0  0  0  0  0  0  0  0  0  0
   -6.6370   21.2380  -32.5580 C   0  0  0  0  0  0  0  0  0  0  0  0
   -3.8070   21.3990  -31.7980 C   0  0  0  0  0  0  0  0  0  0  0  0
   -2.6870   21.9010  -31.1260 C   0  0  0  0  0  0  0  0  0  0  0  0
   -2.5750   23.0450  -30.4130 N   0  0  0  0  0  0  0  0  0  0  0  0
   -3.6180   23.9960  -30.1390 C   0  0  0  0  0  0  0  0  0  0  0  0
   -4.6260   23.6620  -29.4630 O   0  0  0  0  0  0  0  0  0  0  0  0
   -3.5180   25.3000  -30.6070 O   0  0  0  0  0  0  0  0  0  0  0  0
   -0.8170   26.1830  -28.5050 H   0  0  0  0  0  0  0  0  0  0  0  0
   -2.0350   25.7030  -29.7320 H   0  0  0  0  0  0  0  0  0  0  0  0
    0.4079   21.6152  -30.0463 H   0  0  0  0  0  0  0  0  0  0  0  0
   -0.4190   19.4057  -31.6561 H   0  0  0  0  0  0  0  0  0  0  0  0
   -2.3813   18.4699  -32.9142 H   0  0  0  0  0  0  0  0  0  0  0  0
   -4.9184   20.0184  -34.1961 H   0  0  0  0  0  0  0  0  0  0  0  0
   -3.6826   17.7404  -33.1841 H   0  0  0  0  0  0  0  0  0  0  0  0
   -5.5052   17.5096  -33.0309 H   0  0  0  0  0  0  0  0  0  0  0  0
   -6.6731   17.8918  -31.8398 H   0  0  0  0  0  0  0  0  0  0  0  0
   -8.8127   18.5617  -30.7513 H   0  0  0  0  0  0  0  0  0  0  0  0
   -9.5641   20.9392  -30.8184 H   0  0  0  0  0  0  0  0  0  0  0  0
   -6.0204   22.0024  -33.0535 H   0  0  0  0  0  0  0  0  0  0  0  0
   -4.7551   21.9567  -31.8038 H   0  0  0  0  0  0  0  0  0  0  0  0
  1  2  1  0
  2  3  2  0
  2  4  1  0
  4  5  2  0
  5  6  1  0
  6  7  2  0
  7  8  1  0
  8  9  2  0
  9 10  1  0
 10 11  1  0
 11 12  1  0
 12 13  2  0
 12 14  1  0
 10 15  1  0
 15 16  2  0
 16 17  1  0
 17 18  2  0
 18 19  1  0
 19 20  1  0
 19 21  2  0
  9 22  1  0
 22 23  2  0
 23 24  1  0
 24 25  1  0
 25 26  2  0
 25 27  1  0
 24  4  1  0
 23  6  1  0
 21 15  1  0
  1 28  1  0
  1 29  1  0
  5 30  1  0
  7 31  1  0
  8 32  1  0
 10 33  1  6
 11 34  1  0
 11 35  1  0
 16 36  1  0
 17 37  1  0
 18 38  1  0
 21 39  1  0
 22 40  1  0
M  CHG  2  14  -1  27  -1
M  END
>  <UniqueID>  (14) 
14

>  <SMILES>  (14) 
NC(=O)c1cc2ccc([C@@H](CC(=O)[O-])c3cccc(Cl)c3)cc2n1C(=O)[O-]

>  <Energy>  (14) 
87.73242599906402

>  <Genealogy>  (14) 
NC(=O)c1cc2ccc(C(CC(=O)[O-])c3cccc(Cl)c3)cc2n1C(=O)[O-] (protonated)
NC(=O)c1cc2ccc([C@@H](CC(=O)[O-])c3cccc(Cl)c3)cc2n1C(=O)[O-] (chirality)
NC(=O)c1cc2ccc([C@@H](CC(=O)[O-])c3cccc(Cl)c3)cc2n1C(=O)[O-] (3D coordinates assigned)
NC(=O)c1cc2ccc([C@@H](CC(=O)[O-])c3cccc(Cl)c3)cc2n1C(=O)[O-] (optimized conformer: 87.73242599906402 kcal/mol)

>  <smiles>  (14) 
NC(=O)c1cc2ccc(C(CC(=O)O)c3cccc(Cl)c3)cc2n1C(=O)O

>  <score_type>  (14) 
oracle

>  <origin>  (14) 
adg

>  <m_score__min__energy>  (14) 
-11.23

>  <m_primary>  (14) 
energy

$$$$
14:0
     RDKit          3D

 34 35  0  0  0  0  0  0  0  0999 V2000
   -6.5030   16.7530  -33.0550 C   0  0  0  0  0  0  0  0  0  0  0  0
   -6.9210   18.0330  -33.4730 O   0  0  0  0  0  0  0  0  0  0  0  0
   -7.4290   18.7450  -32.3650 C   0  0  0  0  0  0  0  0  0  0  0  0
   -6.5780   19.9950  -32.1220 C   0  0  0  0  0  0  0  0  0  0  0  0
   -5.4770   20.0890  -33.0920 N   0  0  0  0  0  0  0  0  0  0  0  0
   -4.2950   20.6000  -32.4440 C   0  0  0  0  0  0  0  0  0  0  0  0
   -3.0890   19.8520  -32.4630 C   0  0  0  0  0  0  0  0  0  0  0  0
   -1.9360   20.3320  -31.8210 C   0  0  0  0  0  0  0  0  0  0  0  0
   -2.0200   21.5500  -31.1550 C   0  0  0  0  0  0  0  0  0  0  0  0
   -1.0540   22.2510  -30.4700 C   0  0  0  0  0  0  0  0  0  0  0  0
   -1.6880   23.4020  -30.0110 C   0  0  0  0  0  0  0  0  0  0  0  0
   -1.0290   24.4050  -29.1470 C   0  0  0  0  0  0  0  0  0  0  0  0
   -1.6370   25.6790  -28.9490 N   0  0  0  0  0  0  0  0  0  0  0  0
    0.0850   24.1650  -28.6130 O   0  0  0  0  0  0  0  0  0  0  0  0
   -2.9960   23.4170  -30.4020 N   0  0  0  0  0  0  0  0  0  0  0  0
   -3.9720   24.4500  -30.1850 C   0  0  0  0  0  0  0  0  0  0  0  0
   -4.9200   24.2700  -29.3770 O   0  0  0  0  0  0  0  0  0  0  0  0
   -3.8620   25.6670  -30.8470 O   0  0  0  0  0  0  0  0  0  0  0  0
   -3.1830   22.2740  -31.0990 C   0  0  0  0  0  0  0  0  0  0  0  0
   -4.3410   21.8300  -31.7450 C   0  0  0  0  0  0  0  0  0  0  0  0
   -6.4897   16.7124  -31.9558 H   0  0  0  0  0  0  0  0  0  0  0  0
   -7.2003   15.9952  -33.4415 H   0  0  0  0  0  0  0  0  0  0  0  0
   -5.4928   16.5528  -33.4415 H   0  0  0  0  0  0  0  0  0  0  0  0
   -8.4682   19.0435  -32.5672 H   0  0  0  0  0  0  0  0  0  0  0  0
   -7.3968   18.1026  -31.4727 H   0  0  0  0  0  0  0  0  0  0  0  0
   -7.2156   20.8864  -32.2163 H   0  0  0  0  0  0  0  0  0  0  0  0
   -6.1464   19.9301  -31.1123 H   0  0  0  0  0  0  0  0  0  0  0  0
   -5.2770   19.1430  -33.4930 H   0  0  0  0  0  0  0  0  0  0  0  0
   -5.7460   20.7240  -33.8780 H   0  0  0  0  0  0  0  0  0  0  0  0
   -3.0571   18.8852  -32.9866 H   0  0  0  0  0  0  0  0  0  0  0  0
   -0.9954   19.7622  -31.8442 H   0  0  0  0  0  0  0  0  0  0  0  0
   -0.0034   21.9628  -30.3175 H   0  0  0  0  0  0  0  0  0  0  0  0
   -2.6700   25.8020  -29.0470 H   0  0  0  0  0  0  0  0  0  0  0  0
   -5.2667   22.4232  -31.7107 H   0  0  0  0  0  0  0  0  0  0  0  0
  1  2  1  0
  2  3  1  0
  3  4  1  0
  4  5  1  0
  5  6  1  0
  6  7  2  0
  7  8  1  0
  8  9  2  0
  9 10  1  0
 10 11  2  0
 11 12  1  0
 12 13  1  0
 12 14  2  0
 11 15  1  0
 15 16  1  0
 16 17  2  0
 16 18  1  0
 15 19  1  0
 19 20  2  0
 20  6  1  0
 19  9  1  0
  1 21  1  0
  1 22  1  0
  1 23  1  0
  3 24  1  0
  3 25  1  0
  4 26  1  0
  4 27  1  0
  5 28  1  0
  5 29  1  0
  7 30  1  0
  8 31  1  0
 10 32  1  0
 13 33  1  0
 20 34  1  0
M  CHG  3   5   1  13  -1  18  -1
M  END
>  <UniqueID>  (15) 
15

>  <SMILES>  (15) 
COCC[NH2+]c1ccc2cc(C([NH-])=O)n(C(=O)[O-])c2c1

>  <Energy>  (15) 
72.61930456850713

>  <Genealogy>  (15) 
COCC[NH2+]c1ccc2cc(C([NH-])=O)n(C(=O)[O-])c2c1 (protonated)
COCC[NH2+]c1ccc2cc(C([NH-])=O)n(C(=O)[O-])c2c1 (3D coordinates assigned)
COCC[NH2+]c1ccc2cc(C([NH-])=O)n(C(=O)[O-])c2c1 (optimized conformer: 72.61930456850713 kcal/mol)

>  <smiles>  (15) 
COCCNc1ccc2cc(C(N)=O)n(C(=O)O)c2c1

>  <score_type>  (15) 
oracle

>  <origin>  (15) 
adg

>  <m_score__min__energy>  (15) 
-9.2799999999999994

>  <m_primary>  (15) 
energy

$$$$
15:0
     RDKit          3D

 70 72  0  0  0  0  0  0  0  0999 V2000
   -6.9550   17.9740  -33.1110 C   0  0  0  0  0  0  0  0  0  0  0  0
   -7.3000   18.8470  -31.9030 C   0  0  0  0  0  0  0  0  0  0  0  0
   -8.6770   18.4890  -31.3340 C   0  0  0  0  0  0  0  0  0  0  0  0
   -7.2150   20.2930  -32.2100 N   0  0  0  0  0  0  0  0  0  0  0  0
   -6.2460   20.8000  -33.2100 C   0  0  0  0  0  0  0  0  0  0  0  0
   -4.7560   20.4880  -32.8830 C   0  0  0  0  0  0  0  0  0  0  0  0
   -4.1500   19.3260  -33.6860 C   0  0  0  0  0  0  0  0  0  0  0  0
   -2.7160   18.9860  -33.2130 C   0  0  0  0  0  0  0  0  0  0  0  0
   -2.0650   20.0740  -32.4610 N   0  0  0  0  0  0  0  0  0  0  0  0
   -2.3510   21.3860  -33.0540 C   0  0  0  0  0  0  0  0  0  0  0  0
   -3.8530   21.7370  -32.9880 C   0  0  0  0  0  0  0  0  0  0  0  0
   -8.3730   21.1040  -31.9090 C   0  0  0  0  0  0  0  0  0  0  0  0
   -9.3820   21.0570  -32.6660 O   0  0  0  0  0  0  0  0  0  0  0  0
   -8.4170   21.9540  -30.6660 C   0  0  0  0  0  0  0  0  0  0  0  0
   -7.1750   22.7960  -30.5210 C   0  0  0  0  0  0  0  0  0  0  0  0
   -7.2050   24.1700  -30.8740 C   0  0  0  0  0  0  0  0  0  0  0  0
   -6.0490   24.9620  -30.7700 C   0  0  0  0  0  0  0  0  0  0  0  0
   -4.8800   24.3530  -30.3250 C   0  0  0  0  0  0  0  0  0  0  0  0
   -3.6270   24.8830  -30.1110 C   0  0  0  0  0  0  0  0  0  0  0  0
   -2.8470   23.8200  -29.6540 C   0  0  0  0  0  0  0  0  0  0  0  0
   -1.4010   23.9070  -29.3540 C   0  0  0  0  0  0  0  0  0  0  0  0
   -0.5810   22.7370  -29.3470 N   0  0  0  0  0  0  0  0  0  0  0  0
   -0.8780   25.0210  -29.0870 O   0  0  0  0  0  0  0  0  0  0  0  0
   -3.5920   22.6820  -29.5930 N   0  0  0  0  0  0  0  0  0  0  0  0
   -3.1890   21.3900  -29.1180 C   0  0  0  0  0  0  0  0  0  0  0  0
   -2.8370   20.5040  -29.9400 O   0  0  0  0  0  0  0  0  0  0  0  0
   -3.2730   21.0550  -27.6580 C   0  0  0  0  0  0  0  0  0  0  0  0
   -2.9360   19.6970  -27.4480 O   0  0  0  0  0  0  0  0  0  0  0  0
   -1.8320   19.5720  -26.5690 C   0  0  0  0  0  0  0  0  0  0  0  0
   -0.8510   18.5200  -27.0960 C   0  0  0  0  0  0  0  0  0  0  0  0
    0.1950   19.1510  -28.0140 C   0  0  0  0  0  0  0  0  0  0  0  0
   -0.4260   20.0730  -28.8650 O   0  0  0  0  0  0  0  0  0  0  0  0
   -4.8310   23.0220  -30.0060 C   0  0  0  0  0  0  0  0  0  0  0  0
   -5.9670   22.2110  -30.0830 C   0  0  0  0  0  0  0  0  0  0  0  0
   -6.5713   17.0032  -32.7642 H   0  0  0  0  0  0  0  0  0  0  0  0
   -7.8581   17.8155  -33.7187 H   0  0  0  0  0  0  0  0  0  0  0  0
   -6.1875   18.4757  -33.7187 H   0  0  0  0  0  0  0  0  0  0  0  0
   -6.5429   18.6351  -31.1337 H   0  0  0  0  0  0  0  0  0  0  0  0
   -8.6338   18.5002  -30.2349 H   0  0  0  0  0  0  0  0  0  0  0  0
   -9.4188   19.2241  -31.6793 H   0  0  0  0  0  0  0  0  0  0  0  0
   -8.9669   17.4856  -31.6793 H   0  0  0  0  0  0  0  0  0  0  0  0
   -6.4866   20.3454  -34.1824 H   0  0  0  0  0  0  0  0  0  0  0  0
   -6.3427   21.8957  -33.2110 H   0  0  0  0  0  0  0  0  0  0  0  0
   -4.7847   20.1568  -31.8344 H   0  0  0  0  0  0  0  0  0  0  0  0
   -4.7861   18.4373  -33.5613 H   0  0  0  0  0  0  0  0  0  0  0  0
   -4.0984   19.6306  -34.7417 H   0  0  0  0  0  0  0  0  0  0  0  0
   -2.7655   18.0980  -32.5656 H   0  0  0  0  0  0  0  0  0  0  0  0
   -2.1124   18.8146  -34.1165 H   0  0  0  0  0  0  0  0  0  0  0  0
   -2.4040   20.0650  -31.4700 H   0  0  0  0  0  0  0  0  0  0  0  0
   -1.7828   22.1536  -32.5082 H   0  0  0  0  0  0  0  0  0  0  0  0
   -2.0572   21.3507  -34.1134 H   0  0  0  0  0  0  0  0  0  0  0  0
   -4.0271   22.3716  -32.1065 H   0  0  0  0  0  0  0  0  0  0  0  0
   -4.1130   22.2559  -33.9224 H   0  0  0  0  0  0  0  0  0  0  0  0
   -9.2930   22.6172  -30.7187 H   0  0  0  0  0  0  0  0  0  0  0  0
   -8.4806   21.2847  -29.7954 H   0  0  0  0  0  0  0  0  0  0  0  0
   -8.1426   24.6197  -31.2327 H   0  0  0  0  0  0  0  0  0  0  0  0
   -6.0678   26.0301  -31.0322 H   0  0  0  0  0  0  0  0  0  0  0  0
   -3.3084   25.9242  -30.2673 H   0  0  0  0  0  0  0  0  0  0  0  0
   -0.9540   21.8060  -29.6360 H   0  0  0  0  0  0  0  0  0  0  0  0
    0.4320   22.8120  -29.1040 H   0  0  0  0  0  0  0  0  0  0  0  0
   -2.5741   21.6936  -27.0979 H   0  0  0  0  0  0  0  0  0  0  0  0
   -4.3017   21.2276  -27.3088 H   0  0  0  0  0  0  0  0  0  0  0  0
   -1.3179   20.5414  -26.4916 H   0  0  0  0  0  0  0  0  0  0  0  0
   -2.1956   19.2589  -25.5792 H   0  0  0  0  0  0  0  0  0  0  0  0
   -0.3416   18.0458  -26.2442 H   0  0  0  0  0  0  0  0  0  0  0  0
   -1.4169   17.7742  -27.6735 H   0  0  0  0  0  0  0  0  0  0  0  0
    0.9533   19.6662  -27.4061 H   0  0  0  0  0  0  0  0  0  0  0  0
    0.6776   18.3656  -28.6141 H   0  0  0  0  0  0  0  0  0  0  0  0
   -1.3730   19.7850  -28.9400 H   0  0  0  0  0  0  0  0  0  0  0  0
   -5.9210   21.1464  -29.8099 H   0  0  0  0  0  0  0  0  0  0  0  0
  1  2  1  0
  2  3  1  0
  2  4  1  0
  4  5  1  0
  5  6  1  0
  6  7  1  0
  7  8  1  0
  8  9  1  0
  9 10  1  0
 10 11  1  0
  4 12  1  0
 12 13  2  0
 12 14  1  0
 14 15  1  0
 15 16  2  0
 16 17  1  0
 17 18  2  0
 18 19  1  0
 19 20  2  0
 20 21  1  0
 21 22  1  0
 21 23  2  0
 20 24  1  0
 24 25  1  0
 25 26  2  0
 25 27  1  0
 27 28  1  0
 28 29  1  0
 29 30  1  0
 30 31  1  0
 31 32  1  0
 24 33  1  0
 33 34  2  0
 11  6  1  0
 34 15  1  0
 33 18  1  0
  1 35  1  0
  1 36  1  0
  1 37  1  0
  2 38  1  0
  3 39  1  0
  3 40  1  0
  3 41  1  0
  5 42  1  0
  5 43  1  0
  6 44  1  0
  7 45  1  0
  7 46  1  0
  8 47  1  0
  8 48  1  0
  9 49  1  0
 10 50  1  0
 10 51  1  0
 11 52  1  0
 11 53  1  0
 14 54  1  0
 14 55  1  0
 16 56  1  0
 17 57  1  0
 19 58  1  0
 22 59  1  0
 22 60  1  0
 27 61  1  0
 27 62  1  0
 29 63  1  0
 29 64  1  0
 30 65  1  0
 30 66  1  0
 31 67  1  0
 31 68  1  0
 32 69  1  0
 34 70  1  0
M  END
>  <UniqueID>  (16) 
16

>  <SMILES>  (16) 
CC(C)N(CC1CCNCC1)C(=O)Cc1ccc2cc(C(N)=O)n(C(=O)COCCCO)c2c1

>  <Energy>  (16) 
110.65945421763772

>  <Genealogy>  (16) 
CC(C)N(CC1CCNCC1)C(=O)Cc1ccc2cc(C(N)=O)n(C(=O)COCCCO)c2c1 (3D coordinates assigned)
CC(C)N(CC1CCNCC1)C(=O)Cc1ccc2cc(C(N)=O)n(C(=O)COCCCO)c2c1 (nonaromatic ring conformer: 110.65945421763772 kcal/mol)

>  <smiles>  (16) 
CC(C)N(CC1CCNCC1)C(=O)Cc1ccc2cc(C(N)=O)n(C(=O)COCCCO)c2c1

>  <score_type>  (16) 
oracle

>  <origin>  (16) 
adg

>  <m_score__min__energy>  (16) 
-9.8100000000000005

>  <m_primary>  (16) 
energy

$$$$
16:0
     RDKit          3D

 46 48  0  0  0  0  0  0  0  0999 V2000
   -3.8450   25.3030  -30.8430 N   0  0  0  0  0  0  0  0  0  0  0  0
   -5.2120   25.2020  -30.4530 C   0  0  0  0  0  0  0  0  0  0  0  0
   -5.7340   26.1400  -29.7950 O   0  0  0  0  0  0  0  0  0  0  0  0
   -6.0380   24.0420  -30.8530 C   0  0  0  0  0  0  0  0  0  0  0  0
   -7.4310   24.0640  -30.8620 C   0  0  0  0  0  0  0  0  0  0  0  0
   -7.8130   22.8450  -31.3720 C   0  0  0  0  0  0  0  0  0  0  0  0
   -9.0850   22.3300  -31.6020 C   0  0  0  0  0  0  0  0  0  0  0  0
   -9.1850   21.0280  -32.1180 C   0  0  0  0  0  0  0  0  0  0  0  0
   -8.0210   20.2600  -32.3780 C   0  0  0  0  0  0  0  0  0  0  0  0
   -8.1340   18.9280  -32.9170 N   0  0  0  0  0  0  0  0  0  0  0  0
   -6.8210   18.4020  -33.1760 C   0  0  0  0  0  0  0  0  0  0  0  0
   -6.2540   17.4370  -32.3250 C   0  0  0  0  0  0  0  0  0  0  0  0
   -4.9880   16.9260  -32.6160 C   0  0  0  0  0  0  0  0  0  0  0  0
   -4.3020   17.3720  -33.7460 C   0  0  0  0  0  0  0  0  0  0  0  0
   -3.0720   16.8810  -34.0400 F   0  0  0  0  0  0  0  0  0  0  0  0
   -4.8970   18.3230  -34.5780 C   0  0  0  0  0  0  0  0  0  0  0  0
   -6.1320   18.8110  -34.2790 N   0  0  0  0  0  0  0  0  0  0  0  0
   -6.7450   20.8220  -32.1380 C   0  0  0  0  0  0  0  0  0  0  0  0
   -6.6760   22.1310  -31.6460 C   0  0  0  0  0  0  0  0  0  0  0  0
   -5.5760   22.8510  -31.3320 N   0  0  0  0  0  0  0  0  0  0  0  0
   -4.2150   22.4070  -31.4400 C   0  0  0  0  0  0  0  0  0  0  0  0
   -3.8060   21.8880  -32.5140 O   0  0  0  0  0  0  0  0  0  0  0  0
   -3.3420   22.5840  -30.3600 O   0  0  0  0  0  0  0  0  0  0  0  0
   -2.0210   22.0490  -30.3130 C   0  0  0  0  0  0  0  0  0  0  0  0
   -1.0410   23.0810  -29.7600 C   0  0  0  0  0  0  0  0  0  0  0  0
   -1.1840   23.1650  -28.3590 O   0  0  0  0  0  0  0  0  0  0  0  0
   -1.8290   24.7290  -27.8650 P   0  0  0  0  0  0  0  0  0  0  0  0
   -3.5260   24.4370  -28.3790 N   0  0  0  0  0  0  0  0  0  0  0  0
   -1.3790   25.6950  -29.2420 O   0  0  0  0  0  0  0  0  0  0  0  0
   -3.0960   24.8070  -30.3120 H   0  0  0  0  0  0  0  0  0  0  0  0
   -8.0867   24.8830  -30.5312 H   0  0  0  0  0  0  0  0  0  0  0  0
   -9.9848   22.9248  -31.3862 H   0  0  0  0  0  0  0  0  0  0  0  0
  -10.1769   20.5988  -32.3229 H   0  0  0  0  0  0  0  0  0  0  0  0
   -8.6310   18.3120  -32.2310 H   0  0  0  0  0  0  0  0  0  0  0  0
   -8.6990   18.9310  -33.7990 H   0  0  0  0  0  0  0  0  0  0  0  0
   -6.8030   17.0879  -31.4380 H   0  0  0  0  0  0  0  0  0  0  0  0
   -4.5323   16.1733  -31.9558 H   0  0  0  0  0  0  0  0  0  0  0  0
   -4.3677   18.6776  -35.4747 H   0  0  0  0  0  0  0  0  0  0  0  0
   -5.8293   20.2445  -32.3332 H   0  0  0  0  0  0  0  0  0  0  0  0
   -2.0140   21.1604  -29.6646 H   0  0  0  0  0  0  0  0  0  0  0  0
   -1.7120   21.7787  -31.3335 H   0  0  0  0  0  0  0  0  0  0  0  0
   -0.0125   22.7778  -30.0057 H   0  0  0  0  0  0  0  0  0  0  0  0
   -1.2521   24.0629  -30.2087 H   0  0  0  0  0  0  0  0  0  0  0  0
   -3.4840   23.8390  -29.2340 H   0  0  0  0  0  0  0  0  0  0  0  0
   -3.9160   25.3590  -28.6770 H   0  0  0  0  0  0  0  0  0  0  0  0
   -2.1720   25.6680  -29.8350 H   0  0  0  0  0  0  0  0  0  0  0  0
  1  2  1  0
  2  3  2  0
  2  4  1  0
  4  5  2  0
  5  6  1  0
  6  7  2  0
  7  8  1  0
  8  9  2  0
  9 10  1  0
 10 11  1  0
 11 12  2  0
 12 13  1  0
 13 14  2  0
 14 15  1  0
 14 16  1  0
 16 17  2  0
  9 18  1  0
 18 19  2  0
 19 20  1  0
 20 21  1  0
 21 22  2  0
 21 23  1  0
 23 24  1  0
 24 25  1  0
 25 26  1  0
 27 26  1  0
 27 28  1  0
 27 29  1  0
 20  4  1  0
 19  6  1  0
 17 11  1  0
  1 30  1  0
  5 31  1  0
  7 32  1  0
  8 33  1  0
 10 34  1  0
 10 35  1  0
 12 36  1  0
 13 37  1  0
 16 38  1  0
 18 39  1  0
 24 40  1  0
 24 41  1  0
 25 42  1  0
 25 43  1  0
 28 44  1  0
 28 45  1  0
 29 46  1  0
M  CHG  2   1  -1  10   1
M  END
>  <UniqueID>  (17) 
17

>  <SMILES>  (17) 
[NH-]C(=O)c1cc2ccc([NH2+]c3ccc(F)cn3)cc2n1C(=O)OCCO[P@](N)O

>  <Energy>  (17) 
89.03743490587716

>  <Genealogy>  (17) 
[NH-]C(=O)c1cc2ccc([NH2+]c3ccc(F)cn3)cc2n1C(=O)OCCOP(N)O (protonated)
[NH-]C(=O)c1cc2ccc([NH2+]c3ccc(F)cn3)cc2n1C(=O)OCCO[P@](N)O (chirality)
[NH-]C(=O)c1cc2ccc([NH2+]c3ccc(F)cn3)cc2n1C(=O)OCCO[P@](N)O (3D coordinates assigned)
[NH-]C(=O)c1cc2ccc([NH2+]c3ccc(F)cn3)cc2n1C(=O)OCCO[P@](N)O (optimized conformer: 89.03743490587716 kcal/mol)

>  <smiles>  (17) 
NC(=O)c1cc2ccc(Nc3ccc(F)cn3)cc2n1C(=O)OCCOP(N)O

>  <score_type>  (17) 
oracle

>  <origin>  (17) 
adg

>  <m_score__min__energy>  (17) 
-10.82

>  <m_primary>  (17) 
energy

$$$$
17:0
     RDKit          3D

 61 63  0  0  0  0  0  0  0  0999 V2000
   -9.6170   21.0750  -31.9410 C   0  0  0  0  0  0  0  0  0  0  0  0
   -9.1300   19.6210  -31.8950 C   0  0  0  0  0  0  0  0  0  0  0  0
   -8.1120   19.3280  -32.9340 N   0  0  0  0  0  0  0  0  0  0  0  0
   -7.3680   18.0740  -32.6250 C   0  0  0  0  0  0  0  0  0  0  0  0
   -5.9650   18.0720  -33.2470 C   0  0  0  0  0  0  0  0  0  0  0  0
   -5.1220   19.1670  -32.6990 N   0  0  0  0  0  0  0  0  0  0  0  0
   -4.0190   19.5140  -33.6230 C   0  0  0  0  0  0  0  0  0  0  0  0
   -2.6610   19.0110  -33.1080 C   0  0  0  0  0  0  0  0  0  0  0  0
   -2.0840   19.9390  -32.0700 C   0  0  0  0  0  0  0  0  0  0  0  0
   -0.8550   19.6300  -31.4350 C   0  0  0  0  0  0  0  0  0  0  0  0
   -0.3300   20.4740  -30.4430 C   0  0  0  0  0  0  0  0  0  0  0  0
   -1.0520   21.6160  -30.1080 C   0  0  0  0  0  0  0  0  0  0  0  0
   -0.7740   22.5940  -29.1850 C   0  0  0  0  0  0  0  0  0  0  0  0
   -1.8390   23.4900  -29.2620 C   0  0  0  0  0  0  0  0  0  0  0  0
   -1.8940   24.7290  -28.4600 C   0  0  0  0  0  0  0  0  0  0  0  0
   -1.3830   25.9580  -28.9630 N   0  0  0  0  0  0  0  0  0  0  0  0
   -2.4810   24.7170  -27.3430 O   0  0  0  0  0  0  0  0  0  0  0  0
   -2.7360   23.0900  -30.2120 N   0  0  0  0  0  0  0  0  0  0  0  0
   -3.8830   23.8000  -30.7180 C   0  0  0  0  0  0  0  0  0  0  0  0
   -3.8490   25.0530  -30.8440 O   0  0  0  0  0  0  0  0  0  0  0  0
   -5.0410   23.0820  -31.0560 O   0  0  0  0  0  0  0  0  0  0  0  0
   -6.3970   23.5080  -30.8590 C   0  0  0  0  0  0  0  0  0  0  0  0
   -7.0200   23.6870  -32.2520 C   0  0  0  0  0  0  0  0  0  0  0  0
   -7.1990   22.4380  -30.0910 C   0  0  0  0  0  0  0  0  0  0  0  0
   -6.4370   24.8560  -30.1150 C   0  0  0  0  0  0  0  0  0  0  0  0
   -2.2370   21.9380  -30.7180 C   0  0  0  0  0  0  0  0  0  0  0  0
   -2.7890   21.1060  -31.7000 C   0  0  0  0  0  0  0  0  0  0  0  0
   -5.9110   20.3640  -32.3100 C   0  0  0  0  0  0  0  0  0  0  0  0
   -7.2060   20.4950  -33.1270 C   0  0  0  0  0  0  0  0  0  0  0  0
   -9.7433   21.4520  -30.9154 H   0  0  0  0  0  0  0  0  0  0  0  0
   -8.8768   21.6930  -32.4703 H   0  0  0  0  0  0  0  0  0  0  0  0
  -10.5801   21.1225  -32.4703 H   0  0  0  0  0  0  0  0  0  0  0  0
   -8.6896   19.4279  -30.9057 H   0  0  0  0  0  0  0  0  0  0  0  0
   -9.9977   18.9724  -32.0859 H   0  0  0  0  0  0  0  0  0  0  0  0
   -8.6190   19.1860  -33.8400 H   0  0  0  0  0  0  0  0  0  0  0  0
   -7.2730   17.9768  -31.5334 H   0  0  0  0  0  0  0  0  0  0  0  0
   -7.9307   17.2304  -33.0512 H   0  0  0  0  0  0  0  0  0  0  0  0
   -5.4810   17.1076  -33.0330 H   0  0  0  0  0  0  0  0  0  0  0  0
   -6.0690   18.2274  -34.3310 H   0  0  0  0  0  0  0  0  0  0  0  0
   -4.2191   19.0570  -34.6033 H   0  0  0  0  0  0  0  0  0  0  0  0
   -3.9701   20.6103  -33.6994 H   0  0  0  0  0  0  0  0  0  0  0  0
   -2.7952   18.0148  -32.6613 H   0  0  0  0  0  0  0  0  0  0  0  0
   -1.9642   18.9692  -33.9581 H   0  0  0  0  0  0  0  0  0  0  0  0
   -0.3072   18.7203  -31.7220 H   0  0  0  0  0  0  0  0  0  0  0  0
    0.6228   20.2398  -29.9458 H   0  0  0  0  0  0  0  0  0  0  0  0
    0.1035   22.6570  -28.5246 H   0  0  0  0  0  0  0  0  0  0  0  0
   -1.2100   26.0890  -29.9860 H   0  0  0  0  0  0  0  0  0  0  0  0
   -8.0724   23.9894  -32.1469 H   0  0  0  0  0  0  0  0  0  0  0  0
   -6.4688   24.4631  -32.8032 H   0  0  0  0  0  0  0  0  0  0  0  0
   -6.9648   22.7367  -32.8032 H   0  0  0  0  0  0  0  0  0  0  0  0
   -7.0799   22.5969  -29.0091 H   0  0  0  0  0  0  0  0  0  0  0  0
   -8.2633   22.5156  -30.3580 H   0  0  0  0  0  0  0  0  0  0  0  0
   -6.8259   21.4383  -30.3580 H   0  0  0  0  0  0  0  0  0  0  0  0
   -6.4317   24.6762  -29.0298 H   0  0  0  0  0  0  0  0  0  0  0  0
   -5.5562   25.4539  -30.3919 H   0  0  0  0  0  0  0  0  0  0  0  0
   -7.3517   25.4006  -30.3919 H   0  0  0  0  0  0  0  0  0  0  0  0
   -3.7503   21.3557  -32.1728 H   0  0  0  0  0  0  0  0  0  0  0  0
   -6.1708   20.2862  -31.2440 H   0  0  0  0  0  0  0  0  0  0  0  0
   -5.2951   21.2538  -32.5075 H   0  0  0  0  0  0  0  0  0  0  0  0
   -7.7325   21.4083  -32.8129 H   0  0  0  0  0  0  0  0  0  0  0  0
   -6.9317   20.5379  -34.1914 H   0  0  0  0  0  0  0  0  0  0  0  0
  1  2  1  0
  2  3  1  0
  3  4  1  0
  4  5  1  0
  5  6  1  0
  6  7  1  0
  7  8  1  0
  8  9  1  0
  9 10  2  0
 10 11  1  0
 11 12  2  0
 12 13  1  0
 13 14  2  0
 14 15  1  0
 15 16  1  0
 15 17  2  0
 14 18  1  0
 18 19  1  0
 19 20  2  0
 19 21  1  0
 21 22  1  0
 22 23  1  0
 22 24  1  0
 22 25  1  0
 18 26  1  0
 26 27  2  0
  6 28  1  0
 28 29  1  0
 29  3  1  0
 27  9  1  0
 26 12  1  0
  1 30  1  0
  1 31  1  0
  1 32  1  0
  2 33  1  0
  2 34  1  0
  3 35  1  0
  4 36  1  0
  4 37  1  0
  5 38  1  0
  5 39  1  0
  7 40  1  0
  7 41  1  0
  8 42  1  0
  8 43  1  0
 10 44  1  0
 11 45  1  0
 13 46  1  0
 16 47  1  0
 23 48  1  0
 23 49  1  0
 23 50  1  0
 24 51  1  0
 24 52  1  0
 24 53  1  0
 25 54  1  0
 25 55  1  0
 25 56  1  0
 27 57  1  0
 28 58  1  0
 28 59  1  0
 29 60  1  0
 29 61  1  0
M  CHG  2   3   1  16  -1
M  END
>  <UniqueID>  (18) 
18

>  <SMILES>  (18) 
CC[NH+]1CCN(CCc2ccc3cc(C([NH-])=O)n(C(=O)OC(C)(C)C)c3c2)CC1

>  <Energy>  (18) 
109.10781777101664

>  <Genealogy>  (18) 
CC[NH+]1CCN(CCc2ccc3cc(C([NH-])=O)n(C(=O)OC(C)(C)C)c3c2)CC1 (protonated)
CC[NH+]1CCN(CCc2ccc3cc(C([NH-])=O)n(C(=O)OC(C)(C)C)c3c2)CC1 (3D coordinates assigned)
CC[NH+]1CCN(CCc2ccc3cc(C([NH-])=O)n(C(=O)OC(C)(C)C)c3c2)CC1 (nonaromatic ring conformer: 109.10781777101664 kcal/mol)

>  <smiles>  (18) 
CCN1CCN(CCc2ccc3cc(C(N)=O)n(C(=O)OC(C)(C)C)c3c2)CC1

>  <score_type>  (18) 
oracle

>  <origin>  (18) 
adg

>  <m_score__min__energy>  (18) 
-11.83

>  <m_primary>  (18) 
energy

$$$$
18:0
     RDKit          3D

 49 50  0  0  0  0  0  0  0  0999 V2000
   -0.9360   25.3350  -28.2140 C   0  0  0  0  0  0  0  0  0  0  0  0
   -2.0470   25.0640  -29.0420 O   0  0  0  0  0  0  0  0  0  0  0  0
   -2.9640   24.2150  -28.3750 C   0  0  0  0  0  0  0  0  0  0  0  0
   -3.1670   22.9290  -29.1760 C   0  0  0  0  0  0  0  0  0  0  0  0
   -2.9810   23.1690  -30.5700 O   0  0  0  0  0  0  0  0  0  0  0  0
   -3.8690   22.7210  -31.5550 C   0  0  0  0  0  0  0  0  0  0  0  0
   -3.4340   22.1540  -32.5960 O   0  0  0  0  0  0  0  0  0  0  0  0
   -5.2820   22.9180  -31.3860 N   0  0  0  0  0  0  0  0  0  0  0  0
   -5.9220   24.0480  -30.9680 C   0  0  0  0  0  0  0  0  0  0  0  0
   -5.2790   25.2830  -30.4730 C   0  0  0  0  0  0  0  0  0  0  0  0
   -3.9790   25.6400  -30.9390 N   0  0  0  0  0  0  0  0  0  0  0  0
   -5.8790   26.0490  -29.6730 O   0  0  0  0  0  0  0  0  0  0  0  0
   -7.3020   23.8610  -30.9900 C   0  0  0  0  0  0  0  0  0  0  0  0
   -7.4900   22.5720  -31.4310 C   0  0  0  0  0  0  0  0  0  0  0  0
   -8.6680   21.8640  -31.6450 C   0  0  0  0  0  0  0  0  0  0  0  0
   -8.5680   20.5480  -32.1230 C   0  0  0  0  0  0  0  0  0  0  0  0
   -7.3020   19.9720  -32.3920 C   0  0  0  0  0  0  0  0  0  0  0  0
   -7.2050   18.5600  -32.9080 C   0  0  0  0  0  0  0  0  0  0  0  0
   -6.0420   18.4070  -33.8570 C   0  0  0  0  0  0  0  0  0  0  0  0
   -6.0970   18.9530  -34.9540 O   0  0  0  0  0  0  0  0  0  0  0  0
   -4.8580   17.6550  -33.4750 N   0  0  1  0  0  0  0  0  0  0  0  0
   -5.0850   16.2200  -33.7230 C   0  0  0  0  0  0  0  0  0  0  0  0
   -3.6880   18.1710  -34.2270 C   0  0  0  0  0  0  0  0  0  0  0  0
   -2.9480   19.2980  -33.4930 C   0  0  0  0  0  0  0  0  0  0  0  0
   -3.3950   19.4000  -32.1880 F   0  0  0  0  0  0  0  0  0  0  0  0
   -6.1270   20.7240  -32.1680 C   0  0  0  0  0  0  0  0  0  0  0  0
   -6.2560   22.0240  -31.6640 C   0  0  0  0  0  0  0  0  0  0  0  0
   -1.2384   25.2612  -27.1589 H   0  0  0  0  0  0  0  0  0  0  0  0
   -0.1392   24.6049  -28.4190 H   0  0  0  0  0  0  0  0  0  0  0  0
   -0.5649   26.3500  -28.4190 H   0  0  0  0  0  0  0  0  0  0  0  0
   -2.5700   23.9649  -27.3789 H   0  0  0  0  0  0  0  0  0  0  0  0
   -3.9289   24.7339  -28.2762 H   0  0  0  0  0  0  0  0  0  0  0  0
   -2.4402   22.1752  -28.8392 H   0  0  0  0  0  0  0  0  0  0  0  0
   -4.1935   22.5688  -29.0128 H   0  0  0  0  0  0  0  0  0  0  0  0
   -3.1210   25.2910  -30.4560 H   0  0  0  0  0  0  0  0  0  0  0  0
   -8.0776   24.5902  -30.7131 H   0  0  0  0  0  0  0  0  0  0  0  0
   -9.6483   22.3215  -31.4457 H   0  0  0  0  0  0  0  0  0  0  0  0
   -9.4814   19.9583  -32.2903 H   0  0  0  0  0  0  0  0  0  0  0  0
   -7.0675   17.8755  -32.0579 H   0  0  0  0  0  0  0  0  0  0  0  0
   -8.1320   18.3218  -33.4502 H   0  0  0  0  0  0  0  0  0  0  0  0
   -4.6850   17.7810  -32.4510 H   0  0  0  0  0  0  0  0  0  0  0  0
   -5.1687   15.6906  -32.7624 H   0  0  0  0  0  0  0  0  0  0  0  0
   -6.0150   16.0895  -34.2958 H   0  0  0  0  0  0  0  0  0  0  0  0
   -4.2407   15.8088  -34.2958 H   0  0  0  0  0  0  0  0  0  0  0  0
   -2.9852   17.3412  -34.3931 H   0  0  0  0  0  0  0  0  0  0  0  0
   -4.0646   18.5882  -35.1726 H   0  0  0  0  0  0  0  0  0  0  0  0
   -1.8695   19.0816  -33.4906 H   0  0  0  0  0  0  0  0  0  0  0  0
   -3.1423   20.2485  -34.0114 H   0  0  0  0  0  0  0  0  0  0  0  0
   -5.1358   20.2989  -32.3841 H   0  0  0  0  0  0  0  0  0  0  0  0
  1  2  1  0
  2  3  1  0
  3  4  1  0
  4  5  1  0
  5  6  1  0
  6  7  2  0
  6  8  1  0
  8  9  1  0
  9 10  1  0
 10 11  1  0
 10 12  2  0
  9 13  2  0
 13 14  1  0
 14 15  2  0
 15 16  1  0
 16 17  2  0
 17 18  1  0
 18 19  1  0
 19 20  2  0
 19 21  1  0
 21 22  1  0
 21 23  1  0
 23 24  1  0
 24 25  1  0
 17 26  1  0
 26 27  2  0
 27  8  1  0
 27 14  1  0
  1 28  1  0
  1 29  1  0
  1 30  1  0
  3 31  1  0
  3 32  1  0
  4 33  1  0
  4 34  1  0
 11 35  1  0
 13 36  1  0
 15 37  1  0
 16 38  1  0
 18 39  1  0
 18 40  1  0
 21 41  1  1
 22 42  1  0
 22 43  1  0
 22 44  1  0
 23 45  1  0
 23 46  1  0
 24 47  1  0
 24 48  1  0
 26 49  1  0
M  CHG  2  11  -1  21   1
M  END
>  <UniqueID>  (19) 
19

>  <SMILES>  (19) 
COCCOC(=O)n1c(C([NH-])=O)cc2ccc(CC(=O)[N@@H+](C)CCF)cc21

>  <Energy>  (19) 
84.39395528820633

>  <Genealogy>  (19) 
COCCOC(=O)n1c(C([NH-])=O)cc2ccc(CC(=O)[NH+](C)CCF)cc21 (protonated)
COCCOC(=O)n1c(C([NH-])=O)cc2ccc(CC(=O)[N@@H+](C)CCF)cc21 (chirality)
COCCOC(=O)n1c(C([NH-])=O)cc2ccc(CC(=O)[N@@H+](C)CCF)cc21 (3D coordinates assigned)
COCCOC(=O)n1c(C([NH-])=O)cc2ccc(CC(=O)[N@@H+](C)CCF)cc21 (optimized conformer: 84.39395528820633 kcal/mol)

>  <smiles>  (19) 
COCCOC(=O)n1c(C(N)=O)cc2ccc(CC(=O)N(C)CCF)cc21

>  <score_type>  (19) 
oracle

>  <origin>  (19) 
adg

>  <m_score__min__energy>  (19) 
-9.4700000000000006

>  <m_primary>  (19) 
energy

$$$$
19:0
     RDKit          3D

 49 51  0  0  0  0  0  0  0  0999 V2000
   -0.7690   13.0260  -36.0490 C   0  0  0  0  0  0  0  0  0  0  0  0
   -1.1620   13.8790  -37.1790 N   0  0  0  0  0  0  0  0  0  0  0  0
   -0.5520   15.2150  -37.0760 C   0  0  0  0  0  0  0  0  0  0  0  0
   -2.6250   13.9210  -37.4090 C   0  0  0  0  0  0  0  0  0  0  0  0
   -3.4930   13.6630  -36.1540 C   0  0  0  0  0  0  0  0  0  0  0  0
   -3.2410   14.6480  -35.1010 N   0  0  0  0  0  0  0  0  0  0  0  0
   -3.3420   16.0570  -35.3570 C   0  0  0  0  0  0  0  0  0  0  0  0
   -3.8510   16.4560  -36.4400 O   0  0  0  0  0  0  0  0  0  0  0  0
   -2.8700   17.0510  -34.3640 C   0  0  0  0  0  0  0  0  0  0  0  0
   -1.5110   17.1370  -34.0150 C   0  0  0  0  0  0  0  0  0  0  0  0
   -1.0770   18.0850  -33.0840 C   0  0  0  0  0  0  0  0  0  0  0  0
   -1.9900   18.9670  -32.4820 C   0  0  0  0  0  0  0  0  0  0  0  0
   -1.5160   19.9630  -31.4910 C   0  0  0  0  0  0  0  0  0  0  0  0
   -0.3280   19.7290  -30.7520 C   0  0  0  0  0  0  0  0  0  0  0  0
    0.1390   20.6750  -29.8250 C   0  0  0  0  0  0  0  0  0  0  0  0
   -0.5990   21.8410  -29.6550 C   0  0  0  0  0  0  0  0  0  0  0  0
   -0.3590   22.9300  -28.8480 C   0  0  0  0  0  0  0  0  0  0  0  0
   -1.4140   23.8080  -29.0880 C   0  0  0  0  0  0  0  0  0  0  0  0
   -1.5960   25.0780  -28.3550 C   0  0  0  0  0  0  0  0  0  0  0  0
   -1.2400   26.3240  -28.9470 N   0  0  0  0  0  0  0  0  0  0  0  0
   -2.1220   25.0670  -27.2100 O   0  0  0  0  0  0  0  0  0  0  0  0
   -2.2680   23.2870  -30.0150 N   0  0  0  0  0  0  0  0  0  0  0  0
   -3.4170   23.9190  -30.6020 C   0  0  0  0  0  0  0  0  0  0  0  0
   -4.2670   23.2360  -31.2320 O   0  0  0  0  0  0  0  0  0  0  0  0
   -3.5870   25.2960  -30.5050 O   0  0  0  0  0  0  0  0  0  0  0  0
   -1.7560   22.0820  -30.3500 C   0  0  0  0  0  0  0  0  0  0  0  0
   -2.2350   21.1650  -31.2930 C   0  0  0  0  0  0  0  0  0  0  0  0
   -3.3490   18.8940  -32.8440 C   0  0  0  0  0  0  0  0  0  0  0  0
   -4.2540   19.7610  -32.3230 F   0  0  0  0  0  0  0  0  0  0  0  0
   -3.7800   17.9470  -33.7780 C   0  0  0  0  0  0  0  0  0  0  0  0
   -1.0047   13.5375  -35.1041 H   0  0  0  0  0  0  0  0  0  0  0  0
   -1.3198   12.0751  -36.0985 H   0  0  0  0  0  0  0  0  0  0  0  0
    0.3117   12.8268  -36.0985 H   0  0  0  0  0  0  0  0  0  0  0  0
   -0.4302   15.4817  -36.0158 H   0  0  0  0  0  0  0  0  0  0  0  0
    0.4320   15.2077  -37.5676 H   0  0  0  0  0  0  0  0  0  0  0  0
   -1.2020   15.9538  -37.5676 H   0  0  0  0  0  0  0  0  0  0  0  0
   -2.8801   14.9165  -37.8014 H   0  0  0  0  0  0  0  0  0  0  0  0
   -2.8491   13.1039  -38.1105 H   0  0  0  0  0  0  0  0  0  0  0  0
   -4.5541   13.7123  -36.4398 H   0  0  0  0  0  0  0  0  0  0  0  0
   -3.2329   12.6697  -35.7594 H   0  0  0  0  0  0  0  0  0  0  0  0
   -3.0440   14.3230  -34.1270 H   0  0  0  0  0  0  0  0  0  0  0  0
   -0.7840   16.4534  -34.4778 H   0  0  0  0  0  0  0  0  0  0  0  0
   -0.0106   18.1410  -32.8202 H   0  0  0  0  0  0  0  0  0  0  0  0
    0.2338   18.7960  -30.9068 H   0  0  0  0  0  0  0  0  0  0  0  0
    1.0606   20.4988  -29.2509 H   0  0  0  0  0  0  0  0  0  0  0  0
    0.4864   23.0761  -28.1596 H   0  0  0  0  0  0  0  0  0  0  0  0
   -0.8840   26.3710  -29.9270 H   0  0  0  0  0  0  0  0  0  0  0  0
   -3.1497   21.3744  -31.8670 H   0  0  0  0  0  0  0  0  0  0  0  0
   -4.8431   17.9029  -34.0571 H   0  0  0  0  0  0  0  0  0  0  0  0
  1  2  1  0
  2  3  1  0
  2  4  1  0
  4  5  1  0
  5  6  1  0
  6  7  1  0
  7  8  2  0
  7  9  1  0
  9 10  2  0
 10 11  1  0
 11 12  2  0
 12 13  1  0
 13 14  2  0
 14 15  1  0
 15 16  2  0
 16 17  1  0
 17 18  2  0
 18 19  1  0
 19 20  1  0
 19 21  2  0
 18 22  1  0
 22 23  1  0
 23 24  2  0
 23 25  1  0
 22 26  1  0
 26 27  2  0
 12 28  1  0
 28 29  1  0
 28 30  2  0
 30  9  1  0
 27 13  1  0
 26 16  1  0
  1 31  1  0
  1 32  1  0
  1 33  1  0
  3 34  1  0
  3 35  1  0
  3 36  1  0
  4 37  1  0
  4 38  1  0
  5 39  1  0
  5 40  1  0
  6 41  1  0
 10 42  1  0
 11 43  1  0
 14 44  1  0
 15 45  1  0
 17 46  1  0
 20 47  1  0
 27 48  1  0
 30 49  1  0
M  CHG  2  20  -1  25  -1
M  END
>  <UniqueID>  (20) 
20

>  <SMILES>  (20) 
CN(C)CCNC(=O)c1ccc(-c2ccc3cc(C([NH-])=O)n(C(=O)[O-])c3c2)c(F)c1

>  <Energy>  (20) 
100.74957423586407

>  <Genealogy>  (20) 
CN(C)CCNC(=O)c1ccc(-c2ccc3cc(C([NH-])=O)n(C(=O)[O-])c3c2)c(F)c1 (protonated)
CN(C)CCNC(=O)c1ccc(-c2ccc3cc(C([NH-])=O)n(C(=O)[O-])c3c2)c(F)c1 (3D coordinates assigned)
CN(C)CCNC(=O)c1ccc(-c2ccc3cc(C([NH-])=O)n(C(=O)[O-])c3c2)c(F)c1 (optimized conformer: 100.74957423586407 kcal/mol)

>  <smiles>  (20) 
CN(C)CCNC(=O)c1ccc(-c2ccc3cc(C(N)=O)n(C(=O)O)c3c2)c(F)c1

>  <score_type>  (20) 
oracle

>  <origin>  (20) 
adg

>  <m_score__min__energy>  (20) 
-10.52

>  <m_primary>  (20) 
energy

$$$$
20:0
     RDKit          3D

 42 44  0  0  0  0  0  0  0  0999 V2000
   -1.5710   25.9820  -28.9080 N   0  0  0  0  0  0  0  0  0  0  0  0
   -0.9180   24.7150  -28.9000 C   0  0  0  0  0  0  0  0  0  0  0  0
    0.1280   24.5650  -28.2120 O   0  0  0  0  0  0  0  0  0  0  0  0
   -1.4130   23.5970  -29.7300 C   0  0  0  0  0  0  0  0  0  0  0  0
   -0.6130   22.5280  -30.1290 C   0  0  0  0  0  0  0  0  0  0  0  0
   -1.4090   21.7630  -30.9500 C   0  0  0  0  0  0  0  0  0  0  0  0
   -1.1220   20.5790  -31.6230 C   0  0  0  0  0  0  0  0  0  0  0  0
   -2.1450   19.9910  -32.3850 C   0  0  0  0  0  0  0  0  0  0  0  0
   -3.4310   20.5830  -32.4460 C   0  0  0  0  0  0  0  0  0  0  0  0
   -4.5110   19.9560  -33.2860 C   0  0  0  0  0  0  0  0  0  0  0  0
   -5.2920   18.9180  -32.4680 C   0  0  0  0  0  0  0  0  0  0  0  0
   -6.7820   18.9850  -32.7150 C   0  0  0  0  0  0  0  0  0  0  0  0
   -7.3320   18.0860  -33.4080 O   0  0  0  0  0  0  0  0  0  0  0  0
   -7.5770   20.0890  -32.2230 N   0  0  0  0  0  0  0  0  0  0  0  0
   -6.9400   21.2550  -31.5950 C   0  0  0  0  0  0  0  0  0  0  0  0
   -7.8460   22.4860  -31.7070 C   0  0  0  0  0  0  0  0  0  0  0  0
   -9.1520   22.1940  -31.2490 O   0  0  0  0  0  0  0  0  0  0  0  0
   -9.7500   21.2460  -32.1090 C   0  0  0  0  0  0  0  0  0  0  0  0
   -9.0210   19.9020  -32.0280 C   0  0  0  0  0  0  0  0  0  0  0  0
   -3.6820   21.7920  -31.7590 C   0  0  0  0  0  0  0  0  0  0  0  0
   -2.6380   22.3660  -31.0230 C   0  0  0  0  0  0  0  0  0  0  0  0
   -2.6590   23.4930  -30.2770 N   0  0  0  0  0  0  0  0  0  0  0  0
   -3.7960   24.3400  -30.0480 C   0  0  0  0  0  0  0  0  0  0  0  0
   -4.7310   23.9610  -29.2950 O   0  0  0  0  0  0  0  0  0  0  0  0
   -3.8870   25.5760  -30.6770 O   0  0  0  0  0  0  0  0  0  0  0  0
   -2.6110   26.0490  -28.9630 H   0  0  0  0  0  0  0  0  0  0  0  0
    0.4329   22.3365  -29.8473 H   0  0  0  0  0  0  0  0  0  0  0  0
   -0.1252   20.1181  -31.5601 H   0  0  0  0  0  0  0  0  0  0  0  0
   -1.9460   19.0622  -32.9397 H   0  0  0  0  0  0  0  0  0  0  0  0
   -5.2018   20.7392  -33.6315 H   0  0  0  0  0  0  0  0  0  0  0  0
   -4.0462   19.4543  -34.1475 H   0  0  0  0  0  0  0  0  0  0  0  0
   -4.9346   17.9138  -32.7398 H   0  0  0  0  0  0  0  0  0  0  0  0
   -5.1206   19.1351  -31.4034 H   0  0  0  0  0  0  0  0  0  0  0  0
   -6.7540   21.0377  -30.5328 H   0  0  0  0  0  0  0  0  0  0  0  0
   -5.9911   21.4632  -32.1110 H   0  0  0  0  0  0  0  0  0  0  0  0
   -7.4246   23.3000  -31.0989 H   0  0  0  0  0  0  0  0  0  0  0  0
   -7.9027   22.7861  -32.7638 H   0  0  0  0  0  0  0  0  0  0  0  0
  -10.8005   21.1047  -31.8151 H   0  0  0  0  0  0  0  0  0  0  0  0
   -9.6881   21.6188  -33.1420 H   0  0  0  0  0  0  0  0  0  0  0  0
   -9.1979   19.4529  -31.0396 H   0  0  0  0  0  0  0  0  0  0  0  0
   -9.4046   19.2403  -32.8185 H   0  0  0  0  0  0  0  0  0  0  0  0
   -4.6718   22.2699  -31.8012 H   0  0  0  0  0  0  0  0  0  0  0  0
  1  2  1  0
  2  3  2  0
  2  4  1  0
  4  5  2  0
  5  6  1  0
  6  7  2  0
  7  8  1  0
  8  9  2  0
  9 10  1  0
 10 11  1  0
 11 12  1  0
 12 13  2  0
 12 14  1  0
 14 15  1  0
 15 16  1  0
 16 17  1  0
 17 18  1  0
 18 19  1  0
  9 20  1  0
 20 21  2  0
 21 22  1  0
 22 23  1  0
 23 24  2  0
 23 25  1  0
 22  4  1  0
 21  6  1  0
 19 14  1  0
  1 26  1  0
  5 27  1  0
  7 28  1  0
  8 29  1  0
 10 30  1  0
 10 31  1  0
 11 32  1  0
 11 33  1  0
 15 34  1  0
 15 35  1  0
 16 36  1  0
 16 37  1  0
 18 38  1  0
 18 39  1  0
 19 40  1  0
 19 41  1  0
 20 42  1  0
M  CHG  2   1  -1  25  -1
M  END
>  <UniqueID>  (21) 
21

>  <SMILES>  (21) 
[NH-]C(=O)c1cc2ccc(CCC(=O)N3CCOCC3)cc2n1C(=O)[O-]

>  <Energy>  (21) 
83.27512791599983

>  <Genealogy>  (21) 
[NH-]C(=O)c1cc2ccc(CCC(=O)N3CCOCC3)cc2n1C(=O)[O-] (protonated)
[NH-]C(=O)c1cc2ccc(CCC(=O)N3CCOCC3)cc2n1C(=O)[O-] (3D coordinates assigned)
[NH-]C(=O)c1cc2ccc(CCC(=O)N3CCOCC3)cc2n1C(=O)[O-] (nonaromatic ring conformer: 83.27512791599983 kcal/mol)

>  <smiles>  (21) 
NC(=O)c1cc2ccc(CCC(=O)N3CCOCC3)cc2n1C(=O)O

>  <score_type>  (21) 
oracle

>  <origin>  (21) 
adg

>  <m_score__min__energy>  (21) 
-12.17

>  <m_primary>  (21) 
energy

$$$$
21:0
     RDKit          3D

 47 48  0  0  0  0  0  0  0  0999 V2000
    0.1920   21.2850  -35.0120 C   0  0  0  0  0  0  0  0  0  0  0  0
    0.0610   20.5190  -33.6920 C   0  0  0  0  0  0  0  0  0  0  0  0
    1.4100   19.9340  -33.2750 C   0  0  0  0  0  0  0  0  0  0  0  0
   -0.8810   19.4540  -33.8240 O   0  0  0  0  0  0  0  0  0  0  0  0
   -1.5490   18.8730  -32.7370 C   0  0  0  0  0  0  0  0  0  0  0  0
   -1.9760   17.6870  -32.7960 O   0  0  0  0  0  0  0  0  0  0  0  0
   -1.8120   19.6910  -31.5140 C   0  0  0  0  0  0  0  0  0  0  0  0
   -2.5070   20.9310  -31.8830 N   0  0  0  0  0  0  0  0  0  0  0  0
   -2.2970   22.1560  -31.1060 C   0  0  0  0  0  0  0  0  0  0  0  0
   -3.3540   20.9650  -33.0530 C   0  0  0  0  0  0  0  0  0  0  0  0
   -2.8480   21.1190  -34.2000 O   0  0  0  0  0  0  0  0  0  0  0  0
   -4.7800   20.8580  -32.9300 N   0  0  0  0  0  0  0  0  0  0  0  0
   -5.5890   19.8740  -33.4100 C   0  0  0  0  0  0  0  0  0  0  0  0
   -5.1700   18.7630  -34.2900 C   0  0  0  0  0  0  0  0  0  0  0  0
   -3.7920   18.4350  -34.4730 N   0  0  0  0  0  0  0  0  0  0  0  0
   -6.0440   18.1140  -34.9240 O   0  0  0  0  0  0  0  0  0  0  0  0
   -6.8960   20.0510  -32.9550 C   0  0  0  0  0  0  0  0  0  0  0  0
   -6.8590   21.1960  -32.1880 C   0  0  0  0  0  0  0  0  0  0  0  0
   -7.8680   21.8280  -31.4670 C   0  0  0  0  0  0  0  0  0  0  0  0
   -7.5300   22.9810  -30.7330 C   0  0  0  0  0  0  0  0  0  0  0  0
   -6.2030   23.4810  -30.7420 C   0  0  0  0  0  0  0  0  0  0  0  0
   -5.8460   24.7000  -29.9370 C   0  0  0  0  0  0  0  0  0  0  0  0
   -4.3680   24.9270  -29.9620 C   0  0  0  0  0  0  0  0  0  0  0  0
   -3.8580   25.6610  -30.8490 O   0  0  0  0  0  0  0  0  0  0  0  0
   -3.5520   24.3150  -29.0160 O   0  0  0  0  0  0  0  0  0  0  0  0
   -5.2030   22.8030  -31.4730 C   0  0  0  0  0  0  0  0  0  0  0  0
   -5.5690   21.6650  -32.1960 C   0  0  0  0  0  0  0  0  0  0  0  0
    0.3740   22.3493  -34.8018 H   0  0  0  0  0  0  0  0  0  0  0  0
    1.0333   20.8765  -35.5911 H   0  0  0  0  0  0  0  0  0  0  0  0
   -0.7373   21.1793  -35.5911 H   0  0  0  0  0  0  0  0  0  0  0  0
   -0.2863   21.2267  -32.9248 H   0  0  0  0  0  0  0  0  0  0  0  0
    1.4740   19.9062  -32.1772 H   0  0  0  0  0  0  0  0  0  0  0  0
    1.5061   18.9134  -33.6738 H   0  0  0  0  0  0  0  0  0  0  0  0
    2.2208   20.5614  -33.6738 H   0  0  0  0  0  0  0  0  0  0  0  0
   -2.4388   19.1148  -30.8175 H   0  0  0  0  0  0  0  0  0  0  0  0
   -0.8551   19.9412  -31.0325 H   0  0  0  0  0  0  0  0  0  0  0  0
   -2.3374   21.9206  -30.0322 H   0  0  0  0  0  0  0  0  0  0  0  0
   -1.3128   22.5816  -31.3513 H   0  0  0  0  0  0  0  0  0  0  0  0
   -3.0833   22.8851  -31.3513 H   0  0  0  0  0  0  0  0  0  0  0  0
   -3.5240   17.6130  -35.0580 H   0  0  0  0  0  0  0  0  0  0  0  0
   -3.0330   19.0690  -34.1390 H   0  0  0  0  0  0  0  0  0  0  0  0
   -7.7683   19.4140  -33.1634 H   0  0  0  0  0  0  0  0  0  0  0  0
   -8.8969   21.4390  -31.4705 H   0  0  0  0  0  0  0  0  0  0  0  0
   -8.3031   23.4992  -30.1466 H   0  0  0  0  0  0  0  0  0  0  0  0
   -6.3547   25.5774  -30.3630 H   0  0  0  0  0  0  0  0  0  0  0  0
   -6.1657   24.5462  -28.8958 H   0  0  0  0  0  0  0  0  0  0  0  0
   -4.1631   23.1615  -31.4732 H   0  0  0  0  0  0  0  0  0  0  0  0
  1  2  1  0
  2  3  1  0
  2  4  1  0
  4  5  1  0
  5  6  2  0
  5  7  1  0
  7  8  1  0
  8  9  1  0
  8 10  1  0
 10 11  2  0
 10 12  1  0
 12 13  1  0
 13 14  1  0
 14 15  1  0
 14 16  2  0
 13 17  2  0
 17 18  1  0
 18 19  2  0
 19 20  1  0
 20 21  2  0
 21 22  1  0
 22 23  1  0
 23 24  2  0
 23 25  1  0
 21 26  1  0
 26 27  2  0
 27 12  1  0
 27 18  1  0
  1 28  1  0
  1 29  1  0
  1 30  1  0
  2 31  1  0
  3 32  1  0
  3 33  1  0
  3 34  1  0
  7 35  1  0
  7 36  1  0
  9 37  1  0
  9 38  1  0
  9 39  1  0
 15 40  1  0
 15 41  1  0
 17 42  1  0
 19 43  1  0
 20 44  1  0
 22 45  1  0
 22 46  1  0
 26 47  1  0
M  CHG  1  25  -1
M  END
>  <UniqueID>  (22) 
22

>  <SMILES>  (22) 
CC(C)OC(=O)CN(C)C(=O)n1c(C(N)=O)cc2ccc(CC(=O)[O-])cc21

>  <Energy>  (22) 
75.51921191414885

>  <Genealogy>  (22) 
CC(C)OC(=O)CN(C)C(=O)n1c(C(N)=O)cc2ccc(CC(=O)[O-])cc21 (protonated)
CC(C)OC(=O)CN(C)C(=O)n1c(C(N)=O)cc2ccc(CC(=O)[O-])cc21 (3D coordinates assigned)
CC(C)OC(=O)CN(C)C(=O)n1c(C(N)=O)cc2ccc(CC(=O)[O-])cc21 (optimized conformer: 75.51921191414885 kcal/mol)

>  <smiles>  (22) 
CC(C)OC(=O)CN(C)C(=O)n1c(C(N)=O)cc2ccc(CC(=O)O)cc21

>  <score_type>  (22) 
oracle

>  <origin>  (22) 
adg

>  <m_score__min__energy>  (22) 
-10.199999999999999

>  <m_primary>  (22) 
energy

$$$$
22:0
     RDKit          3D

 35 36  0  0  0  0  0  0  0  0999 V2000
   -5.7470   18.2030  -35.3470 N   0  0  0  0  0  0  0  0  0  0  0  0
   -5.2090   18.2670  -34.0280 C   0  0  0  0  0  0  0  0  0  0  0  0
   -3.9660   18.3920  -33.8630 O   0  0  0  0  0  0  0  0  0  0  0  0
   -6.1230   18.2330  -32.8460 C   0  0  0  0  0  0  0  0  0  0  0  0
   -6.4430   19.6320  -32.4000 C   0  0  0  0  0  0  0  0  0  0  0  0
   -7.7760   20.1130  -32.4680 C   0  0  0  0  0  0  0  0  0  0  0  0
   -8.0830   21.4280  -32.0770 C   0  0  0  0  0  0  0  0  0  0  0  0
   -7.0400   22.2390  -31.6370 C   0  0  0  0  0  0  0  0  0  0  0  0
   -7.0530   23.5420  -31.1900 C   0  0  0  0  0  0  0  0  0  0  0  0
   -5.7250   23.8390  -30.8820 C   0  0  0  0  0  0  0  0  0  0  0  0
   -5.2610   25.1630  -30.4210 C   0  0  0  0  0  0  0  0  0  0  0  0
   -3.9990   25.6660  -30.8540 N   0  0  0  0  0  0  0  0  0  0  0  0
   -5.9600   25.8480  -29.6280 O   0  0  0  0  0  0  0  0  0  0  0  0
   -4.9290   22.7600  -31.1250 N   0  0  0  0  0  0  0  0  0  0  0  0
   -3.5220   22.6310  -30.8890 C   0  0  0  0  0  0  0  0  0  0  0  0
   -2.8020   22.0260  -31.7280 O   0  0  0  0  0  0  0  0  0  0  0  0
   -2.9230   23.0990  -29.5970 C   0  0  0  0  0  0  0  0  0  0  0  0
   -1.4030   23.2020  -29.7260 C   0  0  0  0  0  0  0  0  0  0  0  0
   -0.9110   24.4810  -29.1280 C   0  0  0  0  0  0  0  0  0  0  0  0
    0.1310   24.4900  -28.4200 O   0  0  0  0  0  0  0  0  0  0  0  0
   -1.6300   25.6560  -29.3090 O   0  0  0  0  0  0  0  0  0  0  0  0
   -5.7450   21.7930  -31.5880 C   0  0  0  0  0  0  0  0  0  0  0  0
   -5.4100   20.4880  -31.9610 C   0  0  0  0  0  0  0  0  0  0  0  0
   -6.5040   18.8550  -35.6490 H   0  0  0  0  0  0  0  0  0  0  0  0
   -7.0546   17.7169  -33.1212 H   0  0  0  0  0  0  0  0  0  0  0  0
   -5.6273   17.6973  -32.0230 H   0  0  0  0  0  0  0  0  0  0  0  0
   -8.5765   19.4510  -32.8299 H   0  0  0  0  0  0  0  0  0  0  0  0
   -9.1157   21.8048  -32.1174 H   0  0  0  0  0  0  0  0  0  0  0  0
   -7.9245   24.2065  -31.0960 H   0  0  0  0  0  0  0  0  0  0  0  0
   -3.1080   25.2950  -30.4550 H   0  0  0  0  0  0  0  0  0  0  0  0
   -3.3338   24.0873  -29.3430 H   0  0  0  0  0  0  0  0  0  0  0  0
   -3.1677   22.3756  -28.8053 H   0  0  0  0  0  0  0  0  0  0  0  0
   -0.9372   22.3547  -29.2015 H   0  0  0  0  0  0  0  0  0  0  0  0
   -1.1349   23.1823  -30.7926 H   0  0  0  0  0  0  0  0  0  0  0  0
   -4.3685   20.1373  -31.9136 H   0  0  0  0  0  0  0  0  0  0  0  0
  1  2  1  0
  2  3  2  0
  2  4  1  0
  4  5  1  0
  5  6  2  0
  6  7  1  0
  7  8  2  0
  8  9  1  0
  9 10  2  0
 10 11  1  0
 11 12  1  0
 11 13  2  0
 10 14  1  0
 14 15  1  0
 15 16  2  0
 15 17  1  0
 17 18  1  0
 18 19  1  0
 19 20  2  0
 19 21  1  0
 14 22  1  0
 22 23  2  0
 23  5  1  0
 22  8  1  0
  1 24  1  0
  4 25  1  0
  4 26  1  0
  6 27  1  0
  7 28  1  0
  9 29  1  0
 12 30  1  0
 17 31  1  0
 17 32  1  0
 18 33  1  0
 18 34  1  0
 23 35  1  0
M  CHG  3   1  -1  12  -1  21  -1
M  END
>  <UniqueID>  (23) 
23

>  <SMILES>  (23) 
[NH-]C(=O)Cc1ccc2cc(C([NH-])=O)n(C(=O)CCC(=O)[O-])c2c1

>  <Energy>  (23) 
67.96497040075513

>  <Genealogy>  (23) 
[NH-]C(=O)Cc1ccc2cc(C([NH-])=O)n(C(=O)CCC(=O)[O-])c2c1 (protonated)
[NH-]C(=O)Cc1ccc2cc(C([NH-])=O)n(C(=O)CCC(=O)[O-])c2c1 (3D coordinates assigned)
[NH-]C(=O)Cc1ccc2cc(C([NH-])=O)n(C(=O)CCC(=O)[O-])c2c1 (optimized conformer: 67.96497040075513 kcal/mol)

>  <smiles>  (23) 
NC(=O)Cc1ccc2cc(C(N)=O)n(C(=O)CCC(=O)O)c2c1

>  <score_type>  (23) 
oracle

>  <origin>  (23) 
adg

>  <m_score__min__energy>  (23) 
-12.279999999999999

>  <m_primary>  (23) 
energy

$$$$
23:0
     RDKit          3D

 45 47  0  0  0  0  0  0  0  0999 V2000
   -3.9080   25.6430  -30.8320 N   0  0  0  0  0  0  0  0  0  0  0  0
   -5.2460   25.2920  -30.4860 C   0  0  0  0  0  0  0  0  0  0  0  0
   -5.9080   26.0560  -29.7350 O   0  0  0  0  0  0  0  0  0  0  0  0
   -5.8430   24.0230  -30.9510 C   0  0  0  0  0  0  0  0  0  0  0  0
   -7.1870   23.8920  -31.3000 C   0  0  0  0  0  0  0  0  0  0  0  0
   -7.3640   22.5550  -31.5740 C   0  0  0  0  0  0  0  0  0  0  0  0
   -8.5090   21.8660  -31.9630 C   0  0  0  0  0  0  0  0  0  0  0  0
   -8.3980   20.4830  -32.1910 C   0  0  0  0  0  0  0  0  0  0  0  0
   -7.1530   19.8240  -32.0420 C   0  0  0  0  0  0  0  0  0  0  0  0
   -7.0520   18.3400  -32.2640 C   0  0  0  0  0  0  0  0  0  0  0  0
   -6.4620   18.0610  -33.6100 C   0  0  0  0  0  0  0  0  0  0  0  0
   -6.0770   19.0110  -34.3420 O   0  0  0  0  0  0  0  0  0  0  0  0
   -6.3830   16.7550  -34.0770 O   0  0  0  0  0  0  0  0  0  0  0  0
   -6.0140   20.5560  -31.6380 C   0  0  0  0  0  0  0  0  0  0  0  0
   -6.1580   21.9270  -31.3990 C   0  0  0  0  0  0  0  0  0  0  0  0
   -5.2120   22.8160  -31.0200 N   0  0  0  0  0  0  0  0  0  0  0  0
   -3.8210   22.5350  -30.8080 C   0  0  0  0  0  0  0  0  0  0  0  0
   -2.9550   23.0420  -31.5700 O   0  0  0  0  0  0  0  0  0  0  0  0
   -3.4410   21.6650  -29.7790 O   0  0  0  0  0  0  0  0  0  0  0  0
   -3.6330   21.9450  -28.3930 C   0  0  0  0  0  0  0  0  0  0  0  0
   -2.6440   23.0100  -27.9090 C   0  0  0  0  0  0  0  0  0  0  0  0
   -2.8520   24.2400  -28.5790 O   0  0  0  0  0  0  0  0  0  0  0  0
   -1.6570   25.0010  -28.6250 C   0  0  1  0  0  0  0  0  0  0  0  0
   -1.3090   25.5090  -27.2590 C   0  0  0  0  0  0  0  0  0  0  0  0
    0.2050   25.5160  -27.2810 C   0  0  0  0  0  0  0  0  0  0  0  0
    0.6600   24.5630  -28.2150 O   0  0  0  0  0  0  0  0  0  0  0  0
   -0.4530   24.1370  -28.9690 C   0  0  0  0  0  0  0  0  0  0  0  0
   -3.1090   25.0140  -30.5920 H   0  0  0  0  0  0  0  0  0  0  0  0
   -7.9446   24.6882  -31.3464 H   0  0  0  0  0  0  0  0  0  0  0  0
   -9.4699   22.3867  -32.0880 H   0  0  0  0  0  0  0  0  0  0  0  0
   -9.2868   19.9070  -32.4880 H   0  0  0  0  0  0  0  0  0  0  0  0
   -6.4106   17.8986  -31.4869 H   0  0  0  0  0  0  0  0  0  0  0  0
   -8.0584   17.8989  -32.2134 H   0  0  0  0  0  0  0  0  0  0  0  0
   -5.0395   20.0609  -31.5146 H   0  0  0  0  0  0  0  0  0  0  0  0
   -4.6593   22.3093  -28.2379 H   0  0  0  0  0  0  0  0  0  0  0  0
   -3.4630   21.0211  -27.8207 H   0  0  0  0  0  0  0  0  0  0  0  0
   -2.7801   23.1621  -26.8281 H   0  0  0  0  0  0  0  0  0  0  0  0
   -1.6228   22.6627  -28.1247 H   0  0  0  0  0  0  0  0  0  0  0  0
   -1.8435   25.7918  -29.3665 H   0  0  0  0  0  0  0  0  0  0  0  0
   -1.7079   26.5216  -27.0991 H   0  0  0  0  0  0  0  0  0  0  0  0
   -1.7305   24.8990  -26.4464 H   0  0  0  0  0  0  0  0  0  0  0  0
    0.5640   26.5148  -27.5700 H   0  0  0  0  0  0  0  0  0  0  0  0
    0.5900   25.2664  -26.2813 H   0  0  0  0  0  0  0  0  0  0  0  0
   -0.2277   24.2318  -30.0415 H   0  0  0  0  0  0  0  0  0  0  0  0
   -0.6758   23.0859  -28.7335 H   0  0  0  0  0  0  0  0  0  0  0  0
  1  2  1  0
  2  3  2  0
  2  4  1  0
  4  5  2  0
  5  6  1  0
  6  7  2  0
  7  8  1  0
  8  9  2  0
  9 10  1  0
 10 11  1  0
 11 12  2  0
 11 13  1  0
  9 14  1  0
 14 15  2  0
 15 16  1  0
 16 17  1  0
 17 18  2  0
 17 19  1  0
 19 20  1  0
 20 21  1  0
 21 22  1  0
 22 23  1  0
 23 24  1  0
 24 25  1  0
 25 26  1  0
 26 27  1  0
 16  4  1  0
 27 23  1  0
 15  6  1  0
  1 28  1  0
  5 29  1  0
  7 30  1  0
  8 31  1  0
 10 32  1  0
 10 33  1  0
 14 34  1  0
 20 35  1  0
 20 36  1  0
 21 37  1  0
 21 38  1  0
 23 39  1  6
 24 40  1  0
 24 41  1  0
 25 42  1  0
 25 43  1  0
 27 44  1  0
 27 45  1  0
M  CHG  2   1  -1  13  -1
M  END
>  <UniqueID>  (24) 
24

>  <SMILES>  (24) 
[NH-]C(=O)c1cc2ccc(CC(=O)[O-])cc2n1C(=O)OCCO[C@H]1CCOC1

>  <Energy>  (24) 
82.89430183358967

>  <Genealogy>  (24) 
[NH-]C(=O)c1cc2ccc(CC(=O)[O-])cc2n1C(=O)OCCOC1CCOC1 (protonated)
[NH-]C(=O)c1cc2ccc(CC(=O)[O-])cc2n1C(=O)OCCO[C@H]1CCOC1 (chirality)
[NH-]C(=O)c1cc2ccc(CC(=O)[O-])cc2n1C(=O)OCCO[C@H]1CCOC1 (3D coordinates assigned)
[NH-]C(=O)c1cc2ccc(CC(=O)[O-])cc2n1C(=O)OCCO[C@H]1CCOC1 (nonaromatic ring conformer: 82.89430183358967 kcal/mol)

>  <smiles>  (24) 
NC(=O)c1cc2ccc(CC(=O)O)cc2n1C(=O)OCCOC1CCOC1

>  <score_type>  (24) 
oracle

>  <origin>  (24) 
adg

>  <m_score__min__energy>  (24) 
-10.390000000000001

>  <m_primary>  (24) 
energy

$$$$
24:0
     RDKit          3D

 64 66  0  0  0  0  0  0  0  0999 V2000
   -3.8870   24.5600  -27.1140 C   0  0  0  0  0  0  0  0  0  0  0  0
   -3.0440   24.5610  -28.2610 O   0  0  0  0  0  0  0  0  0  0  0  0
   -1.7220   25.0160  -28.2250 C   0  0  0  0  0  0  0  0  0  0  0  0
   -1.2470   25.6880  -29.1810 O   0  0  0  0  0  0  0  0  0  0  0  0
   -0.8590   24.6900  -27.0420 C   0  0  0  0  0  0  0  0  0  0  0  0
   -0.1890   23.3140  -27.1790 C   0  0  0  0  0  0  0  0  0  0  0  0
   -0.7130   22.5110  -28.3730 C   0  0  0  0  0  0  0  0  0  0  0  0
    0.0110   21.2920  -28.4960 O   0  0  0  0  0  0  0  0  0  0  0  0
   -0.2000   20.3920  -29.5450 C   0  0  0  0  0  0  0  0  0  0  0  0
    0.4950   19.3440  -29.6380 O   0  0  0  0  0  0  0  0  0  0  0  0
   -1.2340   20.6560  -30.5550 C   0  0  0  0  0  0  0  0  0  0  0  0
   -0.9720   21.3240  -31.6820 C   0  0  0  0  0  0  0  0  0  0  0  0
   -2.0410   21.5630  -32.7020 C   0  0  0  0  0  0  0  0  0  0  0  0
   -3.3140   21.5360  -32.0680 O   0  0  0  0  0  0  0  0  0  0  0  0
   -3.8070   22.5940  -31.3020 C   0  0  0  0  0  0  0  0  0  0  0  0
   -3.0290   23.2630  -30.5670 O   0  0  0  0  0  0  0  0  0  0  0  0
   -5.2110   22.8950  -31.3240 N   0  0  0  0  0  0  0  0  0  0  0  0
   -5.8390   24.0220  -30.8780 C   0  0  0  0  0  0  0  0  0  0  0  0
   -5.1800   25.2650  -30.4260 C   0  0  0  0  0  0  0  0  0  0  0  0
   -3.8650   25.5990  -30.8590 N   0  0  0  0  0  0  0  0  0  0  0  0
   -5.8060   26.0680  -29.6810 O   0  0  0  0  0  0  0  0  0  0  0  0
   -7.2210   23.8820  -30.9770 C   0  0  0  0  0  0  0  0  0  0  0  0
   -7.4250   22.6300  -31.5100 C   0  0  0  0  0  0  0  0  0  0  0  0
   -8.6110   21.9620  -31.7970 C   0  0  0  0  0  0  0  0  0  0  0  0
   -8.5260   20.6540  -32.3020 C   0  0  0  0  0  0  0  0  0  0  0  0
   -7.2640   20.0360  -32.5090 C   0  0  0  0  0  0  0  0  0  0  0  0
   -7.1750   18.6090  -33.0150 C   0  0  0  0  0  0  0  0  0  0  0  0
   -6.0810   18.4960  -34.0960 C   0  0  0  0  0  0  0  0  0  0  0  0
   -5.8770   17.0380  -34.5180 C   0  0  0  0  0  0  0  0  0  0  0  0
   -5.6530   16.1650  -33.3560 N   0  0  0  0  0  0  0  0  0  0  0  0
   -5.2530   14.8010  -33.5790 C   0  0  0  0  0  0  0  0  0  0  0  0
   -4.9180   14.0630  -32.6140 O   0  0  0  0  0  0  0  0  0  0  0  0
   -5.2260   14.2810  -34.8690 O   0  0  0  0  0  0  0  0  0  0  0  0
   -5.7440   16.7140  -31.9950 C   0  0  0  0  0  0  0  0  0  0  0  0
   -6.9980   17.5870  -31.8530 C   0  0  0  0  0  0  0  0  0  0  0  0
   -6.0830   20.7460  -32.1940 C   0  0  0  0  0  0  0  0  0  0  0  0
   -6.1970   22.0560  -31.7100 C   0  0  0  0  0  0  0  0  0  0  0  0
   -3.2685   24.5607  -26.2044 H   0  0  0  0  0  0  0  0  0  0  0  0
   -4.5230   25.4574  -27.1256 H   0  0  0  0  0  0  0  0  0  0  0  0
   -4.5209   23.6611  -27.1256 H   0  0  0  0  0  0  0  0  0  0  0  0
   -0.0769   25.4581  -26.9507 H   0  0  0  0  0  0  0  0  0  0  0  0
   -1.5013   24.6674  -26.1493 H   0  0  0  0  0  0  0  0  0  0  0  0
    0.8938   23.4620  -27.3039 H   0  0  0  0  0  0  0  0  0  0  0  0
   -0.4223   22.7417  -26.2690 H   0  0  0  0  0  0  0  0  0  0  0  0
   -1.7794   22.2875  -28.2217 H   0  0  0  0  0  0  0  0  0  0  0  0
   -0.5820   23.1026  -29.2911 H   0  0  0  0  0  0  0  0  0  0  0  0
   -2.2567   20.2919  -30.3775 H   0  0  0  0  0  0  0  0  0  0  0  0
    0.0443   21.7039  -31.8629 H   0  0  0  0  0  0  0  0  0  0  0  0
   -1.8862   22.5452  -33.1725 H   0  0  0  0  0  0  0  0  0  0  0  0
   -1.9970   20.7777  -33.4710 H   0  0  0  0  0  0  0  0  0  0  0  0
   -3.0260   25.2940  -30.3160 H   0  0  0  0  0  0  0  0  0  0  0  0
   -7.9874   24.6169  -30.6898 H   0  0  0  0  0  0  0  0  0  0  0  0
   -9.5863   22.4437  -31.6334 H   0  0  0  0  0  0  0  0  0  0  0  0
   -9.4473   20.1020  -32.5399 H   0  0  0  0  0  0  0  0  0  0  0  0
   -8.1317   18.3443  -33.4890 H   0  0  0  0  0  0  0  0  0  0  0  0
   -6.3805   19.0865  -34.9744 H   0  0  0  0  0  0  0  0  0  0  0  0
   -5.1363   18.8767  -33.6806 H   0  0  0  0  0  0  0  0  0  0  0  0
   -6.7723   16.6934  -35.0562 H   0  0  0  0  0  0  0  0  0  0  0  0
   -4.9875   16.9875  -35.1631 H   0  0  0  0  0  0  0  0  0  0  0  0
   -5.7952   15.8859  -31.2728 H   0  0  0  0  0  0  0  0  0  0  0  0
   -4.8552   17.3318  -31.7993 H   0  0  0  0  0  0  0  0  0  0  0  0
   -7.8797   16.9296  -31.8295 H   0  0  0  0  0  0  0  0  0  0  0  0
   -6.8867   18.1667  -30.9248 H   0  0  0  0  0  0  0  0  0  0  0  0
   -5.0954   20.2800  -32.3260 H   0  0  0  0  0  0  0  0  0  0  0  0
  1  2  1  0
  2  3  1  0
  3  4  2  0
  3  5  1  0
  5  6  1  0
  6  7  1  0
  7  8  1  0
  8  9  1  0
  9 10  2  0
  9 11  1  0
 11 12  2  3
 12 13  1  0
 13 14  1  0
 14 15  1  0
 15 16  2  0
 15 17  1  0
 17 18  1  0
 18 19  1  0
 19 20  1  0
 19 21  2  0
 18 22  2  0
 22 23  1  0
 23 24  2  0
 24 25  1  0
 25 26  2  0
 26 27  1  0
 27 28  1  0
 28 29  1  0
 29 30  1  0
 30 31  1  0
 31 32  2  0
 31 33  1  0
 30 34  1  0
 34 35  1  0
 26 36  1  0
 36 37  2  0
 37 17  1  0
 37 23  1  0
 35 27  1  0
  1 38  1  0
  1 39  1  0
  1 40  1  0
  5 41  1  0
  5 42  1  0
  6 43  1  0
  6 44  1  0
  7 45  1  0
  7 46  1  0
 11 47  1  0
 12 48  1  0
 13 49  1  0
 13 50  1  0
 20 51  1  0
 22 52  1  0
 24 53  1  0
 25 54  1  0
 27 55  1  0
 28 56  1  0
 28 57  1  0
 29 58  1  0
 29 59  1  0
 34 60  1  0
 34 61  1  0
 35 62  1  0
 35 63  1  0
 36 64  1  0
M  CHG  2  20  -1  33  -1
M  END
>  <UniqueID>  (25) 
25

>  <SMILES>  (25) 
COC(=O)CCCOC(=O)C=CCOC(=O)n1c(C([NH-])=O)cc2ccc(C3CCN(C(=O)[O-])CC3)cc21

>  <Energy>  (25) 
90.75631370343528

>  <Genealogy>  (25) 
COC(=O)CCCOC(=O)C=CCOC(=O)n1c(C([NH-])=O)cc2ccc(C3CCN(C(=O)[O-])CC3)cc21 (protonated)
COC(=O)CCCOC(=O)C=CCOC(=O)n1c(C([NH-])=O)cc2ccc(C3CCN(C(=O)[O-])CC3)cc21 (3D coordinates assigned)
COC(=O)CCCOC(=O)C=CCOC(=O)n1c(C([NH-])=O)cc2ccc(C3CCN(C(=O)[O-])CC3)cc21 (nonaromatic ring conformer: 90.75631370343528 kcal/mol)

>  <smiles>  (25) 
COC(=O)CCCOC(=O)C=CCOC(=O)n1c(C(N)=O)cc2ccc(C3CCN(C(=O)O)CC3)cc21

>  <score_type>  (25) 
oracle

>  <origin>  (25) 
adg

>  <m_score__min__energy>  (25) 
-12.699999999999999

>  <m_primary>  (25) 
energy

$$$$
25:0
     RDKit          3D

 56 58  0  0  0  0  0  0  0  0999 V2000
   -1.9370   25.6070  -26.5710 C   0  0  0  0  0  0  0  0  0  0  0  0
   -1.2220   26.0370  -27.8410 C   0  0  0  0  0  0  0  0  0  0  0  0
   -1.9490   25.5730  -28.9750 O   0  0  0  0  0  0  0  0  0  0  0  0
   -2.1720   24.2200  -29.2670 C   0  0  0  0  0  0  0  0  0  0  0  0
   -0.9450   23.2290  -29.7300 S   0  0  0  0  0  0  0  0  0  0  0  0
   -3.4960   23.6830  -29.1600 N   0  0  0  0  0  0  0  0  0  0  0  0
   -4.6530   24.5140  -28.8260 C   0  0  0  0  0  0  0  0  0  0  0  0
   -5.1630   25.2780  -30.0530 C   0  0  0  0  0  0  0  0  0  0  0  0
   -5.9830   24.3960  -30.9430 C   0  0  0  0  0  0  0  0  0  0  0  0
   -7.1630   23.7660  -30.6140 C   0  0  0  0  0  0  0  0  0  0  0  0
   -7.5780   23.1550  -31.7360 N   0  0  0  0  0  0  0  0  0  0  0  0
   -8.7530   22.3050  -31.8810 C   0  0  0  0  0  0  0  0  0  0  0  0
   -8.3280   20.8850  -32.1270 C   0  0  0  0  0  0  0  0  0  0  0  0
   -9.2020   19.8160  -31.8090 C   0  0  0  0  0  0  0  0  0  0  0  0
   -8.8070   18.4850  -32.0160 C   0  0  0  0  0  0  0  0  0  0  0  0
   -7.5300   18.2530  -32.5180 C   0  0  0  0  0  0  0  0  0  0  0  0
   -6.9090   17.0680  -32.8390 C   0  0  0  0  0  0  0  0  0  0  0  0
   -5.6470   17.4290  -33.3040 C   0  0  0  0  0  0  0  0  0  0  0  0
   -4.6200   16.4470  -33.7080 C   0  0  0  0  0  0  0  0  0  0  0  0
   -4.0150   16.4990  -35.0020 N   0  0  0  0  0  0  0  0  0  0  0  0
   -4.2350   15.5780  -32.8810 O   0  0  0  0  0  0  0  0  0  0  0  0
   -5.4940   18.7830  -33.2840 N   0  0  0  0  0  0  0  0  0  0  0  0
   -4.3830   19.5390  -33.7980 C   0  0  0  0  0  0  0  0  0  0  0  0
   -3.4830   18.9630  -34.4700 O   0  0  0  0  0  0  0  0  0  0  0  0
   -4.3050   20.9120  -33.5510 O   0  0  0  0  0  0  0  0  0  0  0  0
   -3.1270   21.5400  -33.0560 C   0  0  0  0  0  0  0  0  0  0  0  0
   -3.2030   21.6490  -31.5360 C   0  0  0  0  0  0  0  0  0  0  0  0
   -4.5240   21.8740  -31.1250 O   0  0  0  0  0  0  0  0  0  0  0  0
   -6.6570   19.2750  -32.7980 C   0  0  0  0  0  0  0  0  0  0  0  0
   -7.0340   20.6120  -32.6220 C   0  0  0  0  0  0  0  0  0  0  0  0
   -6.7000   23.3920  -32.6970 N   0  0  0  0  0  0  0  0  0  0  0  0
   -5.7180   24.1600  -32.2440 N   0  0  0  0  0  0  0  0  0  0  0  0
   -1.3667   25.9500  -25.6951 H   0  0  0  0  0  0  0  0  0  0  0  0
   -2.9438   26.0496  -26.5493 H   0  0  0  0  0  0  0  0  0  0  0  0
   -2.0180   24.5102  -26.5493 H   0  0  0  0  0  0  0  0  0  0  0  0
   -1.1565   27.1346  -27.8713 H   0  0  0  0  0  0  0  0  0  0  0  0
   -0.2088   25.6090  -27.8545 H   0  0  0  0  0  0  0  0  0  0  0  0
   -3.6450   22.6570  -29.2980 H   0  0  0  0  0  0  0  0  0  0  0  0
   -5.4588   23.8696  -28.4447 H   0  0  0  0  0  0  0  0  0  0  0  0
   -4.3464   25.2458  -28.0642 H   0  0  0  0  0  0  0  0  0  0  0  0
   -5.7824   26.1226  -29.7169 H   0  0  0  0  0  0  0  0  0  0  0  0
   -4.2938   25.6351  -30.6248 H   0  0  0  0  0  0  0  0  0  0  0  0
   -7.6627   23.7637  -29.6340 H   0  0  0  0  0  0  0  0  0  0  0  0
   -9.3534   22.3520  -30.9605 H   0  0  0  0  0  0  0  0  0  0  0  0
   -9.3524   22.6571  -32.7335 H   0  0  0  0  0  0  0  0  0  0  0  0
  -10.1987   20.0310  -31.3963 H   0  0  0  0  0  0  0  0  0  0  0  0
   -9.4865   17.6505  -31.7882 H   0  0  0  0  0  0  0  0  0  0  0  0
   -7.3213   16.0523  -32.7478 H   0  0  0  0  0  0  0  0  0  0  0  0
   -4.1980   17.2950  -35.6510 H   0  0  0  0  0  0  0  0  0  0  0  0
   -3.3220   15.7720  -35.2850 H   0  0  0  0  0  0  0  0  0  0  0  0
   -2.2479   20.9411  -33.3362 H   0  0  0  0  0  0  0  0  0  0  0  0
   -3.0410   22.5472  -33.4899 H   0  0  0  0  0  0  0  0  0  0  0  0
   -2.8389   20.7130  -31.0874 H   0  0  0  0  0  0  0  0  0  0  0  0
   -2.5799   22.4943  -31.2085 H   0  0  0  0  0  0  0  0  0  0  0  0
   -5.0280   22.1530  -31.9340 H   0  0  0  0  0  0  0  0  0  0  0  0
   -6.3391   21.4298  -32.8635 H   0  0  0  0  0  0  0  0  0  0  0  0
  1  2  1  0
  2  3  1  0
  3  4  1  0
  4  5  2  0
  4  6  1  0
  6  7  1  0
  7  8  1  0
  8  9  1  0
  9 10  2  0
 10 11  1  0
 11 12  1  0
 12 13  1  0
 13 14  2  0
 14 15  1  0
 15 16  2  0
 16 17  1  0
 17 18  2  0
 18 19  1  0
 19 20  1  0
 19 21  2  0
 18 22  1  0
 22 23  1  0
 23 24  2  0
 23 25  1  0
 25 26  1  0
 26 27  1  0
 27 28  1  0
 22 29  1  0
 29 30  2  0
 11 31  1  0
 31 32  2  0
 32  9  1  0
 30 13  1  0
 29 16  1  0
  1 33  1  0
  1 34  1  0
  1 35  1  0
  2 36  1  0
  2 37  1  0
  6 38  1  0
  7 39  1  0
  7 40  1  0
  8 41  1  0
  8 42  1  0
 10 43  1  0
 12 44  1  0
 12 45  1  0
 14 46  1  0
 15 47  1  0
 17 48  1  0
 20 49  1  0
 20 50  1  0
 26 51  1  0
 26 52  1  0
 27 53  1  0
 27 54  1  0
 28 55  1  0
 30 56  1  0
M  END
>  <UniqueID>  (26) 
26

>  <SMILES>  (26) 
CCOC(=S)NCCc1cn(Cc2ccc3cc(C(N)=O)n(C(=O)OCCO)c3c2)nn1

>  <Energy>  (26) 
114.58845811880816

>  <Genealogy>  (26) 
CCOC(=S)NCCc1cn(Cc2ccc3cc(C(N)=O)n(C(=O)OCCO)c3c2)nn1 (3D coordinates assigned)
CCOC(=S)NCCc1cn(Cc2ccc3cc(C(N)=O)n(C(=O)OCCO)c3c2)nn1 (optimized conformer: 114.58845811880816 kcal/mol)

>  <smiles>  (26) 
CCOC(=S)NCCc1cn(Cc2ccc3cc(C(N)=O)n(C(=O)OCCO)c3c2)nn1

>  <score_type>  (26) 
oracle

>  <origin>  (26) 
adg

>  <m_score__min__energy>  (26) 
-8.8800000000000008

>  <m_primary>  (26) 
energy

$$$$
26:0
     RDKit          3D

 24 25  0  0  0  0  0  0  0  0999 V2000
   -1.6780   25.6870  -28.9400 N   0  0  0  0  0  0  0  0  0  0  0  0
   -1.0810   24.4370  -29.2770 C   0  0  0  0  0  0  0  0  0  0  0  0
    0.0740   24.1720  -28.8500 O   0  0  0  0  0  0  0  0  0  0  0  0
   -1.8180   23.4310  -30.0690 C   0  0  0  0  0  0  0  0  0  0  0  0
   -1.2490   22.2360  -30.5050 C   0  0  0  0  0  0  0  0  0  0  0  0
   -2.2700   21.5490  -31.1190 C   0  0  0  0  0  0  0  0  0  0  0  0
   -2.2590   20.3100  -31.7530 C   0  0  0  0  0  0  0  0  0  0  0  0
   -3.4530   19.8600  -32.3400 C   0  0  0  0  0  0  0  0  0  0  0  0
   -4.6350   20.6430  -32.2750 C   0  0  0  0  0  0  0  0  0  0  0  0
   -5.8930   20.1770  -32.9630 C   0  0  0  0  0  0  0  0  0  0  0  0
   -6.5040   19.1720  -32.2330 F   0  0  0  0  0  0  0  0  0  0  0  0
   -6.7910   21.2210  -33.0980 F   0  0  0  0  0  0  0  0  0  0  0  0
   -5.5720   19.6930  -34.2170 F   0  0  0  0  0  0  0  0  0  0  0  0
   -4.5970   21.9080  -31.6430 C   0  0  0  0  0  0  0  0  0  0  0  0
   -3.3990   22.3230  -31.0500 C   0  0  0  0  0  0  0  0  0  0  0  0
   -3.1370   23.4850  -30.4120 N   0  0  0  0  0  0  0  0  0  0  0  0
   -4.0520   24.5770  -30.2240 C   0  0  0  0  0  0  0  0  0  0  0  0
   -3.8640   25.6740  -30.8120 O   0  0  0  0  0  0  0  0  0  0  0  0
   -5.1690   24.4240  -29.4120 O   0  0  0  0  0  0  0  0  0  0  0  0
   -2.7130   25.8170  -28.9830 H   0  0  0  0  0  0  0  0  0  0  0  0
   -0.2051   21.9112  -30.3838 H   0  0  0  0  0  0  0  0  0  0  0  0
   -1.3433   19.7019  -31.7931 H   0  0  0  0  0  0  0  0  0  0  0  0
   -3.4723   18.8889  -32.8564 H   0  0  0  0  0  0  0  0  0  0  0  0
   -5.4890   22.5512  -31.6181 H   0  0  0  0  0  0  0  0  0  0  0  0
  1  2  1  0
  2  3  2  0
  2  4  1  0
  4  5  2  0
  5  6  1  0
  6  7  2  0
  7  8  1  0
  8  9  2  0
  9 10  1  0
 10 11  1  0
 10 12  1  0
 10 13  1  0
  9 14  1  0
 14 15  2  0
 15 16  1  0
 16 17  1  0
 17 18  2  0
 17 19  1  0
 16  4  1  0
 15  6  1  0
  1 20  1  0
  5 21  1  0
  7 22  1  0
  8 23  1  0
 14 24  1  0
M  CHG  2   1  -1  19  -1
M  END
>  <UniqueID>  (27) 
27

>  <SMILES>  (27) 
[NH-]C(=O)c1cc2ccc(C(F)(F)F)cc2n1C(=O)[O-]

>  <Energy>  (27) 
65.2226382779575

>  <Genealogy>  (27) 
[NH-]C(=O)c1cc2ccc(C(F)(F)F)cc2n1C(=O)[O-] (protonated)
[NH-]C(=O)c1cc2ccc(C(F)(F)F)cc2n1C(=O)[O-] (3D coordinates assigned)
[NH-]C(=O)c1cc2ccc(C(F)(F)F)cc2n1C(=O)[O-] (optimized conformer: 65.2226382779575 kcal/mol)

>  <smiles>  (27) 
NC(=O)c1cc2ccc(C(F)(F)F)cc2n1C(=O)O

>  <score_type>  (27) 
oracle

>  <origin>  (27) 
adg

>  <m_score__min__energy>  (27) 
-9.5

>  <m_primary>  (27) 
energy

$$$$
27:0
     RDKit          3D

 42 44  0  0  0  0  0  0  0  0999 V2000
   -4.1760   25.6720  -30.8330 N   0  0  0  0  0  0  0  0  0  0  0  0
   -5.4120   25.1010  -30.4090 C   0  0  0  0  0  0  0  0  0  0  0  0
   -6.1350   25.7320  -29.5940 O   0  0  0  0  0  0  0  0  0  0  0  0
   -5.8040   23.7600  -30.8910 C   0  0  0  0  0  0  0  0  0  0  0  0
   -7.0870   23.4540  -31.3370 C   0  0  0  0  0  0  0  0  0  0  0  0
   -7.0160   22.1580  -31.7930 C   0  0  0  0  0  0  0  0  0  0  0  0
   -8.0020   21.3500  -32.3510 C   0  0  0  0  0  0  0  0  0  0  0  0
   -7.6510   20.0430  -32.7260 C   0  0  0  0  0  0  0  0  0  0  0  0
   -6.3310   19.5610  -32.5300 C   0  0  0  0  0  0  0  0  0  0  0  0
   -5.9670   18.1770  -32.9270 C   0  0  0  0  0  0  0  0  0  0  0  0
   -4.6480   17.7100  -32.7740 C   0  0  0  0  0  0  0  0  0  0  0  0
   -4.3090   16.4070  -33.1510 C   0  0  0  0  0  0  0  0  0  0  0  0
   -3.0330   15.9710  -33.0030 F   0  0  0  0  0  0  0  0  0  0  0  0
   -5.2820   15.5550  -33.6830 C   0  0  0  0  0  0  0  0  0  0  0  0
   -4.9500   14.2910  -34.0480 F   0  0  0  0  0  0  0  0  0  0  0  0
   -6.5950   16.0060  -33.8400 C   0  0  0  0  0  0  0  0  0  0  0  0
   -7.5410   15.1810  -34.3520 F   0  0  0  0  0  0  0  0  0  0  0  0
   -6.9380   17.3090  -33.4650 C   0  0  0  0  0  0  0  0  0  0  0  0
   -5.3600   20.4120  -31.9520 C   0  0  0  0  0  0  0  0  0  0  0  0
   -5.7310   21.7180  -31.6110 C   0  0  0  0  0  0  0  0  0  0  0  0
   -4.9730   22.6890  -31.0510 N   0  0  0  0  0  0  0  0  0  0  0  0
   -3.5890   22.5770  -30.6800 C   0  0  0  0  0  0  0  0  0  0  0  0
   -2.6940   23.0990  -31.4010 O   0  0  0  0  0  0  0  0  0  0  0  0
   -3.2410   21.9140  -29.5000 O   0  0  0  0  0  0  0  0  0  0  0  0
   -3.6240   22.3710  -28.2080 C   0  0  0  0  0  0  0  0  0  0  0  0
   -3.6430   23.9010  -28.1750 C   0  0  0  0  0  0  0  0  0  0  0  0
   -2.2360   24.5050  -28.1710 C   0  0  0  0  0  0  0  0  0  0  0  0
   -2.0270   25.2550  -29.3370 O   0  0  0  0  0  0  0  0  0  0  0  0
   -3.3010   25.1030  -30.8550 H   0  0  0  0  0  0  0  0  0  0  0  0
   -7.9702   24.1096  -31.3269 H   0  0  0  0  0  0  0  0  0  0  0  0
   -9.0265   21.7242  -32.4942 H   0  0  0  0  0  0  0  0  0  0  0  0
   -8.4084   19.3851  -33.1771 H   0  0  0  0  0  0  0  0  0  0  0  0
   -3.8784   18.3749  -32.3548 H   0  0  0  0  0  0  0  0  0  0  0  0
   -7.9733   17.6588  -33.5909 H   0  0  0  0  0  0  0  0  0  0  0  0
   -4.3349   20.0549  -31.7742 H   0  0  0  0  0  0  0  0  0  0  0  0
   -4.6279   21.9896  -27.9701 H   0  0  0  0  0  0  0  0  0  0  0  0
   -2.8986   22.0041  -27.4669 H   0  0  0  0  0  0  0  0  0  0  0  0
   -4.1812   24.2663  -29.0621 H   0  0  0  0  0  0  0  0  0  0  0  0
   -4.1416   24.2090  -27.2441 H   0  0  0  0  0  0  0  0  0  0  0  0
   -2.1239   25.1589  -27.2936 H   0  0  0  0  0  0  0  0  0  0  0  0
   -1.4966   23.6915  -28.1305 H   0  0  0  0  0  0  0  0  0  0  0  0
   -2.3810   24.7060  -30.0840 H   0  0  0  0  0  0  0  0  0  0  0  0
  1  2  1  0
  2  3  2  0
  2  4  1  0
  4  5  2  0
  5  6  1  0
  6  7  2  0
  7  8  1  0
  8  9  2  0
  9 10  1  0
 10 11  2  0
 11 12  1  0
 12 13  1  0
 12 14  2  0
 14 15  1  0
 14 16  1  0
 16 17  1  0
 16 18  2  0
  9 19  1  0
 19 20  2  0
 20 21  1  0
 21 22  1  0
 22 23  2  0
 22 24  1  0
 24 25  1  0
 25 26  1  0
 26 27  1  0
 27 28  1  0
 21  4  1  0
 20  6  1  0
 18 10  1  0
  1 29  1  0
  5 30  1  0
  7 31  1  0
  8 32  1  0
 11 33  1  0
 18 34  1  0
 19 35  1  0
 25 36  1  0
 25 37  1  0
 26 38  1  0
 26 39  1  0
 27 40  1  0
 27 41  1  0
 28 42  1  0
M  CHG  1   1  -1
M  END
>  <UniqueID>  (28) 
28

>  <SMILES>  (28) 
[NH-]C(=O)c1cc2ccc(-c3cc(F)c(F)c(F)c3)cc2n1C(=O)OCCCO

>  <Energy>  (28) 
81.67441376135483

>  <Genealogy>  (28) 
[NH-]C(=O)c1cc2ccc(-c3cc(F)c(F)c(F)c3)cc2n1C(=O)OCCCO (protonated)
[NH-]C(=O)c1cc2ccc(-c3cc(F)c(F)c(F)c3)cc2n1C(=O)OCCCO (3D coordinates assigned)
[NH-]C(=O)c1cc2ccc(-c3cc(F)c(F)c(F)c3)cc2n1C(=O)OCCCO (optimized conformer: 81.67441376135483 kcal/mol)

>  <smiles>  (28) 
NC(=O)c1cc2ccc(-c3cc(F)c(F)c(F)c3)cc2n1C(=O)OCCCO

>  <score_type>  (28) 
oracle

>  <origin>  (28) 
adg

>  <m_score__min__energy>  (28) 
-10.91

>  <m_primary>  (28) 
energy

$$$$
28:0
     RDKit          3D

 54 56  0  0  0  0  0  0  0  0999 V2000
   -4.1440   24.5610  -26.7180 C   0  0  0  0  0  0  0  0  0  0  0  0
   -3.8950   24.0360  -28.1010 C   0  0  0  0  0  0  0  0  0  0  0  0
   -2.7600   24.1850  -28.6240 O   0  0  0  0  0  0  0  0  0  0  0  0
   -4.9160   23.3570  -28.8430 N   0  0  0  0  0  0  0  0  0  0  0  0
   -5.4520   23.7950  -30.1300 C   0  0  1  0  0  0  0  0  0  0  0  0
   -6.9690   23.5430  -30.1520 C   0  0  0  0  0  0  0  0  0  0  0  0
   -7.3050   22.2180  -30.7860 C   0  0  0  0  0  0  0  0  0  0  0  0
   -8.6410   21.7400  -30.7750 C   0  0  0  0  0  0  0  0  0  0  0  0
   -8.9700   20.5230  -31.3970 C   0  0  0  0  0  0  0  0  0  0  0  0
   -7.9460   19.8050  -32.0090 C   0  0  0  0  0  0  0  0  0  0  0  0
   -7.9900   18.6280  -32.7210 C   0  0  0  0  0  0  0  0  0  0  0  0
   -6.6800   18.4000  -33.1350 C   0  0  0  0  0  0  0  0  0  0  0  0
   -6.3020   17.3420  -34.0860 C   0  0  0  0  0  0  0  0  0  0  0  0
   -5.5190   17.6340  -35.2410 N   0  0  0  0  0  0  0  0  0  0  0  0
   -6.6360   16.1500  -33.8460 O   0  0  0  0  0  0  0  0  0  0  0  0
   -5.8610   19.3980  -32.7010 N   0  0  0  0  0  0  0  0  0  0  0  0
   -4.4810   19.6070  -33.0370 C   0  0  0  0  0  0  0  0  0  0  0  0
   -4.0910   19.3890  -34.2150 O   0  0  0  0  0  0  0  0  0  0  0  0
   -3.5030   20.0850  -32.0010 C   0  0  0  0  0  0  0  0  0  0  0  0
   -2.8750   21.4540  -32.3550 C   0  0  0  0  0  0  0  0  0  0  0  0
   -1.5310   21.2780  -33.0850 C   0  0  0  0  0  0  0  0  0  0  0  0
   -0.4120   20.9060  -32.1040 C   0  0  0  0  0  0  0  0  0  0  0  0
   -0.2800   21.8920  -31.0980 O   0  0  0  0  0  0  0  0  0  0  0  0
   -1.4460   21.9210  -30.2960 C   0  0  0  0  0  0  0  0  0  0  0  0
   -2.6700   22.3550  -31.1160 C   0  0  0  0  0  0  0  0  0  0  0  0
   -6.6520   20.2560  -32.0280 C   0  0  0  0  0  0  0  0  0  0  0  0
   -6.3000   21.4740  -31.4400 C   0  0  0  0  0  0  0  0  0  0  0  0
   -5.1470   25.2530  -30.3420 C   0  0  0  0  0  0  0  0  0  0  0  0
   -3.8730   25.6540  -30.8440 N   0  0  0  0  0  0  0  0  0  0  0  0
   -6.0120   26.1240  -30.0600 O   0  0  0  0  0  0  0  0  0  0  0  0
   -3.7951   23.8254  -25.9782 H   0  0  0  0  0  0  0  0  0  0  0  0
   -3.5982   25.5062  -26.5808 H   0  0  0  0  0  0  0  0  0  0  0  0
   -5.2212   24.7364  -26.5808 H   0  0  0  0  0  0  0  0  0  0  0  0
   -4.9829   23.2262  -30.9464 H   0  0  0  0  0  0  0  0  0  0  0  0
   -7.3464   23.5497  -29.1188 H   0  0  0  0  0  0  0  0  0  0  0  0
   -7.4399   24.3379  -30.7490 H   0  0  0  0  0  0  0  0  0  0  0  0
   -9.4260   22.3268  -30.2755 H   0  0  0  0  0  0  0  0  0  0  0  0
  -10.0046   20.1494  -31.4001 H   0  0  0  0  0  0  0  0  0  0  0  0
   -8.8717   18.0012  -32.9205 H   0  0  0  0  0  0  0  0  0  0  0  0
   -5.0590   18.5620  -35.3490 H   0  0  0  0  0  0  0  0  0  0  0  0
   -5.2940   16.8830  -35.9310 H   0  0  0  0  0  0  0  0  0  0  0  0
   -4.0277   20.1775  -31.0387 H   0  0  0  0  0  0  0  0  0  0  0  0
   -2.6868   19.3492  -31.9520 H   0  0  0  0  0  0  0  0  0  0  0  0
   -3.5938   21.9528  -33.0217 H   0  0  0  0  0  0  0  0  0  0  0  0
   -1.6316   20.4791  -33.8344 H   0  0  0  0  0  0  0  0  0  0  0  0
   -1.2690   22.2312  -33.5674 H   0  0  0  0  0  0  0  0  0  0  0  0
   -0.6502   19.9404  -31.6340 H   0  0  0  0  0  0  0  0  0  0  0  0
    0.5357   20.8375  -32.6583 H   0  0  0  0  0  0  0  0  0  0  0  0
   -1.6257   20.9159  -29.8867 H   0  0  0  0  0  0  0  0  0  0  0  0
   -1.2938   22.6474  -29.4841 H   0  0  0  0  0  0  0  0  0  0  0  0
   -3.5652   22.2954  -30.4795 H   0  0  0  0  0  0  0  0  0  0  0  0
   -2.5026   23.3849  -31.4642 H   0  0  0  0  0  0  0  0  0  0  0  0
   -5.2650   21.8436  -31.4859 H   0  0  0  0  0  0  0  0  0  0  0  0
   -2.9920   25.2940  -30.4160 H   0  0  0  0  0  0  0  0  0  0  0  0
  1  2  1  0
  2  3  2  0
  2  4  1  0
  4  5  1  0
  5  6  1  0
  6  7  1  0
  7  8  2  0
  8  9  1  0
  9 10  2  0
 10 11  1  0
 11 12  2  0
 12 13  1  0
 13 14  1  0
 13 15  2  0
 12 16  1  0
 16 17  1  0
 17 18  2  0
 17 19  1  0
 19 20  1  0
 20 21  1  0
 21 22  1  0
 22 23  1  0
 23 24  1  0
 24 25  1  0
 16 26  1  0
 26 27  2  0
  5 28  1  0
 28 29  1  0
 28 30  2  0
 27  7  1  0
 26 10  1  0
 25 20  1  0
  1 31  1  0
  1 32  1  0
  1 33  1  0
  5 34  1  6
  6 35  1  0
  6 36  1  0
  8 37  1  0
  9 38  1  0
 11 39  1  0
 14 40  1  0
 14 41  1  0
 19 42  1  0
 19 43  1  0
 20 44  1  0
 21 45  1  0
 21 46  1  0
 22 47  1  0
 22 48  1  0
 24 49  1  0
 24 50  1  0
 25 51  1  0
 25 52  1  0
 27 53  1  0
 29 54  1  0
M  CHG  2   4  -1  29  -1
M  END
>  <UniqueID>  (29) 
29

>  <SMILES>  (29) 
CC(=O)[N-][C@@H](Cc1ccc2cc(C(N)=O)n(C(=O)CC3CCOCC3)c2c1)C([NH-])=O

>  <Energy>  (29) 
91.88477274089966

>  <Genealogy>  (29) 
CC(=O)[N-]C(Cc1ccc2cc(C(N)=O)n(C(=O)CC3CCOCC3)c2c1)C([NH-])=O (protonated)
CC(=O)[N-][C@@H](Cc1ccc2cc(C(N)=O)n(C(=O)CC3CCOCC3)c2c1)C([NH-])=O (chirality)
CC(=O)[N-][C@@H](Cc1ccc2cc(C(N)=O)n(C(=O)CC3CCOCC3)c2c1)C([NH-])=O (3D coordinates assigned)
CC(=O)[N-][C@@H](Cc1ccc2cc(C(N)=O)n(C(=O)CC3CCOCC3)c2c1)C([NH-])=O (nonaromatic ring conformer: 91.88477274089966 kcal/mol)

>  <smiles>  (29) 
CC(=O)NC(Cc1ccc2cc(C(N)=O)n(C(=O)CC3CCOCC3)c2c1)C(N)=O

>  <score_type>  (29) 
oracle

>  <origin>  (29) 
adg

>  <m_score__min__energy>  (29) 
-12.640000000000001

>  <m_primary>  (29) 
energy

$$$$
29:0
     RDKit          3D

 40 41  0  0  0  0  0  0  0  0999 V2000
   -6.1540   17.1910  -31.0400 C   0  0  0  0  0  0  0  0  0  0  0  0
   -6.1630   17.6200  -32.5220 C   0  0  1  0  0  0  0  0  0  0  0  0
   -6.1490   16.3740  -33.3780 C   0  0  0  0  0  0  0  0  0  0  0  0
   -5.2210   15.5300  -33.2610 O   0  0  0  0  0  0  0  0  0  0  0  0
   -7.1540   16.1620  -34.3150 O   0  0  0  0  0  0  0  0  0  0  0  0
   -7.3310   18.4830  -32.8580 N   0  0  1  0  0  0  0  0  0  0  0  0
   -8.4680   18.2820  -31.9370 C   0  0  0  0  0  0  0  0  0  0  0  0
   -6.9600   19.8900  -32.8220 C   0  0  0  0  0  0  0  0  0  0  0  0
   -7.6050   20.6750  -32.1390 O   0  0  0  0  0  0  0  0  0  0  0  0
   -5.8270   20.4190  -33.6680 C   0  0  0  0  0  0  0  0  0  0  0  0
   -4.6470   20.7950  -32.8120 C   0  0  0  0  0  0  0  0  0  0  0  0
   -3.5280   19.9300  -32.7170 C   0  0  0  0  0  0  0  0  0  0  0  0
   -2.4310   20.2630  -31.9040 C   0  0  0  0  0  0  0  0  0  0  0  0
   -2.4880   21.4580  -31.1920 C   0  0  0  0  0  0  0  0  0  0  0  0
   -1.5590   22.0330  -30.3550 C   0  0  0  0  0  0  0  0  0  0  0  0
   -2.1350   23.2290  -29.9310 C   0  0  0  0  0  0  0  0  0  0  0  0
   -1.5020   24.1290  -28.9430 C   0  0  0  0  0  0  0  0  0  0  0  0
   -1.6960   25.5400  -29.0070 N   0  0  0  0  0  0  0  0  0  0  0  0
   -0.8190   23.6430  -28.0030 O   0  0  0  0  0  0  0  0  0  0  0  0
   -3.3690   23.3920  -30.4900 N   0  0  0  0  0  0  0  0  0  0  0  0
   -4.2500   24.5210  -30.3740 C   0  0  0  0  0  0  0  0  0  0  0  0
   -3.8780   25.6590  -30.7600 O   0  0  0  0  0  0  0  0  0  0  0  0
   -5.5320   24.3590  -29.8650 O   0  0  0  0  0  0  0  0  0  0  0  0
   -3.5700   22.2970  -31.2570 C   0  0  0  0  0  0  0  0  0  0  0  0
   -4.6680   21.9970  -32.0710 C   0  0  0  0  0  0  0  0  0  0  0  0
   -6.1728   18.0850  -30.3994 H   0  0  0  0  0  0  0  0  0  0  0  0
   -7.0394   16.5722  -30.8320 H   0  0  0  0  0  0  0  0  0  0  0  0
   -5.2435   16.6099  -30.8320 H   0  0  0  0  0  0  0  0  0  0  0  0
   -5.2684   18.2292  -32.7186 H   0  0  0  0  0  0  0  0  0  0  0  0
   -7.6620   18.2320  -33.8200 H   0  0  0  0  0  0  0  0  0  0  0  0
   -8.1134   18.3447  -30.8976 H   0  0  0  0  0  0  0  0  0  0  0  0
   -9.2250   19.0602  -32.1137 H   0  0  0  0  0  0  0  0  0  0  0  0
   -8.9123   17.2914  -32.1137 H   0  0  0  0  0  0  0  0  0  0  0  0
   -5.5195   19.6427  -34.3842 H   0  0  0  0  0  0  0  0  0  0  0  0
   -6.1753   21.3166  -34.2000 H   0  0  0  0  0  0  0  0  0  0  0  0
   -3.5182   18.9883  -33.2855 H   0  0  0  0  0  0  0  0  0  0  0  0
   -1.5556   19.6008  -31.8326 H   0  0  0  0  0  0  0  0  0  0  0  0
   -0.5719   21.6335  -30.0794 H   0  0  0  0  0  0  0  0  0  0  0  0
   -2.6550   25.9530  -28.9710 H   0  0  0  0  0  0  0  0  0  0  0  0
   -5.5271   22.6812  -32.1322 H   0  0  0  0  0  0  0  0  0  0  0  0
  1  2  1  0
  2  3  1  0
  3  4  2  0
  3  5  1  0
  2  6  1  0
  6  7  1  0
  6  8  1  0
  8  9  2  0
  8 10  1  0
 10 11  1  0
 11 12  2  0
 12 13  1  0
 13 14  2  0
 14 15  1  0
 15 16  2  0
 16 17  1  0
 17 18  1  0
 17 19  2  0
 16 20  1  0
 20 21  1  0
 21 22  2  0
 21 23  1  0
 20 24  1  0
 24 25  2  0
 25 11  1  0
 24 14  1  0
  1 26  1  0
  1 27  1  0
  1 28  1  0
  2 29  1  6
  6 30  1  6
  7 31  1  0
  7 32  1  0
  7 33  1  0
 10 34  1  0
 10 35  1  0
 12 36  1  0
 13 37  1  0
 15 38  1  0
 18 39  1  0
 25 40  1  0
M  CHG  4   5  -1   6   1  18  -1  23  -1
M  END
>  <UniqueID>  (30) 
30

>  <SMILES>  (30) 
C[C@@H](C(=O)[O-])[N@@H+](C)C(=O)Cc1ccc2cc(C([NH-])=O)n(C(=O)[O-])c2c1

>  <Energy>  (30) 
80.30892280584771

>  <Genealogy>  (30) 
CC(C(=O)[O-])[NH+](C)C(=O)Cc1ccc2cc(C([NH-])=O)n(C(=O)[O-])c2c1 (protonated)
C[C@@H](C(=O)[O-])[N@@H+](C)C(=O)Cc1ccc2cc(C([NH-])=O)n(C(=O)[O-])c2c1 (chirality)
C[C@@H](C(=O)[O-])[N@@H+](C)C(=O)Cc1ccc2cc(C([NH-])=O)n(C(=O)[O-])c2c1 (3D coordinates assigned)
C[C@@H](C(=O)[O-])[N@@H+](C)C(=O)Cc1ccc2cc(C([NH-])=O)n(C(=O)[O-])c2c1 (optimized conformer: 80.30892280584771 kcal/mol)

>  <smiles>  (30) 
CC(C(=O)O)N(C)C(=O)Cc1ccc2cc(C(N)=O)n(C(=O)O)c2c1

>  <score_type>  (30) 
oracle

>  <origin>  (30) 
adg

>  <m_score__min__energy>  (30) 
-10.529999999999999

>  <m_primary>  (30) 
energy

$$$$
30:0
     RDKit          3D

 40 42  0  0  0  0  0  0  0  0999 V2000
   -1.3020   25.8620  -28.9560 N   0  0  0  0  0  0  0  0  0  0  0  0
   -1.5230   24.5280  -28.5050 C   0  0  0  0  0  0  0  0  0  0  0  0
   -1.6370   24.3070  -27.2700 O   0  0  0  0  0  0  0  0  0  0  0  0
   -1.5590   23.3980  -29.4570 C   0  0  0  0  0  0  0  0  0  0  0  0
   -0.6310   22.3590  -29.4440 C   0  0  0  0  0  0  0  0  0  0  0  0
   -0.9490   21.5740  -30.5290 C   0  0  0  0  0  0  0  0  0  0  0  0
   -0.3620   20.3960  -30.9820 C   0  0  0  0  0  0  0  0  0  0  0  0
   -0.9170   19.7790  -32.1150 C   0  0  0  0  0  0  0  0  0  0  0  0
   -2.0370   20.3480  -32.7730 C   0  0  0  0  0  0  0  0  0  0  0  0
   -2.6390   19.6630  -33.9700 C   0  0  0  0  0  0  0  0  0  0  0  0
   -3.6590   18.6460  -33.5360 C   0  0  0  0  0  0  0  0  0  0  0  0
   -3.2980   17.4400  -33.4480 O   0  0  0  0  0  0  0  0  0  0  0  0
   -5.0170   19.0030  -33.2020 N   0  0  0  0  0  0  0  0  0  0  0  0
   -5.4100   20.3830  -32.9590 C   0  0  0  0  0  0  0  0  0  0  0  0
   -6.8960   20.3400  -32.6280 C   0  0  0  0  0  0  0  0  0  0  0  0
   -7.3880   18.9850  -33.1270 C   0  0  0  0  0  0  0  0  0  0  0  0
   -6.1510   18.0870  -33.1640 C   0  0  2  0  0  0  0  0  0  0  0  0
   -6.0810   17.2080  -31.9470 C   0  0  0  0  0  0  0  0  0  0  0  0
   -6.6010   17.5770  -30.8600 O   0  0  0  0  0  0  0  0  0  0  0  0
   -5.4650   15.9660  -32.0250 O   0  0  0  0  0  0  0  0  0  0  0  0
   -2.6120   21.5370  -32.2750 C   0  0  0  0  0  0  0  0  0  0  0  0
   -2.0320   22.1390  -31.1530 C   0  0  0  0  0  0  0  0  0  0  0  0
   -2.4220   23.2590  -30.5040 N   0  0  0  0  0  0  0  0  0  0  0  0
   -3.5830   24.0550  -30.7930 C   0  0  0  0  0  0  0  0  0  0  0  0
   -3.6080   25.2780  -30.4910 O   0  0  0  0  0  0  0  0  0  0  0  0
   -4.6790   23.4890  -31.4330 O   0  0  0  0  0  0  0  0  0  0  0  0
   -1.2360   26.0810  -29.9740 H   0  0  0  0  0  0  0  0  0  0  0  0
    0.1824   22.1999  -28.7208 H   0  0  0  0  0  0  0  0  0  0  0  0
    0.5089   19.9621  -30.4689 H   0  0  0  0  0  0  0  0  0  0  0  0
   -0.4785   18.8449  -32.4959 H   0  0  0  0  0  0  0  0  0  0  0  0
   -3.1256   20.4136  -34.6102 H   0  0  0  0  0  0  0  0  0  0  0  0
   -1.8402   19.1512  -34.5267 H   0  0  0  0  0  0  0  0  0  0  0  0
   -4.8415   20.8000  -32.1146 H   0  0  0  0  0  0  0  0  0  0  0  0
   -5.2084   21.0208  -33.8323 H   0  0  0  0  0  0  0  0  0  0  0  0
   -7.0504   20.4287  -31.5425 H   0  0  0  0  0  0  0  0  0  0  0  0
   -7.4423   21.1703  -33.0993 H   0  0  0  0  0  0  0  0  0  0  0  0
   -8.1413   18.5729  -32.4394 H   0  0  0  0  0  0  0  0  0  0  0  0
   -7.8639   19.0635  -34.1156 H   0  0  0  0  0  0  0  0  0  0  0  0
   -6.1673   17.4103  -34.0311 H   0  0  0  0  0  0  0  0  0  0  0  0
   -3.4955   21.9800  -32.7578 H   0  0  0  0  0  0  0  0  0  0  0  0
  1  2  1  0
  2  3  2  0
  2  4  1  0
  4  5  2  0
  5  6  1  0
  6  7  2  0
  7  8  1  0
  8  9  2  0
  9 10  1  0
 10 11  1  0
 11 12  2  0
 11 13  1  0
 13 14  1  0
 14 15  1  0
 15 16  1  0
 16 17  1  0
 17 18  1  0
 18 19  2  0
 18 20  1  0
  9 21  1  0
 21 22  2  0
 22 23  1  0
 23 24  1  0
 24 25  2  0
 24 26  1  0
 23  4  1  0
 22  6  1  0
 17 13  1  0
  1 27  1  0
  5 28  1  0
  7 29  1  0
  8 30  1  0
 10 31  1  0
 10 32  1  0
 14 33  1  0
 14 34  1  0
 15 35  1  0
 15 36  1  0
 16 37  1  0
 16 38  1  0
 17 39  1  6
 21 40  1  0
M  CHG  3   1  -1  20  -1  26  -1
M  END
>  <UniqueID>  (31) 
31

>  <SMILES>  (31) 
[NH-]C(=O)c1cc2ccc(CC(=O)N3CCC[C@@H]3C(=O)[O-])cc2n1C(=O)[O-]

>  <Energy>  (31) 
80.03046134284716

>  <Genealogy>  (31) 
[NH-]C(=O)c1cc2ccc(CC(=O)N3CCC[C@@H]3C(=O)[O-])cc2n1C(=O)[O-] (protonated)
[NH-]C(=O)c1cc2ccc(CC(=O)N3CCC[C@@H]3C(=O)[O-])cc2n1C(=O)[O-] (3D coordinates assigned)
[NH-]C(=O)c1cc2ccc(CC(=O)N3CCC[C@@H]3C(=O)[O-])cc2n1C(=O)[O-] (nonaromatic ring conformer: 80.03046134284716 kcal/mol)

>  <smiles>  (31) 
NC(=O)c1cc2ccc(CC(=O)N3CCC[C@@H]3C(=O)O)cc2n1C(=O)O

>  <score_type>  (31) 
oracle

>  <origin>  (31) 
adg

>  <m_score__min__energy>  (31) 
-12.01

>  <m_primary>  (31) 
energy

$$$$
31:0
     RDKit          3D

 37 38  0  0  0  0  0  0  0  0999 V2000
   -4.2460   25.5330  -30.6170 N   0  0  0  0  0  0  0  0  0  0  0  0
   -5.5550   25.0980  -30.2440 C   0  0  0  0  0  0  0  0  0  0  0  0
   -6.2050   25.7590  -29.3910 O   0  0  0  0  0  0  0  0  0  0  0  0
   -6.1310   23.8540  -30.7900 C   0  0  0  0  0  0  0  0  0  0  0  0
   -7.4790   23.7080  -31.1050 C   0  0  0  0  0  0  0  0  0  0  0  0
   -7.6150   22.4040  -31.5210 C   0  0  0  0  0  0  0  0  0  0  0  0
   -8.7400   21.7280  -31.9850 C   0  0  0  0  0  0  0  0  0  0  0  0
   -8.5810   20.3990  -32.4100 C   0  0  0  0  0  0  0  0  0  0  0  0
   -7.3120   19.7720  -32.3600 C   0  0  0  0  0  0  0  0  0  0  0  0
   -7.1400   18.3720  -32.8930 C   0  0  0  0  0  0  0  0  0  0  0  0
   -5.6970   18.1120  -33.3410 C   0  0  0  0  0  0  0  0  0  0  0  0
   -5.5920   16.8540  -34.1480 C   0  0  0  0  0  0  0  0  0  0  0  0
   -6.6410   16.2540  -34.5110 O   0  0  0  0  0  0  0  0  0  0  0  0
   -4.3270   16.3220  -34.4250 O   0  0  0  0  0  0  0  0  0  0  0  0
   -3.4660   15.7710  -33.4310 C   0  0  0  0  0  0  0  0  0  0  0  0
   -4.2150   14.7660  -32.5580 C   0  0  0  0  0  0  0  0  0  0  0  0
   -4.9710   15.4240  -31.6060 F   0  0  0  0  0  0  0  0  0  0  0  0
   -5.0470   13.9890  -33.3430 F   0  0  0  0  0  0  0  0  0  0  0  0
   -3.3050   13.9460  -31.9170 F   0  0  0  0  0  0  0  0  0  0  0  0
   -6.1920   20.4900  -31.8830 C   0  0  0  0  0  0  0  0  0  0  0  0
   -6.3800   21.8110  -31.4560 C   0  0  0  0  0  0  0  0  0  0  0  0
   -5.4540   22.6920  -31.0140 N   0  0  0  0  0  0  0  0  0  0  0  0
   -4.0330   22.4850  -30.9410 C   0  0  0  0  0  0  0  0  0  0  0  0
   -3.5630   21.4750  -30.3540 O   0  0  0  0  0  0  0  0  0  0  0  0
   -3.1610   23.3940  -31.5270 O   0  0  0  0  0  0  0  0  0  0  0  0
   -3.6210   24.9260  -31.1910 H   0  0  0  0  0  0  0  0  0  0  0  0
   -3.8690   26.4340  -30.2480 H   0  0  0  0  0  0  0  0  0  0  0  0
   -8.2671   24.4722  -31.0360 H   0  0  0  0  0  0  0  0  0  0  0  0
   -9.7234   22.2198  -32.0177 H   0  0  0  0  0  0  0  0  0  0  0  0
   -9.4505   19.8395  -32.7854 H   0  0  0  0  0  0  0  0  0  0  0  0
   -7.4031   17.6541  -32.1022 H   0  0  0  0  0  0  0  0  0  0  0  0
   -7.7981   18.2531  -33.7663 H   0  0  0  0  0  0  0  0  0  0  0  0
   -5.3544   18.9593  -33.9532 H   0  0  0  0  0  0  0  0  0  0  0  0
   -5.0713   18.0000  -32.4433 H   0  0  0  0  0  0  0  0  0  0  0  0
   -2.6248   15.2626  -33.9248 H   0  0  0  0  0  0  0  0  0  0  0  0
   -3.0993   16.5875  -32.7916 H   0  0  0  0  0  0  0  0  0  0  0  0
   -5.1967   20.0229  -31.8479 H   0  0  0  0  0  0  0  0  0  0  0  0
  1  2  1  0
  2  3  2  0
  2  4  1  0
  4  5  2  0
  5  6  1  0
  6  7  2  0
  7  8  1  0
  8  9  2  0
  9 10  1  0
 10 11  1  0
 11 12  1  0
 12 13  2  0
 12 14  1  0
 14 15  1  0
 15 16  1  0
 16 17  1  0
 16 18  1  0
 16 19  1  0
  9 20  1  0
 20 21  2  0
 21 22  1  0
 22 23  1  0
 23 24  2  0
 23 25  1  0
 22  4  1  0
 21  6  1  0
  1 26  1  0
  1 27  1  0
  5 28  1  0
  7 29  1  0
  8 30  1  0
 10 31  1  0
 10 32  1  0
 11 33  1  0
 11 34  1  0
 15 35  1  0
 15 36  1  0
 20 37  1  0
M  CHG  1  25  -1
M  END
>  <UniqueID>  (32) 
32

>  <SMILES>  (32) 
NC(=O)c1cc2ccc(CCC(=O)OCC(F)(F)F)cc2n1C(=O)[O-]

>  <Energy>  (32) 
69.17828960861804

>  <Genealogy>  (32) 
NC(=O)c1cc2ccc(CCC(=O)OCC(F)(F)F)cc2n1C(=O)[O-] (protonated)
NC(=O)c1cc2ccc(CCC(=O)OCC(F)(F)F)cc2n1C(=O)[O-] (3D coordinates assigned)
NC(=O)c1cc2ccc(CCC(=O)OCC(F)(F)F)cc2n1C(=O)[O-] (optimized conformer: 69.17828960861804 kcal/mol)

>  <smiles>  (32) 
NC(=O)c1cc2ccc(CCC(=O)OCC(F)(F)F)cc2n1C(=O)O

>  <score_type>  (32) 
oracle

>  <origin>  (32) 
adg

>  <m_score__min__energy>  (32) 
-7.96

>  <m_primary>  (32) 
energy

$$$$
32:0
     RDKit          3D

 44 46  0  0  0  0  0  0  0  0999 V2000
   -4.1970   25.5490  -30.7240 N   0  0  0  0  0  0  0  0  0  0  0  0
   -5.5540   25.1660  -30.4920 C   0  0  0  0  0  0  0  0  0  0  0  0
   -6.3420   26.0020  -29.9780 O   0  0  0  0  0  0  0  0  0  0  0  0
   -6.0380   23.8090  -30.8450 C   0  0  0  0  0  0  0  0  0  0  0  0
   -7.3830   23.4370  -30.9060 C   0  0  0  0  0  0  0  0  0  0  0  0
   -7.3780   22.0970  -31.2240 C   0  0  0  0  0  0  0  0  0  0  0  0
   -8.4390   21.2110  -31.3940 C   0  0  0  0  0  0  0  0  0  0  0  0
   -8.1360   19.8750  -31.7100 C   0  0  0  0  0  0  0  0  0  0  0  0
   -6.7910   19.4590  -31.8720 C   0  0  0  0  0  0  0  0  0  0  0  0
   -6.4740   18.0220  -32.1840 C   0  0  0  0  0  0  0  0  0  0  0  0
   -5.2660   17.9310  -33.1240 C   0  0  0  0  0  0  0  0  0  0  0  0
   -5.6880   18.0800  -34.5850 C   0  0  0  0  0  0  0  0  0  0  0  0
   -6.2070   19.3640  -34.7900 O   0  0  0  0  0  0  0  0  0  0  0  0
   -5.7430   20.3870  -31.6850 C   0  0  0  0  0  0  0  0  0  0  0  0
   -6.0740   21.7010  -31.3470 C   0  0  0  0  0  0  0  0  0  0  0  0
   -5.2410   22.7380  -31.1150 N   0  0  0  0  0  0  0  0  0  0  0  0
   -3.8080   22.6800  -31.0490 C   0  0  0  0  0  0  0  0  0  0  0  0
   -3.1350   22.7100  -32.1130 O   0  0  0  0  0  0  0  0  0  0  0  0
   -3.0950   22.5850  -29.7250 C   0  0  0  0  0  0  0  0  0  0  0  0
   -1.6080   23.0160  -29.6680 C   0  0  0  0  0  0  0  0  0  0  0  0
   -1.3880   24.4250  -29.2050 C   0  0  0  0  0  0  0  0  0  0  0  0
   -2.2970   25.2870  -29.3440 O   0  0  0  0  0  0  0  0  0  0  0  0
   -0.1670   24.7940  -28.6520 O   0  0  0  0  0  0  0  0  0  0  0  0
   -3.4310   21.3450  -28.8950 C   0  0  0  0  0  0  0  0  0  0  0  0
   -3.9960   22.6980  -28.4910 C   0  0  0  0  0  0  0  0  0  0  0  0
   -3.8680   26.5000  -30.4430 H   0  0  0  0  0  0  0  0  0  0  0  0
   -3.5250   24.9210  -31.2170 H   0  0  0  0  0  0  0  0  0  0  0  0
   -8.2603   24.0784  -30.7361 H   0  0  0  0  0  0  0  0  0  0  0  0
   -9.4810   21.5459  -31.2845 H   0  0  0  0  0  0  0  0  0  0  0  0
   -8.9504   19.1459  -31.8326 H   0  0  0  0  0  0  0  0  0  0  0  0
   -6.2457   17.4902  -31.2485 H   0  0  0  0  0  0  0  0  0  0  0  0
   -7.3442   17.5645  -32.6773 H   0  0  0  0  0  0  0  0  0  0  0  0
   -4.5551   18.7319  -32.8727 H   0  0  0  0  0  0  0  0  0  0  0  0
   -4.7996   16.9430  -32.9960 H   0  0  0  0  0  0  0  0  0  0  0  0
   -4.8148   17.9287  -35.2366 H   0  0  0  0  0  0  0  0  0  0  0  0
   -6.4567   17.3303  -34.8239 H   0  0  0  0  0  0  0  0  0  0  0  0
   -6.8120   19.2940  -35.5740 H   0  0  0  0  0  0  0  0  0  0  0  0
   -4.6925   20.0825  -31.8026 H   0  0  0  0  0  0  0  0  0  0  0  0
   -1.0805   22.3410  -28.9780 H   0  0  0  0  0  0  0  0  0  0  0  0
   -1.2259   22.9612  -30.6981 H   0  0  0  0  0  0  0  0  0  0  0  0
   -4.0971   20.5725  -29.3068 H   0  0  0  0  0  0  0  0  0  0  0  0
   -2.8410   20.5675  -28.3876 H   0  0  0  0  0  0  0  0  0  0  0  0
   -5.0699   22.9034  -28.6115 H   0  0  0  0  0  0  0  0  0  0  0  0
   -3.9830   23.3025  -27.5721 H   0  0  0  0  0  0  0  0  0  0  0  0
  1  2  1  0
  2  3  2  0
  2  4  1  0
  4  5  2  0
  5  6  1  0
  6  7  2  0
  7  8  1  0
  8  9  2  0
  9 10  1  0
 10 11  1  0
 11 12  1  0
 12 13  1  0
  9 14  1  0
 14 15  2  0
 15 16  1  0
 16 17  1  0
 17 18  2  0
 17 19  1  0
 19 20  1  0
 20 21  1  0
 21 22  2  0
 21 23  1  0
 19 24  1  0
 24 25  1  0
 16  4  1  0
 25 19  1  0
 15  6  1  0
  1 26  1  0
  1 27  1  0
  5 28  1  0
  7 29  1  0
  8 30  1  0
 10 31  1  0
 10 32  1  0
 11 33  1  0
 11 34  1  0
 12 35  1  0
 12 36  1  0
 13 37  1  0
 14 38  1  0
 20 39  1  0
 20 40  1  0
 24 41  1  0
 24 42  1  0
 25 43  1  0
 25 44  1  0
M  CHG  1  23  -1
M  END
>  <UniqueID>  (33) 
33

>  <SMILES>  (33) 
NC(=O)c1cc2ccc(CCCO)cc2n1C(=O)C1(CC(=O)[O-])CC1

>  <Energy>  (33) 
346.9172906562455

>  <Genealogy>  (33) 
NC(=O)c1cc2ccc(CCCO)cc2n1C(=O)C1(CC(=O)[O-])CC1 (protonated)
NC(=O)c1cc2ccc(CCCO)cc2n1C(=O)C1(CC(=O)[O-])CC1 (3D coordinates assigned)
NC(=O)c1cc2ccc(CCCO)cc2n1C(=O)C1(CC(=O)[O-])CC1 (nonaromatic ring conformer: 346.9172906562455 kcal/mol)

>  <smiles>  (33) 
NC(=O)c1cc2ccc(CCCO)cc2n1C(=O)C1(CC(=O)O)CC1

>  <score_type>  (33) 
oracle

>  <origin>  (33) 
adg

>  <m_score__min__energy>  (33) 
-11.32

>  <m_primary>  (33) 
energy

$$$$
33:0
     RDKit          3D

 51 53  0  0  0  0  0  0  0  0999 V2000
   -6.8470   23.7890  -32.3250 C   0  0  0  0  0  0  0  0  0  0  0  0
   -6.2150   23.9230  -30.9260 C   0  0  0  0  0  0  0  0  0  0  0  0
   -6.8900   25.0530  -30.1270 C   0  0  0  0  0  0  0  0  0  0  0  0
   -6.3970   22.6010  -30.1660 C   0  0  0  0  0  0  0  0  0  0  0  0
   -4.8040   24.1560  -31.0310 O   0  0  0  0  0  0  0  0  0  0  0  0
   -3.8410   23.9140  -30.0400 C   0  0  0  0  0  0  0  0  0  0  0  0
   -3.9850   24.3610  -28.8700 O   0  0  0  0  0  0  0  0  0  0  0  0
   -2.6930   23.1140  -30.3630 N   0  0  0  0  0  0  0  0  0  0  0  0
   -1.4080   23.2680  -29.9320 C   0  0  0  0  0  0  0  0  0  0  0  0
   -0.8910   24.3870  -29.1180 C   0  0  0  0  0  0  0  0  0  0  0  0
   -1.6310   25.5970  -28.9770 N   0  0  0  0  0  0  0  0  0  0  0  0
    0.2440   24.2910  -28.5800 O   0  0  0  0  0  0  0  0  0  0  0  0
   -0.6000   22.2540  -30.4470 C   0  0  0  0  0  0  0  0  0  0  0  0
   -1.4350   21.4780  -31.2210 C   0  0  0  0  0  0  0  0  0  0  0  0
   -1.1600   20.3410  -31.9720 C   0  0  0  0  0  0  0  0  0  0  0  0
   -2.2220   19.7390  -32.6680 C   0  0  0  0  0  0  0  0  0  0  0  0
   -3.5360   20.2690  -32.5940 C   0  0  0  0  0  0  0  0  0  0  0  0
   -4.6670   19.5900  -33.3580 C   0  0  1  0  0  0  0  0  0  0  0  0
   -4.2950   18.1800  -33.7500 C   0  0  0  0  0  0  0  0  0  0  0  0
   -4.1580   17.8850  -34.9270 O   0  0  0  0  0  0  0  0  0  0  0  0
   -6.0450   19.6270  -32.6330 C   0  0  2  0  0  0  0  0  0  0  0  0
   -6.5310   18.2810  -32.1320 C   0  0  0  0  0  0  0  0  0  0  0  0
   -8.0330   18.4720  -31.9770 C   0  0  0  0  0  0  0  0  0  0  0  0
   -8.4390   19.6260  -32.7890 N   0  0  0  0  0  0  0  0  0  0  0  0
   -7.2330   20.1420  -33.4390 C   0  0  0  0  0  0  0  0  0  0  0  0
   -3.7730   21.4190  -31.8030 C   0  0  0  0  0  0  0  0  0  0  0  0
   -2.6910   22.0170  -31.1490 C   0  0  0  0  0  0  0  0  0  0  0  0
   -7.9184   23.5618  -32.2231 H   0  0  0  0  0  0  0  0  0  0  0  0
   -6.7231   24.7334  -32.8753 H   0  0  0  0  0  0  0  0  0  0  0  0
   -6.3506   22.9761  -32.8753 H   0  0  0  0  0  0  0  0  0  0  0  0
   -6.7748   24.8601  -29.0502 H   0  0  0  0  0  0  0  0  0  0  0  0
   -6.4177   26.0137  -30.3800 H   0  0  0  0  0  0  0  0  0  0  0  0
   -7.9598   25.0925  -30.3800 H   0  0  0  0  0  0  0  0  0  0  0  0
   -6.3705   22.7938  -29.0834 H   0  0  0  0  0  0  0  0  0  0  0  0
   -7.3652   22.1536  -30.4351 H   0  0  0  0  0  0  0  0  0  0  0  0
   -5.5857   21.9086  -30.4351 H   0  0  0  0  0  0  0  0  0  0  0  0
   -2.6050   25.6760  -29.3430 H   0  0  0  0  0  0  0  0  0  0  0  0
    0.4758   22.1055  -30.2722 H   0  0  0  0  0  0  0  0  0  0  0  0
   -0.1427   19.9254  -32.0200 H   0  0  0  0  0  0  0  0  0  0  0  0
   -2.0319   18.8442  -33.2788 H   0  0  0  0  0  0  0  0  0  0  0  0
   -4.8006   20.1896  -34.2705 H   0  0  0  0  0  0  0  0  0  0  0  0
   -4.1469   17.4160  -32.9726 H   0  0  0  0  0  0  0  0  0  0  0  0
   -5.7835   20.3259  -31.8248 H   0  0  0  0  0  0  0  0  0  0  0  0
   -6.3100   17.4882  -32.8618 H   0  0  0  0  0  0  0  0  0  0  0  0
   -6.0424   17.9740  -31.1955 H   0  0  0  0  0  0  0  0  0  0  0  0
   -8.5599   17.5705  -32.3228 H   0  0  0  0  0  0  0  0  0  0  0  0
   -8.2852   18.6455  -30.9204 H   0  0  0  0  0  0  0  0  0  0  0  0
   -9.1140   19.3090  -33.5240 H   0  0  0  0  0  0  0  0  0  0  0  0
   -7.1750   19.7766  -34.4749 H   0  0  0  0  0  0  0  0  0  0  0  0
   -7.2414   21.2415  -33.4720 H   0  0  0  0  0  0  0  0  0  0  0  0
   -4.7871   21.8336  -31.7048 H   0  0  0  0  0  0  0  0  0  0  0  0
  1  2  1  0
  2  3  1  0
  2  4  1  0
  2  5  1  0
  5  6  1  0
  6  7  2  0
  6  8  1  0
  8  9  1  0
  9 10  1  0
 10 11  1  0
 10 12  2  0
  9 13  2  0
 13 14  1  0
 14 15  2  0
 15 16  1  0
 16 17  2  0
 17 18  1  0
 18 19  1  0
 19 20  2  0
 18 21  1  0
 21 22  1  0
 22 23  1  0
 23 24  1  0
 24 25  1  0
 17 26  1  0
 26 27  2  0
 27  8  1  0
 27 14  1  0
 25 21  1  0
  1 28  1  0
  1 29  1  0
  1 30  1  0
  3 31  1  0
  3 32  1  0
  3 33  1  0
  4 34  1  0
  4 35  1  0
  4 36  1  0
 11 37  1  0
 13 38  1  0
 15 39  1  0
 16 40  1  0
 18 41  1  6
 19 42  1  0
 21 43  1  1
 22 44  1  0
 22 45  1  0
 23 46  1  0
 23 47  1  0
 24 48  1  0
 25 49  1  0
 25 50  1  0
 26 51  1  0
M  CHG  1  11  -1
M  END
>  <UniqueID>  (34) 
34

>  <SMILES>  (34) 
CC(C)(C)OC(=O)n1c(C([NH-])=O)cc2ccc([C@@H](C=O)[C@@H]3CCNC3)cc21

>  <Energy>  (34) 
87.9942607900631

>  <Genealogy>  (34) 
CC(C)(C)OC(=O)n1c(C([NH-])=O)cc2ccc(C(C=O)C3CCNC3)cc21 (protonated)
CC(C)(C)OC(=O)n1c(C([NH-])=O)cc2ccc([C@@H](C=O)[C@@H]3CCNC3)cc21 (chirality)
CC(C)(C)OC(=O)n1c(C([NH-])=O)cc2ccc([C@@H](C=O)[C@@H]3CCNC3)cc21 (3D coordinates assigned)
CC(C)(C)OC(=O)n1c(C([NH-])=O)cc2ccc([C@@H](C=O)[C@@H]3CCNC3)cc21 (nonaromatic ring conformer: 87.9942607900631 kcal/mol)

>  <smiles>  (34) 
CC(C)(C)OC(=O)n1c(C(N)=O)cc2ccc(C(C=O)C3CCNC3)cc21

>  <score_type>  (34) 
oracle

>  <origin>  (34) 
adg

>  <m_score__min__energy>  (34) 
-12.130000000000001

>  <m_primary>  (34) 
energy

$$$$
34:0
     RDKit          3D

 38 40  0  0  0  0  0  0  0  0999 V2000
   -8.0030   21.0710  -31.9980 C   0  0  0  0  0  0  0  0  0  0  0  0
   -7.0530   19.9160  -32.0020 C   0  0  0  0  0  0  0  0  0  0  0  0
   -7.4420   18.8010  -31.5630 O   0  0  0  0  0  0  0  0  0  0  0  0
   -5.7170   20.0570  -32.5130 N   0  0  0  0  0  0  0  0  0  0  0  0
   -5.1450   19.3430  -33.5240 C   0  0  0  0  0  0  0  0  0  0  0  0
   -5.8390   18.3720  -34.3940 C   0  0  0  0  0  0  0  0  0  0  0  0
   -6.6170   17.3070  -33.8450 N   0  0  0  0  0  0  0  0  0  0  0  0
   -5.7790   18.5100  -35.6450 O   0  0  0  0  0  0  0  0  0  0  0  0
   -3.7960   19.6630  -33.6490 C   0  0  0  0  0  0  0  0  0  0  0  0
   -3.5540   20.6070  -32.6780 C   0  0  0  0  0  0  0  0  0  0  0  0
   -2.3670   21.2490  -32.3310 C   0  0  0  0  0  0  0  0  0  0  0  0
   -2.3940   22.1360  -31.2420 C   0  0  0  0  0  0  0  0  0  0  0  0
   -3.5940   22.3600  -30.5220 C   0  0  0  0  0  0  0  0  0  0  0  0
   -3.5940   23.2610  -29.3190 C   0  0  0  0  0  0  0  0  0  0  0  0
   -3.2430   24.6560  -29.7250 C   0  0  0  0  0  0  0  0  0  0  0  0
   -2.3440   25.2820  -29.1020 O   0  0  0  0  0  0  0  0  0  0  0  0
   -3.8990   25.2560  -30.8440 N   0  0  0  0  0  0  0  0  0  0  0  0
   -5.2950   25.6730  -30.7960 C   0  0  0  0  0  0  0  0  0  0  0  0
   -5.9940   25.3050  -29.5000 C   0  0  0  0  0  0  0  0  0  0  0  0
   -6.2630   24.5040  -30.7670 C   0  0  0  0  0  0  0  0  0  0  0  0
   -4.7740   21.6790  -30.8960 C   0  0  0  0  0  0  0  0  0  0  0  0
   -4.7270   20.8230  -32.0010 C   0  0  0  0  0  0  0  0  0  0  0  0
   -8.2342   21.3520  -30.9599 H   0  0  0  0  0  0  0  0  0  0  0  0
   -7.5432   21.9258  -32.5156 H   0  0  0  0  0  0  0  0  0  0  0  0
   -8.9305   20.7847  -32.5156 H   0  0  0  0  0  0  0  0  0  0  0  0
   -7.0550   16.6000  -34.4770 H   0  0  0  0  0  0  0  0  0  0  0  0
   -6.8430   17.2710  -32.8280 H   0  0  0  0  0  0  0  0  0  0  0  0
   -3.0765   19.2490  -34.3708 H   0  0  0  0  0  0  0  0  0  0  0  0
   -1.4384   21.0671  -32.8919 H   0  0  0  0  0  0  0  0  0  0  0  0
   -1.4746   22.6619  -30.9452 H   0  0  0  0  0  0  0  0  0  0  0  0
   -4.5937   23.2558  -28.8600 H   0  0  0  0  0  0  0  0  0  0  0  0
   -2.8494   22.8974  -28.5956 H   0  0  0  0  0  0  0  0  0  0  0  0
   -5.1954   26.5928  -31.3910 H   0  0  0  0  0  0  0  0  0  0  0  0
   -5.4224   24.8546  -28.6752 H   0  0  0  0  0  0  0  0  0  0  0  0
   -6.6187   25.8438  -28.7723 H   0  0  0  0  0  0  0  0  0  0  0  0
   -5.8857   23.4747  -30.8579 H   0  0  0  0  0  0  0  0  0  0  0  0
   -7.1626   24.2239  -31.3347 H   0  0  0  0  0  0  0  0  0  0  0  0
   -5.7077   21.8187  -30.3314 H   0  0  0  0  0  0  0  0  0  0  0  0
  1  2  1  0
  2  3  2  0
  2  4  1  0
  4  5  1  0
  5  6  1  0
  6  7  1  0
  6  8  2  0
  5  9  2  0
  9 10  1  0
 10 11  2  0
 11 12  1  0
 12 13  2  0
 13 14  1  0
 14 15  1  0
 15 16  2  0
 15 17  1  0
 17 18  1  0
 18 19  1  0
 19 20  1  0
 13 21  1  0
 21 22  2  0
 22  4  1  0
 22 10  1  0
 20 18  1  0
  1 23  1  0
  1 24  1  0
  1 25  1  0
  7 26  1  0
  7 27  1  0
  9 28  1  0
 11 29  1  0
 12 30  1  0
 14 31  1  0
 14 32  1  0
 18 33  1  0
 19 34  1  0
 19 35  1  0
 20 36  1  0
 20 37  1  0
 21 38  1  0
M  CHG  1  17  -1
M  END
>  <UniqueID>  (35) 
35

>  <SMILES>  (35) 
CC(=O)n1c(C(N)=O)cc2ccc(CC(=O)[N-]C3CC3)cc21

>  <Energy>  (35) 
339.05514542561565

>  <Genealogy>  (35) 
CC(=O)n1c(C(N)=O)cc2ccc(CC(=O)[N-]C3CC3)cc21 (protonated)
CC(=O)n1c(C(N)=O)cc2ccc(CC(=O)[N-]C3CC3)cc21 (3D coordinates assigned)
CC(=O)n1c(C(N)=O)cc2ccc(CC(=O)[N-]C3CC3)cc21 (nonaromatic ring conformer: 339.05514542561565 kcal/mol)

>  <smiles>  (35) 
CC(=O)n1c(C(N)=O)cc2ccc(CC(=O)NC3CC3)cc21

>  <score_type>  (35) 
oracle

>  <origin>  (35) 
adg

>  <m_score__min__energy>  (35) 
-9.3300000000000001

>  <m_primary>  (35) 
energy

$$$$
35:0
     RDKit          3D

 55 57  0  0  0  0  0  0  0  0999 V2000
   -0.3030   18.5730  -34.1690 C   0  0  0  0  0  0  0  0  0  0  0  0
   -1.1870   19.6720  -34.5750 N   0  0  0  0  0  0  0  0  0  0  0  0
   -0.4470   20.9350  -34.6710 C   0  0  0  0  0  0  0  0  0  0  0  0
   -2.5520   19.8160  -33.4850 S   0  0  0  0  0  0  0  0  0  0  0  0
   -2.1300   19.4670  -32.0830 O   0  0  0  0  0  0  0  0  0  0  0  0
   -3.0000   21.2500  -33.4960 O   0  0  0  0  0  0  0  0  0  0  0  0
   -3.9680   18.8060  -33.9360 C   0  0  0  0  0  0  0  0  0  0  0  0
   -4.2840   17.7410  -32.8840 C   0  0  0  0  0  0  0  0  0  0  0  0
   -5.6850   17.3010  -33.0220 N   0  0  0  0  0  0  0  0  0  0  0  0
   -6.4830   18.2170  -33.8520 C   0  0  0  0  0  0  0  0  0  0  0  0
   -7.4360   18.5470  -32.7090 C   0  0  0  0  0  0  0  0  0  0  0  0
   -7.5350   19.9940  -32.2540 C   0  0  0  0  0  0  0  0  0  0  0  0
   -8.7630   20.7110  -32.2190 C   0  0  0  0  0  0  0  0  0  0  0  0
   -8.7980   22.0630  -31.8380 C   0  0  0  0  0  0  0  0  0  0  0  0
   -7.5980   22.6760  -31.4970 C   0  0  0  0  0  0  0  0  0  0  0  0
   -7.3450   23.9750  -31.1200 C   0  0  0  0  0  0  0  0  0  0  0  0
   -5.9690   24.0370  -30.9100 C   0  0  0  0  0  0  0  0  0  0  0  0
   -5.2820   25.2430  -30.4030 C   0  0  0  0  0  0  0  0  0  0  0  0
   -3.8590   25.3080  -30.3450 N   0  0  0  0  0  0  0  0  0  0  0  0
   -5.9610   26.2130  -29.9700 O   0  0  0  0  0  0  0  0  0  0  0  0
   -5.3940   22.8260  -31.1570 N   0  0  0  0  0  0  0  0  0  0  0  0
   -3.9980   22.4860  -31.1240 C   0  0  0  0  0  0  0  0  0  0  0  0
   -3.1430   23.2810  -31.6020 O   0  0  0  0  0  0  0  0  0  0  0  0
   -3.5980   21.2580  -30.5920 O   0  0  0  0  0  0  0  0  0  0  0  0
   -2.7350   21.1490  -29.4650 C   0  0  0  0  0  0  0  0  0  0  0  0
   -1.4140   21.8450  -29.7640 C   0  0  0  0  0  0  0  0  0  0  0  0
   -1.0790   21.6630  -31.1130 O   0  0  0  0  0  0  0  0  0  0  0  0
   -6.4060   22.0040  -31.5120 C   0  0  0  0  0  0  0  0  0  0  0  0
   -6.3380   20.6630  -31.9070 C   0  0  0  0  0  0  0  0  0  0  0  0
   -6.5240   17.6670  -31.8680 C   0  0  0  0  0  0  0  0  0  0  0  0
   -0.2620   18.5220  -33.0709 H   0  0  0  0  0  0  0  0  0  0  0  0
   -0.6921   17.6237  -34.5659 H   0  0  0  0  0  0  0  0  0  0  0  0
    0.7076   18.7496  -34.5659 H   0  0  0  0  0  0  0  0  0  0  0  0
   -0.2277   21.3092  -33.6601 H   0  0  0  0  0  0  0  0  0  0  0  0
    0.4957   20.7674  -35.2124 H   0  0  0  0  0  0  0  0  0  0  0  0
   -1.0541   21.6754  -35.2124 H   0  0  0  0  0  0  0  0  0  0  0  0
   -4.8453   19.4594  -34.0517 H   0  0  0  0  0  0  0  0  0  0  0  0
   -3.7245   18.2876  -34.8752 H   0  0  0  0  0  0  0  0  0  0  0  0
   -3.6152   16.8791  -33.0249 H   0  0  0  0  0  0  0  0  0  0  0  0
   -4.1347   18.1667  -31.8807 H   0  0  0  0  0  0  0  0  0  0  0  0
   -5.9152   19.0871  -34.2132 H   0  0  0  0  0  0  0  0  0  0  0  0
   -6.8999   17.8467  -34.8002 H   0  0  0  0  0  0  0  0  0  0  0  0
   -8.5219   18.4001  -32.8049 H   0  0  0  0  0  0  0  0  0  0  0  0
   -9.6977   20.2003  -32.4939 H   0  0  0  0  0  0  0  0  0  0  0  0
   -9.7464   22.6195  -31.8104 H   0  0  0  0  0  0  0  0  0  0  0  0
   -8.0741   24.7910  -31.0082 H   0  0  0  0  0  0  0  0  0  0  0  0
   -3.2910   25.4330  -31.2130 H   0  0  0  0  0  0  0  0  0  0  0  0
   -3.2096   21.6232  -28.5933 H   0  0  0  0  0  0  0  0  0  0  0  0
   -2.5477   20.0867  -29.2497 H   0  0  0  0  0  0  0  0  0  0  0  0
   -1.5113   22.9202  -29.5532 H   0  0  0  0  0  0  0  0  0  0  0  0
   -0.6240   21.4146  -29.1311 H   0  0  0  0  0  0  0  0  0  0  0  0
   -1.9330   21.4910  -31.5880 H   0  0  0  0  0  0  0  0  0  0  0  0
   -5.3716   20.1390  -31.9469 H   0  0  0  0  0  0  0  0  0  0  0  0
   -5.9789   18.2205  -31.0892 H   0  0  0  0  0  0  0  0  0  0  0  0
   -6.9721   16.8649  -31.2631 H   0  0  0  0  0  0  0  0  0  0  0  0
  1  2  1  0
  2  3  1  0
  2  4  1  0
  4  5  2  0
  4  6  2  0
  4  7  1  0
  7  8  1  0
  8  9  1  0
  9 10  1  0
 10 11  1  0
 11 12  1  0
 12 13  2  0
 13 14  1  0
 14 15  2  0
 15 16  1  0
 16 17  2  0
 17 18  1  0
 18 19  1  0
 18 20  2  0
 17 21  1  0
 21 22  1  0
 22 23  2  0
 22 24  1  0
 24 25  1  0
 25 26  1  0
 26 27  1  0
 21 28  1  0
 28 29  2  0
 11 30  1  0
 30  9  1  0
 29 12  1  0
 28 15  1  0
  1 31  1  0
  1 32  1  0
  1 33  1  0
  3 34  1  0
  3 35  1  0
  3 36  1  0
  7 37  1  0
  7 38  1  0
  8 39  1  0
  8 40  1  0
 10 41  1  0
 10 42  1  0
 11 43  1  0
 13 44  1  0
 14 45  1  0
 16 46  1  0
 19 47  1  0
 25 48  1  0
 25 49  1  0
 26 50  1  0
 26 51  1  0
 27 52  1  0
 29 53  1  0
 30 54  1  0
 30 55  1  0
M  CHG  1  19  -1
M  END
>  <UniqueID>  (36) 
36

>  <SMILES>  (36) 
CN(C)S(=O)(=O)CCN1CC(c2ccc3cc(C([NH-])=O)n(C(=O)OCCO)c3c2)C1

>  <Energy>  (36) 
156.5077715309303

>  <Genealogy>  (36) 
CN(C)S(=O)(=O)CCN1CC(c2ccc3cc(C([NH-])=O)n(C(=O)OCCO)c3c2)C1 (protonated)
CN(C)S(=O)(=O)CCN1CC(c2ccc3cc(C([NH-])=O)n(C(=O)OCCO)c3c2)C1 (3D coordinates assigned)
CN(C)S(=O)(=O)CCN1CC(c2ccc3cc(C([NH-])=O)n(C(=O)OCCO)c3c2)C1 (nonaromatic ring conformer: 156.5077715309303 kcal/mol)

>  <smiles>  (36) 
CN(C)S(=O)(=O)CCN1CC(c2ccc3cc(C(N)=O)n(C(=O)OCCO)c3c2)C1

>  <score_type>  (36) 
oracle

>  <origin>  (36) 
adg

>  <m_score__min__energy>  (36) 
-10.890000000000001

>  <m_primary>  (36) 
energy

$$$$
36:0
     RDKit          3D

 42 44  0  0  0  0  0  0  0  0999 V2000
   -1.4400   19.6030  -31.9180 C   0  0  0  0  0  0  0  0  0  0  0  0
   -1.9720   18.6040  -32.8370 N   0  0  0  0  0  0  0  0  0  0  0  0
   -1.6250   17.1950  -32.8230 C   0  0  0  0  0  0  0  0  0  0  0  0
   -2.3860   16.5630  -34.0060 C   0  0  0  0  0  0  0  0  0  0  0  0
   -3.3700   17.6230  -34.5390 C   0  0  1  0  0  0  0  0  0  0  0  0
   -4.7080   17.2610  -34.2020 O   0  0  0  0  0  0  0  0  0  0  0  0
   -5.7410   18.1910  -34.0470 C   0  0  0  0  0  0  0  0  0  0  0  0
   -5.9990   19.0290  -34.9540 O   0  0  0  0  0  0  0  0  0  0  0  0
   -6.5820   18.1520  -32.8130 C   0  0  0  0  0  0  0  0  0  0  0  0
   -6.8590   19.5500  -32.3380 C   0  0  0  0  0  0  0  0  0  0  0  0
   -8.1880   20.0390  -32.3010 C   0  0  0  0  0  0  0  0  0  0  0  0
   -8.4550   21.3600  -31.9050 C   0  0  0  0  0  0  0  0  0  0  0  0
   -7.3750   22.1670  -31.5580 C   0  0  0  0  0  0  0  0  0  0  0  0
   -7.3480   23.4860  -31.1690 C   0  0  0  0  0  0  0  0  0  0  0  0
   -6.0020   23.7840  -30.9660 C   0  0  0  0  0  0  0  0  0  0  0  0
   -5.5150   25.0820  -30.4490 C   0  0  0  0  0  0  0  0  0  0  0  0
   -4.1890   25.5310  -30.7370 N   0  0  0  0  0  0  0  0  0  0  0  0
   -6.2790   25.8220  -29.7740 O   0  0  0  0  0  0  0  0  0  0  0  0
   -5.2260   22.6930  -31.2210 N   0  0  0  0  0  0  0  0  0  0  0  0
   -3.7910   22.6160  -31.1990 C   0  0  0  0  0  0  0  0  0  0  0  0
   -3.1660   22.0870  -32.1560 O   0  0  0  0  0  0  0  0  0  0  0  0
   -3.0770   23.1430  -30.1300 O   0  0  0  0  0  0  0  0  0  0  0  0
   -6.0830   21.7100  -31.5820 C   0  0  0  0  0  0  0  0  0  0  0  0
   -5.7870   20.4030  -31.9890 C   0  0  0  0  0  0  0  0  0  0  0  0
   -2.9640   18.8480  -33.8120 C   0  0  0  0  0  0  0  0  0  0  0  0
   -3.4480   19.9910  -34.0290 O   0  0  0  0  0  0  0  0  0  0  0  0
   -1.6135   19.2772  -30.8818 H   0  0  0  0  0  0  0  0  0  0  0  0
   -0.3598   19.7206  -32.0894 H   0  0  0  0  0  0  0  0  0  0  0  0
   -1.9453   20.5649  -32.0894 H   0  0  0  0  0  0  0  0  0  0  0  0
   -0.5403   17.0664  -32.9528 H   0  0  0  0  0  0  0  0  0  0  0  0
   -1.8956   16.7209  -31.8680 H   0  0  0  0  0  0  0  0  0  0  0  0
   -1.6785   16.2748  -34.7975 H   0  0  0  0  0  0  0  0  0  0  0  0
   -2.9247   15.6597  -33.6837 H   0  0  0  0  0  0  0  0  0  0  0  0
   -3.3440   17.7396  -35.6325 H   0  0  0  0  0  0  0  0  0  0  0  0
   -7.5336   17.6474  -33.0361 H   0  0  0  0  0  0  0  0  0  0  0  0
   -6.0448   17.6022  -32.0261 H   0  0  0  0  0  0  0  0  0  0  0  0
   -9.0195   19.3774  -32.5853 H   0  0  0  0  0  0  0  0  0  0  0  0
   -9.4850   21.7447  -31.8702 H   0  0  0  0  0  0  0  0  0  0  0  0
   -8.2067   24.1621  -31.0446 H   0  0  0  0  0  0  0  0  0  0  0  0
   -3.5110   24.9250  -31.2490 H   0  0  0  0  0  0  0  0  0  0  0  0
   -3.8670   26.4640  -30.3990 H   0  0  0  0  0  0  0  0  0  0  0  0
   -4.7466   20.0491  -32.0359 H   0  0  0  0  0  0  0  0  0  0  0  0
  1  2  1  0
  2  3  1  0
  3  4  1  0
  4  5  1  0
  5  6  1  0
  6  7  1  0
  7  8  2  0
  7  9  1  0
  9 10  1  0
 10 11  2  0
 11 12  1  0
 12 13  2  0
 13 14  1  0
 14 15  2  0
 15 16  1  0
 16 17  1  0
 16 18  2  0
 15 19  1  0
 19 20  1  0
 20 21  2  0
 20 22  1  0
 19 23  1  0
 23 24  2  0
  5 25  1  0
 25 26  2  0
 25  2  1  0
 24 10  1  0
 23 13  1  0
  1 27  1  0
  1 28  1  0
  1 29  1  0
  3 30  1  0
  3 31  1  0
  4 32  1  0
  4 33  1  0
  5 34  1  6
  9 35  1  0
  9 36  1  0
 11 37  1  0
 12 38  1  0
 14 39  1  0
 17 40  1  0
 17 41  1  0
 24 42  1  0
M  CHG  1  22  -1
M  END
>  <UniqueID>  (37) 
37

>  <SMILES>  (37) 
CN1CC[C@@H](OC(=O)Cc2ccc3cc(C(N)=O)n(C(=O)[O-])c3c2)C1=O

>  <Energy>  (37) 
83.70580441505449

>  <Genealogy>  (37) 
CN1CCC(OC(=O)Cc2ccc3cc(C(N)=O)n(C(=O)[O-])c3c2)C1=O (protonated)
CN1CC[C@@H](OC(=O)Cc2ccc3cc(C(N)=O)n(C(=O)[O-])c3c2)C1=O (chirality)
CN1CC[C@@H](OC(=O)Cc2ccc3cc(C(N)=O)n(C(=O)[O-])c3c2)C1=O (3D coordinates assigned)
CN1CC[C@@H](OC(=O)Cc2ccc3cc(C(N)=O)n(C(=O)[O-])c3c2)C1=O (nonaromatic ring conformer: 83.70580441505449 kcal/mol)

>  <smiles>  (37) 
CN1CCC(OC(=O)Cc2ccc3cc(C(N)=O)n(C(=O)O)c3c2)C1=O

>  <score_type>  (37) 
oracle

>  <origin>  (37) 
adg

>  <m_score__min__energy>  (37) 
-9.3900000000000006

>  <m_primary>  (37) 
energy

$$$$
37:0
     RDKit          3D

 51 53  0  0  0  0  0  0  0  0999 V2000
   -1.7550   20.0440  -32.4640 C   0  0  0  0  0  0  0  0  0  0  0  0
   -3.0020   19.4640  -33.0360 C   0  0  0  0  0  0  0  0  0  0  0  0
   -3.8510   20.1410  -33.8300 N   0  0  0  0  0  0  0  0  0  0  0  0
   -4.8130   19.2920  -34.1530 N   0  0  0  0  0  0  0  0  0  0  0  0
   -4.5100   18.1300  -33.5440 C   0  0  0  0  0  0  0  0  0  0  0  0
   -5.3000   16.8710  -33.6950 C   0  0  0  0  0  0  0  0  0  0  0  0
   -6.1730   16.7230  -32.5800 O   0  0  0  0  0  0  0  0  0  0  0  0
   -6.8170   17.8060  -31.9720 C   0  0  0  0  0  0  0  0  0  0  0  0
   -6.4520   18.2190  -30.8380 O   0  0  0  0  0  0  0  0  0  0  0  0
   -7.8640   18.5480  -32.7350 C   0  0  0  0  0  0  0  0  0  0  0  0
   -7.8300   19.9970  -32.3290 C   0  0  0  0  0  0  0  0  0  0  0  0
   -9.0310   20.6960  -32.0570 C   0  0  0  0  0  0  0  0  0  0  0  0
   -8.9970   22.0210  -31.5880 C   0  0  0  0  0  0  0  0  0  0  0  0
   -7.7520   22.6140  -31.3970 C   0  0  0  0  0  0  0  0  0  0  0  0
   -7.4310   23.8550  -30.8950 C   0  0  0  0  0  0  0  0  0  0  0  0
   -6.0390   23.8980  -30.8780 C   0  0  0  0  0  0  0  0  0  0  0  0
   -5.2690   25.0880  -30.4630 C   0  0  0  0  0  0  0  0  0  0  0  0
   -3.8790   25.2000  -30.7600 N   0  0  0  0  0  0  0  0  0  0  0  0
   -5.8540   26.0390  -29.8810 O   0  0  0  0  0  0  0  0  0  0  0  0
   -5.5170   22.7270  -31.3430 N   0  0  0  0  0  0  0  0  0  0  0  0
   -4.1400   22.3180  -31.3610 C   0  0  0  0  0  0  0  0  0  0  0  0
   -3.3910   22.6840  -32.3050 O   0  0  0  0  0  0  0  0  0  0  0  0
   -3.6350   21.5570  -30.2980 O   0  0  0  0  0  0  0  0  0  0  0  0
   -3.0850   22.0660  -29.0750 C   0  0  0  0  0  0  0  0  0  0  0  0
   -4.1530   22.8400  -28.2800 C   0  0  0  0  0  0  0  0  0  0  0  0
   -2.5010   20.9190  -28.2270 C   0  0  0  0  0  0  0  0  0  0  0  0
   -1.9500   23.0290  -29.4560 C   0  0  0  0  0  0  0  0  0  0  0  0
   -6.5800   21.9550  -31.6620 C   0  0  0  0  0  0  0  0  0  0  0  0
   -6.5860   20.6340  -32.1230 C   0  0  0  0  0  0  0  0  0  0  0  0
   -3.3960   18.2270  -32.8590 O   0  0  0  0  0  0  0  0  0  0  0  0
   -1.8091   20.0188  -31.3656 H   0  0  0  0  0  0  0  0  0  0  0  0
   -0.8887   19.4564  -32.8020 H   0  0  0  0  0  0  0  0  0  0  0  0
   -1.6462   21.0851  -32.8020 H   0  0  0  0  0  0  0  0  0  0  0  0
   -5.8921   16.9183  -34.6208 H   0  0  0  0  0  0  0  0  0  0  0  0
   -4.6153   16.0114  -33.7418 H   0  0  0  0  0  0  0  0  0  0  0  0
   -7.6651   18.4622  -33.8135 H   0  0  0  0  0  0  0  0  0  0  0  0
   -8.8549   18.1234  -32.5164 H   0  0  0  0  0  0  0  0  0  0  0  0
   -9.9991   20.1980  -32.2140 H   0  0  0  0  0  0  0  0  0  0  0  0
   -9.9256   22.5722  -31.3784 H   0  0  0  0  0  0  0  0  0  0  0  0
   -8.1264   24.6450  -30.5752 H   0  0  0  0  0  0  0  0  0  0  0  0
   -3.4990   26.0410  -31.2470 H   0  0  0  0  0  0  0  0  0  0  0  0
   -3.9738   22.7101  -27.2025 H   0  0  0  0  0  0  0  0  0  0  0  0
   -4.0970   23.9086  -28.5348 H   0  0  0  0  0  0  0  0  0  0  0  0
   -5.1511   22.4541  -28.5348 H   0  0  0  0  0  0  0  0  0  0  0  0
   -2.6210   21.1546  -27.1592 H   0  0  0  0  0  0  0  0  0  0  0  0
   -3.0330   19.9844  -28.4583 H   0  0  0  0  0  0  0  0  0  0  0  0
   -1.4323   20.7994  -28.4583 H   0  0  0  0  0  0  0  0  0  0  0  0
   -1.4830   23.4252  -28.5422 H   0  0  0  0  0  0  0  0  0  0  0  0
   -1.1961   22.4908  -30.0493 H   0  0  0  0  0  0  0  0  0  0  0  0
   -2.3583   23.8605  -30.0493 H   0  0  0  0  0  0  0  0  0  0  0  0
   -5.6430   20.1032  -32.3206 H   0  0  0  0  0  0  0  0  0  0  0  0
  1  2  1  0
  2  3  2  0
  3  4  1  0
  4  5  2  0
  5  6  1  0
  6  7  1  0
  7  8  1  0
  8  9  2  0
  8 10  1  0
 10 11  1  0
 11 12  2  0
 12 13  1  0
 13 14  2  0
 14 15  1  0
 15 16  2  0
 16 17  1  0
 17 18  1  0
 17 19  2  0
 16 20  1  0
 20 21  1  0
 21 22  2  0
 21 23  1  0
 23 24  1  0
 24 25  1  0
 24 26  1  0
 24 27  1  0
 20 28  1  0
 28 29  2  0
  5 30  1  0
 30  2  1  0
 29 11  1  0
 28 14  1  0
  1 31  1  0
  1 32  1  0
  1 33  1  0
  6 34  1  0
  6 35  1  0
 10 36  1  0
 10 37  1  0
 12 38  1  0
 13 39  1  0
 15 40  1  0
 18 41  1  0
 25 42  1  0
 25 43  1  0
 25 44  1  0
 26 45  1  0
 26 46  1  0
 26 47  1  0
 27 48  1  0
 27 49  1  0
 27 50  1  0
 29 51  1  0
M  CHG  1  18  -1
M  END
>  <UniqueID>  (38) 
38

>  <SMILES>  (38) 
Cc1nnc(COC(=O)Cc2ccc3cc(C([NH-])=O)n(C(=O)OC(C)(C)C)c3c2)o1

>  <Energy>  (38) 
111.54409851041109

>  <Genealogy>  (38) 
Cc1nnc(COC(=O)Cc2ccc3cc(C([NH-])=O)n(C(=O)OC(C)(C)C)c3c2)o1 (protonated)
Cc1nnc(COC(=O)Cc2ccc3cc(C([NH-])=O)n(C(=O)OC(C)(C)C)c3c2)o1 (3D coordinates assigned)
Cc1nnc(COC(=O)Cc2ccc3cc(C([NH-])=O)n(C(=O)OC(C)(C)C)c3c2)o1 (optimized conformer: 111.54409851041109 kcal/mol)

>  <smiles>  (38) 
Cc1nnc(COC(=O)Cc2ccc3cc(C(N)=O)n(C(=O)OC(C)(C)C)c3c2)o1

>  <score_type>  (38) 
oracle

>  <origin>  (38) 
adg

>  <m_score__min__energy>  (38) 
-10.84

>  <m_primary>  (38) 
energy

$$$$
38:0
     RDKit          3D

 46 47  0  0  0  0  0  0  0  0999 V2000
   -1.1450   21.4330  -31.4550 C   0  0  0  0  0  0  0  0  0  0  0  0
   -1.9470   22.4500  -30.8990 O   0  0  0  0  0  0  0  0  0  0  0  0
   -3.2460   21.9480  -30.6690 C   0  0  0  0  0  0  0  0  0  0  0  0
   -4.1410   22.4020  -31.7780 C   0  0  0  0  0  0  0  0  0  0  0  0
   -3.7560   22.2840  -32.9730 O   0  0  0  0  0  0  0  0  0  0  0  0
   -5.4610   22.8910  -31.5020 N   0  0  0  0  0  0  0  0  0  0  0  0
   -5.8180   24.0840  -30.9490 C   0  0  0  0  0  0  0  0  0  0  0  0
   -4.8980   25.1940  -30.6260 C   0  0  0  0  0  0  0  0  0  0  0  0
   -3.5040   24.9390  -30.4720 N   0  0  0  0  0  0  0  0  0  0  0  0
   -5.3330   26.3620  -30.4570 O   0  0  0  0  0  0  0  0  0  0  0  0
   -7.2020   24.1540  -30.7940 C   0  0  0  0  0  0  0  0  0  0  0  0
   -7.6830   22.9590  -31.2820 C   0  0  0  0  0  0  0  0  0  0  0  0
   -8.9890   22.4870  -31.3710 C   0  0  0  0  0  0  0  0  0  0  0  0
   -9.1900   21.2030  -31.9080 C   0  0  0  0  0  0  0  0  0  0  0  0
   -8.0890   20.4130  -32.3380 C   0  0  0  0  0  0  0  0  0  0  0  0
   -8.2710   19.0900  -32.8810 N   0  0  0  0  0  0  0  0  0  0  0  0
   -7.7770   17.8640  -32.2560 C   0  0  0  0  0  0  0  0  0  0  0  0
   -6.4460   17.4820  -32.8300 C   0  0  0  0  0  0  0  0  0  0  0  0
   -5.6740   16.7380  -32.1670 O   0  0  0  0  0  0  0  0  0  0  0  0
   -6.0620   17.9520  -34.1300 N   0  0  0  0  0  0  0  0  0  0  0  0
   -4.7660   17.6370  -34.7260 C   0  0  0  0  0  0  0  0  0  0  0  0
   -3.7170   18.5630  -34.2000 C   0  0  0  0  0  0  0  0  0  0  0  0
   -4.0530   19.6870  -33.7340 O   0  0  0  0  0  0  0  0  0  0  0  0
   -2.3730   18.1880  -34.2610 O   0  0  0  0  0  0  0  0  0  0  0  0
   -1.7800   17.3040  -33.3190 C   0  0  0  0  0  0  0  0  0  0  0  0
   -6.7800   20.9350  -32.2320 C   0  0  0  0  0  0  0  0  0  0  0  0
   -6.6130   22.2170  -31.7050 C   0  0  0  0  0  0  0  0  0  0  0  0
   -0.6830   20.8472  -30.6466 H   0  0  0  0  0  0  0  0  0  0  0  0
   -1.7683   20.7729  -32.0761 H   0  0  0  0  0  0  0  0  0  0  0  0
   -0.3578   21.8852  -32.0761 H   0  0  0  0  0  0  0  0  0  0  0  0
   -3.2183   20.8487  -30.6427 H   0  0  0  0  0  0  0  0  0  0  0  0
   -3.6256   22.3201  -29.7060 H   0  0  0  0  0  0  0  0  0  0  0  0
   -2.9850   24.3520  -31.1640 H   0  0  0  0  0  0  0  0  0  0  0  0
   -7.7852   24.9858  -30.3721 H   0  0  0  0  0  0  0  0  0  0  0  0
   -9.8377   23.0992  -31.0319 H   0  0  0  0  0  0  0  0  0  0  0  0
  -10.2116   20.8050  -31.9964 H   0  0  0  0  0  0  0  0  0  0  0  0
   -8.7660   18.9920  -33.7960 H   0  0  0  0  0  0  0  0  0  0  0  0
   -7.6711   18.0269  -31.1733 H   0  0  0  0  0  0  0  0  0  0  0  0
   -8.4939   17.0523  -32.4489 H   0  0  0  0  0  0  0  0  0  0  0  0
   -6.7170   18.5690  -34.6600 H   0  0  0  0  0  0  0  0  0  0  0  0
   -4.4938   16.6007  -34.4770 H   0  0  0  0  0  0  0  0  0  0  0  0
   -4.8346   17.7554  -35.8175 H   0  0  0  0  0  0  0  0  0  0  0  0
   -2.0099   17.6467  -32.2994 H   0  0  0  0  0  0  0  0  0  0  0  0
   -2.1815   16.2902  -33.4643 H   0  0  0  0  0  0  0  0  0  0  0  0
   -0.6897   17.2909  -33.4643 H   0  0  0  0  0  0  0  0  0  0  0  0
   -5.9114   20.3439  -32.5577 H   0  0  0  0  0  0  0  0  0  0  0  0
  1  2  1  0
  2  3  1  0
  3  4  1  0
  4  5  2  0
  4  6  1  0
  6  7  1  0
  7  8  1  0
  8  9  1  0
  8 10  2  0
  7 11  2  0
 11 12  1  0
 12 13  2  0
 13 14  1  0
 14 15  2  0
 15 16  1  0
 16 17  1  0
 17 18  1  0
 18 19  2  0
 18 20  1  0
 20 21  1  0
 21 22  1  0
 22 23  2  0
 22 24  1  0
 24 25  1  0
 15 26  1  0
 26 27  2  0
 27  6  1  0
 27 12  1  0
  1 28  1  0
  1 29  1  0
  1 30  1  0
  3 31  1  0
  3 32  1  0
  9 33  1  0
 11 34  1  0
 13 35  1  0
 14 36  1  0
 16 37  1  0
 17 38  1  0
 17 39  1  0
 20 40  1  0
 21 41  1  0
 21 42  1  0
 25 43  1  0
 25 44  1  0
 25 45  1  0
 26 46  1  0
M  CHG  1   9  -1
M  END
>  <UniqueID>  (39) 
39

>  <SMILES>  (39) 
COCC(=O)n1c(C([NH-])=O)cc2ccc(NCC(=O)NCC(=O)OC)cc21

>  <Energy>  (39) 
78.06060448066015

>  <Genealogy>  (39) 
COCC(=O)n1c(C([NH-])=O)cc2ccc(NCC(=O)NCC(=O)OC)cc21 (protonated)
COCC(=O)n1c(C([NH-])=O)cc2ccc(NCC(=O)NCC(=O)OC)cc21 (3D coordinates assigned)
COCC(=O)n1c(C([NH-])=O)cc2ccc(NCC(=O)NCC(=O)OC)cc21 (optimized conformer: 78.06060448066015 kcal/mol)

>  <smiles>  (39) 
COCC(=O)n1c(C(N)=O)cc2ccc(NCC(=O)NCC(=O)OC)cc21

>  <score_type>  (39) 
oracle

>  <origin>  (39) 
adg

>  <m_score__min__energy>  (39) 
-9.3100000000000005

>  <m_primary>  (39) 
energy

$$$$
39:0
     RDKit          3D

 60 61  0  0  0  0  0  0  0  0999 V2000
   -4.3780   16.1660  -32.7830 C   0  0  0  0  0  0  0  0  0  0  0  0
   -4.8760   17.2600  -33.6210 N   0  0  0  0  0  0  0  0  0  0  0  0
   -3.9530   18.2850  -34.1310 C   0  0  0  0  0  0  0  0  0  0  0  0
   -4.3900   19.6900  -33.6970 C   0  0  0  0  0  0  0  0  0  0  0  0
   -3.3560   20.3350  -32.8140 C   0  0  0  0  0  0  0  0  0  0  0  0
   -2.0360   19.8210  -32.7730 C   0  0  0  0  0  0  0  0  0  0  0  0
   -1.0490   20.4430  -31.9890 C   0  0  0  0  0  0  0  0  0  0  0  0
   -1.4090   21.5750  -31.2650 C   0  0  0  0  0  0  0  0  0  0  0  0
   -0.6450   22.3920  -30.4620 C   0  0  0  0  0  0  0  0  0  0  0  0
   -1.5100   23.3910  -30.0220 C   0  0  0  0  0  0  0  0  0  0  0  0
   -1.1150   24.4450  -29.0640 C   0  0  0  0  0  0  0  0  0  0  0  0
   -1.8850   25.6400  -28.9690 N   0  0  0  0  0  0  0  0  0  0  0  0
   -0.0830   24.3180  -28.3540 O   0  0  0  0  0  0  0  0  0  0  0  0
   -2.7580   23.2050  -30.5390 N   0  0  0  0  0  0  0  0  0  0  0  0
   -3.9040   24.0610  -30.4130 C   0  0  0  0  0  0  0  0  0  0  0  0
   -3.8550   25.2420  -30.8510 O   0  0  0  0  0  0  0  0  0  0  0  0
   -5.0800   23.5550  -29.8390 O   0  0  0  0  0  0  0  0  0  0  0  0
   -6.4210   23.8360  -30.2600 C   0  0  0  0  0  0  0  0  0  0  0  0
   -6.8610   25.2270  -29.7640 C   0  0  0  0  0  0  0  0  0  0  0  0
   -7.3880   22.7480  -29.7550 C   0  0  0  0  0  0  0  0  0  0  0  0
   -6.4210   23.8320  -31.7950 C   0  0  0  0  0  0  0  0  0  0  0  0
   -2.6810   22.0840  -31.2910 C   0  0  0  0  0  0  0  0  0  0  0  0
   -3.6820   21.4900  -32.0700 C   0  0  0  0  0  0  0  0  0  0  0  0
   -6.2890   17.3530  -33.8830 C   0  0  0  0  0  0  0  0  0  0  0  0
   -6.9090   16.3550  -34.3390 O   0  0  0  0  0  0  0  0  0  0  0  0
   -6.9590   18.5620  -33.6410 O   0  0  0  0  0  0  0  0  0  0  0  0
   -7.4890   19.0050  -32.3810 C   0  0  0  0  0  0  0  0  0  0  0  0
   -6.8570   18.1290  -31.2890 C   0  0  0  0  0  0  0  0  0  0  0  0
   -7.1060   20.4750  -32.1230 C   0  0  0  0  0  0  0  0  0  0  0  0
   -9.0180   18.8300  -32.3370 C   0  0  0  0  0  0  0  0  0  0  0  0
   -4.4991   16.4321  -31.7226 H   0  0  0  0  0  0  0  0  0  0  0  0
   -4.9480   15.2502  -32.9987 H   0  0  0  0  0  0  0  0  0  0  0  0
   -3.3131   15.9944  -32.9987 H   0  0  0  0  0  0  0  0  0  0  0  0
   -2.9443   18.0861  -33.7399 H   0  0  0  0  0  0  0  0  0  0  0  0
   -3.9580   18.2425  -35.2302 H   0  0  0  0  0  0  0  0  0  0  0  0
   -4.5357   20.3126  -34.5921 H   0  0  0  0  0  0  0  0  0  0  0  0
   -5.3272   19.6022  -33.1278 H   0  0  0  0  0  0  0  0  0  0  0  0
   -1.7813   18.9265  -33.3604 H   0  0  0  0  0  0  0  0  0  0  0  0
   -0.0236   20.0469  -31.9492 H   0  0  0  0  0  0  0  0  0  0  0  0
    0.4220   22.2795  -30.2195 H   0  0  0  0  0  0  0  0  0  0  0  0
   -2.8660   25.6780  -29.3260 H   0  0  0  0  0  0  0  0  0  0  0  0
   -6.8650   25.2397  -28.6641 H   0  0  0  0  0  0  0  0  0  0  0  0
   -6.1597   25.9880  -30.1369 H   0  0  0  0  0  0  0  0  0  0  0  0
   -7.8724   25.4463  -30.1369 H   0  0  0  0  0  0  0  0  0  0  0  0
   -7.3923   22.7432  -28.6550 H   0  0  0  0  0  0  0  0  0  0  0  0
   -8.4024   22.9587  -30.1247 H   0  0  0  0  0  0  0  0  0  0  0  0
   -7.0597   21.7654  -30.1247 H   0  0  0  0  0  0  0  0  0  0  0  0
   -5.3839   23.8310  -32.1617 H   0  0  0  0  0  0  0  0  0  0  0  0
   -6.9395   22.9329  -32.1593 H   0  0  0  0  0  0  0  0  0  0  0  0
   -6.9395   24.7292  -32.1640 H   0  0  0  0  0  0  0  0  0  0  0  0
   -4.6970   21.9128  -32.1014 H   0  0  0  0  0  0  0  0  0  0  0  0
   -7.1375   18.5178  -30.2990 H   0  0  0  0  0  0  0  0  0  0  0  0
   -7.2188   17.0954  -31.3930 H   0  0  0  0  0  0  0  0  0  0  0  0
   -5.7621   18.1464  -31.3930 H   0  0  0  0  0  0  0  0  0  0  0  0
   -7.0586   20.6568  -31.0392 H   0  0  0  0  0  0  0  0  0  0  0  0
   -6.1238   20.6824  -32.5728 H   0  0  0  0  0  0  0  0  0  0  0  0
   -7.8621   21.1353  -32.5728 H   0  0  0  0  0  0  0  0  0  0  0  0
   -9.3527   18.7917  -31.2899 H   0  0  0  0  0  0  0  0  0  0  0  0
   -9.4990   19.6790  -32.8449 H   0  0  0  0  0  0  0  0  0  0  0  0
   -9.2947   17.8943  -32.8449 H   0  0  0  0  0  0  0  0  0  0  0  0
  1  2  1  0
  2  3  1  0
  3  4  1  0
  4  5  1  0
  5  6  2  0
  6  7  1  0
  7  8  2  0
  8  9  1  0
  9 10  2  0
 10 11  1  0
 11 12  1  0
 11 13  2  0
 10 14  1  0
 14 15  1  0
 15 16  2  0
 15 17  1  0
 17 18  1  0
 18 19  1  0
 18 20  1  0
 18 21  1  0
 14 22  1  0
 22 23  2  0
  2 24  1  0
 24 25  2  0
 24 26  1  0
 26 27  1  0
 27 28  1  0
 27 29  1  0
 27 30  1  0
 23  5  1  0
 22  8  1  0
  1 31  1  0
  1 32  1  0
  1 33  1  0
  3 34  1  0
  3 35  1  0
  4 36  1  0
  4 37  1  0
  6 38  1  0
  7 39  1  0
  9 40  1  0
 12 41  1  0
 19 42  1  0
 19 43  1  0
 19 44  1  0
 20 45  1  0
 20 46  1  0
 20 47  1  0
 21 48  1  0
 21 49  1  0
 21 50  1  0
 23 51  1  0
 28 52  1  0
 28 53  1  0
 28 54  1  0
 29 55  1  0
 29 56  1  0
 29 57  1  0
 30 58  1  0
 30 59  1  0
 30 60  1  0
M  CHG  1  12  -1
M  END
>  <UniqueID>  (40) 
40

>  <SMILES>  (40) 
CN(CCc1ccc2cc(C([NH-])=O)n(C(=O)OC(C)(C)C)c2c1)C(=O)OC(C)(C)C

>  <Energy>  (40) 
78.64130645756302

>  <Genealogy>  (40) 
CN(CCc1ccc2cc(C([NH-])=O)n(C(=O)OC(C)(C)C)c2c1)C(=O)OC(C)(C)C (protonated)
CN(CCc1ccc2cc(C([NH-])=O)n(C(=O)OC(C)(C)C)c2c1)C(=O)OC(C)(C)C (3D coordinates assigned)
CN(CCc1ccc2cc(C([NH-])=O)n(C(=O)OC(C)(C)C)c2c1)C(=O)OC(C)(C)C (optimized conformer: 78.64130645756302 kcal/mol)

>  <smiles>  (40) 
CN(CCc1ccc2cc(C(N)=O)n(C(=O)OC(C)(C)C)c2c1)C(=O)OC(C)(C)C

>  <score_type>  (40) 
oracle

>  <origin>  (40) 
adg

>  <m_score__min__energy>  (40) 
-11.19

>  <m_primary>  (40) 
energy

$$$$
40:0
     RDKit          3D

 49 51  0  0  0  0  0  0  0  0999 V2000
   -4.0380   16.8280  -33.9680 C   0  0  0  0  0  0  0  0  0  0  0  0
   -5.1300   15.9420  -34.0040 O   0  0  0  0  0  0  0  0  0  0  0  0
   -6.3160   16.6750  -34.2170 C   0  0  0  0  0  0  0  0  0  0  0  0
   -6.0700   18.1160  -34.5470 C   0  0  0  0  0  0  0  0  0  0  0  0
   -6.5960   18.6580  -33.2820 N   0  0  0  0  0  0  0  0  0  0  0  0
   -6.7810   19.9370  -32.6780 C   0  0  0  0  0  0  0  0  0  0  0  0
   -8.0830   20.4570  -32.5030 C   0  0  0  0  0  0  0  0  0  0  0  0
   -8.2710   21.7250  -31.9370 C   0  0  0  0  0  0  0  0  0  0  0  0
   -7.1410   22.4410  -31.5440 C   0  0  0  0  0  0  0  0  0  0  0  0
   -7.0480   23.7050  -31.0220 C   0  0  0  0  0  0  0  0  0  0  0  0
   -5.6860   23.9420  -30.8770 C   0  0  0  0  0  0  0  0  0  0  0  0
   -5.1680   25.2390  -30.4330 C   0  0  0  0  0  0  0  0  0  0  0  0
   -3.8690   25.6670  -30.8420 N   0  0  0  0  0  0  0  0  0  0  0  0
   -5.8770   25.9800  -29.7050 O   0  0  0  0  0  0  0  0  0  0  0  0
   -4.9460   22.8580  -31.2630 N   0  0  0  0  0  0  0  0  0  0  0  0
   -3.5050   22.6710  -31.2010 C   0  0  0  0  0  0  0  0  0  0  0  0
   -2.8530   23.1590  -30.2380 O   0  0  0  0  0  0  0  0  0  0  0  0
   -2.7920   21.9440  -32.2110 N   0  0  0  0  0  0  0  0  0  0  0  0
   -1.5530   21.2300  -31.9080 C   0  0  0  0  0  0  0  0  0  0  0  0
   -0.6590   21.2240  -33.1170 C   0  0  0  0  0  0  0  0  0  0  0  0
   -1.0120   21.9100  -34.1150 O   0  0  0  0  0  0  0  0  0  0  0  0
    0.5320   20.4090  -33.1940 N   0  0  0  0  0  0  0  0  0  0  0  0
    1.2310   20.3070  -34.4740 C   0  0  0  0  0  0  0  0  0  0  0  0
    1.0310   19.6840  -32.0160 C   0  0  0  0  0  0  0  0  0  0  0  0
   -5.8670   21.9480  -31.6870 C   0  0  0  0  0  0  0  0  0  0  0  0
   -5.6600   20.6870  -32.2710 C   0  0  0  0  0  0  0  0  0  0  0  0
   -6.8420   17.2440  -32.9420 C   0  0  0  0  0  0  0  0  0  0  0  0
   -3.7740   17.0422  -32.9219 H   0  0  0  0  0  0  0  0  0  0  0  0
   -3.1772   16.3699  -34.4770 H   0  0  0  0  0  0  0  0  0  0  0  0
   -4.3089   17.7648  -34.4770 H   0  0  0  0  0  0  0  0  0  0  0  0
   -6.8632   15.9846  -34.8757 H   0  0  0  0  0  0  0  0  0  0  0  0
   -5.0036   18.3417  -34.6948 H   0  0  0  0  0  0  0  0  0  0  0  0
   -6.5121   18.4992  -35.4785 H   0  0  0  0  0  0  0  0  0  0  0  0
   -8.9550   19.8625  -32.8132 H   0  0  0  0  0  0  0  0  0  0  0  0
   -9.2801   22.1431  -31.8066 H   0  0  0  0  0  0  0  0  0  0  0  0
   -7.8745   24.3862  -30.7714 H   0  0  0  0  0  0  0  0  0  0  0  0
   -3.0130   25.3000  -30.3700 H   0  0  0  0  0  0  0  0  0  0  0  0
   -2.9920   22.1350  -33.2150 H   0  0  0  0  0  0  0  0  0  0  0  0
   -1.0374   21.7307  -31.0752 H   0  0  0  0  0  0  0  0  0  0  0  0
   -1.7909   20.1933  -31.6275 H   0  0  0  0  0  0  0  0  0  0  0  0
    2.3048   20.1503  -34.2939 H   0  0  0  0  0  0  0  0  0  0  0  0
    0.8274   19.4582  -35.0456 H   0  0  0  0  0  0  0  0  0  0  0  0
    1.0868   21.2357  -35.0456 H   0  0  0  0  0  0  0  0  0  0  0  0
    0.6844   20.1876  -31.1015 H   0  0  0  0  0  0  0  0  0  0  0  0
    0.6511   18.6518  -32.0326 H   0  0  0  0  0  0  0  0  0  0  0  0
    2.1308   19.6702  -32.0326 H   0  0  0  0  0  0  0  0  0  0  0  0
   -4.6422   20.2929  -32.4078 H   0  0  0  0  0  0  0  0  0  0  0  0
   -6.2695   16.9139  -32.0627 H   0  0  0  0  0  0  0  0  0  0  0  0
   -7.8693   16.9702  -32.6598 H   0  0  0  0  0  0  0  0  0  0  0  0
  1  2  1  0
  2  3  1  0
  3  4  1  0
  4  5  1  0
  5  6  1  0
  6  7  2  0
  7  8  1  0
  8  9  2  0
  9 10  1  0
 10 11  2  0
 11 12  1  0
 12 13  1  0
 12 14  2  0
 11 15  1  0
 15 16  1  0
 16 17  2  0
 16 18  1  0
 18 19  1  0
 19 20  1  0
 20 21  2  0
 20 22  1  0
 22 23  1  0
 22 24  1  0
 15 25  1  0
 25 26  2  0
  5 27  1  0
 27  3  1  0
 26  6  1  0
 25  9  1  0
  1 28  1  0
  1 29  1  0
  1 30  1  0
  3 31  1  0
  4 32  1  0
  4 33  1  0
  7 34  1  0
  8 35  1  0
 10 36  1  0
 13 37  1  0
 18 38  1  0
 19 39  1  0
 19 40  1  0
 23 41  1  0
 23 42  1  0
 23 43  1  0
 24 44  1  0
 24 45  1  0
 24 46  1  0
 26 47  1  0
 27 48  1  0
 27 49  1  0
M  CHG  1  13  -1
M  END
>  <UniqueID>  (41) 
41

>  <SMILES>  (41) 
COC1CN(c2ccc3cc(C([NH-])=O)n(C(=O)NCC(=O)N(C)C)c3c2)C1

>  <Energy>  (41) 
139.91368533425853

>  <Genealogy>  (41) 
COC1CN(c2ccc3cc(C([NH-])=O)n(C(=O)NCC(=O)N(C)C)c3c2)C1 (protonated)
COC1CN(c2ccc3cc(C([NH-])=O)n(C(=O)NCC(=O)N(C)C)c3c2)C1 (3D coordinates assigned)
COC1CN(c2ccc3cc(C([NH-])=O)n(C(=O)NCC(=O)N(C)C)c3c2)C1 (nonaromatic ring conformer: 139.91368533425853 kcal/mol)

>  <smiles>  (41) 
COC1CN(c2ccc3cc(C(N)=O)n(C(=O)NCC(=O)N(C)C)c3c2)C1

>  <score_type>  (41) 
oracle

>  <origin>  (41) 
adg

>  <m_score__min__energy>  (41) 
-11

>  <m_primary>  (41) 
energy

$$$$
41:0
     RDKit          3D

 44 45  0  0  0  0  0  0  0  0999 V2000
   -3.9920   16.7400  -33.3040 C   0  0  0  0  0  0  0  0  0  0  0  0
   -4.3660   17.7810  -34.1970 O   0  0  0  0  0  0  0  0  0  0  0  0
   -5.6550   18.3200  -34.2290 C   0  0  0  0  0  0  0  0  0  0  0  0
   -6.0800   18.9180  -35.2550 O   0  0  0  0  0  0  0  0  0  0  0  0
   -6.5190   18.2270  -33.0100 C   0  0  0  0  0  0  0  0  0  0  0  0
   -6.8200   19.6020  -32.4780 C   0  0  0  0  0  0  0  0  0  0  0  0
   -8.1600   20.0380  -32.3300 C   0  0  0  0  0  0  0  0  0  0  0  0
   -8.4450   21.3220  -31.8340 C   0  0  0  0  0  0  0  0  0  0  0  0
   -7.3730   22.1510  -31.5160 C   0  0  0  0  0  0  0  0  0  0  0  0
   -7.3640   23.4330  -31.0130 C   0  0  0  0  0  0  0  0  0  0  0  0
   -6.0190   23.7760  -30.9070 C   0  0  0  0  0  0  0  0  0  0  0  0
   -5.5530   25.1120  -30.4830 C   0  0  0  0  0  0  0  0  0  0  0  0
   -4.1940   25.5110  -30.6620 N   0  0  0  0  0  0  0  0  0  0  0  0
   -6.3800   25.9320  -30.0040 O   0  0  0  0  0  0  0  0  0  0  0  0
   -5.2250   22.7440  -31.3100 N   0  0  0  0  0  0  0  0  0  0  0  0
   -3.7900   22.6800  -31.2920 C   0  0  0  0  0  0  0  0  0  0  0  0
   -3.1600   23.0380  -30.2610 O   0  0  0  0  0  0  0  0  0  0  0  0
   -3.1070   22.2200  -32.4280 O   0  0  0  0  0  0  0  0  0  0  0  0
   -2.2910   21.0450  -32.5160 C   0  0  0  0  0  0  0  0  0  0  0  0
   -0.8050   21.4280  -32.6450 C   0  0  0  0  0  0  0  0  0  0  0  0
   -2.5160   20.1340  -31.2930 C   0  0  0  0  0  0  0  0  0  0  0  0
   -2.7240   20.2890  -33.7820 C   0  0  0  0  0  0  0  0  0  0  0  0
   -6.0700   21.7560  -31.6810 C   0  0  0  0  0  0  0  0  0  0  0  0
   -5.7580   20.4700  -32.1370 C   0  0  0  0  0  0  0  0  0  0  0  0
   -4.1158   17.0846  -32.2667 H   0  0  0  0  0  0  0  0  0  0  0  0
   -4.6307   15.8613  -33.4772 H   0  0  0  0  0  0  0  0  0  0  0  0
   -2.9402   16.4686  -33.4772 H   0  0  0  0  0  0  0  0  0  0  0  0
   -7.4620   17.7243  -33.2709 H   0  0  0  0  0  0  0  0  0  0  0  0
   -5.9873   17.6525  -32.2372 H   0  0  0  0  0  0  0  0  0  0  0  0
   -8.9853   19.3651  -32.6059 H   0  0  0  0  0  0  0  0  0  0  0  0
   -9.4830   21.6611  -31.7013 H   0  0  0  0  0  0  0  0  0  0  0  0
   -8.2338   24.0534  -30.7510 H   0  0  0  0  0  0  0  0  0  0  0  0
   -3.8700   26.4410  -30.3130 H   0  0  0  0  0  0  0  0  0  0  0  0
   -3.5260   24.9230  -31.2070 H   0  0  0  0  0  0  0  0  0  0  0  0
   -0.3671   21.5409  -31.6423 H   0  0  0  0  0  0  0  0  0  0  0  0
   -0.2691   20.6386  -33.1924 H   0  0  0  0  0  0  0  0  0  0  0  0
   -0.7174   22.3781  -33.1924 H   0  0  0  0  0  0  0  0  0  0  0  0
   -2.3722   20.7161  -30.3708 H   0  0  0  0  0  0  0  0  0  0  0  0
   -3.5401   19.7333  -31.3178 H   0  0  0  0  0  0  0  0  0  0  0  0
   -1.7962   19.3026  -31.3178 H   0  0  0  0  0  0  0  0  0  0  0  0
   -3.2519   19.3673  -33.4961 H   0  0  0  0  0  0  0  0  0  0  0  0
   -3.3944   20.9257  -34.3780 H   0  0  0  0  0  0  0  0  0  0  0  0
   -1.8356   20.0329  -34.3780 H   0  0  0  0  0  0  0  0  0  0  0  0
   -4.7117   20.1429  -32.2278 H   0  0  0  0  0  0  0  0  0  0  0  0
  1  2  1  0
  2  3  1  0
  3  4  2  0
  3  5  1  0
  5  6  1  0
  6  7  2  0
  7  8  1  0
  8  9  2  0
  9 10  1  0
 10 11  2  0
 11 12  1  0
 12 13  1  0
 12 14  2  0
 11 15  1  0
 15 16  1  0
 16 17  2  0
 16 18  1  0
 18 19  1  0
 19 20  1  0
 19 21  1  0
 19 22  1  0
 15 23  1  0
 23 24  2  0
 24  6  1  0
 23  9  1  0
  1 25  1  0
  1 26  1  0
  1 27  1  0
  5 28  1  0
  5 29  1  0
  7 30  1  0
  8 31  1  0
 10 32  1  0
 13 33  1  0
 13 34  1  0
 20 35  1  0
 20 36  1  0
 20 37  1  0
 21 38  1  0
 21 39  1  0
 21 40  1  0
 22 41  1  0
 22 42  1  0
 22 43  1  0
 24 44  1  0
M  END
>  <UniqueID>  (42) 
42

>  <SMILES>  (42) 
COC(=O)Cc1ccc2cc(C(N)=O)n(C(=O)OC(C)(C)C)c2c1

>  <Energy>  (42) 
73.33017893465487

>  <Genealogy>  (42) 
COC(=O)Cc1ccc2cc(C(N)=O)n(C(=O)OC(C)(C)C)c2c1 (3D coordinates assigned)
COC(=O)Cc1ccc2cc(C(N)=O)n(C(=O)OC(C)(C)C)c2c1 (optimized conformer: 73.33017893465487 kcal/mol)

>  <smiles>  (42) 
COC(=O)Cc1ccc2cc(C(N)=O)n(C(=O)OC(C)(C)C)c2c1

>  <score_type>  (42) 
oracle

>  <origin>  (42) 
adg

>  <m_score__min__energy>  (42) 
-8.6699999999999999

>  <m_primary>  (42) 
energy

$$$$
42:0
     RDKit          3D

 53 54  0  0  0  0  0  0  0  0999 V2000
   -5.5660   14.8230  -33.9340 C   0  0  0  0  0  0  0  0  0  0  0  0
   -6.3800   15.9820  -33.7980 O   0  0  0  0  0  0  0  0  0  0  0  0
   -6.0000   17.0870  -33.0270 C   0  0  0  0  0  0  0  0  0  0  0  0
   -6.1360   17.0570  -31.7710 O   0  0  0  0  0  0  0  0  0  0  0  0
   -5.3640   18.3010  -33.6860 C   0  0  0  0  0  0  0  0  0  0  0  0
   -5.7390   18.2600  -35.1900 C   0  0  0  0  0  0  0  0  0  0  0  0
   -3.8530   18.2200  -33.5340 C   0  0  0  0  0  0  0  0  0  0  0  0
   -3.3340   17.3980  -32.7290 O   0  0  0  0  0  0  0  0  0  0  0  0
   -3.0390   19.1270  -34.2250 O   0  0  0  0  0  0  0  0  0  0  0  0
   -1.7800   19.5650  -33.7300 C   0  0  0  0  0  0  0  0  0  0  0  0
   -5.8660   19.5830  -32.9940 C   0  0  0  0  0  0  0  0  0  0  0  0
   -7.2490   19.9320  -32.9480 C   0  0  0  0  0  0  0  0  0  0  0  0
   -7.6770   21.1270  -32.3460 C   0  0  0  0  0  0  0  0  0  0  0  0
   -6.7130   21.9850  -31.8330 C   0  0  0  0  0  0  0  0  0  0  0  0
   -6.8520   23.2000  -31.2000 C   0  0  0  0  0  0  0  0  0  0  0  0
   -5.5540   23.6240  -30.9290 C   0  0  0  0  0  0  0  0  0  0  0  0
   -5.2350   24.9300  -30.3180 C   0  0  0  0  0  0  0  0  0  0  0  0
   -5.8520   25.3470  -29.1000 N   0  0  0  0  0  0  0  0  0  0  0  0
   -4.3610   25.6640  -30.8500 O   0  0  0  0  0  0  0  0  0  0  0  0
   -4.6480   22.7020  -31.3620 N   0  0  0  0  0  0  0  0  0  0  0  0
   -3.2200   22.7330  -31.2130 C   0  0  0  0  0  0  0  0  0  0  0  0
   -2.5010   21.9750  -31.9170 O   0  0  0  0  0  0  0  0  0  0  0  0
   -2.6460   23.6130  -30.2840 O   0  0  0  0  0  0  0  0  0  0  0  0
   -2.3650   23.3410  -28.9050 C   0  0  0  0  0  0  0  0  0  0  0  0
   -1.1990   22.3410  -28.8720 C   0  0  0  0  0  0  0  0  0  0  0  0
   -3.5870   22.7030  -28.2190 C   0  0  0  0  0  0  0  0  0  0  0  0
   -1.9410   24.6300  -28.1760 C   0  0  0  0  0  0  0  0  0  0  0  0
   -5.3760   21.7040  -31.9110 C   0  0  0  0  0  0  0  0  0  0  0  0
   -4.9220   20.5050  -32.4680 C   0  0  0  0  0  0  0  0  0  0  0  0
   -5.2993   14.4432  -32.9367 H   0  0  0  0  0  0  0  0  0  0  0  0
   -6.1197   14.0487  -34.4852 H   0  0  0  0  0  0  0  0  0  0  0  0
   -4.6497   15.0811  -34.4852 H   0  0  0  0  0  0  0  0  0  0  0  0
   -6.8276   18.1410  -35.2933 H   0  0  0  0  0  0  0  0  0  0  0  0
   -5.4253   19.1978  -35.6718 H   0  0  0  0  0  0  0  0  0  0  0  0
   -5.2301   17.4121  -35.6718 H   0  0  0  0  0  0  0  0  0  0  0  0
   -1.7963   19.5593  -32.6301 H   0  0  0  0  0  0  0  0  0  0  0  0
   -0.9898   18.8890  -34.0885 H   0  0  0  0  0  0  0  0  0  0  0  0
   -1.5800   20.5855  -34.0885 H   0  0  0  0  0  0  0  0  0  0  0  0
   -7.9927   19.2536  -33.3916 H   0  0  0  0  0  0  0  0  0  0  0  0
   -8.7465   21.3763  -32.2827 H   0  0  0  0  0  0  0  0  0  0  0  0
   -7.7889   23.7239  -30.9597 H   0  0  0  0  0  0  0  0  0  0  0  0
   -5.6400   26.2880  -28.7010 H   0  0  0  0  0  0  0  0  0  0  0  0
   -6.4470   24.6930  -28.5430 H   0  0  0  0  0  0  0  0  0  0  0  0
   -0.9376   22.1169  -27.8273 H   0  0  0  0  0  0  0  0  0  0  0  0
   -1.4970   21.4133  -29.3826 H   0  0  0  0  0  0  0  0  0  0  0  0
   -0.3276   22.7769  -29.3826 H   0  0  0  0  0  0  0  0  0  0  0  0
   -3.4684   22.7649  -27.1272 H   0  0  0  0  0  0  0  0  0  0  0  0
   -4.4985   23.2403  -28.5199 H   0  0  0  0  0  0  0  0  0  0  0  0
   -3.6671   21.6480  -28.5199 H   0  0  0  0  0  0  0  0  0  0  0  0
   -1.9934   24.4706  -27.0889 H   0  0  0  0  0  0  0  0  0  0  0  0
   -0.9102   24.8893  -28.4593 H   0  0  0  0  0  0  0  0  0  0  0  0
   -2.6166   25.4506  -28.4593 H   0  0  0  0  0  0  0  0  0  0  0  0
   -3.8461   20.2780  -32.4986 H   0  0  0  0  0  0  0  0  0  0  0  0
  1  2  1  0
  2  3  1  0
  3  4  2  0
  3  5  1  0
  5  6  1  0
  5  7  1  0
  7  8  2  0
  7  9  1  0
  9 10  1  0
  5 11  1  0
 11 12  2  0
 12 13  1  0
 13 14  2  0
 14 15  1  0
 15 16  2  0
 16 17  1  0
 17 18  1  0
 17 19  2  0
 16 20  1  0
 20 21  1  0
 21 22  2  0
 21 23  1  0
 23 24  1  0
 24 25  1  0
 24 26  1  0
 24 27  1  0
 20 28  1  0
 28 29  2  0
 29 11  1  0
 28 14  1  0
  1 30  1  0
  1 31  1  0
  1 32  1  0
  6 33  1  0
  6 34  1  0
  6 35  1  0
 10 36  1  0
 10 37  1  0
 10 38  1  0
 12 39  1  0
 13 40  1  0
 15 41  1  0
 18 42  1  0
 18 43  1  0
 25 44  1  0
 25 45  1  0
 25 46  1  0
 26 47  1  0
 26 48  1  0
 26 49  1  0
 27 50  1  0
 27 51  1  0
 27 52  1  0
 29 53  1  0
M  END
>  <UniqueID>  (43) 
43

>  <SMILES>  (43) 
COC(=O)C(C)(C(=O)OC)c1ccc2cc(C(N)=O)n(C(=O)OC(C)(C)C)c2c1

>  <Energy>  (43) 
86.54123952603892

>  <Genealogy>  (43) 
COC(=O)C(C)(C(=O)OC)c1ccc2cc(C(N)=O)n(C(=O)OC(C)(C)C)c2c1 (3D coordinates assigned)
COC(=O)C(C)(C(=O)OC)c1ccc2cc(C(N)=O)n(C(=O)OC(C)(C)C)c2c1 (optimized conformer: 86.54123952603892 kcal/mol)

>  <smiles>  (43) 
COC(=O)C(C)(C(=O)OC)c1ccc2cc(C(N)=O)n(C(=O)OC(C)(C)C)c2c1

>  <score_type>  (43) 
oracle

>  <origin>  (43) 
adg

>  <m_score__min__energy>  (43) 
-8.6799999999999997

>  <m_primary>  (43) 
energy

$$$$
43:0
     RDKit          3D

 50 51  0  0  0  0  0  0  0  0999 V2000
   -3.3940   18.9390  -26.2700 C   0  0  0  0  0  0  0  0  0  0  0  0
   -1.9780   18.7240  -26.8070 C   0  0  0  0  0  0  0  0  0  0  0  0
   -1.3750   19.9920  -27.2820 N   0  0  0  0  0  0  0  0  0  0  0  0
   -0.6520   19.7800  -28.5550 C   0  0  0  0  0  0  0  0  0  0  0  0
    0.3380   18.6230  -28.4220 C   0  0  0  0  0  0  0  0  0  0  0  0
   -2.3830   21.0770  -27.4000 C   0  0  0  0  0  0  0  0  0  0  0  0
   -2.8970   21.1300  -28.8060 C   0  0  0  0  0  0  0  0  0  0  0  0
   -3.2920   22.2840  -29.3520 C   0  0  0  0  0  0  0  0  0  0  0  0
   -3.8390   22.3600  -30.7190 C   0  0  0  0  0  0  0  0  0  0  0  0
   -3.0690   22.1870  -31.7020 O   0  0  0  0  0  0  0  0  0  0  0  0
   -5.2280   22.6320  -30.9530 N   0  0  0  0  0  0  0  0  0  0  0  0
   -5.8720   23.8260  -30.8470 C   0  0  0  0  0  0  0  0  0  0  0  0
   -5.2670   25.1000  -30.4020 C   0  0  0  0  0  0  0  0  0  0  0  0
   -3.8660   25.3300  -30.5250 N   0  0  0  0  0  0  0  0  0  0  0  0
   -5.9960   25.9930  -29.8940 O   0  0  0  0  0  0  0  0  0  0  0  0
   -7.2140   23.6830  -31.1920 C   0  0  0  0  0  0  0  0  0  0  0  0
   -7.3690   22.3530  -31.5160 C   0  0  0  0  0  0  0  0  0  0  0  0
   -8.4940   21.6590  -31.9490 C   0  0  0  0  0  0  0  0  0  0  0  0
   -8.3510   20.2930  -32.2460 C   0  0  0  0  0  0  0  0  0  0  0  0
   -7.0960   19.6450  -32.1080 C   0  0  0  0  0  0  0  0  0  0  0  0
   -6.9620   18.1810  -32.4760 C   0  0  2  0  0  0  0  0  0  0  0  0
   -6.1500   17.4080  -31.4290 C   0  0  0  0  0  0  0  0  0  0  0  0
   -6.3770   18.0340  -33.8550 C   0  0  0  0  0  0  0  0  0  0  0  0
   -5.8610   19.0220  -34.4450 O   0  0  0  0  0  0  0  0  0  0  0  0
   -6.4550   16.8100  -34.5100 O   0  0  0  0  0  0  0  0  0  0  0  0
   -5.9780   20.3870  -31.6540 C   0  0  0  0  0  0  0  0  0  0  0  0
   -6.1540   21.7430  -31.3650 C   0  0  0  0  0  0  0  0  0  0  0  0
   -3.3735   18.9359  -25.1702 H   0  0  0  0  0  0  0  0  0  0  0  0
   -3.7786   19.9058  -26.6268 H   0  0  0  0  0  0  0  0  0  0  0  0
   -4.0482   18.1299  -26.6268 H   0  0  0  0  0  0  0  0  0  0  0  0
   -1.3509   18.3096  -26.0038 H   0  0  0  0  0  0  0  0  0  0  0  0
   -2.0353   18.0305  -27.6589 H   0  0  0  0  0  0  0  0  0  0  0  0
   -1.3771   19.5466  -29.3486 H   0  0  0  0  0  0  0  0  0  0  0  0
   -0.0971   20.6960  -28.8058 H   0  0  0  0  0  0  0  0  0  0  0  0
    0.5168   18.4140  -27.3569 H   0  0  0  0  0  0  0  0  0  0  0  0
   -0.0776   17.7273  -28.9067 H   0  0  0  0  0  0  0  0  0  0  0  0
    1.2872   18.8951  -28.9067 H   0  0  0  0  0  0  0  0  0  0  0  0
   -3.2177   20.8785  -26.7116 H   0  0  0  0  0  0  0  0  0  0  0  0
   -1.9172   22.0399  -27.1433 H   0  0  0  0  0  0  0  0  0  0  0  0
   -2.9501   20.2046  -29.3983 H   0  0  0  0  0  0  0  0  0  0  0  0
   -3.2061   23.2082  -28.7617 H   0  0  0  0  0  0  0  0  0  0  0  0
   -3.4930   26.0140  -31.2190 H   0  0  0  0  0  0  0  0  0  0  0  0
   -7.9864   24.4661  -31.2033 H   0  0  0  0  0  0  0  0  0  0  0  0
   -9.4655   22.1638  -32.0556 H   0  0  0  0  0  0  0  0  0  0  0  0
   -9.2235   19.7183  -32.5901 H   0  0  0  0  0  0  0  0  0  0  0  0
   -7.9690   17.7386  -32.4871 H   0  0  0  0  0  0  0  0  0  0  0  0
   -6.4686   17.7113  -30.4208 H   0  0  0  0  0  0  0  0  0  0  0  0
   -6.3188   16.3287  -31.5577 H   0  0  0  0  0  0  0  0  0  0  0  0
   -5.0803   17.6297  -31.5577 H   0  0  0  0  0  0  0  0  0  0  0  0
   -4.9955   19.9077  -31.5319 H   0  0  0  0  0  0  0  0  0  0  0  0
  1  2  1  0
  2  3  1  0
  3  4  1  0
  4  5  1  0
  3  6  1  0
  6  7  1  0
  7  8  2  3
  8  9  1  0
  9 10  2  0
  9 11  1  0
 11 12  1  0
 12 13  1  0
 13 14  1  0
 13 15  2  0
 12 16  2  0
 16 17  1  0
 17 18  2  0
 18 19  1  0
 19 20  2  0
 20 21  1  0
 21 22  1  0
 21 23  1  0
 23 24  2  0
 23 25  1  0
 20 26  1  0
 26 27  2  0
 27 11  1  0
 27 17  1  0
  1 28  1  0
  1 29  1  0
  1 30  1  0
  2 31  1  0
  2 32  1  0
  4 33  1  0
  4 34  1  0
  5 35  1  0
  5 36  1  0
  5 37  1  0
  6 38  1  0
  6 39  1  0
  7 40  1  0
  8 41  1  0
 14 42  1  0
 16 43  1  0
 18 44  1  0
 19 45  1  0
 21 46  1  6
 22 47  1  0
 22 48  1  0
 22 49  1  0
 26 50  1  0
M  CHG  2  14  -1  25  -1
M  END
>  <UniqueID>  (44) 
44

>  <SMILES>  (44) 
CCN(CC)CC=CC(=O)n1c(C([NH-])=O)cc2ccc([C@H](C)C(=O)[O-])cc21

>  <Energy>  (44) 
83.09589448706767

>  <Genealogy>  (44) 
CCN(CC)CC=CC(=O)n1c(C([NH-])=O)cc2ccc(C(C)C(=O)[O-])cc21 (protonated)
CCN(CC)CC=CC(=O)n1c(C([NH-])=O)cc2ccc([C@H](C)C(=O)[O-])cc21 (chirality)
CCN(CC)CC=CC(=O)n1c(C([NH-])=O)cc2ccc([C@H](C)C(=O)[O-])cc21 (3D coordinates assigned)
CCN(CC)CC=CC(=O)n1c(C([NH-])=O)cc2ccc([C@H](C)C(=O)[O-])cc21 (optimized conformer: 83.09589448706767 kcal/mol)

>  <smiles>  (44) 
CCN(CC)CC=CC(=O)n1c(C(N)=O)cc2ccc(C(C)C(=O)O)cc21

>  <score_type>  (44) 
oracle

>  <origin>  (44) 
adg

>  <m_score__min__energy>  (44) 
-11.43

>  <m_primary>  (44) 
energy

$$$$
44:0
     RDKit          3D

 56 59  0  0  0  0  0  0  0  0999 V2000
   -0.6500   17.4770  -32.3330 C   0  0  0  0  0  0  0  0  0  0  0  0
   -1.8020   16.8230  -32.8530 O   0  0  0  0  0  0  0  0  0  0  0  0
   -2.6850   17.4430  -33.7430 C   0  0  0  0  0  0  0  0  0  0  0  0
   -2.2390   18.2140  -34.6370 O   0  0  0  0  0  0  0  0  0  0  0  0
   -4.1020   17.2030  -33.6440 N   0  0  0  0  0  0  0  0  0  0  0  0
   -5.0000   17.7840  -34.6520 C   0  0  0  0  0  0  0  0  0  0  0  0
   -6.4730   17.4730  -34.3530 C   0  0  0  0  0  0  0  0  0  0  0  0
   -6.8140   17.6780  -32.8630 C   0  0  0  0  0  0  0  0  0  0  0  0
   -6.9300   19.1600  -32.5320 C   0  0  0  0  0  0  0  0  0  0  0  0
   -8.1500   19.8710  -32.7060 C   0  0  0  0  0  0  0  0  0  0  0  0
   -8.2600   21.2200  -32.3290 C   0  0  0  0  0  0  0  0  0  0  0  0
   -7.1440   21.8330  -31.7710 C   0  0  0  0  0  0  0  0  0  0  0  0
   -6.9900   23.1060  -31.2680 C   0  0  0  0  0  0  0  0  0  0  0  0
   -5.6800   23.1580  -30.7890 C   0  0  0  0  0  0  0  0  0  0  0  0
   -5.0520   24.3630  -30.2060 C   0  0  0  0  0  0  0  0  0  0  0  0
   -5.3870   24.8000  -28.8870 N   0  0  0  0  0  0  0  0  0  0  0  0
   -4.2260   25.0340  -30.8810 O   0  0  0  0  0  0  0  0  0  0  0  0
   -5.0570   21.9620  -30.9860 N   0  0  0  0  0  0  0  0  0  0  0  0
   -3.7330   21.5770  -30.5810 C   0  0  0  0  0  0  0  0  0  0  0  0
   -3.5080   21.3510  -29.3610 O   0  0  0  0  0  0  0  0  0  0  0  0
   -2.6280   21.4330  -31.5600 C   0  0  0  0  0  0  0  0  0  0  0  0
   -2.9460   21.1670  -32.9030 C   0  0  0  0  0  0  0  0  0  0  0  0
   -1.9370   21.0330  -33.8550 C   0  0  0  0  0  0  0  0  0  0  0  0
   -0.6070   21.1510  -33.4610 C   0  0  0  0  0  0  0  0  0  0  0  0
   -0.3020   21.3820  -32.1580 N   0  0  0  0  0  0  0  0  0  0  0  0
   -1.2600   21.5220  -31.2020 C   0  0  0  0  0  0  0  0  0  0  0  0
   -0.7130   21.7540  -29.5050 S   0  0  0  0  0  0  0  0  0  0  0  0
   -1.2240   23.4990  -29.4450 C   0  0  0  0  0  0  0  0  0  0  0  0
   -5.9610   21.1670  -31.5950 C   0  0  0  0  0  0  0  0  0  0  0  0
   -5.8230   19.8240  -31.9530 C   0  0  0  0  0  0  0  0  0  0  0  0
   -5.8510   16.9110  -31.9120 C   0  0  0  0  0  0  0  0  0  0  0  0
   -4.6390   16.2890  -32.6240 C   0  0  0  0  0  0  0  0  0  0  0  0
   -0.6827   17.4584  -31.2336 H   0  0  0  0  0  0  0  0  0  0  0  0
    0.2550   16.9580  -32.6817 H   0  0  0  0  0  0  0  0  0  0  0  0
   -0.6318   18.5201  -32.6817 H   0  0  0  0  0  0  0  0  0  0  0  0
   -4.8623   18.8753  -34.6643 H   0  0  0  0  0  0  0  0  0  0  0  0
   -4.7493   17.3418  -35.6275 H   0  0  0  0  0  0  0  0  0  0  0  0
   -7.1066   18.1386  -34.9575 H   0  0  0  0  0  0  0  0  0  0  0  0
   -6.6554   16.4172  -34.6019 H   0  0  0  0  0  0  0  0  0  0  0  0
   -7.8023   17.2289  -32.6851 H   0  0  0  0  0  0  0  0  0  0  0  0
   -9.0195   19.3572  -33.1419 H   0  0  0  0  0  0  0  0  0  0  0  0
   -9.1998   21.7738  -32.4709 H   0  0  0  0  0  0  0  0  0  0  0  0
   -7.7399   23.9105  -31.2480 H   0  0  0  0  0  0  0  0  0  0  0  0
   -4.9630   25.6720  -28.5000 H   0  0  0  0  0  0  0  0  0  0  0  0
   -6.0200   24.2410  -28.2740 H   0  0  0  0  0  0  0  0  0  0  0  0
   -3.9987   21.0639  -33.2048 H   0  0  0  0  0  0  0  0  0  0  0  0
   -2.1891   20.8359  -34.9074 H   0  0  0  0  0  0  0  0  0  0  0  0
    0.1973   21.0571  -34.2055 H   0  0  0  0  0  0  0  0  0  0  0  0
   -1.3174   23.8179  -28.3964 H   0  0  0  0  0  0  0  0  0  0  0  0
   -0.4698   24.1195  -29.9512 H   0  0  0  0  0  0  0  0  0  0  0  0
   -2.1937   23.6147  -29.9512 H   0  0  0  0  0  0  0  0  0  0  0  0
   -4.8735   19.2937  -31.7882 H   0  0  0  0  0  0  0  0  0  0  0  0
   -5.4824   17.6145  -31.1509 H   0  0  0  0  0  0  0  0  0  0  0  0
   -6.4262   16.0811  -31.4757 H   0  0  0  0  0  0  0  0  0  0  0  0
   -3.8551   16.0773  -31.8819 H   0  0  0  0  0  0  0  0  0  0  0  0
   -4.9609   15.3609  -33.1190 H   0  0  0  0  0  0  0  0  0  0  0  0
  1  2  1  0
  2  3  1  0
  3  4  2  0
  3  5  1  0
  5  6  1  0
  6  7  1  0
  7  8  1  0
  8  9  1  0
  9 10  2  0
 10 11  1  0
 11 12  2  0
 12 13  1  0
 13 14  2  0
 14 15  1  0
 15 16  1  0
 15 17  2  0
 14 18  1  0
 18 19  1  0
 19 20  2  0
 19 21  1  0
 21 22  2  0
 22 23  1  0
 23 24  2  0
 24 25  1  0
 25 26  2  0
 26 27  1  0
 27 28  1  0
 18 29  1  0
 29 30  2  0
  8 31  1  0
 31 32  1  0
 32  5  1  0
 30  9  1  0
 29 12  1  0
 26 21  1  0
  1 33  1  0
  1 34  1  0
  1 35  1  0
  6 36  1  0
  6 37  1  0
  7 38  1  0
  7 39  1  0
  8 40  1  0
 10 41  1  0
 11 42  1  0
 13 43  1  0
 16 44  1  0
 16 45  1  0
 22 46  1  0
 23 47  1  0
 24 48  1  0
 28 49  1  0
 28 50  1  0
 28 51  1  0
 30 52  1  0
 31 53  1  0
 31 54  1  0
 32 55  1  0
 32 56  1  0
M  END
>  <UniqueID>  (45) 
45

>  <SMILES>  (45) 
COC(=O)N1CCC(c2ccc3cc(C(N)=O)n(C(=O)c4cccnc4SC)c3c2)CC1

>  <Energy>  (45) 
99.82643594074416

>  <Genealogy>  (45) 
COC(=O)N1CCC(c2ccc3cc(C(N)=O)n(C(=O)c4cccnc4SC)c3c2)CC1 (3D coordinates assigned)
COC(=O)N1CCC(c2ccc3cc(C(N)=O)n(C(=O)c4cccnc4SC)c3c2)CC1 (nonaromatic ring conformer: 99.82643594074416 kcal/mol)

>  <smiles>  (45) 
COC(=O)N1CCC(c2ccc3cc(C(N)=O)n(C(=O)c4cccnc4SC)c3c2)CC1

>  <score_type>  (45) 
oracle

>  <origin>  (45) 
adg

>  <m_score__min__energy>  (45) 
-10.34

>  <m_primary>  (45) 
energy

$$$$
45:0
     RDKit          3D

 52 54  0  0  0  0  0  0  0  0999 V2000
   -2.3430   25.6190  -25.8030 C   0  0  0  0  0  0  0  0  0  0  0  0
   -2.3170   25.0530  -27.0130 C   0  0  0  0  0  0  0  0  0  0  0  0
   -1.4260   25.5770  -28.0980 C   0  0  0  0  0  0  0  0  0  0  0  0
   -1.6750   24.8620  -29.3030 O   0  0  0  0  0  0  0  0  0  0  0  0
   -1.2110   23.5610  -29.5240 C   0  0  0  0  0  0  0  0  0  0  0  0
   -0.0220   23.2520  -29.2370 O   0  0  0  0  0  0  0  0  0  0  0  0
   -2.1340   22.5490  -30.1640 C   0  0  0  0  0  0  0  0  0  0  0  0
   -3.0290   21.8590  -29.1140 C   0  0  0  0  0  0  0  0  0  0  0  0
   -1.2800   21.4910  -30.8740 C   0  0  0  0  0  0  0  0  0  0  0  0
   -2.9520   23.1810  -31.1590 O   0  0  0  0  0  0  0  0  0  0  0  0
   -4.0060   22.5780  -31.8620 C   0  0  0  0  0  0  0  0  0  0  0  0
   -3.7530   21.7880  -32.8100 O   0  0  0  0  0  0  0  0  0  0  0  0
   -5.3720   22.8020  -31.4460 N   0  0  0  0  0  0  0  0  0  0  0  0
   -5.9240   23.9770  -31.0210 C   0  0  0  0  0  0  0  0  0  0  0  0
   -5.1940   25.2130  -30.6910 C   0  0  0  0  0  0  0  0  0  0  0  0
   -3.9780   25.1650  -29.9440 N   0  0  0  0  0  0  0  0  0  0  0  0
   -5.6880   26.3280  -31.0050 O   0  0  0  0  0  0  0  0  0  0  0  0
   -7.3080   23.8780  -30.9350 C   0  0  0  0  0  0  0  0  0  0  0  0
   -7.6010   22.5850  -31.2920 C   0  0  0  0  0  0  0  0  0  0  0  0
   -8.8340   21.9460  -31.3790 C   0  0  0  0  0  0  0  0  0  0  0  0
   -8.8530   20.6010  -31.7770 C   0  0  0  0  0  0  0  0  0  0  0  0
   -7.6450   19.9160  -32.0530 C   0  0  0  0  0  0  0  0  0  0  0  0
   -7.6690   18.4810  -32.5000 C   0  0  0  0  0  0  0  0  0  0  0  0
   -6.4240   18.1560  -33.1880 N   0  0  0  0  0  0  0  0  0  0  0  0
   -5.4010   17.4420  -32.6810 C   0  0  0  0  0  0  0  0  0  0  0  0
   -4.3820   17.4290  -33.6070 C   0  0  0  0  0  0  0  0  0  0  0  0
   -4.8600   18.1770  -34.6670 C   0  0  0  0  0  0  0  0  0  0  0  0
   -6.1030   18.6160  -34.3880 N   0  0  0  0  0  0  0  0  0  0  0  0
   -6.4120   20.5970  -31.9560 C   0  0  0  0  0  0  0  0  0  0  0  0
   -6.4200   21.9500  -31.5870 C   0  0  0  0  0  0  0  0  0  0  0  0
   -3.0051   25.2171  -25.0219 H   0  0  0  0  0  0  0  0  0  0  0  0
   -1.7023   26.4869  -25.5879 H   0  0  0  0  0  0  0  0  0  0  0  0
   -2.9621   24.1856  -27.2167 H   0  0  0  0  0  0  0  0  0  0  0  0
   -1.6313   26.6459  -28.2568 H   0  0  0  0  0  0  0  0  0  0  0  0
   -0.3742   25.4454  -27.8042 H   0  0  0  0  0  0  0  0  0  0  0  0
   -2.6827   22.1260  -28.1047 H   0  0  0  0  0  0  0  0  0  0  0  0
   -4.0696   22.1908  -29.2443 H   0  0  0  0  0  0  0  0  0  0  0  0
   -2.9729   20.7682  -29.2443 H   0  0  0  0  0  0  0  0  0  0  0  0
   -0.7743   20.8645  -30.1244 H   0  0  0  0  0  0  0  0  0  0  0  0
   -1.9255   20.8607  -31.5034 H   0  0  0  0  0  0  0  0  0  0  0  0
   -0.5277   21.9890  -31.5034 H   0  0  0  0  0  0  0  0  0  0  0  0
   -3.4620   26.0460  -29.7210 H   0  0  0  0  0  0  0  0  0  0  0  0
   -3.6190   24.2600  -29.5670 H   0  0  0  0  0  0  0  0  0  0  0  0
   -8.0169   24.6669  -30.6433 H   0  0  0  0  0  0  0  0  0  0  0  0
   -9.7663   22.4798  -31.1427 H   0  0  0  0  0  0  0  0  0  0  0  0
   -9.8138   20.0745  -31.8754 H   0  0  0  0  0  0  0  0  0  0  0  0
   -7.7827   17.8272  -31.6227 H   0  0  0  0  0  0  0  0  0  0  0  0
   -8.5140   18.3292  -33.1878 H   0  0  0  0  0  0  0  0  0  0  0  0
   -5.3826   16.9529  -31.6959 H   0  0  0  0  0  0  0  0  0  0  0  0
   -3.4038   16.9331  -33.5222 H   0  0  0  0  0  0  0  0  0  0  0  0
   -4.3093   18.3825  -35.5968 H   0  0  0  0  0  0  0  0  0  0  0  0
   -5.4653   20.0774  -32.1654 H   0  0  0  0  0  0  0  0  0  0  0  0
  1  2  2  0
  2  3  1  0
  3  4  1  0
  4  5  1  0
  5  6  2  0
  5  7  1  0
  7  8  1  0
  7  9  1  0
  7 10  1  0
 10 11  1  0
 11 12  2  0
 11 13  1  0
 13 14  1  0
 14 15  1  0
 15 16  1  0
 15 17  2  0
 14 18  2  0
 18 19  1  0
 19 20  2  0
 20 21  1  0
 21 22  2  0
 22 23  1  0
 23 24  1  0
 24 25  1  0
 25 26  2  0
 26 27  1  0
 27 28  2  0
 22 29  1  0
 29 30  2  0
 30 13  1  0
 30 19  1  0
 28 24  1  0
  1 31  1  0
  1 32  1  0
  2 33  1  0
  3 34  1  0
  3 35  1  0
  8 36  1  0
  8 37  1  0
  8 38  1  0
  9 39  1  0
  9 40  1  0
  9 41  1  0
 16 42  1  0
 16 43  1  0
 18 44  1  0
 20 45  1  0
 21 46  1  0
 23 47  1  0
 23 48  1  0
 25 49  1  0
 26 50  1  0
 27 51  1  0
 29 52  1  0
M  END
>  <UniqueID>  (46) 
46

>  <SMILES>  (46) 
C=CCOC(=O)C(C)(C)OC(=O)n1c(C(N)=O)cc2ccc(Cn3cccn3)cc21

>  <Energy>  (46) 
112.49043155981936

>  <Genealogy>  (46) 
C=CCOC(=O)C(C)(C)OC(=O)n1c(C(N)=O)cc2ccc(Cn3cccn3)cc21 (3D coordinates assigned)
C=CCOC(=O)C(C)(C)OC(=O)n1c(C(N)=O)cc2ccc(Cn3cccn3)cc21 (optimized conformer: 112.49043155981936 kcal/mol)

>  <smiles>  (46) 
C=CCOC(=O)C(C)(C)OC(=O)n1c(C(N)=O)cc2ccc(Cn3cccn3)cc21

>  <score_type>  (46) 
oracle

>  <origin>  (46) 
adg

>  <m_score__min__energy>  (46) 
-10.119999999999999

>  <m_primary>  (46) 
energy

$$$$
46:0
     RDKit          3D

 53 56  0  0  0  0  0  0  0  0999 V2000
   -3.8640   25.5630  -31.0240 N   0  0  0  0  0  0  0  0  0  0  0  0
   -5.2120   25.4190  -30.5810 C   0  0  0  0  0  0  0  0  0  0  0  0
   -5.7420   26.3430  -29.9110 O   0  0  0  0  0  0  0  0  0  0  0  0
   -5.9710   24.1790  -30.8480 C   0  0  0  0  0  0  0  0  0  0  0  0
   -7.3620   24.1320  -30.9110 C   0  0  0  0  0  0  0  0  0  0  0  0
   -7.6740   22.8040  -31.0830 C   0  0  0  0  0  0  0  0  0  0  0  0
   -8.9150   22.1860  -31.2150 C   0  0  0  0  0  0  0  0  0  0  0  0
   -8.9410   20.7960  -31.4090 C   0  0  0  0  0  0  0  0  0  0  0  0
   -7.7350   20.0530  -31.4760 C   0  0  0  0  0  0  0  0  0  0  0  0
   -7.7720   18.5580  -31.6630 C   0  0  0  0  0  0  0  0  0  0  0  0
   -7.4110   18.1370  -33.1000 C   0  0  0  0  0  0  0  0  0  0  0  0
   -6.4270   17.0230  -33.1430 N   0  0  1  0  0  0  0  0  0  0  0  0
   -5.8700   16.6520  -34.4510 C   0  0  2  0  0  0  0  0  0  0  0  0
   -4.8100   15.5910  -34.1050 C   0  0  0  0  0  0  0  0  0  0  0  0
   -4.3470   15.9910  -32.7030 C   0  0  0  0  0  0  0  0  0  0  0  0
   -5.1860   17.2430  -32.3930 C   0  0  1  0  0  0  0  0  0  0  0  0
   -4.4340   18.5060  -32.9220 C   0  0  0  0  0  0  0  0  0  0  0  0
   -4.8080   18.9250  -34.2300 O   0  0  0  0  0  0  0  0  0  0  0  0
   -5.1730   17.8760  -35.1210 C   0  0  0  0  0  0  0  0  0  0  0  0
   -6.4950   20.7140  -31.3350 C   0  0  0  0  0  0  0  0  0  0  0  0
   -6.4990   22.0980  -31.1250 C   0  0  0  0  0  0  0  0  0  0  0  0
   -5.4430   22.9290  -30.9840 N   0  0  0  0  0  0  0  0  0  0  0  0
   -4.0560   22.5700  -31.0700 C   0  0  0  0  0  0  0  0  0  0  0  0
   -3.6680   21.7610  -31.9580 O   0  0  0  0  0  0  0  0  0  0  0  0
   -3.1360   23.1330  -30.1820 O   0  0  0  0  0  0  0  0  0  0  0  0
   -3.4240   23.3450  -28.8050 C   0  0  0  0  0  0  0  0  0  0  0  0
   -2.4730   24.3950  -28.2420 C   0  0  0  0  0  0  0  0  0  0  0  0
   -1.8690   25.1140  -29.2830 O   0  0  0  0  0  0  0  0  0  0  0  0
   -3.0660   25.2800  -30.4130 H   0  0  0  0  0  0  0  0  0  0  0  0
   -8.0618   24.9776  -30.8385 H   0  0  0  0  0  0  0  0  0  0  0  0
   -9.8464   22.7693  -31.1687 H   0  0  0  0  0  0  0  0  0  0  0  0
   -9.9062   20.2781  -31.5100 H   0  0  0  0  0  0  0  0  0  0  0  0
   -7.0537   18.0973  -30.9689 H   0  0  0  0  0  0  0  0  0  0  0  0
   -8.7995   18.2202  -31.4626 H   0  0  0  0  0  0  0  0  0  0  0  0
   -8.3291   17.8152  -33.6133 H   0  0  0  0  0  0  0  0  0  0  0  0
   -6.9508   19.0053  -33.5942 H   0  0  0  0  0  0  0  0  0  0  0  0
   -6.8990   16.1830  -32.7260 H   0  0  0  0  0  0  0  0  0  0  0  0
   -6.6415   16.2972  -35.1502 H   0  0  0  0  0  0  0  0  0  0  0  0
   -5.2499   14.5828  -34.1009 H   0  0  0  0  0  0  0  0  0  0  0  0
   -3.9867   15.5551  -34.8336 H   0  0  0  0  0  0  0  0  0  0  0  0
   -4.5524   15.1902  -31.9774 H   0  0  0  0  0  0  0  0  0  0  0  0
   -3.2641   16.1750  -32.6450 H   0  0  0  0  0  0  0  0  0  0  0  0
   -5.3701   17.4014  -31.3202 H   0  0  0  0  0  0  0  0  0  0  0  0
   -4.6316   19.3364  -32.2281 H   0  0  0  0  0  0  0  0  0  0  0  0
   -3.3710   18.2290  -32.9801 H   0  0  0  0  0  0  0  0  0  0  0  0
   -5.8610   18.2909  -35.8723 H   0  0  0  0  0  0  0  0  0  0  0  0
   -4.2335   17.4970  -35.5496 H   0  0  0  0  0  0  0  0  0  0  0  0
   -5.5492   20.1550  -31.3889 H   0  0  0  0  0  0  0  0  0  0  0  0
   -4.4614   23.6946  -28.6971 H   0  0  0  0  0  0  0  0  0  0  0  0
   -3.2955   22.4015  -28.2543 H   0  0  0  0  0  0  0  0  0  0  0  0
   -3.0371   25.0890  -27.6015 H   0  0  0  0  0  0  0  0  0  0  0  0
   -1.6910   23.8909  -27.6552 H   0  0  0  0  0  0  0  0  0  0  0  0
   -2.0730   24.6240  -30.1220 H   0  0  0  0  0  0  0  0  0  0  0  0
  1  2  1  0
  2  3  2  0
  2  4  1  0
  4  5  2  0
  5  6  1  0
  6  7  2  0
  7  8  1  0
  8  9  2  0
  9 10  1  0
 10 11  1  0
 11 12  1  0
 12 13  1  0
 13 14  1  0
 14 15  1  0
 15 16  1  0
 16 17  1  0
 17 18  1  0
 18 19  1  0
  9 20  1  0
 20 21  2  0
 21 22  1  0
 22 23  1  0
 23 24  2  0
 23 25  1  0
 25 26  1  0
 26 27  1  0
 27 28  1  0
 22  4  1  0
 21  6  1  0
 16 12  1  0
 19 13  1  0
  1 29  1  0
  5 30  1  0
  7 31  1  0
  8 32  1  0
 10 33  1  0
 10 34  1  0
 11 35  1  0
 11 36  1  0
 12 37  1  1
 13 38  1  6
 14 39  1  0
 14 40  1  0
 15 41  1  0
 15 42  1  0
 16 43  1  1
 17 44  1  0
 17 45  1  0
 19 46  1  0
 19 47  1  0
 20 48  1  0
 26 49  1  0
 26 50  1  0
 27 51  1  0
 27 52  1  0
 28 53  1  0
M  CHG  2   1  -1  12   1
M  END
>  <UniqueID>  (47) 
47

>  <SMILES>  (47) 
[NH-]C(=O)c1cc2ccc(CC[N@H+]3[C@@H]4CC[C@H]3COC4)cc2n1C(=O)OCCO

>  <Energy>  (47) 
120.54709676748571

>  <Genealogy>  (47) 
[NH-]C(=O)c1cc2ccc(CC[NH+]3[C@@H]4CC[C@H]3COC4)cc2n1C(=O)OCCO (protonated)
[NH-]C(=O)c1cc2ccc(CC[N@H+]3[C@@H]4CC[C@H]3COC4)cc2n1C(=O)OCCO (chirality)
[NH-]C(=O)c1cc2ccc(CC[N@H+]3[C@@H]4CC[C@H]3COC4)cc2n1C(=O)OCCO (3D coordinates assigned)
[NH-]C(=O)c1cc2ccc(CC[N@H+]3[C@@H]4CC[C@H]3COC4)cc2n1C(=O)OCCO (nonaromatic ring conformer: 120.54709676748571 kcal/mol)

>  <smiles>  (47) 
NC(=O)c1cc2ccc(CCN3[C@@H]4CC[C@H]3COC4)cc2n1C(=O)OCCO

>  <score_type>  (47) 
oracle

>  <origin>  (47) 
adg

>  <m_score__min__energy>  (47) 
-9.8800000000000008

>  <m_primary>  (47) 
energy

$$$$
47:0
     RDKit          3D

 58 60  0  0  0  0  0  0  0  0999 V2000
   -9.0990   21.1570  -31.9270 C   0  0  0  0  0  0  0  0  0  0  0  0
   -8.8140   19.9870  -32.4980 C   0  0  0  0  0  0  0  0  0  0  0  0
   -7.6760   19.1470  -32.0790 C   0  0  0  0  0  0  0  0  0  0  0  0
   -7.8810   18.2000  -31.2750 O   0  0  0  0  0  0  0  0  0  0  0  0
   -6.3410   19.3880  -32.5560 N   0  0  0  0  0  0  0  0  0  0  0  0
   -5.6530   18.7120  -33.5180 C   0  0  0  0  0  0  0  0  0  0  0  0
   -6.1140   17.4950  -34.2180 C   0  0  0  0  0  0  0  0  0  0  0  0
   -7.0860   16.6250  -33.6380 N   0  0  0  0  0  0  0  0  0  0  0  0
   -5.6110   17.1990  -35.3350 O   0  0  0  0  0  0  0  0  0  0  0  0
   -4.4270   19.3260  -33.7640 C   0  0  0  0  0  0  0  0  0  0  0  0
   -4.3770   20.3990  -32.9000 C   0  0  0  0  0  0  0  0  0  0  0  0
   -3.3950   21.3720  -32.7320 C   0  0  0  0  0  0  0  0  0  0  0  0
   -3.6320   22.3880  -31.7910 C   0  0  0  0  0  0  0  0  0  0  0  0
   -4.8330   22.4100  -31.0370 C   0  0  0  0  0  0  0  0  0  0  0  0
   -5.0960   23.5310  -30.0640 C   0  0  0  0  0  0  0  0  0  0  0  0
   -3.8380   24.3030  -29.7360 C   0  0  0  0  0  0  0  0  0  0  0  0
   -3.5260   25.2840  -30.4650 O   0  0  0  0  0  0  0  0  0  0  0  0
   -3.0220   24.0040  -28.5750 N   0  0  0  0  0  0  0  0  0  0  0  0
   -3.0040   24.9010  -27.4200 C   0  0  1  0  0  0  0  0  0  0  0  0
   -4.2630   24.6930  -26.5690 C   0  0  0  0  0  0  0  0  0  0  0  0
   -1.7390   24.5450  -26.6430 C   0  0  0  0  0  0  0  0  0  0  0  0
   -1.4140   23.1150  -27.0460 C   0  0  0  0  0  0  0  0  0  0  0  0
   -2.0210   22.9300  -28.4510 C   0  0  1  0  0  0  0  0  0  0  0  0
   -2.6840   21.5390  -28.5430 C   0  0  0  0  0  0  0  0  0  0  0  0
   -0.9300   23.1010  -29.4860 C   0  0  0  0  0  0  0  0  0  0  0  0
    0.0300   23.8890  -29.2580 O   0  0  0  0  0  0  0  0  0  0  0  0
   -0.9600   22.3470  -30.6660 O   0  0  0  0  0  0  0  0  0  0  0  0
   -0.3690   21.0550  -30.7900 C   0  0  0  0  0  0  0  0  0  0  0  0
   -0.1100   20.7160  -32.2550 C   0  0  0  0  0  0  0  0  0  0  0  0
   -5.8100   21.4110  -31.2440 C   0  0  0  0  0  0  0  0  0  0  0  0
   -5.5430   20.4090  -32.1800 C   0  0  0  0  0  0  0  0  0  0  0  0
   -9.9601   21.7449  -32.2776 H   0  0  0  0  0  0  0  0  0  0  0  0
   -8.4732   21.5348  -31.1051 H   0  0  0  0  0  0  0  0  0  0  0  0
   -9.4557   19.6320  -33.3179 H   0  0  0  0  0  0  0  0  0  0  0  0
   -7.3810   16.7260  -32.6430 H   0  0  0  0  0  0  0  0  0  0  0  0
   -7.4540   15.8140  -34.1850 H   0  0  0  0  0  0  0  0  0  0  0  0
   -3.6618   19.0198  -34.4925 H   0  0  0  0  0  0  0  0  0  0  0  0
   -2.4639   21.3459  -33.3171 H   0  0  0  0  0  0  0  0  0  0  0  0
   -2.8784   23.1744  -31.6375 H   0  0  0  0  0  0  0  0  0  0  0  0
   -5.8305   24.2202  -30.5063 H   0  0  0  0  0  0  0  0  0  0  0  0
   -5.4764   23.0891  -29.1313 H   0  0  0  0  0  0  0  0  0  0  0  0
   -2.9991   25.9605  -27.7156 H   0  0  0  0  0  0  0  0  0  0  0  0
   -3.9963   24.7371  -25.5027 H   0  0  0  0  0  0  0  0  0  0  0  0
   -4.9942   25.4825  -26.7970 H   0  0  0  0  0  0  0  0  0  0  0  0
   -4.7014   23.7102  -26.7970 H   0  0  0  0  0  0  0  0  0  0  0  0
   -0.9149   25.2200  -26.9172 H   0  0  0  0  0  0  0  0  0  0  0  0
   -1.8816   24.6442  -25.5568 H   0  0  0  0  0  0  0  0  0  0  0  0
   -0.3250   22.9628  -27.0755 H   0  0  0  0  0  0  0  0  0  0  0  0
   -1.8219   22.3880  -26.3283 H   0  0  0  0  0  0  0  0  0  0  0  0
   -2.8681   21.1528  -27.5296 H   0  0  0  0  0  0  0  0  0  0  0  0
   -3.6389   21.6229  -29.0825 H   0  0  0  0  0  0  0  0  0  0  0  0
   -2.0174   20.8501  -29.0825 H   0  0  0  0  0  0  0  0  0  0  0  0
    0.5849   21.0407  -30.2424 H   0  0  0  0  0  0  0  0  0  0  0  0
   -1.0613   20.3091  -30.3725 H   0  0  0  0  0  0  0  0  0  0  0  0
    0.5567   19.8433  -32.3171 H   0  0  0  0  0  0  0  0  0  0  0  0
   -1.0637   20.4849  -32.7520 H   0  0  0  0  0  0  0  0  0  0  0  0
    0.3637   21.5754  -32.7520 H   0  0  0  0  0  0  0  0  0  0  0  0
   -6.7561   21.4218  -30.6829 H   0  0  0  0  0  0  0  0  0  0  0  0
  1  2  2  0
  2  3  1  0
  3  4  2  0
  3  5  1  0
  5  6  1  0
  6  7  1  0
  7  8  1  0
  7  9  2  0
  6 10  2  0
 10 11  1  0
 11 12  2  0
 12 13  1  0
 13 14  2  0
 14 15  1  0
 15 16  1  0
 16 17  2  0
 16 18  1  0
 18 19  1  0
 19 20  1  0
 19 21  1  0
 21 22  1  0
 22 23  1  0
 23 24  1  1
 23 25  1  0
 25 26  2  0
 25 27  1  0
 27 28  1  0
 28 29  1  0
 14 30  1  0
 30 31  2  0
 31  5  1  0
 31 11  1  0
 23 18  1  0
  1 32  1  0
  1 33  1  0
  2 34  1  0
  8 35  1  0
  8 36  1  0
 10 37  1  0
 12 38  1  0
 13 39  1  0
 15 40  1  0
 15 41  1  0
 19 42  1  6
 20 43  1  0
 20 44  1  0
 20 45  1  0
 21 46  1  0
 21 47  1  0
 22 48  1  0
 22 49  1  0
 24 50  1  0
 24 51  1  0
 24 52  1  0
 28 53  1  0
 28 54  1  0
 29 55  1  0
 29 56  1  0
 29 57  1  0
 30 58  1  0
M  END
>  <UniqueID>  (48) 
48

>  <SMILES>  (48) 
C=CC(=O)n1c(C(N)=O)cc2ccc(CC(=O)N3[C@@H](C)CC[C@]3(C)C(=O)OCC)cc21

>  <Energy>  (48) 
93.93709910474121

>  <Genealogy>  (48) 
C=CC(=O)n1c(C(N)=O)cc2ccc(CC(=O)N3[C@@H](C)CC[C@]3(C)C(=O)OCC)cc21 (chirality)
C=CC(=O)n1c(C(N)=O)cc2ccc(CC(=O)N3[C@@H](C)CC[C@]3(C)C(=O)OCC)cc21 (3D coordinates assigned)
C=CC(=O)n1c(C(N)=O)cc2ccc(CC(=O)N3[C@@H](C)CC[C@]3(C)C(=O)OCC)cc21 (nonaromatic ring conformer: 93.93709910474121 kcal/mol)

>  <smiles>  (48) 
C=CC(=O)n1c(C(N)=O)cc2ccc(CC(=O)N3C(C)CCC3(C)C(=O)OCC)cc21

>  <score_type>  (48) 
oracle

>  <origin>  (48) 
adg

>  <m_score__min__energy>  (48) 
-9.5500000000000007

>  <m_primary>  (48) 
energy

$$$$
48:0
     RDKit          3D

 71 73  0  0  0  0  0  0  0  0999 V2000
   -1.4630   26.5310  -25.0850 C   0  0  0  0  0  0  0  0  0  0  0  0
   -0.7570   25.2150  -25.0420 C   0  0  0  0  0  0  0  0  0  0  0  0
   -0.8710   24.3360  -24.0760 O   0  0  0  0  0  0  0  0  0  0  0  0
   -0.0930   23.3320  -24.4140 C   0  0  0  0  0  0  0  0  0  0  0  0
    0.0520   22.2950  -23.7120 O   0  0  0  0  0  0  0  0  0  0  0  0
    0.5190   23.5270  -25.5600 O   0  0  0  0  0  0  0  0  0  0  0  0
    0.1230   24.7050  -25.9790 C   0  0  0  0  0  0  0  0  0  0  0  0
    0.5760   25.3510  -27.2530 C   0  0  0  0  0  0  0  0  0  0  0  0
    0.2850   24.5150  -28.3710 O   0  0  0  0  0  0  0  0  0  0  0  0
   -1.0160   24.1960  -28.7830 C   0  0  0  0  0  0  0  0  0  0  0  0
   -1.7920   25.1120  -29.1780 O   0  0  0  0  0  0  0  0  0  0  0  0
   -1.4590   22.7460  -28.8390 C   0  0  0  0  0  0  0  0  0  0  0  0
   -0.8810   21.9780  -27.6300 C   0  0  0  0  0  0  0  0  0  0  0  0
   -0.9250   22.1250  -30.1470 C   0  0  0  0  0  0  0  0  0  0  0  0
   -3.0070   22.6640  -28.8100 C   0  0  0  0  0  0  0  0  0  0  0  0
   -3.4930   21.9130  -29.9230 O   0  0  0  0  0  0  0  0  0  0  0  0
   -4.0100   22.5080  -31.0770 C   0  0  0  0  0  0  0  0  0  0  0  0
   -3.2510   22.7400  -32.0590 O   0  0  0  0  0  0  0  0  0  0  0  0
   -5.4120   22.8330  -31.1470 N   0  0  0  0  0  0  0  0  0  0  0  0
   -5.9780   24.0360  -30.8550 C   0  0  0  0  0  0  0  0  0  0  0  0
   -5.2420   25.2400  -30.4610 C   0  0  0  0  0  0  0  0  0  0  0  0
   -3.8690   25.3770  -30.8140 N   0  0  0  0  0  0  0  0  0  0  0  0
   -5.8240   26.1450  -29.8000 O   0  0  0  0  0  0  0  0  0  0  0  0
   -7.3610   23.9900  -30.9850 C   0  0  0  0  0  0  0  0  0  0  0  0
   -7.6400   22.6990  -31.3680 C   0  0  0  0  0  0  0  0  0  0  0  0
   -8.8690   22.0880  -31.5960 C   0  0  0  0  0  0  0  0  0  0  0  0
   -8.8740   20.7200  -31.9130 C   0  0  0  0  0  0  0  0  0  0  0  0
   -7.6600   19.9920  -31.9980 C   0  0  0  0  0  0  0  0  0  0  0  0
   -7.6920   18.5080  -32.2520 C   0  0  0  0  0  0  0  0  0  0  0  0
   -6.3230   17.8910  -31.9610 C   0  0  0  0  0  0  0  0  0  0  0  0
   -5.6490   17.5290  -33.2040 N   0  0  0  0  0  0  0  0  0  0  0  0
   -5.2590   18.4770  -34.2020 C   0  0  0  0  0  0  0  0  0  0  0  0
   -5.6880   18.3690  -35.3840 O   0  0  0  0  0  0  0  0  0  0  0  0
   -4.3870   19.5140  -33.8380 O   0  0  0  0  0  0  0  0  0  0  0  0
   -3.0180   19.3740  -33.4320 C   0  0  0  0  0  0  0  0  0  0  0  0
   -2.5170   17.9410  -33.6990 C   0  0  0  0  0  0  0  0  0  0  0  0
   -2.1320   20.4060  -34.1550 C   0  0  0  0  0  0  0  0  0  0  0  0
   -2.9640   19.6470  -31.9200 C   0  0  0  0  0  0  0  0  0  0  0  0
   -6.4290   20.6450  -31.7560 C   0  0  0  0  0  0  0  0  0  0  0  0
   -6.4490   22.0170  -31.4570 C   0  0  0  0  0  0  0  0  0  0  0  0
   -1.6504   26.8803  -24.0589 H   0  0  0  0  0  0  0  0  0  0  0  0
   -0.8378   27.2654  -25.6139 H   0  0  0  0  0  0  0  0  0  0  0  0
   -2.4207   26.4162  -25.6139 H   0  0  0  0  0  0  0  0  0  0  0  0
    0.0559   26.3125  -27.3756 H   0  0  0  0  0  0  0  0  0  0  0  0
    1.6633   25.5101  -27.2027 H   0  0  0  0  0  0  0  0  0  0  0  0
   -1.2319   22.4443  -26.6976 H   0  0  0  0  0  0  0  0  0  0  0  0
   -1.2173   20.9313  -27.6657 H   0  0  0  0  0  0  0  0  0  0  0  0
    0.2179   22.0115  -27.6657 H   0  0  0  0  0  0  0  0  0  0  0  0
   -0.2250   21.3110  -29.9074 H   0  0  0  0  0  0  0  0  0  0  0  0
   -1.7657   21.7251  -30.7330 H   0  0  0  0  0  0  0  0  0  0  0  0
   -0.4037   22.8963  -30.7330 H   0  0  0  0  0  0  0  0  0  0  0  0
   -3.3254   22.1749  -27.8776 H   0  0  0  0  0  0  0  0  0  0  0  0
   -3.4165   23.6834  -28.8650 H   0  0  0  0  0  0  0  0  0  0  0  0
   -3.2190   24.5620  -30.7660 H   0  0  0  0  0  0  0  0  0  0  0  0
   -8.0768   24.8083  -30.8179 H   0  0  0  0  0  0  0  0  0  0  0  0
   -9.8072   22.6585  -31.5300 H   0  0  0  0  0  0  0  0  0  0  0  0
   -9.8298   20.2076  -32.0973 H   0  0  0  0  0  0  0  0  0  0  0  0
   -8.4456   18.0440  -31.5987 H   0  0  0  0  0  0  0  0  0  0  0  0
   -7.9480   18.3306  -33.3070 H   0  0  0  0  0  0  0  0  0  0  0  0
   -5.7066   18.6199  -31.4143 H   0  0  0  0  0  0  0  0  0  0  0  0
   -6.4641   16.9831  -31.3562 H   0  0  0  0  0  0  0  0  0  0  0  0
   -2.3385   17.4305  -32.7411 H   0  0  0  0  0  0  0  0  0  0  0  0
   -3.2753   17.3885  -34.2732 H   0  0  0  0  0  0  0  0  0  0  0  0
   -1.5796   17.9813  -34.2732 H   0  0  0  0  0  0  0  0  0  0  0  0
   -1.6040   21.0210  -33.4113 H   0  0  0  0  0  0  0  0  0  0  0  0
   -1.3982   19.8819  -34.7850 H   0  0  0  0  0  0  0  0  0  0  0  0
   -2.7611   21.0520  -34.7850 H   0  0  0  0  0  0  0  0  0  0  0  0
   -3.1490   18.7115  -31.3717 H   0  0  0  0  0  0  0  0  0  0  0  0
   -1.9711   20.0381  -31.6533 H   0  0  0  0  0  0  0  0  0  0  0  0
   -3.7332   20.3867  -31.6533 H   0  0  0  0  0  0  0  0  0  0  0  0
   -5.4793   20.0918  -31.8009 H   0  0  0  0  0  0  0  0  0  0  0  0
  1  2  1  0
  2  3  1  0
  3  4  1  0
  4  5  2  0
  4  6  1  0
  6  7  1  0
  7  8  1  0
  8  9  1  0
  9 10  1  0
 10 11  2  0
 10 12  1  0
 12 13  1  0
 12 14  1  0
 12 15  1  0
 15 16  1  0
 16 17  1  0
 17 18  2  0
 17 19  1  0
 19 20  1  0
 20 21  1  0
 21 22  1  0
 21 23  2  0
 20 24  2  0
 24 25  1  0
 25 26  2  0
 26 27  1  0
 27 28  2  0
 28 29  1  0
 29 30  1  0
 30 31  1  0
 31 32  1  0
 32 33  2  0
 32 34  1  0
 34 35  1  0
 35 36  1  0
 35 37  1  0
 35 38  1  0
 28 39  1  0
 39 40  2  0
  7  2  2  0
 40 19  1  0
 40 25  1  0
  1 41  1  0
  1 42  1  0
  1 43  1  0
  8 44  1  0
  8 45  1  0
 13 46  1  0
 13 47  1  0
 13 48  1  0
 14 49  1  0
 14 50  1  0
 14 51  1  0
 15 52  1  0
 15 53  1  0
 22 54  1  0
 24 55  1  0
 26 56  1  0
 27 57  1  0
 29 58  1  0
 29 59  1  0
 30 60  1  0
 30 61  1  0
 36 62  1  0
 36 63  1  0
 36 64  1  0
 37 65  1  0
 37 66  1  0
 37 67  1  0
 38 68  1  0
 38 69  1  0
 38 70  1  0
 39 71  1  0
M  CHG  2  22  -1  31  -1
M  END
>  <UniqueID>  (49) 
49

>  <SMILES>  (49) 
Cc1oc(=O)oc1COC(=O)C(C)(C)COC(=O)n1c(C([NH-])=O)cc2ccc(CC[N-]C(=O)OC(C)(C)C)cc21

>  <Energy>  (49) 
129.64341651152296

>  <Genealogy>  (49) 
Cc1oc(=O)oc1COC(=O)C(C)(C)COC(=O)n1c(C([NH-])=O)cc2ccc(CC[N-]C(=O)OC(C)(C)C)cc21 (protonated)
Cc1oc(=O)oc1COC(=O)C(C)(C)COC(=O)n1c(C([NH-])=O)cc2ccc(CC[N-]C(=O)OC(C)(C)C)cc21 (3D coordinates assigned)
Cc1oc(=O)oc1COC(=O)C(C)(C)COC(=O)n1c(C([NH-])=O)cc2ccc(CC[N-]C(=O)OC(C)(C)C)cc21 (optimized conformer: 129.64341651152296 kcal/mol)

>  <smiles>  (49) 
Cc1oc(=O)oc1COC(=O)C(C)(C)COC(=O)n1c(C(N)=O)cc2ccc(CCNC(=O)OC(C)(C)C)cc21

>  <score_type>  (49) 
oracle

>  <origin>  (49) 
adg

>  <m_score__min__energy>  (49) 
-12.24

>  <m_primary>  (49) 
energy

$$$$
49:0
     RDKit          3D

 43 46  0  0  0  0  0  0  0  0999 V2000
   -5.4440   17.9120  -35.0550 C   0  0  0  0  0  0  0  0  0  0  0  0
   -6.0120   18.1410  -34.0180 C   0  0  0  0  0  0  0  0  0  0  0  0
   -6.7040   18.4240  -32.7530 C   0  0  0  0  0  0  0  0  0  0  0  0
   -6.8800   19.8580  -32.3360 C   0  0  0  0  0  0  0  0  0  0  0  0
   -8.1460   20.4830  -32.4640 C   0  0  0  0  0  0  0  0  0  0  0  0
   -8.3180   21.8300  -32.1020 C   0  0  0  0  0  0  0  0  0  0  0  0
   -7.2050   22.5270  -31.6370 C   0  0  0  0  0  0  0  0  0  0  0  0
   -7.0940   23.8290  -31.2050 C   0  0  0  0  0  0  0  0  0  0  0  0
   -5.7530   23.9890  -30.8580 C   0  0  0  0  0  0  0  0  0  0  0  0
   -5.1710   25.2770  -30.4260 C   0  0  0  0  0  0  0  0  0  0  0  0
   -3.8680   25.6720  -30.8460 N   0  0  0  0  0  0  0  0  0  0  0  0
   -5.8540   26.0630  -29.7150 O   0  0  0  0  0  0  0  0  0  0  0  0
   -5.0660   22.8290  -31.0600 N   0  0  0  0  0  0  0  0  0  0  0  0
   -3.6910   22.5550  -30.7570 C   0  0  0  0  0  0  0  0  0  0  0  0
   -2.7820   23.2680  -31.2640 O   0  0  0  0  0  0  0  0  0  0  0  0
   -3.3670   21.5070  -29.8870 O   0  0  0  0  0  0  0  0  0  0  0  0
   -2.7700   21.7110  -28.6090 C   0  0  0  0  0  0  0  0  0  0  0  0
   -1.8630   22.9030  -28.6480 C   0  0  0  0  0  0  0  0  0  0  0  0
   -2.2620   24.1320  -28.8850 O   0  0  0  0  0  0  0  0  0  0  0  0
   -1.1830   24.8780  -28.8240 C   0  0  0  0  0  0  0  0  0  0  0  0
   -1.1870   26.1250  -29.0010 O   0  0  0  0  0  0  0  0  0  0  0  0
   -0.1010   24.1840  -28.5590 O   0  0  0  0  0  0  0  0  0  0  0  0
   -0.4940   22.9370  -28.4430 C   0  0  0  0  0  0  0  0  0  0  0  0
    0.4080   21.7870  -28.1390 C   0  0  0  0  0  0  0  0  0  0  0  0
   -5.9680   21.9450  -31.5400 C   0  0  0  0  0  0  0  0  0  0  0  0
   -5.7720   20.6020  -31.8780 C   0  0  0  0  0  0  0  0  0  0  0  0
   -6.4830   17.4090  -31.6390 C   0  0  0  0  0  0  0  0  0  0  0  0
   -7.8150   17.4550  -32.3750 C   0  0  0  0  0  0  0  0  0  0  0  0
   -4.9252   17.7028  -36.0022 H   0  0  0  0  0  0  0  0  0  0  0  0
   -9.0011   19.9087  -32.8500 H   0  0  0  0  0  0  0  0  0  0  0  0
   -9.3002   22.3185  -32.1832 H   0  0  0  0  0  0  0  0  0  0  0  0
   -7.8929   24.5828  -31.1460 H   0  0  0  0  0  0  0  0  0  0  0  0
   -3.0150   25.2850  -30.3850 H   0  0  0  0  0  0  0  0  0  0  0  0
   -3.5593   21.8789  -27.8615 H   0  0  0  0  0  0  0  0  0  0  0  0
   -2.1826   20.8207  -28.3401 H   0  0  0  0  0  0  0  0  0  0  0  0
    0.4992   21.6707  -27.0490 H   0  0  0  0  0  0  0  0  0  0  0  0
   -0.0120   20.8672  -28.5720 H   0  0  0  0  0  0  0  0  0  0  0  0
    1.4014   21.9757  -28.5720 H   0  0  0  0  0  0  0  0  0  0  0  0
   -4.7789   20.1374  -31.7890 H   0  0  0  0  0  0  0  0  0  0  0  0
   -5.7978   16.5626  -31.7940 H   0  0  0  0  0  0  0  0  0  0  0  0
   -6.1742   17.4657  -30.5847 H   0  0  0  0  0  0  0  0  0  0  0  0
   -8.0923   16.6415  -33.0615 H   0  0  0  0  0  0  0  0  0  0  0  0
   -8.8675   17.5585  -32.0723 H   0  0  0  0  0  0  0  0  0  0  0  0
  1  2  3  0
  2  3  1  0
  3  4  1  0
  4  5  2  0
  5  6  1  0
  6  7  2  0
  7  8  1  0
  8  9  2  0
  9 10  1  0
 10 11  1  0
 10 12  2  0
  9 13  1  0
 13 14  1  0
 14 15  2  0
 14 16  1  0
 16 17  1  0
 17 18  1  0
 18 19  1  0
 19 20  1  0
 20 21  2  0
 20 22  1  0
 22 23  1  0
 23 24  1  0
 13 25  1  0
 25 26  2  0
  3 27  1  0
 27 28  1  0
 28  3  1  0
 26  4  1  0
 25  7  1  0
 23 18  2  0
  1 29  1  0
  5 30  1  0
  6 31  1  0
  8 32  1  0
 11 33  1  0
 17 34  1  0
 17 35  1  0
 24 36  1  0
 24 37  1  0
 24 38  1  0
 26 39  1  0
 27 40  1  0
 27 41  1  0
 28 42  1  0
 28 43  1  0
M  CHG  1  11  -1
M  END
>  <UniqueID>  (50) 
50

>  <SMILES>  (50) 
C#CC1(c2ccc3cc(C([NH-])=O)n(C(=O)OCc4oc(=O)oc4C)c3c2)CC1

>  <Energy>  (50) 
379.10685581890516

>  <Genealogy>  (50) 
C#CC1(c2ccc3cc(C([NH-])=O)n(C(=O)OCc4oc(=O)oc4C)c3c2)CC1 (protonated)
C#CC1(c2ccc3cc(C([NH-])=O)n(C(=O)OCc4oc(=O)oc4C)c3c2)CC1 (3D coordinates assigned)
C#CC1(c2ccc3cc(C([NH-])=O)n(C(=O)OCc4oc(=O)oc4C)c3c2)CC1 (nonaromatic ring conformer: 379.10685581890516 kcal/mol)

>  <smiles>  (50) 
C#CC1(c2ccc3cc(C(N)=O)n(C(=O)OCc4oc(=O)oc4C)c3c2)CC1

>  <score_type>  (50) 
oracle

>  <origin>  (50) 
adg

>  <m_score__min__energy>  (50) 
-11.779999999999999

>  <m_primary>  (50) 
energy

$$$$
50:0
     RDKit          3D

 42 44  0  0  0  0  0  0  0  0999 V2000
   -1.6080   25.6750  -28.9860 N   0  0  0  0  0  0  0  0  0  0  0  0
   -0.9200   24.4360  -29.1440 C   0  0  0  0  0  0  0  0  0  0  0  0
    0.1390   24.2330  -28.4930 O   0  0  0  0  0  0  0  0  0  0  0  0
   -1.4600   23.3710  -30.0150 C   0  0  0  0  0  0  0  0  0  0  0  0
   -0.6920   22.3160  -30.5000 C   0  0  0  0  0  0  0  0  0  0  0  0
   -1.5720   21.5060  -31.1810 C   0  0  0  0  0  0  0  0  0  0  0  0
   -1.3460   20.3180  -31.8680 C   0  0  0  0  0  0  0  0  0  0  0  0
   -2.4410   19.7060  -32.5050 C   0  0  0  0  0  0  0  0  0  0  0  0
   -3.7260   20.3010  -32.4560 C   0  0  0  0  0  0  0  0  0  0  0  0
   -4.8950   19.6260  -33.1190 C   0  0  0  0  0  0  0  0  0  0  0  0
   -6.1150   19.7570  -32.2610 C   0  0  0  0  0  0  0  0  0  0  0  0
   -6.5040   18.7680  -31.5810 O   0  0  0  0  0  0  0  0  0  0  0  0
   -6.8590   20.9840  -32.2510 N   0  0  0  0  0  0  0  0  0  0  0  0
   -8.0770   21.1580  -31.4480 C   0  0  0  0  0  0  0  0  0  0  0  0
   -9.2100   21.7750  -32.2960 C   0  0  0  0  0  0  0  0  0  0  0  0
   -9.1430   23.3160  -32.3120 C   0  0  0  0  0  0  0  0  0  0  0  0
   -7.8370   23.7730  -32.0270 O   0  0  0  0  0  0  0  0  0  0  0  0
   -7.5140   23.5180  -30.6680 C   0  0  0  0  0  0  0  0  0  0  0  0
   -7.7910   22.0580  -30.2350 C   0  0  0  0  0  0  0  0  0  0  0  0
   -3.9190   21.5020  -31.7400 C   0  0  0  0  0  0  0  0  0  0  0  0
   -2.8160   22.0790  -31.1000 C   0  0  0  0  0  0  0  0  0  0  0  0
   -2.7640   23.2270  -30.3890 N   0  0  0  0  0  0  0  0  0  0  0  0
   -3.8470   24.1450  -30.1710 C   0  0  0  0  0  0  0  0  0  0  0  0
   -4.8060   23.8300  -29.4190 O   0  0  0  0  0  0  0  0  0  0  0  0
   -3.8600   25.3790  -30.8090 O   0  0  0  0  0  0  0  0  0  0  0  0
   -2.6490   25.7230  -29.0600 H   0  0  0  0  0  0  0  0  0  0  0  0
    0.3891   22.1623  -30.3671 H   0  0  0  0  0  0  0  0  0  0  0  0
   -0.3420   19.8707  -31.9119 H   0  0  0  0  0  0  0  0  0  0  0  0
   -2.2985   18.7584  -33.0452 H   0  0  0  0  0  0  0  0  0  0  0  0
   -5.0832   20.0981  -34.0946 H   0  0  0  0  0  0  0  0  0  0  0  0
   -4.6646   18.5596  -33.2593 H   0  0  0  0  0  0  0  0  0  0  0  0
   -6.5360   21.7590  -32.8730 H   0  0  0  0  0  0  0  0  0  0  0  0
   -8.3987   20.1664  -31.0970 H   0  0  0  0  0  0  0  0  0  0  0  0
   -9.1237   21.4046  -33.3282 H   0  0  0  0  0  0  0  0  0  0  0  0
  -10.1703   21.4803  -31.8478 H   0  0  0  0  0  0  0  0  0  0  0  0
   -9.4407   23.6779  -33.3072 H   0  0  0  0  0  0  0  0  0  0  0  0
   -9.8239   23.7025  -31.5394 H   0  0  0  0  0  0  0  0  0  0  0  0
   -6.4450   23.7296  -30.5178 H   0  0  0  0  0  0  0  0  0  0  0  0
   -8.1559   24.1667  -30.0539 H   0  0  0  0  0  0  0  0  0  0  0  0
   -6.9111   21.6700  -29.7010 H   0  0  0  0  0  0  0  0  0  0  0  0
   -8.6770   22.0524  -29.5831 H   0  0  0  0  0  0  0  0  0  0  0  0
   -4.9117   21.9729  -31.6863 H   0  0  0  0  0  0  0  0  0  0  0  0
  1  2  1  0
  2  3  2  0
  2  4  1  0
  4  5  2  0
  5  6  1  0
  6  7  2  0
  7  8  1  0
  8  9  2  0
  9 10  1  0
 10 11  1  0
 11 12  2  0
 11 13  1  0
 13 14  1  0
 14 15  1  0
 15 16  1  0
 16 17  1  0
 17 18  1  0
 18 19  1  0
  9 20  1  0
 20 21  2  0
 21 22  1  0
 22 23  1  0
 23 24  2  0
 23 25  1  0
 22  4  1  0
 21  6  1  0
 19 14  1  0
  1 26  1  0
  5 27  1  0
  7 28  1  0
  8 29  1  0
 10 30  1  0
 10 31  1  0
 13 32  1  0
 14 33  1  0
 15 34  1  0
 15 35  1  0
 16 36  1  0
 16 37  1  0
 18 38  1  0
 18 39  1  0
 19 40  1  0
 19 41  1  0
 20 42  1  0
M  CHG  2   1  -1  25  -1
M  END
>  <UniqueID>  (51) 
51

>  <SMILES>  (51) 
[NH-]C(=O)c1cc2ccc(CC(=O)NC3CCOCC3)cc2n1C(=O)[O-]

>  <Energy>  (51) 
85.9926897275145

>  <Genealogy>  (51) 
[NH-]C(=O)c1cc2ccc(CC(=O)NC3CCOCC3)cc2n1C(=O)[O-] (protonated)
[NH-]C(=O)c1cc2ccc(CC(=O)NC3CCOCC3)cc2n1C(=O)[O-] (3D coordinates assigned)
[NH-]C(=O)c1cc2ccc(CC(=O)NC3CCOCC3)cc2n1C(=O)[O-] (nonaromatic ring conformer: 85.9926897275145 kcal/mol)

>  <smiles>  (51) 
NC(=O)c1cc2ccc(CC(=O)NC3CCOCC3)cc2n1C(=O)O

>  <score_type>  (51) 
oracle

>  <origin>  (51) 
adg

>  <m_score__min__energy>  (51) 
-11.42

>  <m_primary>  (51) 
energy

$$$$
51:0
     RDKit          3D

 40 41  0  0  0  0  0  0  0  0999 V2000
   -2.3790   25.2260  -29.3590 N   0  0  0  0  0  0  0  0  0  0  0  0
   -3.4680   24.6600  -30.0870 C   0  0  0  0  0  0  0  0  0  0  0  0
   -4.5390   25.3130  -30.1990 O   0  0  0  0  0  0  0  0  0  0  0  0
   -3.3160   23.3360  -30.7250 C   0  0  0  0  0  0  0  0  0  0  0  0
   -2.1020   22.6550  -30.8040 C   0  0  0  0  0  0  0  0  0  0  0  0
   -2.3700   21.5100  -31.5190 C   0  0  0  0  0  0  0  0  0  0  0  0
   -1.5340   20.4510  -31.8570 C   0  0  0  0  0  0  0  0  0  0  0  0
   -2.0960   19.3640  -32.5480 C   0  0  0  0  0  0  0  0  0  0  0  0
   -3.4710   19.3580  -32.8900 C   0  0  0  0  0  0  0  0  0  0  0  0
   -4.0820   18.1510  -33.5450 C   0  0  0  0  0  0  0  0  0  0  0  0
   -5.5680   18.3240  -33.6350 C   0  0  0  0  0  0  0  0  0  0  0  0
   -6.1370   18.2150  -34.7540 O   0  0  0  0  0  0  0  0  0  0  0  0
   -6.3360   18.5580  -32.4450 N   0  0  0  0  0  0  0  0  0  0  0  0
   -7.7960   18.6730  -32.4460 C   0  0  0  0  0  0  0  0  0  0  0  0
   -8.2520   20.0560  -32.9390 C   0  0  2  0  0  0  0  0  0  0  0  0
   -7.1420   20.8020  -33.3700 O   0  0  0  0  0  0  0  0  0  0  0  0
   -9.0450   20.8280  -31.8660 C   0  0  0  0  0  0  0  0  0  0  0  0
   -8.8000   22.2080  -31.9380 O   0  0  0  0  0  0  0  0  0  0  0  0
   -4.2870   20.4550  -32.5340 C   0  0  0  0  0  0  0  0  0  0  0  0
   -3.7010   21.5250  -31.8500 C   0  0  0  0  0  0  0  0  0  0  0  0
   -4.2970   22.6370  -31.3660 N   0  0  0  0  0  0  0  0  0  0  0  0
   -5.6960   22.9530  -31.4480 C   0  0  0  0  0  0  0  0  0  0  0  0
   -6.2500   23.4420  -32.6680 N   0  0  0  0  0  0  0  0  0  0  0  0
   -6.4430   22.7830  -30.4490 O   0  0  0  0  0  0  0  0  0  0  0  0
   -1.5670   25.6550  -29.8550 H   0  0  0  0  0  0  0  0  0  0  0  0
   -1.1345   22.9669  -30.3837 H   0  0  0  0  0  0  0  0  0  0  0  0
   -0.4665   20.4639  -31.5918 H   0  0  0  0  0  0  0  0  0  0  0  0
   -1.4620   18.5092  -32.8262 H   0  0  0  0  0  0  0  0  0  0  0  0
   -3.6655   18.0334  -34.5563 H   0  0  0  0  0  0  0  0  0  0  0  0
   -3.8546   17.2568  -32.9460 H   0  0  0  0  0  0  0  0  0  0  0  0
   -5.8250   18.7360  -31.5500 H   0  0  0  0  0  0  0  0  0  0  0  0
   -8.2149   17.9013  -33.1087 H   0  0  0  0  0  0  0  0  0  0  0  0
   -8.1534   18.5393  -31.4143 H   0  0  0  0  0  0  0  0  0  0  0  0
   -8.9350   19.8982  -33.7867 H   0  0  0  0  0  0  0  0  0  0  0  0
   -6.9020   21.4180  -32.6280 H   0  0  0  0  0  0  0  0  0  0  0  0
  -10.1195   20.6475  -32.0170 H   0  0  0  0  0  0  0  0  0  0  0  0
   -8.7230   20.4718  -30.8763 H   0  0  0  0  0  0  0  0  0  0  0  0
   -7.8140   22.3230  -31.9900 H   0  0  0  0  0  0  0  0  0  0  0  0
   -5.3571   20.4673  -32.7886 H   0  0  0  0  0  0  0  0  0  0  0  0
   -7.0510   22.9520  -33.1270 H   0  0  0  0  0  0  0  0  0  0  0  0
  1  2  1  0
  2  3  2  0
  2  4  1  0
  4  5  2  0
  5  6  1  0
  6  7  2  0
  7  8  1  0
  8  9  2  0
  9 10  1  0
 10 11  1  0
 11 12  2  0
 11 13  1  0
 13 14  1  0
 14 15  1  0
 15 16  1  0
 15 17  1  0
 17 18  1  0
  9 19  1  0
 19 20  2  0
 20 21  1  0
 21 22  1  0
 22 23  1  0
 22 24  2  0
 21  4  1  0
 20  6  1  0
  1 25  1  0
  5 26  1  0
  7 27  1  0
  8 28  1  0
 10 29  1  0
 10 30  1  0
 13 31  1  0
 14 32  1  0
 14 33  1  0
 15 34  1  6
 16 35  1  0
 17 36  1  0
 17 37  1  0
 18 38  1  0
 19 39  1  0
 23 40  1  0
M  CHG  2   1  -1  23  -1
M  END
>  <UniqueID>  (52) 
52

>  <SMILES>  (52) 
[NH-]C(=O)c1cc2ccc(CC(=O)NC[C@H](O)CO)cc2n1C([NH-])=O

>  <Energy>  (52) 
71.45417970202921

>  <Genealogy>  (52) 
[NH-]C(=O)c1cc2ccc(CC(=O)NCC(O)CO)cc2n1C([NH-])=O (protonated)
[NH-]C(=O)c1cc2ccc(CC(=O)NC[C@H](O)CO)cc2n1C([NH-])=O (chirality)
[NH-]C(=O)c1cc2ccc(CC(=O)NC[C@H](O)CO)cc2n1C([NH-])=O (3D coordinates assigned)
[NH-]C(=O)c1cc2ccc(CC(=O)NC[C@H](O)CO)cc2n1C([NH-])=O (optimized conformer: 71.45417970202921 kcal/mol)

>  <smiles>  (52) 
NC(=O)c1cc2ccc(CC(=O)NCC(O)CO)cc2n1C(N)=O

>  <score_type>  (52) 
oracle

>  <origin>  (52) 
adg

>  <m_score__min__energy>  (52) 
-9.8399999999999999

>  <m_primary>  (52) 
energy

$$$$
52:0
     RDKit          3D

 58 60  0  0  0  0  0  0  0  0999 V2000
   -5.8400   14.4080  -33.8340 C   0  0  0  0  0  0  0  0  0  0  0  0
   -5.4220   15.8150  -33.7440 N   0  0  0  0  0  0  0  0  0  0  0  0
   -5.3220   16.2630  -32.3280 C   0  0  0  0  0  0  0  0  0  0  0  0
   -6.3310   17.3580  -31.9480 C   0  0  0  0  0  0  0  0  0  0  0  0
   -6.2740   18.4590  -32.9190 N   0  0  0  0  0  0  0  0  0  0  0  0
   -6.5540   19.8170  -32.5130 C   0  0  0  0  0  0  0  0  0  0  0  0
   -7.8650   20.3480  -32.6440 C   0  0  0  0  0  0  0  0  0  0  0  0
   -8.1550   21.6620  -32.2400 C   0  0  0  0  0  0  0  0  0  0  0  0
   -7.1200   22.4270  -31.7150 C   0  0  0  0  0  0  0  0  0  0  0  0
   -7.1290   23.7140  -31.2280 C   0  0  0  0  0  0  0  0  0  0  0  0
   -5.8190   23.9670  -30.8250 C   0  0  0  0  0  0  0  0  0  0  0  0
   -5.3630   25.2780  -30.3170 C   0  0  0  0  0  0  0  0  0  0  0  0
   -4.0010   25.6680  -30.4810 N   0  0  0  0  0  0  0  0  0  0  0  0
   -6.1530   26.0410  -29.7010 O   0  0  0  0  0  0  0  0  0  0  0  0
   -5.0320   22.8750  -31.0460 N   0  0  0  0  0  0  0  0  0  0  0  0
   -3.6480   22.7090  -30.6990 C   0  0  0  0  0  0  0  0  0  0  0  0
   -2.7510   22.9620  -31.5490 O   0  0  0  0  0  0  0  0  0  0  0  0
   -3.3010   22.2520  -29.4250 O   0  0  0  0  0  0  0  0  0  0  0  0
   -3.1560   23.1200  -28.3070 C   0  0  0  0  0  0  0  0  0  0  0  0
   -1.8470   23.8280  -28.3920 C   0  0  0  0  0  0  0  0  0  0  0  0
   -1.6470   24.6670  -29.3140 O   0  0  0  0  0  0  0  0  0  0  0  0
   -0.8720   23.5950  -27.4150 O   0  0  0  0  0  0  0  0  0  0  0  0
   -0.9390   22.5200  -26.4820 C   0  0  0  0  0  0  0  0  0  0  0  0
   -0.7230   21.2090  -27.1680 C   0  0  0  0  0  0  0  0  0  0  0  0
   -1.0060   20.1370  -26.5650 O   0  0  0  0  0  0  0  0  0  0  0  0
   -0.1760   21.1850  -28.4560 O   0  0  0  0  0  0  0  0  0  0  0  0
   -0.5370   20.2290  -29.4520 C   0  0  0  0  0  0  0  0  0  0  0  0
   -0.7380   20.9030  -30.8070 C   0  0  0  0  0  0  0  0  0  0  0  0
   -0.5760   22.2890  -30.6880 O   0  0  0  0  0  0  0  0  0  0  0  0
   -5.8430   21.9430  -31.5950 C   0  0  0  0  0  0  0  0  0  0  0  0
   -5.5300   20.6310  -31.9700 C   0  0  0  0  0  0  0  0  0  0  0  0
   -6.0430   18.1460  -34.3350 C   0  0  0  0  0  0  0  0  0  0  0  0
   -6.2820   16.6580  -34.6020 C   0  0  0  0  0  0  0  0  0  0  0  0
   -5.9623   13.9963  -32.8213 H   0  0  0  0  0  0  0  0  0  0  0  0
   -6.7961   14.3434  -34.3740 H   0  0  0  0  0  0  0  0  0  0  0  0
   -5.0742   13.8318  -34.3740 H   0  0  0  0  0  0  0  0  0  0  0  0
   -5.4933   15.3932  -31.6767 H   0  0  0  0  0  0  0  0  0  0  0  0
   -4.3187   16.6955  -32.2003 H   0  0  0  0  0  0  0  0  0  0  0  0
   -7.3449   16.9314  -31.9413 H   0  0  0  0  0  0  0  0  0  0  0  0
   -6.0806   17.7463  -30.9497 H   0  0  0  0  0  0  0  0  0  0  0  0
   -8.6641   19.7218  -33.0675 H   0  0  0  0  0  0  0  0  0  0  0  0
   -9.1707   22.0731  -32.3363 H   0  0  0  0  0  0  0  0  0  0  0  0
   -7.9882   24.3983  -31.1692 H   0  0  0  0  0  0  0  0  0  0  0  0
   -3.2660   24.9630  -30.7130 H   0  0  0  0  0  0  0  0  0  0  0  0
   -3.9721   23.8575  -28.3075 H   0  0  0  0  0  0  0  0  0  0  0  0
   -3.1938   22.5308  -27.3789 H   0  0  0  0  0  0  0  0  0  0  0  0
   -0.1623   22.6585  -25.7155 H   0  0  0  0  0  0  0  0  0  0  0  0
   -1.9367   22.5161  -26.0188 H   0  0  0  0  0  0  0  0  0  0  0  0
    0.2631   19.4790  -29.5380 H   0  0  0  0  0  0  0  0  0  0  0  0
   -1.4817   19.7508  -29.1539 H   0  0  0  0  0  0  0  0  0  0  0  0
    0.0015   20.5110  -31.5208 H   0  0  0  0  0  0  0  0  0  0  0  0
   -1.7561   20.6907  -31.1653 H   0  0  0  0  0  0  0  0  0  0  0  0
   -1.2370   22.5840  -30.0080 H   0  0  0  0  0  0  0  0  0  0  0  0
   -4.5093   20.2402  -31.8454 H   0  0  0  0  0  0  0  0  0  0  0  0
   -6.7318   18.7398  -34.9538 H   0  0  0  0  0  0  0  0  0  0  0  0
   -5.0003   18.3893  -34.5872 H   0  0  0  0  0  0  0  0  0  0  0  0
   -7.3363   16.4214  -34.3958 H   0  0  0  0  0  0  0  0  0  0  0  0
   -6.0357   16.4493  -35.6536 H   0  0  0  0  0  0  0  0  0  0  0  0
  1  2  1  0
  2  3  1  0
  3  4  1  0
  4  5  1  0
  5  6  1  0
  6  7  2  0
  7  8  1  0
  8  9  2  0
  9 10  1  0
 10 11  2  0
 11 12  1  0
 12 13  1  0
 12 14  2  0
 11 15  1  0
 15 16  1  0
 16 17  2  0
 16 18  1  0
 18 19  1  0
 19 20  1  0
 20 21  2  0
 20 22  1  0
 22 23  1  0
 23 24  1  0
 24 25  2  0
 24 26  1  0
 26 27  1  0
 27 28  1  0
 28 29  1  0
 15 30  1  0
 30 31  2  0
  5 32  1  0
 32 33  1  0
 33  2  1  0
 31  6  1  0
 30  9  1  0
  1 34  1  0
  1 35  1  0
  1 36  1  0
  3 37  1  0
  3 38  1  0
  4 39  1  0
  4 40  1  0
  7 41  1  0
  8 42  1  0
 10 43  1  0
 13 44  1  0
 19 45  1  0
 19 46  1  0
 23 47  1  0
 23 48  1  0
 27 49  1  0
 27 50  1  0
 28 51  1  0
 28 52  1  0
 29 53  1  0
 31 54  1  0
 32 55  1  0
 32 56  1  0
 33 57  1  0
 33 58  1  0
M  CHG  1  13  -1
M  END
>  <UniqueID>  (53) 
53

>  <SMILES>  (53) 
CN1CCN(c2ccc3cc(C([NH-])=O)n(C(=O)OCC(=O)OCC(=O)OCCO)c3c2)CC1

>  <Energy>  (53) 
97.6280813384606

>  <Genealogy>  (53) 
CN1CCN(c2ccc3cc(C([NH-])=O)n(C(=O)OCC(=O)OCC(=O)OCCO)c3c2)CC1 (protonated)
CN1CCN(c2ccc3cc(C([NH-])=O)n(C(=O)OCC(=O)OCC(=O)OCCO)c3c2)CC1 (3D coordinates assigned)
CN1CCN(c2ccc3cc(C([NH-])=O)n(C(=O)OCC(=O)OCC(=O)OCCO)c3c2)CC1 (nonaromatic ring conformer: 97.6280813384606 kcal/mol)

>  <smiles>  (53) 
CN1CCN(c2ccc3cc(C(N)=O)n(C(=O)OCC(=O)OCC(=O)OCCO)c3c2)CC1

>  <score_type>  (53) 
oracle

>  <origin>  (53) 
adg

>  <m_score__min__energy>  (53) 
-10.48

>  <m_primary>  (53) 
energy

$$$$
53:0
     RDKit          3D

 45 47  0  0  0  0  0  0  0  0999 V2000
   -1.7960   25.5740  -28.9650 N   0  0  0  0  0  0  0  0  0  0  0  0
   -1.0670   24.3610  -29.1380 C   0  0  0  0  0  0  0  0  0  0  0  0
   -0.0330   24.1610  -28.4480 O   0  0  0  0  0  0  0  0  0  0  0  0
   -1.5340   23.3190  -30.0770 C   0  0  0  0  0  0  0  0  0  0  0  0
   -0.7280   22.2760  -30.5310 C   0  0  0  0  0  0  0  0  0  0  0  0
   -1.5530   21.4820  -31.2940 C   0  0  0  0  0  0  0  0  0  0  0  0
   -1.2760   20.3100  -31.9920 C   0  0  0  0  0  0  0  0  0  0  0  0
   -2.3220   19.7110  -32.7150 C   0  0  0  0  0  0  0  0  0  0  0  0
   -3.6110   20.2940  -32.7320 C   0  0  0  0  0  0  0  0  0  0  0  0
   -4.6640   19.6820  -33.4810 N   0  0  0  0  0  0  0  0  0  0  0  0
   -3.8570   21.4830  -32.0140 C   0  0  0  0  0  0  0  0  0  0  0  0
   -2.8020   22.0480  -31.2900 C   0  0  0  0  0  0  0  0  0  0  0  0
   -2.8040   23.1790  -30.5510 N   0  0  0  0  0  0  0  0  0  0  0  0
   -3.9140   24.0690  -30.3640 C   0  0  0  0  0  0  0  0  0  0  0  0
   -3.8850   25.2250  -30.8660 O   0  0  0  0  0  0  0  0  0  0  0  0
   -5.0490   23.6400  -29.6050 N   0  0  0  0  0  0  0  0  0  0  0  0
   -6.1690   22.8990  -30.1740 C   0  0  0  0  0  0  0  0  0  0  0  0
   -6.8350   23.6710  -31.3250 C   0  0  0  0  0  0  0  0  0  0  0  0
   -7.5600   22.7740  -32.2560 N   0  0  0  0  0  0  0  0  0  0  0  0
   -6.9480   21.4180  -32.3060 C   0  0  0  0  0  0  0  0  0  0  0  0
   -7.9470   20.3350  -32.7290 C   0  0  0  0  0  0  0  0  0  0  0  0
   -9.1060   20.2380  -31.7230 C   0  0  0  0  0  0  0  0  0  0  0  0
   -9.4260   21.5900  -31.0600 C   0  0  0  0  0  0  0  0  0  0  0  0
   -9.0200   22.7600  -31.9650 C   0  0  0  0  0  0  0  0  0  0  0  0
   -2.7730   25.6700  -29.3220 H   0  0  0  0  0  0  0  0  0  0  0  0
    0.3410   22.1207  -30.3233 H   0  0  0  0  0  0  0  0  0  0  0  0
   -0.2696   19.8663  -31.9782 H   0  0  0  0  0  0  0  0  0  0  0  0
   -2.1368   18.7809  -33.2724 H   0  0  0  0  0  0  0  0  0  0  0  0
   -4.8480   18.6560  -33.4030 H   0  0  0  0  0  0  0  0  0  0  0  0
   -5.2680   20.2480  -34.1170 H   0  0  0  0  0  0  0  0  0  0  0  0
   -4.8515   21.9531  -32.0232 H   0  0  0  0  0  0  0  0  0  0  0  0
   -5.8014   21.9354  -30.5566 H   0  0  0  0  0  0  0  0  0  0  0  0
   -6.9183   22.7487  -29.3828 H   0  0  0  0  0  0  0  0  0  0  0  0
   -7.5486   24.3928  -30.9010 H   0  0  0  0  0  0  0  0  0  0  0  0
   -6.0422   24.1784  -31.8941 H   0  0  0  0  0  0  0  0  0  0  0  0
   -6.1179   21.4326  -33.0276 H   0  0  0  0  0  0  0  0  0  0  0  0
   -6.6001   21.1722  -31.2918 H   0  0  0  0  0  0  0  0  0  0  0  0
   -8.3508   20.5846  -33.7213 H   0  0  0  0  0  0  0  0  0  0  0  0
   -7.4254   19.3671  -32.7602 H   0  0  0  0  0  0  0  0  0  0  0  0
  -10.0031   19.8832  -32.2515 H   0  0  0  0  0  0  0  0  0  0  0  0
   -8.8018   19.5401  -30.9290 H   0  0  0  0  0  0  0  0  0  0  0  0
  -10.5068   21.6465  -30.8632 H   0  0  0  0  0  0  0  0  0  0  0  0
   -8.8573   21.6615  -30.1212 H   0  0  0  0  0  0  0  0  0  0  0  0
   -9.5685   22.6783  -32.9150 H   0  0  0  0  0  0  0  0  0  0  0  0
   -9.2650   23.6930  -31.4362 H   0  0  0  0  0  0  0  0  0  0  0  0
  1  2  1  0
  2  3  2  0
  2  4  1  0
  4  5  2  0
  5  6  1  0
  6  7  2  0
  7  8  1  0
  8  9  2  0
  9 10  1  0
  9 11  1  0
 11 12  2  0
 12 13  1  0
 13 14  1  0
 14 15  2  0
 14 16  1  0
 16 17  1  0
 17 18  1  0
 18 19  1  0
 19 20  1  0
 20 21  1  0
 21 22  1  0
 22 23  1  0
 23 24  1  0
 13  4  1  0
 24 19  1  0
 12  6  1  0
  1 25  1  0
  5 26  1  0
  7 27  1  0
  8 28  1  0
 10 29  1  0
 10 30  1  0
 11 31  1  0
 17 32  1  0
 17 33  1  0
 18 34  1  0
 18 35  1  0
 20 36  1  0
 20 37  1  0
 21 38  1  0
 21 39  1  0
 22 40  1  0
 22 41  1  0
 23 42  1  0
 23 43  1  0
 24 44  1  0
 24 45  1  0
M  CHG  2   1  -1  16  -1
M  END
>  <UniqueID>  (54) 
54

>  <SMILES>  (54) 
[NH-]C(=O)c1cc2ccc(N)cc2n1C(=O)[N-]CCN1CCCCC1

>  <Energy>  (54) 
89.2291206653146

>  <Genealogy>  (54) 
[NH-]C(=O)c1cc2ccc(N)cc2n1C(=O)[N-]CCN1CCCCC1 (protonated)
[NH-]C(=O)c1cc2ccc(N)cc2n1C(=O)[N-]CCN1CCCCC1 (3D coordinates assigned)
[NH-]C(=O)c1cc2ccc(N)cc2n1C(=O)[N-]CCN1CCCCC1 (nonaromatic ring conformer: 89.2291206653146 kcal/mol)

>  <smiles>  (54) 
NC(=O)c1cc2ccc(N)cc2n1C(=O)NCCN1CCCCC1

>  <score_type>  (54) 
oracle

>  <origin>  (54) 
adg

>  <m_score__min__energy>  (54) 
-11.27

>  <m_primary>  (54) 
energy

$$$$
54:0
     RDKit          3D

 41 43  0  0  0  0  0  0  0  0999 V2000
   -0.8220   25.1950  -25.3640 N   0  0  0  0  0  0  0  0  0  0  0  0
   -0.6600   23.7820  -25.4700 C   0  0  0  0  0  0  0  0  0  0  0  0
   -0.4550   23.0960  -24.4320 O   0  0  0  0  0  0  0  0  0  0  0  0
   -0.8490   23.1090  -26.7610 C   0  0  0  0  0  0  0  0  0  0  0  0
   -0.9550   21.7300  -26.8750 C   0  0  0  0  0  0  0  0  0  0  0  0
   -1.2060   21.4980  -28.2050 C   0  0  0  0  0  0  0  0  0  0  0  0
   -1.4410   20.2970  -28.8660 C   0  0  0  0  0  0  0  0  0  0  0  0
   -1.7200   20.3460  -30.2420 C   0  0  0  0  0  0  0  0  0  0  0  0
   -1.7610   21.5850  -30.9240 C   0  0  0  0  0  0  0  0  0  0  0  0
   -2.0370   21.6140  -32.4020 C   0  0  0  0  0  0  0  0  0  0  0  0
   -3.2910   20.8570  -32.6950 C   0  0  0  0  0  0  0  0  0  0  0  0
   -3.4340   20.2980  -33.8150 O   0  0  0  0  0  0  0  0  0  0  0  0
   -4.2860   20.7120  -31.6780 N   0  0  0  0  0  0  0  0  0  0  0  0
   -5.6610   21.1680  -31.8380 C   0  0  0  0  0  0  0  0  0  0  0  0
   -5.8090   22.5380  -31.2330 C   0  0  0  0  0  0  0  0  0  0  0  0
   -7.0310   22.9220  -30.6620 C   0  0  0  0  0  0  0  0  0  0  0  0
   -7.1940   24.2130  -30.1450 C   0  0  0  0  0  0  0  0  0  0  0  0
   -6.1390   25.1290  -30.2030 C   0  0  0  0  0  0  0  0  0  0  0  0
   -4.9210   24.7560  -30.7810 C   0  0  0  0  0  0  0  0  0  0  0  0
   -3.8770   25.6730  -30.8450 O   0  0  0  0  0  0  0  0  0  0  0  0
   -4.7540   23.4650  -31.2940 C   0  0  0  0  0  0  0  0  0  0  0  0
   -1.5040   22.7830  -30.2230 C   0  0  0  0  0  0  0  0  0  0  0  0
   -1.2260   22.7100  -28.8510 C   0  0  0  0  0  0  0  0  0  0  0  0
   -0.9950   23.7190  -27.9730 N   0  0  0  0  0  0  0  0  0  0  0  0
   -0.8250   25.1230  -28.2680 C   0  0  0  0  0  0  0  0  0  0  0  0
   -1.6750   25.7380  -28.9670 O   0  0  0  0  0  0  0  0  0  0  0  0
    0.3010   25.8140  -27.8300 O   0  0  0  0  0  0  0  0  0  0  0  0
   -1.1120   25.7600  -26.1940 H   0  0  0  0  0  0  0  0  0  0  0  0
   -0.7080   25.6730  -24.4430 H   0  0  0  0  0  0  0  0  0  0  0  0
   -0.8587   20.9836  -26.0728 H   0  0  0  0  0  0  0  0  0  0  0  0
   -1.4094   19.3382  -28.3278 H   0  0  0  0  0  0  0  0  0  0  0  0
   -1.9082   19.4132  -30.7939 H   0  0  0  0  0  0  0  0  0  0  0  0
   -2.1540   22.6569  -32.7317 H   0  0  0  0  0  0  0  0  0  0  0  0
   -1.1969   21.1489  -32.9386 H   0  0  0  0  0  0  0  0  0  0  0  0
   -5.9108   21.2110  -32.9084 H   0  0  0  0  0  0  0  0  0  0  0  0
   -6.3408   20.4678  -31.3305 H   0  0  0  0  0  0  0  0  0  0  0  0
   -7.8650   22.2059  -30.6201 H   0  0  0  0  0  0  0  0  0  0  0  0
   -8.1527   24.5069  -29.6928 H   0  0  0  0  0  0  0  0  0  0  0  0
   -6.2668   26.1422  -29.7944 H   0  0  0  0  0  0  0  0  0  0  0  0
   -3.7943   23.1746  -31.7464 H   0  0  0  0  0  0  0  0  0  0  0  0
   -1.5215   23.7527  -30.7421 H   0  0  0  0  0  0  0  0  0  0  0  0
  1  2  1  0
  2  3  2  0
  2  4  1  0
  4  5  2  0
  5  6  1  0
  6  7  2  0
  7  8  1  0
  8  9  2  0
  9 10  1  0
 10 11  1  0
 11 12  2  0
 11 13  1  0
 13 14  1  0
 14 15  1  0
 15 16  2  0
 16 17  1  0
 17 18  2  0
 18 19  1  0
 19 20  1  0
 19 21  2  0
  9 22  1  0
 22 23  2  0
 23 24  1  0
 24 25  1  0
 25 26  2  0
 25 27  1  0
 24  4  1  0
 23  6  1  0
 21 15  1  0
  1 28  1  0
  1 29  1  0
  5 30  1  0
  7 31  1  0
  8 32  1  0
 10 33  1  0
 10 34  1  0
 14 35  1  0
 14 36  1  0
 16 37  1  0
 17 38  1  0
 18 39  1  0
 21 40  1  0
 22 41  1  0
M  CHG  3  13  -1  20  -1  27  -1
M  END
>  <UniqueID>  (55) 
55

>  <SMILES>  (55) 
NC(=O)c1cc2ccc(CC(=O)[N-]Cc3cccc([O-])c3)cc2n1C(=O)[O-]

>  <Energy>  (55) 
81.29413260663236

>  <Genealogy>  (55) 
NC(=O)c1cc2ccc(CC(=O)[N-]Cc3cccc([O-])c3)cc2n1C(=O)[O-] (protonated)
NC(=O)c1cc2ccc(CC(=O)[N-]Cc3cccc([O-])c3)cc2n1C(=O)[O-] (3D coordinates assigned)
NC(=O)c1cc2ccc(CC(=O)[N-]Cc3cccc([O-])c3)cc2n1C(=O)[O-] (optimized conformer: 81.29413260663236 kcal/mol)

>  <smiles>  (55) 
NC(=O)c1cc2ccc(CC(=O)NCc3cccc(O)c3)cc2n1C(=O)O

>  <score_type>  (55) 
oracle

>  <origin>  (55) 
adg

>  <m_score__min__energy>  (55) 
-11.65

>  <m_primary>  (55) 
energy

$$$$
55:0
     RDKit          3D

 42 43  0  0  0  0  0  0  0  0999 V2000
   -8.5780   21.0320  -31.2850 C   0  0  0  0  0  0  0  0  0  0  0  0
   -9.4570   20.5340  -32.2680 O   0  0  0  0  0  0  0  0  0  0  0  0
   -9.0320   19.2480  -32.6660 C   0  0  0  0  0  0  0  0  0  0  0  0
   -8.0790   18.6750  -31.6150 C   0  0  0  0  0  0  0  0  0  0  0  0
   -6.8420   18.1850  -32.2420 N   0  0  0  0  0  0  0  0  0  0  0  0
   -6.1150   17.0790  -31.6090 C   0  0  0  0  0  0  0  0  0  0  0  0
   -6.2670   18.8030  -33.4180 C   0  0  0  0  0  0  0  0  0  0  0  0
   -5.9760   18.0870  -34.4150 O   0  0  0  0  0  0  0  0  0  0  0  0
   -6.0050   20.2850  -33.5150 C   0  0  0  0  0  0  0  0  0  0  0  0
   -4.7850   20.6850  -32.7270 C   0  0  0  0  0  0  0  0  0  0  0  0
   -3.6950   19.7880  -32.6020 C   0  0  0  0  0  0  0  0  0  0  0  0
   -2.5700   20.1290  -31.8340 C   0  0  0  0  0  0  0  0  0  0  0  0
   -2.5530   21.3770  -31.2200 C   0  0  0  0  0  0  0  0  0  0  0  0
   -1.6120   21.9380  -30.3900 C   0  0  0  0  0  0  0  0  0  0  0  0
   -2.1190   23.1910  -30.0530 C   0  0  0  0  0  0  0  0  0  0  0  0
   -1.3910   24.1620  -29.2150 C   0  0  0  0  0  0  0  0  0  0  0  0
   -2.0710   25.2440  -28.5760 N   0  0  0  0  0  0  0  0  0  0  0  0
   -0.1390   24.0690  -29.1060 O   0  0  0  0  0  0  0  0  0  0  0  0
   -3.3320   23.3940  -30.6430 N   0  0  0  0  0  0  0  0  0  0  0  0
   -4.2250   24.5020  -30.4340 C   0  0  0  0  0  0  0  0  0  0  0  0
   -3.8970   25.6630  -30.7910 O   0  0  0  0  0  0  0  0  0  0  0  0
   -5.4660   24.3000  -29.8420 O   0  0  0  0  0  0  0  0  0  0  0  0
   -3.5820   22.2740  -31.3580 C   0  0  0  0  0  0  0  0  0  0  0  0
   -4.7220   21.9540  -32.1050 C   0  0  0  0  0  0  0  0  0  0  0  0
   -8.9786   20.8050  -30.2860 H   0  0  0  0  0  0  0  0  0  0  0  0
   -7.5920   20.5584  -31.4009 H   0  0  0  0  0  0  0  0  0  0  0  0
   -8.4774   22.1212  -31.4009 H   0  0  0  0  0  0  0  0  0  0  0  0
   -9.9063   18.5880  -32.7661 H   0  0  0  0  0  0  0  0  0  0  0  0
   -8.5112   19.3179  -33.6324 H   0  0  0  0  0  0  0  0  0  0  0  0
   -7.8277   19.4622  -30.8889 H   0  0  0  0  0  0  0  0  0  0  0  0
   -8.5758   17.8329  -31.1110 H   0  0  0  0  0  0  0  0  0  0  0  0
   -6.1791   17.1765  -30.5152 H   0  0  0  0  0  0  0  0  0  0  0  0
   -6.5609   16.1223  -31.9186 H   0  0  0  0  0  0  0  0  0  0  0  0
   -5.0599   17.1090  -31.9186 H   0  0  0  0  0  0  0  0  0  0  0  0
   -5.8513   20.5520  -34.5710 H   0  0  0  0  0  0  0  0  0  0  0  0
   -6.8734   20.8160  -33.0980 H   0  0  0  0  0  0  0  0  0  0  0  0
   -3.7306   18.8141  -33.1121 H   0  0  0  0  0  0  0  0  0  0  0  0
   -1.7278   19.4304  -31.7214 H   0  0  0  0  0  0  0  0  0  0  0  0
   -0.6613   21.4926  -30.0618 H   0  0  0  0  0  0  0  0  0  0  0  0
   -3.0740   25.4440  -28.7790 H   0  0  0  0  0  0  0  0  0  0  0  0
   -1.5450   25.9000  -27.9570 H   0  0  0  0  0  0  0  0  0  0  0  0
   -5.5490   22.6722  -32.2059 H   0  0  0  0  0  0  0  0  0  0  0  0
  1  2  1  0
  2  3  1  0
  3  4  1  0
  4  5  1  0
  5  6  1  0
  5  7  1  0
  7  8  2  0
  7  9  1  0
  9 10  1  0
 10 11  2  0
 11 12  1  0
 12 13  2  0
 13 14  1  0
 14 15  2  0
 15 16  1  0
 16 17  1  0
 16 18  2  0
 15 19  1  0
 19 20  1  0
 20 21  2  0
 20 22  1  0
 19 23  1  0
 23 24  2  0
 24 10  1  0
 23 13  1  0
  1 25  1  0
  1 26  1  0
  1 27  1  0
  3 28  1  0
  3 29  1  0
  4 30  1  0
  4 31  1  0
  6 32  1  0
  6 33  1  0
  6 34  1  0
  9 35  1  0
  9 36  1  0
 11 37  1  0
 12 38  1  0
 14 39  1  0
 17 40  1  0
 17 41  1  0
 24 42  1  0
M  CHG  1  22  -1
M  END
>  <UniqueID>  (56) 
56

>  <SMILES>  (56) 
COCCN(C)C(=O)Cc1ccc2cc(C(N)=O)n(C(=O)[O-])c2c1

>  <Energy>  (56) 
77.25882440270047

>  <Genealogy>  (56) 
COCCN(C)C(=O)Cc1ccc2cc(C(N)=O)n(C(=O)[O-])c2c1 (protonated)
COCCN(C)C(=O)Cc1ccc2cc(C(N)=O)n(C(=O)[O-])c2c1 (3D coordinates assigned)
COCCN(C)C(=O)Cc1ccc2cc(C(N)=O)n(C(=O)[O-])c2c1 (optimized conformer: 77.25882440270047 kcal/mol)

>  <smiles>  (56) 
COCCN(C)C(=O)Cc1ccc2cc(C(N)=O)n(C(=O)O)c2c1

>  <score_type>  (56) 
oracle

>  <origin>  (56) 
adg

>  <m_score__min__energy>  (56) 
-8.6799999999999997

>  <m_primary>  (56) 
energy

$$$$
56:0
     RDKit          3D

 52 54  0  0  0  0  0  0  0  0999 V2000
   -3.9360   24.1520  -27.4050 C   0  0  0  0  0  0  0  0  0  0  0  0
   -4.1710   22.9870  -28.0180 C   0  0  0  0  0  0  0  0  0  0  0  0
   -3.0930   22.2760  -28.7800 C   0  0  0  0  0  0  0  0  0  0  0  0
   -3.6450   21.6780  -29.9460 O   0  0  0  0  0  0  0  0  0  0  0  0
   -4.0550   22.4270  -31.0550 C   0  0  0  0  0  0  0  0  0  0  0  0
   -3.2420   22.6720  -31.9870 O   0  0  0  0  0  0  0  0  0  0  0  0
   -5.4120   22.8920  -31.1410 N   0  0  0  0  0  0  0  0  0  0  0  0
   -5.8870   24.1310  -30.8250 C   0  0  0  0  0  0  0  0  0  0  0  0
   -5.0710   25.3230  -30.5210 C   0  0  0  0  0  0  0  0  0  0  0  0
   -3.6490   25.2400  -30.4610 N   0  0  0  0  0  0  0  0  0  0  0  0
   -5.6320   26.4410  -30.3670 O   0  0  0  0  0  0  0  0  0  0  0  0
   -7.2780   24.1600  -30.9150 C   0  0  0  0  0  0  0  0  0  0  0  0
   -7.6440   22.8950  -31.3110 C   0  0  0  0  0  0  0  0  0  0  0  0
   -8.9090   22.3640  -31.5480 C   0  0  0  0  0  0  0  0  0  0  0  0
   -8.9960   21.0140  -31.9280 C   0  0  0  0  0  0  0  0  0  0  0  0
   -7.8270   20.2240  -32.0610 C   0  0  0  0  0  0  0  0  0  0  0  0
   -7.9290   18.7730  -32.4460 C   0  0  0  0  0  0  0  0  0  0  0  0
   -6.6910   18.0150  -32.0190 C   0  0  0  0  0  0  0  0  0  0  0  0
   -6.6170   17.6290  -30.8580 O   0  0  0  0  0  0  0  0  0  0  0  0
   -5.5790   17.7730  -32.9220 N   0  0  0  0  0  0  0  0  0  0  0  0
   -6.0010   17.8970  -34.3290 C   0  0  0  0  0  0  0  0  0  0  0  0
   -4.8690   17.4440  -35.2690 C   0  0  0  0  0  0  0  0  0  0  0  0
   -3.5210   17.8840  -34.8250 N   0  0  0  0  0  0  0  0  0  0  0  0
   -2.6770   16.7660  -34.3760 C   0  0  0  0  0  0  0  0  0  0  0  0
   -3.5550   18.9810  -33.8370 C   0  0  0  0  0  0  0  0  0  0  0  0
   -4.4230   18.6460  -32.6010 C   0  0  0  0  0  0  0  0  0  0  0  0
   -6.5610   20.7950  -31.7970 C   0  0  0  0  0  0  0  0  0  0  0  0
   -6.5010   22.1480  -31.4410 C   0  0  0  0  0  0  0  0  0  0  0  0
   -4.7429   24.6550  -26.8519 H   0  0  0  0  0  0  0  0  0  0  0  0
   -2.9358   24.6073  -27.4539 H   0  0  0  0  0  0  0  0  0  0  0  0
   -5.1752   22.5414  -27.9621 H   0  0  0  0  0  0  0  0  0  0  0  0
   -2.3153   22.9970  -29.0721 H   0  0  0  0  0  0  0  0  0  0  0  0
   -2.6520   21.4945  -28.1438 H   0  0  0  0  0  0  0  0  0  0  0  0
   -3.1150   24.6810  -31.1640 H   0  0  0  0  0  0  0  0  0  0  0  0
   -7.9417   25.0135  -30.7123 H   0  0  0  0  0  0  0  0  0  0  0  0
   -9.8125   22.9822  -31.4411 H   0  0  0  0  0  0  0  0  0  0  0  0
   -9.9813   20.5659  -32.1242 H   0  0  0  0  0  0  0  0  0  0  0  0
   -8.8092   18.3310  -31.9562 H   0  0  0  0  0  0  0  0  0  0  0  0
   -8.0244   18.7045  -33.5397 H   0  0  0  0  0  0  0  0  0  0  0  0
   -5.2750   16.7790  -32.7830 H   0  0  0  0  0  0  0  0  0  0  0  0
   -6.8871   17.2677  -34.4987 H   0  0  0  0  0  0  0  0  0  0  0  0
   -6.2403   18.9499  -34.5390 H   0  0  0  0  0  0  0  0  0  0  0  0
   -4.8776   16.3453  -35.3207 H   0  0  0  0  0  0  0  0  0  0  0  0
   -5.0555   17.9081  -36.2487 H   0  0  0  0  0  0  0  0  0  0  0  0
   -2.6574   16.7400  -33.2765 H   0  0  0  0  0  0  0  0  0  0  0  0
   -3.0881   15.8199  -34.7579 H   0  0  0  0  0  0  0  0  0  0  0  0
   -1.6544   16.9021  -34.7579 H   0  0  0  0  0  0  0  0  0  0  0  0
   -2.5274   19.1834  -33.5007 H   0  0  0  0  0  0  0  0  0  0  0  0
   -4.0026   19.8570  -34.3292 H   0  0  0  0  0  0  0  0  0  0  0  0
   -3.7929   18.1340  -31.8589 H   0  0  0  0  0  0  0  0  0  0  0  0
   -4.8249   19.5945  -32.2152 H   0  0  0  0  0  0  0  0  0  0  0  0
   -5.6447   20.1908  -31.8695 H   0  0  0  0  0  0  0  0  0  0  0  0
  1  2  2  0
  2  3  1  0
  3  4  1  0
  4  5  1  0
  5  6  2  0
  5  7  1  0
  7  8  1  0
  8  9  1  0
  9 10  1  0
  9 11  2  0
  8 12  2  0
 12 13  1  0
 13 14  2  0
 14 15  1  0
 15 16  2  0
 16 17  1  0
 17 18  1  0
 18 19  2  0
 18 20  1  0
 20 21  1  0
 21 22  1  0
 22 23  1  0
 23 24  1  0
 23 25  1  0
 25 26  1  0
 16 27  1  0
 27 28  2  0
 28  7  1  0
 28 13  1  0
 26 20  1  0
  1 29  1  0
  1 30  1  0
  2 31  1  0
  3 32  1  0
  3 33  1  0
 10 34  1  0
 12 35  1  0
 14 36  1  0
 15 37  1  0
 17 38  1  0
 17 39  1  0
 20 40  1  0
 21 41  1  0
 21 42  1  0
 22 43  1  0
 22 44  1  0
 24 45  1  0
 24 46  1  0
 24 47  1  0
 25 48  1  0
 25 49  1  0
 26 50  1  0
 26 51  1  0
 27 52  1  0
M  CHG  2  10  -1  20   1
M  END
>  <UniqueID>  (57) 
57

>  <SMILES>  (57) 
C=CCOC(=O)n1c(C([NH-])=O)cc2ccc(CC(=O)[NH+]3CCN(C)CC3)cc21

>  <Energy>  (57) 
99.0542775311928

>  <Genealogy>  (57) 
C=CCOC(=O)n1c(C([NH-])=O)cc2ccc(CC(=O)[NH+]3CCN(C)CC3)cc21 (protonated)
C=CCOC(=O)n1c(C([NH-])=O)cc2ccc(CC(=O)[NH+]3CCN(C)CC3)cc21 (3D coordinates assigned)
C=CCOC(=O)n1c(C([NH-])=O)cc2ccc(CC(=O)[NH+]3CCN(C)CC3)cc21 (nonaromatic ring conformer: 99.0542775311928 kcal/mol)

>  <smiles>  (57) 
C=CCOC(=O)n1c(C(N)=O)cc2ccc(CC(=O)N3CCN(C)CC3)cc21

>  <score_type>  (57) 
oracle

>  <origin>  (57) 
adg

>  <m_score__min__energy>  (57) 
-10.779999999999999

>  <m_primary>  (57) 
energy

$$$$
57:0
     RDKit          3D

 42 43  0  0  0  0  0  0  0  0999 V2000
   -8.9890   21.4760  -31.3870 C   0  0  0  0  0  0  0  0  0  0  0  0
   -8.5780   20.6580  -32.4750 O   0  0  0  0  0  0  0  0  0  0  0  0
   -8.3220   19.2910  -32.3360 C   0  0  0  0  0  0  0  0  0  0  0  0
   -9.0630   18.5670  -31.6150 O   0  0  0  0  0  0  0  0  0  0  0  0
   -7.1900   18.6730  -33.0970 C   0  0  0  0  0  0  0  0  0  0  0  0
   -6.3710   19.7320  -33.8440 C   0  0  0  0  0  0  0  0  0  0  0  0
   -5.2000   20.2110  -33.0250 C   0  0  0  0  0  0  0  0  0  0  0  0
   -4.0220   19.4270  -32.9350 C   0  0  0  0  0  0  0  0  0  0  0  0
   -2.9050   19.8910  -32.2200 C   0  0  0  0  0  0  0  0  0  0  0  0
   -2.9960   21.1360  -31.6060 C   0  0  0  0  0  0  0  0  0  0  0  0
   -2.0590   21.8400  -30.8840 C   0  0  0  0  0  0  0  0  0  0  0  0
   -2.6830   23.0360  -30.5350 C   0  0  0  0  0  0  0  0  0  0  0  0
   -2.0420   24.0840  -29.7100 C   0  0  0  0  0  0  0  0  0  0  0  0
   -2.7630   25.2450  -29.3070 N   0  0  0  0  0  0  0  0  0  0  0  0
   -0.8500   23.9370  -29.3320 O   0  0  0  0  0  0  0  0  0  0  0  0
   -3.9540   23.0700  -31.0230 N   0  0  0  0  0  0  0  0  0  0  0  0
   -4.8950   24.1510  -30.9390 C   0  0  0  0  0  0  0  0  0  0  0  0
   -4.5170   25.3230  -31.2130 O   0  0  0  0  0  0  0  0  0  0  0  0
   -6.2810   23.9070  -30.4040 C   0  0  0  0  0  0  0  0  0  0  0  0
   -6.8520   25.1040  -29.6230 C   0  0  0  0  0  0  0  0  0  0  0  0
   -5.8760   25.6580  -28.6830 N   0  0  0  0  0  0  0  0  0  0  0  0
   -4.1310   21.9020  -31.6760 C   0  0  0  0  0  0  0  0  0  0  0  0
   -5.2500   21.4740  -32.3950 C   0  0  0  0  0  0  0  0  0  0  0  0
   -8.7387   20.9779  -30.4387 H   0  0  0  0  0  0  0  0  0  0  0  0
   -8.4706   22.4447  -31.4403 H   0  0  0  0  0  0  0  0  0  0  0  0
  -10.0757   21.6382  -31.4403 H   0  0  0  0  0  0  0  0  0  0  0  0
   -6.5320   18.1440  -32.3919 H   0  0  0  0  0  0  0  0  0  0  0  0
   -7.6111   17.9768  -33.8372 H   0  0  0  0  0  0  0  0  0  0  0  0
   -5.9957   19.2964  -34.7818 H   0  0  0  0  0  0  0  0  0  0  0  0
   -7.0252   20.5935  -34.0436 H   0  0  0  0  0  0  0  0  0  0  0  0
   -3.9822   18.4455  -33.4300 H   0  0  0  0  0  0  0  0  0  0  0  0
   -1.9874   19.2887  -32.1480 H   0  0  0  0  0  0  0  0  0  0  0  0
   -1.0348   21.5252  -30.6353 H   0  0  0  0  0  0  0  0  0  0  0  0
   -3.4880   25.6690  -29.9270 H   0  0  0  0  0  0  0  0  0  0  0  0
   -6.9492   23.6920  -31.2509 H   0  0  0  0  0  0  0  0  0  0  0  0
   -6.2153   23.0621  -29.7027 H   0  0  0  0  0  0  0  0  0  0  0  0
   -7.1429   25.8885  -30.3371 H   0  0  0  0  0  0  0  0  0  0  0  0
   -7.7196   24.7519  -29.0457 H   0  0  0  0  0  0  0  0  0  0  0  0
   -5.8750   25.1020  -27.7980 H   0  0  0  0  0  0  0  0  0  0  0  0
   -4.9240   25.6060  -29.1120 H   0  0  0  0  0  0  0  0  0  0  0  0
   -6.0940   26.6590  -28.4770 H   0  0  0  0  0  0  0  0  0  0  0  0
   -6.1478   22.1053  -32.4685 H   0  0  0  0  0  0  0  0  0  0  0  0
  1  2  1  0
  2  3  1  0
  3  4  2  0
  3  5  1  0
  5  6  1  0
  6  7  1  0
  7  8  2  0
  8  9  1  0
  9 10  2  0
 10 11  1  0
 11 12  2  0
 12 13  1  0
 13 14  1  0
 13 15  2  0
 12 16  1  0
 16 17  1  0
 17 18  2  0
 17 19  1  0
 19 20  1  0
 20 21  1  0
 16 22  1  0
 22 23  2  0
 23  7  1  0
 22 10  1  0
  1 24  1  0
  1 25  1  0
  1 26  1  0
  5 27  1  0
  5 28  1  0
  6 29  1  0
  6 30  1  0
  8 31  1  0
  9 32  1  0
 11 33  1  0
 14 34  1  0
 19 35  1  0
 19 36  1  0
 20 37  1  0
 20 38  1  0
 21 39  1  0
 21 40  1  0
 21 41  1  0
 23 42  1  0
M  CHG  2  14  -1  21   1
M  END
>  <UniqueID>  (58) 
58

>  <SMILES>  (58) 
COC(=O)CCc1ccc2cc(C([NH-])=O)n(C(=O)CC[NH3+])c2c1

>  <Energy>  (58) 
72.267468595887

>  <Genealogy>  (58) 
COC(=O)CCc1ccc2cc(C([NH-])=O)n(C(=O)CC[NH3+])c2c1 (protonated)
COC(=O)CCc1ccc2cc(C([NH-])=O)n(C(=O)CC[NH3+])c2c1 (3D coordinates assigned)
COC(=O)CCc1ccc2cc(C([NH-])=O)n(C(=O)CC[NH3+])c2c1 (optimized conformer: 72.267468595887 kcal/mol)

>  <smiles>  (58) 
COC(=O)CCc1ccc2cc(C(N)=O)n(C(=O)CCN)c2c1

>  <score_type>  (58) 
oracle

>  <origin>  (58) 
adg

>  <m_score__min__energy>  (58) 
-9.5500000000000007

>  <m_primary>  (58) 
energy

$$$$
58:0
     RDKit          3D

 52 54  0  0  0  0  0  0  0  0999 V2000
   -2.3170   18.3200  -33.1700 C   0  0  0  0  0  0  0  0  0  0  0  0
   -2.4640   17.1860  -34.1810 C   0  0  0  0  0  0  0  0  0  0  0  0
   -3.2540   16.0070  -33.5790 C   0  0  0  0  0  0  0  0  0  0  0  0
   -4.7190   16.1940  -33.6200 N   0  0  0  0  0  0  0  0  0  0  0  0
   -5.4000   16.1080  -32.3040 C   0  0  0  0  0  0  0  0  0  0  0  0
   -5.7490   17.4850  -31.7100 C   0  0  0  0  0  0  0  0  0  0  0  0
   -6.3350   18.3790  -32.7160 N   0  0  0  0  0  0  0  0  0  0  0  0
   -6.5950   19.7520  -32.3760 C   0  0  0  0  0  0  0  0  0  0  0  0
   -7.9160   20.2640  -32.4410 C   0  0  0  0  0  0  0  0  0  0  0  0
   -8.1890   21.5930  -32.0780 C   0  0  0  0  0  0  0  0  0  0  0  0
   -7.1250   22.3860  -31.6570 C   0  0  0  0  0  0  0  0  0  0  0  0
   -7.1120   23.6880  -31.2110 C   0  0  0  0  0  0  0  0  0  0  0  0
   -5.7810   23.9570  -30.8930 C   0  0  0  0  0  0  0  0  0  0  0  0
   -5.3040   25.2790  -30.4390 C   0  0  0  0  0  0  0  0  0  0  0  0
   -3.9440   25.6690  -30.6170 N   0  0  0  0  0  0  0  0  0  0  0  0
   -6.1160   26.0940  -29.9260 O   0  0  0  0  0  0  0  0  0  0  0  0
   -5.0040   22.8630  -31.1320 N   0  0  0  0  0  0  0  0  0  0  0  0
   -3.6080   22.6960  -30.8410 C   0  0  0  0  0  0  0  0  0  0  0  0
   -2.7530   22.8740  -31.7500 O   0  0  0  0  0  0  0  0  0  0  0  0
   -3.2090   22.3100  -29.5560 O   0  0  0  0  0  0  0  0  0  0  0  0
   -3.4180   23.1130  -28.3950 C   0  0  0  0  0  0  0  0  0  0  0  0
   -2.2350   24.0560  -28.1620 C   0  0  0  0  0  0  0  0  0  0  0  0
   -1.8510   24.6670  -29.3640 O   0  0  0  0  0  0  0  0  0  0  0  0
   -5.8400   21.9110  -31.6000 C   0  0  0  0  0  0  0  0  0  0  0  0
   -5.5430   20.5880  -31.9400 C   0  0  0  0  0  0  0  0  0  0  0  0
   -6.4770   17.9070  -34.0950 C   0  0  0  0  0  0  0  0  0  0  0  0
   -5.1570   17.2760  -34.5340 C   0  0  0  0  0  0  0  0  0  0  0  0
   -2.3700   17.9112  -32.1502 H   0  0  0  0  0  0  0  0  0  0  0  0
   -1.3468   18.8176  -33.3156 H   0  0  0  0  0  0  0  0  0  0  0  0
   -3.1282   19.0485  -33.3156 H   0  0  0  0  0  0  0  0  0  0  0  0
   -2.9972   17.5611  -35.0670 H   0  0  0  0  0  0  0  0  0  0  0  0
   -1.4602   16.8304  -34.4567 H   0  0  0  0  0  0  0  0  0  0  0  0
   -3.0038   15.0965  -34.1433 H   0  0  0  0  0  0  0  0  0  0  0  0
   -2.9677   15.9346  -32.5194 H   0  0  0  0  0  0  0  0  0  0  0  0
   -6.3307   15.5351  -32.4289 H   0  0  0  0  0  0  0  0  0  0  0  0
   -4.7036   15.6186  -31.6072 H   0  0  0  0  0  0  0  0  0  0  0  0
   -6.4713   17.3473  -30.8918 H   0  0  0  0  0  0  0  0  0  0  0  0
   -4.8196   17.9450  -31.3431 H   0  0  0  0  0  0  0  0  0  0  0  0
   -8.7357   19.6131  -32.7794 H   0  0  0  0  0  0  0  0  0  0  0  0
   -9.2119   21.9949  -32.1249 H   0  0  0  0  0  0  0  0  0  0  0  0
   -7.9695   24.3714  -31.1239 H   0  0  0  0  0  0  0  0  0  0  0  0
   -3.2230   24.9790  -30.9230 H   0  0  0  0  0  0  0  0  0  0  0  0
   -4.3326   23.7092  -28.5295 H   0  0  0  0  0  0  0  0  0  0  0  0
   -3.5158   22.4502  -27.5226 H   0  0  0  0  0  0  0  0  0  0  0  0
   -2.5271   24.8316  -27.4387 H   0  0  0  0  0  0  0  0  0  0  0  0
   -1.3872   23.4740  -27.7716 H   0  0  0  0  0  0  0  0  0  0  0  0
   -2.4020   24.2560  -30.0810 H   0  0  0  0  0  0  0  0  0  0  0  0
   -4.5136   20.2066  -31.8697 H   0  0  0  0  0  0  0  0  0  0  0  0
   -7.2813   17.1586  -34.1493 H   0  0  0  0  0  0  0  0  0  0  0  0
   -6.7282   18.7496  -34.7560 H   0  0  0  0  0  0  0  0  0  0  0  0
   -5.2836   16.8569  -35.5431 H   0  0  0  0  0  0  0  0  0  0  0  0
   -4.3871   18.0615  -34.5188 H   0  0  0  0  0  0  0  0  0  0  0  0
  1  2  1  0
  2  3  1  0
  3  4  1  0
  4  5  1  0
  5  6  1  0
  6  7  1  0
  7  8  1  0
  8  9  2  0
  9 10  1  0
 10 11  2  0
 11 12  1  0
 12 13  2  0
 13 14  1  0
 14 15  1  0
 14 16  2  0
 13 17  1  0
 17 18  1  0
 18 19  2  0
 18 20  1  0
 20 21  1  0
 21 22  1  0
 22 23  1  0
 17 24  1  0
 24 25  2  0
  7 26  1  0
 26 27  1  0
 27  4  1  0
 25  8  1  0
 24 11  1  0
  1 28  1  0
  1 29  1  0
  1 30  1  0
  2 31  1  0
  2 32  1  0
  3 33  1  0
  3 34  1  0
  5 35  1  0
  5 36  1  0
  6 37  1  0
  6 38  1  0
  9 39  1  0
 10 40  1  0
 12 41  1  0
 15 42  1  0
 21 43  1  0
 21 44  1  0
 22 45  1  0
 22 46  1  0
 23 47  1  0
 25 48  1  0
 26 49  1  0
 26 50  1  0
 27 51  1  0
 27 52  1  0
M  CHG  1  15  -1
M  END
>  <UniqueID>  (59) 
59

>  <SMILES>  (59) 
CCCN1CCN(c2ccc3cc(C([NH-])=O)n(C(=O)OCCO)c3c2)CC1

>  <Energy>  (59) 
98.74673099832543

>  <Genealogy>  (59) 
CCCN1CCN(c2ccc3cc(C([NH-])=O)n(C(=O)OCCO)c3c2)CC1 (protonated)
CCCN1CCN(c2ccc3cc(C([NH-])=O)n(C(=O)OCCO)c3c2)CC1 (3D coordinates assigned)
CCCN1CCN(c2ccc3cc(C([NH-])=O)n(C(=O)OCCO)c3c2)CC1 (nonaromatic ring conformer: 98.74673099832543 kcal/mol)

>  <smiles>  (59) 
CCCN1CCN(c2ccc3cc(C(N)=O)n(C(=O)OCCO)c3c2)CC1

>  <score_type>  (59) 
oracle

>  <origin>  (59) 
adg

>  <m_score__min__energy>  (59) 
-10.890000000000001

>  <m_primary>  (59) 
energy

$$$$
59:0
     RDKit          3D

 41 42  0  0  0  0  0  0  0  0999 V2000
   -3.8930   21.5570  -33.4950 C   0  0  0  0  0  0  0  0  0  0  0  0
   -3.5300   20.2030  -33.0490 N   0  0  0  0  0  0  0  0  0  0  0  0
   -2.0720   20.0060  -33.0950 C   0  0  0  0  0  0  0  0  0  0  0  0
   -4.2300   19.1970  -33.8300 C   0  0  0  0  0  0  0  0  0  0  0  0
   -3.5780   18.3320  -34.4000 O   0  0  0  0  0  0  0  0  0  0  0  0
   -5.7370   19.2420  -34.0190 C   0  0  0  0  0  0  0  0  0  0  0  0
   -6.5000   18.0550  -33.3960 C   0  0  0  0  0  0  0  0  0  0  0  0
   -7.4460   18.4570  -32.2530 C   0  0  0  0  0  0  0  0  0  0  0  0
   -7.4520   19.9400  -31.9890 C   0  0  0  0  0  0  0  0  0  0  0  0
   -8.6260   20.7000  -32.2140 C   0  0  0  0  0  0  0  0  0  0  0  0
   -8.6450   22.0810  -31.9580 C   0  0  0  0  0  0  0  0  0  0  0  0
   -7.4790   22.6730  -31.4870 C   0  0  0  0  0  0  0  0  0  0  0  0
   -7.2280   23.9820  -31.1430 C   0  0  0  0  0  0  0  0  0  0  0  0
   -5.8980   24.0060  -30.7270 C   0  0  0  0  0  0  0  0  0  0  0  0
   -5.1890   25.2470  -30.3510 C   0  0  0  0  0  0  0  0  0  0  0  0
   -3.8830   25.5230  -30.8500 N   0  0  0  0  0  0  0  0  0  0  0  0
   -5.7640   26.0970  -29.6210 O   0  0  0  0  0  0  0  0  0  0  0  0
   -5.3510   22.7600  -30.8020 N   0  0  0  0  0  0  0  0  0  0  0  0
   -4.0390   22.3500  -30.3790 C   0  0  0  0  0  0  0  0  0  0  0  0
   -3.2520   23.1810  -29.8550 O   0  0  0  0  0  0  0  0  0  0  0  0
   -3.6170   21.0410  -30.5720 O   0  0  0  0  0  0  0  0  0  0  0  0
   -6.3310   21.9560  -31.2720 C   0  0  0  0  0  0  0  0  0  0  0  0
   -6.2910   20.5750  -31.4930 C   0  0  0  0  0  0  0  0  0  0  0  0
   -4.0649   22.1982  -32.6179 H   0  0  0  0  0  0  0  0  0  0  0  0
   -3.0753   21.9752  -34.1003 H   0  0  0  0  0  0  0  0  0  0  0  0
   -4.8103   21.5101  -34.1003 H   0  0  0  0  0  0  0  0  0  0  0  0
   -3.8240   20.1140  -32.0470 H   0  0  0  0  0  0  0  0  0  0  0  0
   -1.6767   19.9526  -32.0699 H   0  0  0  0  0  0  0  0  0  0  0  0
   -1.8451   19.0690  -33.6248 H   0  0  0  0  0  0  0  0  0  0  0  0
   -1.6046   20.8492  -33.6248 H   0  0  0  0  0  0  0  0  0  0  0  0
   -6.1123   20.1690  -33.5610 H   0  0  0  0  0  0  0  0  0  0  0  0
   -5.9160   19.1920  -35.1032 H   0  0  0  0  0  0  0  0  0  0  0  0
   -7.0951   17.5726  -34.1853 H   0  0  0  0  0  0  0  0  0  0  0  0
   -5.7459   17.3799  -32.9653 H   0  0  0  0  0  0  0  0  0  0  0  0
   -8.4670   18.1435  -32.5162 H   0  0  0  0  0  0  0  0  0  0  0  0
   -7.0874   17.9612  -31.3389 H   0  0  0  0  0  0  0  0  0  0  0  0
   -9.5317   20.2038  -32.5929 H   0  0  0  0  0  0  0  0  0  0  0  0
   -9.5550   22.6759  -32.1252 H   0  0  0  0  0  0  0  0  0  0  0  0
   -7.9283   24.8291  -31.1871 H   0  0  0  0  0  0  0  0  0  0  0  0
   -3.0340   25.3000  -30.2850 H   0  0  0  0  0  0  0  0  0  0  0  0
   -5.3780   19.9975  -31.2857 H   0  0  0  0  0  0  0  0  0  0  0  0
  1  2  1  0
  2  3  1  0
  2  4  1  0
  4  5  2  0
  4  6  1  0
  6  7  1  0
  7  8  1  0
  8  9  1  0
  9 10  2  0
 10 11  1  0
 11 12  2  0
 12 13  1  0
 13 14  2  0
 14 15  1  0
 15 16  1  0
 15 17  2  0
 14 18  1  0
 18 19  1  0
 19 20  2  0
 19 21  1  0
 18 22  1  0
 22 23  2  0
 23  9  1  0
 22 12  1  0
  1 24  1  0
  1 25  1  0
  1 26  1  0
  2 27  1  0
  3 28  1  0
  3 29  1  0
  3 30  1  0
  6 31  1  0
  6 32  1  0
  7 33  1  0
  7 34  1  0
  8 35  1  0
  8 36  1  0
 10 37  1  0
 11 38  1  0
 13 39  1  0
 16 40  1  0
 23 41  1  0
M  CHG  3   2   1  16  -1  21  -1
M  END
>  <UniqueID>  (60) 
60

>  <SMILES>  (60) 
C[NH+](C)C(=O)CCCc1ccc2cc(C([NH-])=O)n(C(=O)[O-])c2c1

>  <Energy>  (60) 
78.79079615494783

>  <Genealogy>  (60) 
C[NH+](C)C(=O)CCCc1ccc2cc(C([NH-])=O)n(C(=O)[O-])c2c1 (protonated)
C[NH+](C)C(=O)CCCc1ccc2cc(C([NH-])=O)n(C(=O)[O-])c2c1 (3D coordinates assigned)
C[NH+](C)C(=O)CCCc1ccc2cc(C([NH-])=O)n(C(=O)[O-])c2c1 (optimized conformer: 78.79079615494783 kcal/mol)

>  <smiles>  (60) 
CN(C)C(=O)CCCc1ccc2cc(C(N)=O)n(C(=O)O)c2c1

>  <score_type>  (60) 
oracle

>  <origin>  (60) 
adg

>  <m_score__min__energy>  (60) 
-10.32

>  <m_primary>  (60) 
energy

$$$$
60:0
     RDKit          3D

 73 75  0  0  0  0  0  0  0  0999 V2000
   -4.4290   16.6890  -34.7980 C   0  0  0  0  0  0  0  0  0  0  0  0
   -5.7660   16.9460  -34.3820 O   0  0  0  0  0  0  0  0  0  0  0  0
   -6.1810   18.1960  -33.9120 C   0  0  0  0  0  0  0  0  0  0  0  0
   -5.7910   19.2510  -34.4810 O   0  0  0  0  0  0  0  0  0  0  0  0
   -7.0360   18.2930  -32.6770 C   0  0  1  0  0  0  0  0  0  0  0  0
   -6.4530   17.4830  -31.5160 C   0  0  0  0  0  0  0  0  0  0  0  0
   -7.2270   19.7420  -32.2790 C   0  0  0  0  0  0  0  0  0  0  0  0
   -8.5220   20.3190  -32.3100 C   0  0  0  0  0  0  0  0  0  0  0  0
   -8.7250   21.6540  -31.9210 C   0  0  0  0  0  0  0  0  0  0  0  0
   -7.6170   22.3900  -31.5100 C   0  0  0  0  0  0  0  0  0  0  0  0
   -7.5320   23.6910  -31.0690 C   0  0  0  0  0  0  0  0  0  0  0  0
   -6.1810   23.9010  -30.7790 C   0  0  0  0  0  0  0  0  0  0  0  0
   -5.6070   25.2040  -30.3480 C   0  0  0  0  0  0  0  0  0  0  0  0
   -4.2620   25.5690  -30.6840 N   0  0  0  0  0  0  0  0  0  0  0  0
   -6.2960   26.0090  -29.6620 O   0  0  0  0  0  0  0  0  0  0  0  0
   -5.4680   22.7630  -31.0280 N   0  0  0  0  0  0  0  0  0  0  0  0
   -4.0600   22.5370  -30.8640 C   0  0  0  0  0  0  0  0  0  0  0  0
   -3.2570   22.8850  -31.7720 O   0  0  0  0  0  0  0  0  0  0  0  0
   -3.5830   21.9770  -29.6730 O   0  0  0  0  0  0  0  0  0  0  0  0
   -4.1240   22.3030  -28.3950 C   0  0  0  0  0  0  0  0  0  0  0  0
   -3.2160   23.3100  -27.6740 C   0  0  0  0  0  0  0  0  0  0  0  0
   -1.9840   22.6320  -27.0700 C   0  0  0  0  0  0  0  0  0  0  0  0
   -1.4340   21.6720  -28.0550 N   0  0  0  0  0  0  0  0  0  0  0  0
   -0.2820   22.1980  -28.8030 C   0  0  0  0  0  0  0  0  0  0  0  0
   -0.1250   21.3590  -30.0680 C   0  0  0  0  0  0  0  0  0  0  0  0
   -0.3610   19.9330  -29.7950 N   0  0  0  0  0  0  0  0  0  0  0  0
   -0.4420   19.0190  -30.9040 C   0  0  0  0  0  0  0  0  0  0  0  0
   -0.4210   17.7760  -30.6970 O   0  0  0  0  0  0  0  0  0  0  0  0
   -0.5490   19.5260  -32.2090 O   0  0  0  0  0  0  0  0  0  0  0  0
   -1.7670   19.7560  -32.9350 C   0  0  0  0  0  0  0  0  0  0  0  0
   -1.8840   18.6390  -33.9830 C   0  0  0  0  0  0  0  0  0  0  0  0
   -1.7210   21.1160  -33.6570 C   0  0  0  0  0  0  0  0  0  0  0  0
   -2.9850   19.6820  -31.9940 C   0  0  0  0  0  0  0  0  0  0  0  0
   -0.3530   19.4280  -28.4100 C   0  0  0  0  0  0  0  0  0  0  0  0
   -1.1130   20.3650  -27.4440 C   0  0  0  0  0  0  0  0  0  0  0  0
   -6.3590   21.8540  -31.4790 C   0  0  0  0  0  0  0  0  0  0  0  0
   -6.1290   20.5240  -31.8450 C   0  0  0  0  0  0  0  0  0  0  0  0
   -3.7870   16.5656  -33.9133 H   0  0  0  0  0  0  0  0  0  0  0  0
   -4.4030   15.7694  -35.4011 H   0  0  0  0  0  0  0  0  0  0  0  0
   -4.0639   17.5334  -35.4011 H   0  0  0  0  0  0  0  0  0  0  0  0
   -8.0182   17.8595  -32.9165 H   0  0  0  0  0  0  0  0  0  0  0  0
   -6.7728   17.9273  -30.5619 H   0  0  0  0  0  0  0  0  0  0  0  0
   -6.8126   16.4452  -31.5760 H   0  0  0  0  0  0  0  0  0  0  0  0
   -5.3547   17.4945  -31.5760 H   0  0  0  0  0  0  0  0  0  0  0  0
   -9.3783   19.7140  -32.6427 H   0  0  0  0  0  0  0  0  0  0  0  0
   -9.7287   22.1037  -31.9406 H   0  0  0  0  0  0  0  0  0  0  0  0
   -8.3548   24.4139  -30.9663 H   0  0  0  0  0  0  0  0  0  0  0  0
   -3.6220   24.9270  -31.2070 H   0  0  0  0  0  0  0  0  0  0  0  0
   -3.8690   26.4670  -30.3300 H   0  0  0  0  0  0  0  0  0  0  0  0
   -5.1233   22.7439  -28.5255 H   0  0  0  0  0  0  0  0  0  0  0  0
   -4.1930   21.3864  -27.7908 H   0  0  0  0  0  0  0  0  0  0  0  0
   -2.8856   24.0718  -28.3954 H   0  0  0  0  0  0  0  0  0  0  0  0
   -3.7922   23.7652  -26.8550 H   0  0  0  0  0  0  0  0  0  0  0  0
   -1.2248   23.3911  -26.8305 H   0  0  0  0  0  0  0  0  0  0  0  0
   -2.2647   22.1010  -26.1484 H   0  0  0  0  0  0  0  0  0  0  0  0
   -0.4587   23.2501  -29.0712 H   0  0  0  0  0  0  0  0  0  0  0  0
    0.6304   22.1448  -28.1909 H   0  0  0  0  0  0  0  0  0  0  0  0
   -0.8497   21.7048  -30.8198 H   0  0  0  0  0  0  0  0  0  0  0  0
    0.9044   21.4765  -30.4376 H   0  0  0  0  0  0  0  0  0  0  0  0
   -1.9856   17.6687  -33.4749 H   0  0  0  0  0  0  0  0  0  0  0  0
   -2.7683   18.8178  -34.6123 H   0  0  0  0  0  0  0  0  0  0  0  0
   -0.9818   18.6307  -34.6123 H   0  0  0  0  0  0  0  0  0  0  0  0
   -1.6936   21.9255  -32.9127 H   0  0  0  0  0  0  0  0  0  0  0  0
   -0.8206   21.1665  -34.2869 H   0  0  0  0  0  0  0  0  0  0  0  0
   -2.6159   21.2272  -34.2869 H   0  0  0  0  0  0  0  0  0  0  0  0
   -2.6427   19.7028  -30.9488 H   0  0  0  0  0  0  0  0  0  0  0  0
   -3.6454   20.5417  -32.1807 H   0  0  0  0  0  0  0  0  0  0  0  0
   -3.5364   18.7487  -32.1807 H   0  0  0  0  0  0  0  0  0  0  0  0
   -0.8300   18.4370  -28.3912 H   0  0  0  0  0  0  0  0  0  0  0  0
    0.6936   19.3741  -28.0756 H   0  0  0  0  0  0  0  0  0  0  0  0
   -2.0517   19.8760  -27.1446 H   0  0  0  0  0  0  0  0  0  0  0  0
   -0.4597   20.5529  -26.5792 H   0  0  0  0  0  0  0  0  0  0  0  0
   -5.1174   20.0947  -31.7968 H   0  0  0  0  0  0  0  0  0  0  0  0
  1  2  1  0
  2  3  1  0
  3  4  2  0
  3  5  1  0
  5  6  1  0
  5  7  1  0
  7  8  2  0
  8  9  1  0
  9 10  2  0
 10 11  1  0
 11 12  2  0
 12 13  1  0
 13 14  1  0
 13 15  2  0
 12 16  1  0
 16 17  1  0
 17 18  2  0
 17 19  1  0
 19 20  1  0
 20 21  1  0
 21 22  1  0
 22 23  1  0
 23 24  1  0
 24 25  1  0
 25 26  1  0
 26 27  1  0
 27 28  2  0
 27 29  1  0
 29 30  1  0
 30 31  1  0
 30 32  1  0
 30 33  1  0
 26 34  1  0
 34 35  1  0
 16 36  1  0
 36 37  2  0
 37  7  1  0
 36 10  1  0
 35 23  1  0
  1 38  1  0
  1 39  1  0
  1 40  1  0
  5 41  1  6
  6 42  1  0
  6 43  1  0
  6 44  1  0
  8 45  1  0
  9 46  1  0
 11 47  1  0
 14 48  1  0
 14 49  1  0
 20 50  1  0
 20 51  1  0
 21 52  1  0
 21 53  1  0
 22 54  1  0
 22 55  1  0
 24 56  1  0
 24 57  1  0
 25 58  1  0
 25 59  1  0
 31 60  1  0
 31 61  1  0
 31 62  1  0
 32 63  1  0
 32 64  1  0
 32 65  1  0
 33 66  1  0
 33 67  1  0
 33 68  1  0
 34 69  1  0
 34 70  1  0
 35 71  1  0
 35 72  1  0
 37 73  1  0
M  END
>  <UniqueID>  (61) 
61

>  <SMILES>  (61) 
COC(=O)[C@@H](C)c1ccc2cc(C(N)=O)n(C(=O)OCCCN3CCN(C(=O)OC(C)(C)C)CC3)c2c1

>  <Energy>  (61) 
106.38363041707646

>  <Genealogy>  (61) 
COC(=O)[C@@H](C)c1ccc2cc(C(N)=O)n(C(=O)OCCCN3CCN(C(=O)OC(C)(C)C)CC3)c2c1 (chirality)
COC(=O)[C@@H](C)c1ccc2cc(C(N)=O)n(C(=O)OCCCN3CCN(C(=O)OC(C)(C)C)CC3)c2c1 (3D coordinates assigned)
COC(=O)[C@@H](C)c1ccc2cc(C(N)=O)n(C(=O)OCCCN3CCN(C(=O)OC(C)(C)C)CC3)c2c1 (nonaromatic ring conformer: 106.38363041707646 kcal/mol)

>  <smiles>  (61) 
COC(=O)C(C)c1ccc2cc(C(N)=O)n(C(=O)OCCCN3CCN(C(=O)OC(C)(C)C)CC3)c2c1

>  <score_type>  (61) 
oracle

>  <origin>  (61) 
adg

>  <m_score__min__energy>  (61) 
-10.470000000000001

>  <m_primary>  (61) 
energy

$$$$
61:0
     RDKit          3D

 59 60  0  0  0  0  0  0  0  0999 V2000
   -3.5799   20.1054  -27.7384 H   0  0  0  0  0  0  0  0  0  0  0  0
   -2.5700   20.5050  -27.9130 C   0  0  0  0  0  0  0  0  0  0  0  0
   -1.8304   20.5058  -27.0987 H   0  0  0  0  0  0  0  0  0  0  0  0
   -2.2420   20.9890  -29.1130 C   0  0  0  0  0  0  0  0  0  0  0  0
   -2.9905   20.9826  -29.9190 H   0  0  0  0  0  0  0  0  0  0  0  0
   -0.8730   21.5420  -29.3860 C   0  0  0  0  0  0  0  0  0  0  0  0
   -0.8486   22.6039  -29.0999 H   0  0  0  0  0  0  0  0  0  0  0  0
   -0.1373   20.9724  -28.7992 H   0  0  0  0  0  0  0  0  0  0  0  0
   -0.5490   21.4220  -30.7700 O   0  0  0  0  0  0  0  0  0  0  0  0
   -0.2950   20.1960  -31.3950 C   0  0  0  0  0  0  0  0  0  0  0  0
    0.8860   19.8610  -31.6900 O   0  0  0  0  0  0  0  0  0  0  0  0
   -1.3970   19.3290  -31.6880 N   0  0  0  0  0  0  0  0  0  0  0  0
   -2.1710   19.4680  -32.7200 C   0  0  0  0  0  0  0  0  0  0  0  0
   -2.0215   20.3115  -33.4101 H   0  0  0  0  0  0  0  0  0  0  0  0
   -3.2700   18.4780  -32.9720 C   0  0  0  0  0  0  0  0  0  0  0  0
   -2.8322   17.5896  -33.4506 H   0  0  0  0  0  0  0  0  0  0  0  0
   -3.7251   18.2527  -31.9962 H   0  0  0  0  0  0  0  0  0  0  0  0
   -4.4020   19.0120  -33.8810 C   0  0  1  0  0  0  0  0  0  0  0  0
   -3.9098   19.4856  -34.7432 H   0  0  0  0  0  0  0  0  0  0  0  0
   -5.2670   17.8920  -34.4460 C   0  0  0  0  0  0  0  0  0  0  0  0
   -5.3950   17.7940  -35.6980 O   0  0  0  0  0  0  0  0  0  0  0  0
   -5.9930   16.9720  -33.5960 N   0  0  0  0  0  0  0  0  0  0  0  0
   -6.8430   15.9530  -34.2240 C   0  0  0  0  0  0  0  0  0  0  0  0
   -7.3395   15.3578  -33.4434 H   0  0  0  0  0  0  0  0  0  0  0  0
   -7.6029   16.4441  -34.8496 H   0  0  0  0  0  0  0  0  0  0  0  0
   -6.2235   15.2935  -34.8496 H   0  0  0  0  0  0  0  0  0  0  0  0
   -5.9000   17.0340  -32.1320 C   0  0  0  0  0  0  0  0  0  0  0  0
   -6.7372   16.4759  -31.6875 H   0  0  0  0  0  0  0  0  0  0  0  0
   -4.9484   16.5890  -31.8059 H   0  0  0  0  0  0  0  0  0  0  0  0
   -5.9448   18.0836  -31.8059 H   0  0  0  0  0  0  0  0  0  0  0  0
   -5.2230   20.1130  -33.2130 C   0  0  0  0  0  0  0  0  0  0  0  0
   -6.6420   20.0670  -33.2800 C   0  0  0  0  0  0  0  0  0  0  0  0
   -7.1318   19.2358  -33.8083 H   0  0  0  0  0  0  0  0  0  0  0  0
   -7.4290   21.0650  -32.6830 C   0  0  0  0  0  0  0  0  0  0  0  0
   -8.5273   21.0220  -32.7260 H   0  0  0  0  0  0  0  0  0  0  0  0
   -6.7780   22.1090  -32.0360 C   0  0  0  0  0  0  0  0  0  0  0  0
   -7.2950   23.1900  -31.3590 C   0  0  0  0  0  0  0  0  0  0  0  0
   -8.3561   23.4351  -31.2042 H   0  0  0  0  0  0  0  0  0  0  0  0
   -6.1890   23.9070  -30.9120 C   0  0  0  0  0  0  0  0  0  0  0  0
   -6.2880   25.1920  -30.1940 C   0  0  0  0  0  0  0  0  0  0  0  0
   -7.2440   25.3810  -29.3950 O   0  0  0  0  0  0  0  0  0  0  0  0
   -5.3530   26.2460  -30.4310 N   0  0  0  0  0  0  0  0  0  0  0  0
   -5.4280   27.1420  -29.9010 H   0  0  0  0  0  0  0  0  0  0  0  0
   -4.6470   26.1770  -31.1970 H   0  0  0  0  0  0  0  0  0  0  0  0
   -5.0330   23.2890  -31.2840 N   0  0  0  0  0  0  0  0  0  0  0  0
   -3.6910   23.6580  -30.9230 C   0  0  0  0  0  0  0  0  0  0  0  0
   -2.7130   23.0180  -31.3960 O   0  0  0  0  0  0  0  0  0  0  0  0
   -3.4740   24.7270  -30.0450 O   0  0  0  0  0  0  0  0  0  0  0  0
   -2.9540   24.5610  -28.7290 C   0  0  0  0  0  0  0  0  0  0  0  0
   -2.2151   23.7461  -28.7307 H   0  0  0  0  0  0  0  0  0  0  0  0
   -2.4778   25.5001  -28.4108 H   0  0  0  0  0  0  0  0  0  0  0  0
   -4.0630   24.2240  -27.7690 C   0  0  0  0  0  0  0  0  0  0  0  0
   -4.7706   23.4233  -28.0302 H   0  0  0  0  0  0  0  0  0  0  0  0
   -4.2130   24.8690  -26.6090 C   0  0  0  0  0  0  0  0  0  0  0  0
   -5.0351   24.5969  -25.9307 H   0  0  0  0  0  0  0  0  0  0  0  0
   -3.5144   25.6723  -26.3320 H   0  0  0  0  0  0  0  0  0  0  0  0
   -5.4120   22.1890  -31.9730 C   0  0  0  0  0  0  0  0  0  0  0  0
   -4.6050   21.1920  -32.5320 C   0  0  0  0  0  0  0  0  0  0  0  0
   -3.5097   21.2445  -32.4446 H   0  0  0  0  0  0  0  0  0  0  0  0
  1  2  1  0
  2  3  1  0
  2  4  2  0
  4  5  1  0
  4  6  1  0
  6  7  1  0
  6  8  1  0
  6  9  1  0
  9 10  1  0
 10 11  2  0
 10 12  1  0
 12 13  2  0
 13 14  1  0
 13 15  1  0
 15 16  1  0
 15 17  1  0
 15 18  1  0
 18 19  1  6
 18 20  1  0
 20 21  2  0
 20 22  1  0
 22 23  1  0
 23 24  1  0
 23 25  1  0
 23 26  1  0
 22 27  1  0
 27 28  1  0
 27 29  1  0
 27 30  1  0
 18 31  1  0
 31 32  2  0
 32 33  1  0
 32 34  1  0
 34 35  1  0
 34 36  2  0
 36 37  1  0
 37 38  1  0
 37 39  2  0
 39 40  1  0
 40 41  2  0
 40 42  1  0
 42 43  1  0
 42 44  1  0
 39 45  1  0
 45 46  1  0
 46 47  2  0
 46 48  1  0
 48 49  1  0
 49 50  1  0
 49 51  1  0
 49 52  1  0
 52 53  1  0
 52 54  2  0
 54 55  1  0
 54 56  1  0
 45 57  1  0
 57 58  2  0
 58 59  1  0
 58 31  1  0
 57 36  1  0
M  END
>  <UniqueID>  (62) 
62

>  <SMILES>  (62) 
C=CCOC(=O)/N=C/C[C@@H](C(=O)N(C)C)c1ccc2cc(C(N)=O)n(C(=O)OCC=C)c2c1

>  <Energy>  (62) 
86.1460508653645

>  <Genealogy>  (62) 
C=CCOC(=O)/N=C/C[C@@H](C(=O)N(C)C)c1ccc2cc(C(N)=O)n(C(=O)OCC=C)c2c1 (cis-trans isomerization)
C=CCOC(=O)/N=C/C[C@@H](C(=O)N(C)C)c1ccc2cc(C(N)=O)n(C(=O)OCC=C)c2c1 (3D coordinates assigned)
C=CCOC(=O)/N=C/C[C@@H](C(=O)N(C)C)c1ccc2cc(C(N)=O)n(C(=O)OCC=C)c2c1 (optimized conformer: 86.1460508653645 kcal/mol)

>  <smiles>  (62) 
C=CCOC(=O)/N=C/C[C@@H](C(=O)N(C)C)c1ccc2cc(C(N)=O)n(C(=O)OCC=C)c2c1

>  <score_type>  (62) 
oracle

>  <origin>  (62) 
adg

>  <m_score__min__energy>  (62) 
-9.2799999999999994

>  <m_primary>  (62) 
energy

$$$$
62:0
     RDKit          3D

 50 51  0  0  0  0  0  0  0  0999 V2000
   -3.1090   24.6270  -31.1460 H   0  0  0  0  0  0  0  0  0  0  0  0
   -3.6660   25.2350  -30.5040 N   0  0  0  0  0  0  0  0  0  0  0  0
   -5.0870   25.2940  -30.5980 C   0  0  0  0  0  0  0  0  0  0  0  0
   -5.6690   26.4060  -30.4800 O   0  0  0  0  0  0  0  0  0  0  0  0
   -5.8810   24.0740  -30.8490 C   0  0  0  0  0  0  0  0  0  0  0  0
   -7.1960   23.8940  -30.4200 C   0  0  0  0  0  0  0  0  0  0  0  0
   -7.8093   24.5968  -29.8369 H   0  0  0  0  0  0  0  0  0  0  0  0
   -7.5640   22.6480  -30.8820 C   0  0  0  0  0  0  0  0  0  0  0  0
   -8.7560   21.9460  -30.7310 C   0  0  0  0  0  0  0  0  0  0  0  0
   -9.6016   22.3773  -30.1752 H   0  0  0  0  0  0  0  0  0  0  0  0
   -8.8460   20.6680  -31.3110 C   0  0  0  0  0  0  0  0  0  0  0  0
   -9.7766   20.0903  -31.2095 H   0  0  0  0  0  0  0  0  0  0  0  0
   -7.7530   20.1140  -32.0250 C   0  0  0  0  0  0  0  0  0  0  0  0
   -7.9070   18.7870  -32.7270 C   0  0  0  0  0  0  0  0  0  0  0  0
   -8.6123   18.9067  -33.5626 H   0  0  0  0  0  0  0  0  0  0  0  0
   -8.2794   18.0557  -31.9945 H   0  0  0  0  0  0  0  0  0  0  0  0
   -6.6010   18.2820  -33.2640 C   0  0  0  0  0  0  0  0  0  0  0  0
   -6.2020   18.6600  -34.4000 O   0  0  0  0  0  0  0  0  0  0  0  0
   -5.8290   17.4070  -32.4930 O   0  0  0  0  0  0  0  0  0  0  0  0
   -6.1150   17.1420  -31.1260 C   0  0  0  0  0  0  0  0  0  0  0  0
   -5.4572   17.7515  -30.4889 H   0  0  0  0  0  0  0  0  0  0  0  0
   -7.1650   17.3935  -30.9156 H   0  0  0  0  0  0  0  0  0  0  0  0
   -5.9441   16.0759  -30.9156 H   0  0  0  0  0  0  0  0  0  0  0  0
   -6.5590   20.8610  -32.1580 C   0  0  0  0  0  0  0  0  0  0  0  0
   -5.7000   20.4568  -32.7137 H   0  0  0  0  0  0  0  0  0  0  0  0
   -6.4980   22.1270  -31.5650 C   0  0  0  0  0  0  0  0  0  0  0  0
   -5.4560   22.9810  -31.5390 N   0  0  0  0  0  0  0  0  0  0  0  0
   -4.1380   22.6940  -32.0270 C   0  0  0  0  0  0  0  0  0  0  0  0
   -3.9510   22.5790  -33.2670 O   0  0  0  0  0  0  0  0  0  0  0  0
   -3.0700   22.4460  -31.1510 O   0  0  0  0  0  0  0  0  0  0  0  0
   -2.0280   21.4930  -31.3770 C   0  0  0  0  0  0  0  0  0  0  0  0
   -1.0617   22.0185  -31.3721 H   0  0  0  0  0  0  0  0  0  0  0  0
   -2.0822   20.7409  -30.5761 H   0  0  0  0  0  0  0  0  0  0  0  0
   -2.1810   20.7760  -32.6900 C   0  0  0  0  0  0  0  0  0  0  0  0
   -1.6528   21.1632  -33.5738 H   0  0  0  0  0  0  0  0  0  0  0  0
   -2.9410   19.6800  -32.8160 C   0  0  0  0  0  0  0  0  0  0  0  0
   -3.4995   19.3072  -31.9448 H   0  0  0  0  0  0  0  0  0  0  0  0
   -3.0450   18.9470  -34.1320 C   0  0  0  0  0  0  0  0  0  0  0  0
   -3.6935   19.5218  -34.8095 H   0  0  0  0  0  0  0  0  0  0  0  0
   -2.0316   18.8444  -34.5474 H   0  0  0  0  0  0  0  0  0  0  0  0
   -3.6120   17.5910  -33.9620 N   0  0  0  0  0  0  0  0  0  0  0  0
   -4.5340   17.6610  -33.4660 H   0  0  0  0  0  0  0  0  0  0  0  0
   -3.8230   16.9320  -35.2660 C   0  0  0  0  0  0  0  0  0  0  0  0
   -4.1548   15.8958  -35.1038 H   0  0  0  0  0  0  0  0  0  0  0  0
   -4.5911   17.4784  -35.8330 H   0  0  0  0  0  0  0  0  0  0  0  0
   -2.8804   16.9307  -35.8330 H   0  0  0  0  0  0  0  0  0  0  0  0
   -2.7110   16.7690  -33.1350 C   0  0  0  0  0  0  0  0  0  0  0  0
   -2.9168   16.9567  -32.0709 H   0  0  0  0  0  0  0  0  0  0  0  0
   -2.8771   15.7048  -33.3584 H   0  0  0  0  0  0  0  0  0  0  0  0
   -1.6665   17.0318  -33.3584 H   0  0  0  0  0  0  0  0  0  0  0  0
  1  2  1  0
  2  3  1  0
  3  4  2  0
  3  5  1  0
  5  6  2  0
  6  7  1  0
  6  8  1  0
  8  9  2  0
  9 10  1  0
  9 11  1  0
 11 12  1  0
 11 13  2  0
 13 14  1  0
 14 15  1  0
 14 16  1  0
 14 17  1  0
 17 18  2  0
 17 19  1  0
 19 20  1  0
 20 21  1  0
 20 22  1  0
 20 23  1  0
 13 24  1  0
 24 25  1  0
 24 26  2  0
 26 27  1  0
 27 28  1  0
 28 29  2  0
 28 30  1  0
 30 31  1  0
 31 32  1  0
 31 33  1  0
 31 34  1  0
 34 35  1  0
 34 36  2  0
 36 37  1  0
 36 38  1  0
 38 39  1  0
 38 40  1  0
 38 41  1  0
 41 42  1  0
 41 43  1  0
 43 44  1  0
 43 45  1  0
 43 46  1  0
 41 47  1  0
 47 48  1  0
 47 49  1  0
 47 50  1  0
 27  5  1  0
 26  8  1  0
M  CHG  2   2  -1  41   1
M  END
>  <UniqueID>  (63) 
63

>  <SMILES>  (63) 
COC(=O)Cc1ccc2cc(C([NH-])=O)n(C(=O)OC/C=C/C[NH+](C)C)c2c1

>  <Energy>  (63) 
79.27172378180082

>  <Genealogy>  (63) 
COC(=O)Cc1ccc2cc(C([NH-])=O)n(C(=O)OC/C=C/C[NH+](C)C)c2c1 (protonated)
COC(=O)Cc1ccc2cc(C([NH-])=O)n(C(=O)OC/C=C/C[NH+](C)C)c2c1 (cis-trans isomerization)
COC(=O)Cc1ccc2cc(C([NH-])=O)n(C(=O)OC/C=C/C[NH+](C)C)c2c1 (3D coordinates assigned)
COC(=O)Cc1ccc2cc(C([NH-])=O)n(C(=O)OC/C=C/C[NH+](C)C)c2c1 (optimized conformer: 79.27172378180082 kcal/mol)

>  <smiles>  (63) 
COC(=O)Cc1ccc2cc(C(N)=O)n(C(=O)OC/C=C/CN(C)C)c2c1

>  <score_type>  (63) 
oracle

>  <origin>  (63) 
adg

>  <m_score__min__energy>  (63) 
-8.8599999999999994

>  <m_primary>  (63) 
energy

$$$$
63:0
     RDKit          3D

 43 45  0  0  0  0  0  0  0  0999 V2000
    0.8200   24.2810  -24.4580 N   0  0  0  0  0  0  0  0  0  0  0  0
    0.0870   23.0580  -24.5290 C   0  0  0  0  0  0  0  0  0  0  0  0
    0.0250   22.3150  -23.5130 O   0  0  0  0  0  0  0  0  0  0  0  0
   -0.6540   22.6810  -25.7490 C   0  0  0  0  0  0  0  0  0  0  0  0
   -1.1500   21.4010  -25.9770 C   0  0  0  0  0  0  0  0  0  0  0  0
   -1.8270   21.4810  -27.1720 C   0  0  0  0  0  0  0  0  0  0  0  0
   -2.5120   20.4970  -27.8790 C   0  0  0  0  0  0  0  0  0  0  0  0
   -3.0940   20.8520  -29.1060 C   0  0  0  0  0  0  0  0  0  0  0  0
   -2.9700   22.1710  -29.6100 C   0  0  0  0  0  0  0  0  0  0  0  0
   -3.6180   22.5400  -30.9220 C   0  0  0  0  0  0  0  0  0  0  0  0
   -4.9770   23.2670  -30.7200 C   0  0  1  0  0  0  0  0  0  0  0  0
   -4.7370   24.7550  -30.8130 C   0  0  0  0  0  0  0  0  0  0  0  0
   -5.6670   25.5250  -31.1740 O   0  0  0  0  0  0  0  0  0  0  0  0
   -3.4990   25.2860  -30.4730 O   0  0  0  0  0  0  0  0  0  0  0  0
   -5.9960   22.8620  -31.7310 N   0  0  0  0  0  0  0  0  0  0  0  0
   -5.8840   21.4370  -32.1270 C   0  0  0  0  0  0  0  0  0  0  0  0
   -7.1880   20.9340  -32.7720 C   0  0  0  0  0  0  0  0  0  0  0  0
   -8.3180   20.9990  -31.9150 O   0  0  0  0  0  0  0  0  0  0  0  0
   -8.1940   21.9670  -30.8840 C   0  0  0  0  0  0  0  0  0  0  0  0
   -7.3830   23.2060  -31.3050 C   0  0  0  0  0  0  0  0  0  0  0  0
   -2.2690   23.1440  -28.8630 C   0  0  0  0  0  0  0  0  0  0  0  0
   -1.7180   22.7690  -27.6320 C   0  0  0  0  0  0  0  0  0  0  0  0
   -0.9960   23.5200  -26.7670 N   0  0  0  0  0  0  0  0  0  0  0  0
   -0.5720   24.8810  -26.9530 C   0  0  0  0  0  0  0  0  0  0  0  0
   -0.9970   25.7930  -26.1960 O   0  0  0  0  0  0  0  0  0  0  0  0
    0.3110   25.2070  -27.9760 O   0  0  0  0  0  0  0  0  0  0  0  0
    1.3680   24.5130  -23.6000 H   0  0  0  0  0  0  0  0  0  0  0  0
    0.7570   24.9920  -25.2190 H   0  0  0  0  0  0  0  0  0  0  0  0
   -1.0270   20.5142  -25.3379 H   0  0  0  0  0  0  0  0  0  0  0  0
   -2.5948   19.4722  -27.4880 H   0  0  0  0  0  0  0  0  0  0  0  0
   -3.6519   20.0991  -29.6822 H   0  0  0  0  0  0  0  0  0  0  0  0
   -2.9399   23.2041  -31.4779 H   0  0  0  0  0  0  0  0  0  0  0  0
   -3.8109   21.6103  -31.4773 H   0  0  0  0  0  0  0  0  0  0  0  0
   -5.3743   22.9876  -29.7331 H   0  0  0  0  0  0  0  0  0  0  0  0
   -5.0615   21.3290  -32.8494 H   0  0  0  0  0  0  0  0  0  0  0  0
   -5.6888   20.8391  -31.2245 H   0  0  0  0  0  0  0  0  0  0  0  0
   -7.3929   21.5473  -33.6618 H   0  0  0  0  0  0  0  0  0  0  0  0
   -7.0339   19.8725  -33.0159 H   0  0  0  0  0  0  0  0  0  0  0  0
   -9.2021   22.2936  -30.5889 H   0  0  0  0  0  0  0  0  0  0  0  0
   -7.6524   21.4904  -30.0536 H   0  0  0  0  0  0  0  0  0  0  0  0
   -7.8983   23.6968  -32.1438 H   0  0  0  0  0  0  0  0  0  0  0  0
   -7.3096   23.8705  -30.4315 H   0  0  0  0  0  0  0  0  0  0  0  0
   -2.1588   24.1716  -29.2397 H   0  0  0  0  0  0  0  0  0  0  0  0
  1  2  1  0
  2  3  2  0
  2  4  1  0
  4  5  2  0
  5  6  1  0
  6  7  2  0
  7  8  1  0
  8  9  2  0
  9 10  1  0
 10 11  1  0
 11 12  1  0
 12 13  2  0
 12 14  1  0
 11 15  1  0
 15 16  1  0
 16 17  1  0
 17 18  1  0
 18 19  1  0
 19 20  1  0
  9 21  1  0
 21 22  2  0
 22 23  1  0
 23 24  1  0
 24 25  2  0
 24 26  1  0
 23  4  1  0
 22  6  1  0
 20 15  1  0
  1 27  1  0
  1 28  1  0
  5 29  1  0
  7 30  1  0
  8 31  1  0
 10 32  1  0
 10 33  1  0
 11 34  1  1
 16 35  1  0
 16 36  1  0
 17 37  1  0
 17 38  1  0
 19 39  1  0
 19 40  1  0
 20 41  1  0
 20 42  1  0
 21 43  1  0
M  CHG  2  14  -1  26  -1
M  END
>  <UniqueID>  (64) 
64

>  <SMILES>  (64) 
NC(=O)c1cc2ccc(C[C@@H](C(=O)[O-])N3CCOCC3)cc2n1C(=O)[O-]

>  <Energy>  (64) 
101.25961157694239

>  <Genealogy>  (64) 
NC(=O)c1cc2ccc(C[C@@H](C(=O)[O-])N3CCOCC3)cc2n1C(=O)[O-] (protonated)
NC(=O)c1cc2ccc(C[C@@H](C(=O)[O-])N3CCOCC3)cc2n1C(=O)[O-] (3D coordinates assigned)
NC(=O)c1cc2ccc(C[C@@H](C(=O)[O-])N3CCOCC3)cc2n1C(=O)[O-] (nonaromatic ring conformer: 101.25961157694239 kcal/mol)

>  <smiles>  (64) 
NC(=O)c1cc2ccc(C[C@@H](C(=O)O)N3CCOCC3)cc2n1C(=O)O

>  <score_type>  (64) 
oracle

>  <origin>  (64) 
adg

>  <m_score__min__energy>  (64) 
-10.529999999999999

>  <m_primary>  (64) 
energy

$$$$
64:0
     RDKit          3D

 28 29  0  0  0  0  0  0  0  0999 V2000
   -7.8720   20.0530  -32.7000 C   0  0  0  0  0  0  0  0  0  0  0  0
   -6.5830   19.8010  -32.4510 C   0  0  0  0  0  0  0  0  0  0  0  0
   -5.4920   20.3000  -33.3560 C   0  0  0  0  0  0  0  0  0  0  0  0
   -4.3000   20.7520  -32.5560 C   0  0  0  0  0  0  0  0  0  0  0  0
   -3.1330   19.9480  -32.5090 C   0  0  0  0  0  0  0  0  0  0  0  0
   -2.0070   20.3650  -31.7810 C   0  0  0  0  0  0  0  0  0  0  0  0
   -2.0700   21.5910  -31.1270 C   0  0  0  0  0  0  0  0  0  0  0  0
   -1.1360   22.2230  -30.3390 C   0  0  0  0  0  0  0  0  0  0  0  0
   -1.7320   23.4180  -29.9440 C   0  0  0  0  0  0  0  0  0  0  0  0
   -1.0320   24.4500  -29.1520 C   0  0  0  0  0  0  0  0  0  0  0  0
   -1.6030   25.7430  -28.9630 N   0  0  0  0  0  0  0  0  0  0  0  0
    0.1080   24.2040  -28.6750 O   0  0  0  0  0  0  0  0  0  0  0  0
   -2.9890   23.5200  -30.4610 N   0  0  0  0  0  0  0  0  0  0  0  0
   -3.9600   24.5500  -30.2130 C   0  0  0  0  0  0  0  0  0  0  0  0
   -3.8670   25.6650  -30.7920 O   0  0  0  0  0  0  0  0  0  0  0  0
   -5.0260   24.3180  -29.3530 O   0  0  0  0  0  0  0  0  0  0  0  0
   -3.1810   22.3940  -31.1840 C   0  0  0  0  0  0  0  0  0  0  0  0
   -4.3240   21.9950  -31.8860 C   0  0  0  0  0  0  0  0  0  0  0  0
   -8.6481   19.6741  -32.0187 H   0  0  0  0  0  0  0  0  0  0  0  0
   -8.1566   20.6393  -33.5862 H   0  0  0  0  0  0  0  0  0  0  0  0
   -6.3140   19.2133  -31.5609 H   0  0  0  0  0  0  0  0  0  0  0  0
   -5.1856   19.4889  -34.0329 H   0  0  0  0  0  0  0  0  0  0  0  0
   -5.8750   21.1551  -33.9323 H   0  0  0  0  0  0  0  0  0  0  0  0
   -3.1095   18.9892  -33.0476 H   0  0  0  0  0  0  0  0  0  0  0  0
   -1.1025   19.7411  -31.7295 H   0  0  0  0  0  0  0  0  0  0  0  0
   -0.1310   21.8610  -30.0765 H   0  0  0  0  0  0  0  0  0  0  0  0
   -2.6370   25.8820  -28.9850 H   0  0  0  0  0  0  0  0  0  0  0  0
   -5.2190   22.6338  -31.9152 H   0  0  0  0  0  0  0  0  0  0  0  0
  1  2  2  0
  2  3  1  0
  3  4  1  0
  4  5  2  0
  5  6  1  0
  6  7  2  0
  7  8  1  0
  8  9  2  0
  9 10  1  0
 10 11  1  0
 10 12  2  0
  9 13  1  0
 13 14  1  0
 14 15  2  0
 14 16  1  0
 13 17  1  0
 17 18  2  0
 18  4  1  0
 17  7  1  0
  1 19  1  0
  1 20  1  0
  2 21  1  0
  3 22  1  0
  3 23  1  0
  5 24  1  0
  6 25  1  0
  8 26  1  0
 11 27  1  0
 18 28  1  0
M  CHG  2  11  -1  16  -1
M  END
>  <UniqueID>  (65) 
65

>  <SMILES>  (65) 
C=CCc1ccc2cc(C([NH-])=O)n(C(=O)[O-])c2c1

>  <Energy>  (65) 
64.89731380875448

>  <Genealogy>  (65) 
C=CCc1ccc2cc(C([NH-])=O)n(C(=O)[O-])c2c1 (protonated)
C=CCc1ccc2cc(C([NH-])=O)n(C(=O)[O-])c2c1 (3D coordinates assigned)
C=CCc1ccc2cc(C([NH-])=O)n(C(=O)[O-])c2c1 (optimized conformer: 64.89731380875448 kcal/mol)

>  <smiles>  (65) 
C=CCc1ccc2cc(C(N)=O)n(C(=O)O)c2c1

>  <score_type>  (65) 
oracle

>  <origin>  (65) 
adg

>  <m_score__min__energy>  (65) 
-10.4

>  <m_primary>  (65) 
energy

$$$$
65:0
     RDKit          3D

 63 64  0  0  0  0  0  0  0  0999 V2000
   -4.7920   22.7190  -32.7190 C   0  0  0  0  0  0  0  0  0  0  0  0
   -3.5200   22.2610  -31.9950 C   0  0  2  0  0  0  0  0  0  0  0  0
   -3.6000   20.8470  -31.6170 N   0  0  0  0  0  0  0  0  0  0  0  0
   -3.2610   23.1130  -30.7900 C   0  0  0  0  0  0  0  0  0  0  0  0
   -2.5050   22.7020  -29.8670 O   0  0  0  0  0  0  0  0  0  0  0  0
   -3.9070   24.3480  -30.6860 O   0  0  0  0  0  0  0  0  0  0  0  0
   -4.6330   24.7640  -29.5310 C   0  0  0  0  0  0  0  0  0  0  0  0
   -6.1060   25.0100  -29.8710 C   0  0  0  0  0  0  0  0  0  0  0  0
   -6.5280   24.1970  -30.9650 O   0  0  0  0  0  0  0  0  0  0  0  0
   -7.3150   23.0470  -30.8200 C   0  0  0  0  0  0  0  0  0  0  0  0
   -7.3450   22.4250  -29.7220 O   0  0  0  0  0  0  0  0  0  0  0  0
   -8.1820   22.5800  -31.9480 C   0  0  0  0  0  0  0  0  0  0  0  0
   -8.0550   21.0940  -32.1710 C   0  0  0  0  0  0  0  0  0  0  0  0
   -9.1930   20.2600  -32.0580 C   0  0  0  0  0  0  0  0  0  0  0  0
   -9.0880   18.8760  -32.2630 C   0  0  0  0  0  0  0  0  0  0  0  0
   -7.8380   18.3560  -32.5800 C   0  0  0  0  0  0  0  0  0  0  0  0
   -7.4710   17.0560  -32.8300 C   0  0  0  0  0  0  0  0  0  0  0  0
   -6.1070   17.1050  -33.0890 C   0  0  0  0  0  0  0  0  0  0  0  0
   -5.2950   15.8990  -33.3330 C   0  0  0  0  0  0  0  0  0  0  0  0
   -4.0250   15.7300  -32.7010 N   0  0  0  0  0  0  0  0  0  0  0  0
   -5.7520   14.9780  -34.0610 O   0  0  0  0  0  0  0  0  0  0  0  0
   -5.6400   18.3860  -33.0310 N   0  0  0  0  0  0  0  0  0  0  0  0
   -4.3240   18.8470  -33.4020 C   0  0  0  0  0  0  0  0  0  0  0  0
   -4.1940   19.8070  -34.2110 O   0  0  0  0  0  0  0  0  0  0  0  0
   -3.1900   18.2790  -32.8190 O   0  0  0  0  0  0  0  0  0  0  0  0
   -2.0820   17.7990  -33.5700 C   0  0  0  0  0  0  0  0  0  0  0  0
   -1.5890   18.9010  -34.4950 C   0  0  0  0  0  0  0  0  0  0  0  0
   -1.6480   20.1540  -33.8200 O   0  0  0  0  0  0  0  0  0  0  0  0
   -0.5150   20.7880  -33.3050 C   0  0  0  0  0  0  0  0  0  0  0  0
    0.1680   21.5670  -34.0260 O   0  0  0  0  0  0  0  0  0  0  0  0
   -0.0910   20.5230  -31.8860 C   0  0  2  0  0  0  0  0  0  0  0  0
    1.0380   19.4920  -31.8530 C   0  0  0  0  0  0  0  0  0  0  0  0
   -1.2220   20.0570  -31.0780 N   0  0  0  0  0  0  0  0  0  0  0  0
   -6.7190   19.1450  -32.7040 C   0  0  0  0  0  0  0  0  0  0  0  0
   -6.8050   20.5350  -32.5210 C   0  0  0  0  0  0  0  0  0  0  0  0
   -5.5568   22.9944  -31.9779 H   0  0  0  0  0  0  0  0  0  0  0  0
   -4.5615   23.5906  -33.3492 H   0  0  0  0  0  0  0  0  0  0  0  0
   -5.1701   21.9005  -33.3492 H   0  0  0  0  0  0  0  0  0  0  0  0
   -2.6781   22.3763  -32.6935 H   0  0  0  0  0  0  0  0  0  0  0  0
   -3.1620   20.7330  -30.6740 H   0  0  0  0  0  0  0  0  0  0  0  0
   -3.0380   20.2730  -32.2880 H   0  0  0  0  0  0  0  0  0  0  0  0
   -4.5668   23.9800  -28.7622 H   0  0  0  0  0  0  0  0  0  0  0  0
   -4.1961   25.7031  -29.1605 H   0  0  0  0  0  0  0  0  0  0  0  0
   -6.7214   24.7735  -28.9905 H   0  0  0  0  0  0  0  0  0  0  0  0
   -6.2249   26.0656  -30.1566 H   0  0  0  0  0  0  0  0  0  0  0  0
   -9.2303   22.8170  -31.7136 H   0  0  0  0  0  0  0  0  0  0  0  0
   -7.8574   23.0933  -32.8651 H   0  0  0  0  0  0  0  0  0  0  0  0
  -10.1690   20.7011  -31.8071 H   0  0  0  0  0  0  0  0  0  0  0  0
   -9.9681   18.2220  -32.1756 H   0  0  0  0  0  0  0  0  0  0  0  0
   -8.1185   16.1667  -32.8260 H   0  0  0  0  0  0  0  0  0  0  0  0
   -3.6800   16.4210  -31.9980 H   0  0  0  0  0  0  0  0  0  0  0  0
   -3.4500   14.8810  -32.8970 H   0  0  0  0  0  0  0  0  0  0  0  0
   -1.2732   17.5045  -32.8850 H   0  0  0  0  0  0  0  0  0  0  0  0
   -2.3896   16.9269  -34.1657 H   0  0  0  0  0  0  0  0  0  0  0  0
   -0.5501   18.6931  -34.7907 H   0  0  0  0  0  0  0  0  0  0  0  0
   -2.2265   18.9384  -35.3906 H   0  0  0  0  0  0  0  0  0  0  0  0
    0.2739   21.4679  -31.4570 H   0  0  0  0  0  0  0  0  0  0  0  0
    1.2922   19.2599  -30.8082 H   0  0  0  0  0  0  0  0  0  0  0  0
    0.7113   18.5740  -32.3635 H   0  0  0  0  0  0  0  0  0  0  0  0
    1.9226   19.9005  -32.3635 H   0  0  0  0  0  0  0  0  0  0  0  0
   -1.7010   20.8890  -30.6620 H   0  0  0  0  0  0  0  0  0  0  0  0
   -1.9170   19.5710  -31.6920 H   0  0  0  0  0  0  0  0  0  0  0  0
   -5.9189   21.1744  -32.6473 H   0  0  0  0  0  0  0  0  0  0  0  0
  1  2  1  0
  2  3  1  0
  2  4  1  0
  4  5  2  0
  4  6  1  0
  6  7  1  0
  7  8  1  0
  8  9  1  0
  9 10  1  0
 10 11  2  0
 10 12  1  0
 12 13  1  0
 13 14  2  0
 14 15  1  0
 15 16  2  0
 16 17  1  0
 17 18  2  0
 18 19  1  0
 19 20  1  0
 19 21  2  0
 18 22  1  0
 22 23  1  0
 23 24  2  0
 23 25  1  0
 25 26  1  0
 26 27  1  0
 27 28  1  0
 28 29  1  0
 29 30  2  0
 29 31  1  0
 31 32  1  0
 31 33  1  0
 22 34  1  0
 34 35  2  0
 35 13  1  0
 34 16  1  0
  1 36  1  0
  1 37  1  0
  1 38  1  0
  2 39  1  6
  3 40  1  0
  3 41  1  0
  7 42  1  0
  7 43  1  0
  8 44  1  0
  8 45  1  0
 12 46  1  0
 12 47  1  0
 14 48  1  0
 15 49  1  0
 17 50  1  0
 20 51  1  0
 20 52  1  0
 26 53  1  0
 26 54  1  0
 27 55  1  0
 27 56  1  0
 31 57  1  1
 32 58  1  0
 32 59  1  0
 32 60  1  0
 33 61  1  0
 33 62  1  0
 35 63  1  0
M  END
>  <UniqueID>  (66) 
66

>  <SMILES>  (66) 
C[C@H](N)C(=O)OCCOC(=O)Cc1ccc2cc(C(N)=O)n(C(=O)OCCOC(=O)[C@H](C)N)c2c1

>  <Energy>  (66) 
77.22917011515325

>  <Genealogy>  (66) 
C[C@H](N)C(=O)OCCOC(=O)Cc1ccc2cc(C(N)=O)n(C(=O)OCCOC(=O)[C@H](C)N)c2c1 (chirality)
C[C@H](N)C(=O)OCCOC(=O)Cc1ccc2cc(C(N)=O)n(C(=O)OCCOC(=O)[C@H](C)N)c2c1 (3D coordinates assigned)
C[C@H](N)C(=O)OCCOC(=O)Cc1ccc2cc(C(N)=O)n(C(=O)OCCOC(=O)[C@H](C)N)c2c1 (optimized conformer: 77.22917011515325 kcal/mol)

>  <smiles>  (66) 
CC(N)C(=O)OCCOC(=O)Cc1ccc2cc(C(N)=O)n(C(=O)OCCOC(=O)C(C)N)c2c1

>  <score_type>  (66) 
oracle

>  <origin>  (66) 
adg

>  <m_score__min__energy>  (66) 
-8.2599999999999998

>  <m_primary>  (66) 
energy

$$$$
66:0
     RDKit          3D

 45 46  0  0  0  0  0  0  0  0999 V2000
   -3.1570   18.1850  -33.7340 C   0  0  0  0  0  0  0  0  0  0  0  0
   -4.3500   17.6210  -34.2680 O   0  0  0  0  0  0  0  0  0  0  0  0
   -5.5940   18.2510  -34.1620 C   0  0  0  0  0  0  0  0  0  0  0  0
   -6.1180   18.8030  -35.1710 O   0  0  0  0  0  0  0  0  0  0  0  0
   -6.2960   18.2790  -32.8330 C   0  0  2  0  0  0  0  0  0  0  0  0
   -7.5650   17.4170  -32.8530 C   0  0  0  0  0  0  0  0  0  0  0  0
   -6.5870   19.7060  -32.4090 C   0  0  0  0  0  0  0  0  0  0  0  0
   -7.8900   20.2610  -32.5440 C   0  0  0  0  0  0  0  0  0  0  0  0
   -8.1530   21.5860  -32.1580 C   0  0  0  0  0  0  0  0  0  0  0  0
   -7.0990   22.3380  -31.6510 C   0  0  0  0  0  0  0  0  0  0  0  0
   -7.0730   23.6430  -31.2130 C   0  0  0  0  0  0  0  0  0  0  0  0
   -5.7510   23.8800  -30.8380 C   0  0  0  0  0  0  0  0  0  0  0  0
   -5.2480   25.2070  -30.4270 C   0  0  0  0  0  0  0  0  0  0  0  0
   -3.9660   25.6690  -30.8460 N   0  0  0  0  0  0  0  0  0  0  0  0
   -5.9820   25.9680  -29.7380 O   0  0  0  0  0  0  0  0  0  0  0  0
   -4.9960   22.7570  -31.0150 N   0  0  0  0  0  0  0  0  0  0  0  0
   -3.6030   22.5680  -30.7170 C   0  0  0  0  0  0  0  0  0  0  0  0
   -2.7500   23.3450  -31.2270 O   0  0  0  0  0  0  0  0  0  0  0  0
   -3.1490   21.4310  -29.8340 C   0  0  0  0  0  0  0  0  0  0  0  0
   -2.8580   21.8400  -28.3720 C   0  0  0  0  0  0  0  0  0  0  0  0
   -2.7170   20.6270  -27.4410 C   0  0  0  0  0  0  0  0  0  0  0  0
   -3.8930   22.8350  -27.8270 C   0  0  0  0  0  0  0  0  0  0  0  0
   -5.8330   21.8280  -31.5260 C   0  0  0  0  0  0  0  0  0  0  0  0
   -5.5420   20.5110  -31.8940 C   0  0  0  0  0  0  0  0  0  0  0  0
   -3.2014   18.1640  -32.6351 H   0  0  0  0  0  0  0  0  0  0  0  0
   -2.2900   17.6014  -34.0771 H   0  0  0  0  0  0  0  0  0  0  0  0
   -3.0577   19.2254  -34.0771 H   0  0  0  0  0  0  0  0  0  0  0  0
   -5.6238   17.8402  -32.0809 H   0  0  0  0  0  0  0  0  0  0  0  0
   -7.8795   17.2034  -31.8208 H   0  0  0  0  0  0  0  0  0  0  0  0
   -8.3674   17.9577  -33.3763 H   0  0  0  0  0  0  0  0  0  0  0  0
   -7.3580   16.4718  -33.3763 H   0  0  0  0  0  0  0  0  0  0  0  0
   -8.7024   19.6444  -32.9561 H   0  0  0  0  0  0  0  0  0  0  0  0
   -9.1613   22.0152  -32.2539 H   0  0  0  0  0  0  0  0  0  0  0  0
   -7.9157   24.3485  -31.1684 H   0  0  0  0  0  0  0  0  0  0  0  0
   -3.0940   25.2970  -30.4080 H   0  0  0  0  0  0  0  0  0  0  0  0
   -3.9374   20.6639  -29.8270 H   0  0  0  0  0  0  0  0  0  0  0  0
   -2.2007   21.0645  -30.2539 H   0  0  0  0  0  0  0  0  0  0  0  0
   -1.8853   22.3533  -28.3914 H   0  0  0  0  0  0  0  0  0  0  0  0
   -2.7559   20.9619  -26.3940 H   0  0  0  0  0  0  0  0  0  0  0  0
   -3.5392   19.9214  -27.6311 H   0  0  0  0  0  0  0  0  0  0  0  0
   -1.7549   20.1288  -27.6311 H   0  0  0  0  0  0  0  0  0  0  0  0
   -3.8748   22.8175  -26.7273 H   0  0  0  0  0  0  0  0  0  0  0  0
   -3.6503   23.8476  -28.1817 H   0  0  0  0  0  0  0  0  0  0  0  0
   -4.8952   22.5526  -28.1817 H   0  0  0  0  0  0  0  0  0  0  0  0
   -4.5238   20.1090  -31.7859 H   0  0  0  0  0  0  0  0  0  0  0  0
  1  2  1  0
  2  3  1  0
  3  4  2  0
  3  5  1  0
  5  6  1  0
  5  7  1  0
  7  8  2  0
  8  9  1  0
  9 10  2  0
 10 11  1  0
 11 12  2  0
 12 13  1  0
 13 14  1  0
 13 15  2  0
 12 16  1  0
 16 17  1  0
 17 18  2  0
 17 19  1  0
 19 20  1  0
 20 21  1  0
 20 22  1  0
 16 23  1  0
 23 24  2  0
 24  7  1  0
 23 10  1  0
  1 25  1  0
  1 26  1  0
  1 27  1  0
  5 28  1  1
  6 29  1  0
  6 30  1  0
  6 31  1  0
  8 32  1  0
  9 33  1  0
 11 34  1  0
 14 35  1  0
 19 36  1  0
 19 37  1  0
 20 38  1  0
 21 39  1  0
 21 40  1  0
 21 41  1  0
 22 42  1  0
 22 43  1  0
 22 44  1  0
 24 45  1  0
M  CHG  1  14  -1
M  END
>  <UniqueID>  (67) 
67

>  <SMILES>  (67) 
COC(=O)[C@H](C)c1ccc2cc(C([NH-])=O)n(C(=O)CC(C)C)c2c1

>  <Energy>  (67) 
75.18351897092545

>  <Genealogy>  (67) 
COC(=O)C(C)c1ccc2cc(C([NH-])=O)n(C(=O)CC(C)C)c2c1 (protonated)
COC(=O)[C@H](C)c1ccc2cc(C([NH-])=O)n(C(=O)CC(C)C)c2c1 (chirality)
COC(=O)[C@H](C)c1ccc2cc(C([NH-])=O)n(C(=O)CC(C)C)c2c1 (3D coordinates assigned)
COC(=O)[C@H](C)c1ccc2cc(C([NH-])=O)n(C(=O)CC(C)C)c2c1 (optimized conformer: 75.18351897092545 kcal/mol)

>  <smiles>  (67) 
COC(=O)C(C)c1ccc2cc(C(N)=O)n(C(=O)CC(C)C)c2c1

>  <score_type>  (67) 
oracle

>  <origin>  (67) 
adg

>  <m_score__min__energy>  (67) 
-10.57

>  <m_primary>  (67) 
energy

$$$$
67:0
     RDKit          3D

 64 68  0  0  0  0  0  0  0  0999 V2000
   -3.8470   25.2220  -30.3800 N   0  0  0  0  0  0  0  0  0  0  0  0
   -4.0000   24.3670  -29.2500 C   0  0  0  0  0  0  0  0  0  0  0  0
   -4.9710   24.5440  -28.4670 O   0  0  0  0  0  0  0  0  0  0  0  0
   -3.0490   23.2560  -29.0350 C   0  0  0  0  0  0  0  0  0  0  0  0
   -3.4400   21.9220  -28.9400 C   0  0  0  0  0  0  0  0  0  0  0  0
   -2.2890   21.2240  -28.6520 C   0  0  0  0  0  0  0  0  0  0  0  0
   -2.0960   19.8600  -28.4540 C   0  0  0  0  0  0  0  0  0  0  0  0
   -0.7920   19.4110  -28.1890 C   0  0  0  0  0  0  0  0  0  0  0  0
    0.2910   20.3260  -28.1400 C   0  0  0  0  0  0  0  0  0  0  0  0
    1.6900   19.8390  -27.8560 C   0  0  0  0  0  0  0  0  0  0  0  0
    1.8270   18.3480  -28.0510 C   0  0  0  0  0  0  0  0  0  0  0  0
    1.6130   17.5610  -27.0920 O   0  0  0  0  0  0  0  0  0  0  0  0
    2.1320   17.7920  -29.3360 N   0  0  0  0  0  0  0  0  0  0  0  0
    1.1280   17.3770  -30.3110 C   0  0  0  0  0  0  0  0  0  0  0  0
    1.7280   16.3570  -31.2780 C   0  0  0  0  0  0  0  0  0  0  0  0
    0.8300   16.0600  -32.3440 O   0  0  0  0  0  0  0  0  0  0  0  0
    0.1610   17.0350  -33.0940 C   0  0  0  0  0  0  0  0  0  0  0  0
    0.5720   17.3520  -34.2410 O   0  0  0  0  0  0  0  0  0  0  0  0
   -1.0360   17.6390  -32.5930 N   0  0  0  0  0  0  0  0  0  0  0  0
   -1.2270   19.0380  -32.3360 C   0  0  0  0  0  0  0  0  0  0  0  0
   -0.2100   19.8580  -31.7930 C   0  0  0  0  0  0  0  0  0  0  0  0
   -0.4390   21.2340  -31.5740 C   0  0  0  0  0  0  0  0  0  0  0  0
   -1.6760   21.8150  -31.9030 C   0  0  0  0  0  0  0  0  0  0  0  0
   -2.6560   20.9960  -32.4580 C   0  0  0  0  0  0  0  0  0  0  0  0
   -2.4360   19.6530  -32.6810 C   0  0  0  0  0  0  0  0  0  0  0  0
   -3.6530   19.1060  -33.2800 C   0  0  0  0  0  0  0  0  0  0  0  0
   -3.8250   17.9030  -33.6070 O   0  0  0  0  0  0  0  0  0  0  0  0
   -4.6360   20.1410  -33.4390 N   0  0  0  0  0  0  0  0  0  0  0  0
   -6.0420   20.0290  -33.8430 C   0  0  2  0  0  0  0  0  0  0  0  0
   -6.9590   20.8380  -32.9020 C   0  0  0  0  0  0  0  0  0  0  0  0
   -7.1870   20.1530  -31.5500 C   0  0  0  0  0  0  0  0  0  0  0  0
   -7.6510   18.7370  -31.7370 C   0  0  0  0  0  0  0  0  0  0  0  0
   -8.3660   18.1930  -30.8550 O   0  0  0  0  0  0  0  0  0  0  0  0
   -7.2440   17.9860  -32.8850 N   0  0  0  0  0  0  0  0  0  0  0  0
   -6.4670   18.5850  -33.9280 C   0  0  0  0  0  0  0  0  0  0  0  0
   -6.0950   17.8850  -34.9060 O   0  0  0  0  0  0  0  0  0  0  0  0
   -4.0030   21.3130  -32.9160 C   0  0  0  0  0  0  0  0  0  0  0  0
   -4.5380   22.4520  -32.8840 O   0  0  0  0  0  0  0  0  0  0  0  0
    0.0550   21.7050  -28.3440 C   0  0  0  0  0  0  0  0  0  0  0  0
   -1.2580   22.1270  -28.5850 C   0  0  0  0  0  0  0  0  0  0  0  0
   -1.7080   23.3780  -28.8220 N   0  0  0  0  0  0  0  0  0  0  0  0
   -0.9120   24.5750  -28.8830 C   0  0  0  0  0  0  0  0  0  0  0  0
   -1.4150   25.6520  -29.2970 O   0  0  0  0  0  0  0  0  0  0  0  0
    0.4350   24.5390  -28.5390 O   0  0  0  0  0  0  0  0  0  0  0  0
   -2.9160   25.3490  -30.8370 H   0  0  0  0  0  0  0  0  0  0  0  0
   -4.4532   21.5134  -29.0680 H   0  0  0  0  0  0  0  0  0  0  0  0
   -2.9391   19.1552  -28.5036 H   0  0  0  0  0  0  0  0  0  0  0  0
   -0.6087   18.3400  -28.0179 H   0  0  0  0  0  0  0  0  0  0  0  0
    2.3876   20.3504  -28.5355 H   0  0  0  0  0  0  0  0  0  0  0  0
    1.9180   20.0637  -26.8036 H   0  0  0  0  0  0  0  0  0  0  0  0
    0.2755   16.9225  -29.7850 H   0  0  0  0  0  0  0  0  0  0  0  0
    0.7905   18.2569  -30.8783 H   0  0  0  0  0  0  0  0  0  0  0  0
    2.6588   16.7663  -31.6977 H   0  0  0  0  0  0  0  0  0  0  0  0
    1.9253   15.4281  -30.7228 H   0  0  0  0  0  0  0  0  0  0  0  0
    0.7668   19.4202  -31.5394 H   0  0  0  0  0  0  0  0  0  0  0  0
    0.3580   21.8570  -31.1419 H   0  0  0  0  0  0  0  0  0  0  0  0
   -1.8642   22.8844  -31.7273 H   0  0  0  0  0  0  0  0  0  0  0  0
   -6.1417   20.4625  -34.8490 H   0  0  0  0  0  0  0  0  0  0  0  0
   -6.4980   21.8206  -32.7234 H   0  0  0  0  0  0  0  0  0  0  0  0
   -7.9386   20.9263  -33.3945 H   0  0  0  0  0  0  0  0  0  0  0  0
   -6.2438   20.1509  -30.9839 H   0  0  0  0  0  0  0  0  0  0  0  0
   -7.9633   20.7073  -31.0022 H   0  0  0  0  0  0  0  0  0  0  0  0
   -7.5420   16.9870  -32.9750 H   0  0  0  0  0  0  0  0  0  0  0  0
    0.8828   22.4287  -28.3141 H   0  0  0  0  0  0  0  0  0  0  0  0
  1  2  1  0
  2  3  2  0
  2  4  1  0
  4  5  2  0
  5  6  1  0
  6  7  2  0
  7  8  1  0
  8  9  2  0
  9 10  1  0
 10 11  1  0
 11 12  2  0
 11 13  1  0
 13 14  1  0
 14 15  1  0
 15 16  1  0
 16 17  1  0
 17 18  2  0
 17 19  1  0
 19 20  1  0
 20 21  2  0
 21 22  1  0
 22 23  2  0
 23 24  1  0
 24 25  2  0
 25 26  1  0
 26 27  2  0
 26 28  1  0
 28 29  1  0
 29 30  1  0
 30 31  1  0
 31 32  1  0
 32 33  2  0
 32 34  1  0
 34 35  1  0
 35 36  2  0
 28 37  1  0
 37 38  2  0
  9 39  1  0
 39 40  2  0
 40 41  1  0
 41 42  1  0
 42 43  2  0
 42 44  1  0
 41  4  1  0
 40  6  1  0
 25 20  1  0
 35 29  1  0
 37 24  1  0
  1 45  1  0
  5 46  1  0
  7 47  1  0
  8 48  1  0
 10 49  1  0
 10 50  1  0
 14 51  1  0
 14 52  1  0
 15 53  1  0
 15 54  1  0
 21 55  1  0
 22 56  1  0
 23 57  1  0
 29 58  1  6
 30 59  1  0
 30 60  1  0
 31 61  1  0
 31 62  1  0
 34 63  1  0
 39 64  1  0
M  CHG  4   1  -1  13  -1  19  -1  44  -1
M  END
>  <UniqueID>  (68) 
68

>  <SMILES>  (68) 
[NH-]C(=O)c1cc2ccc(CC(=O)[N-]CCOC(=O)[N-]c3cccc4c3C(=O)N([C@@H]3CCC(=O)NC3=O)C4=O)cc2n1C(=O)[O-]

>  <Energy>  (68) 
135.7242896933252

>  <Genealogy>  (68) 
[NH-]C(=O)c1cc2ccc(CC(=O)[N-]CCOC(=O)[N-]c3cccc4c3C(=O)N(C3CCC(=O)NC3=O)C4=O)cc2n1C(=O)[O-] (protonated)
[NH-]C(=O)c1cc2ccc(CC(=O)[N-]CCOC(=O)[N-]c3cccc4c3C(=O)N([C@@H]3CCC(=O)NC3=O)C4=O)cc2n1C(=O)[O-] (chirality)
[NH-]C(=O)c1cc2ccc(CC(=O)[N-]CCOC(=O)[N-]c3cccc4c3C(=O)N([C@@H]3CCC(=O)NC3=O)C4=O)cc2n1C(=O)[O-] (3D coordinates assigned)
[NH-]C(=O)c1cc2ccc(CC(=O)[N-]CCOC(=O)[N-]c3cccc4c3C(=O)N([C@@H]3CCC(=O)NC3=O)C4=O)cc2n1C(=O)[O-] (nonaromatic ring conformer: 135.7242896933252 kcal/mol)

>  <smiles>  (68) 
NC(=O)c1cc2ccc(CC(=O)NCCOC(=O)Nc3cccc4c3C(=O)N(C3CCC(=O)NC3=O)C4=O)cc2n1C(=O)O

>  <score_type>  (68) 
oracle

>  <origin>  (68) 
adg

>  <m_score__min__energy>  (68) 
-13.42

>  <m_primary>  (68) 
energy

$$$$
68:0
     RDKit          3D

 32 33  0  0  0  0  0  0  0  0999 V2000
   -3.7610   18.5320  -33.8320 C   0  0  0  0  0  0  0  0  0  0  0  0
   -4.8900   17.6960  -33.7030 O   0  0  0  0  0  0  0  0  0  0  0  0
   -6.0570   18.3720  -34.1320 C   0  0  0  0  0  0  0  0  0  0  0  0
   -7.0970   18.3950  -33.0090 C   0  0  0  0  0  0  0  0  0  0  0  0
   -7.2770   19.7920  -32.4780 C   0  0  0  0  0  0  0  0  0  0  0  0
   -8.5710   20.3680  -32.4180 C   0  0  0  0  0  0  0  0  0  0  0  0
   -8.7460   21.6870  -31.9670 C   0  0  0  0  0  0  0  0  0  0  0  0
   -7.6130   22.4030  -31.5880 C   0  0  0  0  0  0  0  0  0  0  0  0
   -7.4920   23.7020  -31.1480 C   0  0  0  0  0  0  0  0  0  0  0  0
   -6.1300   23.8920  -30.9340 C   0  0  0  0  0  0  0  0  0  0  0  0
   -5.5610   25.1350  -30.3800 C   0  0  0  0  0  0  0  0  0  0  0  0
   -4.2370   25.5560  -30.7120 N   0  0  0  0  0  0  0  0  0  0  0  0
   -6.2340   25.8100  -29.5550 O   0  0  0  0  0  0  0  0  0  0  0  0
   -5.4320   22.7620  -31.2440 N   0  0  0  0  0  0  0  0  0  0  0  0
   -4.0070   22.5880  -31.2800 C   0  0  0  0  0  0  0  0  0  0  0  0
   -3.2920   23.0290  -30.3420 O   0  0  0  0  0  0  0  0  0  0  0  0
   -3.2220   21.6880  -32.6320 S   0  0  0  0  0  0  0  0  0  0  0  0
   -6.3560   21.8580  -31.6360 C   0  0  0  0  0  0  0  0  0  0  0  0
   -6.1500   20.5530  -32.0970 C   0  0  0  0  0  0  0  0  0  0  0  0
   -3.3913   18.8057  -32.8328 H   0  0  0  0  0  0  0  0  0  0  0  0
   -2.9712   17.9993  -34.3819 H   0  0  0  0  0  0  0  0  0  0  0  0
   -4.0401   19.4429  -34.3819 H   0  0  0  0  0  0  0  0  0  0  0  0
   -5.7979   19.4046  -34.4086 H   0  0  0  0  0  0  0  0  0  0  0  0
   -6.4783   17.8452  -35.0009 H   0  0  0  0  0  0  0  0  0  0  0  0
   -8.0585   18.0308  -33.4000 H   0  0  0  0  0  0  0  0  0  0  0  0
   -6.7477   17.7482  -32.1907 H   0  0  0  0  0  0  0  0  0  0  0  0
   -9.4457   19.7770  -32.7273 H   0  0  0  0  0  0  0  0  0  0  0  0
   -9.7469   22.1403  -31.9148 H   0  0  0  0  0  0  0  0  0  0  0  0
   -8.2996   24.4336  -30.9977 H   0  0  0  0  0  0  0  0  0  0  0  0
   -3.5980   24.9420  -31.2620 H   0  0  0  0  0  0  0  0  0  0  0  0
   -3.8650   26.4580  -30.3390 H   0  0  0  0  0  0  0  0  0  0  0  0
   -5.1363   20.1307  -32.1610 H   0  0  0  0  0  0  0  0  0  0  0  0
  1  2  1  0
  2  3  1  0
  3  4  1  0
  4  5  1  0
  5  6  2  0
  6  7  1  0
  7  8  2  0
  8  9  1  0
  9 10  2  0
 10 11  1  0
 11 12  1  0
 11 13  2  0
 10 14  1  0
 14 15  1  0
 15 16  2  0
 15 17  1  0
 14 18  1  0
 18 19  2  0
 19  5  1  0
 18  8  1  0
  1 20  1  0
  1 21  1  0
  1 22  1  0
  3 23  1  0
  3 24  1  0
  4 25  1  0
  4 26  1  0
  6 27  1  0
  7 28  1  0
  9 29  1  0
 12 30  1  0
 12 31  1  0
 19 32  1  0
M  CHG  1  17  -1
M  END
>  <UniqueID>  (69) 
69

>  <SMILES>  (69) 
COCCc1ccc2cc(C(N)=O)n(C(=O)[S-])c2c1

>  <Energy>  (69) 
72.30186646400477

>  <Genealogy>  (69) 
COCCc1ccc2cc(C(N)=O)n(C(=O)[S-])c2c1 (protonated)
COCCc1ccc2cc(C(N)=O)n(C(=O)[S-])c2c1 (3D coordinates assigned)
COCCc1ccc2cc(C(N)=O)n(C(=O)[S-])c2c1 (optimized conformer: 72.30186646400477 kcal/mol)

>  <smiles>  (69) 
COCCc1ccc2cc(C(N)=O)n(C(=O)S)c2c1

>  <score_type>  (69) 
oracle

>  <origin>  (69) 
adg

>  <m_score__min__energy>  (69) 
-8.2699999999999996

>  <m_primary>  (69) 
energy

$$$$
69:0
     RDKit          3D

 57 60  0  0  0  0  0  0  0  0999 V2000
    0.9500   19.4600  -35.2350 N   0  0  0  0  0  0  0  0  0  0  0  0
    1.6310   19.3630  -33.9790 C   0  0  0  0  0  0  0  0  0  0  0  0
    2.7860   18.8640  -33.9470 O   0  0  0  0  0  0  0  0  0  0  0  0
    0.9980   19.8410  -32.7320 C   0  0  0  0  0  0  0  0  0  0  0  0
    1.2900   19.3420  -31.4620 C   0  0  0  0  0  0  0  0  0  0  0  0
    0.5190   20.0840  -30.5940 C   0  0  0  0  0  0  0  0  0  0  0  0
    0.3530   19.9650  -29.2190 C   0  0  0  0  0  0  0  0  0  0  0  0
   -0.5790   20.8100  -28.5870 C   0  0  0  0  0  0  0  0  0  0  0  0
   -1.3220   21.7570  -29.3370 C   0  0  0  0  0  0  0  0  0  0  0  0
   -2.2590   22.6290  -28.6790 N   0  0  0  0  0  0  0  0  0  0  0  0
   -3.1540   22.1740  -27.6280 C   0  0  0  0  0  0  0  0  0  0  0  0
   -4.1760   23.2920  -27.4500 C   0  0  0  0  0  0  0  0  0  0  0  0
   -3.5620   24.5370  -28.0910 C   0  0  0  0  0  0  0  0  0  0  0  0
   -2.5010   24.0150  -29.0680 C   0  0  1  0  0  0  0  0  0  0  0  0
   -1.2230   24.8120  -29.0110 C   0  0  0  0  0  0  0  0  0  0  0  0
   -1.2290   26.0370  -29.3190 O   0  0  0  0  0  0  0  0  0  0  0  0
   -0.0140   24.1850  -28.7330 O   0  0  0  0  0  0  0  0  0  0  0  0
   -1.1270   21.8440  -30.7330 C   0  0  0  0  0  0  0  0  0  0  0  0
   -0.1930   20.9920  -31.3350 C   0  0  0  0  0  0  0  0  0  0  0  0
    0.0940   20.8570  -32.6490 N   0  0  0  0  0  0  0  0  0  0  0  0
   -0.5890   21.5010  -33.7380 C   0  0  0  0  0  0  0  0  0  0  0  0
    0.0720   22.0280  -34.6790 O   0  0  0  0  0  0  0  0  0  0  0  0
   -1.9860   21.5620  -33.7320 O   0  0  0  0  0  0  0  0  0  0  0  0
   -2.8150   20.5600  -33.1490 C   0  0  0  0  0  0  0  0  0  0  0  0
   -4.0920   21.1770  -32.5670 C   0  0  0  0  0  0  0  0  0  0  0  0
   -3.8850   22.6000  -32.0270 C   0  0  0  0  0  0  0  0  0  0  0  0
   -5.1050   23.1350  -31.4200 N   0  0  0  0  0  0  0  0  0  0  0  0
   -6.3090   22.3590  -31.1580 C   0  0  0  0  0  0  0  0  0  0  0  0
   -7.2380   23.2720  -30.3280 C   0  0  0  0  0  0  0  0  0  0  0  0
   -6.5390   24.6320  -30.1810 C   0  0  0  0  0  0  0  0  0  0  0  0
   -5.2390   24.4240  -30.8520 C   0  0  0  0  0  0  0  0  0  0  0  0
   -4.3430   25.3080  -30.9200 O   0  0  0  0  0  0  0  0  0  0  0  0
    1.3940   19.0950  -36.1030 H   0  0  0  0  0  0  0  0  0  0  0  0
    0.0330   19.9680  -35.3230 H   0  0  0  0  0  0  0  0  0  0  0  0
    1.9869   18.5297  -31.2081 H   0  0  0  0  0  0  0  0  0  0  0  0
    0.9336   19.2311  -28.6409 H   0  0  0  0  0  0  0  0  0  0  0  0
   -0.7325   20.7349  -27.5003 H   0  0  0  0  0  0  0  0  0  0  0  0
   -3.6536   21.2404  -27.9261 H   0  0  0  0  0  0  0  0  0  0  0  0
   -2.6125   21.9638  -26.6938 H   0  0  0  0  0  0  0  0  0  0  0  0
   -5.1190   23.0302  -27.9522 H   0  0  0  0  0  0  0  0  0  0  0  0
   -4.4055   23.4599  -26.3874 H   0  0  0  0  0  0  0  0  0  0  0  0
   -4.3307   25.1110  -28.6292 H   0  0  0  0  0  0  0  0  0  0  0  0
   -3.1268   25.2108  -27.3382 H   0  0  0  0  0  0  0  0  0  0  0  0
   -2.8559   24.1036  -30.1054 H   0  0  0  0  0  0  0  0  0  0  0  0
   -1.6973   22.5665  -31.3353 H   0  0  0  0  0  0  0  0  0  0  0  0
   -3.0892   19.8256  -33.9207 H   0  0  0  0  0  0  0  0  0  0  0  0
   -2.2578   20.0726  -32.3354 H   0  0  0  0  0  0  0  0  0  0  0  0
   -4.8557   21.2109  -33.3579 H   0  0  0  0  0  0  0  0  0  0  0  0
   -4.4021   20.5478  -31.7197 H   0  0  0  0  0  0  0  0  0  0  0  0
   -3.0890   22.5803  -31.2681 H   0  0  0  0  0  0  0  0  0  0  0  0
   -3.6108   23.2492  -32.8716 H   0  0  0  0  0  0  0  0  0  0  0  0
   -6.7955   22.0789  -32.1040 H   0  0  0  0  0  0  0  0  0  0  0  0
   -6.0767   21.4281  -30.6199 H   0  0  0  0  0  0  0  0  0  0  0  0
   -8.2003   23.3985  -30.8456 H   0  0  0  0  0  0  0  0  0  0  0  0
   -7.4347   22.8291  -29.3405 H   0  0  0  0  0  0  0  0  0  0  0  0
   -7.1155   25.4264  -30.6776 H   0  0  0  0  0  0  0  0  0  0  0  0
   -6.4350   24.9500  -29.1331 H   0  0  0  0  0  0  0  0  0  0  0  0
  1  2  1  0
  2  3  2  0
  2  4  1  0
  4  5  2  0
  5  6  1  0
  6  7  2  0
  7  8  1  0
  8  9  2  0
  9 10  1  0
 10 11  1  0
 11 12  1  0
 12 13  1  0
 13 14  1  0
 14 15  1  0
 15 16  2  0
 15 17  1  0
  9 18  1  0
 18 19  2  0
 19 20  1  0
 20 21  1  0
 21 22  2  0
 21 23  1  0
 23 24  1  0
 24 25  1  0
 25 26  1  0
 26 27  1  0
 27 28  1  0
 28 29  1  0
 29 30  1  0
 30 31  1  0
 31 32  2  0
 20  4  1  0
 31 27  1  0
 19  6  1  0
 14 10  1  0
  1 33  1  0
  1 34  1  0
  5 35  1  0
  7 36  1  0
  8 37  1  0
 11 38  1  0
 11 39  1  0
 12 40  1  0
 12 41  1  0
 13 42  1  0
 13 43  1  0
 14 44  1  6
 18 45  1  0
 24 46  1  0
 24 47  1  0
 25 48  1  0
 25 49  1  0
 26 50  1  0
 26 51  1  0
 28 52  1  0
 28 53  1  0
 29 54  1  0
 29 55  1  0
 30 56  1  0
 30 57  1  0
M  CHG  1  17  -1
M  END
>  <UniqueID>  (70) 
70

>  <SMILES>  (70) 
NC(=O)c1cc2ccc(N3CCC[C@H]3C(=O)[O-])cc2n1C(=O)OCCCN1CCCC1=O

>  <Energy>  (70) 
101.64306684426643

>  <Genealogy>  (70) 
NC(=O)c1cc2ccc(N3CCCC3C(=O)[O-])cc2n1C(=O)OCCCN1CCCC1=O (protonated)
NC(=O)c1cc2ccc(N3CCC[C@H]3C(=O)[O-])cc2n1C(=O)OCCCN1CCCC1=O (chirality)
NC(=O)c1cc2ccc(N3CCC[C@H]3C(=O)[O-])cc2n1C(=O)OCCCN1CCCC1=O (3D coordinates assigned)
NC(=O)c1cc2ccc(N3CCC[C@H]3C(=O)[O-])cc2n1C(=O)OCCCN1CCCC1=O (nonaromatic ring conformer: 101.64306684426643 kcal/mol)

>  <smiles>  (70) 
NC(=O)c1cc2ccc(N3CCCC3C(=O)O)cc2n1C(=O)OCCCN1CCCC1=O

>  <score_type>  (70) 
oracle

>  <origin>  (70) 
adg

>  <m_score__min__energy>  (70) 
-10.57

>  <m_primary>  (70) 
energy

$$$$
70:0
     RDKit          3D

 40 42  0  0  0  0  0  0  0  0999 V2000
   -2.3370   20.1400  -31.4100 C   0  0  0  0  0  0  0  0  0  0  0  0
   -2.3050   20.8580  -32.7720 C   0  0  0  0  0  0  0  0  0  0  0  0
   -2.9520   19.9490  -33.8280 C   0  0  0  0  0  0  0  0  0  0  0  0
   -0.8560   21.1590  -33.1950 C   0  0  0  0  0  0  0  0  0  0  0  0
   -3.0780   22.0650  -32.7250 O   0  0  0  0  0  0  0  0  0  0  0  0
   -3.6070   22.6710  -31.5750 C   0  0  0  0  0  0  0  0  0  0  0  0
   -2.8520   23.1080  -30.6660 O   0  0  0  0  0  0  0  0  0  0  0  0
   -5.0300   22.8190  -31.4520 N   0  0  0  0  0  0  0  0  0  0  0  0
   -5.7270   23.9050  -31.0120 C   0  0  0  0  0  0  0  0  0  0  0  0
   -5.1480   25.1260  -30.4140 C   0  0  0  0  0  0  0  0  0  0  0  0
   -3.8890   25.6310  -30.8530 N   0  0  0  0  0  0  0  0  0  0  0  0
   -5.7490   25.7050  -29.4710 O   0  0  0  0  0  0  0  0  0  0  0  0
   -7.0970   23.6810  -31.1220 C   0  0  0  0  0  0  0  0  0  0  0  0
   -7.2200   22.4110  -31.6380 C   0  0  0  0  0  0  0  0  0  0  0  0
   -8.3580   21.6810  -31.9600 C   0  0  0  0  0  0  0  0  0  0  0  0
   -8.1880   20.3980  -32.5050 C   0  0  0  0  0  0  0  0  0  0  0  0
   -6.8890   19.8660  -32.7290 C   0  0  0  0  0  0  0  0  0  0  0  0
   -6.7180   18.5130  -33.3150 C   0  0  0  0  0  0  0  0  0  0  0  0
   -7.1520   17.3030  -32.8060 C   0  0  0  0  0  0  0  0  0  0  0  0
   -6.7940   16.3160  -33.6480 N   0  0  0  0  0  0  0  0  0  0  0  0
   -6.1630   16.8710  -34.6430 O   0  0  0  0  0  0  0  0  0  0  0  0
   -6.0880   18.1720  -34.4980 C   0  0  0  0  0  0  0  0  0  0  0  0
   -5.7570   20.6450  -32.3890 C   0  0  0  0  0  0  0  0  0  0  0  0
   -5.9590   21.9120  -31.8280 C   0  0  0  0  0  0  0  0  0  0  0  0
   -2.3038   20.8854  -30.6017 H   0  0  0  0  0  0  0  0  0  0  0  0
   -3.2623   19.5509  -31.3277 H   0  0  0  0  0  0  0  0  0  0  0  0
   -1.4678   19.4709  -31.3277 H   0  0  0  0  0  0  0  0  0  0  0  0
   -3.5198   19.1513  -33.3268 H   0  0  0  0  0  0  0  0  0  0  0  0
   -3.6315   20.5433  -34.4567 H   0  0  0  0  0  0  0  0  0  0  0  0
   -2.1680   19.5016  -34.4567 H   0  0  0  0  0  0  0  0  0  0  0  0
   -0.2318   21.2887  -32.2986 H   0  0  0  0  0  0  0  0  0  0  0  0
   -0.4677   20.3223  -33.7943 H   0  0  0  0  0  0  0  0  0  0  0  0
   -0.8330   22.0811  -33.7943 H   0  0  0  0  0  0  0  0  0  0  0  0
   -2.9950   25.2530  -30.4690 H   0  0  0  0  0  0  0  0  0  0  0  0
   -7.9090   24.3727  -30.8533 H   0  0  0  0  0  0  0  0  0  0  0  0
   -9.3628   22.0962  -31.7928 H   0  0  0  0  0  0  0  0  0  0  0  0
   -9.0723   19.7964  -32.7621 H   0  0  0  0  0  0  0  0  0  0  0  0
   -7.7022   17.1684  -31.8631 H   0  0  0  0  0  0  0  0  0  0  0  0
   -5.6068   18.8718  -35.1970 H   0  0  0  0  0  0  0  0  0  0  0  0
   -4.7400   20.2631  -32.5619 H   0  0  0  0  0  0  0  0  0  0  0  0
  1  2  1  0
  2  3  1  0
  2  4  1  0
  2  5  1  0
  5  6  1  0
  6  7  2  0
  6  8  1  0
  8  9  1  0
  9 10  1  0
 10 11  1  0
 10 12  2  0
  9 13  2  0
 13 14  1  0
 14 15  2  0
 15 16  1  0
 16 17  2  0
 17 18  1  0
 18 19  1  0
 19 20  2  0
 20 21  1  0
 21 22  1  0
 17 23  1  0
 23 24  2  0
 24  8  1  0
 24 14  1  0
 22 18  2  0
  1 25  1  0
  1 26  1  0
  1 27  1  0
  3 28  1  0
  3 29  1  0
  3 30  1  0
  4 31  1  0
  4 32  1  0
  4 33  1  0
 11 34  1  0
 13 35  1  0
 15 36  1  0
 16 37  1  0
 19 38  1  0
 22 39  1  0
 23 40  1  0
M  CHG  1  11  -1
M  END
>  <UniqueID>  (71) 
71

>  <SMILES>  (71) 
CC(C)(C)OC(=O)n1c(C([NH-])=O)cc2ccc(-c3cnoc3)cc21

>  <Energy>  (71) 
108.72372173811992

>  <Genealogy>  (71) 
CC(C)(C)OC(=O)n1c(C([NH-])=O)cc2ccc(-c3cnoc3)cc21 (protonated)
CC(C)(C)OC(=O)n1c(C([NH-])=O)cc2ccc(-c3cnoc3)cc21 (3D coordinates assigned)
CC(C)(C)OC(=O)n1c(C([NH-])=O)cc2ccc(-c3cnoc3)cc21 (optimized conformer: 108.72372173811992 kcal/mol)

>  <smiles>  (71) 
CC(C)(C)OC(=O)n1c(C(N)=O)cc2ccc(-c3cnoc3)cc21

>  <score_type>  (71) 
oracle

>  <origin>  (71) 
adg

>  <m_score__min__energy>  (71) 
-10.710000000000001

>  <m_primary>  (71) 
energy

$$$$
71:0
     RDKit          3D

 62 66  0  0  0  0  0  0  0  0999 V2000
   -3.8900   25.6630  -30.8540 N   0  0  0  0  0  0  0  0  0  0  0  0
   -5.2270   25.4610  -30.3900 C   0  0  0  0  0  0  0  0  0  0  0  0
   -5.8700   26.4400  -29.9390 O   0  0  0  0  0  0  0  0  0  0  0  0
   -5.8910   24.1530  -30.5250 C   0  0  0  0  0  0  0  0  0  0  0  0
   -7.2500   24.0350  -30.8090 C   0  0  0  0  0  0  0  0  0  0  0  0
   -7.4220   22.7350  -31.2380 C   0  0  0  0  0  0  0  0  0  0  0  0
   -8.5180   22.1640  -31.8800 C   0  0  0  0  0  0  0  0  0  0  0  0
   -8.3620   20.8920  -32.4530 C   0  0  0  0  0  0  0  0  0  0  0  0
   -7.1240   20.1940  -32.3550 C   0  0  0  0  0  0  0  0  0  0  0  0
   -6.9170   18.9340  -33.0280 N   0  0  0  0  0  0  0  0  0  0  0  0
   -7.0760   17.6660  -32.3400 C   0  0  0  0  0  0  0  0  0  0  0  0
   -5.7920   16.8910  -32.6220 C   0  0  0  0  0  0  0  0  0  0  0  0
   -5.1730   17.5460  -33.8570 C   0  0  1  0  0  0  0  0  0  0  0  0
   -5.1210   16.6290  -34.9210 O   0  0  0  0  0  0  0  0  0  0  0  0
   -6.0660   18.7390  -34.1950 C   0  0  0  0  0  0  0  0  0  0  0  0
   -6.0300   20.8170  -31.6890 C   0  0  0  0  0  0  0  0  0  0  0  0
   -6.2110   22.1040  -31.1580 C   0  0  0  0  0  0  0  0  0  0  0  0
   -5.2670   22.9480  -30.6880 N   0  0  0  0  0  0  0  0  0  0  0  0
   -3.8620   22.6870  -30.6990 C   0  0  0  0  0  0  0  0  0  0  0  0
   -3.1390   23.2570  -31.5530 O   0  0  0  0  0  0  0  0  0  0  0  0
   -3.2930   21.7000  -29.8180 N   0  0  0  0  0  0  0  0  0  0  0  0
   -2.7840   20.4550  -30.3920 C   0  0  0  0  0  0  0  0  0  0  0  0
   -1.3260   20.6510  -30.8230 C   0  0  0  0  0  0  0  0  0  0  0  0
   -0.4290   21.2640  -29.7120 C   0  0  0  0  0  0  0  0  0  0  0  0
    0.1590   20.1870  -28.8630 N   0  0  0  0  0  0  0  0  0  0  0  0
   -0.2700   20.1850  -27.4380 C   0  0  0  0  0  0  0  0  0  0  0  0
   -1.1250   18.9460  -27.1170 C   0  0  0  0  0  0  0  0  0  0  0  0
   -0.4650   17.7090  -27.3490 O   0  0  0  0  0  0  0  0  0  0  0  0
    0.5600   17.7880  -28.3360 C   0  0  0  0  0  0  0  0  0  0  0  0
    0.2860   18.8250  -29.4320 C   0  0  0  0  0  0  0  0  0  0  0  0
   -1.1260   22.4370  -28.9570 C   0  0  0  0  0  0  0  0  0  0  0  0
   -2.5990   22.1470  -28.6110 C   0  0  0  0  0  0  0  0  0  0  0  0
   -3.0950   25.1340  -30.4370 H   0  0  0  0  0  0  0  0  0  0  0  0
   -8.0217   24.8129  -30.7118 H   0  0  0  0  0  0  0  0  0  0  0  0
   -9.4796   22.6952  -31.9366 H   0  0  0  0  0  0  0  0  0  0  0  0
   -9.2063   20.4284  -32.9843 H   0  0  0  0  0  0  0  0  0  0  0  0
   -7.1992   17.8271  -31.2589 H   0  0  0  0  0  0  0  0  0  0  0  0
   -7.9676   17.1216  -32.6844 H   0  0  0  0  0  0  0  0  0  0  0  0
   -5.1054   16.9627  -31.7656 H   0  0  0  0  0  0  0  0  0  0  0  0
   -5.9923   15.8222  -32.7880 H   0  0  0  0  0  0  0  0  0  0  0  0
   -4.1388   17.8719  -33.6720 H   0  0  0  0  0  0  0  0  0  0  0  0
   -5.0070   17.1660  -35.7510 H   0  0  0  0  0  0  0  0  0  0  0  0
   -5.4558   19.6354  -34.3794 H   0  0  0  0  0  0  0  0  0  0  0  0
   -6.6575   18.5600  -35.1050 H   0  0  0  0  0  0  0  0  0  0  0  0
   -5.0635   20.3006  -31.5927 H   0  0  0  0  0  0  0  0  0  0  0  0
   -2.8397   19.6544  -29.6397 H   0  0  0  0  0  0  0  0  0  0  0  0
   -3.3914   20.1786  -31.2665 H   0  0  0  0  0  0  0  0  0  0  0  0
   -0.9114   19.6718  -31.1046 H   0  0  0  0  0  0  0  0  0  0  0  0
   -1.3295   21.3597  -31.6642 H   0  0  0  0  0  0  0  0  0  0  0  0
    0.4348   21.7630  -30.1756 H   0  0  0  0  0  0  0  0  0  0  0  0
    0.6221   20.1821  -26.7945 H   0  0  0  0  0  0  0  0  0  0  0  0
   -0.8765   21.0842  -27.2551 H   0  0  0  0  0  0  0  0  0  0  0  0
   -1.4126   18.9903  -26.0562 H   0  0  0  0  0  0  0  0  0  0  0  0
   -1.9915   18.9748  -27.7940 H   0  0  0  0  0  0  0  0  0  0  0  0
    1.5032   18.0531  -27.8359 H   0  0  0  0  0  0  0  0  0  0  0  0
    0.6061   16.8057  -28.8290 H   0  0  0  0  0  0  0  0  0  0  0  0
    1.1172   18.8134  -30.1524 H   0  0  0  0  0  0  0  0  0  0  0  0
   -0.6612   18.5654  -29.9274 H   0  0  0  0  0  0  0  0  0  0  0  0
   -0.5780   22.6254  -28.0220 H   0  0  0  0  0  0  0  0  0  0  0  0
   -1.1136   23.3095  -29.6267 H   0  0  0  0  0  0  0  0  0  0  0  0
   -2.6495   21.3602  -27.8439 H   0  0  0  0  0  0  0  0  0  0  0  0
   -3.0763   23.0596  -28.2245 H   0  0  0  0  0  0  0  0  0  0  0  0
  1  2  1  0
  2  3  2  0
  2  4  1  0
  4  5  2  0
  5  6  1  0
  6  7  2  0
  7  8  1  0
  8  9  2  0
  9 10  1  0
 10 11  1  0
 11 12  1  0
 12 13  1  0
 13 14  1  0
 13 15  1  0
  9 16  1  0
 16 17  2  0
 17 18  1  0
 18 19  1  0
 19 20  2  0
 19 21  1  0
 21 22  1  0
 22 23  1  0
 23 24  1  0
 24 25  1  0
 25 26  1  0
 26 27  1  0
 27 28  1  0
 28 29  1  0
 29 30  1  0
 24 31  1  0
 31 32  1  0
 18  4  1  0
 32 21  1  0
 17  6  1  0
 30 25  1  0
 15 10  1  0
  1 33  1  0
  5 34  1  0
  7 35  1  0
  8 36  1  0
 11 37  1  0
 11 38  1  0
 12 39  1  0
 12 40  1  0
 13 41  1  1
 14 42  1  0
 15 43  1  0
 15 44  1  0
 16 45  1  0
 22 46  1  0
 22 47  1  0
 23 48  1  0
 23 49  1  0
 24 50  1  0
 26 51  1  0
 26 52  1  0
 27 53  1  0
 27 54  1  0
 29 55  1  0
 29 56  1  0
 30 57  1  0
 30 58  1  0
 31 59  1  0
 31 60  1  0
 32 61  1  0
 32 62  1  0
M  CHG  1   1  -1
M  END
>  <UniqueID>  (72) 
72

>  <SMILES>  (72) 
[NH-]C(=O)c1cc2ccc(N3CC[C@@H](O)C3)cc2n1C(=O)N1CCC(N2CCOCC2)CC1

>  <Energy>  (72) 
157.00359635550248

>  <Genealogy>  (72) 
[NH-]C(=O)c1cc2ccc(N3CC[C@@H](O)C3)cc2n1C(=O)N1CCC(N2CCOCC2)CC1 (protonated)
[NH-]C(=O)c1cc2ccc(N3CC[C@@H](O)C3)cc2n1C(=O)N1CCC(N2CCOCC2)CC1 (3D coordinates assigned)
[NH-]C(=O)c1cc2ccc(N3CC[C@@H](O)C3)cc2n1C(=O)N1CCC(N2CCOCC2)CC1 (nonaromatic ring conformer: 157.00359635550248 kcal/mol)

>  <smiles>  (72) 
NC(=O)c1cc2ccc(N3CC[C@@H](O)C3)cc2n1C(=O)N1CCC(N2CCOCC2)CC1

>  <score_type>  (72) 
oracle

>  <origin>  (72) 
adg

>  <m_score__min__energy>  (72) 
-11.949999999999999

>  <m_primary>  (72) 
energy

$$$$
72:0
     RDKit          3D

 49 50  0  0  0  0  0  0  0  0999 V2000
   -2.9670   18.9030  -26.1420 C   0  0  0  0  0  0  0  0  0  0  0  0
   -2.1630   19.3260  -27.2190 O   0  0  0  0  0  0  0  0  0  0  0  0
   -2.5300   20.6380  -27.5930 C   0  0  0  0  0  0  0  0  0  0  0  0
   -1.3150   21.5660  -27.5000 C   0  0  0  0  0  0  0  0  0  0  0  0
   -1.4050   22.3080  -26.3340 F   0  0  0  0  0  0  0  0  0  0  0  0
   -0.1630   20.7990  -27.4470 F   0  0  0  0  0  0  0  0  0  0  0  0
   -1.2490   22.5210  -28.7010 C   0  0  0  0  0  0  0  0  0  0  0  0
   -2.4160   23.3400  -28.7610 O   0  0  0  0  0  0  0  0  0  0  0  0
   -2.4420   24.6130  -29.3400 C   0  0  0  0  0  0  0  0  0  0  0  0
   -1.5620   25.4690  -29.0520 O   0  0  0  0  0  0  0  0  0  0  0  0
   -3.4760   24.9300  -30.2720 N   0  0  0  0  0  0  0  0  0  0  0  0
   -4.8920   24.9220  -29.9240 C   0  0  0  0  0  0  0  0  0  0  0  0
   -5.7500   24.9710  -31.1910 C   0  0  0  0  0  0  0  0  0  0  0  0
   -6.3660   23.6290  -31.4920 C   0  0  0  0  0  0  0  0  0  0  0  0
   -7.7560   23.4280  -31.3080 C   0  0  0  0  0  0  0  0  0  0  0  0
   -8.3500   22.1980  -31.6380 C   0  0  0  0  0  0  0  0  0  0  0  0
   -7.5330   21.1930  -32.1480 C   0  0  0  0  0  0  0  0  0  0  0  0
   -7.8550   19.9330  -32.5950 C   0  0  0  0  0  0  0  0  0  0  0  0
   -6.6540   19.3780  -33.0270 C   0  0  0  0  0  0  0  0  0  0  0  0
   -6.5330   18.0030  -33.5520 C   0  0  0  0  0  0  0  0  0  0  0  0
   -6.0240   17.7530  -34.8630 N   0  0  0  0  0  0  0  0  0  0  0  0
   -6.8400   17.0290  -32.8140 O   0  0  0  0  0  0  0  0  0  0  0  0
   -5.6290   20.2620  -32.8680 N   0  0  0  0  0  0  0  0  0  0  0  0
   -4.2690   20.1120  -33.3060 C   0  0  0  0  0  0  0  0  0  0  0  0
   -3.9770   19.2300  -34.1600 O   0  0  0  0  0  0  0  0  0  0  0  0
   -3.2730   20.9470  -32.7890 O   0  0  0  0  0  0  0  0  0  0  0  0
   -2.7600   20.8010  -31.4710 C   0  0  0  0  0  0  0  0  0  0  0  0
   -6.1830   21.3690  -32.3230 C   0  0  0  0  0  0  0  0  0  0  0  0
   -5.5690   22.5880  -32.0190 C   0  0  0  0  0  0  0  0  0  0  0  0
   -2.4747   19.1620  -25.1930 H   0  0  0  0  0  0  0  0  0  0  0  0
   -3.9452   19.4032  -26.1961 H   0  0  0  0  0  0  0  0  0  0  0  0
   -3.1088   17.8135  -26.1961 H   0  0  0  0  0  0  0  0  0  0  0  0
   -2.9052   20.6310  -28.6270 H   0  0  0  0  0  0  0  0  0  0  0  0
   -3.3159   21.0014  -26.9146 H   0  0  0  0  0  0  0  0  0  0  0  0
   -0.3618   23.1638  -28.6025 H   0  0  0  0  0  0  0  0  0  0  0  0
   -1.1887   21.9245  -29.6233 H   0  0  0  0  0  0  0  0  0  0  0  0
   -5.1231   24.0036  -29.3644 H   0  0  0  0  0  0  0  0  0  0  0  0
   -5.1141   25.8050  -29.3067 H   0  0  0  0  0  0  0  0  0  0  0  0
   -6.5529   25.7097  -31.0508 H   0  0  0  0  0  0  0  0  0  0  0  0
   -5.1034   25.2516  -32.0355 H   0  0  0  0  0  0  0  0  0  0  0  0
   -8.3758   24.2417  -30.9033 H   0  0  0  0  0  0  0  0  0  0  0  0
   -9.4286   22.0342  -31.4975 H   0  0  0  0  0  0  0  0  0  0  0  0
   -8.8498   19.4638  -32.6083 H   0  0  0  0  0  0  0  0  0  0  0  0
   -5.5850   18.5160  -35.4260 H   0  0  0  0  0  0  0  0  0  0  0  0
   -6.0050   16.7790  -35.2390 H   0  0  0  0  0  0  0  0  0  0  0  0
   -3.5523   21.0265  -30.7421 H   0  0  0  0  0  0  0  0  0  0  0  0
   -2.4112   19.7679  -31.3256 H   0  0  0  0  0  0  0  0  0  0  0  0
   -1.9195   21.4956  -31.3256 H   0  0  0  0  0  0  0  0  0  0  0  0
   -4.4915   22.7330  -32.1861 H   0  0  0  0  0  0  0  0  0  0  0  0
  1  2  1  0
  2  3  1  0
  3  4  1  0
  4  5  1  0
  4  6  1  0
  4  7  1  0
  7  8  1  0
  8  9  1  0
  9 10  2  0
  9 11  1  0
 11 12  1  0
 12 13  1  0
 13 14  1  0
 14 15  2  0
 15 16  1  0
 16 17  2  0
 17 18  1  0
 18 19  2  0
 19 20  1  0
 20 21  1  0
 20 22  2  0
 19 23  1  0
 23 24  1  0
 24 25  2  0
 24 26  1  0
 26 27  1  0
 23 28  1  0
 28 29  2  0
 29 14  1  0
 28 17  1  0
  1 30  1  0
  1 31  1  0
  1 32  1  0
  3 33  1  0
  3 34  1  0
  7 35  1  0
  7 36  1  0
 12 37  1  0
 12 38  1  0
 13 39  1  0
 13 40  1  0
 15 41  1  0
 16 42  1  0
 18 43  1  0
 21 44  1  0
 21 45  1  0
 27 46  1  0
 27 47  1  0
 27 48  1  0
 29 49  1  0
M  CHG  1  11  -1
M  END
>  <UniqueID>  (73) 
73

>  <SMILES>  (73) 
COCC(F)(F)COC(=O)[N-]CCc1ccc2cc(C(N)=O)n(C(=O)OC)c2c1

>  <Energy>  (73) 
77.38036444810324

>  <Genealogy>  (73) 
COCC(F)(F)COC(=O)[N-]CCc1ccc2cc(C(N)=O)n(C(=O)OC)c2c1 (protonated)
COCC(F)(F)COC(=O)[N-]CCc1ccc2cc(C(N)=O)n(C(=O)OC)c2c1 (3D coordinates assigned)
COCC(F)(F)COC(=O)[N-]CCc1ccc2cc(C(N)=O)n(C(=O)OC)c2c1 (optimized conformer: 77.38036444810324 kcal/mol)

>  <smiles>  (73) 
COCC(F)(F)COC(=O)NCCc1ccc2cc(C(N)=O)n(C(=O)OC)c2c1

>  <score_type>  (73) 
oracle

>  <origin>  (73) 
adg

>  <m_score__min__energy>  (73) 
-8.5800000000000001

>  <m_primary>  (73) 
energy

$$$$
73:0
     RDKit          3D

 48 49  0  0  0  0  0  0  0  0999 V2000
   -2.6520   24.4530  -28.1190 C   0  0  0  0  0  0  0  0  0  0  0  0
   -1.8960   24.3490  -29.3050 O   0  0  0  0  0  0  0  0  0  0  0  0
   -1.2690   23.0810  -29.3860 C   0  0  0  0  0  0  0  0  0  0  0  0
   -1.8730   22.2720  -30.5280 C   0  0  0  0  0  0  0  0  0  0  0  0
   -3.2930   22.3290  -30.4580 O   0  0  0  0  0  0  0  0  0  0  0  0
   -4.1020   22.5200  -31.5790 C   0  0  0  0  0  0  0  0  0  0  0  0
   -3.6280   22.3730  -32.7390 O   0  0  0  0  0  0  0  0  0  0  0  0
   -5.4880   22.8560  -31.4070 N   0  0  0  0  0  0  0  0  0  0  0  0
   -6.0050   24.0150  -30.9070 C   0  0  0  0  0  0  0  0  0  0  0  0
   -5.2480   25.2500  -30.6160 C   0  0  0  0  0  0  0  0  0  0  0  0
   -3.8430   25.3180  -30.8420 N   0  0  0  0  0  0  0  0  0  0  0  0
   -5.8580   26.2730  -30.2060 O   0  0  0  0  0  0  0  0  0  0  0  0
   -7.3860   23.9100  -30.7580 C   0  0  0  0  0  0  0  0  0  0  0  0
   -7.7050   22.6440  -31.1900 C   0  0  0  0  0  0  0  0  0  0  0  0
   -8.9350   21.9930  -31.2230 C   0  0  0  0  0  0  0  0  0  0  0  0
   -8.9630   20.6580  -31.6590 C   0  0  0  0  0  0  0  0  0  0  0  0
   -7.7700   20.0030  -32.0550 C   0  0  0  0  0  0  0  0  0  0  0  0
   -7.7940   18.5540  -32.4530 C   0  0  0  0  0  0  0  0  0  0  0  0
   -6.6660   18.2760  -33.3430 C   0  0  0  0  0  0  0  0  0  0  0  0
   -5.7330   18.0870  -34.0820 C   0  0  0  0  0  0  0  0  0  0  0  0
   -4.5680   17.8770  -34.9600 C   0  0  0  0  0  0  0  0  0  0  0  0
   -3.2990   18.3280  -34.3470 N   0  0  0  0  0  0  0  0  0  0  0  0
   -3.4840   19.5150  -33.4940 C   0  0  0  0  0  0  0  0  0  0  0  0
   -2.6290   17.2500  -33.6020 C   0  0  0  0  0  0  0  0  0  0  0  0
   -6.5400   20.6960  -32.0060 C   0  0  0  0  0  0  0  0  0  0  0  0
   -6.5430   22.0280  -31.5780 C   0  0  0  0  0  0  0  0  0  0  0  0
   -1.9845   24.3612  -27.2495 H   0  0  0  0  0  0  0  0  0  0  0  0
   -3.1582   25.4292  -28.0912 H   0  0  0  0  0  0  0  0  0  0  0  0
   -3.4030   23.6497  -28.0912 H   0  0  0  0  0  0  0  0  0  0  0  0
   -0.1925   23.2179  -29.5663 H   0  0  0  0  0  0  0  0  0  0  0  0
   -1.4235   22.5410  -28.4402 H   0  0  0  0  0  0  0  0  0  0  0  0
   -1.5373   22.6891  -31.4889 H   0  0  0  0  0  0  0  0  0  0  0  0
   -1.5461   21.2250  -30.4451 H   0  0  0  0  0  0  0  0  0  0  0  0
   -3.2770   24.4510  -30.9800 H   0  0  0  0  0  0  0  0  0  0  0  0
   -8.0754   24.6772  -30.3757 H   0  0  0  0  0  0  0  0  0  0  0  0
   -9.8573   22.5085  -30.9169 H   0  0  0  0  0  0  0  0  0  0  0  0
   -9.9195   20.1159  -31.6934 H   0  0  0  0  0  0  0  0  0  0  0  0
   -7.7159   17.9251  -31.5539 H   0  0  0  0  0  0  0  0  0  0  0  0
   -8.7369   18.3315  -32.9740 H   0  0  0  0  0  0  0  0  0  0  0  0
   -4.4871   16.8035  -35.1858 H   0  0  0  0  0  0  0  0  0  0  0  0
   -4.7270   18.4746  -35.8697 H   0  0  0  0  0  0  0  0  0  0  0  0
   -3.4376   19.2171  -32.4361 H   0  0  0  0  0  0  0  0  0  0  0  0
   -2.6888   20.2453  -33.7045 H   0  0  0  0  0  0  0  0  0  0  0  0
   -4.4637   19.9687  -33.7045 H   0  0  0  0  0  0  0  0  0  0  0  0
   -2.7392   17.4273  -32.5220 H   0  0  0  0  0  0  0  0  0  0  0  0
   -3.0863   16.2844  -33.8636 H   0  0  0  0  0  0  0  0  0  0  0  0
   -1.5607   17.2326  -33.8636 H   0  0  0  0  0  0  0  0  0  0  0  0
   -5.6023   20.2002  -32.2974 H   0  0  0  0  0  0  0  0  0  0  0  0
  1  2  1  0
  2  3  1  0
  3  4  1  0
  4  5  1  0
  5  6  1  0
  6  7  2  0
  6  8  1  0
  8  9  1  0
  9 10  1  0
 10 11  1  0
 10 12  2  0
  9 13  2  0
 13 14  1  0
 14 15  2  0
 15 16  1  0
 16 17  2  0
 17 18  1  0
 18 19  1  0
 19 20  3  0
 20 21  1  0
 21 22  1  0
 22 23  1  0
 22 24  1  0
 17 25  1  0
 25 26  2  0
 26  8  1  0
 26 14  1  0
  1 27  1  0
  1 28  1  0
  1 29  1  0
  3 30  1  0
  3 31  1  0
  4 32  1  0
  4 33  1  0
 11 34  1  0
 13 35  1  0
 15 36  1  0
 16 37  1  0
 18 38  1  0
 18 39  1  0
 21 40  1  0
 21 41  1  0
 23 42  1  0
 23 43  1  0
 23 44  1  0
 24 45  1  0
 24 46  1  0
 24 47  1  0
 25 48  1  0
M  CHG  1  11  -1
M  END
>  <UniqueID>  (74) 
74

>  <SMILES>  (74) 
COCCOC(=O)n1c(C([NH-])=O)cc2ccc(CC#CCN(C)C)cc21

>  <Energy>  (74) 
79.66587077992939

>  <Genealogy>  (74) 
COCCOC(=O)n1c(C([NH-])=O)cc2ccc(CC#CCN(C)C)cc21 (protonated)
COCCOC(=O)n1c(C([NH-])=O)cc2ccc(CC#CCN(C)C)cc21 (3D coordinates assigned)
COCCOC(=O)n1c(C([NH-])=O)cc2ccc(CC#CCN(C)C)cc21 (optimized conformer: 79.66587077992939 kcal/mol)

>  <smiles>  (74) 
COCCOC(=O)n1c(C(N)=O)cc2ccc(CC#CCN(C)C)cc21

>  <score_type>  (74) 
oracle

>  <origin>  (74) 
adg

>  <m_score__min__energy>  (74) 
-10.359999999999999

>  <m_primary>  (74) 
energy

$$$$
74:0
     RDKit          3D

 46 48  0  0  0  0  0  0  0  0999 V2000
   -2.4220   20.3140  -33.8370 C   0  0  0  0  0  0  0  0  0  0  0  0
   -2.1370   21.1030  -32.5700 C   0  0  0  0  0  0  0  0  0  0  0  0
   -2.9820   22.2480  -32.5240 O   0  0  0  0  0  0  0  0  0  0  0  0
   -3.6620   22.6420  -31.3680 C   0  0  0  0  0  0  0  0  0  0  0  0
   -3.0160   22.9990  -30.3460 O   0  0  0  0  0  0  0  0  0  0  0  0
   -5.1020   22.6490  -31.3570 N   0  0  0  0  0  0  0  0  0  0  0  0
   -5.9170   23.6920  -31.0370 C   0  0  0  0  0  0  0  0  0  0  0  0
   -5.4820   24.9910  -30.4850 C   0  0  0  0  0  0  0  0  0  0  0  0
   -4.1730   25.5020  -30.7490 N   0  0  0  0  0  0  0  0  0  0  0  0
   -6.2570   25.6350  -29.7310 O   0  0  0  0  0  0  0  0  0  0  0  0
   -7.2490   23.3680  -31.2750 C   0  0  0  0  0  0  0  0  0  0  0  0
   -7.2280   22.0750  -31.7430 C   0  0  0  0  0  0  0  0  0  0  0  0
   -8.2760   21.2590  -32.1600 C   0  0  0  0  0  0  0  0  0  0  0  0
   -7.9630   19.9830  -32.6530 C   0  0  0  0  0  0  0  0  0  0  0  0
   -6.6160   19.5470  -32.7290 C   0  0  0  0  0  0  0  0  0  0  0  0
   -6.3030   18.2550  -33.2810 N   0  0  0  0  0  0  0  0  0  0  0  0
   -6.1240   17.1020  -32.3940 C   0  0  0  0  0  0  0  0  0  0  0  0
   -5.3410   15.9850  -33.1070 C   0  0  0  0  0  0  0  0  0  0  0  0
   -4.2510   16.5300  -33.9460 N   0  0  0  0  0  0  0  0  0  0  0  0
   -3.1860   17.1390  -33.1300 C   0  0  0  0  0  0  0  0  0  0  0  0
   -4.7300   17.4550  -35.0060 C   0  0  0  0  0  0  0  0  0  0  0  0
   -6.1140   18.0690  -34.7230 C   0  0  0  0  0  0  0  0  0  0  0  0
   -5.5780   20.4050  -32.2990 C   0  0  0  0  0  0  0  0  0  0  0  0
   -5.9210   21.6630  -31.7880 C   0  0  0  0  0  0  0  0  0  0  0  0
   -2.7845   19.3103  -33.5702 H   0  0  0  0  0  0  0  0  0  0  0  0
   -3.1886   20.8354  -34.4290 H   0  0  0  0  0  0  0  0  0  0  0  0
   -1.4992   20.2251  -34.4290 H   0  0  0  0  0  0  0  0  0  0  0  0
   -2.3302   20.4691  -31.6920 H   0  0  0  0  0  0  0  0  0  0  0  0
   -1.0847   21.4234  -32.5664 H   0  0  0  0  0  0  0  0  0  0  0  0
   -3.4550   24.9210  -31.2370 H   0  0  0  0  0  0  0  0  0  0  0  0
   -3.9060   26.4550  -30.4140 H   0  0  0  0  0  0  0  0  0  0  0  0
   -8.1299   24.0087  -31.1217 H   0  0  0  0  0  0  0  0  0  0  0  0
   -9.3189   21.6044  -32.1047 H   0  0  0  0  0  0  0  0  0  0  0  0
   -8.7711   19.3141  -32.9839 H   0  0  0  0  0  0  0  0  0  0  0  0
   -5.5685   17.4178  -31.4986 H   0  0  0  0  0  0  0  0  0  0  0  0
   -7.1143   16.7154  -32.1114 H   0  0  0  0  0  0  0  0  0  0  0  0
   -4.9072   15.3149  -32.3502 H   0  0  0  0  0  0  0  0  0  0  0  0
   -6.0384   15.4417  -33.7616 H   0  0  0  0  0  0  0  0  0  0  0  0
   -3.4196   17.0054  -32.0634 H   0  0  0  0  0  0  0  0  0  0  0  0
   -2.2258   16.6534  -33.3587 H   0  0  0  0  0  0  0  0  0  0  0  0
   -3.1175   18.2128  -33.3587 H   0  0  0  0  0  0  0  0  0  0  0  0
   -4.0021   18.2737  -35.1054 H   0  0  0  0  0  0  0  0  0  0  0  0
   -4.8276   16.8609  -35.9266 H   0  0  0  0  0  0  0  0  0  0  0  0
   -6.1886   19.0437  -35.2274 H   0  0  0  0  0  0  0  0  0  0  0  0
   -6.8913   17.3886  -35.1009 H   0  0  0  0  0  0  0  0  0  0  0  0
   -4.5255   20.0919  -32.3643 H   0  0  0  0  0  0  0  0  0  0  0  0
  1  2  1  0
  2  3  1  0
  3  4  1  0
  4  5  2  0
  4  6  1  0
  6  7  1  0
  7  8  1  0
  8  9  1  0
  8 10  2  0
  7 11  2  0
 11 12  1  0
 12 13  2  0
 13 14  1  0
 14 15  2  0
 15 16  1  0
 16 17  1  0
 17 18  1  0
 18 19  1  0
 19 20  1  0
 19 21  1  0
 21 22  1  0
 15 23  1  0
 23 24  2  0
 24  6  1  0
 24 12  1  0
 22 16  1  0
  1 25  1  0
  1 26  1  0
  1 27  1  0
  2 28  1  0
  2 29  1  0
  9 30  1  0
  9 31  1  0
 11 32  1  0
 13 33  1  0
 14 34  1  0
 17 35  1  0
 17 36  1  0
 18 37  1  0
 18 38  1  0
 20 39  1  0
 20 40  1  0
 20 41  1  0
 21 42  1  0
 21 43  1  0
 22 44  1  0
 22 45  1  0
 23 46  1  0
M  END
>  <UniqueID>  (75) 
75

>  <SMILES>  (75) 
CCOC(=O)n1c(C(N)=O)cc2ccc(N3CCN(C)CC3)cc21

>  <Energy>  (75) 
92.52015702385393

>  <Genealogy>  (75) 
CCOC(=O)n1c(C(N)=O)cc2ccc(N3CCN(C)CC3)cc21 (3D coordinates assigned)
CCOC(=O)n1c(C(N)=O)cc2ccc(N3CCN(C)CC3)cc21 (nonaromatic ring conformer: 92.52015702385393 kcal/mol)

>  <smiles>  (75) 
CCOC(=O)n1c(C(N)=O)cc2ccc(N3CCN(C)CC3)cc21

>  <score_type>  (75) 
oracle

>  <origin>  (75) 
adg

>  <m_score__min__energy>  (75) 
-9.0999999999999996

>  <m_primary>  (75) 
energy

$$$$
75:0
     RDKit          3D

 46 47  0  0  0  0  0  0  0  0999 V2000
   -6.1340   14.2640  -34.1820 C   0  0  0  0  0  0  0  0  0  0  0  0
   -5.0210   15.3110  -34.2420 C   0  0  0  0  0  0  0  0  0  0  0  0
   -4.5600   15.7110  -32.8930 N   0  0  0  0  0  0  0  0  0  0  0  0
   -4.6000   14.5370  -32.0050 C   0  0  0  0  0  0  0  0  0  0  0  0
   -5.3620   16.8240  -32.3200 C   0  0  0  0  0  0  0  0  0  0  0  0
   -6.1090   17.6000  -33.4200 C   0  0  0  0  0  0  0  0  0  0  0  0
   -7.5500   17.9960  -33.0360 C   0  0  0  0  0  0  0  0  0  0  0  0
   -7.6420   19.3840  -32.4500 C   0  0  0  0  0  0  0  0  0  0  0  0
   -8.8890   19.8890  -32.0080 C   0  0  0  0  0  0  0  0  0  0  0  0
   -8.9760   21.1570  -31.4150 C   0  0  0  0  0  0  0  0  0  0  0  0
   -7.8060   21.9000  -31.2870 C   0  0  0  0  0  0  0  0  0  0  0  0
   -7.6120   23.1360  -30.7290 C   0  0  0  0  0  0  0  0  0  0  0  0
   -6.2480   23.3890  -30.8490 C   0  0  0  0  0  0  0  0  0  0  0  0
   -5.6280   24.6650  -30.4170 C   0  0  0  0  0  0  0  0  0  0  0  0
   -5.8290   25.1510  -29.0870 N   0  0  0  0  0  0  0  0  0  0  0  0
   -4.8810   25.3130  -31.1960 O   0  0  0  0  0  0  0  0  0  0  0  0
   -5.6150   22.3470  -31.4690 N   0  0  0  0  0  0  0  0  0  0  0  0
   -4.2260   22.2710  -31.8530 C   0  0  0  0  0  0  0  0  0  0  0  0
   -3.3770   23.0320  -31.3180 O   0  0  0  0  0  0  0  0  0  0  0  0
   -3.6750   21.1660  -33.1600 S   0  0  0  0  0  0  0  0  0  0  0  0
   -1.9280   21.1720  -32.6300 C   0  0  0  0  0  0  0  0  0  0  0  0
   -6.5930   21.4450  -31.7370 C   0  0  0  0  0  0  0  0  0  0  0  0
   -6.4830   20.1840  -32.3360 C   0  0  0  0  0  0  0  0  0  0  0  0
   -6.3712   14.0408  -33.1313 H   0  0  0  0  0  0  0  0  0  0  0  0
   -7.0311   14.6532  -34.6858 H   0  0  0  0  0  0  0  0  0  0  0  0
   -5.8003   13.3448  -34.6858 H   0  0  0  0  0  0  0  0  0  0  0  0
   -4.1694   14.8921  -34.7982 H   0  0  0  0  0  0  0  0  0  0  0  0
   -5.4229   16.2047  -34.7417 H   0  0  0  0  0  0  0  0  0  0  0  0
   -4.5887   14.8697  -30.9566 H   0  0  0  0  0  0  0  0  0  0  0  0
   -5.5182   13.9627  -32.1975 H   0  0  0  0  0  0  0  0  0  0  0  0
   -3.7230   13.9016  -32.1975 H   0  0  0  0  0  0  0  0  0  0  0  0
   -6.0956   16.4098  -31.6127 H   0  0  0  0  0  0  0  0  0  0  0  0
   -4.6777   17.5178  -31.8097 H   0  0  0  0  0  0  0  0  0  0  0  0
   -5.5445   18.5180  -33.6407 H   0  0  0  0  0  0  0  0  0  0  0  0
   -6.1825   16.9305  -34.2897 H   0  0  0  0  0  0  0  0  0  0  0  0
   -8.1778   17.9538  -33.9383 H   0  0  0  0  0  0  0  0  0  0  0  0
   -7.8920   17.2894  -32.2655 H   0  0  0  0  0  0  0  0  0  0  0  0
   -9.7976   19.2813  -32.1309 H   0  0  0  0  0  0  0  0  0  0  0  0
   -9.9398   21.5524  -31.0617 H   0  0  0  0  0  0  0  0  0  0  0  0
   -8.3736   23.7909  -30.2805 H   0  0  0  0  0  0  0  0  0  0  0  0
   -5.3610   26.0320  -28.7780 H   0  0  0  0  0  0  0  0  0  0  0  0
   -6.4670   24.6580  -28.4180 H   0  0  0  0  0  0  0  0  0  0  0  0
   -1.8782   21.1722  -31.5311 H   0  0  0  0  0  0  0  0  0  0  0  0
   -1.4235   20.2756  -33.0198 H   0  0  0  0  0  0  0  0  0  0  0  0
   -1.4297   22.0719  -33.0198 H   0  0  0  0  0  0  0  0  0  0  0  0
   -5.5135   19.8235  -32.7103 H   0  0  0  0  0  0  0  0  0  0  0  0
  1  2  1  0
  2  3  1  0
  3  4  1  0
  3  5  1  0
  5  6  1  0
  6  7  1  0
  7  8  1  0
  8  9  2  0
  9 10  1  0
 10 11  2  0
 11 12  1  0
 12 13  2  0
 13 14  1  0
 14 15  1  0
 14 16  2  0
 13 17  1  0
 17 18  1  0
 18 19  2  0
 18 20  1  0
 20 21  1  0
 17 22  1  0
 22 23  2  0
 23  8  1  0
 22 11  1  0
  1 24  1  0
  1 25  1  0
  1 26  1  0
  2 27  1  0
  2 28  1  0
  4 29  1  0
  4 30  1  0
  4 31  1  0
  5 32  1  0
  5 33  1  0
  6 34  1  0
  6 35  1  0
  7 36  1  0
  7 37  1  0
  9 38  1  0
 10 39  1  0
 12 40  1  0
 15 41  1  0
 15 42  1  0
 21 43  1  0
 21 44  1  0
 21 45  1  0
 23 46  1  0
M  END
>  <UniqueID>  (76) 
76

>  <SMILES>  (76) 
CCN(C)CCCc1ccc2cc(C(N)=O)n(C(=O)SC)c2c1

>  <Energy>  (76) 
81.77886097009001

>  <Genealogy>  (76) 
CCN(C)CCCc1ccc2cc(C(N)=O)n(C(=O)SC)c2c1 (3D coordinates assigned)
CCN(C)CCCc1ccc2cc(C(N)=O)n(C(=O)SC)c2c1 (optimized conformer: 81.77886097009001 kcal/mol)

>  <smiles>  (76) 
CCN(C)CCCc1ccc2cc(C(N)=O)n(C(=O)SC)c2c1

>  <score_type>  (76) 
oracle

>  <origin>  (76) 
adg

>  <m_score__min__energy>  (76) 
-8.5899999999999999

>  <m_primary>  (76) 
energy

$$$$
76:0
     RDKit          3D

 49 52  0  0  0  0  0  0  0  0999 V2000
   -4.7440   23.5120  -28.9150 C   0  0  0  0  0  0  0  0  0  0  0  0
   -3.8150   23.8390  -30.0400 C   0  0  0  0  0  0  0  0  0  0  0  0
   -4.0970   24.7920  -30.8150 O   0  0  0  0  0  0  0  0  0  0  0  0
   -2.6140   23.0780  -30.2500 N   0  0  0  0  0  0  0  0  0  0  0  0
   -1.3520   23.3930  -29.8460 C   0  0  0  0  0  0  0  0  0  0  0  0
   -0.9770   24.5490  -29.0040 C   0  0  0  0  0  0  0  0  0  0  0  0
   -1.8860   25.6360  -28.8450 N   0  0  0  0  0  0  0  0  0  0  0  0
    0.1480   24.5980  -28.4400 O   0  0  0  0  0  0  0  0  0  0  0  0
   -0.4440   22.4310  -30.2860 C   0  0  0  0  0  0  0  0  0  0  0  0
   -1.1950   21.5110  -30.9810 C   0  0  0  0  0  0  0  0  0  0  0  0
   -0.8040   20.3560  -31.6470 C   0  0  0  0  0  0  0  0  0  0  0  0
   -1.7920   19.6080  -32.3080 C   0  0  0  0  0  0  0  0  0  0  0  0
   -3.1480   20.0290  -32.3020 C   0  0  0  0  0  0  0  0  0  0  0  0
   -4.1810   19.2380  -33.0170 C   0  0  0  0  0  0  0  0  0  0  0  0
   -3.8600   18.5440  -34.1960 C   0  0  0  0  0  0  0  0  0  0  0  0
   -4.8310   17.7930  -34.8610 C   0  0  0  0  0  0  0  0  0  0  0  0
   -6.1340   17.7300  -34.3650 C   0  0  0  0  0  0  0  0  0  0  0  0
   -6.4840   18.4350  -33.2010 C   0  0  0  0  0  0  0  0  0  0  0  0
   -7.8950   18.3550  -32.6530 C   0  0  0  0  0  0  0  0  0  0  0  0
   -8.5420   19.6610  -32.3990 N   0  0  0  0  0  0  0  0  0  0  0  0
   -8.9690   19.8990  -31.0210 C   0  0  0  0  0  0  0  0  0  0  0  0
   -9.1860   21.4010  -30.9060 C   0  0  0  0  0  0  0  0  0  0  0  0
   -8.3890   22.0140  -32.0530 C   0  0  0  0  0  0  0  0  0  0  0  0
   -7.7640   20.8380  -32.7890 C   0  0  0  0  0  0  0  0  0  0  0  0
   -5.4970   19.1690  -32.5220 C   0  0  0  0  0  0  0  0  0  0  0  0
   -3.5040   21.2120  -31.6120 C   0  0  0  0  0  0  0  0  0  0  0  0
   -2.5020   21.9250  -30.9470 C   0  0  0  0  0  0  0  0  0  0  0  0
   -4.2358   23.6909  -27.9560 H   0  0  0  0  0  0  0  0  0  0  0  0
   -5.6381   24.1495  -28.9807 H   0  0  0  0  0  0  0  0  0  0  0  0
   -5.0416   22.4551  -28.9807 H   0  0  0  0  0  0  0  0  0  0  0  0
   -2.8000   25.6490  -29.3470 H   0  0  0  0  0  0  0  0  0  0  0  0
    0.6423   22.4115  -30.1141 H   0  0  0  0  0  0  0  0  0  0  0  0
    0.2486   20.0368  -31.6563 H   0  0  0  0  0  0  0  0  0  0  0  0
   -1.5119   18.6849  -32.8367 H   0  0  0  0  0  0  0  0  0  0  0  0
   -2.8371   18.5928  -34.5975 H   0  0  0  0  0  0  0  0  0  0  0  0
   -4.5679   17.2486  -35.7799 H   0  0  0  0  0  0  0  0  0  0  0  0
   -6.8903   17.1258  -34.8876 H   0  0  0  0  0  0  0  0  0  0  0  0
   -8.5119   17.8038  -33.3780 H   0  0  0  0  0  0  0  0  0  0  0  0
   -7.8176   17.8551  -31.6762 H   0  0  0  0  0  0  0  0  0  0  0  0
   -9.9047   19.3599  -30.8117 H   0  0  0  0  0  0  0  0  0  0  0  0
   -8.2202   19.5423  -30.2985 H   0  0  0  0  0  0  0  0  0  0  0  0
  -10.2540   21.6444  -31.0062 H   0  0  0  0  0  0  0  0  0  0  0  0
   -8.8607   21.7879  -29.9290 H   0  0  0  0  0  0  0  0  0  0  0  0
   -9.0533   22.5782  -32.7241 H   0  0  0  0  0  0  0  0  0  0  0  0
   -7.6269   22.7188  -31.6890 H   0  0  0  0  0  0  0  0  0  0  0  0
   -7.8229   20.9923  -33.8765 H   0  0  0  0  0  0  0  0  0  0  0  0
   -6.7003   20.7214  -32.5342 H   0  0  0  0  0  0  0  0  0  0  0  0
   -5.7558   19.6963  -31.5920 H   0  0  0  0  0  0  0  0  0  0  0  0
   -4.5464   21.5630  -31.5991 H   0  0  0  0  0  0  0  0  0  0  0  0
  1  2  1  0
  2  3  2  0
  2  4  1  0
  4  5  1  0
  5  6  1  0
  6  7  1  0
  6  8  2  0
  5  9  2  0
  9 10  1  0
 10 11  2  0
 11 12  1  0
 12 13  2  0
 13 14  1  0
 14 15  2  0
 15 16  1  0
 16 17  2  0
 17 18  1  0
 18 19  1  0
 19 20  1  0
 20 21  1  0
 21 22  1  0
 22 23  1  0
 23 24  1  0
 18 25  2  0
 13 26  1  0
 26 27  2  0
 27  4  1  0
 27 10  1  0
 25 14  1  0
 24 20  1  0
  1 28  1  0
  1 29  1  0
  1 30  1  0
  7 31  1  0
  9 32  1  0
 11 33  1  0
 12 34  1  0
 15 35  1  0
 16 36  1  0
 17 37  1  0
 19 38  1  0
 19 39  1  0
 21 40  1  0
 21 41  1  0
 22 42  1  0
 22 43  1  0
 23 44  1  0
 23 45  1  0
 24 46  1  0
 24 47  1  0
 25 48  1  0
 26 49  1  0
M  CHG  1   7  -1
M  END
>  <UniqueID>  (77) 
77

>  <SMILES>  (77) 
CC(=O)n1c(C([NH-])=O)cc2ccc(-c3cccc(CN4CCCC4)c3)cc21

>  <Energy>  (77) 
102.18078601422802

>  <Genealogy>  (77) 
CC(=O)n1c(C([NH-])=O)cc2ccc(-c3cccc(CN4CCCC4)c3)cc21 (protonated)
CC(=O)n1c(C([NH-])=O)cc2ccc(-c3cccc(CN4CCCC4)c3)cc21 (3D coordinates assigned)
CC(=O)n1c(C([NH-])=O)cc2ccc(-c3cccc(CN4CCCC4)c3)cc21 (nonaromatic ring conformer: 102.18078601422802 kcal/mol)

>  <smiles>  (77) 
CC(=O)n1c(C(N)=O)cc2ccc(-c3cccc(CN4CCCC4)c3)cc21

>  <score_type>  (77) 
oracle

>  <origin>  (77) 
adg

>  <m_score__min__energy>  (77) 
-12.56

>  <m_primary>  (77) 
energy

$$$$
77:0
     RDKit          3D

 29 30  0  0  0  0  0  0  0  0999 V2000
   -6.9900   20.5860  -32.5060 C   0  0  0  0  0  0  0  0  0  0  0  0
   -5.7150   20.2970  -33.3090 C   0  0  2  0  0  0  0  0  0  0  0  0
   -5.6080   18.8410  -33.6730 C   0  0  0  0  0  0  0  0  0  0  0  0
   -5.7950   17.9600  -32.7910 O   0  0  0  0  0  0  0  0  0  0  0  0
   -5.3610   18.4520  -34.9840 O   0  0  0  0  0  0  0  0  0  0  0  0
   -4.4800   20.7510  -32.5570 C   0  0  0  0  0  0  0  0  0  0  0  0
   -3.3320   19.9190  -32.5190 C   0  0  0  0  0  0  0  0  0  0  0  0
   -2.1800   20.3150  -31.8210 C   0  0  0  0  0  0  0  0  0  0  0  0
   -2.1970   21.5490  -31.1790 C   0  0  0  0  0  0  0  0  0  0  0  0
   -1.2310   22.1620  -30.4150 C   0  0  0  0  0  0  0  0  0  0  0  0
   -1.7890   23.3750  -30.0160 C   0  0  0  0  0  0  0  0  0  0  0  0
   -1.0480   24.3920  -29.2420 C   0  0  0  0  0  0  0  0  0  0  0  0
   -1.6210   25.6670  -28.9670 N   0  0  0  0  0  0  0  0  0  0  0  0
    0.1280   24.1500  -28.8580 O   0  0  0  0  0  0  0  0  0  0  0  0
   -3.0540   23.5030  -30.5080 N   0  0  0  0  0  0  0  0  0  0  0  0
   -3.9950   24.5610  -30.2590 C   0  0  0  0  0  0  0  0  0  0  0  0
   -3.8680   25.6730  -30.8350 O   0  0  0  0  0  0  0  0  0  0  0  0
   -5.0380   24.3760  -29.3610 O   0  0  0  0  0  0  0  0  0  0  0  0
   -3.2870   22.3780  -31.2200 C   0  0  0  0  0  0  0  0  0  0  0  0
   -4.4570   22.0010  -31.8910 C   0  0  0  0  0  0  0  0  0  0  0  0
   -6.7653   20.5351  -31.4304 H   0  0  0  0  0  0  0  0  0  0  0  0
   -7.3608   21.5910  -32.7559 H   0  0  0  0  0  0  0  0  0  0  0  0
   -7.7579   19.8391  -32.7559 H   0  0  0  0  0  0  0  0  0  0  0  0
   -5.7811   20.8735  -34.2435 H   0  0  0  0  0  0  0  0  0  0  0  0
   -3.3444   18.9518  -33.0427 H   0  0  0  0  0  0  0  0  0  0  0  0
   -1.2906   19.6688  -31.7829 H   0  0  0  0  0  0  0  0  0  0  0  0
   -0.2302   21.7764  -30.1708 H   0  0  0  0  0  0  0  0  0  0  0  0
   -2.6520   25.8190  -29.0360 H   0  0  0  0  0  0  0  0  0  0  0  0
   -5.3376   22.6602  -31.9006 H   0  0  0  0  0  0  0  0  0  0  0  0
  1  2  1  0
  2  3  1  0
  3  4  2  0
  3  5  1  0
  2  6  1  0
  6  7  2  0
  7  8  1  0
  8  9  2  0
  9 10  1  0
 10 11  2  0
 11 12  1  0
 12 13  1  0
 12 14  2  0
 11 15  1  0
 15 16  1  0
 16 17  2  0
 16 18  1  0
 15 19  1  0
 19 20  2  0
 20  6  1  0
 19  9  1  0
  1 21  1  0
  1 22  1  0
  1 23  1  0
  2 24  1  6
  7 25  1  0
  8 26  1  0
 10 27  1  0
 13 28  1  0
 20 29  1  0
M  CHG  3   5  -1  13  -1  18  -1
M  END
>  <UniqueID>  (78) 
78

>  <SMILES>  (78) 
C[C@H](C(=O)[O-])c1ccc2cc(C([NH-])=O)n(C(=O)[O-])c2c1

>  <Energy>  (78) 
67.89396028398279

>  <Genealogy>  (78) 
CC(C(=O)[O-])c1ccc2cc(C([NH-])=O)n(C(=O)[O-])c2c1 (protonated)
C[C@H](C(=O)[O-])c1ccc2cc(C([NH-])=O)n(C(=O)[O-])c2c1 (chirality)
C[C@H](C(=O)[O-])c1ccc2cc(C([NH-])=O)n(C(=O)[O-])c2c1 (3D coordinates assigned)
C[C@H](C(=O)[O-])c1ccc2cc(C([NH-])=O)n(C(=O)[O-])c2c1 (optimized conformer: 67.89396028398279 kcal/mol)

>  <smiles>  (78) 
CC(C(=O)O)c1ccc2cc(C(N)=O)n(C(=O)O)c2c1

>  <score_type>  (78) 
oracle

>  <origin>  (78) 
adg

>  <m_score__min__energy>  (78) 
-10.539999999999999

>  <m_primary>  (78) 
energy

$$$$
78:0
     RDKit          3D

 43 44  0  0  0  0  0  0  0  0999 V2000
   -3.6540   19.3780  -33.7940 C   0  0  0  0  0  0  0  0  0  0  0  0
   -4.2260   18.3370  -34.5770 O   0  0  0  0  0  0  0  0  0  0  0  0
   -5.3420   17.6080  -34.1580 C   0  0  0  0  0  0  0  0  0  0  0  0
   -6.3360   17.4580  -34.9210 O   0  0  0  0  0  0  0  0  0  0  0  0
   -5.3660   17.0250  -32.7780 C   0  0  0  0  0  0  0  0  0  0  0  0
   -6.4820   17.6430  -31.9300 C   0  0  0  0  0  0  0  0  0  0  0  0
   -7.2510   18.6350  -32.6870 N   0  0  0  0  0  0  0  0  0  0  0  0
   -7.3550   20.0170  -32.2960 C   0  0  0  0  0  0  0  0  0  0  0  0
   -8.5970   20.7100  -32.3290 C   0  0  0  0  0  0  0  0  0  0  0  0
   -8.6730   22.0640  -31.9640 C   0  0  0  0  0  0  0  0  0  0  0  0
   -7.5030   22.7010  -31.5650 C   0  0  0  0  0  0  0  0  0  0  0  0
   -7.2890   24.0070  -31.1920 C   0  0  0  0  0  0  0  0  0  0  0  0
   -5.9280   24.0940  -30.9110 C   0  0  0  0  0  0  0  0  0  0  0  0
   -5.2780   25.3160  -30.3940 C   0  0  0  0  0  0  0  0  0  0  0  0
   -3.9660   25.6620  -30.8350 N   0  0  0  0  0  0  0  0  0  0  0  0
   -5.8800   26.0770  -29.5920 O   0  0  0  0  0  0  0  0  0  0  0  0
   -5.3220   22.8880  -31.1090 N   0  0  0  0  0  0  0  0  0  0  0  0
   -3.9240   22.5800  -31.0000 C   0  0  0  0  0  0  0  0  0  0  0  0
   -3.3770   21.8310  -31.8550 O   0  0  0  0  0  0  0  0  0  0  0  0
   -3.1710   23.1260  -29.9530 O   0  0  0  0  0  0  0  0  0  0  0  0
   -1.7510   23.0250  -29.8690 C   0  0  0  0  0  0  0  0  0  0  0  0
   -1.1780   24.1760  -29.0410 C   0  0  0  0  0  0  0  0  0  0  0  0
   -2.0010   25.3060  -29.1480 O   0  0  0  0  0  0  0  0  0  0  0  0
   -6.3010   22.0460  -31.5080 C   0  0  0  0  0  0  0  0  0  0  0  0
   -6.1910   20.7020  -31.8830 C   0  0  0  0  0  0  0  0  0  0  0  0
   -3.7815   19.1460  -32.7263 H   0  0  0  0  0  0  0  0  0  0  0  0
   -2.5820   19.4639  -34.0251 H   0  0  0  0  0  0  0  0  0  0  0  0
   -4.1563   20.3289  -34.0251 H   0  0  0  0  0  0  0  0  0  0  0  0
   -5.5308   15.9398  -32.8506 H   0  0  0  0  0  0  0  0  0  0  0  0
   -4.4025   17.2417  -32.2936 H   0  0  0  0  0  0  0  0  0  0  0  0
   -7.1608   16.8441  -31.5969 H   0  0  0  0  0  0  0  0  0  0  0  0
   -6.0192   18.1503  -31.0707 H   0  0  0  0  0  0  0  0  0  0  0  0
   -7.7580   18.3310  -33.5490 H   0  0  0  0  0  0  0  0  0  0  0  0
   -9.5077   20.1795  -32.6438 H   0  0  0  0  0  0  0  0  0  0  0  0
   -9.6303   22.6050  -31.9929 H   0  0  0  0  0  0  0  0  0  0  0  0
   -8.0352   24.8127  -31.1289 H   0  0  0  0  0  0  0  0  0  0  0  0
   -3.1210   25.2630  -30.3700 H   0  0  0  0  0  0  0  0  0  0  0  0
   -1.4839   22.0696  -29.3936 H   0  0  0  0  0  0  0  0  0  0  0  0
   -1.3310   23.0750  -30.8844 H   0  0  0  0  0  0  0  0  0  0  0  0
   -1.1168   23.8696  -27.9863 H   0  0  0  0  0  0  0  0  0  0  0  0
   -0.1753   24.4252  -29.4184 H   0  0  0  0  0  0  0  0  0  0  0  0
   -2.9370   24.9860  -29.0620 H   0  0  0  0  0  0  0  0  0  0  0  0
   -5.2179   20.1898  -31.8566 H   0  0  0  0  0  0  0  0  0  0  0  0
  1  2  1  0
  2  3  1  0
  3  4  2  0
  3  5  1  0
  5  6  1  0
  6  7  1  0
  7  8  1  0
  8  9  2  0
  9 10  1  0
 10 11  2  0
 11 12  1  0
 12 13  2  0
 13 14  1  0
 14 15  1  0
 14 16  2  0
 13 17  1  0
 17 18  1  0
 18 19  2  0
 18 20  1  0
 20 21  1  0
 21 22  1  0
 22 23  1  0
 17 24  1  0
 24 25  2  0
 25  8  1  0
 24 11  1  0
  1 26  1  0
  1 27  1  0
  1 28  1  0
  5 29  1  0
  5 30  1  0
  6 31  1  0
  6 32  1  0
  7 33  1  0
  9 34  1  0
 10 35  1  0
 12 36  1  0
 15 37  1  0
 21 38  1  0
 21 39  1  0
 22 40  1  0
 22 41  1  0
 23 42  1  0
 25 43  1  0
M  CHG  1  15  -1
M  END
>  <UniqueID>  (79) 
79

>  <SMILES>  (79) 
COC(=O)CCNc1ccc2cc(C([NH-])=O)n(C(=O)OCCO)c2c1

>  <Energy>  (79) 
72.31536459801916

>  <Genealogy>  (79) 
COC(=O)CCNc1ccc2cc(C([NH-])=O)n(C(=O)OCCO)c2c1 (protonated)
COC(=O)CCNc1ccc2cc(C([NH-])=O)n(C(=O)OCCO)c2c1 (3D coordinates assigned)
COC(=O)CCNc1ccc2cc(C([NH-])=O)n(C(=O)OCCO)c2c1 (optimized conformer: 72.31536459801916 kcal/mol)

>  <smiles>  (79) 
COC(=O)CCNc1ccc2cc(C(N)=O)n(C(=O)OCCO)c2c1

>  <score_type>  (79) 
oracle

>  <origin>  (79) 
adg

>  <m_score__min__energy>  (79) 
-9.9100000000000001

>  <m_primary>  (79) 
energy

$$$$
79:0
     RDKit          3D

 34 35  0  0  0  0  0  0  0  0999 V2000
   -3.1990   19.1400  -33.5870 C   0  0  0  0  0  0  0  0  0  0  0  0
   -4.3230   18.3170  -33.3010 O   0  0  0  0  0  0  0  0  0  0  0  0
   -5.5050   18.3690  -34.0480 C   0  0  0  0  0  0  0  0  0  0  0  0
   -5.4620   18.4140  -35.3080 O   0  0  0  0  0  0  0  0  0  0  0  0
   -6.8380   18.4260  -33.3510 C   0  0  1  0  0  0  0  0  0  0  0  0
   -6.9770   17.3040  -32.3130 C   0  0  0  0  0  0  0  0  0  0  0  0
   -7.0510   19.7870  -32.7190 C   0  0  0  0  0  0  0  0  0  0  0  0
   -8.3670   20.2390  -32.4460 C   0  0  0  0  0  0  0  0  0  0  0  0
   -8.5890   21.5020  -31.8750 C   0  0  0  0  0  0  0  0  0  0  0  0
   -7.4810   22.2880  -31.5770 C   0  0  0  0  0  0  0  0  0  0  0  0
   -7.4170   23.5590  -31.0540 C   0  0  0  0  0  0  0  0  0  0  0  0
   -6.0590   23.8570  -30.9830 C   0  0  0  0  0  0  0  0  0  0  0  0
   -5.5330   25.1170  -30.4210 C   0  0  0  0  0  0  0  0  0  0  0  0
   -4.2080   25.5610  -30.7100 N   0  0  0  0  0  0  0  0  0  0  0  0
   -6.2460   25.7840  -29.6240 O   0  0  0  0  0  0  0  0  0  0  0  0
   -5.3110   22.8200  -31.4550 N   0  0  0  0  0  0  0  0  0  0  0  0
   -3.8880   22.7870  -31.6540 C   0  0  0  0  0  0  0  0  0  0  0  0
   -3.1170   23.3360  -30.8220 O   0  0  0  0  0  0  0  0  0  0  0  0
   -3.3440   22.1500  -32.7620 O   0  0  0  0  0  0  0  0  0  0  0  0
   -6.1990   21.8640  -31.8110 C   0  0  0  0  0  0  0  0  0  0  0  0
   -5.9490   20.6190  -32.4010 C   0  0  0  0  0  0  0  0  0  0  0  0
   -2.7409   19.4754  -32.6448 H   0  0  0  0  0  0  0  0  0  0  0  0
   -2.4627   18.5659  -34.1687 H   0  0  0  0  0  0  0  0  0  0  0  0
   -3.5239   20.0152  -34.1687 H   0  0  0  0  0  0  0  0  0  0  0  0
   -7.6224   18.2713  -34.1065 H   0  0  0  0  0  0  0  0  0  0  0  0
   -6.9240   17.7320  -31.3011 H   0  0  0  0  0  0  0  0  0  0  0  0
   -7.9447   16.7983  -32.4470 H   0  0  0  0  0  0  0  0  0  0  0  0
   -6.1620   16.5775  -32.4470 H   0  0  0  0  0  0  0  0  0  0  0  0
   -9.2242   19.5922  -32.6845 H   0  0  0  0  0  0  0  0  0  0  0  0
   -9.6088   21.8594  -31.6694 H   0  0  0  0  0  0  0  0  0  0  0  0
   -8.2584   24.2018  -30.7559 H   0  0  0  0  0  0  0  0  0  0  0  0
   -3.5340   24.9490  -31.2220 H   0  0  0  0  0  0  0  0  0  0  0  0
   -3.8670   26.4750  -30.3360 H   0  0  0  0  0  0  0  0  0  0  0  0
   -4.9197   20.2940  -32.6130 H   0  0  0  0  0  0  0  0  0  0  0  0
  1  2  1  0
  2  3  1  0
  3  4  2  0
  3  5  1  0
  5  6  1  0
  5  7  1  0
  7  8  2  0
  8  9  1  0
  9 10  2  0
 10 11  1  0
 11 12  2  0
 12 13  1  0
 13 14  1  0
 13 15  2  0
 12 16  1  0
 16 17  1  0
 17 18  2  0
 17 19  1  0
 16 20  1  0
 20 21  2  0
 21  7  1  0
 20 10  1  0
  1 22  1  0
  1 23  1  0
  1 24  1  0
  5 25  1  6
  6 26  1  0
  6 27  1  0
  6 28  1  0
  8 29  1  0
  9 30  1  0
 11 31  1  0
 14 32  1  0
 14 33  1  0
 21 34  1  0
M  CHG  1  19  -1
M  END
>  <UniqueID>  (80) 
80

>  <SMILES>  (80) 
COC(=O)[C@@H](C)c1ccc2cc(C(N)=O)n(C(=O)[O-])c2c1

>  <Energy>  (80) 
70.0149029272081

>  <Genealogy>  (80) 
COC(=O)C(C)c1ccc2cc(C(N)=O)n(C(=O)[O-])c2c1 (protonated)
COC(=O)[C@@H](C)c1ccc2cc(C(N)=O)n(C(=O)[O-])c2c1 (chirality)
COC(=O)[C@@H](C)c1ccc2cc(C(N)=O)n(C(=O)[O-])c2c1 (3D coordinates assigned)
COC(=O)[C@@H](C)c1ccc2cc(C(N)=O)n(C(=O)[O-])c2c1 (optimized conformer: 70.0149029272081 kcal/mol)

>  <smiles>  (80) 
COC(=O)C(C)c1ccc2cc(C(N)=O)n(C(=O)O)c2c1

>  <score_type>  (80) 
oracle

>  <origin>  (80) 
adg

>  <m_score__min__energy>  (80) 
-8.6999999999999993

>  <m_primary>  (80) 
energy

$$$$
80:0
     RDKit          3D

 52 54  0  0  0  0  0  0  0  0999 V2000
   -4.2230   22.8310  -27.5910 C   0  0  0  0  0  0  0  0  0  0  0  0
   -3.0270   23.4820  -28.2040 C   0  0  0  0  0  0  0  0  0  0  0  0
   -2.6010   24.6890  -27.9140 O   0  0  0  0  0  0  0  0  0  0  0  0
   -1.5320   24.8800  -28.6530 C   0  0  0  0  0  0  0  0  0  0  0  0
   -0.8490   25.9370  -28.6320 O   0  0  0  0  0  0  0  0  0  0  0  0
   -1.2500   23.8450  -29.4090 O   0  0  0  0  0  0  0  0  0  0  0  0
   -2.1730   22.9490  -29.1530 C   0  0  0  0  0  0  0  0  0  0  0  0
   -2.2290   21.5890  -29.7760 C   0  0  0  0  0  0  0  0  0  0  0  0
   -3.4920   21.3930  -30.4020 O   0  0  0  0  0  0  0  0  0  0  0  0
   -4.0190   22.2720  -31.3550 C   0  0  0  0  0  0  0  0  0  0  0  0
   -3.3000   22.6840  -32.3060 O   0  0  0  0  0  0  0  0  0  0  0  0
   -5.3790   22.7200  -31.2370 N   0  0  0  0  0  0  0  0  0  0  0  0
   -5.8260   23.9400  -30.8240 C   0  0  0  0  0  0  0  0  0  0  0  0
   -4.9880   25.1230  -30.5380 C   0  0  0  0  0  0  0  0  0  0  0  0
   -3.5890   25.1130  -30.8090 N   0  0  0  0  0  0  0  0  0  0  0  0
   -5.5250   26.1750  -30.1000 O   0  0  0  0  0  0  0  0  0  0  0  0
   -7.2190   23.9690  -30.8050 C   0  0  0  0  0  0  0  0  0  0  0  0
   -7.6160   22.7250  -31.2390 C   0  0  0  0  0  0  0  0  0  0  0  0
   -8.8950   22.2140  -31.4430 C   0  0  0  0  0  0  0  0  0  0  0  0
   -9.0100   20.8980  -31.9180 C   0  0  0  0  0  0  0  0  0  0  0  0
   -7.8540   20.1120  -32.1560 C   0  0  0  0  0  0  0  0  0  0  0  0
   -7.9790   18.7200  -32.7080 C   0  0  0  0  0  0  0  0  0  0  0  0
   -6.9550   17.8280  -32.0800 C   0  0  0  0  0  0  0  0  0  0  0  0
   -6.8440   17.7910  -30.8240 O   0  0  0  0  0  0  0  0  0  0  0  0
   -6.1600   17.0160  -32.8980 O   0  0  0  0  0  0  0  0  0  0  0  0
   -6.2920   16.9450  -34.3190 C   0  0  0  0  0  0  0  0  0  0  0  0
   -5.2760   17.8660  -35.0050 C   0  0  2  0  0  0  0  0  0  0  0  0
   -3.8610   17.2810  -34.9570 C   0  0  0  0  0  0  0  0  0  0  0  0
   -5.2960   19.1340  -34.3500 O   0  0  0  0  0  0  0  0  0  0  0  0
   -4.2980   19.5370  -33.4860 N   0  0  0  0  0  0  0  0  0  0  0  0
   -3.5310   20.4590  -33.8230 O   0  0  0  0  0  0  0  0  0  0  0  0
   -4.1050   18.9040  -32.2790 O   0  0  0  0  0  0  0  0  0  0  0  0
   -6.5730   20.6610  -31.9220 C   0  0  0  0  0  0  0  0  0  0  0  0
   -6.4880   21.9880  -31.4880 C   0  0  0  0  0  0  0  0  0  0  0  0
   -4.1427   22.8747  -26.4948 H   0  0  0  0  0  0  0  0  0  0  0  0
   -5.1330   23.3582  -27.9133 H   0  0  0  0  0  0  0  0  0  0  0  0
   -4.2742   21.7805  -27.9133 H   0  0  0  0  0  0  0  0  0  0  0  0
   -1.4315   21.4997  -30.5284 H   0  0  0  0  0  0  0  0  0  0  0  0
   -2.0909   20.8274  -28.9944 H   0  0  0  0  0  0  0  0  0  0  0  0
   -2.8930   25.2660  -30.0450 H   0  0  0  0  0  0  0  0  0  0  0  0
   -7.8644   24.8083  -30.5064 H   0  0  0  0  0  0  0  0  0  0  0  0
   -9.7880   22.8228  -31.2382 H   0  0  0  0  0  0  0  0  0  0  0  0
  -10.0065   20.4724  -32.1074 H   0  0  0  0  0  0  0  0  0  0  0  0
   -8.9844   18.3305  -32.4903 H   0  0  0  0  0  0  0  0  0  0  0  0
   -7.8173   18.7464  -33.7957 H   0  0  0  0  0  0  0  0  0  0  0  0
   -6.1188   15.9092  -34.6463 H   0  0  0  0  0  0  0  0  0  0  0  0
   -7.3060   17.2687  -34.5963 H   0  0  0  0  0  0  0  0  0  0  0  0
   -5.5550   17.9723  -36.0637 H   0  0  0  0  0  0  0  0  0  0  0  0
   -3.5524   17.1534  -33.9089 H   0  0  0  0  0  0  0  0  0  0  0  0
   -3.8504   16.3048  -35.4638 H   0  0  0  0  0  0  0  0  0  0  0  0
   -3.1642   17.9648  -35.4638 H   0  0  0  0  0  0  0  0  0  0  0  0
   -5.6651   20.0596  -32.0773 H   0  0  0  0  0  0  0  0  0  0  0  0
  1  2  1  0
  2  3  1  0
  3  4  1  0
  4  5  2  0
  4  6  1  0
  6  7  1  0
  7  8  1  0
  8  9  1  0
  9 10  1  0
 10 11  2  0
 10 12  1  0
 12 13  1  0
 13 14  1  0
 14 15  1  0
 14 16  2  0
 13 17  2  0
 17 18  1  0
 18 19  2  0
 19 20  1  0
 20 21  2  0
 21 22  1  0
 22 23  1  0
 23 24  2  0
 23 25  1  0
 25 26  1  0
 26 27  1  0
 27 28  1  0
 27 29  1  0
 29 30  1  0
 30 31  2  0
 30 32  1  0
 21 33  1  0
 33 34  2  0
  7  2  2  0
 34 12  1  0
 34 18  1  0
  1 35  1  0
  1 36  1  0
  1 37  1  0
  8 38  1  0
  8 39  1  0
 15 40  1  0
 17 41  1  0
 19 42  1  0
 20 43  1  0
 22 44  1  0
 22 45  1  0
 26 46  1  0
 26 47  1  0
 27 48  1  6
 28 49  1  0
 28 50  1  0
 28 51  1  0
 33 52  1  0
M  CHG  3  15  -1  30   1  32  -1
M  END
>  <UniqueID>  (81) 
81

>  <SMILES>  (81) 
Cc1oc(=O)oc1COC(=O)n1c(C([NH-])=O)cc2ccc(CC(=O)OC[C@H](C)O[N+](=O)[O-])cc21

>  <Energy>  (81) 
112.50650574620698

>  <Genealogy>  (81) 
Cc1oc(=O)oc1COC(=O)n1c(C([NH-])=O)cc2ccc(CC(=O)OC[C@H](C)O[N+](=O)[O-])cc21 (protonated)
Cc1oc(=O)oc1COC(=O)n1c(C([NH-])=O)cc2ccc(CC(=O)OC[C@H](C)O[N+](=O)[O-])cc21 (3D coordinates assigned)
Cc1oc(=O)oc1COC(=O)n1c(C([NH-])=O)cc2ccc(CC(=O)OC[C@H](C)O[N+](=O)[O-])cc21 (optimized conformer: 112.50650574620698 kcal/mol)

>  <smiles>  (81) 
Cc1oc(=O)oc1COC(=O)n1c(C(N)=O)cc2ccc(CC(=O)OC[C@H](C)O[N+](=O)[O-])cc21

>  <score_type>  (81) 
oracle

>  <origin>  (81) 
adg

>  <m_score__min__energy>  (81) 
-11.289999999999999

>  <m_primary>  (81) 
energy

$$$$
81:0
     RDKit          3D

 41 43  0  0  0  0  0  0  0  0999 V2000
   -3.5130   22.3430  -27.8980 C   0  0  0  0  0  0  0  0  0  0  0  0
   -3.0160   21.5770  -28.8760 C   0  0  0  0  0  0  0  0  0  0  0  0
   -1.8600   22.0360  -29.7140 C   0  0  0  0  0  0  0  0  0  0  0  0
   -2.3380   22.8630  -30.7700 O   0  0  0  0  0  0  0  0  0  0  0  0
   -3.1600   22.3830  -31.7930 C   0  0  0  0  0  0  0  0  0  0  0  0
   -2.6550   21.9340  -32.8580 O   0  0  0  0  0  0  0  0  0  0  0  0
   -4.5870   22.4050  -31.6260 N   0  0  0  0  0  0  0  0  0  0  0  0
   -5.3330   23.3720  -31.0190 C   0  0  0  0  0  0  0  0  0  0  0  0
   -4.8060   24.5340  -30.2740 C   0  0  0  0  0  0  0  0  0  0  0  0
   -5.2790   24.8530  -28.9650 N   0  0  0  0  0  0  0  0  0  0  0  0
   -3.9670   25.2930  -30.8300 O   0  0  0  0  0  0  0  0  0  0  0  0
   -6.6940   23.1050  -31.1580 C   0  0  0  0  0  0  0  0  0  0  0  0
   -6.7620   21.9270  -31.8680 C   0  0  0  0  0  0  0  0  0  0  0  0
   -7.8730   21.2150  -32.3110 C   0  0  0  0  0  0  0  0  0  0  0  0
   -7.6520   20.0590  -33.0780 C   0  0  0  0  0  0  0  0  0  0  0  0
   -6.3320   19.6410  -33.3910 C   0  0  0  0  0  0  0  0  0  0  0  0
   -6.1110   18.4300  -34.2620 C   0  0  0  0  0  0  0  0  0  0  0  0
   -6.0580   17.1240  -33.4450 C   0  0  0  0  0  0  0  0  0  0  0  0
   -6.1110   17.2230  -31.9740 C   0  0  0  0  0  0  0  0  0  0  0  0
   -6.1590   17.3050  -30.8200 N   0  0  0  0  0  0  0  0  0  0  0  0
   -6.7920   15.9220  -34.0400 C   0  0  0  0  0  0  0  0  0  0  0  0
   -5.2690   15.9300  -33.9900 C   0  0  0  0  0  0  0  0  0  0  0  0
   -5.2260   20.3880  -32.9210 C   0  0  0  0  0  0  0  0  0  0  0  0
   -5.4770   21.5260  -32.1420 C   0  0  0  0  0  0  0  0  0  0  0  0
   -4.3615   21.9851  -27.2964 H   0  0  0  0  0  0  0  0  0  0  0  0
   -3.0731   23.3307  -27.6956 H   0  0  0  0  0  0  0  0  0  0  0  0
   -3.4641   20.5912  -29.0692 H   0  0  0  0  0  0  0  0  0  0  0  0
   -1.1585   22.6081  -29.0891 H   0  0  0  0  0  0  0  0  0  0  0  0
   -1.3444   21.1616  -30.1378 H   0  0  0  0  0  0  0  0  0  0  0  0
   -6.1210   24.3820  -28.5670 H   0  0  0  0  0  0  0  0  0  0  0  0
   -4.8790   25.6680  -28.4530 H   0  0  0  0  0  0  0  0  0  0  0  0
   -7.5342   23.7067  -30.7811 H   0  0  0  0  0  0  0  0  0  0  0  0
   -8.8930   21.5474  -32.0679 H   0  0  0  0  0  0  0  0  0  0  0  0
   -8.5096   19.4724  -33.4393 H   0  0  0  0  0  0  0  0  0  0  0  0
   -6.9353   18.3605  -34.9871 H   0  0  0  0  0  0  0  0  0  0  0  0
   -5.1412   18.5509  -34.7668 H   0  0  0  0  0  0  0  0  0  0  0  0
   -7.3597   15.2453  -33.3844 H   0  0  0  0  0  0  0  0  0  0  0  0
   -7.5422   15.7848  -34.8327 H   0  0  0  0  0  0  0  0  0  0  0  0
   -4.7380   15.2598  -33.2980 H   0  0  0  0  0  0  0  0  0  0  0  0
   -4.4661   15.8015  -34.7308 H   0  0  0  0  0  0  0  0  0  0  0  0
   -4.1964   20.0837  -33.1606 H   0  0  0  0  0  0  0  0  0  0  0  0
  1  2  2  0
  2  3  1  0
  3  4  1  0
  4  5  1  0
  5  6  2  0
  5  7  1  0
  7  8  1  0
  8  9  1  0
  9 10  1  0
  9 11  2  0
  8 12  2  0
 12 13  1  0
 13 14  2  0
 14 15  1  0
 15 16  2  0
 16 17  1  0
 17 18  1  0
 18 19  1  0
 19 20  3  0
 18 21  1  0
 21 22  1  0
 16 23  1  0
 23 24  2  0
 24  7  1  0
 24 13  1  0
 22 18  1  0
  1 25  1  0
  1 26  1  0
  2 27  1  0
  3 28  1  0
  3 29  1  0
 10 30  1  0
 10 31  1  0
 12 32  1  0
 14 33  1  0
 15 34  1  0
 17 35  1  0
 17 36  1  0
 21 37  1  0
 21 38  1  0
 22 39  1  0
 22 40  1  0
 23 41  1  0
M  END
>  <UniqueID>  (82) 
82

>  <SMILES>  (82) 
C=CCOC(=O)n1c(C(N)=O)cc2ccc(CC3(C#N)CC3)cc21

>  <Energy>  (82) 
342.6671358418807

>  <Genealogy>  (82) 
C=CCOC(=O)n1c(C(N)=O)cc2ccc(CC3(C#N)CC3)cc21 (3D coordinates assigned)
C=CCOC(=O)n1c(C(N)=O)cc2ccc(CC3(C#N)CC3)cc21 (nonaromatic ring conformer: 342.6671358418807 kcal/mol)

>  <smiles>  (82) 
C=CCOC(=O)n1c(C(N)=O)cc2ccc(CC3(C#N)CC3)cc21

>  <score_type>  (82) 
oracle

>  <origin>  (82) 
adg

>  <m_score__min__energy>  (82) 
-9.2100000000000009

>  <m_primary>  (82) 
energy

$$$$
82:0
     RDKit          3D

 38 40  0  0  0  0  0  0  0  0999 V2000
   -4.0010   22.9510  -28.2000 C   0  0  0  0  0  0  0  0  0  0  0  0
   -2.8240   22.4920  -29.0530 C   0  0  0  0  0  0  0  0  0  0  0  0
   -2.8300   23.1550  -30.3160 O   0  0  0  0  0  0  0  0  0  0  0  0
   -3.6000   22.7310  -31.4060 C   0  0  0  0  0  0  0  0  0  0  0  0
   -3.0420   22.2740  -32.4410 O   0  0  0  0  0  0  0  0  0  0  0  0
   -5.0310   22.8330  -31.3510 N   0  0  0  0  0  0  0  0  0  0  0  0
   -5.7770   23.9230  -31.0120 C   0  0  0  0  0  0  0  0  0  0  0  0
   -5.2560   25.1970  -30.4740 C   0  0  0  0  0  0  0  0  0  0  0  0
   -3.9540   25.6440  -30.8450 N   0  0  0  0  0  0  0  0  0  0  0  0
   -5.9620   25.9150  -29.7180 O   0  0  0  0  0  0  0  0  0  0  0  0
   -7.1360   23.6520  -31.1630 C   0  0  0  0  0  0  0  0  0  0  0  0
   -7.2010   22.3500  -31.6020 C   0  0  0  0  0  0  0  0  0  0  0  0
   -8.3070   21.5680  -31.9270 C   0  0  0  0  0  0  0  0  0  0  0  0
   -8.0760   20.2600  -32.3850 C   0  0  0  0  0  0  0  0  0  0  0  0
   -6.7570   19.7670  -32.5150 C   0  0  0  0  0  0  0  0  0  0  0  0
   -6.5350   18.4390  -32.9940 N   0  0  0  0  0  0  0  0  0  0  0  0
   -6.1130   17.7900  -34.2510 C   0  0  0  0  0  0  0  0  0  0  0  0
   -6.1920   16.3860  -33.7330 C   0  0  0  0  0  0  0  0  0  0  0  0
   -7.2060   15.6090  -34.3310 O   0  0  0  0  0  0  0  0  0  0  0  0
   -6.6120   17.0630  -32.4640 C   0  0  0  0  0  0  0  0  0  0  0  0
   -5.6590   20.5840  -32.1780 C   0  0  0  0  0  0  0  0  0  0  0  0
   -5.9180   21.8780  -31.7080 C   0  0  0  0  0  0  0  0  0  0  0  0
   -3.7434   22.8506  -27.1353 H   0  0  0  0  0  0  0  0  0  0  0  0
   -4.2281   24.0036  -28.4246 H   0  0  0  0  0  0  0  0  0  0  0  0
   -4.8808   22.3301  -28.4246 H   0  0  0  0  0  0  0  0  0  0  0  0
   -1.8854   22.7230  -28.5280 H   0  0  0  0  0  0  0  0  0  0  0  0
   -2.9095   21.4083  -29.2212 H   0  0  0  0  0  0  0  0  0  0  0  0
   -3.1040   25.2940  -30.3500 H   0  0  0  0  0  0  0  0  0  0  0  0
   -7.9774   24.3342  -30.9718 H   0  0  0  0  0  0  0  0  0  0  0  0
   -9.3292   21.9622  -31.8282 H   0  0  0  0  0  0  0  0  0  0  0  0
   -8.9279   19.6143  -32.6445 H   0  0  0  0  0  0  0  0  0  0  0  0
   -6.8100   17.9770  -35.0812 H   0  0  0  0  0  0  0  0  0  0  0  0
   -5.1557   18.1122  -34.6866 H   0  0  0  0  0  0  0  0  0  0  0  0
   -5.3699   15.6583  -33.8002 H   0  0  0  0  0  0  0  0  0  0  0  0
   -7.3800   15.9500  -35.2490 H   0  0  0  0  0  0  0  0  0  0  0  0
   -7.6286   16.7845  -32.1495 H   0  0  0  0  0  0  0  0  0  0  0  0
   -6.0293   16.8396  -31.5581 H   0  0  0  0  0  0  0  0  0  0  0  0
   -4.6276   20.2158  -32.2812 H   0  0  0  0  0  0  0  0  0  0  0  0
  1  2  1  0
  2  3  1  0
  3  4  1  0
  4  5  2  0
  4  6  1  0
  6  7  1  0
  7  8  1  0
  8  9  1  0
  8 10  2  0
  7 11  2  0
 11 12  1  0
 12 13  2  0
 13 14  1  0
 14 15  2  0
 15 16  1  0
 16 17  1  0
 17 18  1  0
 18 19  1  0
 18 20  1  0
 15 21  1  0
 21 22  2  0
 22  6  1  0
 22 12  1  0
 20 16  1  0
  1 23  1  0
  1 24  1  0
  1 25  1  0
  2 26  1  0
  2 27  1  0
  9 28  1  0
 11 29  1  0
 13 30  1  0
 14 31  1  0
 17 32  1  0
 17 33  1  0
 18 34  1  0
 19 35  1  0
 20 36  1  0
 20 37  1  0
 21 38  1  0
M  CHG  1   9  -1
M  END
>  <UniqueID>  (83) 
83

>  <SMILES>  (83) 
CCOC(=O)n1c(C([NH-])=O)cc2ccc(N3CC(O)C3)cc21

>  <Energy>  (83) 
120.59333026145593

>  <Genealogy>  (83) 
CCOC(=O)n1c(C([NH-])=O)cc2ccc(N3CC(O)C3)cc21 (protonated)
CCOC(=O)n1c(C([NH-])=O)cc2ccc(N3CC(O)C3)cc21 (3D coordinates assigned)
CCOC(=O)n1c(C([NH-])=O)cc2ccc(N3CC(O)C3)cc21 (nonaromatic ring conformer: 120.59333026145593 kcal/mol)

>  <smiles>  (83) 
CCOC(=O)n1c(C(N)=O)cc2ccc(N3CC(O)C3)cc21

>  <score_type>  (83) 
oracle

>  <origin>  (83) 
adg

>  <m_score__min__energy>  (83) 
-9.4800000000000004

>  <m_primary>  (83) 
energy

$$$$
83:0
     RDKit          3D

 43 44  0  0  0  0  0  0  0  0999 V2000
   -4.3100   16.4130  -33.4560 N   0  0  0  0  0  0  0  0  0  0  0  0
   -5.7300   16.5330  -33.5620 C   0  0  0  0  0  0  0  0  0  0  0  0
   -6.3930   15.5680  -34.0260 O   0  0  0  0  0  0  0  0  0  0  0  0
   -6.4140   17.7860  -33.1700 C   0  0  0  0  0  0  0  0  0  0  0  0
   -7.7410   17.8490  -32.7510 C   0  0  0  0  0  0  0  0  0  0  0  0
   -7.9490   19.1610  -32.3930 C   0  0  0  0  0  0  0  0  0  0  0  0
   -9.0980   19.7860  -31.9190 C   0  0  0  0  0  0  0  0  0  0  0  0
   -9.0380   21.1660  -31.6610 C   0  0  0  0  0  0  0  0  0  0  0  0
   -7.8410   21.8920  -31.8880 C   0  0  0  0  0  0  0  0  0  0  0  0
   -7.7990   23.3800  -31.6590 C   0  0  0  0  0  0  0  0  0  0  0  0
   -6.4480   23.9930  -32.0640 C   0  0  0  0  0  0  0  0  0  0  0  0
   -5.3260   23.7620  -31.0180 C   0  0  1  0  0  0  0  0  0  0  0  0
   -4.1410   23.4130  -31.6870 O   0  0  0  0  0  0  0  0  0  0  0  0
   -5.0700   25.0170  -30.1660 C   0  0  0  0  0  0  0  0  0  0  0  0
   -3.9230   25.6850  -30.6120 O   0  0  0  0  0  0  0  0  0  0  0  0
   -6.6940   21.2210  -32.3660 C   0  0  0  0  0  0  0  0  0  0  0  0
   -6.7780   19.8430  -32.5980 C   0  0  0  0  0  0  0  0  0  0  0  0
   -5.8250   19.0120  -33.0760 N   0  0  0  0  0  0  0  0  0  0  0  0
   -4.4910   19.3770  -33.4650 C   0  0  0  0  0  0  0  0  0  0  0  0
   -3.9380   18.7970  -34.4390 O   0  0  0  0  0  0  0  0  0  0  0  0
   -3.8190   20.3920  -32.7730 O   0  0  0  0  0  0  0  0  0  0  0  0
   -2.9540   21.3390  -33.3990 C   0  0  0  0  0  0  0  0  0  0  0  0
   -1.5010   20.8700  -33.3410 C   0  0  0  0  0  0  0  0  0  0  0  0
   -0.8440   21.1900  -34.5140 F   0  0  0  0  0  0  0  0  0  0  0  0
   -1.4580   19.4990  -33.1550 F   0  0  0  0  0  0  0  0  0  0  0  0
   -0.8600   21.4880  -32.2840 F   0  0  0  0  0  0  0  0  0  0  0  0
   -3.8330   15.5390  -33.7730 H   0  0  0  0  0  0  0  0  0  0  0  0
   -3.7310   17.1680  -33.0260 H   0  0  0  0  0  0  0  0  0  0  0  0
   -8.4683   17.0246  -32.7142 H   0  0  0  0  0  0  0  0  0  0  0  0
  -10.0247   19.2175  -31.7514 H   0  0  0  0  0  0  0  0  0  0  0  0
   -9.9278   21.6881  -31.2794 H   0  0  0  0  0  0  0  0  0  0  0  0
   -8.5947   23.8524  -32.2537 H   0  0  0  0  0  0  0  0  0  0  0  0
   -7.9422   23.5599  -30.5833 H   0  0  0  0  0  0  0  0  0  0  0  0
   -6.1333   23.5434  -33.0173 H   0  0  0  0  0  0  0  0  0  0  0  0
   -6.5967   25.0799  -32.1447 H   0  0  0  0  0  0  0  0  0  0  0  0
   -5.6493   22.9541  -30.3451 H   0  0  0  0  0  0  0  0  0  0  0  0
   -3.5100   24.1740  -31.5790 H   0  0  0  0  0  0  0  0  0  0  0  0
   -5.9356   25.6912  -30.2448 H   0  0  0  0  0  0  0  0  0  0  0  0
   -4.9212   24.7131  -29.1193 H   0  0  0  0  0  0  0  0  0  0  0  0
   -3.9600   25.6670  -31.6030 H   0  0  0  0  0  0  0  0  0  0  0  0
   -5.7576   21.7677  -32.5515 H   0  0  0  0  0  0  0  0  0  0  0  0
   -3.2522   21.4591  -34.4510 H   0  0  0  0  0  0  0  0  0  0  0  0
   -3.0361   22.2973  -32.8652 H   0  0  0  0  0  0  0  0  0  0  0  0
  1  2  1  0
  2  3  2  0
  2  4  1  0
  4  5  2  0
  5  6  1  0
  6  7  2  0
  7  8  1  0
  8  9  2  0
  9 10  1  0
 10 11  1  0
 11 12  1  0
 12 13  1  0
 12 14  1  0
 14 15  1  0
  9 16  1  0
 16 17  2  0
 17 18  1  0
 18 19  1  0
 19 20  2  0
 19 21  1  0
 21 22  1  0
 22 23  1  0
 23 24  1  0
 23 25  1  0
 23 26  1  0
 18  4  1  0
 17  6  1  0
  1 27  1  0
  1 28  1  0
  5 29  1  0
  7 30  1  0
  8 31  1  0
 10 32  1  0
 10 33  1  0
 11 34  1  0
 11 35  1  0
 12 36  1  1
 13 37  1  0
 14 38  1  0
 14 39  1  0
 15 40  1  0
 16 41  1  0
 22 42  1  0
 22 43  1  0
M  END
>  <UniqueID>  (84) 
84

>  <SMILES>  (84) 
NC(=O)c1cc2ccc(CC[C@@H](O)CO)cc2n1C(=O)OCC(F)(F)F

>  <Energy>  (84) 
75.3475152579384

>  <Genealogy>  (84) 
NC(=O)c1cc2ccc(CC[C@@H](O)CO)cc2n1C(=O)OCC(F)(F)F (3D coordinates assigned)
NC(=O)c1cc2ccc(CC[C@@H](O)CO)cc2n1C(=O)OCC(F)(F)F (optimized conformer: 75.3475152579384 kcal/mol)

>  <smiles>  (84) 
NC(=O)c1cc2ccc(CC[C@@H](O)CO)cc2n1C(=O)OCC(F)(F)F

>  <score_type>  (84) 
oracle

>  <origin>  (84) 
adg

>  <m_score__min__energy>  (84) 
-8.2599999999999998

>  <m_primary>  (84) 
energy

$$$$
84:0
     RDKit          3D

 65 66  0  0  0  0  0  0  0  0999 V2000
   -8.5140   21.9510  -30.0960 C   0  0  0  0  0  0  0  0  0  0  0  0
   -8.5480   22.0210  -31.6020 C   0  0  0  0  0  0  0  0  0  0  0  0
   -9.5370   21.1470  -32.3300 C   0  0  0  0  0  0  0  0  0  0  0  0
   -7.6940   22.7960  -32.3070 C   0  0  0  0  0  0  0  0  0  0  0  0
   -6.6750   23.7250  -31.6890 C   0  0  0  0  0  0  0  0  0  0  0  0
   -5.6310   22.9540  -30.8840 C   0  0  0  0  0  0  0  0  0  0  0  0
   -4.3240   23.2990  -31.3310 O   0  0  0  0  0  0  0  0  0  0  0  0
   -3.3770   23.9140  -30.5070 C   0  0  0  0  0  0  0  0  0  0  0  0
   -3.5190   25.1210  -30.1670 O   0  0  0  0  0  0  0  0  0  0  0  0
   -2.2260   23.1740  -30.0660 N   0  0  0  0  0  0  0  0  0  0  0  0
   -1.3690   23.4980  -29.0560 C   0  0  0  0  0  0  0  0  0  0  0  0
   -1.3280   24.7830  -28.3280 C   0  0  0  0  0  0  0  0  0  0  0  0
   -1.2610   26.0210  -29.0290 N   0  0  0  0  0  0  0  0  0  0  0  0
   -1.2940   24.7840  -27.0690 O   0  0  0  0  0  0  0  0  0  0  0  0
   -0.4500   22.4710  -28.8440 C   0  0  0  0  0  0  0  0  0  0  0  0
   -0.7630   21.5050  -29.7710 C   0  0  0  0  0  0  0  0  0  0  0  0
   -0.1720   20.2650  -30.0030 C   0  0  0  0  0  0  0  0  0  0  0  0
   -0.7150   19.4570  -31.0170 C   0  0  0  0  0  0  0  0  0  0  0  0
   -1.8320   19.8990  -31.7620 C   0  0  0  0  0  0  0  0  0  0  0  0
   -2.3720   19.0670  -32.8050 C   0  0  0  0  0  0  0  0  0  0  0  0
   -2.8200   18.3760  -33.6850 C   0  0  0  0  0  0  0  0  0  0  0  0
   -3.3640   17.5270  -34.7450 C   0  0  0  0  0  0  0  0  0  0  0  0
   -4.7180   17.8560  -34.9330 O   0  0  0  0  0  0  0  0  0  0  0  0
   -5.6920   17.2290  -33.6350 Si  0  0  0  0  0  4  0  0  0  0  0  0
   -6.9430   16.0630  -34.3910 C   0  0  0  0  0  0  0  0  0  0  0  0
   -4.7110   16.2250  -32.3840 C   0  0  0  0  0  0  0  0  0  0  0  0
   -6.5830   18.6770  -32.7800 C   0  0  0  0  0  0  0  0  0  0  0  0
   -7.9530   18.2040  -32.2640 C   0  0  0  0  0  0  0  0  0  0  0  0
   -5.7370   19.1650  -31.5920 C   0  0  0  0  0  0  0  0  0  0  0  0
   -6.7810   19.8320  -33.7780 C   0  0  0  0  0  0  0  0  0  0  0  0
   -2.4120   21.1560  -31.4980 C   0  0  0  0  0  0  0  0  0  0  0  0
   -1.8380   21.9510  -30.4970 C   0  0  0  0  0  0  0  0  0  0  0  0
   -8.9582   22.8656  -29.6763 H   0  0  0  0  0  0  0  0  0  0  0  0
   -9.0874   21.0758  -29.7566 H   0  0  0  0  0  0  0  0  0  0  0  0
   -7.4716   21.8606  -29.7566 H   0  0  0  0  0  0  0  0  0  0  0  0
  -10.1529   20.6027  -31.5990 H   0  0  0  0  0  0  0  0  0  0  0  0
  -10.1847   21.7732  -32.9612 H   0  0  0  0  0  0  0  0  0  0  0  0
   -8.9952   20.4272  -32.9612 H   0  0  0  0  0  0  0  0  0  0  0  0
   -7.7442   22.7471  -33.4048 H   0  0  0  0  0  0  0  0  0  0  0  0
   -6.1682   24.2833  -32.4899 H   0  0  0  0  0  0  0  0  0  0  0  0
   -7.2006   24.4095  -31.0069 H   0  0  0  0  0  0  0  0  0  0  0  0
   -5.7312   23.2081  -29.8184 H   0  0  0  0  0  0  0  0  0  0  0  0
   -5.7892   21.8746  -31.0248 H   0  0  0  0  0  0  0  0  0  0  0  0
   -1.2560   26.0490  -30.0720 H   0  0  0  0  0  0  0  0  0  0  0  0
    0.3545   22.4402  -28.0944 H   0  0  0  0  0  0  0  0  0  0  0  0
    0.6923   19.9288  -29.4114 H   0  0  0  0  0  0  0  0  0  0  0  0
   -0.2681   18.4751  -31.2320 H   0  0  0  0  0  0  0  0  0  0  0  0
   -2.8081   17.6979  -35.6786 H   0  0  0  0  0  0  0  0  0  0  0  0
   -3.2703   16.4678  -34.4633 H   0  0  0  0  0  0  0  0  0  0  0  0
   -7.4951   15.5484  -33.5907 H   0  0  0  0  0  0  0  0  0  0  0  0
   -7.6473   16.6343  -35.0135 H   0  0  0  0  0  0  0  0  0  0  0  0
   -6.4226   15.3203  -35.0135 H   0  0  0  0  0  0  0  0  0  0  0  0
   -5.0019   16.5227  -31.3658 H   0  0  0  0  0  0  0  0  0  0  0  0
   -4.9210   15.1548  -32.5272 H   0  0  0  0  0  0  0  0  0  0  0  0
   -3.6362   16.4101  -32.5272 H   0  0  0  0  0  0  0  0  0  0  0  0
   -7.9507   18.2048  -31.1640 H   0  0  0  0  0  0  0  0  0  0  0  0
   -8.7370   18.8835  -32.6295 H   0  0  0  0  0  0  0  0  0  0  0  0
   -8.1508   17.1855  -32.6295 H   0  0  0  0  0  0  0  0  0  0  0  0
   -6.2292   18.8811  -30.6502 H   0  0  0  0  0  0  0  0  0  0  0  0
   -4.7396   18.7035  -31.6381 H   0  0  0  0  0  0  0  0  0  0  0  0
   -5.6371   20.2595  -31.6381 H   0  0  0  0  0  0  0  0  0  0  0  0
   -6.9418   20.7699  -33.2262 H   0  0  0  0  0  0  0  0  0  0  0  0
   -5.8861   19.9275  -34.4105 H   0  0  0  0  0  0  0  0  0  0  0  0
   -7.6566   19.6240  -34.4105 H   0  0  0  0  0  0  0  0  0  0  0  0
   -3.2904   21.5032  -32.0618 H   0  0  0  0  0  0  0  0  0  0  0  0
  1  2  1  0
  2  3  1  0
  2  4  2  3
  4  5  1  0
  5  6  1  0
  6  7  1  0
  7  8  1  0
  8  9  2  0
  8 10  1  0
 10 11  1  0
 11 12  1  0
 12 13  1  0
 12 14  2  0
 11 15  2  0
 15 16  1  0
 16 17  2  0
 17 18  1  0
 18 19  2  0
 19 20  1  0
 20 21  3  0
 21 22  1  0
 22 23  1  0
 23 24  1  0
 24 25  1  0
 24 26  1  0
 24 27  1  0
 27 28  1  0
 27 29  1  0
 27 30  1  0
 19 31  1  0
 31 32  2  0
 32 10  1  0
 32 16  1  0
  1 33  1  0
  1 34  1  0
  1 35  1  0
  3 36  1  0
  3 37  1  0
  3 38  1  0
  4 39  1  0
  5 40  1  0
  5 41  1  0
  6 42  1  0
  6 43  1  0
 13 44  1  0
 15 45  1  0
 17 46  1  0
 18 47  1  0
 22 48  1  0
 22 49  1  0
 25 50  1  0
 25 51  1  0
 25 52  1  0
 26 53  1  0
 26 54  1  0
 26 55  1  0
 28 56  1  0
 28 57  1  0
 28 58  1  0
 29 59  1  0
 29 60  1  0
 29 61  1  0
 30 62  1  0
 30 63  1  0
 30 64  1  0
 31 65  1  0
M  CHG  1  13  -1
M  END
>  <UniqueID>  (85) 
85

>  <SMILES>  (85) 
CC(C)=CCCOC(=O)n1c(C([NH-])=O)cc2ccc(C#CCO[Si](C)(C)C(C)(C)C)cc21

>  <Energy>  (85) 
74.54311957459052

>  <Genealogy>  (85) 
CC(C)=CCCOC(=O)n1c(C([NH-])=O)cc2ccc(C#CCO[Si](C)(C)C(C)(C)C)cc21 (protonated)
CC(C)=CCCOC(=O)n1c(C([NH-])=O)cc2ccc(C#CCO[Si](C)(C)C(C)(C)C)cc21 (3D coordinates assigned)
CC(C)=CCCOC(=O)n1c(C([NH-])=O)cc2ccc(C#CCO[Si](C)(C)C(C)(C)C)cc21 (optimized conformer: 74.54311957459052 kcal/mol)

>  <smiles>  (85) 
CC(C)=CCCOC(=O)n1c(C(N)=O)cc2ccc(C#CCO[Si](C)(C)C(C)(C)C)cc21

>  <score_type>  (85) 
oracle

>  <origin>  (85) 
adg

>  <m_score__min__energy>  (85) 
-11.880000000000001

>  <m_primary>  (85) 
energy

$$$$
85:0
     RDKit          3D

 37 39  0  0  0  0  0  0  0  0999 V2000
   -2.3220   16.9890  -34.9470 C   0  0  0  0  0  0  0  0  0  0  0  0
   -3.6310   16.5520  -35.2970 O   0  0  0  0  0  0  0  0  0  0  0  0
   -4.7930   16.8580  -34.5710 C   0  0  0  0  0  0  0  0  0  0  0  0
   -5.0390   18.1460  -34.0610 C   0  0  0  0  0  0  0  0  0  0  0  0
   -6.2190   18.4030  -33.3420 C   0  0  0  0  0  0  0  0  0  0  0  0
   -6.4940   19.7560  -32.7960 C   0  0  0  0  0  0  0  0  0  0  0  0
   -7.8260   20.2430  -32.7150 C   0  0  0  0  0  0  0  0  0  0  0  0
   -8.0960   21.5180  -32.1920 C   0  0  0  0  0  0  0  0  0  0  0  0
   -7.0210   22.2900  -31.7660 C   0  0  0  0  0  0  0  0  0  0  0  0
   -6.9980   23.5430  -31.1950 C   0  0  0  0  0  0  0  0  0  0  0  0
   -5.6530   23.8140  -30.9510 C   0  0  0  0  0  0  0  0  0  0  0  0
   -5.1600   25.0820  -30.3750 C   0  0  0  0  0  0  0  0  0  0  0  0
   -3.9280   25.6390  -30.8320 N   0  0  0  0  0  0  0  0  0  0  0  0
   -5.8040   25.6740  -29.4710 O   0  0  0  0  0  0  0  0  0  0  0  0
   -4.8760   22.7710  -31.3600 N   0  0  0  0  0  0  0  0  0  0  0  0
   -3.4510   22.6400  -31.2350 C   0  0  0  0  0  0  0  0  0  0  0  0
   -2.8620   23.1510  -30.2450 O   0  0  0  0  0  0  0  0  0  0  0  0
   -2.6680   21.9220  -32.2510 C   0  0  0  0  0  0  0  0  0  0  0  0
   -3.0720   21.8620  -33.4430 O   0  0  0  0  0  0  0  0  0  0  0  0
   -1.4650   21.3210  -31.9060 O   0  0  0  0  0  0  0  0  0  0  0  0
   -5.7270   21.8460  -31.8520 C   0  0  0  0  0  0  0  0  0  0  0  0
   -5.4290   20.5730  -32.3490 C   0  0  0  0  0  0  0  0  0  0  0  0
   -7.1330   17.3560  -33.1490 C   0  0  0  0  0  0  0  0  0  0  0  0
   -6.8560   16.0910  -33.6680 C   0  0  0  0  0  0  0  0  0  0  0  0
   -5.7060   15.8700  -34.3590 N   0  0  0  0  0  0  0  0  0  0  0  0
   -2.2267   17.0208  -33.8516 H   0  0  0  0  0  0  0  0  0  0  0  0
   -1.5795   16.2900  -35.3595 H   0  0  0  0  0  0  0  0  0  0  0  0
   -2.1484   17.9938  -35.3595 H   0  0  0  0  0  0  0  0  0  0  0  0
   -4.3081   18.9515  -34.2249 H   0  0  0  0  0  0  0  0  0  0  0  0
   -8.6566   19.6133  -33.0665 H   0  0  0  0  0  0  0  0  0  0  0  0
   -9.1271   21.8947  -32.1215 H   0  0  0  0  0  0  0  0  0  0  0  0
   -7.8589   24.1923  -30.9776 H   0  0  0  0  0  0  0  0  0  0  0  0
   -3.0140   25.2910  -30.4660 H   0  0  0  0  0  0  0  0  0  0  0  0
   -4.3897   20.2151  -32.3914 H   0  0  0  0  0  0  0  0  0  0  0  0
   -8.0643   17.5319  -32.5907 H   0  0  0  0  0  0  0  0  0  0  0  0
   -7.5711   15.2688  -33.5175 H   0  0  0  0  0  0  0  0  0  0  0  0
   -5.5220   14.9140  -34.7370 H   0  0  0  0  0  0  0  0  0  0  0  0
  1  2  1  0
  2  3  1  0
  3  4  2  0
  4  5  1  0
  5  6  1  0
  6  7  2  0
  7  8  1  0
  8  9  2  0
  9 10  1  0
 10 11  2  0
 11 12  1  0
 12 13  1  0
 12 14  2  0
 11 15  1  0
 15 16  1  0
 16 17  2  0
 16 18  1  0
 18 19  2  0
 18 20  1  0
 15 21  1  0
 21 22  2  0
  5 23  2  0
 23 24  1  0
 24 25  2  0
 25  3  1  0
 22  6  1  0
 21  9  1  0
  1 26  1  0
  1 27  1  0
  1 28  1  0
  4 29  1  0
  7 30  1  0
  8 31  1  0
 10 32  1  0
 13 33  1  0
 22 34  1  0
 23 35  1  0
 24 36  1  0
 25 37  1  0
M  CHG  3  13  -1  20  -1  25   1
M  END
>  <UniqueID>  (86) 
86

>  <SMILES>  (86) 
COc1cc(-c2ccc3cc(C([NH-])=O)n(C(=O)C(=O)[O-])c3c2)cc[nH+]1

>  <Energy>  (86) 
83.29714459838877

>  <Genealogy>  (86) 
COc1cc(-c2ccc3cc(C([NH-])=O)n(C(=O)C(=O)[O-])c3c2)cc[nH+]1 (protonated)
COc1cc(-c2ccc3cc(C([NH-])=O)n(C(=O)C(=O)[O-])c3c2)cc[nH+]1 (3D coordinates assigned)
COc1cc(-c2ccc3cc(C([NH-])=O)n(C(=O)C(=O)[O-])c3c2)cc[nH+]1 (optimized conformer: 83.29714459838877 kcal/mol)

>  <smiles>  (86) 
COc1cc(-c2ccc3cc(C(N)=O)n(C(=O)C(=O)O)c3c2)ccn1

>  <score_type>  (86) 
oracle

>  <origin>  (86) 
adg

>  <m_score__min__energy>  (86) 
-11.23

>  <m_primary>  (86) 
energy

$$$$
86:0
     RDKit          3D

 50 52  0  0  0  0  0  0  0  0999 V2000
   -3.3900   24.8000  -30.0690 N   0  0  0  0  0  0  0  0  0  0  0  0
   -4.7110   24.8750  -30.6070 C   0  0  0  0  0  0  0  0  0  0  0  0
   -5.2230   26.0050  -30.8360 O   0  0  0  0  0  0  0  0  0  0  0  0
   -5.4510   23.6540  -30.9820 C   0  0  0  0  0  0  0  0  0  0  0  0
   -6.8210   23.5200  -30.7910 C   0  0  0  0  0  0  0  0  0  0  0  0
   -7.1390   22.2890  -31.3090 C   0  0  0  0  0  0  0  0  0  0  0  0
   -8.3720   21.6450  -31.3710 C   0  0  0  0  0  0  0  0  0  0  0  0
   -8.4200   20.3660  -31.9430 C   0  0  0  0  0  0  0  0  0  0  0  0
   -7.2480   19.7660  -32.4590 C   0  0  0  0  0  0  0  0  0  0  0  0
   -7.3020   18.3850  -33.0540 C   0  0  0  0  0  0  0  0  0  0  0  0
   -6.0460   18.1040  -33.8820 C   0  0  0  0  0  0  0  0  0  0  0  0
   -5.9600   19.0020  -34.9560 O   0  0  0  0  0  0  0  0  0  0  0  0
   -6.0130   20.4440  -32.3680 C   0  0  0  0  0  0  0  0  0  0  0  0
   -5.9840   21.7160  -31.7800 C   0  0  0  0  0  0  0  0  0  0  0  0
   -4.9220   22.5380  -31.5680 N   0  0  0  0  0  0  0  0  0  0  0  0
   -3.5180   22.2240  -31.7240 C   0  0  0  0  0  0  0  0  0  0  0  0
   -3.0860   21.8040  -32.8350 O   0  0  0  0  0  0  0  0  0  0  0  0
   -2.6160   22.4250  -30.6720 O   0  0  0  0  0  0  0  0  0  0  0  0
   -1.9350   21.3470  -30.0360 C   0  0  0  0  0  0  0  0  0  0  0  0
   -2.9240   20.4470  -29.2870 C   0  0  0  0  0  0  0  0  0  0  0  0
   -3.1710   20.8770  -27.8310 C   0  0  0  0  0  0  0  0  0  0  0  0
   -2.8920   22.3360  -27.5970 C   0  0  0  0  0  0  0  0  0  0  0  0
   -1.7380   22.7950  -27.3570 N   0  0  0  0  0  0  0  0  0  0  0  0
   -1.8240   24.2160  -27.1830 C   0  0  1  0  0  0  0  0  0  0  0  0
   -0.8070   25.0600  -28.4370 P   0  0  0  0  0  0  0  0  0  0  0  0
    0.5200   25.4470  -27.8260 O   0  0  0  0  0  0  0  0  0  0  0  0
   -0.5450   24.0320  -29.7550 O   0  0  0  0  0  0  0  0  0  0  0  0
   -1.6050   26.4540  -28.9630 O   0  0  0  0  0  0  0  0  0  0  0  0
   -3.1850   24.5990  -27.3250 O   0  0  0  0  0  0  0  0  0  0  0  0
   -3.8930   23.4130  -27.6260 C   0  0  0  0  0  0  0  0  0  0  0  0
   -2.9010   25.6700  -29.7590 H   0  0  0  0  0  0  0  0  0  0  0  0
   -2.8880   23.8850  -29.9990 H   0  0  0  0  0  0  0  0  0  0  0  0
   -7.5043   24.2450  -30.3246 H   0  0  0  0  0  0  0  0  0  0  0  0
   -9.2819   22.1258  -30.9825 H   0  0  0  0  0  0  0  0  0  0  0  0
   -9.3766   19.8250  -31.9908 H   0  0  0  0  0  0  0  0  0  0  0  0
   -7.3733   17.6449  -32.2433 H   0  0  0  0  0  0  0  0  0  0  0  0
   -8.1816   18.3168  -33.7110 H   0  0  0  0  0  0  0  0  0  0  0  0
   -5.1576   18.2162  -33.2431 H   0  0  0  0  0  0  0  0  0  0  0  0
   -6.0994   17.0785  -34.2764 H   0  0  0  0  0  0  0  0  0  0  0  0
   -6.8330   18.9590  -35.4310 H   0  0  0  0  0  0  0  0  0  0  0  0
   -5.0909   19.9827  -32.7513 H   0  0  0  0  0  0  0  0  0  0  0  0
   -1.4108   20.7515  -30.7980 H   0  0  0  0  0  0  0  0  0  0  0  0
   -1.2163   21.7605  -29.3132 H   0  0  0  0  0  0  0  0  0  0  0  0
   -3.8847   20.4658  -29.8224 H   0  0  0  0  0  0  0  0  0  0  0  0
   -2.4814   19.4405  -29.2542 H   0  0  0  0  0  0  0  0  0  0  0  0
   -4.2227   20.6758  -27.5791 H   0  0  0  0  0  0  0  0  0  0  0  0
   -2.4811   20.3026  -27.1953 H   0  0  0  0  0  0  0  0  0  0  0  0
   -1.4521   24.4985  -26.1871 H   0  0  0  0  0  0  0  0  0  0  0  0
   -4.6745   23.2310  -26.8736 H   0  0  0  0  0  0  0  0  0  0  0  0
   -4.3949   23.4757  -28.6028 H   0  0  0  0  0  0  0  0  0  0  0  0
  1  2  1  0
  2  3  2  0
  2  4  1  0
  4  5  2  0
  5  6  1  0
  6  7  2  0
  7  8  1  0
  8  9  2  0
  9 10  1  0
 10 11  1  0
 11 12  1  0
  9 13  1  0
 13 14  2  0
 14 15  1  0
 15 16  1  0
 16 17  2  0
 16 18  1  0
 18 19  1  0
 19 20  1  0
 20 21  1  0
 21 22  1  0
 22 23  2  0
 23 24  1  0
 24 25  1  0
 25 26  2  0
 25 27  1  0
 25 28  1  0
 24 29  1  0
 29 30  1  0
 15  4  1  0
 30 22  1  0
 14  6  1  0
  1 31  1  0
  1 32  1  0
  5 33  1  0
  7 34  1  0
  8 35  1  0
 10 36  1  0
 10 37  1  0
 11 38  1  0
 11 39  1  0
 12 40  1  0
 13 41  1  0
 19 42  1  0
 19 43  1  0
 20 44  1  0
 20 45  1  0
 21 46  1  0
 21 47  1  0
 24 48  1  1
 30 49  1  0
 30 50  1  0
M  CHG  2  27  -1  28  -1
M  END
>  <UniqueID>  (87) 
87

>  <SMILES>  (87) 
NC(=O)c1cc2ccc(CCO)cc2n1C(=O)OCCCC1=N[C@@H](P(=O)([O-])[O-])OC1

>  <Energy>  (87) 
82.15960817764321

>  <Genealogy>  (87) 
NC(=O)c1cc2ccc(CCO)cc2n1C(=O)OCCCC1=NC(P(=O)([O-])[O-])OC1 (protonated)
NC(=O)c1cc2ccc(CCO)cc2n1C(=O)OCCCC1=N[C@@H](P(=O)([O-])[O-])OC1 (chirality)
NC(=O)c1cc2ccc(CCO)cc2n1C(=O)OCCCC1=N[C@@H](P(=O)([O-])[O-])OC1 (3D coordinates assigned)
NC(=O)c1cc2ccc(CCO)cc2n1C(=O)OCCCC1=N[C@@H](P(=O)([O-])[O-])OC1 (nonaromatic ring conformer: 82.15960817764321 kcal/mol)

>  <smiles>  (87) 
NC(=O)c1cc2ccc(CCO)cc2n1C(=O)OCCCC1=NC(P(=O)(O)O)OC1

>  <score_type>  (87) 
oracle

>  <origin>  (87) 
adg

>  <m_score__min__energy>  (87) 
-12.48

>  <m_primary>  (87) 
energy

$$$$
87:0
     RDKit          3D

 30 32  0  0  0  0  0  0  0  0999 V2000
   -3.8660   25.2650  -30.6150 N   0  0  0  0  0  0  0  0  0  0  0  0
   -5.2560   25.1170  -30.3320 C   0  0  0  0  0  0  0  0  0  0  0  0
   -5.8640   26.0450  -29.7340 O   0  0  0  0  0  0  0  0  0  0  0  0
   -5.9960   23.9090  -30.7550 C   0  0  0  0  0  0  0  0  0  0  0  0
   -7.3370   23.9180  -31.1370 C   0  0  0  0  0  0  0  0  0  0  0  0
   -7.6240   22.6190  -31.4940 C   0  0  0  0  0  0  0  0  0  0  0  0
   -8.8140   22.0530  -31.9390 C   0  0  0  0  0  0  0  0  0  0  0  0
   -8.8270   20.6730  -32.2090 C   0  0  0  0  0  0  0  0  0  0  0  0
   -7.6590   19.8900  -32.0250 C   0  0  0  0  0  0  0  0  0  0  0  0
   -7.6780   18.4150  -32.3020 C   0  0  0  0  0  0  0  0  0  0  0  0
   -8.9110   17.8930  -31.9600 F   0  0  0  0  0  0  0  0  0  0  0  0
   -6.6950   17.7880  -31.5580 F   0  0  0  0  0  0  0  0  0  0  0  0
   -6.4710   20.5010  -31.5680 C   0  0  0  0  0  0  0  0  0  0  0  0
   -6.4840   21.8790  -31.3230 C   0  0  0  0  0  0  0  0  0  0  0  0
   -5.4760   22.6560  -30.8760 N   0  0  0  0  0  0  0  0  0  0  0  0
   -4.1580   22.2140  -30.5220 C   0  0  0  0  0  0  0  0  0  0  0  0
   -3.8390   22.1190  -29.3060 O   0  0  0  0  0  0  0  0  0  0  0  0
   -3.1740   21.8760  -31.5620 C   0  0  0  0  0  0  0  0  0  0  0  0
   -3.4270   21.5340  -32.8730 C   0  0  0  0  0  0  0  0  0  0  0  0
   -2.2580   21.2810  -33.4910 N   0  0  0  0  0  0  0  0  0  0  0  0
   -1.2730   21.4450  -32.6200 N   0  0  0  0  0  0  0  0  0  0  0  0
   -1.8030   21.8050  -31.4350 C   0  0  0  0  0  0  0  0  0  0  0  0
   -3.5200   26.0490  -31.2100 H   0  0  0  0  0  0  0  0  0  0  0  0
   -8.0206   24.7797  -31.1504 H   0  0  0  0  0  0  0  0  0  0  0  0
   -9.7171   22.6659  -32.0755 H   0  0  0  0  0  0  0  0  0  0  0  0
   -9.7518   20.1964  -32.5663 H   0  0  0  0  0  0  0  0  0  0  0  0
   -7.4916   18.2475  -33.3731 H   0  0  0  0  0  0  0  0  0  0  0  0
   -5.5579   19.9087  -31.4085 H   0  0  0  0  0  0  0  0  0  0  0  0
   -4.4220   21.4770  -33.3385 H   0  0  0  0  0  0  0  0  0  0  0  0
   -1.2345   22.0091  -30.5157 H   0  0  0  0  0  0  0  0  0  0  0  0
  1  2  1  0
  2  3  2  0
  2  4  1  0
  4  5  2  0
  5  6  1  0
  6  7  2  0
  7  8  1  0
  8  9  2  0
  9 10  1  0
 10 11  1  0
 10 12  1  0
  9 13  1  0
 13 14  2  0
 14 15  1  0
 15 16  1  0
 16 17  2  0
 16 18  1  0
 18 19  1  0
 19 20  2  0
 20 21  1  0
 21 22  1  0
 15  4  1  0
 22 18  2  0
 14  6  1  0
  1 23  1  0
  5 24  1  0
  7 25  1  0
  8 26  1  0
 10 27  1  0
 13 28  1  0
 19 29  1  0
 22 30  1  0
M  CHG  2   1  -1  21  -1
M  END
>  <UniqueID>  (88) 
88

>  <SMILES>  (88) 
[NH-]C(=O)c1cc2ccc(C(F)F)cc2n1C(=O)c1cn[n-]c1

>  <Energy>  (88) 
101.07208379101932

>  <Genealogy>  (88) 
[NH-]C(=O)c1cc2ccc(C(F)F)cc2n1C(=O)c1cn[n-]c1 (protonated)
[NH-]C(=O)c1cc2ccc(C(F)F)cc2n1C(=O)c1cn[n-]c1 (3D coordinates assigned)
[NH-]C(=O)c1cc2ccc(C(F)F)cc2n1C(=O)c1cn[n-]c1 (optimized conformer: 101.07208379101932 kcal/mol)

>  <smiles>  (88) 
NC(=O)c1cc2ccc(C(F)F)cc2n1C(=O)c1cn[nH]c1

>  <score_type>  (88) 
oracle

>  <origin>  (88) 
adg

>  <m_score__min__energy>  (88) 
-9.9900000000000002

>  <m_primary>  (88) 
energy

$$$$
88:0
     RDKit          3D

 56 57  0  0  0  0  0  0  0  0999 V2000
    0.0010   19.2890  -31.5000 C   0  0  0  0  0  0  0  0  0  0  0  0
   -1.0230   20.1390  -31.3760 C   0  0  0  0  0  0  0  0  0  0  0  0
   -1.0050   21.4830  -32.0380 C   0  0  0  0  0  0  0  0  0  0  0  0
   -2.3400   21.9130  -32.2790 O   0  0  0  0  0  0  0  0  0  0  0  0
   -3.1050   22.5820  -31.3200 C   0  0  0  0  0  0  0  0  0  0  0  0
   -2.5420   23.1860  -30.3660 O   0  0  0  0  0  0  0  0  0  0  0  0
   -4.5370   22.6030  -31.4400 N   0  0  0  0  0  0  0  0  0  0  0  0
   -5.3940   23.6130  -31.1150 C   0  0  0  0  0  0  0  0  0  0  0  0
   -5.0350   24.8700  -30.4280 C   0  0  0  0  0  0  0  0  0  0  0  0
   -3.8840   25.6020  -30.8420 N   0  0  0  0  0  0  0  0  0  0  0  0
   -5.7540   25.3280  -29.5010 O   0  0  0  0  0  0  0  0  0  0  0  0
   -6.7030   23.2680  -31.4450 C   0  0  0  0  0  0  0  0  0  0  0  0
   -6.6230   22.0020  -31.9790 C   0  0  0  0  0  0  0  0  0  0  0  0
   -7.6240   21.1800  -32.4840 C   0  0  0  0  0  0  0  0  0  0  0  0
   -7.2520   19.9290  -33.0020 C   0  0  0  0  0  0  0  0  0  0  0  0
   -5.8900   19.5210  -33.0190 C   0  0  0  0  0  0  0  0  0  0  0  0
   -5.5070   18.2440  -33.5800 N   0  0  0  0  0  0  0  0  0  0  0  0
   -5.6050   17.0310  -32.7580 C   0  0  0  0  0  0  0  0  0  0  0  0
   -4.9400   18.1470  -34.9360 C   0  0  0  0  0  0  0  0  0  0  0  0
   -3.7750   17.1480  -34.9840 C   0  0  0  0  0  0  0  0  0  0  0  0
   -2.6530   17.5990  -34.1480 N   0  0  0  0  0  0  0  0  0  0  0  0
   -2.3750   16.9470  -32.8650 C   0  0  0  0  0  0  0  0  0  0  0  0
   -1.8440   18.7150  -34.5630 C   0  0  0  0  0  0  0  0  0  0  0  0
   -2.2160   19.8940  -34.3090 O   0  0  0  0  0  0  0  0  0  0  0  0
   -0.6460   18.4920  -35.2500 O   0  0  0  0  0  0  0  0  0  0  0  0
    0.5050   19.3150  -35.0820 C   0  0  0  0  0  0  0  0  0  0  0  0
    0.6340   20.1990  -36.1710 O   0  0  0  0  0  0  0  0  0  0  0  0
    0.9170   21.7760  -35.5810 P   0  0  1  0  0  0  0  0  0  0  0  0
    2.0660   21.7290  -34.6020 O   0  0  0  0  0  0  0  0  0  0  0  0
    1.3270   22.8160  -36.8530 O   0  0  0  0  0  0  0  0  0  0  0  0
   -0.4580   22.3600  -34.7830 O   0  0  0  0  0  0  0  0  0  0  0  0
   -4.9050   20.3900  -32.4900 C   0  0  0  0  0  0  0  0  0  0  0  0
   -5.3070   21.6230  -31.9650 C   0  0  0  0  0  0  0  0  0  0  0  0
   -0.0356   18.3077  -31.0043 H   0  0  0  0  0  0  0  0  0  0  0  0
    0.8804   19.5708  -32.0977 H   0  0  0  0  0  0  0  0  0  0  0  0
   -1.8969   19.8458  -30.7756 H   0  0  0  0  0  0  0  0  0  0  0  0
   -0.4995   22.2075  -31.3825 H   0  0  0  0  0  0  0  0  0  0  0  0
   -0.4651   21.4128  -32.9938 H   0  0  0  0  0  0  0  0  0  0  0  0
   -2.9250   25.3000  -30.5600 H   0  0  0  0  0  0  0  0  0  0  0  0
   -7.6081   23.8779  -31.3079 H   0  0  0  0  0  0  0  0  0  0  0  0
   -8.6764   21.5001  -32.4780 H   0  0  0  0  0  0  0  0  0  0  0  0
   -8.0250   19.2553  -33.4002 H   0  0  0  0  0  0  0  0  0  0  0  0
   -5.5827   17.3068  -31.6934 H   0  0  0  0  0  0  0  0  0  0  0  0
   -6.5481   16.5112  -32.9825 H   0  0  0  0  0  0  0  0  0  0  0  0
   -4.7576   16.3665  -32.9825 H   0  0  0  0  0  0  0  0  0  0  0  0
   -5.7260   17.8143  -35.6300 H   0  0  0  0  0  0  0  0  0  0  0  0
   -4.5595   19.1379  -35.2247 H   0  0  0  0  0  0  0  0  0  0  0  0
   -4.1247   16.1712  -34.6186 H   0  0  0  0  0  0  0  0  0  0  0  0
   -3.4253   17.0706  -36.0240 H   0  0  0  0  0  0  0  0  0  0  0  0
   -2.6615   17.6189  -32.0426 H   0  0  0  0  0  0  0  0  0  0  0  0
   -2.9536   16.0141  -32.7948 H   0  0  0  0  0  0  0  0  0  0  0  0
   -1.3013   16.7186  -32.7948 H   0  0  0  0  0  0  0  0  0  0  0  0
    0.4043   19.8952  -34.1529 H   0  0  0  0  0  0  0  0  0  0  0  0
    1.3988   18.6759  -35.0306 H   0  0  0  0  0  0  0  0  0  0  0  0
   -1.1600   21.6810  -34.9500 H   0  0  0  0  0  0  0  0  0  0  0  0
   -3.8436   20.1010  -32.4918 H   0  0  0  0  0  0  0  0  0  0  0  0
  1  2  2  0
  2  3  1  0
  3  4  1  0
  4  5  1  0
  5  6  2  0
  5  7  1  0
  7  8  1  0
  8  9  1  0
  9 10  1  0
  9 11  2  0
  8 12  2  0
 12 13  1  0
 13 14  2  0
 14 15  1  0
 15 16  2  0
 16 17  1  0
 17 18  1  0
 17 19  1  0
 19 20  1  0
 20 21  1  0
 21 22  1  0
 21 23  1  0
 23 24  2  0
 23 25  1  0
 25 26  1  0
 26 27  1  0
 27 28  1  0
 28 29  2  0
 28 30  1  6
 28 31  1  0
 16 32  1  0
 32 33  2  0
 33  7  1  0
 33 13  1  0
  1 34  1  0
  1 35  1  0
  2 36  1  0
  3 37  1  0
  3 38  1  0
 10 39  1  0
 12 40  1  0
 14 41  1  0
 15 42  1  0
 18 43  1  0
 18 44  1  0
 18 45  1  0
 19 46  1  0
 19 47  1  0
 20 48  1  0
 20 49  1  0
 22 50  1  0
 22 51  1  0
 22 52  1  0
 26 53  1  0
 26 54  1  0
 31 55  1  0
 32 56  1  0
M  CHG  2  10  -1  30  -1
M  END
>  <UniqueID>  (89) 
89

>  <SMILES>  (89) 
C=CCOC(=O)n1c(C([NH-])=O)cc2ccc(N(C)CCN(C)C(=O)OCO[P@@](=O)([O-])O)cc21

>  <Energy>  (89) 
80.59537462895213

>  <Genealogy>  (89) 
C=CCOC(=O)n1c(C([NH-])=O)cc2ccc(N(C)CCN(C)C(=O)OCOP(=O)([O-])O)cc21 (protonated)
C=CCOC(=O)n1c(C([NH-])=O)cc2ccc(N(C)CCN(C)C(=O)OCO[P@@](=O)([O-])O)cc21 (chirality)
C=CCOC(=O)n1c(C([NH-])=O)cc2ccc(N(C)CCN(C)C(=O)OCO[P@@](=O)([O-])O)cc21 (3D coordinates assigned)
C=CCOC(=O)n1c(C([NH-])=O)cc2ccc(N(C)CCN(C)C(=O)OCO[P@@](=O)([O-])O)cc21 (optimized conformer: 80.59537462895213 kcal/mol)

>  <smiles>  (89) 
C=CCOC(=O)n1c(C(N)=O)cc2ccc(N(C)CCN(C)C(=O)OCOP(=O)(O)O)cc21

>  <score_type>  (89) 
oracle

>  <origin>  (89) 
adg

>  <m_score__min__energy>  (89) 
-10.98

>  <m_primary>  (89) 
energy

$$$$
89:0
     RDKit          3D

 33 34  0  0  0  0  0  0  0  0999 V2000
   -3.8040   25.1660  -30.4550 N   0  0  0  0  0  0  0  0  0  0  0  0
   -5.1870   25.2530  -30.7850 C   0  0  0  0  0  0  0  0  0  0  0  0
   -5.7430   26.3840  -30.8220 O   0  0  0  0  0  0  0  0  0  0  0  0
   -5.9880   24.0360  -31.0390 C   0  0  0  0  0  0  0  0  0  0  0  0
   -7.3230   23.9020  -30.6640 C   0  0  0  0  0  0  0  0  0  0  0  0
   -7.6770   22.6200  -31.0200 C   0  0  0  0  0  0  0  0  0  0  0  0
   -8.8970   21.9620  -30.9060 C   0  0  0  0  0  0  0  0  0  0  0  0
   -8.9880   20.6530  -31.4050 C   0  0  0  0  0  0  0  0  0  0  0  0
   -7.8670   20.0290  -32.0060 C   0  0  0  0  0  0  0  0  0  0  0  0
   -7.9970   18.6510  -32.5980 C   0  0  0  0  0  0  0  0  0  0  0  0
   -6.7120   17.8370  -32.4140 C   0  0  0  0  0  0  0  0  0  0  0  0
   -6.1820   17.4020  -33.7060 N   0  0  0  0  0  0  0  0  0  0  0  0
   -5.3940   18.2510  -34.5490 C   0  0  0  0  0  0  0  0  0  0  0  0
   -5.1820   19.4540  -34.2380 O   0  0  0  0  0  0  0  0  0  0  0  0
   -4.8510   17.7440  -35.7230 O   0  0  0  0  0  0  0  0  0  0  0  0
   -6.6450   20.7300  -32.1080 C   0  0  0  0  0  0  0  0  0  0  0  0
   -6.5780   22.0270  -31.5870 C   0  0  0  0  0  0  0  0  0  0  0  0
   -5.5340   22.8840  -31.6070 N   0  0  0  0  0  0  0  0  0  0  0  0
   -4.2480   22.6400  -32.1970 C   0  0  0  0  0  0  0  0  0  0  0  0
   -4.1460   21.9860  -33.4620 N   0  0  0  0  0  0  0  0  0  0  0  0
   -3.2020   23.0120  -31.6010 O   0  0  0  0  0  0  0  0  0  0  0  0
   -3.0750   25.1370  -31.2020 H   0  0  0  0  0  0  0  0  0  0  0  0
   -7.9597   24.6602  -30.1848 H   0  0  0  0  0  0  0  0  0  0  0  0
   -9.7640   22.4522  -30.4392 H   0  0  0  0  0  0  0  0  0  0  0  0
   -9.9394   20.1062  -31.3286 H   0  0  0  0  0  0  0  0  0  0  0  0
   -8.8268   18.1259  -32.1023 H   0  0  0  0  0  0  0  0  0  0  0  0
   -8.1879   18.7553  -33.6763 H   0  0  0  0  0  0  0  0  0  0  0  0
   -5.9602   18.4599  -31.9073 H   0  0  0  0  0  0  0  0  0  0  0  0
   -6.9425   16.9469  -31.8102 H   0  0  0  0  0  0  0  0  0  0  0  0
   -6.2900   16.3990  -33.9760 H   0  0  0  0  0  0  0  0  0  0  0  0
   -5.7681   20.2680  -32.5850 H   0  0  0  0  0  0  0  0  0  0  0  0
   -3.2120   21.8370  -33.9040 H   0  0  0  0  0  0  0  0  0  0  0  0
   -4.9970   21.6170  -33.9370 H   0  0  0  0  0  0  0  0  0  0  0  0
  1  2  1  0
  2  3  2  0
  2  4  1  0
  4  5  2  0
  5  6  1  0
  6  7  2  0
  7  8  1  0
  8  9  2  0
  9 10  1  0
 10 11  1  0
 11 12  1  0
 12 13  1  0
 13 14  2  0
 13 15  1  0
  9 16  1  0
 16 17  2  0
 17 18  1  0
 18 19  1  0
 19 20  1  0
 19 21  2  0
 18  4  1  0
 17  6  1  0
  1 22  1  0
  5 23  1  0
  7 24  1  0
  8 25  1  0
 10 26  1  0
 10 27  1  0
 11 28  1  0
 11 29  1  0
 12 30  1  0
 16 31  1  0
 20 32  1  0
 20 33  1  0
M  CHG  2   1  -1  15  -1
M  END
>  <UniqueID>  (90) 
90

>  <SMILES>  (90) 
[NH-]C(=O)c1cc2ccc(CCNC(=O)[O-])cc2n1C(N)=O

>  <Energy>  (90) 
66.69840497273947

>  <Genealogy>  (90) 
[NH-]C(=O)c1cc2ccc(CCNC(=O)[O-])cc2n1C(N)=O (protonated)
[NH-]C(=O)c1cc2ccc(CCNC(=O)[O-])cc2n1C(N)=O (3D coordinates assigned)
[NH-]C(=O)c1cc2ccc(CCNC(=O)[O-])cc2n1C(N)=O (optimized conformer: 66.69840497273947 kcal/mol)

>  <smiles>  (90) 
NC(=O)c1cc2ccc(CCNC(=O)O)cc2n1C(N)=O

>  <score_type>  (90) 
oracle

>  <origin>  (90) 
adg

>  <m_score__min__energy>  (90) 
-10.41

>  <m_primary>  (90) 
energy

$$$$
90:0
     RDKit          3D

 58 60  0  0  0  0  0  0  0  0999 V2000
   -2.7990   18.9200  -34.1800 C   0  0  0  0  0  0  0  0  0  0  0  0
   -2.6260   20.2880  -33.5300 C   0  0  0  0  0  0  0  0  0  0  0  0
   -2.4230   20.1540  -32.1260 O   0  0  0  0  0  0  0  0  0  0  0  0
   -1.5100   20.9310  -31.4020 C   0  0  0  0  0  0  0  0  0  0  0  0
   -0.5040   21.4400  -31.9680 O   0  0  0  0  0  0  0  0  0  0  0  0
   -1.7440   21.1750  -29.9430 C   0  0  0  0  0  0  0  0  0  0  0  0
   -3.1690   21.6790  -29.6700 C   0  0  0  0  0  0  0  0  0  0  0  0
   -3.6320   22.6960  -30.6780 C   0  0  0  0  0  0  0  0  0  0  0  0
   -2.8030   23.4910  -31.1970 O   0  0  0  0  0  0  0  0  0  0  0  0
   -5.0270   22.8280  -30.9910 N   0  0  0  0  0  0  0  0  0  0  0  0
   -5.8000   23.9460  -30.8800 C   0  0  0  0  0  0  0  0  0  0  0  0
   -5.3810   25.2340  -30.2870 C   0  0  0  0  0  0  0  0  0  0  0  0
   -4.0220   25.6610  -30.3400 N   0  0  0  0  0  0  0  0  0  0  0  0
   -6.2300   25.9530  -29.6960 O   0  0  0  0  0  0  0  0  0  0  0  0
   -7.0870   23.6980  -31.3560 C   0  0  0  0  0  0  0  0  0  0  0  0
   -7.0780   22.3840  -31.7650 C   0  0  0  0  0  0  0  0  0  0  0  0
   -8.0880   21.6160  -32.3370 C   0  0  0  0  0  0  0  0  0  0  0  0
   -7.7880   20.2900  -32.6900 C   0  0  0  0  0  0  0  0  0  0  0  0
   -6.4900   19.7600  -32.4760 C   0  0  0  0  0  0  0  0  0  0  0  0
   -6.1780   18.3630  -32.8610 C   0  0  0  0  0  0  0  0  0  0  0  0
   -6.0320   18.0130  -34.2160 C   0  0  0  0  0  0  0  0  0  0  0  0
   -6.1470   18.9500  -35.1900 F   0  0  0  0  0  0  0  0  0  0  0  0
   -5.7290   16.6960  -34.5760 C   0  0  0  0  0  0  0  0  0  0  0  0
   -5.5710   15.7030  -33.5950 C   0  0  0  0  0  0  0  0  0  0  0  0
   -5.2540   14.3070  -33.9780 C   0  0  0  0  0  0  0  0  0  0  0  0
   -6.0610   13.6550  -34.6960 O   0  0  0  0  0  0  0  0  0  0  0  0
   -4.0360   13.6970  -33.5270 N   0  0  0  0  0  0  0  0  0  0  0  0
   -3.1980   14.1220  -32.4020 C   0  0  1  0  0  0  0  0  0  0  0  0
   -2.6700   12.9210  -31.6090 C   0  0  0  0  0  0  0  0  0  0  0  0
   -2.0750   15.0680  -32.8620 C   0  0  0  0  0  0  0  0  0  0  0  0
   -0.9420   14.9190  -32.0850 F   0  0  0  0  0  0  0  0  0  0  0  0
   -2.5050   16.3810  -32.7720 F   0  0  0  0  0  0  0  0  0  0  0  0
   -1.7530   14.8010  -34.1810 F   0  0  0  0  0  0  0  0  0  0  0  0
   -5.7190   16.0550  -32.2420 C   0  0  0  0  0  0  0  0  0  0  0  0
   -6.0170   17.3710  -31.8760 C   0  0  0  0  0  0  0  0  0  0  0  0
   -6.1770   17.6680  -30.5610 F   0  0  0  0  0  0  0  0  0  0  0  0
   -5.4900   20.5730  -31.8960 C   0  0  0  0  0  0  0  0  0  0  0  0
   -5.8230   21.8820  -31.5360 C   0  0  0  0  0  0  0  0  0  0  0  0
   -2.8961   18.1522  -33.3983 H   0  0  0  0  0  0  0  0  0  0  0  0
   -3.7039   18.9230  -34.8054 H   0  0  0  0  0  0  0  0  0  0  0  0
   -1.9218   18.6976  -34.8054 H   0  0  0  0  0  0  0  0  0  0  0  0
   -1.7553   20.7920  -33.9747 H   0  0  0  0  0  0  0  0  0  0  0  0
   -3.5371   20.8800  -33.7017 H   0  0  0  0  0  0  0  0  0  0  0  0
   -1.5882   20.2339  -29.3952 H   0  0  0  0  0  0  0  0  0  0  0  0
   -1.0377   21.9491  -29.6083 H   0  0  0  0  0  0  0  0  0  0  0  0
   -3.8563   20.8205  -29.6960 H   0  0  0  0  0  0  0  0  0  0  0  0
   -3.1637   22.1684  -28.6849 H   0  0  0  0  0  0  0  0  0  0  0  0
   -3.4620   25.5680  -31.2160 H   0  0  0  0  0  0  0  0  0  0  0  0
   -7.9304   24.4030  -31.3961 H   0  0  0  0  0  0  0  0  0  0  0  0
   -9.0908   22.0348  -32.5075 H   0  0  0  0  0  0  0  0  0  0  0  0
   -8.5679   19.6560  -33.1371 H   0  0  0  0  0  0  0  0  0  0  0  0
   -5.6132   16.4350  -35.6383 H   0  0  0  0  0  0  0  0  0  0  0  0
   -3.8303   14.6990  -31.7111 H   0  0  0  0  0  0  0  0  0  0  0  0
   -2.7596   13.1249  -30.5318 H   0  0  0  0  0  0  0  0  0  0  0  0
   -3.2580   12.0267  -31.8631 H   0  0  0  0  0  0  0  0  0  0  0  0
   -1.6136   12.7496  -31.8631 H   0  0  0  0  0  0  0  0  0  0  0  0
   -5.5991   15.2872  -31.4634 H   0  0  0  0  0  0  0  0  0  0  0  0
   -4.4739   20.1850  -31.7318 H   0  0  0  0  0  0  0  0  0  0  0  0
  1  2  1  0
  2  3  1  0
  3  4  1  0
  4  5  2  0
  4  6  1  0
  6  7  1  0
  7  8  1  0
  8  9  2  0
  8 10  1  0
 10 11  1  0
 11 12  1  0
 12 13  1  0
 12 14  2  0
 11 15  2  0
 15 16  1  0
 16 17  2  0
 17 18  1  0
 18 19  2  0
 19 20  1  0
 20 21  2  0
 21 22  1  0
 21 23  1  0
 23 24  2  0
 24 25  1  0
 25 26  2  0
 25 27  1  0
 27 28  1  0
 28 29  1  0
 28 30  1  0
 30 31  1  0
 30 32  1  0
 30 33  1  0
 24 34  1  0
 34 35  2  0
 35 36  1  0
 19 37  1  0
 37 38  2  0
 38 10  1  0
 38 16  1  0
 35 20  1  0
  1 39  1  0
  1 40  1  0
  1 41  1  0
  2 42  1  0
  2 43  1  0
  6 44  1  0
  6 45  1  0
  7 46  1  0
  7 47  1  0
 13 48  1  0
 15 49  1  0
 17 50  1  0
 18 51  1  0
 23 52  1  0
 28 53  1  1
 29 54  1  0
 29 55  1  0
 29 56  1  0
 34 57  1  0
 37 58  1  0
M  CHG  2  13  -1  27  -1
M  END
>  <UniqueID>  (91) 
91

>  <SMILES>  (91) 
CCOC(=O)CCC(=O)n1c(C([NH-])=O)cc2ccc(-c3c(F)cc(C(=O)[N-][C@@H](C)C(F)(F)F)cc3F)cc21

>  <Energy>  (91) 
97.32505518141392

>  <Genealogy>  (91) 
CCOC(=O)CCC(=O)n1c(C([NH-])=O)cc2ccc(-c3c(F)cc(C(=O)[N-][C@@H](C)C(F)(F)F)cc3F)cc21 (protonated)
CCOC(=O)CCC(=O)n1c(C([NH-])=O)cc2ccc(-c3c(F)cc(C(=O)[N-][C@@H](C)C(F)(F)F)cc3F)cc21 (3D coordinates assigned)
CCOC(=O)CCC(=O)n1c(C([NH-])=O)cc2ccc(-c3c(F)cc(C(=O)[N-][C@@H](C)C(F)(F)F)cc3F)cc21 (optimized conformer: 97.32505518141392 kcal/mol)

>  <smiles>  (91) 
CCOC(=O)CCC(=O)n1c(C(N)=O)cc2ccc(-c3c(F)cc(C(=O)N[C@@H](C)C(F)(F)F)cc3F)cc21

>  <score_type>  (91) 
oracle

>  <origin>  (91) 
adg

>  <m_score__min__energy>  (91) 
-11.619999999999999

>  <m_primary>  (91) 
energy

$$$$
91:0
     RDKit          3D

 39 40  0  0  0  0  0  0  0  0999 V2000
   -4.6810   17.4130  -34.9600 C   0  0  0  0  0  0  0  0  0  0  0  0
   -5.9980   17.3840  -34.3000 N   0  0  0  0  0  0  0  0  0  0  0  0
   -6.4550   15.9900  -34.1790 C   0  0  0  0  0  0  0  0  0  0  0  0
   -5.9410   18.0200  -32.9650 C   0  0  0  0  0  0  0  0  0  0  0  0
   -7.3450   18.3680  -32.4510 C   0  0  0  0  0  0  0  0  0  0  0  0
   -7.4660   19.8350  -32.1320 C   0  0  0  0  0  0  0  0  0  0  0  0
   -8.7200   20.4870  -32.2410 C   0  0  0  0  0  0  0  0  0  0  0  0
   -8.8450   21.8500  -31.9270 C   0  0  0  0  0  0  0  0  0  0  0  0
   -7.7110   22.5250  -31.4860 C   0  0  0  0  0  0  0  0  0  0  0  0
   -7.5450   23.8500  -31.1530 C   0  0  0  0  0  0  0  0  0  0  0  0
   -6.2020   23.9750  -30.8020 C   0  0  0  0  0  0  0  0  0  0  0  0
   -5.5910   25.2430  -30.3550 C   0  0  0  0  0  0  0  0  0  0  0  0
   -4.2660   25.6090  -30.7470 N   0  0  0  0  0  0  0  0  0  0  0  0
   -6.2310   25.9970  -29.5750 O   0  0  0  0  0  0  0  0  0  0  0  0
   -5.5620   22.7780  -30.9170 N   0  0  0  0  0  0  0  0  0  0  0  0
   -4.1550   22.5310  -30.7600 C   0  0  0  0  0  0  0  0  0  0  0  0
   -3.3400   23.0200  -31.5870 O   0  0  0  0  0  0  0  0  0  0  0  0
   -3.6320   21.7680  -29.5810 C   0  0  0  0  0  0  0  0  0  0  0  0
   -3.7830   22.7410  -28.0960 Cl  0  0  0  0  0  0  0  0  0  0  0  0
   -6.4990   21.9010  -31.3430 C   0  0  0  0  0  0  0  0  0  0  0  0
   -6.3380   20.5520  -31.6790 C   0  0  0  0  0  0  0  0  0  0  0  0
   -3.8888   17.4304  -34.1970 H   0  0  0  0  0  0  0  0  0  0  0  0
   -4.5657   16.5172  -35.5879 H   0  0  0  0  0  0  0  0  0  0  0  0
   -4.6052   18.3130  -35.5879 H   0  0  0  0  0  0  0  0  0  0  0  0
   -6.5423   15.7238  -33.1153 H   0  0  0  0  0  0  0  0  0  0  0  0
   -7.4356   15.8820  -34.6657 H   0  0  0  0  0  0  0  0  0  0  0  0
   -5.7287   15.3225  -34.6657 H   0  0  0  0  0  0  0  0  0  0  0  0
   -5.4626   17.3262  -32.2580 H   0  0  0  0  0  0  0  0  0  0  0  0
   -5.3620   18.9515  -33.0493 H   0  0  0  0  0  0  0  0  0  0  0  0
   -8.0835   18.1077  -33.2235 H   0  0  0  0  0  0  0  0  0  0  0  0
   -7.5270   17.7972  -31.5285 H   0  0  0  0  0  0  0  0  0  0  0  0
   -9.6022   19.9207  -32.5742 H   0  0  0  0  0  0  0  0  0  0  0  0
   -9.8101   22.3683  -32.0266 H   0  0  0  0  0  0  0  0  0  0  0  0
   -8.3090   24.6413  -31.1620 H   0  0  0  0  0  0  0  0  0  0  0  0
   -3.8740   26.5340  -30.4650 H   0  0  0  0  0  0  0  0  0  0  0  0
   -3.6370   24.9290  -31.2280 H   0  0  0  0  0  0  0  0  0  0  0  0
   -4.2089   20.8385  -29.4657 H   0  0  0  0  0  0  0  0  0  0  0  0
   -2.5702   21.5350  -29.7489 H   0  0  0  0  0  0  0  0  0  0  0  0
   -5.3566   20.0627  -31.5922 H   0  0  0  0  0  0  0  0  0  0  0  0
  1  2  1  0
  2  3  1  0
  2  4  1  0
  4  5  1  0
  5  6  1  0
  6  7  2  0
  7  8  1  0
  8  9  2  0
  9 10  1  0
 10 11  2  0
 11 12  1  0
 12 13  1  0
 12 14  2  0
 11 15  1  0
 15 16  1  0
 16 17  2  0
 16 18  1  0
 18 19  1  0
 15 20  1  0
 20 21  2  0
 21  6  1  0
 20  9  1  0
  1 22  1  0
  1 23  1  0
  1 24  1  0
  3 25  1  0
  3 26  1  0
  3 27  1  0
  4 28  1  0
  4 29  1  0
  5 30  1  0
  5 31  1  0
  7 32  1  0
  8 33  1  0
 10 34  1  0
 13 35  1  0
 13 36  1  0
 18 37  1  0
 18 38  1  0
 21 39  1  0
M  END
>  <UniqueID>  (92) 
92

>  <SMILES>  (92) 
CN(C)CCc1ccc2cc(C(N)=O)n(C(=O)CCl)c2c1

>  <Energy>  (92) 
75.80790842687355

>  <Genealogy>  (92) 
CN(C)CCc1ccc2cc(C(N)=O)n(C(=O)CCl)c2c1 (3D coordinates assigned)
CN(C)CCc1ccc2cc(C(N)=O)n(C(=O)CCl)c2c1 (optimized conformer: 75.80790842687355 kcal/mol)

>  <smiles>  (92) 
CN(C)CCc1ccc2cc(C(N)=O)n(C(=O)CCl)c2c1

>  <score_type>  (92) 
oracle

>  <origin>  (92) 
adg

>  <m_score__min__energy>  (92) 
-8.4299999999999997

>  <m_primary>  (92) 
energy

$$$$
92:0
     RDKit          3D

 40 41  0  0  0  0  0  0  0  0999 V2000
   -3.8650   25.6540  -30.8690 N   0  0  0  0  0  0  0  0  0  0  0  0
   -5.1980   25.2720  -30.5410 C   0  0  0  0  0  0  0  0  0  0  0  0
   -5.8780   26.0040  -29.7720 O   0  0  0  0  0  0  0  0  0  0  0  0
   -5.7710   24.0050  -31.0380 C   0  0  0  0  0  0  0  0  0  0  0  0
   -7.1370   23.8010  -31.2170 C   0  0  0  0  0  0  0  0  0  0  0  0
   -7.2620   22.4890  -31.6090 C   0  0  0  0  0  0  0  0  0  0  0  0
   -8.4010   21.7590  -31.9320 C   0  0  0  0  0  0  0  0  0  0  0  0
   -8.2340   20.4240  -32.3390 C   0  0  0  0  0  0  0  0  0  0  0  0
   -6.9400   19.8550  -32.4320 C   0  0  0  0  0  0  0  0  0  0  0  0
   -6.7750   18.4200  -32.8530 C   0  0  0  0  0  0  0  0  0  0  0  0
   -5.8180   18.3170  -34.0000 C   0  0  0  0  0  0  0  0  0  0  0  0
   -6.0550   18.8810  -35.0560 O   0  0  0  0  0  0  0  0  0  0  0  0
   -5.8060   20.6250  -32.0870 C   0  0  0  0  0  0  0  0  0  0  0  0
   -6.0030   21.9450  -31.6640 C   0  0  0  0  0  0  0  0  0  0  0  0
   -5.0740   22.8650  -31.3160 N   0  0  0  0  0  0  0  0  0  0  0  0
   -3.6470   22.7040  -31.3630 C   0  0  0  0  0  0  0  0  0  0  0  0
   -3.0850   22.3460  -32.4340 O   0  0  0  0  0  0  0  0  0  0  0  0
   -2.8830   22.9650  -30.2230 O   0  0  0  0  0  0  0  0  0  0  0  0
   -2.9590   22.1800  -29.0390 C   0  0  0  0  0  0  0  0  0  0  0  0
   -2.9990   23.0900  -27.8080 C   0  0  0  0  0  0  0  0  0  0  0  0
   -1.6970   23.8790  -27.5820 C   0  0  0  0  0  0  0  0  0  0  0  0
   -1.7850   25.3610  -27.9650 C   0  0  0  0  0  0  0  0  0  0  0  0
   -1.3180   25.5590  -29.2710 O   0  0  0  0  0  0  0  0  0  0  0  0
   -3.0470   25.1150  -30.5070 H   0  0  0  0  0  0  0  0  0  0  0  0
   -7.9447   24.5341  -31.0749 H   0  0  0  0  0  0  0  0  0  0  0  0
   -9.4014   22.2123  -31.8708 H   0  0  0  0  0  0  0  0  0  0  0  0
   -9.1161   19.8156  -32.5875 H   0  0  0  0  0  0  0  0  0  0  0  0
   -6.3879   17.8361  -32.0049 H   0  0  0  0  0  0  0  0  0  0  0  0
   -7.7527   18.0271  -33.1689 H   0  0  0  0  0  0  0  0  0  0  0  0
   -4.8949   17.7289  -33.8900 H   0  0  0  0  0  0  0  0  0  0  0  0
   -4.7942   20.1979  -32.1493 H   0  0  0  0  0  0  0  0  0  0  0  0
   -3.8710   21.5656  -29.0674 H   0  0  0  0  0  0  0  0  0  0  0  0
   -2.0730   21.5308  -28.9791 H   0  0  0  0  0  0  0  0  0  0  0  0
   -3.8232   23.8077  -27.9328 H   0  0  0  0  0  0  0  0  0  0  0  0
   -3.1387   22.4405  -26.9313 H   0  0  0  0  0  0  0  0  0  0  0  0
   -1.4346   23.8134  -26.5158 H   0  0  0  0  0  0  0  0  0  0  0  0
   -0.9368   23.4282  -28.2368 H   0  0  0  0  0  0  0  0  0  0  0  0
   -2.8328   25.6897  -27.9016 H   0  0  0  0  0  0  0  0  0  0  0  0
   -1.1617   25.9451  -27.2720 H   0  0  0  0  0  0  0  0  0  0  0  0
   -2.1240   25.6680  -29.8390 H   0  0  0  0  0  0  0  0  0  0  0  0
  1  2  1  0
  2  3  2  0
  2  4  1  0
  4  5  2  0
  5  6  1  0
  6  7  2  0
  7  8  1  0
  8  9  2  0
  9 10  1  0
 10 11  1  0
 11 12  2  0
  9 13  1  0
 13 14  2  0
 14 15  1  0
 15 16  1  0
 16 17  2  0
 16 18  1  0
 18 19  1  0
 19 20  1  0
 20 21  1  0
 21 22  1  0
 22 23  1  0
 15  4  1  0
 14  6  1  0
  1 24  1  0
  5 25  1  0
  7 26  1  0
  8 27  1  0
 10 28  1  0
 10 29  1  0
 11 30  1  0
 13 31  1  0
 19 32  1  0
 19 33  1  0
 20 34  1  0
 20 35  1  0
 21 36  1  0
 21 37  1  0
 22 38  1  0
 22 39  1  0
 23 40  1  0
M  CHG  1   1  -1
M  END
>  <UniqueID>  (93) 
93

>  <SMILES>  (93) 
[NH-]C(=O)c1cc2ccc(CC=O)cc2n1C(=O)OCCCCO

>  <Energy>  (93) 
69.29153742807237

>  <Genealogy>  (93) 
[NH-]C(=O)c1cc2ccc(CC=O)cc2n1C(=O)OCCCCO (protonated)
[NH-]C(=O)c1cc2ccc(CC=O)cc2n1C(=O)OCCCCO (3D coordinates assigned)
[NH-]C(=O)c1cc2ccc(CC=O)cc2n1C(=O)OCCCCO (optimized conformer: 69.29153742807237 kcal/mol)

>  <smiles>  (93) 
NC(=O)c1cc2ccc(CC=O)cc2n1C(=O)OCCCCO

>  <score_type>  (93) 
oracle

>  <origin>  (93) 
adg

>  <m_score__min__energy>  (93) 
-10.220000000000001

>  <m_primary>  (93) 
energy

$$$$
93:0
     RDKit          3D

 58 60  0  0  0  0  0  0  0  0999 V2000
   -6.0880   19.1590  -34.1890 C   0  0  0  0  0  0  0  0  0  0  0  0
   -6.4400   17.9440  -33.3130 C   0  0  1  0  0  0  0  0  0  0  0  0
   -5.2140   17.1700  -32.8930 C   0  0  0  0  0  0  0  0  0  0  0  0
   -5.2930   15.9650  -32.5310 O   0  0  0  0  0  0  0  0  0  0  0  0
   -3.9670   17.7770  -32.9600 O   0  0  0  0  0  0  0  0  0  0  0  0
   -7.3310   18.3240  -32.1040 C   0  0  0  0  0  0  0  0  0  0  0  0
   -6.8160   17.7340  -30.9560 F   0  0  0  0  0  0  0  0  0  0  0  0
   -8.5960   17.7920  -32.2970 F   0  0  0  0  0  0  0  0  0  0  0  0
   -7.4280   19.8250  -31.8900 C   0  0  0  0  0  0  0  0  0  0  0  0
   -8.5650   20.5450  -32.3380 C   0  0  0  0  0  0  0  0  0  0  0  0
   -8.6580   21.9350  -32.1470 C   0  0  0  0  0  0  0  0  0  0  0  0
   -7.6020   22.5790  -31.5080 C   0  0  0  0  0  0  0  0  0  0  0  0
   -7.4140   23.9140  -31.2410 C   0  0  0  0  0  0  0  0  0  0  0  0
   -6.1600   23.9990  -30.6410 C   0  0  0  0  0  0  0  0  0  0  0  0
   -5.5770   25.2700  -30.1640 C   0  0  0  0  0  0  0  0  0  0  0  0
   -4.2450   25.6140  -30.5310 N   0  0  0  0  0  0  0  0  0  0  0  0
   -6.2380   26.0560  -29.4340 O   0  0  0  0  0  0  0  0  0  0  0  0
   -5.5920   22.7620  -30.5420 N   0  0  0  0  0  0  0  0  0  0  0  0
   -4.2610   22.4290  -30.1010 C   0  0  0  0  0  0  0  0  0  0  0  0
   -4.0990   21.9050  -28.9680 O   0  0  0  0  0  0  0  0  0  0  0  0
   -3.1410   22.5570  -30.9980 N   0  0  0  0  0  0  0  0  0  0  0  0
   -3.3780   22.2550  -32.4150 C   0  0  0  0  0  0  0  0  0  0  0  0
   -2.9390   20.8130  -32.6930 C   0  0  0  0  0  0  0  0  0  0  0  0
   -1.4760   20.5990  -32.2730 C   0  0  0  0  0  0  0  0  0  0  0  0
   -1.2260   21.0220  -30.8110 C   0  0  0  0  0  0  0  0  0  0  0  0
   -1.7290   22.4570  -30.5670 C   0  0  2  0  0  0  0  0  0  0  0  0
   -1.4380   23.0270  -29.1460 C   0  0  0  0  0  0  0  0  0  0  0  0
   -1.9850   24.3890  -28.9270 N   0  0  0  0  0  0  0  0  0  0  0  0
   -0.9060   25.3390  -28.5980 C   0  0  0  0  0  0  0  0  0  0  0  0
   -2.9720   24.4090  -27.8310 C   0  0  0  0  0  0  0  0  0  0  0  0
   -6.4900   21.9050  -31.0780 C   0  0  0  0  0  0  0  0  0  0  0  0
   -6.3680   20.5230  -31.2650 C   0  0  0  0  0  0  0  0  0  0  0  0
   -5.8398   20.0157  -33.5451 H   0  0  0  0  0  0  0  0  0  0  0  0
   -5.2236   18.9151  -34.8241 H   0  0  0  0  0  0  0  0  0  0  0  0
   -6.9489   19.4149  -34.8241 H   0  0  0  0  0  0  0  0  0  0  0  0
   -7.0401   17.2713  -33.9434 H   0  0  0  0  0  0  0  0  0  0  0  0
   -9.3838   20.0096  -32.8409 H   0  0  0  0  0  0  0  0  0  0  0  0
   -9.5386   22.4966  -32.4921 H   0  0  0  0  0  0  0  0  0  0  0  0
   -8.1073   24.7406  -31.4558 H   0  0  0  0  0  0  0  0  0  0  0  0
   -3.4850   25.6630  -29.8140 H   0  0  0  0  0  0  0  0  0  0  0  0
   -4.4485   22.3659  -32.6426 H   0  0  0  0  0  0  0  0  0  0  0  0
   -2.8033   22.9488  -33.0461 H   0  0  0  0  0  0  0  0  0  0  0  0
   -3.5819   20.1242  -32.1254 H   0  0  0  0  0  0  0  0  0  0  0  0
   -3.0290   20.6181  -33.7718 H   0  0  0  0  0  0  0  0  0  0  0  0
   -1.2278   19.5329  -32.3815 H   0  0  0  0  0  0  0  0  0  0  0  0
   -0.8423   21.2233  -32.9201 H   0  0  0  0  0  0  0  0  0  0  0  0
   -1.7593   20.3331  -30.1394 H   0  0  0  0  0  0  0  0  0  0  0  0
   -0.1447   20.9872  -30.6123 H   0  0  0  0  0  0  0  0  0  0  0  0
   -1.1304   23.1338  -31.1944 H   0  0  0  0  0  0  0  0  0  0  0  0
   -1.8834   22.3500  -28.4022 H   0  0  0  0  0  0  0  0  0  0  0  0
   -0.3450   23.0992  -29.0458 H   0  0  0  0  0  0  0  0  0  0  0  0
   -0.8114   25.4223  -27.5052 H   0  0  0  0  0  0  0  0  0  0  0  0
    0.0426   24.9775  -29.0217 H   0  0  0  0  0  0  0  0  0  0  0  0
   -1.1444   26.3257  -29.0217 H   0  0  0  0  0  0  0  0  0  0  0  0
   -2.4469   24.3984  -26.8645 H   0  0  0  0  0  0  0  0  0  0  0  0
   -3.5844   25.3197  -27.9056 H   0  0  0  0  0  0  0  0  0  0  0  0
   -3.6208   23.5238  -27.9056 H   0  0  0  0  0  0  0  0  0  0  0  0
   -5.4651   19.9900  -30.9323 H   0  0  0  0  0  0  0  0  0  0  0  0
  1  2  1  0
  2  3  1  0
  3  4  2  0
  3  5  1  0
  2  6  1  0
  6  7  1  0
  6  8  1  0
  6  9  1  0
  9 10  2  0
 10 11  1  0
 11 12  2  0
 12 13  1  0
 13 14  2  0
 14 15  1  0
 15 16  1  0
 15 17  2  0
 14 18  1  0
 18 19  1  0
 19 20  2  0
 19 21  1  0
 21 22  1  0
 22 23  1  0
 23 24  1  0
 24 25  1  0
 25 26  1  0
 26 27  1  0
 27 28  1  0
 28 29  1  0
 28 30  1  0
 18 31  1  0
 31 32  2  0
 32  9  1  0
 31 12  1  0
 26 21  1  0
  1 33  1  0
  1 34  1  0
  1 35  1  0
  2 36  1  6
 10 37  1  0
 11 38  1  0
 13 39  1  0
 16 40  1  0
 22 41  1  0
 22 42  1  0
 23 43  1  0
 23 44  1  0
 24 45  1  0
 24 46  1  0
 25 47  1  0
 25 48  1  0
 26 49  1  6
 27 50  1  0
 27 51  1  0
 29 52  1  0
 29 53  1  0
 29 54  1  0
 30 55  1  0
 30 56  1  0
 30 57  1  0
 32 58  1  0
M  CHG  2   5  -1  16  -1
M  END
>  <UniqueID>  (94) 
94

>  <SMILES>  (94) 
C[C@@H](C(=O)[O-])C(F)(F)c1ccc2cc(C([NH-])=O)n(C(=O)N3CCCC[C@@H]3CN(C)C)c2c1

>  <Energy>  (94) 
103.55671014858932

>  <Genealogy>  (94) 
CC(C(=O)[O-])C(F)(F)c1ccc2cc(C([NH-])=O)n(C(=O)N3CCCCC3CN(C)C)c2c1 (protonated)
C[C@@H](C(=O)[O-])C(F)(F)c1ccc2cc(C([NH-])=O)n(C(=O)N3CCCC[C@@H]3CN(C)C)c2c1 (chirality)
C[C@@H](C(=O)[O-])C(F)(F)c1ccc2cc(C([NH-])=O)n(C(=O)N3CCCC[C@@H]3CN(C)C)c2c1 (3D coordinates assigned)
C[C@@H](C(=O)[O-])C(F)(F)c1ccc2cc(C([NH-])=O)n(C(=O)N3CCCC[C@@H]3CN(C)C)c2c1 (nonaromatic ring conformer: 103.55671014858932 kcal/mol)

>  <smiles>  (94) 
CC(C(=O)O)C(F)(F)c1ccc2cc(C(N)=O)n(C(=O)N3CCCCC3CN(C)C)c2c1

>  <score_type>  (94) 
oracle

>  <origin>  (94) 
adg

>  <m_score__min__energy>  (94) 
-11.949999999999999

>  <m_primary>  (94) 
energy

$$$$
94:0
     RDKit          3D

 47 48  0  0  0  0  0  0  0  0999 V2000
   -3.1080   18.6810  -25.9690 C   0  0  0  0  0  0  0  0  0  0  0  0
   -2.9780   19.5670  -26.9620 C   0  0  0  0  0  0  0  0  0  0  0  0
   -1.6290   20.0230  -27.4310 C   0  0  0  0  0  0  0  0  0  0  0  0
   -1.6800   21.4050  -27.7790 O   0  0  0  0  0  0  0  0  0  0  0  0
   -2.3540   21.8830  -28.9070 C   0  0  0  0  0  0  0  0  0  0  0  0
   -2.0270   21.5000  -30.0610 O   0  0  0  0  0  0  0  0  0  0  0  0
   -3.4130   22.8290  -28.7620 N   0  0  0  0  0  0  0  0  0  0  0  0
   -4.0420   23.4920  -29.9010 C   0  0  1  0  0  0  0  0  0  0  0  0
   -5.5680   23.5550  -29.7080 C   0  0  0  0  0  0  0  0  0  0  0  0
   -6.3550   23.5710  -31.0320 C   0  0  0  0  0  0  0  0  0  0  0  0
   -6.8250   22.1990  -31.4430 C   0  0  0  0  0  0  0  0  0  0  0  0
   -8.1570   21.7940  -31.1800 C   0  0  0  0  0  0  0  0  0  0  0  0
   -8.6040   20.5170  -31.5520 C   0  0  0  0  0  0  0  0  0  0  0  0
   -7.6960   19.6620  -32.1650 C   0  0  0  0  0  0  0  0  0  0  0  0
   -7.8680   18.3840  -32.6500 C   0  0  0  0  0  0  0  0  0  0  0  0
   -6.6290   18.0140  -33.1690 C   0  0  0  0  0  0  0  0  0  0  0  0
   -6.3430   16.6770  -33.7290 C   0  0  0  0  0  0  0  0  0  0  0  0
   -5.0680   16.0790  -33.5220 N   0  0  0  0  0  0  0  0  0  0  0  0
   -7.2040   16.0650  -34.4140 O   0  0  0  0  0  0  0  0  0  0  0  0
   -5.7270   19.0260  -33.0200 N   0  0  0  0  0  0  0  0  0  0  0  0
   -4.3650   19.0710  -33.4760 C   0  0  0  0  0  0  0  0  0  0  0  0
   -4.0560   18.5700  -34.5930 O   0  0  0  0  0  0  0  0  0  0  0  0
   -3.3900   19.6880  -32.6890 O   0  0  0  0  0  0  0  0  0  0  0  0
   -2.7880   20.9240  -33.0510 C   0  0  0  0  0  0  0  0  0  0  0  0
   -6.3950   20.0270  -32.4030 C   0  0  0  0  0  0  0  0  0  0  0  0
   -5.9290   21.3030  -32.0650 C   0  0  0  0  0  0  0  0  0  0  0  0
   -3.4830   24.8740  -30.0630 C   0  0  0  0  0  0  0  0  0  0  0  0
   -3.9790   25.6710  -30.9010 O   0  0  0  0  0  0  0  0  0  0  0  0
   -2.3730   25.2620  -29.3240 O   0  0  0  0  0  0  0  0  0  0  0  0
   -4.1094   18.3626  -25.6435 H   0  0  0  0  0  0  0  0  0  0  0  0
   -2.2136   18.2705  -25.4776 H   0  0  0  0  0  0  0  0  0  0  0  0
   -3.8803   19.9700  -27.4452 H   0  0  0  0  0  0  0  0  0  0  0  0
   -0.8937   19.8760  -26.6262 H   0  0  0  0  0  0  0  0  0  0  0  0
   -1.3343   19.4369  -28.3140 H   0  0  0  0  0  0  0  0  0  0  0  0
   -3.8278   22.9118  -30.8107 H   0  0  0  0  0  0  0  0  0  0  0  0
   -5.8820   22.6753  -29.1270 H   0  0  0  0  0  0  0  0  0  0  0  0
   -5.7896   24.4990  -29.1887 H   0  0  0  0  0  0  0  0  0  0  0  0
   -7.2328   24.2230  -30.9123 H   0  0  0  0  0  0  0  0  0  0  0  0
   -5.6792   23.9410  -31.8171 H   0  0  0  0  0  0  0  0  0  0  0  0
   -8.8480   22.4879  -30.6789 H   0  0  0  0  0  0  0  0  0  0  0  0
   -9.6412   20.2024  -31.3642 H   0  0  0  0  0  0  0  0  0  0  0  0
   -8.7889   17.7827  -32.6314 H   0  0  0  0  0  0  0  0  0  0  0  0
   -4.1910   16.6170  -33.6840 H   0  0  0  0  0  0  0  0  0  0  0  0
   -2.5171   21.4802  -32.1415 H   0  0  0  0  0  0  0  0  0  0  0  0
   -1.8831   20.7308  -33.6458 H   0  0  0  0  0  0  0  0  0  0  0  0
   -3.4980   21.5174  -33.6458 H   0  0  0  0  0  0  0  0  0  0  0  0
   -4.8915   21.5997  -32.2786 H   0  0  0  0  0  0  0  0  0  0  0  0
  1  2  2  0
  2  3  1  0
  3  4  1  0
  4  5  1  0
  5  6  2  0
  5  7  1  0
  7  8  1  0
  8  9  1  0
  9 10  1  0
 10 11  1  0
 11 12  2  0
 12 13  1  0
 13 14  2  0
 14 15  1  0
 15 16  2  0
 16 17  1  0
 17 18  1  0
 17 19  2  0
 16 20  1  0
 20 21  1  0
 21 22  2  0
 21 23  1  0
 23 24  1  0
 20 25  1  0
 25 26  2  0
  8 27  1  0
 27 28  2  0
 27 29  1  0
 26 11  1  0
 25 14  1  0
  1 30  1  0
  1 31  1  0
  2 32  1  0
  3 33  1  0
  3 34  1  0
  8 35  1  6
  9 36  1  0
  9 37  1  0
 10 38  1  0
 10 39  1  0
 12 40  1  0
 13 41  1  0
 15 42  1  0
 18 43  1  0
 24 44  1  0
 24 45  1  0
 24 46  1  0
 26 47  1  0
M  CHG  3   7  -1  18  -1  29  -1
M  END
>  <UniqueID>  (95) 
95

>  <SMILES>  (95) 
C=CCOC(=O)[N-][C@@H](CCc1ccc2cc(C([NH-])=O)n(C(=O)OC)c2c1)C(=O)[O-]

>  <Energy>  (95) 
72.06769672564636

>  <Genealogy>  (95) 
C=CCOC(=O)[N-]C(CCc1ccc2cc(C([NH-])=O)n(C(=O)OC)c2c1)C(=O)[O-] (protonated)
C=CCOC(=O)[N-][C@@H](CCc1ccc2cc(C([NH-])=O)n(C(=O)OC)c2c1)C(=O)[O-] (chirality)
C=CCOC(=O)[N-][C@@H](CCc1ccc2cc(C([NH-])=O)n(C(=O)OC)c2c1)C(=O)[O-] (3D coordinates assigned)
C=CCOC(=O)[N-][C@@H](CCc1ccc2cc(C([NH-])=O)n(C(=O)OC)c2c1)C(=O)[O-] (optimized conformer: 72.06769672564636 kcal/mol)

>  <smiles>  (95) 
C=CCOC(=O)NC(CCc1ccc2cc(C(N)=O)n(C(=O)OC)c2c1)C(=O)O

>  <score_type>  (95) 
oracle

>  <origin>  (95) 
adg

>  <m_score__min__energy>  (95) 
-10.56

>  <m_primary>  (95) 
energy

$$$$
95:0
     RDKit          3D

 41 43  0  0  0  0  0  0  0  0999 V2000
   -2.7120   19.4240  -33.7700 C   0  0  0  0  0  0  0  0  0  0  0  0
   -2.1810   19.7130  -32.3710 C   0  0  0  0  0  0  0  0  0  0  0  0
   -1.7880   21.1510  -32.2450 C   0  0  0  0  0  0  0  0  0  0  0  0
   -0.5860   21.4490  -32.0120 O   0  0  0  0  0  0  0  0  0  0  0  0
   -2.7760   22.1390  -32.3480 O   0  0  0  0  0  0  0  0  0  0  0  0
   -3.4340   22.7370  -31.2660 C   0  0  0  0  0  0  0  0  0  0  0  0
   -2.7820   23.1960  -30.2880 O   0  0  0  0  0  0  0  0  0  0  0  0
   -4.8690   22.8030  -31.2590 N   0  0  0  0  0  0  0  0  0  0  0  0
   -5.6500   23.8880  -30.9870 C   0  0  0  0  0  0  0  0  0  0  0  0
   -5.1770   25.1920  -30.4790 C   0  0  0  0  0  0  0  0  0  0  0  0
   -3.8790   25.6630  -30.8310 N   0  0  0  0  0  0  0  0  0  0  0  0
   -5.9220   25.9140  -29.7650 O   0  0  0  0  0  0  0  0  0  0  0  0
   -6.9960   23.5790  -31.1730 C   0  0  0  0  0  0  0  0  0  0  0  0
   -7.0170   22.2600  -31.5640 C   0  0  0  0  0  0  0  0  0  0  0  0
   -8.0930   21.4420  -31.8910 C   0  0  0  0  0  0  0  0  0  0  0  0
   -7.8230   20.1220  -32.2860 C   0  0  0  0  0  0  0  0  0  0  0  0
   -6.4870   19.6430  -32.3570 C   0  0  0  0  0  0  0  0  0  0  0  0
   -6.2130   18.2480  -32.7840 C   0  0  0  0  0  0  0  0  0  0  0  0
   -6.4460   17.8430  -34.1080 C   0  0  0  0  0  0  0  0  0  0  0  0
   -6.1870   16.5290  -34.4930 C   0  0  0  0  0  0  0  0  0  0  0  0
   -5.6950   15.6230  -33.5540 C   0  0  0  0  0  0  0  0  0  0  0  0
   -5.4690   16.0180  -32.2680 N   0  0  0  0  0  0  0  0  0  0  0  0
   -4.9800   15.1200  -31.3430 O   0  0  0  0  0  0  0  0  0  0  0  0
   -5.7160   17.2980  -31.8730 C   0  0  0  0  0  0  0  0  0  0  0  0
   -5.4200   20.5100  -32.0170 C   0  0  0  0  0  0  0  0  0  0  0  0
   -5.7220   21.8140  -31.6100 C   0  0  0  0  0  0  0  0  0  0  0  0
   -3.6759   18.8994  -33.6952 H   0  0  0  0  0  0  0  0  0  0  0  0
   -2.8510   20.3709  -34.3123 H   0  0  0  0  0  0  0  0  0  0  0  0
   -1.9923   18.7931  -34.3123 H   0  0  0  0  0  0  0  0  0  0  0  0
   -2.9642   19.4860  -31.6327 H   0  0  0  0  0  0  0  0  0  0  0  0
   -1.2956   19.0857  -32.1905 H   0  0  0  0  0  0  0  0  0  0  0  0
   -3.0240   25.2790  -30.3700 H   0  0  0  0  0  0  0  0  0  0  0  0
   -7.8587   24.2477  -31.0363 H   0  0  0  0  0  0  0  0  0  0  0  0
   -9.1255   21.8181  -31.8416 H   0  0  0  0  0  0  0  0  0  0  0  0
   -8.6555   19.4507  -32.5435 H   0  0  0  0  0  0  0  0  0  0  0  0
   -6.8336   18.5641  -34.8426 H   0  0  0  0  0  0  0  0  0  0  0  0
   -6.3692   16.2089  -35.5295 H   0  0  0  0  0  0  0  0  0  0  0  0
   -5.4881   14.5845  -33.8518 H   0  0  0  0  0  0  0  0  0  0  0  0
   -5.2970   15.1260  -30.3800 H   0  0  0  0  0  0  0  0  0  0  0  0
   -5.5248   17.5921  -30.8304 H   0  0  0  0  0  0  0  0  0  0  0  0
   -4.3767   20.1657  -32.0717 H   0  0  0  0  0  0  0  0  0  0  0  0
  1  2  1  0
  2  3  1  0
  3  4  2  0
  3  5  1  0
  5  6  1  0
  6  7  2  0
  6  8  1  0
  8  9  1  0
  9 10  1  0
 10 11  1  0
 10 12  2  0
  9 13  2  0
 13 14  1  0
 14 15  2  0
 15 16  1  0
 16 17  2  0
 17 18  1  0
 18 19  2  0
 19 20  1  0
 20 21  2  0
 21 22  1  0
 22 23  1  0
 22 24  2  0
 17 25  1  0
 25 26  2  0
 26  8  1  0
 26 14  1  0
 24 18  1  0
  1 27  1  0
  1 28  1  0
  1 29  1  0
  2 30  1  0
  2 31  1  0
 11 32  1  0
 13 33  1  0
 15 34  1  0
 16 35  1  0
 19 36  1  0
 20 37  1  0
 21 38  1  0
 23 39  1  0
 24 40  1  0
 25 41  1  0
M  CHG  2  11  -1  22   1
M  END
>  <UniqueID>  (96) 
96

>  <SMILES>  (96) 
CCC(=O)OC(=O)n1c(C([NH-])=O)cc2ccc(-c3ccc[n+](O)c3)cc21

>  <Energy>  (96) 
84.29287766756325

>  <Genealogy>  (96) 
CCC(=O)OC(=O)n1c(C([NH-])=O)cc2ccc(-c3ccc[n+](O)c3)cc21 (protonated)
CCC(=O)OC(=O)n1c(C([NH-])=O)cc2ccc(-c3ccc[n+](O)c3)cc21 (3D coordinates assigned)
CCC(=O)OC(=O)n1c(C([NH-])=O)cc2ccc(-c3ccc[n+](O)c3)cc21 (optimized conformer: 84.29287766756325 kcal/mol)

>  <smiles>  (96) 
CCC(=O)OC(=O)n1c(C(N)=O)cc2ccc(-c3ccc[n+](O)c3)cc21

>  <score_type>  (96) 
oracle

>  <origin>  (96) 
adg

>  <m_score__min__energy>  (96) 
-10.5

>  <m_primary>  (96) 
energy

$$$$
96:0
     RDKit          3D

 36 38  0  0  0  0  0  0  0  0999 V2000
   -9.1340   18.6300  -31.9600 C   0  0  0  0  0  0  0  0  0  0  0  0
   -8.6290   20.0010  -31.9920 N   0  0  0  0  0  0  0  0  0  0  0  0
   -9.3510   21.1020  -31.7240 C   0  0  0  0  0  0  0  0  0  0  0  0
   -8.5510   22.2020  -31.9300 C   0  0  0  0  0  0  0  0  0  0  0  0
   -7.3260   21.8020  -32.3230 N   0  0  0  0  0  0  0  0  0  0  0  0
   -7.3990   20.4520  -32.3370 C   0  0  0  0  0  0  0  0  0  0  0  0
   -6.2460   19.6170  -32.7270 C   0  0  0  0  0  0  0  0  0  0  0  0
   -6.2160   18.4160  -32.3440 O   0  0  0  0  0  0  0  0  0  0  0  0
   -5.1220   20.1500  -33.5750 C   0  0  0  0  0  0  0  0  0  0  0  0
   -3.9930   20.6620  -32.7200 C   0  0  0  0  0  0  0  0  0  0  0  0
   -2.7380   20.0050  -32.7270 C   0  0  0  0  0  0  0  0  0  0  0  0
   -1.6670   20.5010  -31.9650 C   0  0  0  0  0  0  0  0  0  0  0  0
   -1.8800   21.6510  -31.2100 C   0  0  0  0  0  0  0  0  0  0  0  0
   -1.0120   22.3590  -30.4120 C   0  0  0  0  0  0  0  0  0  0  0  0
   -1.7520   23.4300  -29.9180 C   0  0  0  0  0  0  0  0  0  0  0  0
   -1.2210   24.4020  -28.9410 C   0  0  0  0  0  0  0  0  0  0  0  0
   -1.6190   25.7700  -28.9770 N   0  0  0  0  0  0  0  0  0  0  0  0
   -0.4460   24.0090  -28.0290 O   0  0  0  0  0  0  0  0  0  0  0  0
   -3.0280   23.3940  -30.4010 N   0  0  0  0  0  0  0  0  0  0  0  0
   -4.0670   24.3660  -30.2090 C   0  0  0  0  0  0  0  0  0  0  0  0
   -5.1380   24.0470  -29.6290 O   0  0  0  0  0  0  0  0  0  0  0  0
   -3.9130   25.6620  -30.6870 O   0  0  0  0  0  0  0  0  0  0  0  0
   -3.0910   22.2950  -31.1880 C   0  0  0  0  0  0  0  0  0  0  0  0
   -4.1700   21.8340  -31.9510 C   0  0  0  0  0  0  0  0  0  0  0  0
   -9.2529   18.3073  -30.9151 H   0  0  0  0  0  0  0  0  0  0  0  0
  -10.1074   18.5858  -32.4704 H   0  0  0  0  0  0  0  0  0  0  0  0
   -8.4218   17.9649  -32.4704 H   0  0  0  0  0  0  0  0  0  0  0  0
  -10.4009   21.1206  -31.3963 H   0  0  0  0  0  0  0  0  0  0  0  0
   -8.8636   23.2479  -31.7946 H   0  0  0  0  0  0  0  0  0  0  0  0
   -4.7458   19.3432  -34.2212 H   0  0  0  0  0  0  0  0  0  0  0  0
   -5.5068   20.9834  -34.1811 H   0  0  0  0  0  0  0  0  0  0  0  0
   -2.6008   19.0983  -33.3345 H   0  0  0  0  0  0  0  0  0  0  0  0
   -0.6898   19.9960  -31.9650 H   0  0  0  0  0  0  0  0  0  0  0  0
    0.0438   22.1280  -30.2073 H   0  0  0  0  0  0  0  0  0  0  0  0
   -2.6290   26.0350  -28.9670 H   0  0  0  0  0  0  0  0  0  0  0  0
   -5.1306   22.3700  -31.9519 H   0  0  0  0  0  0  0  0  0  0  0  0
  1  2  1  0
  2  3  1  0
  3  4  2  0
  4  5  1  0
  5  6  2  0
  6  7  1  0
  7  8  2  0
  7  9  1  0
  9 10  1  0
 10 11  2  0
 11 12  1  0
 12 13  2  0
 13 14  1  0
 14 15  2  0
 15 16  1  0
 16 17  1  0
 16 18  2  0
 15 19  1  0
 19 20  1  0
 20 21  2  0
 20 22  1  0
 19 23  1  0
 23 24  2  0
  6  2  1  0
 24 10  1  0
 23 13  1  0
  1 25  1  0
  1 26  1  0
  1 27  1  0
  3 28  1  0
  4 29  1  0
  9 30  1  0
  9 31  1  0
 11 32  1  0
 12 33  1  0
 14 34  1  0
 17 35  1  0
 24 36  1  0
M  CHG  2  17  -1  22  -1
M  END
>  <UniqueID>  (97) 
97

>  <SMILES>  (97) 
Cn1ccnc1C(=O)Cc1ccc2cc(C([NH-])=O)n(C(=O)[O-])c2c1

>  <Energy>  (97) 
109.79222877105694

>  <Genealogy>  (97) 
Cn1ccnc1C(=O)Cc1ccc2cc(C([NH-])=O)n(C(=O)[O-])c2c1 (protonated)
Cn1ccnc1C(=O)Cc1ccc2cc(C([NH-])=O)n(C(=O)[O-])c2c1 (3D coordinates assigned)
Cn1ccnc1C(=O)Cc1ccc2cc(C([NH-])=O)n(C(=O)[O-])c2c1 (optimized conformer: 109.79222877105694 kcal/mol)

>  <smiles>  (97) 
Cn1ccnc1C(=O)Cc1ccc2cc(C(N)=O)n(C(=O)O)c2c1

>  <score_type>  (97) 
oracle

>  <origin>  (97) 
adg

>  <m_score__min__energy>  (97) 
-11.59

>  <m_primary>  (97) 
energy

$$$$
97:0
     RDKit          3D

 43 45  0  0  0  0  0  0  0  0999 V2000
   -3.0120   19.1110  -26.7010 C   0  0  0  0  0  0  0  0  0  0  0  0
   -2.6940   19.8660  -27.8490 O   0  0  0  0  0  0  0  0  0  0  0  0
   -2.2430   21.1640  -27.4940 C   0  0  0  0  0  0  0  0  0  0  0  0
   -3.4590   22.1250  -27.4650 C   0  0  0  0  0  0  0  0  0  0  0  0
   -3.5650   23.0440  -28.6940 C   0  0  0  0  0  0  0  0  0  0  0  0
   -3.0990   22.3590  -29.9070 N   0  0  0  0  0  0  0  0  0  0  0  0
   -3.8390   22.4500  -31.1420 C   0  0  0  0  0  0  0  0  0  0  0  0
   -3.2440   22.3140  -32.2450 O   0  0  0  0  0  0  0  0  0  0  0  0
   -5.2530   22.6960  -31.1370 N   0  0  0  0  0  0  0  0  0  0  0  0
   -5.8970   23.8640  -30.8610 C   0  0  0  0  0  0  0  0  0  0  0  0
   -5.2520   25.1140  -30.4120 C   0  0  0  0  0  0  0  0  0  0  0  0
   -3.8500   25.2960  -30.5960 N   0  0  0  0  0  0  0  0  0  0  0  0
   -5.9300   26.0330  -29.8840 O   0  0  0  0  0  0  0  0  0  0  0  0
   -7.2740   23.7060  -31.0080 C   0  0  0  0  0  0  0  0  0  0  0  0
   -7.4530   22.3890  -31.3730 C   0  0  0  0  0  0  0  0  0  0  0  0
   -8.6200   21.6820  -31.6420 C   0  0  0  0  0  0  0  0  0  0  0  0
   -8.5030   20.3290  -32.0040 C   0  0  0  0  0  0  0  0  0  0  0  0
   -7.2280   19.7140  -32.1130 C   0  0  0  0  0  0  0  0  0  0  0  0
   -7.1180   18.2520  -32.4600 C   0  0  0  0  0  0  0  0  0  0  0  0
   -6.6670   18.1250  -33.7600 F   0  0  0  0  0  0  0  0  0  0  0  0
   -8.3490   17.6280  -32.3450 F   0  0  0  0  0  0  0  0  0  0  0  0
   -6.2300   17.6140  -31.6110 F   0  0  0  0  0  0  0  0  0  0  0  0
   -6.0660   20.4620  -31.8080 C   0  0  0  0  0  0  0  0  0  0  0  0
   -6.2170   21.8030  -31.4410 C   0  0  0  0  0  0  0  0  0  0  0  0
   -1.7710   21.7260  -29.9160 C   0  0  0  0  0  0  0  0  0  0  0  0
   -1.1790   21.6340  -28.5030 C   0  0  0  0  0  0  0  0  0  0  0  0
   -2.7670   19.6927  -25.8001 H   0  0  0  0  0  0  0  0  0  0  0  0
   -4.0862   18.8743  -26.7037 H   0  0  0  0  0  0  0  0  0  0  0  0
   -2.4308   18.1771  -26.7037 H   0  0  0  0  0  0  0  0  0  0  0  0
   -1.7802   21.1521  -26.4962 H   0  0  0  0  0  0  0  0  0  0  0  0
   -4.3757   21.5199  -27.4065 H   0  0  0  0  0  0  0  0  0  0  0  0
   -3.3243   22.7795  -26.5912 H   0  0  0  0  0  0  0  0  0  0  0  0
   -4.6150   23.3421  -28.8304 H   0  0  0  0  0  0  0  0  0  0  0  0
   -2.9316   23.9275  -28.5259 H   0  0  0  0  0  0  0  0  0  0  0  0
   -3.4850   26.0410  -31.2300 H   0  0  0  0  0  0  0  0  0  0  0  0
   -8.0523   24.4698  -30.8635 H   0  0  0  0  0  0  0  0  0  0  0  0
   -9.6049   22.1671  -31.5735 H   0  0  0  0  0  0  0  0  0  0  0  0
   -9.4098   19.7397  -32.2052 H   0  0  0  0  0  0  0  0  0  0  0  0
   -5.0689   20.0002  -31.8583 H   0  0  0  0  0  0  0  0  0  0  0  0
   -1.8619   20.7116  -30.3316 H   0  0  0  0  0  0  0  0  0  0  0  0
   -1.0997   22.3438  -30.5306 H   0  0  0  0  0  0  0  0  0  0  0  0
   -0.3447   20.9171  -28.5075 H   0  0  0  0  0  0  0  0  0  0  0  0
   -0.8251   22.6315  -28.2033 H   0  0  0  0  0  0  0  0  0  0  0  0
  1  2  1  0
  2  3  1  0
  3  4  1  0
  4  5  1  0
  5  6  1  0
  6  7  1  0
  7  8  2  0
  7  9  1  0
  9 10  1  0
 10 11  1  0
 11 12  1  0
 11 13  2  0
 10 14  2  0
 14 15  1  0
 15 16  2  0
 16 17  1  0
 17 18  2  0
 18 19  1  0
 19 20  1  0
 19 21  1  0
 19 22  1  0
 18 23  1  0
 23 24  2  0
  6 25  1  0
 25 26  1  0
 26  3  1  0
 24  9  1  0
 24 15  1  0
  1 27  1  0
  1 28  1  0
  1 29  1  0
  3 30  1  0
  4 31  1  0
  4 32  1  0
  5 33  1  0
  5 34  1  0
 12 35  1  0
 14 36  1  0
 16 37  1  0
 17 38  1  0
 23 39  1  0
 25 40  1  0
 25 41  1  0
 26 42  1  0
 26 43  1  0
M  CHG  1  12  -1
M  END
>  <UniqueID>  (98) 
98

>  <SMILES>  (98) 
COC1CCN(C(=O)n2c(C([NH-])=O)cc3ccc(C(F)(F)F)cc32)CC1

>  <Energy>  (98) 
88.10638754864212

>  <Genealogy>  (98) 
COC1CCN(C(=O)n2c(C([NH-])=O)cc3ccc(C(F)(F)F)cc32)CC1 (protonated)
COC1CCN(C(=O)n2c(C([NH-])=O)cc3ccc(C(F)(F)F)cc32)CC1 (3D coordinates assigned)
COC1CCN(C(=O)n2c(C([NH-])=O)cc3ccc(C(F)(F)F)cc32)CC1 (nonaromatic ring conformer: 88.10638754864212 kcal/mol)

>  <smiles>  (98) 
COC1CCN(C(=O)n2c(C(N)=O)cc3ccc(C(F)(F)F)cc32)CC1

>  <score_type>  (98) 
oracle

>  <origin>  (98) 
adg

>  <m_score__min__energy>  (98) 
-11.109999999999999

>  <m_primary>  (98) 
energy

$$$$
98:0
     RDKit          3D

 61 63  0  0  0  0  0  0  0  0999 V2000
   -4.5730   14.4070  -32.0030 C   0  0  0  0  0  0  0  0  0  0  0  0
   -3.3520   14.9440  -32.7400 C   0  0  0  0  0  0  0  0  0  0  0  0
   -3.3550   16.3700  -32.7370 O   0  0  0  0  0  0  0  0  0  0  0  0
   -3.6880   17.1440  -33.8550 C   0  0  0  0  0  0  0  0  0  0  0  0
   -3.1090   16.9420  -34.9590 O   0  0  0  0  0  0  0  0  0  0  0  0
   -4.7860   18.2040  -33.7660 C   0  0  1  0  0  0  0  0  0  0  0  0
   -4.3240   19.5040  -34.1370 O   0  0  0  0  0  0  0  0  0  0  0  0
   -3.0060   19.8280  -33.7130 C   0  0  0  0  0  0  0  0  0  0  0  0
   -2.8720   21.2030  -33.7250 F   0  0  0  0  0  0  0  0  0  0  0  0
   -2.0920   19.3000  -34.6050 F   0  0  0  0  0  0  0  0  0  0  0  0
   -2.7030   19.3800  -32.4350 F   0  0  0  0  0  0  0  0  0  0  0  0
   -5.8910   17.7910  -34.7500 C   0  0  0  0  0  0  0  0  0  0  0  0
   -6.8470   16.8820  -33.9850 C   0  0  0  0  0  0  0  0  0  0  0  0
   -6.6210   17.1430  -32.4980 C   0  0  0  0  0  0  0  0  0  0  0  0
   -5.5170   18.2060  -32.3880 C   0  0  2  0  0  0  0  0  0  0  0  0
   -6.0800   19.5720  -31.9930 C   0  0  0  0  0  0  0  0  0  0  0  0
   -7.4740   19.8490  -32.0340 C   0  0  0  0  0  0  0  0  0  0  0  0
   -7.9680   21.1230  -31.7090 C   0  0  0  0  0  0  0  0  0  0  0  0
   -7.0540   22.1020  -31.3380 C   0  0  0  0  0  0  0  0  0  0  0  0
   -7.2570   23.4210  -30.9980 C   0  0  0  0  0  0  0  0  0  0  0  0
   -5.9900   23.9320  -30.7230 C   0  0  0  0  0  0  0  0  0  0  0  0
   -5.7420   25.3040  -30.2250 C   0  0  0  0  0  0  0  0  0  0  0  0
   -6.4280   25.7980  -29.0730 N   0  0  0  0  0  0  0  0  0  0  0  0
   -4.8980   26.0410  -30.7980 O   0  0  0  0  0  0  0  0  0  0  0  0
   -5.0410   22.9660  -30.8880 N   0  0  0  0  0  0  0  0  0  0  0  0
   -3.6170   23.0950  -30.7530 C   0  0  0  0  0  0  0  0  0  0  0  0
   -2.8550   22.3270  -31.4020 O   0  0  0  0  0  0  0  0  0  0  0  0
   -3.0940   24.0650  -29.8860 O   0  0  0  0  0  0  0  0  0  0  0  0
   -2.7300   23.8750  -28.5130 C   0  0  0  0  0  0  0  0  0  0  0  0
   -3.9330   24.1520  -27.5920 C   0  0  0  0  0  0  0  0  0  0  0  0
   -1.6180   24.8870  -28.1950 C   0  0  0  0  0  0  0  0  0  0  0  0
   -2.1880   22.4490  -28.2870 C   0  0  0  0  0  0  0  0  0  0  0  0
   -5.7100   21.8520  -31.2630 C   0  0  0  0  0  0  0  0  0  0  0  0
   -5.1880   20.5970  -31.5970 C   0  0  0  0  0  0  0  0  0  0  0  0
   -4.4077   14.4797  -30.9179 H   0  0  0  0  0  0  0  0  0  0  0  0
   -5.4579   14.9990  -32.2795 H   0  0  0  0  0  0  0  0  0  0  0  0
   -4.7348   13.3547  -32.2795 H   0  0  0  0  0  0  0  0  0  0  0  0
   -2.4403   14.5827  -32.2417 H   0  0  0  0  0  0  0  0  0  0  0  0
   -3.3803   14.5900  -33.7811 H   0  0  0  0  0  0  0  0  0  0  0  0
   -6.4251   18.6809  -35.1145 H   0  0  0  0  0  0  0  0  0  0  0  0
   -5.4678   17.2724  -35.6229 H   0  0  0  0  0  0  0  0  0  0  0  0
   -7.8874   17.1157  -34.2553 H   0  0  0  0  0  0  0  0  0  0  0  0
   -6.6627   15.8255  -34.2296 H   0  0  0  0  0  0  0  0  0  0  0  0
   -7.5478   17.5123  -32.0347 H   0  0  0  0  0  0  0  0  0  0  0  0
   -6.3275   16.2188  -31.9787 H   0  0  0  0  0  0  0  0  0  0  0  0
   -4.8033   17.9750  -31.5835 H   0  0  0  0  0  0  0  0  0  0  0  0
   -8.1761   19.0536  -32.3246 H   0  0  0  0  0  0  0  0  0  0  0  0
   -9.0458   21.3394  -31.7470 H   0  0  0  0  0  0  0  0  0  0  0  0
   -8.2162   23.9576  -30.9530 H   0  0  0  0  0  0  0  0  0  0  0  0
   -6.2160   26.7520  -28.7080 H   0  0  0  0  0  0  0  0  0  0  0  0
   -7.1720   25.2370  -28.6020 H   0  0  0  0  0  0  0  0  0  0  0  0
   -3.6150   24.0788  -26.5415 H   0  0  0  0  0  0  0  0  0  0  0  0
   -4.3200   25.1628  -27.7884 H   0  0  0  0  0  0  0  0  0  0  0  0
   -4.7231   23.4123  -27.7884 H   0  0  0  0  0  0  0  0  0  0  0  0
   -1.5114   24.9840  -27.1045 H   0  0  0  0  0  0  0  0  0  0  0  0
   -0.6688   24.5364  -28.6265 H   0  0  0  0  0  0  0  0  0  0  0  0
   -1.8778   25.8649  -28.6265 H   0  0  0  0  0  0  0  0  0  0  0  0
   -2.1131   22.2520  -27.2074 H   0  0  0  0  0  0  0  0  0  0  0  0
   -2.8717   21.7198  -28.7462 H   0  0  0  0  0  0  0  0  0  0  0  0
   -1.1926   22.3580  -28.7462 H   0  0  0  0  0  0  0  0  0  0  0  0
   -4.1048   20.4108  -31.5525 H   0  0  0  0  0  0  0  0  0  0  0  0
  1  2  1  0
  2  3  1  0
  3  4  1  0
  4  5  2  0
  4  6  1  0
  6  7  1  6
  7  8  1  0
  8  9  1  0
  8 10  1  0
  8 11  1  0
  6 12  1  0
 12 13  1  0
 13 14  1  0
 14 15  1  0
 15 16  1  0
 16 17  2  0
 17 18  1  0
 18 19  2  0
 19 20  1  0
 20 21  2  0
 21 22  1  0
 22 23  1  0
 22 24  2  0
 21 25  1  0
 25 26  1  0
 26 27  2  0
 26 28  1  0
 28 29  1  0
 29 30  1  0
 29 31  1  0
 29 32  1  0
 25 33  1  0
 33 34  2  0
 15  6  1  0
 34 16  1  0
 33 19  1  0
  1 35  1  0
  1 36  1  0
  1 37  1  0
  2 38  1  0
  2 39  1  0
 12 40  1  0
 12 41  1  0
 13 42  1  0
 13 43  1  0
 14 44  1  0
 14 45  1  0
 15 46  1  1
 17 47  1  0
 18 48  1  0
 20 49  1  0
 23 50  1  0
 23 51  1  0
 30 52  1  0
 30 53  1  0
 30 54  1  0
 31 55  1  0
 31 56  1  0
 31 57  1  0
 32 58  1  0
 32 59  1  0
 32 60  1  0
 34 61  1  0
M  END
>  <UniqueID>  (99) 
99

>  <SMILES>  (99) 
CCOC(=O)[C@@]1(OC(F)(F)F)CCC[C@@H]1c1ccc2cc(C(N)=O)n(C(=O)OC(C)(C)C)c2c1

>  <Energy>  (99) 
107.14247806757028

>  <Genealogy>  (99) 
CCOC(=O)[C@@]1(OC(F)(F)F)CCC[C@@H]1c1ccc2cc(C(N)=O)n(C(=O)OC(C)(C)C)c2c1 (chirality)
CCOC(=O)[C@@]1(OC(F)(F)F)CCC[C@@H]1c1ccc2cc(C(N)=O)n(C(=O)OC(C)(C)C)c2c1 (3D coordinates assigned)
CCOC(=O)[C@@]1(OC(F)(F)F)CCC[C@@H]1c1ccc2cc(C(N)=O)n(C(=O)OC(C)(C)C)c2c1 (nonaromatic ring conformer: 107.14247806757028 kcal/mol)

>  <smiles>  (99) 
CCOC(=O)C1(OC(F)(F)F)CCCC1c1ccc2cc(C(N)=O)n(C(=O)OC(C)(C)C)c2c1

>  <score_type>  (99) 
oracle

>  <origin>  (99) 
adg

>  <m_score__min__energy>  (99) 
-9.4000000000000004

>  <m_primary>  (99) 
energy

$$$$
99:0
     RDKit          3D

 37 39  0  0  0  0  0  0  0  0999 V2000
   -9.3900   21.8990  -31.3550 C   0  0  0  0  0  0  0  0  0  0  0  0
   -8.3450   20.9400  -31.8200 C   0  0  0  0  0  0  0  0  0  0  0  0
   -8.3480   19.5750  -31.6040 C   0  0  0  0  0  0  0  0  0  0  0  0
   -7.2240   19.1270  -32.2670 C   0  0  0  0  0  0  0  0  0  0  0  0
   -6.7240   17.7150  -32.2710 C   0  0  0  0  0  0  0  0  0  0  0  0
   -6.6060   20.1840  -32.8400 N   0  0  0  0  0  0  0  0  0  0  0  0
   -5.3470   20.1790  -33.5830 C   0  0  0  0  0  0  0  0  0  0  0  0
   -4.2210   20.6420  -32.7010 C   0  0  0  0  0  0  0  0  0  0  0  0
   -3.0150   19.9030  -32.6510 C   0  0  0  0  0  0  0  0  0  0  0  0
   -1.9370   20.3410  -31.8630 C   0  0  0  0  0  0  0  0  0  0  0  0
   -2.0980   21.5170  -31.1370 C   0  0  0  0  0  0  0  0  0  0  0  0
   -1.2100   22.1830  -30.3240 C   0  0  0  0  0  0  0  0  0  0  0  0
   -1.8940   23.3090  -29.8730 C   0  0  0  0  0  0  0  0  0  0  0  0
   -1.3290   24.2640  -28.8960 C   0  0  0  0  0  0  0  0  0  0  0  0
   -1.5930   25.6610  -29.0000 N   0  0  0  0  0  0  0  0  0  0  0  0
   -0.6470   23.8360  -27.9280 O   0  0  0  0  0  0  0  0  0  0  0  0
   -3.1530   23.3460  -30.3930 N   0  0  0  0  0  0  0  0  0  0  0  0
   -4.1320   24.3880  -30.2540 C   0  0  0  0  0  0  0  0  0  0  0  0
   -5.2540   24.1430  -29.7390 O   0  0  0  0  0  0  0  0  0  0  0  0
   -3.8590   25.6710  -30.7110 O   0  0  0  0  0  0  0  0  0  0  0  0
   -3.2640   22.2380  -31.1620 C   0  0  0  0  0  0  0  0  0  0  0  0
   -4.3470   21.8330  -31.9510 C   0  0  0  0  0  0  0  0  0  0  0  0
   -7.2860   21.2890  -32.5760 N   0  0  0  0  0  0  0  0  0  0  0  0
   -9.4087   21.9161  -30.2553 H   0  0  0  0  0  0  0  0  0  0  0  0
   -9.1585   22.9055  -31.7335 H   0  0  0  0  0  0  0  0  0  0  0  0
  -10.3730   21.5821  -31.7335 H   0  0  0  0  0  0  0  0  0  0  0  0
   -9.0786   18.9820  -31.0344 H   0  0  0  0  0  0  0  0  0  0  0  0
   -6.6007   17.3668  -31.2349 H   0  0  0  0  0  0  0  0  0  0  0  0
   -7.4487   17.0709  -32.7905 H   0  0  0  0  0  0  0  0  0  0  0  0
   -5.7554   17.6705  -32.7905 H   0  0  0  0  0  0  0  0  0  0  0  0
   -5.1368   19.1581  -33.9346 H   0  0  0  0  0  0  0  0  0  0  0  0
   -5.4343   20.8616  -34.4412 H   0  0  0  0  0  0  0  0  0  0  0  0
   -2.9205   18.9758  -33.2352 H   0  0  0  0  0  0  0  0  0  0  0  0
   -0.9962   19.7725  -31.8215 H   0  0  0  0  0  0  0  0  0  0  0  0
   -0.1783   21.8884  -30.0816 H   0  0  0  0  0  0  0  0  0  0  0  0
   -2.5700   26.0270  -28.9670 H   0  0  0  0  0  0  0  0  0  0  0  0
   -5.2724   22.4266  -31.9863 H   0  0  0  0  0  0  0  0  0  0  0  0
  1  2  1  0
  2  3  1  0
  3  4  2  0
  4  5  1  0
  4  6  1  0
  6  7  1  0
  7  8  1  0
  8  9  2  0
  9 10  1  0
 10 11  2  0
 11 12  1  0
 12 13  2  0
 13 14  1  0
 14 15  1  0
 14 16  2  0
 13 17  1  0
 17 18  1  0
 18 19  2  0
 18 20  1  0
 17 21  1  0
 21 22  2  0
  6 23  1  0
 23  2  2  0
 22  8  1  0
 21 11  1  0
  1 24  1  0
  1 25  1  0
  1 26  1  0
  3 27  1  0
  5 28  1  0
  5 29  1  0
  5 30  1  0
  7 31  1  0
  7 32  1  0
  9 33  1  0
 10 34  1  0
 12 35  1  0
 15 36  1  0
 22 37  1  0
M  CHG  2  15  -1  20  -1
M  END
>  <UniqueID>  (100) 
100

>  <SMILES>  (100) 
Cc1cc(C)n(Cc2ccc3cc(C([NH-])=O)n(C(=O)[O-])c3c2)n1

>  <Energy>  (100) 
104.68894584695329

>  <Genealogy>  (100) 
Cc1cc(C)n(Cc2ccc3cc(C([NH-])=O)n(C(=O)[O-])c3c2)n1 (protonated)
Cc1cc(C)n(Cc2ccc3cc(C([NH-])=O)n(C(=O)[O-])c3c2)n1 (3D coordinates assigned)
Cc1cc(C)n(Cc2ccc3cc(C([NH-])=O)n(C(=O)[O-])c3c2)n1 (optimized conformer: 104.68894584695329 kcal/mol)

>  <smiles>  (100) 
Cc1cc(C)n(Cc2ccc3cc(C(N)=O)n(C(=O)O)c3c2)n1

>  <score_type>  (100) 
oracle

>  <origin>  (100) 
adg

>  <m_score__min__energy>  (100) 
-12.31

>  <m_primary>  (100) 
energy

$$$$
