0:0
     RDKit          3D

 43 44  0  0  0  0  0  0  0  0999 V2000
   -3.6380   22.5280  -28.7010 C   0  0  0  0  0  0  0  0  0  0  0  0
   -2.5590   23.2170  -29.5580 C   0  0  0  0  0  0  0  0  0  0  0  0
   -2.0960   24.4940  -28.8410 C   0  0  0  0  0  0  0  0  0  0  0  0
   -1.3450   22.2880  -29.7530 C   0  0  0  0  0  0  0  0  0  0  0  0
   -3.1000   23.6160  -30.8250 O   0  0  0  0  0  0  0  0  0  0  0  0
   -3.8980   22.8330  -31.6750 C   0  0  0  0  0  0  0  0  0  0  0  0
   -3.3740   22.0750  -32.5350 O   0  0  0  0  0  0  0  0  0  0  0  0
   -5.3270   22.8900  -31.5490 N   0  0  0  0  0  0  0  0  0  0  0  0
   -6.0610   23.8230  -30.8800 C   0  0  0  0  0  0  0  0  0  0  0  0
   -5.5290   25.0660  -30.2800 C   0  0  0  0  0  0  0  0  0  0  0  0
   -6.1070   25.6090  -29.0930 N   0  0  0  0  0  0  0  0  0  0  0  0
   -4.5760   25.6770  -30.8340 O   0  0  0  0  0  0  0  0  0  0  0  0
   -7.4160   23.4950  -30.9140 C   0  0  0  0  0  0  0  0  0  0  0  0
   -7.4880   22.3230  -31.6320 C   0  0  0  0  0  0  0  0  0  0  0  0
   -8.5930   21.5460  -31.9650 C   0  0  0  0  0  0  0  0  0  0  0  0
   -8.3740   20.3650  -32.6940 C   0  0  0  0  0  0  0  0  0  0  0  0
   -7.0590   19.9740  -33.0660 C   0  0  0  0  0  0  0  0  0  0  0  0
   -6.8030   18.7650  -33.8090 N   0  0  0  0  0  0  0  0  0  0  0  0
   -6.4390   17.4740  -33.2210 C   0  0  0  0  0  0  0  0  0  0  0  0
   -5.6530   16.6230  -34.2170 C   0  0  0  0  0  0  0  0  0  0  0  0
   -5.2610   17.3760  -35.3090 F   0  0  0  0  0  0  0  0  0  0  0  0
   -5.9660   20.7970  -32.7130 C   0  0  0  0  0  0  0  0  0  0  0  0
   -6.2160   21.9770  -32.0030 C   0  0  0  0  0  0  0  0  0  0  0  0
   -3.4086   22.6745  -27.6352 H   0  0  0  0  0  0  0  0  0  0  0  0
   -4.6213   22.9657  -28.9279 H   0  0  0  0  0  0  0  0  0  0  0  0
   -3.6546   21.4518  -28.9279 H   0  0  0  0  0  0  0  0  0  0  0  0
   -2.1505   24.3437  -27.7527 H   0  0  0  0  0  0  0  0  0  0  0  0
   -1.0586   24.7203  -29.1284 H   0  0  0  0  0  0  0  0  0  0  0  0
   -2.7473   25.3326  -29.1284 H   0  0  0  0  0  0  0  0  0  0  0  0
   -0.9519   21.9872  -28.7706 H   0  0  0  0  0  0  0  0  0  0  0  0
   -1.6541   21.3936  -30.3138 H   0  0  0  0  0  0  0  0  0  0  0  0
   -0.5624   22.8201  -30.3138 H   0  0  0  0  0  0  0  0  0  0  0  0
   -6.8610   25.1050  -28.5760 H   0  0  0  0  0  0  0  0  0  0  0  0
   -5.7480   26.5070  -28.6980 H   0  0  0  0  0  0  0  0  0  0  0  0
   -8.2494   24.0537  -30.4632 H   0  0  0  0  0  0  0  0  0  0  0  0
   -9.6079   21.8473  -31.6664 H   0  0  0  0  0  0  0  0  0  0  0  0
   -9.2298   19.7359  -32.9801 H   0  0  0  0  0  0  0  0  0  0  0  0
   -6.8740   18.8030  -34.8520 H   0  0  0  0  0  0  0  0  0  0  0  0
   -5.8203   17.6467  -32.3280 H   0  0  0  0  0  0  0  0  0  0  0  0
   -7.3612   16.9380  -32.9520 H   0  0  0  0  0  0  0  0  0  0  0  0
   -4.7594   16.2190  -33.7188 H   0  0  0  0  0  0  0  0  0  0  0  0
   -6.3002   15.8057  -34.5681 H   0  0  0  0  0  0  0  0  0  0  0  0
   -4.9394   20.5160  -32.9906 H   0  0  0  0  0  0  0  0  0  0  0  0
  1  2  1  0
  2  3  1  0
  2  4  1  0
  2  5  1  0
  5  6  1  0
  6  7  2  0
  6  8  1  0
  8  9  1  0
  9 10  1  0
 10 11  1  0
 10 12  2  0
  9 13  2  0
 13 14  1  0
 14 15  2  0
 15 16  1  0
 16 17  2  0
 17 18  1  0
 18 19  1  0
 19 20  1  0
 20 21  1  0
 17 22  1  0
 22 23  2  0
 23  8  1  0
 23 14  1  0
  1 24  1  0
  1 25  1  0
  1 26  1  0
  3 27  1  0
  3 28  1  0
  3 29  1  0
  4 30  1  0
  4 31  1  0
  4 32  1  0
 11 33  1  0
 11 34  1  0
 13 35  1  0
 15 36  1  0
 16 37  1  0
 18 38  1  0
 19 39  1  0
 19 40  1  0
 20 41  1  0
 20 42  1  0
 22 43  1  0
M  END
>  <UniqueID>  (1) 
1

>  <SMILES>  (1) 
CC(C)(C)OC(=O)n1c(C(N)=O)cc2ccc(NCCF)cc21

>  <Energy>  (1) 
74.52774647828757

>  <Genealogy>  (1) 
CC(C)(C)OC(=O)n1c(C(N)=O)cc2ccc(NCCF)cc21 (3D coordinates assigned)
CC(C)(C)OC(=O)n1c(C(N)=O)cc2ccc(NCCF)cc21 (optimized conformer: 74.52774647828757 kcal/mol)

>  <smiles>  (1) 
CC(C)(C)OC(=O)n1c(C(N)=O)cc2ccc(NCCF)cc21

>  <score_type>  (1) 
oracle

>  <origin>  (1) 
adg

>  <m_score__min__energy>  (1) 
-8.5500000000000007

>  <m_primary>  (1) 
energy

$$$$
1:0
     RDKit          3D

 43 44  0  0  0  0  0  0  0  0999 V2000
   -3.6750   24.6460  -26.7910 C   0  0  0  0  0  0  0  0  0  0  0  0
   -2.3690   24.8610  -26.6310 C   0  0  0  0  0  0  0  0  0  0  0  0
   -1.5950   25.7000  -27.6030 C   0  0  0  0  0  0  0  0  0  0  0  0
   -1.6230   25.0870  -28.8880 O   0  0  0  0  0  0  0  0  0  0  0  0
   -0.8810   23.9430  -29.1950 C   0  0  0  0  0  0  0  0  0  0  0  0
    0.3530   23.8930  -28.9450 O   0  0  0  0  0  0  0  0  0  0  0  0
   -1.5690   22.7630  -29.8260 C   0  0  0  0  0  0  0  0  0  0  0  0
   -3.0410   22.7760  -29.6630 N   0  0  2  0  0  0  0  0  0  0  0  0
   -3.4940   21.9100  -28.5590 C   0  0  0  0  0  0  0  0  0  0  0  0
   -3.7070   22.4600  -30.9110 C   0  0  0  0  0  0  0  0  0  0  0  0
   -3.0370   22.1440  -31.9330 O   0  0  0  0  0  0  0  0  0  0  0  0
   -5.1290   22.6400  -31.0340 N   0  0  0  0  0  0  0  0  0  0  0  0
   -5.8390   23.8010  -30.9750 C   0  0  0  0  0  0  0  0  0  0  0  0
   -5.3200   25.1110  -30.5330 C   0  0  0  0  0  0  0  0  0  0  0  0
   -3.9170   25.3550  -30.4690 N   0  0  0  0  0  0  0  0  0  0  0  0
   -6.1210   26.0100  -30.1630 O   0  0  0  0  0  0  0  0  0  0  0  0
   -7.1730   23.5770  -31.3090 C   0  0  0  0  0  0  0  0  0  0  0  0
   -7.2630   22.2280  -31.5650 C   0  0  0  0  0  0  0  0  0  0  0  0
   -8.3530   21.4590  -31.9630 C   0  0  0  0  0  0  0  0  0  0  0  0
   -8.1470   20.0880  -32.1870 C   0  0  0  0  0  0  0  0  0  0  0  0
   -6.8670   19.5110  -31.9940 C   0  0  0  0  0  0  0  0  0  0  0  0
   -6.6420   18.0530  -32.2750 C   0  0  0  0  0  0  0  0  0  0  0  0
   -5.7210   17.8210  -34.1880 I   0  0  0  0  0  0  0  0  0  0  0  0
   -5.7840   20.3230  -31.5930 C   0  0  0  0  0  0  0  0  0  0  0  0
   -6.0180   21.6850  -31.3840 C   0  0  0  0  0  0  0  0  0  0  0  0
   -4.2234   24.0271  -26.0656 H   0  0  0  0  0  0  0  0  0  0  0  0
   -4.2041   25.0875  -27.6484 H   0  0  0  0  0  0  0  0  0  0  0  0
   -1.8498   24.4146  -25.7701 H   0  0  0  0  0  0  0  0  0  0  0  0
   -2.0472   26.7009  -27.6645 H   0  0  0  0  0  0  0  0  0  0  0  0
   -0.5529   25.7883  -27.2619 H   0  0  0  0  0  0  0  0  0  0  0  0
   -1.3385   22.7608  -30.9016 H   0  0  0  0  0  0  0  0  0  0  0  0
   -1.1966   21.8626  -29.3156 H   0  0  0  0  0  0  0  0  0  0  0  0
   -3.2990   23.7560  -29.3990 H   0  0  0  0  0  0  0  0  0  0  0  0
   -3.2467   22.3827  -27.5970 H   0  0  0  0  0  0  0  0  0  0  0  0
   -4.5825   21.7669  -28.6282 H   0  0  0  0  0  0  0  0  0  0  0  0
   -2.9908   20.9343  -28.6282 H   0  0  0  0  0  0  0  0  0  0  0  0
   -3.4650   25.6560  -29.5770 H   0  0  0  0  0  0  0  0  0  0  0  0
   -7.9822   24.3205  -31.3577 H   0  0  0  0  0  0  0  0  0  0  0  0
   -9.3463   21.9118  -32.0981 H   0  0  0  0  0  0  0  0  0  0  0  0
   -8.9860   19.4568  -32.5150 H   0  0  0  0  0  0  0  0  0  0  0  0
   -5.9869   17.6283  -31.5001 H   0  0  0  0  0  0  0  0  0  0  0  0
   -7.6087   17.5281  -32.2705 H   0  0  0  0  0  0  0  0  0  0  0  0
   -4.7812   19.8945  -31.4487 H   0  0  0  0  0  0  0  0  0  0  0  0
  1  2  2  0
  2  3  1  0
  3  4  1  0
  4  5  1  0
  5  6  2  0
  5  7  1  0
  7  8  1  0
  8  9  1  0
  8 10  1  0
 10 11  2  0
 10 12  1  0
 12 13  1  0
 13 14  1  0
 14 15  1  0
 14 16  2  0
 13 17  2  0
 17 18  1  0
 18 19  2  0
 19 20  1  0
 20 21  2  0
 21 22  1  0
 22 23  1  0
 21 24  1  0
 24 25  2  0
 25 12  1  0
 25 18  1  0
  1 26  1  0
  1 27  1  0
  2 28  1  0
  3 29  1  0
  3 30  1  0
  7 31  1  0
  7 32  1  0
  8 33  1  1
  9 34  1  0
  9 35  1  0
  9 36  1  0
 15 37  1  0
 17 38  1  0
 19 39  1  0
 20 40  1  0
 22 41  1  0
 22 42  1  0
 24 43  1  0
M  CHG  2   8   1  15  -1
M  END
>  <UniqueID>  (2) 
2

>  <SMILES>  (2) 
C=CCOC(=O)C[N@H+](C)C(=O)n1c(C([NH-])=O)cc2ccc(CI)cc21

>  <Energy>  (2) 
79.30464366195878

>  <Genealogy>  (2) 
C=CCOC(=O)C[NH+](C)C(=O)n1c(C([NH-])=O)cc2ccc(CI)cc21 (protonated)
C=CCOC(=O)C[N@H+](C)C(=O)n1c(C([NH-])=O)cc2ccc(CI)cc21 (chirality)
C=CCOC(=O)C[N@H+](C)C(=O)n1c(C([NH-])=O)cc2ccc(CI)cc21 (3D coordinates assigned)
C=CCOC(=O)C[N@H+](C)C(=O)n1c(C([NH-])=O)cc2ccc(CI)cc21 (optimized conformer: 79.30464366195878 kcal/mol)

>  <smiles>  (2) 
C=CCOC(=O)CN(C)C(=O)n1c(C(N)=O)cc2ccc(CI)cc21

>  <score_type>  (2) 
oracle

>  <origin>  (2) 
adg

>  <m_score__min__energy>  (2) 
-10.279999999999999

>  <m_primary>  (2) 
energy

$$$$
2:0
     RDKit          3D

 31 32  0  0  0  0  0  0  0  0999 V2000
   -3.9640   25.3630  -30.8300 N   0  0  0  0  0  0  0  0  0  0  0  0
   -5.1140   24.8300  -30.1780 C   0  0  0  0  0  0  0  0  0  0  0  0
   -5.4530   25.2840  -29.0530 O   0  0  0  0  0  0  0  0  0  0  0  0
   -5.8770   23.7140  -30.7760 C   0  0  0  0  0  0  0  0  0  0  0  0
   -7.2650   23.7160  -30.8970 C   0  0  0  0  0  0  0  0  0  0  0  0
   -7.5890   22.4780  -31.4040 C   0  0  0  0  0  0  0  0  0  0  0  0
   -8.8310   21.9410  -31.7300 C   0  0  0  0  0  0  0  0  0  0  0  0
   -8.8680   20.6410  -32.2630 C   0  0  0  0  0  0  0  0  0  0  0  0
   -7.6710   19.9140  -32.4670 C   0  0  0  0  0  0  0  0  0  0  0  0
   -7.7210   18.5980  -33.0220 N   0  0  0  0  0  0  0  0  0  0  0  0
   -6.4290   20.4900  -32.1270 C   0  0  0  0  0  0  0  0  0  0  0  0
   -6.4230   21.7790  -31.5800 C   0  0  0  0  0  0  0  0  0  0  0  0
   -5.3620   22.5260  -31.2020 N   0  0  0  0  0  0  0  0  0  0  0  0
   -3.9790   22.1530  -31.3140 C   0  0  0  0  0  0  0  0  0  0  0  0
   -3.4090   22.1730  -32.4390 O   0  0  0  0  0  0  0  0  0  0  0  0
   -3.2770   21.7470  -30.1760 O   0  0  0  0  0  0  0  0  0  0  0  0
   -1.9570   22.1930  -29.8830 C   0  0  0  0  0  0  0  0  0  0  0  0
   -1.8300   23.5610  -30.1920 O   0  0  0  0  0  0  0  0  0  0  0  0
   -1.2510   24.3920  -28.8160 P   0  0  0  0  0  0  0  0  0  0  0  0
   -1.9260   23.8610  -27.5720 O   0  0  0  0  0  0  0  0  0  0  0  0
   -1.6140   26.0350  -28.9790 O   0  0  0  0  0  0  0  0  0  0  0  0
    0.4250   24.2120  -28.6710 O   0  0  0  0  0  0  0  0  0  0  0  0
   -3.0160   25.2740  -30.4020 H   0  0  0  0  0  0  0  0  0  0  0  0
   -7.9554   24.5334  -30.6416 H   0  0  0  0  0  0  0  0  0  0  0  0
   -9.7555   22.5165  -31.5752 H   0  0  0  0  0  0  0  0  0  0  0  0
   -9.8346   20.1852  -32.5236 H   0  0  0  0  0  0  0  0  0  0  0  0
   -8.3870   18.3670  -33.7930 H   0  0  0  0  0  0  0  0  0  0  0  0
   -7.0910   17.8430  -32.6680 H   0  0  0  0  0  0  0  0  0  0  0  0
   -5.4895   19.9408  -32.2874 H   0  0  0  0  0  0  0  0  0  0  0  0
   -1.7502   22.0406  -28.8134 H   0  0  0  0  0  0  0  0  0  0  0  0
   -1.2398   21.6186  -30.4877 H   0  0  0  0  0  0  0  0  0  0  0  0
  1  2  1  0
  2  3  2  0
  2  4  1  0
  4  5  2  0
  5  6  1  0
  6  7  2  0
  7  8  1  0
  8  9  2  0
  9 10  1  0
  9 11  1  0
 11 12  2  0
 12 13  1  0
 13 14  1  0
 14 15  2  0
 14 16  1  0
 16 17  1  0
 17 18  1  0
 18 19  1  0
 19 20  2  0
 19 21  1  0
 19 22  1  0
 13  4  1  0
 12  6  1  0
  1 23  1  0
  5 24  1  0
  7 25  1  0
  8 26  1  0
 10 27  1  0
 10 28  1  0
 11 29  1  0
 17 30  1  0
 17 31  1  0
M  CHG  3   1  -1  21  -1  22  -1
M  END
>  <UniqueID>  (3) 
3

>  <SMILES>  (3) 
[NH-]C(=O)c1cc2ccc(N)cc2n1C(=O)OCOP(=O)([O-])[O-]

>  <Energy>  (3) 
67.7168762312948

>  <Genealogy>  (3) 
[NH-]C(=O)c1cc2ccc(N)cc2n1C(=O)OCOP(=O)([O-])[O-] (protonated)
[NH-]C(=O)c1cc2ccc(N)cc2n1C(=O)OCOP(=O)([O-])[O-] (3D coordinates assigned)
[NH-]C(=O)c1cc2ccc(N)cc2n1C(=O)OCOP(=O)([O-])[O-] (optimized conformer: 67.7168762312948 kcal/mol)

>  <smiles>  (3) 
NC(=O)c1cc2ccc(N)cc2n1C(=O)OCOP(=O)(O)O

>  <score_type>  (3) 
oracle

>  <origin>  (3) 
adg

>  <m_score__min__energy>  (3) 
-12.83

>  <m_primary>  (3) 
energy

$$$$
3:0
     RDKit          3D

 37 38  0  0  0  0  0  0  0  0999 V2000
   -3.8580   25.3720  -30.8430 N   0  0  0  0  0  0  0  0  0  0  0  0
   -4.9710   24.6710  -30.2940 C   0  0  0  0  0  0  0  0  0  0  0  0
   -5.5500   25.1330  -29.2750 O   0  0  0  0  0  0  0  0  0  0  0  0
   -5.4010   23.3900  -30.8910 C   0  0  0  0  0  0  0  0  0  0  0  0
   -6.6870   23.1520  -31.3740 C   0  0  0  0  0  0  0  0  0  0  0  0
   -6.6440   21.8930  -31.9280 C   0  0  0  0  0  0  0  0  0  0  0  0
   -7.6360   21.1540  -32.5610 C   0  0  0  0  0  0  0  0  0  0  0  0
   -7.3050   19.8740  -33.0360 C   0  0  0  0  0  0  0  0  0  0  0  0
   -5.9980   19.3490  -32.8540 C   0  0  0  0  0  0  0  0  0  0  0  0
   -5.6230   17.9960  -33.3980 C   0  0  0  0  0  0  0  0  0  0  0  0
   -4.2470   17.8540  -33.3980 F   0  0  0  0  0  0  0  0  0  0  0  0
   -6.1680   16.9760  -32.6380 F   0  0  0  0  0  0  0  0  0  0  0  0
   -6.0850   17.8850  -34.6940 F   0  0  0  0  0  0  0  0  0  0  0  0
   -5.0140   20.1360  -32.2150 C   0  0  0  0  0  0  0  0  0  0  0  0
   -5.3720   21.4120  -31.7660 C   0  0  0  0  0  0  0  0  0  0  0  0
   -4.5980   22.3170  -31.1290 N   0  0  0  0  0  0  0  0  0  0  0  0
   -3.2460   22.1080  -30.6940 C   0  0  0  0  0  0  0  0  0  0  0  0
   -2.8480   20.9420  -30.4350 O   0  0  0  0  0  0  0  0  0  0  0  0
   -2.3740   23.2290  -30.4960 N   0  0  0  0  0  0  0  0  0  0  0  0
   -1.1810   23.1610  -29.6580 C   0  0  0  0  0  0  0  0  0  0  0  0
   -1.1190   24.3350  -28.6640 C   0  0  1  0  0  0  0  0  0  0  0  0
   -1.1670   25.5660  -29.3430 O   0  0  0  0  0  0  0  0  0  0  0  0
   -2.2100   24.2460  -27.5770 C   0  0  0  0  0  0  0  0  0  0  0  0
   -3.4520   24.6340  -28.0980 O   0  0  0  0  0  0  0  0  0  0  0  0
   -2.9090   25.2960  -30.4160 H   0  0  0  0  0  0  0  0  0  0  0  0
   -7.5533   23.8280  -31.3230 H   0  0  0  0  0  0  0  0  0  0  0  0
   -8.6508   21.5594  -32.6865 H   0  0  0  0  0  0  0  0  0  0  0  0
   -8.0660   19.2721  -33.5543 H   0  0  0  0  0  0  0  0  0  0  0  0
   -3.9917   19.7551  -32.0739 H   0  0  0  0  0  0  0  0  0  0  0  0
   -2.7050   24.1720  -30.7950 H   0  0  0  0  0  0  0  0  0  0  0  0
   -1.1940   22.2164  -29.0945 H   0  0  0  0  0  0  0  0  0  0  0  0
   -0.2979   23.2165  -30.3115 H   0  0  0  0  0  0  0  0  0  0  0  0
   -0.1538   24.2673  -28.1408 H   0  0  0  0  0  0  0  0  0  0  0  0
   -2.0700   25.6620  -29.7330 H   0  0  0  0  0  0  0  0  0  0  0  0
   -2.2768   23.2096  -27.2146 H   0  0  0  0  0  0  0  0  0  0  0  0
   -1.9443   24.9197  -26.7490 H   0  0  0  0  0  0  0  0  0  0  0  0
   -3.2630   25.3040  -28.8040 H   0  0  0  0  0  0  0  0  0  0  0  0
  1  2  1  0
  2  3  2  0
  2  4  1  0
  4  5  2  0
  5  6  1  0
  6  7  2  0
  7  8  1  0
  8  9  2  0
  9 10  1  0
 10 11  1  0
 10 12  1  0
 10 13  1  0
  9 14  1  0
 14 15  2  0
 15 16  1  0
 16 17  1  0
 17 18  2  0
 17 19  1  0
 19 20  1  0
 20 21  1  0
 21 22  1  0
 21 23  1  0
 23 24  1  0
 16  4  1  0
 15  6  1  0
  1 25  1  0
  5 26  1  0
  7 27  1  0
  8 28  1  0
 14 29  1  0
 19 30  1  0
 20 31  1  0
 20 32  1  0
 21 33  1  1
 22 34  1  0
 23 35  1  0
 23 36  1  0
 24 37  1  0
M  CHG  1   1  -1
M  END
>  <UniqueID>  (4) 
4

>  <SMILES>  (4) 
[NH-]C(=O)c1cc2ccc(C(F)(F)F)cc2n1C(=O)NC[C@@H](O)CO

>  <Energy>  (4) 
73.45534870906755

>  <Genealogy>  (4) 
[NH-]C(=O)c1cc2ccc(C(F)(F)F)cc2n1C(=O)NC[C@@H](O)CO (protonated)
[NH-]C(=O)c1cc2ccc(C(F)(F)F)cc2n1C(=O)NC[C@@H](O)CO (3D coordinates assigned)
[NH-]C(=O)c1cc2ccc(C(F)(F)F)cc2n1C(=O)NC[C@@H](O)CO (optimized conformer: 73.45534870906755 kcal/mol)

>  <smiles>  (4) 
NC(=O)c1cc2ccc(C(F)(F)F)cc2n1C(=O)NC[C@@H](O)CO

>  <score_type>  (4) 
oracle

>  <origin>  (4) 
adg

>  <m_score__min__energy>  (4) 
-9.3300000000000001

>  <m_primary>  (4) 
energy

$$$$
4:0
     RDKit          3D

 45 46  0  0  0  0  0  0  0  0999 V2000
   -3.1160   17.4930  -35.0260 N   0  0  0  0  0  0  0  0  0  0  0  0
   -4.1800   18.3290  -34.5670 C   0  0  0  0  0  0  0  0  0  0  0  0
   -5.3230   18.2090  -35.0840 O   0  0  0  0  0  0  0  0  0  0  0  0
   -3.9560   19.3630  -33.5360 C   0  0  0  0  0  0  0  0  0  0  0  0
   -4.9860   20.0320  -32.8760 C   0  0  0  0  0  0  0  0  0  0  0  0
   -4.3610   20.9170  -32.0280 C   0  0  0  0  0  0  0  0  0  0  0  0
   -4.9010   21.8300  -31.1280 C   0  0  0  0  0  0  0  0  0  0  0  0
   -4.0140   22.5980  -30.3560 C   0  0  0  0  0  0  0  0  0  0  0  0
   -2.6130   22.4250  -30.4800 C   0  0  0  0  0  0  0  0  0  0  0  0
   -1.6720   23.2750  -29.6760 C   0  0  0  0  0  0  0  0  0  0  0  0
   -2.4240   24.8970  -29.3420 P   0  0  0  0  0  0  0  0  0  0  0  0
   -3.1200   24.8700  -27.9990 O   0  0  0  0  0  0  0  0  0  0  0  0
   -1.2180   26.0810  -29.3220 O   0  0  0  0  0  0  0  0  0  0  0  0
   -3.5510   25.2620  -30.5490 O   0  0  0  0  0  0  0  0  0  0  0  0
   -2.1000   21.4870  -31.4040 C   0  0  0  0  0  0  0  0  0  0  0  0
   -3.0070   20.7600  -32.1820 C   0  0  0  0  0  0  0  0  0  0  0  0
   -2.7440   19.8150  -33.1110 N   0  0  0  0  0  0  0  0  0  0  0  0
   -1.4520   19.2950  -33.4630 C   0  0  0  0  0  0  0  0  0  0  0  0
   -1.0270   19.4320  -34.6420 O   0  0  0  0  0  0  0  0  0  0  0  0
   -0.5990   18.6450  -32.4580 C   0  0  0  0  0  0  0  0  0  0  0  0
   -0.9120   18.6960  -31.2370 O   0  0  0  0  0  0  0  0  0  0  0  0
    0.5760   18.0030  -32.8650 O   0  0  0  0  0  0  0  0  0  0  0  0
    0.7050   16.5850  -32.9150 C   0  0  0  0  0  0  0  0  0  0  0  0
    0.6330   16.1260  -34.2620 O   0  0  0  0  0  0  0  0  0  0  0  0
   -0.4960   16.2980  -35.0670 C   0  0  0  0  0  0  0  0  0  0  0  0
   -1.5350   15.6120  -34.8690 O   0  0  0  0  0  0  0  0  0  0  0  0
   -0.4500   17.2410  -36.0980 O   0  0  0  0  0  0  0  0  0  0  0  0
    0.5980   17.3100  -37.0660 C   0  0  0  0  0  0  0  0  0  0  0  0
    1.7930   18.0890  -36.5240 C   0  0  0  0  0  0  0  0  0  0  0  0
    1.4510   18.7350  -35.3300 O   0  0  0  0  0  0  0  0  0  0  0  0
   -2.1250   17.6930  -34.7730 H   0  0  0  0  0  0  0  0  0  0  0  0
   -3.3120   16.7220  -35.7010 H   0  0  0  0  0  0  0  0  0  0  0  0
   -6.0682   19.8837  -33.0057 H   0  0  0  0  0  0  0  0  0  0  0  0
   -5.9898   21.9469  -31.0241 H   0  0  0  0  0  0  0  0  0  0  0  0
   -4.4106   23.3409  -29.6483 H   0  0  0  0  0  0  0  0  0  0  0  0
   -1.4526   22.7725  -28.7224 H   0  0  0  0  0  0  0  0  0  0  0  0
   -0.7422   23.4200  -30.2457 H   0  0  0  0  0  0  0  0  0  0  0  0
   -1.0159   21.3326  -31.5087 H   0  0  0  0  0  0  0  0  0  0  0  0
    1.6745   16.2940  -32.4845 H   0  0  0  0  0  0  0  0  0  0  0  0
   -0.1158   16.1319  -32.3397 H   0  0  0  0  0  0  0  0  0  0  0  0
    0.9197   16.2895  -37.3212 H   0  0  0  0  0  0  0  0  0  0  0  0
    0.2172   17.8286  -37.9582 H   0  0  0  0  0  0  0  0  0  0  0  0
    2.6240   17.3935  -36.3351 H   0  0  0  0  0  0  0  0  0  0  0  0
    2.0942   18.8437  -37.2655 H   0  0  0  0  0  0  0  0  0  0  0  0
    0.7370   18.1870  -34.9140 H   0  0  0  0  0  0  0  0  0  0  0  0
  1  2  1  0
  2  3  2  0
  2  4  1  0
  4  5  2  0
  5  6  1  0
  6  7  2  0
  7  8  1  0
  8  9  2  0
  9 10  1  0
 10 11  1  0
 11 12  2  0
 11 13  1  0
 11 14  1  0
  9 15  1  0
 15 16  2  0
 16 17  1  0
 17 18  1  0
 18 19  2  0
 18 20  1  0
 20 21  2  0
 20 22  1  0
 22 23  1  0
 23 24  1  0
 24 25  1  0
 25 26  2  0
 25 27  1  0
 27 28  1  0
 28 29  1  0
 29 30  1  0
 17  4  1  0
 16  6  1  0
  1 31  1  0
  1 32  1  0
  5 33  1  0
  7 34  1  0
  8 35  1  0
 10 36  1  0
 10 37  1  0
 15 38  1  0
 23 39  1  0
 23 40  1  0
 28 41  1  0
 28 42  1  0
 29 43  1  0
 29 44  1  0
 30 45  1  0
M  CHG  2  13  -1  14  -1
M  END
>  <UniqueID>  (5) 
5

>  <SMILES>  (5) 
NC(=O)c1cc2ccc(CP(=O)([O-])[O-])cc2n1C(=O)C(=O)OCOC(=O)OCCO

>  <Energy>  (5) 
72.27982966653835

>  <Genealogy>  (5) 
NC(=O)c1cc2ccc(CP(=O)([O-])[O-])cc2n1C(=O)C(=O)OCOC(=O)OCCO (protonated)
NC(=O)c1cc2ccc(CP(=O)([O-])[O-])cc2n1C(=O)C(=O)OCOC(=O)OCCO (3D coordinates assigned)
NC(=O)c1cc2ccc(CP(=O)([O-])[O-])cc2n1C(=O)C(=O)OCOC(=O)OCCO (optimized conformer: 72.27982966653835 kcal/mol)

>  <smiles>  (5) 
NC(=O)c1cc2ccc(CP(=O)(O)O)cc2n1C(=O)C(=O)OCOC(=O)OCCO

>  <score_type>  (5) 
oracle

>  <origin>  (5) 
adg

>  <m_score__min__energy>  (5) 
-11.119999999999999

>  <m_primary>  (5) 
energy

$$$$
5:0
     RDKit          3D

 33 34  0  0  0  0  0  0  0  0999 V2000
   -6.7950   18.5550  -33.4450 C   0  0  0  0  0  0  0  0  0  0  0  0
   -6.9660   19.8600  -32.7250 C   0  0  0  0  0  0  0  0  0  0  0  0
   -8.2610   20.3050  -32.3620 C   0  0  0  0  0  0  0  0  0  0  0  0
   -8.4360   21.5370  -31.7090 C   0  0  0  0  0  0  0  0  0  0  0  0
   -7.3050   22.3060  -31.4520 C   0  0  0  0  0  0  0  0  0  0  0  0
   -7.1840   23.5190  -30.8140 C   0  0  0  0  0  0  0  0  0  0  0  0
   -5.8220   23.8140  -30.8340 C   0  0  0  0  0  0  0  0  0  0  0  0
   -5.2560   25.0780  -30.3180 C   0  0  0  0  0  0  0  0  0  0  0  0
   -4.0450   25.6100  -30.8510 N   0  0  0  0  0  0  0  0  0  0  0  0
   -5.8730   25.7210  -29.4280 O   0  0  0  0  0  0  0  0  0  0  0  0
   -5.1270   22.8200  -31.4550 N   0  0  0  0  0  0  0  0  0  0  0  0
   -3.7030   22.6960  -31.5880 C   0  0  0  0  0  0  0  0  0  0  0  0
   -3.2170   22.0550  -32.5590 O   0  0  0  0  0  0  0  0  0  0  0  0
   -2.8660   23.2740  -30.6280 O   0  0  0  0  0  0  0  0  0  0  0  0
   -2.3490   22.5690  -29.4980 C   0  0  0  0  0  0  0  0  0  0  0  0
   -2.0800   23.5170  -28.3240 C   0  0  0  0  0  0  0  0  0  0  0  0
   -3.2690   24.0610  -27.8700 F   0  0  0  0  0  0  0  0  0  0  0  0
   -1.5100   22.7980  -27.2870 F   0  0  0  0  0  0  0  0  0  0  0  0
   -1.1430   24.6160  -28.7320 C   0  0  0  0  0  0  0  0  0  0  0  0
   -1.5900   25.6720  -29.2500 O   0  0  0  0  0  0  0  0  0  0  0  0
    0.2280   24.4480  -28.5920 O   0  0  0  0  0  0  0  0  0  0  0  0
   -6.0480   21.9040  -31.8280 C   0  0  0  0  0  0  0  0  0  0  0  0
   -5.8430   20.6740  -32.4630 C   0  0  0  0  0  0  0  0  0  0  0  0
   -6.6885   17.7425  -32.7111 H   0  0  0  0  0  0  0  0  0  0  0  0
   -7.6761   18.3661  -34.0759 H   0  0  0  0  0  0  0  0  0  0  0  0
   -5.8950   18.5995  -34.0759 H   0  0  0  0  0  0  0  0  0  0  0  0
   -9.1369   19.6810  -32.5932 H   0  0  0  0  0  0  0  0  0  0  0  0
   -9.4365   21.8830  -31.4101 H   0  0  0  0  0  0  0  0  0  0  0  0
   -7.9913   24.1272  -30.3800 H   0  0  0  0  0  0  0  0  0  0  0  0
   -3.1170   25.2970  -30.4900 H   0  0  0  0  0  0  0  0  0  0  0  0
   -3.0803   21.8094  -29.1846 H   0  0  0  0  0  0  0  0  0  0  0  0
   -1.3982   22.0983  -29.7884 H   0  0  0  0  0  0  0  0  0  0  0  0
   -4.8321   20.3496  -32.7508 H   0  0  0  0  0  0  0  0  0  0  0  0
  1  2  1  0
  2  3  2  0
  3  4  1  0
  4  5  2  0
  5  6  1  0
  6  7  2  0
  7  8  1  0
  8  9  1  0
  8 10  2  0
  7 11  1  0
 11 12  1  0
 12 13  2  0
 12 14  1  0
 14 15  1  0
 15 16  1  0
 16 17  1  0
 16 18  1  0
 16 19  1  0
 19 20  2  0
 19 21  1  0
 11 22  1  0
 22 23  2  0
 23  2  1  0
 22  5  1  0
  1 24  1  0
  1 25  1  0
  1 26  1  0
  3 27  1  0
  4 28  1  0
  6 29  1  0
  9 30  1  0
 15 31  1  0
 15 32  1  0
 23 33  1  0
M  CHG  2   9  -1  21  -1
M  END
>  <UniqueID>  (6) 
6

>  <SMILES>  (6) 
Cc1ccc2cc(C([NH-])=O)n(C(=O)OCC(F)(F)C(=O)[O-])c2c1

>  <Energy>  (6) 
68.58116135587208

>  <Genealogy>  (6) 
Cc1ccc2cc(C([NH-])=O)n(C(=O)OCC(F)(F)C(=O)[O-])c2c1 (protonated)
Cc1ccc2cc(C([NH-])=O)n(C(=O)OCC(F)(F)C(=O)[O-])c2c1 (3D coordinates assigned)
Cc1ccc2cc(C([NH-])=O)n(C(=O)OCC(F)(F)C(=O)[O-])c2c1 (optimized conformer: 68.58116135587208 kcal/mol)

>  <smiles>  (6) 
Cc1ccc2cc(C(N)=O)n(C(=O)OCC(F)(F)C(=O)O)c2c1

>  <score_type>  (6) 
oracle

>  <origin>  (6) 
adg

>  <m_score__min__energy>  (6) 
-11.9

>  <m_primary>  (6) 
energy

$$$$
6:0
     RDKit          3D

 49 50  0  0  0  0  0  0  0  0999 V2000
   -7.1710   18.4970  -32.7810 C   0  0  0  0  0  0  0  0  0  0  0  0
   -7.2660   19.9240  -32.3310 C   0  0  0  0  0  0  0  0  0  0  0  0
   -8.5350   20.5160  -32.1130 C   0  0  0  0  0  0  0  0  0  0  0  0
   -8.6380   21.8450  -31.6670 C   0  0  0  0  0  0  0  0  0  0  0  0
   -7.4590   22.5440  -31.4280 C   0  0  0  0  0  0  0  0  0  0  0  0
   -7.2650   23.8440  -31.0150 C   0  0  0  0  0  0  0  0  0  0  0  0
   -5.8830   24.0110  -30.9540 C   0  0  0  0  0  0  0  0  0  0  0  0
   -5.2280   25.2590  -30.5080 C   0  0  0  0  0  0  0  0  0  0  0  0
   -3.8710   25.5380  -30.8410 N   0  0  0  0  0  0  0  0  0  0  0  0
   -5.8680   26.0800  -29.7970 O   0  0  0  0  0  0  0  0  0  0  0  0
   -5.2480   22.8600  -31.3110 N   0  0  0  0  0  0  0  0  0  0  0  0
   -3.8360   22.6400  -31.4440 C   0  0  0  0  0  0  0  0  0  0  0  0
   -3.0450   23.1390  -30.5990 O   0  0  0  0  0  0  0  0  0  0  0  0
   -3.3000   21.8400  -32.5530 C   0  0  0  0  0  0  0  0  0  0  0  0
   -3.8610   21.8740  -33.6820 O   0  0  0  0  0  0  0  0  0  0  0  0
   -2.1740   21.0370  -32.3440 O   0  0  0  0  0  0  0  0  0  0  0  0
   -0.8530   21.5640  -32.2760 C   0  0  0  0  0  0  0  0  0  0  0  0
   -0.2190   21.1150  -31.0830 O   0  0  0  0  0  0  0  0  0  0  0  0
   -0.4990   21.6620  -29.8290 C   0  0  0  0  0  0  0  0  0  0  0  0
   -0.7460   20.9130  -28.8430 O   0  0  0  0  0  0  0  0  0  0  0  0
   -0.5000   23.0810  -29.6730 N   0  0  0  0  0  0  0  0  0  0  0  0
   -0.1770   23.7380  -28.4120 C   0  0  0  0  0  0  0  0  0  0  0  0
   -1.1910   24.8600  -28.1310 C   0  0  1  0  0  0  0  0  0  0  0  0
   -1.5030   25.5400  -29.3220 O   0  0  0  0  0  0  0  0  0  0  0  0
   -2.4750   24.3130  -27.4490 C   0  0  1  0  0  0  0  0  0  0  0  0
   -3.5960   24.5030  -28.2770 O   0  0  0  0  0  0  0  0  0  0  0  0
   -2.3520   22.8240  -27.0790 C   0  0  0  0  0  0  0  0  0  0  0  0
   -2.8660   22.0220  -28.1060 O   0  0  0  0  0  0  0  0  0  0  0  0
   -6.2250   21.9740  -31.6030 C   0  0  0  0  0  0  0  0  0  0  0  0
   -6.0920   20.6600  -32.0650 C   0  0  0  0  0  0  0  0  0  0  0  0
   -7.1271   17.8374  -31.9018 H   0  0  0  0  0  0  0  0  0  0  0  0
   -8.0543   18.2436  -33.3857 H   0  0  0  0  0  0  0  0  0  0  0  0
   -6.2619   18.3630  -33.3857 H   0  0  0  0  0  0  0  0  0  0  0  0
   -9.4480   19.9299  -32.2945 H   0  0  0  0  0  0  0  0  0  0  0  0
   -9.6193   22.3173  -31.5119 H   0  0  0  0  0  0  0  0  0  0  0  0
   -8.0376   24.5918  -30.7826 H   0  0  0  0  0  0  0  0  0  0  0  0
   -3.0930   25.2780  -30.1950 H   0  0  0  0  0  0  0  0  0  0  0  0
   -0.2769   21.2207  -33.1479 H   0  0  0  0  0  0  0  0  0  0  0  0
   -0.8985   22.6631  -32.2733 H   0  0  0  0  0  0  0  0  0  0  0  0
   -0.2139   23.0005  -27.5967 H   0  0  0  0  0  0  0  0  0  0  0  0
    0.8324   24.1703  -28.4772 H   0  0  0  0  0  0  0  0  0  0  0  0
   -0.7288   25.5703  -27.4298 H   0  0  0  0  0  0  0  0  0  0  0  0
   -1.9520   24.8930  -29.9280 H   0  0  0  0  0  0  0  0  0  0  0  0
   -2.6047   24.8817  -26.5164 H   0  0  0  0  0  0  0  0  0  0  0  0
   -3.3160   24.3050  -29.2090 H   0  0  0  0  0  0  0  0  0  0  0  0
   -1.2920   22.5760  -26.9214 H   0  0  0  0  0  0  0  0  0  0  0  0
   -2.9248   22.6363  -26.1588 H   0  0  0  0  0  0  0  0  0  0  0  0
   -2.4190   22.3200  -28.9400 H   0  0  0  0  0  0  0  0  0  0  0  0
   -5.0986   20.2127  -32.2168 H   0  0  0  0  0  0  0  0  0  0  0  0
  1  2  1  0
  2  3  2  0
  3  4  1  0
  4  5  2  0
  5  6  1  0
  6  7  2  0
  7  8  1  0
  8  9  1  0
  8 10  2  0
  7 11  1  0
 11 12  1  0
 12 13  2  0
 12 14  1  0
 14 15  2  0
 14 16  1  0
 16 17  1  0
 17 18  1  0
 18 19  1  0
 19 20  2  0
 19 21  1  0
 21 22  1  0
 22 23  1  0
 23 24  1  0
 23 25  1  0
 25 26  1  0
 25 27  1  0
 27 28  1  0
 11 29  1  0
 29 30  2  0
 30  2  1  0
 29  5  1  0
  1 31  1  0
  1 32  1  0
  1 33  1  0
  3 34  1  0
  4 35  1  0
  6 36  1  0
  9 37  1  0
 17 38  1  0
 17 39  1  0
 22 40  1  0
 22 41  1  0
 23 42  1  1
 24 43  1  0
 25 44  1  1
 26 45  1  0
 27 46  1  0
 27 47  1  0
 28 48  1  0
 30 49  1  0
M  CHG  2   9  -1  21  -1
M  END
>  <UniqueID>  (7) 
7

>  <SMILES>  (7) 
Cc1ccc2cc(C([NH-])=O)n(C(=O)C(=O)OCOC(=O)[N-]C[C@@H](O)[C@@H](O)CO)c2c1

>  <Energy>  (7) 
78.64666221279444

>  <Genealogy>  (7) 
Cc1ccc2cc(C([NH-])=O)n(C(=O)C(=O)OCOC(=O)[N-]C[C@@H](O)[C@@H](O)CO)c2c1 (protonated)
Cc1ccc2cc(C([NH-])=O)n(C(=O)C(=O)OCOC(=O)[N-]C[C@@H](O)[C@@H](O)CO)c2c1 (3D coordinates assigned)
Cc1ccc2cc(C([NH-])=O)n(C(=O)C(=O)OCOC(=O)[N-]C[C@@H](O)[C@@H](O)CO)c2c1 (optimized conformer: 78.64666221279444 kcal/mol)

>  <smiles>  (7) 
Cc1ccc2cc(C(N)=O)n(C(=O)C(=O)OCOC(=O)NC[C@@H](O)[C@@H](O)CO)c2c1

>  <score_type>  (7) 
oracle

>  <origin>  (7) 
adg

>  <m_score__min__energy>  (7) 
-9.4199999999999999

>  <m_primary>  (7) 
energy

$$$$
7:0
     RDKit          3D

 43 44  0  0  0  0  0  0  0  0999 V2000
   -7.6210   18.5050  -32.9890 C   0  0  0  0  0  0  0  0  0  0  0  0
   -7.5650   19.9070  -32.4630 C   0  0  0  0  0  0  0  0  0  0  0  0
   -8.7550   20.6680  -32.3410 C   0  0  0  0  0  0  0  0  0  0  0  0
   -8.7170   21.9760  -31.8250 C   0  0  0  0  0  0  0  0  0  0  0  0
   -7.4840   22.4860  -31.4290 C   0  0  0  0  0  0  0  0  0  0  0  0
   -7.1580   23.7210  -30.9150 C   0  0  0  0  0  0  0  0  0  0  0  0
   -5.7800   23.6830  -30.7110 C   0  0  0  0  0  0  0  0  0  0  0  0
   -5.0140   24.7800  -30.0860 C   0  0  0  0  0  0  0  0  0  0  0  0
   -3.8470   25.2900  -30.7310 N   0  0  0  0  0  0  0  0  0  0  0  0
   -5.3940   25.2950  -29.0020 O   0  0  0  0  0  0  0  0  0  0  0  0
   -5.2750   22.4740  -31.0870 N   0  0  0  0  0  0  0  0  0  0  0  0
   -3.8990   22.0680  -31.1330 C   0  0  0  0  0  0  0  0  0  0  0  0
   -3.5690   21.0610  -31.8150 O   0  0  0  0  0  0  0  0  0  0  0  0
   -2.9010   22.8400  -30.4490 N   0  0  0  0  0  0  0  0  0  0  0  0
   -1.4700   22.5430  -30.5180 C   0  0  0  0  0  0  0  0  0  0  0  0
   -0.7510   23.0280  -29.2520 C   0  0  0  0  0  0  0  0  0  0  0  0
   -1.7070   23.3020  -28.0770 C   0  0  0  0  0  0  0  0  0  0  0  0
   -2.3470   24.6340  -28.1680 N   0  0  0  0  0  0  0  0  0  0  0  0
   -1.3140   25.6800  -28.2370 C   0  0  0  0  0  0  0  0  0  0  0  0
   -3.2220   24.8910  -27.0100 C   0  0  0  0  0  0  0  0  0  0  0  0
   -6.3300   21.7520  -31.5190 C   0  0  0  0  0  0  0  0  0  0  0  0
   -6.3360   20.4510  -32.0330 C   0  0  0  0  0  0  0  0  0  0  0  0
   -7.6492   17.7982  -32.1466 H   0  0  0  0  0  0  0  0  0  0  0  0
   -8.5249   18.3797  -33.6033 H   0  0  0  0  0  0  0  0  0  0  0  0
   -6.7300   18.3080  -33.6033 H   0  0  0  0  0  0  0  0  0  0  0  0
   -9.7157   20.2320  -32.6524 H   0  0  0  0  0  0  0  0  0  0  0  0
   -9.6338   22.5775  -31.7371 H   0  0  0  0  0  0  0  0  0  0  0  0
   -7.8400   24.5592  -30.7092 H   0  0  0  0  0  0  0  0  0  0  0  0
   -2.9250   25.2960  -30.2430 H   0  0  0  0  0  0  0  0  0  0  0  0
   -3.2030   23.6760  -29.8990 H   0  0  0  0  0  0  0  0  0  0  0  0
   -1.3316   21.4563  -30.6174 H   0  0  0  0  0  0  0  0  0  0  0  0
   -1.0433   23.0645  -31.3875 H   0  0  0  0  0  0  0  0  0  0  0  0
   -0.0297   22.2572  -28.9430 H   0  0  0  0  0  0  0  0  0  0  0  0
   -0.2588   23.9798  -29.5008 H   0  0  0  0  0  0  0  0  0  0  0  0
   -2.4927   22.5322  -28.0741 H   0  0  0  0  0  0  0  0  0  0  0  0
   -1.1147   23.2774  -27.1504 H   0  0  0  0  0  0  0  0  0  0  0  0
   -1.0225   25.9752  -27.2182 H   0  0  0  0  0  0  0  0  0  0  0  0
   -0.4347   25.2922  -28.7722 H   0  0  0  0  0  0  0  0  0  0  0  0
   -1.7128   26.5544  -28.7722 H   0  0  0  0  0  0  0  0  0  0  0  0
   -2.6579   24.7253  -26.0803 H   0  0  0  0  0  0  0  0  0  0  0  0
   -3.5774   25.9315  -27.0428 H   0  0  0  0  0  0  0  0  0  0  0  0
   -4.0836   24.2080  -27.0428 H   0  0  0  0  0  0  0  0  0  0  0  0
   -5.4063   19.8669  -32.1003 H   0  0  0  0  0  0  0  0  0  0  0  0
  1  2  1  0
  2  3  2  0
  3  4  1  0
  4  5  2  0
  5  6  1  0
  6  7  2  0
  7  8  1  0
  8  9  1  0
  8 10  2  0
  7 11  1  0
 11 12  1  0
 12 13  2  0
 12 14  1  0
 14 15  1  0
 15 16  1  0
 16 17  1  0
 17 18  1  0
 18 19  1  0
 18 20  1  0
 11 21  1  0
 21 22  2  0
 22  2  1  0
 21  5  1  0
  1 23  1  0
  1 24  1  0
  1 25  1  0
  3 26  1  0
  4 27  1  0
  6 28  1  0
  9 29  1  0
 14 30  1  0
 15 31  1  0
 15 32  1  0
 16 33  1  0
 16 34  1  0
 17 35  1  0
 17 36  1  0
 19 37  1  0
 19 38  1  0
 19 39  1  0
 20 40  1  0
 20 41  1  0
 20 42  1  0
 22 43  1  0
M  CHG  1   9  -1
M  END
>  <UniqueID>  (8) 
8

>  <SMILES>  (8) 
Cc1ccc2cc(C([NH-])=O)n(C(=O)NCCCN(C)C)c2c1

>  <Energy>  (8) 
74.8769580197334

>  <Genealogy>  (8) 
Cc1ccc2cc(C([NH-])=O)n(C(=O)NCCCN(C)C)c2c1 (protonated)
Cc1ccc2cc(C([NH-])=O)n(C(=O)NCCCN(C)C)c2c1 (3D coordinates assigned)
Cc1ccc2cc(C([NH-])=O)n(C(=O)NCCCN(C)C)c2c1 (optimized conformer: 74.8769580197334 kcal/mol)

>  <smiles>  (8) 
Cc1ccc2cc(C(N)=O)n(C(=O)NCCCN(C)C)c2c1

>  <score_type>  (8) 
oracle

>  <origin>  (8) 
adg

>  <m_score__min__energy>  (8) 
-9.7899999999999991

>  <m_primary>  (8) 
energy

$$$$
8:0
     RDKit          3D

 36 37  0  0  0  0  0  0  0  0999 V2000
   -3.9750   25.6770  -30.8540 N   0  0  0  0  0  0  0  0  0  0  0  0
   -5.2820   25.2750  -30.4510 C   0  0  0  0  0  0  0  0  0  0  0  0
   -5.9650   26.0440  -29.7210 O   0  0  0  0  0  0  0  0  0  0  0  0
   -5.8580   23.9950  -30.9100 C   0  0  0  0  0  0  0  0  0  0  0  0
   -7.2240   23.7860  -31.0930 C   0  0  0  0  0  0  0  0  0  0  0  0
   -7.3340   22.5040  -31.5820 C   0  0  0  0  0  0  0  0  0  0  0  0
   -8.4660   21.7680  -31.9150 C   0  0  0  0  0  0  0  0  0  0  0  0
   -8.2860   20.4460  -32.3590 C   0  0  0  0  0  0  0  0  0  0  0  0
   -6.9860   19.8890  -32.4700 C   0  0  0  0  0  0  0  0  0  0  0  0
   -6.8120   18.4480  -32.8740 C   0  0  0  0  0  0  0  0  0  0  0  0
   -6.4490   18.3590  -34.2070 F   0  0  0  0  0  0  0  0  0  0  0  0
   -5.8250   17.8400  -32.1170 F   0  0  0  0  0  0  0  0  0  0  0  0
   -8.0050   17.7730  -32.6860 F   0  0  0  0  0  0  0  0  0  0  0  0
   -5.8620   20.6630  -32.0990 C   0  0  0  0  0  0  0  0  0  0  0  0
   -6.0700   21.9810  -31.6790 C   0  0  0  0  0  0  0  0  0  0  0  0
   -5.1540   22.8830  -31.2670 N   0  0  0  0  0  0  0  0  0  0  0  0
   -3.7410   22.6630  -31.1500 C   0  0  0  0  0  0  0  0  0  0  0  0
   -3.1090   22.1220  -32.0970 O   0  0  0  0  0  0  0  0  0  0  0  0
   -3.0530   23.0680  -29.9620 N   0  0  0  0  0  0  0  0  0  0  0  0
   -1.6000   23.0990  -29.8400 C   0  0  0  0  0  0  0  0  0  0  0  0
   -1.1550   24.3640  -29.1630 C   0  0  0  0  0  0  0  0  0  0  0  0
   -1.9800   25.3030  -29.0120 O   0  0  0  0  0  0  0  0  0  0  0  0
    0.1900   24.5430  -28.7030 N   0  0  0  0  0  0  0  0  0  0  0  0
    0.5960   24.4740  -27.3060 C   0  0  0  0  0  0  0  0  0  0  0  0
    2.0860   24.4590  -27.2230 C   0  0  0  0  0  0  0  0  0  0  0  0
    2.6660   23.8800  -26.2680 O   0  0  0  0  0  0  0  0  0  0  0  0
    2.8410   25.0770  -28.2110 O   0  0  0  0  0  0  0  0  0  0  0  0
   -3.1270   25.2190  -30.4520 H   0  0  0  0  0  0  0  0  0  0  0  0
   -8.0403   24.4948  -30.8899 H   0  0  0  0  0  0  0  0  0  0  0  0
   -9.4715   22.2066  -31.8336 H   0  0  0  0  0  0  0  0  0  0  0  0
   -9.1630   19.8369  -32.6232 H   0  0  0  0  0  0  0  0  0  0  0  0
   -4.8480   20.2386  -32.1397 H   0  0  0  0  0  0  0  0  0  0  0  0
   -1.2682   22.2347  -29.2460 H   0  0  0  0  0  0  0  0  0  0  0  0
   -1.1579   23.0601  -30.8465 H   0  0  0  0  0  0  0  0  0  0  0  0
    0.2072   25.3506  -26.7671 H   0  0  0  0  0  0  0  0  0  0  0  0
    0.1934   23.5569  -26.8512 H   0  0  0  0  0  0  0  0  0  0  0  0
  1  2  1  0
  2  3  2  0
  2  4  1  0
  4  5  2  0
  5  6  1  0
  6  7  2  0
  7  8  1  0
  8  9  2  0
  9 10  1  0
 10 11  1  0
 10 12  1  0
 10 13  1  0
  9 14  1  0
 14 15  2  0
 15 16  1  0
 16 17  1  0
 17 18  2  0
 17 19  1  0
 19 20  1  0
 20 21  1  0
 21 22  2  0
 21 23  1  0
 23 24  1  0
 24 25  1  0
 25 26  2  0
 25 27  1  0
 16  4  1  0
 15  6  1  0
  1 28  1  0
  5 29  1  0
  7 30  1  0
  8 31  1  0
 14 32  1  0
 20 33  1  0
 20 34  1  0
 24 35  1  0
 24 36  1  0
M  CHG  4   1  -1  19  -1  23  -1  27  -1
M  END
>  <UniqueID>  (9) 
9

>  <SMILES>  (9) 
[NH-]C(=O)c1cc2ccc(C(F)(F)F)cc2n1C(=O)[N-]CC(=O)[N-]CC(=O)[O-]

>  <Energy>  (9) 
70.19998221244781

>  <Genealogy>  (9) 
[NH-]C(=O)c1cc2ccc(C(F)(F)F)cc2n1C(=O)[N-]CC(=O)[N-]CC(=O)[O-] (protonated)
[NH-]C(=O)c1cc2ccc(C(F)(F)F)cc2n1C(=O)[N-]CC(=O)[N-]CC(=O)[O-] (3D coordinates assigned)
[NH-]C(=O)c1cc2ccc(C(F)(F)F)cc2n1C(=O)[N-]CC(=O)[N-]CC(=O)[O-] (optimized conformer: 70.19998221244781 kcal/mol)

>  <smiles>  (9) 
NC(=O)c1cc2ccc(C(F)(F)F)cc2n1C(=O)NCC(=O)NCC(=O)O

>  <score_type>  (9) 
oracle

>  <origin>  (9) 
adg

>  <m_score__min__energy>  (9) 
-12.58

>  <m_primary>  (9) 
energy

$$$$
9:0
     RDKit          3D

 38 39  0  0  0  0  0  0  0  0999 V2000
   -3.4340   19.0140  -33.8550 C   0  0  0  0  0  0  0  0  0  0  0  0
   -4.3100   18.1030  -34.6080 N   0  0  0  0  0  0  0  0  0  0  0  0
   -4.0820   16.6980  -34.2400 C   0  0  0  0  0  0  0  0  0  0  0  0
   -5.7390   18.5010  -34.6080 C   0  0  0  0  0  0  0  0  0  0  0  0
   -6.4690   18.3930  -33.2490 C   0  0  0  0  0  0  0  0  0  0  0  0
   -6.9000   19.7230  -32.6890 C   0  0  0  0  0  0  0  0  0  0  0  0
   -8.2760   20.0010  -32.4900 C   0  0  0  0  0  0  0  0  0  0  0  0
   -8.6890   21.2360  -31.9630 C   0  0  0  0  0  0  0  0  0  0  0  0
   -7.7070   22.1740  -31.6550 C   0  0  0  0  0  0  0  0  0  0  0  0
   -7.8240   23.4270  -31.0970 C   0  0  0  0  0  0  0  0  0  0  0  0
   -6.5190   23.9030  -30.9880 C   0  0  0  0  0  0  0  0  0  0  0  0
   -6.1770   25.2330  -30.4420 C   0  0  0  0  0  0  0  0  0  0  0  0
   -6.2920   25.5180  -29.0470 N   0  0  0  0  0  0  0  0  0  0  0  0
   -5.7350   26.1230  -31.2170 O   0  0  0  0  0  0  0  0  0  0  0  0
   -5.6320   22.9830  -31.4570 N   0  0  0  0  0  0  0  0  0  0  0  0
   -4.1970   23.0490  -31.4020 C   0  0  0  0  0  0  0  0  0  0  0  0
   -3.5120   22.3960  -32.2330 O   0  0  0  0  0  0  0  0  0  0  0  0
   -3.5150   23.8420  -30.3680 C   0  0  0  0  0  0  0  0  0  0  0  0
   -2.9350   23.2730  -29.4060 O   0  0  0  0  0  0  0  0  0  0  0  0
   -3.4860   25.2280  -30.4620 O   0  0  0  0  0  0  0  0  0  0  0  0
   -6.3740   21.9250  -31.8520 C   0  0  0  0  0  0  0  0  0  0  0  0
   -5.9320   20.6920  -32.3400 C   0  0  0  0  0  0  0  0  0  0  0  0
   -3.5836   18.8584  -32.7764 H   0  0  0  0  0  0  0  0  0  0  0  0
   -2.3843   18.8098  -34.1128 H   0  0  0  0  0  0  0  0  0  0  0  0
   -3.6791   20.0549  -34.1128 H   0  0  0  0  0  0  0  0  0  0  0  0
   -4.0667   16.6038  -33.1441 H   0  0  0  0  0  0  0  0  0  0  0  0
   -4.8909   16.0756  -34.6503 H   0  0  0  0  0  0  0  0  0  0  0  0
   -3.1178   16.3633  -34.6503 H   0  0  0  0  0  0  0  0  0  0  0  0
   -5.7975   19.5481  -34.9400 H   0  0  0  0  0  0  0  0  0  0  0  0
   -6.2466   17.7900  -35.2765 H   0  0  0  0  0  0  0  0  0  0  0  0
   -7.3628   17.7660  -33.3832 H   0  0  0  0  0  0  0  0  0  0  0  0
   -5.7561   17.9574  -32.5335 H   0  0  0  0  0  0  0  0  0  0  0  0
   -9.0280   19.2418  -32.7510 H   0  0  0  0  0  0  0  0  0  0  0  0
   -9.7544   21.4551  -31.7988 H   0  0  0  0  0  0  0  0  0  0  0  0
   -8.7496   23.9422  -30.8006 H   0  0  0  0  0  0  0  0  0  0  0  0
   -6.4630   24.7600  -28.3510 H   0  0  0  0  0  0  0  0  0  0  0  0
   -6.1010   26.4820  -28.6930 H   0  0  0  0  0  0  0  0  0  0  0  0
   -4.8580   20.4811  -32.4497 H   0  0  0  0  0  0  0  0  0  0  0  0
  1  2  1  0
  2  3  1  0
  2  4  1  0
  4  5  1  0
  5  6  1  0
  6  7  2  0
  7  8  1  0
  8  9  2  0
  9 10  1  0
 10 11  2  0
 11 12  1  0
 12 13  1  0
 12 14  2  0
 11 15  1  0
 15 16  1  0
 16 17  2  0
 16 18  1  0
 18 19  2  0
 18 20  1  0
 15 21  1  0
 21 22  2  0
 22  6  1  0
 21  9  1  0
  1 23  1  0
  1 24  1  0
  1 25  1  0
  3 26  1  0
  3 27  1  0
  3 28  1  0
  4 29  1  0
  4 30  1  0
  5 31  1  0
  5 32  1  0
  7 33  1  0
  8 34  1  0
 10 35  1  0
 13 36  1  0
 13 37  1  0
 22 38  1  0
M  CHG  1  20  -1
M  END
>  <UniqueID>  (10) 
10

>  <SMILES>  (10) 
CN(C)CCc1ccc2cc(C(N)=O)n(C(=O)C(=O)[O-])c2c1

>  <Energy>  (10) 
80.45173859175729

>  <Genealogy>  (10) 
CN(C)CCc1ccc2cc(C(N)=O)n(C(=O)C(=O)[O-])c2c1 (protonated)
CN(C)CCc1ccc2cc(C(N)=O)n(C(=O)C(=O)[O-])c2c1 (3D coordinates assigned)
CN(C)CCc1ccc2cc(C(N)=O)n(C(=O)C(=O)[O-])c2c1 (optimized conformer: 80.45173859175729 kcal/mol)

>  <smiles>  (10) 
CN(C)CCc1ccc2cc(C(N)=O)n(C(=O)C(=O)O)c2c1

>  <score_type>  (10) 
oracle

>  <origin>  (10) 
adg

>  <m_score__min__energy>  (10) 
-9.8499999999999996

>  <m_primary>  (10) 
energy

$$$$
10:0
     RDKit          3D

 38 39  0  0  0  0  0  0  0  0999 V2000
   -7.8780   18.5050  -32.4870 C   0  0  0  0  0  0  0  0  0  0  0  0
   -7.7670   19.9380  -32.0600 C   0  0  0  0  0  0  0  0  0  0  0  0
   -8.9230   20.7530  -32.0070 C   0  0  0  0  0  0  0  0  0  0  0  0
   -8.8290   22.1040  -31.6330 C   0  0  0  0  0  0  0  0  0  0  0  0
   -7.5670   22.6140  -31.3410 C   0  0  0  0  0  0  0  0  0  0  0  0
   -7.1950   23.8770  -30.9410 C   0  0  0  0  0  0  0  0  0  0  0  0
   -5.8090   23.8260  -30.7970 C   0  0  0  0  0  0  0  0  0  0  0  0
   -4.9720   25.0010  -30.4700 C   0  0  0  0  0  0  0  0  0  0  0  0
   -3.6050   24.8390  -30.0870 N   0  0  0  0  0  0  0  0  0  0  0  0
   -5.4690   26.1580  -30.4960 O   0  0  0  0  0  0  0  0  0  0  0  0
   -5.3450   22.5770  -31.0920 N   0  0  0  0  0  0  0  0  0  0  0  0
   -3.9900   22.1040  -31.0200 C   0  0  0  0  0  0  0  0  0  0  0  0
   -3.0910   22.6500  -31.7150 O   0  0  0  0  0  0  0  0  0  0  0  0
   -3.6710   21.0460  -30.1630 O   0  0  0  0  0  0  0  0  0  0  0  0
   -3.3380   21.2350  -28.7920 C   0  0  0  0  0  0  0  0  0  0  0  0
   -2.8270   22.5500  -28.6060 O   0  0  0  0  0  0  0  0  0  0  0  0
   -3.2340   23.3830  -27.5570 C   0  0  0  0  0  0  0  0  0  0  0  0
   -4.4490   23.4430  -27.2270 O   0  0  0  0  0  0  0  0  0  0  0  0
   -2.2420   24.1330  -26.7690 C   0  0  0  0  0  0  0  0  0  0  0  0
   -1.2780   24.9140  -27.2790 C   0  0  0  0  0  0  0  0  0  0  0  0
   -1.1800   25.3420  -28.6860 C   0  0  0  0  0  0  0  0  0  0  0  0
   -1.2660   26.5650  -28.9660 O   0  0  0  0  0  0  0  0  0  0  0  0
   -1.0880   24.4160  -29.7180 O   0  0  0  0  0  0  0  0  0  0  0  0
   -6.4330   21.8470  -31.4220 C   0  0  0  0  0  0  0  0  0  0  0  0
   -6.5010   20.4930  -31.7710 C   0  0  0  0  0  0  0  0  0  0  0  0
   -7.9280   17.8601  -31.5973 H   0  0  0  0  0  0  0  0  0  0  0  0
   -8.7892   18.3712  -33.0885 H   0  0  0  0  0  0  0  0  0  0  0  0
   -6.9983   18.2324  -33.0885 H   0  0  0  0  0  0  0  0  0  0  0  0
   -9.9039   20.3248  -32.2609 H   0  0  0  0  0  0  0  0  0  0  0  0
   -9.7250   22.7392  -31.5728 H   0  0  0  0  0  0  0  0  0  0  0  0
   -7.8516   24.7430  -30.7709 H   0  0  0  0  0  0  0  0  0  0  0  0
   -3.1440   23.9030  -30.1040 H   0  0  0  0  0  0  0  0  0  0  0  0
   -3.0330   25.6710  -29.8200 H   0  0  0  0  0  0  0  0  0  0  0  0
   -4.2379   21.1003  -28.1739 H   0  0  0  0  0  0  0  0  0  0  0  0
   -2.5760   20.4995  -28.4945 H   0  0  0  0  0  0  0  0  0  0  0  0
   -2.2957   24.0459  -25.6738 H   0  0  0  0  0  0  0  0  0  0  0  0
   -0.4955   25.2642  -26.5898 H   0  0  0  0  0  0  0  0  0  0  0  0
   -5.5911   19.8768  -31.8189 H   0  0  0  0  0  0  0  0  0  0  0  0
  1  2  1  0
  2  3  2  0
  3  4  1  0
  4  5  2  0
  5  6  1  0
  6  7  2  0
  7  8  1  0
  8  9  1  0
  8 10  2  0
  7 11  1  0
 11 12  1  0
 12 13  2  0
 12 14  1  0
 14 15  1  0
 15 16  1  0
 16 17  1  0
 17 18  2  0
 17 19  1  0
 19 20  2  3
 20 21  1  0
 21 22  2  0
 21 23  1  0
 11 24  1  0
 24 25  2  0
 25  2  1  0
 24  5  1  0
  1 26  1  0
  1 27  1  0
  1 28  1  0
  3 29  1  0
  4 30  1  0
  6 31  1  0
  9 32  1  0
  9 33  1  0
 15 34  1  0
 15 35  1  0
 19 36  1  0
 20 37  1  0
 25 38  1  0
M  CHG  1  23  -1
M  END
>  <UniqueID>  (11) 
11

>  <SMILES>  (11) 
Cc1ccc2cc(C(N)=O)n(C(=O)OCOC(=O)C=CC(=O)[O-])c2c1

>  <Energy>  (11) 
76.76267520905263

>  <Genealogy>  (11) 
Cc1ccc2cc(C(N)=O)n(C(=O)OCOC(=O)C=CC(=O)[O-])c2c1 (protonated)
Cc1ccc2cc(C(N)=O)n(C(=O)OCOC(=O)C=CC(=O)[O-])c2c1 (3D coordinates assigned)
Cc1ccc2cc(C(N)=O)n(C(=O)OCOC(=O)C=CC(=O)[O-])c2c1 (optimized conformer: 76.76267520905263 kcal/mol)

>  <smiles>  (11) 
Cc1ccc2cc(C(N)=O)n(C(=O)OCOC(=O)C=CC(=O)O)c2c1

>  <score_type>  (11) 
oracle

>  <origin>  (11) 
adg

>  <m_score__min__energy>  (11) 
-10.539999999999999

>  <m_primary>  (11) 
energy

$$$$
11:0
     RDKit          3D

 40 41  0  0  0  0  0  0  0  0999 V2000
   -1.5690   21.5800  -27.2800 C   0  0  0  0  0  0  0  0  0  0  0  0
   -1.2680   22.9000  -26.5700 C   0  0  2  0  0  0  0  0  0  0  0  0
   -0.7050   23.8150  -27.4920 O   0  0  0  0  0  0  0  0  0  0  0  0
   -1.8480   24.2270  -28.6940 P   0  0  1  0  0  0  0  0  0  0  0  0
   -3.2410   24.2830  -28.1080 O   0  0  0  0  0  0  0  0  0  0  0  0
   -1.4570   25.7390  -29.3440 O   0  0  0  0  0  0  0  0  0  0  0  0
   -1.7930   23.0720  -29.9450 O   0  0  0  0  0  0  0  0  0  0  0  0
   -2.8980   23.2810  -30.7960 C   0  0  0  0  0  0  0  0  0  0  0  0
   -4.0900   22.5340  -30.2770 C   0  0  0  0  0  0  0  0  0  0  0  0
   -3.9240   21.6550  -29.3900 O   0  0  0  0  0  0  0  0  0  0  0  0
   -5.4160   22.8170  -30.7540 N   0  0  0  0  0  0  0  0  0  0  0  0
   -6.1120   23.9860  -30.6770 C   0  0  0  0  0  0  0  0  0  0  0  0
   -5.5760   25.2800  -30.2090 C   0  0  0  0  0  0  0  0  0  0  0  0
   -4.2420   25.6580  -30.5370 N   0  0  0  0  0  0  0  0  0  0  0  0
   -6.2760   26.0430  -29.4940 O   0  0  0  0  0  0  0  0  0  0  0  0
   -7.4020   23.8210  -31.1780 C   0  0  0  0  0  0  0  0  0  0  0  0
   -7.4720   22.5050  -31.5750 C   0  0  0  0  0  0  0  0  0  0  0  0
   -8.5230   21.7970  -32.1490 C   0  0  0  0  0  0  0  0  0  0  0  0
   -8.3170   20.4380  -32.4460 C   0  0  0  0  0  0  0  0  0  0  0  0
   -7.0820   19.8080  -32.1430 C   0  0  0  0  0  0  0  0  0  0  0  0
   -6.8600   18.3610  -32.5040 C   0  0  0  0  0  0  0  0  0  0  0  0
   -5.8880   17.7990  -31.6950 F   0  0  0  0  0  0  0  0  0  0  0  0
   -8.0430   17.6650  -32.3390 F   0  0  0  0  0  0  0  0  0  0  0  0
   -6.4470   18.2440  -33.8200 F   0  0  0  0  0  0  0  0  0  0  0  0
   -6.0310   20.5700  -31.5810 C   0  0  0  0  0  0  0  0  0  0  0  0
   -6.2620   21.9230  -31.3090 C   0  0  0  0  0  0  0  0  0  0  0  0
   -0.2810   22.6600  -25.4670 C   0  0  0  0  0  0  0  0  0  0  0  0
   -0.6160   22.0080  -24.4430 O   0  0  0  0  0  0  0  0  0  0  0  0
    0.9990   23.1950  -25.5500 O   0  0  0  0  0  0  0  0  0  0  0  0
   -1.7483   20.7938  -26.5318 H   0  0  0  0  0  0  0  0  0  0  0  0
   -2.4633   21.6979  -27.9095 H   0  0  0  0  0  0  0  0  0  0  0  0
   -0.7120   21.2985  -27.9095 H   0  0  0  0  0  0  0  0  0  0  0  0
   -2.2015   23.3099  -26.1570 H   0  0  0  0  0  0  0  0  0  0  0  0
   -3.1298   24.3556  -30.8356 H   0  0  0  0  0  0  0  0  0  0  0  0
   -2.6528   22.9162  -31.8044 H   0  0  0  0  0  0  0  0  0  0  0  0
   -3.4960   25.6850  -29.8050 H   0  0  0  0  0  0  0  0  0  0  0  0
   -8.1951   24.5805  -31.2424 H   0  0  0  0  0  0  0  0  0  0  0  0
   -9.4851   22.2850  -32.3638 H   0  0  0  0  0  0  0  0  0  0  0  0
   -9.1224   19.8566  -32.9186 H   0  0  0  0  0  0  0  0  0  0  0  0
   -5.0558   20.1101  -31.3631 H   0  0  0  0  0  0  0  0  0  0  0  0
  1  2  1  0
  2  3  1  0
  3  4  1  0
  4  5  2  0
  4  6  1  6
  4  7  1  0
  7  8  1  0
  8  9  1  0
  9 10  2  0
  9 11  1  0
 11 12  1  0
 12 13  1  0
 13 14  1  0
 13 15  2  0
 12 16  2  0
 16 17  1  0
 17 18  2  0
 18 19  1  0
 19 20  2  0
 20 21  1  0
 21 22  1  0
 21 23  1  0
 21 24  1  0
 20 25  1  0
 25 26  2  0
  2 27  1  0
 27 28  2  0
 27 29  1  0
 26 11  1  0
 26 17  1  0
  1 30  1  0
  1 31  1  0
  1 32  1  0
  2 33  1  1
  8 34  1  0
  8 35  1  0
 14 36  1  0
 16 37  1  0
 18 38  1  0
 19 39  1  0
 25 40  1  0
M  CHG  3   6  -1  14  -1  29  -1
M  END
>  <UniqueID>  (12) 
12

>  <SMILES>  (12) 
C[C@H](O[P@@](=O)([O-])OCC(=O)n1c(C([NH-])=O)cc2ccc(C(F)(F)F)cc21)C(=O)[O-]

>  <Energy>  (12) 
77.64756180322257

>  <Genealogy>  (12) 
CC(OP(=O)([O-])OCC(=O)n1c(C([NH-])=O)cc2ccc(C(F)(F)F)cc21)C(=O)[O-] (protonated)
C[C@H](O[P@@](=O)([O-])OCC(=O)n1c(C([NH-])=O)cc2ccc(C(F)(F)F)cc21)C(=O)[O-] (chirality)
C[C@H](O[P@@](=O)([O-])OCC(=O)n1c(C([NH-])=O)cc2ccc(C(F)(F)F)cc21)C(=O)[O-] (3D coordinates assigned)
C[C@H](O[P@@](=O)([O-])OCC(=O)n1c(C([NH-])=O)cc2ccc(C(F)(F)F)cc21)C(=O)[O-] (optimized conformer: 77.64756180322257 kcal/mol)

>  <smiles>  (12) 
CC(OP(=O)(O)OCC(=O)n1c(C(N)=O)cc2ccc(C(F)(F)F)cc21)C(=O)O

>  <score_type>  (12) 
oracle

>  <origin>  (12) 
adg

>  <m_score__min__energy>  (12) 
-13.210000000000001

>  <m_primary>  (12) 
energy

$$$$
12:0
     RDKit          3D

 38 39  0  0  0  0  0  0  0  0999 V2000
   -3.3290   20.6710  -33.2490 C   0  0  0  0  0  0  0  0  0  0  0  0
   -3.8130   21.9130  -33.2350 C   0  0  0  0  0  0  0  0  0  0  0  0
   -4.0580   22.6610  -31.9880 C   0  0  0  0  0  0  0  0  0  0  0  0
   -3.0750   23.0130  -31.2850 O   0  0  0  0  0  0  0  0  0  0  0  0
   -5.3870   23.0040  -31.5650 N   0  0  0  0  0  0  0  0  0  0  0  0
   -5.7990   24.1570  -30.9670 C   0  0  0  0  0  0  0  0  0  0  0  0
   -4.9230   25.2600  -30.5190 C   0  0  0  0  0  0  0  0  0  0  0  0
   -3.5740   25.0170  -30.1300 N   0  0  0  0  0  0  0  0  0  0  0  0
   -5.3800   26.4340  -30.4570 O   0  0  0  0  0  0  0  0  0  0  0  0
   -7.1810   24.1430  -30.7870 C   0  0  0  0  0  0  0  0  0  0  0  0
   -7.6060   22.9390  -31.3030 C   0  0  0  0  0  0  0  0  0  0  0  0
   -8.8870   22.4010  -31.3930 C   0  0  0  0  0  0  0  0  0  0  0  0
   -9.0290   21.1380  -31.9920 C   0  0  0  0  0  0  0  0  0  0  0  0
   -7.9010   20.4460  -32.5040 C   0  0  0  0  0  0  0  0  0  0  0  0
   -8.0550   19.1380  -33.0920 N   0  0  0  0  0  0  0  0  0  0  0  0
   -7.6090   18.1070  -32.1410 C   0  0  0  0  0  0  0  0  0  0  0  0
   -6.2280   17.5410  -32.5130 C   0  0  0  0  0  0  0  0  0  0  0  0
   -6.0510   17.3530  -34.0240 C   0  0  0  0  0  0  0  0  0  0  0  0
   -6.0780   18.5960  -34.6710 O   0  0  0  0  0  0  0  0  0  0  0  0
   -6.6160   21.0240  -32.3870 C   0  0  0  0  0  0  0  0  0  0  0  0
   -6.5030   22.2740  -31.7710 C   0  0  0  0  0  0  0  0  0  0  0  0
   -3.1640   20.1558  -34.2068 H   0  0  0  0  0  0  0  0  0  0  0  0
   -3.0947   20.1613  -32.3028 H   0  0  0  0  0  0  0  0  0  0  0  0
   -4.0393   22.4007  -34.1946 H   0  0  0  0  0  0  0  0  0  0  0  0
   -2.7860   25.1700  -30.7980 H   0  0  0  0  0  0  0  0  0  0  0  0
   -7.8012   24.9278  -30.3294 H   0  0  0  0  0  0  0  0  0  0  0  0
   -9.7603   22.9475  -31.0073 H   0  0  0  0  0  0  0  0  0  0  0  0
  -10.0265   20.6802  -32.0649 H   0  0  0  0  0  0  0  0  0  0  0  0
   -9.0620   18.9890  -33.3370 H   0  0  0  0  0  0  0  0  0  0  0  0
   -7.4930   19.0800  -33.9730 H   0  0  0  0  0  0  0  0  0  0  0  0
   -7.5522   18.5510  -31.1362 H   0  0  0  0  0  0  0  0  0  0  0  0
   -8.3346   17.2807  -32.1696 H   0  0  0  0  0  0  0  0  0  0  0  0
   -5.4547   18.2352  -32.1521 H   0  0  0  0  0  0  0  0  0  0  0  0
   -6.1383   16.5505  -32.0430 H   0  0  0  0  0  0  0  0  0  0  0  0
   -5.0859   16.8624  -34.2189 H   0  0  0  0  0  0  0  0  0  0  0  0
   -6.8722   16.7298  -34.4076 H   0  0  0  0  0  0  0  0  0  0  0  0
   -6.4800   18.4410  -35.5660 H   0  0  0  0  0  0  0  0  0  0  0  0
   -5.7268   20.5029  -32.7713 H   0  0  0  0  0  0  0  0  0  0  0  0
  1  2  2  0
  2  3  1  0
  3  4  2  0
  3  5  1  0
  5  6  1  0
  6  7  1  0
  7  8  1  0
  7  9  2  0
  6 10  2  0
 10 11  1  0
 11 12  2  0
 12 13  1  0
 13 14  2  0
 14 15  1  0
 15 16  1  0
 16 17  1  0
 17 18  1  0
 18 19  1  0
 14 20  1  0
 20 21  2  0
 21  5  1  0
 21 11  1  0
  1 22  1  0
  1 23  1  0
  2 24  1  0
  8 25  1  0
 10 26  1  0
 12 27  1  0
 13 28  1  0
 15 29  1  0
 15 30  1  0
 16 31  1  0
 16 32  1  0
 17 33  1  0
 17 34  1  0
 18 35  1  0
 18 36  1  0
 19 37  1  0
 20 38  1  0
M  CHG  2   8  -1  15   1
M  END
>  <UniqueID>  (13) 
13

>  <SMILES>  (13) 
C=CC(=O)n1c(C([NH-])=O)cc2ccc([NH2+]CCCO)cc21

>  <Energy>  (13) 
73.39053664066967

>  <Genealogy>  (13) 
C=CC(=O)n1c(C([NH-])=O)cc2ccc([NH2+]CCCO)cc21 (protonated)
C=CC(=O)n1c(C([NH-])=O)cc2ccc([NH2+]CCCO)cc21 (3D coordinates assigned)
C=CC(=O)n1c(C([NH-])=O)cc2ccc([NH2+]CCCO)cc21 (optimized conformer: 73.39053664066967 kcal/mol)

>  <smiles>  (13) 
C=CC(=O)n1c(C(N)=O)cc2ccc(NCCCO)cc21

>  <score_type>  (13) 
oracle

>  <origin>  (13) 
adg

>  <m_score__min__energy>  (13) 
-9.7899999999999991

>  <m_primary>  (13) 
energy

$$$$
13:0
     RDKit          3D

 43 44  0  0  0  0  0  0  0  0999 V2000
   -9.5320   17.9500  -31.5910 N   0  0  0  0  0  0  0  0  0  0  0  0
   -9.2700   19.1050  -32.3840 C   0  0  0  0  0  0  0  0  0  0  0  0
   -9.9880   19.3380  -33.3920 O   0  0  0  0  0  0  0  0  0  0  0  0
   -8.1750   20.0230  -32.0090 C   0  0  0  0  0  0  0  0  0  0  0  0
   -8.3550   21.1790  -31.2480 C   0  0  0  0  0  0  0  0  0  0  0  0
   -7.1080   21.7570  -31.1630 C   0  0  0  0  0  0  0  0  0  0  0  0
   -6.6950   22.9150  -30.5070 C   0  0  0  0  0  0  0  0  0  0  0  0
   -5.3310   23.2520  -30.5610 C   0  0  0  0  0  0  0  0  0  0  0  0
   -4.4100   22.4280  -31.2570 C   0  0  0  0  0  0  0  0  0  0  0  0
   -2.9440   22.7770  -31.2850 C   0  0  0  0  0  0  0  0  0  0  0  0
   -2.3980   23.1160  -29.8920 C   0  0  0  0  0  0  0  0  0  0  0  0
   -2.8800   24.7880  -29.3440 P   0  0  0  0  0  0  0  0  0  0  0  0
   -3.6550   24.7040  -28.0490 O   0  0  0  0  0  0  0  0  0  0  0  0
   -3.8540   25.4970  -30.5300 O   0  0  0  0  0  0  0  0  0  0  0  0
   -1.5030   25.7430  -29.1180 O   0  0  0  0  0  0  0  0  0  0  0  0
   -4.8670   21.2610  -31.9060 C   0  0  0  0  0  0  0  0  0  0  0  0
   -6.2310   20.9630  -31.8530 C   0  0  0  0  0  0  0  0  0  0  0  0
   -6.8710   19.8990  -32.3820 N   0  0  0  0  0  0  0  0  0  0  0  0
   -6.2670   18.8340  -33.1300 C   0  0  0  0  0  0  0  0  0  0  0  0
   -5.4290   19.1070  -34.0320 O   0  0  0  0  0  0  0  0  0  0  0  0
   -6.6320   17.4300  -32.8580 C   0  0  0  0  0  0  0  0  0  0  0  0
   -6.8190   17.0570  -31.6690 O   0  0  0  0  0  0  0  0  0  0  0  0
   -6.8290   16.4450  -33.9780 C   0  0  0  0  0  0  0  0  0  0  0  0
   -5.6860   15.4210  -34.0340 C   0  0  0  0  0  0  0  0  0  0  0  0
   -4.6170   15.6900  -32.9660 C   0  0  0  0  0  0  0  0  0  0  0  0
   -4.1290   14.4030  -32.3810 C   0  0  0  0  0  0  0  0  0  0  0  0
   -3.2370   13.7380  -32.9700 O   0  0  0  0  0  0  0  0  0  0  0  0
   -4.6230   13.9640  -31.1590 O   0  0  0  0  0  0  0  0  0  0  0  0
   -8.8020   17.5600  -30.9540 H   0  0  0  0  0  0  0  0  0  0  0  0
   -9.2933   21.5495  -30.8094 H   0  0  0  0  0  0  0  0  0  0  0  0
   -7.4139   23.5459  -29.9637 H   0  0  0  0  0  0  0  0  0  0  0  0
   -4.9748   24.1635  -30.0586 H   0  0  0  0  0  0  0  0  0  0  0  0
   -2.3839   21.9189  -31.6850 H   0  0  0  0  0  0  0  0  0  0  0  0
   -2.8228   23.6676  -31.9191 H   0  0  0  0  0  0  0  0  0  0  0  0
   -2.7880   22.3820  -29.1715 H   0  0  0  0  0  0  0  0  0  0  0  0
   -1.2998   23.0842  -29.9454 H   0  0  0  0  0  0  0  0  0  0  0  0
   -4.1666   20.6023  -32.4404 H   0  0  0  0  0  0  0  0  0  0  0  0
   -7.7789   15.9124  -33.8227 H   0  0  0  0  0  0  0  0  0  0  0  0
   -6.8422   17.0000  -34.9276 H   0  0  0  0  0  0  0  0  0  0  0  0
   -6.1024   14.4155  -33.8737 H   0  0  0  0  0  0  0  0  0  0  0  0
   -5.2068   15.5019  -35.0208 H   0  0  0  0  0  0  0  0  0  0  0  0
   -3.7715   16.2228  -33.4256 H   0  0  0  0  0  0  0  0  0  0  0  0
   -5.0586   16.3012  -32.1651 H   0  0  0  0  0  0  0  0  0  0  0  0
  1  2  1  0
  2  3  2  0
  2  4  1  0
  4  5  2  0
  5  6  1  0
  6  7  2  0
  7  8  1  0
  8  9  2  0
  9 10  1  0
 10 11  1  0
 11 12  1  0
 12 13  2  0
 12 14  1  0
 12 15  1  0
  9 16  1  0
 16 17  2  0
 17 18  1  0
 18 19  1  0
 19 20  2  0
 19 21  1  0
 21 22  2  0
 21 23  1  0
 23 24  1  0
 24 25  1  0
 25 26  1  0
 26 27  2  0
 26 28  1  0
 18  4  1  0
 17  6  1  0
  1 29  1  0
  5 30  1  0
  7 31  1  0
  8 32  1  0
 10 33  1  0
 10 34  1  0
 11 35  1  0
 11 36  1  0
 16 37  1  0
 23 38  1  0
 23 39  1  0
 24 40  1  0
 24 41  1  0
 25 42  1  0
 25 43  1  0
M  CHG  4   1  -1  14  -1  15  -1  28  -1
M  END
>  <UniqueID>  (14) 
14

>  <SMILES>  (14) 
[NH-]C(=O)c1cc2ccc(CCP(=O)([O-])[O-])cc2n1C(=O)C(=O)CCCC(=O)[O-]

>  <Energy>  (14) 
68.7055267731768

>  <Genealogy>  (14) 
[NH-]C(=O)c1cc2ccc(CCP(=O)([O-])[O-])cc2n1C(=O)C(=O)CCCC(=O)[O-] (protonated)
[NH-]C(=O)c1cc2ccc(CCP(=O)([O-])[O-])cc2n1C(=O)C(=O)CCCC(=O)[O-] (3D coordinates assigned)
[NH-]C(=O)c1cc2ccc(CCP(=O)([O-])[O-])cc2n1C(=O)C(=O)CCCC(=O)[O-] (optimized conformer: 68.7055267731768 kcal/mol)

>  <smiles>  (14) 
NC(=O)c1cc2ccc(CCP(=O)(O)O)cc2n1C(=O)C(=O)CCCC(=O)O

>  <score_type>  (14) 
oracle

>  <origin>  (14) 
adg

>  <m_score__min__energy>  (14) 
-13.31

>  <m_primary>  (14) 
energy

$$$$
14:0
     RDKit          3D

 35 36  0  0  0  0  0  0  0  0999 V2000
   -3.8660   24.1620  -27.3600 C   0  0  0  0  0  0  0  0  0  0  0  0
   -2.9540   23.8250  -28.2750 C   0  0  0  0  0  0  0  0  0  0  0  0
   -3.1810   22.6780  -29.2190 C   0  0  0  0  0  0  0  0  0  0  0  0
   -2.9850   23.0890  -30.5700 O   0  0  0  0  0  0  0  0  0  0  0  0
   -3.8660   22.7650  -31.6080 C   0  0  0  0  0  0  0  0  0  0  0  0
   -3.4310   22.2770  -32.6850 O   0  0  0  0  0  0  0  0  0  0  0  0
   -5.2720   23.0120  -31.4490 N   0  0  0  0  0  0  0  0  0  0  0  0
   -5.8740   24.0920  -30.8730 C   0  0  0  0  0  0  0  0  0  0  0  0
   -5.1930   25.3170  -30.4030 C   0  0  0  0  0  0  0  0  0  0  0  0
   -3.8660   25.6030  -30.8420 N   0  0  0  0  0  0  0  0  0  0  0  0
   -5.7550   26.0970  -29.5910 O   0  0  0  0  0  0  0  0  0  0  0  0
   -7.2580   23.9310  -30.8600 C   0  0  0  0  0  0  0  0  0  0  0  0
   -7.4890   22.7130  -31.4580 C   0  0  0  0  0  0  0  0  0  0  0  0
   -8.6880   22.0520  -31.7070 C   0  0  0  0  0  0  0  0  0  0  0  0
   -8.6280   20.7910  -32.3240 C   0  0  0  0  0  0  0  0  0  0  0  0
   -7.3810   20.2080  -32.6640 C   0  0  0  0  0  0  0  0  0  0  0  0
   -7.3330   18.9210  -33.3130 N   0  0  0  0  0  0  0  0  0  0  0  0
   -6.6060   17.9630  -32.4780 C   0  0  0  0  0  0  0  0  0  0  0  0
   -6.1850   20.9170  -32.4020 C   0  0  0  0  0  0  0  0  0  0  0  0
   -6.2750   22.1780  -31.8030 C   0  0  0  0  0  0  0  0  0  0  0  0
   -3.6771   25.0057  -26.6799 H   0  0  0  0  0  0  0  0  0  0  0  0
   -4.8063   23.5960  -27.2862 H   0  0  0  0  0  0  0  0  0  0  0  0
   -2.0175   24.3985  -28.3392 H   0  0  0  0  0  0  0  0  0  0  0  0
   -2.4736   21.8698  -28.9815 H   0  0  0  0  0  0  0  0  0  0  0  0
   -4.2167   22.3258  -29.1039 H   0  0  0  0  0  0  0  0  0  0  0  0
   -3.0390   25.2650  -30.3030 H   0  0  0  0  0  0  0  0  0  0  0  0
   -8.0068   24.6290  -30.4574 H   0  0  0  0  0  0  0  0  0  0  0  0
   -9.6524   22.5025  -31.4295 H   0  0  0  0  0  0  0  0  0  0  0  0
   -9.5595   20.2497  -32.5459 H   0  0  0  0  0  0  0  0  0  0  0  0
   -6.8560   19.0030  -34.2400 H   0  0  0  0  0  0  0  0  0  0  0  0
   -8.3050   18.5670  -33.4790 H   0  0  0  0  0  0  0  0  0  0  0  0
   -6.7815   18.1942  -31.4170 H   0  0  0  0  0  0  0  0  0  0  0  0
   -6.9606   16.9445  -32.6948 H   0  0  0  0  0  0  0  0  0  0  0  0
   -5.5297   18.0304  -32.6948 H   0  0  0  0  0  0  0  0  0  0  0  0
   -5.2070   20.4866  -32.6633 H   0  0  0  0  0  0  0  0  0  0  0  0
  1  2  2  0
  2  3  1  0
  3  4  1  0
  4  5  1  0
  5  6  2  0
  5  7  1  0
  7  8  1  0
  8  9  1  0
  9 10  1  0
  9 11  2  0
  8 12  2  0
 12 13  1  0
 13 14  2  0
 14 15  1  0
 15 16  2  0
 16 17  1  0
 17 18  1  0
 16 19  1  0
 19 20  2  0
 20  7  1  0
 20 13  1  0
  1 21  1  0
  1 22  1  0
  2 23  1  0
  3 24  1  0
  3 25  1  0
 10 26  1  0
 12 27  1  0
 14 28  1  0
 15 29  1  0
 17 30  1  0
 17 31  1  0
 18 32  1  0
 18 33  1  0
 18 34  1  0
 19 35  1  0
M  CHG  2  10  -1  17   1
M  END
>  <UniqueID>  (15) 
15

>  <SMILES>  (15) 
C=CCOC(=O)n1c(C([NH-])=O)cc2ccc([NH2+]C)cc21

>  <Energy>  (15) 
69.18412297832063

>  <Genealogy>  (15) 
C=CCOC(=O)n1c(C([NH-])=O)cc2ccc([NH2+]C)cc21 (protonated)
C=CCOC(=O)n1c(C([NH-])=O)cc2ccc([NH2+]C)cc21 (3D coordinates assigned)
C=CCOC(=O)n1c(C([NH-])=O)cc2ccc([NH2+]C)cc21 (optimized conformer: 69.18412297832063 kcal/mol)

>  <smiles>  (15) 
C=CCOC(=O)n1c(C(N)=O)cc2ccc(NC)cc21

>  <score_type>  (15) 
oracle

>  <origin>  (15) 
adg

>  <m_score__min__energy>  (15) 
-9.3699999999999992

>  <m_primary>  (15) 
energy

$$$$
15:0
     RDKit          3D

 42 43  0  0  0  0  0  0  0  0999 V2000
   -3.9190   18.5640  -34.3370 N   0  0  0  0  0  0  0  0  0  0  0  0
   -5.0430   18.4980  -34.0720 C   0  0  0  0  0  0  0  0  0  0  0  0
   -6.4680   18.4140  -33.7360 C   0  0  0  0  0  0  0  0  0  0  0  0
   -6.8910   19.6420  -32.9800 C   0  0  0  0  0  0  0  0  0  0  0  0
   -8.2640   19.8920  -32.7380 C   0  0  0  0  0  0  0  0  0  0  0  0
   -8.6680   21.0300  -32.0190 C   0  0  0  0  0  0  0  0  0  0  0  0
   -7.6790   21.8870  -31.5440 C   0  0  0  0  0  0  0  0  0  0  0  0
   -7.7910   23.0610  -30.8360 C   0  0  0  0  0  0  0  0  0  0  0  0
   -6.4830   23.4940  -30.6240 C   0  0  0  0  0  0  0  0  0  0  0  0
   -6.1260   24.6800  -29.8130 C   0  0  0  0  0  0  0  0  0  0  0  0
   -4.8780   24.7430  -29.1180 N   0  0  0  0  0  0  0  0  0  0  0  0
   -6.9110   25.6630  -29.7500 O   0  0  0  0  0  0  0  0  0  0  0  0
   -5.5980   22.6210  -31.1840 N   0  0  0  0  0  0  0  0  0  0  0  0
   -4.1660   22.7250  -31.2220 C   0  0  0  0  0  0  0  0  0  0  0  0
   -3.6150   23.8600  -31.2040 O   0  0  0  0  0  0  0  0  0  0  0  0
   -3.3880   21.5630  -31.2870 O   0  0  0  0  0  0  0  0  0  0  0  0
   -2.9860   20.8240  -30.1370 C   0  0  0  0  0  0  0  0  0  0  0  0
   -2.6630   21.7500  -29.0090 C   0  0  0  0  0  0  0  0  0  0  0  0
   -3.5680   22.0810  -28.1940 O   0  0  0  0  0  0  0  0  0  0  0  0
   -1.3640   22.2590  -28.8860 O   0  0  0  0  0  0  0  0  0  0  0  0
   -0.9800   23.5530  -29.3450 C   0  0  0  0  0  0  0  0  0  0  0  0
   -1.1640   24.5920  -28.2430 C   0  0  0  0  0  0  0  0  0  0  0  0
   -2.5380   24.9550  -28.1530 O   0  0  0  0  0  0  0  0  0  0  0  0
   -3.2250   24.9270  -26.9560 N   0  0  0  0  0  0  0  0  0  0  0  0
   -4.2640   24.2460  -26.8270 O   0  0  0  0  0  0  0  0  0  0  0  0
   -2.7700   25.6780  -25.8980 O   0  0  0  0  0  0  0  0  0  0  0  0
   -6.3450   21.6440  -31.7430 C   0  0  0  0  0  0  0  0  0  0  0  0
   -5.9150   20.5280  -32.4710 C   0  0  0  0  0  0  0  0  0  0  0  0
   -7.0566   18.3355  -34.6620 H   0  0  0  0  0  0  0  0  0  0  0  0
   -6.6394   17.5268  -33.1087 H   0  0  0  0  0  0  0  0  0  0  0  0
   -9.0209   19.1891  -33.1162 H   0  0  0  0  0  0  0  0  0  0  0  0
   -9.7329   21.2372  -31.8372 H   0  0  0  0  0  0  0  0  0  0  0  0
   -8.7174   23.5542  -30.5066 H   0  0  0  0  0  0  0  0  0  0  0  0
   -4.6220   25.6010  -28.5790 H   0  0  0  0  0  0  0  0  0  0  0  0
   -4.2240   23.9300  -29.0990 H   0  0  0  0  0  0  0  0  0  0  0  0
   -3.8035   20.1537  -29.8329 H   0  0  0  0  0  0  0  0  0  0  0  0
   -2.0890   20.2378  -30.3853 H   0  0  0  0  0  0  0  0  0  0  0  0
    0.0775   23.5301  -29.6469 H   0  0  0  0  0  0  0  0  0  0  0  0
   -1.6148   23.8280  -30.2002 H   0  0  0  0  0  0  0  0  0  0  0  0
   -0.8334   24.1695  -27.2827 H   0  0  0  0  0  0  0  0  0  0  0  0
   -0.5652   25.4842  -28.4786 H   0  0  0  0  0  0  0  0  0  0  0  0
   -4.8439   20.3455  -32.6425 H   0  0  0  0  0  0  0  0  0  0  0  0
  1  2  3  0
  2  3  1  0
  3  4  1  0
  4  5  2  0
  5  6  1  0
  6  7  2  0
  7  8  1  0
  8  9  2  0
  9 10  1  0
 10 11  1  0
 10 12  2  0
  9 13  1  0
 13 14  1  0
 14 15  2  0
 14 16  1  0
 16 17  1  0
 17 18  1  0
 18 19  2  0
 18 20  1  0
 20 21  1  0
 21 22  1  0
 22 23  1  0
 23 24  1  0
 24 25  2  0
 24 26  1  0
 13 27  1  0
 27 28  2  0
 28  4  1  0
 27  7  1  0
  3 29  1  0
  3 30  1  0
  5 31  1  0
  6 32  1  0
  8 33  1  0
 11 34  1  0
 11 35  1  0
 17 36  1  0
 17 37  1  0
 21 38  1  0
 21 39  1  0
 22 40  1  0
 22 41  1  0
 28 42  1  0
M  CHG  2  24   1  26  -1
M  END
>  <UniqueID>  (16) 
16

>  <SMILES>  (16) 
N#CCc1ccc2cc(C(N)=O)n(C(=O)OCC(=O)OCCO[N+](=O)[O-])c2c1

>  <Energy>  (16) 
70.75064887332326

>  <Genealogy>  (16) 
N#CCc1ccc2cc(C(N)=O)n(C(=O)OCC(=O)OCCO[N+](=O)[O-])c2c1 (3D coordinates assigned)
N#CCc1ccc2cc(C(N)=O)n(C(=O)OCC(=O)OCCO[N+](=O)[O-])c2c1 (optimized conformer: 70.75064887332326 kcal/mol)

>  <smiles>  (16) 
N#CCc1ccc2cc(C(N)=O)n(C(=O)OCC(=O)OCCO[N+](=O)[O-])c2c1

>  <score_type>  (16) 
oracle

>  <origin>  (16) 
adg

>  <m_score__min__energy>  (16) 
-8.5600000000000005

>  <m_primary>  (16) 
energy

$$$$
16:0
     RDKit          3D

 34 35  0  0  0  0  0  0  0  0999 V2000
   -5.7290   16.7580  -31.9680 C   0  0  0  0  0  0  0  0  0  0  0  0
   -5.9270   17.9470  -31.9770 C   0  0  0  0  0  0  0  0  0  0  0  0
   -6.1630   19.3670  -31.9860 C   0  0  0  0  0  0  0  0  0  0  0  0
   -7.2810   19.8900  -32.6750 C   0  0  0  0  0  0  0  0  0  0  0  0
   -7.5320   21.2720  -32.6770 C   0  0  0  0  0  0  0  0  0  0  0  0
   -6.6400   22.0980  -31.9970 C   0  0  0  0  0  0  0  0  0  0  0  0
   -6.6710   23.4590  -31.7990 C   0  0  0  0  0  0  0  0  0  0  0  0
   -5.5560   23.7430  -31.0130 C   0  0  0  0  0  0  0  0  0  0  0  0
   -5.2020   25.1080  -30.5610 C   0  0  0  0  0  0  0  0  0  0  0  0
   -3.9280   25.6750  -30.8550 N   0  0  0  0  0  0  0  0  0  0  0  0
   -6.0470   25.7930  -29.9260 O   0  0  0  0  0  0  0  0  0  0  0  0
   -4.8500   22.6060  -30.7540 N   0  0  0  0  0  0  0  0  0  0  0  0
   -3.7000   22.4750  -29.8980 C   0  0  0  0  0  0  0  0  0  0  0  0
   -3.8120   21.7750  -28.8530 O   0  0  0  0  0  0  0  0  0  0  0  0
   -2.4060   23.0340  -30.2630 N   0  0  2  0  0  0  0  0  0  0  0  0
   -1.8010   22.2970  -31.3920 C   0  0  0  0  0  0  0  0  0  0  0  0
   -1.4590   23.1370  -29.1230 C   0  0  0  0  0  0  0  0  0  0  0  0
   -0.8930   24.5180  -28.9230 C   0  0  0  0  0  0  0  0  0  0  0  0
    0.2160   24.6700  -28.3450 O   0  0  0  0  0  0  0  0  0  0  0  0
   -1.6070   25.6350  -29.3370 O   0  0  0  0  0  0  0  0  0  0  0  0
   -5.5390   21.6030  -31.3440 C   0  0  0  0  0  0  0  0  0  0  0  0
   -5.2810   20.2280  -31.3030 C   0  0  0  0  0  0  0  0  0  0  0  0
   -5.5483   15.6730  -31.9598 H   0  0  0  0  0  0  0  0  0  0  0  0
   -7.9585   19.2106  -33.2129 H   0  0  0  0  0  0  0  0  0  0  0  0
   -8.4057   21.6890  -33.1993 H   0  0  0  0  0  0  0  0  0  0  0  0
   -7.4173   24.1716  -32.1801 H   0  0  0  0  0  0  0  0  0  0  0  0
   -3.0570   25.2930  -30.4240 H   0  0  0  0  0  0  0  0  0  0  0  0
   -2.5780   24.0060  -30.6070 H   0  0  0  0  0  0  0  0  0  0  0  0
   -1.1482   21.5017  -31.0030 H   0  0  0  0  0  0  0  0  0  0  0  0
   -2.5964   21.8505  -32.0067 H   0  0  0  0  0  0  0  0  0  0  0  0
   -1.2080   22.9902  -32.0067 H   0  0  0  0  0  0  0  0  0  0  0  0
   -1.9890   22.8436  -28.2048 H   0  0  0  0  0  0  0  0  0  0  0  0
   -0.6112   22.4744  -29.3513 H   0  0  0  0  0  0  0  0  0  0  0  0
   -4.4148   19.8309  -30.7535 H   0  0  0  0  0  0  0  0  0  0  0  0
  1  2  3  0
  2  3  1  0
  3  4  2  0
  4  5  1  0
  5  6  2  0
  6  7  1  0
  7  8  2  0
  8  9  1  0
  9 10  1  0
  9 11  2  0
  8 12  1  0
 12 13  1  0
 13 14  2  0
 13 15  1  0
 15 16  1  0
 15 17  1  0
 17 18  1  0
 18 19  2  0
 18 20  1  0
 12 21  1  0
 21 22  2  0
 22  3  1  0
 21  6  1  0
  1 23  1  0
  4 24  1  0
  5 25  1  0
  7 26  1  0
 10 27  1  0
 15 28  1  6
 16 29  1  0
 16 30  1  0
 16 31  1  0
 17 32  1  0
 17 33  1  0
 22 34  1  0
M  CHG  3  10  -1  15   1  20  -1
M  END
>  <UniqueID>  (17) 
17

>  <SMILES>  (17) 
C#Cc1ccc2cc(C([NH-])=O)n(C(=O)[N@H+](C)CC(=O)[O-])c2c1

>  <Energy>  (17) 
78.56053422480218

>  <Genealogy>  (17) 
C#Cc1ccc2cc(C([NH-])=O)n(C(=O)[NH+](C)CC(=O)[O-])c2c1 (protonated)
C#Cc1ccc2cc(C([NH-])=O)n(C(=O)[N@H+](C)CC(=O)[O-])c2c1 (chirality)
C#Cc1ccc2cc(C([NH-])=O)n(C(=O)[N@H+](C)CC(=O)[O-])c2c1 (3D coordinates assigned)
C#Cc1ccc2cc(C([NH-])=O)n(C(=O)[N@H+](C)CC(=O)[O-])c2c1 (optimized conformer: 78.56053422480218 kcal/mol)

>  <smiles>  (17) 
C#Cc1ccc2cc(C(N)=O)n(C(=O)N(C)CC(=O)O)c2c1

>  <score_type>  (17) 
oracle

>  <origin>  (17) 
adg

>  <m_score__min__energy>  (17) 
-10.84

>  <m_primary>  (17) 
energy

$$$$
17:0
     RDKit          3D

 34 35  0  0  0  0  0  0  0  0999 V2000
   -1.0360   21.8670  -29.0340 C   0  0  0  0  0  0  0  0  0  0  0  0
   -1.4470   23.0510  -29.8050 N   0  0  2  0  0  0  0  0  0  0  0  0
   -0.9130   24.2770  -29.2600 C   0  0  0  0  0  0  0  0  0  0  0  0
   -1.5860   25.3400  -29.3310 O   0  0  0  0  0  0  0  0  0  0  0  0
    0.3220   24.3020  -28.6190 O   0  0  0  0  0  0  0  0  0  0  0  0
   -2.8880   23.1220  -29.9230 C   0  0  0  0  0  0  0  0  0  0  0  0
   -3.5590   23.5720  -28.9550 O   0  0  0  0  0  0  0  0  0  0  0  0
   -3.6120   22.7180  -31.1550 C   0  0  0  0  0  0  0  0  0  0  0  0
   -2.9830   22.2740  -32.1520 O   0  0  0  0  0  0  0  0  0  0  0  0
   -5.0360   22.8780  -31.2430 N   0  0  0  0  0  0  0  0  0  0  0  0
   -5.7700   24.0050  -31.0260 C   0  0  0  0  0  0  0  0  0  0  0  0
   -5.2420   25.2990  -30.5450 C   0  0  0  0  0  0  0  0  0  0  0  0
   -3.8970   25.6710  -30.8370 N   0  0  0  0  0  0  0  0  0  0  0  0
   -5.9750   26.0910  -29.8960 O   0  0  0  0  0  0  0  0  0  0  0  0
   -7.1220   23.7550  -31.2530 C   0  0  0  0  0  0  0  0  0  0  0  0
   -7.1930   22.4260  -31.6090 C   0  0  0  0  0  0  0  0  0  0  0  0
   -8.2910   21.6460  -31.9590 C   0  0  0  0  0  0  0  0  0  0  0  0
   -8.0620   20.3030  -32.3010 C   0  0  0  0  0  0  0  0  0  0  0  0
   -6.7510   19.7580  -32.2740 C   0  0  0  0  0  0  0  0  0  0  0  0
   -6.5130   18.3310  -32.6970 C   0  0  0  0  0  0  0  0  0  0  0  0
   -5.4960   17.7620  -31.9500 F   0  0  0  0  0  0  0  0  0  0  0  0
   -7.6570   17.5720  -32.5190 F   0  0  0  0  0  0  0  0  0  0  0  0
   -6.1600   18.3060  -34.0330 F   0  0  0  0  0  0  0  0  0  0  0  0
   -5.6590   20.5900  -31.9340 C   0  0  0  0  0  0  0  0  0  0  0  0
   -5.9200   21.9210  -31.5910 C   0  0  0  0  0  0  0  0  0  0  0  0
   -1.1118   22.0853  -27.9586 H   0  0  0  0  0  0  0  0  0  0  0  0
   -1.6930   21.0208  -29.2835 H   0  0  0  0  0  0  0  0  0  0  0  0
    0.0040   21.6098  -29.2835 H   0  0  0  0  0  0  0  0  0  0  0  0
   -1.0400   22.9400  -30.7660 H   0  0  0  0  0  0  0  0  0  0  0  0
   -3.1010   25.2850  -30.2810 H   0  0  0  0  0  0  0  0  0  0  0  0
   -7.9556   24.4675  -31.1663 H   0  0  0  0  0  0  0  0  0  0  0  0
   -9.3068   22.0681  -31.9676 H   0  0  0  0  0  0  0  0  0  0  0  0
   -8.9092   19.6652  -32.5935 H   0  0  0  0  0  0  0  0  0  0  0  0
   -4.6303   20.2004  -31.9391 H   0  0  0  0  0  0  0  0  0  0  0  0
  1  2  1  0
  2  3  1  0
  3  4  2  0
  3  5  1  0
  2  6  1  0
  6  7  2  0
  6  8  1  0
  8  9  2  0
  8 10  1  0
 10 11  1  0
 11 12  1  0
 12 13  1  0
 12 14  2  0
 11 15  2  0
 15 16  1  0
 16 17  2  0
 17 18  1  0
 18 19  2  0
 19 20  1  0
 20 21  1  0
 20 22  1  0
 20 23  1  0
 19 24  1  0
 24 25  2  0
 25 10  1  0
 25 16  1  0
  1 26  1  0
  1 27  1  0
  1 28  1  0
  2 29  1  6
 13 30  1  0
 15 31  1  0
 17 32  1  0
 18 33  1  0
 24 34  1  0
M  CHG  3   2   1   5  -1  13  -1
M  END
>  <UniqueID>  (18) 
18

>  <SMILES>  (18) 
C[NH+](C(=O)[O-])C(=O)C(=O)n1c(C([NH-])=O)cc2ccc(C(F)(F)F)cc21

>  <Energy>  (18) 
78.90024320042356

>  <Genealogy>  (18) 
C[NH+](C(=O)[O-])C(=O)C(=O)n1c(C([NH-])=O)cc2ccc(C(F)(F)F)cc21 (protonated)
C[NH+](C(=O)[O-])C(=O)C(=O)n1c(C([NH-])=O)cc2ccc(C(F)(F)F)cc21 (3D coordinates assigned)
C[NH+](C(=O)[O-])C(=O)C(=O)n1c(C([NH-])=O)cc2ccc(C(F)(F)F)cc21 (optimized conformer: 78.90024320042356 kcal/mol)

>  <smiles>  (18) 
CN(C(=O)O)C(=O)C(=O)n1c(C(N)=O)cc2ccc(C(F)(F)F)cc21

>  <score_type>  (18) 
oracle

>  <origin>  (18) 
adg

>  <m_score__min__energy>  (18) 
-10.779999999999999

>  <m_primary>  (18) 
energy

$$$$
18:0
     RDKit          3D

 34 35  0  0  0  0  0  0  0  0999 V2000
   -6.7260   17.0420  -33.8250 C   0  0  0  0  0  0  0  0  0  0  0  0
   -6.8740   18.1170  -33.3010 C   0  0  0  0  0  0  0  0  0  0  0  0
   -7.0480   19.4020  -32.6760 C   0  0  0  0  0  0  0  0  0  0  0  0
   -8.3420   19.8310  -32.2960 C   0  0  0  0  0  0  0  0  0  0  0  0
   -8.5240   21.0760  -31.6740 C   0  0  0  0  0  0  0  0  0  0  0  0
   -7.3980   21.8680  -31.4570 C   0  0  0  0  0  0  0  0  0  0  0  0
   -7.2880   23.1020  -30.8600 C   0  0  0  0  0  0  0  0  0  0  0  0
   -5.9310   23.4160  -30.9060 C   0  0  0  0  0  0  0  0  0  0  0  0
   -5.3680   24.7080  -30.4530 C   0  0  0  0  0  0  0  0  0  0  0  0
   -5.8150   25.3140  -29.2400 N   0  0  0  0  0  0  0  0  0  0  0  0
   -4.5080   25.3030  -31.1540 O   0  0  0  0  0  0  0  0  0  0  0  0
   -5.2300   22.4130  -31.5070 N   0  0  0  0  0  0  0  0  0  0  0  0
   -3.8080   22.3280  -31.7010 C   0  0  0  0  0  0  0  0  0  0  0  0
   -3.3460   21.6740  -32.6760 O   0  0  0  0  0  0  0  0  0  0  0  0
   -2.9510   22.9920  -30.8140 O   0  0  0  0  0  0  0  0  0  0  0  0
   -2.9610   22.8470  -29.4200 C   0  0  0  0  0  0  0  0  0  0  0  0
   -3.3750   21.7880  -28.8760 O   0  0  0  0  0  0  0  0  0  0  0  0
   -2.5050   23.9910  -28.5620 C   0  0  2  0  0  0  0  0  0  0  0  0
   -3.4950   24.2150  -27.4220 C   0  0  0  0  0  0  0  0  0  0  0  0
   -2.4140   25.1610  -29.3320 O   0  0  0  0  0  0  0  0  0  0  0  0
   -6.1420   21.4730  -31.8390 C   0  0  0  0  0  0  0  0  0  0  0  0
   -5.9300   20.2270  -32.4430 C   0  0  0  0  0  0  0  0  0  0  0  0
   -6.5909   16.0607  -34.3033 H   0  0  0  0  0  0  0  0  0  0  0  0
   -9.2107   19.1846  -32.4894 H   0  0  0  0  0  0  0  0  0  0  0  0
   -9.5242   21.4160  -31.3674 H   0  0  0  0  0  0  0  0  0  0  0  0
   -8.0993   23.7120  -30.4360 H   0  0  0  0  0  0  0  0  0  0  0  0
   -6.4860   24.8270  -28.6040 H   0  0  0  0  0  0  0  0  0  0  0  0
   -5.4400   26.2440  -28.9500 H   0  0  0  0  0  0  0  0  0  0  0  0
   -1.5161   23.7480  -28.1460 H   0  0  0  0  0  0  0  0  0  0  0  0
   -2.9773   24.0979  -26.4585 H   0  0  0  0  0  0  0  0  0  0  0  0
   -3.9123   25.2303  -27.4930 H   0  0  0  0  0  0  0  0  0  0  0  0
   -4.3088   23.4783  -27.4930 H   0  0  0  0  0  0  0  0  0  0  0  0
   -2.5900   24.8980  -30.2740 H   0  0  0  0  0  0  0  0  0  0  0  0
   -4.9185   19.9017  -32.7275 H   0  0  0  0  0  0  0  0  0  0  0  0
  1  2  3  0
  2  3  1  0
  3  4  2  0
  4  5  1  0
  5  6  2  0
  6  7  1  0
  7  8  2  0
  8  9  1  0
  9 10  1  0
  9 11  2  0
  8 12  1  0
 12 13  1  0
 13 14  2  0
 13 15  1  0
 15 16  1  0
 16 17  2  0
 16 18  1  0
 18 19  1  0
 18 20  1  0
 12 21  1  0
 21 22  2  0
 22  3  1  0
 21  6  1  0
  1 23  1  0
  4 24  1  0
  5 25  1  0
  7 26  1  0
 10 27  1  0
 10 28  1  0
 18 29  1  1
 19 30  1  0
 19 31  1  0
 19 32  1  0
 20 33  1  0
 22 34  1  0
M  END
>  <UniqueID>  (19) 
19

>  <SMILES>  (19) 
C#Cc1ccc2cc(C(N)=O)n(C(=O)OC(=O)[C@H](C)O)c2c1

>  <Energy>  (19) 
68.30997617804962

>  <Genealogy>  (19) 
C#Cc1ccc2cc(C(N)=O)n(C(=O)OC(=O)[C@H](C)O)c2c1 (chirality)
C#Cc1ccc2cc(C(N)=O)n(C(=O)OC(=O)[C@H](C)O)c2c1 (3D coordinates assigned)
C#Cc1ccc2cc(C(N)=O)n(C(=O)OC(=O)[C@H](C)O)c2c1 (optimized conformer: 68.30997617804962 kcal/mol)

>  <smiles>  (19) 
C#Cc1ccc2cc(C(N)=O)n(C(=O)OC(=O)C(C)O)c2c1

>  <score_type>  (19) 
oracle

>  <origin>  (19) 
adg

>  <m_score__min__energy>  (19) 
-9.5

>  <m_primary>  (19) 
energy

$$$$
19:0
     RDKit          3D

 38 40  0  0  0  0  0  0  0  0999 V2000
   -2.9510   25.6540  -29.3340 H   0  0  0  0  0  0  0  0  0  0  0  0
   -1.9730   25.6680  -28.9700 N   0  0  0  0  0  0  0  0  0  0  0  0
   -1.1420   24.5130  -29.0570 C   0  0  0  0  0  0  0  0  0  0  0  0
   -0.0310   24.5070  -28.4630 O   0  0  0  0  0  0  0  0  0  0  0  0
   -1.5450   23.3430  -29.8670 C   0  0  0  0  0  0  0  0  0  0  0  0
   -0.7090   22.2560  -30.1170 C   0  0  0  0  0  0  0  0  0  0  0  0
    0.3067   22.0931  -29.7275 H   0  0  0  0  0  0  0  0  0  0  0  0
   -1.4230   21.4300  -30.9540 C   0  0  0  0  0  0  0  0  0  0  0  0
   -1.0730   20.2090  -31.5220 C   0  0  0  0  0  0  0  0  0  0  0  0
   -0.0858   19.7604  -31.3373 H   0  0  0  0  0  0  0  0  0  0  0  0
   -2.0190   19.5660  -32.3390 C   0  0  0  0  0  0  0  0  0  0  0  0
   -1.7614   18.6115  -32.8213 H   0  0  0  0  0  0  0  0  0  0  0  0
   -3.3030   20.1340  -32.5490 C   0  0  0  0  0  0  0  0  0  0  0  0
   -4.2980   19.4590  -33.4570 C   0  0  0  0  0  0  0  0  0  0  0  0
   -5.2650   20.3580  -33.8730 F   0  0  0  0  0  0  0  0  0  0  0  0
   -4.9300   18.4150  -32.8060 F   0  0  0  0  0  0  0  0  0  0  0  0
   -3.6380   18.9640  -34.5670 F   0  0  0  0  0  0  0  0  0  0  0  0
   -3.6120   21.3850  -31.9690 C   0  0  0  0  0  0  0  0  0  0  0  0
   -4.5932   21.8541  -32.1339 H   0  0  0  0  0  0  0  0  0  0  0  0
   -2.6420   22.0140  -31.1800 C   0  0  0  0  0  0  0  0  0  0  0  0
   -2.7310   23.1920  -30.5230 N   0  0  0  0  0  0  0  0  0  0  0  0
   -3.8780   24.0560  -30.4780 C   0  0  0  0  0  0  0  0  0  0  0  0
   -3.7470   25.2820  -30.7390 O   0  0  0  0  0  0  0  0  0  0  0  0
   -5.1920   23.5070  -30.1020 C   0  0  0  0  0  0  0  0  0  0  0  0
   -5.3659   23.2226  -29.0537 H   0  0  0  0  0  0  0  0  0  0  0  0
   -6.1810   23.3410  -30.9850 C   0  0  0  0  0  0  0  0  0  0  0  0
   -5.9949   23.5380  -32.0511 H   0  0  0  0  0  0  0  0  0  0  0  0
   -7.5410   22.8900  -30.5430 C   0  0  0  0  0  0  0  0  0  0  0  0
   -7.5145   22.6541  -29.4689 H   0  0  0  0  0  0  0  0  0  0  0  0
   -8.2659   23.6954  -30.7323 H   0  0  0  0  0  0  0  0  0  0  0  0
   -7.9440   21.7000  -31.2890 N   0  0  0  0  0  0  0  0  0  0  0  0
   -7.1710   20.6460  -31.6190 C   0  0  0  0  0  0  0  0  0  0  0  0
   -6.0908   20.5928  -31.4182 H   0  0  0  0  0  0  0  0  0  0  0  0
   -7.8710   19.6640  -32.2230 N   0  0  0  0  0  0  0  0  0  0  0  0
   -9.1360   20.1300  -32.2610 C   0  0  0  0  0  0  0  0  0  0  0  0
   -9.9957   19.5945  -32.6901 H   0  0  0  0  0  0  0  0  0  0  0  0
   -9.1880   21.3780  -31.6810 C   0  0  0  0  0  0  0  0  0  0  0  0
  -10.0872   21.9999  -31.5603 H   0  0  0  0  0  0  0  0  0  0  0  0
  1  2  1  0
  2  3  1  0
  3  4  2  0
  3  5  1  0
  5  6  2  0
  6  7  1  0
  6  8  1  0
  8  9  2  0
  9 10  1  0
  9 11  1  0
 11 12  1  0
 11 13  2  0
 13 14  1  0
 14 15  1  0
 14 16  1  0
 14 17  1  0
 13 18  1  0
 18 19  1  0
 18 20  2  0
 20 21  1  0
 21 22  1  0
 22 23  2  0
 22 24  1  0
 24 25  1  0
 24 26  2  0
 26 27  1  0
 26 28  1  0
 28 29  1  0
 28 30  1  0
 28 31  1  0
 31 32  1  0
 32 33  1  0
 32 34  2  0
 34 35  1  0
 35 36  1  0
 35 37  2  0
 37 38  1  0
 21  5  1  0
 37 31  1  0
 20  8  1  0
M  CHG  1   2  -1
M  END
>  <UniqueID>  (20) 
20

>  <SMILES>  (20) 
[NH-]C(=O)c1cc2ccc(C(F)(F)F)cc2n1C(=O)/C=C/Cn1ccnc1

>  <Energy>  (20) 
104.78958712482756

>  <Genealogy>  (20) 
[NH-]C(=O)c1cc2ccc(C(F)(F)F)cc2n1C(=O)C=CCn1ccnc1 (protonated)
[NH-]C(=O)c1cc2ccc(C(F)(F)F)cc2n1C(=O)/C=C/Cn1ccnc1 (cis-trans isomerization)
[NH-]C(=O)c1cc2ccc(C(F)(F)F)cc2n1C(=O)/C=C/Cn1ccnc1 (3D coordinates assigned)
[NH-]C(=O)c1cc2ccc(C(F)(F)F)cc2n1C(=O)/C=C/Cn1ccnc1 (optimized conformer: 104.78958712482756 kcal/mol)

>  <smiles>  (20) 
NC(=O)c1cc2ccc(C(F)(F)F)cc2n1C(=O)C=CCn1ccnc1

>  <score_type>  (20) 
oracle

>  <origin>  (20) 
adg

>  <m_score__min__energy>  (20) 
-10.880000000000001

>  <m_primary>  (20) 
energy

$$$$
20:0
     RDKit          3D

 37 38  0  0  0  0  0  0  0  0999 V2000
   -6.3620   17.7200  -33.5120 C   0  0  0  0  0  0  0  0  0  0  0  0
   -6.8510   18.3100  -32.2710 N   0  0  0  0  0  0  0  0  0  0  0  0
   -6.9630   19.7290  -32.0540 C   0  0  0  0  0  0  0  0  0  0  0  0
   -8.1850   20.3740  -32.3680 C   0  0  0  0  0  0  0  0  0  0  0  0
   -8.3380   21.7570  -32.1860 C   0  0  0  0  0  0  0  0  0  0  0  0
   -7.2540   22.4720  -31.6890 C   0  0  0  0  0  0  0  0  0  0  0  0
   -7.1220   23.8200  -31.4520 C   0  0  0  0  0  0  0  0  0  0  0  0
   -5.8220   23.9850  -30.9820 C   0  0  0  0  0  0  0  0  0  0  0  0
   -5.2800   25.2840  -30.5290 C   0  0  0  0  0  0  0  0  0  0  0  0
   -3.9470   25.6750  -30.8460 N   0  0  0  0  0  0  0  0  0  0  0  0
   -5.9890   26.0400  -29.8120 O   0  0  0  0  0  0  0  0  0  0  0  0
   -5.1730   22.7860  -30.9350 N   0  0  0  0  0  0  0  0  0  0  0  0
   -3.7950   22.5520  -30.6050 C   0  0  0  0  0  0  0  0  0  0  0  0
   -2.8860   23.1040  -31.2840 O   0  0  0  0  0  0  0  0  0  0  0  0
   -3.4630   21.7220  -29.5290 O   0  0  0  0  0  0  0  0  0  0  0  0
   -3.2160   22.2400  -28.2240 C   0  0  0  0  0  0  0  0  0  0  0  0
   -1.9820   23.1450  -28.2280 C   0  0  0  0  0  0  0  0  0  0  0  0
   -2.3440   24.6300  -28.1920 C   0  0  0  0  0  0  0  0  0  0  0  0
   -1.8200   25.2860  -29.3110 O   0  0  0  0  0  0  0  0  0  0  0  0
   -6.0660   21.8690  -31.3670 C   0  0  0  0  0  0  0  0  0  0  0  0
   -5.8810   20.4920  -31.5490 C   0  0  0  0  0  0  0  0  0  0  0  0
   -5.6760   16.8923  -33.2791 H   0  0  0  0  0  0  0  0  0  0  0  0
   -7.2121   17.3382  -34.0964 H   0  0  0  0  0  0  0  0  0  0  0  0
   -5.8291   18.4845  -34.0964 H   0  0  0  0  0  0  0  0  0  0  0  0
   -7.0960   17.6590  -31.4900 H   0  0  0  0  0  0  0  0  0  0  0  0
   -9.0254   19.7823  -32.7599 H   0  0  0  0  0  0  0  0  0  0  0  0
   -9.2858   22.2597  -32.4289 H   0  0  0  0  0  0  0  0  0  0  0  0
   -7.8816   24.6014  -31.6018 H   0  0  0  0  0  0  0  0  0  0  0  0
   -3.1310   25.1060  -30.5310 H   0  0  0  0  0  0  0  0  0  0  0  0
   -4.0897   22.8216  -27.8946 H   0  0  0  0  0  0  0  0  0  0  0  0
   -3.0371   21.3997  -27.5371 H   0  0  0  0  0  0  0  0  0  0  0  0
   -1.3694   22.9099  -27.3451 H   0  0  0  0  0  0  0  0  0  0  0  0
   -1.4335   22.9576  -29.1629 H   0  0  0  0  0  0  0  0  0  0  0  0
   -3.4388   24.7364  -28.1890 H   0  0  0  0  0  0  0  0  0  0  0  0
   -1.9185   25.0795  -27.2826 H   0  0  0  0  0  0  0  0  0  0  0  0
   -2.0710   24.7310  -30.0940 H   0  0  0  0  0  0  0  0  0  0  0  0
   -4.9199   20.0153  -31.3059 H   0  0  0  0  0  0  0  0  0  0  0  0
  1  2  1  0
  2  3  1  0
  3  4  2  0
  4  5  1  0
  5  6  2  0
  6  7  1  0
  7  8  2  0
  8  9  1  0
  9 10  1  0
  9 11  2  0
  8 12  1  0
 12 13  1  0
 13 14  2  0
 13 15  1  0
 15 16  1  0
 16 17  1  0
 17 18  1  0
 18 19  1  0
 12 20  1  0
 20 21  2  0
 21  3  1  0
 20  6  1  0
  1 22  1  0
  1 23  1  0
  1 24  1  0
  2 25  1  0
  4 26  1  0
  5 27  1  0
  7 28  1  0
 10 29  1  0
 16 30  1  0
 16 31  1  0
 17 32  1  0
 17 33  1  0
 18 34  1  0
 18 35  1  0
 19 36  1  0
 21 37  1  0
M  CHG  1  10  -1
M  END
>  <UniqueID>  (21) 
21

>  <SMILES>  (21) 
CNc1ccc2cc(C([NH-])=O)n(C(=O)OCCCO)c2c1

>  <Energy>  (21) 
68.49961807219809

>  <Genealogy>  (21) 
CNc1ccc2cc(C([NH-])=O)n(C(=O)OCCCO)c2c1 (protonated)
CNc1ccc2cc(C([NH-])=O)n(C(=O)OCCCO)c2c1 (3D coordinates assigned)
CNc1ccc2cc(C([NH-])=O)n(C(=O)OCCCO)c2c1 (optimized conformer: 68.49961807219809 kcal/mol)

>  <smiles>  (21) 
CNc1ccc2cc(C(N)=O)n(C(=O)OCCCO)c2c1

>  <score_type>  (21) 
oracle

>  <origin>  (21) 
adg

>  <m_score__min__energy>  (21) 
-9.5399999999999991

>  <m_primary>  (21) 
energy

$$$$
21:0
     RDKit          3D

 47 48  0  0  0  0  0  0  0  0999 V2000
   -3.0700   20.8470  -29.9520 C   0  0  0  0  0  0  0  0  0  0  0  0
   -2.6700   22.3230  -29.7940 C   0  0  0  0  0  0  0  0  0  0  0  0
   -3.4800   22.9370  -28.6370 C   0  0  0  0  0  0  0  0  0  0  0  0
   -1.1590   22.4000  -29.5030 C   0  0  0  0  0  0  0  0  0  0  0  0
   -2.9820   22.9790  -31.0320 O   0  0  0  0  0  0  0  0  0  0  0  0
   -4.0440   22.6660  -31.8950 C   0  0  0  0  0  0  0  0  0  0  0  0
   -3.8260   22.2440  -33.0630 O   0  0  0  0  0  0  0  0  0  0  0  0
   -5.3960   22.8490  -31.4470 N   0  0  0  0  0  0  0  0  0  0  0  0
   -5.9440   23.9690  -30.8960 C   0  0  0  0  0  0  0  0  0  0  0  0
   -5.2090   25.1790  -30.4750 C   0  0  0  0  0  0  0  0  0  0  0  0
   -3.8560   25.3910  -30.8720 N   0  0  0  0  0  0  0  0  0  0  0  0
   -5.7640   26.0120  -29.7090 O   0  0  0  0  0  0  0  0  0  0  0  0
   -7.3110   23.7960  -30.6930 C   0  0  0  0  0  0  0  0  0  0  0  0
   -7.5860   22.5210  -31.1320 C   0  0  0  0  0  0  0  0  0  0  0  0
   -8.7920   21.8270  -31.1660 C   0  0  0  0  0  0  0  0  0  0  0  0
   -8.7880   20.5240  -31.6930 C   0  0  0  0  0  0  0  0  0  0  0  0
   -7.5910   19.9510  -32.1920 C   0  0  0  0  0  0  0  0  0  0  0  0
   -7.5950   18.5460  -32.7290 C   0  0  0  0  0  0  0  0  0  0  0  0
   -6.2150   17.9550  -32.6370 C   0  0  0  0  0  0  0  0  0  0  0  0
   -5.8170   17.5240  -31.5230 O   0  0  0  0  0  0  0  0  0  0  0  0
   -5.3030   17.9310  -33.7450 N   0  0  0  0  0  0  0  0  0  0  0  0
   -4.3740   18.9870  -34.1380 C   0  0  0  0  0  0  0  0  0  0  0  0
   -3.0050   18.7780  -33.4850 C   0  0  0  0  0  0  0  0  0  0  0  0
   -2.9750   17.5860  -32.7480 O   0  0  0  0  0  0  0  0  0  0  0  0
   -6.3860   20.6860  -32.1370 C   0  0  0  0  0  0  0  0  0  0  0  0
   -6.4150   21.9720  -31.5840 C   0  0  0  0  0  0  0  0  0  0  0  0
   -3.1933   20.3921  -28.9581 H   0  0  0  0  0  0  0  0  0  0  0  0
   -4.0183   20.7813  -30.5055 H   0  0  0  0  0  0  0  0  0  0  0  0
   -2.2846   20.3115  -30.5055 H   0  0  0  0  0  0  0  0  0  0  0  0
   -3.0519   22.6125  -27.6771 H   0  0  0  0  0  0  0  0  0  0  0  0
   -3.4408   24.0343  -28.7038 H   0  0  0  0  0  0  0  0  0  0  0  0
   -4.5259   22.6028  -28.7038 H   0  0  0  0  0  0  0  0  0  0  0  0
   -0.9950   22.4084  -28.4153 H   0  0  0  0  0  0  0  0  0  0  0  0
   -0.6559   21.5263  -29.9430 H   0  0  0  0  0  0  0  0  0  0  0  0
   -0.7473   23.3203  -29.9430 H   0  0  0  0  0  0  0  0  0  0  0  0
   -3.0650   25.0340  -30.2930 H   0  0  0  0  0  0  0  0  0  0  0  0
   -8.0200   24.5237  -30.2714 H   0  0  0  0  0  0  0  0  0  0  0  0
   -9.7199   22.2843  -30.7919 H   0  0  0  0  0  0  0  0  0  0  0  0
   -9.7220   19.9436  -31.7185 H   0  0  0  0  0  0  0  0  0  0  0  0
   -8.2935   17.9332  -32.1402 H   0  0  0  0  0  0  0  0  0  0  0  0
   -7.9102   18.5636  -33.7827 H   0  0  0  0  0  0  0  0  0  0  0  0
   -4.2573   18.9759  -35.2317 H   0  0  0  0  0  0  0  0  0  0  0  0
   -4.7790   19.9543  -33.8058 H   0  0  0  0  0  0  0  0  0  0  0  0
   -2.2353   18.7349  -34.2697 H   0  0  0  0  0  0  0  0  0  0  0  0
   -2.8122   19.6173  -32.8006 H   0  0  0  0  0  0  0  0  0  0  0  0
   -3.9210   17.3400  -32.5680 H   0  0  0  0  0  0  0  0  0  0  0  0
   -5.4474   20.2584  -32.5194 H   0  0  0  0  0  0  0  0  0  0  0  0
  1  2  1  0
  2  3  1  0
  2  4  1  0
  2  5  1  0
  5  6  1  0
  6  7  2  0
  6  8  1  0
  8  9  1  0
  9 10  1  0
 10 11  1  0
 10 12  2  0
  9 13  2  0
 13 14  1  0
 14 15  2  0
 15 16  1  0
 16 17  2  0
 17 18  1  0
 18 19  1  0
 19 20  2  0
 19 21  1  0
 21 22  1  0
 22 23  1  0
 23 24  1  0
 17 25  1  0
 25 26  2  0
 26  8  1  0
 26 14  1  0
  1 27  1  0
  1 28  1  0
  1 29  1  0
  3 30  1  0
  3 31  1  0
  3 32  1  0
  4 33  1  0
  4 34  1  0
  4 35  1  0
 11 36  1  0
 13 37  1  0
 15 38  1  0
 16 39  1  0
 18 40  1  0
 18 41  1  0
 22 42  1  0
 22 43  1  0
 23 44  1  0
 23 45  1  0
 24 46  1  0
 25 47  1  0
M  CHG  2  11  -1  21  -1
M  END
>  <UniqueID>  (22) 
22

>  <SMILES>  (22) 
CC(C)(C)OC(=O)n1c(C([NH-])=O)cc2ccc(CC(=O)[N-]CCO)cc21

>  <Energy>  (22) 
77.22588877510708

>  <Genealogy>  (22) 
CC(C)(C)OC(=O)n1c(C([NH-])=O)cc2ccc(CC(=O)[N-]CCO)cc21 (protonated)
CC(C)(C)OC(=O)n1c(C([NH-])=O)cc2ccc(CC(=O)[N-]CCO)cc21 (3D coordinates assigned)
CC(C)(C)OC(=O)n1c(C([NH-])=O)cc2ccc(CC(=O)[N-]CCO)cc21 (optimized conformer: 77.22588877510708 kcal/mol)

>  <smiles>  (22) 
CC(C)(C)OC(=O)n1c(C(N)=O)cc2ccc(CC(=O)NCCO)cc21

>  <score_type>  (22) 
oracle

>  <origin>  (22) 
adg

>  <m_score__min__energy>  (22) 
-9.8200000000000003

>  <m_primary>  (22) 
energy

$$$$
22:0
     RDKit          3D

 37 38  0  0  0  0  0  0  0  0999 V2000
   -4.1090   24.1840  -27.4560 C   0  0  0  0  0  0  0  0  0  0  0  0
   -3.0600   24.5180  -28.3550 O   0  0  0  0  0  0  0  0  0  0  0  0
   -2.2940   23.5500  -29.0100 C   0  0  0  0  0  0  0  0  0  0  0  0
   -1.3000   23.8850  -29.7130 O   0  0  0  0  0  0  0  0  0  0  0  0
   -2.6420   22.0990  -28.8480 C   0  0  2  0  0  0  0  0  0  0  0  0
   -1.3700   21.2600  -28.7720 C   0  0  0  0  0  0  0  0  0  0  0  0
   -3.4340   21.6530  -29.9490 O   0  0  0  0  0  0  0  0  0  0  0  0
   -3.8920   22.5020  -30.9630 C   0  0  0  0  0  0  0  0  0  0  0  0
   -3.0860   22.9780  -31.8080 O   0  0  0  0  0  0  0  0  0  0  0  0
   -5.2930   22.8080  -31.0540 N   0  0  0  0  0  0  0  0  0  0  0  0
   -5.8970   24.0240  -30.9180 C   0  0  0  0  0  0  0  0  0  0  0  0
   -5.2380   25.2810  -30.5070 C   0  0  0  0  0  0  0  0  0  0  0  0
   -3.8680   25.5040  -30.8340 N   0  0  0  0  0  0  0  0  0  0  0  0
   -5.8810   26.1780  -29.9000 O   0  0  0  0  0  0  0  0  0  0  0  0
   -7.2670   23.9140  -31.1440 C   0  0  0  0  0  0  0  0  0  0  0  0
   -7.4890   22.5840  -31.4170 C   0  0  0  0  0  0  0  0  0  0  0  0
   -8.6690   21.9190  -31.7330 C   0  0  0  0  0  0  0  0  0  0  0  0
   -8.5980   20.5410  -32.0000 C   0  0  0  0  0  0  0  0  0  0  0  0
   -7.3590   19.8580  -31.9420 C   0  0  0  0  0  0  0  0  0  0  0  0
   -7.2880   18.4000  -32.2820 C   0  0  0  0  0  0  0  0  0  0  0  0
   -6.1790   20.5690  -31.6350 C   0  0  0  0  0  0  0  0  0  0  0  0
   -6.2810   21.9380  -31.3550 C   0  0  0  0  0  0  0  0  0  0  0  0
   -3.7546   24.2969  -26.4208 H   0  0  0  0  0  0  0  0  0  0  0  0
   -4.9646   24.8541  -27.6257 H   0  0  0  0  0  0  0  0  0  0  0  0
   -4.4197   23.1425  -27.6257 H   0  0  0  0  0  0  0  0  0  0  0  0
   -3.2157   21.9817  -27.9168 H   0  0  0  0  0  0  0  0  0  0  0  0
   -1.1074   21.0868  -27.7179 H   0  0  0  0  0  0  0  0  0  0  0  0
   -1.5373   20.2944  -29.2716 H   0  0  0  0  0  0  0  0  0  0  0  0
   -0.5482   21.7939  -29.2716 H   0  0  0  0  0  0  0  0  0  0  0  0
   -3.1310   24.8230  -30.5500 H   0  0  0  0  0  0  0  0  0  0  0  0
   -8.0141   24.7207  -31.1111 H   0  0  0  0  0  0  0  0  0  0  0  0
   -9.6286   22.4553  -31.7727 H   0  0  0  0  0  0  0  0  0  0  0  0
   -9.5136   19.9878  -32.2564 H   0  0  0  0  0  0  0  0  0  0  0  0
   -7.2592   17.8083  -31.3551 H   0  0  0  0  0  0  0  0  0  0  0  0
   -8.1734   18.1171  -32.8702 H   0  0  0  0  0  0  0  0  0  0  0  0
   -6.3793   18.2045  -32.8702 H   0  0  0  0  0  0  0  0  0  0  0  0
   -5.2036   20.0609  -31.6160 H   0  0  0  0  0  0  0  0  0  0  0  0
  1  2  1  0
  2  3  1  0
  3  4  2  0
  3  5  1  0
  5  6  1  0
  5  7  1  0
  7  8  1  0
  8  9  2  0
  8 10  1  0
 10 11  1  0
 11 12  1  0
 12 13  1  0
 12 14  2  0
 11 15  2  0
 15 16  1  0
 16 17  2  0
 17 18  1  0
 18 19  2  0
 19 20  1  0
 19 21  1  0
 21 22  2  0
 22 10  1  0
 22 16  1  0
  1 23  1  0
  1 24  1  0
  1 25  1  0
  5 26  1  1
  6 27  1  0
  6 28  1  0
  6 29  1  0
 13 30  1  0
 15 31  1  0
 17 32  1  0
 18 33  1  0
 20 34  1  0
 20 35  1  0
 20 36  1  0
 21 37  1  0
M  CHG  1  13  -1
M  END
>  <UniqueID>  (23) 
23

>  <SMILES>  (23) 
COC(=O)[C@H](C)OC(=O)n1c(C([NH-])=O)cc2ccc(C)cc21

>  <Energy>  (23) 
67.82118019632553

>  <Genealogy>  (23) 
COC(=O)C(C)OC(=O)n1c(C([NH-])=O)cc2ccc(C)cc21 (protonated)
COC(=O)[C@H](C)OC(=O)n1c(C([NH-])=O)cc2ccc(C)cc21 (chirality)
COC(=O)[C@H](C)OC(=O)n1c(C([NH-])=O)cc2ccc(C)cc21 (3D coordinates assigned)
COC(=O)[C@H](C)OC(=O)n1c(C([NH-])=O)cc2ccc(C)cc21 (optimized conformer: 67.82118019632553 kcal/mol)

>  <smiles>  (23) 
COC(=O)C(C)OC(=O)n1c(C(N)=O)cc2ccc(C)cc21

>  <score_type>  (23) 
oracle

>  <origin>  (23) 
adg

>  <m_score__min__energy>  (23) 
-10.35

>  <m_primary>  (23) 
energy

$$$$
23:0
     RDKit          3D

 38 39  0  0  0  0  0  0  0  0999 V2000
   -2.8180   23.1960  -27.5640 C   0  0  0  0  0  0  0  0  0  0  0  0
   -2.1990   23.6210  -28.8740 C   0  0  0  0  0  0  0  0  0  0  0  0
   -2.5370   23.0350  -30.0450 C   0  0  0  0  0  0  0  0  0  0  0  0
   -3.5420   21.9600  -30.2280 C   0  0  0  0  0  0  0  0  0  0  0  0
   -3.3040   20.7730  -29.8790 O   0  0  0  0  0  0  0  0  0  0  0  0
   -4.8260   22.2820  -30.7860 N   0  0  0  0  0  0  0  0  0  0  0  0
   -5.4860   23.4720  -30.7270 C   0  0  0  0  0  0  0  0  0  0  0  0
   -4.9490   24.7380  -30.1810 C   0  0  0  0  0  0  0  0  0  0  0  0
   -3.8930   25.4320  -30.8390 N   0  0  0  0  0  0  0  0  0  0  0  0
   -5.4540   25.2310  -29.1370 O   0  0  0  0  0  0  0  0  0  0  0  0
   -6.7420   23.3620  -31.3190 C   0  0  0  0  0  0  0  0  0  0  0  0
   -6.8290   22.0570  -31.7490 C   0  0  0  0  0  0  0  0  0  0  0  0
   -7.8660   21.3950  -32.3940 C   0  0  0  0  0  0  0  0  0  0  0  0
   -7.6950   20.0330  -32.6950 C   0  0  0  0  0  0  0  0  0  0  0  0
   -6.4970   19.3460  -32.3420 C   0  0  0  0  0  0  0  0  0  0  0  0
   -6.3320   17.9370  -32.6510 N   0  0  0  0  0  0  0  0  0  0  0  0
   -6.3830   17.4670  -34.0400 C   0  0  0  0  0  0  0  0  0  0  0  0
   -6.1090   16.9620  -31.5770 C   0  0  0  0  0  0  0  0  0  0  0  0
   -5.4690   20.0670  -31.6800 C   0  0  0  0  0  0  0  0  0  0  0  0
   -5.6630   21.4260  -31.4140 C   0  0  0  0  0  0  0  0  0  0  0  0
   -1.1940   24.7170  -28.8660 C   0  0  0  0  0  0  0  0  0  0  0  0
    0.0380   24.4640  -28.7700 O   0  0  0  0  0  0  0  0  0  0  0  0
   -1.5960   26.0440  -28.9680 O   0  0  0  0  0  0  0  0  0  0  0  0
   -2.2266   23.6021  -26.7302 H   0  0  0  0  0  0  0  0  0  0  0  0
   -3.8476   23.5786  -27.5037 H   0  0  0  0  0  0  0  0  0  0  0  0
   -2.8308   22.0977  -27.5037 H   0  0  0  0  0  0  0  0  0  0  0  0
   -2.0171   23.3894  -30.9473 H   0  0  0  0  0  0  0  0  0  0  0  0
   -2.9010   25.3160  -30.5330 H   0  0  0  0  0  0  0  0  0  0  0  0
   -7.5026   24.1501  -31.4212 H   0  0  0  0  0  0  0  0  0  0  0  0
   -8.7940   21.9216  -32.6614 H   0  0  0  0  0  0  0  0  0  0  0  0
   -8.4989   19.4881  -33.2115 H   0  0  0  0  0  0  0  0  0  0  0  0
   -6.5017   16.3735  -34.0529 H   0  0  0  0  0  0  0  0  0  0  0  0
   -7.2357   17.9345  -34.5542 H   0  0  0  0  0  0  0  0  0  0  0  0
   -5.4499   17.7407  -34.5542 H   0  0  0  0  0  0  0  0  0  0  0  0
   -6.2225   17.4583  -30.6019 H   0  0  0  0  0  0  0  0  0  0  0  0
   -6.8442   16.1482  -31.6621 H   0  0  0  0  0  0  0  0  0  0  0  0
   -5.0931   16.5487  -31.6621 H   0  0  0  0  0  0  0  0  0  0  0  0
   -4.5365   19.5657  -31.3816 H   0  0  0  0  0  0  0  0  0  0  0  0
  1  2  1  0
  2  3  2  3
  3  4  1  0
  4  5  2  0
  4  6  1  0
  6  7  1  0
  7  8  1  0
  8  9  1  0
  8 10  2  0
  7 11  2  0
 11 12  1  0
 12 13  2  0
 13 14  1  0
 14 15  2  0
 15 16  1  0
 16 17  1  0
 16 18  1  0
 15 19  1  0
 19 20  2  0
  2 21  1  0
 21 22  2  0
 21 23  1  0
 20  6  1  0
 20 12  1  0
  1 24  1  0
  1 25  1  0
  1 26  1  0
  3 27  1  0
  9 28  1  0
 11 29  1  0
 13 30  1  0
 14 31  1  0
 17 32  1  0
 17 33  1  0
 17 34  1  0
 18 35  1  0
 18 36  1  0
 18 37  1  0
 19 38  1  0
M  CHG  2   9  -1  23  -1
M  END
>  <UniqueID>  (24) 
24

>  <SMILES>  (24) 
CC(=CC(=O)n1c(C([NH-])=O)cc2ccc(N(C)C)cc21)C(=O)[O-]

>  <Energy>  (24) 
82.17132719288152

>  <Genealogy>  (24) 
CC(=CC(=O)n1c(C([NH-])=O)cc2ccc(N(C)C)cc21)C(=O)[O-] (protonated)
CC(=CC(=O)n1c(C([NH-])=O)cc2ccc(N(C)C)cc21)C(=O)[O-] (3D coordinates assigned)
CC(=CC(=O)n1c(C([NH-])=O)cc2ccc(N(C)C)cc21)C(=O)[O-] (optimized conformer: 82.17132719288152 kcal/mol)

>  <smiles>  (24) 
CC(=CC(=O)n1c(C(N)=O)cc2ccc(N(C)C)cc21)C(=O)O

>  <score_type>  (24) 
oracle

>  <origin>  (24) 
adg

>  <m_score__min__energy>  (24) 
-12.390000000000001

>  <m_primary>  (24) 
energy

$$$$
24:0
     RDKit          3D

 41 42  0  0  0  0  0  0  0  0999 V2000
   -3.3490   21.0160  -29.2940 C   0  0  0  0  0  0  0  0  0  0  0  0
   -3.0340   22.1750  -30.1360 N   0  0  0  0  0  0  0  0  0  0  0  0
   -1.9080   23.0550  -29.7790 C   0  0  0  0  0  0  0  0  0  0  0  0
   -2.2930   24.0930  -28.7060 C   0  0  1  0  0  0  0  0  0  0  0  0
   -2.7500   25.2760  -29.3100 O   0  0  0  0  0  0  0  0  0  0  0  0
   -3.3380   23.5560  -27.7150 C   0  0  0  0  0  0  0  0  0  0  0  0
   -4.1970   24.5790  -27.2940 O   0  0  0  0  0  0  0  0  0  0  0  0
   -3.6970   22.3230  -31.4100 C   0  0  0  0  0  0  0  0  0  0  0  0
   -3.0300   22.3020  -32.4810 O   0  0  0  0  0  0  0  0  0  0  0  0
   -5.1240   22.4610  -31.4840 N   0  0  0  0  0  0  0  0  0  0  0  0
   -5.8840   23.4810  -31.0000 C   0  0  0  0  0  0  0  0  0  0  0  0
   -5.3730   24.7290  -30.3950 C   0  0  0  0  0  0  0  0  0  0  0  0
   -5.6830   25.0900  -29.0480 N   0  0  0  0  0  0  0  0  0  0  0  0
   -4.6170   25.4770  -31.0710 O   0  0  0  0  0  0  0  0  0  0  0  0
   -7.2390   23.1770  -31.1180 C   0  0  0  0  0  0  0  0  0  0  0  0
   -7.2830   21.9250  -31.6900 C   0  0  0  0  0  0  0  0  0  0  0  0
   -8.3730   21.1130  -31.9890 C   0  0  0  0  0  0  0  0  0  0  0  0
   -8.1170   19.8320  -32.5080 C   0  0  0  0  0  0  0  0  0  0  0  0
   -6.7860   19.3880  -32.7230 C   0  0  0  0  0  0  0  0  0  0  0  0
   -6.5190   17.9900  -33.2200 C   0  0  0  0  0  0  0  0  0  0  0  0
   -7.6140   17.1930  -32.9460 F   0  0  0  0  0  0  0  0  0  0  0  0
   -6.2920   17.9910  -34.5860 F   0  0  0  0  0  0  0  0  0  0  0  0
   -5.4040   17.4560  -32.5970 F   0  0  0  0  0  0  0  0  0  0  0  0
   -5.7070   20.2340  -32.3770 C   0  0  0  0  0  0  0  0  0  0  0  0
   -5.9930   21.5120  -31.8890 C   0  0  0  0  0  0  0  0  0  0  0  0
   -3.2716   21.3008  -28.2343 H   0  0  0  0  0  0  0  0  0  0  0  0
   -4.3725   20.6746  -29.5081 H   0  0  0  0  0  0  0  0  0  0  0  0
   -2.6391   20.2035  -29.5081 H   0  0  0  0  0  0  0  0  0  0  0  0
   -1.0843   22.4364  -29.3931 H   0  0  0  0  0  0  0  0  0  0  0  0
   -1.6092   23.6029  -30.6848 H   0  0  0  0  0  0  0  0  0  0  0  0
   -1.3835   24.3102  -28.1267 H   0  0  0  0  0  0  0  0  0  0  0  0
   -3.7150   25.3570  -29.0920 H   0  0  0  0  0  0  0  0  0  0  0  0
   -3.9287   22.7683  -28.2056 H   0  0  0  0  0  0  0  0  0  0  0  0
   -2.8147   23.1514  -26.8361 H   0  0  0  0  0  0  0  0  0  0  0  0
   -3.7250   25.4310  -27.4830 H   0  0  0  0  0  0  0  0  0  0  0  0
   -6.1260   24.4130  -28.3890 H   0  0  0  0  0  0  0  0  0  0  0  0
   -5.3700   26.0120  -28.6710 H   0  0  0  0  0  0  0  0  0  0  0  0
   -8.0918   23.8037  -30.8181 H   0  0  0  0  0  0  0  0  0  0  0  0
   -9.4028   21.4628  -31.8243 H   0  0  0  0  0  0  0  0  0  0  0  0
   -8.9580   19.1657  -32.7504 H   0  0  0  0  0  0  0  0  0  0  0  0
   -4.6669   19.8941  -32.4893 H   0  0  0  0  0  0  0  0  0  0  0  0
  1  2  1  0
  2  3  1  0
  3  4  1  0
  4  5  1  0
  4  6  1  0
  6  7  1  0
  2  8  1  0
  8  9  2  0
  8 10  1  0
 10 11  1  0
 11 12  1  0
 12 13  1  0
 12 14  2  0
 11 15  2  0
 15 16  1  0
 16 17  2  0
 17 18  1  0
 18 19  2  0
 19 20  1  0
 20 21  1  0
 20 22  1  0
 20 23  1  0
 19 24  1  0
 24 25  2  0
 25 10  1  0
 25 16  1  0
  1 26  1  0
  1 27  1  0
  1 28  1  0
  3 29  1  0
  3 30  1  0
  4 31  1  1
  5 32  1  0
  6 33  1  0
  6 34  1  0
  7 35  1  0
 13 36  1  0
 13 37  1  0
 15 38  1  0
 17 39  1  0
 18 40  1  0
 24 41  1  0
M  END
>  <UniqueID>  (25) 
25

>  <SMILES>  (25) 
CN(C[C@@H](O)CO)C(=O)n1c(C(N)=O)cc2ccc(C(F)(F)F)cc21

>  <Energy>  (25) 
76.99067942158753

>  <Genealogy>  (25) 
CN(C[C@@H](O)CO)C(=O)n1c(C(N)=O)cc2ccc(C(F)(F)F)cc21 (3D coordinates assigned)
CN(C[C@@H](O)CO)C(=O)n1c(C(N)=O)cc2ccc(C(F)(F)F)cc21 (optimized conformer: 76.99067942158753 kcal/mol)

>  <smiles>  (25) 
CN(C[C@@H](O)CO)C(=O)n1c(C(N)=O)cc2ccc(C(F)(F)F)cc21

>  <score_type>  (25) 
oracle

>  <origin>  (25) 
adg

>  <m_score__min__energy>  (25) 
-8.4000000000000004

>  <m_primary>  (25) 
energy

$$$$
25:0
     RDKit          3D

 35 36  0  0  0  0  0  0  0  0999 V2000
   -8.3140   19.2330  -33.0970 N   0  0  0  0  0  0  0  0  0  0  0  0
   -8.8250   20.4300  -32.5080 C   0  0  0  0  0  0  0  0  0  0  0  0
  -10.0710   20.5740  -32.3860 O   0  0  0  0  0  0  0  0  0  0  0  0
   -7.9210   21.4700  -31.9800 C   0  0  0  0  0  0  0  0  0  0  0  0
   -8.3690   22.6630  -31.4210 C   0  0  0  0  0  0  0  0  0  0  0  0
   -7.2340   23.3170  -31.0020 C   0  0  0  0  0  0  0  0  0  0  0  0
   -7.0940   24.5580  -30.3900 C   0  0  0  0  0  0  0  0  0  0  0  0
   -5.7950   25.0060  -30.1000 C   0  0  0  0  0  0  0  0  0  0  0  0
   -4.6630   24.2220  -30.4310 C   0  0  0  0  0  0  0  0  0  0  0  0
   -3.3490   24.7290  -30.1250 N   0  0  0  0  0  0  0  0  0  0  0  0
   -2.3570   24.0270  -29.3100 C   0  0  0  0  0  0  0  0  0  0  0  0
   -1.1850   24.9130  -29.0280 C   0  0  0  0  0  0  0  0  0  0  0  0
   -1.2280   26.1350  -29.3310 O   0  0  0  0  0  0  0  0  0  0  0  0
   -0.0370   24.3880  -28.4480 O   0  0  0  0  0  0  0  0  0  0  0  0
   -4.8480   22.9660  -31.0610 C   0  0  0  0  0  0  0  0  0  0  0  0
   -6.1540   22.5320  -31.3180 C   0  0  0  0  0  0  0  0  0  0  0  0
   -6.5610   21.3920  -31.9220 N   0  0  0  0  0  0  0  0  0  0  0  0
   -5.7250   20.3740  -32.4980 C   0  0  0  0  0  0  0  0  0  0  0  0
   -4.9330   20.6610  -33.4360 O   0  0  0  0  0  0  0  0  0  0  0  0
   -5.7910   19.0650  -32.0100 O   0  0  0  0  0  0  0  0  0  0  0  0
   -5.2340   17.9560  -32.7040 C   0  0  0  0  0  0  0  0  0  0  0  0
   -6.2560   16.8720  -32.8120 C   0  0  0  0  0  0  0  0  0  0  0  0
   -7.2410   17.0240  -33.5160 O   0  0  0  0  0  0  0  0  0  0  0  0
   -8.9670   18.5290  -33.5070 H   0  0  0  0  0  0  0  0  0  0  0  0
   -7.2950   19.0080  -33.0630 H   0  0  0  0  0  0  0  0  0  0  0  0
   -9.4094   23.0092  -31.3330 H   0  0  0  0  0  0  0  0  0  0  0  0
   -7.9736   25.1697  -30.1408 H   0  0  0  0  0  0  0  0  0  0  0  0
   -5.6547   25.9801  -29.6086 H   0  0  0  0  0  0  0  0  0  0  0  0
   -3.0760   25.6660  -30.5030 H   0  0  0  0  0  0  0  0  0  0  0  0
   -2.8191   23.7251  -28.3585 H   0  0  0  0  0  0  0  0  0  0  0  0
   -2.0076   23.1415  -29.8613 H   0  0  0  0  0  0  0  0  0  0  0  0
   -3.9842   22.3456  -31.3420 H   0  0  0  0  0  0  0  0  0  0  0  0
   -4.9260   18.2713  -33.7118 H   0  0  0  0  0  0  0  0  0  0  0  0
   -4.3585   17.5811  -32.1535 H   0  0  0  0  0  0  0  0  0  0  0  0
   -6.1202   15.9333  -32.2549 H   0  0  0  0  0  0  0  0  0  0  0  0
  1  2  1  0
  2  3  2  0
  2  4  1  0
  4  5  2  0
  5  6  1  0
  6  7  2  0
  7  8  1  0
  8  9  2  0
  9 10  1  0
 10 11  1  0
 11 12  1  0
 12 13  2  0
 12 14  1  0
  9 15  1  0
 15 16  2  0
 16 17  1  0
 17 18  1  0
 18 19  2  0
 18 20  1  0
 20 21  1  0
 21 22  1  0
 22 23  2  0
 17  4  1  0
 16  6  1  0
  1 24  1  0
  1 25  1  0
  5 26  1  0
  7 27  1  0
  8 28  1  0
 10 29  1  0
 11 30  1  0
 11 31  1  0
 15 32  1  0
 21 33  1  0
 21 34  1  0
 22 35  1  0
M  CHG  1  14  -1
M  END
>  <UniqueID>  (26) 
26

>  <SMILES>  (26) 
NC(=O)c1cc2ccc(NCC(=O)[O-])cc2n1C(=O)OCC=O

>  <Energy>  (26) 
69.3625347423649

>  <Genealogy>  (26) 
NC(=O)c1cc2ccc(NCC(=O)[O-])cc2n1C(=O)OCC=O (protonated)
NC(=O)c1cc2ccc(NCC(=O)[O-])cc2n1C(=O)OCC=O (3D coordinates assigned)
NC(=O)c1cc2ccc(NCC(=O)[O-])cc2n1C(=O)OCC=O (optimized conformer: 69.3625347423649 kcal/mol)

>  <smiles>  (26) 
NC(=O)c1cc2ccc(NCC(=O)O)cc2n1C(=O)OCC=O

>  <score_type>  (26) 
oracle

>  <origin>  (26) 
adg

>  <m_score__min__energy>  (26) 
-9.3100000000000005

>  <m_primary>  (26) 
energy

$$$$
26:0
     RDKit          3D

 50 52  0  0  0  0  0  0  0  0999 V2000
   -2.8180   20.1830  -31.5830 C   0  0  0  0  0  0  0  0  0  0  0  0
   -3.0960   20.6590  -33.0210 C   0  0  0  0  0  0  0  0  0  0  0  0
   -1.7570   20.9470  -33.7170 C   0  0  0  0  0  0  0  0  0  0  0  0
   -3.8470   19.5760  -33.8170 C   0  0  0  0  0  0  0  0  0  0  0  0
   -3.8390   21.8870  -33.0100 O   0  0  0  0  0  0  0  0  0  0  0  0
   -4.0490   22.7240  -31.9030 C   0  0  0  0  0  0  0  0  0  0  0  0
   -3.0780   23.1660  -31.2330 O   0  0  0  0  0  0  0  0  0  0  0  0
   -5.3890   23.0990  -31.5470 N   0  0  0  0  0  0  0  0  0  0  0  0
   -5.7860   24.1990  -30.8440 C   0  0  0  0  0  0  0  0  0  0  0  0
   -4.9260   25.3360  -30.4540 C   0  0  0  0  0  0  0  0  0  0  0  0
   -3.5670   25.1320  -30.0820 N   0  0  0  0  0  0  0  0  0  0  0  0
   -5.3860   26.5080  -30.4970 O   0  0  0  0  0  0  0  0  0  0  0  0
   -7.1560   24.1540  -30.6010 C   0  0  0  0  0  0  0  0  0  0  0  0
   -7.5940   22.9870  -31.1850 C   0  0  0  0  0  0  0  0  0  0  0  0
   -8.8720   22.4390  -31.2390 C   0  0  0  0  0  0  0  0  0  0  0  0
   -9.0300   21.2010  -31.8860 C   0  0  0  0  0  0  0  0  0  0  0  0
   -7.9130   20.5300  -32.4480 C   0  0  0  0  0  0  0  0  0  0  0  0
   -8.0910   19.2700  -33.1250 N   0  0  0  0  0  0  0  0  0  0  0  0
   -7.7520   18.1620  -32.2230 C   0  0  0  0  0  0  0  0  0  0  0  0
   -6.5520   17.4110  -32.7380 C   0  0  0  0  0  0  0  0  0  0  0  0
   -5.7450   16.6750  -31.8540 C   0  0  0  0  0  0  0  0  0  0  0  0
   -4.6520   15.9490  -32.3380 C   0  0  0  0  0  0  0  0  0  0  0  0
   -4.3650   15.9420  -33.7060 C   0  0  0  0  0  0  0  0  0  0  0  0
   -5.1730   16.6590  -34.5930 C   0  0  0  0  0  0  0  0  0  0  0  0
   -6.2660   17.3870  -34.1140 C   0  0  0  0  0  0  0  0  0  0  0  0
   -6.6330   21.1260  -32.3810 C   0  0  0  0  0  0  0  0  0  0  0  0
   -6.5080   22.3690  -31.7480 C   0  0  0  0  0  0  0  0  0  0  0  0
   -3.2402   20.9059  -30.8694 H   0  0  0  0  0  0  0  0  0  0  0  0
   -3.2832   19.1986  -31.4262 H   0  0  0  0  0  0  0  0  0  0  0  0
   -1.7321   20.1045  -31.4262 H   0  0  0  0  0  0  0  0  0  0  0  0
   -0.9781   21.1145  -32.9585 H   0  0  0  0  0  0  0  0  0  0  0  0
   -1.4782   20.0883  -34.3454 H   0  0  0  0  0  0  0  0  0  0  0  0
   -1.8559   21.8444  -34.3454 H   0  0  0  0  0  0  0  0  0  0  0  0
   -4.3314   18.8775  -33.1188 H   0  0  0  0  0  0  0  0  0  0  0  0
   -4.6111   20.0502  -34.4504 H   0  0  0  0  0  0  0  0  0  0  0  0
   -3.1350   19.0266  -34.4504 H   0  0  0  0  0  0  0  0  0  0  0  0
   -2.7920   25.2950  -30.7630 H   0  0  0  0  0  0  0  0  0  0  0  0
   -7.7608   24.8946  -30.0572 H   0  0  0  0  0  0  0  0  0  0  0  0
   -9.7314   22.9581  -30.7896 H   0  0  0  0  0  0  0  0  0  0  0  0
  -10.0297   20.7478  -31.9574 H   0  0  0  0  0  0  0  0  0  0  0  0
   -9.0850   19.1780  -33.4420 H   0  0  0  0  0  0  0  0  0  0  0  0
   -7.4770   19.2360  -33.9730 H   0  0  0  0  0  0  0  0  0  0  0  0
   -7.5262   18.5642  -31.2244 H   0  0  0  0  0  0  0  0  0  0  0  0
   -8.6073   17.4724  -32.1694 H   0  0  0  0  0  0  0  0  0  0  0  0
   -5.9736   16.6698  -30.7780 H   0  0  0  0  0  0  0  0  0  0  0  0
   -4.0171   15.3825  -31.6409 H   0  0  0  0  0  0  0  0  0  0  0  0
   -3.5034   15.3723  -34.0844 H   0  0  0  0  0  0  0  0  0  0  0  0
   -4.9484   16.6504  -35.6698 H   0  0  0  0  0  0  0  0  0  0  0  0
   -6.9045   17.9430  -34.8163 H   0  0  0  0  0  0  0  0  0  0  0  0
   -5.7555   20.6251  -32.8159 H   0  0  0  0  0  0  0  0  0  0  0  0
  1  2  1  0
  2  3  1  0
  2  4  1  0
  2  5  1  0
  5  6  1  0
  6  7  2  0
  6  8  1  0
  8  9  1  0
  9 10  1  0
 10 11  1  0
 10 12  2  0
  9 13  2  0
 13 14  1  0
 14 15  2  0
 15 16  1  0
 16 17  2  0
 17 18  1  0
 18 19  1  0
 19 20  1  0
 20 21  2  0
 21 22  1  0
 22 23  2  0
 23 24  1  0
 24 25  2  0
 17 26  1  0
 26 27  2  0
 27  8  1  0
 27 14  1  0
 25 20  1  0
  1 28  1  0
  1 29  1  0
  1 30  1  0
  3 31  1  0
  3 32  1  0
  3 33  1  0
  4 34  1  0
  4 35  1  0
  4 36  1  0
 11 37  1  0
 13 38  1  0
 15 39  1  0
 16 40  1  0
 18 41  1  0
 18 42  1  0
 19 43  1  0
 19 44  1  0
 21 45  1  0
 22 46  1  0
 23 47  1  0
 24 48  1  0
 25 49  1  0
 26 50  1  0
M  CHG  2  11  -1  18   1
M  END
>  <UniqueID>  (27) 
27

>  <SMILES>  (27) 
CC(C)(C)OC(=O)n1c(C([NH-])=O)cc2ccc([NH2+]Cc3ccccc3)cc21

>  <Energy>  (27) 
86.16178789593924

>  <Genealogy>  (27) 
CC(C)(C)OC(=O)n1c(C([NH-])=O)cc2ccc([NH2+]Cc3ccccc3)cc21 (protonated)
CC(C)(C)OC(=O)n1c(C([NH-])=O)cc2ccc([NH2+]Cc3ccccc3)cc21 (3D coordinates assigned)
CC(C)(C)OC(=O)n1c(C([NH-])=O)cc2ccc([NH2+]Cc3ccccc3)cc21 (optimized conformer: 86.16178789593924 kcal/mol)

>  <smiles>  (27) 
CC(C)(C)OC(=O)n1c(C(N)=O)cc2ccc(NCc3ccccc3)cc21

>  <score_type>  (27) 
oracle

>  <origin>  (27) 
adg

>  <m_score__min__energy>  (27) 
-11.32

>  <m_primary>  (27) 
energy

$$$$
27:0
     RDKit          3D

 39 42  0  0  0  0  0  0  0  0999 V2000
   -6.4410   25.8740  -29.0130 N   0  0  0  0  0  0  0  0  0  0  0  0
   -5.8450   25.3420  -30.1970 C   0  0  0  0  0  0  0  0  0  0  0  0
   -4.9850   26.0280  -30.8110 O   0  0  0  0  0  0  0  0  0  0  0  0
   -6.2670   24.0280  -30.7270 C   0  0  0  0  0  0  0  0  0  0  0  0
   -7.5990   23.6680  -30.9170 C   0  0  0  0  0  0  0  0  0  0  0  0
   -7.5590   22.4330  -31.5210 C   0  0  0  0  0  0  0  0  0  0  0  0
   -8.5960   21.6080  -31.9330 C   0  0  0  0  0  0  0  0  0  0  0  0
   -8.2680   20.3740  -32.5180 C   0  0  0  0  0  0  0  0  0  0  0  0
   -6.9090   19.9710  -32.6900 C   0  0  0  0  0  0  0  0  0  0  0  0
   -6.5790   18.6840  -33.2960 N   0  0  0  0  0  0  0  0  0  0  0  0
   -5.7040   18.6410  -34.4940 C   0  0  0  0  0  0  0  0  0  0  0  0
   -5.4250   17.1990  -34.9660 C   0  0  1  0  0  0  0  0  0  0  0  0
   -4.4240   16.4890  -34.0550 C   0  0  0  0  0  0  0  0  0  0  0  0
   -5.3140   15.7890  -33.0560 C   0  0  0  0  0  0  0  0  0  0  0  0
   -6.7180   16.1830  -33.5160 C   0  0  1  0  0  0  0  0  0  0  0  0
   -7.2220   17.4480  -32.7910 C   0  0  0  0  0  0  0  0  0  0  0  0
   -6.6200   16.4700  -34.8850 O   0  0  0  0  0  0  0  0  0  0  0  0
   -5.8860   20.8550  -32.2450 C   0  0  0  0  0  0  0  0  0  0  0  0
   -6.2470   22.0810  -31.6750 C   0  0  0  0  0  0  0  0  0  0  0  0
   -5.4370   23.0480  -31.1870 N   0  0  0  0  0  0  0  0  0  0  0  0
   -4.0020   22.9830  -31.1140 C   0  0  0  0  0  0  0  0  0  0  0  0
   -3.3190   24.0080  -30.8520 O   0  0  0  0  0  0  0  0  0  0  0  0
   -7.1280   25.3170  -28.4570 H   0  0  0  0  0  0  0  0  0  0  0  0
   -6.1680   26.8200  -28.6660 H   0  0  0  0  0  0  0  0  0  0  0  0
   -8.4925   24.2478  -30.6425 H   0  0  0  0  0  0  0  0  0  0  0  0
   -9.6454   21.9120  -31.8050 H   0  0  0  0  0  0  0  0  0  0  0  0
   -9.0747   19.7042  -32.8505 H   0  0  0  0  0  0  0  0  0  0  0  0
   -6.1950   19.1913  -35.3102 H   0  0  0  0  0  0  0  0  0  0  0  0
   -4.7408   19.0978  -34.2228 H   0  0  0  0  0  0  0  0  0  0  0  0
   -5.0222   17.2520  -35.9882 H   0  0  0  0  0  0  0  0  0  0  0  0
   -3.8184   15.7655  -34.6205 H   0  0  0  0  0  0  0  0  0  0  0  0
   -3.7009   17.1735  -33.5875 H   0  0  0  0  0  0  0  0  0  0  0  0
   -5.1751   14.6986  -33.0978 H   0  0  0  0  0  0  0  0  0  0  0  0
   -5.1030   16.0703  -32.0137 H   0  0  0  0  0  0  0  0  0  0  0  0
   -7.4220   15.3666  -33.2972 H   0  0  0  0  0  0  0  0  0  0  0  0
   -8.3090   17.5300  -32.9385 H   0  0  0  0  0  0  0  0  0  0  0  0
   -6.9655   17.3482  -31.7260 H   0  0  0  0  0  0  0  0  0  0  0  0
   -4.8263   20.5783  -32.3477 H   0  0  0  0  0  0  0  0  0  0  0  0
   -3.4935   22.0235  -31.2897 H   0  0  0  0  0  0  0  0  0  0  0  0
  1  2  1  0
  2  3  2  0
  2  4  1  0
  4  5  2  0
  5  6  1  0
  6  7  2  0
  7  8  1  0
  8  9  2  0
  9 10  1  0
 10 11  1  0
 11 12  1  0
 12 13  1  0
 13 14  1  0
 14 15  1  0
 15 16  1  0
 15 17  1  0
  9 18  1  0
 18 19  2  0
 19 20  1  0
 20 21  1  0
 21 22  2  0
 20  4  1  0
 19  6  1  0
 16 10  1  0
 17 12  1  0
  1 23  1  0
  1 24  1  0
  5 25  1  0
  7 26  1  0
  8 27  1  0
 11 28  1  0
 11 29  1  0
 12 30  1  6
 13 31  1  0
 13 32  1  0
 14 33  1  0
 14 34  1  0
 15 35  1  6
 16 36  1  0
 16 37  1  0
 18 38  1  0
 21 39  1  0
M  END
>  <UniqueID>  (28) 
28

>  <SMILES>  (28) 
NC(=O)c1cc2ccc(N3C[C@H]4CC[C@@H](C3)O4)cc2n1C=O

>  <Energy>  (28) 
89.66904821460464

>  <Genealogy>  (28) 
NC(=O)c1cc2ccc(N3C[C@H]4CC[C@@H](C3)O4)cc2n1C=O (chirality)
NC(=O)c1cc2ccc(N3C[C@H]4CC[C@@H](C3)O4)cc2n1C=O (3D coordinates assigned)
NC(=O)c1cc2ccc(N3C[C@H]4CC[C@@H](C3)O4)cc2n1C=O (nonaromatic ring conformer: 89.66904821460464 kcal/mol)

>  <smiles>  (28) 
NC(=O)c1cc2ccc(N3CC4CCC(C3)O4)cc2n1C=O

>  <score_type>  (28) 
oracle

>  <origin>  (28) 
adg

>  <m_score__min__energy>  (28) 
-9.1300000000000008

>  <m_primary>  (28) 
energy

$$$$
28:0
     RDKit          3D

 45 48  0  0  0  0  0  0  0  0999 V2000
   -8.7680   18.5670  -32.3740 C   0  0  0  0  0  0  0  0  0  0  0  0
   -8.4550   19.9670  -31.9420 C   0  0  0  0  0  0  0  0  0  0  0  0
   -9.4710   20.9530  -31.9510 C   0  0  0  0  0  0  0  0  0  0  0  0
   -9.1800   22.2820  -31.5990 C   0  0  0  0  0  0  0  0  0  0  0  0
   -7.8700   22.5940  -31.2510 C   0  0  0  0  0  0  0  0  0  0  0  0
   -7.3110   23.8020  -30.9020 C   0  0  0  0  0  0  0  0  0  0  0  0
   -5.9630   23.5350  -30.6760 C   0  0  0  0  0  0  0  0  0  0  0  0
   -4.9990   24.5380  -30.1760 C   0  0  0  0  0  0  0  0  0  0  0  0
   -4.7840   24.7050  -28.7730 N   0  0  0  0  0  0  0  0  0  0  0  0
   -4.3290   25.2300  -30.9870 O   0  0  0  0  0  0  0  0  0  0  0  0
   -5.6950   22.2140  -30.8810 N   0  0  0  0  0  0  0  0  0  0  0  0
   -4.4140   21.5650  -30.8210 C   0  0  0  0  0  0  0  0  0  0  0  0
   -4.3170   20.3350  -31.0840 O   0  0  0  0  0  0  0  0  0  0  0  0
   -3.2740   22.3060  -30.4900 O   0  0  0  0  0  0  0  0  0  0  0  0
   -2.5390   22.1080  -29.2840 C   0  0  0  0  0  0  0  0  0  0  0  0
   -2.2160   23.3930  -28.6760 N   0  0  0  0  0  0  0  0  0  0  0  0
   -1.8790   23.6190  -27.3940 C   0  0  0  0  0  0  0  0  0  0  0  0
   -1.6710   24.9830  -27.2910 C   0  0  0  0  0  0  0  0  0  0  0  0
   -1.2750   25.7640  -26.1000 C   0  0  0  0  0  0  0  0  0  0  0  0
   -0.9640   25.0950  -24.9030 C   0  0  0  0  0  0  0  0  0  0  0  0
   -0.6010   25.8180  -23.7620 C   0  0  0  0  0  0  0  0  0  0  0  0
   -0.5440   27.2140  -23.8050 C   0  0  0  0  0  0  0  0  0  0  0  0
   -0.8460   27.8880  -24.9900 C   0  0  0  0  0  0  0  0  0  0  0  0
   -1.2090   27.1700  -26.1340 C   0  0  0  0  0  0  0  0  0  0  0  0
   -1.8890   25.4930  -28.4850 O   0  0  0  0  0  0  0  0  0  0  0  0
   -2.2150   24.5480  -29.3200 N   0  0  0  0  0  0  0  0  0  0  0  0
   -6.8740   21.6500  -31.2330 C   0  0  0  0  0  0  0  0  0  0  0  0
   -7.1320   20.3220  -31.5960 C   0  0  0  0  0  0  0  0  0  0  0  0
   -8.9098   17.9325  -31.4867 H   0  0  0  0  0  0  0  0  0  0  0  0
   -9.6885   18.5662  -32.9762 H   0  0  0  0  0  0  0  0  0  0  0  0
   -7.9355   18.1743  -32.9762 H   0  0  0  0  0  0  0  0  0  0  0  0
  -10.4968   20.6764  -32.2359 H   0  0  0  0  0  0  0  0  0  0  0  0
   -9.9649   23.0526  -31.5987 H   0  0  0  0  0  0  0  0  0  0  0  0
   -7.8210   24.7731  -30.8191 H   0  0  0  0  0  0  0  0  0  0  0  0
   -5.3560   24.1840  -28.0720 H   0  0  0  0  0  0  0  0  0  0  0  0
   -4.0670   25.3810  -28.4300 H   0  0  0  0  0  0  0  0  0  0  0  0
   -3.1446   21.5157  -28.5822 H   0  0  0  0  0  0  0  0  0  0  0  0
   -1.6050   21.5750  -29.5156 H   0  0  0  0  0  0  0  0  0  0  0  0
   -1.7874   22.8723  -26.5915 H   0  0  0  0  0  0  0  0  0  0  0  0
   -1.0064   23.9965  -24.8637 H   0  0  0  0  0  0  0  0  0  0  0  0
   -0.3600   25.2871  -22.8292 H   0  0  0  0  0  0  0  0  0  0  0  0
   -0.2614   27.7812  -22.9059 H   0  0  0  0  0  0  0  0  0  0  0  0
   -0.7983   28.9864  -25.0238 H   0  0  0  0  0  0  0  0  0  0  0  0
   -1.4441   27.7065  -27.0651 H   0  0  0  0  0  0  0  0  0  0  0  0
   -6.3251   19.5745  -31.6113 H   0  0  0  0  0  0  0  0  0  0  0  0
  1  2  1  0
  2  3  2  0
  3  4  1  0
  4  5  2  0
  5  6  1  0
  6  7  2  0
  7  8  1  0
  8  9  1  0
  8 10  2  0
  7 11  1  0
 11 12  1  0
 12 13  2  0
 12 14  1  0
 14 15  1  0
 15 16  1  0
 16 17  1  0
 17 18  2  0
 18 19  1  0
 19 20  2  0
 20 21  1  0
 21 22  2  0
 22 23  1  0
 23 24  2  0
 18 25  1  0
 25 26  1  0
 11 27  1  0
 27 28  2  0
 28  2  1  0
 27  5  1  0
 26 16  2  0
 24 19  1  0
  1 29  1  0
  1 30  1  0
  1 31  1  0
  3 32  1  0
  4 33  1  0
  6 34  1  0
  9 35  1  0
  9 36  1  0
 15 37  1  0
 15 38  1  0
 17 39  1  0
 20 40  1  0
 21 41  1  0
 22 42  1  0
 23 43  1  0
 24 44  1  0
 28 45  1  0
M  CHG  1  16   1
M  END
>  <UniqueID>  (29) 
29

>  <SMILES>  (29) 
Cc1ccc2cc(C(N)=O)n(C(=O)OC[n+]3cc(-c4ccccc4)on3)c2c1

>  <Energy>  (29) 
122.18418991493783

>  <Genealogy>  (29) 
Cc1ccc2cc(C(N)=O)n(C(=O)OC[n+]3cc(-c4ccccc4)on3)c2c1 (3D coordinates assigned)
Cc1ccc2cc(C(N)=O)n(C(=O)OC[n+]3cc(-c4ccccc4)on3)c2c1 (optimized conformer: 122.18418991493783 kcal/mol)

>  <smiles>  (29) 
Cc1ccc2cc(C(N)=O)n(C(=O)OC[n+]3cc(-c4ccccc4)on3)c2c1

>  <score_type>  (29) 
oracle

>  <origin>  (29) 
adg

>  <m_score__min__energy>  (29) 
-9.1999999999999993

>  <m_primary>  (29) 
energy

$$$$
30:0
     RDKit          3D

 42 43  0  0  0  0  0  0  0  0999 V2000
   -0.8080   26.7660  -23.9450 C   0  0  0  0  0  0  0  0  0  0  0  0
   -0.5340   25.4680  -25.1960 S   0  0  0  0  0  0  0  0  0  0  0  0
   -1.7720   26.0790  -26.3990 C   0  0  0  0  0  0  0  0  0  0  0  0
   -1.0870   26.6660  -27.6340 C   0  0  0  0  0  0  0  0  0  0  0  0
   -1.4370   25.9460  -28.8150 O   0  0  0  0  0  0  0  0  0  0  0  0
   -1.2680   24.5660  -28.9550 C   0  0  0  0  0  0  0  0  0  0  0  0
   -0.1350   24.0840  -29.2350 O   0  0  0  0  0  0  0  0  0  0  0  0
   -2.3670   23.7260  -28.7610 O   0  0  0  0  0  0  0  0  0  0  0  0
   -2.6880   22.6670  -29.6550 C   0  0  0  0  0  0  0  0  0  0  0  0
   -2.9200   23.2020  -30.9520 O   0  0  0  0  0  0  0  0  0  0  0  0
   -3.9020   22.7140  -31.8160 C   0  0  0  0  0  0  0  0  0  0  0  0
   -3.5770   22.1450  -32.8940 O   0  0  0  0  0  0  0  0  0  0  0  0
   -5.2880   22.8840  -31.4810 N   0  0  0  0  0  0  0  0  0  0  0  0
   -5.8760   23.9340  -30.8390 C   0  0  0  0  0  0  0  0  0  0  0  0
   -5.2120   25.1940  -30.4450 C   0  0  0  0  0  0  0  0  0  0  0  0
   -3.8630   25.4370  -30.8360 N   0  0  0  0  0  0  0  0  0  0  0  0
   -5.8110   26.0460  -29.7360 O   0  0  0  0  0  0  0  0  0  0  0  0
   -7.2390   23.7000  -30.6700 C   0  0  0  0  0  0  0  0  0  0  0  0
   -7.4730   22.4700  -31.2400 C   0  0  0  0  0  0  0  0  0  0  0  0
   -8.6550   21.7420  -31.3460 C   0  0  0  0  0  0  0  0  0  0  0  0
   -8.5980   20.4790  -31.9600 C   0  0  0  0  0  0  0  0  0  0  0  0
   -7.3710   19.9730  -32.4540 C   0  0  0  0  0  0  0  0  0  0  0  0
   -7.3240   18.6000  -33.0560 C   0  0  0  0  0  0  0  0  0  0  0  0
   -6.1910   20.7360  -32.3230 C   0  0  0  0  0  0  0  0  0  0  0  0
   -6.2800   21.9980  -31.7230 C   0  0  0  0  0  0  0  0  0  0  0  0
   -0.7161   26.3308  -22.9389 H   0  0  0  0  0  0  0  0  0  0  0  0
   -0.0578   27.5606  -24.0707 H   0  0  0  0  0  0  0  0  0  0  0  0
   -1.8154   27.1896  -24.0707 H   0  0  0  0  0  0  0  0  0  0  0  0
   -2.4175   25.2435  -26.7078 H   0  0  0  0  0  0  0  0  0  0  0  0
   -2.3696   26.8682  -25.9193 H   0  0  0  0  0  0  0  0  0  0  0  0
   -1.3960   27.7154  -27.7498 H   0  0  0  0  0  0  0  0  0  0  0  0
    0.0016   26.5928  -27.4937 H   0  0  0  0  0  0  0  0  0  0  0  0
   -1.8514   21.9540  -29.6957 H   0  0  0  0  0  0  0  0  0  0  0  0
   -3.5918   22.1482  -29.3029 H   0  0  0  0  0  0  0  0  0  0  0  0
   -3.0730   25.2650  -30.1750 H   0  0  0  0  0  0  0  0  0  0  0  0
   -7.9729   24.3594  -30.1836 H   0  0  0  0  0  0  0  0  0  0  0  0
   -9.6043   22.1429  -30.9611 H   0  0  0  0  0  0  0  0  0  0  0  0
   -9.5143   19.8784  -32.0577 H   0  0  0  0  0  0  0  0  0  0  0  0
   -7.2983   17.8484  -32.2533 H   0  0  0  0  0  0  0  0  0  0  0  0
   -8.2172   18.4416  -33.6781 H   0  0  0  0  0  0  0  0  0  0  0  0
   -6.4220   18.5031  -33.6781 H   0  0  0  0  0  0  0  0  0  0  0  0
   -5.2262   20.3492  -32.6830 H   0  0  0  0  0  0  0  0  0  0  0  0
  1  2  1  0
  2  3  1  0
  3  4  1  0
  4  5  1  0
  5  6  1  0
  6  7  2  0
  6  8  1  0
  8  9  1  0
  9 10  1  0
 10 11  1  0
 11 12  2  0
 11 13  1  0
 13 14  1  0
 14 15  1  0
 15 16  1  0
 15 17  2  0
 14 18  2  0
 18 19  1  0
 19 20  2  0
 20 21  1  0
 21 22  2  0
 22 23  1  0
 22 24  1  0
 24 25  2  0
 25 13  1  0
 25 19  1  0
  1 26  1  0
  1 27  1  0
  1 28  1  0
  3 29  1  0
  3 30  1  0
  4 31  1  0
  4 32  1  0
  9 33  1  0
  9 34  1  0
 16 35  1  0
 18 36  1  0
 20 37  1  0
 21 38  1  0
 23 39  1  0
 23 40  1  0
 23 41  1  0
 24 42  1  0
M  CHG  1  16  -1
M  END
>  <UniqueID>  (30) 
30

>  <SMILES>  (30) 
CSCCOC(=O)OCOC(=O)n1c(C([NH-])=O)cc2ccc(C)cc21

>  <Energy>  (30) 
68.68508932064009

>  <Genealogy>  (30) 
CSCCOC(=O)OCOC(=O)n1c(C([NH-])=O)cc2ccc(C)cc21 (protonated)
CSCCOC(=O)OCOC(=O)n1c(C([NH-])=O)cc2ccc(C)cc21 (3D coordinates assigned)
CSCCOC(=O)OCOC(=O)n1c(C([NH-])=O)cc2ccc(C)cc21 (optimized conformer: 68.68508932064009 kcal/mol)

>  <smiles>  (30) 
CSCCOC(=O)OCOC(=O)n1c(C(N)=O)cc2ccc(C)cc21

>  <score_type>  (30) 
oracle

>  <origin>  (30) 
adg

>  <m_score__min__energy>  (30) 
-10.18

>  <m_primary>  (30) 
energy

$$$$
31:0
     RDKit          3D

 43 44  0  0  0  0  0  0  0  0999 V2000
   -1.5690   25.8240  -27.6590 C   0  0  0  0  0  0  0  0  0  0  0  0
   -1.5630   25.3350  -28.9830 O   0  0  0  0  0  0  0  0  0  0  0  0
   -0.7280   24.1970  -29.0580 C   0  0  0  0  0  0  0  0  0  0  0  0
   -1.5290   22.9270  -28.7050 C   0  0  0  0  0  0  0  0  0  0  0  0
   -2.9530   23.0110  -29.1200 N   0  0  2  0  0  0  0  0  0  0  0  0
   -3.8180   23.0420  -27.9240 C   0  0  0  0  0  0  0  0  0  0  0  0
   -3.3430   21.8770  -30.0040 C   0  0  0  0  0  0  0  0  0  0  0  0
   -4.0110   22.3680  -31.2610 C   0  0  0  0  0  0  0  0  0  0  0  0
   -3.3530   22.4580  -32.3310 O   0  0  0  0  0  0  0  0  0  0  0  0
   -5.4040   22.7170  -31.2470 N   0  0  0  0  0  0  0  0  0  0  0  0
   -5.9580   23.9290  -30.9570 C   0  0  0  0  0  0  0  0  0  0  0  0
   -5.2250   25.1510  -30.5570 C   0  0  0  0  0  0  0  0  0  0  0  0
   -3.8390   25.3090  -30.8440 N   0  0  0  0  0  0  0  0  0  0  0  0
   -5.8310   26.0660  -29.9360 O   0  0  0  0  0  0  0  0  0  0  0  0
   -7.3410   23.8860  -31.1370 C   0  0  0  0  0  0  0  0  0  0  0  0
   -7.6170   22.6030  -31.5510 C   0  0  0  0  0  0  0  0  0  0  0  0
   -8.8330   22.0070  -31.8780 C   0  0  0  0  0  0  0  0  0  0  0  0
   -8.8190   20.6590  -32.2750 C   0  0  0  0  0  0  0  0  0  0  0  0
   -7.6030   19.9320  -32.3210 C   0  0  0  0  0  0  0  0  0  0  0  0
   -7.6120   18.4880  -32.7380 C   0  0  0  0  0  0  0  0  0  0  0  0
   -6.7320   18.3020  -33.7900 F   0  0  0  0  0  0  0  0  0  0  0  0
   -7.2280   17.6920  -31.6750 F   0  0  0  0  0  0  0  0  0  0  0  0
   -6.3900   20.5680  -31.9740 C   0  0  0  0  0  0  0  0  0  0  0  0
   -6.4310   21.9170  -31.6060 C   0  0  0  0  0  0  0  0  0  0  0  0
   -1.5586   24.9783  -26.9557 H   0  0  0  0  0  0  0  0  0  0  0  0
   -0.6784   26.4484  -27.4947 H   0  0  0  0  0  0  0  0  0  0  0  0
   -2.4746   26.4264  -27.4947 H   0  0  0  0  0  0  0  0  0  0  0  0
   -0.3306   24.1042  -30.0795 H   0  0  0  0  0  0  0  0  0  0  0  0
    0.1000   24.3105  -28.3428 H   0  0  0  0  0  0  0  0  0  0  0  0
   -1.0656   22.0672  -29.2109 H   0  0  0  0  0  0  0  0  0  0  0  0
   -1.5088   22.8160  -27.6108 H   0  0  0  0  0  0  0  0  0  0  0  0
   -3.0980   23.9270  -29.6070 H   0  0  0  0  0  0  0  0  0  0  0  0
   -3.1932   23.0196  -27.0189 H   0  0  0  0  0  0  0  0  0  0  0  0
   -4.4205   23.9623  -27.9310 H   0  0  0  0  0  0  0  0  0  0  0  0
   -4.4848   22.1672  -27.9310 H   0  0  0  0  0  0  0  0  0  0  0  0
   -2.4416   21.3082  -30.2759 H   0  0  0  0  0  0  0  0  0  0  0  0
   -4.0550   21.2403  -29.4584 H   0  0  0  0  0  0  0  0  0  0  0  0
   -3.1270   25.2780  -30.0810 H   0  0  0  0  0  0  0  0  0  0  0  0
   -8.0589   24.7047  -30.9809 H   0  0  0  0  0  0  0  0  0  0  0  0
   -9.7744   22.5737  -31.8271 H   0  0  0  0  0  0  0  0  0  0  0  0
   -9.7608   20.1632  -32.5528 H   0  0  0  0  0  0  0  0  0  0  0  0
   -8.6284   18.2111  -33.0545 H   0  0  0  0  0  0  0  0  0  0  0  0
   -5.4383   20.0168  -31.9927 H   0  0  0  0  0  0  0  0  0  0  0  0
  1  2  1  0
  2  3  1  0
  3  4  1  0
  4  5  1  0
  5  6  1  0
  5  7  1  0
  7  8  1  0
  8  9  2  0
  8 10  1  0
 10 11  1  0
 11 12  1  0
 12 13  1  0
 12 14  2  0
 11 15  2  0
 15 16  1  0
 16 17  2  0
 17 18  1  0
 18 19  2  0
 19 20  1  0
 20 21  1  0
 20 22  1  0
 19 23  1  0
 23 24  2  0
 24 10  1  0
 24 16  1  0
  1 25  1  0
  1 26  1  0
  1 27  1  0
  3 28  1  0
  3 29  1  0
  4 30  1  0
  4 31  1  0
  5 32  1  6
  6 33  1  0
  6 34  1  0
  6 35  1  0
  7 36  1  0
  7 37  1  0
 13 38  1  0
 15 39  1  0
 17 40  1  0
 18 41  1  0
 20 42  1  0
 23 43  1  0
M  CHG  2   5   1  13  -1
M  END
>  <UniqueID>  (31) 
31

>  <SMILES>  (31) 
COCC[N@H+](C)CC(=O)n1c(C([NH-])=O)cc2ccc(C(F)F)cc21

>  <Energy>  (31) 
82.92338592145771

>  <Genealogy>  (31) 
COCC[NH+](C)CC(=O)n1c(C([NH-])=O)cc2ccc(C(F)F)cc21 (protonated)
COCC[N@H+](C)CC(=O)n1c(C([NH-])=O)cc2ccc(C(F)F)cc21 (chirality)
COCC[N@H+](C)CC(=O)n1c(C([NH-])=O)cc2ccc(C(F)F)cc21 (3D coordinates assigned)
COCC[N@H+](C)CC(=O)n1c(C([NH-])=O)cc2ccc(C(F)F)cc21 (optimized conformer: 82.92338592145771 kcal/mol)

>  <smiles>  (31) 
COCCN(C)CC(=O)n1c(C(N)=O)cc2ccc(C(F)F)cc21

>  <score_type>  (31) 
oracle

>  <origin>  (31) 
adg

>  <m_score__min__energy>  (31) 
-8.5800000000000001

>  <m_primary>  (31) 
energy

$$$$
32:0
     RDKit          3D

 46 47  0  0  0  0  0  0  0  0999 V2000
   -2.8310   24.9260  -27.4350 C   0  0  0  0  0  0  0  0  0  0  0  0
   -1.9140   25.2410  -28.4750 O   0  0  0  0  0  0  0  0  0  0  0  0
   -0.9780   24.3220  -28.9550 C   0  0  0  0  0  0  0  0  0  0  0  0
    0.2520   24.4740  -28.7210 O   0  0  0  0  0  0  0  0  0  0  0  0
   -1.4450   23.1210  -29.7140 C   0  0  0  0  0  0  0  0  0  0  0  0
   -2.8660   23.1280  -29.8230 O   0  0  0  0  0  0  0  0  0  0  0  0
   -3.5490   22.7070  -30.9710 C   0  0  0  0  0  0  0  0  0  0  0  0
   -2.9150   22.2410  -31.9560 O   0  0  0  0  0  0  0  0  0  0  0  0
   -4.9760   22.8390  -31.0380 N   0  0  0  0  0  0  0  0  0  0  0  0
   -5.7190   23.9730  -30.9010 C   0  0  0  0  0  0  0  0  0  0  0  0
   -5.2050   25.3030  -30.5100 C   0  0  0  0  0  0  0  0  0  0  0  0
   -3.8630   25.6660  -30.8290 N   0  0  0  0  0  0  0  0  0  0  0  0
   -5.9450   26.1360  -29.9250 O   0  0  0  0  0  0  0  0  0  0  0  0
   -7.0690   23.6990  -31.1090 C   0  0  0  0  0  0  0  0  0  0  0  0
   -7.1320   22.3500  -31.3760 C   0  0  0  0  0  0  0  0  0  0  0  0
   -8.2250   21.5460  -31.6780 C   0  0  0  0  0  0  0  0  0  0  0  0
   -7.9910   20.1870  -31.9450 C   0  0  0  0  0  0  0  0  0  0  0  0
   -6.6750   19.6550  -31.9080 C   0  0  0  0  0  0  0  0  0  0  0  0
   -6.4430   18.2560  -32.1960 N   0  0  0  0  0  0  0  0  0  0  0  0
   -6.4890   17.9290  -33.6410 C   0  0  1  0  0  0  0  0  0  0  0  0
   -5.6970   18.9450  -34.4870 C   0  0  0  0  0  0  0  0  0  0  0  0
   -6.0390   16.4760  -33.9200 C   0  0  0  0  0  0  0  0  0  0  0  0
   -5.2770   15.7120  -32.4520 P   0  0  0  0  0  0  0  0  0  0  0  0
   -4.2620   14.6030  -32.6160 O   0  0  0  0  0  0  0  0  0  0  0  0
   -5.7060   16.2440  -30.9060 O   0  0  0  0  0  0  0  0  0  0  0  0
   -5.5880   20.5120  -31.6100 C   0  0  0  0  0  0  0  0  0  0  0  0
   -5.8550   21.8550  -31.3270 C   0  0  0  0  0  0  0  0  0  0  0  0
   -2.3501   25.0912  -26.4596 H   0  0  0  0  0  0  0  0  0  0  0  0
   -3.7180   25.5710  -27.5204 H   0  0  0  0  0  0  0  0  0  0  0  0
   -3.1344   23.8721  -27.5204 H   0  0  0  0  0  0  0  0  0  0  0  0
   -1.0035   23.1338  -30.7214 H   0  0  0  0  0  0  0  0  0  0  0  0
   -1.1312   22.2136  -29.1773 H   0  0  0  0  0  0  0  0  0  0  0  0
   -3.0580   25.2590  -30.3040 H   0  0  0  0  0  0  0  0  0  0  0  0
   -7.9072   24.4101  -31.0685 H   0  0  0  0  0  0  0  0  0  0  0  0
   -9.2430   21.9617  -31.7070 H   0  0  0  0  0  0  0  0  0  0  0  0
   -8.8374   19.5269  -32.1857 H   0  0  0  0  0  0  0  0  0  0  0  0
   -5.5100   17.9720  -31.8110 H   0  0  0  0  0  0  0  0  0  0  0  0
   -7.1520   17.6750  -31.6900 H   0  0  0  0  0  0  0  0  0  0  0  0
   -7.5419   18.0042  -33.9503 H   0  0  0  0  0  0  0  0  0  0  0  0
   -5.1586   19.6357  -33.8214 H   0  0  0  0  0  0  0  0  0  0  0  0
   -4.9752   18.4100  -35.1217 H   0  0  0  0  0  0  0  0  0  0  0  0
   -6.3919   19.5144  -35.1217 H   0  0  0  0  0  0  0  0  0  0  0  0
   -6.9162   15.8819  -34.2161 H   0  0  0  0  0  0  0  0  0  0  0  0
   -5.2880   16.4982  -34.7234 H   0  0  0  0  0  0  0  0  0  0  0  0
   -5.4380   15.5020  -30.3060 H   0  0  0  0  0  0  0  0  0  0  0  0
   -4.5566   20.1298  -31.6013 H   0  0  0  0  0  0  0  0  0  0  0  0
  1  2  1  0
  2  3  1  0
  3  4  2  0
  3  5  1  0
  5  6  1  0
  6  7  1  0
  7  8  2  0
  7  9  1  0
  9 10  1  0
 10 11  1  0
 11 12  1  0
 11 13  2  0
 10 14  2  0
 14 15  1  0
 15 16  2  0
 16 17  1  0
 17 18  2  0
 18 19  1  0
 19 20  1  0
 20 21  1  0
 20 22  1  0
 22 23  1  0
 23 24  2  0
 23 25  1  0
 18 26  1  0
 26 27  2  0
 27  9  1  0
 27 15  1  0
  1 28  1  0
  1 29  1  0
  1 30  1  0
  5 31  1  0
  5 32  1  0
 12 33  1  0
 14 34  1  0
 16 35  1  0
 17 36  1  0
 19 37  1  0
 19 38  1  0
 20 39  1  6
 21 40  1  0
 21 41  1  0
 21 42  1  0
 22 43  1  0
 22 44  1  0
 25 45  1  0
 26 46  1  0
M  CHG  3  12  -1  19   1  23   1
M  END
>  <UniqueID>  (32) 
32

>  <SMILES>  (32) 
COC(=O)COC(=O)n1c(C([NH-])=O)cc2ccc([NH2+][C@@H](C)C[P+](=O)O)cc21

>  <Energy>  (32) 
98.57678094676106

>  <Genealogy>  (32) 
COC(=O)COC(=O)n1c(C([NH-])=O)cc2ccc([NH2+]C(C)C[P+](=O)O)cc21 (protonated)
COC(=O)COC(=O)n1c(C([NH-])=O)cc2ccc([NH2+][C@@H](C)C[P+](=O)O)cc21 (chirality)
COC(=O)COC(=O)n1c(C([NH-])=O)cc2ccc([NH2+][C@@H](C)C[P+](=O)O)cc21 (3D coordinates assigned)
COC(=O)COC(=O)n1c(C([NH-])=O)cc2ccc([NH2+][C@@H](C)C[P+](=O)O)cc21 (optimized conformer: 98.57678094676106 kcal/mol)

>  <smiles>  (32) 
COC(=O)COC(=O)n1c(C(N)=O)cc2ccc(NC(C)C[P+](=O)O)cc21

>  <score_type>  (32) 
oracle

>  <origin>  (32) 
adg

>  <m_score__min__energy>  (32) 
-9.6199999999999992

>  <m_primary>  (32) 
energy

$$$$
34:0
     RDKit          3D

 38 39  0  0  0  0  0  0  0  0999 V2000
   -1.3670   24.7040  -27.1520 C   0  0  0  0  0  0  0  0  0  0  0  0
   -1.3030   25.0530  -28.6010 C   0  0  0  0  0  0  0  0  0  0  0  0
   -1.2340   26.2630  -28.9550 O   0  0  0  0  0  0  0  0  0  0  0  0
   -1.3070   24.0080  -29.5790 N   0  0  0  0  0  0  0  0  0  0  0  0
   -1.3460   22.5870  -29.2480 C   0  0  0  0  0  0  0  0  0  0  0  0
   -1.8560   21.7720  -30.4320 C   0  0  0  0  0  0  0  0  0  0  0  0
   -3.2780   21.8230  -30.4640 O   0  0  0  0  0  0  0  0  0  0  0  0
   -3.9960   22.2410  -31.5900 C   0  0  0  0  0  0  0  0  0  0  0  0
   -3.4390   22.2700  -32.7210 O   0  0  0  0  0  0  0  0  0  0  0  0
   -5.3690   22.6400  -31.4490 N   0  0  0  0  0  0  0  0  0  0  0  0
   -5.8360   23.8140  -30.9380 C   0  0  0  0  0  0  0  0  0  0  0  0
   -5.0160   24.9870  -30.5760 C   0  0  0  0  0  0  0  0  0  0  0  0
   -3.6570   24.8400  -30.1630 N   0  0  0  0  0  0  0  0  0  0  0  0
   -5.5070   26.1430  -30.6850 O   0  0  0  0  0  0  0  0  0  0  0  0
   -7.2240   23.7850  -30.8280 C   0  0  0  0  0  0  0  0  0  0  0  0
   -7.6020   22.5520  -31.3050 C   0  0  0  0  0  0  0  0  0  0  0  0
   -8.8670   21.9820  -31.4020 C   0  0  0  0  0  0  0  0  0  0  0  0
   -8.9610   20.6680  -31.8890 C   0  0  0  0  0  0  0  0  0  0  0  0
   -7.7980   19.9550  -32.2700 C   0  0  0  0  0  0  0  0  0  0  0  0
   -7.9090   18.5320  -32.7310 C   0  0  0  0  0  0  0  0  0  0  0  0
   -6.5280   20.5580  -32.1400 C   0  0  0  0  0  0  0  0  0  0  0  0
   -6.4640   21.8780  -31.6730 C   0  0  0  0  0  0  0  0  0  0  0  0
   -1.2010   25.6090  -26.5492 H   0  0  0  0  0  0  0  0  0  0  0  0
   -2.3570   24.2848  -26.9192 H   0  0  0  0  0  0  0  0  0  0  0  0
   -0.5902   23.9608  -26.9192 H   0  0  0  0  0  0  0  0  0  0  0  0
   -0.3323   22.2491  -28.9867 H   0  0  0  0  0  0  0  0  0  0  0  0
   -2.0280   22.4404  -28.3975 H   0  0  0  0  0  0  0  0  0  0  0  0
   -1.4527   22.1901  -31.3661 H   0  0  0  0  0  0  0  0  0  0  0  0
   -1.5282   20.7272  -30.3271 H   0  0  0  0  0  0  0  0  0  0  0  0
   -3.1750   23.9170  -30.2170 H   0  0  0  0  0  0  0  0  0  0  0  0
   -3.1150   25.6720  -29.8380 H   0  0  0  0  0  0  0  0  0  0  0  0
   -7.8789   24.5798  -30.4415 H   0  0  0  0  0  0  0  0  0  0  0  0
   -9.7659   22.5429  -31.1065 H   0  0  0  0  0  0  0  0  0  0  0  0
   -9.9470   20.1881  -31.9753 H   0  0  0  0  0  0  0  0  0  0  0  0
   -7.9609   17.8664  -31.8568 H   0  0  0  0  0  0  0  0  0  0  0  0
   -8.8192   18.4129  -33.3371 H   0  0  0  0  0  0  0  0  0  0  0  0
   -7.0283   18.2732  -33.3371 H   0  0  0  0  0  0  0  0  0  0  0  0
   -5.6123   20.0061  -32.3986 H   0  0  0  0  0  0  0  0  0  0  0  0
  1  2  1  0
  2  3  2  0
  2  4  1  0
  4  5  1  0
  5  6  1  0
  6  7  1  0
  7  8  1  0
  8  9  2  0
  8 10  1  0
 10 11  1  0
 11 12  1  0
 12 13  1  0
 12 14  2  0
 11 15  2  0
 15 16  1  0
 16 17  2  0
 17 18  1  0
 18 19  2  0
 19 20  1  0
 19 21  1  0
 21 22  2  0
 22 10  1  0
 22 16  1  0
  1 23  1  0
  1 24  1  0
  1 25  1  0
  5 26  1  0
  5 27  1  0
  6 28  1  0
  6 29  1  0
 13 30  1  0
 13 31  1  0
 15 32  1  0
 17 33  1  0
 18 34  1  0
 20 35  1  0
 20 36  1  0
 20 37  1  0
 21 38  1  0
M  CHG  1   4  -1
M  END
>  <UniqueID>  (33) 
33

>  <SMILES>  (33) 
CC(=O)[N-]CCOC(=O)n1c(C(N)=O)cc2ccc(C)cc21

>  <Energy>  (33) 
68.64577984916455

>  <Genealogy>  (33) 
CC(=O)[N-]CCOC(=O)n1c(C(N)=O)cc2ccc(C)cc21 (protonated)
CC(=O)[N-]CCOC(=O)n1c(C(N)=O)cc2ccc(C)cc21 (3D coordinates assigned)
CC(=O)[N-]CCOC(=O)n1c(C(N)=O)cc2ccc(C)cc21 (optimized conformer: 68.64577984916455 kcal/mol)

>  <smiles>  (33) 
CC(=O)NCCOC(=O)n1c(C(N)=O)cc2ccc(C)cc21

>  <score_type>  (33) 
oracle

>  <origin>  (33) 
adg

>  <m_score__min__energy>  (33) 
-9.7100000000000009

>  <m_primary>  (33) 
energy

$$$$
35:0
     RDKit          3D

 54 55  0  0  0  0  0  0  0  0999 V2000
   -4.2160   19.0510  -33.4010 C   0  0  0  0  0  0  0  0  0  0  0  0
   -5.4670   18.3590  -33.7460 N   0  0  0  0  0  0  0  0  0  0  0  0
   -5.4070   17.9010  -35.1480 C   0  0  0  0  0  0  0  0  0  0  0  0
   -5.6900   17.2240  -32.8220 C   0  0  0  0  0  0  0  0  0  0  0  0
   -6.5500   17.6300  -31.6150 C   0  0  0  0  0  0  0  0  0  0  0  0
   -8.0010   17.9420  -32.0250 C   0  0  0  0  0  0  0  0  0  0  0  0
   -8.0780   18.9780  -33.0690 N   0  0  0  0  0  0  0  0  0  0  0  0
   -7.9910   20.3110  -32.5170 C   0  0  0  0  0  0  0  0  0  0  0  0
   -9.1610   21.0990  -32.3530 C   0  0  0  0  0  0  0  0  0  0  0  0
   -9.0840   22.3980  -31.8220 C   0  0  0  0  0  0  0  0  0  0  0  0
   -7.8270   22.8910  -31.4830 C   0  0  0  0  0  0  0  0  0  0  0  0
   -7.4600   24.1100  -30.9570 C   0  0  0  0  0  0  0  0  0  0  0  0
   -6.0710   24.0660  -30.8510 C   0  0  0  0  0  0  0  0  0  0  0  0
   -5.2510   25.2190  -30.4200 C   0  0  0  0  0  0  0  0  0  0  0  0
   -3.8620   25.2910  -30.7310 N   0  0  0  0  0  0  0  0  0  0  0  0
   -5.7950   26.1760  -29.8080 O   0  0  0  0  0  0  0  0  0  0  0  0
   -5.6000   22.8620  -31.2810 N   0  0  0  0  0  0  0  0  0  0  0  0
   -4.2410   22.4020  -31.3370 C   0  0  0  0  0  0  0  0  0  0  0  0
   -3.5300   22.6680  -32.3440 O   0  0  0  0  0  0  0  0  0  0  0  0
   -3.7180   21.6930  -30.2460 O   0  0  0  0  0  0  0  0  0  0  0  0
   -3.0210   22.2450  -29.1200 C   0  0  0  0  0  0  0  0  0  0  0  0
   -2.4180   21.1230  -28.2540 C   0  0  0  0  0  0  0  0  0  0  0  0
   -1.9260   23.2210  -29.5900 C   0  0  0  0  0  0  0  0  0  0  0  0
   -4.0540   23.0190  -28.2870 C   0  0  0  0  0  0  0  0  0  0  0  0
   -6.6850   22.1550  -31.6600 C   0  0  0  0  0  0  0  0  0  0  0  0
   -6.7360   20.8450  -32.1460 C   0  0  0  0  0  0  0  0  0  0  0  0
   -4.1170   19.1058  -32.3068 H   0  0  0  0  0  0  0  0  0  0  0  0
   -3.3629   18.4965  -33.8191 H   0  0  0  0  0  0  0  0  0  0  0  0
   -4.2324   20.0683  -33.8191 H   0  0  0  0  0  0  0  0  0  0  0  0
   -5.2641   16.8106  -35.1717 H   0  0  0  0  0  0  0  0  0  0  0  0
   -6.3466   18.1589  -35.6585 H   0  0  0  0  0  0  0  0  0  0  0  0
   -4.5655   18.3922  -35.6585 H   0  0  0  0  0  0  0  0  0  0  0  0
   -6.2004   16.4163  -33.3671 H   0  0  0  0  0  0  0  0  0  0  0  0
   -4.7108   16.8913  -32.4472 H   0  0  0  0  0  0  0  0  0  0  0  0
   -6.5552   16.8046  -30.8879 H   0  0  0  0  0  0  0  0  0  0  0  0
   -6.1155   18.5406  -31.1768 H   0  0  0  0  0  0  0  0  0  0  0  0
   -8.4664   17.0210  -32.4060 H   0  0  0  0  0  0  0  0  0  0  0  0
   -8.5270   18.3210  -31.1363 H   0  0  0  0  0  0  0  0  0  0  0  0
   -7.3260   18.8150  -33.7770 H   0  0  0  0  0  0  0  0  0  0  0  0
   -8.9970   18.8860  -33.5610 H   0  0  0  0  0  0  0  0  0  0  0  0
  -10.1387   20.6880  -32.6449 H   0  0  0  0  0  0  0  0  0  0  0  0
   -9.9891   23.0064  -31.6787 H   0  0  0  0  0  0  0  0  0  0  0  0
   -8.1232   24.9425  -30.6792 H   0  0  0  0  0  0  0  0  0  0  0  0
   -3.3780   24.5040  -31.2180 H   0  0  0  0  0  0  0  0  0  0  0  0
   -2.5505   21.3695  -27.1902 H   0  0  0  0  0  0  0  0  0  0  0  0
   -2.9276   20.1739  -28.4767 H   0  0  0  0  0  0  0  0  0  0  0  0
   -1.3453   21.0243  -28.4767 H   0  0  0  0  0  0  0  0  0  0  0  0
   -1.4291   23.6639  -28.7143 H   0  0  0  0  0  0  0  0  0  0  0  0
   -1.1858   22.6776  -30.1957 H   0  0  0  0  0  0  0  0  0  0  0  0
   -2.3811   24.0185  -30.1957 H   0  0  0  0  0  0  0  0  0  0  0  0
   -3.8505   22.8665  -27.2168 H   0  0  0  0  0  0  0  0  0  0  0  0
   -3.9870   24.0911  -28.5239 H   0  0  0  0  0  0  0  0  0  0  0  0
   -5.0641   22.6536  -28.5239 H   0  0  0  0  0  0  0  0  0  0  0  0
   -5.8197   20.2433  -32.2376 H   0  0  0  0  0  0  0  0  0  0  0  0
  1  2  1  0
  2  3  1  0
  2  4  1  0
  4  5  1  0
  5  6  1  0
  6  7  1  0
  7  8  1  0
  8  9  2  0
  9 10  1  0
 10 11  2  0
 11 12  1  0
 12 13  2  0
 13 14  1  0
 14 15  1  0
 14 16  2  0
 13 17  1  0
 17 18  1  0
 18 19  2  0
 18 20  1  0
 20 21  1  0
 21 22  1  0
 21 23  1  0
 21 24  1  0
 17 25  1  0
 25 26  2  0
 26  8  1  0
 25 11  1  0
  1 27  1  0
  1 28  1  0
  1 29  1  0
  3 30  1  0
  3 31  1  0
  3 32  1  0
  4 33  1  0
  4 34  1  0
  5 35  1  0
  5 36  1  0
  6 37  1  0
  6 38  1  0
  7 39  1  0
  7 40  1  0
  9 41  1  0
 10 42  1  0
 12 43  1  0
 15 44  1  0
 22 45  1  0
 22 46  1  0
 22 47  1  0
 23 48  1  0
 23 49  1  0
 23 50  1  0
 24 51  1  0
 24 52  1  0
 24 53  1  0
 26 54  1  0
M  CHG  2   7   1  15  -1
M  END
>  <UniqueID>  (34) 
34

>  <SMILES>  (34) 
CN(C)CCC[NH2+]c1ccc2cc(C([NH-])=O)n(C(=O)OC(C)(C)C)c2c1

>  <Energy>  (34) 
84.88101163480034

>  <Genealogy>  (34) 
CN(C)CCC[NH2+]c1ccc2cc(C([NH-])=O)n(C(=O)OC(C)(C)C)c2c1 (protonated)
CN(C)CCC[NH2+]c1ccc2cc(C([NH-])=O)n(C(=O)OC(C)(C)C)c2c1 (3D coordinates assigned)
CN(C)CCC[NH2+]c1ccc2cc(C([NH-])=O)n(C(=O)OC(C)(C)C)c2c1 (optimized conformer: 84.88101163480034 kcal/mol)

>  <smiles>  (34) 
CN(C)CCCNc1ccc2cc(C(N)=O)n(C(=O)OC(C)(C)C)c2c1

>  <score_type>  (34) 
oracle

>  <origin>  (34) 
adg

>  <m_score__min__energy>  (34) 
-10.529999999999999

>  <m_primary>  (34) 
energy

$$$$
36:0
     RDKit          3D

 39 41  0  0  0  0  0  0  0  0999 V2000
   -1.3900   25.7990  -28.9150 N   0  0  0  0  0  0  0  0  0  0  0  0
   -0.8480   24.4880  -29.0560 C   0  0  0  0  0  0  0  0  0  0  0  0
    0.2870   24.2360  -28.5710 O   0  0  0  0  0  0  0  0  0  0  0  0
   -1.5700   23.4420  -29.8090 C   0  0  0  0  0  0  0  0  0  0  0  0
   -0.9820   22.2460  -30.2130 C   0  0  0  0  0  0  0  0  0  0  0  0
   -1.9470   21.5930  -30.9440 C   0  0  0  0  0  0  0  0  0  0  0  0
   -1.9110   20.3490  -31.5620 C   0  0  0  0  0  0  0  0  0  0  0  0
   -3.0770   19.9000  -32.2030 C   0  0  0  0  0  0  0  0  0  0  0  0
   -4.2590   20.6820  -32.2040 C   0  0  0  0  0  0  0  0  0  0  0  0
   -5.4380   20.1460  -32.8450 N   0  0  0  0  0  0  0  0  0  0  0  0
   -6.7210   19.7900  -32.2140 C   0  0  1  0  0  0  0  0  0  0  0  0
   -7.7590   20.9370  -32.3000 C   0  0  0  0  0  0  0  0  0  0  0  0
   -7.3610   22.1510  -31.5840 N   0  0  0  0  0  0  0  0  0  0  0  0
   -7.1460   23.3730  -32.1070 C   0  0  0  0  0  0  0  0  0  0  0  0
   -6.8520   24.2380  -31.0730 C   0  0  0  0  0  0  0  0  0  0  0  0
   -6.9010   23.5530  -29.9140 N   0  0  0  0  0  0  0  0  0  0  0  0
   -7.2250   22.2910  -30.2500 C   0  0  0  0  0  0  0  0  0  0  0  0
   -7.2240   18.4380  -32.6500 C   0  0  0  0  0  0  0  0  0  0  0  0
   -8.1320   17.8530  -32.0030 O   0  0  0  0  0  0  0  0  0  0  0  0
   -6.6010   17.7700  -33.6970 O   0  0  0  0  0  0  0  0  0  0  0  0
   -4.2420   21.9570  -31.5860 C   0  0  0  0  0  0  0  0  0  0  0  0
   -3.0650   22.3840  -30.9630 C   0  0  0  0  0  0  0  0  0  0  0  0
   -2.8520   23.5230  -30.2670 N   0  0  0  0  0  0  0  0  0  0  0  0
   -3.8260   24.5410  -29.9850 C   0  0  0  0  0  0  0  0  0  0  0  0
   -4.6300   24.4040  -29.0250 O   0  0  0  0  0  0  0  0  0  0  0  0
   -3.9100   25.6740  -30.7840 O   0  0  0  0  0  0  0  0  0  0  0  0
   -2.4170   25.9660  -28.9990 H   0  0  0  0  0  0  0  0  0  0  0  0
    0.0380   21.8974  -29.9939 H   0  0  0  0  0  0  0  0  0  0  0  0
   -0.9981   19.7354  -31.5495 H   0  0  0  0  0  0  0  0  0  0  0  0
   -3.0729   18.9252  -32.7127 H   0  0  0  0  0  0  0  0  0  0  0  0
   -5.3470   19.8920  -33.8550 H   0  0  0  0  0  0  0  0  0  0  0  0
   -6.5356   19.6718  -31.1362 H   0  0  0  0  0  0  0  0  0  0  0  0
   -7.9064   21.1923  -33.3598 H   0  0  0  0  0  0  0  0  0  0  0  0
   -8.6799   20.5714  -31.8223 H   0  0  0  0  0  0  0  0  0  0  0  0
   -7.1961   23.6361  -33.1739 H   0  0  0  0  0  0  0  0  0  0  0  0
   -6.6170   25.3075  -31.1775 H   0  0  0  0  0  0  0  0  0  0  0  0
   -6.7300   23.9260  -28.9550 H   0  0  0  0  0  0  0  0  0  0  0  0
   -7.3620   21.4745  -29.5258 H   0  0  0  0  0  0  0  0  0  0  0  0
   -5.1361   22.5977  -31.5961 H   0  0  0  0  0  0  0  0  0  0  0  0
  1  2  1  0
  2  3  2  0
  2  4  1  0
  4  5  2  0
  5  6  1  0
  6  7  2  0
  7  8  1  0
  8  9  2  0
  9 10  1  0
 10 11  1  0
 11 12  1  0
 12 13  1  0
 13 14  1  0
 14 15  2  0
 15 16  1  0
 16 17  2  0
 11 18  1  0
 18 19  2  0
 18 20  1  0
  9 21  1  0
 21 22  2  0
 22 23  1  0
 23 24  1  0
 24 25  2  0
 24 26  1  0
 23  4  1  0
 22  6  1  0
 17 13  1  0
  1 27  1  0
  5 28  1  0
  7 29  1  0
  8 30  1  0
 10 31  1  0
 11 32  1  1
 12 33  1  0
 12 34  1  0
 14 35  1  0
 15 36  1  0
 16 37  1  0
 17 38  1  0
 21 39  1  0
M  CHG  4   1  -1  16   1  20  -1  26  -1
M  END
>  <UniqueID>  (35) 
35

>  <SMILES>  (35) 
[NH-]C(=O)c1cc2ccc(N[C@@H](Cn3cc[nH+]c3)C(=O)[O-])cc2n1C(=O)[O-]

>  <Energy>  (35) 
113.3586011690586

>  <Genealogy>  (35) 
[NH-]C(=O)c1cc2ccc(NC(Cn3cc[nH+]c3)C(=O)[O-])cc2n1C(=O)[O-] (protonated)
[NH-]C(=O)c1cc2ccc(N[C@@H](Cn3cc[nH+]c3)C(=O)[O-])cc2n1C(=O)[O-] (chirality)
[NH-]C(=O)c1cc2ccc(N[C@@H](Cn3cc[nH+]c3)C(=O)[O-])cc2n1C(=O)[O-] (3D coordinates assigned)
[NH-]C(=O)c1cc2ccc(N[C@@H](Cn3cc[nH+]c3)C(=O)[O-])cc2n1C(=O)[O-] (optimized conformer: 113.3586011690586 kcal/mol)

>  <smiles>  (35) 
NC(=O)c1cc2ccc(NC(Cn3ccnc3)C(=O)O)cc2n1C(=O)O

>  <score_type>  (35) 
oracle

>  <origin>  (35) 
adg

>  <m_score__min__energy>  (35) 
-10.83

>  <m_primary>  (35) 
energy

$$$$
37:0
     RDKit          3D

 44 46  0  0  0  0  0  0  0  0999 V2000
   -3.8840   25.6410  -30.8390 N   0  0  0  0  0  0  0  0  0  0  0  0
   -5.2360   25.3410  -30.5000 C   0  0  0  0  0  0  0  0  0  0  0  0
   -5.9020   26.1720  -29.8270 O   0  0  0  0  0  0  0  0  0  0  0  0
   -5.8220   24.0440  -30.8970 C   0  0  0  0  0  0  0  0  0  0  0  0
   -7.1860   23.8550  -31.1050 C   0  0  0  0  0  0  0  0  0  0  0  0
   -7.3100   22.5670  -31.5710 C   0  0  0  0  0  0  0  0  0  0  0  0
   -8.4480   21.8560  -31.9390 C   0  0  0  0  0  0  0  0  0  0  0  0
   -8.2850   20.5310  -32.3750 C   0  0  0  0  0  0  0  0  0  0  0  0
   -6.9950   19.9440  -32.4450 C   0  0  0  0  0  0  0  0  0  0  0  0
   -6.8350   18.5050  -32.8630 C   0  0  0  0  0  0  0  0  0  0  0  0
   -6.4750   18.4220  -34.1970 F   0  0  0  0  0  0  0  0  0  0  0  0
   -5.8500   17.9150  -32.0930 F   0  0  0  0  0  0  0  0  0  0  0  0
   -8.0200   17.8090  -32.6900 F   0  0  0  0  0  0  0  0  0  0  0  0
   -5.8670   20.6910  -32.0360 C   0  0  0  0  0  0  0  0  0  0  0  0
   -6.0570   22.0170  -31.6250 C   0  0  0  0  0  0  0  0  0  0  0  0
   -5.1300   22.9090  -31.2060 N   0  0  0  0  0  0  0  0  0  0  0  0
   -3.7140   22.6790  -31.1010 C   0  0  0  0  0  0  0  0  0  0  0  0
   -3.0630   22.2620  -32.0970 O   0  0  0  0  0  0  0  0  0  0  0  0
   -3.0630   22.9360  -29.8930 O   0  0  0  0  0  0  0  0  0  0  0  0
   -3.5080   22.4230  -28.6450 C   0  0  0  0  0  0  0  0  0  0  0  0
   -3.5030   23.5350  -27.5860 C   0  0  0  0  0  0  0  0  0  0  0  0
   -2.1520   23.9710  -27.1650 N   0  0  0  0  0  0  0  0  0  0  0  0
   -1.0270   23.4350  -27.9610 C   0  0  0  0  0  0  0  0  0  0  0  0
   -0.4980   24.4300  -29.0170 C   0  0  0  0  0  0  0  0  0  0  0  0
   -1.2540   25.6220  -29.0640 O   0  0  0  0  0  0  0  0  0  0  0  0
   -1.2410   26.2270  -27.7920 C   0  0  0  0  0  0  0  0  0  0  0  0
   -2.0400   25.3940  -26.7770 C   0  0  0  0  0  0  0  0  0  0  0  0
   -3.0910   25.2290  -30.2970 H   0  0  0  0  0  0  0  0  0  0  0  0
   -7.9934   24.5820  -30.9330 H   0  0  0  0  0  0  0  0  0  0  0  0
   -9.4452   22.3178  -31.8899 H   0  0  0  0  0  0  0  0  0  0  0  0
   -9.1672   19.9416  -32.6655 H   0  0  0  0  0  0  0  0  0  0  0  0
   -4.8630   20.2417  -32.0402 H   0  0  0  0  0  0  0  0  0  0  0  0
   -4.5297   22.0309  -28.7562 H   0  0  0  0  0  0  0  0  0  0  0  0
   -2.8310   21.6174  -28.3246 H   0  0  0  0  0  0  0  0  0  0  0  0
   -4.0328   24.4061  -27.9990 H   0  0  0  0  0  0  0  0  0  0  0  0
   -3.9924   23.1204  -26.6923 H   0  0  0  0  0  0  0  0  0  0  0  0
   -0.2040   23.1820  -27.2763 H   0  0  0  0  0  0  0  0  0  0  0  0
   -1.4013   22.5535  -28.5022 H   0  0  0  0  0  0  0  0  0  0  0  0
    0.5443   24.6828  -28.7725 H   0  0  0  0  0  0  0  0  0  0  0  0
   -0.5766   23.9455  -30.0014 H   0  0  0  0  0  0  0  0  0  0  0  0
   -0.2005   26.3143  -27.4459 H   0  0  0  0  0  0  0  0  0  0  0  0
   -1.7054   27.2209  -27.8722 H   0  0  0  0  0  0  0  0  0  0  0  0
   -1.5374   25.4535  -25.8003 H   0  0  0  0  0  0  0  0  0  0  0  0
   -3.0585   25.8077  -26.7377 H   0  0  0  0  0  0  0  0  0  0  0  0
  1  2  1  0
  2  3  2  0
  2  4  1  0
  4  5  2  0
  5  6  1  0
  6  7  2  0
  7  8  1  0
  8  9  2  0
  9 10  1  0
 10 11  1  0
 10 12  1  0
 10 13  1  0
  9 14  1  0
 14 15  2  0
 15 16  1  0
 16 17  1  0
 17 18  2  0
 17 19  1  0
 19 20  1  0
 20 21  1  0
 21 22  1  0
 22 23  1  0
 23 24  1  0
 24 25  1  0
 25 26  1  0
 26 27  1  0
 16  4  1  0
 27 22  1  0
 15  6  1  0
  1 28  1  0
  5 29  1  0
  7 30  1  0
  8 31  1  0
 14 32  1  0
 20 33  1  0
 20 34  1  0
 21 35  1  0
 21 36  1  0
 23 37  1  0
 23 38  1  0
 24 39  1  0
 24 40  1  0
 26 41  1  0
 26 42  1  0
 27 43  1  0
 27 44  1  0
M  CHG  1   1  -1
M  END
>  <UniqueID>  (36) 
36

>  <SMILES>  (36) 
[NH-]C(=O)c1cc2ccc(C(F)(F)F)cc2n1C(=O)OCCN1CCOCC1

>  <Energy>  (36) 
95.89703109274309

>  <Genealogy>  (36) 
[NH-]C(=O)c1cc2ccc(C(F)(F)F)cc2n1C(=O)OCCN1CCOCC1 (protonated)
[NH-]C(=O)c1cc2ccc(C(F)(F)F)cc2n1C(=O)OCCN1CCOCC1 (3D coordinates assigned)
[NH-]C(=O)c1cc2ccc(C(F)(F)F)cc2n1C(=O)OCCN1CCOCC1 (nonaromatic ring conformer: 95.89703109274309 kcal/mol)

>  <smiles>  (36) 
NC(=O)c1cc2ccc(C(F)(F)F)cc2n1C(=O)OCCN1CCOCC1

>  <score_type>  (36) 
oracle

>  <origin>  (36) 
adg

>  <m_score__min__energy>  (36) 
-10.41

>  <m_primary>  (36) 
energy

$$$$
38:0
     RDKit          3D

 32 33  0  0  0  0  0  0  0  0999 V2000
   -3.8660   25.5590  -30.8380 N   0  0  0  0  0  0  0  0  0  0  0  0
   -5.2460   25.2760  -30.6270 C   0  0  0  0  0  0  0  0  0  0  0  0
   -5.9660   26.1220  -30.0340 O   0  0  0  0  0  0  0  0  0  0  0  0
   -5.8240   23.9810  -31.0370 C   0  0  0  0  0  0  0  0  0  0  0  0
   -7.1650   23.8150  -31.3770 C   0  0  0  0  0  0  0  0  0  0  0  0
   -7.3210   22.4680  -31.6030 C   0  0  0  0  0  0  0  0  0  0  0  0
   -8.4510   21.7480  -31.9780 C   0  0  0  0  0  0  0  0  0  0  0  0
   -8.3170   20.3630  -32.1690 C   0  0  0  0  0  0  0  0  0  0  0  0
   -7.0610   19.7310  -32.0020 C   0  0  0  0  0  0  0  0  0  0  0  0
   -6.9350   18.2470  -32.1880 C   0  0  0  0  0  0  0  0  0  0  0  0
   -6.1040   17.8710  -33.8960 Br  0  0  0  0  0  0  0  0  0  0  0  0
   -5.9370   20.4910  -31.6100 C   0  0  0  0  0  0  0  0  0  0  0  0
   -6.1040   21.8660  -31.4060 C   0  0  0  0  0  0  0  0  0  0  0  0
   -5.1720   22.7830  -31.0600 N   0  0  0  0  0  0  0  0  0  0  0  0
   -3.7670   22.5440  -30.8750 C   0  0  0  0  0  0  0  0  0  0  0  0
   -2.9660   22.7390  -31.8290 O   0  0  0  0  0  0  0  0  0  0  0  0
   -3.2900   22.1380  -29.6220 O   0  0  0  0  0  0  0  0  0  0  0  0
   -3.6260   22.8000  -28.4020 C   0  0  0  0  0  0  0  0  0  0  0  0
   -2.9300   24.1590  -28.3000 C   0  0  0  0  0  0  0  0  0  0  0  0
   -1.9900   24.3100  -29.3300 O   0  0  0  0  0  0  0  0  0  0  0  0
   -3.1860   24.7940  -31.0430 H   0  0  0  0  0  0  0  0  0  0  0  0
   -7.9358   24.5965  -31.4493 H   0  0  0  0  0  0  0  0  0  0  0  0
   -9.4201   22.2484  -32.1206 H   0  0  0  0  0  0  0  0  0  0  0  0
   -9.1955   19.7640  -32.4508 H   0  0  0  0  0  0  0  0  0  0  0  0
   -6.3163   17.8286  -31.3804 H   0  0  0  0  0  0  0  0  0  0  0  0
   -7.9355   17.7905  -32.1615 H   0  0  0  0  0  0  0  0  0  0  0  0
   -4.9555   20.0148  -31.4686 H   0  0  0  0  0  0  0  0  0  0  0  0
   -4.7149   22.9508  -28.3637 H   0  0  0  0  0  0  0  0  0  0  0  0
   -3.2915   22.1734  -27.5621 H   0  0  0  0  0  0  0  0  0  0  0  0
   -3.6826   24.9575  -28.3773 H   0  0  0  0  0  0  0  0  0  0  0  0
   -2.4096   24.2195  -27.3328 H   0  0  0  0  0  0  0  0  0  0  0  0
   -2.4510   24.0670  -30.1740 H   0  0  0  0  0  0  0  0  0  0  0  0
  1  2  1  0
  2  3  2  0
  2  4  1  0
  4  5  2  0
  5  6  1  0
  6  7  2  0
  7  8  1  0
  8  9  2  0
  9 10  1  0
 10 11  1  0
  9 12  1  0
 12 13  2  0
 13 14  1  0
 14 15  1  0
 15 16  2  0
 15 17  1  0
 17 18  1  0
 18 19  1  0
 19 20  1  0
 14  4  1  0
 13  6  1  0
  1 21  1  0
  5 22  1  0
  7 23  1  0
  8 24  1  0
 10 25  1  0
 10 26  1  0
 12 27  1  0
 18 28  1  0
 18 29  1  0
 19 30  1  0
 19 31  1  0
 20 32  1  0
M  CHG  1   1  -1
M  END
>  <UniqueID>  (37) 
37

>  <SMILES>  (37) 
[NH-]C(=O)c1cc2ccc(CBr)cc2n1C(=O)OCCO

>  <Energy>  (37) 
66.88596558152766

>  <Genealogy>  (37) 
[NH-]C(=O)c1cc2ccc(CBr)cc2n1C(=O)OCCO (protonated)
[NH-]C(=O)c1cc2ccc(CBr)cc2n1C(=O)OCCO (3D coordinates assigned)
[NH-]C(=O)c1cc2ccc(CBr)cc2n1C(=O)OCCO (optimized conformer: 66.88596558152766 kcal/mol)

>  <smiles>  (37) 
NC(=O)c1cc2ccc(CBr)cc2n1C(=O)OCCO

>  <score_type>  (37) 
oracle

>  <origin>  (37) 
adg

>  <m_score__min__energy>  (37) 
-10.44

>  <m_primary>  (37) 
energy

$$$$
39:0
     RDKit          3D

 36 37  0  0  0  0  0  0  0  0999 V2000
   -8.1210   18.4110  -32.5580 C   0  0  0  0  0  0  0  0  0  0  0  0
   -7.9850   19.8530  -32.1680 C   0  0  0  0  0  0  0  0  0  0  0  0
   -9.1430   20.6450  -31.9670 C   0  0  0  0  0  0  0  0  0  0  0  0
   -9.0310   21.9960  -31.5940 C   0  0  0  0  0  0  0  0  0  0  0  0
   -7.7540   22.5170  -31.4090 C   0  0  0  0  0  0  0  0  0  0  0  0
   -7.3520   23.7990  -31.1060 C   0  0  0  0  0  0  0  0  0  0  0  0
   -5.9590   23.7540  -31.0900 C   0  0  0  0  0  0  0  0  0  0  0  0
   -5.1040   24.9270  -30.8110 C   0  0  0  0  0  0  0  0  0  0  0  0
   -3.6790   24.8280  -30.8140 N   0  0  0  0  0  0  0  0  0  0  0  0
   -5.6420   26.0310  -30.5300 O   0  0  0  0  0  0  0  0  0  0  0  0
   -5.5200   22.4970  -31.3720 N   0  0  0  0  0  0  0  0  0  0  0  0
   -4.1740   22.0710  -31.6300 C   0  0  0  0  0  0  0  0  0  0  0  0
   -3.5180   22.6060  -32.5630 O   0  0  0  0  0  0  0  0  0  0  0  0
   -3.5060   21.0900  -30.7160 C   0  0  0  0  0  0  0  0  0  0  0  0
   -2.0710   21.4720  -30.5460 C   0  0  0  0  0  0  0  0  0  0  0  0
   -1.1620   20.6270  -30.7640 O   0  0  0  0  0  0  0  0  0  0  0  0
   -1.7390   22.8160  -30.1820 N   0  0  0  0  0  0  0  0  0  0  0  0
   -1.4680   23.2210  -28.8110 C   0  0  0  0  0  0  0  0  0  0  0  0
   -0.8880   24.5960  -28.8120 C   0  0  0  0  0  0  0  0  0  0  0  0
    0.2440   24.8050  -28.3000 O   0  0  0  0  0  0  0  0  0  0  0  0
   -1.6150   25.6580  -29.3350 O   0  0  0  0  0  0  0  0  0  0  0  0
   -6.6270   21.7530  -31.5670 C   0  0  0  0  0  0  0  0  0  0  0  0
   -6.7060   20.4120  -31.9540 C   0  0  0  0  0  0  0  0  0  0  0  0
   -8.1796   17.7901  -31.6519 H   0  0  0  0  0  0  0  0  0  0  0  0
   -9.0358   18.2771  -33.1540 H   0  0  0  0  0  0  0  0  0  0  0  0
   -7.2474   18.1084  -33.1540 H   0  0  0  0  0  0  0  0  0  0  0  0
  -10.1389   20.1985  -32.1041 H   0  0  0  0  0  0  0  0  0  0  0  0
   -9.9248   22.6215  -31.4529 H   0  0  0  0  0  0  0  0  0  0  0  0
   -7.9936   24.6723  -30.9169 H   0  0  0  0  0  0  0  0  0  0  0  0
   -3.2000   23.9010  -30.8490 H   0  0  0  0  0  0  0  0  0  0  0  0
   -3.0950   25.6830  -30.6820 H   0  0  0  0  0  0  0  0  0  0  0  0
   -4.0074   21.0996  -29.7369 H   0  0  0  0  0  0  0  0  0  0  0  0
   -3.5701   20.0805  -31.1483 H   0  0  0  0  0  0  0  0  0  0  0  0
   -2.4046   23.2170  -28.2341 H   0  0  0  0  0  0  0  0  0  0  0  0
   -0.7559   22.5195  -28.3519 H   0  0  0  0  0  0  0  0  0  0  0  0
   -5.7962   19.8084  -32.0882 H   0  0  0  0  0  0  0  0  0  0  0  0
  1  2  1  0
  2  3  2  0
  3  4  1  0
  4  5  2  0
  5  6  1  0
  6  7  2  0
  7  8  1  0
  8  9  1  0
  8 10  2  0
  7 11  1  0
 11 12  1  0
 12 13  2  0
 12 14  1  0
 14 15  1  0
 15 16  2  0
 15 17  1  0
 17 18  1  0
 18 19  1  0
 19 20  2  0
 19 21  1  0
 11 22  1  0
 22 23  2  0
 23  2  1  0
 22  5  1  0
  1 24  1  0
  1 25  1  0
  1 26  1  0
  3 27  1  0
  4 28  1  0
  6 29  1  0
  9 30  1  0
  9 31  1  0
 14 32  1  0
 14 33  1  0
 18 34  1  0
 18 35  1  0
 23 36  1  0
M  CHG  2  17  -1  21  -1
M  END
>  <UniqueID>  (38) 
38

>  <SMILES>  (38) 
Cc1ccc2cc(C(N)=O)n(C(=O)CC(=O)[N-]CC(=O)[O-])c2c1

>  <Energy>  (38) 
68.21202993289988

>  <Genealogy>  (38) 
Cc1ccc2cc(C(N)=O)n(C(=O)CC(=O)[N-]CC(=O)[O-])c2c1 (protonated)
Cc1ccc2cc(C(N)=O)n(C(=O)CC(=O)[N-]CC(=O)[O-])c2c1 (3D coordinates assigned)
Cc1ccc2cc(C(N)=O)n(C(=O)CC(=O)[N-]CC(=O)[O-])c2c1 (optimized conformer: 68.21202993289988 kcal/mol)

>  <smiles>  (38) 
Cc1ccc2cc(C(N)=O)n(C(=O)CC(=O)NCC(=O)O)c2c1

>  <score_type>  (38) 
oracle

>  <origin>  (38) 
adg

>  <m_score__min__energy>  (38) 
-11.960000000000001

>  <m_primary>  (38) 
energy

$$$$
40:0
     RDKit          3D

 35 36  0  0  0  0  0  0  0  0999 V2000
   -6.4780   17.4740  -32.1390 C   0  0  0  0  0  0  0  0  0  0  0  0
   -6.9870   18.5740  -32.9520 N   0  0  0  0  0  0  0  0  0  0  0  0
   -7.0930   19.9290  -32.4790 C   0  0  0  0  0  0  0  0  0  0  0  0
   -8.3730   20.5290  -32.3840 C   0  0  0  0  0  0  0  0  0  0  0  0
   -8.5190   21.8530  -31.9400 C   0  0  0  0  0  0  0  0  0  0  0  0
   -7.3690   22.5530  -31.5900 C   0  0  0  0  0  0  0  0  0  0  0  0
   -7.2210   23.8530  -31.1610 C   0  0  0  0  0  0  0  0  0  0  0  0
   -5.8500   24.0260  -30.9770 C   0  0  0  0  0  0  0  0  0  0  0  0
   -5.2490   25.2680  -30.4480 C   0  0  0  0  0  0  0  0  0  0  0  0
   -3.9280   25.6380  -30.8340 N   0  0  0  0  0  0  0  0  0  0  0  0
   -5.9030   26.0250  -29.6820 O   0  0  0  0  0  0  0  0  0  0  0  0
   -5.1790   22.8800  -31.2830 N   0  0  0  0  0  0  0  0  0  0  0  0
   -3.7590   22.6720  -31.3000 C   0  0  0  0  0  0  0  0  0  0  0  0
   -3.2170   22.1170  -32.2940 O   0  0  0  0  0  0  0  0  0  0  0  0
   -2.9800   23.1170  -30.2260 O   0  0  0  0  0  0  0  0  0  0  0  0
   -1.5610   22.9820  -30.1880 C   0  0  0  0  0  0  0  0  0  0  0  0
   -1.0670   23.2300  -28.8890 O   0  0  0  0  0  0  0  0  0  0  0  0
   -1.7100   24.7040  -28.3160 P   0  0  1  0  0  0  0  0  0  0  0  0
   -1.2090   24.9890  -26.9170 O   0  0  0  0  0  0  0  0  0  0  0  0
   -1.2720   25.9740  -29.3420 O   0  0  0  0  0  0  0  0  0  0  0  0
   -3.3970   24.5870  -28.2830 O   0  0  0  0  0  0  0  0  0  0  0  0
   -6.1230   21.9880  -31.6560 C   0  0  0  0  0  0  0  0  0  0  0  0
   -5.9460   20.6770  -32.1130 C   0  0  0  0  0  0  0  0  0  0  0  0
   -6.5927   17.7220  -31.0735 H   0  0  0  0  0  0  0  0  0  0  0  0
   -7.0439   16.5583  -32.3654 H   0  0  0  0  0  0  0  0  0  0  0  0
   -5.4137   17.3127  -32.3654 H   0  0  0  0  0  0  0  0  0  0  0  0
   -7.2880   18.3560  -33.9290 H   0  0  0  0  0  0  0  0  0  0  0  0
   -9.2654   19.9491  -32.6621 H   0  0  0  0  0  0  0  0  0  0  0  0
   -9.5116   22.3220  -31.8711 H   0  0  0  0  0  0  0  0  0  0  0  0
   -8.0152   24.5965  -30.9982 H   0  0  0  0  0  0  0  0  0  0  0  0
   -3.0960   25.2700  -30.3230 H   0  0  0  0  0  0  0  0  0  0  0  0
   -1.2881   21.9595  -30.4882 H   0  0  0  0  0  0  0  0  0  0  0  0
   -1.1191   23.7154  -30.8785 H   0  0  0  0  0  0  0  0  0  0  0  0
   -3.6910   24.9290  -29.1650 H   0  0  0  0  0  0  0  0  0  0  0  0
   -4.9403   20.2374  -32.1864 H   0  0  0  0  0  0  0  0  0  0  0  0
  1  2  1  0
  2  3  1  0
  3  4  2  0
  4  5  1  0
  5  6  2  0
  6  7  1  0
  7  8  2  0
  8  9  1  0
  9 10  1  0
  9 11  2  0
  8 12  1  0
 12 13  1  0
 13 14  2  0
 13 15  1  0
 15 16  1  0
 16 17  1  0
 17 18  1  0
 18 19  2  0
 18 20  1  6
 18 21  1  0
 12 22  1  0
 22 23  2  0
 23  3  1  0
 22  6  1  0
  1 24  1  0
  1 25  1  0
  1 26  1  0
  2 27  1  0
  4 28  1  0
  5 29  1  0
  7 30  1  0
 10 31  1  0
 16 32  1  0
 16 33  1  0
 21 34  1  0
 23 35  1  0
M  CHG  2  10  -1  20  -1
M  END
>  <UniqueID>  (39) 
39

>  <SMILES>  (39) 
CNc1ccc2cc(C([NH-])=O)n(C(=O)OCO[P@@](=O)([O-])O)c2c1

>  <Energy>  (39) 
69.50325905405215

>  <Genealogy>  (39) 
CNc1ccc2cc(C([NH-])=O)n(C(=O)OCOP(=O)([O-])O)c2c1 (protonated)
CNc1ccc2cc(C([NH-])=O)n(C(=O)OCO[P@@](=O)([O-])O)c2c1 (chirality)
CNc1ccc2cc(C([NH-])=O)n(C(=O)OCO[P@@](=O)([O-])O)c2c1 (3D coordinates assigned)
CNc1ccc2cc(C([NH-])=O)n(C(=O)OCO[P@@](=O)([O-])O)c2c1 (optimized conformer: 69.50325905405215 kcal/mol)

>  <smiles>  (39) 
CNc1ccc2cc(C(N)=O)n(C(=O)OCOP(=O)(O)O)c2c1

>  <score_type>  (39) 
oracle

>  <origin>  (39) 
adg

>  <m_score__min__energy>  (39) 
-11.859999999999999

>  <m_primary>  (39) 
energy

$$$$
41:0
     RDKit          3D

 47 49  0  0  0  0  0  0  0  0999 V2000
   -1.1680   19.8510  -33.6400 C   0  0  0  0  0  0  0  0  0  0  0  0
   -2.1490   18.7170  -33.6620 C   0  0  0  0  0  0  0  0  0  0  0  0
   -3.4010   18.8770  -34.2760 C   0  0  0  0  0  0  0  0  0  0  0  0
   -4.3310   17.8340  -34.2620 C   0  0  0  0  0  0  0  0  0  0  0  0
   -4.0240   16.6240  -33.6280 C   0  0  0  0  0  0  0  0  0  0  0  0
   -5.2080   15.3220  -33.5830 S   0  0  0  0  0  0  0  0  0  0  0  0
   -4.9520   14.4430  -32.3920 O   0  0  0  0  0  0  0  0  0  0  0  0
   -5.0990   14.4920  -34.8310 O   0  0  0  0  0  0  0  0  0  0  0  0
   -6.7680   15.9950  -33.4750 O   0  0  0  0  0  0  0  0  0  0  0  0
   -6.9360   17.2990  -33.1050 C   0  0  0  0  0  0  0  0  0  0  0  0
   -7.0860   18.4500  -32.7840 C   0  0  0  0  0  0  0  0  0  0  0  0
   -7.2590   19.8220  -32.3870 C   0  0  0  0  0  0  0  0  0  0  0  0
   -8.5520   20.3900  -32.3570 C   0  0  0  0  0  0  0  0  0  0  0  0
   -8.7340   21.7260  -31.9610 C   0  0  0  0  0  0  0  0  0  0  0  0
   -7.6070   22.4570  -31.5920 C   0  0  0  0  0  0  0  0  0  0  0  0
   -7.4990   23.7660  -31.1840 C   0  0  0  0  0  0  0  0  0  0  0  0
   -6.1420   23.9660  -30.9450 C   0  0  0  0  0  0  0  0  0  0  0  0
   -5.5950   25.2220  -30.3970 C   0  0  0  0  0  0  0  0  0  0  0  0
   -4.2290   25.5850  -30.6040 N   0  0  0  0  0  0  0  0  0  0  0  0
   -6.3270   25.9560  -29.6820 O   0  0  0  0  0  0  0  0  0  0  0  0
   -5.4320   22.8330  -31.2140 N   0  0  0  0  0  0  0  0  0  0  0  0
   -4.0000   22.6860  -31.2140 C   0  0  0  0  0  0  0  0  0  0  0  0
   -3.4050   22.2700  -32.2440 O   0  0  0  0  0  0  0  0  0  0  0  0
   -3.2710   23.0020  -30.0630 O   0  0  0  0  0  0  0  0  0  0  0  0
   -1.8490   23.0420  -30.0330 C   0  0  0  0  0  0  0  0  0  0  0  0
   -1.4090   24.3120  -29.3790 C   0  0  0  0  0  0  0  0  0  0  0  0
   -2.1820   25.3060  -29.3430 O   0  0  0  0  0  0  0  0  0  0  0  0
   -0.1340   24.4110  -28.8360 O   0  0  0  0  0  0  0  0  0  0  0  0
   -6.3460   21.9130  -31.6030 C   0  0  0  0  0  0  0  0  0  0  0  0
   -6.1370   20.5900  -32.0160 C   0  0  0  0  0  0  0  0  0  0  0  0
   -2.7850   16.4700  -32.9920 C   0  0  0  0  0  0  0  0  0  0  0  0
   -1.8530   17.5130  -33.0060 C   0  0  0  0  0  0  0  0  0  0  0  0
   -0.9381   20.1168  -32.5976 H   0  0  0  0  0  0  0  0  0  0  0  0
   -0.2439   19.5464  -34.1531 H   0  0  0  0  0  0  0  0  0  0  0  0
   -1.6024   20.7216  -34.1531 H   0  0  0  0  0  0  0  0  0  0  0  0
   -3.6512   19.8273  -34.7703 H   0  0  0  0  0  0  0  0  0  0  0  0
   -5.3078   17.9641  -34.7509 H   0  0  0  0  0  0  0  0  0  0  0  0
   -9.4224   19.7824  -32.6456 H   0  0  0  0  0  0  0  0  0  0  0  0
   -9.7355   22.1806  -31.9430 H   0  0  0  0  0  0  0  0  0  0  0  0
   -8.3115   24.4988  -31.0707 H   0  0  0  0  0  0  0  0  0  0  0  0
   -3.5620   24.9340  -31.0760 H   0  0  0  0  0  0  0  0  0  0  0  0
   -3.8670   26.4950  -30.2400 H   0  0  0  0  0  0  0  0  0  0  0  0
   -1.4683   22.1825  -29.4618 H   0  0  0  0  0  0  0  0  0  0  0  0
   -1.4554   22.9980  -31.0592 H   0  0  0  0  0  0  0  0  0  0  0  0
   -5.1241   20.1624  -32.0497 H   0  0  0  0  0  0  0  0  0  0  0  0
   -2.5446   15.5264  -32.4803 H   0  0  0  0  0  0  0  0  0  0  0  0
   -0.8840   17.3885  -32.5005 H   0  0  0  0  0  0  0  0  0  0  0  0
  1  2  1  0
  2  3  2  0
  3  4  1  0
  4  5  2  0
  5  6  1  0
  6  7  2  0
  6  8  2  0
  6  9  1  0
  9 10  1  0
 10 11  3  0
 11 12  1  0
 12 13  2  0
 13 14  1  0
 14 15  2  0
 15 16  1  0
 16 17  2  0
 17 18  1  0
 18 19  1  0
 18 20  2  0
 17 21  1  0
 21 22  1  0
 22 23  2  0
 22 24  1  0
 24 25  1  0
 25 26  1  0
 26 27  2  0
 26 28  1  0
 21 29  1  0
 29 30  2  0
  5 31  1  0
 31 32  2  0
 32  2  1  0
 30 12  1  0
 29 15  1  0
  1 33  1  0
  1 34  1  0
  1 35  1  0
  3 36  1  0
  4 37  1  0
 13 38  1  0
 14 39  1  0
 16 40  1  0
 19 41  1  0
 19 42  1  0
 25 43  1  0
 25 44  1  0
 30 45  1  0
 31 46  1  0
 32 47  1  0
M  CHG  1  28  -1
M  END
>  <UniqueID>  (40) 
40

>  <SMILES>  (40) 
Cc1ccc(S(=O)(=O)OC#Cc2ccc3cc(C(N)=O)n(C(=O)OCC(=O)[O-])c3c2)cc1

>  <Energy>  (40) 
81.06531441261038

>  <Genealogy>  (40) 
Cc1ccc(S(=O)(=O)OC#Cc2ccc3cc(C(N)=O)n(C(=O)OCC(=O)[O-])c3c2)cc1 (protonated)
Cc1ccc(S(=O)(=O)OC#Cc2ccc3cc(C(N)=O)n(C(=O)OCC(=O)[O-])c3c2)cc1 (3D coordinates assigned)
Cc1ccc(S(=O)(=O)OC#Cc2ccc3cc(C(N)=O)n(C(=O)OCC(=O)[O-])c3c2)cc1 (optimized conformer: 81.06531441261038 kcal/mol)

>  <smiles>  (40) 
Cc1ccc(S(=O)(=O)OC#Cc2ccc3cc(C(N)=O)n(C(=O)OCC(=O)O)c3c2)cc1

>  <score_type>  (40) 
oracle

>  <origin>  (40) 
adg

>  <m_score__min__energy>  (40) 
-12

>  <m_primary>  (40) 
energy

$$$$
42:0
     RDKit          3D

 39 40  0  0  0  0  0  0  0  0999 V2000
   -4.9840   14.3950  -33.9370 C   0  0  0  0  0  0  0  0  0  0  0  0
   -4.6420   15.3800  -34.8860 O   0  0  0  0  0  0  0  0  0  0  0  0
   -3.2470   15.5970  -34.8550 C   0  0  0  0  0  0  0  0  0  0  0  0
   -2.8560   16.2500  -33.5310 C   0  0  0  0  0  0  0  0  0  0  0  0
   -3.8750   17.1440  -33.0840 O   0  0  0  0  0  0  0  0  0  0  0  0
   -3.7560   18.5370  -33.1150 C   0  0  0  0  0  0  0  0  0  0  0  0
   -2.6950   19.0780  -33.5350 O   0  0  0  0  0  0  0  0  0  0  0  0
   -4.8420   19.3580  -32.6570 N   0  0  0  0  0  0  0  0  0  0  0  0
   -6.1730   19.1660  -32.8720 C   0  0  0  0  0  0  0  0  0  0  0  0
   -6.7840   17.9740  -33.4930 C   0  0  0  0  0  0  0  0  0  0  0  0
   -6.1210   17.2650  -34.5400 N   0  0  0  0  0  0  0  0  0  0  0  0
   -7.8840   17.5430  -33.0550 O   0  0  0  0  0  0  0  0  0  0  0  0
   -6.9130   20.2340  -32.3710 C   0  0  0  0  0  0  0  0  0  0  0  0
   -5.9860   21.0900  -31.8210 C   0  0  0  0  0  0  0  0  0  0  0  0
   -6.1660   22.3150  -31.1860 C   0  0  0  0  0  0  0  0  0  0  0  0
   -5.0240   23.0000  -30.7410 C   0  0  0  0  0  0  0  0  0  0  0  0
   -3.7300   22.4620  -30.9530 C   0  0  0  0  0  0  0  0  0  0  0  0
   -2.5170   23.1940  -30.4550 C   0  0  0  0  0  0  0  0  0  0  0  0
   -3.0020   24.7810  -29.7100 P   0  0  0  0  0  0  0  0  0  0  0  0
   -3.8350   24.5320  -28.4720 O   0  0  0  0  0  0  0  0  0  0  0  0
   -1.6200   25.6600  -29.2910 O   0  0  0  0  0  0  0  0  0  0  0  0
   -3.9110   25.6670  -30.8260 O   0  0  0  0  0  0  0  0  0  0  0  0
   -3.5860   21.2130  -31.5960 C   0  0  0  0  0  0  0  0  0  0  0  0
   -4.7430   20.5400  -32.0090 C   0  0  0  0  0  0  0  0  0  0  0  0
   -4.8440   14.7983  -32.9232 H   0  0  0  0  0  0  0  0  0  0  0  0
   -6.0359   14.1037  -34.0737 H   0  0  0  0  0  0  0  0  0  0  0  0
   -4.3390   13.5145  -34.0737 H   0  0  0  0  0  0  0  0  0  0  0  0
   -2.7250   14.6340  -34.9558 H   0  0  0  0  0  0  0  0  0  0  0  0
   -2.9633   16.2601  -35.6855 H   0  0  0  0  0  0  0  0  0  0  0  0
   -2.7063   15.4667  -32.7734 H   0  0  0  0  0  0  0  0  0  0  0  0
   -1.9281   16.8213  -33.6812 H   0  0  0  0  0  0  0  0  0  0  0  0
   -5.1350   17.4860  -34.7980 H   0  0  0  0  0  0  0  0  0  0  0  0
   -6.5880   16.4520  -35.0000 H   0  0  0  0  0  0  0  0  0  0  0  0
   -8.0045   20.3654  -32.4071 H   0  0  0  0  0  0  0  0  0  0  0  0
   -7.1722   22.7339  -31.0372 H   0  0  0  0  0  0  0  0  0  0  0  0
   -5.1347   23.9639  -30.2226 H   0  0  0  0  0  0  0  0  0  0  0  0
   -2.0064   22.5790  -29.6994 H   0  0  0  0  0  0  0  0  0  0  0  0
   -1.8417   23.3867  -31.3016 H   0  0  0  0  0  0  0  0  0  0  0  0
   -2.5899   20.7793  -31.7683 H   0  0  0  0  0  0  0  0  0  0  0  0
  1  2  1  0
  2  3  1  0
  3  4  1  0
  4  5  1  0
  5  6  1  0
  6  7  2  0
  6  8  1  0
  8  9  1  0
  9 10  1  0
 10 11  1  0
 10 12  2  0
  9 13  2  0
 13 14  1  0
 14 15  2  0
 15 16  1  0
 16 17  2  0
 17 18  1  0
 18 19  1  0
 19 20  2  0
 19 21  1  0
 19 22  1  0
 17 23  1  0
 23 24  2  0
 24  8  1  0
 24 14  1  0
  1 25  1  0
  1 26  1  0
  1 27  1  0
  3 28  1  0
  3 29  1  0
  4 30  1  0
  4 31  1  0
 11 32  1  0
 11 33  1  0
 13 34  1  0
 15 35  1  0
 16 36  1  0
 18 37  1  0
 18 38  1  0
 23 39  1  0
M  CHG  2  21  -1  22  -1
M  END
>  <UniqueID>  (41) 
41

>  <SMILES>  (41) 
COCCOC(=O)n1c(C(N)=O)cc2ccc(CP(=O)([O-])[O-])cc21

>  <Energy>  (41) 
70.5636947374894

>  <Genealogy>  (41) 
COCCOC(=O)n1c(C(N)=O)cc2ccc(CP(=O)([O-])[O-])cc21 (protonated)
COCCOC(=O)n1c(C(N)=O)cc2ccc(CP(=O)([O-])[O-])cc21 (3D coordinates assigned)
COCCOC(=O)n1c(C(N)=O)cc2ccc(CP(=O)([O-])[O-])cc21 (optimized conformer: 70.5636947374894 kcal/mol)

>  <smiles>  (41) 
COCCOC(=O)n1c(C(N)=O)cc2ccc(CP(=O)(O)O)cc21

>  <score_type>  (41) 
oracle

>  <origin>  (41) 
adg

>  <m_score__min__energy>  (41) 
-11.050000000000001

>  <m_primary>  (41) 
energy

$$$$
43:0
     RDKit          3D

 46 48  0  0  0  0  0  0  0  0999 V2000
   -6.1590   25.7810  -29.1100 N   0  0  0  0  0  0  0  0  0  0  0  0
   -5.6060   25.1490  -30.2660 C   0  0  0  0  0  0  0  0  0  0  0  0
   -4.6120   25.6700  -30.8380 O   0  0  0  0  0  0  0  0  0  0  0  0
   -6.1410   23.8680  -30.7680 C   0  0  0  0  0  0  0  0  0  0  0  0
   -7.5020   23.5800  -30.8350 C   0  0  0  0  0  0  0  0  0  0  0  0
   -7.5820   22.3310  -31.4070 C   0  0  0  0  0  0  0  0  0  0  0  0
   -8.6960   21.5460  -31.6920 C   0  0  0  0  0  0  0  0  0  0  0  0
   -8.4790   20.2700  -32.2410 C   0  0  0  0  0  0  0  0  0  0  0  0
   -7.1650   19.8090  -32.4830 C   0  0  0  0  0  0  0  0  0  0  0  0
   -6.9540   18.4910  -33.0150 C   0  0  0  0  0  0  0  0  0  0  0  0
   -6.7720   17.3800  -33.4460 C   0  0  0  0  0  0  0  0  0  0  0  0
   -6.5390   16.0290  -33.9800 C   0  0  0  0  0  0  0  0  0  0  0  0
   -5.2010   15.8750  -34.5900 N   0  0  0  0  0  0  0  0  0  0  0  0
   -4.3170   14.9320  -33.8750 C   0  0  0  0  0  0  0  0  0  0  0  0
   -3.5350   15.6040  -32.7190 C   0  0  0  0  0  0  0  0  0  0  0  0
   -3.5130   17.0190  -32.7850 O   0  0  0  0  0  0  0  0  0  0  0  0
   -3.2990   17.4420  -34.1120 C   0  0  0  0  0  0  0  0  0  0  0  0
   -4.5460   17.1540  -34.9600 C   0  0  0  0  0  0  0  0  0  0  0  0
   -6.0570   20.6280  -32.1820 C   0  0  0  0  0  0  0  0  0  0  0  0
   -6.3020   21.9010  -31.6560 C   0  0  0  0  0  0  0  0  0  0  0  0
   -5.4050   22.8350  -31.2650 N   0  0  0  0  0  0  0  0  0  0  0  0
   -3.9740   22.6960  -31.2570 C   0  0  0  0  0  0  0  0  0  0  0  0
   -3.3610   22.4420  -32.3290 O   0  0  0  0  0  0  0  0  0  0  0  0
   -3.2500   22.8350  -30.0310 N   0  0  0  0  0  0  0  0  0  0  0  0
   -1.8120   23.0650  -29.9650 C   0  0  0  0  0  0  0  0  0  0  0  0
   -1.5270   24.3680  -29.2900 C   0  0  0  0  0  0  0  0  0  0  0  0
   -2.3750   25.3000  -29.3270 O   0  0  0  0  0  0  0  0  0  0  0  0
   -0.3100   24.5680  -28.6520 O   0  0  0  0  0  0  0  0  0  0  0  0
   -6.8780   25.3020  -28.5250 H   0  0  0  0  0  0  0  0  0  0  0  0
   -5.7900   26.7040  -28.7900 H   0  0  0  0  0  0  0  0  0  0  0  0
   -8.3356   24.2157  -30.5016 H   0  0  0  0  0  0  0  0  0  0  0  0
   -9.7140   21.9126  -31.4938 H   0  0  0  0  0  0  0  0  0  0  0  0
   -9.3374   19.6263  -32.4837 H   0  0  0  0  0  0  0  0  0  0  0  0
   -6.6354   15.3049  -33.1575 H   0  0  0  0  0  0  0  0  0  0  0  0
   -7.2843   15.8527  -34.7696 H   0  0  0  0  0  0  0  0  0  0  0  0
   -4.9317   14.1204  -33.4587 H   0  0  0  0  0  0  0  0  0  0  0  0
   -3.5799   14.5543  -34.5988 H   0  0  0  0  0  0  0  0  0  0  0  0
   -4.0024   15.3092  -31.7679 H   0  0  0  0  0  0  0  0  0  0  0  0
   -2.4917   15.2651  -32.8010 H   0  0  0  0  0  0  0  0  0  0  0  0
   -3.0930   18.5225  -34.1216 H   0  0  0  0  0  0  0  0  0  0  0  0
   -2.4414   16.8961  -34.5322 H   0  0  0  0  0  0  0  0  0  0  0  0
   -5.2662   17.9733  -34.8181 H   0  0  0  0  0  0  0  0  0  0  0  0
   -4.2259   17.0746  -36.0094 H   0  0  0  0  0  0  0  0  0  0  0  0
   -5.0295   20.2759  -32.3558 H   0  0  0  0  0  0  0  0  0  0  0  0
   -1.3397   22.2505  -29.3963 H   0  0  0  0  0  0  0  0  0  0  0  0
   -1.4064   23.0945  -30.9871 H   0  0  0  0  0  0  0  0  0  0  0  0
  1  2  1  0
  2  3  2  0
  2  4  1  0
  4  5  2  0
  5  6  1  0
  6  7  2  0
  7  8  1  0
  8  9  2  0
  9 10  1  0
 10 11  3  0
 11 12  1  0
 12 13  1  0
 13 14  1  0
 14 15  1  0
 15 16  1  0
 16 17  1  0
 17 18  1  0
  9 19  1  0
 19 20  2  0
 20 21  1  0
 21 22  1  0
 22 23  2  0
 22 24  1  0
 24 25  1  0
 25 26  1  0
 26 27  2  0
 26 28  1  0
 21  4  1  0
 20  6  1  0
 18 13  1  0
  1 29  1  0
  1 30  1  0
  5 31  1  0
  7 32  1  0
  8 33  1  0
 12 34  1  0
 12 35  1  0
 14 36  1  0
 14 37  1  0
 15 38  1  0
 15 39  1  0
 17 40  1  0
 17 41  1  0
 18 42  1  0
 18 43  1  0
 19 44  1  0
 25 45  1  0
 25 46  1  0
M  CHG  2  24  -1  28  -1
M  END
>  <UniqueID>  (42) 
42

>  <SMILES>  (42) 
NC(=O)c1cc2ccc(C#CCN3CCOCC3)cc2n1C(=O)[N-]CC(=O)[O-]

>  <Energy>  (42) 
94.19270612145442

>  <Genealogy>  (42) 
NC(=O)c1cc2ccc(C#CCN3CCOCC3)cc2n1C(=O)[N-]CC(=O)[O-] (protonated)
NC(=O)c1cc2ccc(C#CCN3CCOCC3)cc2n1C(=O)[N-]CC(=O)[O-] (3D coordinates assigned)
NC(=O)c1cc2ccc(C#CCN3CCOCC3)cc2n1C(=O)[N-]CC(=O)[O-] (nonaromatic ring conformer: 94.19270612145442 kcal/mol)

>  <smiles>  (42) 
NC(=O)c1cc2ccc(C#CCN3CCOCC3)cc2n1C(=O)NCC(=O)O

>  <score_type>  (42) 
oracle

>  <origin>  (42) 
adg

>  <m_score__min__energy>  (42) 
-12.41

>  <m_primary>  (42) 
energy

$$$$
44:0
     RDKit          3D

 34 36  0  0  0  0  0  0  0  0999 V2000
   -3.8670   25.2320  -30.8350 N   0  0  0  0  0  0  0  0  0  0  0  0
   -5.1710   24.9350  -30.3410 C   0  0  0  0  0  0  0  0  0  0  0  0
   -5.6720   25.6660  -29.4460 O   0  0  0  0  0  0  0  0  0  0  0  0
   -5.9150   23.7520  -30.8210 C   0  0  0  0  0  0  0  0  0  0  0  0
   -7.2650   23.7840  -31.1610 C   0  0  0  0  0  0  0  0  0  0  0  0
   -7.6000   22.4830  -31.4560 C   0  0  0  0  0  0  0  0  0  0  0  0
   -8.8190   21.9400  -31.8480 C   0  0  0  0  0  0  0  0  0  0  0  0
   -8.8750   20.5590  -32.1000 C   0  0  0  0  0  0  0  0  0  0  0  0
   -7.7120   19.7530  -31.9860 C   0  0  0  0  0  0  0  0  0  0  0  0
   -7.7920   18.2660  -32.2220 C   0  0  0  0  0  0  0  0  0  0  0  0
   -6.9490   17.5880  -31.3600 F   0  0  0  0  0  0  0  0  0  0  0  0
   -7.4200   17.9920  -33.5250 F   0  0  0  0  0  0  0  0  0  0  0  0
   -9.0820   17.8090  -32.0160 F   0  0  0  0  0  0  0  0  0  0  0  0
   -6.4970   20.3400  -31.5630 C   0  0  0  0  0  0  0  0  0  0  0  0
   -6.4760   21.7150  -31.2990 C   0  0  0  0  0  0  0  0  0  0  0  0
   -5.4290   22.4800  -30.9120 N   0  0  0  0  0  0  0  0  0  0  0  0
   -4.0780   22.0350  -30.7190 C   0  0  0  0  0  0  0  0  0  0  0  0
   -3.2190   22.2330  -31.6210 O   0  0  0  0  0  0  0  0  0  0  0  0
   -3.7390   21.3540  -29.5430 O   0  0  0  0  0  0  0  0  0  0  0  0
   -2.8660   21.8310  -28.5560 C   0  0  0  0  0  0  0  0  0  0  0  0
   -1.8370   21.1820  -28.2230 O   0  0  0  0  0  0  0  0  0  0  0  0
   -3.1540   23.1100  -27.9020 C   0  0  0  0  0  0  0  0  0  0  0  0
   -2.3320   23.7800  -27.0160 C   0  0  0  0  0  0  0  0  0  0  0  0
   -3.0460   24.9170  -26.6950 C   0  0  0  0  0  0  0  0  0  0  0  0
   -4.2110   24.8940  -27.3650 N   0  0  0  0  0  0  0  0  0  0  0  0
   -4.2520   23.8070  -28.0770 O   0  0  0  0  0  0  0  0  0  0  0  0
   -3.0470   25.2820  -30.1910 H   0  0  0  0  0  0  0  0  0  0  0  0
   -7.9244   24.6641  -31.1880 H   0  0  0  0  0  0  0  0  0  0  0  0
   -9.7122   22.5727  -31.9574 H   0  0  0  0  0  0  0  0  0  0  0  0
   -9.8306   20.0971  -32.3888 H   0  0  0  0  0  0  0  0  0  0  0  0
   -5.5891   19.7304  -31.4441 H   0  0  0  0  0  0  0  0  0  0  0  0
   -1.3393   23.4776  -26.6512 H   0  0  0  0  0  0  0  0  0  0  0  0
   -2.7167   25.7091  -26.0063 H   0  0  0  0  0  0  0  0  0  0  0  0
   -4.9650   25.6160  -27.3300 H   0  0  0  0  0  0  0  0  0  0  0  0
  1  2  1  0
  2  3  2  0
  2  4  1  0
  4  5  2  0
  5  6  1  0
  6  7  2  0
  7  8  1  0
  8  9  2  0
  9 10  1  0
 10 11  1  0
 10 12  1  0
 10 13  1  0
  9 14  1  0
 14 15  2  0
 15 16  1  0
 16 17  1  0
 17 18  2  0
 17 19  1  0
 19 20  1  0
 20 21  2  0
 20 22  1  0
 22 23  2  0
 23 24  1  0
 24 25  2  0
 25 26  1  0
 16  4  1  0
 26 22  1  0
 15  6  1  0
  1 27  1  0
  5 28  1  0
  7 29  1  0
  8 30  1  0
 14 31  1  0
 23 32  1  0
 24 33  1  0
 25 34  1  0
M  CHG  2   1  -1  25   1
M  END
>  <UniqueID>  (43) 
43

>  <SMILES>  (43) 
[NH-]C(=O)c1cc2ccc(C(F)(F)F)cc2n1C(=O)OC(=O)c1cc[nH+]o1

>  <Energy>  (43) 
106.48544886222999

>  <Genealogy>  (43) 
[NH-]C(=O)c1cc2ccc(C(F)(F)F)cc2n1C(=O)OC(=O)c1cc[nH+]o1 (protonated)
[NH-]C(=O)c1cc2ccc(C(F)(F)F)cc2n1C(=O)OC(=O)c1cc[nH+]o1 (3D coordinates assigned)
[NH-]C(=O)c1cc2ccc(C(F)(F)F)cc2n1C(=O)OC(=O)c1cc[nH+]o1 (optimized conformer: 106.48544886222999 kcal/mol)

>  <smiles>  (43) 
NC(=O)c1cc2ccc(C(F)(F)F)cc2n1C(=O)OC(=O)c1ccno1

>  <score_type>  (43) 
oracle

>  <origin>  (43) 
adg

>  <m_score__min__energy>  (43) 
-10.17

>  <m_primary>  (43) 
energy

$$$$
45:0
     RDKit          3D

 29 30  0  0  0  0  0  0  0  0999 V2000
   -6.7940   18.4040  -33.2130 C   0  0  0  0  0  0  0  0  0  0  0  0
   -7.0370   19.7650  -32.6340 C   0  0  0  0  0  0  0  0  0  0  0  0
   -8.3620   20.2310  -32.4530 C   0  0  0  0  0  0  0  0  0  0  0  0
   -8.6040   21.5140  -31.9330 C   0  0  0  0  0  0  0  0  0  0  0  0
   -7.5050   22.3100  -31.6240 C   0  0  0  0  0  0  0  0  0  0  0  0
   -7.4550   23.5750  -31.0840 C   0  0  0  0  0  0  0  0  0  0  0  0
   -6.1000   23.8780  -30.9850 C   0  0  0  0  0  0  0  0  0  0  0  0
   -5.5940   25.1800  -30.5070 C   0  0  0  0  0  0  0  0  0  0  0  0
   -4.2180   25.5360  -30.6500 N   0  0  0  0  0  0  0  0  0  0  0  0
   -6.3980   26.0130  -30.0120 O   0  0  0  0  0  0  0  0  0  0  0  0
   -5.3390   22.8410  -31.4340 N   0  0  0  0  0  0  0  0  0  0  0  0
   -3.9060   22.7320  -31.3810 C   0  0  0  0  0  0  0  0  0  0  0  0
   -3.2640   22.3700  -32.4040 O   0  0  0  0  0  0  0  0  0  0  0  0
   -3.2380   22.9750  -30.1730 O   0  0  0  0  0  0  0  0  0  0  0  0
   -2.1370   23.8060  -30.0480 N   0  0  0  0  0  0  0  0  0  0  0  0
   -1.5880   24.1230  -28.9160 C   0  0  0  0  0  0  0  0  0  0  0  0
   -0.5180   24.9510  -28.8990 F   0  0  0  0  0  0  0  0  0  0  0  0
   -6.2150   21.8880  -31.8260 C   0  0  0  0  0  0  0  0  0  0  0  0
   -5.9460   20.6070  -32.3230 C   0  0  0  0  0  0  0  0  0  0  0  0
   -6.6641   17.6767  -32.3981 H   0  0  0  0  0  0  0  0  0  0  0  0
   -7.6539   18.1104  -33.8329 H   0  0  0  0  0  0  0  0  0  0  0  0
   -5.8856   18.4261  -33.8329 H   0  0  0  0  0  0  0  0  0  0  0  0
   -9.2093   19.5830  -32.7218 H   0  0  0  0  0  0  0  0  0  0  0  0
   -9.6301   21.8777  -31.7751 H   0  0  0  0  0  0  0  0  0  0  0  0
   -8.3042   24.2107  -30.7929 H   0  0  0  0  0  0  0  0  0  0  0  0
   -3.5630   24.9440  -31.2070 H   0  0  0  0  0  0  0  0  0  0  0  0
   -3.8680   26.4420  -30.2680 H   0  0  0  0  0  0  0  0  0  0  0  0
   -1.9905   23.7206  -27.9747 H   0  0  0  0  0  0  0  0  0  0  0  0
   -4.9107   20.2646  -32.4678 H   0  0  0  0  0  0  0  0  0  0  0  0
  1  2  1  0
  2  3  2  0
  3  4  1  0
  4  5  2  0
  5  6  1  0
  6  7  2  0
  7  8  1  0
  8  9  1  0
  8 10  2  0
  7 11  1  0
 11 12  1  0
 12 13  2  0
 12 14  1  0
 14 15  1  0
 15 16  2  3
 16 17  1  0
 11 18  1  0
 18 19  2  0
 19  2  1  0
 18  5  1  0
  1 20  1  0
  1 21  1  0
  1 22  1  0
  3 23  1  0
  4 24  1  0
  6 25  1  0
  9 26  1  0
  9 27  1  0
 16 28  1  0
 19 29  1  0
M  END
>  <UniqueID>  (44) 
44

>  <SMILES>  (44) 
Cc1ccc2cc(C(N)=O)n(C(=O)ON=CF)c2c1

>  <Energy>  (44) 
72.91620349160046

>  <Genealogy>  (44) 
Cc1ccc2cc(C(N)=O)n(C(=O)ON=CF)c2c1 (3D coordinates assigned)
Cc1ccc2cc(C(N)=O)n(C(=O)ON=CF)c2c1 (optimized conformer: 72.91620349160046 kcal/mol)

>  <smiles>  (44) 
Cc1ccc2cc(C(N)=O)n(C(=O)ON=CF)c2c1

>  <score_type>  (44) 
oracle

>  <origin>  (44) 
adg

>  <m_score__min__energy>  (44) 
-7.9299999999999997

>  <m_primary>  (44) 
energy

$$$$
46:0
     RDKit          3D

 43 45  0  0  0  0  0  0  0  0999 V2000
   -3.9740   24.7160  -27.0460 N   0  0  0  0  0  0  0  0  0  0  0  0
   -2.7100   25.2950  -26.6020 C   0  0  0  0  0  0  0  0  0  0  0  0
   -1.5570   24.8190  -27.5050 C   0  0  0  0  0  0  0  0  0  0  0  0
   -1.5190   25.2600  -28.9750 C   0  0  0  0  0  0  0  0  0  0  0  0
   -2.7670   24.8880  -29.6290 N   0  0  0  0  0  0  0  0  0  0  0  0
   -3.2930   23.5590  -29.7340 C   0  0  0  0  0  0  0  0  0  0  0  0
   -3.3050   22.8360  -28.7030 O   0  0  0  0  0  0  0  0  0  0  0  0
   -3.8290   23.0060  -30.9990 C   0  0  0  0  0  0  0  0  0  0  0  0
   -3.0480   22.5410  -31.8700 O   0  0  0  0  0  0  0  0  0  0  0  0
   -5.2470   22.9530  -31.2250 N   0  0  0  0  0  0  0  0  0  0  0  0
   -6.1910   23.8540  -30.8330 C   0  0  0  0  0  0  0  0  0  0  0  0
   -5.9290   25.1660  -30.2060 C   0  0  0  0  0  0  0  0  0  0  0  0
   -5.8530   25.3090  -28.7860 N   0  0  0  0  0  0  0  0  0  0  0  0
   -5.7230   26.1710  -30.9370 O   0  0  0  0  0  0  0  0  0  0  0  0
   -7.4670   23.3920  -31.1460 C   0  0  0  0  0  0  0  0  0  0  0  0
   -7.2730   22.1770  -31.7620 C   0  0  0  0  0  0  0  0  0  0  0  0
   -8.1990   21.2790  -32.2840 C   0  0  0  0  0  0  0  0  0  0  0  0
   -7.7140   20.0860  -32.8480 C   0  0  0  0  0  0  0  0  0  0  0  0
   -6.3250   19.8010  -32.8580 C   0  0  0  0  0  0  0  0  0  0  0  0
   -5.8170   18.5350  -33.5020 C   0  0  0  0  0  0  0  0  0  0  0  0
   -6.6540   17.4720  -33.2130 F   0  0  0  0  0  0  0  0  0  0  0  0
   -5.7680   18.7100  -34.8730 F   0  0  0  0  0  0  0  0  0  0  0  0
   -4.5490   18.2250  -33.0420 F   0  0  0  0  0  0  0  0  0  0  0  0
   -5.4140   20.7500  -32.3380 C   0  0  0  0  0  0  0  0  0  0  0  0
   -5.9240   21.9360  -31.7980 C   0  0  0  0  0  0  0  0  0  0  0  0
   -1.0090   23.4280  -27.2070 C   0  0  0  0  0  0  0  0  0  0  0  0
   -0.2000   24.6650  -26.8270 C   0  0  0  0  0  0  0  0  0  0  0  0
   -3.9450   23.6870  -26.8650 H   0  0  0  0  0  0  0  0  0  0  0  0
   -4.0300   24.8280  -28.0840 H   0  0  0  0  0  0  0  0  0  0  0  0
   -2.7775   26.3920  -26.6478 H   0  0  0  0  0  0  0  0  0  0  0  0
   -2.5120   24.9722  -25.5692 H   0  0  0  0  0  0  0  0  0  0  0  0
   -1.3896   26.3511  -29.0267 H   0  0  0  0  0  0  0  0  0  0  0  0
   -0.6783   24.7652  -29.4834 H   0  0  0  0  0  0  0  0  0  0  0  0
   -5.7250   26.2540  -28.3620 H   0  0  0  0  0  0  0  0  0  0  0  0
   -5.8310   24.4760  -28.1570 H   0  0  0  0  0  0  0  0  0  0  0  0
   -8.4257   23.8919  -30.9438 H   0  0  0  0  0  0  0  0  0  0  0  0
   -9.2771   21.4958  -32.2562 H   0  0  0  0  0  0  0  0  0  0  0  0
   -8.4201   19.3655  -33.2865 H   0  0  0  0  0  0  0  0  0  0  0  0
   -4.3307   20.5603  -32.3576 H   0  0  0  0  0  0  0  0  0  0  0  0
   -1.4716   22.8109  -26.4226 H   0  0  0  0  0  0  0  0  0  0  0  0
   -0.8146   22.5242  -27.8032 H   0  0  0  0  0  0  0  0  0  0  0  0
   -0.0795   24.9398  -25.7687 H   0  0  0  0  0  0  0  0  0  0  0  0
    0.8191   25.0225  -27.0357 H   0  0  0  0  0  0  0  0  0  0  0  0
  1  2  1  0
  2  3  1  0
  3  4  1  0
  4  5  1  0
  5  6  1  0
  6  7  2  0
  6  8  1  0
  8  9  2  0
  8 10  1  0
 10 11  1  0
 11 12  1  0
 12 13  1  0
 12 14  2  0
 11 15  2  0
 15 16  1  0
 16 17  2  0
 17 18  1  0
 18 19  2  0
 19 20  1  0
 20 21  1  0
 20 22  1  0
 20 23  1  0
 19 24  1  0
 24 25  2  0
  3 26  1  0
 26 27  1  0
 27  3  1  0
 25 10  1  0
 25 16  1  0
  1 28  1  0
  1 29  1  0
  2 30  1  0
  2 31  1  0
  4 32  1  0
  4 33  1  0
 13 34  1  0
 13 35  1  0
 15 36  1  0
 17 37  1  0
 18 38  1  0
 24 39  1  0
 26 40  1  0
 26 41  1  0
 27 42  1  0
 27 43  1  0
M  CHG  1   5  -1
M  END
>  <UniqueID>  (45) 
45

>  <SMILES>  (45) 
NCC1(C[N-]C(=O)C(=O)n2c(C(N)=O)cc3ccc(C(F)(F)F)cc32)CC1

>  <Energy>  (45) 
347.9943060883677

>  <Genealogy>  (45) 
NCC1(C[N-]C(=O)C(=O)n2c(C(N)=O)cc3ccc(C(F)(F)F)cc32)CC1 (protonated)
NCC1(C[N-]C(=O)C(=O)n2c(C(N)=O)cc3ccc(C(F)(F)F)cc32)CC1 (3D coordinates assigned)
NCC1(C[N-]C(=O)C(=O)n2c(C(N)=O)cc3ccc(C(F)(F)F)cc32)CC1 (nonaromatic ring conformer: 347.9943060883677 kcal/mol)

>  <smiles>  (45) 
NCC1(CNC(=O)C(=O)n2c(C(N)=O)cc3ccc(C(F)(F)F)cc32)CC1

>  <score_type>  (45) 
oracle

>  <origin>  (45) 
adg

>  <m_score__min__energy>  (45) 
-9.5199999999999996

>  <m_primary>  (45) 
energy

$$$$
47:0
     RDKit          3D

 32 34  0  0  0  0  0  0  0  0999 V2000
   -3.9360   25.6340  -30.8460 N   0  0  0  0  0  0  0  0  0  0  0  0
   -5.1980   25.1230  -30.4260 C   0  0  0  0  0  0  0  0  0  0  0  0
   -5.8250   25.7100  -29.5020 O   0  0  0  0  0  0  0  0  0  0  0  0
   -5.7530   23.8880  -31.0170 C   0  0  0  0  0  0  0  0  0  0  0  0
   -7.1200   23.6400  -31.1290 C   0  0  0  0  0  0  0  0  0  0  0  0
   -7.2170   22.3660  -31.6410 C   0  0  0  0  0  0  0  0  0  0  0  0
   -8.3420   21.6170  -31.9660 C   0  0  0  0  0  0  0  0  0  0  0  0
   -8.1490   20.3350  -32.5090 C   0  0  0  0  0  0  0  0  0  0  0  0
   -6.8390   19.8300  -32.7260 C   0  0  0  0  0  0  0  0  0  0  0  0
   -6.6220   18.4870  -33.3090 C   0  0  0  0  0  0  0  0  0  0  0  0
   -5.7600   18.1340  -34.3320 C   0  0  0  0  0  0  0  0  0  0  0  0
   -5.8870   16.8130  -34.5380 N   0  0  0  0  0  0  0  0  0  0  0  0
   -6.8100   16.4040  -33.6500 C   0  0  0  0  0  0  0  0  0  0  0  0
   -7.2500   17.4000  -32.9150 O   0  0  0  0  0  0  0  0  0  0  0  0
   -5.7220   20.6250  -32.3820 C   0  0  0  0  0  0  0  0  0  0  0  0
   -5.9470   21.8890  -31.8250 C   0  0  0  0  0  0  0  0  0  0  0  0
   -5.0350   22.8130  -31.4480 N   0  0  0  0  0  0  0  0  0  0  0  0
   -3.6090   22.7100  -31.5850 C   0  0  0  0  0  0  0  0  0  0  0  0
   -2.8570   23.1340  -30.6650 O   0  0  0  0  0  0  0  0  0  0  0  0
   -3.0620   22.1200  -32.7300 O   0  0  0  0  0  0  0  0  0  0  0  0
   -2.1250   21.0490  -32.6810 C   0  0  0  0  0  0  0  0  0  0  0  0
   -2.6250   19.7380  -33.7800 Cl  0  0  0  0  0  0  0  0  0  0  0  0
   -3.0470   25.2750  -30.4330 H   0  0  0  0  0  0  0  0  0  0  0  0
   -7.9451   24.3177  -30.8647 H   0  0  0  0  0  0  0  0  0  0  0  0
   -9.3540   22.0160  -31.8029 H   0  0  0  0  0  0  0  0  0  0  0  0
   -9.0209   19.7166  -32.7685 H   0  0  0  0  0  0  0  0  0  0  0  0
   -5.0902   18.8139  -34.8789 H   0  0  0  0  0  0  0  0  0  0  0  0
   -5.3780   16.2290  -35.2390 H   0  0  0  0  0  0  0  0  0  0  0  0
   -7.1542   15.3639  -33.5511 H   0  0  0  0  0  0  0  0  0  0  0  0
   -4.6984   20.2582  -32.5484 H   0  0  0  0  0  0  0  0  0  0  0  0
   -1.1347   21.4192  -32.9848 H   0  0  0  0  0  0  0  0  0  0  0  0
   -2.0825   20.6578  -31.6538 H   0  0  0  0  0  0  0  0  0  0  0  0
  1  2  1  0
  2  3  2  0
  2  4  1  0
  4  5  2  0
  5  6  1  0
  6  7  2  0
  7  8  1  0
  8  9  2  0
  9 10  1  0
 10 11  2  0
 11 12  1  0
 12 13  2  0
 13 14  1  0
  9 15  1  0
 15 16  2  0
 16 17  1  0
 17 18  1  0
 18 19  2  0
 18 20  1  0
 20 21  1  0
 21 22  1  0
 17  4  1  0
 16  6  1  0
 14 10  1  0
  1 23  1  0
  5 24  1  0
  7 25  1  0
  8 26  1  0
 11 27  1  0
 12 28  1  0
 13 29  1  0
 15 30  1  0
 21 31  1  0
 21 32  1  0
M  CHG  2   1  -1  12   1
M  END
>  <UniqueID>  (46) 
46

>  <SMILES>  (46) 
[NH-]C(=O)c1cc2ccc(-c3c[nH+]co3)cc2n1C(=O)OCCl

>  <Energy>  (46) 
103.84059033757904

>  <Genealogy>  (46) 
[NH-]C(=O)c1cc2ccc(-c3c[nH+]co3)cc2n1C(=O)OCCl (protonated)
[NH-]C(=O)c1cc2ccc(-c3c[nH+]co3)cc2n1C(=O)OCCl (3D coordinates assigned)
[NH-]C(=O)c1cc2ccc(-c3c[nH+]co3)cc2n1C(=O)OCCl (optimized conformer: 103.84059033757904 kcal/mol)

>  <smiles>  (46) 
NC(=O)c1cc2ccc(-c3cnco3)cc2n1C(=O)OCCl

>  <score_type>  (46) 
oracle

>  <origin>  (46) 
adg

>  <m_score__min__energy>  (46) 
-9.2200000000000006

>  <m_primary>  (46) 
energy

$$$$
48:0
     RDKit          3D

 32 33  0  0  0  0  0  0  0  0999 V2000
   -3.9040   25.6660  -30.8420 N   0  0  0  0  0  0  0  0  0  0  0  0
   -5.1100   24.9820  -30.5160 C   0  0  0  0  0  0  0  0  0  0  0  0
   -5.8910   25.4790  -29.6610 O   0  0  0  0  0  0  0  0  0  0  0  0
   -5.4310   23.6720  -31.1230 C   0  0  0  0  0  0  0  0  0  0  0  0
   -6.6910   23.3450  -31.6170 C   0  0  0  0  0  0  0  0  0  0  0  0
   -6.6020   22.0270  -32.0010 C   0  0  0  0  0  0  0  0  0  0  0  0
   -7.5600   21.1930  -32.5700 C   0  0  0  0  0  0  0  0  0  0  0  0
   -7.1820   19.8790  -32.8930 C   0  0  0  0  0  0  0  0  0  0  0  0
   -5.8600   19.4280  -32.6490 C   0  0  0  0  0  0  0  0  0  0  0  0
   -5.4720   18.0240  -33.0180 C   0  0  0  0  0  0  0  0  0  0  0  0
   -5.6520   17.8330  -34.3760 F   0  0  0  0  0  0  0  0  0  0  0  0
   -6.2590   17.1240  -32.3230 F   0  0  0  0  0  0  0  0  0  0  0  0
   -4.9140   20.3030  -32.0730 C   0  0  0  0  0  0  0  0  0  0  0  0
   -5.3230   21.6010  -31.7440 C   0  0  0  0  0  0  0  0  0  0  0  0
   -4.5910   22.6020  -31.2090 N   0  0  0  0  0  0  0  0  0  0  0  0
   -3.1950   22.5480  -30.8810 C   0  0  0  0  0  0  0  0  0  0  0  0
   -2.4320   21.7610  -31.5060 O   0  0  0  0  0  0  0  0  0  0  0  0
   -2.6930   23.3470  -29.8470 O   0  0  0  0  0  0  0  0  0  0  0  0
   -1.4310   23.1280  -29.2240 C   0  0  0  0  0  0  0  0  0  0  0  0
   -0.9390   24.5880  -28.2550 P   0  0  2  0  0  0  0  0  0  0  0  0
    0.5670   24.7060  -28.2250 O   0  0  0  0  0  0  0  0  0  0  0  0
   -1.5170   24.4290  -26.6730 O   0  0  0  0  0  0  0  0  0  0  0  0
   -1.5970   25.9810  -28.9560 O   0  0  0  0  0  0  0  0  0  0  0  0
   -2.9780   25.3010  -30.5270 H   0  0  0  0  0  0  0  0  0  0  0  0
   -7.5710   24.0014  -31.6857 H   0  0  0  0  0  0  0  0  0  0  0  0
   -8.5821   21.5518  -32.7610 H   0  0  0  0  0  0  0  0  0  0  0  0
   -7.9181   19.1940  -33.3391 H   0  0  0  0  0  0  0  0  0  0  0  0
   -4.4148   17.8634  -32.7600 H   0  0  0  0  0  0  0  0  0  0  0  0
   -3.8811   19.9733  -31.8872 H   0  0  0  0  0  0  0  0  0  0  0  0
   -1.5030   22.2571  -28.5559 H   0  0  0  0  0  0  0  0  0  0  0  0
   -0.6758   22.9459  -30.0028 H   0  0  0  0  0  0  0  0  0  0  0  0
   -2.0050   25.6680  -29.8020 H   0  0  0  0  0  0  0  0  0  0  0  0
  1  2  1  0
  2  3  2  0
  2  4  1  0
  4  5  2  0
  5  6  1  0
  6  7  2  0
  7  8  1  0
  8  9  2  0
  9 10  1  0
 10 11  1  0
 10 12  1  0
  9 13  1  0
 13 14  2  0
 14 15  1  0
 15 16  1  0
 16 17  2  0
 16 18  1  0
 18 19  1  0
 19 20  1  0
 20 21  2  0
 20 22  1  1
 20 23  1  0
 15  4  1  0
 14  6  1  0
  1 24  1  0
  5 25  1  0
  7 26  1  0
  8 27  1  0
 10 28  1  0
 13 29  1  0
 19 30  1  0
 19 31  1  0
 23 32  1  0
M  CHG  2   1  -1  22  -1
M  END
>  <UniqueID>  (47) 
47

>  <SMILES>  (47) 
[NH-]C(=O)c1cc2ccc(C(F)F)cc2n1C(=O)OC[P@](=O)([O-])O

>  <Energy>  (47) 
65.071142834302

>  <Genealogy>  (47) 
[NH-]C(=O)c1cc2ccc(C(F)F)cc2n1C(=O)OCP(=O)([O-])O (protonated)
[NH-]C(=O)c1cc2ccc(C(F)F)cc2n1C(=O)OC[P@](=O)([O-])O (chirality)
[NH-]C(=O)c1cc2ccc(C(F)F)cc2n1C(=O)OC[P@](=O)([O-])O (3D coordinates assigned)
[NH-]C(=O)c1cc2ccc(C(F)F)cc2n1C(=O)OC[P@](=O)([O-])O (optimized conformer: 65.071142834302 kcal/mol)

>  <smiles>  (47) 
NC(=O)c1cc2ccc(C(F)F)cc2n1C(=O)OCP(=O)(O)O

>  <score_type>  (47) 
oracle

>  <origin>  (47) 
adg

>  <m_score__min__energy>  (47) 
-11.529999999999999

>  <m_primary>  (47) 
energy

$$$$
49:0
     RDKit          3D

 28 29  0  0  0  0  0  0  0  0999 V2000
   -6.0050   18.0560  -32.7190 C   0  0  0  0  0  0  0  0  0  0  0  0
   -6.3370   19.4730  -32.3520 C   0  0  0  0  0  0  0  0  0  0  0  0
   -7.6100   20.0070  -32.6690 C   0  0  0  0  0  0  0  0  0  0  0  0
   -7.9250   21.3390  -32.3530 C   0  0  0  0  0  0  0  0  0  0  0  0
   -6.9430   22.1140  -31.7420 C   0  0  0  0  0  0  0  0  0  0  0  0
   -6.9870   23.4200  -31.3110 C   0  0  0  0  0  0  0  0  0  0  0  0
   -5.7260   23.6750  -30.7760 C   0  0  0  0  0  0  0  0  0  0  0  0
   -5.3110   25.0020  -30.2730 C   0  0  0  0  0  0  0  0  0  0  0  0
   -4.1730   25.6690  -30.8140 N   0  0  0  0  0  0  0  0  0  0  0  0
   -5.9970   25.5760  -29.3860 O   0  0  0  0  0  0  0  0  0  0  0  0
   -4.9360   22.5670  -30.8630 N   0  0  0  0  0  0  0  0  0  0  0  0
   -3.6040   22.3900  -30.3560 C   0  0  0  0  0  0  0  0  0  0  0  0
   -3.2930   21.3210  -29.7670 O   0  0  0  0  0  0  0  0  0  0  0  0
   -2.6540   23.3980  -30.5420 O   0  0  0  0  0  0  0  0  0  0  0  0
   -1.6710   23.9860  -29.2610 P   0  0  0  0  0  0  0  0  0  0  0  0
   -2.2600   23.5640  -27.9340 O   0  0  0  0  0  0  0  0  0  0  0  0
   -1.6080   25.6750  -29.3350 O   0  0  0  0  0  0  0  0  0  0  0  0
   -0.1080   23.3600  -29.4110 O   0  0  0  0  0  0  0  0  0  0  0  0
   -5.6950   21.6220  -31.4600 C   0  0  0  0  0  0  0  0  0  0  0  0
   -5.3600   20.2920  -31.7470 C   0  0  0  0  0  0  0  0  0  0  0  0
   -5.8660   17.4629  -31.8030 H   0  0  0  0  0  0  0  0  0  0  0  0
   -6.8273   17.6284  -33.3115 H   0  0  0  0  0  0  0  0  0  0  0  0
   -5.0784   18.0382  -33.3115 H   0  0  0  0  0  0  0  0  0  0  0  0
   -8.3585   19.3731  -33.1670 H   0  0  0  0  0  0  0  0  0  0  0  0
   -8.9167   21.7567  -32.5812 H   0  0  0  0  0  0  0  0  0  0  0  0
   -7.8371   24.1151  -31.3752 H   0  0  0  0  0  0  0  0  0  0  0  0
   -3.2110   25.2850  -30.6780 H   0  0  0  0  0  0  0  0  0  0  0  0
   -4.3619   19.8968  -31.5070 H   0  0  0  0  0  0  0  0  0  0  0  0
  1  2  1  0
  2  3  2  0
  3  4  1  0
  4  5  2  0
  5  6  1  0
  6  7  2  0
  7  8  1  0
  8  9  1  0
  8 10  2  0
  7 11  1  0
 11 12  1  0
 12 13  2  0
 12 14  1  0
 14 15  1  0
 15 16  2  0
 15 17  1  0
 15 18  1  0
 11 19  1  0
 19 20  2  0
 20  2  1  0
 19  5  1  0
  1 21  1  0
  1 22  1  0
  1 23  1  0
  3 24  1  0
  4 25  1  0
  6 26  1  0
  9 27  1  0
 20 28  1  0
M  CHG  3   9  -1  17  -1  18  -1
M  END
>  <UniqueID>  (48) 
48

>  <SMILES>  (48) 
Cc1ccc2cc(C([NH-])=O)n(C(=O)OP(=O)([O-])[O-])c2c1

>  <Energy>  (48) 
64.29848925371395

>  <Genealogy>  (48) 
Cc1ccc2cc(C([NH-])=O)n(C(=O)OP(=O)([O-])[O-])c2c1 (protonated)
Cc1ccc2cc(C([NH-])=O)n(C(=O)OP(=O)([O-])[O-])c2c1 (3D coordinates assigned)
Cc1ccc2cc(C([NH-])=O)n(C(=O)OP(=O)([O-])[O-])c2c1 (optimized conformer: 64.29848925371395 kcal/mol)

>  <smiles>  (48) 
Cc1ccc2cc(C(N)=O)n(C(=O)OP(=O)(O)O)c2c1

>  <score_type>  (48) 
oracle

>  <origin>  (48) 
adg

>  <m_score__min__energy>  (48) 
-12.609999999999999

>  <m_primary>  (48) 
energy

$$$$
50:0
     RDKit          3D

 42 43  0  0  0  0  0  0  0  0999 V2000
   -7.2480   18.4200  -32.3940 C   0  0  0  0  0  0  0  0  0  0  0  0
   -7.3100   19.8920  -32.1100 C   0  0  0  0  0  0  0  0  0  0  0  0
   -8.5460   20.5780  -32.1930 C   0  0  0  0  0  0  0  0  0  0  0  0
   -8.6200   21.9520  -31.9080 C   0  0  0  0  0  0  0  0  0  0  0  0
   -7.4510   22.6030  -31.5220 C   0  0  0  0  0  0  0  0  0  0  0  0
   -7.2390   23.9270  -31.2180 C   0  0  0  0  0  0  0  0  0  0  0  0
   -5.8830   24.0210  -30.9120 C   0  0  0  0  0  0  0  0  0  0  0  0
   -5.2400   25.2710  -30.4550 C   0  0  0  0  0  0  0  0  0  0  0  0
   -3.9050   25.5680  -30.8540 N   0  0  0  0  0  0  0  0  0  0  0  0
   -5.8740   26.1000  -29.7500 O   0  0  0  0  0  0  0  0  0  0  0  0
   -5.2780   22.8040  -31.0270 N   0  0  0  0  0  0  0  0  0  0  0  0
   -3.8760   22.5120  -30.9020 C   0  0  0  0  0  0  0  0  0  0  0  0
   -3.0440   23.0490  -31.6820 O   0  0  0  0  0  0  0  0  0  0  0  0
   -3.4390   21.6450  -29.8990 O   0  0  0  0  0  0  0  0  0  0  0  0
   -2.0660   21.4460  -29.5830 C   0  0  0  0  0  0  0  0  0  0  0  0
   -1.5930   22.5240  -28.6040 C   0  0  0  0  0  0  0  0  0  0  0  0
   -1.2090   23.8380  -29.3060 C   0  0  0  0  0  0  0  0  0  0  0  0
   -1.9580   24.9910  -28.7570 N   0  0  0  0  0  0  0  0  0  0  0  0
   -3.0590   24.5500  -27.8850 C   0  0  0  0  0  0  0  0  0  0  0  0
   -1.0550   25.8740  -28.0020 C   0  0  0  0  0  0  0  0  0  0  0  0
   -6.2530   21.9450  -31.4030 C   0  0  0  0  0  0  0  0  0  0  0  0
   -6.1470   20.5810  -31.7020 C   0  0  0  0  0  0  0  0  0  0  0  0
   -7.2246   17.8642  -31.4451 H   0  0  0  0  0  0  0  0  0  0  0  0
   -8.1343   18.1205  -32.9726 H   0  0  0  0  0  0  0  0  0  0  0  0
   -6.3396   18.1961  -32.9726 H   0  0  0  0  0  0  0  0  0  0  0  0
   -9.4553   20.0310  -32.4828 H   0  0  0  0  0  0  0  0  0  0  0  0
   -9.5723   22.4968  -31.9874 H   0  0  0  0  0  0  0  0  0  0  0  0
   -7.9814   24.7387  -31.2167 H   0  0  0  0  0  0  0  0  0  0  0  0
   -3.1160   24.9310  -30.6010 H   0  0  0  0  0  0  0  0  0  0  0  0
   -1.9378   20.4549  -29.1234 H   0  0  0  0  0  0  0  0  0  0  0  0
   -1.4701   21.5091  -30.5055 H   0  0  0  0  0  0  0  0  0  0  0  0
   -2.4037   22.7307  -27.8899 H   0  0  0  0  0  0  0  0  0  0  0  0
   -0.6932   22.1422  -28.0995 H   0  0  0  0  0  0  0  0  0  0  0  0
   -0.1320   24.0143  -29.1683 H   0  0  0  0  0  0  0  0  0  0  0  0
   -1.4595   23.7428  -30.3729 H   0  0  0  0  0  0  0  0  0  0  0  0
   -2.7630   24.6686  -26.8322 H   0  0  0  0  0  0  0  0  0  0  0  0
   -3.9523   25.1597  -28.0856 H   0  0  0  0  0  0  0  0  0  0  0  0
   -3.2844   23.4922  -28.0856 H   0  0  0  0  0  0  0  0  0  0  0  0
   -1.2105   25.7220  -26.9237 H   0  0  0  0  0  0  0  0  0  0  0  0
   -0.0118   25.6379  -28.2589 H   0  0  0  0  0  0  0  0  0  0  0  0
   -1.2677   26.9222  -28.2589 H   0  0  0  0  0  0  0  0  0  0  0  0
   -5.1819   20.0594  -31.6210 H   0  0  0  0  0  0  0  0  0  0  0  0
  1  2  1  0
  2  3  2  0
  3  4  1  0
  4  5  2  0
  5  6  1  0
  6  7  2  0
  7  8  1  0
  8  9  1  0
  8 10  2  0
  7 11  1  0
 11 12  1  0
 12 13  2  0
 12 14  1  0
 14 15  1  0
 15 16  1  0
 16 17  1  0
 17 18  1  0
 18 19  1  0
 18 20  1  0
 11 21  1  0
 21 22  2  0
 22  2  1  0
 21  5  1  0
  1 23  1  0
  1 24  1  0
  1 25  1  0
  3 26  1  0
  4 27  1  0
  6 28  1  0
  9 29  1  0
 15 30  1  0
 15 31  1  0
 16 32  1  0
 16 33  1  0
 17 34  1  0
 17 35  1  0
 19 36  1  0
 19 37  1  0
 19 38  1  0
 20 39  1  0
 20 40  1  0
 20 41  1  0
 22 42  1  0
M  CHG  1   9  -1
M  END
>  <UniqueID>  (49) 
49

>  <SMILES>  (49) 
Cc1ccc2cc(C([NH-])=O)n(C(=O)OCCCN(C)C)c2c1

>  <Energy>  (49) 
73.50471121542874

>  <Genealogy>  (49) 
Cc1ccc2cc(C([NH-])=O)n(C(=O)OCCCN(C)C)c2c1 (protonated)
Cc1ccc2cc(C([NH-])=O)n(C(=O)OCCCN(C)C)c2c1 (3D coordinates assigned)
Cc1ccc2cc(C([NH-])=O)n(C(=O)OCCCN(C)C)c2c1 (optimized conformer: 73.50471121542874 kcal/mol)

>  <smiles>  (49) 
Cc1ccc2cc(C(N)=O)n(C(=O)OCCCN(C)C)c2c1

>  <score_type>  (49) 
oracle

>  <origin>  (49) 
adg

>  <m_score__min__energy>  (49) 
-9.9399999999999995

>  <m_primary>  (49) 
energy

$$$$
51:0
     RDKit          3D

 33 34  0  0  0  0  0  0  0  0999 V2000
   -5.3340   24.4610  -29.3360 N   0  0  0  0  0  0  0  0  0  0  0  0
   -6.5680   24.2470  -30.0230 C   0  0  0  0  0  0  0  0  0  0  0  0
   -7.4340   25.1620  -30.0360 O   0  0  0  0  0  0  0  0  0  0  0  0
   -6.8730   22.9510  -30.6610 C   0  0  0  0  0  0  0  0  0  0  0  0
   -8.1400   22.3770  -30.6590 C   0  0  0  0  0  0  0  0  0  0  0  0
   -7.9910   21.1660  -31.2930 C   0  0  0  0  0  0  0  0  0  0  0  0
   -8.9370   20.1830  -31.5750 C   0  0  0  0  0  0  0  0  0  0  0  0
   -8.5120   19.0440  -32.2770 C   0  0  0  0  0  0  0  0  0  0  0  0
   -7.1650   18.9160  -32.6990 C   0  0  0  0  0  0  0  0  0  0  0  0
   -6.7210   17.6830  -33.4270 C   0  0  0  0  0  0  0  0  0  0  0  0
   -6.0720   18.0450  -34.5940 F   0  0  0  0  0  0  0  0  0  0  0  0
   -6.2310   19.9260  -32.3820 C   0  0  0  0  0  0  0  0  0  0  0  0
   -6.6760   21.0430  -31.6630 C   0  0  0  0  0  0  0  0  0  0  0  0
   -5.9750   22.1360  -31.2830 N   0  0  0  0  0  0  0  0  0  0  0  0
   -4.6030   22.4350  -31.5960 C   0  0  0  0  0  0  0  0  0  0  0  0
   -4.2620   22.6730  -32.7860 O   0  0  0  0  0  0  0  0  0  0  0  0
   -3.6500   22.4600  -30.5730 O   0  0  0  0  0  0  0  0  0  0  0  0
   -2.2980   22.8520  -30.7870 C   0  0  0  0  0  0  0  0  0  0  0  0
   -1.7390   23.3330  -29.5870 O   0  0  0  0  0  0  0  0  0  0  0  0
   -2.4500   24.8370  -29.2040 P   0  0  0  0  0  0  0  0  0  0  0  0
   -3.2600   24.7170  -27.9330 O   0  0  0  0  0  0  0  0  0  0  0  0
   -1.2610   26.0270  -29.0080 O   0  0  0  0  0  0  0  0  0  0  0  0
   -3.4750   25.2930  -30.4690 O   0  0  0  0  0  0  0  0  0  0  0  0
   -4.6680   23.6760  -29.1680 H   0  0  0  0  0  0  0  0  0  0  0  0
   -5.1180   25.3970  -28.9260 H   0  0  0  0  0  0  0  0  0  0  0  0
   -9.0641   22.8014  -30.2396 H   0  0  0  0  0  0  0  0  0  0  0  0
   -9.9841   20.2958  -31.2576 H   0  0  0  0  0  0  0  0  0  0  0  0
   -9.2315   18.2429  -32.5018 H   0  0  0  0  0  0  0  0  0  0  0  0
   -6.0342   17.1077  -32.7888 H   0  0  0  0  0  0  0  0  0  0  0  0
   -7.5980   17.0658  -33.6715 H   0  0  0  0  0  0  0  0  0  0  0  0
   -5.1793   19.8381  -32.6920 H   0  0  0  0  0  0  0  0  0  0  0  0
   -1.7185   21.9848  -31.1367 H   0  0  0  0  0  0  0  0  0  0  0  0
   -2.2694   23.6501  -31.5434 H   0  0  0  0  0  0  0  0  0  0  0  0
  1  2  1  0
  2  3  2  0
  2  4  1  0
  4  5  2  0
  5  6  1  0
  6  7  2  0
  7  8  1  0
  8  9  2  0
  9 10  1  0
 10 11  1  0
  9 12  1  0
 12 13  2  0
 13 14  1  0
 14 15  1  0
 15 16  2  0
 15 17  1  0
 17 18  1  0
 18 19  1  0
 19 20  1  0
 20 21  2  0
 20 22  1  0
 20 23  1  0
 14  4  1  0
 13  6  1  0
  1 24  1  0
  1 25  1  0
  5 26  1  0
  7 27  1  0
  8 28  1  0
 10 29  1  0
 10 30  1  0
 12 31  1  0
 18 32  1  0
 18 33  1  0
M  CHG  2  22  -1  23  -1
M  END
>  <UniqueID>  (50) 
50

>  <SMILES>  (50) 
NC(=O)c1cc2ccc(CF)cc2n1C(=O)OCOP(=O)([O-])[O-]

>  <Energy>  (50) 
69.59905727969239

>  <Genealogy>  (50) 
NC(=O)c1cc2ccc(CF)cc2n1C(=O)OCOP(=O)([O-])[O-] (protonated)
NC(=O)c1cc2ccc(CF)cc2n1C(=O)OCOP(=O)([O-])[O-] (3D coordinates assigned)
NC(=O)c1cc2ccc(CF)cc2n1C(=O)OCOP(=O)([O-])[O-] (optimized conformer: 69.59905727969239 kcal/mol)

>  <smiles>  (50) 
NC(=O)c1cc2ccc(CF)cc2n1C(=O)OCOP(=O)(O)O

>  <score_type>  (50) 
oracle

>  <origin>  (50) 
adg

>  <m_score__min__energy>  (50) 
-12.119999999999999

>  <m_primary>  (50) 
energy

$$$$
52:0
     RDKit          3D

 44 45  0  0  0  0  0  0  0  0999 V2000
   -3.9340   25.6700  -30.8990 N   0  0  0  0  0  0  0  0  0  0  0  0
   -5.2310   25.2620  -30.4690 C   0  0  0  0  0  0  0  0  0  0  0  0
   -5.9250   26.0480  -29.7720 O   0  0  0  0  0  0  0  0  0  0  0  0
   -5.7270   23.9110  -30.8100 C   0  0  0  0  0  0  0  0  0  0  0  0
   -7.0610   23.6380  -31.1090 C   0  0  0  0  0  0  0  0  0  0  0  0
   -7.0920   22.3040  -31.4490 C   0  0  0  0  0  0  0  0  0  0  0  0
   -8.1670   21.4960  -31.8100 C   0  0  0  0  0  0  0  0  0  0  0  0
   -7.9100   20.1410  -32.0750 C   0  0  0  0  0  0  0  0  0  0  0  0
   -6.5960   19.6250  -31.9850 C   0  0  0  0  0  0  0  0  0  0  0  0
   -6.3710   18.2290  -32.2330 N   0  0  0  0  0  0  0  0  0  0  0  0
   -5.5890   17.6670  -33.3550 C   0  0  0  0  0  0  0  0  0  0  0  0
   -5.8210   16.1400  -33.5560 C   0  0  0  0  0  0  0  0  0  0  0  0
   -4.9820   15.6270  -34.5550 O   0  0  0  0  0  0  0  0  0  0  0  0
   -4.0820   17.9290  -33.0900 C   0  0  0  0  0  0  0  0  0  0  0  0
   -3.2940   17.5780  -34.1980 O   0  0  0  0  0  0  0  0  0  0  0  0
   -5.9830   18.4150  -34.6500 C   0  0  0  0  0  0  0  0  0  0  0  0
   -5.3490   17.8490  -35.7640 O   0  0  0  0  0  0  0  0  0  0  0  0
   -5.5360   20.4670  -31.5900 C   0  0  0  0  0  0  0  0  0  0  0  0
   -5.8140   21.8170  -31.3510 C   0  0  0  0  0  0  0  0  0  0  0  0
   -4.9650   22.7900  -30.9530 N   0  0  0  0  0  0  0  0  0  0  0  0
   -3.5660   22.6290  -30.6720 C   0  0  0  0  0  0  0  0  0  0  0  0
   -2.8650   21.8550  -31.3790 O   0  0  0  0  0  0  0  0  0  0  0  0
   -2.9780   23.3550  -29.6310 O   0  0  0  0  0  0  0  0  0  0  0  0
   -1.6250   23.1660  -29.2310 C   0  0  0  0  0  0  0  0  0  0  0  0
   -0.9620   24.4880  -29.0160 C   0  0  0  0  0  0  0  0  0  0  0  0
    0.2230   24.5340  -28.5920 O   0  0  0  0  0  0  0  0  0  0  0  0
   -1.6210   25.6680  -29.3400 O   0  0  0  0  0  0  0  0  0  0  0  0
   -3.0740   25.2820  -30.4510 H   0  0  0  0  0  0  0  0  0  0  0  0
   -7.9083   24.3389  -31.0796 H   0  0  0  0  0  0  0  0  0  0  0  0
   -9.1850   21.9059  -31.8852 H   0  0  0  0  0  0  0  0  0  0  0  0
   -8.7388   19.4743  -32.3554 H   0  0  0  0  0  0  0  0  0  0  0  0
   -6.9100   17.5580  -31.6370 H   0  0  0  0  0  0  0  0  0  0  0  0
   -5.6136   15.6180  -32.6102 H   0  0  0  0  0  0  0  0  0  0  0  0
   -6.8654   15.9839  -33.8642 H   0  0  0  0  0  0  0  0  0  0  0  0
   -4.8570   16.3570  -35.2160 H   0  0  0  0  0  0  0  0  0  0  0  0
   -3.9381   18.9979  -32.8738 H   0  0  0  0  0  0  0  0  0  0  0  0
   -3.7700   17.3101  -32.2358 H   0  0  0  0  0  0  0  0  0  0  0  0
   -3.7370   16.8040  -34.6330 H   0  0  0  0  0  0  0  0  0  0  0  0
   -7.0729   18.3527  -34.7850 H   0  0  0  0  0  0  0  0  0  0  0  0
   -5.6676   19.4650  -34.5605 H   0  0  0  0  0  0  0  0  0  0  0  0
   -4.4380   17.5940  -35.4650 H   0  0  0  0  0  0  0  0  0  0  0  0
   -4.5160   20.0721  -31.4727 H   0  0  0  0  0  0  0  0  0  0  0  0
   -1.5999   22.5901  -28.2941 H   0  0  0  0  0  0  0  0  0  0  0  0
   -1.0895   22.6197  -30.0215 H   0  0  0  0  0  0  0  0  0  0  0  0
  1  2  1  0
  2  3  2  0
  2  4  1  0
  4  5  2  0
  5  6  1  0
  6  7  2  0
  7  8  1  0
  8  9  2  0
  9 10  1  0
 10 11  1  0
 11 12  1  0
 12 13  1  0
 11 14  1  0
 14 15  1  0
 11 16  1  0
 16 17  1  0
  9 18  1  0
 18 19  2  0
 19 20  1  0
 20 21  1  0
 21 22  2  0
 21 23  1  0
 23 24  1  0
 24 25  1  0
 25 26  2  0
 25 27  1  0
 20  4  1  0
 19  6  1  0
  1 28  1  0
  5 29  1  0
  7 30  1  0
  8 31  1  0
 10 32  1  0
 12 33  1  0
 12 34  1  0
 13 35  1  0
 14 36  1  0
 14 37  1  0
 15 38  1  0
 16 39  1  0
 16 40  1  0
 17 41  1  0
 18 42  1  0
 24 43  1  0
 24 44  1  0
M  CHG  2   1  -1  27  -1
M  END
>  <UniqueID>  (51) 
51

>  <SMILES>  (51) 
[NH-]C(=O)c1cc2ccc(NC(CO)(CO)CO)cc2n1C(=O)OCC(=O)[O-]

>  <Energy>  (51) 
84.52049706392219

>  <Genealogy>  (51) 
[NH-]C(=O)c1cc2ccc(NC(CO)(CO)CO)cc2n1C(=O)OCC(=O)[O-] (protonated)
[NH-]C(=O)c1cc2ccc(NC(CO)(CO)CO)cc2n1C(=O)OCC(=O)[O-] (3D coordinates assigned)
[NH-]C(=O)c1cc2ccc(NC(CO)(CO)CO)cc2n1C(=O)OCC(=O)[O-] (optimized conformer: 84.52049706392219 kcal/mol)

>  <smiles>  (51) 
NC(=O)c1cc2ccc(NC(CO)(CO)CO)cc2n1C(=O)OCC(=O)O

>  <score_type>  (51) 
oracle

>  <origin>  (51) 
adg

>  <m_score__min__energy>  (51) 
-10.83

>  <m_primary>  (51) 
energy

$$$$
53:0
     RDKit          3D

 32 33  0  0  0  0  0  0  0  0999 V2000
   -6.9420   18.5510  -33.0450 C   0  0  0  0  0  0  0  0  0  0  0  0
   -7.0860   19.9500  -32.5240 C   0  0  0  0  0  0  0  0  0  0  0  0
   -8.3720   20.4660  -32.2260 C   0  0  0  0  0  0  0  0  0  0  0  0
   -8.5170   21.7580  -31.6920 C   0  0  0  0  0  0  0  0  0  0  0  0
   -7.3640   22.5030  -31.4640 C   0  0  0  0  0  0  0  0  0  0  0  0
   -7.2150   23.7620  -30.9280 C   0  0  0  0  0  0  0  0  0  0  0  0
   -5.8420   23.9980  -30.9130 C   0  0  0  0  0  0  0  0  0  0  0  0
   -5.2400   25.2780  -30.4860 C   0  0  0  0  0  0  0  0  0  0  0  0
   -3.9320   25.6290  -30.9300 N   0  0  0  0  0  0  0  0  0  0  0  0
   -5.8540   26.0500  -29.7030 O   0  0  0  0  0  0  0  0  0  0  0  0
   -5.1680   22.9250  -31.4150 N   0  0  0  0  0  0  0  0  0  0  0  0
   -3.7460   22.7410  -31.4970 C   0  0  0  0  0  0  0  0  0  0  0  0
   -3.2470   22.1410  -32.4880 O   0  0  0  0  0  0  0  0  0  0  0  0
   -2.9230   23.2160  -30.4690 O   0  0  0  0  0  0  0  0  0  0  0  0
   -3.2670   23.1520  -29.0860 C   0  0  0  0  0  0  0  0  0  0  0  0
   -2.6350   24.3080  -28.3150 C   0  0  0  0  0  0  0  0  0  0  0  0
   -1.9770   25.1760  -29.1950 O   0  0  0  0  0  0  0  0  0  0  0  0
   -6.1130   22.0200  -31.7500 C   0  0  0  0  0  0  0  0  0  0  0  0
   -5.9380   20.7290  -32.2650 C   0  0  0  0  0  0  0  0  0  0  0  0
   -6.8699   17.8506  -32.1999 H   0  0  0  0  0  0  0  0  0  0  0  0
   -7.8187   18.2962  -33.6586 H   0  0  0  0  0  0  0  0  0  0  0  0
   -6.0318   18.4801  -33.6586 H   0  0  0  0  0  0  0  0  0  0  0  0
   -9.2639   19.8503  -32.4142 H   0  0  0  0  0  0  0  0  0  0  0  0
   -9.5115   22.1677  -31.4614 H   0  0  0  0  0  0  0  0  0  0  0  0
   -8.0113   24.4385  -30.5843 H   0  0  0  0  0  0  0  0  0  0  0  0
   -3.0840   25.2930  -30.4210 H   0  0  0  0  0  0  0  0  0  0  0  0
   -4.3609   23.2060  -28.9838 H   0  0  0  0  0  0  0  0  0  0  0  0
   -2.8895   22.2050  -28.6727 H   0  0  0  0  0  0  0  0  0  0  0  0
   -3.4215   24.8607  -27.7803 H   0  0  0  0  0  0  0  0  0  0  0  0
   -1.9052   23.9038  -27.5981 H   0  0  0  0  0  0  0  0  0  0  0  0
   -2.0530   24.7650  -30.0950 H   0  0  0  0  0  0  0  0  0  0  0  0
   -4.9312   20.3324  -32.4625 H   0  0  0  0  0  0  0  0  0  0  0  0
  1  2  1  0
  2  3  2  0
  3  4  1  0
  4  5  2  0
  5  6  1  0
  6  7  2  0
  7  8  1  0
  8  9  1  0
  8 10  2  0
  7 11  1  0
 11 12  1  0
 12 13  2  0
 12 14  1  0
 14 15  1  0
 15 16  1  0
 16 17  1  0
 11 18  1  0
 18 19  2  0
 19  2  1  0
 18  5  1  0
  1 20  1  0
  1 21  1  0
  1 22  1  0
  3 23  1  0
  4 24  1  0
  6 25  1  0
  9 26  1  0
 15 27  1  0
 15 28  1  0
 16 29  1  0
 16 30  1  0
 17 31  1  0
 19 32  1  0
M  CHG  1   9  -1
M  END
>  <UniqueID>  (52) 
52

>  <SMILES>  (52) 
Cc1ccc2cc(C([NH-])=O)n(C(=O)OCCO)c2c1

>  <Energy>  (52) 
66.8470754796597

>  <Genealogy>  (52) 
Cc1ccc2cc(C([NH-])=O)n(C(=O)OCCO)c2c1 (protonated)
Cc1ccc2cc(C([NH-])=O)n(C(=O)OCCO)c2c1 (3D coordinates assigned)
Cc1ccc2cc(C([NH-])=O)n(C(=O)OCCO)c2c1 (optimized conformer: 66.8470754796597 kcal/mol)

>  <smiles>  (52) 
Cc1ccc2cc(C(N)=O)n(C(=O)OCCO)c2c1

>  <score_type>  (52) 
oracle

>  <origin>  (52) 
adg

>  <m_score__min__energy>  (52) 
-9.8499999999999996

>  <m_primary>  (52) 
energy

$$$$
54:0
     RDKit          3D

 30 31  0  0  0  0  0  0  0  0999 V2000
   -6.8970   25.8990  -28.9600 N   0  0  0  0  0  0  0  0  0  0  0  0
   -6.0460   25.5480  -30.0520 C   0  0  0  0  0  0  0  0  0  0  0  0
   -5.2620   26.4140  -30.5250 O   0  0  0  0  0  0  0  0  0  0  0  0
   -6.1050   24.2090  -30.6720 C   0  0  0  0  0  0  0  0  0  0  0  0
   -7.2580   23.6730  -31.2420 C   0  0  0  0  0  0  0  0  0  0  0  0
   -6.8970   22.4180  -31.6800 C   0  0  0  0  0  0  0  0  0  0  0  0
   -7.6440   21.4560  -32.3520 C   0  0  0  0  0  0  0  0  0  0  0  0
   -6.9970   20.2690  -32.7380 C   0  0  0  0  0  0  0  0  0  0  0  0
   -5.6210   20.0730  -32.4550 C   0  0  0  0  0  0  0  0  0  0  0  0
   -4.9230   18.8220  -32.9070 C   0  0  0  0  0  0  0  0  0  0  0  0
   -5.0380   18.6900  -34.2790 F   0  0  0  0  0  0  0  0  0  0  0  0
   -5.4950   17.7240  -32.2930 F   0  0  0  0  0  0  0  0  0  0  0  0
   -4.8930   21.0780  -31.7800 C   0  0  0  0  0  0  0  0  0  0  0  0
   -5.5710   22.2350  -31.3810 C   0  0  0  0  0  0  0  0  0  0  0  0
   -5.0720   23.3250  -30.7590 N   0  0  0  0  0  0  0  0  0  0  0  0
   -3.7010   23.5490  -30.3960 C   0  0  0  0  0  0  0  0  0  0  0  0
   -2.7950   22.8380  -30.9110 O   0  0  0  0  0  0  0  0  0  0  0  0
   -3.3620   24.5890  -29.4720 N   0  0  0  0  0  0  0  0  0  0  0  0
   -1.7110   24.8470  -28.9380 P   0  0  0  0  0  0  0  0  0  0  0  0
   -1.6270   24.6340  -27.4440 O   0  0  0  0  0  0  0  0  0  0  0  0
   -0.6860   23.7530  -29.7210 O   0  0  0  0  0  0  0  0  0  0  0  0
   -1.2380   26.4270  -29.3080 O   0  0  0  0  0  0  0  0  0  0  0  0
   -7.6870   25.2830  -28.6700 H   0  0  0  0  0  0  0  0  0  0  0  0
   -6.7980   26.8320  -28.5000 H   0  0  0  0  0  0  0  0  0  0  0  0
   -8.2456   24.1502  -31.3246 H   0  0  0  0  0  0  0  0  0  0  0  0
   -8.7088   21.6191  -32.5747 H   0  0  0  0  0  0  0  0  0  0  0  0
   -7.5626   19.4857  -33.2639 H   0  0  0  0  0  0  0  0  0  0  0  0
   -3.8593   18.8852  -32.6341 H   0  0  0  0  0  0  0  0  0  0  0  0
   -3.8197   20.9540  -31.5732 H   0  0  0  0  0  0  0  0  0  0  0  0
   -4.1050   25.2380  -29.1290 H   0  0  0  0  0  0  0  0  0  0  0  0
  1  2  1  0
  2  3  2  0
  2  4  1  0
  4  5  2  0
  5  6  1  0
  6  7  2  0
  7  8  1  0
  8  9  2  0
  9 10  1  0
 10 11  1  0
 10 12  1  0
  9 13  1  0
 13 14  2  0
 14 15  1  0
 15 16  1  0
 16 17  2  0
 16 18  1  0
 18 19  1  0
 19 20  2  0
 19 21  1  0
 19 22  1  0
 15  4  1  0
 14  6  1  0
  1 23  1  0
  1 24  1  0
  5 25  1  0
  7 26  1  0
  8 27  1  0
 10 28  1  0
 13 29  1  0
 18 30  1  0
M  CHG  2  21  -1  22  -1
M  END
>  <UniqueID>  (53) 
53

>  <SMILES>  (53) 
NC(=O)c1cc2ccc(C(F)F)cc2n1C(=O)NP(=O)([O-])[O-]

>  <Energy>  (53) 
66.2710296237997

>  <Genealogy>  (53) 
NC(=O)c1cc2ccc(C(F)F)cc2n1C(=O)NP(=O)([O-])[O-] (protonated)
NC(=O)c1cc2ccc(C(F)F)cc2n1C(=O)NP(=O)([O-])[O-] (3D coordinates assigned)
NC(=O)c1cc2ccc(C(F)F)cc2n1C(=O)NP(=O)([O-])[O-] (optimized conformer: 66.2710296237997 kcal/mol)

>  <smiles>  (53) 
NC(=O)c1cc2ccc(C(F)F)cc2n1C(=O)NP(=O)(O)O

>  <score_type>  (53) 
oracle

>  <origin>  (53) 
adg

>  <m_score__min__energy>  (53) 
-11.630000000000001

>  <m_primary>  (53) 
energy

$$$$
55:0
     RDKit          3D

 32 33  0  0  0  0  0  0  0  0999 V2000
   -3.8920   25.4800  -30.8750 N   0  0  0  0  0  0  0  0  0  0  0  0
   -5.2300   25.2140  -30.4610 C   0  0  0  0  0  0  0  0  0  0  0  0
   -5.8930   26.1240  -29.8960 O   0  0  0  0  0  0  0  0  0  0  0  0
   -5.8650   23.9100  -30.7390 C   0  0  0  0  0  0  0  0  0  0  0  0
   -7.2130   23.6490  -30.5030 C   0  0  0  0  0  0  0  0  0  0  0  0
   -7.4250   22.3710  -30.9680 C   0  0  0  0  0  0  0  0  0  0  0  0
   -8.5860   21.6050  -30.9830 C   0  0  0  0  0  0  0  0  0  0  0  0
   -8.5100   20.3030  -31.5040 C   0  0  0  0  0  0  0  0  0  0  0  0
   -7.2780   19.7800  -31.9750 C   0  0  0  0  0  0  0  0  0  0  0  0
   -7.2180   18.3950  -32.5650 C   0  0  0  0  0  0  0  0  0  0  0  0
   -8.4410   17.7580  -32.4460 F   0  0  0  0  0  0  0  0  0  0  0  0
   -6.8860   18.4850  -33.9040 F   0  0  0  0  0  0  0  0  0  0  0  0
   -6.2660   17.6280  -31.9150 F   0  0  0  0  0  0  0  0  0  0  0  0
   -6.1250   20.6000  -31.9640 C   0  0  0  0  0  0  0  0  0  0  0  0
   -6.2340   21.9000  -31.4570 C   0  0  0  0  0  0  0  0  0  0  0  0
   -5.2650   22.8340  -31.3220 N   0  0  0  0  0  0  0  0  0  0  0  0
   -3.8710   22.6680  -31.6270 C   0  0  0  0  0  0  0  0  0  0  0  0
   -3.5240   22.0570  -32.6750 O   0  0  0  0  0  0  0  0  0  0  0  0
   -2.9060   23.1660  -30.7490 O   0  0  0  0  0  0  0  0  0  0  0  0
   -2.8470   22.7940  -29.3750 C   0  0  0  0  0  0  0  0  0  0  0  0
   -2.8520   23.9440  -28.5620 O   0  0  0  0  0  0  0  0  0  0  0  0
   -1.2790   24.6070  -28.5250 P   0  0  0  0  0  0  0  0  0  0  0  0
   -0.8380   24.8140  -27.0930 O   0  0  0  0  0  0  0  0  0  0  0  0
   -0.2150   23.5280  -29.2770 O   0  0  0  0  0  0  0  0  0  0  0  0
   -1.2320   26.0850  -29.3500 O   0  0  0  0  0  0  0  0  0  0  0  0
   -3.0840   25.2740  -30.2460 H   0  0  0  0  0  0  0  0  0  0  0  0
   -7.9515   24.3218  -30.0426 H   0  0  0  0  0  0  0  0  0  0  0  0
   -9.5350   22.0069  -30.5984 H   0  0  0  0  0  0  0  0  0  0  0  0
   -9.4164   19.6813  -31.5474 H   0  0  0  0  0  0  0  0  0  0  0  0
   -5.1642   20.2241  -32.3455 H   0  0  0  0  0  0  0  0  0  0  0  0
   -3.7193   22.1706  -29.1290 H   0  0  0  0  0  0  0  0  0  0  0  0
   -1.9206   22.2291  -29.1942 H   0  0  0  0  0  0  0  0  0  0  0  0
  1  2  1  0
  2  3  2  0
  2  4  1  0
  4  5  2  0
  5  6  1  0
  6  7  2  0
  7  8  1  0
  8  9  2  0
  9 10  1  0
 10 11  1  0
 10 12  1  0
 10 13  1  0
  9 14  1  0
 14 15  2  0
 15 16  1  0
 16 17  1  0
 17 18  2  0
 17 19  1  0
 19 20  1  0
 20 21  1  0
 21 22  1  0
 22 23  2  0
 22 24  1  0
 22 25  1  0
 16  4  1  0
 15  6  1  0
  1 26  1  0
  5 27  1  0
  7 28  1  0
  8 29  1  0
 14 30  1  0
 20 31  1  0
 20 32  1  0
M  CHG  3   1  -1  24  -1  25  -1
M  END
>  <UniqueID>  (54) 
54

>  <SMILES>  (54) 
[NH-]C(=O)c1cc2ccc(C(F)(F)F)cc2n1C(=O)OCOP(=O)([O-])[O-]

>  <Energy>  (54) 
70.12476114229742

>  <Genealogy>  (54) 
[NH-]C(=O)c1cc2ccc(C(F)(F)F)cc2n1C(=O)OCOP(=O)([O-])[O-] (protonated)
[NH-]C(=O)c1cc2ccc(C(F)(F)F)cc2n1C(=O)OCOP(=O)([O-])[O-] (3D coordinates assigned)
[NH-]C(=O)c1cc2ccc(C(F)(F)F)cc2n1C(=O)OCOP(=O)([O-])[O-] (optimized conformer: 70.12476114229742 kcal/mol)

>  <smiles>  (54) 
NC(=O)c1cc2ccc(C(F)(F)F)cc2n1C(=O)OCOP(=O)(O)O

>  <score_type>  (54) 
oracle

>  <origin>  (54) 
adg

>  <m_score__min__energy>  (54) 
-13.33

>  <m_primary>  (54) 
energy

$$$$
56:0
     RDKit          3D

 42 43  0  0  0  0  0  0  0  0999 V2000
   -7.3180   18.3170  -32.4750 C   0  0  0  0  0  0  0  0  0  0  0  0
   -7.3830   19.7890  -32.2000 C   0  0  0  0  0  0  0  0  0  0  0  0
   -8.6300   20.4660  -32.2300 C   0  0  0  0  0  0  0  0  0  0  0  0
   -8.7050   21.8400  -31.9430 C   0  0  0  0  0  0  0  0  0  0  0  0
   -7.5250   22.5060  -31.6180 C   0  0  0  0  0  0  0  0  0  0  0  0
   -7.3080   23.8300  -31.3140 C   0  0  0  0  0  0  0  0  0  0  0  0
   -5.9410   23.9320  -31.0640 C   0  0  0  0  0  0  0  0  0  0  0  0
   -5.2780   25.1840  -30.6340 C   0  0  0  0  0  0  0  0  0  0  0  0
   -3.8830   25.3850  -30.8370 N   0  0  0  0  0  0  0  0  0  0  0  0
   -5.9510   26.0780  -30.0530 O   0  0  0  0  0  0  0  0  0  0  0  0
   -5.3370   22.7170  -31.2110 N   0  0  0  0  0  0  0  0  0  0  0  0
   -3.9450   22.4020  -31.0690 C   0  0  0  0  0  0  0  0  0  0  0  0
   -3.3030   21.9500  -32.0550 O   0  0  0  0  0  0  0  0  0  0  0  0
   -3.2580   22.6130  -29.7870 C   0  0  0  0  0  0  0  0  0  0  0  0
   -3.7300   23.4350  -28.9550 O   0  0  0  0  0  0  0  0  0  0  0  0
   -2.0730   21.9190  -29.5130 O   0  0  0  0  0  0  0  0  0  0  0  0
   -1.8450   21.2080  -28.2990 C   0  0  0  0  0  0  0  0  0  0  0  0
   -0.6700   21.8000  -27.5660 C   0  0  0  0  0  0  0  0  0  0  0  0
    0.4320   21.1880  -27.6240 O   0  0  0  0  0  0  0  0  0  0  0  0
   -0.7480   23.0540  -26.8490 N   0  0  0  0  0  0  0  0  0  0  0  0
   -0.0110   23.1880  -25.5870 C   0  0  0  0  0  0  0  0  0  0  0  0
   -1.6040   24.1590  -27.3050 C   0  0  0  0  0  0  0  0  0  0  0  0
   -0.9440   24.9320  -28.4070 C   0  0  0  0  0  0  0  0  0  0  0  0
    0.1600   24.5420  -28.8710 O   0  0  0  0  0  0  0  0  0  0  0  0
   -1.5650   26.0460  -28.9620 O   0  0  0  0  0  0  0  0  0  0  0  0
   -6.3200   21.8570  -31.5530 C   0  0  0  0  0  0  0  0  0  0  0  0
   -6.2110   20.4930  -31.8500 C   0  0  0  0  0  0  0  0  0  0  0  0
   -7.2937   17.7668  -31.5228 H   0  0  0  0  0  0  0  0  0  0  0  0
   -8.2036   18.0123  -33.0520 H   0  0  0  0  0  0  0  0  0  0  0  0
   -6.4090   18.0916  -33.0520 H   0  0  0  0  0  0  0  0  0  0  0  0
   -9.5459   19.9106  -32.4801 H   0  0  0  0  0  0  0  0  0  0  0  0
   -9.6665   22.3735  -31.9740 H   0  0  0  0  0  0  0  0  0  0  0  0
   -8.0549   24.6367  -31.2763 H   0  0  0  0  0  0  0  0  0  0  0  0
   -3.2040   25.2840  -30.0480 H   0  0  0  0  0  0  0  0  0  0  0  0
   -2.7410   21.2747  -27.6644 H   0  0  0  0  0  0  0  0  0  0  0  0
   -1.6301   20.1549  -28.5332 H   0  0  0  0  0  0  0  0  0  0  0  0
   -0.7043   23.0619  -24.7423 H   0  0  0  0  0  0  0  0  0  0  0  0
    0.7725   22.4176  -25.5364 H   0  0  0  0  0  0  0  0  0  0  0  0
    0.4512   24.1849  -25.5364 H   0  0  0  0  0  0  0  0  0  0  0  0
   -2.5553   23.7481  -27.6739 H   0  0  0  0  0  0  0  0  0  0  0  0
   -1.7796   24.8382  -26.4577 H   0  0  0  0  0  0  0  0  0  0  0  0
   -5.2370   19.9833  -31.8115 H   0  0  0  0  0  0  0  0  0  0  0  0
  1  2  1  0
  2  3  2  0
  3  4  1  0
  4  5  2  0
  5  6  1  0
  6  7  2  0
  7  8  1  0
  8  9  1  0
  8 10  2  0
  7 11  1  0
 11 12  1  0
 12 13  2  0
 12 14  1  0
 14 15  2  0
 14 16  1  0
 16 17  1  0
 17 18  1  0
 18 19  2  0
 18 20  1  0
 20 21  1  0
 20 22  1  0
 22 23  1  0
 23 24  2  0
 23 25  1  0
 11 26  1  0
 26 27  2  0
 27  2  1  0
 26  5  1  0
  1 28  1  0
  1 29  1  0
  1 30  1  0
  3 31  1  0
  4 32  1  0
  6 33  1  0
  9 34  1  0
 17 35  1  0
 17 36  1  0
 21 37  1  0
 21 38  1  0
 21 39  1  0
 22 40  1  0
 22 41  1  0
 27 42  1  0
M  CHG  2   9  -1  25  -1
M  END
>  <UniqueID>  (55) 
55

>  <SMILES>  (55) 
Cc1ccc2cc(C([NH-])=O)n(C(=O)C(=O)OCC(=O)N(C)CC(=O)[O-])c2c1

>  <Energy>  (55) 
78.13970307300258

>  <Genealogy>  (55) 
Cc1ccc2cc(C([NH-])=O)n(C(=O)C(=O)OCC(=O)N(C)CC(=O)[O-])c2c1 (protonated)
Cc1ccc2cc(C([NH-])=O)n(C(=O)C(=O)OCC(=O)N(C)CC(=O)[O-])c2c1 (3D coordinates assigned)
Cc1ccc2cc(C([NH-])=O)n(C(=O)C(=O)OCC(=O)N(C)CC(=O)[O-])c2c1 (optimized conformer: 78.13970307300258 kcal/mol)

>  <smiles>  (55) 
Cc1ccc2cc(C(N)=O)n(C(=O)C(=O)OCC(=O)N(C)CC(=O)O)c2c1

>  <score_type>  (55) 
oracle

>  <origin>  (55) 
adg

>  <m_score__min__energy>  (55) 
-12.210000000000001

>  <m_primary>  (55) 
energy

$$$$
57:0
     RDKit          3D

 40 41  0  0  0  0  0  0  0  0999 V2000
   -6.7230   18.5390  -33.2580 C   0  0  0  0  0  0  0  0  0  0  0  0
   -6.9750   19.8690  -32.6120 C   0  0  0  0  0  0  0  0  0  0  0  0
   -8.3000   20.3590  -32.5010 C   0  0  0  0  0  0  0  0  0  0  0  0
   -8.5510   21.6240  -31.9430 C   0  0  0  0  0  0  0  0  0  0  0  0
   -7.4600   22.3730  -31.5080 C   0  0  0  0  0  0  0  0  0  0  0  0
   -7.4170   23.6360  -30.9650 C   0  0  0  0  0  0  0  0  0  0  0  0
   -6.0670   23.8920  -30.7390 C   0  0  0  0  0  0  0  0  0  0  0  0
   -5.5690   25.1240  -30.0950 C   0  0  0  0  0  0  0  0  0  0  0  0
   -6.2350   25.6880  -28.9650 N   0  0  0  0  0  0  0  0  0  0  0  0
   -4.5740   25.7200  -30.5860 O   0  0  0  0  0  0  0  0  0  0  0  0
   -5.3020   22.8360  -31.1380 N   0  0  0  0  0  0  0  0  0  0  0  0
   -3.8680   22.7640  -31.1800 C   0  0  0  0  0  0  0  0  0  0  0  0
   -3.3030   21.9480  -31.9570 O   0  0  0  0  0  0  0  0  0  0  0  0
   -3.0890   23.6330  -30.3440 N   0  0  0  0  0  0  0  0  0  0  0  0
   -2.4260   23.2920  -29.0800 C   0  0  0  0  0  0  0  0  0  0  0  0
   -1.6550   21.9650  -29.2380 C   0  0  0  0  0  0  0  0  0  0  0  0
   -1.4150   24.4190  -28.7700 C   0  0  0  0  0  0  0  0  0  0  0  0
   -2.0120   25.6750  -28.9540 O   0  0  0  0  0  0  0  0  0  0  0  0
   -3.4760   23.1790  -27.9450 C   0  0  0  0  0  0  0  0  0  0  0  0
   -4.1960   24.3750  -27.7930 O   0  0  0  0  0  0  0  0  0  0  0  0
   -6.1710   21.9110  -31.6040 C   0  0  0  0  0  0  0  0  0  0  0  0
   -5.8920   20.6640  -32.1770 C   0  0  0  0  0  0  0  0  0  0  0  0
   -6.5782   17.7750  -32.4799 H   0  0  0  0  0  0  0  0  0  0  0  0
   -7.5854   18.2661  -33.8839 H   0  0  0  0  0  0  0  0  0  0  0  0
   -5.8205   18.6005  -33.8839 H   0  0  0  0  0  0  0  0  0  0  0  0
   -9.1400   19.7433  -32.8550 H   0  0  0  0  0  0  0  0  0  0  0  0
   -9.5768   22.0107  -31.8525 H   0  0  0  0  0  0  0  0  0  0  0  0
   -8.2672   24.3015  -30.7543 H   0  0  0  0  0  0  0  0  0  0  0  0
   -7.1550   25.3160  -28.6420 H   0  0  0  0  0  0  0  0  0  0  0  0
   -5.8430   26.5330  -28.4920 H   0  0  0  0  0  0  0  0  0  0  0  0
   -1.4184   21.5578  -28.2439 H   0  0  0  0  0  0  0  0  0  0  0  0
   -2.2750   21.2443  -29.7914 H   0  0  0  0  0  0  0  0  0  0  0  0
   -0.7219   22.1467  -29.7914 H   0  0  0  0  0  0  0  0  0  0  0  0
   -1.0781   24.3270  -27.7269 H   0  0  0  0  0  0  0  0  0  0  0  0
   -0.5578   24.3276  -29.4532 H   0  0  0  0  0  0  0  0  0  0  0  0
   -2.9710   25.5000  -29.1440 H   0  0  0  0  0  0  0  0  0  0  0  0
   -4.1777   22.3669  -28.1860 H   0  0  0  0  0  0  0  0  0  0  0  0
   -2.9471   22.9709  -27.0032 H   0  0  0  0  0  0  0  0  0  0  0  0
   -4.0300   24.9200  -28.6060 H   0  0  0  0  0  0  0  0  0  0  0  0
   -4.8553   20.3126  -32.2855 H   0  0  0  0  0  0  0  0  0  0  0  0
  1  2  1  0
  2  3  2  0
  3  4  1  0
  4  5  2  0
  5  6  1  0
  6  7  2  0
  7  8  1  0
  8  9  1  0
  8 10  2  0
  7 11  1  0
 11 12  1  0
 12 13  2  0
 12 14  1  0
 14 15  1  0
 15 16  1  0
 15 17  1  0
 17 18  1  0
 15 19  1  0
 19 20  1  0
 11 21  1  0
 21 22  2  0
 22  2  1  0
 21  5  1  0
  1 23  1  0
  1 24  1  0
  1 25  1  0
  3 26  1  0
  4 27  1  0
  6 28  1  0
  9 29  1  0
  9 30  1  0
 16 31  1  0
 16 32  1  0
 16 33  1  0
 17 34  1  0
 17 35  1  0
 18 36  1  0
 19 37  1  0
 19 38  1  0
 20 39  1  0
 22 40  1  0
M  CHG  1  14  -1
M  END
>  <UniqueID>  (56) 
56

>  <SMILES>  (56) 
Cc1ccc2cc(C(N)=O)n(C(=O)[N-]C(C)(CO)CO)c2c1

>  <Energy>  (56) 
74.82698417052465

>  <Genealogy>  (56) 
Cc1ccc2cc(C(N)=O)n(C(=O)[N-]C(C)(CO)CO)c2c1 (protonated)
Cc1ccc2cc(C(N)=O)n(C(=O)[N-]C(C)(CO)CO)c2c1 (3D coordinates assigned)
Cc1ccc2cc(C(N)=O)n(C(=O)[N-]C(C)(CO)CO)c2c1 (optimized conformer: 74.82698417052465 kcal/mol)

>  <smiles>  (56) 
Cc1ccc2cc(C(N)=O)n(C(=O)NC(C)(CO)CO)c2c1

>  <score_type>  (56) 
oracle

>  <origin>  (56) 
adg

>  <m_score__min__energy>  (56) 
-9.2799999999999994

>  <m_primary>  (56) 
energy

$$$$
58:0
     RDKit          3D

 45 46  0  0  0  0  0  0  0  0999 V2000
   -5.7440   18.1880  -34.8420 C   0  0  0  0  0  0  0  0  0  0  0  0
   -6.5200   18.0900  -33.6000 N   0  0  0  0  0  0  0  0  0  0  0  0
   -6.8610   16.7580  -33.0850 C   0  0  0  0  0  0  0  0  0  0  0  0
   -6.9540   19.2860  -32.9030 C   0  0  0  0  0  0  0  0  0  0  0  0
   -8.3400   19.5550  -32.7180 C   0  0  0  0  0  0  0  0  0  0  0  0
   -8.7730   20.6990  -32.0260 C   0  0  0  0  0  0  0  0  0  0  0  0
   -7.8070   21.5670  -31.5330 C   0  0  0  0  0  0  0  0  0  0  0  0
   -7.9500   22.7230  -30.7980 C   0  0  0  0  0  0  0  0  0  0  0  0
   -6.6520   23.1690  -30.5560 C   0  0  0  0  0  0  0  0  0  0  0  0
   -6.3220   24.4300  -29.8540 C   0  0  0  0  0  0  0  0  0  0  0  0
   -5.0300   24.6310  -29.2770 N   0  0  0  0  0  0  0  0  0  0  0  0
   -7.1910   25.3340  -29.7360 O   0  0  0  0  0  0  0  0  0  0  0  0
   -5.7470   22.3230  -31.1240 N   0  0  0  0  0  0  0  0  0  0  0  0
   -4.3150   22.3940  -31.0510 C   0  0  0  0  0  0  0  0  0  0  0  0
   -3.7160   23.4170  -31.4850 O   0  0  0  0  0  0  0  0  0  0  0  0
   -3.5940   21.3350  -30.4910 O   0  0  0  0  0  0  0  0  0  0  0  0
   -3.1910   21.3200  -29.1240 C   0  0  0  0  0  0  0  0  0  0  0  0
   -2.6330   22.5830  -28.7740 O   0  0  0  0  0  0  0  0  0  0  0  0
   -3.0030   23.2730  -27.6170 C   0  0  0  0  0  0  0  0  0  0  0  0
   -4.2160   23.3600  -27.2800 O   0  0  0  0  0  0  0  0  0  0  0  0
   -1.9550   23.9670  -26.8080 C   0  0  0  0  0  0  0  0  0  0  0  0
   -0.9190   24.6100  -27.7320 C   0  0  0  0  0  0  0  0  0  0  0  0
   -1.5640   25.6290  -28.6160 C   0  0  0  0  0  0  0  0  0  0  0  0
   -1.1240   26.8080  -28.6510 O   0  0  0  0  0  0  0  0  0  0  0  0
   -2.6840   25.2890  -29.3640 O   0  0  0  0  0  0  0  0  0  0  0  0
   -6.4690   21.3470  -31.7160 C   0  0  0  0  0  0  0  0  0  0  0  0
   -6.0060   20.2080  -32.3830 C   0  0  0  0  0  0  0  0  0  0  0  0
   -4.6795   18.3224  -34.5996 H   0  0  0  0  0  0  0  0  0  0  0  0
   -5.8729   17.2664  -35.4286 H   0  0  0  0  0  0  0  0  0  0  0  0
   -6.0980   19.0486  -35.4286 H   0  0  0  0  0  0  0  0  0  0  0  0
   -6.8559   16.7778  -31.9852 H   0  0  0  0  0  0  0  0  0  0  0  0
   -7.8614   16.4719  -33.4420 H   0  0  0  0  0  0  0  0  0  0  0  0
   -6.1212   16.0264  -33.4420 H   0  0  0  0  0  0  0  0  0  0  0  0
   -9.0851   18.8549  -33.1239 H   0  0  0  0  0  0  0  0  0  0  0  0
   -9.8443   20.9009  -31.8792 H   0  0  0  0  0  0  0  0  0  0  0  0
   -8.8889   23.1940  -30.4715 H   0  0  0  0  0  0  0  0  0  0  0  0
   -4.2630   23.9350  -29.4050 H   0  0  0  0  0  0  0  0  0  0  0  0
   -4.8230   25.5090  -28.7510 H   0  0  0  0  0  0  0  0  0  0  0  0
   -4.0649   21.1173  -28.4874 H   0  0  0  0  0  0  0  0  0  0  0  0
   -2.4356   20.5343  -28.9756 H   0  0  0  0  0  0  0  0  0  0  0  0
   -2.4274   24.7467  -26.1924 H   0  0  0  0  0  0  0  0  0  0  0  0
   -1.4539   23.2321  -26.1608 H   0  0  0  0  0  0  0  0  0  0  0  0
   -0.1444   25.0984  -27.1225 H   0  0  0  0  0  0  0  0  0  0  0  0
   -0.4702   23.8273  -28.3612 H   0  0  0  0  0  0  0  0  0  0  0  0
   -4.9273   20.0292  -32.5029 H   0  0  0  0  0  0  0  0  0  0  0  0
  1  2  1  0
  2  3  1  0
  2  4  1  0
  4  5  2  0
  5  6  1  0
  6  7  2  0
  7  8  1  0
  8  9  2  0
  9 10  1  0
 10 11  1  0
 10 12  2  0
  9 13  1  0
 13 14  1  0
 14 15  2  0
 14 16  1  0
 16 17  1  0
 17 18  1  0
 18 19  1  0
 19 20  2  0
 19 21  1  0
 21 22  1  0
 22 23  1  0
 23 24  2  0
 23 25  1  0
 13 26  1  0
 26 27  2  0
 27  4  1  0
 26  7  1  0
  1 28  1  0
  1 29  1  0
  1 30  1  0
  3 31  1  0
  3 32  1  0
  3 33  1  0
  5 34  1  0
  6 35  1  0
  8 36  1  0
 11 37  1  0
 11 38  1  0
 17 39  1  0
 17 40  1  0
 21 41  1  0
 21 42  1  0
 22 43  1  0
 22 44  1  0
 27 45  1  0
M  CHG  1  25  -1
M  END
>  <UniqueID>  (57) 
57

>  <SMILES>  (57) 
CN(C)c1ccc2cc(C(N)=O)n(C(=O)OCOC(=O)CCC(=O)[O-])c2c1

>  <Energy>  (57) 
74.91223862435373

>  <Genealogy>  (57) 
CN(C)c1ccc2cc(C(N)=O)n(C(=O)OCOC(=O)CCC(=O)[O-])c2c1 (protonated)
CN(C)c1ccc2cc(C(N)=O)n(C(=O)OCOC(=O)CCC(=O)[O-])c2c1 (3D coordinates assigned)
CN(C)c1ccc2cc(C(N)=O)n(C(=O)OCOC(=O)CCC(=O)[O-])c2c1 (optimized conformer: 74.91223862435373 kcal/mol)

>  <smiles>  (57) 
CN(C)c1ccc2cc(C(N)=O)n(C(=O)OCOC(=O)CCC(=O)O)c2c1

>  <score_type>  (57) 
oracle

>  <origin>  (57) 
adg

>  <m_score__min__energy>  (57) 
-10.050000000000001

>  <m_primary>  (57) 
energy

$$$$
59:0
     RDKit          3D

 49 50  0  0  0  0  0  0  0  0999 V2000
   -6.1230   17.4720  -30.9360 C   0  0  0  0  0  0  0  0  0  0  0  0
   -6.7640   18.2670  -31.9920 N   0  0  0  0  0  0  0  0  0  0  0  0
   -7.2510   17.5740  -33.2020 C   0  0  0  0  0  0  0  0  0  0  0  0
   -6.0970   17.0140  -34.0520 C   0  0  0  0  0  0  0  0  0  0  0  0
   -5.5010   18.0530  -35.0130 C   0  0  0  0  0  0  0  0  0  0  0  0
   -6.1070   19.3060  -34.8360 O   0  0  0  0  0  0  0  0  0  0  0  0
   -6.9280   19.7030  -31.8230 C   0  0  0  0  0  0  0  0  0  0  0  0
   -8.1900   20.3250  -32.0390 C   0  0  0  0  0  0  0  0  0  0  0  0
   -8.3610   21.7030  -31.8370 C   0  0  0  0  0  0  0  0  0  0  0  0
   -7.2640   22.4460  -31.4230 C   0  0  0  0  0  0  0  0  0  0  0  0
   -7.1460   23.7990  -31.2130 C   0  0  0  0  0  0  0  0  0  0  0  0
   -5.8080   24.0100  -30.8870 C   0  0  0  0  0  0  0  0  0  0  0  0
   -5.2500   25.3500  -30.5940 C   0  0  0  0  0  0  0  0  0  0  0  0
   -3.8770   25.6490  -30.8240 N   0  0  0  0  0  0  0  0  0  0  0  0
   -5.9990   26.2430  -30.1130 O   0  0  0  0  0  0  0  0  0  0  0  0
   -5.1250   22.8270  -30.8750 N   0  0  0  0  0  0  0  0  0  0  0  0
   -3.7040   22.6370  -30.7430 C   0  0  0  0  0  0  0  0  0  0  0  0
   -2.9760   22.7270  -31.7670 O   0  0  0  0  0  0  0  0  0  0  0  0
   -3.0930   22.1950  -29.4310 C   0  0  0  0  0  0  0  0  0  0  0  0
   -2.5190   23.3270  -28.5290 C   0  0  0  0  0  0  0  0  0  0  0  0
   -1.3860   22.7850  -27.6430 C   0  0  0  0  0  0  0  0  0  0  0  0
   -3.6050   23.9760  -27.6420 C   0  0  0  0  0  0  0  0  0  0  0  0
   -1.9550   24.3200  -29.3560 O   0  0  0  0  0  0  0  0  0  0  0  0
   -6.0340   21.8800  -31.2160 C   0  0  0  0  0  0  0  0  0  0  0  0
   -5.8280   20.5120  -31.4340 C   0  0  0  0  0  0  0  0  0  0  0  0
   -6.4309   17.8539  -29.9515 H   0  0  0  0  0  0  0  0  0  0  0  0
   -6.4282   16.4196  -31.0329 H   0  0  0  0  0  0  0  0  0  0  0  0
   -5.0299   17.5471  -31.0329 H   0  0  0  0  0  0  0  0  0  0  0  0
   -7.9026   16.7421  -32.8963 H   0  0  0  0  0  0  0  0  0  0  0  0
   -7.7987   18.3056  -33.8142 H   0  0  0  0  0  0  0  0  0  0  0  0
   -5.3021   16.6642  -33.3770 H   0  0  0  0  0  0  0  0  0  0  0  0
   -6.5055   16.1961  -34.6636 H   0  0  0  0  0  0  0  0  0  0  0  0
   -4.4220   18.1446  -34.8199 H   0  0  0  0  0  0  0  0  0  0  0  0
   -5.6802   17.7193  -36.0457 H   0  0  0  0  0  0  0  0  0  0  0  0
   -6.8600   19.3480  -35.4790 H   0  0  0  0  0  0  0  0  0  0  0  0
   -9.0444   19.7160  -32.3694 H   0  0  0  0  0  0  0  0  0  0  0  0
   -9.3377   22.1814  -32.0022 H   0  0  0  0  0  0  0  0  0  0  0  0
   -7.9407   24.5560  -31.2868 H   0  0  0  0  0  0  0  0  0  0  0  0
   -3.1870   24.8930  -31.0310 H   0  0  0  0  0  0  0  0  0  0  0  0
   -3.8710   21.6698  -28.8576 H   0  0  0  0  0  0  0  0  0  0  0  0
   -2.2317   21.5667  -29.7020 H   0  0  0  0  0  0  0  0  0  0  0  0
   -1.6550   22.9137  -26.5842 H   0  0  0  0  0  0  0  0  0  0  0  0
   -1.2337   21.7165  -27.8554 H   0  0  0  0  0  0  0  0  0  0  0  0
   -0.4585   23.3369  -27.8554 H   0  0  0  0  0  0  0  0  0  0  0  0
   -3.3517   23.8246  -26.5823 H   0  0  0  0  0  0  0  0  0  0  0  0
   -3.6575   25.0537  -27.8561 H   0  0  0  0  0  0  0  0  0  0  0  0
   -4.5790   23.5118  -27.8561 H   0  0  0  0  0  0  0  0  0  0  0  0
   -2.3460   24.2220  -30.2640 H   0  0  0  0  0  0  0  0  0  0  0  0
   -4.8286   20.0708  -31.3057 H   0  0  0  0  0  0  0  0  0  0  0  0
  1  2  1  0
  2  3  1  0
  3  4  1  0
  4  5  1  0
  5  6  1  0
  2  7  1  0
  7  8  2  0
  8  9  1  0
  9 10  2  0
 10 11  1  0
 11 12  2  0
 12 13  1  0
 13 14  1  0
 13 15  2  0
 12 16  1  0
 16 17  1  0
 17 18  2  0
 17 19  1  0
 19 20  1  0
 20 21  1  0
 20 22  1  0
 20 23  1  0
 16 24  1  0
 24 25  2  0
 25  7  1  0
 24 10  1  0
  1 26  1  0
  1 27  1  0
  1 28  1  0
  3 29  1  0
  3 30  1  0
  4 31  1  0
  4 32  1  0
  5 33  1  0
  5 34  1  0
  6 35  1  0
  8 36  1  0
  9 37  1  0
 11 38  1  0
 14 39  1  0
 19 40  1  0
 19 41  1  0
 21 42  1  0
 21 43  1  0
 21 44  1  0
 22 45  1  0
 22 46  1  0
 22 47  1  0
 23 48  1  0
 25 49  1  0
M  CHG  1  14  -1
M  END
>  <UniqueID>  (58) 
58

>  <SMILES>  (58) 
CN(CCCO)c1ccc2cc(C([NH-])=O)n(C(=O)CC(C)(C)O)c2c1

>  <Energy>  (58) 
85.54335111412546

>  <Genealogy>  (58) 
CN(CCCO)c1ccc2cc(C([NH-])=O)n(C(=O)CC(C)(C)O)c2c1 (protonated)
CN(CCCO)c1ccc2cc(C([NH-])=O)n(C(=O)CC(C)(C)O)c2c1 (3D coordinates assigned)
CN(CCCO)c1ccc2cc(C([NH-])=O)n(C(=O)CC(C)(C)O)c2c1 (optimized conformer: 85.54335111412546 kcal/mol)

>  <smiles>  (58) 
CN(CCCO)c1ccc2cc(C(N)=O)n(C(=O)CC(C)(C)O)c2c1

>  <score_type>  (58) 
oracle

>  <origin>  (58) 
adg

>  <m_score__min__energy>  (58) 
-9.6500000000000004

>  <m_primary>  (58) 
energy

$$$$
60:0
     RDKit          3D

 30 31  0  0  0  0  0  0  0  0999 V2000
   -6.2770   16.9340  -33.5600 C   0  0  0  0  0  0  0  0  0  0  0  0
   -6.5960   18.0140  -33.1300 C   0  0  0  0  0  0  0  0  0  0  0  0
   -6.9750   19.3050  -32.6180 C   0  0  0  0  0  0  0  0  0  0  0  0
   -8.3420   19.6210  -32.4470 C   0  0  0  0  0  0  0  0  0  0  0  0
   -8.7230   20.8710  -31.9320 C   0  0  0  0  0  0  0  0  0  0  0  0
   -7.7180   21.7790  -31.6120 C   0  0  0  0  0  0  0  0  0  0  0  0
   -7.8050   23.0340  -31.0540 C   0  0  0  0  0  0  0  0  0  0  0  0
   -6.4890   23.4710  -30.9260 C   0  0  0  0  0  0  0  0  0  0  0  0
   -6.1200   24.7930  -30.3780 C   0  0  0  0  0  0  0  0  0  0  0  0
   -5.8290   24.9690  -28.9910 N   0  0  0  0  0  0  0  0  0  0  0  0
   -6.0170   25.7780  -31.1580 O   0  0  0  0  0  0  0  0  0  0  0  0
   -5.6200   22.5260  -31.3810 N   0  0  0  0  0  0  0  0  0  0  0  0
   -4.1860   22.5580  -31.2900 C   0  0  0  0  0  0  0  0  0  0  0  0
   -3.4970   22.5340  -32.3460 O   0  0  0  0  0  0  0  0  0  0  0  0
   -3.4980   22.4830  -29.9560 C   0  0  0  0  0  0  0  0  0  0  0  0
   -2.9590   24.1280  -29.3910 P   0  0  0  0  0  0  0  0  0  0  0  0
   -3.5570   24.4210  -28.0340 O   0  0  0  0  0  0  0  0  0  0  0  0
   -1.2720   24.1880  -29.2820 O   0  0  0  0  0  0  0  0  0  0  0  0
   -3.4890   25.2950  -30.4940 O   0  0  0  0  0  0  0  0  0  0  0  0
   -6.3880   21.4920  -31.7940 C   0  0  0  0  0  0  0  0  0  0  0  0
   -5.9800   20.2440  -32.2810 C   0  0  0  0  0  0  0  0  0  0  0  0
   -5.9859   15.9485  -33.9524 H   0  0  0  0  0  0  0  0  0  0  0  0
   -9.1119   18.8838  -32.7188 H   0  0  0  0  0  0  0  0  0  0  0  0
   -9.7834   21.1245  -31.7861 H   0  0  0  0  0  0  0  0  0  0  0  0
   -8.7189   23.5762  -30.7698 H   0  0  0  0  0  0  0  0  0  0  0  0
   -5.7160   24.1500  -28.3540 H   0  0  0  0  0  0  0  0  0  0  0  0
   -5.6250   25.9210  -28.6170 H   0  0  0  0  0  0  0  0  0  0  0  0
   -4.1956   22.0619  -29.2170 H   0  0  0  0  0  0  0  0  0  0  0  0
   -2.6080   21.8452  -30.0616 H   0  0  0  0  0  0  0  0  0  0  0  0
   -4.9129   20.0036  -32.3972 H   0  0  0  0  0  0  0  0  0  0  0  0
  1  2  3  0
  2  3  1  0
  3  4  2  0
  4  5  1  0
  5  6  2  0
  6  7  1  0
  7  8  2  0
  8  9  1  0
  9 10  1  0
  9 11  2  0
  8 12  1  0
 12 13  1  0
 13 14  2  0
 13 15  1  0
 15 16  1  0
 16 17  2  0
 16 18  1  0
 16 19  1  0
 12 20  1  0
 20 21  2  0
 21  3  1  0
 20  6  1  0
  1 22  1  0
  4 23  1  0
  5 24  1  0
  7 25  1  0
 10 26  1  0
 10 27  1  0
 15 28  1  0
 15 29  1  0
 21 30  1  0
M  CHG  2  18  -1  19  -1
M  END
>  <UniqueID>  (59) 
59

>  <SMILES>  (59) 
C#Cc1ccc2cc(C(N)=O)n(C(=O)CP(=O)([O-])[O-])c2c1

>  <Energy>  (59) 
65.1236006662199

>  <Genealogy>  (59) 
C#Cc1ccc2cc(C(N)=O)n(C(=O)CP(=O)([O-])[O-])c2c1 (protonated)
C#Cc1ccc2cc(C(N)=O)n(C(=O)CP(=O)([O-])[O-])c2c1 (3D coordinates assigned)
C#Cc1ccc2cc(C(N)=O)n(C(=O)CP(=O)([O-])[O-])c2c1 (optimized conformer: 65.1236006662199 kcal/mol)

>  <smiles>  (59) 
C#Cc1ccc2cc(C(N)=O)n(C(=O)CP(=O)(O)O)c2c1

>  <score_type>  (59) 
oracle

>  <origin>  (59) 
adg

>  <m_score__min__energy>  (59) 
-12.51

>  <m_primary>  (59) 
energy

$$$$
61:0
     RDKit          3D

 41 42  0  0  0  0  0  0  0  0999 V2000
   -0.8610   26.7910  -24.0960 C   0  0  0  0  0  0  0  0  0  0  0  0
   -1.9070   26.2490  -24.8720 O   0  0  0  0  0  0  0  0  0  0  0  0
   -1.5930   26.3220  -26.2490 C   0  0  0  0  0  0  0  0  0  0  0  0
   -1.2680   24.9290  -26.7910 C   0  0  0  0  0  0  0  0  0  0  0  0
   -1.5050   24.8710  -28.2660 C   0  0  0  0  0  0  0  0  0  0  0  0
   -1.4270   25.9240  -28.9560 O   0  0  0  0  0  0  0  0  0  0  0  0
   -1.8570   23.6560  -28.8570 O   0  0  0  0  0  0  0  0  0  0  0  0
   -3.1420   23.0640  -28.6930 C   0  0  0  0  0  0  0  0  0  0  0  0
   -3.3880   22.1550  -29.7590 O   0  0  0  0  0  0  0  0  0  0  0  0
   -3.9180   22.5550  -30.9910 C   0  0  0  0  0  0  0  0  0  0  0  0
   -3.1720   22.6570  -32.0030 O   0  0  0  0  0  0  0  0  0  0  0  0
   -5.3140   22.8750  -31.0950 N   0  0  0  0  0  0  0  0  0  0  0  0
   -5.9240   24.0630  -30.8180 C   0  0  0  0  0  0  0  0  0  0  0  0
   -5.2440   25.3370  -30.5010 C   0  0  0  0  0  0  0  0  0  0  0  0
   -3.8670   25.5310  -30.8120 N   0  0  0  0  0  0  0  0  0  0  0  0
   -5.9000   26.2830  -29.9910 O   0  0  0  0  0  0  0  0  0  0  0  0
   -7.3050   23.9450  -30.9550 C   0  0  0  0  0  0  0  0  0  0  0  0
   -7.5240   22.6410  -31.3340 C   0  0  0  0  0  0  0  0  0  0  0  0
   -8.7160   21.9770  -31.6080 C   0  0  0  0  0  0  0  0  0  0  0  0
   -8.6480   20.6180  -31.9550 C   0  0  0  0  0  0  0  0  0  0  0  0
   -7.4010   19.9410  -31.9980 C   0  0  0  0  0  0  0  0  0  0  0  0
   -7.3370   18.4910  -32.4080 C   0  0  0  0  0  0  0  0  0  0  0  0
   -6.8600   18.3700  -33.7010 F   0  0  0  0  0  0  0  0  0  0  0  0
   -6.4960   17.7820  -31.5690 F   0  0  0  0  0  0  0  0  0  0  0  0
   -8.6050   17.9440  -32.3420 F   0  0  0  0  0  0  0  0  0  0  0  0
   -6.2100   20.6580  -31.7360 C   0  0  0  0  0  0  0  0  0  0  0  0
   -6.3080   22.0160  -31.4110 C   0  0  0  0  0  0  0  0  0  0  0  0
   -1.0957   26.6694  -23.0282 H   0  0  0  0  0  0  0  0  0  0  0  0
    0.0773   26.2657  -24.3273 H   0  0  0  0  0  0  0  0  0  0  0  0
   -0.7491   27.8606  -24.3273 H   0  0  0  0  0  0  0  0  0  0  0  0
   -2.4537   26.7333  -26.7967 H   0  0  0  0  0  0  0  0  0  0  0  0
   -0.7166   26.9730  -26.3834 H   0  0  0  0  0  0  0  0  0  0  0  0
   -0.2125   24.6979  -26.5849 H   0  0  0  0  0  0  0  0  0  0  0  0
   -1.9212   24.1945  -26.2972 H   0  0  0  0  0  0  0  0  0  0  0  0
   -3.1766   22.5235  -27.7356 H   0  0  0  0  0  0  0  0  0  0  0  0
   -3.9104   23.8511  -28.6994 H   0  0  0  0  0  0  0  0  0  0  0  0
   -3.1210   25.2870  -30.1230 H   0  0  0  0  0  0  0  0  0  0  0  0
   -8.0603   24.7284  -30.7942 H   0  0  0  0  0  0  0  0  0  0  0  0
   -9.6819   22.5007  -31.5544 H   0  0  0  0  0  0  0  0  0  0  0  0
   -9.5718   20.0717  -32.1963 H   0  0  0  0  0  0  0  0  0  0  0  0
   -5.2303   20.1603  -31.7865 H   0  0  0  0  0  0  0  0  0  0  0  0
  1  2  1  0
  2  3  1  0
  3  4  1  0
  4  5  1  0
  5  6  2  0
  5  7  1  0
  7  8  1  0
  8  9  1  0
  9 10  1  0
 10 11  2  0
 10 12  1  0
 12 13  1  0
 13 14  1  0
 14 15  1  0
 14 16  2  0
 13 17  2  0
 17 18  1  0
 18 19  2  0
 19 20  1  0
 20 21  2  0
 21 22  1  0
 22 23  1  0
 22 24  1  0
 22 25  1  0
 21 26  1  0
 26 27  2  0
 27 12  1  0
 27 18  1  0
  1 28  1  0
  1 29  1  0
  1 30  1  0
  3 31  1  0
  3 32  1  0
  4 33  1  0
  4 34  1  0
  8 35  1  0
  8 36  1  0
 15 37  1  0
 17 38  1  0
 19 39  1  0
 20 40  1  0
 26 41  1  0
M  CHG  1  15  -1
M  END
>  <UniqueID>  (60) 
60

>  <SMILES>  (60) 
COCCC(=O)OCOC(=O)n1c(C([NH-])=O)cc2ccc(C(F)(F)F)cc21

>  <Energy>  (60) 
75.96347877136951

>  <Genealogy>  (60) 
COCCC(=O)OCOC(=O)n1c(C([NH-])=O)cc2ccc(C(F)(F)F)cc21 (protonated)
COCCC(=O)OCOC(=O)n1c(C([NH-])=O)cc2ccc(C(F)(F)F)cc21 (3D coordinates assigned)
COCCC(=O)OCOC(=O)n1c(C([NH-])=O)cc2ccc(C(F)(F)F)cc21 (optimized conformer: 75.96347877136951 kcal/mol)

>  <smiles>  (60) 
COCCC(=O)OCOC(=O)n1c(C(N)=O)cc2ccc(C(F)(F)F)cc21

>  <score_type>  (60) 
oracle

>  <origin>  (60) 
adg

>  <m_score__min__energy>  (60) 
-9.75

>  <m_primary>  (60) 
energy

$$$$
62:0
     RDKit          3D

 43 45  0  0  0  0  0  0  0  0999 V2000
   -3.9160   25.6700  -30.8290 N   0  0  0  0  0  0  0  0  0  0  0  0
   -5.0070   24.9160  -30.3080 C   0  0  0  0  0  0  0  0  0  0  0  0
   -5.6390   25.3530  -29.3110 O   0  0  0  0  0  0  0  0  0  0  0  0
   -5.3540   23.6120  -30.9130 C   0  0  0  0  0  0  0  0  0  0  0  0
   -6.6590   23.2320  -31.2160 C   0  0  0  0  0  0  0  0  0  0  0  0
   -6.5480   22.0090  -31.8360 C   0  0  0  0  0  0  0  0  0  0  0  0
   -7.5350   21.1670  -32.3350 C   0  0  0  0  0  0  0  0  0  0  0  0
   -7.1360   19.9440  -32.8990 C   0  0  0  0  0  0  0  0  0  0  0  0
   -5.7640   19.5780  -32.9500 C   0  0  0  0  0  0  0  0  0  0  0  0
   -5.3660   18.3120  -33.5210 N   0  0  0  0  0  0  0  0  0  0  0  0
   -3.9540   18.0300  -33.8140 C   0  0  0  0  0  0  0  0  0  0  0  0
   -3.8460   17.0520  -34.9910 C   0  0  0  0  0  0  0  0  0  0  0  0
   -4.6120   15.8040  -34.7930 N   0  0  0  0  0  0  0  0  0  0  0  0
   -5.6900   15.8850  -33.7920 C   0  0  0  0  0  0  0  0  0  0  0  0
   -6.3630   17.2620  -33.7710 C   0  0  0  0  0  0  0  0  0  0  0  0
   -4.7920   20.4650  -32.4280 C   0  0  0  0  0  0  0  0  0  0  0  0
   -5.2180   21.6850  -31.8890 C   0  0  0  0  0  0  0  0  0  0  0  0
   -4.4710   22.6590  -31.3230 N   0  0  0  0  0  0  0  0  0  0  0  0
   -3.0470   22.6410  -31.1280 C   0  0  0  0  0  0  0  0  0  0  0  0
   -2.3360   21.8140  -31.7630 O   0  0  0  0  0  0  0  0  0  0  0  0
   -2.4590   23.5250  -30.2200 O   0  0  0  0  0  0  0  0  0  0  0  0
   -2.6520   23.4250  -28.8130 C   0  0  0  0  0  0  0  0  0  0  0  0
   -2.2580   24.7400  -28.1510 C   0  0  0  0  0  0  0  0  0  0  0  0
   -1.6270   25.5820  -29.0770 O   0  0  0  0  0  0  0  0  0  0  0  0
   -2.9390   25.3010  -30.7890 H   0  0  0  0  0  0  0  0  0  0  0  0
   -7.5824   23.7910  -31.0045 H   0  0  0  0  0  0  0  0  0  0  0  0
   -8.5970   21.4500  -32.2896 H   0  0  0  0  0  0  0  0  0  0  0  0
   -7.8956   19.2607  -33.3065 H   0  0  0  0  0  0  0  0  0  0  0  0
   -3.4414   18.9684  -34.0722 H   0  0  0  0  0  0  0  0  0  0  0  0
   -3.4848   17.5796  -32.9269 H   0  0  0  0  0  0  0  0  0  0  0  0
   -4.2233   17.5523  -35.8951 H   0  0  0  0  0  0  0  0  0  0  0  0
   -2.7865   16.7703  -35.0812 H   0  0  0  0  0  0  0  0  0  0  0  0
   -3.9520   15.0480  -34.4940 H   0  0  0  0  0  0  0  0  0  0  0  0
   -6.4488   15.1241  -34.0271 H   0  0  0  0  0  0  0  0  0  0  0  0
   -5.2427   15.7142  -32.8016 H   0  0  0  0  0  0  0  0  0  0  0  0
   -6.8468   17.4445  -34.7419 H   0  0  0  0  0  0  0  0  0  0  0  0
   -7.1134   17.2818  -32.9670 H   0  0  0  0  0  0  0  0  0  0  0  0
   -3.7242   20.2012  -32.4455 H   0  0  0  0  0  0  0  0  0  0  0  0
   -3.7103   23.2112  -28.6024 H   0  0  0  0  0  0  0  0  0  0  0  0
   -2.0271   22.6123  -28.4142 H   0  0  0  0  0  0  0  0  0  0  0  0
   -3.1606   25.2367  -27.7654 H   0  0  0  0  0  0  0  0  0  0  0  0
   -1.5612   24.5301  -27.3261 H   0  0  0  0  0  0  0  0  0  0  0  0
   -2.2500   25.6760  -29.8450 H   0  0  0  0  0  0  0  0  0  0  0  0
  1  2  1  0
  2  3  2  0
  2  4  1  0
  4  5  2  0
  5  6  1  0
  6  7  2  0
  7  8  1  0
  8  9  2  0
  9 10  1  0
 10 11  1  0
 11 12  1  0
 12 13  1  0
 13 14  1  0
 14 15  1  0
  9 16  1  0
 16 17  2  0
 17 18  1  0
 18 19  1  0
 19 20  2  0
 19 21  1  0
 21 22  1  0
 22 23  1  0
 23 24  1  0
 18  4  1  0
 17  6  1  0
 15 10  1  0
  1 25  1  0
  5 26  1  0
  7 27  1  0
  8 28  1  0
 11 29  1  0
 11 30  1  0
 12 31  1  0
 12 32  1  0
 13 33  1  0
 14 34  1  0
 14 35  1  0
 15 36  1  0
 15 37  1  0
 16 38  1  0
 22 39  1  0
 22 40  1  0
 23 41  1  0
 23 42  1  0
 24 43  1  0
M  CHG  1   1  -1
M  END
>  <UniqueID>  (61) 
61

>  <SMILES>  (61) 
[NH-]C(=O)c1cc2ccc(N3CCNCC3)cc2n1C(=O)OCCO

>  <Energy>  (61) 
85.80182468573594

>  <Genealogy>  (61) 
[NH-]C(=O)c1cc2ccc(N3CCNCC3)cc2n1C(=O)OCCO (protonated)
[NH-]C(=O)c1cc2ccc(N3CCNCC3)cc2n1C(=O)OCCO (3D coordinates assigned)
[NH-]C(=O)c1cc2ccc(N3CCNCC3)cc2n1C(=O)OCCO (nonaromatic ring conformer: 85.80182468573594 kcal/mol)

>  <smiles>  (61) 
NC(=O)c1cc2ccc(N3CCNCC3)cc2n1C(=O)OCCO

>  <score_type>  (61) 
oracle

>  <origin>  (61) 
adg

>  <m_score__min__energy>  (61) 
-10.710000000000001

>  <m_primary>  (61) 
energy

$$$$
63:0
     RDKit          3D

 42 43  0  0  0  0  0  0  0  0999 V2000
   -7.7670   18.5910  -32.4840 C   0  0  0  0  0  0  0  0  0  0  0  0
   -7.7180   20.0590  -32.1820 C   0  0  0  0  0  0  0  0  0  0  0  0
   -8.9020   20.8360  -32.2380 C   0  0  0  0  0  0  0  0  0  0  0  0
   -8.8770   22.2020  -31.9090 C   0  0  0  0  0  0  0  0  0  0  0  0
   -7.6600   22.7580  -31.5260 C   0  0  0  0  0  0  0  0  0  0  0  0
   -7.3610   24.0410  -31.1250 C   0  0  0  0  0  0  0  0  0  0  0  0
   -5.9990   24.0290  -30.8360 C   0  0  0  0  0  0  0  0  0  0  0  0
   -5.2400   25.2350  -30.4410 C   0  0  0  0  0  0  0  0  0  0  0  0
   -3.8800   25.3800  -30.8420 N   0  0  0  0  0  0  0  0  0  0  0  0
   -5.7680   26.1220  -29.7200 O   0  0  0  0  0  0  0  0  0  0  0  0
   -5.4760   22.7870  -31.0430 N   0  0  0  0  0  0  0  0  0  0  0  0
   -4.1320   22.3460  -30.7890 C   0  0  0  0  0  0  0  0  0  0  0  0
   -3.8730   21.6870  -29.7460 O   0  0  0  0  0  0  0  0  0  0  0  0
   -3.1140   22.6690  -31.6910 O   0  0  0  0  0  0  0  0  0  0  0  0
   -2.7870   21.8500  -32.8070 C   0  0  0  0  0  0  0  0  0  0  0  0
   -2.1580   20.5860  -32.3230 C   0  0  0  0  0  0  0  0  0  0  0  0
   -2.3810   19.5020  -32.9260 O   0  0  0  0  0  0  0  0  0  0  0  0
   -1.3080   20.6190  -31.1730 N   0  0  0  0  0  0  0  0  0  0  0  0
   -0.4590   21.7540  -30.8280 C   0  0  0  0  0  0  0  0  0  0  0  0
   -0.5750   22.0740  -29.3340 C   0  0  0  0  0  0  0  0  0  0  0  0
   -1.6000   23.1860  -29.0890 C   0  0  0  0  0  0  0  0  0  0  0  0
   -0.9180   24.5140  -28.9950 C   0  0  0  0  0  0  0  0  0  0  0  0
    0.2650   24.5900  -28.5730 O   0  0  0  0  0  0  0  0  0  0  0  0
   -1.6080   25.6740  -29.3240 O   0  0  0  0  0  0  0  0  0  0  0  0
   -6.5060   22.0220  -31.4690 C   0  0  0  0  0  0  0  0  0  0  0  0
   -6.5050   20.6540  -31.7740 C   0  0  0  0  0  0  0  0  0  0  0  0
   -7.7859   18.0233  -31.5420 H   0  0  0  0  0  0  0  0  0  0  0  0
   -8.6731   18.3664  -33.0658 H   0  0  0  0  0  0  0  0  0  0  0  0
   -6.8779   18.3065  -33.0658 H   0  0  0  0  0  0  0  0  0  0  0  0
   -9.8489   20.3656  -32.5417 H   0  0  0  0  0  0  0  0  0  0  0  0
   -9.7908   22.8127  -31.9528 H   0  0  0  0  0  0  0  0  0  0  0  0
   -8.0514   24.8940  -31.0491 H   0  0  0  0  0  0  0  0  0  0  0  0
   -3.1550   24.6900  -30.5440 H   0  0  0  0  0  0  0  0  0  0  0  0
   -3.7020   21.6132  -33.3698 H   0  0  0  0  0  0  0  0  0  0  0  0
   -2.0838   22.3842  -33.4629 H   0  0  0  0  0  0  0  0  0  0  0  0
    0.5868   21.5098  -31.0661 H   0  0  0  0  0  0  0  0  0  0  0  0
   -0.7839   22.6312  -31.4068 H   0  0  0  0  0  0  0  0  0  0  0  0
   -0.8911   21.1684  -28.7956 H   0  0  0  0  0  0  0  0  0  0  0  0
    0.4059   22.4152  -28.9713 H   0  0  0  0  0  0  0  0  0  0  0  0
   -2.3187   23.2060  -29.9215 H   0  0  0  0  0  0  0  0  0  0  0  0
   -2.1230   22.9862  -28.1421 H   0  0  0  0  0  0  0  0  0  0  0  0
   -5.5827   20.0595  -31.6974 H   0  0  0  0  0  0  0  0  0  0  0  0
  1  2  1  0
  2  3  2  0
  3  4  1  0
  4  5  2  0
  5  6  1  0
  6  7  2  0
  7  8  1  0
  8  9  1  0
  8 10  2  0
  7 11  1  0
 11 12  1  0
 12 13  2  0
 12 14  1  0
 14 15  1  0
 15 16  1  0
 16 17  2  0
 16 18  1  0
 18 19  1  0
 19 20  1  0
 20 21  1  0
 21 22  1  0
 22 23  2  0
 22 24  1  0
 11 25  1  0
 25 26  2  0
 26  2  1  0
 25  5  1  0
  1 27  1  0
  1 28  1  0
  1 29  1  0
  3 30  1  0
  4 31  1  0
  6 32  1  0
  9 33  1  0
 15 34  1  0
 15 35  1  0
 19 36  1  0
 19 37  1  0
 20 38  1  0
 20 39  1  0
 21 40  1  0
 21 41  1  0
 26 42  1  0
M  CHG  3   9  -1  18  -1  24  -1
M  END
>  <UniqueID>  (62) 
62

>  <SMILES>  (62) 
Cc1ccc2cc(C([NH-])=O)n(C(=O)OCC(=O)[N-]CCCC(=O)[O-])c2c1

>  <Energy>  (62) 
69.44050762011739

>  <Genealogy>  (62) 
Cc1ccc2cc(C([NH-])=O)n(C(=O)OCC(=O)[N-]CCCC(=O)[O-])c2c1 (protonated)
Cc1ccc2cc(C([NH-])=O)n(C(=O)OCC(=O)[N-]CCCC(=O)[O-])c2c1 (3D coordinates assigned)
Cc1ccc2cc(C([NH-])=O)n(C(=O)OCC(=O)[N-]CCCC(=O)[O-])c2c1 (optimized conformer: 69.44050762011739 kcal/mol)

>  <smiles>  (62) 
Cc1ccc2cc(C(N)=O)n(C(=O)OCC(=O)NCCCC(=O)O)c2c1

>  <score_type>  (62) 
oracle

>  <origin>  (62) 
adg

>  <m_score__min__energy>  (62) 
-12.279999999999999

>  <m_primary>  (62) 
energy

$$$$
64:0
     RDKit          3D

 43 45  0  0  0  0  0  0  0  0999 V2000
   -6.4580   17.0500  -34.2580 C   0  0  0  0  0  0  0  0  0  0  0  0
   -6.5650   18.0760  -33.4000 C   0  0  0  0  0  0  0  0  0  0  0  0
   -5.3990   18.4070  -32.4900 C   0  0  0  0  0  0  0  0  0  0  0  0
   -5.4020   19.8240  -32.0840 N   0  0  0  0  0  0  0  0  0  0  0  0
   -4.1770   20.4440  -31.6280 C   0  0  0  0  0  0  0  0  0  0  0  0
   -2.9220   19.8140  -31.8580 C   0  0  0  0  0  0  0  0  0  0  0  0
   -1.7260   20.4010  -31.4110 C   0  0  0  0  0  0  0  0  0  0  0  0
   -1.8070   21.6210  -30.7480 C   0  0  0  0  0  0  0  0  0  0  0  0
   -0.8110   22.3910  -30.1900 C   0  0  0  0  0  0  0  0  0  0  0  0
   -1.4620   23.4980  -29.6490 C   0  0  0  0  0  0  0  0  0  0  0  0
   -0.7510   24.6300  -29.0180 C   0  0  0  0  0  0  0  0  0  0  0  0
   -1.3490   25.9220  -28.9470 N   0  0  0  0  0  0  0  0  0  0  0  0
    0.4170   24.4660  -28.5770 O   0  0  0  0  0  0  0  0  0  0  0  0
   -2.8050   23.4120  -29.8570 N   0  0  0  0  0  0  0  0  0  0  0  0
   -3.8270   24.2960  -29.3720 C   0  0  0  0  0  0  0  0  0  0  0  0
   -3.8560   24.6140  -28.1510 O   0  0  0  0  0  0  0  0  0  0  0  0
   -4.7720   24.8190  -30.2620 O   0  0  0  0  0  0  0  0  0  0  0  0
   -6.1470   24.4410  -30.2550 C   0  0  0  0  0  0  0  0  0  0  0  0
   -6.5370   23.8670  -31.5790 C   0  0  0  0  0  0  0  0  0  0  0  0
   -5.6970   23.7980  -32.5150 O   0  0  0  0  0  0  0  0  0  0  0  0
   -7.8330   23.4090  -31.7820 O   0  0  0  0  0  0  0  0  0  0  0  0
   -3.0000   22.2570  -30.5320 C   0  0  0  0  0  0  0  0  0  0  0  0
   -4.2080   21.6870  -30.9480 C   0  0  0  0  0  0  0  0  0  0  0  0
   -6.6550   20.5930  -32.0530 C   0  0  0  0  0  0  0  0  0  0  0  0
   -7.8730   19.6740  -32.1470 C   0  0  0  0  0  0  0  0  0  0  0  0
   -7.8000   18.8290  -33.3430 N   0  0  0  0  0  0  0  0  0  0  0  0
   -7.2973   16.7998  -34.9236 H   0  0  0  0  0  0  0  0  0  0  0  0
   -5.5310   16.4590  -34.2958 H   0  0  0  0  0  0  0  0  0  0  0  0
   -5.4619   17.7790  -31.5891 H   0  0  0  0  0  0  0  0  0  0  0  0
   -4.4689   18.2139  -33.0446 H   0  0  0  0  0  0  0  0  0  0  0  0
   -2.8875   18.8537  -32.3934 H   0  0  0  0  0  0  0  0  0  0  0  0
   -0.7559   19.9108  -31.5802 H   0  0  0  0  0  0  0  0  0  0  0  0
    0.2680   22.1778  -30.1746 H   0  0  0  0  0  0  0  0  0  0  0  0
   -2.3870   26.0350  -28.9560 H   0  0  0  0  0  0  0  0  0  0  0  0
   -6.3116   23.6875  -29.4707 H   0  0  0  0  0  0  0  0  0  0  0  0
   -6.7608   25.3323  -30.0580 H   0  0  0  0  0  0  0  0  0  0  0  0
   -5.1640   22.1942  -30.7510 H   0  0  0  0  0  0  0  0  0  0  0  0
   -6.7049   21.1589  -31.1111 H   0  0  0  0  0  0  0  0  0  0  0  0
   -6.6661   21.2738  -32.9170 H   0  0  0  0  0  0  0  0  0  0  0  0
   -7.9097   19.0323  -31.2544 H   0  0  0  0  0  0  0  0  0  0  0  0
   -8.7782   20.2957  -32.2108 H   0  0  0  0  0  0  0  0  0  0  0  0
   -8.6100   18.1660  -33.3170 H   0  0  0  0  0  0  0  0  0  0  0  0
   -7.8780   19.4230  -34.2010 H   0  0  0  0  0  0  0  0  0  0  0  0
  1  2  2  0
  2  3  1  0
  3  4  1  0
  4  5  1  0
  5  6  2  0
  6  7  1  0
  7  8  2  0
  8  9  1  0
  9 10  2  0
 10 11  1  0
 11 12  1  0
 11 13  2  0
 10 14  1  0
 14 15  1  0
 15 16  2  0
 15 17  1  0
 17 18  1  0
 18 19  1  0
 19 20  2  0
 19 21  1  0
 14 22  1  0
 22 23  2  0
  4 24  1  0
 24 25  1  0
 25 26  1  0
 26  2  1  0
 23  5  1  0
 22  8  1  0
  1 27  1  0
  1 28  1  0
  3 29  1  0
  3 30  1  0
  6 31  1  0
  7 32  1  0
  9 33  1  0
 12 34  1  0
 18 35  1  0
 18 36  1  0
 23 37  1  0
 24 38  1  0
 24 39  1  0
 25 40  1  0
 25 41  1  0
 26 42  1  0
 26 43  1  0
M  CHG  3  12  -1  21  -1  26   1
M  END
>  <UniqueID>  (63) 
63

>  <SMILES>  (63) 
C=C1CN(c2ccc3cc(C([NH-])=O)n(C(=O)OCC(=O)[O-])c3c2)CC[NH2+]1

>  <Energy>  (63) 
85.42745825880372

>  <Genealogy>  (63) 
C=C1CN(c2ccc3cc(C([NH-])=O)n(C(=O)OCC(=O)[O-])c3c2)CC[NH2+]1 (protonated)
C=C1CN(c2ccc3cc(C([NH-])=O)n(C(=O)OCC(=O)[O-])c3c2)CC[NH2+]1 (3D coordinates assigned)
C=C1CN(c2ccc3cc(C([NH-])=O)n(C(=O)OCC(=O)[O-])c3c2)CC[NH2+]1 (nonaromatic ring conformer: 85.42745825880372 kcal/mol)

>  <smiles>  (63) 
C=C1CN(c2ccc3cc(C(N)=O)n(C(=O)OCC(=O)O)c3c2)CCN1

>  <score_type>  (63) 
oracle

>  <origin>  (63) 
adg

>  <m_score__min__energy>  (63) 
-11.98

>  <m_primary>  (63) 
energy

$$$$
65:0
     RDKit          3D

 57 60  0  0  0  0  0  0  0  0999 V2000
   -6.6380   22.9400  -32.3460 C   0  0  0  0  0  0  0  0  0  0  0  0
   -7.7870   22.0070  -31.9210 C   0  0  0  0  0  0  0  0  0  0  0  0
   -9.1170   22.7650  -32.0470 C   0  0  0  0  0  0  0  0  0  0  0  0
   -7.6090   21.5540  -30.4590 C   0  0  0  0  0  0  0  0  0  0  0  0
   -7.8640   20.8690  -32.7920 O   0  0  0  0  0  0  0  0  0  0  0  0
   -8.3130   19.5860  -32.4450 C   0  0  0  0  0  0  0  0  0  0  0  0
   -9.4970   19.3950  -32.0570 O   0  0  0  0  0  0  0  0  0  0  0  0
   -7.4120   18.4760  -32.5510 N   0  0  0  0  0  0  0  0  0  0  0  0
   -6.8760   17.9680  -33.7990 C   0  0  2  0  0  0  0  0  0  0  0  0
   -6.3520   16.5770  -33.4120 C   0  0  0  0  0  0  0  0  0  0  0  0
   -6.0820   16.6690  -31.9060 C   0  0  0  0  0  0  0  0  0  0  0  0
   -6.4400   18.1140  -31.5360 C   0  0  1  0  0  0  0  0  0  0  0  0
   -5.2010   19.0460  -31.6830 C   0  0  0  0  0  0  0  0  0  0  0  0
   -5.1330   19.7560  -33.0750 C   0  0  1  0  0  0  0  0  0  0  0  0
   -3.7590   20.1830  -33.3790 N   0  0  0  0  0  0  0  0  0  0  0  0
   -2.8520   20.7600  -32.4180 C   0  0  0  0  0  0  0  0  0  0  0  0
   -1.5720   20.1980  -32.1570 C   0  0  0  0  0  0  0  0  0  0  0  0
   -0.7120   20.7770  -31.2090 C   0  0  0  0  0  0  0  0  0  0  0  0
   -1.1440   21.9220  -30.5490 C   0  0  0  0  0  0  0  0  0  0  0  0
   -0.5240   22.6660  -29.5720 C   0  0  0  0  0  0  0  0  0  0  0  0
   -1.4150   23.6930  -29.2690 C   0  0  0  0  0  0  0  0  0  0  0  0
   -1.1040   24.7840  -28.3220 C   0  0  0  0  0  0  0  0  0  0  0  0
   -1.1940   26.1490  -28.7210 N   0  0  0  0  0  0  0  0  0  0  0  0
   -0.7030   24.5060  -27.1600 O   0  0  0  0  0  0  0  0  0  0  0  0
   -2.5450   23.5830  -30.0220 N   0  0  0  0  0  0  0  0  0  0  0  0
   -3.7360   24.3860  -29.9420 C   0  0  0  0  0  0  0  0  0  0  0  0
   -4.6620   24.0710  -29.1500 O   0  0  0  0  0  0  0  0  0  0  0  0
   -3.8620   25.5310  -30.7170 O   0  0  0  0  0  0  0  0  0  0  0  0
   -2.3620   22.4960  -30.8030 C   0  0  0  0  0  0  0  0  0  0  0  0
   -3.2470   21.9290  -31.7280 C   0  0  0  0  0  0  0  0  0  0  0  0
   -5.7100   18.8970  -34.2430 C   0  0  0  0  0  0  0  0  0  0  0  0
   -6.1422   23.3426  -31.4504 H   0  0  0  0  0  0  0  0  0  0  0  0
   -5.9094   22.3747  -32.9456 H   0  0  0  0  0  0  0  0  0  0  0  0
   -7.0417   23.7692  -32.9456 H   0  0  0  0  0  0  0  0  0  0  0  0
   -9.5084   22.9881  -31.0435 H   0  0  0  0  0  0  0  0  0  0  0  0
   -8.9528   23.7052  -32.5939 H   0  0  0  0  0  0  0  0  0  0  0  0
   -9.8423   22.1446  -32.5939 H   0  0  0  0  0  0  0  0  0  0  0  0
   -7.9265   22.3620  -29.7835 H   0  0  0  0  0  0  0  0  0  0  0  0
   -8.2226   20.6598  -30.2749 H   0  0  0  0  0  0  0  0  0  0  0  0
   -6.5508   21.3168  -30.2749 H   0  0  0  0  0  0  0  0  0  0  0  0
   -7.5983   17.9260  -34.6275 H   0  0  0  0  0  0  0  0  0  0  0  0
   -7.1064   15.8052  -33.6246 H   0  0  0  0  0  0  0  0  0  0  0  0
   -5.4524   16.2979  -33.9802 H   0  0  0  0  0  0  0  0  0  0  0  0
   -6.7149   15.9586  -31.3539 H   0  0  0  0  0  0  0  0  0  0  0  0
   -5.0410   16.4194  -31.6529 H   0  0  0  0  0  0  0  0  0  0  0  0
   -6.7993   18.2081  -30.5006 H   0  0  0  0  0  0  0  0  0  0  0  0
   -5.2462   19.8158  -30.8985 H   0  0  0  0  0  0  0  0  0  0  0  0
   -4.3031   18.4174  -31.5897 H   0  0  0  0  0  0  0  0  0  0  0  0
   -5.7797   20.6422  -32.9940 H   0  0  0  0  0  0  0  0  0  0  0  0
   -3.4230   20.1070  -34.3660 H   0  0  0  0  0  0  0  0  0  0  0  0
   -1.2514   19.2991  -32.7040 H   0  0  0  0  0  0  0  0  0  0  0  0
    0.2736   20.3377  -30.9953 H   0  0  0  0  0  0  0  0  0  0  0  0
    0.4652   22.4878  -29.1250 H   0  0  0  0  0  0  0  0  0  0  0  0
   -1.2060   26.4130  -29.7310 H   0  0  0  0  0  0  0  0  0  0  0  0
   -4.2308   22.3844  -31.9143 H   0  0  0  0  0  0  0  0  0  0  0  0
   -6.0811   19.5748  -35.0259 H   0  0  0  0  0  0  0  0  0  0  0  0
   -4.8974   18.2518  -34.6081 H   0  0  0  0  0  0  0  0  0  0  0  0
  1  2  1  0
  2  3  1  0
  2  4  1  0
  2  5  1  0
  5  6  1  0
  6  7  2  0
  6  8  1  0
  8  9  1  0
  9 10  1  0
 10 11  1  0
 11 12  1  0
 12 13  1  0
 13 14  1  0
 14 15  1  0
 15 16  1  0
 16 17  2  0
 17 18  1  0
 18 19  2  0
 19 20  1  0
 20 21  2  0
 21 22  1  0
 22 23  1  0
 22 24  2  0
 21 25  1  0
 25 26  1  0
 26 27  2  0
 26 28  1  0
 25 29  1  0
 29 30  2  0
 14 31  1  0
 12  8  1  0
 30 16  1  0
 31  9  1  0
 29 19  1  0
  1 32  1  0
  1 33  1  0
  1 34  1  0
  3 35  1  0
  3 36  1  0
  3 37  1  0
  4 38  1  0
  4 39  1  0
  4 40  1  0
  9 41  1  6
 10 42  1  0
 10 43  1  0
 11 44  1  0
 11 45  1  0
 12 46  1  1
 13 47  1  0
 13 48  1  0
 14 49  1  1
 15 50  1  0
 17 51  1  0
 18 52  1  0
 20 53  1  0
 23 54  1  0
 30 55  1  0
 31 56  1  0
 31 57  1  0
M  CHG  2  23  -1  28  -1
M  END
>  <UniqueID>  (64) 
64

>  <SMILES>  (64) 
CC(C)(C)OC(=O)N1[C@@H]2CC[C@H]1C[C@@H](Nc1ccc3cc(C([NH-])=O)n(C(=O)[O-])c3c1)C2

>  <Energy>  (64) 
115.88329571230035

>  <Genealogy>  (64) 
CC(C)(C)OC(=O)N1[C@@H]2CC[C@H]1CC(Nc1ccc3cc(C([NH-])=O)n(C(=O)[O-])c3c1)C2 (protonated)
CC(C)(C)OC(=O)N1[C@@H]2CC[C@H]1C[C@@H](Nc1ccc3cc(C([NH-])=O)n(C(=O)[O-])c3c1)C2 (chirality)
CC(C)(C)OC(=O)N1[C@@H]2CC[C@H]1C[C@@H](Nc1ccc3cc(C([NH-])=O)n(C(=O)[O-])c3c1)C2 (3D coordinates assigned)
CC(C)(C)OC(=O)N1[C@@H]2CC[C@H]1C[C@@H](Nc1ccc3cc(C([NH-])=O)n(C(=O)[O-])c3c1)C2 (nonaromatic ring conformer: 115.88329571230035 kcal/mol)

>  <smiles>  (64) 
CC(C)(C)OC(=O)N1[C@@H]2CC[C@H]1CC(Nc1ccc3cc(C(N)=O)n(C(=O)O)c3c1)C2

>  <score_type>  (64) 
oracle

>  <origin>  (64) 
adg

>  <m_score__min__energy>  (64) 
-13.529999999999999

>  <m_primary>  (64) 
energy

$$$$
66:0
     RDKit          3D

 36 39  0  0  0  0  0  0  0  0999 V2000
   -1.5770   26.0330  -28.9190 N   0  0  0  0  0  0  0  0  0  0  0  0
   -0.8420   24.8120  -28.8600 C   0  0  0  0  0  0  0  0  0  0  0  0
    0.2000   24.7540  -28.1560 O   0  0  0  0  0  0  0  0  0  0  0  0
   -1.3310   23.6240  -29.5900 C   0  0  0  0  0  0  0  0  0  0  0  0
   -0.5210   22.5400  -29.9190 C   0  0  0  0  0  0  0  0  0  0  0  0
   -1.3180   21.6990  -30.6610 C   0  0  0  0  0  0  0  0  0  0  0  0
   -1.0230   20.4700  -31.2420 C   0  0  0  0  0  0  0  0  0  0  0  0
   -2.0490   19.8050  -31.9340 C   0  0  0  0  0  0  0  0  0  0  0  0
   -3.3460   20.3710  -32.0190 C   0  0  0  0  0  0  0  0  0  0  0  0
   -4.4240   19.6650  -32.7420 C   0  0  0  0  0  0  0  0  0  0  0  0
   -4.1120   18.7910  -33.8060 C   0  0  0  0  0  0  0  0  0  0  0  0
   -5.1310   18.1290  -34.5180 C   0  0  0  0  0  0  0  0  0  0  0  0
   -6.4780   18.3400  -34.1880 C   0  0  0  0  0  0  0  0  0  0  0  0
   -6.7670   19.2110  -33.1410 C   0  0  0  0  0  0  0  0  0  0  0  0
   -5.7810   19.8570  -32.4240 C   0  0  0  0  0  0  0  0  0  0  0  0
   -6.3930   20.7860  -31.4050 C   0  0  0  0  0  0  0  0  0  0  0  0
   -7.8340   20.6130  -31.6010 N   0  0  0  0  0  0  0  0  0  0  0  0
   -8.0380   19.6640  -32.6370 C   0  0  0  0  0  0  0  0  0  0  0  0
   -9.1700   19.2980  -33.0460 O   0  0  0  0  0  0  0  0  0  0  0  0
   -3.6040   21.6270  -31.4270 C   0  0  0  0  0  0  0  0  0  0  0  0
   -2.5580   22.2750  -30.7590 C   0  0  0  0  0  0  0  0  0  0  0  0
   -2.5840   23.4570  -30.1030 N   0  0  0  0  0  0  0  0  0  0  0  0
   -3.7270   24.3130  -29.9400 C   0  0  0  0  0  0  0  0  0  0  0  0
   -4.6320   24.0180  -29.1160 O   0  0  0  0  0  0  0  0  0  0  0  0
   -3.8570   25.4640  -30.7070 O   0  0  0  0  0  0  0  0  0  0  0  0
   -2.6200   26.0300  -28.9690 H   0  0  0  0  0  0  0  0  0  0  0  0
    0.5332   22.3882  -29.6438 H   0  0  0  0  0  0  0  0  0  0  0  0
   -0.0171   20.0322  -31.1621 H   0  0  0  0  0  0  0  0  0  0  0  0
   -1.8442   18.8367  -32.4141 H   0  0  0  0  0  0  0  0  0  0  0  0
   -3.0603   18.6251  -34.0822 H   0  0  0  0  0  0  0  0  0  0  0  0
   -4.8693   17.4430  -35.3371 H   0  0  0  0  0  0  0  0  0  0  0  0
   -7.2824   17.8321  -34.7403 H   0  0  0  0  0  0  0  0  0  0  0  0
   -6.0983   20.4986  -30.3849 H   0  0  0  0  0  0  0  0  0  0  0  0
   -6.0676   21.8294  -31.5288 H   0  0  0  0  0  0  0  0  0  0  0  0
   -8.5860   21.1030  -31.0680 H   0  0  0  0  0  0  0  0  0  0  0  0
   -4.6022   22.0849  -31.4892 H   0  0  0  0  0  0  0  0  0  0  0  0
  1  2  1  0
  2  3  2  0
  2  4  1  0
  4  5  2  0
  5  6  1  0
  6  7  2  0
  7  8  1  0
  8  9  2  0
  9 10  1  0
 10 11  2  0
 11 12  1  0
 12 13  2  0
 13 14  1  0
 14 15  2  0
 15 16  1  0
 16 17  1  0
 17 18  1  0
 18 19  2  0
  9 20  1  0
 20 21  2  0
 21 22  1  0
 22 23  1  0
 23 24  2  0
 23 25  1  0
 22  4  1  0
 21  6  1  0
 15 10  1  0
 18 14  1  0
  1 26  1  0
  5 27  1  0
  7 28  1  0
  8 29  1  0
 11 30  1  0
 12 31  1  0
 13 32  1  0
 16 33  1  0
 16 34  1  0
 17 35  1  0
 20 36  1  0
M  CHG  2   1  -1  25  -1
M  END
>  <UniqueID>  (65) 
65

>  <SMILES>  (65) 
[NH-]C(=O)c1cc2ccc(-c3cccc4c3CNC4=O)cc2n1C(=O)[O-]

>  <Energy>  (65) 
107.40387457861817

>  <Genealogy>  (65) 
[NH-]C(=O)c1cc2ccc(-c3cccc4c3CNC4=O)cc2n1C(=O)[O-] (protonated)
[NH-]C(=O)c1cc2ccc(-c3cccc4c3CNC4=O)cc2n1C(=O)[O-] (3D coordinates assigned)
[NH-]C(=O)c1cc2ccc(-c3cccc4c3CNC4=O)cc2n1C(=O)[O-] (nonaromatic ring conformer: 107.40387457861817 kcal/mol)

>  <smiles>  (65) 
NC(=O)c1cc2ccc(-c3cccc4c3CNC4=O)cc2n1C(=O)O

>  <score_type>  (65) 
oracle

>  <origin>  (65) 
adg

>  <m_score__min__energy>  (65) 
-12.539999999999999

>  <m_primary>  (65) 
energy

$$$$
67:0
     RDKit          3D

 47 48  0  0  0  0  0  0  0  0999 V2000
    0.2420   20.7990  -32.9360 C   0  0  0  0  0  0  0  0  0  0  0  0
   -0.0230   20.3950  -34.3190 N   0  0  0  0  0  0  0  0  0  0  0  0
   -0.5290   19.0420  -34.5970 C   0  0  0  0  0  0  0  0  0  0  0  0
   -1.1210   18.4030  -33.3330 C   0  0  0  0  0  0  0  0  0  0  0  0
   -2.5870   18.2840  -33.4240 N   0  0  0  0  0  0  0  0  0  0  0  0
   -3.1770   17.0100  -33.8520 C   0  0  0  0  0  0  0  0  0  0  0  0
   -3.4510   19.4130  -33.1450 C   0  0  0  0  0  0  0  0  0  0  0  0
   -4.7670   19.4690  -33.6780 C   0  0  0  0  0  0  0  0  0  0  0  0
   -5.6180   20.5490  -33.3880 C   0  0  0  0  0  0  0  0  0  0  0  0
   -5.1300   21.5640  -32.5730 C   0  0  0  0  0  0  0  0  0  0  0  0
   -5.7500   22.7020  -32.1100 C   0  0  0  0  0  0  0  0  0  0  0  0
   -4.7990   23.3460  -31.3220 C   0  0  0  0  0  0  0  0  0  0  0  0
   -5.0210   24.6640  -30.6920 C   0  0  0  0  0  0  0  0  0  0  0  0
   -3.9610   25.6090  -30.5750 N   0  0  0  0  0  0  0  0  0  0  0  0
   -6.1740   24.9790  -30.2950 O   0  0  0  0  0  0  0  0  0  0  0  0
   -3.6400   22.6270  -31.2910 N   0  0  0  0  0  0  0  0  0  0  0  0
   -2.4540   22.9000  -30.5300 C   0  0  0  0  0  0  0  0  0  0  0  0
   -1.3280   22.5330  -30.9660 O   0  0  0  0  0  0  0  0  0  0  0  0
   -2.5510   23.6000  -29.3210 O   0  0  0  0  0  0  0  0  0  0  0  0
   -1.5020   23.6560  -28.3570 C   0  0  0  0  0  0  0  0  0  0  0  0
   -0.7040   24.9490  -28.5070 C   0  0  0  0  0  0  0  0  0  0  0  0
   -1.5620   25.9830  -28.8990 O   0  0  0  0  0  0  0  0  0  0  0  0
   -3.8580   21.5420  -32.0670 C   0  0  0  0  0  0  0  0  0  0  0  0
   -2.9950   20.4740  -32.3250 C   0  0  0  0  0  0  0  0  0  0  0  0
    0.2580   21.3240  -35.3820 C   0  0  0  0  0  0  0  0  0  0  0  0
    0.1510   20.9760  -36.5880 O   0  0  0  0  0  0  0  0  0  0  0  0
    0.6450   22.6270  -35.0890 O   0  0  0  0  0  0  0  0  0  0  0  0
   -0.2287   20.0815  -32.2478 H   0  0  0  0  0  0  0  0  0  0  0  0
    1.3278   20.8168  -32.7609 H   0  0  0  0  0  0  0  0  0  0  0  0
   -0.1742   21.8021  -32.7609 H   0  0  0  0  0  0  0  0  0  0  0  0
   -1.3104   19.1022  -35.3689 H   0  0  0  0  0  0  0  0  0  0  0  0
    0.3093   18.4197  -34.9433 H   0  0  0  0  0  0  0  0  0  0  0  0
   -0.6883   17.4000  -33.2033 H   0  0  0  0  0  0  0  0  0  0  0  0
   -0.8796   19.0475  -32.4749 H   0  0  0  0  0  0  0  0  0  0  0  0
   -3.4515   16.4173  -32.9669 H   0  0  0  0  0  0  0  0  0  0  0  0
   -4.0758   17.2064  -34.4549 H   0  0  0  0  0  0  0  0  0  0  0  0
   -2.4459   16.4515  -34.4549 H   0  0  0  0  0  0  0  0  0  0  0  0
   -5.1246   18.6557  -34.3266 H   0  0  0  0  0  0  0  0  0  0  0  0
   -6.6396   20.5900  -33.7937 H   0  0  0  0  0  0  0  0  0  0  0  0
   -6.7782   23.0328  -32.3180 H   0  0  0  0  0  0  0  0  0  0  0  0
   -2.9750   25.2950  -30.4320 H   0  0  0  0  0  0  0  0  0  0  0  0
   -1.9362   23.6140  -27.3472 H   0  0  0  0  0  0  0  0  0  0  0  0
   -0.8274   22.8019  -28.5164 H   0  0  0  0  0  0  0  0  0  0  0  0
   -0.2364   25.2052  -27.5449 H   0  0  0  0  0  0  0  0  0  0  0  0
    0.0774   24.8117  -29.2689 H   0  0  0  0  0  0  0  0  0  0  0  0
   -2.0030   25.6730  -29.7330 H   0  0  0  0  0  0  0  0  0  0  0  0
   -1.9808   20.4575  -31.8994 H   0  0  0  0  0  0  0  0  0  0  0  0
  1  2  1  0
  2  3  1  0
  3  4  1  0
  4  5  1  0
  5  6  1  0
  5  7  1  0
  7  8  2  0
  8  9  1  0
  9 10  2  0
 10 11  1  0
 11 12  2  0
 12 13  1  0
 13 14  1  0
 13 15  2  0
 12 16  1  0
 16 17  1  0
 17 18  2  0
 17 19  1  0
 19 20  1  0
 20 21  1  0
 21 22  1  0
 16 23  1  0
 23 24  2  0
  2 25  1  0
 25 26  2  0
 25 27  1  0
 24  7  1  0
 23 10  1  0
  1 28  1  0
  1 29  1  0
  1 30  1  0
  3 31  1  0
  3 32  1  0
  4 33  1  0
  4 34  1  0
  6 35  1  0
  6 36  1  0
  6 37  1  0
  8 38  1  0
  9 39  1  0
 11 40  1  0
 14 41  1  0
 20 42  1  0
 20 43  1  0
 21 44  1  0
 21 45  1  0
 22 46  1  0
 24 47  1  0
M  CHG  2  14  -1  27  -1
M  END
>  <UniqueID>  (66) 
66

>  <SMILES>  (66) 
CN(CCN(C)c1ccc2cc(C([NH-])=O)n(C(=O)OCCO)c2c1)C(=O)[O-]

>  <Energy>  (66) 
78.4449271610433

>  <Genealogy>  (66) 
CN(CCN(C)c1ccc2cc(C([NH-])=O)n(C(=O)OCCO)c2c1)C(=O)[O-] (protonated)
CN(CCN(C)c1ccc2cc(C([NH-])=O)n(C(=O)OCCO)c2c1)C(=O)[O-] (3D coordinates assigned)
CN(CCN(C)c1ccc2cc(C([NH-])=O)n(C(=O)OCCO)c2c1)C(=O)[O-] (optimized conformer: 78.4449271610433 kcal/mol)

>  <smiles>  (66) 
CN(CCN(C)c1ccc2cc(C(N)=O)n(C(=O)OCCO)c2c1)C(=O)O

>  <score_type>  (66) 
oracle

>  <origin>  (66) 
adg

>  <m_score__min__energy>  (66) 
-10.31

>  <m_primary>  (66) 
energy

$$$$
68:0
     RDKit          3D

 36 37  0  0  0  0  0  0  0  0999 V2000
   -2.2420   21.8140  -30.8730 N   0  0  0  0  0  0  0  0  0  0  0  0
   -2.1570   22.6750  -30.1000 C   0  0  0  0  0  0  0  0  0  0  0  0
   -2.0500   23.7660  -29.1200 C   0  0  0  0  0  0  0  0  0  0  0  0
   -2.8070   24.9320  -29.5690 N   0  0  0  0  0  0  0  0  0  0  0  0
   -4.1450   24.9110  -30.0890 C   0  0  0  0  0  0  0  0  0  0  0  0
   -4.3700   25.4860  -31.1890 O   0  0  0  0  0  0  0  0  0  0  0  0
   -5.2520   24.1550  -29.3920 C   0  0  0  0  0  0  0  0  0  0  0  0
   -6.5950   24.1910  -30.1420 C   0  0  0  0  0  0  0  0  0  0  0  0
   -6.8830   22.8990  -30.8640 C   0  0  0  0  0  0  0  0  0  0  0  0
   -8.1910   22.3560  -30.8560 C   0  0  0  0  0  0  0  0  0  0  0  0
   -8.4730   21.1570  -31.5300 C   0  0  0  0  0  0  0  0  0  0  0  0
   -7.4310   20.5270  -32.2020 C   0  0  0  0  0  0  0  0  0  0  0  0
   -7.4210   19.3470  -32.9090 C   0  0  0  0  0  0  0  0  0  0  0  0
   -6.1100   19.1910  -33.3510 C   0  0  0  0  0  0  0  0  0  0  0  0
   -5.6600   18.0980  -34.2420 C   0  0  0  0  0  0  0  0  0  0  0  0
   -4.3000   18.0130  -34.6710 N   0  0  0  0  0  0  0  0  0  0  0  0
   -6.4690   17.2000  -34.5960 O   0  0  0  0  0  0  0  0  0  0  0  0
   -5.3380   20.2340  -32.9310 N   0  0  0  0  0  0  0  0  0  0  0  0
   -3.9200   20.3970  -33.1060 C   0  0  0  0  0  0  0  0  0  0  0  0
   -3.0080   19.4880  -32.4890 N   0  0  0  0  0  0  0  0  0  0  0  0
   -3.4760   21.3390  -33.8180 O   0  0  0  0  0  0  0  0  0  0  0  0
   -6.1610   21.0440  -32.2310 C   0  0  0  0  0  0  0  0  0  0  0  0
   -5.8490   22.2270  -31.5540 C   0  0  0  0  0  0  0  0  0  0  0  0
   -2.4495   23.4251  -28.1535 H   0  0  0  0  0  0  0  0  0  0  0  0
   -0.9919   24.0474  -29.0145 H   0  0  0  0  0  0  0  0  0  0  0  0
   -4.9418   23.1050  -29.2860 H   0  0  0  0  0  0  0  0  0  0  0  0
   -5.4136   24.6458  -28.4209 H   0  0  0  0  0  0  0  0  0  0  0  0
   -7.4003   24.3776  -29.4163 H   0  0  0  0  0  0  0  0  0  0  0  0
   -6.5384   24.9912  -30.8946 H   0  0  0  0  0  0  0  0  0  0  0  0
   -8.9942   22.8790  -30.3162 H   0  0  0  0  0  0  0  0  0  0  0  0
   -9.4864   20.7293  -31.5266 H   0  0  0  0  0  0  0  0  0  0  0  0
   -8.2694   18.6699  -33.0874 H   0  0  0  0  0  0  0  0  0  0  0  0
   -3.6080   18.7570  -34.4390 H   0  0  0  0  0  0  0  0  0  0  0  0
   -3.9770   17.1870  -35.2280 H   0  0  0  0  0  0  0  0  0  0  0  0
   -2.4180   19.7970  -31.6870 H   0  0  0  0  0  0  0  0  0  0  0  0
   -4.8235   22.6249  -31.5584 H   0  0  0  0  0  0  0  0  0  0  0  0
  1  2  3  0
  2  3  1  0
  3  4  1  0
  4  5  1  0
  5  6  2  0
  5  7  1  0
  7  8  1  0
  8  9  1  0
  9 10  2  0
 10 11  1  0
 11 12  2  0
 12 13  1  0
 13 14  2  0
 14 15  1  0
 15 16  1  0
 15 17  2  0
 14 18  1  0
 18 19  1  0
 19 20  1  0
 19 21  2  0
 18 22  1  0
 22 23  2  0
 23  9  1  0
 22 12  1  0
  3 24  1  0
  3 25  1  0
  7 26  1  0
  7 27  1  0
  8 28  1  0
  8 29  1  0
 10 30  1  0
 11 31  1  0
 13 32  1  0
 16 33  1  0
 16 34  1  0
 20 35  1  0
 23 36  1  0
M  CHG  2   4  -1  20  -1
M  END
>  <UniqueID>  (67) 
67

>  <SMILES>  (67) 
N#CC[N-]C(=O)CCc1ccc2cc(C(N)=O)n(C([NH-])=O)c2c1

>  <Energy>  (67) 
70.61464330667505

>  <Genealogy>  (67) 
N#CC[N-]C(=O)CCc1ccc2cc(C(N)=O)n(C([NH-])=O)c2c1 (protonated)
N#CC[N-]C(=O)CCc1ccc2cc(C(N)=O)n(C([NH-])=O)c2c1 (3D coordinates assigned)
N#CC[N-]C(=O)CCc1ccc2cc(C(N)=O)n(C([NH-])=O)c2c1 (optimized conformer: 70.61464330667505 kcal/mol)

>  <smiles>  (67) 
N#CCNC(=O)CCc1ccc2cc(C(N)=O)n(C(N)=O)c2c1

>  <score_type>  (67) 
oracle

>  <origin>  (67) 
adg

>  <m_score__min__energy>  (67) 
-10.470000000000001

>  <m_primary>  (67) 
energy

$$$$
69:0
     RDKit          3D

 38 39  0  0  0  0  0  0  0  0999 V2000
   -7.0610   18.6440  -33.0440 C   0  0  0  0  0  0  0  0  0  0  0  0
   -7.1790   20.0150  -32.4480 C   0  0  0  0  0  0  0  0  0  0  0  0
   -8.4540   20.5750  -32.1860 C   0  0  0  0  0  0  0  0  0  0  0  0
   -8.5710   21.8690  -31.6480 C   0  0  0  0  0  0  0  0  0  0  0  0
   -7.4000   22.5820  -31.4070 C   0  0  0  0  0  0  0  0  0  0  0  0
   -7.2200   23.8400  -30.8780 C   0  0  0  0  0  0  0  0  0  0  0  0
   -5.8410   24.0440  -30.8680 C   0  0  0  0  0  0  0  0  0  0  0  0
   -5.2080   25.3130  -30.4480 C   0  0  0  0  0  0  0  0  0  0  0  0
   -3.8820   25.6420  -30.8510 N   0  0  0  0  0  0  0  0  0  0  0  0
   -5.8660   26.1370  -29.7560 O   0  0  0  0  0  0  0  0  0  0  0  0
   -5.1950   22.9530  -31.3660 N   0  0  0  0  0  0  0  0  0  0  0  0
   -3.7810   22.7330  -31.4810 C   0  0  0  0  0  0  0  0  0  0  0  0
   -3.3120   22.1970  -32.5220 O   0  0  0  0  0  0  0  0  0  0  0  0
   -2.9380   23.1340  -30.4360 O   0  0  0  0  0  0  0  0  0  0  0  0
   -3.2510   23.0550  -29.0740 C   0  0  0  0  0  0  0  0  0  0  0  0
   -3.8560   22.0530  -28.6020 O   0  0  0  0  0  0  0  0  0  0  0  0
   -2.8160   24.1550  -28.1560 C   0  0  0  0  0  0  0  0  0  0  0  0
   -1.6570   24.8640  -28.7410 N   0  0  0  0  0  0  0  0  0  0  0  0
   -0.5260   23.9430  -28.9440 C   0  0  0  0  0  0  0  0  0  0  0  0
   -1.2310   25.9840  -27.8810 C   0  0  0  0  0  0  0  0  0  0  0  0
   -6.1620   22.0680  -31.6900 C   0  0  0  0  0  0  0  0  0  0  0  0
   -6.0140   20.7720  -32.2000 C   0  0  0  0  0  0  0  0  0  0  0  0
   -6.9968   17.8981  -32.2381 H   0  0  0  0  0  0  0  0  0  0  0  0
   -7.9447   18.4371  -33.6656 H   0  0  0  0  0  0  0  0  0  0  0  0
   -6.1550   18.5911  -33.6656 H   0  0  0  0  0  0  0  0  0  0  0  0
   -9.3607   19.9921  -32.4055 H   0  0  0  0  0  0  0  0  0  0  0  0
   -9.5564   22.3039  -31.4247 H   0  0  0  0  0  0  0  0  0  0  0  0
   -7.9993   24.5368  -30.5356 H   0  0  0  0  0  0  0  0  0  0  0  0
   -3.0560   25.2890  -30.3180 H   0  0  0  0  0  0  0  0  0  0  0  0
   -3.6455   24.8638  -28.0159 H   0  0  0  0  0  0  0  0  0  0  0  0
   -2.5282   23.7263  -27.1847 H   0  0  0  0  0  0  0  0  0  0  0  0
   -0.1335   23.6234  -27.9674 H   0  0  0  0  0  0  0  0  0  0  0  0
   -0.8669   23.0624  -29.5081 H   0  0  0  0  0  0  0  0  0  0  0  0
    0.2673   24.4553  -29.5081 H   0  0  0  0  0  0  0  0  0  0  0  0
   -1.3401   25.6972  -26.8247 H   0  0  0  0  0  0  0  0  0  0  0  0
   -0.1781   26.2257  -28.0885 H   0  0  0  0  0  0  0  0  0  0  0  0
   -1.8571   26.8643  -28.0885 H   0  0  0  0  0  0  0  0  0  0  0  0
   -5.0162   20.3552  -32.4019 H   0  0  0  0  0  0  0  0  0  0  0  0
  1  2  1  0
  2  3  2  0
  3  4  1  0
  4  5  2  0
  5  6  1  0
  6  7  2  0
  7  8  1  0
  8  9  1  0
  8 10  2  0
  7 11  1  0
 11 12  1  0
 12 13  2  0
 12 14  1  0
 14 15  1  0
 15 16  2  0
 15 17  1  0
 17 18  1  0
 18 19  1  0
 18 20  1  0
 11 21  1  0
 21 22  2  0
 22  2  1  0
 21  5  1  0
  1 23  1  0
  1 24  1  0
  1 25  1  0
  3 26  1  0
  4 27  1  0
  6 28  1  0
  9 29  1  0
 17 30  1  0
 17 31  1  0
 19 32  1  0
 19 33  1  0
 19 34  1  0
 20 35  1  0
 20 36  1  0
 20 37  1  0
 22 38  1  0
M  CHG  1   9  -1
M  END
>  <UniqueID>  (68) 
68

>  <SMILES>  (68) 
Cc1ccc2cc(C([NH-])=O)n(C(=O)OC(=O)CN(C)C)c2c1

>  <Energy>  (68) 
76.92784570896164

>  <Genealogy>  (68) 
Cc1ccc2cc(C([NH-])=O)n(C(=O)OC(=O)CN(C)C)c2c1 (protonated)
Cc1ccc2cc(C([NH-])=O)n(C(=O)OC(=O)CN(C)C)c2c1 (3D coordinates assigned)
Cc1ccc2cc(C([NH-])=O)n(C(=O)OC(=O)CN(C)C)c2c1 (optimized conformer: 76.92784570896164 kcal/mol)

>  <smiles>  (68) 
Cc1ccc2cc(C(N)=O)n(C(=O)OC(=O)CN(C)C)c2c1

>  <score_type>  (68) 
oracle

>  <origin>  (68) 
adg

>  <m_score__min__energy>  (68) 
-9.6400000000000006

>  <m_primary>  (68) 
energy

$$$$
70:0
     RDKit          3D

 31 32  0  0  0  0  0  0  0  0999 V2000
   -3.2300   25.0320  -30.9130 H   0  0  0  0  0  0  0  0  0  0  0  0
   -4.0540   25.6680  -30.8250 N   0  0  0  0  0  0  0  0  0  0  0  0
   -5.3250   25.1700  -30.4130 C   0  0  0  0  0  0  0  0  0  0  0  0
   -6.0890   25.9150  -29.7420 O   0  0  0  0  0  0  0  0  0  0  0  0
   -5.7670   23.8080  -30.7820 C   0  0  0  0  0  0  0  0  0  0  0  0
   -7.0990   23.4640  -31.0150 C   0  0  0  0  0  0  0  0  0  0  0  0
   -7.9799   24.1180  -30.9364 H   0  0  0  0  0  0  0  0  0  0  0  0
   -7.0770   22.1330  -31.3640 C   0  0  0  0  0  0  0  0  0  0  0  0
   -8.1210   21.2720  -31.6880 C   0  0  0  0  0  0  0  0  0  0  0  0
   -9.1612   21.6286  -31.7156 H   0  0  0  0  0  0  0  0  0  0  0  0
   -7.8070   19.9330  -31.9790 C   0  0  0  0  0  0  0  0  0  0  0  0
   -8.6084   19.2323  -32.2562 H   0  0  0  0  0  0  0  0  0  0  0  0
   -6.4660   19.4790  -31.9180 C   0  0  0  0  0  0  0  0  0  0  0  0
   -6.1400   18.0540  -32.2550 C   0  0  0  0  0  0  0  0  0  0  0  0
   -6.0084   17.4786  -31.3268 H   0  0  0  0  0  0  0  0  0  0  0  0
   -6.9618   17.6190  -32.8427 H   0  0  0  0  0  0  0  0  0  0  0  0
   -5.2108   18.0196  -32.8427 H   0  0  0  0  0  0  0  0  0  0  0  0
   -5.4300   20.3830  -31.5970 C   0  0  0  0  0  0  0  0  0  0  0  0
   -4.3824   20.0502  -31.5557 H   0  0  0  0  0  0  0  0  0  0  0  0
   -5.7720   21.7130  -31.3330 C   0  0  0  0  0  0  0  0  0  0  0  0
   -4.9570   22.7320  -30.9850 N   0  0  0  0  0  0  0  0  0  0  0  0
   -3.5360   22.6580  -30.7940 C   0  0  0  0  0  0  0  0  0  0  0  0
   -2.7740   23.0380  -31.7220 O   0  0  0  0  0  0  0  0  0  0  0  0
   -2.9950   22.2120  -29.4900 C   0  0  0  0  0  0  0  0  0  0  0  0
   -3.3578   21.2483  -29.1031 H   0  0  0  0  0  0  0  0  0  0  0  0
   -2.1000   22.8760  -28.7330 C   0  0  0  0  0  0  0  0  0  0  0  0
   -1.8180   22.3710  -27.4110 C   0  0  0  0  0  0  0  0  0  0  0  0
   -1.5930   21.9660  -26.3510 N   0  0  0  0  0  0  0  0  0  0  0  0
   -1.3410   24.0630  -29.1780 C   0  0  0  0  0  0  0  0  0  0  0  0
   -0.0940   24.0110  -29.3450 O   0  0  0  0  0  0  0  0  0  0  0  0
   -1.9910   25.2830  -29.3270 O   0  0  0  0  0  0  0  0  0  0  0  0
  1  2  1  0
  2  3  1  0
  3  4  2  0
  3  5  1  0
  5  6  2  0
  6  7  1  0
  6  8  1  0
  8  9  2  0
  9 10  1  0
  9 11  1  0
 11 12  1  0
 11 13  2  0
 13 14  1  0
 14 15  1  0
 14 16  1  0
 14 17  1  0
 13 18  1  0
 18 19  1  0
 18 20  2  0
 20 21  1  0
 21 22  1  0
 22 23  2  0
 22 24  1  0
 24 25  1  0
 24 26  2  0
 26 27  1  0
 27 28  3  0
 26 29  1  0
 29 30  2  0
 29 31  1  0
 21  5  1  0
 20  8  1  0
M  CHG  2   2  -1  31  -1
M  END
>  <UniqueID>  (69) 
69

>  <SMILES>  (69) 
Cc1ccc2cc(C([NH-])=O)n(C(=O)/C=C(/C#N)C(=O)[O-])c2c1

>  <Energy>  (69) 
76.872671439018

>  <Genealogy>  (69) 
Cc1ccc2cc(C([NH-])=O)n(C(=O)C=C(C#N)C(=O)[O-])c2c1 (protonated)
Cc1ccc2cc(C([NH-])=O)n(C(=O)/C=C(/C#N)C(=O)[O-])c2c1 (cis-trans isomerization)
Cc1ccc2cc(C([NH-])=O)n(C(=O)/C=C(/C#N)C(=O)[O-])c2c1 (3D coordinates assigned)
Cc1ccc2cc(C([NH-])=O)n(C(=O)/C=C(/C#N)C(=O)[O-])c2c1 (optimized conformer: 76.872671439018 kcal/mol)

>  <smiles>  (69) 
Cc1ccc2cc(C(N)=O)n(C(=O)C=C(C#N)C(=O)O)c2c1

>  <score_type>  (69) 
oracle

>  <origin>  (69) 
adg

>  <m_score__min__energy>  (69) 
-11.75

>  <m_primary>  (69) 
energy

$$$$
71:0
     RDKit          3D

 49 50  0  0  0  0  0  0  0  0999 V2000
   -3.7310   25.2990  -30.5290 N   0  0  0  0  0  0  0  0  0  0  0  0
   -5.1560   25.3590  -30.4600 C   0  0  0  0  0  0  0  0  0  0  0  0
   -5.7290   26.4470  -30.1710 O   0  0  0  0  0  0  0  0  0  0  0  0
   -5.9550   24.1500  -30.7150 C   0  0  0  0  0  0  0  0  0  0  0  0
   -7.3350   24.1660  -30.8930 C   0  0  0  0  0  0  0  0  0  0  0  0
   -7.6650   22.8780  -31.2570 C   0  0  0  0  0  0  0  0  0  0  0  0
   -8.8990   22.3330  -31.5960 C   0  0  0  0  0  0  0  0  0  0  0  0
   -8.9460   20.9640  -31.9140 C   0  0  0  0  0  0  0  0  0  0  0  0
   -7.7680   20.1680  -31.8840 C   0  0  0  0  0  0  0  0  0  0  0  0
   -7.8240   18.6990  -32.2250 C   0  0  0  0  0  0  0  0  0  0  0  0
   -9.1330   18.2510  -32.2590 F   0  0  0  0  0  0  0  0  0  0  0  0
   -7.2400   18.4930  -33.4620 F   0  0  0  0  0  0  0  0  0  0  0  0
   -7.1400   17.9570  -31.2750 F   0  0  0  0  0  0  0  0  0  0  0  0
   -6.5240   20.7760  -31.6000 C   0  0  0  0  0  0  0  0  0  0  0  0
   -6.5080   22.1370  -31.2770 C   0  0  0  0  0  0  0  0  0  0  0  0
   -5.4480   22.9060  -30.9450 N   0  0  0  0  0  0  0  0  0  0  0  0
   -4.0790   22.4890  -30.8420 C   0  0  0  0  0  0  0  0  0  0  0  0
   -3.2410   22.8660  -31.7090 O   0  0  0  0  0  0  0  0  0  0  0  0
   -3.6530   21.5240  -29.7560 C   0  0  0  0  0  0  0  0  0  0  0  0
   -2.2810   21.7600  -29.2490 N   0  0  2  0  0  0  0  0  0  0  0  0
   -1.6750   20.5360  -28.6560 C   0  0  0  0  0  0  0  0  0  0  0  0
   -0.1720   20.3740  -29.0090 C   0  0  1  0  0  0  0  0  0  0  0  0
    0.2480   21.5100  -29.7200 O   0  0  0  0  0  0  0  0  0  0  0  0
    0.7130   20.1900  -27.7590 C   0  0  0  0  0  0  0  0  0  0  0  0
    1.4130   21.3720  -27.4750 O   0  0  0  0  0  0  0  0  0  0  0  0
   -2.2480   22.8860  -28.3380 C   0  0  0  0  0  0  0  0  0  0  0  0
   -3.2700   23.6190  -28.1920 O   0  0  0  0  0  0  0  0  0  0  0  0
   -1.0600   23.1890  -27.6540 O   0  0  0  0  0  0  0  0  0  0  0  0
   -0.2620   24.3130  -27.9100 C   0  0  0  0  0  0  0  0  0  0  0  0
    0.9200   24.1820  -28.3290 O   0  0  0  0  0  0  0  0  0  0  0  0
   -0.8540   25.6840  -27.7680 C   0  0  0  0  0  0  0  0  0  0  0  0
   -1.7860   25.6730  -26.7380 F   0  0  0  0  0  0  0  0  0  0  0  0
   -1.4830   26.0590  -28.9430 F   0  0  0  0  0  0  0  0  0  0  0  0
    0.1430   26.6040  -27.4780 F   0  0  0  0  0  0  0  0  0  0  0  0
   -3.2100   24.4550  -30.2070 H   0  0  0  0  0  0  0  0  0  0  0  0
   -8.0155   25.0215  -30.7699 H   0  0  0  0  0  0  0  0  0  0  0  0
   -9.8079   22.9523  -31.6147 H   0  0  0  0  0  0  0  0  0  0  0  0
   -9.9060   20.5031  -32.1894 H   0  0  0  0  0  0  0  0  0  0  0  0
   -5.5915   20.1934  -31.6322 H   0  0  0  0  0  0  0  0  0  0  0  0
   -4.3546   21.6182  -28.9140 H   0  0  0  0  0  0  0  0  0  0  0  0
   -3.6608   20.5181  -30.2010 H   0  0  0  0  0  0  0  0  0  0  0  0
   -1.7150   22.0270  -30.0870 H   0  0  0  0  0  0  0  0  0  0  0  0
   -1.7747   20.5898  -27.5618 H   0  0  0  0  0  0  0  0  0  0  0  0
   -2.2074   19.6687  -29.0735 H   0  0  0  0  0  0  0  0  0  0  0  0
   -0.0627   19.4644  -29.6179 H   0  0  0  0  0  0  0  0  0  0  0  0
    0.2830   22.2610  -29.0700 H   0  0  0  0  0  0  0  0  0  0  0  0
    0.0768   19.9306  -26.8999 H   0  0  0  0  0  0  0  0  0  0  0  0
    1.4373   19.3847  -27.9510 H   0  0  0  0  0  0  0  0  0  0  0  0
    0.8080   22.1220  -27.7230 H   0  0  0  0  0  0  0  0  0  0  0  0
  1  2  1  0
  2  3  2  0
  2  4  1  0
  4  5  2  0
  5  6  1  0
  6  7  2  0
  7  8  1  0
  8  9  2  0
  9 10  1  0
 10 11  1  0
 10 12  1  0
 10 13  1  0
  9 14  1  0
 14 15  2  0
 15 16  1  0
 16 17  1  0
 17 18  2  0
 17 19  1  0
 19 20  1  0
 20 21  1  0
 21 22  1  0
 22 23  1  0
 22 24  1  0
 24 25  1  0
 20 26  1  0
 26 27  2  0
 26 28  1  0
 28 29  1  0
 29 30  2  0
 29 31  1  0
 31 32  1  0
 31 33  1  0
 31 34  1  0
 16  4  1  0
 15  6  1  0
  1 35  1  0
  5 36  1  0
  7 37  1  0
  8 38  1  0
 14 39  1  0
 19 40  1  0
 19 41  1  0
 20 42  1  6
 21 43  1  0
 21 44  1  0
 22 45  1  6
 23 46  1  0
 24 47  1  0
 24 48  1  0
 25 49  1  0
M  CHG  2   1  -1  20   1
M  END
>  <UniqueID>  (70) 
70

>  <SMILES>  (70) 
[NH-]C(=O)c1cc2ccc(C(F)(F)F)cc2n1C(=O)C[N@H+](C[C@@H](O)CO)C(=O)OC(=O)C(F)(F)F

>  <Energy>  (70) 
94.99460969498051

>  <Genealogy>  (70) 
[NH-]C(=O)c1cc2ccc(C(F)(F)F)cc2n1C(=O)C[NH+](CC(O)CO)C(=O)OC(=O)C(F)(F)F (protonated)
[NH-]C(=O)c1cc2ccc(C(F)(F)F)cc2n1C(=O)C[N@H+](C[C@@H](O)CO)C(=O)OC(=O)C(F)(F)F (chirality)
[NH-]C(=O)c1cc2ccc(C(F)(F)F)cc2n1C(=O)C[N@H+](C[C@@H](O)CO)C(=O)OC(=O)C(F)(F)F (3D coordinates assigned)
[NH-]C(=O)c1cc2ccc(C(F)(F)F)cc2n1C(=O)C[N@H+](C[C@@H](O)CO)C(=O)OC(=O)C(F)(F)F (optimized conformer: 94.99460969498051 kcal/mol)

>  <smiles>  (70) 
NC(=O)c1cc2ccc(C(F)(F)F)cc2n1C(=O)CN(CC(O)CO)C(=O)OC(=O)C(F)(F)F

>  <score_type>  (70) 
oracle

>  <origin>  (70) 
adg

>  <m_score__min__energy>  (70) 
-8.5800000000000001

>  <m_primary>  (70) 
energy

$$$$
72:0
     RDKit          3D

 31 32  0  0  0  0  0  0  0  0999 V2000
   -6.5780   18.1140  -32.5680 C   0  0  0  0  0  0  0  0  0  0  0  0
   -6.8500   19.5570  -32.2650 C   0  0  0  0  0  0  0  0  0  0  0  0
   -8.1770   20.0500  -32.2970 C   0  0  0  0  0  0  0  0  0  0  0  0
   -8.4510   21.3870  -31.9660 C   0  0  0  0  0  0  0  0  0  0  0  0
   -7.3820   22.2030  -31.6060 C   0  0  0  0  0  0  0  0  0  0  0  0
   -7.3720   23.5190  -31.2040 C   0  0  0  0  0  0  0  0  0  0  0  0
   -6.0350   23.8130  -30.9470 C   0  0  0  0  0  0  0  0  0  0  0  0
   -5.5600   25.1520  -30.5450 C   0  0  0  0  0  0  0  0  0  0  0  0
   -4.1920   25.5310  -30.7040 N   0  0  0  0  0  0  0  0  0  0  0  0
   -6.3870   25.9950  -30.1050 O   0  0  0  0  0  0  0  0  0  0  0  0
   -5.2510   22.7200  -31.1660 N   0  0  0  0  0  0  0  0  0  0  0  0
   -3.8440   22.5890  -30.9110 C   0  0  0  0  0  0  0  0  0  0  0  0
   -3.0120   22.8460  -31.8260 O   0  0  0  0  0  0  0  0  0  0  0  0
   -3.4000   22.1750  -29.6490 O   0  0  0  0  0  0  0  0  0  0  0  0
   -2.9080   23.0660  -28.6480 C   0  0  0  0  0  0  0  0  0  0  0  0
   -2.2330   22.3310  -27.6910 F   0  0  0  0  0  0  0  0  0  0  0  0
   -3.9670   23.7160  -28.0360 F   0  0  0  0  0  0  0  0  0  0  0  0
   -1.9630   24.0600  -29.2500 C   0  0  0  0  0  0  0  0  0  0  0  0
   -2.2970   25.2720  -29.3430 O   0  0  0  0  0  0  0  0  0  0  0  0
   -0.7160   23.6560  -29.7100 O   0  0  0  0  0  0  0  0  0  0  0  0
   -6.0900   21.7420  -31.5740 C   0  0  0  0  0  0  0  0  0  0  0  0
   -5.7920   20.4090  -31.8780 C   0  0  0  0  0  0  0  0  0  0  0  0
   -6.4727   17.5552  -31.6264 H   0  0  0  0  0  0  0  0  0  0  0  0
   -7.4135   17.6977  -33.1499 H   0  0  0  0  0  0  0  0  0  0  0  0
   -5.6483   18.0305  -33.1499 H   0  0  0  0  0  0  0  0  0  0  0  0
   -9.0007   19.3797  -32.5837 H   0  0  0  0  0  0  0  0  0  0  0  0
   -9.4790   21.7776  -31.9904 H   0  0  0  0  0  0  0  0  0  0  0  0
   -8.2350   24.1941  -31.1065 H   0  0  0  0  0  0  0  0  0  0  0  0
   -3.8670   26.4670  -30.3760 H   0  0  0  0  0  0  0  0  0  0  0  0
   -3.5200   24.9240  -31.2240 H   0  0  0  0  0  0  0  0  0  0  0  0
   -4.7597   20.0341  -31.8171 H   0  0  0  0  0  0  0  0  0  0  0  0
  1  2  1  0
  2  3  2  0
  3  4  1  0
  4  5  2  0
  5  6  1  0
  6  7  2  0
  7  8  1  0
  8  9  1  0
  8 10  2  0
  7 11  1  0
 11 12  1  0
 12 13  2  0
 12 14  1  0
 14 15  1  0
 15 16  1  0
 15 17  1  0
 15 18  1  0
 18 19  2  0
 18 20  1  0
 11 21  1  0
 21 22  2  0
 22  2  1  0
 21  5  1  0
  1 23  1  0
  1 24  1  0
  1 25  1  0
  3 26  1  0
  4 27  1  0
  6 28  1  0
  9 29  1  0
  9 30  1  0
 22 31  1  0
M  CHG  1  20  -1
M  END
>  <UniqueID>  (71) 
71

>  <SMILES>  (71) 
Cc1ccc2cc(C(N)=O)n(C(=O)OC(F)(F)C(=O)[O-])c2c1

>  <Energy>  (71) 
68.5101206792724

>  <Genealogy>  (71) 
Cc1ccc2cc(C(N)=O)n(C(=O)OC(F)(F)C(=O)[O-])c2c1 (protonated)
Cc1ccc2cc(C(N)=O)n(C(=O)OC(F)(F)C(=O)[O-])c2c1 (3D coordinates assigned)
Cc1ccc2cc(C(N)=O)n(C(=O)OC(F)(F)C(=O)[O-])c2c1 (optimized conformer: 68.5101206792724 kcal/mol)

>  <smiles>  (71) 
Cc1ccc2cc(C(N)=O)n(C(=O)OC(F)(F)C(=O)O)c2c1

>  <score_type>  (71) 
oracle

>  <origin>  (71) 
adg

>  <m_score__min__energy>  (71) 
-9.9299999999999997

>  <m_primary>  (71) 
energy

$$$$
73:0
     RDKit          3D

 34 35  0  0  0  0  0  0  0  0999 V2000
   -4.1940   25.4850  -30.8410 N   0  0  0  0  0  0  0  0  0  0  0  0
   -5.5300   25.1200  -30.5050 C   0  0  0  0  0  0  0  0  0  0  0  0
   -6.2050   25.8460  -29.7270 O   0  0  0  0  0  0  0  0  0  0  0  0
   -6.1030   23.8770  -31.0230 C   0  0  0  0  0  0  0  0  0  0  0  0
   -7.4630   23.6950  -31.2480 C   0  0  0  0  0  0  0  0  0  0  0  0
   -7.5930   22.3700  -31.5980 C   0  0  0  0  0  0  0  0  0  0  0  0
   -8.7300   21.6400  -31.9310 C   0  0  0  0  0  0  0  0  0  0  0  0
   -8.5720   20.2780  -32.2460 C   0  0  0  0  0  0  0  0  0  0  0  0
   -7.2880   19.6760  -32.2290 C   0  0  0  0  0  0  0  0  0  0  0  0
   -7.1390   18.2220  -32.5850 C   0  0  0  0  0  0  0  0  0  0  0  0
   -6.8170   18.1020  -33.9250 F   0  0  0  0  0  0  0  0  0  0  0  0
   -8.3250   17.5540  -32.3320 F   0  0  0  0  0  0  0  0  0  0  0  0
   -6.1530   20.4520  -31.8980 C   0  0  0  0  0  0  0  0  0  0  0  0
   -6.3420   21.7990  -31.5710 C   0  0  0  0  0  0  0  0  0  0  0  0
   -5.4110   22.7170  -31.2200 N   0  0  0  0  0  0  0  0  0  0  0  0
   -3.9960   22.5020  -31.0600 C   0  0  0  0  0  0  0  0  0  0  0  0
   -3.2330   22.5910  -32.0640 O   0  0  0  0  0  0  0  0  0  0  0  0
   -3.4110   22.1390  -29.7200 C   0  0  0  0  0  0  0  0  0  0  0  0
   -2.0690   22.8340  -29.4360 C   0  0  0  0  0  0  0  0  0  0  0  0
   -2.2840   24.3710  -28.4750 P   0  0  1  0  0  0  0  0  0  0  0  0
   -1.5710   24.2510  -27.1480 O   0  0  0  0  0  0  0  0  0  0  0  0
   -1.6270   25.6690  -29.3430 O   0  0  0  0  0  0  0  0  0  0  0  0
   -3.9310   24.6510  -28.2070 O   0  0  0  0  0  0  0  0  0  0  0  0
   -3.4890   25.6750  -30.0940 H   0  0  0  0  0  0  0  0  0  0  0  0
   -8.2617   24.4467  -31.1645 H   0  0  0  0  0  0  0  0  0  0  0  0
   -9.7226   22.1137  -31.9474 H   0  0  0  0  0  0  0  0  0  0  0  0
   -9.4532   19.6740  -32.5081 H   0  0  0  0  0  0  0  0  0  0  0  0
   -6.3366   17.7810  -31.9753 H   0  0  0  0  0  0  0  0  0  0  0  0
   -5.1468   20.0076  -31.8977 H   0  0  0  0  0  0  0  0  0  0  0  0
   -4.1269   22.4277  -28.9363 H   0  0  0  0  0  0  0  0  0  0  0  0
   -3.2223   21.0553  -29.7287 H   0  0  0  0  0  0  0  0  0  0  0  0
   -1.4265   22.1462  -28.8666 H   0  0  0  0  0  0  0  0  0  0  0  0
   -1.6125   23.0982  -30.4013 H   0  0  0  0  0  0  0  0  0  0  0  0
   -4.1790   25.3480  -28.8660 H   0  0  0  0  0  0  0  0  0  0  0  0
  1  2  1  0
  2  3  2  0
  2  4  1  0
  4  5  2  0
  5  6  1  0
  6  7  2  0
  7  8  1  0
  8  9  2  0
  9 10  1  0
 10 11  1  0
 10 12  1  0
  9 13  1  0
 13 14  2  0
 14 15  1  0
 15 16  1  0
 16 17  2  0
 16 18  1  0
 18 19  1  0
 19 20  1  0
 20 21  2  0
 20 22  1  6
 20 23  1  0
 15  4  1  0
 14  6  1  0
  1 24  1  0
  5 25  1  0
  7 26  1  0
  8 27  1  0
 10 28  1  0
 13 29  1  0
 18 30  1  0
 18 31  1  0
 19 32  1  0
 19 33  1  0
 23 34  1  0
M  CHG  2   1  -1  22  -1
M  END
>  <UniqueID>  (72) 
72

>  <SMILES>  (72) 
[NH-]C(=O)c1cc2ccc(C(F)F)cc2n1C(=O)CC[P@@](=O)([O-])O

>  <Energy>  (72) 
71.7624842561027

>  <Genealogy>  (72) 
[NH-]C(=O)c1cc2ccc(C(F)F)cc2n1C(=O)CCP(=O)([O-])O (protonated)
[NH-]C(=O)c1cc2ccc(C(F)F)cc2n1C(=O)CC[P@@](=O)([O-])O (chirality)
[NH-]C(=O)c1cc2ccc(C(F)F)cc2n1C(=O)CC[P@@](=O)([O-])O (3D coordinates assigned)
[NH-]C(=O)c1cc2ccc(C(F)F)cc2n1C(=O)CC[P@@](=O)([O-])O (optimized conformer: 71.7624842561027 kcal/mol)

>  <smiles>  (72) 
NC(=O)c1cc2ccc(C(F)F)cc2n1C(=O)CCP(=O)(O)O

>  <score_type>  (72) 
oracle

>  <origin>  (72) 
adg

>  <m_score__min__energy>  (72) 
-12.369999999999999

>  <m_primary>  (72) 
energy

$$$$
74:0
     RDKit          3D

 52 56  0  0  0  0  0  0  0  0999 V2000
   -0.7840   26.4650  -23.0760 C   0  0  0  0  0  0  0  0  0  0  0  0
   -1.0190   27.0110  -24.4080 N   0  0  0  0  0  0  0  0  0  0  0  0
   -0.8060   28.2630  -24.7680 N   0  0  0  0  0  0  0  0  0  0  0  0
   -0.9600   28.3820  -26.0770 N   0  0  0  0  0  0  0  0  0  0  0  0
   -1.2630   27.1980  -26.5960 N   0  0  0  0  0  0  0  0  0  0  0  0
   -1.2910   26.3510  -25.5470 C   0  0  0  0  0  0  0  0  0  0  0  0
   -1.6130   24.5910  -25.6810 S   0  0  0  0  0  0  0  0  0  0  0  0
   -3.1160   24.7820  -26.7020 C   0  0  0  0  0  0  0  0  0  0  0  0
   -3.0570   23.8850  -27.9180 C   0  0  0  0  0  0  0  0  0  0  0  0
   -2.1840   24.0400  -28.9380 C   0  0  0  0  0  0  0  0  0  0  0  0
   -1.0320   24.9630  -28.9520 C   0  0  0  0  0  0  0  0  0  0  0  0
   -1.1970   26.1480  -29.3380 O   0  0  0  0  0  0  0  0  0  0  0  0
    0.2500   24.5310  -28.6340 O   0  0  0  0  0  0  0  0  0  0  0  0
   -2.4350   23.2740  -30.1080 N   0  0  0  0  0  0  0  0  0  0  0  0
   -1.8210   22.0600  -30.6890 C   0  0  0  0  0  0  0  0  0  0  0  0
   -0.6830   21.5270  -30.6350 O   0  0  0  0  0  0  0  0  0  0  0  0
   -3.1410   21.6930  -31.3000 C   0  0  2  0  0  0  0  0  0  0  0  0
   -3.0610   21.6600  -32.7660 N   0  0  0  0  0  0  0  0  0  0  0  0
   -2.0860   20.8780  -33.4840 C   0  0  0  0  0  0  0  0  0  0  0  0
   -2.1230   19.4570  -33.4800 C   0  0  0  0  0  0  0  0  0  0  0  0
   -1.1400   18.7120  -34.1530 C   0  0  0  0  0  0  0  0  0  0  0  0
   -0.1410   19.4060  -34.8270 C   0  0  0  0  0  0  0  0  0  0  0  0
    0.9520   18.9340  -35.5130 C   0  0  0  0  0  0  0  0  0  0  0  0
    1.6320   20.0690  -35.9520 C   0  0  0  0  0  0  0  0  0  0  0  0
    2.8460   20.0170  -36.7930 C   0  0  0  0  0  0  0  0  0  0  0  0
    3.2630   21.1780  -37.5070 N   0  0  0  0  0  0  0  0  0  0  0  0
    3.5380   18.9680  -36.8630 O   0  0  0  0  0  0  0  0  0  0  0  0
    0.9830   21.2000  -35.5490 N   0  0  0  0  0  0  0  0  0  0  0  0
    1.3930   22.5650  -35.7300 C   0  0  0  0  0  0  0  0  0  0  0  0
    2.0940   23.1400  -34.8560 O   0  0  0  0  0  0  0  0  0  0  0  0
    1.0100   23.2680  -36.8650 O   0  0  0  0  0  0  0  0  0  0  0  0
   -0.1020   20.7750  -34.8640 C   0  0  0  0  0  0  0  0  0  0  0  0
   -1.0610   21.5430  -34.1920 C   0  0  0  0  0  0  0  0  0  0  0  0
   -3.6700   22.9300  -30.7700 C   0  0  1  0  0  0  0  0  0  0  0  0
   -5.0390   22.7360  -29.5540 S   0  0  0  0  0  0  0  0  0  0  0  0
   -4.0500   22.7370  -28.0020 C   0  0  0  0  0  0  0  0  0  0  0  0
   -1.0993   27.1977  -22.3185 H   0  0  0  0  0  0  0  0  0  0  0  0
   -1.3627   25.5377  -22.9525 H   0  0  0  0  0  0  0  0  0  0  0  0
    0.2873   26.2479  -22.9525 H   0  0  0  0  0  0  0  0  0  0  0  0
   -0.5320   29.0400  -24.1250 H   0  0  0  0  0  0  0  0  0  0  0  0
   -3.9972   24.5157  -26.0999 H   0  0  0  0  0  0  0  0  0  0  0  0
   -3.1834   25.8273  -27.0380 H   0  0  0  0  0  0  0  0  0  0  0  0
   -3.6458   20.7362  -31.1007 H   0  0  0  0  0  0  0  0  0  0  0  0
   -3.6980   22.2700  -33.3260 H   0  0  0  0  0  0  0  0  0  0  0  0
   -2.9297   18.9351  -32.9444 H   0  0  0  0  0  0  0  0  0  0  0  0
   -1.1600   17.6122  -34.1469 H   0  0  0  0  0  0  0  0  0  0  0  0
    1.2312   17.8833  -35.6803 H   0  0  0  0  0  0  0  0  0  0  0  0
    2.7710   22.0910  -37.3840 H   0  0  0  0  0  0  0  0  0  0  0  0
   -1.0168   22.6419  -34.2152 H   0  0  0  0  0  0  0  0  0  0  0  0
   -4.1284   23.6224  -31.4914 H   0  0  0  0  0  0  0  0  0  0  0  0
   -4.7405   22.8105  -27.1489 H   0  0  0  0  0  0  0  0  0  0  0  0
   -3.4682   21.8035  -27.9878 H   0  0  0  0  0  0  0  0  0  0  0  0
  1  2  1  0
  2  3  1  0
  3  4  2  0
  4  5  1  0
  5  6  2  0
  6  7  1  0
  7  8  1  0
  8  9  1  0
  9 10  2  0
 10 11  1  0
 11 12  2  0
 11 13  1  0
 10 14  1  0
 14 15  1  0
 15 16  2  0
 15 17  1  0
 17 18  1  0
 18 19  1  0
 19 20  2  0
 20 21  1  0
 21 22  2  0
 22 23  1  0
 23 24  2  0
 24 25  1  0
 25 26  1  0
 25 27  2  0
 24 28  1  0
 28 29  1  0
 29 30  2  0
 29 31  1  0
 28 32  1  0
 32 33  2  0
 17 34  1  0
 34 35  1  0
 35 36  1  0
  6  2  1  0
 36  9  1  0
 34 14  1  0
 33 19  1  0
 32 22  1  0
  1 37  1  0
  1 38  1  0
  1 39  1  0
  3 40  1  0
  8 41  1  0
  8 42  1  0
 17 43  1  1
 18 44  1  0
 20 45  1  0
 21 46  1  0
 23 47  1  0
 26 48  1  0
 33 49  1  0
 34 50  1  6
 36 51  1  0
 36 52  1  0
M  CHG  4   3   1  13  -1  26  -1  31  -1
M  END
>  <UniqueID>  (73) 
73

>  <SMILES>  (73) 
Cn1[nH+]nnc1SCC1=C(C(=O)[O-])N2C(=O)[C@H](Nc3ccc4cc(C([NH-])=O)n(C(=O)[O-])c4c3)[C@H]2SC1

>  <Energy>  (73) 
182.5444202420147

>  <Genealogy>  (73) 
Cn1[nH+]nnc1SCC1=C(C(=O)[O-])N2C(=O)C(Nc3ccc4cc(C([NH-])=O)n(C(=O)[O-])c4c3)[C@H]2SC1 (protonated)
Cn1[nH+]nnc1SCC1=C(C(=O)[O-])N2C(=O)[C@H](Nc3ccc4cc(C([NH-])=O)n(C(=O)[O-])c4c3)[C@H]2SC1 (chirality)
Cn1[nH+]nnc1SCC1=C(C(=O)[O-])N2C(=O)[C@H](Nc3ccc4cc(C([NH-])=O)n(C(=O)[O-])c4c3)[C@H]2SC1 (3D coordinates assigned)
Cn1[nH+]nnc1SCC1=C(C(=O)[O-])N2C(=O)[C@H](Nc3ccc4cc(C([NH-])=O)n(C(=O)[O-])c4c3)[C@H]2SC1 (nonaromatic ring conformer: 182.5444202420147 kcal/mol)

>  <smiles>  (73) 
Cn1nnnc1SCC1=C(C(=O)O)N2C(=O)C(Nc3ccc4cc(C(N)=O)n(C(=O)O)c4c3)[C@H]2SC1

>  <score_type>  (73) 
oracle

>  <origin>  (73) 
adg

>  <m_score__min__energy>  (73) 
-12.300000000000001

>  <m_primary>  (73) 
energy

$$$$
75:0
     RDKit          3D

 37 38  0  0  0  0  0  0  0  0999 V2000
   -6.1460   18.0490  -31.3400 C   0  0  0  0  0  0  0  0  0  0  0  0
   -7.1340   18.7160  -32.3010 C   0  0  0  0  0  0  0  0  0  0  0  0
   -8.5150   18.8260  -31.6440 C   0  0  0  0  0  0  0  0  0  0  0  0
   -6.6470   20.0480  -32.6840 N   0  0  0  0  0  0  0  0  0  0  0  0
   -5.3410   20.5690  -32.3590 C   0  0  0  0  0  0  0  0  0  0  0  0
   -4.1840   20.2360  -33.1190 C   0  0  0  0  0  0  0  0  0  0  0  0
   -2.9280   20.7710  -32.7880 C   0  0  0  0  0  0  0  0  0  0  0  0
   -2.8490   21.6280  -31.6960 C   0  0  0  0  0  0  0  0  0  0  0  0
   -1.7690   22.3040  -31.1740 C   0  0  0  0  0  0  0  0  0  0  0  0
   -2.2740   23.0300  -30.0960 C   0  0  0  0  0  0  0  0  0  0  0  0
   -1.4450   23.8760  -29.2120 C   0  0  0  0  0  0  0  0  0  0  0  0
   -1.7090   25.2750  -29.1160 N   0  0  0  0  0  0  0  0  0  0  0  0
   -0.4950   23.3810  -28.5510 O   0  0  0  0  0  0  0  0  0  0  0  0
   -3.6110   22.8060  -29.9590 N   0  0  0  0  0  0  0  0  0  0  0  0
   -4.5000   23.3880  -28.9950 C   0  0  0  0  0  0  0  0  0  0  0  0
   -4.5740   22.8990  -27.8360 O   0  0  0  0  0  0  0  0  0  0  0  0
   -5.3850   24.5370  -29.3710 C   0  0  0  0  0  0  0  0  0  0  0  0
   -4.9860   25.0690  -30.7080 C   0  0  0  0  0  0  0  0  0  0  0  0
   -3.8900   25.6740  -30.8470 O   0  0  0  0  0  0  0  0  0  0  0  0
   -5.7990   24.8550  -31.8140 O   0  0  0  0  0  0  0  0  0  0  0  0
   -3.9470   21.9500  -30.9460 C   0  0  0  0  0  0  0  0  0  0  0  0
   -5.2150   21.4500  -31.2610 C   0  0  0  0  0  0  0  0  0  0  0  0
   -6.4489   18.2535  -30.3025 H   0  0  0  0  0  0  0  0  0  0  0  0
   -6.1422   16.9628  -31.5136 H   0  0  0  0  0  0  0  0  0  0  0  0
   -5.1371   18.4516  -31.5136 H   0  0  0  0  0  0  0  0  0  0  0  0
   -7.2206   18.0978  -33.2067 H   0  0  0  0  0  0  0  0  0  0  0  0
   -8.4023   18.8170  -30.5498 H   0  0  0  0  0  0  0  0  0  0  0  0
   -8.9954   19.7653  -31.9554 H   0  0  0  0  0  0  0  0  0  0  0  0
   -9.1381   17.9746  -31.9554 H   0  0  0  0  0  0  0  0  0  0  0  0
   -7.2920   20.6710  -33.2230 H   0  0  0  0  0  0  0  0  0  0  0  0
   -4.2747   19.5517  -33.9755 H   0  0  0  0  0  0  0  0  0  0  0  0
   -2.0329   20.5192  -33.3757 H   0  0  0  0  0  0  0  0  0  0  0  0
   -0.7290   22.2770  -31.5314 H   0  0  0  0  0  0  0  0  0  0  0  0
   -2.6670   25.6530  -29.2860 H   0  0  0  0  0  0  0  0  0  0  0  0
   -6.4296   24.1948  -29.4115 H   0  0  0  0  0  0  0  0  0  0  0  0
   -5.2837   25.3335  -28.6192 H   0  0  0  0  0  0  0  0  0  0  0  0
   -6.0953   21.7364  -30.6668 H   0  0  0  0  0  0  0  0  0  0  0  0
  1  2  1  0
  2  3  1  0
  2  4  1  0
  4  5  1  0
  5  6  2  0
  6  7  1  0
  7  8  2  0
  8  9  1  0
  9 10  2  0
 10 11  1  0
 11 12  1  0
 11 13  2  0
 10 14  1  0
 14 15  1  0
 15 16  2  0
 15 17  1  0
 17 18  1  0
 18 19  2  0
 18 20  1  0
 14 21  1  0
 21 22  2  0
 22  5  1  0
 21  8  1  0
  1 23  1  0
  1 24  1  0
  1 25  1  0
  2 26  1  0
  3 27  1  0
  3 28  1  0
  3 29  1  0
  4 30  1  0
  6 31  1  0
  7 32  1  0
  9 33  1  0
 12 34  1  0
 17 35  1  0
 17 36  1  0
 22 37  1  0
M  CHG  2  12  -1  20  -1
M  END
>  <UniqueID>  (74) 
74

>  <SMILES>  (74) 
CC(C)Nc1ccc2cc(C([NH-])=O)n(C(=O)CC(=O)[O-])c2c1

>  <Energy>  (74) 
70.62499038467246

>  <Genealogy>  (74) 
CC(C)Nc1ccc2cc(C([NH-])=O)n(C(=O)CC(=O)[O-])c2c1 (protonated)
CC(C)Nc1ccc2cc(C([NH-])=O)n(C(=O)CC(=O)[O-])c2c1 (3D coordinates assigned)
CC(C)Nc1ccc2cc(C([NH-])=O)n(C(=O)CC(=O)[O-])c2c1 (optimized conformer: 70.62499038467246 kcal/mol)

>  <smiles>  (74) 
CC(C)Nc1ccc2cc(C(N)=O)n(C(=O)CC(=O)O)c2c1

>  <score_type>  (74) 
oracle

>  <origin>  (74) 
adg

>  <m_score__min__energy>  (74) 
-11.529999999999999

>  <m_primary>  (74) 
energy

$$$$
76:0
     RDKit          3D

 29 30  0  0  0  0  0  0  0  0999 V2000
   -3.8740   25.6580  -30.8670 N   0  0  0  0  0  0  0  0  0  0  0  0
   -5.1760   25.2660  -30.4400 C   0  0  0  0  0  0  0  0  0  0  0  0
   -5.8540   26.0520  -29.7260 O   0  0  0  0  0  0  0  0  0  0  0  0
   -5.7610   23.9790  -30.8690 C   0  0  0  0  0  0  0  0  0  0  0  0
   -7.1290   23.7160  -30.8560 C   0  0  0  0  0  0  0  0  0  0  0  0
   -7.2650   22.4610  -31.4040 C   0  0  0  0  0  0  0  0  0  0  0  0
   -8.4070   21.6930  -31.6090 C   0  0  0  0  0  0  0  0  0  0  0  0
   -8.2480   20.4090  -32.1560 C   0  0  0  0  0  0  0  0  0  0  0  0
   -6.9610   19.9200  -32.4980 C   0  0  0  0  0  0  0  0  0  0  0  0
   -6.7980   18.5170  -33.0260 C   0  0  0  0  0  0  0  0  0  0  0  0
   -6.4300   18.5360  -34.3610 F   0  0  0  0  0  0  0  0  0  0  0  0
   -5.8170   17.8680  -32.2990 F   0  0  0  0  0  0  0  0  0  0  0  0
   -7.9830   17.8110  -32.9130 F   0  0  0  0  0  0  0  0  0  0  0  0
   -5.8220   20.7220  -32.2510 C   0  0  0  0  0  0  0  0  0  0  0  0
   -6.0120   22.0040  -31.7210 C   0  0  0  0  0  0  0  0  0  0  0  0
   -5.0770   22.9250  -31.3960 N   0  0  0  0  0  0  0  0  0  0  0  0
   -3.6540   22.7630  -31.4930 C   0  0  0  0  0  0  0  0  0  0  0  0
   -3.1550   22.1640  -32.4850 O   0  0  0  0  0  0  0  0  0  0  0  0
   -2.8300   23.2490  -30.4720 O   0  0  0  0  0  0  0  0  0  0  0  0
   -3.1540   23.1430  -29.0880 C   0  0  0  0  0  0  0  0  0  0  0  0
   -2.3450   24.5200  -28.1290 P   0  0  0  0  0  0  0  0  0  0  0  0
   -1.6190   25.6670  -28.8790 O   0  0  0  0  0  0  0  0  0  0  0  0
   -3.0210   25.3020  -30.3820 H   0  0  0  0  0  0  0  0  0  0  0  0
   -7.9305   24.3723  -30.4861 H   0  0  0  0  0  0  0  0  0  0  0  0
   -9.4039   22.0795  -31.3506 H   0  0  0  0  0  0  0  0  0  0  0  0
   -9.1318   19.7753  -32.3211 H   0  0  0  0  0  0  0  0  0  0  0  0
   -4.8112   20.3474  -32.4701 H   0  0  0  0  0  0  0  0  0  0  0  0
   -4.2452   23.2069  -28.9646 H   0  0  0  0  0  0  0  0  0  0  0  0
   -2.7882   22.1780  -28.7072 H   0  0  0  0  0  0  0  0  0  0  0  0
  1  2  1  0
  2  3  2  0
  2  4  1  0
  4  5  2  0
  5  6  1  0
  6  7  2  0
  7  8  1  0
  8  9  2  0
  9 10  1  0
 10 11  1  0
 10 12  1  0
 10 13  1  0
  9 14  1  0
 14 15  2  0
 15 16  1  0
 16 17  1  0
 17 18  2  0
 17 19  1  0
 19 20  1  0
 20 21  1  0
 21 22  2  0
 16  4  1  0
 15  6  1  0
  1 23  1  0
  5 24  1  0
  7 25  1  0
  8 26  1  0
 14 27  1  0
 20 28  1  0
 20 29  1  0
M  CHG  1   1  -1
M  END
>  <UniqueID>  (75) 
75

>  <SMILES>  (75) 
[NH-]C(=O)c1cc2ccc(C(F)(F)F)cc2n1C(=O)OCP=O

>  <Energy>  (75) 
66.41807305764593

>  <Genealogy>  (75) 
[NH-]C(=O)c1cc2ccc(C(F)(F)F)cc2n1C(=O)OCP=O (protonated)
[NH-]C(=O)c1cc2ccc(C(F)(F)F)cc2n1C(=O)OCP=O (3D coordinates assigned)
[NH-]C(=O)c1cc2ccc(C(F)(F)F)cc2n1C(=O)OCP=O (optimized conformer: 66.41807305764593 kcal/mol)

>  <smiles>  (75) 
NC(=O)c1cc2ccc(C(F)(F)F)cc2n1C(=O)OCP=O

>  <score_type>  (75) 
oracle

>  <origin>  (75) 
adg

>  <m_score__min__energy>  (75) 
-9.6799999999999997

>  <m_primary>  (75) 
energy

$$$$
77:0
     RDKit          3D

 36 37  0  0  0  0  0  0  0  0999 V2000
   -6.4380   17.8600  -33.6730 C   0  0  0  0  0  0  0  0  0  0  0  0
   -6.2990   18.1610  -32.2460 N   0  0  0  0  0  0  0  0  0  0  0  0
   -6.5650   19.5570  -32.0050 C   0  0  0  0  0  0  0  0  0  0  0  0
   -7.8590   20.0890  -32.2400 C   0  0  0  0  0  0  0  0  0  0  0  0
   -8.1190   21.4560  -32.0490 C   0  0  0  0  0  0  0  0  0  0  0  0
   -7.0710   22.2660  -31.6230 C   0  0  0  0  0  0  0  0  0  0  0  0
   -7.0400   23.6210  -31.3910 C   0  0  0  0  0  0  0  0  0  0  0  0
   -5.7310   23.9010  -31.0050 C   0  0  0  0  0  0  0  0  0  0  0  0
   -5.2790   25.2420  -30.5810 C   0  0  0  0  0  0  0  0  0  0  0  0
   -3.9390   25.6530  -30.8410 N   0  0  0  0  0  0  0  0  0  0  0  0
   -6.0740   26.0470  -30.0290 O   0  0  0  0  0  0  0  0  0  0  0  0
   -4.9790   22.7640  -31.0040 N   0  0  0  0  0  0  0  0  0  0  0  0
   -3.5700   22.6420  -30.7470 C   0  0  0  0  0  0  0  0  0  0  0  0
   -2.7410   22.8330  -31.6780 O   0  0  0  0  0  0  0  0  0  0  0  0
   -3.1220   22.3390  -29.4550 O   0  0  0  0  0  0  0  0  0  0  0  0
   -2.7610   23.3320  -28.4950 C   0  0  1  0  0  0  0  0  0  0  0  0
   -2.1790   22.6490  -27.2620 C   0  0  0  0  0  0  0  0  0  0  0  0
   -1.7600   24.2890  -29.0770 C   0  0  0  0  0  0  0  0  0  0  0  0
   -0.7130   23.8590  -29.6310 O   0  0  0  0  0  0  0  0  0  0  0  0
   -1.9690   25.6580  -28.9750 O   0  0  0  0  0  0  0  0  0  0  0  0
   -5.8150   21.7710  -31.3820 C   0  0  0  0  0  0  0  0  0  0  0  0
   -5.5230   20.4170  -31.5840 C   0  0  0  0  0  0  0  0  0  0  0  0
   -6.8963   16.8676  -33.7954 H   0  0  0  0  0  0  0  0  0  0  0  0
   -7.0764   18.6198  -34.1475 H   0  0  0  0  0  0  0  0  0  0  0  0
   -5.4456   17.8667  -34.1475 H   0  0  0  0  0  0  0  0  0  0  0  0
   -5.3290   17.9200  -31.9370 H   0  0  0  0  0  0  0  0  0  0  0  0
   -6.9690   17.5680  -31.7020 H   0  0  0  0  0  0  0  0  0  0  0  0
   -8.6679   19.4234  -32.5756 H   0  0  0  0  0  0  0  0  0  0  0  0
   -9.1204   21.8734  -32.2306 H   0  0  0  0  0  0  0  0  0  0  0  0
   -7.8726   24.3332  -31.4894 H   0  0  0  0  0  0  0  0  0  0  0  0
   -3.1400   24.9940  -30.7100 H   0  0  0  0  0  0  0  0  0  0  0  0
   -3.6575   23.9030  -28.2116 H   0  0  0  0  0  0  0  0  0  0  0  0
   -2.5829   23.1230  -26.3553 H   0  0  0  0  0  0  0  0  0  0  0  0
   -2.4507   21.5831  -27.2707 H   0  0  0  0  0  0  0  0  0  0  0  0
   -1.0835   22.7482  -27.2707 H   0  0  0  0  0  0  0  0  0  0  0  0
   -4.5065   20.0302  -31.4192 H   0  0  0  0  0  0  0  0  0  0  0  0
  1  2  1  0
  2  3  1  0
  3  4  2  0
  4  5  1  0
  5  6  2  0
  6  7  1  0
  7  8  2  0
  8  9  1  0
  9 10  1  0
  9 11  2  0
  8 12  1  0
 12 13  1  0
 13 14  2  0
 13 15  1  0
 15 16  1  0
 16 17  1  0
 16 18  1  0
 18 19  2  0
 18 20  1  0
 12 21  1  0
 21 22  2  0
 22  3  1  0
 21  6  1  0
  1 23  1  0
  1 24  1  0
  1 25  1  0
  2 26  1  0
  2 27  1  0
  4 28  1  0
  5 29  1  0
  7 30  1  0
 10 31  1  0
 16 32  1  1
 17 33  1  0
 17 34  1  0
 17 35  1  0
 22 36  1  0
M  CHG  3   2   1  10  -1  20  -1
M  END
>  <UniqueID>  (76) 
76

>  <SMILES>  (76) 
C[NH2+]c1ccc2cc(C([NH-])=O)n(C(=O)O[C@@H](C)C(=O)[O-])c2c1

>  <Energy>  (76) 
70.14266241834726

>  <Genealogy>  (76) 
C[NH2+]c1ccc2cc(C([NH-])=O)n(C(=O)OC(C)C(=O)[O-])c2c1 (protonated)
C[NH2+]c1ccc2cc(C([NH-])=O)n(C(=O)O[C@@H](C)C(=O)[O-])c2c1 (chirality)
C[NH2+]c1ccc2cc(C([NH-])=O)n(C(=O)O[C@@H](C)C(=O)[O-])c2c1 (3D coordinates assigned)
C[NH2+]c1ccc2cc(C([NH-])=O)n(C(=O)O[C@@H](C)C(=O)[O-])c2c1 (optimized conformer: 70.14266241834726 kcal/mol)

>  <smiles>  (76) 
CNc1ccc2cc(C(N)=O)n(C(=O)OC(C)C(=O)O)c2c1

>  <score_type>  (76) 
oracle

>  <origin>  (76) 
adg

>  <m_score__min__energy>  (76) 
-11.539999999999999

>  <m_primary>  (76) 
energy

$$$$
78:0
     RDKit          3D

 36 37  0  0  0  0  0  0  0  0999 V2000
   -9.3790   20.2890  -32.4110 C   0  0  0  0  0  0  0  0  0  0  0  0
   -7.9010   19.2960  -32.3450 S   0  0  0  0  0  0  0  0  0  0  0  0
   -6.9810   19.8240  -31.2790 O   0  0  0  0  0  0  0  0  0  0  0  0
   -8.2880   17.8880  -31.9920 O   0  0  0  0  0  0  0  0  0  0  0  0
   -7.1300   19.2810  -33.8550 O   0  0  0  0  0  0  0  0  0  0  0  0
   -6.2840   18.1580  -33.9240 C   0  0  0  0  0  0  0  0  0  0  0  0
   -4.9440   18.5050  -33.2750 C   0  0  0  0  0  0  0  0  0  0  0  0
   -4.9280   19.9010  -32.8320 N   0  0  0  0  0  0  0  0  0  0  0  0
   -3.8260   20.5300  -32.1470 C   0  0  0  0  0  0  0  0  0  0  0  0
   -2.5760   19.8650  -32.1090 C   0  0  0  0  0  0  0  0  0  0  0  0
   -1.4770   20.4300  -31.4420 C   0  0  0  0  0  0  0  0  0  0  0  0
   -1.6520   21.6660  -30.8290 C   0  0  0  0  0  0  0  0  0  0  0  0
   -0.7680   22.4200  -30.0930 C   0  0  0  0  0  0  0  0  0  0  0  0
   -1.4800   23.5560  -29.7120 C   0  0  0  0  0  0  0  0  0  0  0  0
   -0.8770   24.6800  -28.9670 C   0  0  0  0  0  0  0  0  0  0  0  0
   -1.5060   25.9580  -28.9290 N   0  0  0  0  0  0  0  0  0  0  0  0
    0.2360   24.5240  -28.3960 O   0  0  0  0  0  0  0  0  0  0  0  0
   -2.7570   23.5020  -30.1880 N   0  0  0  0  0  0  0  0  0  0  0  0
   -3.8300   24.4250  -29.9410 C   0  0  0  0  0  0  0  0  0  0  0  0
   -3.9120   25.4950  -30.6000 O   0  0  0  0  0  0  0  0  0  0  0  0
   -4.7730   24.1590  -28.9560 O   0  0  0  0  0  0  0  0  0  0  0  0
   -2.8440   22.3390  -30.8730 C   0  0  0  0  0  0  0  0  0  0  0  0
   -3.9600   21.7930  -31.5180 C   0  0  0  0  0  0  0  0  0  0  0  0
   -9.7150   20.5148  -31.3882 H   0  0  0  0  0  0  0  0  0  0  0  0
   -9.1663   21.2281  -32.9428 H   0  0  0  0  0  0  0  0  0  0  0  0
  -10.1681   19.7371  -32.9428 H   0  0  0  0  0  0  0  0  0  0  0  0
   -6.7456   17.3148  -33.3892 H   0  0  0  0  0  0  0  0  0  0  0  0
   -6.1261   17.8751  -34.9752 H   0  0  0  0  0  0  0  0  0  0  0  0
   -4.7829   17.8490  -32.4068 H   0  0  0  0  0  0  0  0  0  0  0  0
   -4.1446   18.3607  -34.0167 H   0  0  0  0  0  0  0  0  0  0  0  0
   -5.7870   20.4670  -33.0170 H   0  0  0  0  0  0  0  0  0  0  0  0
   -2.4645   18.8917  -32.6093 H   0  0  0  0  0  0  0  0  0  0  0  0
   -0.5078   19.9111  -31.4055 H   0  0  0  0  0  0  0  0  0  0  0  0
    0.2784   22.1779  -29.8555 H   0  0  0  0  0  0  0  0  0  0  0  0
   -2.5450   26.0470  -28.9680 H   0  0  0  0  0  0  0  0  0  0  0  0
   -4.9188   22.3318  -31.5362 H   0  0  0  0  0  0  0  0  0  0  0  0
  1  2  1  0
  2  3  2  0
  2  4  2  0
  2  5  1  0
  5  6  1  0
  6  7  1  0
  7  8  1  0
  8  9  1  0
  9 10  2  0
 10 11  1  0
 11 12  2  0
 12 13  1  0
 13 14  2  0
 14 15  1  0
 15 16  1  0
 15 17  2  0
 14 18  1  0
 18 19  1  0
 19 20  2  0
 19 21  1  0
 18 22  1  0
 22 23  2  0
 23  9  1  0
 22 12  1  0
  1 24  1  0
  1 25  1  0
  1 26  1  0
  6 27  1  0
  6 28  1  0
  7 29  1  0
  7 30  1  0
  8 31  1  0
 10 32  1  0
 11 33  1  0
 13 34  1  0
 16 35  1  0
 23 36  1  0
M  CHG  2  16  -1  21  -1
M  END
>  <UniqueID>  (77) 
77

>  <SMILES>  (77) 
CS(=O)(=O)OCCNc1ccc2cc(C([NH-])=O)n(C(=O)[O-])c2c1

>  <Energy>  (77) 
70.71074501506297

>  <Genealogy>  (77) 
CS(=O)(=O)OCCNc1ccc2cc(C([NH-])=O)n(C(=O)[O-])c2c1 (protonated)
CS(=O)(=O)OCCNc1ccc2cc(C([NH-])=O)n(C(=O)[O-])c2c1 (3D coordinates assigned)
CS(=O)(=O)OCCNc1ccc2cc(C([NH-])=O)n(C(=O)[O-])c2c1 (optimized conformer: 70.71074501506297 kcal/mol)

>  <smiles>  (77) 
CS(=O)(=O)OCCNc1ccc2cc(C(N)=O)n(C(=O)O)c2c1

>  <score_type>  (77) 
oracle

>  <origin>  (77) 
adg

>  <m_score__min__energy>  (77) 
-10.85

>  <m_primary>  (77) 
energy

$$$$
79:0
     RDKit          3D

 41 42  0  0  0  0  0  0  0  0999 V2000
   -5.5740   17.7980  -34.5930 C   0  0  0  0  0  0  0  0  0  0  0  0
   -5.7160   17.1530  -33.3360 O   0  0  0  0  0  0  0  0  0  0  0  0
   -6.5930   17.6120  -32.3500 C   0  0  0  0  0  0  0  0  0  0  0  0
   -6.3980   17.3330  -31.1340 O   0  0  0  0  0  0  0  0  0  0  0  0
   -7.7770   18.4340  -32.7420 C   0  0  0  0  0  0  0  0  0  0  0  0
   -7.6130   19.8530  -32.2690 C   0  0  0  0  0  0  0  0  0  0  0  0
   -8.7460   20.6980  -32.1550 C   0  0  0  0  0  0  0  0  0  0  0  0
   -8.6120   22.0120  -31.6750 C   0  0  0  0  0  0  0  0  0  0  0  0
   -7.3410   22.4490  -31.3140 C   0  0  0  0  0  0  0  0  0  0  0  0
   -6.9290   23.6640  -30.8140 C   0  0  0  0  0  0  0  0  0  0  0  0
   -5.5500   23.5450  -30.6420 C   0  0  0  0  0  0  0  0  0  0  0  0
   -4.6680   24.6530  -30.2060 C   0  0  0  0  0  0  0  0  0  0  0  0
   -3.8870   24.5460  -29.0140 N   0  0  0  0  0  0  0  0  0  0  0  0
   -4.6100   25.7150  -30.8790 O   0  0  0  0  0  0  0  0  0  0  0  0
   -5.1320   22.3030  -31.0140 N   0  0  0  0  0  0  0  0  0  0  0  0
   -3.8030   21.7620  -30.9460 C   0  0  0  0  0  0  0  0  0  0  0  0
   -3.0390   21.8610  -31.9450 O   0  0  0  0  0  0  0  0  0  0  0  0
   -3.3490   21.0590  -29.7350 C   0  0  0  0  0  0  0  0  0  0  0  0
   -2.6910   21.6800  -28.7940 C   0  0  0  0  0  0  0  0  0  0  0  0
   -2.0520   22.2850  -27.8780 N   0  0  0  0  0  0  0  0  0  0  0  0
   -2.5290   23.4710  -27.3730 O   0  0  0  0  0  0  0  0  0  0  0  0
   -1.6290   24.5040  -27.0040 C   0  0  0  0  0  0  0  0  0  0  0  0
   -0.9680   25.0470  -28.2250 C   0  0  0  0  0  0  0  0  0  0  0  0
    0.1350   24.5780  -28.6080 O   0  0  0  0  0  0  0  0  0  0  0  0
   -1.5880   26.0440  -28.9680 O   0  0  0  0  0  0  0  0  0  0  0  0
   -6.2370   21.6470  -31.4250 C   0  0  0  0  0  0  0  0  0  0  0  0
   -6.3410   20.3310  -31.8860 C   0  0  0  0  0  0  0  0  0  0  0  0
   -5.3399   18.8612  -34.4352 H   0  0  0  0  0  0  0  0  0  0  0  0
   -4.7589   17.3231  -35.1588 H   0  0  0  0  0  0  0  0  0  0  0  0
   -6.5132   17.7094  -35.1588 H   0  0  0  0  0  0  0  0  0  0  0  0
   -7.8761   18.4267  -33.8375 H   0  0  0  0  0  0  0  0  0  0  0  0
   -8.6772   18.0057  -32.2771 H   0  0  0  0  0  0  0  0  0  0  0  0
   -9.7382   20.3218  -32.4447 H   0  0  0  0  0  0  0  0  0  0  0  0
   -9.4853   22.6750  -31.5873 H   0  0  0  0  0  0  0  0  0  0  0  0
   -7.5547   24.5422  -30.5964 H   0  0  0  0  0  0  0  0  0  0  0  0
   -3.2940   25.3480  -28.7060 H   0  0  0  0  0  0  0  0  0  0  0  0
   -3.8820   23.6750  -28.4410 H   0  0  0  0  0  0  0  0  0  0  0  0
   -3.5689   19.9873  -29.6205 H   0  0  0  0  0  0  0  0  0  0  0  0
   -2.1822   25.3088  -26.4979 H   0  0  0  0  0  0  0  0  0  0  0  0
   -0.8657   24.0993  -26.3231 H   0  0  0  0  0  0  0  0  0  0  0  0
   -5.4536   19.6841  -31.9487 H   0  0  0  0  0  0  0  0  0  0  0  0
  1  2  1  0
  2  3  1  0
  3  4  2  0
  3  5  1  0
  5  6  1  0
  6  7  2  0
  7  8  1  0
  8  9  2  0
  9 10  1  0
 10 11  2  0
 11 12  1  0
 12 13  1  0
 12 14  2  0
 11 15  1  0
 15 16  1  0
 16 17  2  0
 16 18  1  0
 18 19  2  0
 19 20  2  0
 20 21  1  0
 21 22  1  0
 22 23  1  0
 23 24  2  0
 23 25  1  0
 15 26  1  0
 26 27  2  0
 27  6  1  0
 26  9  1  0
  1 28  1  0
  1 29  1  0
  1 30  1  0
  5 31  1  0
  5 32  1  0
  7 33  1  0
  8 34  1  0
 10 35  1  0
 13 36  1  0
 13 37  1  0
 18 38  1  0
 22 39  1  0
 22 40  1  0
 27 41  1  0
M  CHG  1  25  -1
M  END
>  <UniqueID>  (78) 
78

>  <SMILES>  (78) 
COC(=O)Cc1ccc2cc(C(N)=O)n(C(=O)C=C=NOCC(=O)[O-])c2c1

>  <Energy>  (78) 
69.2629104218418

>  <Genealogy>  (78) 
COC(=O)Cc1ccc2cc(C(N)=O)n(C(=O)C=C=NOCC(=O)[O-])c2c1 (protonated)
COC(=O)Cc1ccc2cc(C(N)=O)n(C(=O)C=C=NOCC(=O)[O-])c2c1 (3D coordinates assigned)
COC(=O)Cc1ccc2cc(C(N)=O)n(C(=O)C=C=NOCC(=O)[O-])c2c1 (optimized conformer: 69.2629104218418 kcal/mol)

>  <smiles>  (78) 
COC(=O)Cc1ccc2cc(C(N)=O)n(C(=O)C=C=NOCC(=O)O)c2c1

>  <score_type>  (78) 
oracle

>  <origin>  (78) 
adg

>  <m_score__min__energy>  (78) 
-11.31

>  <m_primary>  (78) 
energy

$$$$
80:0
     RDKit          3D

 37 38  0  0  0  0  0  0  0  0999 V2000
   -5.3150   24.8290  -29.0780 N   0  0  0  0  0  0  0  0  0  0  0  0
   -5.0920   24.4780  -30.4440 C   0  0  0  0  0  0  0  0  0  0  0  0
   -4.4210   25.2520  -31.1790 O   0  0  0  0  0  0  0  0  0  0  0  0
   -5.6880   23.2610  -31.0290 C   0  0  0  0  0  0  0  0  0  0  0  0
   -7.0600   23.0460  -31.1180 C   0  0  0  0  0  0  0  0  0  0  0  0
   -7.1960   21.7850  -31.6530 C   0  0  0  0  0  0  0  0  0  0  0  0
   -8.3470   21.0720  -31.9760 C   0  0  0  0  0  0  0  0  0  0  0  0
   -8.1940   19.8020  -32.5580 C   0  0  0  0  0  0  0  0  0  0  0  0
   -6.9020   19.2740  -32.8030 C   0  0  0  0  0  0  0  0  0  0  0  0
   -6.7520   17.9380  -33.4710 C   0  0  0  0  0  0  0  0  0  0  0  0
   -5.7350   18.1030  -34.9230 Cl  0  0  0  0  0  0  0  0  0  0  0  0
   -5.7570   20.0330  -32.4780 C   0  0  0  0  0  0  0  0  0  0  0  0
   -5.9390   21.2860  -31.8780 C   0  0  0  0  0  0  0  0  0  0  0  0
   -4.9990   22.1830  -31.5030 N   0  0  0  0  0  0  0  0  0  0  0  0
   -3.5780   22.0620  -31.6820 C   0  0  0  0  0  0  0  0  0  0  0  0
   -3.1180   21.3150  -32.5890 O   0  0  0  0  0  0  0  0  0  0  0  0
   -2.7090   22.7650  -30.8430 O   0  0  0  0  0  0  0  0  0  0  0  0
   -2.1310   22.1930  -29.6750 C   0  0  0  0  0  0  0  0  0  0  0  0
   -1.4120   23.2830  -28.8740 C   0  0  1  0  0  0  0  0  0  0  0  0
   -0.4890   23.9300  -29.7120 O   0  0  0  0  0  0  0  0  0  0  0  0
   -2.4070   24.3080  -28.3160 C   0  0  0  0  0  0  0  0  0  0  0  0
   -2.7050   25.2720  -29.2870 O   0  0  0  0  0  0  0  0  0  0  0  0
   -6.0010   24.3040  -28.4920 H   0  0  0  0  0  0  0  0  0  0  0  0
   -4.8540   25.6720  -28.6720 H   0  0  0  0  0  0  0  0  0  0  0  0
   -7.8642   23.7364  -30.8237 H   0  0  0  0  0  0  0  0  0  0  0  0
   -9.3458   21.4898  -31.7817 H   0  0  0  0  0  0  0  0  0  0  0  0
   -9.0839   19.2133  -32.8254 H   0  0  0  0  0  0  0  0  0  0  0  0
   -6.2802   17.2311  -32.7727 H   0  0  0  0  0  0  0  0  0  0  0  0
   -7.7443   17.5632  -33.7623 H   0  0  0  0  0  0  0  0  0  0  0  0
   -4.7477   19.6505  -32.6904 H   0  0  0  0  0  0  0  0  0  0  0  0
   -2.9224   21.7451  -29.0561 H   0  0  0  0  0  0  0  0  0  0  0  0
   -1.4090   21.4160  -29.9664 H   0  0  0  0  0  0  0  0  0  0  0  0
   -0.8939   22.8138  -28.0247 H   0  0  0  0  0  0  0  0  0  0  0  0
   -1.0090   24.3390  -30.4520 H   0  0  0  0  0  0  0  0  0  0  0  0
   -3.3324   23.7921  -28.0203 H   0  0  0  0  0  0  0  0  0  0  0  0
   -1.9583   24.8049  -27.4432 H   0  0  0  0  0  0  0  0  0  0  0  0
   -2.5320   24.8420  -30.1640 H   0  0  0  0  0  0  0  0  0  0  0  0
  1  2  1  0
  2  3  2  0
  2  4  1  0
  4  5  2  0
  5  6  1  0
  6  7  2  0
  7  8  1  0
  8  9  2  0
  9 10  1  0
 10 11  1  0
  9 12  1  0
 12 13  2  0
 13 14  1  0
 14 15  1  0
 15 16  2  0
 15 17  1  0
 17 18  1  0
 18 19  1  0
 19 20  1  0
 19 21  1  0
 21 22  1  0
 14  4  1  0
 13  6  1  0
  1 23  1  0
  1 24  1  0
  5 25  1  0
  7 26  1  0
  8 27  1  0
 10 28  1  0
 10 29  1  0
 12 30  1  0
 18 31  1  0
 18 32  1  0
 19 33  1  1
 20 34  1  0
 21 35  1  0
 21 36  1  0
 22 37  1  0
M  END
>  <UniqueID>  (79) 
79

>  <SMILES>  (79) 
NC(=O)c1cc2ccc(CCl)cc2n1C(=O)OC[C@@H](O)CO

>  <Energy>  (79) 
69.07835802316858

>  <Genealogy>  (79) 
NC(=O)c1cc2ccc(CCl)cc2n1C(=O)OC[C@@H](O)CO (chirality)
NC(=O)c1cc2ccc(CCl)cc2n1C(=O)OC[C@@H](O)CO (3D coordinates assigned)
NC(=O)c1cc2ccc(CCl)cc2n1C(=O)OC[C@@H](O)CO (optimized conformer: 69.07835802316858 kcal/mol)

>  <smiles>  (79) 
NC(=O)c1cc2ccc(CCl)cc2n1C(=O)OCC(O)CO

>  <score_type>  (79) 
oracle

>  <origin>  (79) 
adg

>  <m_score__min__energy>  (79) 
-8.5999999999999996

>  <m_primary>  (79) 
energy

$$$$
81:0
     RDKit          3D

 36 37  0  0  0  0  0  0  0  0999 V2000
   -3.8890   25.6350  -30.8560 N   0  0  0  0  0  0  0  0  0  0  0  0
   -5.2350   25.2790  -30.5540 C   0  0  0  0  0  0  0  0  0  0  0  0
   -5.9230   26.0340  -29.8150 O   0  0  0  0  0  0  0  0  0  0  0  0
   -5.8180   24.0150  -31.0510 C   0  0  0  0  0  0  0  0  0  0  0  0
   -7.1850   23.8150  -31.2260 C   0  0  0  0  0  0  0  0  0  0  0  0
   -7.3140   22.5020  -31.6170 C   0  0  0  0  0  0  0  0  0  0  0  0
   -8.4540   21.7670  -31.9270 C   0  0  0  0  0  0  0  0  0  0  0  0
   -8.2900   20.4300  -32.3270 C   0  0  0  0  0  0  0  0  0  0  0  0
   -6.9950   19.8590  -32.4360 C   0  0  0  0  0  0  0  0  0  0  0  0
   -6.8280   18.4120  -32.8270 C   0  0  0  0  0  0  0  0  0  0  0  0
   -5.8350   17.8430  -32.0520 F   0  0  0  0  0  0  0  0  0  0  0  0
   -8.0070   17.7100  -32.6360 F   0  0  0  0  0  0  0  0  0  0  0  0
   -6.4760   18.3100  -34.1610 F   0  0  0  0  0  0  0  0  0  0  0  0
   -5.8620   20.6330  -32.0890 C   0  0  0  0  0  0  0  0  0  0  0  0
   -6.0590   21.9560  -31.6750 C   0  0  0  0  0  0  0  0  0  0  0  0
   -5.1280   22.8730  -31.3290 N   0  0  0  0  0  0  0  0  0  0  0  0
   -3.7040   22.6940  -31.3690 C   0  0  0  0  0  0  0  0  0  0  0  0
   -3.1490   22.3280  -32.4410 O   0  0  0  0  0  0  0  0  0  0  0  0
   -2.9430   22.9410  -30.2220 O   0  0  0  0  0  0  0  0  0  0  0  0
   -1.5520   22.6520  -30.1190 C   0  0  0  0  0  0  0  0  0  0  0  0
   -1.2900   21.9720  -28.8930 O   0  0  0  0  0  0  0  0  0  0  0  0
   -1.1280   22.6170  -27.6620 C   0  0  0  0  0  0  0  0  0  0  0  0
   -0.4530   22.0900  -26.7370 O   0  0  0  0  0  0  0  0  0  0  0  0
   -1.7410   23.9640  -27.4540 C   0  0  0  0  0  0  0  0  0  0  0  0
   -0.9570   24.9960  -28.1980 C   0  0  0  0  0  0  0  0  0  0  0  0
    0.2970   25.0440  -28.0860 O   0  0  0  0  0  0  0  0  0  0  0  0
   -1.6130   25.9380  -28.9780 O   0  0  0  0  0  0  0  0  0  0  0  0
   -3.0890   25.1500  -30.3950 H   0  0  0  0  0  0  0  0  0  0  0  0
   -7.9904   24.5503  -31.0822 H   0  0  0  0  0  0  0  0  0  0  0  0
   -9.4545   22.2194  -31.8609 H   0  0  0  0  0  0  0  0  0  0  0  0
   -9.1750   19.8190  -32.5582 H   0  0  0  0  0  0  0  0  0  0  0  0
   -4.8501   20.2051  -32.1433 H   0  0  0  0  0  0  0  0  0  0  0  0
   -1.2479   22.0147  -30.9624 H   0  0  0  0  0  0  0  0  0  0  0  0
   -0.9826   23.5929  -30.1417 H   0  0  0  0  0  0  0  0  0  0  0  0
   -2.7769   23.9551  -27.8240 H   0  0  0  0  0  0  0  0  0  0  0  0
   -1.7334   24.2053  -26.3808 H   0  0  0  0  0  0  0  0  0  0  0  0
  1  2  1  0
  2  3  2  0
  2  4  1  0
  4  5  2  0
  5  6  1  0
  6  7  2  0
  7  8  1  0
  8  9  2  0
  9 10  1  0
 10 11  1  0
 10 12  1  0
 10 13  1  0
  9 14  1  0
 14 15  2  0
 15 16  1  0
 16 17  1  0
 17 18  2  0
 17 19  1  0
 19 20  1  0
 20 21  1  0
 21 22  1  0
 22 23  2  0
 22 24  1  0
 24 25  1  0
 25 26  2  0
 25 27  1  0
 16  4  1  0
 15  6  1  0
  1 28  1  0
  5 29  1  0
  7 30  1  0
  8 31  1  0
 14 32  1  0
 20 33  1  0
 20 34  1  0
 24 35  1  0
 24 36  1  0
M  CHG  2   1  -1  27  -1
M  END
>  <UniqueID>  (80) 
80

>  <SMILES>  (80) 
[NH-]C(=O)c1cc2ccc(C(F)(F)F)cc2n1C(=O)OCOC(=O)CC(=O)[O-]

>  <Energy>  (80) 
71.82062981159835

>  <Genealogy>  (80) 
[NH-]C(=O)c1cc2ccc(C(F)(F)F)cc2n1C(=O)OCOC(=O)CC(=O)[O-] (protonated)
[NH-]C(=O)c1cc2ccc(C(F)(F)F)cc2n1C(=O)OCOC(=O)CC(=O)[O-] (3D coordinates assigned)
[NH-]C(=O)c1cc2ccc(C(F)(F)F)cc2n1C(=O)OCOC(=O)CC(=O)[O-] (optimized conformer: 71.82062981159835 kcal/mol)

>  <smiles>  (80) 
NC(=O)c1cc2ccc(C(F)(F)F)cc2n1C(=O)OCOC(=O)CC(=O)O

>  <score_type>  (80) 
oracle

>  <origin>  (80) 
adg

>  <m_score__min__energy>  (80) 
-11.75

>  <m_primary>  (80) 
energy

$$$$
82:0
     RDKit          3D

 47 51  0  0  0  0  0  0  0  0999 V2000
   -6.8540   25.8810  -28.9320 N   0  0  0  0  0  0  0  0  0  0  0  0
   -6.1210   25.5910  -30.1250 C   0  0  0  0  0  0  0  0  0  0  0  0
   -5.3850   26.4800  -30.6320 O   0  0  0  0  0  0  0  0  0  0  0  0
   -6.2690   24.2930  -30.8130 C   0  0  0  0  0  0  0  0  0  0  0  0
   -7.4950   23.8000  -31.2490 C   0  0  0  0  0  0  0  0  0  0  0  0
   -7.2270   22.5490  -31.7480 C   0  0  0  0  0  0  0  0  0  0  0  0
   -8.0870   21.6100  -32.3110 C   0  0  0  0  0  0  0  0  0  0  0  0
   -7.5380   20.3990  -32.7610 C   0  0  0  0  0  0  0  0  0  0  0  0
   -6.1460   20.1490  -32.6540 C   0  0  0  0  0  0  0  0  0  0  0  0
   -5.5760   18.8640  -33.1340 C   0  0  0  0  0  0  0  0  0  0  0  0
   -6.2850   17.6610  -32.9700 C   0  0  0  0  0  0  0  0  0  0  0  0
   -5.7400   16.4510  -33.4100 C   0  0  0  0  0  0  0  0  0  0  0  0
   -4.4730   16.4200  -34.0110 C   0  0  0  0  0  0  0  0  0  0  0  0
   -3.9040   15.1420  -34.4830 C   0  0  0  0  0  0  0  0  0  0  0  0
   -3.7230   14.9700  -35.7190 O   0  0  0  0  0  0  0  0  0  0  0  0
   -3.5620   14.0900  -33.5640 N   0  0  0  0  0  0  0  0  0  0  0  0
   -2.3680   13.2760  -33.7160 C   0  0  0  0  0  0  0  0  0  0  0  0
   -2.4630   12.1820  -32.6620 C   0  0  1  0  0  0  0  0  0  0  0  0
   -2.4670   12.6370  -31.2110 C   0  0  0  0  0  0  0  0  0  0  0  0
   -3.7800   12.3740  -31.9310 C   0  0  1  0  0  0  0  0  0  0  0  0
   -4.4650   13.5890  -32.5400 C   0  0  0  0  0  0  0  0  0  0  0  0
   -3.7750   17.6220  -34.1980 C   0  0  0  0  0  0  0  0  0  0  0  0
   -4.3170   18.8320  -33.7590 C   0  0  0  0  0  0  0  0  0  0  0  0
   -5.3040   21.1320  -32.0810 C   0  0  0  0  0  0  0  0  0  0  0  0
   -5.8800   22.3240  -31.6200 C   0  0  0  0  0  0  0  0  0  0  0  0
   -5.2720   23.3940  -31.0500 N   0  0  0  0  0  0  0  0  0  0  0  0
   -3.8590   23.5880  -30.8460 C   0  0  0  0  0  0  0  0  0  0  0  0
   -3.0520   22.6300  -30.9730 O   0  0  0  0  0  0  0  0  0  0  0  0
   -3.3680   24.8430  -30.4930 O   0  0  0  0  0  0  0  0  0  0  0  0
   -7.5800   25.2220  -28.5740 H   0  0  0  0  0  0  0  0  0  0  0  0
   -6.7390   26.8020  -28.4540 H   0  0  0  0  0  0  0  0  0  0  0  0
   -8.4712   24.3049  -31.2036 H   0  0  0  0  0  0  0  0  0  0  0  0
   -9.1647   21.8111  -32.4005 H   0  0  0  0  0  0  0  0  0  0  0  0
   -8.1951   19.6349  -33.2018 H   0  0  0  0  0  0  0  0  0  0  0  0
   -7.2757   17.6719  -32.4920 H   0  0  0  0  0  0  0  0  0  0  0  0
   -6.3083   15.5176  -33.2841 H   0  0  0  0  0  0  0  0  0  0  0  0
   -2.3336   12.8338  -34.7226 H   0  0  0  0  0  0  0  0  0  0  0  0
   -1.4549   13.8762  -33.5896 H   0  0  0  0  0  0  0  0  0  0  0  0
   -1.9028   11.3881  -33.1775 H   0  0  0  0  0  0  0  0  0  0  0  0
   -2.1272   11.9534  -30.4190 H   0  0  0  0  0  0  0  0  0  0  0  0
   -2.0378   13.4873  -30.6607 H   0  0  0  0  0  0  0  0  0  0  0  0
   -4.6674   11.7887  -31.6483 H   0  0  0  0  0  0  0  0  0  0  0  0
   -5.4274   13.3002  -32.9877 H   0  0  0  0  0  0  0  0  0  0  0  0
   -4.6748   14.3554  -31.7793 H   0  0  0  0  0  0  0  0  0  0  0  0
   -2.7933   17.6117  -34.6942 H   0  0  0  0  0  0  0  0  0  0  0  0
   -3.7549   19.7665  -33.9032 H   0  0  0  0  0  0  0  0  0  0  0  0
   -4.2200   20.9640  -31.9991 H   0  0  0  0  0  0  0  0  0  0  0  0
  1  2  1  0
  2  3  2  0
  2  4  1  0
  4  5  2  0
  5  6  1  0
  6  7  2  0
  7  8  1  0
  8  9  2  0
  9 10  1  0
 10 11  2  0
 11 12  1  0
 12 13  2  0
 13 14  1  0
 14 15  2  0
 14 16  1  0
 16 17  1  0
 17 18  1  0
 18 19  1  0
 19 20  1  0
 20 21  1  0
 13 22  1  0
 22 23  2  0
  9 24  1  0
 24 25  2  0
 25 26  1  0
 26 27  1  0
 27 28  2  0
 27 29  1  0
 26  4  1  0
 25  6  1  0
 23 10  1  0
 21 16  1  0
 20 18  1  0
  1 30  1  0
  1 31  1  0
  5 32  1  0
  7 33  1  0
  8 34  1  0
 11 35  1  0
 12 36  1  0
 17 37  1  0
 17 38  1  0
 18 39  1  1
 19 40  1  0
 19 41  1  0
 20 42  1  1
 21 43  1  0
 21 44  1  0
 22 45  1  0
 23 46  1  0
 24 47  1  0
M  CHG  1  29  -1
M  END
>  <UniqueID>  (81) 
81

>  <SMILES>  (81) 
NC(=O)c1cc2ccc(-c3ccc(C(=O)N4C[C@H]5C[C@H]5C4)cc3)cc2n1C(=O)[O-]

>  <Energy>  (81) 
367.04985026712575

>  <Genealogy>  (81) 
NC(=O)c1cc2ccc(-c3ccc(C(=O)N4CC5CC5C4)cc3)cc2n1C(=O)[O-] (protonated)
NC(=O)c1cc2ccc(-c3ccc(C(=O)N4C[C@H]5C[C@H]5C4)cc3)cc2n1C(=O)[O-] (chirality)
NC(=O)c1cc2ccc(-c3ccc(C(=O)N4C[C@H]5C[C@H]5C4)cc3)cc2n1C(=O)[O-] (3D coordinates assigned)
NC(=O)c1cc2ccc(-c3ccc(C(=O)N4C[C@H]5C[C@H]5C4)cc3)cc2n1C(=O)[O-] (nonaromatic ring conformer: 367.04985026712575 kcal/mol)

>  <smiles>  (81) 
NC(=O)c1cc2ccc(-c3ccc(C(=O)N4CC5CC5C4)cc3)cc2n1C(=O)O

>  <score_type>  (81) 
oracle

>  <origin>  (81) 
adg

>  <m_score__min__energy>  (81) 
-10.470000000000001

>  <m_primary>  (81) 
energy

$$$$
83:0
     RDKit          3D

 45 47  0  0  0  0  0  0  0  0999 V2000
   -2.1890   17.1940  -34.6260 C   0  0  0  0  0  0  0  0  0  0  0  0
   -3.3800   16.4330  -34.8030 O   0  0  0  0  0  0  0  0  0  0  0  0
   -4.6290   16.7740  -34.2610 C   0  0  0  0  0  0  0  0  0  0  0  0
   -4.9040   18.0640  -33.7660 C   0  0  0  0  0  0  0  0  0  0  0  0
   -6.1710   18.3570  -33.2390 C   0  0  0  0  0  0  0  0  0  0  0  0
   -6.4790   19.7110  -32.7180 C   0  0  0  0  0  0  0  0  0  0  0  0
   -7.8250   20.1610  -32.6340 C   0  0  0  0  0  0  0  0  0  0  0  0
   -8.1250   21.4470  -32.1510 C   0  0  0  0  0  0  0  0  0  0  0  0
   -7.0670   22.2620  -31.7640 C   0  0  0  0  0  0  0  0  0  0  0  0
   -7.0680   23.5380  -31.2440 C   0  0  0  0  0  0  0  0  0  0  0  0
   -5.7260   23.8500  -31.0260 C   0  0  0  0  0  0  0  0  0  0  0  0
   -5.2580   25.1490  -30.4980 C   0  0  0  0  0  0  0  0  0  0  0  0
   -3.9750   25.6650  -30.8460 N   0  0  0  0  0  0  0  0  0  0  0  0
   -6.0080   25.8240  -29.7440 O   0  0  0  0  0  0  0  0  0  0  0  0
   -4.9310   22.8100  -31.4020 N   0  0  0  0  0  0  0  0  0  0  0  0
   -3.5090   22.6960  -31.2670 C   0  0  0  0  0  0  0  0  0  0  0  0
   -2.8130   22.4610  -32.2920 O   0  0  0  0  0  0  0  0  0  0  0  0
   -2.8710   22.8630  -29.9840 N   0  0  0  0  0  0  0  0  0  0  0  0
   -3.7070   23.0360  -28.7920 C   0  0  0  0  0  0  0  0  0  0  0  0
   -1.4060   22.9360  -29.8770 C   0  0  0  0  0  0  0  0  0  0  0  0
   -0.9970   24.2290  -29.2450 C   0  0  0  0  0  0  0  0  0  0  0  0
    0.1120   24.3270  -28.6580 O   0  0  0  0  0  0  0  0  0  0  0  0
   -1.8450   25.3280  -29.3030 O   0  0  0  0  0  0  0  0  0  0  0  0
   -5.7640   21.8460  -31.8430 C   0  0  0  0  0  0  0  0  0  0  0  0
   -5.4340   20.5700  -32.3050 C   0  0  0  0  0  0  0  0  0  0  0  0
   -7.1450   17.3480  -33.2150 C   0  0  0  0  0  0  0  0  0  0  0  0
   -6.8380   16.0800  -33.7100 C   0  0  0  0  0  0  0  0  0  0  0  0
   -5.6030   15.8220  -34.2180 N   0  0  0  0  0  0  0  0  0  0  0  0
   -1.9910   17.3205  -33.5514 H   0  0  0  0  0  0  0  0  0  0  0  0
   -1.3445   16.6678  -35.0950 H   0  0  0  0  0  0  0  0  0  0  0  0
   -2.3117   18.1814  -35.0950 H   0  0  0  0  0  0  0  0  0  0  0  0
   -4.1259   18.8411  -33.7926 H   0  0  0  0  0  0  0  0  0  0  0  0
   -8.6414   19.4952  -32.9506 H   0  0  0  0  0  0  0  0  0  0  0  0
   -9.1653   21.7977  -32.0814 H   0  0  0  0  0  0  0  0  0  0  0  0
   -7.9417   24.1754  -31.0433 H   0  0  0  0  0  0  0  0  0  0  0  0
   -3.1020   25.2260  -30.4770 H   0  0  0  0  0  0  0  0  0  0  0  0
   -3.0904   22.9084  -27.8900 H   0  0  0  0  0  0  0  0  0  0  0  0
   -4.1469   24.0442  -28.7958 H   0  0  0  0  0  0  0  0  0  0  0  0
   -4.5109   22.2852  -28.7958 H   0  0  0  0  0  0  0  0  0  0  0  0
   -1.0448   22.1000  -29.2601 H   0  0  0  0  0  0  0  0  0  0  0  0
   -0.9694   22.8756  -30.8849 H   0  0  0  0  0  0  0  0  0  0  0  0
   -4.3853   20.2406  -32.3467 H   0  0  0  0  0  0  0  0  0  0  0  0
   -8.1457   17.5552  -32.8081 H   0  0  0  0  0  0  0  0  0  0  0  0
   -7.5984   15.2854  -33.6893 H   0  0  0  0  0  0  0  0  0  0  0  0
   -5.3980   14.8660  -34.5840 H   0  0  0  0  0  0  0  0  0  0  0  0
  1  2  1  0
  2  3  1  0
  3  4  2  0
  4  5  1  0
  5  6  1  0
  6  7  2  0
  7  8  1  0
  8  9  2  0
  9 10  1  0
 10 11  2  0
 11 12  1  0
 12 13  1  0
 12 14  2  0
 11 15  1  0
 15 16  1  0
 16 17  2  0
 16 18  1  0
 18 19  1  0
 18 20  1  0
 20 21  1  0
 21 22  2  0
 21 23  1  0
 15 24  1  0
 24 25  2  0
  5 26  2  0
 26 27  1  0
 27 28  2  0
 28  3  1  0
 25  6  1  0
 24  9  1  0
  1 29  1  0
  1 30  1  0
  1 31  1  0
  4 32  1  0
  7 33  1  0
  8 34  1  0
 10 35  1  0
 13 36  1  0
 19 37  1  0
 19 38  1  0
 19 39  1  0
 20 40  1  0
 20 41  1  0
 25 42  1  0
 26 43  1  0
 27 44  1  0
 28 45  1  0
M  CHG  3  13  -1  23  -1  28   1
M  END
>  <UniqueID>  (82) 
82

>  <SMILES>  (82) 
COc1cc(-c2ccc3cc(C([NH-])=O)n(C(=O)N(C)CC(=O)[O-])c3c2)cc[nH+]1

>  <Energy>  (82) 
87.94050746689236

>  <Genealogy>  (82) 
COc1cc(-c2ccc3cc(C([NH-])=O)n(C(=O)N(C)CC(=O)[O-])c3c2)cc[nH+]1 (protonated)
COc1cc(-c2ccc3cc(C([NH-])=O)n(C(=O)N(C)CC(=O)[O-])c3c2)cc[nH+]1 (3D coordinates assigned)
COc1cc(-c2ccc3cc(C([NH-])=O)n(C(=O)N(C)CC(=O)[O-])c3c2)cc[nH+]1 (optimized conformer: 87.94050746689236 kcal/mol)

>  <smiles>  (82) 
COc1cc(-c2ccc3cc(C(N)=O)n(C(=O)N(C)CC(=O)O)c3c2)ccn1

>  <score_type>  (82) 
oracle

>  <origin>  (82) 
adg

>  <m_score__min__energy>  (82) 
-12.66

>  <m_primary>  (82) 
energy

$$$$
84:0
     RDKit          3D

 49 50  0  0  0  0  0  0  0  0999 V2000
   -0.8670   22.1870  -26.3560 C   0  0  0  0  0  0  0  0  0  0  0  0
   -1.4540   21.3420  -27.3990 N   0  0  0  0  0  0  0  0  0  0  0  0
   -0.5900   20.6170  -28.3380 C   0  0  0  0  0  0  0  0  0  0  0  0
   -1.4380   19.9450  -29.4240 C   0  0  0  0  0  0  0  0  0  0  0  0
   -1.7480   20.8890  -30.5920 C   0  0  0  0  0  0  0  0  0  0  0  0
   -3.1260   21.2640  -30.5940 O   0  0  0  0  0  0  0  0  0  0  0  0
   -3.6170   22.4580  -31.1350 C   0  0  0  0  0  0  0  0  0  0  0  0
   -2.8240   23.3770  -31.4800 O   0  0  0  0  0  0  0  0  0  0  0  0
   -5.0340   22.6520  -31.2580 N   0  0  0  0  0  0  0  0  0  0  0  0
   -5.7690   23.7320  -30.8650 C   0  0  0  0  0  0  0  0  0  0  0  0
   -5.2310   25.0220  -30.3860 C   0  0  0  0  0  0  0  0  0  0  0  0
   -3.9800   25.5120  -30.8600 N   0  0  0  0  0  0  0  0  0  0  0  0
   -5.9100   25.7250  -29.5900 O   0  0  0  0  0  0  0  0  0  0  0  0
   -7.1270   23.4960  -31.0610 C   0  0  0  0  0  0  0  0  0  0  0  0
   -7.2040   22.2340  -31.6040 C   0  0  0  0  0  0  0  0  0  0  0  0
   -8.3150   21.4960  -32.0010 C   0  0  0  0  0  0  0  0  0  0  0  0
   -8.1000   20.2050  -32.5130 C   0  0  0  0  0  0  0  0  0  0  0  0
   -6.7900   19.6630  -32.5940 C   0  0  0  0  0  0  0  0  0  0  0  0
   -6.5700   18.2930  -33.1820 C   0  0  0  0  0  0  0  0  0  0  0  0
   -6.2710   18.3800  -34.5300 F   0  0  0  0  0  0  0  0  0  0  0  0
   -5.5170   17.6810  -32.5250 F   0  0  0  0  0  0  0  0  0  0  0  0
   -7.7040   17.5110  -33.0400 F   0  0  0  0  0  0  0  0  0  0  0  0
   -5.6850   20.4540  -32.1990 C   0  0  0  0  0  0  0  0  0  0  0  0
   -5.9280   21.7450  -31.7110 C   0  0  0  0  0  0  0  0  0  0  0  0
   -2.8840   21.2270  -27.5050 C   0  0  0  0  0  0  0  0  0  0  0  0
   -3.4590   20.1540  -27.1660 O   0  0  0  0  0  0  0  0  0  0  0  0
   -3.6380   22.3070  -27.9850 O   0  0  0  0  0  0  0  0  0  0  0  0
   -3.1760   23.6510  -27.9620 C   0  0  0  0  0  0  0  0  0  0  0  0
   -2.1990   23.8210  -28.9610 O   0  0  0  0  0  0  0  0  0  0  0  0
   -1.0580   24.9610  -28.4090 P   0  0  0  0  0  0  0  0  0  0  0  0
   -1.3130   25.2890  -26.9520 O   0  0  0  0  0  0  0  0  0  0  0  0
    0.5130   24.3560  -28.5870 O   0  0  0  0  0  0  0  0  0  0  0  0
   -1.2090   26.3740  -29.3260 O   0  0  0  0  0  0  0  0  0  0  0  0
   -1.1413   21.7921  -25.3667 H   0  0  0  0  0  0  0  0  0  0  0  0
    0.2282   22.1893  -26.4591 H   0  0  0  0  0  0  0  0  0  0  0  0
   -1.2471   23.2141  -26.4591 H   0  0  0  0  0  0  0  0  0  0  0  0
    0.1097   21.3236  -28.8082 H   0  0  0  0  0  0  0  0  0  0  0  0
   -0.0306   19.8450  -27.7894 H   0  0  0  0  0  0  0  0  0  0  0  0
   -0.8903   19.0729  -29.8106 H   0  0  0  0  0  0  0  0  0  0  0  0
   -2.3947   19.6507  -28.9679 H   0  0  0  0  0  0  0  0  0  0  0  0
   -1.1290   21.7934  -30.4978 H   0  0  0  0  0  0  0  0  0  0  0  0
   -1.5252   20.3665  -31.5340 H   0  0  0  0  0  0  0  0  0  0  0  0
   -3.0880   25.2510  -30.3870 H   0  0  0  0  0  0  0  0  0  0  0  0
   -7.9615   24.1746  -30.8306 H   0  0  0  0  0  0  0  0  0  0  0  0
   -9.3304   21.9105  -31.9166 H   0  0  0  0  0  0  0  0  0  0  0  0
   -8.9573   19.6068  -32.8553 H   0  0  0  0  0  0  0  0  0  0  0  0
   -4.6590   20.0644  -32.2733 H   0  0  0  0  0  0  0  0  0  0  0  0
   -4.0182   24.3330  -28.1510 H   0  0  0  0  0  0  0  0  0  0  0  0
   -2.7409   23.8757  -26.9770 H   0  0  0  0  0  0  0  0  0  0  0  0
  1  2  1  0
  2  3  1  0
  3  4  1  0
  4  5  1  0
  5  6  1  0
  6  7  1  0
  7  8  2  0
  7  9  1  0
  9 10  1  0
 10 11  1  0
 11 12  1  0
 11 13  2  0
 10 14  2  0
 14 15  1  0
 15 16  2  0
 16 17  1  0
 17 18  2  0
 18 19  1  0
 19 20  1  0
 19 21  1  0
 19 22  1  0
 18 23  1  0
 23 24  2  0
  2 25  1  0
 25 26  2  0
 25 27  1  0
 27 28  1  0
 28 29  1  0
 29 30  1  0
 30 31  2  0
 30 32  1  0
 30 33  1  0
 24  9  1  0
 24 15  1  0
  1 34  1  0
  1 35  1  0
  1 36  1  0
  3 37  1  0
  3 38  1  0
  4 39  1  0
  4 40  1  0
  5 41  1  0
  5 42  1  0
 12 43  1  0
 14 44  1  0
 16 45  1  0
 17 46  1  0
 23 47  1  0
 28 48  1  0
 28 49  1  0
M  CHG  3  12  -1  32  -1  33  -1
M  END
>  <UniqueID>  (83) 
83

>  <SMILES>  (83) 
CN(CCCOC(=O)n1c(C([NH-])=O)cc2ccc(C(F)(F)F)cc21)C(=O)OCOP(=O)([O-])[O-]

>  <Energy>  (83) 
78.04322477379016

>  <Genealogy>  (83) 
CN(CCCOC(=O)n1c(C([NH-])=O)cc2ccc(C(F)(F)F)cc21)C(=O)OCOP(=O)([O-])[O-] (protonated)
CN(CCCOC(=O)n1c(C([NH-])=O)cc2ccc(C(F)(F)F)cc21)C(=O)OCOP(=O)([O-])[O-] (3D coordinates assigned)
CN(CCCOC(=O)n1c(C([NH-])=O)cc2ccc(C(F)(F)F)cc21)C(=O)OCOP(=O)([O-])[O-] (optimized conformer: 78.04322477379016 kcal/mol)

>  <smiles>  (83) 
CN(CCCOC(=O)n1c(C(N)=O)cc2ccc(C(F)(F)F)cc21)C(=O)OCOP(=O)(O)O

>  <score_type>  (83) 
oracle

>  <origin>  (83) 
adg

>  <m_score__min__energy>  (83) 
-13.470000000000001

>  <m_primary>  (83) 
energy

$$$$
85:0
     RDKit          3D

 35 36  0  0  0  0  0  0  0  0999 V2000
   -6.2310   16.5980  -34.0700 C   0  0  0  0  0  0  0  0  0  0  0  0
   -6.5980   17.5550  -33.4340 C   0  0  0  0  0  0  0  0  0  0  0  0
   -7.0320   18.6980  -32.6760 C   0  0  0  0  0  0  0  0  0  0  0  0
   -8.3670   18.7750  -32.2170 C   0  0  0  0  0  0  0  0  0  0  0  0
   -8.7990   19.8840  -31.4690 C   0  0  0  0  0  0  0  0  0  0  0  0
   -7.8770   20.8950  -31.2080 C   0  0  0  0  0  0  0  0  0  0  0  0
   -8.0240   22.0630  -30.4970 C   0  0  0  0  0  0  0  0  0  0  0  0
   -6.7810   22.6920  -30.5560 C   0  0  0  0  0  0  0  0  0  0  0  0
   -6.5110   24.0360  -30.0010 C   0  0  0  0  0  0  0  0  0  0  0  0
   -5.2740   24.3200  -29.3450 N   0  0  0  0  0  0  0  0  0  0  0  0
   -7.3890   24.9380  -30.0720 O   0  0  0  0  0  0  0  0  0  0  0  0
   -5.8970   21.9370  -31.2720 N   0  0  0  0  0  0  0  0  0  0  0  0
   -4.5070   22.2060  -31.5200 C   0  0  0  0  0  0  0  0  0  0  0  0
   -4.1710   23.0440  -32.4000 O   0  0  0  0  0  0  0  0  0  0  0  0
   -3.5320   21.5510  -30.7630 O   0  0  0  0  0  0  0  0  0  0  0  0
   -3.5050   21.5780  -29.3410 C   0  0  0  0  0  0  0  0  0  0  0  0
   -2.2090   22.2250  -28.8720 C   0  0  0  0  0  0  0  0  0  0  0  0
   -1.8160   23.2000  -29.8100 O   0  0  0  0  0  0  0  0  0  0  0  0
   -2.4470   24.7070  -29.3210 P   0  0  0  0  0  0  0  0  0  0  0  0
   -3.1630   24.5650  -27.9970 O   0  0  0  0  0  0  0  0  0  0  0  0
   -1.1720   25.8020  -29.1460 O   0  0  0  0  0  0  0  0  0  0  0  0
   -3.5230   25.2980  -30.4860 O   0  0  0  0  0  0  0  0  0  0  0  0
   -6.5840   20.8410  -31.6640 C   0  0  0  0  0  0  0  0  0  0  0  0
   -6.1230   19.7370  -32.3940 C   0  0  0  0  0  0  0  0  0  0  0  0
   -5.8963   15.7253  -34.6500 H   0  0  0  0  0  0  0  0  0  0  0  0
   -9.0718   17.9623  -32.4466 H   0  0  0  0  0  0  0  0  0  0  0  0
   -9.8334   19.9514  -31.1011 H   0  0  0  0  0  0  0  0  0  0  0  0
   -8.9304   22.4245  -29.9892 H   0  0  0  0  0  0  0  0  0  0  0  0
   -5.1100   25.2610  -28.9220 H   0  0  0  0  0  0  0  0  0  0  0  0
   -4.5030   23.6170  -29.3130 H   0  0  0  0  0  0  0  0  0  0  0  0
   -4.3612   22.1596  -28.9687 H   0  0  0  0  0  0  0  0  0  0  0  0
   -3.5642   20.5505  -28.9528 H   0  0  0  0  0  0  0  0  0  0  0  0
   -2.3673   22.6990  -27.8921 H   0  0  0  0  0  0  0  0  0  0  0  0
   -1.4240   21.4598  -28.7811 H   0  0  0  0  0  0  0  0  0  0  0  0
   -5.0794   19.6831  -32.7376 H   0  0  0  0  0  0  0  0  0  0  0  0
  1  2  3  0
  2  3  1  0
  3  4  2  0
  4  5  1  0
  5  6  2  0
  6  7  1  0
  7  8  2  0
  8  9  1  0
  9 10  1  0
  9 11  2  0
  8 12  1  0
 12 13  1  0
 13 14  2  0
 13 15  1  0
 15 16  1  0
 16 17  1  0
 17 18  1  0
 18 19  1  0
 19 20  2  0
 19 21  1  0
 19 22  1  0
 12 23  1  0
 23 24  2  0
 24  3  1  0
 23  6  1  0
  1 25  1  0
  4 26  1  0
  5 27  1  0
  7 28  1  0
 10 29  1  0
 10 30  1  0
 16 31  1  0
 16 32  1  0
 17 33  1  0
 17 34  1  0
 24 35  1  0
M  CHG  2  21  -1  22  -1
M  END
>  <UniqueID>  (84) 
84

>  <SMILES>  (84) 
C#Cc1ccc2cc(C(N)=O)n(C(=O)OCCOP(=O)([O-])[O-])c2c1

>  <Energy>  (84) 
65.77708211333955

>  <Genealogy>  (84) 
C#Cc1ccc2cc(C(N)=O)n(C(=O)OCCOP(=O)([O-])[O-])c2c1 (protonated)
C#Cc1ccc2cc(C(N)=O)n(C(=O)OCCOP(=O)([O-])[O-])c2c1 (3D coordinates assigned)
C#Cc1ccc2cc(C(N)=O)n(C(=O)OCCOP(=O)([O-])[O-])c2c1 (optimized conformer: 65.77708211333955 kcal/mol)

>  <smiles>  (84) 
C#Cc1ccc2cc(C(N)=O)n(C(=O)OCCOP(=O)(O)O)c2c1

>  <score_type>  (84) 
oracle

>  <origin>  (84) 
adg

>  <m_score__min__energy>  (84) 
-12.52

>  <m_primary>  (84) 
energy

$$$$
86:0
     RDKit          3D

 31 32  0  0  0  0  0  0  0  0999 V2000
   -3.2710   23.9740  -27.4640 C   0  0  0  0  0  0  0  0  0  0  0  0
   -2.6810   23.6760  -28.6270 C   0  0  0  0  0  0  0  0  0  0  0  0
   -3.1290   22.5720  -29.4320 N   0  0  0  0  0  0  0  0  0  0  0  0
   -3.5830   22.6290  -30.7900 C   0  0  0  0  0  0  0  0  0  0  0  0
   -2.7720   22.4700  -31.7430 O   0  0  0  0  0  0  0  0  0  0  0  0
   -4.9840   22.7880  -31.0650 N   0  0  0  0  0  0  0  0  0  0  0  0
   -5.7530   23.8940  -30.8590 C   0  0  0  0  0  0  0  0  0  0  0  0
   -5.2620   25.2310  -30.4660 C   0  0  0  0  0  0  0  0  0  0  0  0
   -3.9610   25.6740  -30.8430 N   0  0  0  0  0  0  0  0  0  0  0  0
   -6.0190   26.0120  -29.8290 O   0  0  0  0  0  0  0  0  0  0  0  0
   -7.0870   23.6230  -31.1550 C   0  0  0  0  0  0  0  0  0  0  0  0
   -7.1110   22.3080  -31.5590 C   0  0  0  0  0  0  0  0  0  0  0  0
   -8.1800   21.5180  -31.9730 C   0  0  0  0  0  0  0  0  0  0  0  0
   -7.9160   20.1810  -32.3160 C   0  0  0  0  0  0  0  0  0  0  0  0
   -6.6040   19.6510  -32.2180 C   0  0  0  0  0  0  0  0  0  0  0  0
   -6.3280   18.2260  -32.6250 C   0  0  0  0  0  0  0  0  0  0  0  0
   -7.5220   17.6030  -32.9360 F   0  0  0  0  0  0  0  0  0  0  0  0
   -5.4980   18.1870  -33.7330 F   0  0  0  0  0  0  0  0  0  0  0  0
   -5.7120   17.5340  -31.5980 F   0  0  0  0  0  0  0  0  0  0  0  0
   -5.5400   20.4940  -31.8160 C   0  0  0  0  0  0  0  0  0  0  0  0
   -5.8300   21.8260  -31.4970 C   0  0  0  0  0  0  0  0  0  0  0  0
   -1.4920   24.4270  -29.0760 C   0  0  0  0  0  0  0  0  0  0  0  0
   -1.5760   25.6650  -29.2890 O   0  0  0  0  0  0  0  0  0  0  0  0
   -0.2720   23.7880  -29.2670 O   0  0  0  0  0  0  0  0  0  0  0  0
   -2.9100   24.8237  -26.8660 H   0  0  0  0  0  0  0  0  0  0  0  0
   -4.1172   23.3693  -27.1057 H   0  0  0  0  0  0  0  0  0  0  0  0
   -3.1050   25.2070  -30.4670 H   0  0  0  0  0  0  0  0  0  0  0  0
   -7.9400   24.3136  -31.0814 H   0  0  0  0  0  0  0  0  0  0  0  0
   -9.1993   21.9275  -32.0298 H   0  0  0  0  0  0  0  0  0  0  0  0
   -8.7371   19.5375  -32.6648 H   0  0  0  0  0  0  0  0  0  0  0  0
   -4.5103   20.1117  -31.7558 H   0  0  0  0  0  0  0  0  0  0  0  0
  1  2  2  0
  2  3  1  0
  3  4  1  0
  4  5  2  0
  4  6  1  0
  6  7  1  0
  7  8  1  0
  8  9  1  0
  8 10  2  0
  7 11  2  0
 11 12  1  0
 12 13  2  0
 13 14  1  0
 14 15  2  0
 15 16  1  0
 16 17  1  0
 16 18  1  0
 16 19  1  0
 15 20  1  0
 20 21  2  0
  2 22  1  0
 22 23  2  0
 22 24  1  0
 21  6  1  0
 21 12  1  0
  1 25  1  0
  1 26  1  0
  9 27  1  0
 11 28  1  0
 13 29  1  0
 14 30  1  0
 20 31  1  0
M  CHG  3   3  -1   9  -1  24  -1
M  END
>  <UniqueID>  (85) 
85

>  <SMILES>  (85) 
C=C([N-]C(=O)n1c(C([NH-])=O)cc2ccc(C(F)(F)F)cc21)C(=O)[O-]

>  <Energy>  (85) 
74.12436824964875

>  <Genealogy>  (85) 
C=C([N-]C(=O)n1c(C([NH-])=O)cc2ccc(C(F)(F)F)cc21)C(=O)[O-] (protonated)
C=C([N-]C(=O)n1c(C([NH-])=O)cc2ccc(C(F)(F)F)cc21)C(=O)[O-] (3D coordinates assigned)
C=C([N-]C(=O)n1c(C([NH-])=O)cc2ccc(C(F)(F)F)cc21)C(=O)[O-] (optimized conformer: 74.12436824964875 kcal/mol)

>  <smiles>  (85) 
C=C(NC(=O)n1c(C(N)=O)cc2ccc(C(F)(F)F)cc21)C(=O)O

>  <score_type>  (85) 
oracle

>  <origin>  (85) 
adg

>  <m_score__min__energy>  (85) 
-12.699999999999999

>  <m_primary>  (85) 
energy

$$$$
87:0
     RDKit          3D

 46 47  0  0  0  0  0  0  0  0999 V2000
   -3.1290   18.9000  -26.2750 C   0  0  0  0  0  0  0  0  0  0  0  0
   -1.7500   19.4080  -26.3960 N   0  0  0  0  0  0  0  0  0  0  0  0
   -0.9210   18.4030  -27.0820 C   0  0  0  0  0  0  0  0  0  0  0  0
   -1.7200   20.6870  -27.1390 C   0  0  0  0  0  0  0  0  0  0  0  0
   -1.8550   20.4400  -28.6500 C   0  0  0  0  0  0  0  0  0  0  0  0
   -1.9210   21.7450  -29.4570 C   0  0  0  0  0  0  0  0  0  0  0  0
   -3.3060   22.2260  -29.5740 N   0  0  0  0  0  0  0  0  0  0  0  0
   -4.0480   22.6040  -28.3660 C   0  0  0  0  0  0  0  0  0  0  0  0
   -3.9140   22.4120  -30.8690 C   0  0  0  0  0  0  0  0  0  0  0  0
   -3.2130   22.3410  -31.9140 O   0  0  0  0  0  0  0  0  0  0  0  0
   -5.3170   22.6870  -30.9890 N   0  0  0  0  0  0  0  0  0  0  0  0
   -5.9400   23.8930  -30.8780 C   0  0  0  0  0  0  0  0  0  0  0  0
   -5.3010   25.1580  -30.4560 C   0  0  0  0  0  0  0  0  0  0  0  0
   -3.8910   25.3350  -30.5490 N   0  0  0  0  0  0  0  0  0  0  0  0
   -6.0090   26.0870  -29.9830 O   0  0  0  0  0  0  0  0  0  0  0  0
   -7.2940   23.7720  -31.1850 C   0  0  0  0  0  0  0  0  0  0  0  0
   -7.4800   22.4430  -31.4970 C   0  0  0  0  0  0  0  0  0  0  0  0
   -8.6260   21.7700  -31.9070 C   0  0  0  0  0  0  0  0  0  0  0  0
   -8.5170   20.3990  -32.1950 C   0  0  0  0  0  0  0  0  0  0  0  0
   -7.2760   19.7240  -32.0580 C   0  0  0  0  0  0  0  0  0  0  0  0
   -7.1530   18.2630  -32.4120 C   0  0  0  0  0  0  0  0  0  0  0  0
   -6.6740   18.1190  -33.7020 F   0  0  0  0  0  0  0  0  0  0  0  0
   -8.3960   17.6670  -32.3210 F   0  0  0  0  0  0  0  0  0  0  0  0
   -6.2800   17.6190  -31.5520 F   0  0  0  0  0  0  0  0  0  0  0  0
   -6.1290   20.4510  -31.6650 C   0  0  0  0  0  0  0  0  0  0  0  0
   -6.2710   21.8110  -31.3730 C   0  0  0  0  0  0  0  0  0  0  0  0
   -3.3920   18.8031  -25.2113 H   0  0  0  0  0  0  0  0  0  0  0  0
   -3.8223   19.6017  -26.7617 H   0  0  0  0  0  0  0  0  0  0  0  0
   -3.2014   17.9162  -26.7617 H   0  0  0  0  0  0  0  0  0  0  0  0
   -0.4071   17.7800  -26.3352 H   0  0  0  0  0  0  0  0  0  0  0  0
   -1.5611   17.7676  -27.7117 H   0  0  0  0  0  0  0  0  0  0  0  0
   -0.1754   18.9106  -27.7117 H   0  0  0  0  0  0  0  0  0  0  0  0
   -2.5530   21.3209  -26.8008 H   0  0  0  0  0  0  0  0  0  0  0  0
   -0.7587   21.1858  -26.9464 H   0  0  0  0  0  0  0  0  0  0  0  0
   -0.9860   19.8582  -28.9911 H   0  0  0  0  0  0  0  0  0  0  0  0
   -2.7969   19.8968  -28.8164 H   0  0  0  0  0  0  0  0  0  0  0  0
   -1.3161   22.5115  -28.9505 H   0  0  0  0  0  0  0  0  0  0  0  0
   -1.5321   21.5508  -30.4675 H   0  0  0  0  0  0  0  0  0  0  0  0
   -3.4726   22.3109  -27.4755 H   0  0  0  0  0  0  0  0  0  0  0  0
   -4.2062   23.6925  -28.3584 H   0  0  0  0  0  0  0  0  0  0  0  0
   -5.0215   22.0920  -28.3584 H   0  0  0  0  0  0  0  0  0  0  0  0
   -3.4800   26.0360  -31.2040 H   0  0  0  0  0  0  0  0  0  0  0  0
   -8.0529   24.5683  -31.1794 H   0  0  0  0  0  0  0  0  0  0  0  0
   -9.5880   22.2948  -32.0029 H   0  0  0  0  0  0  0  0  0  0  0  0
   -9.4042   19.8421  -32.5307 H   0  0  0  0  0  0  0  0  0  0  0  0
   -5.1482   19.9585  -31.5907 H   0  0  0  0  0  0  0  0  0  0  0  0
  1  2  1  0
  2  3  1  0
  2  4  1  0
  4  5  1  0
  5  6  1  0
  6  7  1  0
  7  8  1  0
  7  9  1  0
  9 10  2  0
  9 11  1  0
 11 12  1  0
 12 13  1  0
 13 14  1  0
 13 15  2  0
 12 16  2  0
 16 17  1  0
 17 18  2  0
 18 19  1  0
 19 20  2  0
 20 21  1  0
 21 22  1  0
 21 23  1  0
 21 24  1  0
 20 25  1  0
 25 26  2  0
 26 11  1  0
 26 17  1  0
  1 27  1  0
  1 28  1  0
  1 29  1  0
  3 30  1  0
  3 31  1  0
  3 32  1  0
  4 33  1  0
  4 34  1  0
  5 35  1  0
  5 36  1  0
  6 37  1  0
  6 38  1  0
  8 39  1  0
  8 40  1  0
  8 41  1  0
 14 42  1  0
 16 43  1  0
 18 44  1  0
 19 45  1  0
 25 46  1  0
M  CHG  1  14  -1
M  END
>  <UniqueID>  (86) 
86

>  <SMILES>  (86) 
CN(C)CCCN(C)C(=O)n1c(C([NH-])=O)cc2ccc(C(F)(F)F)cc21

>  <Energy>  (86) 
79.60991734974404

>  <Genealogy>  (86) 
CN(C)CCCN(C)C(=O)n1c(C([NH-])=O)cc2ccc(C(F)(F)F)cc21 (protonated)
CN(C)CCCN(C)C(=O)n1c(C([NH-])=O)cc2ccc(C(F)(F)F)cc21 (3D coordinates assigned)
CN(C)CCCN(C)C(=O)n1c(C([NH-])=O)cc2ccc(C(F)(F)F)cc21 (optimized conformer: 79.60991734974404 kcal/mol)

>  <smiles>  (86) 
CN(C)CCCN(C)C(=O)n1c(C(N)=O)cc2ccc(C(F)(F)F)cc21

>  <score_type>  (86) 
oracle

>  <origin>  (86) 
adg

>  <m_score__min__energy>  (86) 
-10.220000000000001

>  <m_primary>  (86) 
energy

$$$$
88:0
     RDKit          3D

 40 41  0  0  0  0  0  0  0  0999 V2000
   -6.5400   17.4810  -32.0100 C   0  0  0  0  0  0  0  0  0  0  0  0
   -7.0890   18.4050  -33.0910 C   0  0  0  0  0  0  0  0  0  0  0  0
   -7.2020   19.8140  -32.5780 C   0  0  0  0  0  0  0  0  0  0  0  0
   -8.4770   20.3930  -32.3600 C   0  0  0  0  0  0  0  0  0  0  0  0
   -8.5930   21.7030  -31.8630 C   0  0  0  0  0  0  0  0  0  0  0  0
   -7.4210   22.3980  -31.5770 C   0  0  0  0  0  0  0  0  0  0  0  0
   -7.2420   23.6790  -31.1060 C   0  0  0  0  0  0  0  0  0  0  0  0
   -5.8620   23.8500  -31.0120 C   0  0  0  0  0  0  0  0  0  0  0  0
   -5.2210   25.0730  -30.4850 C   0  0  0  0  0  0  0  0  0  0  0  0
   -3.8810   25.3880  -30.8580 N   0  0  0  0  0  0  0  0  0  0  0  0
   -5.8510   25.8580  -29.7290 O   0  0  0  0  0  0  0  0  0  0  0  0
   -5.2150   22.7190  -31.4090 N   0  0  0  0  0  0  0  0  0  0  0  0
   -3.7980   22.5000  -31.5000 C   0  0  0  0  0  0  0  0  0  0  0  0
   -3.3240   21.8740  -32.4880 O   0  0  0  0  0  0  0  0  0  0  0  0
   -2.9290   22.9820  -30.4690 N   0  0  0  0  0  0  0  0  0  0  0  0
   -1.4980   22.6830  -30.4730 C   0  0  0  0  0  0  0  0  0  0  0  0
   -0.9790   22.4830  -29.0440 C   0  0  0  0  0  0  0  0  0  0  0  0
   -0.5700   23.8050  -28.3820 C   0  0  0  0  0  0  0  0  0  0  0  0
   -1.5890   24.8790  -28.6140 C   0  0  0  0  0  0  0  0  0  0  0  0
   -2.7500   24.7650  -28.1400 O   0  0  0  0  0  0  0  0  0  0  0  0
   -1.2450   26.0210  -29.3260 O   0  0  0  0  0  0  0  0  0  0  0  0
   -6.1810   21.8410  -31.7530 C   0  0  0  0  0  0  0  0  0  0  0  0
   -6.0350   20.5470  -32.2670 C   0  0  0  0  0  0  0  0  0  0  0  0
   -6.7836   17.8910  -31.0188 H   0  0  0  0  0  0  0  0  0  0  0  0
   -6.9923   16.4838  -32.1156 H   0  0  0  0  0  0  0  0  0  0  0  0
   -5.4480   17.4014  -32.1156 H   0  0  0  0  0  0  0  0  0  0  0  0
   -6.4117   18.3894  -33.9576 H   0  0  0  0  0  0  0  0  0  0  0  0
   -8.0896   18.0532  -33.3825 H   0  0  0  0  0  0  0  0  0  0  0  0
   -9.3844   19.8120  -32.5817 H   0  0  0  0  0  0  0  0  0  0  0  0
   -9.5790   22.1645  -31.7050 H   0  0  0  0  0  0  0  0  0  0  0  0
   -8.0229   24.4125  -30.8566 H   0  0  0  0  0  0  0  0  0  0  0  0
   -3.0980   25.2960  -30.1720 H   0  0  0  0  0  0  0  0  0  0  0  0
   -3.3380   23.5700  -29.7070 H   0  0  0  0  0  0  0  0  0  0  0  0
   -1.3233   21.7641  -31.0519 H   0  0  0  0  0  0  0  0  0  0  0  0
   -0.9624   23.5297  -30.9272 H   0  0  0  0  0  0  0  0  0  0  0  0
   -1.7725   22.0165  -28.4417 H   0  0  0  0  0  0  0  0  0  0  0  0
   -0.0858   21.8432  -29.0972 H   0  0  0  0  0  0  0  0  0  0  0  0
   -0.4625   23.6433  -27.2993 H   0  0  0  0  0  0  0  0  0  0  0  0
    0.3809   24.1322  -28.8278 H   0  0  0  0  0  0  0  0  0  0  0  0
   -5.0370   20.1121  -32.4247 H   0  0  0  0  0  0  0  0  0  0  0  0
  1  2  1  0
  2  3  1  0
  3  4  2  0
  4  5  1  0
  5  6  2  0
  6  7  1  0
  7  8  2  0
  8  9  1  0
  9 10  1  0
  9 11  2  0
  8 12  1  0
 12 13  1  0
 13 14  2  0
 13 15  1  0
 15 16  1  0
 16 17  1  0
 17 18  1  0
 18 19  1  0
 19 20  2  0
 19 21  1  0
 12 22  1  0
 22 23  2  0
 23  3  1  0
 22  6  1  0
  1 24  1  0
  1 25  1  0
  1 26  1  0
  2 27  1  0
  2 28  1  0
  4 29  1  0
  5 30  1  0
  7 31  1  0
 10 32  1  0
 15 33  1  0
 16 34  1  0
 16 35  1  0
 17 36  1  0
 17 37  1  0
 18 38  1  0
 18 39  1  0
 23 40  1  0
M  CHG  2  10  -1  21  -1
M  END
>  <UniqueID>  (87) 
87

>  <SMILES>  (87) 
CCc1ccc2cc(C([NH-])=O)n(C(=O)NCCCC(=O)[O-])c2c1

>  <Energy>  (87) 
68.49787409271082

>  <Genealogy>  (87) 
CCc1ccc2cc(C([NH-])=O)n(C(=O)NCCCC(=O)[O-])c2c1 (protonated)
CCc1ccc2cc(C([NH-])=O)n(C(=O)NCCCC(=O)[O-])c2c1 (3D coordinates assigned)
CCc1ccc2cc(C([NH-])=O)n(C(=O)NCCCC(=O)[O-])c2c1 (optimized conformer: 68.49787409271082 kcal/mol)

>  <smiles>  (87) 
CCc1ccc2cc(C(N)=O)n(C(=O)NCCCC(=O)O)c2c1

>  <score_type>  (87) 
oracle

>  <origin>  (87) 
adg

>  <m_score__min__energy>  (87) 
-12.68

>  <m_primary>  (87) 
energy

$$$$
89:0
     RDKit          3D

 44 45  0  0  0  0  0  0  0  0999 V2000
   -3.3380   19.3460  -33.8360 C   0  0  0  0  0  0  0  0  0  0  0  0
   -3.1580   17.8390  -33.9290 C   0  0  0  0  0  0  0  0  0  0  0  0
   -4.3750   17.2430  -34.3650 O   0  0  0  0  0  0  0  0  0  0  0  0
   -5.6040   17.9080  -34.3070 C   0  0  0  0  0  0  0  0  0  0  0  0
   -6.0340   18.5470  -35.3070 O   0  0  0  0  0  0  0  0  0  0  0  0
   -6.4160   17.8830  -33.0480 C   0  0  0  0  0  0  0  0  0  0  0  0
   -7.5300   18.8300  -33.1130 N   0  0  0  0  0  0  0  0  0  0  0  0
   -7.5130   20.1500  -32.5330 C   0  0  0  0  0  0  0  0  0  0  0  0
   -8.7430   20.7780  -32.2190 C   0  0  0  0  0  0  0  0  0  0  0  0
   -8.7760   22.0650  -31.6590 C   0  0  0  0  0  0  0  0  0  0  0  0
   -7.5630   22.7070  -31.4330 C   0  0  0  0  0  0  0  0  0  0  0  0
   -7.3050   23.9410  -30.8820 C   0  0  0  0  0  0  0  0  0  0  0  0
   -5.9180   24.0650  -30.8870 C   0  0  0  0  0  0  0  0  0  0  0  0
   -5.2090   25.2880  -30.4540 C   0  0  0  0  0  0  0  0  0  0  0  0
   -3.8630   25.5350  -30.8530 N   0  0  0  0  0  0  0  0  0  0  0  0
   -5.8160   26.1490  -29.7650 O   0  0  0  0  0  0  0  0  0  0  0  0
   -5.3400   22.9480  -31.4140 N   0  0  0  0  0  0  0  0  0  0  0  0
   -3.9380   22.6460  -31.5010 C   0  0  0  0  0  0  0  0  0  0  0  0
   -3.5120   21.8830  -32.4100 O   0  0  0  0  0  0  0  0  0  0  0  0
   -3.0560   23.1820  -30.5580 O   0  0  0  0  0  0  0  0  0  0  0  0
   -3.1570   22.9110  -29.1630 C   0  0  0  0  0  0  0  0  0  0  0  0
   -2.9090   24.0840  -28.4270 O   0  0  0  0  0  0  0  0  0  0  0  0
   -1.2890   24.5610  -28.6680 P   0  0  2  0  0  0  0  0  0  0  0  0
   -0.5790   24.5700  -27.3340 O   0  0  0  0  0  0  0  0  0  0  0  0
   -1.2390   26.1220  -29.3230 O   0  0  0  0  0  0  0  0  0  0  0  0
   -0.4950   23.4810  -29.7030 O   0  0  0  0  0  0  0  0  0  0  0  0
   -6.3610   22.1270  -31.7430 C   0  0  0  0  0  0  0  0  0  0  0  0
   -6.2980   20.8350  -32.2790 C   0  0  0  0  0  0  0  0  0  0  0  0
   -3.3739   19.6464  -32.7784 H   0  0  0  0  0  0  0  0  0  0  0  0
   -2.4934   19.8474  -34.3311 H   0  0  0  0  0  0  0  0  0  0  0  0
   -4.2770   19.6344  -34.3311 H   0  0  0  0  0  0  0  0  0  0  0  0
   -2.3583   17.6087  -34.6484 H   0  0  0  0  0  0  0  0  0  0  0  0
   -2.8872   17.4398  -32.9404 H   0  0  0  0  0  0  0  0  0  0  0  0
   -6.8162   16.8691  -32.9001 H   0  0  0  0  0  0  0  0  0  0  0  0
   -5.7646   18.1713  -32.2098 H   0  0  0  0  0  0  0  0  0  0  0  0
   -8.3910   18.5180  -33.6150 H   0  0  0  0  0  0  0  0  0  0  0  0
   -9.6870   20.2492  -32.4169 H   0  0  0  0  0  0  0  0  0  0  0  0
   -9.7306   22.5501  -31.4070 H   0  0  0  0  0  0  0  0  0  0  0  0
   -8.0386   24.6740  -30.5153 H   0  0  0  0  0  0  0  0  0  0  0  0
   -3.0650   25.3170  -30.2150 H   0  0  0  0  0  0  0  0  0  0  0  0
   -4.1689   22.5448  -28.9351 H   0  0  0  0  0  0  0  0  0  0  0  0
   -2.4141   22.1478  -28.8882 H   0  0  0  0  0  0  0  0  0  0  0  0
   -0.9440   23.5890  -30.5790 H   0  0  0  0  0  0  0  0  0  0  0  0
   -5.3289   20.3627  -32.4978 H   0  0  0  0  0  0  0  0  0  0  0  0
  1  2  1  0
  2  3  1  0
  3  4  1  0
  4  5  2  0
  4  6  1  0
  6  7  1  0
  7  8  1  0
  8  9  2  0
  9 10  1  0
 10 11  2  0
 11 12  1  0
 12 13  2  0
 13 14  1  0
 14 15  1  0
 14 16  2  0
 13 17  1  0
 17 18  1  0
 18 19  2  0
 18 20  1  0
 20 21  1  0
 21 22  1  0
 22 23  1  0
 23 24  2  0
 23 25  1  6
 23 26  1  0
 17 27  1  0
 27 28  2  0
 28  8  1  0
 27 11  1  0
  1 29  1  0
  1 30  1  0
  1 31  1  0
  2 32  1  0
  2 33  1  0
  6 34  1  0
  6 35  1  0
  7 36  1  0
  9 37  1  0
 10 38  1  0
 12 39  1  0
 15 40  1  0
 21 41  1  0
 21 42  1  0
 26 43  1  0
 28 44  1  0
M  CHG  2  15  -1  25  -1
M  END
>  <UniqueID>  (88) 
88

>  <SMILES>  (88) 
CCOC(=O)CNc1ccc2cc(C([NH-])=O)n(C(=O)OCO[P@](=O)([O-])O)c2c1

>  <Energy>  (88) 
72.83725680177953

>  <Genealogy>  (88) 
CCOC(=O)CNc1ccc2cc(C([NH-])=O)n(C(=O)OCOP(=O)([O-])O)c2c1 (protonated)
CCOC(=O)CNc1ccc2cc(C([NH-])=O)n(C(=O)OCO[P@](=O)([O-])O)c2c1 (chirality)
CCOC(=O)CNc1ccc2cc(C([NH-])=O)n(C(=O)OCO[P@](=O)([O-])O)c2c1 (3D coordinates assigned)
CCOC(=O)CNc1ccc2cc(C([NH-])=O)n(C(=O)OCO[P@](=O)([O-])O)c2c1 (optimized conformer: 72.83725680177953 kcal/mol)

>  <smiles>  (88) 
CCOC(=O)CNc1ccc2cc(C(N)=O)n(C(=O)OCOP(=O)(O)O)c2c1

>  <score_type>  (88) 
oracle

>  <origin>  (88) 
adg

>  <m_score__min__energy>  (88) 
-12.300000000000001

>  <m_primary>  (88) 
energy

$$$$
90:0
     RDKit          3D

 42 43  0  0  0  0  0  0  0  0999 V2000
   -1.8870   25.2320  -26.1490 C   0  0  0  0  0  0  0  0  0  0  0  0
   -2.3090   25.1360  -27.6120 C   0  0  2  0  0  0  0  0  0  0  0  0
   -2.7530   23.8180  -27.8660 O   0  0  0  0  0  0  0  0  0  0  0  0
   -3.4210   23.7260  -29.4340 P   0  0  1  0  0  0  0  0  0  0  0  0
   -4.8250   23.1730  -29.3260 O   0  0  0  0  0  0  0  0  0  0  0  0
   -3.4880   25.2820  -30.1010 O   0  0  0  0  0  0  0  0  0  0  0  0
   -2.4690   22.6920  -30.4060 O   0  0  0  0  0  0  0  0  0  0  0  0
   -3.0830   21.4270  -30.4760 C   0  0  0  0  0  0  0  0  0  0  0  0
   -3.4000   21.1030  -31.8270 O   0  0  0  0  0  0  0  0  0  0  0  0
   -4.4520   21.7030  -32.5250 C   0  0  0  0  0  0  0  0  0  0  0  0
   -4.2160   22.5860  -33.3940 O   0  0  0  0  0  0  0  0  0  0  0  0
   -5.8060   21.3080  -32.2450 N   0  0  0  0  0  0  0  0  0  0  0  0
   -6.8360   22.1160  -31.8690 C   0  0  0  0  0  0  0  0  0  0  0  0
   -6.7270   23.5400  -31.4980 C   0  0  0  0  0  0  0  0  0  0  0  0
   -5.4560   24.1840  -31.4020 N   0  0  0  0  0  0  0  0  0  0  0  0
   -7.7710   24.1870  -31.2130 O   0  0  0  0  0  0  0  0  0  0  0  0
   -8.0310   21.4040  -31.8240 C   0  0  0  0  0  0  0  0  0  0  0  0
   -7.6990   20.1170  -32.1800 C   0  0  0  0  0  0  0  0  0  0  0  0
   -8.5060   18.9900  -32.3060 C   0  0  0  0  0  0  0  0  0  0  0  0
   -7.9040   17.7910  -32.7210 C   0  0  0  0  0  0  0  0  0  0  0  0
   -6.5200   17.7450  -33.0330 C   0  0  0  0  0  0  0  0  0  0  0  0
   -5.8770   16.4450  -33.4480 C   0  0  0  0  0  0  0  0  0  0  0  0
   -5.2850   15.8580  -32.3450 F   0  0  0  0  0  0  0  0  0  0  0  0
   -4.9120   16.6650  -34.4150 F   0  0  0  0  0  0  0  0  0  0  0  0
   -6.8210   15.5760  -33.9680 F   0  0  0  0  0  0  0  0  0  0  0  0
   -5.7300   18.9080  -32.8730 C   0  0  0  0  0  0  0  0  0  0  0  0
   -6.3520   20.0830  -32.4330 C   0  0  0  0  0  0  0  0  0  0  0  0
   -1.1320   25.4590  -28.4910 C   0  0  0  0  0  0  0  0  0  0  0  0
   -1.1960   26.4170  -29.3050 O   0  0  0  0  0  0  0  0  0  0  0  0
    0.0460   24.7290  -28.3780 O   0  0  0  0  0  0  0  0  0  0  0  0
   -2.7553   25.0345  -25.5032 H   0  0  0  0  0  0  0  0  0  0  0  0
   -1.1015   24.4896  -25.9445 H   0  0  0  0  0  0  0  0  0  0  0  0
   -1.5000   26.2411  -25.9445 H   0  0  0  0  0  0  0  0  0  0  0  0
   -3.1199   25.8484  -27.8241 H   0  0  0  0  0  0  0  0  0  0  0  0
   -2.3965   20.6680  -30.0727 H   0  0  0  0  0  0  0  0  0  0  0  0
   -4.0116   21.4479  -29.8867 H   0  0  0  0  0  0  0  0  0  0  0  0
   -4.5680   23.6420  -31.4890 H   0  0  0  0  0  0  0  0  0  0  0  0
   -5.4000   25.2020  -31.1740 H   0  0  0  0  0  0  0  0  0  0  0  0
   -9.0275   21.7879  -31.5603 H   0  0  0  0  0  0  0  0  0  0  0  0
   -9.5830   19.0370  -32.0871 H   0  0  0  0  0  0  0  0  0  0  0  0
   -8.5114   16.8778  -32.8052 H   0  0  0  0  0  0  0  0  0  0  0  0
   -4.6516   18.8896  -33.0894 H   0  0  0  0  0  0  0  0  0  0  0  0
  1  2  1  0
  2  3  1  0
  3  4  1  0
  4  5  2  0
  4  6  1  6
  4  7  1  0
  7  8  1  0
  8  9  1  0
  9 10  1  0
 10 11  2  0
 10 12  1  0
 12 13  1  0
 13 14  1  0
 14 15  1  0
 14 16  2  0
 13 17  2  0
 17 18  1  0
 18 19  2  0
 19 20  1  0
 20 21  2  0
 21 22  1  0
 22 23  1  0
 22 24  1  0
 22 25  1  0
 21 26  1  0
 26 27  2  0
  2 28  1  0
 28 29  2  0
 28 30  1  0
 27 12  1  0
 27 18  1  0
  1 31  1  0
  1 32  1  0
  1 33  1  0
  2 34  1  1
  8 35  1  0
  8 36  1  0
 15 37  1  0
 15 38  1  0
 17 39  1  0
 19 40  1  0
 20 41  1  0
 26 42  1  0
M  CHG  2   6  -1  30  -1
M  END
>  <UniqueID>  (89) 
89

>  <SMILES>  (89) 
C[C@H](O[P@@](=O)([O-])OCOC(=O)n1c(C(N)=O)cc2ccc(C(F)(F)F)cc21)C(=O)[O-]

>  <Energy>  (89) 
77.92224380034553

>  <Genealogy>  (89) 
CC(OP(=O)([O-])OCOC(=O)n1c(C(N)=O)cc2ccc(C(F)(F)F)cc21)C(=O)[O-] (protonated)
C[C@H](O[P@@](=O)([O-])OCOC(=O)n1c(C(N)=O)cc2ccc(C(F)(F)F)cc21)C(=O)[O-] (chirality)
C[C@H](O[P@@](=O)([O-])OCOC(=O)n1c(C(N)=O)cc2ccc(C(F)(F)F)cc21)C(=O)[O-] (3D coordinates assigned)
C[C@H](O[P@@](=O)([O-])OCOC(=O)n1c(C(N)=O)cc2ccc(C(F)(F)F)cc21)C(=O)[O-] (optimized conformer: 77.92224380034553 kcal/mol)

>  <smiles>  (89) 
CC(OP(=O)(O)OCOC(=O)n1c(C(N)=O)cc2ccc(C(F)(F)F)cc21)C(=O)O

>  <score_type>  (89) 
oracle

>  <origin>  (89) 
adg

>  <m_score__min__energy>  (89) 
-12.49

>  <m_primary>  (89) 
energy

$$$$
91:0
     RDKit          3D

 34 35  0  0  0  0  0  0  0  0999 V2000
   -4.0510   23.0470  -28.5490 C   0  0  0  0  0  0  0  0  0  0  0  0
   -3.2300   22.9120  -29.7570 N   0  0  0  0  0  0  0  0  0  0  0  0
   -1.7640   22.9370  -29.6590 C   0  0  0  0  0  0  0  0  0  0  0  0
   -1.2920   24.2960  -29.2460 C   0  0  0  0  0  0  0  0  0  0  0  0
   -2.0570   25.2910  -29.3450 O   0  0  0  0  0  0  0  0  0  0  0  0
   -0.0120   24.4600  -28.7320 O   0  0  0  0  0  0  0  0  0  0  0  0
   -3.8810   22.7080  -31.0270 C   0  0  0  0  0  0  0  0  0  0  0  0
   -3.1980   22.4310  -32.0510 O   0  0  0  0  0  0  0  0  0  0  0  0
   -5.3040   22.8370  -31.1550 N   0  0  0  0  0  0  0  0  0  0  0  0
   -6.0650   23.9440  -30.9390 C   0  0  0  0  0  0  0  0  0  0  0  0
   -5.5580   25.2590  -30.4950 C   0  0  0  0  0  0  0  0  0  0  0  0
   -4.2380   25.6680  -30.8430 N   0  0  0  0  0  0  0  0  0  0  0  0
   -6.2830   26.0290  -29.8110 O   0  0  0  0  0  0  0  0  0  0  0  0
   -7.4090   23.6600  -31.1720 C   0  0  0  0  0  0  0  0  0  0  0  0
   -7.4440   22.3300  -31.5330 C   0  0  0  0  0  0  0  0  0  0  0  0
   -8.5200   21.5170  -31.8720 C   0  0  0  0  0  0  0  0  0  0  0  0
   -8.2550   20.1780  -32.2080 C   0  0  0  0  0  0  0  0  0  0  0  0
   -6.9240   19.6810  -32.2180 C   0  0  0  0  0  0  0  0  0  0  0  0
   -6.6560   18.2340  -32.5390 C   0  0  0  0  0  0  0  0  0  0  0  0
   -6.1710   18.1010  -33.8290 F   0  0  0  0  0  0  0  0  0  0  0  0
   -7.8330   17.5170  -32.4250 F   0  0  0  0  0  0  0  0  0  0  0  0
   -5.7190   17.7040  -31.6690 F   0  0  0  0  0  0  0  0  0  0  0  0
   -5.8610   20.5340  -31.8420 C   0  0  0  0  0  0  0  0  0  0  0  0
   -6.1590   21.8580  -31.5100 C   0  0  0  0  0  0  0  0  0  0  0  0
   -3.4134   22.9422  -27.6588 H   0  0  0  0  0  0  0  0  0  0  0  0
   -4.5319   24.0363  -28.5412 H   0  0  0  0  0  0  0  0  0  0  0  0
   -4.8234   22.2638  -28.5412 H   0  0  0  0  0  0  0  0  0  0  0  0
   -1.4379   22.1977  -28.9126 H   0  0  0  0  0  0  0  0  0  0  0  0
   -1.3363   22.6944  -30.6430 H   0  0  0  0  0  0  0  0  0  0  0  0
   -3.4720   25.6710  -30.1330 H   0  0  0  0  0  0  0  0  0  0  0  0
   -8.2611   24.3503  -31.0861 H   0  0  0  0  0  0  0  0  0  0  0  0
   -9.5475   21.9098  -31.8771 H   0  0  0  0  0  0  0  0  0  0  0  0
   -9.0877   19.5072  -32.4662 H   0  0  0  0  0  0  0  0  0  0  0  0
   -4.8254   20.1645  -31.8116 H   0  0  0  0  0  0  0  0  0  0  0  0
  1  2  1  0
  2  3  1  0
  3  4  1  0
  4  5  2  0
  4  6  1  0
  2  7  1  0
  7  8  2  0
  7  9  1  0
  9 10  1  0
 10 11  1  0
 11 12  1  0
 11 13  2  0
 10 14  2  0
 14 15  1  0
 15 16  2  0
 16 17  1  0
 17 18  2  0
 18 19  1  0
 19 20  1  0
 19 21  1  0
 19 22  1  0
 18 23  1  0
 23 24  2  0
 24  9  1  0
 24 15  1  0
  1 25  1  0
  1 26  1  0
  1 27  1  0
  3 28  1  0
  3 29  1  0
 12 30  1  0
 14 31  1  0
 16 32  1  0
 17 33  1  0
 23 34  1  0
M  CHG  2   6  -1  12  -1
M  END
>  <UniqueID>  (90) 
90

>  <SMILES>  (90) 
CN(CC(=O)[O-])C(=O)n1c(C([NH-])=O)cc2ccc(C(F)(F)F)cc21

>  <Energy>  (90) 
70.62496791689321

>  <Genealogy>  (90) 
CN(CC(=O)[O-])C(=O)n1c(C([NH-])=O)cc2ccc(C(F)(F)F)cc21 (protonated)
CN(CC(=O)[O-])C(=O)n1c(C([NH-])=O)cc2ccc(C(F)(F)F)cc21 (3D coordinates assigned)
CN(CC(=O)[O-])C(=O)n1c(C([NH-])=O)cc2ccc(C(F)(F)F)cc21 (optimized conformer: 70.62496791689321 kcal/mol)

>  <smiles>  (90) 
CN(CC(=O)O)C(=O)n1c(C(N)=O)cc2ccc(C(F)(F)F)cc21

>  <score_type>  (90) 
oracle

>  <origin>  (90) 
adg

>  <m_score__min__energy>  (90) 
-11.99

>  <m_primary>  (90) 
energy

$$$$
92:0
     RDKit          3D

 46 47  0  0  0  0  0  0  0  0999 V2000
   -8.1310   18.7330  -32.4170 C   0  0  0  0  0  0  0  0  0  0  0  0
   -7.9430   20.1730  -32.0400 C   0  0  0  0  0  0  0  0  0  0  0  0
   -9.0670   21.0270  -31.9420 C   0  0  0  0  0  0  0  0  0  0  0  0
   -8.9110   22.3790  -31.5960 C   0  0  0  0  0  0  0  0  0  0  0  0
   -7.6200   22.8470  -31.3640 C   0  0  0  0  0  0  0  0  0  0  0  0
   -7.1910   24.0930  -30.9710 C   0  0  0  0  0  0  0  0  0  0  0  0
   -5.8070   23.9880  -30.8610 C   0  0  0  0  0  0  0  0  0  0  0  0
   -4.9270   25.1280  -30.5340 C   0  0  0  0  0  0  0  0  0  0  0  0
   -3.5120   24.9650  -30.4680 N   0  0  0  0  0  0  0  0  0  0  0  0
   -5.4250   26.2730  -30.3640 O   0  0  0  0  0  0  0  0  0  0  0  0
   -5.3950   22.7250  -31.1680 N   0  0  0  0  0  0  0  0  0  0  0  0
   -4.0760   22.1760  -31.0210 C   0  0  0  0  0  0  0  0  0  0  0  0
   -3.8160   21.4120  -30.0530 O   0  0  0  0  0  0  0  0  0  0  0  0
   -3.0760   22.5200  -31.9390 O   0  0  0  0  0  0  0  0  0  0  0  0
   -2.0120   21.6420  -32.3010 C   0  0  0  0  0  0  0  0  0  0  0  0
   -1.0180   21.5720  -31.1840 C   0  0  0  0  0  0  0  0  0  0  0  0
    0.0360   20.8990  -31.3420 O   0  0  0  0  0  0  0  0  0  0  0  0
   -1.2300   22.3170  -29.9760 N   0  0  0  0  0  0  0  0  0  0  0  0
   -0.1590   22.5680  -29.0120 C   0  0  0  0  0  0  0  0  0  0  0  0
   -0.3690   23.9180  -28.3180 C   0  0  0  0  0  0  0  0  0  0  0  0
   -1.6020   24.5020  -28.6980 O   0  0  0  0  0  0  0  0  0  0  0  0
   -2.3060   24.9660  -27.5640 C   0  0  0  0  0  0  0  0  0  0  0  0
   -3.6270   24.2170  -27.4550 C   0  0  0  0  0  0  0  0  0  0  0  0
   -3.5830   23.0580  -28.2390 O   0  0  0  0  0  0  0  0  0  0  0  0
   -6.5180   22.0400  -31.4800 C   0  0  0  0  0  0  0  0  0  0  0  0
   -6.6470   20.6870  -31.8180 C   0  0  0  0  0  0  0  0  0  0  0  0
   -8.2107   18.1227  -31.5053 H   0  0  0  0  0  0  0  0  0  0  0  0
   -9.0507   18.6266  -33.0110 H   0  0  0  0  0  0  0  0  0  0  0  0
   -7.2695   18.3940  -33.0110 H   0  0  0  0  0  0  0  0  0  0  0  0
  -10.0730   20.6279  -32.1388 H   0  0  0  0  0  0  0  0  0  0  0  0
   -9.7807   23.0471  -31.5109 H   0  0  0  0  0  0  0  0  0  0  0  0
   -7.8095   24.9831  -30.7835 H   0  0  0  0  0  0  0  0  0  0  0  0
   -3.0890   24.0390  -30.2380 H   0  0  0  0  0  0  0  0  0  0  0  0
   -2.4160   20.6375  -32.4952 H   0  0  0  0  0  0  0  0  0  0  0  0
   -1.5174   22.0210  -33.2075 H   0  0  0  0  0  0  0  0  0  0  0  0
   -2.1320   22.8280  -29.8490 H   0  0  0  0  0  0  0  0  0  0  0  0
   -0.1571   21.7686  -28.2563 H   0  0  0  0  0  0  0  0  0  0  0  0
    0.8030   22.5872  -29.5451 H   0  0  0  0  0  0  0  0  0  0  0  0
   -0.3644   23.7661  -27.2285 H   0  0  0  0  0  0  0  0  0  0  0  0
    0.4446   24.5947  -28.6183 H   0  0  0  0  0  0  0  0  0  0  0  0
   -1.7058   24.7873  -26.6596 H   0  0  0  0  0  0  0  0  0  0  0  0
   -2.4992   26.0443  -27.6641 H   0  0  0  0  0  0  0  0  0  0  0  0
   -3.8042   23.9408  -26.4051 H   0  0  0  0  0  0  0  0  0  0  0  0
   -4.4414   24.8649  -27.8113 H   0  0  0  0  0  0  0  0  0  0  0  0
   -3.3770   23.3560  -29.1630 H   0  0  0  0  0  0  0  0  0  0  0  0
   -5.7611   20.0413  -31.9082 H   0  0  0  0  0  0  0  0  0  0  0  0
  1  2  1  0
  2  3  2  0
  3  4  1  0
  4  5  2  0
  5  6  1  0
  6  7  2  0
  7  8  1  0
  8  9  1  0
  8 10  2  0
  7 11  1  0
 11 12  1  0
 12 13  2  0
 12 14  1  0
 14 15  1  0
 15 16  1  0
 16 17  2  0
 16 18  1  0
 18 19  1  0
 19 20  1  0
 20 21  1  0
 21 22  1  0
 22 23  1  0
 23 24  1  0
 11 25  1  0
 25 26  2  0
 26  2  1  0
 25  5  1  0
  1 27  1  0
  1 28  1  0
  1 29  1  0
  3 30  1  0
  4 31  1  0
  6 32  1  0
  9 33  1  0
 15 34  1  0
 15 35  1  0
 18 36  1  0
 19 37  1  0
 19 38  1  0
 20 39  1  0
 20 40  1  0
 22 41  1  0
 22 42  1  0
 23 43  1  0
 23 44  1  0
 24 45  1  0
 26 46  1  0
M  CHG  1   9  -1
M  END
>  <UniqueID>  (91) 
91

>  <SMILES>  (91) 
Cc1ccc2cc(C([NH-])=O)n(C(=O)OCC(=O)NCCOCCO)c2c1

>  <Energy>  (91) 
72.75792485836507

>  <Genealogy>  (91) 
Cc1ccc2cc(C([NH-])=O)n(C(=O)OCC(=O)NCCOCCO)c2c1 (protonated)
Cc1ccc2cc(C([NH-])=O)n(C(=O)OCC(=O)NCCOCCO)c2c1 (3D coordinates assigned)
Cc1ccc2cc(C([NH-])=O)n(C(=O)OCC(=O)NCCOCCO)c2c1 (optimized conformer: 72.75792485836507 kcal/mol)

>  <smiles>  (91) 
Cc1ccc2cc(C(N)=O)n(C(=O)OCC(=O)NCCOCCO)c2c1

>  <score_type>  (91) 
oracle

>  <origin>  (91) 
adg

>  <m_score__min__energy>  (91) 
-9.2100000000000009

>  <m_primary>  (91) 
energy

$$$$
93:0
     RDKit          3D

 35 36  0  0  0  0  0  0  0  0999 V2000
   -3.8690   25.2820  -30.8100 N   0  0  0  0  0  0  0  0  0  0  0  0
   -4.8790   24.6510  -30.0280 C   0  0  0  0  0  0  0  0  0  0  0  0
   -4.8990   24.8340  -28.7810 O   0  0  0  0  0  0  0  0  0  0  0  0
   -5.8680   23.7440  -30.6500 C   0  0  0  0  0  0  0  0  0  0  0  0
   -7.2280   24.0370  -30.7420 C   0  0  0  0  0  0  0  0  0  0  0  0
   -7.8080   22.9120  -31.2820 C   0  0  0  0  0  0  0  0  0  0  0  0
   -9.1390   22.6530  -31.5970 C   0  0  0  0  0  0  0  0  0  0  0  0
   -9.4500   21.4080  -32.1700 C   0  0  0  0  0  0  0  0  0  0  0  0
   -8.4320   20.4560  -32.4180 C   0  0  0  0  0  0  0  0  0  0  0  0
   -8.7590   19.1970  -33.0110 N   0  0  0  0  0  0  0  0  0  0  0  0
   -7.0930   20.7510  -32.0860 C   0  0  0  0  0  0  0  0  0  0  0  0
   -6.8140   21.9930  -31.5030 C   0  0  0  0  0  0  0  0  0  0  0  0
   -5.6170   22.4910  -31.1250 N   0  0  0  0  0  0  0  0  0  0  0  0
   -4.3470   21.8420  -31.2700 C   0  0  0  0  0  0  0  0  0  0  0  0
   -3.7930   21.7890  -32.4020 O   0  0  0  0  0  0  0  0  0  0  0  0
   -3.7330   21.2620  -30.1530 O   0  0  0  0  0  0  0  0  0  0  0  0
   -2.3510   20.9110  -30.1170 C   0  0  0  0  0  0  0  0  0  0  0  0
   -1.4970   22.0980  -30.4320 C   0  0  0  0  0  0  0  0  0  0  0  0
   -0.3940   21.9350  -31.0200 O   0  0  0  0  0  0  0  0  0  0  0  0
   -1.9160   23.3730  -30.0390 O   0  0  0  0  0  0  0  0  0  0  0  0
   -1.7760   23.8500  -28.7060 C   0  0  0  0  0  0  0  0  0  0  0  0
   -0.8830   25.0450  -28.7030 C   0  0  0  0  0  0  0  0  0  0  0  0
   -1.2230   26.0910  -29.3170 O   0  0  0  0  0  0  0  0  0  0  0  0
    0.3510   24.9900  -28.0700 O   0  0  0  0  0  0  0  0  0  0  0  0
   -2.8750   25.2990  -30.4920 H   0  0  0  0  0  0  0  0  0  0  0  0
   -7.7307   24.9695  -30.4458 H   0  0  0  0  0  0  0  0  0  0  0  0
   -9.9231   23.3998  -31.4034 H   0  0  0  0  0  0  0  0  0  0  0  0
  -10.4928   21.1713  -32.4279 H   0  0  0  0  0  0  0  0  0  0  0  0
   -9.3980   19.1440  -33.8360 H   0  0  0  0  0  0  0  0  0  0  0  0
   -8.3640   18.3080  -32.6320 H   0  0  0  0  0  0  0  0  0  0  0  0
   -6.2898   20.0248  -32.2799 H   0  0  0  0  0  0  0  0  0  0  0  0
   -2.0984   20.5404  -29.1126 H   0  0  0  0  0  0  0  0  0  0  0  0
   -2.1641   20.1305  -30.8692 H   0  0  0  0  0  0  0  0  0  0  0  0
   -2.7636   24.1279  -28.3092 H   0  0  0  0  0  0  0  0  0  0  0  0
   -1.3395   23.0613  -28.0756 H   0  0  0  0  0  0  0  0  0  0  0  0
  1  2  1  0
  2  3  2  0
  2  4  1  0
  4  5  2  0
  5  6  1  0
  6  7  2  0
  7  8  1  0
  8  9  2  0
  9 10  1  0
  9 11  1  0
 11 12  2  0
 12 13  1  0
 13 14  1  0
 14 15  2  0
 14 16  1  0
 16 17  1  0
 17 18  1  0
 18 19  2  0
 18 20  1  0
 20 21  1  0
 21 22  1  0
 22 23  2  0
 22 24  1  0
 13  4  1  0
 12  6  1  0
  1 25  1  0
  5 26  1  0
  7 27  1  0
  8 28  1  0
 10 29  1  0
 10 30  1  0
 11 31  1  0
 17 32  1  0
 17 33  1  0
 21 34  1  0
 21 35  1  0
M  CHG  2   1  -1  24  -1
M  END
>  <UniqueID>  (92) 
92

>  <SMILES>  (92) 
[NH-]C(=O)c1cc2ccc(N)cc2n1C(=O)OCC(=O)OCC(=O)[O-]

>  <Energy>  (92) 
67.39330146963617

>  <Genealogy>  (92) 
[NH-]C(=O)c1cc2ccc(N)cc2n1C(=O)OCC(=O)OCC(=O)[O-] (protonated)
[NH-]C(=O)c1cc2ccc(N)cc2n1C(=O)OCC(=O)OCC(=O)[O-] (3D coordinates assigned)
[NH-]C(=O)c1cc2ccc(N)cc2n1C(=O)OCC(=O)OCC(=O)[O-] (optimized conformer: 67.39330146963617 kcal/mol)

>  <smiles>  (92) 
NC(=O)c1cc2ccc(N)cc2n1C(=O)OCC(=O)OCC(=O)O

>  <score_type>  (92) 
oracle

>  <origin>  (92) 
adg

>  <m_score__min__energy>  (92) 
-11.140000000000001

>  <m_primary>  (92) 
energy

$$$$
94:0
     RDKit          3D

 41 43  0  0  0  0  0  0  0  0999 V2000
   -5.1600   24.8490  -28.9900 N   0  0  0  0  0  0  0  0  0  0  0  0
   -5.2590   24.5750  -30.3890 C   0  0  0  0  0  0  0  0  0  0  0  0
   -4.6280   25.3040  -31.2010 O   0  0  0  0  0  0  0  0  0  0  0  0
   -6.0570   23.4310  -30.8820 C   0  0  0  0  0  0  0  0  0  0  0  0
   -7.4480   23.4280  -30.9570 C   0  0  0  0  0  0  0  0  0  0  0  0
   -7.7900   22.1590  -31.3640 C   0  0  0  0  0  0  0  0  0  0  0  0
   -9.0420   21.6080  -31.6180 C   0  0  0  0  0  0  0  0  0  0  0  0
   -9.0980   20.2750  -32.0610 C   0  0  0  0  0  0  0  0  0  0  0  0
   -7.9110   19.5230  -32.2330 C   0  0  0  0  0  0  0  0  0  0  0  0
   -7.9770   18.1160  -32.7580 C   0  0  0  0  0  0  0  0  0  0  0  0
   -6.6530   17.6860  -33.1920 N   0  0  0  0  0  0  0  0  0  0  0  0
   -6.0720   17.9830  -34.3690 C   0  0  0  0  0  0  0  0  0  0  0  0
   -4.8010   17.4490  -34.3690 C   0  0  0  0  0  0  0  0  0  0  0  0
   -4.6740   16.8420  -33.1340 C   0  0  0  0  0  0  0  0  0  0  0  0
   -5.8120   17.0050  -32.4310 N   0  0  0  0  0  0  0  0  0  0  0  0
   -6.6560   20.1190  -31.9780 C   0  0  0  0  0  0  0  0  0  0  0  0
   -6.6320   21.4430  -31.5220 C   0  0  0  0  0  0  0  0  0  0  0  0
   -5.5580   22.2110  -31.2320 N   0  0  0  0  0  0  0  0  0  0  0  0
   -4.1790   21.8230  -31.3370 C   0  0  0  0  0  0  0  0  0  0  0  0
   -3.8780   20.6130  -31.5270 O   0  0  0  0  0  0  0  0  0  0  0  0
   -3.1740   22.7880  -31.2080 O   0  0  0  0  0  0  0  0  0  0  0  0
   -1.8990   22.5260  -30.6250 C   0  0  0  0  0  0  0  0  0  0  0  0
   -1.8490   22.9980  -29.1700 C   0  0  0  0  0  0  0  0  0  0  0  0
   -1.5780   24.4680  -29.0900 C   0  0  0  0  0  0  0  0  0  0  0  0
   -2.4920   25.2950  -29.3450 O   0  0  0  0  0  0  0  0  0  0  0  0
   -0.3270   24.9240  -28.6930 O   0  0  0  0  0  0  0  0  0  0  0  0
   -4.5640   25.6350  -28.6510 H   0  0  0  0  0  0  0  0  0  0  0  0
   -5.7170   24.3080  -28.2910 H   0  0  0  0  0  0  0  0  0  0  0  0
   -8.1289   24.2635  -30.7373 H   0  0  0  0  0  0  0  0  0  0  0  0
   -9.9600   22.1973  -31.4765 H   0  0  0  0  0  0  0  0  0  0  0  0
  -10.0726   19.8123  -32.2758 H   0  0  0  0  0  0  0  0  0  0  0  0
   -8.3355   17.4462  -31.9625 H   0  0  0  0  0  0  0  0  0  0  0  0
   -8.6679   18.0804  -33.6132 H   0  0  0  0  0  0  0  0  0  0  0  0
   -6.5319   18.5534  -35.1895 H   0  0  0  0  0  0  0  0  0  0  0  0
   -4.0531   17.4958  -35.1743 H   0  0  0  0  0  0  0  0  0  0  0  0
   -3.7805   16.3075  -32.7791 H   0  0  0  0  0  0  0  0  0  0  0  0
   -5.7225   19.5582  -32.1334 H   0  0  0  0  0  0  0  0  0  0  0  0
   -1.7047   21.4438  -30.6582 H   0  0  0  0  0  0  0  0  0  0  0  0
   -1.1353   23.0745  -31.1959 H   0  0  0  0  0  0  0  0  0  0  0  0
   -2.8150   22.7840  -28.6894 H   0  0  0  0  0  0  0  0  0  0  0  0
   -1.0356   22.4641  -28.6570 H   0  0  0  0  0  0  0  0  0  0  0  0
  1  2  1  0
  2  3  2  0
  2  4  1  0
  4  5  2  0
  5  6  1  0
  6  7  2  0
  7  8  1  0
  8  9  2  0
  9 10  1  0
 10 11  1  0
 11 12  1  0
 12 13  2  0
 13 14  1  0
 14 15  2  0
  9 16  1  0
 16 17  2  0
 17 18  1  0
 18 19  1  0
 19 20  2  0
 19 21  1  0
 21 22  1  0
 22 23  1  0
 23 24  1  0
 24 25  2  0
 24 26  1  0
 18  4  1  0
 17  6  1  0
 15 11  1  0
  1 27  1  0
  1 28  1  0
  5 29  1  0
  7 30  1  0
  8 31  1  0
 10 32  1  0
 10 33  1  0
 12 34  1  0
 13 35  1  0
 14 36  1  0
 16 37  1  0
 22 38  1  0
 22 39  1  0
 23 40  1  0
 23 41  1  0
M  CHG  1  26  -1
M  END
>  <UniqueID>  (93) 
93

>  <SMILES>  (93) 
NC(=O)c1cc2ccc(Cn3cccn3)cc2n1C(=O)OCCC(=O)[O-]

>  <Energy>  (93) 
104.68615911176789

>  <Genealogy>  (93) 
NC(=O)c1cc2ccc(Cn3cccn3)cc2n1C(=O)OCCC(=O)[O-] (protonated)
NC(=O)c1cc2ccc(Cn3cccn3)cc2n1C(=O)OCCC(=O)[O-] (3D coordinates assigned)
NC(=O)c1cc2ccc(Cn3cccn3)cc2n1C(=O)OCCC(=O)[O-] (optimized conformer: 104.68615911176789 kcal/mol)

>  <smiles>  (93) 
NC(=O)c1cc2ccc(Cn3cccn3)cc2n1C(=O)OCCC(=O)O

>  <score_type>  (93) 
oracle

>  <origin>  (93) 
adg

>  <m_score__min__energy>  (93) 
-11.66

>  <m_primary>  (93) 
energy

$$$$
95:0
     RDKit          3D

 39 40  0  0  0  0  0  0  0  0999 V2000
   -3.6580   22.6520  -28.6030 C   0  0  0  0  0  0  0  0  0  0  0  0
   -2.8970   22.7600  -29.8510 N   0  0  0  0  0  0  0  0  0  0  0  0
   -1.4370   22.9290  -29.8130 C   0  0  0  0  0  0  0  0  0  0  0  0
   -1.0820   24.2490  -29.2040 C   0  0  0  0  0  0  0  0  0  0  0  0
    0.0180   24.3940  -28.6090 O   0  0  0  0  0  0  0  0  0  0  0  0
   -1.9600   25.3210  -29.2990 O   0  0  0  0  0  0  0  0  0  0  0  0
   -3.5960   22.6450  -31.1080 C   0  0  0  0  0  0  0  0  0  0  0  0
   -2.9490   22.4560  -32.1740 O   0  0  0  0  0  0  0  0  0  0  0  0
   -5.0270   22.7330  -31.1670 N   0  0  0  0  0  0  0  0  0  0  0  0
   -5.8070   23.8240  -30.9330 C   0  0  0  0  0  0  0  0  0  0  0  0
   -5.3340   25.1350  -30.4420 C   0  0  0  0  0  0  0  0  0  0  0  0
   -4.0760   25.6640  -30.8540 N   0  0  0  0  0  0  0  0  0  0  0  0
   -6.0390   25.7880  -29.6280 O   0  0  0  0  0  0  0  0  0  0  0  0
   -7.1450   23.5250  -31.1900 C   0  0  0  0  0  0  0  0  0  0  0  0
   -7.1540   22.2090  -31.5970 C   0  0  0  0  0  0  0  0  0  0  0  0
   -8.2120   21.4000  -31.9930 C   0  0  0  0  0  0  0  0  0  0  0  0
   -7.9230   20.0830  -32.3870 C   0  0  0  0  0  0  0  0  0  0  0  0
   -6.5850   19.5910  -32.3900 C   0  0  0  0  0  0  0  0  0  0  0  0
   -6.2970   18.2250  -32.7890 N   0  0  0  0  0  0  0  0  0  0  0  0
   -6.1700   17.1650  -31.7810 C   0  0  0  0  0  0  0  0  0  0  0  0
   -6.1310   17.8810  -34.2060 C   0  0  0  0  0  0  0  0  0  0  0  0
   -5.5400   20.4600  -31.9850 C   0  0  0  0  0  0  0  0  0  0  0  0
   -5.8640   21.7580  -31.5810 C   0  0  0  0  0  0  0  0  0  0  0  0
   -2.9741   22.7491  -27.7469 H   0  0  0  0  0  0  0  0  0  0  0  0
   -4.4117   23.4522  -28.5627 H   0  0  0  0  0  0  0  0  0  0  0  0
   -4.1593   21.6737  -28.5627 H   0  0  0  0  0  0  0  0  0  0  0  0
   -0.9939   22.1213  -29.2120 H   0  0  0  0  0  0  0  0  0  0  0  0
   -1.0460   22.8926  -30.8405 H   0  0  0  0  0  0  0  0  0  0  0  0
   -3.1830   25.2830  -30.4720 H   0  0  0  0  0  0  0  0  0  0  0  0
   -8.0096   24.1975  -31.0891 H   0  0  0  0  0  0  0  0  0  0  0  0
   -9.2445   21.7793  -31.9978 H   0  0  0  0  0  0  0  0  0  0  0  0
   -8.7434   19.4198  -32.6986 H   0  0  0  0  0  0  0  0  0  0  0  0
   -6.2230   17.6072  -30.7752 H   0  0  0  0  0  0  0  0  0  0  0  0
   -6.9877   16.4400  -31.9063 H   0  0  0  0  0  0  0  0  0  0  0  0
   -5.2042   16.6537  -31.9063 H   0  0  0  0  0  0  0  0  0  0  0  0
   -5.6543   16.8932  -34.2901 H   0  0  0  0  0  0  0  0  0  0  0  0
   -7.1160   17.8556  -34.6950 H   0  0  0  0  0  0  0  0  0  0  0  0
   -5.4982   18.6363  -34.6950 H   0  0  0  0  0  0  0  0  0  0  0  0
   -4.4943   20.1188  -31.9888 H   0  0  0  0  0  0  0  0  0  0  0  0
  1  2  1  0
  2  3  1  0
  3  4  1  0
  4  5  2  0
  4  6  1  0
  2  7  1  0
  7  8  2  0
  7  9  1  0
  9 10  1  0
 10 11  1  0
 11 12  1  0
 11 13  2  0
 10 14  2  0
 14 15  1  0
 15 16  2  0
 16 17  1  0
 17 18  2  0
 18 19  1  0
 19 20  1  0
 19 21  1  0
 18 22  1  0
 22 23  2  0
 23  9  1  0
 23 15  1  0
  1 24  1  0
  1 25  1  0
  1 26  1  0
  3 27  1  0
  3 28  1  0
 12 29  1  0
 14 30  1  0
 16 31  1  0
 17 32  1  0
 20 33  1  0
 20 34  1  0
 20 35  1  0
 21 36  1  0
 21 37  1  0
 21 38  1  0
 22 39  1  0
M  CHG  2   6  -1  12  -1
M  END
>  <UniqueID>  (94) 
94

>  <SMILES>  (94) 
CN(CC(=O)[O-])C(=O)n1c(C([NH-])=O)cc2ccc(N(C)C)cc21

>  <Energy>  (94) 
76.27939994317174

>  <Genealogy>  (94) 
CN(CC(=O)[O-])C(=O)n1c(C([NH-])=O)cc2ccc(N(C)C)cc21 (protonated)
CN(CC(=O)[O-])C(=O)n1c(C([NH-])=O)cc2ccc(N(C)C)cc21 (3D coordinates assigned)
CN(CC(=O)[O-])C(=O)n1c(C([NH-])=O)cc2ccc(N(C)C)cc21 (optimized conformer: 76.27939994317174 kcal/mol)

>  <smiles>  (94) 
CN(CC(=O)O)C(=O)n1c(C(N)=O)cc2ccc(N(C)C)cc21

>  <score_type>  (94) 
oracle

>  <origin>  (94) 
adg

>  <m_score__min__energy>  (94) 
-12.19

>  <m_primary>  (94) 
energy

$$$$
96:0
     RDKit          3D

 37 38  0  0  0  0  0  0  0  0999 V2000
   -6.1030   18.4190  -33.3350 C   0  0  0  0  0  0  0  0  0  0  0  0
   -6.4030   19.7750  -32.7700 C   0  0  0  0  0  0  0  0  0  0  0  0
   -7.7400   20.2310  -32.6940 C   0  0  0  0  0  0  0  0  0  0  0  0
   -8.0320   21.5090  -32.1870 C   0  0  0  0  0  0  0  0  0  0  0  0
   -6.9670   22.3110  -31.7870 C   0  0  0  0  0  0  0  0  0  0  0  0
   -6.9690   23.5720  -31.2410 C   0  0  0  0  0  0  0  0  0  0  0  0
   -5.6300   23.8850  -31.0290 C   0  0  0  0  0  0  0  0  0  0  0  0
   -5.1770   25.1970  -30.5290 C   0  0  0  0  0  0  0  0  0  0  0  0
   -3.8620   25.6590  -30.8330 N   0  0  0  0  0  0  0  0  0  0  0  0
   -5.9220   25.8970  -29.7990 O   0  0  0  0  0  0  0  0  0  0  0  0
   -4.8250   22.8570  -31.4260 N   0  0  0  0  0  0  0  0  0  0  0  0
   -3.3970   22.7390  -31.2870 C   0  0  0  0  0  0  0  0  0  0  0  0
   -2.7190   22.2100  -32.2090 O   0  0  0  0  0  0  0  0  0  0  0  0
   -2.7540   23.1480  -30.0730 N   0  0  0  0  0  0  0  0  0  0  0  0
   -2.0330   22.2280  -29.1970 C   0  0  0  0  0  0  0  0  0  0  0  0
   -1.8340   22.8050  -27.7850 C   0  0  0  0  0  0  0  0  0  0  0  0
   -1.9850   24.3390  -27.7380 C   0  0  2  0  0  0  0  0  0  0  0  0
   -3.2640   24.7410  -28.1540 O   0  0  0  0  0  0  0  0  0  0  0  0
   -0.9320   25.0030  -28.5830 C   0  0  0  0  0  0  0  0  0  0  0  0
   -1.2290   25.9890  -29.3080 O   0  0  0  0  0  0  0  0  0  0  0  0
    0.3740   24.5300  -28.5730 O   0  0  0  0  0  0  0  0  0  0  0  0
   -5.6630   21.9000  -31.8880 C   0  0  0  0  0  0  0  0  0  0  0  0
   -5.3460   20.6230  -32.3700 C   0  0  0  0  0  0  0  0  0  0  0  0
   -5.9452   17.7058  -32.5125 H   0  0  0  0  0  0  0  0  0  0  0  0
   -6.9488   18.0842  -33.9535 H   0  0  0  0  0  0  0  0  0  0  0  0
   -5.1949   18.4722  -33.9535 H   0  0  0  0  0  0  0  0  0  0  0  0
   -8.5583   19.5796  -33.0347 H   0  0  0  0  0  0  0  0  0  0  0  0
   -9.0701   21.8644  -32.1087 H   0  0  0  0  0  0  0  0  0  0  0  0
   -7.8438   24.2007  -31.0187 H   0  0  0  0  0  0  0  0  0  0  0  0
   -3.0330   25.2950  -30.3160 H   0  0  0  0  0  0  0  0  0  0  0  0
   -2.6047   21.2914  -29.1195 H   0  0  0  0  0  0  0  0  0  0  0  0
   -1.0385   22.0553  -29.6342 H   0  0  0  0  0  0  0  0  0  0  0  0
   -2.5823   22.3577  -27.1142 H   0  0  0  0  0  0  0  0  0  0  0  0
   -0.8076   22.5641  -27.4711 H   0  0  0  0  0  0  0  0  0  0  0  0
   -1.8516   24.6533  -26.6923 H   0  0  0  0  0  0  0  0  0  0  0  0
   -3.1880   25.0610  -29.0910 H   0  0  0  0  0  0  0  0  0  0  0  0
   -4.3000   20.2890  -32.4354 H   0  0  0  0  0  0  0  0  0  0  0  0
  1  2  1  0
  2  3  2  0
  3  4  1  0
  4  5  2  0
  5  6  1  0
  6  7  2  0
  7  8  1  0
  8  9  1  0
  8 10  2  0
  7 11  1  0
 11 12  1  0
 12 13  2  0
 12 14  1  0
 14 15  1  0
 15 16  1  0
 16 17  1  0
 17 18  1  0
 17 19  1  0
 19 20  2  0
 19 21  1  0
 11 22  1  0
 22 23  2  0
 23  2  1  0
 22  5  1  0
  1 24  1  0
  1 25  1  0
  1 26  1  0
  3 27  1  0
  4 28  1  0
  6 29  1  0
  9 30  1  0
 15 31  1  0
 15 32  1  0
 16 33  1  0
 16 34  1  0
 17 35  1  1
 18 36  1  0
 23 37  1  0
M  CHG  3   9  -1  14  -1  21  -1
M  END
>  <UniqueID>  (95) 
95

>  <SMILES>  (95) 
Cc1ccc2cc(C([NH-])=O)n(C(=O)[N-]CC[C@H](O)C(=O)[O-])c2c1

>  <Energy>  (95) 
72.8470080045748

>  <Genealogy>  (95) 
Cc1ccc2cc(C([NH-])=O)n(C(=O)[N-]CCC(O)C(=O)[O-])c2c1 (protonated)
Cc1ccc2cc(C([NH-])=O)n(C(=O)[N-]CC[C@H](O)C(=O)[O-])c2c1 (chirality)
Cc1ccc2cc(C([NH-])=O)n(C(=O)[N-]CC[C@H](O)C(=O)[O-])c2c1 (3D coordinates assigned)
Cc1ccc2cc(C([NH-])=O)n(C(=O)[N-]CC[C@H](O)C(=O)[O-])c2c1 (optimized conformer: 72.8470080045748 kcal/mol)

>  <smiles>  (95) 
Cc1ccc2cc(C(N)=O)n(C(=O)NCCC(O)C(=O)O)c2c1

>  <score_type>  (95) 
oracle

>  <origin>  (95) 
adg

>  <m_score__min__energy>  (95) 
-12.35

>  <m_primary>  (95) 
energy

$$$$
