0:0
     RDKit          3D

 37 38  0  0  0  0  0  0  0  0999 V2000
   -0.9740   22.3120  -30.6060 C   0  0  0  0  0  0  0  0  0  0  0  0
   -1.9760   23.2050  -29.9980 N   0  0  2  0  0  0  0  0  0  0  0  0
   -1.5860   23.6160  -28.6310 C   0  0  0  0  0  0  0  0  0  0  0  0
   -0.8390   24.9180  -28.6330 C   0  0  0  0  0  0  0  0  0  0  0  0
   -1.2660   25.8940  -29.3060 O   0  0  0  0  0  0  0  0  0  0  0  0
    0.3110   25.0610  -27.8680 O   0  0  0  0  0  0  0  0  0  0  0  0
   -3.2560   22.5270  -29.9660 C   0  0  0  0  0  0  0  0  0  0  0  0
   -3.6840   22.0410  -28.8810 O   0  0  0  0  0  0  0  0  0  0  0  0
   -4.0580   22.3430  -31.1940 C   0  0  0  0  0  0  0  0  0  0  0  0
   -3.5400   21.8220  -32.2180 O   0  0  0  0  0  0  0  0  0  0  0  0
   -5.4360   22.7460  -31.2290 N   0  0  0  0  0  0  0  0  0  0  0  0
   -5.9620   23.9490  -30.8640 C   0  0  0  0  0  0  0  0  0  0  0  0
   -5.1910   25.1470  -30.4680 C   0  0  0  0  0  0  0  0  0  0  0  0
   -3.8230   25.2980  -30.8390 N   0  0  0  0  0  0  0  0  0  0  0  0
   -5.7570   26.0660  -29.8160 O   0  0  0  0  0  0  0  0  0  0  0  0
   -7.3520   23.9230  -30.9670 C   0  0  0  0  0  0  0  0  0  0  0  0
   -7.6630   22.6560  -31.4070 C   0  0  0  0  0  0  0  0  0  0  0  0
   -8.9000   22.0760  -31.6740 C   0  0  0  0  0  0  0  0  0  0  0  0
   -8.9200   20.7350  -32.0930 C   0  0  0  0  0  0  0  0  0  0  0  0
   -7.7160   19.9990  -32.2200 C   0  0  0  0  0  0  0  0  0  0  0  0
   -7.7500   18.5760  -32.6950 C   0  0  0  0  0  0  0  0  0  0  0  0
   -7.2560   17.7480  -31.7050 F   0  0  0  0  0  0  0  0  0  0  0  0
   -6.4790   20.6240  -31.9530 C   0  0  0  0  0  0  0  0  0  0  0  0
   -6.4880   21.9650  -31.5540 C   0  0  0  0  0  0  0  0  0  0  0  0
   -0.4052   21.8051  -29.8126 H   0  0  0  0  0  0  0  0  0  0  0  0
   -1.4820   21.5616  -31.2296 H   0  0  0  0  0  0  0  0  0  0  0  0
   -0.2868   22.9026  -31.2296 H   0  0  0  0  0  0  0  0  0  0  0  0
   -2.0520   24.0650  -30.5910 H   0  0  0  0  0  0  0  0  0  0  0  0
   -2.4938   23.7271  -28.0198 H   0  0  0  0  0  0  0  0  0  0  0  0
   -0.9233   22.8418  -28.2168 H   0  0  0  0  0  0  0  0  0  0  0  0
   -3.0670   25.2970  -30.1200 H   0  0  0  0  0  0  0  0  0  0  0  0
   -8.0522   24.7415  -30.7439 H   0  0  0  0  0  0  0  0  0  0  0  0
   -9.8320   22.6492  -31.5606 H   0  0  0  0  0  0  0  0  0  0  0  0
   -9.8805   20.2515  -32.3248 H   0  0  0  0  0  0  0  0  0  0  0  0
   -8.7869   18.2916  -32.9272 H   0  0  0  0  0  0  0  0  0  0  0  0
   -7.1312   18.4763  -33.5990 H   0  0  0  0  0  0  0  0  0  0  0  0
   -5.5333   20.0717  -32.0558 H   0  0  0  0  0  0  0  0  0  0  0  0
  1  2  1  0
  2  3  1  0
  3  4  1  0
  4  5  2  0
  4  6  1  0
  2  7  1  0
  7  8  2  0
  7  9  1  0
  9 10  2  0
  9 11  1  0
 11 12  1  0
 12 13  1  0
 13 14  1  0
 13 15  2  0
 12 16  2  0
 16 17  1  0
 17 18  2  0
 18 19  1  0
 19 20  2  0
 20 21  1  0
 21 22  1  0
 20 23  1  0
 23 24  2  0
 24 11  1  0
 24 17  1  0
  1 25  1  0
  1 26  1  0
  1 27  1  0
  2 28  1  6
  3 29  1  0
  3 30  1  0
 14 31  1  0
 16 32  1  0
 18 33  1  0
 19 34  1  0
 21 35  1  0
 21 36  1  0
 23 37  1  0
M  CHG  3   2   1   6  -1  14  -1
M  END
>  <UniqueID>  (1) 
1

>  <SMILES>  (1) 
C[N@H+](CC(=O)[O-])C(=O)C(=O)n1c(C([NH-])=O)cc2ccc(CF)cc21

>  <Energy>  (1) 
77.89481989086377

>  <Genealogy>  (1) 
C[NH+](CC(=O)[O-])C(=O)C(=O)n1c(C([NH-])=O)cc2ccc(CF)cc21 (protonated)
C[N@H+](CC(=O)[O-])C(=O)C(=O)n1c(C([NH-])=O)cc2ccc(CF)cc21 (chirality)
C[N@H+](CC(=O)[O-])C(=O)C(=O)n1c(C([NH-])=O)cc2ccc(CF)cc21 (3D coordinates assigned)
C[N@H+](CC(=O)[O-])C(=O)C(=O)n1c(C([NH-])=O)cc2ccc(CF)cc21 (optimized conformer: 77.89481989086377 kcal/mol)

>  <smiles>  (1) 
CN(CC(=O)O)C(=O)C(=O)n1c(C(N)=O)cc2ccc(CF)cc21

>  <score_type>  (1) 
oracle

>  <origin>  (1) 
adg

>  <m_score__min__energy>  (1) 
-11.17

>  <m_primary>  (1) 
energy

$$$$
1:0
     RDKit          3D

 46 50  0  0  0  0  0  0  0  0999 V2000
   -7.0880   18.3880  -32.7310 C   0  0  0  0  0  0  0  0  0  0  0  0
   -7.2230   19.8170  -32.2970 C   0  0  0  0  0  0  0  0  0  0  0  0
   -8.4920   20.4480  -32.3190 C   0  0  0  0  0  0  0  0  0  0  0  0
   -8.6260   21.7990  -31.9570 C   0  0  0  0  0  0  0  0  0  0  0  0
   -7.4770   22.4930  -31.5870 C   0  0  0  0  0  0  0  0  0  0  0  0
   -7.3130   23.8070  -31.2090 C   0  0  0  0  0  0  0  0  0  0  0  0
   -5.9490   23.9540  -30.9650 C   0  0  0  0  0  0  0  0  0  0  0  0
   -5.3320   25.2070  -30.4780 C   0  0  0  0  0  0  0  0  0  0  0  0
   -3.9210   25.3980  -30.5260 N   0  0  0  0  0  0  0  0  0  0  0  0
   -6.0600   26.1110  -29.9870 O   0  0  0  0  0  0  0  0  0  0  0  0
   -5.2960   22.7810  -31.1970 N   0  0  0  0  0  0  0  0  0  0  0  0
   -3.8870   22.5150  -31.1090 C   0  0  0  0  0  0  0  0  0  0  0  0
   -3.2810   22.0860  -32.1270 O   0  0  0  0  0  0  0  0  0  0  0  0
   -3.1380   22.7730  -29.8550 C   0  0  0  0  0  0  0  0  0  0  0  0
   -3.7910   22.7510  -28.6140 C   0  0  0  0  0  0  0  0  0  0  0  0
   -3.0810   22.9980  -27.4390 C   0  0  0  0  0  0  0  0  0  0  0  0
   -1.7030   23.2640  -27.5030 C   0  0  0  0  0  0  0  0  0  0  0  0
   -0.9320   23.5260  -26.3150 N   0  0  0  0  0  0  0  0  0  0  0  0
   -0.1680   22.4940  -25.6330 C   0  0  0  0  0  0  0  0  0  0  0  0
    0.5020   23.1730  -24.4460 C   0  0  1  0  0  0  0  0  0  0  0  0
    1.5240   24.2510  -24.7750 C   0  0  0  0  0  0  0  0  0  0  0  0
    0.0840   24.6340  -24.4670 C   0  0  1  0  0  0  0  0  0  0  0  0
   -0.8320   24.8260  -25.6660 C   0  0  0  0  0  0  0  0  0  0  0  0
   -1.0880   23.2710  -28.7190 N   0  0  0  0  0  0  0  0  0  0  0  0
   -1.7590   23.0350  -29.8760 C   0  0  0  0  0  0  0  0  0  0  0  0
   -6.2430   21.8960  -31.5680 C   0  0  0  0  0  0  0  0  0  0  0  0
   -6.0770   20.5560  -31.9320 C   0  0  0  0  0  0  0  0  0  0  0  0
   -7.0268   17.7398  -31.8444 H   0  0  0  0  0  0  0  0  0  0  0  0
   -7.9633   18.1035  -33.3335 H   0  0  0  0  0  0  0  0  0  0  0  0
   -6.1749   18.2725  -33.3335 H   0  0  0  0  0  0  0  0  0  0  0  0
   -9.3804   19.8746  -32.6224 H   0  0  0  0  0  0  0  0  0  0  0  0
   -9.6086   22.2933  -31.9656 H   0  0  0  0  0  0  0  0  0  0  0  0
   -8.0932   24.5771  -31.1188 H   0  0  0  0  0  0  0  0  0  0  0  0
   -3.4900   26.0450  -31.2230 H   0  0  0  0  0  0  0  0  0  0  0  0
   -4.8691   22.5378  -28.5670 H   0  0  0  0  0  0  0  0  0  0  0  0
   -3.5972   22.9846  -26.4677 H   0  0  0  0  0  0  0  0  0  0  0  0
   -0.8361   21.6921  -25.2859 H   0  0  0  0  0  0  0  0  0  0  0  0
    0.5744   22.0368  -26.3037 H   0  0  0  0  0  0  0  0  0  0  0  0
    0.5320   22.3247  -23.7463 H   0  0  0  0  0  0  0  0  0  0  0  0
    2.3224   24.4897  -24.0570 H   0  0  0  0  0  0  0  0  0  0  0  0
    2.2178   24.4375  -25.6080 H   0  0  0  0  0  0  0  0  0  0  0  0
   -0.3452   25.3873  -23.7899 H   0  0  0  0  0  0  0  0  0  0  0  0
   -1.8253   25.1648  -25.3363 H   0  0  0  0  0  0  0  0  0  0  0  0
   -0.4363   25.5875  -26.3541 H   0  0  0  0  0  0  0  0  0  0  0  0
   -1.2192   23.0492  -30.8343 H   0  0  0  0  0  0  0  0  0  0  0  0
   -5.0804   20.0904  -31.9338 H   0  0  0  0  0  0  0  0  0  0  0  0
  1  2  1  0
  2  3  2  0
  3  4  1  0
  4  5  2  0
  5  6  1  0
  6  7  2  0
  7  8  1  0
  8  9  1  0
  8 10  2  0
  7 11  1  0
 11 12  1  0
 12 13  2  0
 12 14  1  0
 14 15  2  0
 15 16  1  0
 16 17  2  0
 17 18  1  0
 18 19  1  0
 19 20  1  0
 20 21  1  0
 21 22  1  0
 22 23  1  0
 17 24  1  0
 24 25  2  0
 11 26  1  0
 26 27  2  0
 27  2  1  0
 26  5  1  0
 25 14  1  0
 23 18  1  0
 22 20  1  0
  1 28  1  0
  1 29  1  0
  1 30  1  0
  3 31  1  0
  4 32  1  0
  6 33  1  0
  9 34  1  0
 15 35  1  0
 16 36  1  0
 19 37  1  0
 19 38  1  0
 20 39  1  1
 21 40  1  0
 21 41  1  0
 22 42  1  1
 23 43  1  0
 23 44  1  0
 25 45  1  0
 27 46  1  0
M  CHG  1   9  -1
M  END
>  <UniqueID>  (2) 
2

>  <SMILES>  (2) 
Cc1ccc2cc(C([NH-])=O)n(C(=O)c3ccc(N4C[C@H]5C[C@H]5C4)nc3)c2c1

>  <Energy>  (2) 
356.9611353284018

>  <Genealogy>  (2) 
Cc1ccc2cc(C([NH-])=O)n(C(=O)c3ccc(N4CC5CC5C4)nc3)c2c1 (protonated)
Cc1ccc2cc(C([NH-])=O)n(C(=O)c3ccc(N4C[C@H]5C[C@H]5C4)nc3)c2c1 (chirality)
Cc1ccc2cc(C([NH-])=O)n(C(=O)c3ccc(N4C[C@H]5C[C@H]5C4)nc3)c2c1 (3D coordinates assigned)
Cc1ccc2cc(C([NH-])=O)n(C(=O)c3ccc(N4C[C@H]5C[C@H]5C4)nc3)c2c1 (nonaromatic ring conformer: 356.9611353284018 kcal/mol)

>  <smiles>  (2) 
Cc1ccc2cc(C(N)=O)n(C(=O)c3ccc(N4CC5CC5C4)nc3)c2c1

>  <score_type>  (2) 
oracle

>  <origin>  (2) 
adg

>  <m_score__min__energy>  (2) 
-11.960000000000001

>  <m_primary>  (2) 
energy

$$$$
3:0
     RDKit          3D

 60 63  0  0  0  0  0  0  0  0999 V2000
   -7.7470   19.0720  -32.2300 C   0  0  0  0  0  0  0  0  0  0  0  0
   -6.2890   19.0160  -32.4610 N   0  0  1  0  0  0  0  0  0  0  0  0
   -5.7730   17.6310  -32.2280 C   0  0  0  0  0  0  0  0  0  0  0  0
   -4.6690   17.2130  -33.2280 C   0  0  1  0  0  0  0  0  0  0  0  0
   -5.1970   17.2900  -34.6750 C   0  0  0  0  0  0  0  0  0  0  0  0
   -6.0840   18.5240  -34.9170 C   0  0  0  0  0  0  0  0  0  0  0  0
   -5.9340   19.5800  -33.8000 C   0  0  2  0  0  0  0  0  0  0  0  0
   -4.5040   20.1820  -33.8050 C   0  0  0  0  0  0  0  0  0  0  0  0
   -3.5990   19.4680  -32.8930 N   0  0  0  0  0  0  0  0  0  0  0  0
   -2.7270   20.2270  -32.0360 C   0  0  0  0  0  0  0  0  0  0  0  0
   -1.3980   19.7920  -31.7990 C   0  0  0  0  0  0  0  0  0  0  0  0
   -0.5530   20.5100  -30.9300 C   0  0  0  0  0  0  0  0  0  0  0  0
   -1.0760   21.6330  -30.2910 C   0  0  0  0  0  0  0  0  0  0  0  0
   -0.4720   22.5340  -29.4440 C   0  0  0  0  0  0  0  0  0  0  0  0
   -1.4550   23.4760  -29.1490 C   0  0  0  0  0  0  0  0  0  0  0  0
   -1.1830   24.7170  -28.4050 C   0  0  0  0  0  0  0  0  0  0  0  0
   -1.2450   25.9900  -29.0530 N   0  0  0  0  0  0  0  0  0  0  0  0
   -0.9430   24.6590  -27.1640 O   0  0  0  0  0  0  0  0  0  0  0  0
   -2.6250   23.1640  -29.7780 N   0  0  0  0  0  0  0  0  0  0  0  0
   -3.8160   23.9620  -29.8840 C   0  0  0  0  0  0  0  0  0  0  0  0
   -3.7520   25.0830  -30.4570 O   0  0  0  0  0  0  0  0  0  0  0  0
   -5.1230   23.4900  -29.2840 C   0  0  0  0  0  0  0  0  0  0  0  0
   -6.3650   23.5700  -30.2260 C   0  0  0  0  0  0  0  0  0  0  0  0
   -6.8450   25.0330  -30.3600 C   0  0  0  0  0  0  0  0  0  0  0  0
   -7.5350   22.6970  -29.7060 C   0  0  0  0  0  0  0  0  0  0  0  0
   -5.9400   23.0530  -31.5890 C   0  0  0  0  0  0  0  0  0  0  0  0
   -5.3550   23.8230  -32.3990 O   0  0  0  0  0  0  0  0  0  0  0  0
   -6.2170   21.7490  -31.9780 O   0  0  0  0  0  0  0  0  0  0  0  0
   -2.3640   22.0520  -30.4970 C   0  0  0  0  0  0  0  0  0  0  0  0
   -3.2070   21.3890  -31.3940 C   0  0  0  0  0  0  0  0  0  0  0  0
   -3.3640   18.0220  -33.0360 C   0  0  0  0  0  0  0  0  0  0  0  0
   -7.9468   19.0797  -31.1483 H   0  0  0  0  0  0  0  0  0  0  0  0
   -8.1554   19.9865  -32.6848 H   0  0  0  0  0  0  0  0  0  0  0  0
   -8.2244   18.1915  -32.6848 H   0  0  0  0  0  0  0  0  0  0  0  0
   -5.8780   19.6370  -31.7240 H   0  0  0  0  0  0  0  0  0  0  0  0
   -5.3598   17.5790  -31.2099 H   0  0  0  0  0  0  0  0  0  0  0  0
   -6.6179   16.9407  -32.3681 H   0  0  0  0  0  0  0  0  0  0  0  0
   -4.4049   16.1657  -33.0195 H   0  0  0  0  0  0  0  0  0  0  0  0
   -4.3385   17.3333  -35.3613 H   0  0  0  0  0  0  0  0  0  0  0  0
   -5.8139   16.3967  -34.8523 H   0  0  0  0  0  0  0  0  0  0  0  0
   -5.8006   18.9810  -35.8766 H   0  0  0  0  0  0  0  0  0  0  0  0
   -7.1318   18.1894  -34.9262 H   0  0  0  0  0  0  0  0  0  0  0  0
   -6.6447   20.3944  -34.0043 H   0  0  0  0  0  0  0  0  0  0  0  0
   -4.0980   20.1227  -34.8256 H   0  0  0  0  0  0  0  0  0  0  0  0
   -4.5750   21.2251  -33.4630 H   0  0  0  0  0  0  0  0  0  0  0  0
   -1.0238   18.8860  -32.2981 H   0  0  0  0  0  0  0  0  0  0  0  0
    0.4871   20.1943  -30.7610 H   0  0  0  0  0  0  0  0  0  0  0  0
    0.5652   22.5145  -29.0782 H   0  0  0  0  0  0  0  0  0  0  0  0
   -1.1960   26.0690  -30.0910 H   0  0  0  0  0  0  0  0  0  0  0  0
   -4.9962   22.4406  -28.9794 H   0  0  0  0  0  0  0  0  0  0  0  0
   -5.3346   24.1731  -28.4482 H   0  0  0  0  0  0  0  0  0  0  0  0
   -6.9869   25.4655  -29.3586 H   0  0  0  0  0  0  0  0  0  0  0  0
   -6.0915   25.6174  -30.9084 H   0  0  0  0  0  0  0  0  0  0  0  0
   -7.7982   25.0574  -30.9084 H   0  0  0  0  0  0  0  0  0  0  0  0
   -7.5329   22.6986  -28.6060 H   0  0  0  0  0  0  0  0  0  0  0  0
   -8.4884   23.1062  -30.0714 H   0  0  0  0  0  0  0  0  0  0  0  0
   -7.4142   21.6665  -30.0714 H   0  0  0  0  0  0  0  0  0  0  0  0
   -4.2213   21.7643  -31.5949 H   0  0  0  0  0  0  0  0  0  0  0  0
   -2.7174   17.8568  -33.9104 H   0  0  0  0  0  0  0  0  0  0  0  0
   -2.8938   17.6716  -32.1053 H   0  0  0  0  0  0  0  0  0  0  0  0
  1  2  1  0
  2  3  1  0
  3  4  1  0
  4  5  1  0
  5  6  1  0
  6  7  1  0
  7  8  1  0
  8  9  1  0
  9 10  1  0
 10 11  2  0
 11 12  1  0
 12 13  2  0
 13 14  1  0
 14 15  2  0
 15 16  1  0
 16 17  1  0
 16 18  2  0
 15 19  1  0
 19 20  1  0
 20 21  2  0
 20 22  1  0
 22 23  1  0
 23 24  1  0
 23 25  1  0
 23 26  1  0
 26 27  2  0
 26 28  1  0
 19 29  1  0
 29 30  2  0
  9 31  1  0
  7  2  1  0
 30 10  1  0
 31  4  1  0
 29 13  1  0
  1 32  1  0
  1 33  1  0
  1 34  1  0
  2 35  1  1
  3 36  1  0
  3 37  1  0
  4 38  1  1
  5 39  1  0
  5 40  1  0
  6 41  1  0
  6 42  1  0
  7 43  1  6
  8 44  1  0
  8 45  1  0
 11 46  1  0
 12 47  1  0
 14 48  1  0
 17 49  1  0
 22 50  1  0
 22 51  1  0
 24 52  1  0
 24 53  1  0
 24 54  1  0
 25 55  1  0
 25 56  1  0
 25 57  1  0
 30 58  1  0
 31 59  1  0
 31 60  1  0
M  CHG  3   2   1  17  -1  28  -1
M  END
>  <UniqueID>  (3) 
3

>  <SMILES>  (3) 
C[N@H+]1C[C@H]2CCC1CN(c1ccc3cc(C([NH-])=O)n(C(=O)CC(C)(C)C(=O)[O-])c3c1)C2

>  <Energy>  (3) 
124.63969526402094

>  <Genealogy>  (3) 
C[NH+]1CC2CCC1CN(c1ccc3cc(C([NH-])=O)n(C(=O)CC(C)(C)C(=O)[O-])c3c1)C2 (protonated)
C[N@H+]1C[C@H]2CCC1CN(c1ccc3cc(C([NH-])=O)n(C(=O)CC(C)(C)C(=O)[O-])c3c1)C2 (chirality)
C[N@H+]1C[C@H]2CCC1CN(c1ccc3cc(C([NH-])=O)n(C(=O)CC(C)(C)C(=O)[O-])c3c1)C2 (3D coordinates assigned)
C[N@H+]1C[C@H]2CCC1CN(c1ccc3cc(C([NH-])=O)n(C(=O)CC(C)(C)C(=O)[O-])c3c1)C2 (nonaromatic ring conformer: 124.63969526402094 kcal/mol)

>  <smiles>  (3) 
CN1CC2CCC1CN(c1ccc3cc(C(N)=O)n(C(=O)CC(C)(C)C(=O)O)c3c1)C2

>  <score_type>  (3) 
oracle

>  <origin>  (3) 
adg

>  <m_score__min__energy>  (3) 
-12.359999999999999

>  <m_primary>  (3) 
energy

$$$$
4:0
     RDKit          3D

 36 37  0  0  0  0  0  0  0  0999 V2000
   -7.2240   17.0660  -32.8090 C   0  0  0  0  0  0  0  0  0  0  0  0
   -6.6950   18.2980  -33.4010 N   0  0  0  0  0  0  0  0  0  0  0  0
   -5.9530   18.1790  -34.5920 C   0  0  0  0  0  0  0  0  0  0  0  0
   -5.3440   18.0800  -35.5710 N   0  0  0  0  0  0  0  0  0  0  0  0
   -6.9210   19.5970  -32.7930 C   0  0  0  0  0  0  0  0  0  0  0  0
   -8.2430   20.0720  -32.5560 C   0  0  0  0  0  0  0  0  0  0  0  0
   -8.4710   21.3330  -31.9800 C   0  0  0  0  0  0  0  0  0  0  0  0
   -7.3680   22.1040  -31.6390 C   0  0  0  0  0  0  0  0  0  0  0  0
   -7.3060   23.3670  -31.0940 C   0  0  0  0  0  0  0  0  0  0  0  0
   -5.9470   23.6520  -30.9780 C   0  0  0  0  0  0  0  0  0  0  0  0
   -5.4120   24.8830  -30.3560 C   0  0  0  0  0  0  0  0  0  0  0  0
   -5.7940   25.2580  -29.0310 N   0  0  0  0  0  0  0  0  0  0  0  0
   -4.5860   25.6000  -30.9800 O   0  0  0  0  0  0  0  0  0  0  0  0
   -5.2000   22.6070  -31.4340 N   0  0  0  0  0  0  0  0  0  0  0  0
   -3.7700   22.5430  -31.5480 C   0  0  0  0  0  0  0  0  0  0  0  0
   -3.2350   21.6920  -32.3110 O   0  0  0  0  0  0  0  0  0  0  0  0
   -2.9740   23.4330  -30.8170 O   0  0  0  0  0  0  0  0  0  0  0  0
   -1.9640   23.0160  -29.9000 C   0  0  0  0  0  0  0  0  0  0  0  0
   -1.6480   24.1220  -28.8920 C   0  0  0  0  0  0  0  0  0  0  0  0
   -2.3540   25.2920  -29.2100 O   0  0  0  0  0  0  0  0  0  0  0  0
   -6.0850   21.6680  -31.8360 C   0  0  0  0  0  0  0  0  0  0  0  0
   -5.8270   20.4250  -32.4260 C   0  0  0  0  0  0  0  0  0  0  0  0
   -7.1911   17.1427  -31.7122 H   0  0  0  0  0  0  0  0  0  0  0  0
   -8.2643   16.9197  -33.1353 H   0  0  0  0  0  0  0  0  0  0  0  0
   -6.6137   16.2110  -33.1353 H   0  0  0  0  0  0  0  0  0  0  0  0
   -9.1009   19.4400  -32.8290 H   0  0  0  0  0  0  0  0  0  0  0  0
   -9.4935   21.6987  -31.8044 H   0  0  0  0  0  0  0  0  0  0  0  0
   -8.1497   24.0134  -30.8105 H   0  0  0  0  0  0  0  0  0  0  0  0
   -6.5170   24.7210  -28.5030 H   0  0  0  0  0  0  0  0  0  0  0  0
   -5.3800   26.1070  -28.5860 H   0  0  0  0  0  0  0  0  0  0  0  0
   -2.3155   22.1254  -29.3584 H   0  0  0  0  0  0  0  0  0  0  0  0
   -1.0495   22.7867  -30.4666 H   0  0  0  0  0  0  0  0  0  0  0  0
   -1.9367   23.7873  -27.8847 H   0  0  0  0  0  0  0  0  0  0  0  0
   -0.5697   24.3366  -28.9252 H   0  0  0  0  0  0  0  0  0  0  0  0
   -3.3000   25.0240  -29.3520 H   0  0  0  0  0  0  0  0  0  0  0  0
   -4.7928   20.0946  -32.6027 H   0  0  0  0  0  0  0  0  0  0  0  0
  1  2  1  0
  2  3  1  0
  3  4  3  0
  2  5  1  0
  5  6  2  0
  6  7  1  0
  7  8  2  0
  8  9  1  0
  9 10  2  0
 10 11  1  0
 11 12  1  0
 11 13  2  0
 10 14  1  0
 14 15  1  0
 15 16  2  0
 15 17  1  0
 17 18  1  0
 18 19  1  0
 19 20  1  0
 14 21  1  0
 21 22  2  0
 22  5  1  0
 21  8  1  0
  1 23  1  0
  1 24  1  0
  1 25  1  0
  6 26  1  0
  7 27  1  0
  9 28  1  0
 12 29  1  0
 12 30  1  0
 18 31  1  0
 18 32  1  0
 19 33  1  0
 19 34  1  0
 20 35  1  0
 22 36  1  0
M  END
>  <UniqueID>  (4) 
4

>  <SMILES>  (4) 
CN(C#N)c1ccc2cc(C(N)=O)n(C(=O)OCCO)c2c1

>  <Energy>  (4) 
72.42595933743402

>  <Genealogy>  (4) 
CN(C#N)c1ccc2cc(C(N)=O)n(C(=O)OCCO)c2c1 (3D coordinates assigned)
CN(C#N)c1ccc2cc(C(N)=O)n(C(=O)OCCO)c2c1 (optimized conformer: 72.42595933743402 kcal/mol)

>  <smiles>  (4) 
CN(C#N)c1ccc2cc(C(N)=O)n(C(=O)OCCO)c2c1

>  <score_type>  (4) 
oracle

>  <origin>  (4) 
adg

>  <m_score__min__energy>  (4) 
-9.1799999999999997

>  <m_primary>  (4) 
energy

$$$$
5:0
     RDKit          3D

 43 44  0  0  0  0  0  0  0  0999 V2000
   -7.4480   18.4110  -32.9200 C   0  0  0  0  0  0  0  0  0  0  0  0
   -7.5390   19.8250  -32.4310 C   0  0  0  0  0  0  0  0  0  0  0  0
   -8.7930   20.4830  -32.3910 C   0  0  0  0  0  0  0  0  0  0  0  0
   -8.8870   21.8200  -31.9650 C   0  0  0  0  0  0  0  0  0  0  0  0
   -7.7120   22.4720  -31.6010 C   0  0  0  0  0  0  0  0  0  0  0  0
   -7.5120   23.7550  -31.1420 C   0  0  0  0  0  0  0  0  0  0  0  0
   -6.1370   23.8640  -30.9390 C   0  0  0  0  0  0  0  0  0  0  0  0
   -5.4650   25.1050  -30.5060 C   0  0  0  0  0  0  0  0  0  0  0  0
   -4.0510   25.2430  -30.6130 N   0  0  0  0  0  0  0  0  0  0  0  0
   -6.1500   26.0680  -30.0710 O   0  0  0  0  0  0  0  0  0  0  0  0
   -5.5170   22.6930  -31.2550 N   0  0  0  0  0  0  0  0  0  0  0  0
   -4.1320   22.3570  -31.0980 C   0  0  0  0  0  0  0  0  0  0  0  0
   -3.2830   22.8500  -31.8900 O   0  0  0  0  0  0  0  0  0  0  0  0
   -3.7280   21.2950  -30.1140 C   0  0  0  0  0  0  0  0  0  0  0  0
   -3.0200   21.8760  -28.9250 C   0  0  0  0  0  0  0  0  0  0  0  0
   -2.8940   21.1770  -27.8820 O   0  0  0  0  0  0  0  0  0  0  0  0
   -2.4720   23.2020  -28.9830 N   0  0  0  0  0  0  0  0  0  0  0  0
   -1.6370   23.7690  -27.9180 C   0  0  2  0  0  0  0  0  0  0  0  0
   -1.0090   25.0430  -28.4120 C   0  0  0  0  0  0  0  0  0  0  0  0
   -1.5450   25.7020  -29.3430 O   0  0  0  0  0  0  0  0  0  0  0  0
    0.1710   25.5040  -27.8400 O   0  0  0  0  0  0  0  0  0  0  0  0
   -0.5550   22.7560  -27.4840 C   0  0  2  0  0  0  0  0  0  0  0  0
   -0.2530   22.8710  -25.9850 C   0  0  0  0  0  0  0  0  0  0  0  0
    0.6240   22.9920  -28.2100 O   0  0  0  0  0  0  0  0  0  0  0  0
   -6.4900   21.8540  -31.6590 C   0  0  0  0  0  0  0  0  0  0  0  0
   -6.3660   20.5240  -32.0700 C   0  0  0  0  0  0  0  0  0  0  0  0
   -7.4040   17.7275  -32.0593 H   0  0  0  0  0  0  0  0  0  0  0  0
   -8.3329   18.1762  -33.5298 H   0  0  0  0  0  0  0  0  0  0  0  0
   -6.5403   18.2916  -33.5298 H   0  0  0  0  0  0  0  0  0  0  0  0
   -9.7016   19.9431  -32.6960 H   0  0  0  0  0  0  0  0  0  0  0  0
   -9.8583   22.3344  -31.9208 H   0  0  0  0  0  0  0  0  0  0  0  0
   -8.2748   24.5290  -30.9718 H   0  0  0  0  0  0  0  0  0  0  0  0
   -3.4940   25.6750  -29.8420 H   0  0  0  0  0  0  0  0  0  0  0  0
   -4.6298   20.7681  -29.7688 H   0  0  0  0  0  0  0  0  0  0  0  0
   -3.0362   20.6057  -30.6202 H   0  0  0  0  0  0  0  0  0  0  0  0
   -2.6000   23.7550  -29.8600 H   0  0  0  0  0  0  0  0  0  0  0  0
   -2.2608   23.9907  -27.0395 H   0  0  0  0  0  0  0  0  0  0  0  0
   -0.9333   21.7431  -27.6864 H   0  0  0  0  0  0  0  0  0  0  0  0
   -1.1282   22.5377  -25.4080 H   0  0  0  0  0  0  0  0  0  0  0  0
    0.6125   22.2395  -25.7358 H   0  0  0  0  0  0  0  0  0  0  0  0
   -0.0267   23.9182  -25.7358 H   0  0  0  0  0  0  0  0  0  0  0  0
    0.8620   23.9470  -28.0730 H   0  0  0  0  0  0  0  0  0  0  0  0
   -5.3816   20.0349  -32.1112 H   0  0  0  0  0  0  0  0  0  0  0  0
  1  2  1  0
  2  3  2  0
  3  4  1  0
  4  5  2  0
  5  6  1  0
  6  7  2  0
  7  8  1  0
  8  9  1  0
  8 10  2  0
  7 11  1  0
 11 12  1  0
 12 13  2  0
 12 14  1  0
 14 15  1  0
 15 16  2  0
 15 17  1  0
 17 18  1  0
 18 19  1  0
 19 20  2  0
 19 21  1  0
 18 22  1  0
 22 23  1  0
 22 24  1  0
 11 25  1  0
 25 26  2  0
 26  2  1  0
 25  5  1  0
  1 27  1  0
  1 28  1  0
  1 29  1  0
  3 30  1  0
  4 31  1  0
  6 32  1  0
  9 33  1  0
 14 34  1  0
 14 35  1  0
 17 36  1  0
 18 37  1  1
 22 38  1  1
 23 39  1  0
 23 40  1  0
 23 41  1  0
 24 42  1  0
 26 43  1  0
M  CHG  2   9  -1  21  -1
M  END
>  <UniqueID>  (5) 
5

>  <SMILES>  (5) 
Cc1ccc2cc(C([NH-])=O)n(C(=O)CC(=O)N[C@H](C(=O)[O-])[C@H](C)O)c2c1

>  <Energy>  (5) 
76.08698844863088

>  <Genealogy>  (5) 
Cc1ccc2cc(C([NH-])=O)n(C(=O)CC(=O)NC(C(=O)[O-])C(C)O)c2c1 (protonated)
Cc1ccc2cc(C([NH-])=O)n(C(=O)CC(=O)N[C@H](C(=O)[O-])[C@H](C)O)c2c1 (chirality)
Cc1ccc2cc(C([NH-])=O)n(C(=O)CC(=O)N[C@H](C(=O)[O-])[C@H](C)O)c2c1 (3D coordinates assigned)
Cc1ccc2cc(C([NH-])=O)n(C(=O)CC(=O)N[C@H](C(=O)[O-])[C@H](C)O)c2c1 (optimized conformer: 76.08698844863088 kcal/mol)

>  <smiles>  (5) 
Cc1ccc2cc(C(N)=O)n(C(=O)CC(=O)NC(C(=O)O)C(C)O)c2c1

>  <score_type>  (5) 
oracle

>  <origin>  (5) 
adg

>  <m_score__min__energy>  (5) 
-12.16

>  <m_primary>  (5) 
energy

$$$$
6:0
     RDKit          3D

 39 40  0  0  0  0  0  0  0  0999 V2000
   -1.9480   24.2850  -26.4330 C   0  0  0  0  0  0  0  0  0  0  0  0
   -1.7750   23.7150  -27.8440 C   0  0  1  0  0  0  0  0  0  0  0  0
   -3.1210   23.5030  -28.4990 C   0  0  0  0  0  0  0  0  0  0  0  0
   -4.0900   24.2370  -28.1660 O   0  0  0  0  0  0  0  0  0  0  0  0
   -3.3330   22.4380  -29.4460 N   0  0  0  0  0  0  0  0  0  0  0  0
   -2.8720   21.0880  -29.1120 C   0  0  0  0  0  0  0  0  0  0  0  0
   -3.8660   22.6970  -30.7610 C   0  0  0  0  0  0  0  0  0  0  0  0
   -3.0890   22.7450  -31.7530 O   0  0  0  0  0  0  0  0  0  0  0  0
   -5.2790   22.8580  -30.9700 N   0  0  0  0  0  0  0  0  0  0  0  0
   -6.0120   24.0040  -30.8630 C   0  0  0  0  0  0  0  0  0  0  0  0
   -5.5140   25.3070  -30.3750 C   0  0  0  0  0  0  0  0  0  0  0  0
   -4.1410   25.6520  -30.5460 N   0  0  0  0  0  0  0  0  0  0  0  0
   -6.2920   26.1340  -29.8300 O   0  0  0  0  0  0  0  0  0  0  0  0
   -7.3410   23.7650  -31.2070 C   0  0  0  0  0  0  0  0  0  0  0  0
   -7.4010   22.4280  -31.5330 C   0  0  0  0  0  0  0  0  0  0  0  0
   -8.4770   21.6580  -31.9570 C   0  0  0  0  0  0  0  0  0  0  0  0
   -8.2450   20.3010  -32.2420 C   0  0  0  0  0  0  0  0  0  0  0  0
   -6.9520   19.7380  -32.0880 C   0  0  0  0  0  0  0  0  0  0  0  0
   -6.7010   18.2920  -32.4360 C   0  0  0  0  0  0  0  0  0  0  0  0
   -5.7620   17.7420  -31.5800 F   0  0  0  0  0  0  0  0  0  0  0  0
   -7.8660   17.5520  -32.3310 F   0  0  0  0  0  0  0  0  0  0  0  0
   -6.2310   18.2110  -33.7330 F   0  0  0  0  0  0  0  0  0  0  0  0
   -5.8770   20.5630  -31.6810 C   0  0  0  0  0  0  0  0  0  0  0  0
   -6.1420   21.9060  -31.3860 C   0  0  0  0  0  0  0  0  0  0  0  0
   -0.9420   24.6050  -28.6520 N   0  0  0  0  0  0  0  0  0  0  0  0
   -1.4520   25.5590  -29.2810 O   0  0  0  0  0  0  0  0  0  0  0  0
    0.4320   24.4980  -28.5890 O   0  0  0  0  0  0  0  0  0  0  0  0
   -1.7119   23.5072  -25.6919 H   0  0  0  0  0  0  0  0  0  0  0  0
   -1.2687   25.1394  -26.2969 H   0  0  0  0  0  0  0  0  0  0  0  0
   -2.9876   24.6177  -26.2969 H   0  0  0  0  0  0  0  0  0  0  0  0
   -1.2718   22.7397  -27.7692 H   0  0  0  0  0  0  0  0  0  0  0  0
   -2.8330   20.9739  -28.0186 H   0  0  0  0  0  0  0  0  0  0  0  0
   -3.5684   20.3480  -29.5333 H   0  0  0  0  0  0  0  0  0  0  0  0
   -1.8685   20.9285  -29.5333 H   0  0  0  0  0  0  0  0  0  0  0  0
   -3.4860   25.6710  -29.7340 H   0  0  0  0  0  0  0  0  0  0  0  0
   -8.1676   24.4907  -31.2163 H   0  0  0  0  0  0  0  0  0  0  0  0
   -9.4798   22.0967  -32.0664 H   0  0  0  0  0  0  0  0  0  0  0  0
   -9.0756   19.6685  -32.5884 H   0  0  0  0  0  0  0  0  0  0  0  0
   -4.8572   20.1590  -31.5983 H   0  0  0  0  0  0  0  0  0  0  0  0
  1  2  1  0
  2  3  1  0
  3  4  2  0
  3  5  1  0
  5  6  1  0
  5  7  1  0
  7  8  2  0
  7  9  1  0
  9 10  1  0
 10 11  1  0
 11 12  1  0
 11 13  2  0
 10 14  2  0
 14 15  1  0
 15 16  2  0
 16 17  1  0
 17 18  2  0
 18 19  1  0
 19 20  1  0
 19 21  1  0
 19 22  1  0
 18 23  1  0
 23 24  2  0
  2 25  1  0
 25 26  2  0
 25 27  1  0
 24  9  1  0
 24 15  1  0
  1 28  1  0
  1 29  1  0
  1 30  1  0
  2 31  1  1
  6 32  1  0
  6 33  1  0
  6 34  1  0
 12 35  1  0
 14 36  1  0
 16 37  1  0
 17 38  1  0
 23 39  1  0
M  CHG  3  12  -1  25   1  27  -1
M  END
>  <UniqueID>  (6) 
6

>  <SMILES>  (6) 
C[C@@H](C(=O)N(C)C(=O)n1c(C([NH-])=O)cc2ccc(C(F)(F)F)cc21)[N+](=O)[O-]

>  <Energy>  (6) 
77.86880917707654

>  <Genealogy>  (6) 
CC(C(=O)N(C)C(=O)n1c(C([NH-])=O)cc2ccc(C(F)(F)F)cc21)[N+](=O)[O-] (protonated)
C[C@@H](C(=O)N(C)C(=O)n1c(C([NH-])=O)cc2ccc(C(F)(F)F)cc21)[N+](=O)[O-] (chirality)
C[C@@H](C(=O)N(C)C(=O)n1c(C([NH-])=O)cc2ccc(C(F)(F)F)cc21)[N+](=O)[O-] (3D coordinates assigned)
C[C@@H](C(=O)N(C)C(=O)n1c(C([NH-])=O)cc2ccc(C(F)(F)F)cc21)[N+](=O)[O-] (optimized conformer: 77.86880917707654 kcal/mol)

>  <smiles>  (6) 
CC(C(=O)N(C)C(=O)n1c(C(N)=O)cc2ccc(C(F)(F)F)cc21)[N+](=O)O

>  <score_type>  (6) 
oracle

>  <origin>  (6) 
adg

>  <m_score__min__energy>  (6) 
-11.01

>  <m_primary>  (6) 
energy

$$$$
7:0
     RDKit          3D

 39 40  0  0  0  0  0  0  0  0999 V2000
   -0.7390   23.1250  -29.6200 C   0  0  0  0  0  0  0  0  0  0  0  0
   -2.1580   23.4670  -29.4360 N   0  0  0  0  0  0  0  0  0  0  0  0
   -2.4500   24.0380  -28.0990 C   0  0  0  0  0  0  0  0  0  0  0  0
   -1.7740   25.3960  -27.8220 C   0  0  0  0  0  0  0  0  0  0  0  0
   -1.3580   25.9800  -29.0270 O   0  0  0  0  0  0  0  0  0  0  0  0
   -3.0530   22.3510  -29.8060 C   0  0  0  0  0  0  0  0  0  0  0  0
   -3.7090   22.6470  -31.1220 C   0  0  0  0  0  0  0  0  0  0  0  0
   -3.0240   22.6470  -32.1790 O   0  0  0  0  0  0  0  0  0  0  0  0
   -5.1240   22.8750  -31.1900 N   0  0  0  0  0  0  0  0  0  0  0  0
   -5.8040   24.0120  -30.8700 C   0  0  0  0  0  0  0  0  0  0  0  0
   -5.2060   25.2870  -30.4200 C   0  0  0  0  0  0  0  0  0  0  0  0
   -3.8720   25.6420  -30.7710 N   0  0  0  0  0  0  0  0  0  0  0  0
   -5.8890   26.0840  -29.7220 O   0  0  0  0  0  0  0  0  0  0  0  0
   -7.1730   23.8270  -31.0630 C   0  0  0  0  0  0  0  0  0  0  0  0
   -7.3080   22.5310  -31.5070 C   0  0  0  0  0  0  0  0  0  0  0  0
   -8.4510   21.8160  -31.8520 C   0  0  0  0  0  0  0  0  0  0  0  0
   -8.2930   20.4810  -32.2640 C   0  0  0  0  0  0  0  0  0  0  0  0
   -7.0080   19.8790  -32.2960 C   0  0  0  0  0  0  0  0  0  0  0  0
   -6.8400   18.4580  -32.7750 C   0  0  0  0  0  0  0  0  0  0  0  0
   -6.4770   18.4680  -34.1080 F   0  0  0  0  0  0  0  0  0  0  0  0
   -8.0190   17.7470  -32.6340 F   0  0  0  0  0  0  0  0  0  0  0  0
   -5.8570   17.8150  -32.0430 F   0  0  0  0  0  0  0  0  0  0  0  0
   -5.8700   20.6470  -31.9560 C   0  0  0  0  0  0  0  0  0  0  0  0
   -6.0570   21.9780  -31.5710 C   0  0  0  0  0  0  0  0  0  0  0  0
   -0.2592   23.0094  -28.6369 H   0  0  0  0  0  0  0  0  0  0  0  0
   -0.6588   22.1818  -30.1803 H   0  0  0  0  0  0  0  0  0  0  0  0
   -0.2379   23.9281  -30.1803 H   0  0  0  0  0  0  0  0  0  0  0  0
   -3.5384   24.1721  -28.0130 H   0  0  0  0  0  0  0  0  0  0  0  0
   -2.0441   23.3303  -27.3612 H   0  0  0  0  0  0  0  0  0  0  0  0
   -2.4905   26.0641  -27.3218 H   0  0  0  0  0  0  0  0  0  0  0  0
   -0.8976   25.2377  -27.1763 H   0  0  0  0  0  0  0  0  0  0  0  0
   -1.9930   25.6730  -29.7250 H   0  0  0  0  0  0  0  0  0  0  0  0
   -2.4669   21.4239  -29.8895 H   0  0  0  0  0  0  0  0  0  0  0  0
   -3.8252   22.2301  -29.0320 H   0  0  0  0  0  0  0  0  0  0  0  0
   -3.0570   25.2820  -30.2270 H   0  0  0  0  0  0  0  0  0  0  0  0
   -7.9749   24.5612  -30.8958 H   0  0  0  0  0  0  0  0  0  0  0  0
   -9.4469   22.2807  -31.8039 H   0  0  0  0  0  0  0  0  0  0  0  0
   -9.1750   19.8966  -32.5649 H   0  0  0  0  0  0  0  0  0  0  0  0
   -4.8622   20.2077  -31.9936 H   0  0  0  0  0  0  0  0  0  0  0  0
  1  2  1  0
  2  3  1  0
  3  4  1  0
  4  5  1  0
  2  6  1  0
  6  7  1  0
  7  8  2  0
  7  9  1  0
  9 10  1  0
 10 11  1  0
 11 12  1  0
 11 13  2  0
 10 14  2  0
 14 15  1  0
 15 16  2  0
 16 17  1  0
 17 18  2  0
 18 19  1  0
 19 20  1  0
 19 21  1  0
 19 22  1  0
 18 23  1  0
 23 24  2  0
 24  9  1  0
 24 15  1  0
  1 25  1  0
  1 26  1  0
  1 27  1  0
  3 28  1  0
  3 29  1  0
  4 30  1  0
  4 31  1  0
  5 32  1  0
  6 33  1  0
  6 34  1  0
 12 35  1  0
 14 36  1  0
 16 37  1  0
 17 38  1  0
 23 39  1  0
M  CHG  1  12  -1
M  END
>  <UniqueID>  (7) 
7

>  <SMILES>  (7) 
CN(CCO)CC(=O)n1c(C([NH-])=O)cc2ccc(C(F)(F)F)cc21

>  <Energy>  (7) 
82.06441720432969

>  <Genealogy>  (7) 
CN(CCO)CC(=O)n1c(C([NH-])=O)cc2ccc(C(F)(F)F)cc21 (protonated)
CN(CCO)CC(=O)n1c(C([NH-])=O)cc2ccc(C(F)(F)F)cc21 (3D coordinates assigned)
CN(CCO)CC(=O)n1c(C([NH-])=O)cc2ccc(C(F)(F)F)cc21 (optimized conformer: 82.06441720432969 kcal/mol)

>  <smiles>  (7) 
CN(CCO)CC(=O)n1c(C(N)=O)cc2ccc(C(F)(F)F)cc21

>  <score_type>  (7) 
oracle

>  <origin>  (7) 
adg

>  <m_score__min__energy>  (7) 
-10.35

>  <m_primary>  (7) 
energy

$$$$
8:0
     RDKit          3D

 43 44  0  0  0  0  0  0  0  0999 V2000
   -1.1600   24.4320  -26.3940 C   0  0  0  0  0  0  0  0  0  0  0  0
   -1.2260   23.8250  -27.7270 N   0  0  0  0  0  0  0  0  0  0  0  0
   -0.1280   22.9520  -28.1680 C   0  0  0  0  0  0  0  0  0  0  0  0
   -0.5450   22.1500  -29.3990 C   0  0  0  0  0  0  0  0  0  0  0  0
   -0.8000   23.0250  -30.4620 O   0  0  0  0  0  0  0  0  0  0  0  0
   -2.4040   24.0500  -28.5380 C   0  0  0  0  0  0  0  0  0  0  0  0
   -2.4300   25.0230  -29.3420 O   0  0  0  0  0  0  0  0  0  0  0  0
   -3.5900   23.1310  -28.5010 C   0  0  0  0  0  0  0  0  0  0  0  0
   -3.5520   22.2460  -29.6550 N   0  0  0  0  0  0  0  0  0  0  0  0
   -4.0960   22.6040  -30.9280 C   0  0  0  0  0  0  0  0  0  0  0  0
   -3.3320   22.7450  -31.9230 O   0  0  0  0  0  0  0  0  0  0  0  0
   -5.5090   22.8170  -31.0710 N   0  0  0  0  0  0  0  0  0  0  0  0
   -6.1810   23.9970  -30.9610 C   0  0  0  0  0  0  0  0  0  0  0  0
   -5.6060   25.2820  -30.5140 C   0  0  0  0  0  0  0  0  0  0  0  0
   -4.2490   25.6260  -30.8030 N   0  0  0  0  0  0  0  0  0  0  0  0
   -6.3070   26.0660  -29.8220 O   0  0  0  0  0  0  0  0  0  0  0  0
   -7.5260   23.8290  -31.2820 C   0  0  0  0  0  0  0  0  0  0  0  0
   -7.6630   22.4940  -31.5820 C   0  0  0  0  0  0  0  0  0  0  0  0
   -8.7880   21.7790  -31.9840 C   0  0  0  0  0  0  0  0  0  0  0  0
   -8.6340   20.4120  -32.2690 C   0  0  0  0  0  0  0  0  0  0  0  0
   -7.3650   19.7910  -32.1560 C   0  0  0  0  0  0  0  0  0  0  0  0
   -7.2000   18.3340  -32.4830 C   0  0  0  0  0  0  0  0  0  0  0  0
   -6.3690   18.1960  -33.5800 F   0  0  0  0  0  0  0  0  0  0  0  0
   -6.6440   17.6720  -31.4040 F   0  0  0  0  0  0  0  0  0  0  0  0
   -6.2450   20.5490  -31.7510 C   0  0  0  0  0  0  0  0  0  0  0  0
   -6.4310   21.9050  -31.4510 C   0  0  0  0  0  0  0  0  0  0  0  0
   -1.2454   23.6464  -25.6288 H   0  0  0  0  0  0  0  0  0  0  0  0
   -0.1997   24.9554  -26.2766 H   0  0  0  0  0  0  0  0  0  0  0  0
   -1.9854   25.1496  -26.2766 H   0  0  0  0  0  0  0  0  0  0  0  0
    0.7476   23.5693  -28.4175 H   0  0  0  0  0  0  0  0  0  0  0  0
    0.1201   22.2536  -27.3552 H   0  0  0  0  0  0  0  0  0  0  0  0
    0.2646   21.4598  -29.6784 H   0  0  0  0  0  0  0  0  0  0  0  0
   -1.4547   21.5751  -29.1711 H   0  0  0  0  0  0  0  0  0  0  0  0
   -1.7760   23.2030  -30.4440 H   0  0  0  0  0  0  0  0  0  0  0  0
   -3.5618   22.5325  -27.5785 H   0  0  0  0  0  0  0  0  0  0  0  0
   -4.5157   23.7248  -28.5238 H   0  0  0  0  0  0  0  0  0  0  0  0
   -3.8730   26.5570  -30.5160 H   0  0  0  0  0  0  0  0  0  0  0  0
   -3.5920   24.9280  -31.2160 H   0  0  0  0  0  0  0  0  0  0  0  0
   -8.3109   24.5996  -31.2931 H   0  0  0  0  0  0  0  0  0  0  0  0
   -9.7682   22.2698  -32.0757 H   0  0  0  0  0  0  0  0  0  0  0  0
   -9.5056   19.8187  -32.5825 H   0  0  0  0  0  0  0  0  0  0  0  0
   -8.1860   17.9021  -32.7093 H   0  0  0  0  0  0  0  0  0  0  0  0
   -5.2502   20.0862  -31.6728 H   0  0  0  0  0  0  0  0  0  0  0  0
  1  2  1  0
  2  3  1  0
  3  4  1  0
  4  5  1  0
  2  6  1  0
  6  7  2  0
  6  8  1  0
  8  9  1  0
  9 10  1  0
 10 11  2  0
 10 12  1  0
 12 13  1  0
 13 14  1  0
 14 15  1  0
 14 16  2  0
 13 17  2  0
 17 18  1  0
 18 19  2  0
 19 20  1  0
 20 21  2  0
 21 22  1  0
 22 23  1  0
 22 24  1  0
 21 25  1  0
 25 26  2  0
 26 12  1  0
 26 18  1  0
  1 27  1  0
  1 28  1  0
  1 29  1  0
  3 30  1  0
  3 31  1  0
  4 32  1  0
  4 33  1  0
  5 34  1  0
  8 35  1  0
  8 36  1  0
 15 37  1  0
 15 38  1  0
 17 39  1  0
 19 40  1  0
 20 41  1  0
 22 42  1  0
 25 43  1  0
M  CHG  1   9  -1
M  END
>  <UniqueID>  (8) 
8

>  <SMILES>  (8) 
CN(CCO)C(=O)C[N-]C(=O)n1c(C(N)=O)cc2ccc(C(F)F)cc21

>  <Energy>  (8) 
74.40809263242484

>  <Genealogy>  (8) 
CN(CCO)C(=O)C[N-]C(=O)n1c(C(N)=O)cc2ccc(C(F)F)cc21 (protonated)
CN(CCO)C(=O)C[N-]C(=O)n1c(C(N)=O)cc2ccc(C(F)F)cc21 (3D coordinates assigned)
CN(CCO)C(=O)C[N-]C(=O)n1c(C(N)=O)cc2ccc(C(F)F)cc21 (optimized conformer: 74.40809263242484 kcal/mol)

>  <smiles>  (8) 
CN(CCO)C(=O)CNC(=O)n1c(C(N)=O)cc2ccc(C(F)F)cc21

>  <score_type>  (8) 
oracle

>  <origin>  (8) 
adg

>  <m_score__min__energy>  (8) 
-8.2699999999999996

>  <m_primary>  (8) 
energy

$$$$
9:0
     RDKit          3D

 40 41  0  0  0  0  0  0  0  0999 V2000
   -3.1110   24.6970  -31.1070 H   0  0  0  0  0  0  0  0  0  0  0  0
   -3.6890   25.2890  -30.4720 N   0  0  0  0  0  0  0  0  0  0  0  0
   -5.1100   25.3060  -30.5780 C   0  0  0  0  0  0  0  0  0  0  0  0
   -5.7300   26.3780  -30.3620 O   0  0  0  0  0  0  0  0  0  0  0  0
   -5.8340   24.0770  -30.9670 C   0  0  0  0  0  0  0  0  0  0  0  0
   -7.2200   24.0000  -31.0760 C   0  0  0  0  0  0  0  0  0  0  0  0
   -7.9458   24.8155  -30.9415 H   0  0  0  0  0  0  0  0  0  0  0  0
   -7.4890   22.6860  -31.3880 C   0  0  0  0  0  0  0  0  0  0  0  0
   -8.7060   22.0490  -31.6160 C   0  0  0  0  0  0  0  0  0  0  0  0
   -9.6559   22.5994  -31.5468 H   0  0  0  0  0  0  0  0  0  0  0  0
   -8.6830   20.6820  -31.9370 C   0  0  0  0  0  0  0  0  0  0  0  0
   -9.6289   20.1465  -32.1056 H   0  0  0  0  0  0  0  0  0  0  0  0
   -7.4530   19.9850  -32.0460 C   0  0  0  0  0  0  0  0  0  0  0  0
   -7.4410   18.5210  -32.3710 C   0  0  0  0  0  0  0  0  0  0  0  0
   -7.0722   17.9568  -31.5018 H   0  0  0  0  0  0  0  0  0  0  0  0
   -8.4621   18.1948  -32.6177 H   0  0  0  0  0  0  0  0  0  0  0  0
   -6.3750   18.2230  -33.7650 Cl  0  0  0  0  0  0  0  0  0  0  0  0
   -6.2400   20.6640  -31.8010 C   0  0  0  0  0  0  0  0  0  0  0  0
   -5.2760   20.1396  -31.8764 H   0  0  0  0  0  0  0  0  0  0  0  0
   -6.2930   22.0200  -31.4600 C   0  0  0  0  0  0  0  0  0  0  0  0
   -5.2670   22.8600  -31.2030 N   0  0  0  0  0  0  0  0  0  0  0  0
   -3.8690   22.5350  -31.2380 C   0  0  0  0  0  0  0  0  0  0  0  0
   -3.1590   22.7190  -30.2120 O   0  0  0  0  0  0  0  0  0  0  0  0
   -3.2750   21.9710  -32.4650 C   0  0  0  0  0  0  0  0  0  0  0  0
   -3.1795   22.6164  -33.3507 H   0  0  0  0  0  0  0  0  0  0  0  0
   -2.8480   20.7060  -32.5430 C   0  0  0  0  0  0  0  0  0  0  0  0
   -2.9127   20.0617  -31.6538 H   0  0  0  0  0  0  0  0  0  0  0  0
   -2.2790   20.1410  -33.8230 C   0  0  0  0  0  0  0  0  0  0  0  0
   -3.0345   20.2433  -34.6160 H   0  0  0  0  0  0  0  0  0  0  0  0
   -2.0217   19.0893  -33.6289 H   0  0  0  0  0  0  0  0  0  0  0  0
   -1.0390   20.8220  -34.2640 N   0  0  0  0  0  0  0  0  0  0  0  0
   -1.3280   21.7050  -34.7490 H   0  0  0  0  0  0  0  0  0  0  0  0
   -0.1860   21.2090  -33.1260 C   0  0  0  0  0  0  0  0  0  0  0  0
   -0.7030   20.9744  -32.1838 H   0  0  0  0  0  0  0  0  0  0  0  0
    0.7619   20.6528  -33.1724 H   0  0  0  0  0  0  0  0  0  0  0  0
    0.0197   22.2886  -33.1724 H   0  0  0  0  0  0  0  0  0  0  0  0
   -0.2810   20.0170  -35.2360 C   0  0  0  0  0  0  0  0  0  0  0  0
    0.3772   19.3180  -34.6992 H   0  0  0  0  0  0  0  0  0  0  0  0
   -0.9808   19.4501  -35.8675 H   0  0  0  0  0  0  0  0  0  0  0  0
    0.3270   20.6815  -35.8675 H   0  0  0  0  0  0  0  0  0  0  0  0
  1  2  1  0
  2  3  1  0
  3  4  2  0
  3  5  1  0
  5  6  2  0
  6  7  1  0
  6  8  1  0
  8  9  2  0
  9 10  1  0
  9 11  1  0
 11 12  1  0
 11 13  2  0
 13 14  1  0
 14 15  1  0
 14 16  1  0
 14 17  1  0
 13 18  1  0
 18 19  1  0
 18 20  2  0
 20 21  1  0
 21 22  1  0
 22 23  2  0
 22 24  1  0
 24 25  1  0
 24 26  2  0
 26 27  1  0
 26 28  1  0
 28 29  1  0
 28 30  1  0
 28 31  1  0
 31 32  1  0
 31 33  1  0
 33 34  1  0
 33 35  1  0
 33 36  1  0
 31 37  1  0
 37 38  1  0
 37 39  1  0
 37 40  1  0
 21  5  1  0
 20  8  1  0
M  CHG  2   2  -1  31   1
M  END
>  <UniqueID>  (9) 
9

>  <SMILES>  (9) 
C[NH+](C)C/C=C/C(=O)n1c(C([NH-])=O)cc2ccc(CCl)cc21

>  <Energy>  (9) 
77.9592069526167

>  <Genealogy>  (9) 
C[NH+](C)C/C=C/C(=O)n1c(C([NH-])=O)cc2ccc(CCl)cc21 (protonated)
C[NH+](C)C/C=C/C(=O)n1c(C([NH-])=O)cc2ccc(CCl)cc21 (cis-trans isomerization)
C[NH+](C)C/C=C/C(=O)n1c(C([NH-])=O)cc2ccc(CCl)cc21 (3D coordinates assigned)
C[NH+](C)C/C=C/C(=O)n1c(C([NH-])=O)cc2ccc(CCl)cc21 (optimized conformer: 77.9592069526167 kcal/mol)

>  <smiles>  (9) 
CN(C)C/C=C/C(=O)n1c(C(N)=O)cc2ccc(CCl)cc21

>  <score_type>  (9) 
oracle

>  <origin>  (9) 
adg

>  <m_score__min__energy>  (9) 
-10.029999999999999

>  <m_primary>  (9) 
energy

$$$$
10:0
     RDKit          3D

 36 37  0  0  0  0  0  0  0  0999 V2000
   -3.1720   24.9140  -30.9570 H   0  0  0  0  0  0  0  0  0  0  0  0
   -3.8960   25.6580  -30.8360 N   0  0  0  0  0  0  0  0  0  0  0  0
   -5.2450   25.3240  -30.5250 C   0  0  0  0  0  0  0  0  0  0  0  0
   -5.9910   26.1940  -30.0010 O   0  0  0  0  0  0  0  0  0  0  0  0
   -5.7920   23.9900  -30.8470 C   0  0  0  0  0  0  0  0  0  0  0  0
   -7.1310   23.7560  -31.1620 C   0  0  0  0  0  0  0  0  0  0  0  0
   -7.9538   24.4861  -31.1620 H   0  0  0  0  0  0  0  0  0  0  0  0
   -7.2030   22.4160  -31.4730 C   0  0  0  0  0  0  0  0  0  0  0  0
   -8.2910   21.6410  -31.8540 C   0  0  0  0  0  0  0  0  0  0  0  0
   -9.2921   22.0841  -31.9608 H   0  0  0  0  0  0  0  0  0  0  0  0
   -8.0750   20.2740  -32.0990 C   0  0  0  0  0  0  0  0  0  0  0  0
   -8.9194   19.6382  -32.4035 H   0  0  0  0  0  0  0  0  0  0  0  0
   -6.7800   19.7000  -31.9590 C   0  0  0  0  0  0  0  0  0  0  0  0
   -6.5650   18.2870  -32.2020 N   0  0  0  0  0  0  0  0  0  0  0  0
   -6.1220   17.4110  -31.1120 C   0  0  0  0  0  0  0  0  0  0  0  0
   -6.3590   17.8797  -30.1455 H   0  0  0  0  0  0  0  0  0  0  0  0
   -6.6389   16.4429  -31.1866 H   0  0  0  0  0  0  0  0  0  0  0  0
   -5.0359   17.2535  -31.1866 H   0  0  0  0  0  0  0  0  0  0  0  0
   -6.8420   17.6910  -33.5150 C   0  0  0  0  0  0  0  0  0  0  0  0
   -7.1051   16.6310  -33.3844 H   0  0  0  0  0  0  0  0  0  0  0  0
   -7.6775   18.2308  -33.9847 H   0  0  0  0  0  0  0  0  0  0  0  0
   -5.6600   17.7940  -34.3790 C   0  0  0  0  0  0  0  0  0  0  0  0
   -4.7270   17.8750  -35.0590 N   0  0  0  0  0  0  0  0  0  0  0  0
   -5.7010   20.5310  -31.5650 C   0  0  0  0  0  0  0  0  0  0  0  0
   -4.6899   20.1162  -31.4397 H   0  0  0  0  0  0  0  0  0  0  0  0
   -5.9480   21.8880  -31.3390 C   0  0  0  0  0  0  0  0  0  0  0  0
   -5.0730   22.8380  -30.9510 N   0  0  0  0  0  0  0  0  0  0  0  0
   -3.6890   22.6230  -30.6460 C   0  0  0  0  0  0  0  0  0  0  0  0
   -2.8350   22.7070  -31.5680 O   0  0  0  0  0  0  0  0  0  0  0  0
   -3.2800   22.3400  -29.2530 C   0  0  0  0  0  0  0  0  0  0  0  0
   -3.7239   21.4568  -28.7705 H   0  0  0  0  0  0  0  0  0  0  0  0
   -2.4160   23.0640  -28.5250 C   0  0  0  0  0  0  0  0  0  0  0  0
   -2.3479   22.8340  -27.4515 H   0  0  0  0  0  0  0  0  0  0  0  0
   -1.5500   24.1410  -29.0390 C   0  0  0  0  0  0  0  0  0  0  0  0
   -2.0280   25.2950  -29.1920 O   0  0  0  0  0  0  0  0  0  0  0  0
   -0.1950   23.9330  -29.2650 O   0  0  0  0  0  0  0  0  0  0  0  0
  1  2  1  0
  2  3  1  0
  3  4  2  0
  3  5  1  0
  5  6  2  0
  6  7  1  0
  6  8  1  0
  8  9  2  0
  9 10  1  0
  9 11  1  0
 11 12  1  0
 11 13  2  0
 13 14  1  0
 14 15  1  0
 15 16  1  0
 15 17  1  0
 15 18  1  0
 14 19  1  0
 19 20  1  0
 19 21  1  0
 19 22  1  0
 22 23  3  0
 13 24  1  0
 24 25  1  0
 24 26  2  0
 26 27  1  0
 27 28  1  0
 28 29  2  0
 28 30  1  0
 30 31  1  0
 30 32  2  0
 32 33  1  0
 32 34  1  0
 34 35  2  0
 34 36  1  0
 27  5  1  0
 26  8  1  0
M  CHG  2   2  -1  36  -1
M  END
>  <UniqueID>  (10) 
10

>  <SMILES>  (10) 
CN(CC#N)c1ccc2cc(C([NH-])=O)n(C(=O)/C=C\C(=O)[O-])c2c1

>  <Energy>  (10) 
83.11187054156596

>  <Genealogy>  (10) 
CN(CC#N)c1ccc2cc(C([NH-])=O)n(C(=O)/C=C\C(=O)[O-])c2c1 (protonated)
CN(CC#N)c1ccc2cc(C([NH-])=O)n(C(=O)/C=C\C(=O)[O-])c2c1 (cis-trans isomerization)
CN(CC#N)c1ccc2cc(C([NH-])=O)n(C(=O)/C=C\C(=O)[O-])c2c1 (3D coordinates assigned)
CN(CC#N)c1ccc2cc(C([NH-])=O)n(C(=O)/C=C\C(=O)[O-])c2c1 (optimized conformer: 83.11187054156596 kcal/mol)

>  <smiles>  (10) 
CN(CC#N)c1ccc2cc(C(N)=O)n(C(=O)/C=C\C(=O)O)c2c1

>  <score_type>  (10) 
oracle

>  <origin>  (10) 
adg

>  <m_score__min__energy>  (10) 
-12.44

>  <m_primary>  (10) 
energy

$$$$
11:0
     RDKit          3D

 43 44  0  0  0  0  0  0  0  0999 V2000
   -0.8340   20.8580  -29.8220 C   0  0  0  0  0  0  0  0  0  0  0  0
   -1.7500   21.9000  -29.3210 N   0  0  1  0  0  0  0  0  0  0  0  0
   -3.1610   21.6470  -29.6950 C   0  0  0  0  0  0  0  0  0  0  0  0
   -3.6590   22.5140  -30.8300 C   0  0  0  0  0  0  0  0  0  0  0  0
   -2.8300   23.0540  -31.6110 O   0  0  0  0  0  0  0  0  0  0  0  0
   -5.0660   22.7010  -31.0550 N   0  0  0  0  0  0  0  0  0  0  0  0
   -5.8120   23.8210  -30.8380 C   0  0  0  0  0  0  0  0  0  0  0  0
   -5.2870   25.1500  -30.4660 C   0  0  0  0  0  0  0  0  0  0  0  0
   -3.8780   25.3600  -30.3870 N   0  0  0  0  0  0  0  0  0  0  0  0
   -6.0700   26.0950  -30.1830 O   0  0  0  0  0  0  0  0  0  0  0  0
   -7.1550   23.5730  -31.1180 C   0  0  0  0  0  0  0  0  0  0  0  0
   -7.2040   22.2640  -31.5400 C   0  0  0  0  0  0  0  0  0  0  0  0
   -8.2890   21.4920  -31.9470 C   0  0  0  0  0  0  0  0  0  0  0  0
   -8.0440   20.1620  -32.3270 C   0  0  0  0  0  0  0  0  0  0  0  0
   -6.7290   19.6340  -32.3020 C   0  0  0  0  0  0  0  0  0  0  0  0
   -6.4780   18.2030  -32.6820 C   0  0  0  0  0  0  0  0  0  0  0  0
   -6.1400   18.1320  -34.0210 F   0  0  0  0  0  0  0  0  0  0  0  0
   -7.6150   17.4490  -32.4580 F   0  0  0  0  0  0  0  0  0  0  0  0
   -5.6550   20.4460  -31.8780 C   0  0  0  0  0  0  0  0  0  0  0  0
   -5.9290   21.7650  -31.5030 C   0  0  0  0  0  0  0  0  0  0  0  0
   -1.6080   22.1130  -27.8900 C   0  0  0  0  0  0  0  0  0  0  0  0
   -0.8500   21.4150  -27.2280 O   0  0  0  0  0  0  0  0  0  0  0  0
   -2.3980   23.1870  -27.1870 C   0  0  0  0  0  0  0  0  0  0  0  0
   -1.6390   24.5180  -27.1910 C   0  0  0  0  0  0  0  0  0  0  0  0
   -1.0530   24.7880  -28.5410 C   0  0  0  0  0  0  0  0  0  0  0  0
   -1.5870   25.6350  -29.3050 O   0  0  0  0  0  0  0  0  0  0  0  0
    0.0670   24.0840  -28.9670 O   0  0  0  0  0  0  0  0  0  0  0  0
   -0.3737   20.3344  -28.9711 H   0  0  0  0  0  0  0  0  0  0  0  0
   -1.3971   20.1383  -30.4343 H   0  0  0  0  0  0  0  0  0  0  0  0
   -0.0480   21.3242  -30.4343 H   0  0  0  0  0  0  0  0  0  0  0  0
   -1.4670   22.7870  -29.8040 H   0  0  0  0  0  0  0  0  0  0  0  0
   -3.2558   20.5934  -29.9966 H   0  0  0  0  0  0  0  0  0  0  0  0
   -3.7734   21.8909  -28.8144 H   0  0  0  0  0  0  0  0  0  0  0  0
   -3.2630   25.1830  -31.2100 H   0  0  0  0  0  0  0  0  0  0  0  0
   -7.9967   24.2746  -31.0220 H   0  0  0  0  0  0  0  0  0  0  0  0
   -9.3060   21.9105  -31.9702 H   0  0  0  0  0  0  0  0  0  0  0  0
   -8.8810   19.5241  -32.6471 H   0  0  0  0  0  0  0  0  0  0  0  0
   -5.6535   17.8088  -32.0698 H   0  0  0  0  0  0  0  0  0  0  0  0
   -4.6288   20.0513  -31.8435 H   0  0  0  0  0  0  0  0  0  0  0  0
   -3.3610   23.3204  -27.7016 H   0  0  0  0  0  0  0  0  0  0  0  0
   -2.5584   22.8780  -26.1435 H   0  0  0  0  0  0  0  0  0  0  0  0
   -2.3330   25.3303  -26.9295 H   0  0  0  0  0  0  0  0  0  0  0  0
   -0.8228   24.4622  -26.4557 H   0  0  0  0  0  0  0  0  0  0  0  0
  1  2  1  0
  2  3  1  0
  3  4  1  0
  4  5  2  0
  4  6  1  0
  6  7  1  0
  7  8  1  0
  8  9  1  0
  8 10  2  0
  7 11  2  0
 11 12  1  0
 12 13  2  0
 13 14  1  0
 14 15  2  0
 15 16  1  0
 16 17  1  0
 16 18  1  0
 15 19  1  0
 19 20  2  0
  2 21  1  0
 21 22  2  0
 21 23  1  0
 23 24  1  0
 24 25  1  0
 25 26  2  0
 25 27  1  0
 20  6  1  0
 20 12  1  0
  1 28  1  0
  1 29  1  0
  1 30  1  0
  2 31  1  6
  3 32  1  0
  3 33  1  0
  9 34  1  0
 11 35  1  0
 13 36  1  0
 14 37  1  0
 16 38  1  0
 19 39  1  0
 23 40  1  0
 23 41  1  0
 24 42  1  0
 24 43  1  0
M  CHG  3   2   1   9  -1  27  -1
M  END
>  <UniqueID>  (11) 
11

>  <SMILES>  (11) 
C[N@@H+](CC(=O)n1c(C([NH-])=O)cc2ccc(C(F)F)cc21)C(=O)CCC(=O)[O-]

>  <Energy>  (11) 
78.71225909973171

>  <Genealogy>  (11) 
C[NH+](CC(=O)n1c(C([NH-])=O)cc2ccc(C(F)F)cc21)C(=O)CCC(=O)[O-] (protonated)
C[N@@H+](CC(=O)n1c(C([NH-])=O)cc2ccc(C(F)F)cc21)C(=O)CCC(=O)[O-] (chirality)
C[N@@H+](CC(=O)n1c(C([NH-])=O)cc2ccc(C(F)F)cc21)C(=O)CCC(=O)[O-] (3D coordinates assigned)
C[N@@H+](CC(=O)n1c(C([NH-])=O)cc2ccc(C(F)F)cc21)C(=O)CCC(=O)[O-] (optimized conformer: 78.71225909973171 kcal/mol)

>  <smiles>  (11) 
CN(CC(=O)n1c(C(N)=O)cc2ccc(C(F)F)cc21)C(=O)CCC(=O)O

>  <score_type>  (11) 
oracle

>  <origin>  (11) 
adg

>  <m_score__min__energy>  (11) 
-11.539999999999999

>  <m_primary>  (11) 
energy

$$$$
12:0
     RDKit          3D

 46 47  0  0  0  0  0  0  0  0999 V2000
   -0.8340   21.3870  -29.5310 C   0  0  0  0  0  0  0  0  0  0  0  0
   -2.0620   22.0620  -29.0750 N   0  0  2  0  0  0  0  0  0  0  0  0
   -2.3230   21.8580  -27.6290 C   0  0  0  0  0  0  0  0  0  0  0  0
   -2.0460   23.0960  -26.7340 C   0  0  0  0  0  0  0  0  0  0  0  0
   -2.6290   24.4140  -27.3050 C   0  0  2  0  0  0  0  0  0  0  0  0
   -3.5970   24.1130  -28.2770 O   0  0  0  0  0  0  0  0  0  0  0  0
   -1.5470   25.2850  -27.9640 C   0  0  0  0  0  0  0  0  0  0  0  0
   -1.6860   25.2790  -29.3580 O   0  0  0  0  0  0  0  0  0  0  0  0
   -3.2150   21.7100  -29.8850 C   0  0  0  0  0  0  0  0  0  0  0  0
   -3.7710   20.5840  -29.7530 O   0  0  0  0  0  0  0  0  0  0  0  0
   -3.7870   22.6750  -30.8470 C   0  0  0  0  0  0  0  0  0  0  0  0
   -3.0270   23.4200  -31.5230 O   0  0  0  0  0  0  0  0  0  0  0  0
   -5.2080   22.8120  -30.9830 N   0  0  0  0  0  0  0  0  0  0  0  0
   -5.9710   23.9230  -30.7810 C   0  0  0  0  0  0  0  0  0  0  0  0
   -5.4920   25.2180  -30.2500 C   0  0  0  0  0  0  0  0  0  0  0  0
   -4.1690   25.6750  -30.5150 N   0  0  0  0  0  0  0  0  0  0  0  0
   -6.2520   25.9150  -29.5270 O   0  0  0  0  0  0  0  0  0  0  0  0
   -7.3050   23.6590  -31.0880 C   0  0  0  0  0  0  0  0  0  0  0  0
   -7.3350   22.3380  -31.4790 C   0  0  0  0  0  0  0  0  0  0  0  0
   -8.4010   21.5510  -31.9050 C   0  0  0  0  0  0  0  0  0  0  0  0
   -8.1320   20.2210  -32.2700 C   0  0  0  0  0  0  0  0  0  0  0  0
   -6.8150   19.7030  -32.1930 C   0  0  0  0  0  0  0  0  0  0  0  0
   -6.5330   18.2960  -32.6280 C   0  0  0  0  0  0  0  0  0  0  0  0
   -6.3000   17.5070  -31.5170 F   0  0  0  0  0  0  0  0  0  0  0  0
   -5.7560   20.5360  -31.7680 C   0  0  0  0  0  0  0  0  0  0  0  0
   -6.0560   21.8510  -31.4020 C   0  0  0  0  0  0  0  0  0  0  0  0
   -0.2472   21.0645  -28.6583 H   0  0  0  0  0  0  0  0  0  0  0  0
   -1.1017   20.5093  -30.1376 H   0  0  0  0  0  0  0  0  0  0  0  0
   -0.2364   22.0834  -30.1376 H   0  0  0  0  0  0  0  0  0  0  0  0
   -1.8880   23.0870  -29.2090 H   0  0  0  0  0  0  0  0  0  0  0  0
   -3.3802   21.5789  -27.5086 H   0  0  0  0  0  0  0  0  0  0  0  0
   -1.6255   21.0749  -27.2970 H   0  0  0  0  0  0  0  0  0  0  0  0
   -2.4925   22.9175  -25.7447 H   0  0  0  0  0  0  0  0  0  0  0  0
   -0.9543   23.2205  -26.6823 H   0  0  0  0  0  0  0  0  0  0  0  0
   -3.0660   24.9712  -26.4632 H   0  0  0  0  0  0  0  0  0  0  0  0
   -3.7960   24.9590  -28.7580 H   0  0  0  0  0  0  0  0  0  0  0  0
   -1.6414   26.3174  -27.5964 H   0  0  0  0  0  0  0  0  0  0  0  0
   -0.5589   24.8762  -27.7059 H   0  0  0  0  0  0  0  0  0  0  0  0
   -2.4370   24.6610  -29.5570 H   0  0  0  0  0  0  0  0  0  0  0  0
   -3.3380   25.1170  -30.2170 H   0  0  0  0  0  0  0  0  0  0  0  0
   -8.1533   24.3569  -31.0304 H   0  0  0  0  0  0  0  0  0  0  0  0
   -9.4220   21.9574  -31.9544 H   0  0  0  0  0  0  0  0  0  0  0  0
   -8.9516   19.5756  -32.6189 H   0  0  0  0  0  0  0  0  0  0  0  0
   -7.3986   17.9031  -33.1815 H   0  0  0  0  0  0  0  0  0  0  0  0
   -5.6456   18.2845  -33.2779 H   0  0  0  0  0  0  0  0  0  0  0  0
   -4.7232   20.1597  -31.7263 H   0  0  0  0  0  0  0  0  0  0  0  0
  1  2  1  0
  2  3  1  0
  3  4  1  0
  4  5  1  0
  5  6  1  0
  5  7  1  0
  7  8  1  0
  2  9  1  0
  9 10  2  0
  9 11  1  0
 11 12  2  0
 11 13  1  0
 13 14  1  0
 14 15  1  0
 15 16  1  0
 15 17  2  0
 14 18  2  0
 18 19  1  0
 19 20  2  0
 20 21  1  0
 21 22  2  0
 22 23  1  0
 23 24  1  0
 22 25  1  0
 25 26  2  0
 26 13  1  0
 26 19  1  0
  1 27  1  0
  1 28  1  0
  1 29  1  0
  2 30  1  1
  3 31  1  0
  3 32  1  0
  4 33  1  0
  4 34  1  0
  5 35  1  1
  6 36  1  0
  7 37  1  0
  7 38  1  0
  8 39  1  0
 16 40  1  0
 18 41  1  0
 20 42  1  0
 21 43  1  0
 23 44  1  0
 23 45  1  0
 25 46  1  0
M  CHG  2   2   1  16  -1
M  END
>  <UniqueID>  (12) 
12

>  <SMILES>  (12) 
C[N@H+](CC[C@H](O)CO)C(=O)C(=O)n1c(C([NH-])=O)cc2ccc(CF)cc21

>  <Energy>  (12) 
89.26949291934586

>  <Genealogy>  (12) 
C[NH+](CC[C@H](O)CO)C(=O)C(=O)n1c(C([NH-])=O)cc2ccc(CF)cc21 (protonated)
C[N@H+](CC[C@H](O)CO)C(=O)C(=O)n1c(C([NH-])=O)cc2ccc(CF)cc21 (chirality)
C[N@H+](CC[C@H](O)CO)C(=O)C(=O)n1c(C([NH-])=O)cc2ccc(CF)cc21 (3D coordinates assigned)
C[N@H+](CC[C@H](O)CO)C(=O)C(=O)n1c(C([NH-])=O)cc2ccc(CF)cc21 (optimized conformer: 89.26949291934586 kcal/mol)

>  <smiles>  (12) 
CN(CC[C@H](O)CO)C(=O)C(=O)n1c(C(N)=O)cc2ccc(CF)cc21

>  <score_type>  (12) 
oracle

>  <origin>  (12) 
adg

>  <m_score__min__energy>  (12) 
-8.7799999999999994

>  <m_primary>  (12) 
energy

$$$$
13:0
     RDKit          3D

 37 38  0  0  0  0  0  0  0  0999 V2000
   -4.0790   25.6750  -30.8280 N   0  0  0  0  0  0  0  0  0  0  0  0
   -5.2900   25.0390  -30.4310 C   0  0  0  0  0  0  0  0  0  0  0  0
   -6.0320   25.6020  -29.5810 O   0  0  0  0  0  0  0  0  0  0  0  0
   -5.6630   23.7130  -30.9660 C   0  0  0  0  0  0  0  0  0  0  0  0
   -6.9260   23.4150  -31.4740 C   0  0  0  0  0  0  0  0  0  0  0  0
   -6.8930   22.0690  -31.7650 C   0  0  0  0  0  0  0  0  0  0  0  0
   -7.8750   21.2420  -32.3040 C   0  0  0  0  0  0  0  0  0  0  0  0
   -7.5520   19.8920  -32.5200 C   0  0  0  0  0  0  0  0  0  0  0  0
   -6.2630   19.3960  -32.1970 C   0  0  0  0  0  0  0  0  0  0  0  0
   -5.9320   17.9540  -32.4550 C   0  0  0  0  0  0  0  0  0  0  0  0
   -7.0570   17.1730  -32.2540 F   0  0  0  0  0  0  0  0  0  0  0  0
   -5.4980   17.8020  -33.7590 F   0  0  0  0  0  0  0  0  0  0  0  0
   -5.2940   20.2650  -31.6490 C   0  0  0  0  0  0  0  0  0  0  0  0
   -5.6470   21.6010  -31.4380 C   0  0  0  0  0  0  0  0  0  0  0  0
   -4.8780   22.6000  -30.9560 N   0  0  0  0  0  0  0  0  0  0  0  0
   -3.4940   22.4940  -30.5920 C   0  0  0  0  0  0  0  0  0  0  0  0
   -2.6840   23.3900  -30.9540 O   0  0  0  0  0  0  0  0  0  0  0  0
   -3.0130   21.3770  -29.7070 C   0  0  0  0  0  0  0  0  0  0  0  0
   -1.8540   21.8290  -28.8070 C   0  0  0  0  0  0  0  0  0  0  0  0
   -2.2070   23.0820  -27.9980 C   0  0  0  0  0  0  0  0  0  0  0  0
   -0.9670   24.3490  -28.2010 S   0  0  0  0  0  0  0  0  0  0  0  0
   -1.6130   25.6780  -29.0990 N   0  0  0  0  0  0  0  0  0  0  0  0
    0.2030   23.7740  -28.9490 O   0  0  0  0  0  0  0  0  0  0  0  0
   -0.5030   24.8290  -26.8540 O   0  0  0  0  0  0  0  0  0  0  0  0
   -3.1500   25.2800  -30.5570 H   0  0  0  0  0  0  0  0  0  0  0  0
   -7.7696   24.1072  -31.6130 H   0  0  0  0  0  0  0  0  0  0  0  0
   -8.8724   21.6335  -32.5529 H   0  0  0  0  0  0  0  0  0  0  0  0
   -8.3063   19.2128  -32.9439 H   0  0  0  0  0  0  0  0  0  0  0  0
   -5.1373   17.6380  -31.7632 H   0  0  0  0  0  0  0  0  0  0  0  0
   -4.2879   19.9001  -31.3949 H   0  0  0  0  0  0  0  0  0  0  0  0
   -3.8464   21.0393  -29.0734 H   0  0  0  0  0  0  0  0  0  0  0  0
   -2.6520   20.5601  -30.3491 H   0  0  0  0  0  0  0  0  0  0  0  0
   -1.6077   21.0145  -28.1099 H   0  0  0  0  0  0  0  0  0  0  0  0
   -0.9984   22.0733  -29.4537 H   0  0  0  0  0  0  0  0  0  0  0  0
   -3.1769   23.4703  -28.3422 H   0  0  0  0  0  0  0  0  0  0  0  0
   -2.2555   22.8083  -26.9337 H   0  0  0  0  0  0  0  0  0  0  0  0
   -2.0640   25.2820  -29.9550 H   0  0  0  0  0  0  0  0  0  0  0  0
  1  2  1  0
  2  3  2  0
  2  4  1  0
  4  5  2  0
  5  6  1  0
  6  7  2  0
  7  8  1  0
  8  9  2  0
  9 10  1  0
 10 11  1  0
 10 12  1  0
  9 13  1  0
 13 14  2  0
 14 15  1  0
 15 16  1  0
 16 17  2  0
 16 18  1  0
 18 19  1  0
 19 20  1  0
 20 21  1  0
 21 22  1  0
 21 23  2  0
 21 24  2  0
 15  4  1  0
 14  6  1  0
  1 25  1  0
  5 26  1  0
  7 27  1  0
  8 28  1  0
 10 29  1  0
 13 30  1  0
 18 31  1  0
 18 32  1  0
 19 33  1  0
 19 34  1  0
 20 35  1  0
 20 36  1  0
 22 37  1  0
M  CHG  2   1  -1  22  -1
M  END
>  <UniqueID>  (13) 
13

>  <SMILES>  (13) 
[NH-]C(=O)c1cc2ccc(C(F)F)cc2n1C(=O)CCCS([NH-])(=O)=O

>  <Energy>  (13) 
66.11689342936073

>  <Genealogy>  (13) 
[NH-]C(=O)c1cc2ccc(C(F)F)cc2n1C(=O)CCCS([NH-])(=O)=O (protonated)
[NH-]C(=O)c1cc2ccc(C(F)F)cc2n1C(=O)CCCS([NH-])(=O)=O (3D coordinates assigned)
[NH-]C(=O)c1cc2ccc(C(F)F)cc2n1C(=O)CCCS([NH-])(=O)=O (optimized conformer: 66.11689342936073 kcal/mol)

>  <smiles>  (13) 
NC(=O)c1cc2ccc(C(F)F)cc2n1C(=O)CCCS(N)(=O)=O

>  <score_type>  (13) 
oracle

>  <origin>  (13) 
adg

>  <m_score__min__energy>  (13) 
-12.960000000000001

>  <m_primary>  (13) 
energy

$$$$
14:0
     RDKit          3D

 60 63  0  0  0  0  0  0  0  0999 V2000
   -2.3950   20.2360  -33.7390 C   0  0  0  0  0  0  0  0  0  0  0  0
   -2.0370   20.9900  -32.4440 C   0  0  0  0  0  0  0  0  0  0  0  0
   -2.3610   20.1320  -31.2070 C   0  0  0  0  0  0  0  0  0  0  0  0
   -0.5340   21.3040  -32.4530 C   0  0  0  0  0  0  0  0  0  0  0  0
   -2.7290   22.2450  -32.3850 O   0  0  0  0  0  0  0  0  0  0  0  0
   -3.4400   22.7520  -31.2890 C   0  0  0  0  0  0  0  0  0  0  0  0
   -2.8440   23.1010  -30.2330 O   0  0  0  0  0  0  0  0  0  0  0  0
   -4.8700   22.8520  -31.3640 N   0  0  0  0  0  0  0  0  0  0  0  0
   -5.6610   23.8970  -30.9850 C   0  0  0  0  0  0  0  0  0  0  0  0
   -5.1920   25.2340  -30.5650 C   0  0  0  0  0  0  0  0  0  0  0  0
   -3.8650   25.6690  -30.8490 N   0  0  0  0  0  0  0  0  0  0  0  0
   -5.9910   26.0240  -29.9930 O   0  0  0  0  0  0  0  0  0  0  0  0
   -7.0070   23.5710  -31.1380 C   0  0  0  0  0  0  0  0  0  0  0  0
   -7.0170   22.2880  -31.6380 C   0  0  0  0  0  0  0  0  0  0  0  0
   -8.0890   21.4690  -31.9810 C   0  0  0  0  0  0  0  0  0  0  0  0
   -7.8050   20.1810  -32.4630 C   0  0  0  0  0  0  0  0  0  0  0  0
   -6.4640   19.7290  -32.5840 C   0  0  0  0  0  0  0  0  0  0  0  0
   -6.1750   18.3660  -33.0960 C   0  0  0  0  0  0  0  0  0  0  0  0
   -7.1420   17.3510  -33.0110 C   0  0  0  0  0  0  0  0  0  0  0  0
   -6.8640   16.0650  -33.4800 C   0  0  0  0  0  0  0  0  0  0  0  0
   -5.6090   15.7610  -34.0290 C   0  0  0  0  0  0  0  0  0  0  0  0
   -5.3160   14.3580  -34.5220 C   0  0  0  0  0  0  0  0  0  0  0  0
   -6.5160   13.6030  -34.9520 N   0  0  0  0  0  0  0  0  0  0  0  0
   -7.2470   12.9720  -33.8380 C   0  0  0  0  0  0  0  0  0  0  0  0
   -8.4510   12.1710  -34.3720 C   0  0  0  0  0  0  0  0  0  0  0  0
   -8.6870   12.4510  -35.7380 O   0  0  0  0  0  0  0  0  0  0  0  0
   -7.5810   12.0190  -36.5140 C   0  0  0  0  0  0  0  0  0  0  0  0
   -6.2510   12.6310  -36.0240 C   0  0  0  0  0  0  0  0  0  0  0  0
   -4.6450   16.7800  -34.1330 C   0  0  0  0  0  0  0  0  0  0  0  0
   -3.4310   16.5320  -34.6870 F   0  0  0  0  0  0  0  0  0  0  0  0
   -4.9260   18.0680  -33.6670 C   0  0  0  0  0  0  0  0  0  0  0  0
   -5.4050   20.5920  -32.2200 C   0  0  0  0  0  0  0  0  0  0  0  0
   -5.7160   21.8770  -31.7640 C   0  0  0  0  0  0  0  0  0  0  0  0
   -2.8541   19.2691  -33.4853 H   0  0  0  0  0  0  0  0  0  0  0  0
   -3.1046   20.8355  -34.3281 H   0  0  0  0  0  0  0  0  0  0  0  0
   -1.4819   20.0651  -34.3281 H   0  0  0  0  0  0  0  0  0  0  0  0
   -2.1438   20.7071  -30.2948 H   0  0  0  0  0  0  0  0  0  0  0  0
   -3.4255   19.8553  -31.2213 H   0  0  0  0  0  0  0  0  0  0  0  0
   -1.7451   19.2207  -31.2213 H   0  0  0  0  0  0  0  0  0  0  0  0
   -0.1691   21.3802  -31.4181 H   0  0  0  0  0  0  0  0  0  0  0  0
    0.0056   20.4992  -32.9737 H   0  0  0  0  0  0  0  0  0  0  0  0
   -0.3617   22.2575  -32.9737 H   0  0  0  0  0  0  0  0  0  0  0  0
   -3.0470   25.2650  -30.3420 H   0  0  0  0  0  0  0  0  0  0  0  0
   -7.8768   24.2040  -30.9082 H   0  0  0  0  0  0  0  0  0  0  0  0
   -9.1264   21.8198  -31.8777 H   0  0  0  0  0  0  0  0  0  0  0  0
   -8.6312   19.5140  -32.7504 H   0  0  0  0  0  0  0  0  0  0  0  0
   -8.1262   17.5706  -32.5716 H   0  0  0  0  0  0  0  0  0  0  0  0
   -7.6358   15.2836  -33.4184 H   0  0  0  0  0  0  0  0  0  0  0  0
   -4.6283   14.4295  -35.3776 H   0  0  0  0  0  0  0  0  0  0  0  0
   -4.8838   13.8082  -33.6730 H   0  0  0  0  0  0  0  0  0  0  0  0
   -6.5702   12.2930  -33.2986 H   0  0  0  0  0  0  0  0  0  0  0  0
   -7.6127   13.7575  -33.1603 H   0  0  0  0  0  0  0  0  0  0  0  0
   -8.2467   11.0964  -34.2562 H   0  0  0  0  0  0  0  0  0  0  0  0
   -9.3437   12.4604  -33.7981 H   0  0  0  0  0  0  0  0  0  0  0  0
   -7.5109   10.9230  -36.4518 H   0  0  0  0  0  0  0  0  0  0  0  0
   -7.7446   12.3512  -37.5498 H   0  0  0  0  0  0  0  0  0  0  0  0
   -5.6006   11.8315  -35.6397 H   0  0  0  0  0  0  0  0  0  0  0  0
   -5.7545   13.1410  -36.8627 H   0  0  0  0  0  0  0  0  0  0  0  0
   -4.1622   18.8554  -33.7481 H   0  0  0  0  0  0  0  0  0  0  0  0
   -4.3589   20.2599  -32.2939 H   0  0  0  0  0  0  0  0  0  0  0  0
  1  2  1  0
  2  3  1  0
  2  4  1  0
  2  5  1  0
  5  6  1  0
  6  7  2  0
  6  8  1  0
  8  9  1  0
  9 10  1  0
 10 11  1  0
 10 12  2  0
  9 13  2  0
 13 14  1  0
 14 15  2  0
 15 16  1  0
 16 17  2  0
 17 18  1  0
 18 19  2  0
 19 20  1  0
 20 21  2  0
 21 22  1  0
 22 23  1  0
 23 24  1  0
 24 25  1  0
 25 26  1  0
 26 27  1  0
 27 28  1  0
 21 29  1  0
 29 30  1  0
 29 31  2  0
 17 32  1  0
 32 33  2  0
 33  8  1  0
 33 14  1  0
 31 18  1  0
 28 23  1  0
  1 34  1  0
  1 35  1  0
  1 36  1  0
  3 37  1  0
  3 38  1  0
  3 39  1  0
  4 40  1  0
  4 41  1  0
  4 42  1  0
 11 43  1  0
 13 44  1  0
 15 45  1  0
 16 46  1  0
 19 47  1  0
 20 48  1  0
 22 49  1  0
 22 50  1  0
 24 51  1  0
 24 52  1  0
 25 53  1  0
 25 54  1  0
 27 55  1  0
 27 56  1  0
 28 57  1  0
 28 58  1  0
 31 59  1  0
 32 60  1  0
M  CHG  1  11  -1
M  END
>  <UniqueID>  (14) 
14

>  <SMILES>  (14) 
CC(C)(C)OC(=O)n1c(C([NH-])=O)cc2ccc(-c3ccc(CN4CCOCC4)c(F)c3)cc21

>  <Energy>  (14) 
114.61221451118222

>  <Genealogy>  (14) 
CC(C)(C)OC(=O)n1c(C([NH-])=O)cc2ccc(-c3ccc(CN4CCOCC4)c(F)c3)cc21 (protonated)
CC(C)(C)OC(=O)n1c(C([NH-])=O)cc2ccc(-c3ccc(CN4CCOCC4)c(F)c3)cc21 (3D coordinates assigned)
CC(C)(C)OC(=O)n1c(C([NH-])=O)cc2ccc(-c3ccc(CN4CCOCC4)c(F)c3)cc21 (nonaromatic ring conformer: 114.61221451118222 kcal/mol)

>  <smiles>  (14) 
CC(C)(C)OC(=O)n1c(C(N)=O)cc2ccc(-c3ccc(CN4CCOCC4)c(F)c3)cc21

>  <score_type>  (14) 
oracle

>  <origin>  (14) 
adg

>  <m_score__min__energy>  (14) 
-11.42

>  <m_primary>  (14) 
energy

$$$$
15:0
     RDKit          3D

 42 43  0  0  0  0  0  0  0  0999 V2000
   -3.8030   20.0430  -30.8420 C   0  0  0  0  0  0  0  0  0  0  0  0
   -3.6720   21.4470  -30.4340 N   0  0  0  0  0  0  0  0  0  0  0  0
   -4.1210   22.4810  -31.3370 C   0  0  0  0  0  0  0  0  0  0  0  0
   -3.2890   23.0520  -32.0990 O   0  0  0  0  0  0  0  0  0  0  0  0
   -5.4880   22.9240  -31.3300 N   0  0  0  0  0  0  0  0  0  0  0  0
   -5.9730   24.1600  -31.0190 C   0  0  0  0  0  0  0  0  0  0  0  0
   -5.1920   25.3180  -30.5310 C   0  0  0  0  0  0  0  0  0  0  0  0
   -3.7760   25.2050  -30.3550 N   0  0  0  0  0  0  0  0  0  0  0  0
   -5.7640   26.4000  -30.2500 O   0  0  0  0  0  0  0  0  0  0  0  0
   -7.3590   24.1870  -31.1460 C   0  0  0  0  0  0  0  0  0  0  0  0
   -7.7160   22.9040  -31.4990 C   0  0  0  0  0  0  0  0  0  0  0  0
   -8.9800   22.3460  -31.6870 C   0  0  0  0  0  0  0  0  0  0  0  0
   -9.0610   20.9720  -31.9700 C   0  0  0  0  0  0  0  0  0  0  0  0
   -7.8880   20.1780  -32.0370 C   0  0  0  0  0  0  0  0  0  0  0  0
   -8.0130   18.6990  -32.2960 C   0  0  0  0  0  0  0  0  0  0  0  0
   -7.0050   18.0170  -31.6220 F   0  0  0  0  0  0  0  0  0  0  0  0
   -9.2380   18.2130  -31.8680 F   0  0  0  0  0  0  0  0  0  0  0  0
   -6.6240   20.7850  -31.8430 C   0  0  0  0  0  0  0  0  0  0  0  0
   -6.5720   22.1570  -31.5810 C   0  0  0  0  0  0  0  0  0  0  0  0
   -2.7030   21.7890  -29.4270 C   0  0  0  0  0  0  0  0  0  0  0  0
   -2.7650   21.2190  -28.2990 O   0  0  0  0  0  0  0  0  0  0  0  0
   -1.7270   22.8200  -29.6860 N   0  0  2  0  0  0  0  0  0  0  0  0
   -0.6410   22.3310  -30.5600 C   0  0  0  0  0  0  0  0  0  0  0  0
   -1.2310   23.4290  -28.4320 C   0  0  0  0  0  0  0  0  0  0  0  0
   -0.8700   24.8910  -28.5620 C   0  0  0  0  0  0  0  0  0  0  0  0
   -1.5370   25.6470  -29.3170 O   0  0  0  0  0  0  0  0  0  0  0  0
    0.2180   25.3960  -27.8640 O   0  0  0  0  0  0  0  0  0  0  0  0
   -3.8625   19.4053  -29.9477 H   0  0  0  0  0  0  0  0  0  0  0  0
   -4.7166   19.9192  -31.4420 H   0  0  0  0  0  0  0  0  0  0  0  0
   -2.9281   19.7524  -31.4420 H   0  0  0  0  0  0  0  0  0  0  0  0
   -3.1390   25.0710  -31.1670 H   0  0  0  0  0  0  0  0  0  0  0  0
   -8.0264   25.0485  -30.9965 H   0  0  0  0  0  0  0  0  0  0  0  0
   -9.8875   22.9636  -31.6158 H   0  0  0  0  0  0  0  0  0  0  0  0
  -10.0435   20.5080  -32.1412 H   0  0  0  0  0  0  0  0  0  0  0  0
   -7.9269   18.5409  -33.3812 H   0  0  0  0  0  0  0  0  0  0  0  0
   -5.7011   20.1889  -31.8973 H   0  0  0  0  0  0  0  0  0  0  0  0
   -2.2020   23.5850  -30.2180 H   0  0  0  0  0  0  0  0  0  0  0  0
    0.1880   21.9577  -29.9408 H   0  0  0  0  0  0  0  0  0  0  0  0
   -1.0199   21.5166  -31.1950 H   0  0  0  0  0  0  0  0  0  0  0  0
   -0.2824   23.1545  -31.1950 H   0  0  0  0  0  0  0  0  0  0  0  0
   -2.0150   23.3326  -27.6664 H   0  0  0  0  0  0  0  0  0  0  0  0
   -0.3082   22.8952  -28.1611 H   0  0  0  0  0  0  0  0  0  0  0  0
  1  2  1  0
  2  3  1  0
  3  4  2  0
  3  5  1  0
  5  6  1  0
  6  7  1  0
  7  8  1  0
  7  9  2  0
  6 10  2  0
 10 11  1  0
 11 12  2  0
 12 13  1  0
 13 14  2  0
 14 15  1  0
 15 16  1  0
 15 17  1  0
 14 18  1  0
 18 19  2  0
  2 20  1  0
 20 21  2  0
 20 22  1  0
 22 23  1  0
 22 24  1  0
 24 25  1  0
 25 26  2  0
 25 27  1  0
 19  5  1  0
 19 11  1  0
  1 28  1  0
  1 29  1  0
  1 30  1  0
  8 31  1  0
 10 32  1  0
 12 33  1  0
 13 34  1  0
 15 35  1  0
 18 36  1  0
 22 37  1  6
 23 38  1  0
 23 39  1  0
 23 40  1  0
 24 41  1  0
 24 42  1  0
M  CHG  3   8  -1  22   1  27  -1
M  END
>  <UniqueID>  (15) 
15

>  <SMILES>  (15) 
CN(C(=O)n1c(C([NH-])=O)cc2ccc(C(F)F)cc21)C(=O)[N@H+](C)CC(=O)[O-]

>  <Energy>  (15) 
96.97794441988498

>  <Genealogy>  (15) 
CN(C(=O)n1c(C([NH-])=O)cc2ccc(C(F)F)cc21)C(=O)[NH+](C)CC(=O)[O-] (protonated)
CN(C(=O)n1c(C([NH-])=O)cc2ccc(C(F)F)cc21)C(=O)[N@H+](C)CC(=O)[O-] (chirality)
CN(C(=O)n1c(C([NH-])=O)cc2ccc(C(F)F)cc21)C(=O)[N@H+](C)CC(=O)[O-] (3D coordinates assigned)
CN(C(=O)n1c(C([NH-])=O)cc2ccc(C(F)F)cc21)C(=O)[N@H+](C)CC(=O)[O-] (optimized conformer: 96.97794441988498 kcal/mol)

>  <smiles>  (15) 
CN(CC(=O)O)C(=O)N(C)C(=O)n1c(C(N)=O)cc2ccc(C(F)F)cc21

>  <score_type>  (15) 
oracle

>  <origin>  (15) 
adg

>  <m_score__min__energy>  (15) 
-11.17

>  <m_primary>  (15) 
energy

$$$$
16:0
     RDKit          3D

 57 58  0  0  0  0  0  0  0  0999 V2000
   -4.2190   18.6190  -33.0930 C   0  0  0  0  0  0  0  0  0  0  0  0
   -5.6340   18.5280  -33.4800 N   0  0  0  0  0  0  0  0  0  0  0  0
   -5.7360   18.4470  -34.9520 C   0  0  0  0  0  0  0  0  0  0  0  0
   -6.2740   17.3570  -32.8410 C   0  0  0  0  0  0  0  0  0  0  0  0
   -7.5020   17.7910  -32.0320 C   0  0  0  0  0  0  0  0  0  0  0  0
   -8.2120   18.8940  -32.6820 N   0  0  0  0  0  0  0  0  0  0  0  0
   -8.0030   20.2770  -32.3340 C   0  0  0  0  0  0  0  0  0  0  0  0
   -9.1060   21.1650  -32.3390 C   0  0  0  0  0  0  0  0  0  0  0  0
   -8.9470   22.5130  -31.9770 C   0  0  0  0  0  0  0  0  0  0  0  0
   -7.6770   22.9470  -31.6150 C   0  0  0  0  0  0  0  0  0  0  0  0
   -7.2510   24.1840  -31.1860 C   0  0  0  0  0  0  0  0  0  0  0  0
   -5.8850   24.0420  -30.9280 C   0  0  0  0  0  0  0  0  0  0  0  0
   -4.9860   25.1370  -30.4820 C   0  0  0  0  0  0  0  0  0  0  0  0
   -3.6790   24.8710  -29.9710 N   0  0  0  0  0  0  0  0  0  0  0  0
   -5.3780   26.3300  -30.5280 O   0  0  0  0  0  0  0  0  0  0  0  0
   -5.4940   22.7610  -31.1920 N   0  0  0  0  0  0  0  0  0  0  0  0
   -4.2020   22.1740  -31.0020 C   0  0  0  0  0  0  0  0  0  0  0  0
   -4.0980   21.0450  -30.4540 O   0  0  0  0  0  0  0  0  0  0  0  0
   -3.0270   22.8860  -31.4200 N   0  0  0  0  0  0  0  0  0  0  0  0
   -1.6660   22.4890  -31.0610 C   0  0  0  0  0  0  0  0  0  0  0  0
   -1.2820   23.0530  -29.7280 C   0  0  0  0  0  0  0  0  0  0  0  0
   -1.2650   24.3100  -29.5700 O   0  0  0  0  0  0  0  0  0  0  0  0
   -0.9790   22.1790  -28.6690 O   0  0  0  0  0  0  0  0  0  0  0  0
   -1.9060   21.6910  -27.6830 C   0  0  0  0  0  0  0  0  0  0  0  0
   -1.2090   21.7840  -26.3150 C   0  0  0  0  0  0  0  0  0  0  0  0
   -3.1760   22.5650  -27.6530 C   0  0  0  0  0  0  0  0  0  0  0  0
   -2.2650   20.2180  -27.9650 C   0  0  0  0  0  0  0  0  0  0  0  0
   -6.5980   22.1100  -31.6150 C   0  0  0  0  0  0  0  0  0  0  0  0
   -6.7230   20.7650  -31.9690 C   0  0  0  0  0  0  0  0  0  0  0  0
   -4.1385   18.6242  -31.9960 H   0  0  0  0  0  0  0  0  0  0  0  0
   -3.6721   17.7542  -33.4967 H   0  0  0  0  0  0  0  0  0  0  0  0
   -3.7874   19.5468  -33.4967 H   0  0  0  0  0  0  0  0  0  0  0  0
   -6.5703   17.7845  -35.2258 H   0  0  0  0  0  0  0  0  0  0  0  0
   -5.9153   19.4515  -35.3629 H   0  0  0  0  0  0  0  0  0  0  0  0
   -4.7983   18.0448  -35.3629 H   0  0  0  0  0  0  0  0  0  0  0  0
   -6.5864   16.6455  -33.6196 H   0  0  0  0  0  0  0  0  0  0  0  0
   -5.5502   16.8825  -32.1620 H   0  0  0  0  0  0  0  0  0  0  0  0
   -8.1857   16.9349  -31.9336 H   0  0  0  0  0  0  0  0  0  0  0  0
   -7.1601   18.1355  -31.0449 H   0  0  0  0  0  0  0  0  0  0  0  0
   -8.9140   18.6690  -33.4280 H   0  0  0  0  0  0  0  0  0  0  0  0
  -10.1000   20.7946  -32.6301 H   0  0  0  0  0  0  0  0  0  0  0  0
   -9.8023   23.2047  -31.9799 H   0  0  0  0  0  0  0  0  0  0  0  0
   -7.8587   25.0936  -31.0705 H   0  0  0  0  0  0  0  0  0  0  0  0
   -3.0560   25.6660  -29.6950 H   0  0  0  0  0  0  0  0  0  0  0  0
   -3.3170   23.8930  -29.8240 H   0  0  0  0  0  0  0  0  0  0  0  0
   -1.6100   21.3913  -31.0179 H   0  0  0  0  0  0  0  0  0  0  0  0
   -0.9729   22.8780  -31.8215 H   0  0  0  0  0  0  0  0  0  0  0  0
   -1.9571   21.6842  -25.5148 H   0  0  0  0  0  0  0  0  0  0  0  0
   -0.4669   20.9769  -26.2259 H   0  0  0  0  0  0  0  0  0  0  0  0
   -0.7045   22.7574  -26.2259 H   0  0  0  0  0  0  0  0  0  0  0  0
   -3.4614   22.7614  -26.6090 H   0  0  0  0  0  0  0  0  0  0  0  0
   -2.9771   23.5184  -28.1643 H   0  0  0  0  0  0  0  0  0  0  0  0
   -3.9955   22.0387  -28.1643 H   0  0  0  0  0  0  0  0  0  0  0  0
   -2.3953   19.6835  -27.0124 H   0  0  0  0  0  0  0  0  0  0  0  0
   -3.2005   20.1726  -28.5419 H   0  0  0  0  0  0  0  0  0  0  0  0
   -1.4553   19.7472  -28.5419 H   0  0  0  0  0  0  0  0  0  0  0  0
   -5.8476   20.0989  -31.9647 H   0  0  0  0  0  0  0  0  0  0  0  0
  1  2  1  0
  2  3  1  0
  2  4  1  0
  4  5  1  0
  5  6  1  0
  6  7  1  0
  7  8  2  0
  8  9  1  0
  9 10  2  0
 10 11  1  0
 11 12  2  0
 12 13  1  0
 13 14  1  0
 13 15  2  0
 12 16  1  0
 16 17  1  0
 17 18  2  0
 17 19  1  0
 19 20  1  0
 20 21  1  0
 21 22  2  0
 21 23  1  0
 23 24  1  0
 24 25  1  0
 24 26  1  0
 24 27  1  0
 16 28  1  0
 28 29  2  0
 29  7  1  0
 28 10  1  0
  1 30  1  0
  1 31  1  0
  1 32  1  0
  3 33  1  0
  3 34  1  0
  3 35  1  0
  4 36  1  0
  4 37  1  0
  5 38  1  0
  5 39  1  0
  6 40  1  0
  8 41  1  0
  9 42  1  0
 11 43  1  0
 14 44  1  0
 14 45  1  0
 20 46  1  0
 20 47  1  0
 25 48  1  0
 25 49  1  0
 25 50  1  0
 26 51  1  0
 26 52  1  0
 26 53  1  0
 27 54  1  0
 27 55  1  0
 27 56  1  0
 29 57  1  0
M  CHG  1  19  -1
M  END
>  <UniqueID>  (16) 
16

>  <SMILES>  (16) 
CN(C)CCNc1ccc2cc(C(N)=O)n(C(=O)[N-]CC(=O)OC(C)(C)C)c2c1

>  <Energy>  (16) 
84.23573737694909

>  <Genealogy>  (16) 
CN(C)CCNc1ccc2cc(C(N)=O)n(C(=O)[N-]CC(=O)OC(C)(C)C)c2c1 (protonated)
CN(C)CCNc1ccc2cc(C(N)=O)n(C(=O)[N-]CC(=O)OC(C)(C)C)c2c1 (3D coordinates assigned)
CN(C)CCNc1ccc2cc(C(N)=O)n(C(=O)[N-]CC(=O)OC(C)(C)C)c2c1 (optimized conformer: 84.23573737694909 kcal/mol)

>  <smiles>  (16) 
CN(C)CCNc1ccc2cc(C(N)=O)n(C(=O)NCC(=O)OC(C)(C)C)c2c1

>  <score_type>  (16) 
oracle

>  <origin>  (16) 
adg

>  <m_score__min__energy>  (16) 
-9.2200000000000006

>  <m_primary>  (16) 
energy

$$$$
17:0
     RDKit          3D

 52 54  0  0  0  0  0  0  0  0999 V2000
   -5.2820   16.3920  -32.4510 C   0  0  0  0  0  0  0  0  0  0  0  0
   -5.2710   17.1690  -33.6970 N   0  0  0  0  0  0  0  0  0  0  0  0
   -4.2500   16.9130  -34.7110 C   0  0  0  0  0  0  0  0  0  0  0  0
   -6.2460   18.2070  -33.9320 C   0  0  0  0  0  0  0  0  0  0  0  0
   -6.1070   18.9720  -34.9280 O   0  0  0  0  0  0  0  0  0  0  0  0
   -7.3930   18.4350  -32.9720 C   0  0  0  0  0  0  0  0  0  0  0  0
   -7.4380   19.8560  -32.4650 C   0  0  0  0  0  0  0  0  0  0  0  0
   -8.6790   20.5270  -32.3310 C   0  0  0  0  0  0  0  0  0  0  0  0
   -8.7290   21.8670  -31.9010 C   0  0  0  0  0  0  0  0  0  0  0  0
   -7.5260   22.5020  -31.6010 C   0  0  0  0  0  0  0  0  0  0  0  0
   -7.2780   23.7810  -31.1500 C   0  0  0  0  0  0  0  0  0  0  0  0
   -5.8950   23.8560  -30.9830 C   0  0  0  0  0  0  0  0  0  0  0  0
   -5.2010   25.0140  -30.3790 C   0  0  0  0  0  0  0  0  0  0  0  0
   -3.9050   25.3840  -30.8430 N   0  0  0  0  0  0  0  0  0  0  0  0
   -5.7550   25.7030  -29.4810 O   0  0  0  0  0  0  0  0  0  0  0  0
   -5.3100   22.6780  -31.3450 N   0  0  0  0  0  0  0  0  0  0  0  0
   -3.9110   22.3420  -31.3490 C   0  0  0  0  0  0  0  0  0  0  0  0
   -3.1650   22.8300  -30.4570 O   0  0  0  0  0  0  0  0  0  0  0  0
   -3.3590   21.4020  -32.3500 C   0  0  0  0  0  0  0  0  0  0  0  0
   -3.6730   21.5440  -33.5590 O   0  0  0  0  0  0  0  0  0  0  0  0
   -2.4870   20.3120  -32.0000 N   0  0  0  0  0  0  0  0  0  0  0  0
   -1.0740   20.4200  -31.6330 C   0  0  0  0  0  0  0  0  0  0  0  0
   -0.2410   20.7520  -32.8480 C   0  0  0  0  0  0  0  0  0  0  0  0
   -0.7820   21.5460  -33.8730 C   0  0  0  0  0  0  0  0  0  0  0  0
   -0.0490   21.7900  -35.0410 C   0  0  0  0  0  0  0  0  0  0  0  0
    1.2410   21.2450  -35.2010 C   0  0  0  0  0  0  0  0  0  0  0  0
    1.9960   21.4650  -36.4560 C   0  0  0  0  0  0  0  0  0  0  0  0
    2.2840   22.6330  -36.8380 O   0  0  0  0  0  0  0  0  0  0  0  0
    2.4370   20.3830  -37.2130 O   0  0  0  0  0  0  0  0  0  0  0  0
    1.7950   20.4750  -34.1580 C   0  0  0  0  0  0  0  0  0  0  0  0
    1.0640   20.2400  -32.9880 C   0  0  0  0  0  0  0  0  0  0  0  0
   -6.3210   21.8590  -31.7050 C   0  0  0  0  0  0  0  0  0  0  0  0
   -6.2410   20.5330  -32.1440 C   0  0  0  0  0  0  0  0  0  0  0  0
   -5.2723   17.0779  -31.5911 H   0  0  0  0  0  0  0  0  0  0  0  0
   -6.1890   15.7708  -32.4143 H   0  0  0  0  0  0  0  0  0  0  0  0
   -4.3929   15.7453  -32.4143 H   0  0  0  0  0  0  0  0  0  0  0  0
   -3.2960   16.6738  -34.2185 H   0  0  0  0  0  0  0  0  0  0  0  0
   -4.5612   16.0651  -35.3388 H   0  0  0  0  0  0  0  0  0  0  0  0
   -4.1244   17.8074  -35.3388 H   0  0  0  0  0  0  0  0  0  0  0  0
   -8.3378   18.2135  -33.4899 H   0  0  0  0  0  0  0  0  0  0  0  0
   -7.2460   17.7721  -32.1066 H   0  0  0  0  0  0  0  0  0  0  0  0
   -9.6131   19.9955  -32.5654 H   0  0  0  0  0  0  0  0  0  0  0  0
   -9.6886   22.3961  -31.8049 H   0  0  0  0  0  0  0  0  0  0  0  0
   -8.0154   24.5752  -30.9615 H   0  0  0  0  0  0  0  0  0  0  0  0
   -3.0450   25.0180  -30.3760 H   0  0  0  0  0  0  0  0  0  0  0  0
   -0.9538   21.2150  -30.8823 H   0  0  0  0  0  0  0  0  0  0  0  0
   -0.7369   19.4578  -31.2201 H   0  0  0  0  0  0  0  0  0  0  0  0
   -1.7868   21.9784  -33.7575 H   0  0  0  0  0  0  0  0  0  0  0  0
   -0.4827   22.4109  -35.8387 H   0  0  0  0  0  0  0  0  0  0  0  0
    2.8069   20.0569  -34.2644 H   0  0  0  0  0  0  0  0  0  0  0  0
    1.5110   19.6520  -32.1728 H   0  0  0  0  0  0  0  0  0  0  0  0
   -5.2676   20.0291  -32.2370 H   0  0  0  0  0  0  0  0  0  0  0  0
  1  2  1  0
  2  3  1  0
  2  4  1  0
  4  5  2  0
  4  6  1  0
  6  7  1  0
  7  8  2  0
  8  9  1  0
  9 10  2  0
 10 11  1  0
 11 12  2  0
 12 13  1  0
 13 14  1  0
 13 15  2  0
 12 16  1  0
 16 17  1  0
 17 18  2  0
 17 19  1  0
 19 20  2  0
 19 21  1  0
 21 22  1  0
 22 23  1  0
 23 24  2  0
 24 25  1  0
 25 26  2  0
 26 27  1  0
 27 28  2  0
 27 29  1  0
 26 30  1  0
 30 31  2  0
 16 32  1  0
 32 33  2  0
 33  7  1  0
 32 10  1  0
 31 23  1  0
  1 34  1  0
  1 35  1  0
  1 36  1  0
  3 37  1  0
  3 38  1  0
  3 39  1  0
  6 40  1  0
  6 41  1  0
  8 42  1  0
  9 43  1  0
 11 44  1  0
 14 45  1  0
 22 46  1  0
 22 47  1  0
 24 48  1  0
 25 49  1  0
 30 50  1  0
 31 51  1  0
 33 52  1  0
M  CHG  3  14  -1  21  -1  29  -1
M  END
>  <UniqueID>  (17) 
17

>  <SMILES>  (17) 
CN(C)C(=O)Cc1ccc2cc(C([NH-])=O)n(C(=O)C(=O)[N-]Cc3ccc(C(=O)[O-])cc3)c2c1

>  <Energy>  (17) 
91.15563965548051

>  <Genealogy>  (17) 
CN(C)C(=O)Cc1ccc2cc(C([NH-])=O)n(C(=O)C(=O)[N-]Cc3ccc(C(=O)[O-])cc3)c2c1 (protonated)
CN(C)C(=O)Cc1ccc2cc(C([NH-])=O)n(C(=O)C(=O)[N-]Cc3ccc(C(=O)[O-])cc3)c2c1 (3D coordinates assigned)
CN(C)C(=O)Cc1ccc2cc(C([NH-])=O)n(C(=O)C(=O)[N-]Cc3ccc(C(=O)[O-])cc3)c2c1 (optimized conformer: 91.15563965548051 kcal/mol)

>  <smiles>  (17) 
CN(C)C(=O)Cc1ccc2cc(C(N)=O)n(C(=O)C(=O)NCc3ccc(C(=O)O)cc3)c2c1

>  <score_type>  (17) 
oracle

>  <origin>  (17) 
adg

>  <m_score__min__energy>  (17) 
-12.609999999999999

>  <m_primary>  (17) 
energy

$$$$
18:0
     RDKit          3D

 45 47  0  0  0  0  0  0  0  0999 V2000
   -4.9510   15.6070  -32.3130 C   0  0  0  0  0  0  0  0  0  0  0  0
   -5.8330   16.4890  -33.1170 N   0  0  0  0  0  0  0  0  0  0  0  0
   -6.6930   15.6450  -33.9690 C   0  0  0  0  0  0  0  0  0  0  0  0
   -5.1560   17.6050  -33.8720 C   0  0  0  0  0  0  0  0  0  0  0  0
   -6.1140   18.8240  -34.1460 C   0  0  0  0  0  0  0  0  0  0  0  0
   -7.3200   18.8860  -33.2890 N   0  0  0  0  0  0  0  0  0  0  0  0
   -7.3610   20.1470  -32.5900 C   0  0  0  0  0  0  0  0  0  0  0  0
   -8.6010   20.6720  -32.1400 C   0  0  0  0  0  0  0  0  0  0  0  0
   -8.6580   21.9090  -31.4790 C   0  0  0  0  0  0  0  0  0  0  0  0
   -7.4680   22.6080  -31.2970 C   0  0  0  0  0  0  0  0  0  0  0  0
   -7.2370   23.8130  -30.6750 C   0  0  0  0  0  0  0  0  0  0  0  0
   -5.8650   24.0290  -30.7860 C   0  0  0  0  0  0  0  0  0  0  0  0
   -5.1980   25.2630  -30.3250 C   0  0  0  0  0  0  0  0  0  0  0  0
   -3.9270   25.6470  -30.8400 N   0  0  0  0  0  0  0  0  0  0  0  0
   -5.7830   26.0170  -29.5000 O   0  0  0  0  0  0  0  0  0  0  0  0
   -5.2690   22.9930  -31.4430 N   0  0  0  0  0  0  0  0  0  0  0  0
   -3.8650   22.7920  -31.6750 C   0  0  0  0  0  0  0  0  0  0  0  0
   -3.4670   22.2630  -32.7460 O   0  0  0  0  0  0  0  0  0  0  0  0
   -2.9350   23.1550  -30.7090 O   0  0  0  0  0  0  0  0  0  0  0  0
   -6.2650   22.1320  -31.7520 C   0  0  0  0  0  0  0  0  0  0  0  0
   -6.1750   20.8940  -32.3960 C   0  0  0  0  0  0  0  0  0  0  0  0
   -4.3190   17.1510  -35.0870 C   0  0  0  0  0  0  0  0  0  0  0  0
   -3.0460   17.6090  -34.3770 C   0  0  0  0  0  0  0  0  0  0  0  0
   -3.8600   18.0620  -33.1670 C   0  0  0  0  0  0  0  0  0  0  0  0
   -5.1304   15.7864  -31.2427 H   0  0  0  0  0  0  0  0  0  0  0  0
   -5.1695   14.5553  -32.5502 H   0  0  0  0  0  0  0  0  0  0  0  0
   -3.8993   15.8255  -32.5502 H   0  0  0  0  0  0  0  0  0  0  0  0
   -7.3340   15.0159  -33.3339 H   0  0  0  0  0  0  0  0  0  0  0  0
   -7.3221   16.2860  -34.6041 H   0  0  0  0  0  0  0  0  0  0  0  0
   -6.0639   15.0040  -34.6041 H   0  0  0  0  0  0  0  0  0  0  0  0
   -5.5394   19.7492  -33.9916 H   0  0  0  0  0  0  0  0  0  0  0  0
   -6.4789   18.6986  -35.1761 H   0  0  0  0  0  0  0  0  0  0  0  0
   -7.2860   18.1180  -32.5790 H   0  0  0  0  0  0  0  0  0  0  0  0
   -8.2050   18.7660  -33.8260 H   0  0  0  0  0  0  0  0  0  0  0  0
   -9.5269   20.1033  -32.3112 H   0  0  0  0  0  0  0  0  0  0  0  0
   -9.6141   22.3138  -31.1158 H   0  0  0  0  0  0  0  0  0  0  0  0
   -7.9781   24.4672  -30.1924 H   0  0  0  0  0  0  0  0  0  0  0  0
   -3.0440   25.2920  -30.4090 H   0  0  0  0  0  0  0  0  0  0  0  0
   -5.2047   20.5098  -32.7437 H   0  0  0  0  0  0  0  0  0  0  0  0
   -4.3604   16.0693  -35.2825 H   0  0  0  0  0  0  0  0  0  0  0  0
   -4.5571   17.5171  -36.0966 H   0  0  0  0  0  0  0  0  0  0  0  0
   -2.3389   16.7949  -34.1596 H   0  0  0  0  0  0  0  0  0  0  0  0
   -2.3615   18.3122  -34.8740 H   0  0  0  0  0  0  0  0  0  0  0  0
   -3.6338   17.5121  -32.2416 H   0  0  0  0  0  0  0  0  0  0  0  0
   -3.7657   19.0888  -32.7839 H   0  0  0  0  0  0  0  0  0  0  0  0
  1  2  1  0
  2  3  1  0
  2  4  1  0
  4  5  1  0
  5  6  1  0
  6  7  1  0
  7  8  2  0
  8  9  1  0
  9 10  2  0
 10 11  1  0
 11 12  2  0
 12 13  1  0
 13 14  1  0
 13 15  2  0
 12 16  1  0
 16 17  1  0
 17 18  2  0
 17 19  1  0
 16 20  1  0
 20 21  2  0
  4 22  1  0
 22 23  1  0
 23 24  1  0
 24  4  1  0
 21  7  1  0
 20 10  1  0
  1 25  1  0
  1 26  1  0
  1 27  1  0
  3 28  1  0
  3 29  1  0
  3 30  1  0
  5 31  1  0
  5 32  1  0
  6 33  1  0
  6 34  1  0
  8 35  1  0
  9 36  1  0
 11 37  1  0
 14 38  1  0
 21 39  1  0
 22 40  1  0
 22 41  1  0
 23 42  1  0
 23 43  1  0
 24 44  1  0
 24 45  1  0
M  CHG  3   6   1  14  -1  19  -1
M  END
>  <UniqueID>  (18) 
18

>  <SMILES>  (18) 
CN(C)C1(C[NH2+]c2ccc3cc(C([NH-])=O)n(C(=O)[O-])c3c2)CCC1

>  <Energy>  (18) 
164.49449197202503

>  <Genealogy>  (18) 
CN(C)C1(C[NH2+]c2ccc3cc(C([NH-])=O)n(C(=O)[O-])c3c2)CCC1 (protonated)
CN(C)C1(C[NH2+]c2ccc3cc(C([NH-])=O)n(C(=O)[O-])c3c2)CCC1 (3D coordinates assigned)
CN(C)C1(C[NH2+]c2ccc3cc(C([NH-])=O)n(C(=O)[O-])c3c2)CCC1 (nonaromatic ring conformer: 164.49449197202503 kcal/mol)

>  <smiles>  (18) 
CN(C)C1(CNc2ccc3cc(C(N)=O)n(C(=O)O)c3c2)CCC1

>  <score_type>  (18) 
oracle

>  <origin>  (18) 
adg

>  <m_score__min__energy>  (18) 
-11.279999999999999

>  <m_primary>  (18) 
energy

$$$$
19:0
     RDKit          3D

 49 51  0  0  0  0  0  0  0  0999 V2000
   -1.5640   21.9890  -31.1640 C   0  0  0  0  0  0  0  0  0  0  0  0
   -2.9840   21.9580  -31.5290 N   0  0  0  0  0  0  0  0  0  0  0  0
   -3.3800   21.6310  -32.9030 C   0  0  0  0  0  0  0  0  0  0  0  0
   -3.1560   20.1780  -33.1730 C   0  0  0  0  0  0  0  0  0  0  0  0
   -2.7660   19.7980  -34.3080 O   0  0  0  0  0  0  0  0  0  0  0  0
   -3.3470   19.2460  -32.1630 O   0  0  0  0  0  0  0  0  0  0  0  0
   -3.9840   22.2610  -30.5360 C   0  0  0  0  0  0  0  0  0  0  0  0
   -3.6930   22.2300  -29.3100 O   0  0  0  0  0  0  0  0  0  0  0  0
   -5.3190   22.6100  -30.9250 N   0  0  0  0  0  0  0  0  0  0  0  0
   -5.9150   23.8310  -30.8550 C   0  0  0  0  0  0  0  0  0  0  0  0
   -5.2630   25.0850  -30.4180 C   0  0  0  0  0  0  0  0  0  0  0  0
   -3.8660   25.2900  -30.6060 N   0  0  0  0  0  0  0  0  0  0  0  0
   -5.9510   25.9900  -29.8750 O   0  0  0  0  0  0  0  0  0  0  0  0
   -7.2450   23.7440  -31.2620 C   0  0  0  0  0  0  0  0  0  0  0  0
   -7.4430   22.4180  -31.5790 C   0  0  0  0  0  0  0  0  0  0  0  0
   -8.5830   21.7590  -32.0220 C   0  0  0  0  0  0  0  0  0  0  0  0
   -8.4990   20.3750  -32.2470 C   0  0  0  0  0  0  0  0  0  0  0  0
   -7.2840   19.6700  -32.0360 C   0  0  0  0  0  0  0  0  0  0  0  0
   -7.2650   18.2440  -32.2770 N   0  0  0  0  0  0  0  0  0  0  0  0
   -6.4740   17.5020  -33.2720 C   0  0  1  0  0  0  0  0  0  0  0  0
   -6.0900   18.3370  -34.4810 C   0  0  0  0  0  0  0  0  0  0  0  0
   -4.7430   17.7720  -34.8920 C   0  0  0  0  0  0  0  0  0  0  0  0
   -4.0940   17.2700  -33.6690 N   0  0  2  0  0  0  0  0  0  0  0  0
   -3.2050   16.1310  -33.9500 C   0  0  0  0  0  0  0  0  0  0  0  0
   -5.1700   16.9220  -32.7190 C   0  0  0  0  0  0  0  0  0  0  0  0
   -6.1450   20.3840  -31.5870 C   0  0  0  0  0  0  0  0  0  0  0  0
   -6.2640   21.7590  -31.3670 C   0  0  0  0  0  0  0  0  0  0  0  0
   -1.4670   21.9911  -30.0683 H   0  0  0  0  0  0  0  0  0  0  0  0
   -1.0603   21.1016  -31.5750 H   0  0  0  0  0  0  0  0  0  0  0  0
   -1.0995   22.8975  -31.5750 H   0  0  0  0  0  0  0  0  0  0  0  0
   -4.4459   21.8658  -33.0395 H   0  0  0  0  0  0  0  0  0  0  0  0
   -2.7722   22.2238  -33.6024 H   0  0  0  0  0  0  0  0  0  0  0  0
   -3.5130   26.0550  -31.2240 H   0  0  0  0  0  0  0  0  0  0  0  0
   -7.9802   24.5603  -31.3182 H   0  0  0  0  0  0  0  0  0  0  0  0
   -9.5230   22.3046  -32.1914 H   0  0  0  0  0  0  0  0  0  0  0  0
   -9.3888   19.8281  -32.5923 H   0  0  0  0  0  0  0  0  0  0  0  0
   -7.9120   17.6600  -31.6980 H   0  0  0  0  0  0  0  0  0  0  0  0
   -7.1567   16.6898  -33.5623 H   0  0  0  0  0  0  0  0  0  0  0  0
   -6.8276   18.2208  -35.2888 H   0  0  0  0  0  0  0  0  0  0  0  0
   -6.0526   19.4143  -34.2618 H   0  0  0  0  0  0  0  0  0  0  0  0
   -4.8814   16.9505  -35.6104 H   0  0  0  0  0  0  0  0  0  0  0  0
   -4.1253   18.5433  -35.3753 H   0  0  0  0  0  0  0  0  0  0  0  0
   -3.5100   18.0380  -33.2620 H   0  0  0  0  0  0  0  0  0  0  0  0
   -2.8617   15.6912  -33.0020 H   0  0  0  0  0  0  0  0  0  0  0  0
   -3.7525   15.3727  -34.5290 H   0  0  0  0  0  0  0  0  0  0  0  0
   -2.3364   16.4779  -34.5290 H   0  0  0  0  0  0  0  0  0  0  0  0
   -5.2531   15.8288  -32.6290 H   0  0  0  0  0  0  0  0  0  0  0  0
   -4.9548   17.3321  -31.7212 H   0  0  0  0  0  0  0  0  0  0  0  0
   -5.1890   19.8676  -31.4156 H   0  0  0  0  0  0  0  0  0  0  0  0
  1  2  1  0
  2  3  1  0
  3  4  1  0
  4  5  2  0
  4  6  1  0
  2  7  1  0
  7  8  2  0
  7  9  1  0
  9 10  1  0
 10 11  1  0
 11 12  1  0
 11 13  2  0
 10 14  2  0
 14 15  1  0
 15 16  2  0
 16 17  1  0
 17 18  2  0
 18 19  1  0
 19 20  1  0
 20 21  1  0
 21 22  1  0
 22 23  1  0
 23 24  1  0
 23 25  1  0
 18 26  1  0
 26 27  2  0
 27  9  1  0
 27 15  1  0
 25 20  1  0
  1 28  1  0
  1 29  1  0
  1 30  1  0
  3 31  1  0
  3 32  1  0
 12 33  1  0
 14 34  1  0
 16 35  1  0
 17 36  1  0
 19 37  1  0
 20 38  1  6
 21 39  1  0
 21 40  1  0
 22 41  1  0
 22 42  1  0
 23 43  1  1
 24 44  1  0
 24 45  1  0
 24 46  1  0
 25 47  1  0
 25 48  1  0
 26 49  1  0
M  CHG  3   6  -1  12  -1  23   1
M  END
>  <UniqueID>  (19) 
19

>  <SMILES>  (19) 
CN(CC(=O)[O-])C(=O)n1c(C([NH-])=O)cc2ccc(N[C@H]3CC[N@H+](C)C3)cc21

>  <Energy>  (19) 
91.18930927736348

>  <Genealogy>  (19) 
CN(CC(=O)[O-])C(=O)n1c(C([NH-])=O)cc2ccc(NC3CC[NH+](C)C3)cc21 (protonated)
CN(CC(=O)[O-])C(=O)n1c(C([NH-])=O)cc2ccc(N[C@H]3CC[N@H+](C)C3)cc21 (chirality)
CN(CC(=O)[O-])C(=O)n1c(C([NH-])=O)cc2ccc(N[C@H]3CC[N@H+](C)C3)cc21 (3D coordinates assigned)
CN(CC(=O)[O-])C(=O)n1c(C([NH-])=O)cc2ccc(N[C@H]3CC[N@H+](C)C3)cc21 (nonaromatic ring conformer: 91.18930927736348 kcal/mol)

>  <smiles>  (19) 
CN1CCC(Nc2ccc3cc(C(N)=O)n(C(=O)N(C)CC(=O)O)c3c2)C1

>  <score_type>  (19) 
oracle

>  <origin>  (19) 
adg

>  <m_score__min__energy>  (19) 
-12.01

>  <m_primary>  (19) 
energy

$$$$
20:0
     RDKit          3D

 42 43  0  0  0  0  0  0  0  0999 V2000
   -0.0130   17.1080  -34.8570 N   0  0  0  0  0  0  0  0  0  0  0  0
   -1.2390   16.5700  -35.3470 C   0  0  0  0  0  0  0  0  0  0  0  0
   -1.2050   15.6550  -36.2140 O   0  0  0  0  0  0  0  0  0  0  0  0
   -2.5440   17.0710  -34.8620 C   0  0  0  0  0  0  0  0  0  0  0  0
   -3.7620   16.4550  -35.1530 C   0  0  0  0  0  0  0  0  0  0  0  0
   -4.7100   17.1830  -34.4710 C   0  0  0  0  0  0  0  0  0  0  0  0
   -6.0860   17.0070  -34.3880 C   0  0  0  0  0  0  0  0  0  0  0  0
   -6.8210   17.9090  -33.5990 C   0  0  0  0  0  0  0  0  0  0  0  0
   -6.1700   18.9670  -32.9110 C   0  0  0  0  0  0  0  0  0  0  0  0
   -6.9410   19.9390  -32.0550 C   0  0  0  0  0  0  0  0  0  0  0  0
   -7.6020   20.8400  -32.8700 F   0  0  0  0  0  0  0  0  0  0  0  0
   -7.8700   19.2950  -31.2580 F   0  0  0  0  0  0  0  0  0  0  0  0
   -6.0640   20.6300  -31.2380 F   0  0  0  0  0  0  0  0  0  0  0  0
   -4.7690   19.1130  -33.0250 C   0  0  0  0  0  0  0  0  0  0  0  0
   -4.0640   18.1940  -33.8080 C   0  0  0  0  0  0  0  0  0  0  0  0
   -2.7360   18.1380  -34.0370 N   0  0  0  0  0  0  0  0  0  0  0  0
   -1.7370   18.9920  -33.4550 C   0  0  0  0  0  0  0  0  0  0  0  0
   -0.8980   18.4960  -32.6550 O   0  0  0  0  0  0  0  0  0  0  0  0
   -1.6140   20.4430  -33.8680 C   0  0  1  0  0  0  0  0  0  0  0  0
   -1.8880   21.3650  -32.7130 C   0  0  0  0  0  0  0  0  0  0  0  0
   -0.9310   21.9290  -32.1120 O   0  0  0  0  0  0  0  0  0  0  0  0
   -3.2370   21.5750  -32.2790 N   0  0  0  0  0  0  0  0  0  0  0  0
   -3.6730   22.7720  -31.5690 C   0  0  0  0  0  0  0  0  0  0  0  0
   -2.6960   23.1000  -30.4410 C   0  0  0  0  0  0  0  0  0  0  0  0
   -3.0650   24.7270  -29.7170 P   0  0  0  0  0  0  0  0  0  0  0  0
   -3.9060   24.5560  -28.4740 O   0  0  0  0  0  0  0  0  0  0  0  0
   -3.9090   25.6700  -30.8400 O   0  0  0  0  0  0  0  0  0  0  0  0
   -1.6170   25.5010  -29.3130 O   0  0  0  0  0  0  0  0  0  0  0  0
    0.0070   20.8020  -34.5430 S   0  0  0  0  0  0  0  0  0  0  0  0
    0.2630   19.9330  -35.7420 O   0  0  0  0  0  0  0  0  0  0  0  0
    1.0660   20.5440  -33.5080 O   0  0  0  0  0  0  0  0  0  0  0  0
    0.0720   22.4150  -35.0120 O   0  0  0  0  0  0  0  0  0  0  0  0
    0.0570   18.1100  -34.5700 H   0  0  0  0  0  0  0  0  0  0  0  0
   -3.9288   15.5750  -35.7915 H   0  0  0  0  0  0  0  0  0  0  0  0
   -6.5853   16.1862  -34.9238 H   0  0  0  0  0  0  0  0  0  0  0  0
   -7.9116   17.7940  -33.5137 H   0  0  0  0  0  0  0  0  0  0  0  0
   -4.2450   19.9312  -32.5093 H   0  0  0  0  0  0  0  0  0  0  0  0
   -2.3683   20.6135  -34.6503 H   0  0  0  0  0  0  0  0  0  0  0  0
   -3.7138   23.6171  -32.2719 H   0  0  0  0  0  0  0  0  0  0  0  0
   -4.6700   22.5926  -31.1403 H   0  0  0  0  0  0  0  0  0  0  0  0
   -2.7772   22.3308  -29.6589 H   0  0  0  0  0  0  0  0  0  0  0  0
   -1.6766   23.1215  -30.8536 H   0  0  0  0  0  0  0  0  0  0  0  0
  1  2  1  0
  2  3  2  0
  2  4  1  0
  4  5  2  0
  5  6  1  0
  6  7  2  0
  7  8  1  0
  8  9  2  0
  9 10  1  0
 10 11  1  0
 10 12  1  0
 10 13  1  0
  9 14  1  0
 14 15  2  0
 15 16  1  0
 16 17  1  0
 17 18  2  0
 17 19  1  0
 19 20  1  0
 20 21  2  0
 20 22  1  0
 22 23  1  0
 23 24  1  0
 24 25  1  0
 25 26  2  0
 25 27  1  0
 25 28  1  0
 19 29  1  0
 29 30  2  0
 29 31  2  0
 29 32  1  0
 16  4  1  0
 15  6  1  0
  1 33  1  0
  5 34  1  0
  7 35  1  0
  8 36  1  0
 14 37  1  0
 19 38  1  6
 23 39  1  0
 23 40  1  0
 24 41  1  0
 24 42  1  0
M  CHG  5   1  -1  22  -1  27  -1  28  -1  32  -1
M  END
>  <UniqueID>  (20) 
20

>  <SMILES>  (20) 
[NH-]C(=O)c1cc2ccc(C(F)(F)F)cc2n1C(=O)[C@@H](C(=O)[N-]CCP(=O)([O-])[O-])S(=O)(=O)[O-]

>  <Energy>  (20) 
67.60403478756565

>  <Genealogy>  (20) 
[NH-]C(=O)c1cc2ccc(C(F)(F)F)cc2n1C(=O)C(C(=O)[N-]CCP(=O)([O-])[O-])S(=O)(=O)[O-] (protonated)
[NH-]C(=O)c1cc2ccc(C(F)(F)F)cc2n1C(=O)[C@@H](C(=O)[N-]CCP(=O)([O-])[O-])S(=O)(=O)[O-] (chirality)
[NH-]C(=O)c1cc2ccc(C(F)(F)F)cc2n1C(=O)[C@@H](C(=O)[N-]CCP(=O)([O-])[O-])S(=O)(=O)[O-] (3D coordinates assigned)
[NH-]C(=O)c1cc2ccc(C(F)(F)F)cc2n1C(=O)[C@@H](C(=O)[N-]CCP(=O)([O-])[O-])S(=O)(=O)[O-] (optimized conformer: 67.60403478756565 kcal/mol)

>  <smiles>  (20) 
NC(=O)c1cc2ccc(C(F)(F)F)cc2n1C(=O)C(C(=O)NCCP(=O)(O)O)S(=O)(=O)O

>  <score_type>  (20) 
oracle

>  <origin>  (20) 
adg

>  <m_score__min__energy>  (20) 
-14.26

>  <m_primary>  (20) 
energy

$$$$
21:0
     RDKit          3D

 38 39  0  0  0  0  0  0  0  0999 V2000
   -3.5670   21.8380  -28.8600 C   0  0  0  0  0  0  0  0  0  0  0  0
   -2.6700   22.3130  -30.0010 C   0  0  2  0  0  0  0  0  0  0  0  0
   -2.1190   23.5680  -29.6360 O   0  0  0  0  0  0  0  0  0  0  0  0
   -2.5760   23.9890  -28.3630 C   0  0  0  0  0  0  0  0  0  0  0  0
   -1.7960   25.2130  -27.8840 C   0  0  0  0  0  0  0  0  0  0  0  0
   -1.4810   26.0330  -28.9750 O   0  0  0  0  0  0  0  0  0  0  0  0
   -3.4860   22.4340  -31.2670 C   0  0  0  0  0  0  0  0  0  0  0  0
   -2.9120   22.4900  -32.3890 O   0  0  0  0  0  0  0  0  0  0  0  0
   -4.9100   22.5960  -31.1980 N   0  0  0  0  0  0  0  0  0  0  0  0
   -5.6170   23.7000  -30.8250 C   0  0  0  0  0  0  0  0  0  0  0  0
   -5.0540   24.9230  -30.2230 C   0  0  0  0  0  0  0  0  0  0  0  0
   -3.9010   25.5460  -30.7790 N   0  0  0  0  0  0  0  0  0  0  0  0
   -5.5710   25.4010  -29.1780 O   0  0  0  0  0  0  0  0  0  0  0  0
   -6.9810   23.4940  -31.0260 C   0  0  0  0  0  0  0  0  0  0  0  0
   -7.0870   22.2180  -31.5330 C   0  0  0  0  0  0  0  0  0  0  0  0
   -8.2110   21.4990  -31.9300 C   0  0  0  0  0  0  0  0  0  0  0  0
   -8.0170   20.2050  -32.4450 C   0  0  0  0  0  0  0  0  0  0  0  0
   -6.7120   19.6600  -32.5580 C   0  0  0  0  0  0  0  0  0  0  0  0
   -6.5070   18.2830  -33.1210 C   0  0  0  0  0  0  0  0  0  0  0  0
   -5.7730   18.3640  -34.2910 F   0  0  0  0  0  0  0  0  0  0  0  0
   -5.8230   17.5030  -32.2070 F   0  0  0  0  0  0  0  0  0  0  0  0
   -5.5950   20.4220  -32.1460 C   0  0  0  0  0  0  0  0  0  0  0  0
   -5.8220   21.7000  -31.6250 C   0  0  0  0  0  0  0  0  0  0  0  0
   -3.0976   22.0866  -27.8967 H   0  0  0  0  0  0  0  0  0  0  0  0
   -4.5451   22.3364  -28.9307 H   0  0  0  0  0  0  0  0  0  0  0  0
   -3.7045   20.7489  -28.9307 H   0  0  0  0  0  0  0  0  0  0  0  0
   -1.8577   21.5942  -30.1842 H   0  0  0  0  0  0  0  0  0  0  0  0
   -3.6437   24.2451  -28.4297 H   0  0  0  0  0  0  0  0  0  0  0  0
   -2.4229   23.1700  -27.6448 H   0  0  0  0  0  0  0  0  0  0  0  0
   -2.4091   25.7789  -27.1671 H   0  0  0  0  0  0  0  0  0  0  0  0
   -0.8661   24.8830  -27.3978 H   0  0  0  0  0  0  0  0  0  0  0  0
   -2.0080   25.6860  -29.7410 H   0  0  0  0  0  0  0  0  0  0  0  0
   -2.9420   25.3000  -30.4460 H   0  0  0  0  0  0  0  0  0  0  0  0
   -7.7991   24.2007  -30.8227 H   0  0  0  0  0  0  0  0  0  0  0  0
   -9.2195   21.9297  -31.8435 H   0  0  0  0  0  0  0  0  0  0  0  0
   -8.8854   19.6096  -32.7633 H   0  0  0  0  0  0  0  0  0  0  0  0
   -7.4869   17.8294  -33.3308 H   0  0  0  0  0  0  0  0  0  0  0  0
   -4.5745   20.0206  -32.2328 H   0  0  0  0  0  0  0  0  0  0  0  0
  1  2  1  0
  2  3  1  0
  3  4  1  0
  4  5  1  0
  5  6  1  0
  2  7  1  0
  7  8  2  0
  7  9  1  0
  9 10  1  0
 10 11  1  0
 11 12  1  0
 11 13  2  0
 10 14  2  0
 14 15  1  0
 15 16  2  0
 16 17  1  0
 17 18  2  0
 18 19  1  0
 19 20  1  0
 19 21  1  0
 18 22  1  0
 22 23  2  0
 23  9  1  0
 23 15  1  0
  1 24  1  0
  1 25  1  0
  1 26  1  0
  2 27  1  6
  4 28  1  0
  4 29  1  0
  5 30  1  0
  5 31  1  0
  6 32  1  0
 12 33  1  0
 14 34  1  0
 16 35  1  0
 17 36  1  0
 19 37  1  0
 22 38  1  0
M  CHG  1  12  -1
M  END
>  <UniqueID>  (21) 
21

>  <SMILES>  (21) 
C[C@H](OCCO)C(=O)n1c(C([NH-])=O)cc2ccc(C(F)F)cc21

>  <Energy>  (21) 
75.88101378865815

>  <Genealogy>  (21) 
C[C@H](OCCO)C(=O)n1c(C([NH-])=O)cc2ccc(C(F)F)cc21 (protonated)
C[C@H](OCCO)C(=O)n1c(C([NH-])=O)cc2ccc(C(F)F)cc21 (3D coordinates assigned)
C[C@H](OCCO)C(=O)n1c(C([NH-])=O)cc2ccc(C(F)F)cc21 (optimized conformer: 75.88101378865815 kcal/mol)

>  <smiles>  (21) 
C[C@H](OCCO)C(=O)n1c(C(N)=O)cc2ccc(C(F)F)cc21

>  <score_type>  (21) 
oracle

>  <origin>  (21) 
adg

>  <m_score__min__energy>  (21) 
-10.43

>  <m_primary>  (21) 
energy

$$$$
22:0
     RDKit          3D

 34 35  0  0  0  0  0  0  0  0999 V2000
   -1.4210   25.6510  -29.3050 N   0  0  0  0  0  0  0  0  0  0  0  0
   -0.6630   24.5470  -28.8160 C   0  0  0  0  0  0  0  0  0  0  0  0
    0.4200   24.7500  -28.2050 O   0  0  0  0  0  0  0  0  0  0  0  0
   -1.1280   23.1480  -29.0730 C   0  0  0  0  0  0  0  0  0  0  0  0
   -2.2350   23.1400  -30.0280 N   0  0  0  0  0  0  0  0  0  0  0  0
   -2.8720   21.9150  -30.4190 C   0  0  0  0  0  0  0  0  0  0  0  0
   -2.4720   20.8180  -29.9420 O   0  0  0  0  0  0  0  0  0  0  0  0
   -3.9870   21.9220  -31.3850 C   0  0  0  0  0  0  0  0  0  0  0  0
   -3.8070   21.4910  -32.5550 O   0  0  0  0  0  0  0  0  0  0  0  0
   -5.2820   22.4110  -31.0030 N   0  0  0  0  0  0  0  0  0  0  0  0
   -5.5690   23.5460  -30.3060 C   0  0  0  0  0  0  0  0  0  0  0  0
   -4.5890   24.5680  -29.8810 C   0  0  0  0  0  0  0  0  0  0  0  0
   -3.8560   25.2980  -30.8610 N   0  0  0  0  0  0  0  0  0  0  0  0
   -4.3790   24.7920  -28.6600 O   0  0  0  0  0  0  0  0  0  0  0  0
   -6.9410   23.6460  -30.0830 C   0  0  0  0  0  0  0  0  0  0  0  0
   -7.4880   22.5240  -30.6660 C   0  0  0  0  0  0  0  0  0  0  0  0
   -8.8140   22.1090  -30.7410 C   0  0  0  0  0  0  0  0  0  0  0  0
   -9.0870   20.8920  -31.3870 C   0  0  0  0  0  0  0  0  0  0  0  0
   -8.0350   20.1010  -31.9220 C   0  0  0  0  0  0  0  0  0  0  0  0
   -8.3450   18.8160  -32.6480 C   0  0  0  0  0  0  0  0  0  0  0  0
   -7.2980   18.4600  -33.4810 F   0  0  0  0  0  0  0  0  0  0  0  0
   -8.5480   17.8090  -31.7220 F   0  0  0  0  0  0  0  0  0  0  0  0
   -9.4850   18.9540  -33.4200 F   0  0  0  0  0  0  0  0  0  0  0  0
   -6.7040   20.5700  -31.8430 C   0  0  0  0  0  0  0  0  0  0  0  0
   -6.4660   21.7950  -31.2110 C   0  0  0  0  0  0  0  0  0  0  0  0
   -2.4640   25.6450  -29.2610 H   0  0  0  0  0  0  0  0  0  0  0  0
   -0.2937   22.5593  -29.4820 H   0  0  0  0  0  0  0  0  0  0  0  0
   -1.4746   22.7102  -28.1253 H   0  0  0  0  0  0  0  0  0  0  0  0
   -2.5780   24.0420  -30.4310 H   0  0  0  0  0  0  0  0  0  0  0  0
   -2.8110   25.3080  -30.8530 H   0  0  0  0  0  0  0  0  0  0  0  0
   -7.4739   24.4499  -29.5540 H   0  0  0  0  0  0  0  0  0  0  0  0
   -9.6233   22.7151  -30.3079 H   0  0  0  0  0  0  0  0  0  0  0  0
  -10.1275   20.5473  -31.4798 H   0  0  0  0  0  0  0  0  0  0  0  0
   -5.8749   19.9855  -32.2684 H   0  0  0  0  0  0  0  0  0  0  0  0
  1  2  1  0
  2  3  2  0
  2  4  1  0
  4  5  1  0
  5  6  1  0
  6  7  2  0
  6  8  1  0
  8  9  2  0
  8 10  1  0
 10 11  1  0
 11 12  1  0
 12 13  1  0
 12 14  2  0
 11 15  2  0
 15 16  1  0
 16 17  2  0
 17 18  1  0
 18 19  2  0
 19 20  1  0
 20 21  1  0
 20 22  1  0
 20 23  1  0
 19 24  1  0
 24 25  2  0
 25 10  1  0
 25 16  1  0
  1 26  1  0
  4 27  1  0
  4 28  1  0
  5 29  1  0
 13 30  1  0
 15 31  1  0
 17 32  1  0
 18 33  1  0
 24 34  1  0
M  CHG  2   1  -1  13  -1
M  END
>  <UniqueID>  (22) 
22

>  <SMILES>  (22) 
[NH-]C(=O)CNC(=O)C(=O)n1c(C([NH-])=O)cc2ccc(C(F)(F)F)cc21

>  <Energy>  (22) 
70.45346694084698

>  <Genealogy>  (22) 
[NH-]C(=O)CNC(=O)C(=O)n1c(C([NH-])=O)cc2ccc(C(F)(F)F)cc21 (protonated)
[NH-]C(=O)CNC(=O)C(=O)n1c(C([NH-])=O)cc2ccc(C(F)(F)F)cc21 (3D coordinates assigned)
[NH-]C(=O)CNC(=O)C(=O)n1c(C([NH-])=O)cc2ccc(C(F)(F)F)cc21 (optimized conformer: 70.45346694084698 kcal/mol)

>  <smiles>  (22) 
NC(=O)CNC(=O)C(=O)n1c(C(N)=O)cc2ccc(C(F)(F)F)cc21

>  <score_type>  (22) 
oracle

>  <origin>  (22) 
adg

>  <m_score__min__energy>  (22) 
-12.57

>  <m_primary>  (22) 
energy

$$$$
23:0
     RDKit          3D

 40 41  0  0  0  0  0  0  0  0999 V2000
   -3.0430   25.2790  -30.2310 H   0  0  0  0  0  0  0  0  0  0  0  0
   -3.8650   25.4530  -30.8520 N   0  0  0  0  0  0  0  0  0  0  0  0
   -5.1870   25.1290  -30.4290 C   0  0  0  0  0  0  0  0  0  0  0  0
   -5.7450   25.8450  -29.5560 O   0  0  0  0  0  0  0  0  0  0  0  0
   -5.8900   23.9440  -30.9640 C   0  0  0  0  0  0  0  0  0  0  0  0
   -7.2650   23.9040  -31.1850 C   0  0  0  0  0  0  0  0  0  0  0  0
   -7.9854   24.7248  -31.0533 H   0  0  0  0  0  0  0  0  0  0  0  0
   -7.5310   22.6200  -31.6030 C   0  0  0  0  0  0  0  0  0  0  0  0
   -8.7370   22.0280  -31.9600 C   0  0  0  0  0  0  0  0  0  0  0  0
   -9.6786   22.5958  -31.9287 H   0  0  0  0  0  0  0  0  0  0  0  0
   -8.7160   20.6820  -32.3620 C   0  0  0  0  0  0  0  0  0  0  0  0
   -9.6561   20.1844  -32.6423 H   0  0  0  0  0  0  0  0  0  0  0  0
   -7.4990   19.9570  -32.4110 C   0  0  0  0  0  0  0  0  0  0  0  0
   -7.5260   18.5750  -32.8200 N   0  0  0  0  0  0  0  0  0  0  0  0
   -8.2280   18.2840  -33.5390 H   0  0  0  0  0  0  0  0  0  0  0  0
   -6.6580   17.5300  -32.2750 C   0  0  0  0  0  0  0  0  0  0  0  0
   -5.8077   18.0001  -31.7592 H   0  0  0  0  0  0  0  0  0  0  0  0
   -7.2417   16.9181  -31.5715 H   0  0  0  0  0  0  0  0  0  0  0  0
   -6.1310   16.6270  -33.3890 C   0  0  0  0  0  0  0  0  0  0  0  0
   -5.0698   16.8517  -33.5718 H   0  0  0  0  0  0  0  0  0  0  0  0
   -6.2368   15.5743  -33.0881 H   0  0  0  0  0  0  0  0  0  0  0  0
   -6.8640   16.8530  -34.5600 O   0  0  0  0  0  0  0  0  0  0  0  0
   -6.8290   17.8320  -34.7210 H   0  0  0  0  0  0  0  0  0  0  0  0
   -6.2890   20.6060  -32.0640 C   0  0  0  0  0  0  0  0  0  0  0  0
   -5.3275   20.0759  -32.1304 H   0  0  0  0  0  0  0  0  0  0  0  0
   -6.3440   21.9360  -31.6350 C   0  0  0  0  0  0  0  0  0  0  0  0
   -5.3260   22.7310  -31.2320 N   0  0  0  0  0  0  0  0  0  0  0  0
   -3.9280   22.3900  -31.1970 C   0  0  0  0  0  0  0  0  0  0  0  0
   -3.2200   22.5990  -32.2180 O   0  0  0  0  0  0  0  0  0  0  0  0
   -3.3020   21.7160  -30.0380 C   0  0  0  0  0  0  0  0  0  0  0  0
   -3.4000   20.6216  -29.9855 H   0  0  0  0  0  0  0  0  0  0  0  0
   -2.6260   22.3140  -29.0450 C   0  0  0  0  0  0  0  0  0  0  0  0
   -2.3524   21.6952  -28.1777 H   0  0  0  0  0  0  0  0  0  0  0  0
   -2.2200   23.7280  -29.0190 C   0  0  0  0  0  0  0  0  0  0  0  0
   -1.2560   24.1320  -29.7240 O   0  0  0  0  0  0  0  0  0  0  0  0
   -2.8850   24.6050  -28.1600 O   0  0  0  0  0  0  0  0  0  0  0  0
   -4.0650   24.2380  -27.4560 C   0  0  0  0  0  0  0  0  0  0  0  0
   -3.8790   24.2958  -26.3734 H   0  0  0  0  0  0  0  0  0  0  0  0
   -4.8811   24.9248  -27.7251 H   0  0  0  0  0  0  0  0  0  0  0  0
   -4.3476   23.2095  -27.7251 H   0  0  0  0  0  0  0  0  0  0  0  0
  1  2  1  0
  2  3  1  0
  3  4  2  0
  3  5  1  0
  5  6  2  0
  6  7  1  0
  6  8  1  0
  8  9  2  0
  9 10  1  0
  9 11  1  0
 11 12  1  0
 11 13  2  0
 13 14  1  0
 14 15  1  0
 14 16  1  0
 16 17  1  0
 16 18  1  0
 16 19  1  0
 19 20  1  0
 19 21  1  0
 19 22  1  0
 22 23  1  0
 13 24  1  0
 24 25  1  0
 24 26  2  0
 26 27  1  0
 27 28  1  0
 28 29  2  0
 28 30  1  0
 30 31  1  0
 30 32  2  0
 32 33  1  0
 32 34  1  0
 34 35  2  0
 34 36  1  0
 36 37  1  0
 37 38  1  0
 37 39  1  0
 37 40  1  0
 27  5  1  0
 26  8  1  0
M  CHG  1   2  -1
M  END
>  <UniqueID>  (23) 
23

>  <SMILES>  (23) 
COC(=O)/C=C\C(=O)n1c(C([NH-])=O)cc2ccc(NCCO)cc21

>  <Energy>  (23) 
77.93102701987183

>  <Genealogy>  (23) 
COC(=O)/C=C\C(=O)n1c(C([NH-])=O)cc2ccc(NCCO)cc21 (protonated)
COC(=O)/C=C\C(=O)n1c(C([NH-])=O)cc2ccc(NCCO)cc21 (cis-trans isomerization)
COC(=O)/C=C\C(=O)n1c(C([NH-])=O)cc2ccc(NCCO)cc21 (3D coordinates assigned)
COC(=O)/C=C\C(=O)n1c(C([NH-])=O)cc2ccc(NCCO)cc21 (optimized conformer: 77.93102701987183 kcal/mol)

>  <smiles>  (23) 
COC(=O)/C=C\C(=O)n1c(C(N)=O)cc2ccc(NCCO)cc21

>  <score_type>  (23) 
oracle

>  <origin>  (23) 
adg

>  <m_score__min__energy>  (23) 
-9.6600000000000001

>  <m_primary>  (23) 
energy

$$$$
24:0
     RDKit          3D

 47 51  0  0  0  0  0  0  0  0999 V2000
   -6.1510   25.6910  -29.0650 N   0  0  0  0  0  0  0  0  0  0  0  0
   -5.5930   25.0990  -30.2400 C   0  0  0  0  0  0  0  0  0  0  0  0
   -4.6250   25.6680  -30.8110 O   0  0  0  0  0  0  0  0  0  0  0  0
   -6.1270   23.8260  -30.7770 C   0  0  0  0  0  0  0  0  0  0  0  0
   -7.4470   23.6320  -31.1830 C   0  0  0  0  0  0  0  0  0  0  0  0
   -7.5290   22.3030  -31.5330 C   0  0  0  0  0  0  0  0  0  0  0  0
   -8.6130   21.5630  -31.9960 C   0  0  0  0  0  0  0  0  0  0  0  0
   -8.4070   20.2030  -32.2800 C   0  0  0  0  0  0  0  0  0  0  0  0
   -7.1270   19.6110  -32.1170 C   0  0  0  0  0  0  0  0  0  0  0  0
   -6.9310   18.1400  -32.3840 C   0  0  0  0  0  0  0  0  0  0  0  0
   -6.3670   17.9770  -33.6360 F   0  0  0  0  0  0  0  0  0  0  0  0
   -8.1410   17.4690  -32.3430 F   0  0  0  0  0  0  0  0  0  0  0  0
   -6.0920   17.5790  -31.4360 F   0  0  0  0  0  0  0  0  0  0  0  0
   -6.0580   20.3920  -31.6190 C   0  0  0  0  0  0  0  0  0  0  0  0
   -6.2970   21.7400  -31.3380 C   0  0  0  0  0  0  0  0  0  0  0  0
   -5.4250   22.6620  -30.8800 N   0  0  0  0  0  0  0  0  0  0  0  0
   -4.0360   22.4390  -30.5860 C   0  0  0  0  0  0  0  0  0  0  0  0
   -3.3590   21.7010  -31.3510 O   0  0  0  0  0  0  0  0  0  0  0  0
   -3.3880   23.0800  -29.4170 C   0  0  0  0  0  0  0  0  0  0  0  0
   -2.1180   23.6660  -29.5350 C   0  0  0  0  0  0  0  0  0  0  0  0
   -1.5140   24.2670  -28.4300 C   0  0  0  0  0  0  0  0  0  0  0  0
   -2.1870   24.2900  -27.1980 C   0  0  0  0  0  0  0  0  0  0  0  0
   -1.5990   24.9000  -26.0320 N   0  0  0  0  0  0  0  0  0  0  0  0
   -1.9890   26.2180  -25.5560 C   0  0  0  0  0  0  0  0  0  0  0  0
   -1.1410   26.4940  -24.3230 C   0  0  2  0  0  0  0  0  0  0  0  0
    0.3610   26.5990  -24.5490 C   0  0  0  0  0  0  0  0  0  0  0  0
   -0.2540   25.2810  -24.1030 C   0  0  2  0  0  0  0  0  0  0  0  0
   -0.5730   24.2800  -25.2060 C   0  0  0  0  0  0  0  0  0  0  0  0
   -3.4230   23.7250  -27.1090 N   0  0  0  0  0  0  0  0  0  0  0  0
   -4.0310   23.1320  -28.1700 C   0  0  0  0  0  0  0  0  0  0  0  0
   -6.9950   25.2900  -28.6000 H   0  0  0  0  0  0  0  0  0  0  0  0
   -5.7430   26.5710  -28.6790 H   0  0  0  0  0  0  0  0  0  0  0  0
   -8.2515   24.3814  -31.2165 H   0  0  0  0  0  0  0  0  0  0  0  0
   -9.5999   22.0285  -32.1351 H   0  0  0  0  0  0  0  0  0  0  0  0
   -9.2483   19.5887  -32.6333 H   0  0  0  0  0  0  0  0  0  0  0  0
   -5.0640   19.9497  -31.4570 H   0  0  0  0  0  0  0  0  0  0  0  0
   -1.5963   23.6514  -30.5033 H   0  0  0  0  0  0  0  0  0  0  0  0
   -0.5161   24.7203  -28.5236 H   0  0  0  0  0  0  0  0  0  0  0  0
   -3.0572   26.2277  -25.2937 H   0  0  0  0  0  0  0  0  0  0  0  0
   -1.8329   26.9850  -26.3289 H   0  0  0  0  0  0  0  0  0  0  0  0
   -1.8432   27.1254  -23.7590 H   0  0  0  0  0  0  0  0  0  0  0  0
    0.9832   27.1798  -23.8521 H   0  0  0  0  0  0  0  0  0  0  0  0
    1.0024   26.9156  -25.3847 H   0  0  0  0  0  0  0  0  0  0  0  0
    0.0158   24.5823  -23.2974 H   0  0  0  0  0  0  0  0  0  0  0  0
   -0.9482   23.3413  -24.7723 H   0  0  0  0  0  0  0  0  0  0  0  0
    0.3224   24.0342  -25.7958 H   0  0  0  0  0  0  0  0  0  0  0  0
   -5.0316   22.6907  -28.0512 H   0  0  0  0  0  0  0  0  0  0  0  0
  1  2  1  0
  2  3  2  0
  2  4  1  0
  4  5  2  0
  5  6  1  0
  6  7  2  0
  7  8  1  0
  8  9  2  0
  9 10  1  0
 10 11  1  0
 10 12  1  0
 10 13  1  0
  9 14  1  0
 14 15  2  0
 15 16  1  0
 16 17  1  0
 17 18  2  0
 17 19  1  0
 19 20  2  0
 20 21  1  0
 21 22  2  0
 22 23  1  0
 23 24  1  0
 24 25  1  0
 25 26  1  0
 26 27  1  0
 27 28  1  0
 22 29  1  0
 29 30  2  0
 16  4  1  0
 30 19  1  0
 15  6  1  0
 28 23  1  0
 27 25  1  0
  1 31  1  0
  1 32  1  0
  5 33  1  0
  7 34  1  0
  8 35  1  0
 14 36  1  0
 20 37  1  0
 21 38  1  0
 24 39  1  0
 24 40  1  0
 25 41  1  1
 26 42  1  0
 26 43  1  0
 27 44  1  1
 28 45  1  0
 28 46  1  0
 30 47  1  0
M  END
>  <UniqueID>  (24) 
24

>  <SMILES>  (24) 
NC(=O)c1cc2ccc(C(F)(F)F)cc2n1C(=O)c1ccc(N2C[C@H]3C[C@H]3C2)nc1

>  <Energy>  (24) 
358.93396202484143

>  <Genealogy>  (24) 
NC(=O)c1cc2ccc(C(F)(F)F)cc2n1C(=O)c1ccc(N2C[C@H]3C[C@H]3C2)nc1 (chirality)
NC(=O)c1cc2ccc(C(F)(F)F)cc2n1C(=O)c1ccc(N2C[C@H]3C[C@H]3C2)nc1 (3D coordinates assigned)
NC(=O)c1cc2ccc(C(F)(F)F)cc2n1C(=O)c1ccc(N2C[C@H]3C[C@H]3C2)nc1 (nonaromatic ring conformer: 358.93396202484143 kcal/mol)

>  <smiles>  (24) 
NC(=O)c1cc2ccc(C(F)(F)F)cc2n1C(=O)c1ccc(N2CC3CC3C2)nc1

>  <score_type>  (24) 
oracle

>  <origin>  (24) 
adg

>  <m_score__min__energy>  (24) 
-10.220000000000001

>  <m_primary>  (24) 
energy

$$$$
25:0
     RDKit          3D

 39 40  0  0  0  0  0  0  0  0999 V2000
   -3.5520   22.9510  -28.6580 C   0  0  0  0  0  0  0  0  0  0  0  0
   -2.8870   23.0070  -29.9680 N   0  0  0  0  0  0  0  0  0  0  0  0
   -3.6820   22.7300  -31.1430 C   0  0  0  0  0  0  0  0  0  0  0  0
   -3.1240   22.3510  -32.2090 O   0  0  0  0  0  0  0  0  0  0  0  0
   -5.1060   22.8950  -31.1310 N   0  0  0  0  0  0  0  0  0  0  0  0
   -5.8130   24.0160  -30.8230 C   0  0  0  0  0  0  0  0  0  0  0  0
   -5.2320   25.3170  -30.4340 C   0  0  0  0  0  0  0  0  0  0  0  0
   -3.9190   25.6680  -30.8640 N   0  0  0  0  0  0  0  0  0  0  0  0
   -5.8870   26.1270  -29.7260 O   0  0  0  0  0  0  0  0  0  0  0  0
   -7.1820   23.7660  -30.9190 C   0  0  0  0  0  0  0  0  0  0  0  0
   -7.2850   22.4420  -31.2880 C   0  0  0  0  0  0  0  0  0  0  0  0
   -8.4100   21.6630  -31.5420 C   0  0  0  0  0  0  0  0  0  0  0  0
   -8.2120   20.3250  -31.9240 C   0  0  0  0  0  0  0  0  0  0  0  0
   -6.9030   19.7840  -32.0270 C   0  0  0  0  0  0  0  0  0  0  0  0
   -6.7020   18.3640  -32.4930 C   0  0  0  0  0  0  0  0  0  0  0  0
   -6.2100   18.3750  -33.7850 F   0  0  0  0  0  0  0  0  0  0  0  0
   -5.8010   17.7050  -31.6730 F   0  0  0  0  0  0  0  0  0  0  0  0
   -7.8980   17.6680  -32.4690 F   0  0  0  0  0  0  0  0  0  0  0  0
   -5.7850   20.6150  -31.7800 C   0  0  0  0  0  0  0  0  0  0  0  0
   -6.0160   21.9400  -31.4020 C   0  0  0  0  0  0  0  0  0  0  0  0
   -1.4200   23.1870  -30.0770 C   0  0  2  0  0  0  0  0  0  0  0  0
   -0.6750   21.8670  -29.7740 C   0  0  0  0  0  0  0  0  0  0  0  0
   -0.5250   20.9780  -30.9720 C   0  0  0  0  0  0  0  0  0  0  0  0
   -0.0860   21.4390  -32.0580 O   0  0  0  0  0  0  0  0  0  0  0  0
   -0.8570   19.6310  -30.8820 O   0  0  0  0  0  0  0  0  0  0  0  0
   -0.9310   24.3680  -29.2690 C   0  0  0  0  0  0  0  0  0  0  0  0
    0.1350   24.3010  -28.6010 O   0  0  0  0  0  0  0  0  0  0  0  0
   -1.6090   25.5790  -29.3410 O   0  0  0  0  0  0  0  0  0  0  0  0
   -2.7970   23.0146  -27.8605 H   0  0  0  0  0  0  0  0  0  0  0  0
   -4.2536   23.7932  -28.5667 H   0  0  0  0  0  0  0  0  0  0  0  0
   -4.1029   22.0033  -28.5667 H   0  0  0  0  0  0  0  0  0  0  0  0
   -3.0760   25.2950  -30.3740 H   0  0  0  0  0  0  0  0  0  0  0  0
   -8.0040   24.4744  -30.7387 H   0  0  0  0  0  0  0  0  0  0  0  0
   -9.4228   22.0815  -31.4467 H   0  0  0  0  0  0  0  0  0  0  0  0
   -9.0817   19.6890  -32.1459 H   0  0  0  0  0  0  0  0  0  0  0  0
   -4.7605   20.2280  -31.8829 H   0  0  0  0  0  0  0  0  0  0  0  0
   -1.1805   23.4394  -31.1205 H   0  0  0  0  0  0  0  0  0  0  0  0
    0.3278   22.1121  -29.3942 H   0  0  0  0  0  0  0  0  0  0  0  0
   -1.2770   21.3171  -29.0356 H   0  0  0  0  0  0  0  0  0  0  0  0
  1  2  1  0
  2  3  1  0
  3  4  2  0
  3  5  1  0
  5  6  1  0
  6  7  1  0
  7  8  1  0
  7  9  2  0
  6 10  2  0
 10 11  1  0
 11 12  2  0
 12 13  1  0
 13 14  2  0
 14 15  1  0
 15 16  1  0
 15 17  1  0
 15 18  1  0
 14 19  1  0
 19 20  2  0
  2 21  1  0
 21 22  1  0
 22 23  1  0
 23 24  2  0
 23 25  1  0
 21 26  1  0
 26 27  2  0
 26 28  1  0
 20  5  1  0
 20 11  1  0
  1 29  1  0
  1 30  1  0
  1 31  1  0
  8 32  1  0
 10 33  1  0
 12 34  1  0
 13 35  1  0
 19 36  1  0
 21 37  1  6
 22 38  1  0
 22 39  1  0
M  CHG  3   8  -1  25  -1  28  -1
M  END
>  <UniqueID>  (25) 
25

>  <SMILES>  (25) 
CN(C(=O)n1c(C([NH-])=O)cc2ccc(C(F)(F)F)cc21)[C@H](CC(=O)[O-])C(=O)[O-]

>  <Energy>  (25) 
78.9424677797215

>  <Genealogy>  (25) 
CN(C(=O)n1c(C([NH-])=O)cc2ccc(C(F)(F)F)cc21)C(CC(=O)[O-])C(=O)[O-] (protonated)
CN(C(=O)n1c(C([NH-])=O)cc2ccc(C(F)(F)F)cc21)[C@H](CC(=O)[O-])C(=O)[O-] (chirality)
CN(C(=O)n1c(C([NH-])=O)cc2ccc(C(F)(F)F)cc21)[C@H](CC(=O)[O-])C(=O)[O-] (3D coordinates assigned)
CN(C(=O)n1c(C([NH-])=O)cc2ccc(C(F)(F)F)cc21)[C@H](CC(=O)[O-])C(=O)[O-] (optimized conformer: 78.9424677797215 kcal/mol)

>  <smiles>  (25) 
CN(C(=O)n1c(C(N)=O)cc2ccc(C(F)(F)F)cc21)C(CC(=O)O)C(=O)O

>  <score_type>  (25) 
oracle

>  <origin>  (25) 
adg

>  <m_score__min__energy>  (25) 
-12.35

>  <m_primary>  (25) 
energy

$$$$
26:0
     RDKit          3D

 43 44  0  0  0  0  0  0  0  0999 V2000
   -3.9110   25.6600  -30.8750 N   0  0  0  0  0  0  0  0  0  0  0  0
   -5.2130   25.2550  -30.4580 C   0  0  0  0  0  0  0  0  0  0  0  0
   -5.8940   26.0240  -29.7290 O   0  0  0  0  0  0  0  0  0  0  0  0
   -5.7910   23.9740  -30.9140 C   0  0  0  0  0  0  0  0  0  0  0  0
   -7.1600   23.7100  -30.9170 C   0  0  0  0  0  0  0  0  0  0  0  0
   -7.2880   22.4620  -31.4830 C   0  0  0  0  0  0  0  0  0  0  0  0
   -8.4290   21.7020  -31.7270 C   0  0  0  0  0  0  0  0  0  0  0  0
   -8.2630   20.4290  -32.2990 C   0  0  0  0  0  0  0  0  0  0  0  0
   -6.9690   19.9370  -32.6010 C   0  0  0  0  0  0  0  0  0  0  0  0
   -6.8070   18.5770  -33.2290 C   0  0  0  0  0  0  0  0  0  0  0  0
   -5.7580   18.5810  -34.3520 C   0  0  0  0  0  0  0  0  0  0  0  0
   -4.3280   18.3690  -33.8430 C   0  0  0  0  0  0  0  0  0  0  0  0
   -3.5420   19.4940  -34.1240 O   0  0  0  0  0  0  0  0  0  0  0  0
   -5.8340   20.7400  -32.3450 C   0  0  0  0  0  0  0  0  0  0  0  0
   -6.0310   22.0110  -31.7950 C   0  0  0  0  0  0  0  0  0  0  0  0
   -5.1020   22.9290  -31.4510 N   0  0  0  0  0  0  0  0  0  0  0  0
   -3.6780   22.7690  -31.5370 C   0  0  0  0  0  0  0  0  0  0  0  0
   -3.1850   21.9780  -32.3870 O   0  0  0  0  0  0  0  0  0  0  0  0
   -2.8470   23.4800  -30.6640 O   0  0  0  0  0  0  0  0  0  0  0  0
   -2.2310   22.9060  -29.5110 C   0  0  0  0  0  0  0  0  0  0  0  0
   -2.2090   23.8930  -28.3310 C   0  0  2  0  0  0  0  0  0  0  0  0
   -3.4000   24.6350  -28.3190 O   0  0  0  0  0  0  0  0  0  0  0  0
   -1.0030   24.8450  -28.3970 C   0  0  0  0  0  0  0  0  0  0  0  0
   -1.2400   25.8880  -29.3050 O   0  0  0  0  0  0  0  0  0  0  0  0
   -3.0570   25.2960  -30.3980 H   0  0  0  0  0  0  0  0  0  0  0  0
   -7.9659   24.3604  -30.5461 H   0  0  0  0  0  0  0  0  0  0  0  0
   -9.4296   22.0862  -31.4796 H   0  0  0  0  0  0  0  0  0  0  0  0
   -9.1457   19.8089  -32.5142 H   0  0  0  0  0  0  0  0  0  0  0  0
   -6.4936   17.8630  -32.4532 H   0  0  0  0  0  0  0  0  0  0  0  0
   -7.7734   18.2892  -33.6687 H   0  0  0  0  0  0  0  0  0  0  0  0
   -6.0004   17.7745  -35.0597 H   0  0  0  0  0  0  0  0  0  0  0  0
   -5.7921   19.5722  -34.8277 H   0  0  0  0  0  0  0  0  0  0  0  0
   -4.3502   18.2038  -32.7557 H   0  0  0  0  0  0  0  0  0  0  0  0
   -3.8939   17.4932  -34.3475 H   0  0  0  0  0  0  0  0  0  0  0  0
   -3.5950   20.0750  -33.3210 H   0  0  0  0  0  0  0  0  0  0  0  0
   -4.8217   20.3746  -32.5725 H   0  0  0  0  0  0  0  0  0  0  0  0
   -2.7936   22.0082  -29.2152 H   0  0  0  0  0  0  0  0  0  0  0  0
   -1.1918   22.6515  -29.7665 H   0  0  0  0  0  0  0  0  0  0  0  0
   -2.1178   23.3075  -27.4042 H   0  0  0  0  0  0  0  0  0  0  0  0
   -3.4200   25.1610  -29.1620 H   0  0  0  0  0  0  0  0  0  0  0  0
   -0.8242   25.2701  -27.3983 H   0  0  0  0  0  0  0  0  0  0  0  0
   -0.1237   24.2769  -28.7347 H   0  0  0  0  0  0  0  0  0  0  0  0
   -2.0850   25.6720  -29.7790 H   0  0  0  0  0  0  0  0  0  0  0  0
  1  2  1  0
  2  3  2  0
  2  4  1  0
  4  5  2  0
  5  6  1  0
  6  7  2  0
  7  8  1  0
  8  9  2  0
  9 10  1  0
 10 11  1  0
 11 12  1  0
 12 13  1  0
  9 14  1  0
 14 15  2  0
 15 16  1  0
 16 17  1  0
 17 18  2  0
 17 19  1  0
 19 20  1  0
 20 21  1  0
 21 22  1  0
 21 23  1  0
 23 24  1  0
 16  4  1  0
 15  6  1  0
  1 25  1  0
  5 26  1  0
  7 27  1  0
  8 28  1  0
 10 29  1  0
 10 30  1  0
 11 31  1  0
 11 32  1  0
 12 33  1  0
 12 34  1  0
 13 35  1  0
 14 36  1  0
 20 37  1  0
 20 38  1  0
 21 39  1  1
 22 40  1  0
 23 41  1  0
 23 42  1  0
 24 43  1  0
M  CHG  1   1  -1
M  END
>  <UniqueID>  (26) 
26

>  <SMILES>  (26) 
[NH-]C(=O)c1cc2ccc(CCCO)cc2n1C(=O)OC[C@H](O)CO

>  <Energy>  (26) 
73.30041416857702

>  <Genealogy>  (26) 
[NH-]C(=O)c1cc2ccc(CCCO)cc2n1C(=O)OCC(O)CO (protonated)
[NH-]C(=O)c1cc2ccc(CCCO)cc2n1C(=O)OC[C@H](O)CO (chirality)
[NH-]C(=O)c1cc2ccc(CCCO)cc2n1C(=O)OC[C@H](O)CO (3D coordinates assigned)
[NH-]C(=O)c1cc2ccc(CCCO)cc2n1C(=O)OC[C@H](O)CO (optimized conformer: 73.30041416857702 kcal/mol)

>  <smiles>  (26) 
NC(=O)c1cc2ccc(CCCO)cc2n1C(=O)OCC(O)CO

>  <score_type>  (26) 
oracle

>  <origin>  (26) 
adg

>  <m_score__min__energy>  (26) 
-10.27

>  <m_primary>  (26) 
energy

$$$$
27:0
     RDKit          3D

 38 39  0  0  0  0  0  0  0  0999 V2000
   -3.9370   17.5210  -35.3390 N   0  0  0  0  0  0  0  0  0  0  0  0
   -4.9760   18.1580  -34.5950 C   0  0  0  0  0  0  0  0  0  0  0  0
   -6.1790   17.8860  -34.8560 O   0  0  0  0  0  0  0  0  0  0  0  0
   -4.6710   19.1770  -33.5700 C   0  0  0  0  0  0  0  0  0  0  0  0
   -5.6490   19.8990  -32.8920 C   0  0  0  0  0  0  0  0  0  0  0  0
   -4.9590   20.7810  -32.0930 C   0  0  0  0  0  0  0  0  0  0  0  0
   -5.4340   21.7420  -31.2040 C   0  0  0  0  0  0  0  0  0  0  0  0
   -4.4920   22.4980  -30.4870 C   0  0  0  0  0  0  0  0  0  0  0  0
   -3.1040   22.2670  -30.6530 C   0  0  0  0  0  0  0  0  0  0  0  0
   -2.1040   23.0950  -29.8960 C   0  0  0  0  0  0  0  0  0  0  0  0
   -2.8450   24.6790  -29.3980 P   0  0  0  0  0  0  0  0  0  0  0  0
   -3.7530   24.4680  -28.2080 O   0  0  0  0  0  0  0  0  0  0  0  0
   -1.6240   25.7750  -28.9880 O   0  0  0  0  0  0  0  0  0  0  0  0
   -3.7470   25.3010  -30.6860 O   0  0  0  0  0  0  0  0  0  0  0  0
   -2.6600   21.2870  -31.5660 C   0  0  0  0  0  0  0  0  0  0  0  0
   -3.6190   20.5680  -32.2900 C   0  0  0  0  0  0  0  0  0  0  0  0
   -3.4250   19.5830  -33.1950 N   0  0  0  0  0  0  0  0  0  0  0  0
   -2.1620   19.0280  -33.5990 C   0  0  0  0  0  0  0  0  0  0  0  0
   -1.6640   18.0610  -32.9590 O   0  0  0  0  0  0  0  0  0  0  0  0
   -1.4910   19.5610  -34.7040 O   0  0  0  0  0  0  0  0  0  0  0  0
   -0.0790   19.7490  -34.7320 C   0  0  0  0  0  0  0  0  0  0  0  0
    0.2840   21.1890  -34.3410 C   0  0  2  0  0  0  0  0  0  0  0  0
   -0.8340   21.8830  -33.8450 O   0  0  0  0  0  0  0  0  0  0  0  0
    0.9190   21.9300  -35.4870 C   0  0  0  0  0  0  0  0  0  0  0  0
    0.6040   23.1240  -35.7330 O   0  0  0  0  0  0  0  0  0  0  0  0
    1.8280   21.2790  -36.3120 O   0  0  0  0  0  0  0  0  0  0  0  0
   -4.1700   16.7750  -36.0310 H   0  0  0  0  0  0  0  0  0  0  0  0
   -2.9480   17.8470  -35.2700 H   0  0  0  0  0  0  0  0  0  0  0  0
   -6.7401   19.7881  -32.9769 H   0  0  0  0  0  0  0  0  0  0  0  0
   -6.5134   21.9040  -31.0675 H   0  0  0  0  0  0  0  0  0  0  0  0
   -4.8352   23.2768  -29.7900 H   0  0  0  0  0  0  0  0  0  0  0  0
   -1.7836   22.5460  -28.9983 H   0  0  0  0  0  0  0  0  0  0  0  0
   -1.2384   23.2931  -30.5453 H   0  0  0  0  0  0  0  0  0  0  0  0
   -1.5864   21.0925  -31.7056 H   0  0  0  0  0  0  0  0  0  0  0  0
    0.3923   19.0525  -34.0230 H   0  0  0  0  0  0  0  0  0  0  0  0
    0.2834   19.5573  -35.7527 H   0  0  0  0  0  0  0  0  0  0  0  0
    1.0273   21.1304  -33.5322 H   0  0  0  0  0  0  0  0  0  0  0  0
   -1.2260   22.4070  -34.5900 H   0  0  0  0  0  0  0  0  0  0  0  0
  1  2  1  0
  2  3  2  0
  2  4  1  0
  4  5  2  0
  5  6  1  0
  6  7  2  0
  7  8  1  0
  8  9  2  0
  9 10  1  0
 10 11  1  0
 11 12  2  0
 11 13  1  0
 11 14  1  0
  9 15  1  0
 15 16  2  0
 16 17  1  0
 17 18  1  0
 18 19  2  0
 18 20  1  0
 20 21  1  0
 21 22  1  0
 22 23  1  0
 22 24  1  0
 24 25  2  0
 24 26  1  0
 17  4  1  0
 16  6  1  0
  1 27  1  0
  1 28  1  0
  5 29  1  0
  7 30  1  0
  8 31  1  0
 10 32  1  0
 10 33  1  0
 15 34  1  0
 21 35  1  0
 21 36  1  0
 22 37  1  1
 23 38  1  0
M  CHG  3  13  -1  14  -1  26  -1
M  END
>  <UniqueID>  (27) 
27

>  <SMILES>  (27) 
NC(=O)c1cc2ccc(CP(=O)([O-])[O-])cc2n1C(=O)OC[C@H](O)C(=O)[O-]

>  <Energy>  (27) 
68.86849051430296

>  <Genealogy>  (27) 
NC(=O)c1cc2ccc(CP(=O)([O-])[O-])cc2n1C(=O)OCC(O)C(=O)[O-] (protonated)
NC(=O)c1cc2ccc(CP(=O)([O-])[O-])cc2n1C(=O)OC[C@H](O)C(=O)[O-] (chirality)
NC(=O)c1cc2ccc(CP(=O)([O-])[O-])cc2n1C(=O)OC[C@H](O)C(=O)[O-] (3D coordinates assigned)
NC(=O)c1cc2ccc(CP(=O)([O-])[O-])cc2n1C(=O)OC[C@H](O)C(=O)[O-] (optimized conformer: 68.86849051430296 kcal/mol)

>  <smiles>  (27) 
NC(=O)c1cc2ccc(CP(=O)(O)O)cc2n1C(=O)OCC(O)C(=O)O

>  <score_type>  (27) 
oracle

>  <origin>  (27) 
adg

>  <m_score__min__energy>  (27) 
-12.5

>  <m_primary>  (27) 
energy

$$$$
28:0
     RDKit          3D

 40 42  0  0  0  0  0  0  0  0999 V2000
   -2.9311   22.8841  -28.5589 H   0  0  0  0  0  0  0  0  0  0  0  0
   -2.4880   23.3060  -29.4730 C   0  0  0  0  0  0  0  0  0  0  0  0
   -1.3820   24.2680  -29.3520 C   0  0  0  0  0  0  0  0  0  0  0  0
   -0.1990   23.8480  -29.2630 O   0  0  0  0  0  0  0  0  0  0  0  0
   -1.6230   25.6370  -29.3330 O   0  0  0  0  0  0  0  0  0  0  0  0
   -2.9710   22.9290  -30.6630 C   0  0  0  0  0  0  0  0  0  0  0  0
   -2.5249   23.3526  -31.5749 H   0  0  0  0  0  0  0  0  0  0  0  0
   -4.0810   21.9650  -30.7950 C   0  0  0  0  0  0  0  0  0  0  0  0
   -3.8640   20.7250  -30.7060 O   0  0  0  0  0  0  0  0  0  0  0  0
   -5.4250   22.4340  -30.9900 N   0  0  0  0  0  0  0  0  0  0  0  0
   -5.9580   23.6100  -30.5580 C   0  0  0  0  0  0  0  0  0  0  0  0
   -5.2120   24.7140  -29.9190 C   0  0  0  0  0  0  0  0  0  0  0  0
   -4.5810   25.5320  -30.6400 O   0  0  0  0  0  0  0  0  0  0  0  0
   -5.1470   24.8430  -28.4980 N   0  0  0  0  0  0  0  0  0  0  0  0
   -4.6600   25.6600  -28.0690 H   0  0  0  0  0  0  0  0  0  0  0  0
   -5.4920   24.0840  -27.8690 H   0  0  0  0  0  0  0  0  0  0  0  0
   -7.3260   23.6530  -30.8150 C   0  0  0  0  0  0  0  0  0  0  0  0
   -8.0245   24.4692  -30.5785 H   0  0  0  0  0  0  0  0  0  0  0  0
   -7.6170   22.4560  -31.4280 C   0  0  0  0  0  0  0  0  0  0  0  0
   -8.8350   21.9520  -31.8740 C   0  0  0  0  0  0  0  0  0  0  0  0
   -9.7559   22.5491  -31.8002 H   0  0  0  0  0  0  0  0  0  0  0  0
   -8.8540   20.6590  -32.4210 C   0  0  0  0  0  0  0  0  0  0  0  0
   -9.8020   20.2376  -32.7866 H   0  0  0  0  0  0  0  0  0  0  0  0
   -7.6630   19.8880  -32.5080 C   0  0  0  0  0  0  0  0  0  0  0  0
   -7.6610   18.5540  -33.0480 N   0  0  0  0  0  0  0  0  0  0  0  0
   -8.4660   18.2610  -33.6490 H   0  0  0  0  0  0  0  0  0  0  0  0
   -6.6370   17.5470  -32.7700 C   0  0  0  0  0  0  0  0  0  0  0  0
   -5.9857   17.9049  -31.9590 H   0  0  0  0  0  0  0  0  0  0  0  0
   -7.1270   16.6088  -32.4705 H   0  0  0  0  0  0  0  0  0  0  0  0
   -5.7910   17.2930  -34.0260 C   0  0  0  0  0  0  0  0  0  0  0  0
   -6.0214   16.2196  -34.0945 H   0  0  0  0  0  0  0  0  0  0  0  0
   -5.7440   18.4750  -34.9830 C   0  0  0  0  0  0  0  0  0  0  0  0
   -5.7547   18.3033  -36.0695 H   0  0  0  0  0  0  0  0  0  0  0  0
   -6.3428   19.3874  -35.1208 H   0  0  0  0  0  0  0  0  0  0  0  0
   -4.5150   18.1120  -34.1700 C   0  0  0  0  0  0  0  0  0  0  0  0
   -3.6356   17.6769  -34.6673 H   0  0  0  0  0  0  0  0  0  0  0  0
   -3.8551   18.6520  -33.4750 H   0  0  0  0  0  0  0  0  0  0  0  0
   -6.4500   20.4330  -32.0310 C   0  0  0  0  0  0  0  0  0  0  0  0
   -5.5203   19.8460  -32.0629 H   0  0  0  0  0  0  0  0  0  0  0  0
   -6.4550   21.7350  -31.5170 C   0  0  0  0  0  0  0  0  0  0  0  0
  1  2  1  0
  2  3  1  0
  3  4  2  0
  3  5  1  0
  2  6  2  0
  6  7  1  0
  6  8  1  0
  8  9  2  0
  8 10  1  0
 10 11  1  0
 11 12  1  0
 12 13  2  0
 12 14  1  0
 14 15  1  0
 14 16  1  0
 11 17  2  0
 17 18  1  0
 17 19  1  0
 19 20  2  0
 20 21  1  0
 20 22  1  0
 22 23  1  0
 22 24  2  0
 24 25  1  0
 25 26  1  0
 25 27  1  0
 27 28  1  0
 27 29  1  0
 27 30  1  0
 30 31  1  0
 30 32  1  0
 32 33  1  0
 32 34  1  0
 32 35  1  0
 35 36  1  0
 35 37  1  0
 24 38  1  0
 38 39  1  0
 38 40  2  0
 40 10  1  0
 40 19  1  0
 35 30  1  0
M  CHG  1   5  -1
M  END
>  <UniqueID>  (28) 
28

>  <SMILES>  (28) 
NC(=O)c1cc2ccc(NCC3CC3)cc2n1C(=O)/C=C/C(=O)[O-]

>  <Energy>  (28) 
342.27271154029154

>  <Genealogy>  (28) 
NC(=O)c1cc2ccc(NCC3CC3)cc2n1C(=O)/C=C/C(=O)[O-] (protonated)
NC(=O)c1cc2ccc(NCC3CC3)cc2n1C(=O)/C=C/C(=O)[O-] (cis-trans isomerization)
NC(=O)c1cc2ccc(NCC3CC3)cc2n1C(=O)/C=C/C(=O)[O-] (3D coordinates assigned)
NC(=O)c1cc2ccc(NCC3CC3)cc2n1C(=O)/C=C/C(=O)[O-] (nonaromatic ring conformer: 342.27271154029154 kcal/mol)

>  <smiles>  (28) 
NC(=O)c1cc2ccc(NCC3CC3)cc2n1C(=O)/C=C/C(=O)O

>  <score_type>  (28) 
oracle

>  <origin>  (28) 
adg

>  <m_score__min__energy>  (28) 
-11.460000000000001

>  <m_primary>  (28) 
energy

$$$$
29:0
     RDKit          3D

 48 49  0  0  0  0  0  0  0  0999 V2000
   -3.9070   25.6480  -30.8390 N   0  0  0  0  0  0  0  0  0  0  0  0
   -5.1770   25.1960  -30.3750 C   0  0  0  0  0  0  0  0  0  0  0  0
   -5.8190   25.9080  -29.5570 O   0  0  0  0  0  0  0  0  0  0  0  0
   -5.7620   23.9220  -30.8500 C   0  0  0  0  0  0  0  0  0  0  0  0
   -7.1180   23.7630  -31.1370 C   0  0  0  0  0  0  0  0  0  0  0  0
   -7.2510   22.4600  -31.5590 C   0  0  0  0  0  0  0  0  0  0  0  0
   -8.3850   21.7630  -31.9650 C   0  0  0  0  0  0  0  0  0  0  0  0
   -8.2350   20.4130  -32.3220 C   0  0  0  0  0  0  0  0  0  0  0  0
   -6.9670   19.7770  -32.2400 C   0  0  0  0  0  0  0  0  0  0  0  0
   -6.8010   18.3350  -32.6470 C   0  0  0  0  0  0  0  0  0  0  0  0
   -7.9850   17.6580  -32.4210 F   0  0  0  0  0  0  0  0  0  0  0  0
   -5.7910   17.7270  -31.9220 F   0  0  0  0  0  0  0  0  0  0  0  0
   -6.4810   18.2510  -33.9900 F   0  0  0  0  0  0  0  0  0  0  0  0
   -5.8370   20.5290  -31.8460 C   0  0  0  0  0  0  0  0  0  0  0  0
   -6.0130   21.8770  -31.5190 C   0  0  0  0  0  0  0  0  0  0  0  0
   -5.0840   22.7660  -31.1010 N   0  0  0  0  0  0  0  0  0  0  0  0
   -3.6800   22.5130  -30.9170 C   0  0  0  0  0  0  0  0  0  0  0  0
   -2.8430   23.3960  -31.2450 O   0  0  0  0  0  0  0  0  0  0  0  0
   -3.1790   21.2330  -30.3000 C   0  0  0  0  0  0  0  0  0  0  0  0
   -3.2740   21.2540  -28.8420 N   0  0  0  0  0  0  0  0  0  0  0  0
   -3.2120   22.4120  -27.9990 C   0  0  0  0  0  0  0  0  0  0  0  0
   -4.2380   23.1320  -27.8900 O   0  0  0  0  0  0  0  0  0  0  0  0
   -1.9740   22.7840  -27.2240 C   0  0  0  0  0  0  0  0  0  0  0  0
   -1.9010   24.2880  -26.9320 C   0  0  0  0  0  0  0  0  0  0  0  0
   -0.7860   25.1460  -28.0390 S   0  0  0  0  0  0  0  0  0  0  0  0
   -1.5880   26.0350  -28.9510 O   0  0  0  0  0  0  0  0  0  0  0  0
   -0.0120   24.1460  -28.8550 O   0  0  0  0  0  0  0  0  0  0  0  0
    0.2780   26.0700  -27.1000 O   0  0  0  0  0  0  0  0  0  0  0  0
   -0.2260   27.3800  -27.0090 C   0  0  0  0  0  0  0  0  0  0  0  0
   -0.7530   27.5970  -25.6260 C   0  0  0  0  0  0  0  0  0  0  0  0
   -1.2440   28.7140  -25.3140 O   0  0  0  0  0  0  0  0  0  0  0  0
   -0.7580   26.5260  -24.6780 N   0  0  0  0  0  0  0  0  0  0  0  0
   -1.2360   26.7150  -23.4250 O   0  0  0  0  0  0  0  0  0  0  0  0
   -3.0220   25.3020  -30.4060 H   0  0  0  0  0  0  0  0  0  0  0  0
   -7.9121   24.5187  -31.0454 H   0  0  0  0  0  0  0  0  0  0  0  0
   -9.3684   22.2542  -32.0051 H   0  0  0  0  0  0  0  0  0  0  0  0
   -9.1087   19.8417  -32.6689 H   0  0  0  0  0  0  0  0  0  0  0  0
   -4.8412   20.0641  -31.7977 H   0  0  0  0  0  0  0  0  0  0  0  0
   -3.7801   20.3951  -30.6830 H   0  0  0  0  0  0  0  0  0  0  0  0
   -2.1188   21.1182  -30.5697 H   0  0  0  0  0  0  0  0  0  0  0  0
   -1.9768   22.2379  -26.2692 H   0  0  0  0  0  0  0  0  0  0  0  0
   -1.1002   22.5170  -27.8365 H   0  0  0  0  0  0  0  0  0  0  0  0
   -2.9075   24.7182  -27.0414 H   0  0  0  0  0  0  0  0  0  0  0  0
   -1.5181   24.4123  -25.9083 H   0  0  0  0  0  0  0  0  0  0  0  0
    0.5785   28.1011  -27.2158 H   0  0  0  0  0  0  0  0  0  0  0  0
   -1.0322   27.5229  -27.7436 H   0  0  0  0  0  0  0  0  0  0  0  0
   -0.4120   25.5790  -24.9530 H   0  0  0  0  0  0  0  0  0  0  0  0
   -1.6550   27.6130  -23.4470 H   0  0  0  0  0  0  0  0  0  0  0  0
  1  2  1  0
  2  3  2  0
  2  4  1  0
  4  5  2  0
  5  6  1  0
  6  7  2  0
  7  8  1  0
  8  9  2  0
  9 10  1  0
 10 11  1  0
 10 12  1  0
 10 13  1  0
  9 14  1  0
 14 15  2  0
 15 16  1  0
 16 17  1  0
 17 18  2  0
 17 19  1  0
 19 20  1  0
 20 21  1  0
 21 22  2  0
 21 23  1  0
 23 24  1  0
 24 25  1  0
 25 26  2  0
 25 27  2  0
 25 28  1  0
 28 29  1  0
 29 30  1  0
 30 31  2  0
 30 32  1  0
 32 33  1  0
 16  4  1  0
 15  6  1  0
  1 34  1  0
  5 35  1  0
  7 36  1  0
  8 37  1  0
 14 38  1  0
 19 39  1  0
 19 40  1  0
 23 41  1  0
 23 42  1  0
 24 43  1  0
 24 44  1  0
 29 45  1  0
 29 46  1  0
 32 47  1  0
 33 48  1  0
M  CHG  2   1  -1  20  -1
M  END
>  <UniqueID>  (29) 
29

>  <SMILES>  (29) 
[NH-]C(=O)c1cc2ccc(C(F)(F)F)cc2n1C(=O)C[N-]C(=O)CCS(=O)(=O)OCC(=O)NO

>  <Energy>  (29) 
78.28147539970412

>  <Genealogy>  (29) 
[NH-]C(=O)c1cc2ccc(C(F)(F)F)cc2n1C(=O)C[N-]C(=O)CCS(=O)(=O)OCC(=O)NO (protonated)
[NH-]C(=O)c1cc2ccc(C(F)(F)F)cc2n1C(=O)C[N-]C(=O)CCS(=O)(=O)OCC(=O)NO (3D coordinates assigned)
[NH-]C(=O)c1cc2ccc(C(F)(F)F)cc2n1C(=O)C[N-]C(=O)CCS(=O)(=O)OCC(=O)NO (optimized conformer: 78.28147539970412 kcal/mol)

>  <smiles>  (29) 
NC(=O)c1cc2ccc(C(F)(F)F)cc2n1C(=O)CNC(=O)CCS(=O)(=O)OCC(=O)NO

>  <score_type>  (29) 
oracle

>  <origin>  (29) 
adg

>  <m_score__min__energy>  (29) 
-11.24

>  <m_primary>  (29) 
energy

$$$$
30:0
     RDKit          3D

 45 47  0  0  0  0  0  0  0  0999 V2000
   -1.5280   20.0400  -34.5960 N   0  0  0  0  0  0  0  0  0  0  0  0
   -2.0670   19.1280  -33.6420 C   0  0  0  0  0  0  0  0  0  0  0  0
   -1.3070   18.2850  -33.0950 O   0  0  0  0  0  0  0  0  0  0  0  0
   -3.4960   19.2030  -33.2780 C   0  0  0  0  0  0  0  0  0  0  0  0
   -4.3680   18.1170  -33.3400 C   0  0  0  0  0  0  0  0  0  0  0  0
   -5.6020   18.6220  -33.0030 C   0  0  0  0  0  0  0  0  0  0  0  0
   -6.8350   17.9840  -32.8990 C   0  0  0  0  0  0  0  0  0  0  0  0
   -7.9460   18.7550  -32.5140 C   0  0  0  0  0  0  0  0  0  0  0  0
   -7.8080   20.1430  -32.2340 C   0  0  0  0  0  0  0  0  0  0  0  0
   -8.9310   20.9550  -31.8290 N   0  0  0  0  0  0  0  0  0  0  0  0
   -8.8120   22.2870  -31.2180 C   0  0  0  0  0  0  0  0  0  0  0  0
   -8.5100   23.3600  -32.2960 C   0  0  0  0  0  0  0  0  0  0  0  0
   -7.0340   23.7730  -32.2930 C   0  0  0  0  0  0  0  0  0  0  0  0
   -6.6210   24.3390  -30.9940 N   0  0  0  0  0  0  0  0  0  0  0  0
   -7.2500   23.7010  -29.8180 C   0  0  0  0  0  0  0  0  0  0  0  0
   -7.7400   22.2760  -30.1040 C   0  0  0  0  0  0  0  0  0  0  0  0
   -6.5370   20.7480  -32.3540 C   0  0  0  0  0  0  0  0  0  0  0  0
   -5.4540   19.9590  -32.7500 C   0  0  0  0  0  0  0  0  0  0  0  0
   -4.1660   20.3310  -32.9070 N   0  0  0  0  0  0  0  0  0  0  0  0
   -3.6350   21.6440  -32.6620 C   0  0  0  0  0  0  0  0  0  0  0  0
   -2.9930   22.2320  -33.5710 O   0  0  0  0  0  0  0  0  0  0  0  0
   -3.8580   22.3450  -31.3540 C   0  0  0  0  0  0  0  0  0  0  0  0
   -2.8450   23.3010  -31.1420 O   0  0  0  0  0  0  0  0  0  0  0  0
   -3.4660   24.5330  -30.1400 P   0  0  0  0  0  0  0  0  0  0  0  0
   -4.3960   23.9430  -29.1040 O   0  0  0  0  0  0  0  0  0  0  0  0
   -2.1800   25.2990  -29.3540 O   0  0  0  0  0  0  0  0  0  0  0  0
   -4.3010   25.6750  -31.0670 O   0  0  0  0  0  0  0  0  0  0  0  0
   -2.0960   20.8400  -34.9530 H   0  0  0  0  0  0  0  0  0  0  0  0
   -4.1215   17.0776  -33.6025 H   0  0  0  0  0  0  0  0  0  0  0  0
   -6.9369   16.9096  -33.1115 H   0  0  0  0  0  0  0  0  0  0  0  0
   -8.9340   18.2791  -32.4282 H   0  0  0  0  0  0  0  0  0  0  0  0
   -9.8860   20.5760  -32.0170 H   0  0  0  0  0  0  0  0  0  0  0  0
   -9.7735   22.5504  -30.7532 H   0  0  0  0  0  0  0  0  0  0  0  0
   -8.7630   22.9512  -33.2854 H   0  0  0  0  0  0  0  0  0  0  0  0
   -9.1139   24.2509  -32.0690 H   0  0  0  0  0  0  0  0  0  0  0  0
   -6.4171   22.8878  -32.5070 H   0  0  0  0  0  0  0  0  0  0  0  0
   -6.8966   24.5487  -33.0608 H   0  0  0  0  0  0  0  0  0  0  0  0
   -5.5820   24.2340  -30.9150 H   0  0  0  0  0  0  0  0  0  0  0  0
   -6.5121   23.6617  -29.0032 H   0  0  0  0  0  0  0  0  0  0  0  0
   -8.1286   24.3041  -29.5452 H   0  0  0  0  0  0  0  0  0  0  0  0
   -6.8889   21.6581  -30.4263 H   0  0  0  0  0  0  0  0  0  0  0  0
   -8.1833   21.8608  -29.1869 H   0  0  0  0  0  0  0  0  0  0  0  0
   -6.4027   21.8186  -32.1400 H   0  0  0  0  0  0  0  0  0  0  0  0
   -4.8360   22.8482  -31.3722 H   0  0  0  0  0  0  0  0  0  0  0  0
   -3.8343   21.6063  -30.5393 H   0  0  0  0  0  0  0  0  0  0  0  0
  1  2  1  0
  2  3  2  0
  2  4  1  0
  4  5  2  0
  5  6  1  0
  6  7  2  0
  7  8  1  0
  8  9  2  0
  9 10  1  0
 10 11  1  0
 11 12  1  0
 12 13  1  0
 13 14  1  0
 14 15  1  0
 15 16  1  0
  9 17  1  0
 17 18  2  0
 18 19  1  0
 19 20  1  0
 20 21  2  0
 20 22  1  0
 22 23  1  0
 23 24  1  0
 24 25  2  0
 24 26  1  0
 24 27  1  0
 19  4  1  0
 18  6  1  0
 16 11  1  0
  1 28  1  0
  5 29  1  0
  7 30  1  0
  8 31  1  0
 10 32  1  0
 11 33  1  0
 12 34  1  0
 12 35  1  0
 13 36  1  0
 13 37  1  0
 14 38  1  0
 15 39  1  0
 15 40  1  0
 16 41  1  0
 16 42  1  0
 17 43  1  0
 22 44  1  0
 22 45  1  0
M  CHG  3   1  -1  26  -1  27  -1
M  END
>  <UniqueID>  (30) 
30

>  <SMILES>  (30) 
[NH-]C(=O)c1cc2ccc(NC3CCNCC3)cc2n1C(=O)COP(=O)([O-])[O-]

>  <Energy>  (30) 
90.64280929334461

>  <Genealogy>  (30) 
[NH-]C(=O)c1cc2ccc(NC3CCNCC3)cc2n1C(=O)COP(=O)([O-])[O-] (protonated)
[NH-]C(=O)c1cc2ccc(NC3CCNCC3)cc2n1C(=O)COP(=O)([O-])[O-] (3D coordinates assigned)
[NH-]C(=O)c1cc2ccc(NC3CCNCC3)cc2n1C(=O)COP(=O)([O-])[O-] (nonaromatic ring conformer: 90.64280929334461 kcal/mol)

>  <smiles>  (30) 
NC(=O)c1cc2ccc(NC3CCNCC3)cc2n1C(=O)COP(=O)(O)O

>  <score_type>  (30) 
oracle

>  <origin>  (30) 
adg

>  <m_score__min__energy>  (30) 
-15.039999999999999

>  <m_primary>  (30) 
energy

$$$$
31:0
     RDKit          3D

 32 33  0  0  0  0  0  0  0  0999 V2000
   -4.4890   25.6660  -30.8470 N   0  0  0  0  0  0  0  0  0  0  0  0
   -5.7700   25.1250  -30.5290 C   0  0  0  0  0  0  0  0  0  0  0  0
   -6.6040   25.8380  -29.9120 O   0  0  0  0  0  0  0  0  0  0  0  0
   -6.0970   23.7340  -30.9090 C   0  0  0  0  0  0  0  0  0  0  0  0
   -7.3810   23.3010  -31.2370 C   0  0  0  0  0  0  0  0  0  0  0  0
   -7.2440   21.9710  -31.5670 C   0  0  0  0  0  0  0  0  0  0  0  0
   -8.2030   21.0380  -31.9560 C   0  0  0  0  0  0  0  0  0  0  0  0
   -7.7770   19.7220  -32.2070 C   0  0  0  0  0  0  0  0  0  0  0  0
   -6.4150   19.3680  -32.0560 C   0  0  0  0  0  0  0  0  0  0  0  0
   -5.9940   18.0150  -32.3040 C   0  0  0  0  0  0  0  0  0  0  0  0
   -5.6410   16.8820  -32.5120 C   0  0  0  0  0  0  0  0  0  0  0  0
   -5.2140   15.5020  -32.7640 C   0  0  0  0  0  0  0  0  0  0  0  0
   -4.8890   14.8720  -31.5560 O   0  0  0  0  0  0  0  0  0  0  0  0
   -5.4700   20.3360  -31.6590 C   0  0  0  0  0  0  0  0  0  0  0  0
   -5.9190   21.6410  -31.4350 C   0  0  0  0  0  0  0  0  0  0  0  0
   -5.2040   22.7130  -31.0350 N   0  0  0  0  0  0  0  0  0  0  0  0
   -3.7960   22.7430  -30.7600 C   0  0  0  0  0  0  0  0  0  0  0  0
   -2.9750   22.4470  -31.6700 O   0  0  0  0  0  0  0  0  0  0  0  0
   -3.2950   23.0670  -29.3860 C   0  0  0  0  0  0  0  0  0  0  0  0
   -2.1320   24.0020  -29.4780 C   0  0  0  0  0  0  0  0  0  0  0  0
   -2.3060   25.2420  -29.3490 O   0  0  0  0  0  0  0  0  0  0  0  0
   -0.8490   23.5010  -29.6560 O   0  0  0  0  0  0  0  0  0  0  0  0
   -3.8630   26.0370  -30.0990 H   0  0  0  0  0  0  0  0  0  0  0  0
   -8.3066   23.8953  -31.2330 H   0  0  0  0  0  0  0  0  0  0  0  0
   -9.2602   21.3222  -32.0633 H   0  0  0  0  0  0  0  0  0  0  0  0
   -8.5071   18.9623  -32.5229 H   0  0  0  0  0  0  0  0  0  0  0  0
   -6.0311   14.9516  -33.2533 H   0  0  0  0  0  0  0  0  0  0  0  0
   -4.3277   15.5120  -33.4154 H   0  0  0  0  0  0  0  0  0  0  0  0
   -5.4560   15.2900  -30.8560 H   0  0  0  0  0  0  0  0  0  0  0  0
   -4.4100   20.0722  -31.5292 H   0  0  0  0  0  0  0  0  0  0  0  0
   -4.1003   23.5419  -28.8063 H   0  0  0  0  0  0  0  0  0  0  0  0
   -2.9766   22.1395  -28.8876 H   0  0  0  0  0  0  0  0  0  0  0  0
  1  2  1  0
  2  3  2  0
  2  4  1  0
  4  5  2  0
  5  6  1  0
  6  7  2  0
  7  8  1  0
  8  9  2  0
  9 10  1  0
 10 11  3  0
 11 12  1  0
 12 13  1  0
  9 14  1  0
 14 15  2  0
 15 16  1  0
 16 17  1  0
 17 18  2  0
 17 19  1  0
 19 20  1  0
 20 21  2  0
 20 22  1  0
 16  4  1  0
 15  6  1  0
  1 23  1  0
  5 24  1  0
  7 25  1  0
  8 26  1  0
 12 27  1  0
 12 28  1  0
 13 29  1  0
 14 30  1  0
 19 31  1  0
 19 32  1  0
M  CHG  2   1  -1  22  -1
M  END
>  <UniqueID>  (31) 
31

>  <SMILES>  (31) 
[NH-]C(=O)c1cc2ccc(C#CCO)cc2n1C(=O)CC(=O)[O-]

>  <Energy>  (31) 
64.95163474606058

>  <Genealogy>  (31) 
[NH-]C(=O)c1cc2ccc(C#CCO)cc2n1C(=O)CC(=O)[O-] (protonated)
[NH-]C(=O)c1cc2ccc(C#CCO)cc2n1C(=O)CC(=O)[O-] (3D coordinates assigned)
[NH-]C(=O)c1cc2ccc(C#CCO)cc2n1C(=O)CC(=O)[O-] (optimized conformer: 64.95163474606058 kcal/mol)

>  <smiles>  (31) 
NC(=O)c1cc2ccc(C#CCO)cc2n1C(=O)CC(=O)O

>  <score_type>  (31) 
oracle

>  <origin>  (31) 
adg

>  <m_score__min__energy>  (31) 
-11.43

>  <m_primary>  (31) 
energy

$$$$
32:0
     RDKit          3D

 42 43  0  0  0  0  0  0  0  0999 V2000
    0.1690   25.0050  -26.1490 C   0  0  0  0  0  0  0  0  0  0  0  0
    0.7360   24.2110  -27.3420 C   0  0  0  0  0  0  0  0  0  0  0  0
    0.5340   22.7000  -27.1320 C   0  0  0  0  0  0  0  0  0  0  0  0
    0.0800   24.6450  -28.5830 N   0  0  0  0  0  0  0  0  0  0  0  0
   -1.2620   24.3590  -28.9980 C   0  0  0  0  0  0  0  0  0  0  0  0
   -2.2390   24.9990  -28.5260 O   0  0  0  0  0  0  0  0  0  0  0  0
   -1.5000   23.3270  -30.0480 C   0  0  0  0  0  0  0  0  0  0  0  0
   -2.8890   23.0240  -30.0970 O   0  0  0  0  0  0  0  0  0  0  0  0
   -3.5440   22.6630  -31.2770 C   0  0  0  0  0  0  0  0  0  0  0  0
   -2.8930   22.1890  -32.2460 O   0  0  0  0  0  0  0  0  0  0  0  0
   -4.9700   22.7970  -31.3710 N   0  0  0  0  0  0  0  0  0  0  0  0
   -5.7240   23.9090  -31.1420 C   0  0  0  0  0  0  0  0  0  0  0  0
   -5.2440   25.1840  -30.5710 C   0  0  0  0  0  0  0  0  0  0  0  0
   -3.9300   25.6610  -30.8460 N   0  0  0  0  0  0  0  0  0  0  0  0
   -5.9870   25.8360  -29.7890 O   0  0  0  0  0  0  0  0  0  0  0  0
   -7.0640   23.6630  -31.4410 C   0  0  0  0  0  0  0  0  0  0  0  0
   -7.1080   22.3520  -31.8530 C   0  0  0  0  0  0  0  0  0  0  0  0
   -8.1910   21.5830  -32.2710 C   0  0  0  0  0  0  0  0  0  0  0  0
   -7.9440   20.2560  -32.6600 C   0  0  0  0  0  0  0  0  0  0  0  0
   -6.6270   19.7320  -32.6400 C   0  0  0  0  0  0  0  0  0  0  0  0
   -6.3790   18.3060  -33.0350 C   0  0  0  0  0  0  0  0  0  0  0  0
   -6.1750   17.3060  -31.5760 Cl  0  0  0  0  0  0  0  0  0  0  0  0
   -5.5550   20.5370  -32.2000 C   0  0  0  0  0  0  0  0  0  0  0  0
   -5.8330   21.8510  -31.8010 C   0  0  0  0  0  0  0  0  0  0  0  0
    2.2190   24.4780  -27.4630 C   0  0  0  0  0  0  0  0  0  0  0  0
    2.6370   25.5660  -27.9410 O   0  0  0  0  0  0  0  0  0  0  0  0
    3.1410   23.4950  -27.1180 O   0  0  0  0  0  0  0  0  0  0  0  0
    0.5006   24.5406  -25.2086 H   0  0  0  0  0  0  0  0  0  0  0  0
    0.5317   26.0425  -26.1934 H   0  0  0  0  0  0  0  0  0  0  0  0
   -0.9301   24.9986  -26.1934 H   0  0  0  0  0  0  0  0  0  0  0  0
    0.5046   22.4803  -26.0546 H   0  0  0  0  0  0  0  0  0  0  0  0
   -0.4137   22.3888  -27.5957 H   0  0  0  0  0  0  0  0  0  0  0  0
    1.3667   22.1508  -27.5957 H   0  0  0  0  0  0  0  0  0  0  0  0
   -1.1726   23.7130  -31.0246 H   0  0  0  0  0  0  0  0  0  0  0  0
   -0.9305   22.4168  -29.8086 H   0  0  0  0  0  0  0  0  0  0  0  0
   -3.0910   25.1670  -30.4710 H   0  0  0  0  0  0  0  0  0  0  0  0
   -7.9055   24.3672  -31.3637 H   0  0  0  0  0  0  0  0  0  0  0  0
   -9.2080   22.0015  -32.2958 H   0  0  0  0  0  0  0  0  0  0  0  0
   -8.7798   19.6179  -32.9829 H   0  0  0  0  0  0  0  0  0  0  0  0
   -7.2350   17.9336  -33.6168 H   0  0  0  0  0  0  0  0  0  0  0  0
   -5.4655   18.2506  -33.6453 H   0  0  0  0  0  0  0  0  0  0  0  0
   -4.5282   20.1434  -32.1710 H   0  0  0  0  0  0  0  0  0  0  0  0
  1  2  1  0
  2  3  1  0
  2  4  1  0
  4  5  1  0
  5  6  2  0
  5  7  1  0
  7  8  1  0
  8  9  1  0
  9 10  2  0
  9 11  1  0
 11 12  1  0
 12 13  1  0
 13 14  1  0
 13 15  2  0
 12 16  2  0
 16 17  1  0
 17 18  2  0
 18 19  1  0
 19 20  2  0
 20 21  1  0
 21 22  1  0
 20 23  1  0
 23 24  2  0
  2 25  1  0
 25 26  2  0
 25 27  1  0
 24 11  1  0
 24 17  1  0
  1 28  1  0
  1 29  1  0
  1 30  1  0
  3 31  1  0
  3 32  1  0
  3 33  1  0
  7 34  1  0
  7 35  1  0
 14 36  1  0
 16 37  1  0
 18 38  1  0
 19 39  1  0
 21 40  1  0
 21 41  1  0
 23 42  1  0
M  CHG  3   4  -1  14  -1  27  -1
M  END
>  <UniqueID>  (32) 
32

>  <SMILES>  (32) 
CC(C)([N-]C(=O)COC(=O)n1c(C([NH-])=O)cc2ccc(CCl)cc21)C(=O)[O-]

>  <Energy>  (32) 
74.08857948096323

>  <Genealogy>  (32) 
CC(C)([N-]C(=O)COC(=O)n1c(C([NH-])=O)cc2ccc(CCl)cc21)C(=O)[O-] (protonated)
CC(C)([N-]C(=O)COC(=O)n1c(C([NH-])=O)cc2ccc(CCl)cc21)C(=O)[O-] (3D coordinates assigned)
CC(C)([N-]C(=O)COC(=O)n1c(C([NH-])=O)cc2ccc(CCl)cc21)C(=O)[O-] (optimized conformer: 74.08857948096323 kcal/mol)

>  <smiles>  (32) 
CC(C)(NC(=O)COC(=O)n1c(C(N)=O)cc2ccc(CCl)cc21)C(=O)O

>  <score_type>  (32) 
oracle

>  <origin>  (32) 
adg

>  <m_score__min__energy>  (32) 
-13.19

>  <m_primary>  (32) 
energy

$$$$
33:0
     RDKit          3D

 33 35  0  0  0  0  0  0  0  0999 V2000
   -3.9230   25.6570  -30.8340 N   0  0  0  0  0  0  0  0  0  0  0  0
   -5.2230   25.2330  -30.4290 C   0  0  0  0  0  0  0  0  0  0  0  0
   -5.8850   25.9480  -29.6310 O   0  0  0  0  0  0  0  0  0  0  0  0
   -5.7950   23.9890  -30.9830 C   0  0  0  0  0  0  0  0  0  0  0  0
   -7.1630   23.7750  -31.1390 C   0  0  0  0  0  0  0  0  0  0  0  0
   -7.2810   22.4830  -31.5950 C   0  0  0  0  0  0  0  0  0  0  0  0
   -8.4180   21.7500  -31.9300 C   0  0  0  0  0  0  0  0  0  0  0  0
   -8.2400   20.4400  -32.4040 C   0  0  0  0  0  0  0  0  0  0  0  0
   -6.9430   19.8950  -32.5400 C   0  0  0  0  0  0  0  0  0  0  0  0
   -6.7740   18.5660  -33.0350 N   0  0  0  0  0  0  0  0  0  0  0  0
   -6.0760   17.8810  -34.1170 C   0  0  0  0  0  0  0  0  0  0  0  0
   -6.5130   16.4950  -33.8040 C   0  0  0  0  0  0  0  0  0  0  0  0
   -6.3690   15.3590  -34.2270 O   0  0  0  0  0  0  0  0  0  0  0  0
   -7.2150   17.2130  -32.7090 C   0  0  0  0  0  0  0  0  0  0  0  0
   -5.8120   20.6630  -32.1920 C   0  0  0  0  0  0  0  0  0  0  0  0
   -6.0180   21.9590  -31.7060 C   0  0  0  0  0  0  0  0  0  0  0  0
   -5.0940   22.8730  -31.3350 N   0  0  0  0  0  0  0  0  0  0  0  0
   -3.6670   22.7130  -31.3900 C   0  0  0  0  0  0  0  0  0  0  0  0
   -3.1280   22.2320  -32.4240 O   0  0  0  0  0  0  0  0  0  0  0  0
   -2.8810   23.1120  -30.3040 O   0  0  0  0  0  0  0  0  0  0  0  0
   -3.0950   22.6470  -28.9750 C   0  0  0  0  0  0  0  0  0  0  0  0
   -3.1150   24.1360  -27.7330 Br  0  0  0  0  0  0  0  0  0  0  0  0
   -3.0670   25.2710  -30.3770 H   0  0  0  0  0  0  0  0  0  0  0  0
   -7.9762   24.4884  -30.9396 H   0  0  0  0  0  0  0  0  0  0  0  0
   -9.4235   22.1839  -31.8264 H   0  0  0  0  0  0  0  0  0  0  0  0
   -9.1174   19.8330  -32.6717 H   0  0  0  0  0  0  0  0  0  0  0  0
   -6.4189   18.2116  -35.1085 H   0  0  0  0  0  0  0  0  0  0  0  0
   -4.9893   18.0435  -34.1681 H   0  0  0  0  0  0  0  0  0  0  0  0
   -8.3077   17.1044  -32.7735 H   0  0  0  0  0  0  0  0  0  0  0  0
   -6.9957   16.8675  -31.6879 H   0  0  0  0  0  0  0  0  0  0  0  0
   -4.7964   20.2545  -32.2997 H   0  0  0  0  0  0  0  0  0  0  0  0
   -4.0599   22.1211  -28.9260 H   0  0  0  0  0  0  0  0  0  0  0  0
   -2.2778   21.9639  -28.7000 H   0  0  0  0  0  0  0  0  0  0  0  0
  1  2  1  0
  2  3  2  0
  2  4  1  0
  4  5  2  0
  5  6  1  0
  6  7  2  0
  7  8  1  0
  8  9  2  0
  9 10  1  0
 10 11  1  0
 11 12  1  0
 12 13  2  0
 12 14  1  0
  9 15  1  0
 15 16  2  0
 16 17  1  0
 17 18  1  0
 18 19  2  0
 18 20  1  0
 20 21  1  0
 21 22  1  0
 17  4  1  0
 16  6  1  0
 14 10  1  0
  1 23  1  0
  5 24  1  0
  7 25  1  0
  8 26  1  0
 11 27  1  0
 11 28  1  0
 14 29  1  0
 14 30  1  0
 15 31  1  0
 21 32  1  0
 21 33  1  0
M  CHG  1   1  -1
M  END
>  <UniqueID>  (33) 
33

>  <SMILES>  (33) 
[NH-]C(=O)c1cc2ccc(N3CC(=O)C3)cc2n1C(=O)OCBr

>  <Energy>  (33) 
87.78957397739866

>  <Genealogy>  (33) 
[NH-]C(=O)c1cc2ccc(N3CC(=O)C3)cc2n1C(=O)OCBr (protonated)
[NH-]C(=O)c1cc2ccc(N3CC(=O)C3)cc2n1C(=O)OCBr (3D coordinates assigned)
[NH-]C(=O)c1cc2ccc(N3CC(=O)C3)cc2n1C(=O)OCBr (nonaromatic ring conformer: 87.78957397739866 kcal/mol)

>  <smiles>  (33) 
NC(=O)c1cc2ccc(N3CC(=O)C3)cc2n1C(=O)OCBr

>  <score_type>  (33) 
oracle

>  <origin>  (33) 
adg

>  <m_score__min__energy>  (33) 
-10.18

>  <m_primary>  (33) 
energy

$$$$
34:0
     RDKit          3D

 42 43  0  0  0  0  0  0  0  0999 V2000
   -3.7820   22.2940  -28.1880 C   0  0  0  0  0  0  0  0  0  0  0  0
   -2.9820   22.8890  -29.2690 N   0  0  0  0  0  0  0  0  0  0  0  0
   -3.4150   22.6930  -30.6310 C   0  0  0  0  0  0  0  0  0  0  0  0
   -2.5740   22.4400  -31.5380 O   0  0  0  0  0  0  0  0  0  0  0  0
   -4.8070   22.7430  -30.9710 N   0  0  0  0  0  0  0  0  0  0  0  0
   -5.6410   23.8170  -30.9170 C   0  0  0  0  0  0  0  0  0  0  0  0
   -5.2500   25.1890  -30.5360 C   0  0  0  0  0  0  0  0  0  0  0  0
   -3.9470   25.6720  -30.8550 N   0  0  0  0  0  0  0  0  0  0  0  0
   -6.0530   25.9390  -29.9200 O   0  0  0  0  0  0  0  0  0  0  0  0
   -6.9290   23.4490  -31.3050 C   0  0  0  0  0  0  0  0  0  0  0  0
   -6.8510   22.1050  -31.6040 C   0  0  0  0  0  0  0  0  0  0  0  0
   -7.8340   21.2180  -32.0330 C   0  0  0  0  0  0  0  0  0  0  0  0
   -7.4640   19.8780  -32.2450 C   0  0  0  0  0  0  0  0  0  0  0  0
   -6.1320   19.4580  -32.0220 C   0  0  0  0  0  0  0  0  0  0  0  0
   -5.7680   18.0820  -32.2320 C   0  0  0  0  0  0  0  0  0  0  0  0
   -5.4620   16.9280  -32.4050 C   0  0  0  0  0  0  0  0  0  0  0  0
   -5.0900   15.5260  -32.6150 C   0  0  0  0  0  0  0  0  0  0  0  0
   -4.9660   14.8730  -31.3820 O   0  0  0  0  0  0  0  0  0  0  0  0
   -5.1580   20.3810  -31.5900 C   0  0  0  0  0  0  0  0  0  0  0  0
   -5.5550   21.7070  -31.3950 C   0  0  0  0  0  0  0  0  0  0  0  0
   -1.6770   23.5330  -28.9990 C   0  0  2  0  0  0  0  0  0  0  0  0
   -0.7310   22.5740  -28.2390 C   0  0  0  0  0  0  0  0  0  0  0  0
    0.5360   23.2290  -27.7760 C   0  0  0  0  0  0  0  0  0  0  0  0
    1.1640   22.7700  -26.7850 O   0  0  0  0  0  0  0  0  0  0  0  0
    1.0350   24.3350  -28.4520 O   0  0  0  0  0  0  0  0  0  0  0  0
   -1.8390   24.8850  -28.3400 C   0  0  0  0  0  0  0  0  0  0  0  0
   -1.5880   25.9470  -28.9680 O   0  0  0  0  0  0  0  0  0  0  0  0
   -2.3700   24.9660  -27.0580 O   0  0  0  0  0  0  0  0  0  0  0  0
   -3.3698   22.6006  -27.2154 H   0  0  0  0  0  0  0  0  0  0  0  0
   -4.8233   22.6388  -28.2700 H   0  0  0  0  0  0  0  0  0  0  0  0
   -3.7513   21.1975  -28.2700 H   0  0  0  0  0  0  0  0  0  0  0  0
   -3.1020   25.2960  -30.3710 H   0  0  0  0  0  0  0  0  0  0  0  0
   -7.8184   24.0939  -31.3607 H   0  0  0  0  0  0  0  0  0  0  0  0
   -8.8677   21.5545  -32.2009 H   0  0  0  0  0  0  0  0  0  0  0  0
   -8.2158   19.1513  -32.5867 H   0  0  0  0  0  0  0  0  0  0  0  0
   -5.8672   15.0288  -33.2139 H   0  0  0  0  0  0  0  0  0  0  0  0
   -4.1267   15.4836  -33.1443 H   0  0  0  0  0  0  0  0  0  0  0  0
   -5.3150   15.4980  -30.6920 H   0  0  0  0  0  0  0  0  0  0  0  0
   -4.1187   20.0677  -31.4120 H   0  0  0  0  0  0  0  0  0  0  0  0
   -1.1890   23.7419  -29.9624 H   0  0  0  0  0  0  0  0  0  0  0  0
   -1.2635   22.1840  -27.3590 H   0  0  0  0  0  0  0  0  0  0  0  0
   -0.4461   21.7760  -28.9405 H   0  0  0  0  0  0  0  0  0  0  0  0
  1  2  1  0
  2  3  1  0
  3  4  2  0
  3  5  1  0
  5  6  1  0
  6  7  1  0
  7  8  1  0
  7  9  2  0
  6 10  2  0
 10 11  1  0
 11 12  2  0
 12 13  1  0
 13 14  2  0
 14 15  1  0
 15 16  3  0
 16 17  1  0
 17 18  1  0
 14 19  1  0
 19 20  2  0
  2 21  1  0
 21 22  1  0
 22 23  1  0
 23 24  2  0
 23 25  1  0
 21 26  1  0
 26 27  2  0
 26 28  1  0
 20  5  1  0
 20 11  1  0
  1 29  1  0
  1 30  1  0
  1 31  1  0
  8 32  1  0
 10 33  1  0
 12 34  1  0
 13 35  1  0
 17 36  1  0
 17 37  1  0
 18 38  1  0
 19 39  1  0
 21 40  1  6
 22 41  1  0
 22 42  1  0
M  CHG  3   8  -1  25  -1  28  -1
M  END
>  <UniqueID>  (34) 
34

>  <SMILES>  (34) 
CN(C(=O)n1c(C([NH-])=O)cc2ccc(C#CCO)cc21)[C@H](CC(=O)[O-])C(=O)[O-]

>  <Energy>  (34) 
76.53801423344864

>  <Genealogy>  (34) 
CN(C(=O)n1c(C([NH-])=O)cc2ccc(C#CCO)cc21)[C@H](CC(=O)[O-])C(=O)[O-] (protonated)
CN(C(=O)n1c(C([NH-])=O)cc2ccc(C#CCO)cc21)[C@H](CC(=O)[O-])C(=O)[O-] (3D coordinates assigned)
CN(C(=O)n1c(C([NH-])=O)cc2ccc(C#CCO)cc21)[C@H](CC(=O)[O-])C(=O)[O-] (optimized conformer: 76.53801423344864 kcal/mol)

>  <smiles>  (34) 
CN(C(=O)n1c(C(N)=O)cc2ccc(C#CCO)cc21)[C@H](CC(=O)O)C(=O)O

>  <score_type>  (34) 
oracle

>  <origin>  (34) 
adg

>  <m_score__min__energy>  (34) 
-12.710000000000001

>  <m_primary>  (34) 
energy

$$$$
35:0
     RDKit          3D

 45 46  0  0  0  0  0  0  0  0999 V2000
   -2.4040   19.9850  -33.4520 C   0  0  0  0  0  0  0  0  0  0  0  0
   -1.4310   20.8940  -32.8400 N   0  0  0  0  0  0  0  0  0  0  0  0
   -0.1880   21.2160  -33.5500 C   0  0  0  0  0  0  0  0  0  0  0  0
   -1.6560   21.4700  -31.5340 C   0  0  0  0  0  0  0  0  0  0  0  0
   -0.8190   22.2890  -31.0650 O   0  0  0  0  0  0  0  0  0  0  0  0
   -2.8270   21.0810  -30.6660 C   0  0  0  0  0  0  0  0  0  0  0  0
   -3.9850   21.9720  -30.8500 N   0  0  0  0  0  0  0  0  0  0  0  0
   -4.2620   23.0010  -29.8350 C   0  0  0  0  0  0  0  0  0  0  0  0
   -3.4950   24.2500  -30.1400 C   0  0  0  0  0  0  0  0  0  0  0  0
   -2.3170   24.3880  -29.7170 O   0  0  0  0  0  0  0  0  0  0  0  0
   -4.0800   25.2620  -30.8900 O   0  0  0  0  0  0  0  0  0  0  0  0
   -4.7130   22.0080  -32.0980 C   0  0  0  0  0  0  0  0  0  0  0  0
   -4.1810   22.5120  -33.1250 O   0  0  0  0  0  0  0  0  0  0  0  0
   -6.0020   21.3920  -32.2230 N   0  0  0  0  0  0  0  0  0  0  0  0
   -7.2350   21.9740  -32.1890 C   0  0  0  0  0  0  0  0  0  0  0  0
   -7.5370   23.4020  -31.9290 C   0  0  0  0  0  0  0  0  0  0  0  0
   -6.5160   24.3850  -31.7450 N   0  0  0  0  0  0  0  0  0  0  0  0
   -8.7430   23.7680  -31.8830 O   0  0  0  0  0  0  0  0  0  0  0  0
   -8.2260   21.0010  -32.3260 C   0  0  0  0  0  0  0  0  0  0  0  0
   -7.5550   19.8060  -32.4630 C   0  0  0  0  0  0  0  0  0  0  0  0
   -8.0430   18.5150  -32.6300 C   0  0  0  0  0  0  0  0  0  0  0  0
   -7.1120   17.4660  -32.7320 C   0  0  0  0  0  0  0  0  0  0  0  0
   -5.7180   17.7230  -32.6470 C   0  0  0  0  0  0  0  0  0  0  0  0
   -4.7200   16.6040  -32.8000 C   0  0  0  0  0  0  0  0  0  0  0  0
   -3.4230   17.0860  -32.7500 F   0  0  0  0  0  0  0  0  0  0  0  0
   -4.9000   15.6930  -31.7760 F   0  0  0  0  0  0  0  0  0  0  0  0
   -4.8980   15.9620  -34.0130 F   0  0  0  0  0  0  0  0  0  0  0  0
   -5.2640   19.0540  -32.4960 C   0  0  0  0  0  0  0  0  0  0  0  0
   -6.2150   20.0730  -32.3980 C   0  0  0  0  0  0  0  0  0  0  0  0
   -2.9639   19.4619  -32.6628 H   0  0  0  0  0  0  0  0  0  0  0  0
   -3.1023   20.5617  -34.0763 H   0  0  0  0  0  0  0  0  0  0  0  0
   -1.8761   19.2491  -34.0763 H   0  0  0  0  0  0  0  0  0  0  0  0
    0.6084   21.4223  -32.8198 H   0  0  0  0  0  0  0  0  0  0  0  0
    0.1050   20.3641  -34.1812 H   0  0  0  0  0  0  0  0  0  0  0  0
   -0.3455   22.1030  -34.1812 H   0  0  0  0  0  0  0  0  0  0  0  0
   -3.1283   20.0539  -30.9194 H   0  0  0  0  0  0  0  0  0  0  0  0
   -2.5068   21.1609  -29.6167 H   0  0  0  0  0  0  0  0  0  0  0  0
   -5.3384   23.2276  -29.8320 H   0  0  0  0  0  0  0  0  0  0  0  0
   -3.9542   22.6234  -28.8488 H   0  0  0  0  0  0  0  0  0  0  0  0
   -6.7760   25.3460  -31.4280 H   0  0  0  0  0  0  0  0  0  0  0  0
   -5.5400   24.2320  -32.0670 H   0  0  0  0  0  0  0  0  0  0  0  0
   -9.3150   21.1560  -32.3248 H   0  0  0  0  0  0  0  0  0  0  0  0
   -9.1244   18.3200  -32.6808 H   0  0  0  0  0  0  0  0  0  0  0  0
   -7.4674   16.4354  -32.8792 H   0  0  0  0  0  0  0  0  0  0  0  0
   -4.1885   19.2814  -32.4567 H   0  0  0  0  0  0  0  0  0  0  0  0
  1  2  1  0
  2  3  1  0
  2  4  1  0
  4  5  2  0
  4  6  1  0
  6  7  1  0
  7  8  1  0
  8  9  1  0
  9 10  2  0
  9 11  1  0
  7 12  1  0
 12 13  2  0
 12 14  1  0
 14 15  1  0
 15 16  1  0
 16 17  1  0
 16 18  2  0
 15 19  2  0
 19 20  1  0
 20 21  2  0
 21 22  1  0
 22 23  2  0
 23 24  1  0
 24 25  1  0
 24 26  1  0
 24 27  1  0
 23 28  1  0
 28 29  2  0
 29 14  1  0
 29 20  1  0
  1 30  1  0
  1 31  1  0
  1 32  1  0
  3 33  1  0
  3 34  1  0
  3 35  1  0
  6 36  1  0
  6 37  1  0
  8 38  1  0
  8 39  1  0
 17 40  1  0
 17 41  1  0
 19 42  1  0
 21 43  1  0
 22 44  1  0
 28 45  1  0
M  CHG  1  11  -1
M  END
>  <UniqueID>  (35) 
35

>  <SMILES>  (35) 
CN(C)C(=O)CN(CC(=O)[O-])C(=O)n1c(C(N)=O)cc2ccc(C(F)(F)F)cc21

>  <Energy>  (35) 
81.20827290273478

>  <Genealogy>  (35) 
CN(C)C(=O)CN(CC(=O)[O-])C(=O)n1c(C(N)=O)cc2ccc(C(F)(F)F)cc21 (protonated)
CN(C)C(=O)CN(CC(=O)[O-])C(=O)n1c(C(N)=O)cc2ccc(C(F)(F)F)cc21 (3D coordinates assigned)
CN(C)C(=O)CN(CC(=O)[O-])C(=O)n1c(C(N)=O)cc2ccc(C(F)(F)F)cc21 (optimized conformer: 81.20827290273478 kcal/mol)

>  <smiles>  (35) 
CN(C)C(=O)CN(CC(=O)O)C(=O)n1c(C(N)=O)cc2ccc(C(F)(F)F)cc21

>  <score_type>  (35) 
oracle

>  <origin>  (35) 
adg

>  <m_score__min__energy>  (35) 
-10.619999999999999

>  <m_primary>  (35) 
energy

$$$$
36:0
     RDKit          3D

 42 43  0  0  0  0  0  0  0  0999 V2000
   -4.2380   24.6000  -27.2000 C   0  0  0  0  0  0  0  0  0  0  0  0
   -3.2230   23.9690  -28.0620 N   0  0  1  0  0  0  0  0  0  0  0  0
   -1.8580   24.1240  -27.5140 C   0  0  0  0  0  0  0  0  0  0  0  0
   -0.9940   24.9670  -28.4070 C   0  0  0  0  0  0  0  0  0  0  0  0
   -1.5150   25.6670  -29.3130 O   0  0  0  0  0  0  0  0  0  0  0  0
    0.3820   25.0000  -28.2160 O   0  0  0  0  0  0  0  0  0  0  0  0
   -3.5360   22.5700  -28.2210 C   0  0  0  0  0  0  0  0  0  0  0  0
   -4.5740   22.0840  -27.6880 O   0  0  0  0  0  0  0  0  0  0  0  0
   -2.6870   21.7570  -28.9800 O   0  0  0  0  0  0  0  0  0  0  0  0
   -2.0250   22.2110  -30.1580 C   0  0  0  0  0  0  0  0  0  0  0  0
   -2.8590   23.1190  -30.8740 O   0  0  0  0  0  0  0  0  0  0  0  0
   -3.8320   22.6930  -31.7870 C   0  0  0  0  0  0  0  0  0  0  0  0
   -3.4900   22.1470  -32.8710 O   0  0  0  0  0  0  0  0  0  0  0  0
   -5.2250   22.8390  -31.4680 N   0  0  0  0  0  0  0  0  0  0  0  0
   -5.8210   23.8560  -30.7830 C   0  0  0  0  0  0  0  0  0  0  0  0
   -5.1820   25.1280  -30.3920 C   0  0  0  0  0  0  0  0  0  0  0  0
   -3.8720   25.4550  -30.8430 N   0  0  0  0  0  0  0  0  0  0  0  0
   -5.8230   25.9610  -29.6980 O   0  0  0  0  0  0  0  0  0  0  0  0
   -7.1690   23.5780  -30.5700 C   0  0  0  0  0  0  0  0  0  0  0  0
   -7.3870   22.3530  -31.1570 C   0  0  0  0  0  0  0  0  0  0  0  0
   -8.5480   21.5910  -31.2330 C   0  0  0  0  0  0  0  0  0  0  0  0
   -8.4750   20.3420  -31.8740 C   0  0  0  0  0  0  0  0  0  0  0  0
   -7.2510   19.8800  -32.4180 C   0  0  0  0  0  0  0  0  0  0  0  0
   -7.1930   18.5340  -33.0830 C   0  0  0  0  0  0  0  0  0  0  0  0
   -6.8240   17.5720  -32.1620 F   0  0  0  0  0  0  0  0  0  0  0  0
   -6.2670   18.5620  -34.1100 F   0  0  0  0  0  0  0  0  0  0  0  0
   -6.0910   20.6800  -32.3190 C   0  0  0  0  0  0  0  0  0  0  0  0
   -6.1970   21.9280  -31.6910 C   0  0  0  0  0  0  0  0  0  0  0  0
   -3.9753   24.4367  -26.1444 H   0  0  0  0  0  0  0  0  0  0  0  0
   -4.2740   25.6799  -27.4061 H   0  0  0  0  0  0  0  0  0  0  0  0
   -5.2224   24.1544  -27.4061 H   0  0  0  0  0  0  0  0  0  0  0  0
   -3.2670   24.4210  -29.0070 H   0  0  0  0  0  0  0  0  0  0  0  0
   -1.9228   24.6023  -26.5256 H   0  0  0  0  0  0  0  0  0  0  0  0
   -1.4028   23.1254  -27.4393 H   0  0  0  0  0  0  0  0  0  0  0  0
   -1.0915   22.7202  -29.8765 H   0  0  0  0  0  0  0  0  0  0  0  0
   -1.8028   21.3460  -30.8002 H   0  0  0  0  0  0  0  0  0  0  0  0
   -3.0320   25.2090  -30.2740 H   0  0  0  0  0  0  0  0  0  0  0  0
   -7.9038   24.2051  -30.0438 H   0  0  0  0  0  0  0  0  0  0  0  0
   -9.4939   21.9543  -30.8049 H   0  0  0  0  0  0  0  0  0  0  0  0
   -9.3769   19.7173  -31.9540 H   0  0  0  0  0  0  0  0  0  0  0  0
   -8.1862   18.2906  -33.4884 H   0  0  0  0  0  0  0  0  0  0  0  0
   -5.1294   20.3322  -32.7244 H   0  0  0  0  0  0  0  0  0  0  0  0
  1  2  1  0
  2  3  1  0
  3  4  1  0
  4  5  2  0
  4  6  1  0
  2  7  1  0
  7  8  2  0
  7  9  1  0
  9 10  1  0
 10 11  1  0
 11 12  1  0
 12 13  2  0
 12 14  1  0
 14 15  1  0
 15 16  1  0
 16 17  1  0
 16 18  2  0
 15 19  2  0
 19 20  1  0
 20 21  2  0
 21 22  1  0
 22 23  2  0
 23 24  1  0
 24 25  1  0
 24 26  1  0
 23 27  1  0
 27 28  2  0
 28 14  1  0
 28 20  1  0
  1 29  1  0
  1 30  1  0
  1 31  1  0
  2 32  1  6
  3 33  1  0
  3 34  1  0
 10 35  1  0
 10 36  1  0
 17 37  1  0
 19 38  1  0
 21 39  1  0
 22 40  1  0
 24 41  1  0
 27 42  1  0
M  CHG  3   2   1   6  -1  17  -1
M  END
>  <UniqueID>  (36) 
36

>  <SMILES>  (36) 
C[N@@H+](CC(=O)[O-])C(=O)OCOC(=O)n1c(C([NH-])=O)cc2ccc(C(F)F)cc21

>  <Energy>  (36) 
78.56678631221502

>  <Genealogy>  (36) 
C[NH+](CC(=O)[O-])C(=O)OCOC(=O)n1c(C([NH-])=O)cc2ccc(C(F)F)cc21 (protonated)
C[N@@H+](CC(=O)[O-])C(=O)OCOC(=O)n1c(C([NH-])=O)cc2ccc(C(F)F)cc21 (chirality)
C[N@@H+](CC(=O)[O-])C(=O)OCOC(=O)n1c(C([NH-])=O)cc2ccc(C(F)F)cc21 (3D coordinates assigned)
C[N@@H+](CC(=O)[O-])C(=O)OCOC(=O)n1c(C([NH-])=O)cc2ccc(C(F)F)cc21 (optimized conformer: 78.56678631221502 kcal/mol)

>  <smiles>  (36) 
CN(CC(=O)O)C(=O)OCOC(=O)n1c(C(N)=O)cc2ccc(C(F)F)cc21

>  <score_type>  (36) 
oracle

>  <origin>  (36) 
adg

>  <m_score__min__energy>  (36) 
-11.039999999999999

>  <m_primary>  (36) 
energy

$$$$
37:0
     RDKit          3D

 69 73  0  0  0  0  0  0  0  0999 V2000
    1.1960   26.5220  -26.5000 C   0  0  0  0  0  0  0  0  0  0  0  0
    0.1390   25.7180  -27.1200 N   0  0  0  0  0  0  0  0  0  0  0  0
   -1.1780   26.3220  -27.3540 C   0  0  0  0  0  0  0  0  0  0  0  0
   -2.1120   25.3050  -27.9330 C   0  0  0  0  0  0  0  0  0  0  0  0
   -2.6660   24.4620  -27.1750 O   0  0  0  0  0  0  0  0  0  0  0  0
   -2.3710   25.2810  -29.3410 N   0  0  0  0  0  0  0  0  0  0  0  0
   -3.4820   24.5960  -29.9340 C   0  0  0  0  0  0  0  0  0  0  0  0
   -3.3860   23.2500  -30.3310 C   0  0  0  0  0  0  0  0  0  0  0  0
   -4.4640   22.6190  -30.9560 C   0  0  0  0  0  0  0  0  0  0  0  0
   -5.6510   23.3260  -31.2060 C   0  0  0  0  0  0  0  0  0  0  0  0
   -6.7830   22.6660  -31.8890 C   0  0  0  0  0  0  0  0  0  0  0  0
   -7.6790   23.3790  -32.4190 O   0  0  0  0  0  0  0  0  0  0  0  0
   -6.8870   21.2340  -31.9600 N   0  0  0  0  0  0  0  0  0  0  0  0
   -5.6970   20.3920  -32.1400 C   0  0  0  0  0  0  0  0  0  0  0  0
   -5.9430   19.3920  -33.2740 C   0  0  0  0  0  0  0  0  0  0  0  0
   -7.2240   18.6520  -33.1390 N   0  0  0  0  0  0  0  0  0  0  0  0
   -7.0370   17.1950  -33.3530 C   0  0  0  0  0  0  0  0  0  0  0  0
   -5.8210   16.4870  -32.7510 C   0  0  0  0  0  0  0  0  0  0  0  0
   -5.8460   16.8360  -34.2350 C   0  0  0  0  0  0  0  0  0  0  0  0
   -8.1030   19.0810  -32.0270 C   0  0  0  0  0  0  0  0  0  0  0  0
   -8.2160   20.6080  -31.9870 C   0  0  0  0  0  0  0  0  0  0  0  0
   -5.7480   24.6700  -30.8060 C   0  0  0  0  0  0  0  0  0  0  0  0
   -4.6640   25.3030  -30.1860 C   0  0  0  0  0  0  0  0  0  0  0  0
    0.4460   24.4340  -27.6880 C   0  0  0  0  0  0  0  0  0  0  0  0
    1.4030   24.3190  -28.5010 O   0  0  0  0  0  0  0  0  0  0  0  0
   -0.2180   23.2530  -27.2170 N   0  0  0  0  0  0  0  0  0  0  0  0
   -0.3530   22.8180  -25.9340 C   0  0  0  0  0  0  0  0  0  0  0  0
   -0.0240   23.5930  -24.7180 C   0  0  0  0  0  0  0  0  0  0  0  0
    1.2870   24.1110  -24.4920 N   0  0  0  0  0  0  0  0  0  0  0  0
   -0.9270   23.8240  -23.8730 O   0  0  0  0  0  0  0  0  0  0  0  0
   -0.8190   21.5050  -25.9180 C   0  0  0  0  0  0  0  0  0  0  0  0
   -0.9690   21.1540  -27.2420 C   0  0  0  0  0  0  0  0  0  0  0  0
   -1.3650   19.9490  -27.8160 C   0  0  0  0  0  0  0  0  0  0  0  0
   -1.3800   19.8590  -29.2200 C   0  0  0  0  0  0  0  0  0  0  0  0
   -1.0170   20.9740  -30.0230 C   0  0  0  0  0  0  0  0  0  0  0  0
   -0.9520   20.8360  -31.5210 C   0  0  0  0  0  0  0  0  0  0  0  0
    0.3710   20.7690  -31.9150 F   0  0  0  0  0  0  0  0  0  0  0  0
   -1.5990   19.6840  -31.9270 F   0  0  0  0  0  0  0  0  0  0  0  0
   -1.5490   21.9170  -32.1400 F   0  0  0  0  0  0  0  0  0  0  0  0
   -0.6200   22.1780  -29.3980 C   0  0  0  0  0  0  0  0  0  0  0  0
   -0.6100   22.2310  -28.0010 C   0  0  0  0  0  0  0  0  0  0  0  0
    1.1113   26.4575  -25.4052 H   0  0  0  0  0  0  0  0  0  0  0  0
    2.1788   26.1411  -26.8148 H   0  0  0  0  0  0  0  0  0  0  0  0
    1.0913   27.5708  -26.8148 H   0  0  0  0  0  0  0  0  0  0  0  0
   -1.5850   26.6892  -26.4003 H   0  0  0  0  0  0  0  0  0  0  0  0
   -1.0714   27.1582  -28.0607 H   0  0  0  0  0  0  0  0  0  0  0  0
   -2.4564   22.6910  -30.1482 H   0  0  0  0  0  0  0  0  0  0  0  0
   -4.3826   21.5632  -31.2538 H   0  0  0  0  0  0  0  0  0  0  0  0
   -4.8342   21.0262  -32.3917 H   0  0  0  0  0  0  0  0  0  0  0  0
   -5.4918   19.8449  -31.2080 H   0  0  0  0  0  0  0  0  0  0  0  0
   -5.9562   19.9414  -34.2269 H   0  0  0  0  0  0  0  0  0  0  0  0
   -5.1326   18.6493  -33.2341 H   0  0  0  0  0  0  0  0  0  0  0  0
   -8.1161   16.9840  -33.3226 H   0  0  0  0  0  0  0  0  0  0  0  0
   -5.1498   17.0299  -32.0692 H   0  0  0  0  0  0  0  0  0  0  0  0
   -5.6649   15.5658  -32.1704 H   0  0  0  0  0  0  0  0  0  0  0  0
   -5.1913   17.6299  -34.6237 H   0  0  0  0  0  0  0  0  0  0  0  0
   -5.7141   16.2689  -35.1683 H   0  0  0  0  0  0  0  0  0  0  0  0
   -9.1041   18.6481  -32.1699 H   0  0  0  0  0  0  0  0  0  0  0  0
   -7.6696   18.7326  -31.0779 H   0  0  0  0  0  0  0  0  0  0  0  0
   -8.7576   20.9521  -32.8805 H   0  0  0  0  0  0  0  0  0  0  0  0
   -8.7573   20.8955  -31.0736 H   0  0  0  0  0  0  0  0  0  0  0  0
   -6.6802   25.2272  -30.9810 H   0  0  0  0  0  0  0  0  0  0  0  0
   -4.7413   26.3611  -29.8954 H   0  0  0  0  0  0  0  0  0  0  0  0
    1.9790   24.1810  -25.2670 H   0  0  0  0  0  0  0  0  0  0  0  0
    1.5380   24.5170  -23.5630 H   0  0  0  0  0  0  0  0  0  0  0  0
   -1.0237   20.8810  -25.0356 H   0  0  0  0  0  0  0  0  0  0  0  0
   -1.6575   19.0928  -27.1904 H   0  0  0  0  0  0  0  0  0  0  0  0
   -1.6759   18.9153  -29.7015 H   0  0  0  0  0  0  0  0  0  0  0  0
   -0.3258   23.0527  -29.9967 H   0  0  0  0  0  0  0  0  0  0  0  0
  1  2  1  0
  2  3  1  0
  3  4  1  0
  4  5  2  0
  4  6  1  0
  6  7  1  0
  7  8  2  0
  8  9  1  0
  9 10  2  0
 10 11  1  0
 11 12  2  0
 11 13  1  0
 13 14  1  0
 14 15  1  0
 15 16  1  0
 16 17  1  0
 17 18  1  0
 18 19  1  0
 16 20  1  0
 20 21  1  0
 10 22  1  0
 22 23  2  0
  2 24  1  0
 24 25  2  0
 24 26  1  0
 26 27  1  0
 27 28  1  0
 28 29  1  0
 28 30  2  0
 27 31  2  0
 31 32  1  0
 32 33  2  0
 33 34  1  0
 34 35  2  0
 35 36  1  0
 36 37  1  0
 36 38  1  0
 36 39  1  0
 35 40  1  0
 40 41  2  0
 23  7  1  0
 41 26  1  0
 21 13  1  0
 41 32  1  0
 19 17  1  0
  1 42  1  0
  1 43  1  0
  1 44  1  0
  3 45  1  0
  3 46  1  0
  8 47  1  0
  9 48  1  0
 14 49  1  0
 14 50  1  0
 15 51  1  0
 15 52  1  0
 17 53  1  0
 18 54  1  0
 18 55  1  0
 19 56  1  0
 19 57  1  0
 20 58  1  0
 20 59  1  0
 21 60  1  0
 21 61  1  0
 22 62  1  0
 23 63  1  0
 29 64  1  0
 29 65  1  0
 31 66  1  0
 33 67  1  0
 34 68  1  0
 40 69  1  0
M  CHG  1   6  -1
M  END
>  <UniqueID>  (37) 
37

>  <SMILES>  (37) 
CN(CC(=O)[N-]c1ccc(C(=O)N2CCN(C3CC3)CC2)cc1)C(=O)n1c(C(N)=O)cc2ccc(C(F)(F)F)cc21

>  <Energy>  (37) 
405.31222211880157

>  <Genealogy>  (37) 
CN(CC(=O)[N-]c1ccc(C(=O)N2CCN(C3CC3)CC2)cc1)C(=O)n1c(C(N)=O)cc2ccc(C(F)(F)F)cc21 (protonated)
CN(CC(=O)[N-]c1ccc(C(=O)N2CCN(C3CC3)CC2)cc1)C(=O)n1c(C(N)=O)cc2ccc(C(F)(F)F)cc21 (3D coordinates assigned)
CN(CC(=O)[N-]c1ccc(C(=O)N2CCN(C3CC3)CC2)cc1)C(=O)n1c(C(N)=O)cc2ccc(C(F)(F)F)cc21 (nonaromatic ring conformer: 405.31222211880157 kcal/mol)

>  <smiles>  (37) 
CN(CC(=O)Nc1ccc(C(=O)N2CCN(C3CC3)CC2)cc1)C(=O)n1c(C(N)=O)cc2ccc(C(F)(F)F)cc21

>  <score_type>  (37) 
oracle

>  <origin>  (37) 
adg

>  <m_score__min__energy>  (37) 
-12.18

>  <m_primary>  (37) 
energy

$$$$
38:0
     RDKit          3D

 44 45  0  0  0  0  0  0  0  0999 V2000
   -0.7580   19.2040  -32.0940 C   0  0  0  0  0  0  0  0  0  0  0  0
   -1.9930   18.9600  -32.8470 N   0  0  0  0  0  0  0  0  0  0  0  0
   -2.3880   17.5730  -33.1390 C   0  0  0  0  0  0  0  0  0  0  0  0
   -2.3840   17.3140  -34.6450 C   0  0  0  0  0  0  0  0  0  0  0  0
   -3.6950   17.3040  -35.1360 O   0  0  0  0  0  0  0  0  0  0  0  0
   -2.7870   20.0650  -33.3400 C   0  0  0  0  0  0  0  0  0  0  0  0
   -3.8990   19.8430  -33.8940 O   0  0  0  0  0  0  0  0  0  0  0  0
   -2.3500   21.4890  -33.1660 C   0  0  0  0  0  0  0  0  0  0  0  0
   -3.4910   22.3030  -32.9230 O   0  0  0  0  0  0  0  0  0  0  0  0
   -3.9250   22.6350  -31.6360 C   0  0  0  0  0  0  0  0  0  0  0  0
   -3.1110   22.6470  -30.6740 O   0  0  0  0  0  0  0  0  0  0  0  0
   -5.3100   22.9410  -31.4100 N   0  0  0  0  0  0  0  0  0  0  0  0
   -5.8470   24.1330  -31.0220 C   0  0  0  0  0  0  0  0  0  0  0  0
   -5.0880   25.3280  -30.5960 C   0  0  0  0  0  0  0  0  0  0  0  0
   -3.6670   25.2670  -30.4940 N   0  0  0  0  0  0  0  0  0  0  0  0
   -5.6760   26.4150  -30.3560 O   0  0  0  0  0  0  0  0  0  0  0  0
   -7.2380   24.0560  -30.9950 C   0  0  0  0  0  0  0  0  0  0  0  0
   -7.5400   22.7690  -31.3760 C   0  0  0  0  0  0  0  0  0  0  0  0
   -8.7770   22.1500  -31.5360 C   0  0  0  0  0  0  0  0  0  0  0  0
   -8.7920   20.8140  -31.9700 C   0  0  0  0  0  0  0  0  0  0  0  0
   -7.5820   20.1250  -32.2290 C   0  0  0  0  0  0  0  0  0  0  0  0
   -7.6140   18.7080  -32.7320 C   0  0  0  0  0  0  0  0  0  0  0  0
   -6.3000   18.3530  -33.3520 C   0  0  0  0  0  0  0  0  0  0  0  0
   -5.3940   17.8240  -32.6560 O   0  0  0  0  0  0  0  0  0  0  0  0
   -6.0920   18.5630  -34.7090 O   0  0  0  0  0  0  0  0  0  0  0  0
   -6.3460   20.7880  -32.0660 C   0  0  0  0  0  0  0  0  0  0  0  0
   -6.3600   22.1150  -31.6180 C   0  0  0  0  0  0  0  0  0  0  0  0
   -0.9716   19.1618  -31.0158 H   0  0  0  0  0  0  0  0  0  0  0  0
   -0.0141   18.4355  -32.3508 H   0  0  0  0  0  0  0  0  0  0  0  0
   -0.3622   20.1977  -32.3508 H   0  0  0  0  0  0  0  0  0  0  0  0
   -1.6795   16.8862  -32.6529 H   0  0  0  0  0  0  0  0  0  0  0  0
   -3.4055   17.4076  -32.7552 H   0  0  0  0  0  0  0  0  0  0  0  0
   -1.8130   18.1077  -35.1489 H   0  0  0  0  0  0  0  0  0  0  0  0
   -1.9194   16.3363  -34.8404 H   0  0  0  0  0  0  0  0  0  0  0  0
   -4.2400   17.8010  -34.4730 H   0  0  0  0  0  0  0  0  0  0  0  0
   -1.6592   21.5600  -32.3129 H   0  0  0  0  0  0  0  0  0  0  0  0
   -1.8390   21.8323  -34.0776 H   0  0  0  0  0  0  0  0  0  0  0  0
   -3.1010   24.7520  -31.2030 H   0  0  0  0  0  0  0  0  0  0  0  0
   -7.9448   24.8548  -30.7261 H   0  0  0  0  0  0  0  0  0  0  0  0
   -9.7127   22.6900  -31.3291 H   0  0  0  0  0  0  0  0  0  0  0  0
   -9.7532   20.2978  -32.1101 H   0  0  0  0  0  0  0  0  0  0  0  0
   -7.8151   18.0279  -31.8912 H   0  0  0  0  0  0  0  0  0  0  0  0
   -8.4067   18.6123  -33.4886 H   0  0  0  0  0  0  0  0  0  0  0  0
   -5.3974   20.2760  -32.2850 H   0  0  0  0  0  0  0  0  0  0  0  0
  1  2  1  0
  2  3  1  0
  3  4  1  0
  4  5  1  0
  2  6  1  0
  6  7  2  0
  6  8  1  0
  8  9  1  0
  9 10  1  0
 10 11  2  0
 10 12  1  0
 12 13  1  0
 13 14  1  0
 14 15  1  0
 14 16  2  0
 13 17  2  0
 17 18  1  0
 18 19  2  0
 19 20  1  0
 20 21  2  0
 21 22  1  0
 22 23  1  0
 23 24  2  0
 23 25  1  0
 21 26  1  0
 26 27  2  0
 27 12  1  0
 27 18  1  0
  1 28  1  0
  1 29  1  0
  1 30  1  0
  3 31  1  0
  3 32  1  0
  4 33  1  0
  4 34  1  0
  5 35  1  0
  8 36  1  0
  8 37  1  0
 15 38  1  0
 17 39  1  0
 19 40  1  0
 20 41  1  0
 22 42  1  0
 22 43  1  0
 26 44  1  0
M  CHG  2  15  -1  25  -1
M  END
>  <UniqueID>  (38) 
38

>  <SMILES>  (38) 
CN(CCO)C(=O)COC(=O)n1c(C([NH-])=O)cc2ccc(CC(=O)[O-])cc21

>  <Energy>  (38) 
73.72075217177094

>  <Genealogy>  (38) 
CN(CCO)C(=O)COC(=O)n1c(C([NH-])=O)cc2ccc(CC(=O)[O-])cc21 (protonated)
CN(CCO)C(=O)COC(=O)n1c(C([NH-])=O)cc2ccc(CC(=O)[O-])cc21 (3D coordinates assigned)
CN(CCO)C(=O)COC(=O)n1c(C([NH-])=O)cc2ccc(CC(=O)[O-])cc21 (optimized conformer: 73.72075217177094 kcal/mol)

>  <smiles>  (38) 
CN(CCO)C(=O)COC(=O)n1c(C(N)=O)cc2ccc(CC(=O)O)cc21

>  <score_type>  (38) 
oracle

>  <origin>  (38) 
adg

>  <m_score__min__energy>  (38) 
-9.9299999999999997

>  <m_primary>  (38) 
energy

$$$$
39:0
     RDKit          3D

 40 41  0  0  0  0  0  0  0  0999 V2000
   -2.6120   20.8330  -30.4080 C   0  0  0  0  0  0  0  0  0  0  0  0
   -3.0040   22.0650  -30.7670 C   0  0  0  0  0  0  0  0  0  0  0  0
   -2.4320   23.2420  -30.1580 N   0  0  0  0  0  0  0  0  0  0  0  0
   -1.2510   23.2490  -29.2970 C   0  0  0  0  0  0  0  0  0  0  0  0
   -0.9670   24.6390  -28.8270 C   0  0  0  0  0  0  0  0  0  0  0  0
   -1.8400   25.5410  -28.9610 O   0  0  0  0  0  0  0  0  0  0  0  0
    0.2570   24.9180  -28.2140 O   0  0  0  0  0  0  0  0  0  0  0  0
    0.7860   24.1200  -27.1630 C   0  0  0  0  0  0  0  0  0  0  0  0
   -4.0320   22.2320  -31.8260 C   0  0  0  0  0  0  0  0  0  0  0  0
   -3.6890   22.3020  -33.0380 O   0  0  0  0  0  0  0  0  0  0  0  0
   -5.4250   22.3230  -31.4860 N   0  0  0  0  0  0  0  0  0  0  0  0
   -6.0730   23.3780  -30.9190 C   0  0  0  0  0  0  0  0  0  0  0  0
   -5.4230   24.6190  -30.4370 C   0  0  0  0  0  0  0  0  0  0  0  0
   -5.7630   25.1830  -29.1690 N   0  0  0  0  0  0  0  0  0  0  0  0
   -4.5400   25.1820  -31.1370 O   0  0  0  0  0  0  0  0  0  0  0  0
   -7.4330   23.0960  -30.7870 C   0  0  0  0  0  0  0  0  0  0  0  0
   -7.5960   21.8290  -31.3020 C   0  0  0  0  0  0  0  0  0  0  0  0
   -8.7440   21.0510  -31.4250 C   0  0  0  0  0  0  0  0  0  0  0  0
   -8.6190   19.7800  -32.0100 C   0  0  0  0  0  0  0  0  0  0  0  0
   -7.3580   19.3120  -32.4610 C   0  0  0  0  0  0  0  0  0  0  0  0
   -7.2450   17.9490  -33.0820 C   0  0  0  0  0  0  0  0  0  0  0  0
   -6.6850   17.0680  -32.1730 F   0  0  0  0  0  0  0  0  0  0  0  0
   -6.4430   18.0150  -34.2070 F   0  0  0  0  0  0  0  0  0  0  0  0
   -6.2150   20.1320  -32.3210 C   0  0  0  0  0  0  0  0  0  0  0  0
   -6.3690   21.3860  -31.7200 C   0  0  0  0  0  0  0  0  0  0  0  0
   -3.0628   19.9511  -30.8866 H   0  0  0  0  0  0  0  0  0  0  0  0
   -1.8399   20.7049  -29.6351 H   0  0  0  0  0  0  0  0  0  0  0  0
   -2.8900   24.1650  -30.3320 H   0  0  0  0  0  0  0  0  0  0  0  0
   -1.4310   22.6003  -28.4270 H   0  0  0  0  0  0  0  0  0  0  0  0
   -0.3869   22.8780  -29.8677 H   0  0  0  0  0  0  0  0  0  0  0  0
    0.4988   24.5532  -26.1935 H   0  0  0  0  0  0  0  0  0  0  0  0
    0.3856   23.0984  -27.2411 H   0  0  0  0  0  0  0  0  0  0  0  0
    1.8828   24.0909  -27.2411 H   0  0  0  0  0  0  0  0  0  0  0  0
   -6.5260   24.7870  -28.5800 H   0  0  0  0  0  0  0  0  0  0  0  0
   -5.2730   26.0420  -28.8300 H   0  0  0  0  0  0  0  0  0  0  0  0
   -8.2105   23.7476  -30.3617 H   0  0  0  0  0  0  0  0  0  0  0  0
   -9.7192   21.4203  -31.0748 H   0  0  0  0  0  0  0  0  0  0  0  0
   -9.5078   19.1412  -32.1195 H   0  0  0  0  0  0  0  0  0  0  0  0
   -8.2481   17.5974  -33.3653 H   0  0  0  0  0  0  0  0  0  0  0  0
   -5.2303   19.7930  -32.6753 H   0  0  0  0  0  0  0  0  0  0  0  0
  1  2  2  0
  2  3  1  0
  3  4  1  0
  4  5  1  0
  5  6  2  0
  5  7  1  0
  7  8  1  0
  2  9  1  0
  9 10  2  0
  9 11  1  0
 11 12  1  0
 12 13  1  0
 13 14  1  0
 13 15  2  0
 12 16  2  0
 16 17  1  0
 17 18  2  0
 18 19  1  0
 19 20  2  0
 20 21  1  0
 21 22  1  0
 21 23  1  0
 20 24  1  0
 24 25  2  0
 25 11  1  0
 25 17  1  0
  1 26  1  0
  1 27  1  0
  3 28  1  0
  4 29  1  0
  4 30  1  0
  8 31  1  0
  8 32  1  0
  8 33  1  0
 14 34  1  0
 14 35  1  0
 16 36  1  0
 18 37  1  0
 19 38  1  0
 21 39  1  0
 24 40  1  0
M  END
>  <UniqueID>  (39) 
39

>  <SMILES>  (39) 
C=C(NCC(=O)OC)C(=O)n1c(C(N)=O)cc2ccc(C(F)F)cc21

>  <Energy>  (39) 
75.70381145906592

>  <Genealogy>  (39) 
C=C(NCC(=O)OC)C(=O)n1c(C(N)=O)cc2ccc(C(F)F)cc21 (3D coordinates assigned)
C=C(NCC(=O)OC)C(=O)n1c(C(N)=O)cc2ccc(C(F)F)cc21 (optimized conformer: 75.70381145906592 kcal/mol)

>  <smiles>  (39) 
C=C(NCC(=O)OC)C(=O)n1c(C(N)=O)cc2ccc(C(F)F)cc21

>  <score_type>  (39) 
oracle

>  <origin>  (39) 
adg

>  <m_score__min__energy>  (39) 
-8.6899999999999995

>  <m_primary>  (39) 
energy

$$$$
40:0
     RDKit          3D

 42 43  0  0  0  0  0  0  0  0999 V2000
   -3.3180   21.5050  -28.1620 C   0  0  0  0  0  0  0  0  0  0  0  0
   -3.4600   22.4440  -29.2800 N   0  0  0  0  0  0  0  0  0  0  0  0
   -4.0910   23.7480  -29.0490 C   0  0  0  0  0  0  0  0  0  0  0  0
   -3.3610   24.8180  -29.7950 C   0  0  0  0  0  0  0  0  0  0  0  0
   -3.8600   25.3170  -30.8380 O   0  0  0  0  0  0  0  0  0  0  0  0
   -2.1490   25.2980  -29.3150 O   0  0  0  0  0  0  0  0  0  0  0  0
   -2.8150   22.1660  -30.5400 C   0  0  0  0  0  0  0  0  0  0  0  0
   -1.6450   22.5870  -30.7530 O   0  0  0  0  0  0  0  0  0  0  0  0
   -3.4900   21.4170  -31.5680 N   0  0  0  0  0  0  0  0  0  0  0  0
   -3.0770   20.0360  -31.8370 C   0  0  0  0  0  0  0  0  0  0  0  0
   -4.6670   21.9540  -32.2030 C   0  0  0  0  0  0  0  0  0  0  0  0
   -4.5580   22.7970  -33.1360 O   0  0  0  0  0  0  0  0  0  0  0  0
   -5.9770   21.5460  -31.7840 N   0  0  0  0  0  0  0  0  0  0  0  0
   -6.9430   22.3190  -31.2170 C   0  0  0  0  0  0  0  0  0  0  0  0
   -6.7830   23.7240  -30.7890 C   0  0  0  0  0  0  0  0  0  0  0  0
   -5.9940   24.6490  -31.5400 N   0  0  0  0  0  0  0  0  0  0  0  0
   -7.3230   24.1080  -29.7170 O   0  0  0  0  0  0  0  0  0  0  0  0
   -8.1350   21.6070  -31.1070 C   0  0  0  0  0  0  0  0  0  0  0  0
   -7.8660   20.3620  -31.6320 C   0  0  0  0  0  0  0  0  0  0  0  0
   -8.7030   19.2660  -31.8170 C   0  0  0  0  0  0  0  0  0  0  0  0
   -8.1690   18.1290  -32.4480 C   0  0  0  0  0  0  0  0  0  0  0  0
   -6.8150   18.1050  -32.8760 C   0  0  0  0  0  0  0  0  0  0  0  0
   -6.2700   16.9030  -33.6060 C   0  0  0  0  0  0  0  0  0  0  0  0
   -5.7200   17.3120  -34.8060 F   0  0  0  0  0  0  0  0  0  0  0  0
   -7.2780   15.9880  -33.8590 F   0  0  0  0  0  0  0  0  0  0  0  0
   -5.2940   16.2750  -32.8520 F   0  0  0  0  0  0  0  0  0  0  0  0
   -6.0090   19.2510  -32.6970 C   0  0  0  0  0  0  0  0  0  0  0  0
   -6.5590   20.3570  -32.0410 C   0  0  0  0  0  0  0  0  0  0  0  0
   -3.4007   22.0518  -27.2111 H   0  0  0  0  0  0  0  0  0  0  0  0
   -4.1115   20.7452  -28.2183 H   0  0  0  0  0  0  0  0  0  0  0  0
   -2.3354   21.0138  -28.2183 H   0  0  0  0  0  0  0  0  0  0  0  0
   -5.1346   23.7123  -29.3947 H   0  0  0  0  0  0  0  0  0  0  0  0
   -4.0575   23.9758  -27.9734 H   0  0  0  0  0  0  0  0  0  0  0  0
   -2.9192   19.5084  -30.8848 H   0  0  0  0  0  0  0  0  0  0  0  0
   -3.8615   19.5245  -32.4140 H   0  0  0  0  0  0  0  0  0  0  0  0
   -2.1405   20.0391  -32.4140 H   0  0  0  0  0  0  0  0  0  0  0  0
   -5.9500   25.6520  -31.2520 H   0  0  0  0  0  0  0  0  0  0  0  0
   -5.3690   24.3300  -32.3110 H   0  0  0  0  0  0  0  0  0  0  0  0
   -9.0885   21.9630  -30.6897 H   0  0  0  0  0  0  0  0  0  0  0  0
   -9.7499   19.2885  -31.4800 H   0  0  0  0  0  0  0  0  0  0  0  0
   -8.8070   17.2480  -32.6121 H   0  0  0  0  0  0  0  0  0  0  0  0
   -4.9726   19.2731  -33.0650 H   0  0  0  0  0  0  0  0  0  0  0  0
  1  2  1  0
  2  3  1  0
  3  4  1  0
  4  5  2  0
  4  6  1  0
  2  7  1  0
  7  8  2  0
  7  9  1  0
  9 10  1  0
  9 11  1  0
 11 12  2  0
 11 13  1  0
 13 14  1  0
 14 15  1  0
 15 16  1  0
 15 17  2  0
 14 18  2  0
 18 19  1  0
 19 20  2  0
 20 21  1  0
 21 22  2  0
 22 23  1  0
 23 24  1  0
 23 25  1  0
 23 26  1  0
 22 27  1  0
 27 28  2  0
 28 13  1  0
 28 19  1  0
  1 29  1  0
  1 30  1  0
  1 31  1  0
  3 32  1  0
  3 33  1  0
 10 34  1  0
 10 35  1  0
 10 36  1  0
 16 37  1  0
 16 38  1  0
 18 39  1  0
 20 40  1  0
 21 41  1  0
 27 42  1  0
M  CHG  1   6  -1
M  END
>  <UniqueID>  (40) 
40

>  <SMILES>  (40) 
CN(CC(=O)[O-])C(=O)N(C)C(=O)n1c(C(N)=O)cc2ccc(C(F)(F)F)cc21

>  <Energy>  (40) 
84.65839169257575

>  <Genealogy>  (40) 
CN(CC(=O)[O-])C(=O)N(C)C(=O)n1c(C(N)=O)cc2ccc(C(F)(F)F)cc21 (protonated)
CN(CC(=O)[O-])C(=O)N(C)C(=O)n1c(C(N)=O)cc2ccc(C(F)(F)F)cc21 (3D coordinates assigned)
CN(CC(=O)[O-])C(=O)N(C)C(=O)n1c(C(N)=O)cc2ccc(C(F)(F)F)cc21 (optimized conformer: 84.65839169257575 kcal/mol)

>  <smiles>  (40) 
CN(CC(=O)O)C(=O)N(C)C(=O)n1c(C(N)=O)cc2ccc(C(F)(F)F)cc21

>  <score_type>  (40) 
oracle

>  <origin>  (40) 
adg

>  <m_score__min__energy>  (40) 
-11

>  <m_primary>  (40) 
energy

$$$$
41:0
     RDKit          3D

 40 42  0  0  0  0  0  0  0  0999 V2000
   -4.2080   25.5130  -30.6770 N   0  0  0  0  0  0  0  0  0  0  0  0
   -5.5220   25.0250  -30.3990 C   0  0  0  0  0  0  0  0  0  0  0  0
   -6.3080   25.7340  -29.7180 O   0  0  0  0  0  0  0  0  0  0  0  0
   -5.9740   23.7240  -30.9400 C   0  0  0  0  0  0  0  0  0  0  0  0
   -7.3030   23.4300  -31.2390 C   0  0  0  0  0  0  0  0  0  0  0  0
   -7.3100   22.1040  -31.6040 C   0  0  0  0  0  0  0  0  0  0  0  0
   -8.3690   21.2930  -31.9990 C   0  0  0  0  0  0  0  0  0  0  0  0
   -8.0890   19.9580  -32.3350 C   0  0  0  0  0  0  0  0  0  0  0  0
   -6.7610   19.4600  -32.2790 C   0  0  0  0  0  0  0  0  0  0  0  0
   -6.4500   18.0570  -32.6360 C   0  0  0  0  0  0  0  0  0  0  0  0
   -6.8400   17.3590  -33.7620 C   0  0  0  0  0  0  0  0  0  0  0  0
   -6.3430   16.1100  -33.6920 N   0  0  0  0  0  0  0  0  0  0  0  0
   -5.6680   16.0980  -32.5240 C   0  0  0  0  0  0  0  0  0  0  0  0
   -5.7300   17.2500  -31.8960 O   0  0  0  0  0  0  0  0  0  0  0  0
   -5.7130   20.3190  -31.8750 C   0  0  0  0  0  0  0  0  0  0  0  0
   -6.0240   21.6390  -31.5250 C   0  0  0  0  0  0  0  0  0  0  0  0
   -5.1890   22.6230  -31.1210 N   0  0  0  0  0  0  0  0  0  0  0  0
   -3.7620   22.5260  -30.9680 C   0  0  0  0  0  0  0  0  0  0  0  0
   -3.0010   23.2930  -31.6180 O   0  0  0  0  0  0  0  0  0  0  0  0
   -3.2210   21.5650  -30.1100 O   0  0  0  0  0  0  0  0  0  0  0  0
   -3.1960   21.7130  -28.6940 C   0  0  0  0  0  0  0  0  0  0  0  0
   -2.1680   22.7810  -28.2920 C   0  0  1  0  0  0  0  0  0  0  0  0
   -1.1020   22.7700  -29.2050 O   0  0  0  0  0  0  0  0  0  0  0  0
   -2.7840   24.1900  -28.2730 C   0  0  0  0  0  0  0  0  0  0  0  0
   -2.3220   24.9610  -29.3500 O   0  0  0  0  0  0  0  0  0  0  0  0
   -3.5130   24.9320  -31.1940 H   0  0  0  0  0  0  0  0  0  0  0  0
   -3.9120   26.4510  -30.3250 H   0  0  0  0  0  0  0  0  0  0  0  0
   -8.1637   24.1134  -31.1929 H   0  0  0  0  0  0  0  0  0  0  0  0
   -9.3955   21.6855  -32.0468 H   0  0  0  0  0  0  0  0  0  0  0  0
   -8.9075   19.2916  -32.6447 H   0  0  0  0  0  0  0  0  0  0  0  0
   -7.4557   17.7582  -34.5815 H   0  0  0  0  0  0  0  0  0  0  0  0
   -5.1260   15.2211  -32.1403 H   0  0  0  0  0  0  0  0  0  0  0  0
   -4.6747   19.9579  -31.8364 H   0  0  0  0  0  0  0  0  0  0  0  0
   -4.1929   22.0173  -28.3425 H   0  0  0  0  0  0  0  0  0  0  0  0
   -2.9145   20.7528  -28.2370 H   0  0  0  0  0  0  0  0  0  0  0  0
   -1.8180   22.5408  -27.2772 H   0  0  0  0  0  0  0  0  0  0  0  0
   -1.4890   22.9540  -30.1020 H   0  0  0  0  0  0  0  0  0  0  0  0
   -3.8787   24.1037  -28.3372 H   0  0  0  0  0  0  0  0  0  0  0  0
   -2.4879   24.6866  -27.3372 H   0  0  0  0  0  0  0  0  0  0  0  0
   -1.9820   24.3250  -30.0320 H   0  0  0  0  0  0  0  0  0  0  0  0
  1  2  1  0
  2  3  2  0
  2  4  1  0
  4  5  2  0
  5  6  1  0
  6  7  2  0
  7  8  1  0
  8  9  2  0
  9 10  1  0
 10 11  2  0
 11 12  1  0
 12 13  2  0
 13 14  1  0
  9 15  1  0
 15 16  2  0
 16 17  1  0
 17 18  1  0
 18 19  2  0
 18 20  1  0
 20 21  1  0
 21 22  1  0
 22 23  1  0
 22 24  1  0
 24 25  1  0
 17  4  1  0
 16  6  1  0
 14 10  1  0
  1 26  1  0
  1 27  1  0
  5 28  1  0
  7 29  1  0
  8 30  1  0
 11 31  1  0
 13 32  1  0
 15 33  1  0
 21 34  1  0
 21 35  1  0
 22 36  1  1
 23 37  1  0
 24 38  1  0
 24 39  1  0
 25 40  1  0
M  END
>  <UniqueID>  (41) 
41

>  <SMILES>  (41) 
NC(=O)c1cc2ccc(-c3cnco3)cc2n1C(=O)OC[C@@H](O)CO

>  <Energy>  (41) 
105.60027074823074

>  <Genealogy>  (41) 
NC(=O)c1cc2ccc(-c3cnco3)cc2n1C(=O)OC[C@@H](O)CO (chirality)
NC(=O)c1cc2ccc(-c3cnco3)cc2n1C(=O)OC[C@@H](O)CO (3D coordinates assigned)
NC(=O)c1cc2ccc(-c3cnco3)cc2n1C(=O)OC[C@@H](O)CO (optimized conformer: 105.60027074823074 kcal/mol)

>  <smiles>  (41) 
NC(=O)c1cc2ccc(-c3cnco3)cc2n1C(=O)OCC(O)CO

>  <score_type>  (41) 
oracle

>  <origin>  (41) 
adg

>  <m_score__min__energy>  (41) 
-9.0199999999999996

>  <m_primary>  (41) 
energy

$$$$
42:0
     RDKit          3D

 42 43  0  0  0  0  0  0  0  0999 V2000
   -0.5400   21.8260  -27.2550 C   0  0  0  0  0  0  0  0  0  0  0  0
   -1.5350   22.2680  -28.2340 N   0  0  0  0  0  0  0  0  0  0  0  0
   -2.0920   23.6240  -28.1690 C   0  0  0  0  0  0  0  0  0  0  0  0
   -1.1500   24.6030  -28.7940 C   0  0  0  0  0  0  0  0  0  0  0  0
   -1.5840   25.6790  -29.2820 O   0  0  0  0  0  0  0  0  0  0  0  0
    0.2100   24.3250  -28.8410 O   0  0  0  0  0  0  0  0  0  0  0  0
   -1.9840   21.3560  -29.2550 C   0  0  0  0  0  0  0  0  0  0  0  0
   -1.2120   20.4480  -29.6710 O   0  0  0  0  0  0  0  0  0  0  0  0
   -3.2730   21.4970  -29.7870 O   0  0  0  0  0  0  0  0  0  0  0  0
   -3.6760   22.5030  -30.6750 C   0  0  0  0  0  0  0  0  0  0  0  0
   -2.8250   23.2460  -31.2360 O   0  0  0  0  0  0  0  0  0  0  0  0
   -5.0740   22.6680  -30.9680 N   0  0  0  0  0  0  0  0  0  0  0  0
   -5.8140   23.8120  -30.9070 C   0  0  0  0  0  0  0  0  0  0  0  0
   -5.3550   25.1170  -30.3890 C   0  0  0  0  0  0  0  0  0  0  0  0
   -4.1160   25.6630  -30.8400 N   0  0  0  0  0  0  0  0  0  0  0  0
   -6.0600   25.7760  -29.5810 O   0  0  0  0  0  0  0  0  0  0  0  0
   -7.1200   23.5710  -31.3230 C   0  0  0  0  0  0  0  0  0  0  0  0
   -7.1630   22.2310  -31.6340 C   0  0  0  0  0  0  0  0  0  0  0  0
   -8.2170   21.4580  -32.1020 C   0  0  0  0  0  0  0  0  0  0  0  0
   -7.9760   20.0980  -32.3580 C   0  0  0  0  0  0  0  0  0  0  0  0
   -6.6870   19.5300  -32.1530 C   0  0  0  0  0  0  0  0  0  0  0  0
   -6.4460   18.1280  -32.4310 N   0  0  0  0  0  0  0  0  0  0  0  0
   -6.1520   17.1930  -31.3370 C   0  0  0  0  0  0  0  0  0  0  0  0
   -6.4920   17.6220  -33.8070 C   0  0  0  0  0  0  0  0  0  0  0  0
   -5.6420   20.3610  -31.6760 C   0  0  0  0  0  0  0  0  0  0  0  0
   -5.9180   21.7070  -31.4100 C   0  0  0  0  0  0  0  0  0  0  0  0
   -0.9246   21.9968  -26.2387 H   0  0  0  0  0  0  0  0  0  0  0  0
   -0.3386   20.7538  -27.3954 H   0  0  0  0  0  0  0  0  0  0  0  0
    0.3907   22.3954  -27.3954 H   0  0  0  0  0  0  0  0  0  0  0  0
   -3.0508   23.6486  -28.7076 H   0  0  0  0  0  0  0  0  0  0  0  0
   -2.2447   23.8977  -27.1146 H   0  0  0  0  0  0  0  0  0  0  0  0
   -3.2060   25.2590  -30.5270 H   0  0  0  0  0  0  0  0  0  0  0  0
   -7.9433   24.2975  -31.3892 H   0  0  0  0  0  0  0  0  0  0  0  0
   -9.2117   21.8976  -32.2675 H   0  0  0  0  0  0  0  0  0  0  0  0
   -8.7962   19.4620  -32.7226 H   0  0  0  0  0  0  0  0  0  0  0  0
   -6.3103   17.6965  -30.3719 H   0  0  0  0  0  0  0  0  0  0  0  0
   -6.8195   16.3218  -31.4099 H   0  0  0  0  0  0  0  0  0  0  0  0
   -5.1060   16.8606  -31.4099 H   0  0  0  0  0  0  0  0  0  0  0  0
   -6.5916   16.5266  -33.7917 H   0  0  0  0  0  0  0  0  0  0  0  0
   -7.3539   18.0613  -34.3306 H   0  0  0  0  0  0  0  0  0  0  0  0
   -5.5650   17.8986  -34.3306 H   0  0  0  0  0  0  0  0  0  0  0  0
   -4.6320   19.9549  -31.5178 H   0  0  0  0  0  0  0  0  0  0  0  0
  1  2  1  0
  2  3  1  0
  3  4  1  0
  4  5  2  0
  4  6  1  0
  2  7  1  0
  7  8  2  0
  7  9  1  0
  9 10  1  0
 10 11  2  0
 10 12  1  0
 12 13  1  0
 13 14  1  0
 14 15  1  0
 14 16  2  0
 13 17  2  0
 17 18  1  0
 18 19  2  0
 19 20  1  0
 20 21  2  0
 21 22  1  0
 22 23  1  0
 22 24  1  0
 21 25  1  0
 25 26  2  0
 26 12  1  0
 26 18  1  0
  1 27  1  0
  1 28  1  0
  1 29  1  0
  3 30  1  0
  3 31  1  0
 15 32  1  0
 17 33  1  0
 19 34  1  0
 20 35  1  0
 23 36  1  0
 23 37  1  0
 23 38  1  0
 24 39  1  0
 24 40  1  0
 24 41  1  0
 25 42  1  0
M  CHG  2   6  -1  15  -1
M  END
>  <UniqueID>  (42) 
42

>  <SMILES>  (42) 
CN(CC(=O)[O-])C(=O)OC(=O)n1c(C([NH-])=O)cc2ccc(N(C)C)cc21

>  <Energy>  (42) 
77.80291302667776

>  <Genealogy>  (42) 
CN(CC(=O)[O-])C(=O)OC(=O)n1c(C([NH-])=O)cc2ccc(N(C)C)cc21 (protonated)
CN(CC(=O)[O-])C(=O)OC(=O)n1c(C([NH-])=O)cc2ccc(N(C)C)cc21 (3D coordinates assigned)
CN(CC(=O)[O-])C(=O)OC(=O)n1c(C([NH-])=O)cc2ccc(N(C)C)cc21 (optimized conformer: 77.80291302667776 kcal/mol)

>  <smiles>  (42) 
CN(CC(=O)O)C(=O)OC(=O)n1c(C(N)=O)cc2ccc(N(C)C)cc21

>  <score_type>  (42) 
oracle

>  <origin>  (42) 
adg

>  <m_score__min__energy>  (42) 
-12.539999999999999

>  <m_primary>  (42) 
energy

$$$$
43:0
     RDKit          3D

 36 38  0  0  0  0  0  0  0  0999 V2000
   -0.4890   23.6450  -29.7150 N   0  0  0  0  0  0  0  0  0  0  0  0
   -0.8220   22.2590  -29.8100 C   0  0  0  0  0  0  0  0  0  0  0  0
   -0.1780   21.4240  -29.1200 O   0  0  0  0  0  0  0  0  0  0  0  0
   -1.9380   21.7920  -30.6570 C   0  0  0  0  0  0  0  0  0  0  0  0
   -1.8000   20.8130  -31.6390 C   0  0  0  0  0  0  0  0  0  0  0  0
   -3.0660   20.6230  -32.1430 C   0  0  0  0  0  0  0  0  0  0  0  0
   -3.5130   19.7720  -33.1480 C   0  0  0  0  0  0  0  0  0  0  0  0
   -4.8760   19.8050  -33.4840 C   0  0  0  0  0  0  0  0  0  0  0  0
   -5.7690   20.6850  -32.8130 C   0  0  0  0  0  0  0  0  0  0  0  0
   -7.1700   20.7420  -33.1460 N   0  0  0  0  0  0  0  0  0  0  0  0
   -8.2020   21.3400  -32.2990 C   0  0  0  0  0  0  0  0  0  0  0  0
   -9.1120   20.2460  -31.7240 C   0  0  0  0  0  0  0  0  0  0  0  0
   -8.5100   18.8540  -31.5870 C   0  0  0  0  0  0  0  0  0  0  0  0
   -9.4680   19.1550  -32.7240 C   0  0  0  0  0  0  0  0  0  0  0  0
   -5.2720   21.5400  -31.8060 C   0  0  0  0  0  0  0  0  0  0  0  0
   -3.9120   21.4750  -31.4830 C   0  0  0  0  0  0  0  0  0  0  0  0
   -3.2340   22.2060  -30.5730 N   0  0  0  0  0  0  0  0  0  0  0  0
   -3.7780   23.2610  -29.7630 C   0  0  0  0  0  0  0  0  0  0  0  0
   -4.5640   22.9780  -28.8190 O   0  0  0  0  0  0  0  0  0  0  0  0
   -3.4610   24.6710  -30.0370 C   0  0  0  0  0  0  0  0  0  0  0  0
   -4.1320   25.3240  -30.8790 O   0  0  0  0  0  0  0  0  0  0  0  0
   -2.4300   25.2980  -29.3490 O   0  0  0  0  0  0  0  0  0  0  0  0
   -1.1090   24.3800  -30.1210 H   0  0  0  0  0  0  0  0  0  0  0  0
    0.3380   23.9470  -29.1540 H   0  0  0  0  0  0  0  0  0  0  0  0
   -0.8759   20.3012  -31.9458 H   0  0  0  0  0  0  0  0  0  0  0  0
   -2.8190   19.0928  -33.6647 H   0  0  0  0  0  0  0  0  0  0  0  0
   -5.2572   19.1427  -34.2752 H   0  0  0  0  0  0  0  0  0  0  0  0
   -7.4740   20.3690  -34.0740 H   0  0  0  0  0  0  0  0  0  0  0  0
   -7.7232   21.8862  -31.4729 H   0  0  0  0  0  0  0  0  0  0  0  0
   -8.8078   22.0311  -32.9034 H   0  0  0  0  0  0  0  0  0  0  0  0
   -9.6593   20.9121  -31.0408 H   0  0  0  0  0  0  0  0  0  0  0  0
   -7.4419   18.6940  -31.7959 H   0  0  0  0  0  0  0  0  0  0  0  0
   -8.4665   18.1014  -30.7859 H   0  0  0  0  0  0  0  0  0  0  0  0
   -9.0942   19.2129  -33.7569 H   0  0  0  0  0  0  0  0  0  0  0  0
  -10.4061   18.7106  -33.0879 H   0  0  0  0  0  0  0  0  0  0  0  0
   -5.9397   22.2427  -31.2860 H   0  0  0  0  0  0  0  0  0  0  0  0
  1  2  1  0
  2  3  2  0
  2  4  1  0
  4  5  2  0
  5  6  1  0
  6  7  2  0
  7  8  1  0
  8  9  2  0
  9 10  1  0
 10 11  1  0
 11 12  1  0
 12 13  1  0
 13 14  1  0
  9 15  1  0
 15 16  2  0
 16 17  1  0
 17 18  1  0
 18 19  2  0
 18 20  1  0
 20 21  2  0
 20 22  1  0
 17  4  1  0
 16  6  1  0
 14 12  1  0
  1 23  1  0
  1 24  1  0
  5 25  1  0
  7 26  1  0
  8 27  1  0
 10 28  1  0
 11 29  1  0
 11 30  1  0
 12 31  1  0
 13 32  1  0
 13 33  1  0
 14 34  1  0
 14 35  1  0
 15 36  1  0
M  CHG  1  22  -1
M  END
>  <UniqueID>  (43) 
43

>  <SMILES>  (43) 
NC(=O)c1cc2ccc(NCC3CC3)cc2n1C(=O)C(=O)[O-]

>  <Energy>  (43) 
340.19677101974435

>  <Genealogy>  (43) 
NC(=O)c1cc2ccc(NCC3CC3)cc2n1C(=O)C(=O)[O-] (protonated)
NC(=O)c1cc2ccc(NCC3CC3)cc2n1C(=O)C(=O)[O-] (3D coordinates assigned)
NC(=O)c1cc2ccc(NCC3CC3)cc2n1C(=O)C(=O)[O-] (nonaromatic ring conformer: 340.19677101974435 kcal/mol)

>  <smiles>  (43) 
NC(=O)c1cc2ccc(NCC3CC3)cc2n1C(=O)C(=O)O

>  <score_type>  (43) 
oracle

>  <origin>  (43) 
adg

>  <m_score__min__energy>  (43) 
-9.1500000000000004

>  <m_primary>  (43) 
energy

$$$$
44:0
     RDKit          3D

 47 48  0  0  0  0  0  0  0  0999 V2000
   -1.1720   21.2040  -33.2030 C   0  0  0  0  0  0  0  0  0  0  0  0
   -2.5870   20.9280  -32.6590 C   0  0  0  0  0  0  0  0  0  0  0  0
   -2.4720   20.4050  -31.2190 C   0  0  0  0  0  0  0  0  0  0  0  0
   -3.3010   19.8660  -33.5180 C   0  0  0  0  0  0  0  0  0  0  0  0
   -3.3580   22.1370  -32.6110 O   0  0  0  0  0  0  0  0  0  0  0  0
   -3.8490   22.7650  -31.4550 C   0  0  0  0  0  0  0  0  0  0  0  0
   -3.0690   23.1370  -30.5400 O   0  0  0  0  0  0  0  0  0  0  0  0
   -5.2600   23.0050  -31.3310 N   0  0  0  0  0  0  0  0  0  0  0  0
   -5.8730   24.1030  -30.8050 C   0  0  0  0  0  0  0  0  0  0  0  0
   -5.2090   25.3610  -30.4090 C   0  0  0  0  0  0  0  0  0  0  0  0
   -3.8850   25.6590  -30.8420 N   0  0  0  0  0  0  0  0  0  0  0  0
   -5.8380   26.2090  -29.7200 O   0  0  0  0  0  0  0  0  0  0  0  0
   -7.2520   23.9150  -30.7560 C   0  0  0  0  0  0  0  0  0  0  0  0
   -7.4690   22.6610  -31.2780 C   0  0  0  0  0  0  0  0  0  0  0  0
   -8.6560   21.9580  -31.4540 C   0  0  0  0  0  0  0  0  0  0  0  0
   -8.5800   20.6610  -31.9880 C   0  0  0  0  0  0  0  0  0  0  0  0
   -7.3310   20.0840  -32.3260 C   0  0  0  0  0  0  0  0  0  0  0  0
   -7.2990   18.7460  -32.8580 N   0  0  0  0  0  0  0  0  0  0  0  0
   -6.3020   17.7480  -32.4590 C   0  0  0  0  0  0  0  0  0  0  0  0
   -6.0060   16.7490  -33.5920 C   0  0  1  0  0  0  0  0  0  0  0  0
   -7.2030   16.4580  -34.2660 O   0  0  0  0  0  0  0  0  0  0  0  0
   -4.9630   17.2940  -34.5880 C   0  0  0  0  0  0  0  0  0  0  0  0
   -5.5660   18.1090  -35.5580 O   0  0  0  0  0  0  0  0  0  0  0  0
   -6.1430   20.8330  -32.1310 C   0  0  0  0  0  0  0  0  0  0  0  0
   -6.2510   22.1310  -31.6170 C   0  0  0  0  0  0  0  0  0  0  0  0
   -0.4759   21.3398  -32.3621 H   0  0  0  0  0  0  0  0  0  0  0  0
   -0.8430   20.3531  -33.8176 H   0  0  0  0  0  0  0  0  0  0  0  0
   -1.1869   22.1162  -33.8176 H   0  0  0  0  0  0  0  0  0  0  0  0
   -2.6533   21.2296  -30.5139 H   0  0  0  0  0  0  0  0  0  0  0  0
   -3.2174   19.6126  -31.0561 H   0  0  0  0  0  0  0  0  0  0  0  0
   -1.4630   19.9984  -31.0561 H   0  0  0  0  0  0  0  0  0  0  0  0
   -3.7934   19.1337  -32.8613 H   0  0  0  0  0  0  0  0  0  0  0  0
   -4.0550   20.3543  -34.1529 H   0  0  0  0  0  0  0  0  0  0  0  0
   -2.5643   19.3521  -34.1529 H   0  0  0  0  0  0  0  0  0  0  0  0
   -3.0540   25.2910  -30.3270 H   0  0  0  0  0  0  0  0  0  0  0  0
   -8.0077   24.6201  -30.3795 H   0  0  0  0  0  0  0  0  0  0  0  0
   -9.6245   22.4039  -31.1834 H   0  0  0  0  0  0  0  0  0  0  0  0
   -9.5037   20.0849  -32.1460 H   0  0  0  0  0  0  0  0  0  0  0  0
   -8.0150   18.4890  -33.5740 H   0  0  0  0  0  0  0  0  0  0  0  0
   -5.3697   18.2651  -32.1880 H   0  0  0  0  0  0  0  0  0  0  0  0
   -6.7056   17.1851  -31.6044 H   0  0  0  0  0  0  0  0  0  0  0  0
   -5.5837   15.8370  -33.1448 H   0  0  0  0  0  0  0  0  0  0  0  0
   -7.0130   16.5370  -35.2370 H   0  0  0  0  0  0  0  0  0  0  0  0
   -4.2154   17.8841  -34.0377 H   0  0  0  0  0  0  0  0  0  0  0  0
   -4.4871   16.4419  -35.0955 H   0  0  0  0  0  0  0  0  0  0  0  0
   -6.5070   18.2460  -35.2730 H   0  0  0  0  0  0  0  0  0  0  0  0
   -5.1602   20.4047  -32.3775 H   0  0  0  0  0  0  0  0  0  0  0  0
  1  2  1  0
  2  3  1  0
  2  4  1  0
  2  5  1  0
  5  6  1  0
  6  7  2  0
  6  8  1  0
  8  9  1  0
  9 10  1  0
 10 11  1  0
 10 12  2  0
  9 13  2  0
 13 14  1  0
 14 15  2  0
 15 16  1  0
 16 17  2  0
 17 18  1  0
 18 19  1  0
 19 20  1  0
 20 21  1  0
 20 22  1  0
 22 23  1  0
 17 24  1  0
 24 25  2  0
 25  8  1  0
 25 14  1  0
  1 26  1  0
  1 27  1  0
  1 28  1  0
  3 29  1  0
  3 30  1  0
  3 31  1  0
  4 32  1  0
  4 33  1  0
  4 34  1  0
 11 35  1  0
 13 36  1  0
 15 37  1  0
 16 38  1  0
 18 39  1  0
 19 40  1  0
 19 41  1  0
 20 42  1  1
 21 43  1  0
 22 44  1  0
 22 45  1  0
 23 46  1  0
 24 47  1  0
M  CHG  1  11  -1
M  END
>  <UniqueID>  (44) 
44

>  <SMILES>  (44) 
CC(C)(C)OC(=O)n1c(C([NH-])=O)cc2ccc(NC[C@@H](O)CO)cc21

>  <Energy>  (44) 
77.64563140777229

>  <Genealogy>  (44) 
CC(C)(C)OC(=O)n1c(C([NH-])=O)cc2ccc(NCC(O)CO)cc21 (protonated)
CC(C)(C)OC(=O)n1c(C([NH-])=O)cc2ccc(NC[C@@H](O)CO)cc21 (chirality)
CC(C)(C)OC(=O)n1c(C([NH-])=O)cc2ccc(NC[C@@H](O)CO)cc21 (3D coordinates assigned)
CC(C)(C)OC(=O)n1c(C([NH-])=O)cc2ccc(NC[C@@H](O)CO)cc21 (optimized conformer: 77.64563140777229 kcal/mol)

>  <smiles>  (44) 
CC(C)(C)OC(=O)n1c(C(N)=O)cc2ccc(NCC(O)CO)cc21

>  <score_type>  (44) 
oracle

>  <origin>  (44) 
adg

>  <m_score__min__energy>  (44) 
-9.9900000000000002

>  <m_primary>  (44) 
energy

$$$$
45:0
     RDKit          3D

 44 45  0  0  0  0  0  0  0  0999 V2000
   -7.1710   18.6420  -32.6890 C   0  0  0  0  0  0  0  0  0  0  0  0
   -7.2080   20.0550  -32.1890 C   0  0  0  0  0  0  0  0  0  0  0  0
   -8.4230   20.6090  -31.7140 C   0  0  0  0  0  0  0  0  0  0  0  0
   -8.4560   21.9130  -31.1900 C   0  0  0  0  0  0  0  0  0  0  0  0
   -7.2640   22.6320  -31.1490 C   0  0  0  0  0  0  0  0  0  0  0  0
   -7.0020   23.8890  -30.6530 C   0  0  0  0  0  0  0  0  0  0  0  0
   -5.6330   24.0800  -30.8370 C   0  0  0  0  0  0  0  0  0  0  0  0
   -4.9300   25.3350  -30.4970 C   0  0  0  0  0  0  0  0  0  0  0  0
   -3.5570   25.2980  -30.1130 N   0  0  0  0  0  0  0  0  0  0  0  0
   -5.5350   26.4390  -30.5160 O   0  0  0  0  0  0  0  0  0  0  0  0
   -5.0730   22.9840  -31.4220 N   0  0  0  0  0  0  0  0  0  0  0  0
   -3.6880   22.7460  -31.7100 C   0  0  0  0  0  0  0  0  0  0  0  0
   -3.3560   22.2100  -32.8030 O   0  0  0  0  0  0  0  0  0  0  0  0
   -2.7100   23.1360  -30.7880 O   0  0  0  0  0  0  0  0  0  0  0  0
   -1.5700   22.3360  -30.4870 C   0  0  0  0  0  0  0  0  0  0  0  0
   -1.2340   22.4730  -29.1090 O   0  0  0  0  0  0  0  0  0  0  0  0
   -2.1980   22.6370  -28.1090 C   0  0  0  0  0  0  0  0  0  0  0  0
   -2.4710   21.6830  -27.3250 O   0  0  0  0  0  0  0  0  0  0  0  0
   -2.9030   23.8920  -28.0000 N   0  0  1  0  0  0  0  0  0  0  0  0
   -4.2340   23.6430  -27.4170 C   0  0  0  0  0  0  0  0  0  0  0  0
   -2.1060   24.8490  -27.1950 C   0  0  0  0  0  0  0  0  0  0  0  0
   -0.9460   25.4770  -27.9810 C   0  0  0  0  0  0  0  0  0  0  0  0
   -1.2430   25.5040  -29.3500 O   0  0  0  0  0  0  0  0  0  0  0  0
   -6.0830   22.1090  -31.6080 C   0  0  0  0  0  0  0  0  0  0  0  0
   -6.0180   20.8100  -32.1210 C   0  0  0  0  0  0  0  0  0  0  0  0
   -7.1529   17.9507  -31.8336 H   0  0  0  0  0  0  0  0  0  0  0  0
   -8.0643   18.4458  -33.3001 H   0  0  0  0  0  0  0  0  0  0  0  0
   -6.2686   18.4928  -33.3001 H   0  0  0  0  0  0  0  0  0  0  0  0
   -9.3473   20.0140  -31.7557 H   0  0  0  0  0  0  0  0  0  0  0  0
   -9.3954   22.3524  -30.8233 H   0  0  0  0  0  0  0  0  0  0  0  0
   -7.7197   24.5930  -30.2065 H   0  0  0  0  0  0  0  0  0  0  0  0
   -2.7980   25.3040  -30.8290 H   0  0  0  0  0  0  0  0  0  0  0  0
   -1.7960   21.2817  -30.7046 H   0  0  0  0  0  0  0  0  0  0  0  0
   -0.7208   22.6679  -31.1025 H   0  0  0  0  0  0  0  0  0  0  0  0
   -3.0330   24.2710  -28.9670 H   0  0  0  0  0  0  0  0  0  0  0  0
   -4.1619   23.6565  -26.3194 H   0  0  0  0  0  0  0  0  0  0  0  0
   -4.9318   24.4262  -27.7483 H   0  0  0  0  0  0  0  0  0  0  0  0
   -4.6014   22.6605  -27.7483 H   0  0  0  0  0  0  0  0  0  0  0  0
   -2.7708   25.6541  -26.8489 H   0  0  0  0  0  0  0  0  0  0  0  0
   -1.6682   24.2875  -26.3565 H   0  0  0  0  0  0  0  0  0  0  0  0
   -0.7814   26.5048  -27.6253 H   0  0  0  0  0  0  0  0  0  0  0  0
   -0.0399   24.8735  -27.8238 H   0  0  0  0  0  0  0  0  0  0  0  0
   -1.5640   24.5930  -29.5810 H   0  0  0  0  0  0  0  0  0  0  0  0
   -5.0621   20.3868  -32.4633 H   0  0  0  0  0  0  0  0  0  0  0  0
  1  2  1  0
  2  3  2  0
  3  4  1  0
  4  5  2  0
  5  6  1  0
  6  7  2  0
  7  8  1  0
  8  9  1  0
  8 10  2  0
  7 11  1  0
 11 12  1  0
 12 13  2  0
 12 14  1  0
 14 15  1  0
 15 16  1  0
 16 17  1  0
 17 18  2  0
 17 19  1  0
 19 20  1  0
 19 21  1  0
 21 22  1  0
 22 23  1  0
 11 24  1  0
 24 25  2  0
 25  2  1  0
 24  5  1  0
  1 26  1  0
  1 27  1  0
  1 28  1  0
  3 29  1  0
  4 30  1  0
  6 31  1  0
  9 32  1  0
 15 33  1  0
 15 34  1  0
 19 35  1  6
 20 36  1  0
 20 37  1  0
 20 38  1  0
 21 39  1  0
 21 40  1  0
 22 41  1  0
 22 42  1  0
 23 43  1  0
 25 44  1  0
M  CHG  2   9  -1  19   1
M  END
>  <UniqueID>  (45) 
45

>  <SMILES>  (45) 
Cc1ccc2cc(C([NH-])=O)n(C(=O)OCOC(=O)[N@@H+](C)CCO)c2c1

>  <Energy>  (45) 
77.65592633629673

>  <Genealogy>  (45) 
Cc1ccc2cc(C([NH-])=O)n(C(=O)OCOC(=O)[NH+](C)CCO)c2c1 (protonated)
Cc1ccc2cc(C([NH-])=O)n(C(=O)OCOC(=O)[N@@H+](C)CCO)c2c1 (chirality)
Cc1ccc2cc(C([NH-])=O)n(C(=O)OCOC(=O)[N@@H+](C)CCO)c2c1 (3D coordinates assigned)
Cc1ccc2cc(C([NH-])=O)n(C(=O)OCOC(=O)[N@@H+](C)CCO)c2c1 (optimized conformer: 77.65592633629673 kcal/mol)

>  <smiles>  (45) 
Cc1ccc2cc(C(N)=O)n(C(=O)OCOC(=O)N(C)CCO)c2c1

>  <score_type>  (45) 
oracle

>  <origin>  (45) 
adg

>  <m_score__min__energy>  (45) 
-9.1300000000000008

>  <m_primary>  (45) 
energy

$$$$
46:0
     RDKit          3D

 54 55  0  0  0  0  0  0  0  0999 V2000
   -5.7210   17.7860  -34.9400 C   0  0  0  0  0  0  0  0  0  0  0  0
   -6.4750   18.0060  -33.6980 N   0  0  0  0  0  0  0  0  0  0  0  0
   -7.1940   16.8760  -33.0970 C   0  0  0  0  0  0  0  0  0  0  0  0
   -6.5040   19.3170  -33.0750 C   0  0  0  0  0  0  0  0  0  0  0  0
   -7.7440   19.9630  -32.7960 C   0  0  0  0  0  0  0  0  0  0  0  0
   -7.7840   21.2250  -32.1840 C   0  0  0  0  0  0  0  0  0  0  0  0
   -6.5780   21.8360  -31.8650 C   0  0  0  0  0  0  0  0  0  0  0  0
   -6.3350   23.0420  -31.2510 C   0  0  0  0  0  0  0  0  0  0  0  0
   -4.9480   23.1450  -31.1770 C   0  0  0  0  0  0  0  0  0  0  0  0
   -4.2370   24.3360  -30.6630 C   0  0  0  0  0  0  0  0  0  0  0  0
   -3.0380   24.1970  -29.9000 N   0  0  0  0  0  0  0  0  0  0  0  0
   -4.7020   25.4890  -30.8690 O   0  0  0  0  0  0  0  0  0  0  0  0
   -4.3570   22.0450  -31.7220 N   0  0  0  0  0  0  0  0  0  0  0  0
   -2.9530   21.7420  -31.7630 C   0  0  0  0  0  0  0  0  0  0  0  0
   -2.2980   21.9170  -32.8270 O   0  0  0  0  0  0  0  0  0  0  0  0
   -2.3210   21.2440  -30.6200 O   0  0  0  0  0  0  0  0  0  0  0  0
   -2.9460   21.2120  -29.3420 C   0  0  0  0  0  0  0  0  0  0  0  0
   -1.8830   21.3040  -28.2560 C   0  0  0  0  0  0  0  0  0  0  0  0
   -1.5160   22.6660  -28.0590 O   0  0  0  0  0  0  0  0  0  0  0  0
   -0.5820   23.3210  -28.8650 C   0  0  0  0  0  0  0  0  0  0  0  0
   -0.5370   23.0910  -30.1040 O   0  0  0  0  0  0  0  0  0  0  0  0
    0.3210   24.2530  -28.2580 N   0  0  0  0  0  0  0  0  0  0  0  0
   -0.0240   25.3380  -27.3320 C   0  0  0  0  0  0  0  0  0  0  0  0
    1.2870   26.0090  -26.8860 C   0  0  0  0  0  0  0  0  0  0  0  0
   -0.7310   24.7640  -26.0890 C   0  0  0  0  0  0  0  0  0  0  0  0
   -0.9350   26.3810  -28.0260 C   0  0  0  0  0  0  0  0  0  0  0  0
   -1.2370   25.9920  -29.3410 O   0  0  0  0  0  0  0  0  0  0  0  0
   -5.3710   21.2500  -32.1390 C   0  0  0  0  0  0  0  0  0  0  0  0
   -5.2990   19.9830  -32.7280 C   0  0  0  0  0  0  0  0  0  0  0  0
   -4.6914   17.4856  -34.6956 H   0  0  0  0  0  0  0  0  0  0  0  0
   -6.2052   16.9917  -35.5271 H   0  0  0  0  0  0  0  0  0  0  0  0
   -5.7020   18.7161  -35.5271 H   0  0  0  0  0  0  0  0  0  0  0  0
   -7.1457   16.9520  -32.0007 H   0  0  0  0  0  0  0  0  0  0  0  0
   -8.2453   16.8968  -33.4200 H   0  0  0  0  0  0  0  0  0  0  0  0
   -6.7298   15.9325  -33.4200 H   0  0  0  0  0  0  0  0  0  0  0  0
   -8.6861   19.4631  -33.0653 H   0  0  0  0  0  0  0  0  0  0  0  0
   -8.7430   21.7165  -31.9631 H   0  0  0  0  0  0  0  0  0  0  0  0
   -7.0779   23.7705  -30.8942 H   0  0  0  0  0  0  0  0  0  0  0  0
   -2.5640   25.0410  -29.5110 H   0  0  0  0  0  0  0  0  0  0  0  0
   -2.5900   23.2640  -29.7610 H   0  0  0  0  0  0  0  0  0  0  0  0
   -3.6382   22.0620  -29.2508 H   0  0  0  0  0  0  0  0  0  0  0  0
   -3.5048   20.2711  -29.2300 H   0  0  0  0  0  0  0  0  0  0  0  0
   -2.2827   20.8934  -27.3171 H   0  0  0  0  0  0  0  0  0  0  0  0
   -0.9973   20.7283  -28.5629 H   0  0  0  0  0  0  0  0  0  0  0  0
    1.3318   26.0319  -25.7872 H   0  0  0  0  0  0  0  0  0  0  0  0
    2.1424   25.4379  -27.2760 H   0  0  0  0  0  0  0  0  0  0  0  0
    1.3240   27.0369  -27.2760 H   0  0  0  0  0  0  0  0  0  0  0  0
   -0.2497   25.1547  -25.1803 H   0  0  0  0  0  0  0  0  0  0  0  0
   -1.7901   25.0610  -26.0997 H   0  0  0  0  0  0  0  0  0  0  0  0
   -0.6579   23.6665  -26.0997 H   0  0  0  0  0  0  0  0  0  0  0  0
   -1.8707   26.4769  -27.4557 H   0  0  0  0  0  0  0  0  0  0  0  0
   -0.4027   27.3430  -28.0594 H   0  0  0  0  0  0  0  0  0  0  0  0
   -0.5910   25.2820  -29.5880 H   0  0  0  0  0  0  0  0  0  0  0  0
   -4.3243   19.5103  -32.9192 H   0  0  0  0  0  0  0  0  0  0  0  0
  1  2  1  0
  2  3  1  0
  2  4  1  0
  4  5  2  0
  5  6  1  0
  6  7  2  0
  7  8  1  0
  8  9  2  0
  9 10  1  0
 10 11  1  0
 10 12  2  0
  9 13  1  0
 13 14  1  0
 14 15  2  0
 14 16  1  0
 16 17  1  0
 17 18  1  0
 18 19  1  0
 19 20  1  0
 20 21  2  0
 20 22  1  0
 22 23  1  0
 23 24  1  0
 23 25  1  0
 23 26  1  0
 26 27  1  0
 13 28  1  0
 28 29  2  0
 29  4  1  0
 28  7  1  0
  1 30  1  0
  1 31  1  0
  1 32  1  0
  3 33  1  0
  3 34  1  0
  3 35  1  0
  5 36  1  0
  6 37  1  0
  8 38  1  0
 11 39  1  0
 11 40  1  0
 17 41  1  0
 17 42  1  0
 18 43  1  0
 18 44  1  0
 24 45  1  0
 24 46  1  0
 24 47  1  0
 25 48  1  0
 25 49  1  0
 25 50  1  0
 26 51  1  0
 26 52  1  0
 27 53  1  0
 29 54  1  0
M  CHG  1  22  -1
M  END
>  <UniqueID>  (46) 
46

>  <SMILES>  (46) 
CN(C)c1ccc2cc(C(N)=O)n(C(=O)OCCOC(=O)[N-]C(C)(C)CO)c2c1

>  <Energy>  (46) 
82.59878854919053

>  <Genealogy>  (46) 
CN(C)c1ccc2cc(C(N)=O)n(C(=O)OCCOC(=O)[N-]C(C)(C)CO)c2c1 (protonated)
CN(C)c1ccc2cc(C(N)=O)n(C(=O)OCCOC(=O)[N-]C(C)(C)CO)c2c1 (3D coordinates assigned)
CN(C)c1ccc2cc(C(N)=O)n(C(=O)OCCOC(=O)[N-]C(C)(C)CO)c2c1 (optimized conformer: 82.59878854919053 kcal/mol)

>  <smiles>  (46) 
CN(C)c1ccc2cc(C(N)=O)n(C(=O)OCCOC(=O)NC(C)(C)CO)c2c1

>  <score_type>  (46) 
oracle

>  <origin>  (46) 
adg

>  <m_score__min__energy>  (46) 
-10.16

>  <m_primary>  (46) 
energy

$$$$
47:0
     RDKit          3D

 45 46  0  0  0  0  0  0  0  0999 V2000
   -1.0290   21.2060  -32.1060 C   0  0  0  0  0  0  0  0  0  0  0  0
   -1.6730   22.0840  -31.0750 C   0  0  0  0  0  0  0  0  0  0  0  0
   -0.9540   22.9110  -30.4530 O   0  0  0  0  0  0  0  0  0  0  0  0
   -3.0860   21.9950  -30.7870 N   0  0  0  0  0  0  0  0  0  0  0  0
   -3.5220   21.4590  -29.4880 C   0  0  0  0  0  0  0  0  0  0  0  0
   -3.4970   22.5300  -28.4410 C   0  0  0  0  0  0  0  0  0  0  0  0
   -4.1600   22.3720  -27.3800 O   0  0  0  0  0  0  0  0  0  0  0  0
   -2.7170   23.7200  -28.6380 N   0  0  0  0  0  0  0  0  0  0  0  0
   -2.5250   24.7200  -27.5890 C   0  0  0  0  0  0  0  0  0  0  0  0
   -1.3390   25.6260  -27.9090 C   0  0  0  0  0  0  0  0  0  0  0  0
   -1.0990   25.6440  -29.2880 O   0  0  0  0  0  0  0  0  0  0  0  0
   -4.0680   22.3020  -31.7990 C   0  0  0  0  0  0  0  0  0  0  0  0
   -3.7540   22.2530  -33.0190 O   0  0  0  0  0  0  0  0  0  0  0  0
   -5.4080   22.6670  -31.4350 N   0  0  0  0  0  0  0  0  0  0  0  0
   -5.8500   23.8620  -30.9520 C   0  0  0  0  0  0  0  0  0  0  0  0
   -5.0290   25.0780  -30.7700 C   0  0  0  0  0  0  0  0  0  0  0  0
   -3.6070   24.9830  -30.7910 N   0  0  0  0  0  0  0  0  0  0  0  0
   -5.5690   26.1990  -30.5820 O   0  0  0  0  0  0  0  0  0  0  0  0
   -7.2150   23.8010  -30.6790 C   0  0  0  0  0  0  0  0  0  0  0  0
   -7.5960   22.5180  -31.0040 C   0  0  0  0  0  0  0  0  0  0  0  0
   -8.8370   21.8960  -30.9060 C   0  0  0  0  0  0  0  0  0  0  0  0
   -8.9300   20.5460  -31.2850 C   0  0  0  0  0  0  0  0  0  0  0  0
   -7.7920   19.8460  -31.7630 C   0  0  0  0  0  0  0  0  0  0  0  0
   -7.8960   18.3830  -32.1110 C   0  0  0  0  0  0  0  0  0  0  0  0
   -9.1950   17.9320  -31.9540 F   0  0  0  0  0  0  0  0  0  0  0  0
   -7.5130   18.2020  -33.4280 F   0  0  0  0  0  0  0  0  0  0  0  0
   -7.0730   17.6290  -31.2940 F   0  0  0  0  0  0  0  0  0  0  0  0
   -6.5430   20.5060  -31.8230 C   0  0  0  0  0  0  0  0  0  0  0  0
   -6.4860   21.8540  -31.4520 C   0  0  0  0  0  0  0  0  0  0  0  0
   -0.4498   20.4163  -31.6050 H   0  0  0  0  0  0  0  0  0  0  0  0
   -1.8066   20.7476  -32.7346 H   0  0  0  0  0  0  0  0  0  0  0  0
   -0.3582   21.8100  -32.7346 H   0  0  0  0  0  0  0  0  0  0  0  0
   -4.5465   21.0699  -29.5829 H   0  0  0  0  0  0  0  0  0  0  0  0
   -2.8355   20.6535  -29.1881 H   0  0  0  0  0  0  0  0  0  0  0  0
   -2.2010   23.8460  -29.5380 H   0  0  0  0  0  0  0  0  0  0  0  0
   -3.4343   25.3334  -27.5057 H   0  0  0  0  0  0  0  0  0  0  0  0
   -2.3235   24.1998  -26.6409 H   0  0  0  0  0  0  0  0  0  0  0  0
   -1.5598   26.6475  -27.5658 H   0  0  0  0  0  0  0  0  0  0  0  0
   -0.4458   25.2406  -27.3956 H   0  0  0  0  0  0  0  0  0  0  0  0
   -1.9900   25.7050  -29.7210 H   0  0  0  0  0  0  0  0  0  0  0  0
   -3.0370   25.2910  -29.9710 H   0  0  0  0  0  0  0  0  0  0  0  0
   -7.8531   24.6067  -30.2870 H   0  0  0  0  0  0  0  0  0  0  0  0
   -9.7186   22.4445  -30.5428 H   0  0  0  0  0  0  0  0  0  0  0  0
   -9.8963   20.0258  -31.2102 H   0  0  0  0  0  0  0  0  0  0  0  0
   -5.6390   19.9732  -32.1530 H   0  0  0  0  0  0  0  0  0  0  0  0
  1  2  1  0
  2  3  2  0
  2  4  1  0
  4  5  1  0
  5  6  1  0
  6  7  2  0
  6  8  1  0
  8  9  1  0
  9 10  1  0
 10 11  1  0
  4 12  1  0
 12 13  2  0
 12 14  1  0
 14 15  1  0
 15 16  1  0
 16 17  1  0
 16 18  2  0
 15 19  2  0
 19 20  1  0
 20 21  2  0
 21 22  1  0
 22 23  2  0
 23 24  1  0
 24 25  1  0
 24 26  1  0
 24 27  1  0
 23 28  1  0
 28 29  2  0
 29 14  1  0
 29 20  1  0
  1 30  1  0
  1 31  1  0
  1 32  1  0
  5 33  1  0
  5 34  1  0
  8 35  1  0
  9 36  1  0
  9 37  1  0
 10 38  1  0
 10 39  1  0
 11 40  1  0
 17 41  1  0
 19 42  1  0
 21 43  1  0
 22 44  1  0
 28 45  1  0
M  CHG  1  17  -1
M  END
>  <UniqueID>  (47) 
47

>  <SMILES>  (47) 
CC(=O)N(CC(=O)NCCO)C(=O)n1c(C([NH-])=O)cc2ccc(C(F)(F)F)cc21

>  <Energy>  (47) 
78.5987784797365

>  <Genealogy>  (47) 
CC(=O)N(CC(=O)NCCO)C(=O)n1c(C([NH-])=O)cc2ccc(C(F)(F)F)cc21 (protonated)
CC(=O)N(CC(=O)NCCO)C(=O)n1c(C([NH-])=O)cc2ccc(C(F)(F)F)cc21 (3D coordinates assigned)
CC(=O)N(CC(=O)NCCO)C(=O)n1c(C([NH-])=O)cc2ccc(C(F)(F)F)cc21 (optimized conformer: 78.5987784797365 kcal/mol)

>  <smiles>  (47) 
CC(=O)N(CC(=O)NCCO)C(=O)n1c(C(N)=O)cc2ccc(C(F)(F)F)cc21

>  <score_type>  (47) 
oracle

>  <origin>  (47) 
adg

>  <m_score__min__energy>  (47) 
-10.35

>  <m_primary>  (47) 
energy

$$$$
48:0
     RDKit          3D

 45 47  0  0  0  0  0  0  0  0999 V2000
   -6.1190   17.3090  -31.4140 C   0  0  0  0  0  0  0  0  0  0  0  0
   -6.2560   18.7380  -31.7790 N   0  0  1  0  0  0  0  0  0  0  0  0
   -6.0650   18.9140  -33.2130 C   0  0  0  0  0  0  0  0  0  0  0  0
   -6.4900   18.0790  -34.0010 O   0  0  0  0  0  0  0  0  0  0  0  0
   -5.3800   20.1410  -33.7620 C   0  0  0  0  0  0  0  0  0  0  0  0
   -4.2660   20.5740  -32.8450 C   0  0  0  0  0  0  0  0  0  0  0  0
   -3.1120   19.7640  -32.7060 C   0  0  0  0  0  0  0  0  0  0  0  0
   -2.0280   20.1910  -31.9230 C   0  0  0  0  0  0  0  0  0  0  0  0
   -2.1310   21.4210  -31.2830 C   0  0  0  0  0  0  0  0  0  0  0  0
   -1.2330   22.0710  -30.4710 C   0  0  0  0  0  0  0  0  0  0  0  0
   -1.8570   23.2610  -30.1060 C   0  0  0  0  0  0  0  0  0  0  0  0
   -1.1880   24.3160  -29.3130 C   0  0  0  0  0  0  0  0  0  0  0  0
   -1.8950   25.5070  -28.9770 N   0  0  0  0  0  0  0  0  0  0  0  0
   -0.0100   24.1600  -28.8960 O   0  0  0  0  0  0  0  0  0  0  0  0
   -3.0990   23.3420  -30.6660 N   0  0  0  0  0  0  0  0  0  0  0  0
   -4.0950   24.3590  -30.4620 C   0  0  0  0  0  0  0  0  0  0  0  0
   -5.1870   24.0800  -29.8970 O   0  0  0  0  0  0  0  0  0  0  0  0
   -3.8680   25.6630  -30.8870 O   0  0  0  0  0  0  0  0  0  0  0  0
   -3.2460   22.2110  -31.3930 C   0  0  0  0  0  0  0  0  0  0  0  0
   -4.3420   21.8100  -32.1660 C   0  0  0  0  0  0  0  0  0  0  0  0
   -7.5250   19.3860  -31.3330 C   0  0  0  0  0  0  0  0  0  0  0  0
   -8.7960   18.7790  -31.9620 C   0  0  0  0  0  0  0  0  0  0  0  0
   -9.4810   19.9130  -32.7100 C   0  0  0  0  0  0  0  0  0  0  0  0
   -9.0340   21.1800  -32.0060 C   0  0  0  0  0  0  0  0  0  0  0  0
   -7.6030   20.9090  -31.5750 C   0  0  0  0  0  0  0  0  0  0  0  0
   -6.1095   17.2097  -30.3185 H   0  0  0  0  0  0  0  0  0  0  0  0
   -6.9669   16.7424  -31.8262 H   0  0  0  0  0  0  0  0  0  0  0  0
   -5.1788   16.9138  -31.8262 H   0  0  0  0  0  0  0  0  0  0  0  0
   -5.4730   19.2430  -31.2960 H   0  0  0  0  0  0  0  0  0  0  0  0
   -4.9643   19.9109  -34.7541 H   0  0  0  0  0  0  0  0  0  0  0  0
   -6.1151   20.9555  -33.8404 H   0  0  0  0  0  0  0  0  0  0  0  0
   -3.0650   18.7909  -33.2167 H   0  0  0  0  0  0  0  0  0  0  0  0
   -1.1249   19.5716  -31.8190 H   0  0  0  0  0  0  0  0  0  0  0  0
   -0.2326   21.7244  -30.1724 H   0  0  0  0  0  0  0  0  0  0  0  0
   -2.8690   25.6690  -29.3160 H   0  0  0  0  0  0  0  0  0  0  0  0
   -5.2395   22.4414  -32.2426 H   0  0  0  0  0  0  0  0  0  0  0  0
   -7.4943   19.1870  -30.2516 H   0  0  0  0  0  0  0  0  0  0  0  0
   -8.5284   17.9699  -32.6576 H   0  0  0  0  0  0  0  0  0  0  0  0
   -9.4563   18.3473  -31.1954 H   0  0  0  0  0  0  0  0  0  0  0  0
   -9.1662   19.9256  -33.7639 H   0  0  0  0  0  0  0  0  0  0  0  0
  -10.5757   19.8053  -32.7075 H   0  0  0  0  0  0  0  0  0  0  0  0
   -9.0745   22.0383  -32.6928 H   0  0  0  0  0  0  0  0  0  0  0  0
   -9.6818   21.4277  -31.1522 H   0  0  0  0  0  0  0  0  0  0  0  0
   -6.9001   21.2088  -32.3663 H   0  0  0  0  0  0  0  0  0  0  0  0
   -7.3339   21.4792  -30.6736 H   0  0  0  0  0  0  0  0  0  0  0  0
  1  2  1  0
  2  3  1  0
  3  4  2  0
  3  5  1  0
  5  6  1  0
  6  7  2  0
  7  8  1  0
  8  9  2  0
  9 10  1  0
 10 11  2  0
 11 12  1  0
 12 13  1  0
 12 14  2  0
 11 15  1  0
 15 16  1  0
 16 17  2  0
 16 18  1  0
 15 19  1  0
 19 20  2  0
  2 21  1  0
 21 22  1  0
 22 23  1  0
 23 24  1  0
 24 25  1  0
 20  6  1  0
 25 21  1  0
 19  9  1  0
  1 26  1  0
  1 27  1  0
  1 28  1  0
  2 29  1  1
  5 30  1  0
  5 31  1  0
  7 32  1  0
  8 33  1  0
 10 34  1  0
 13 35  1  0
 20 36  1  0
 21 37  1  0
 22 38  1  0
 22 39  1  0
 23 40  1  0
 23 41  1  0
 24 42  1  0
 24 43  1  0
 25 44  1  0
 25 45  1  0
M  CHG  3   2   1  13  -1  18  -1
M  END
>  <UniqueID>  (48) 
48

>  <SMILES>  (48) 
C[N@@H+](C(=O)Cc1ccc2cc(C([NH-])=O)n(C(=O)[O-])c2c1)C1CCCC1

>  <Energy>  (48) 
92.30097376696199

>  <Genealogy>  (48) 
C[NH+](C(=O)Cc1ccc2cc(C([NH-])=O)n(C(=O)[O-])c2c1)C1CCCC1 (protonated)
C[N@@H+](C(=O)Cc1ccc2cc(C([NH-])=O)n(C(=O)[O-])c2c1)C1CCCC1 (chirality)
C[N@@H+](C(=O)Cc1ccc2cc(C([NH-])=O)n(C(=O)[O-])c2c1)C1CCCC1 (3D coordinates assigned)
C[N@@H+](C(=O)Cc1ccc2cc(C([NH-])=O)n(C(=O)[O-])c2c1)C1CCCC1 (nonaromatic ring conformer: 92.30097376696199 kcal/mol)

>  <smiles>  (48) 
CN(C(=O)Cc1ccc2cc(C(N)=O)n(C(=O)O)c2c1)C1CCCC1

>  <score_type>  (48) 
oracle

>  <origin>  (48) 
adg

>  <m_score__min__energy>  (48) 
-12.449999999999999

>  <m_primary>  (48) 
energy

$$$$
49:0
     RDKit          3D

 33 34  0  0  0  0  0  0  0  0999 V2000
   -3.9360   22.5160  -28.5050 C   0  0  0  0  0  0  0  0  0  0  0  0
   -3.3970   22.9760  -29.6420 C   0  0  0  0  0  0  0  0  0  0  0  0
   -2.2070   23.8620  -29.5950 C   0  0  0  0  0  0  0  0  0  0  0  0
   -1.0470   23.3890  -29.7330 O   0  0  0  0  0  0  0  0  0  0  0  0
   -2.3540   25.2270  -29.3790 O   0  0  0  0  0  0  0  0  0  0  0  0
   -4.0050   22.6040  -30.9460 C   0  0  0  0  0  0  0  0  0  0  0  0
   -3.2710   22.2060  -31.8900 O   0  0  0  0  0  0  0  0  0  0  0  0
   -5.4210   22.7130  -31.1610 N   0  0  0  0  0  0  0  0  0  0  0  0
   -6.2340   23.7580  -30.8400 C   0  0  0  0  0  0  0  0  0  0  0  0
   -5.7900   25.0610  -30.3020 C   0  0  0  0  0  0  0  0  0  0  0  0
   -4.6140   25.6800  -30.8170 N   0  0  0  0  0  0  0  0  0  0  0  0
   -6.4290   25.6260  -29.3740 O   0  0  0  0  0  0  0  0  0  0  0  0
   -7.5610   23.4560  -31.1420 C   0  0  0  0  0  0  0  0  0  0  0  0
   -7.5350   22.1800  -31.6590 C   0  0  0  0  0  0  0  0  0  0  0  0
   -8.5770   21.3750  -32.1150 C   0  0  0  0  0  0  0  0  0  0  0  0
   -8.2590   20.0850  -32.5740 C   0  0  0  0  0  0  0  0  0  0  0  0
   -6.9200   19.6300  -32.5600 C   0  0  0  0  0  0  0  0  0  0  0  0
   -6.6080   18.3040  -33.0250 C   0  0  0  0  0  0  0  0  0  0  0  0
   -6.3470   17.1940  -33.4140 C   0  0  0  0  0  0  0  0  0  0  0  0
   -6.0290   15.8420  -33.8860 C   0  0  0  0  0  0  0  0  0  0  0  0
   -7.2010   15.1830  -34.2740 O   0  0  0  0  0  0  0  0  0  0  0  0
   -5.8890   20.4680  -32.0910 C   0  0  0  0  0  0  0  0  0  0  0  0
   -6.2330   21.7540  -31.6560 C   0  0  0  0  0  0  0  0  0  0  0  0
   -4.8179   21.8595  -28.5406 H   0  0  0  0  0  0  0  0  0  0  0  0
   -3.4967   22.7949  -27.5359 H   0  0  0  0  0  0  0  0  0  0  0  0
   -3.8780   26.0510  -30.1770 H   0  0  0  0  0  0  0  0  0  0  0  0
   -8.4412   24.0998  -30.9980 H   0  0  0  0  0  0  0  0  0  0  0  0
   -9.6155   21.7375  -32.1158 H   0  0  0  0  0  0  0  0  0  0  0  0
   -9.0566   19.4253  -32.9464 H   0  0  0  0  0  0  0  0  0  0  0  0
   -5.3461   15.9075  -34.7459 H   0  0  0  0  0  0  0  0  0  0  0  0
   -5.5502   15.2783  -33.0717 H   0  0  0  0  0  0  0  0  0  0  0  0
   -7.3890   15.4590  -35.2100 H   0  0  0  0  0  0  0  0  0  0  0  0
   -4.8450   20.1224  -32.0672 H   0  0  0  0  0  0  0  0  0  0  0  0
  1  2  2  0
  2  3  1  0
  3  4  2  0
  3  5  1  0
  2  6  1  0
  6  7  2  0
  6  8  1  0
  8  9  1  0
  9 10  1  0
 10 11  1  0
 10 12  2  0
  9 13  2  0
 13 14  1  0
 14 15  2  0
 15 16  1  0
 16 17  2  0
 17 18  1  0
 18 19  3  0
 19 20  1  0
 20 21  1  0
 17 22  1  0
 22 23  2  0
 23  8  1  0
 23 14  1  0
  1 24  1  0
  1 25  1  0
 11 26  1  0
 13 27  1  0
 15 28  1  0
 16 29  1  0
 20 30  1  0
 20 31  1  0
 21 32  1  0
 22 33  1  0
M  CHG  2   5  -1  11  -1
M  END
>  <UniqueID>  (49) 
49

>  <SMILES>  (49) 
C=C(C(=O)[O-])C(=O)n1c(C([NH-])=O)cc2ccc(C#CCO)cc21

>  <Energy>  (49) 
69.46992153350953

>  <Genealogy>  (49) 
C=C(C(=O)[O-])C(=O)n1c(C([NH-])=O)cc2ccc(C#CCO)cc21 (protonated)
C=C(C(=O)[O-])C(=O)n1c(C([NH-])=O)cc2ccc(C#CCO)cc21 (3D coordinates assigned)
C=C(C(=O)[O-])C(=O)n1c(C([NH-])=O)cc2ccc(C#CCO)cc21 (optimized conformer: 69.46992153350953 kcal/mol)

>  <smiles>  (49) 
C=C(C(=O)O)C(=O)n1c(C(N)=O)cc2ccc(C#CCO)cc21

>  <score_type>  (49) 
oracle

>  <origin>  (49) 
adg

>  <m_score__min__energy>  (49) 
-11.98

>  <m_primary>  (49) 
energy

$$$$
50:0
     RDKit          3D

 35 36  0  0  0  0  0  0  0  0999 V2000
   -3.5020   24.1690  -27.9630 C   0  0  0  0  0  0  0  0  0  0  0  0
   -2.0620   23.6930  -28.1990 C   0  0  1  0  0  0  0  0  0  0  0  0
   -2.0320   22.5030  -29.0540 N   0  0  0  0  0  0  0  0  0  0  0  0
   -3.0980   21.8870  -29.7970 C   0  0  0  0  0  0  0  0  0  0  0  0
   -3.6130   20.8360  -29.3320 O   0  0  0  0  0  0  0  0  0  0  0  0
   -3.6270   22.4220  -31.0680 C   0  0  0  0  0  0  0  0  0  0  0  0
   -2.8540   22.7060  -32.0190 O   0  0  0  0  0  0  0  0  0  0  0  0
   -5.0430   22.5870  -31.2430 N   0  0  0  0  0  0  0  0  0  0  0  0
   -5.7870   23.7090  -31.0280 C   0  0  0  0  0  0  0  0  0  0  0  0
   -5.2570   25.0500  -30.7000 C   0  0  0  0  0  0  0  0  0  0  0  0
   -3.8540   25.2990  -30.6690 N   0  0  0  0  0  0  0  0  0  0  0  0
   -6.0560   25.9980  -30.4780 O   0  0  0  0  0  0  0  0  0  0  0  0
   -7.1410   23.4390  -31.2170 C   0  0  0  0  0  0  0  0  0  0  0  0
   -7.2030   22.1060  -31.5550 C   0  0  0  0  0  0  0  0  0  0  0  0
   -8.3040   21.3050  -31.8460 C   0  0  0  0  0  0  0  0  0  0  0  0
   -8.0730   19.9490  -32.1370 C   0  0  0  0  0  0  0  0  0  0  0  0
   -6.7590   19.4130  -32.1060 C   0  0  0  0  0  0  0  0  0  0  0  0
   -6.5200   17.9660  -32.4550 C   0  0  0  0  0  0  0  0  0  0  0  0
   -6.2980   17.2190  -31.3120 F   0  0  0  0  0  0  0  0  0  0  0  0
   -7.6310   17.4680  -33.1100 F   0  0  0  0  0  0  0  0  0  0  0  0
   -5.4150   17.8370  -33.2780 F   0  0  0  0  0  0  0  0  0  0  0  0
   -5.6660   20.2660  -31.8280 C   0  0  0  0  0  0  0  0  0  0  0  0
   -5.9240   21.6140  -31.5600 C   0  0  0  0  0  0  0  0  0  0  0  0
   -1.1540   24.7720  -28.7270 C   0  0  0  0  0  0  0  0  0  0  0  0
   -1.6050   25.9200  -28.9860 O   0  0  0  0  0  0  0  0  0  0  0  0
    0.2100   24.5330  -28.8510 O   0  0  0  0  0  0  0  0  0  0  0  0
   -3.6946   24.2327  -26.8819 H   0  0  0  0  0  0  0  0  0  0  0  0
   -3.6398   25.1605  -28.4190 H   0  0  0  0  0  0  0  0  0  0  0  0
   -4.2036   23.4550  -28.4190 H   0  0  0  0  0  0  0  0  0  0  0  0
   -1.6633   23.4210  -27.2105 H   0  0  0  0  0  0  0  0  0  0  0  0
   -3.1910   24.7040  -31.2140 H   0  0  0  0  0  0  0  0  0  0  0  0
   -7.9815   24.1416  -31.1173 H   0  0  0  0  0  0  0  0  0  0  0  0
   -9.3227   21.7201  -31.8482 H   0  0  0  0  0  0  0  0  0  0  0  0
   -8.9206   19.2957  -32.3917 H   0  0  0  0  0  0  0  0  0  0  0  0
   -4.6366   19.8782  -31.8227 H   0  0  0  0  0  0  0  0  0  0  0  0
  1  2  1  0
  2  3  1  0
  3  4  1  0
  4  5  2  0
  4  6  1  0
  6  7  2  0
  6  8  1  0
  8  9  1  0
  9 10  1  0
 10 11  1  0
 10 12  2  0
  9 13  2  0
 13 14  1  0
 14 15  2  0
 15 16  1  0
 16 17  2  0
 17 18  1  0
 18 19  1  0
 18 20  1  0
 18 21  1  0
 17 22  1  0
 22 23  2  0
  2 24  1  0
 24 25  2  0
 24 26  1  0
 23  8  1  0
 23 14  1  0
  1 27  1  0
  1 28  1  0
  1 29  1  0
  2 30  1  1
 11 31  1  0
 13 32  1  0
 15 33  1  0
 16 34  1  0
 22 35  1  0
M  CHG  3   3  -1  11  -1  26  -1
M  END
>  <UniqueID>  (50) 
50

>  <SMILES>  (50) 
C[C@@H]([N-]C(=O)C(=O)n1c(C([NH-])=O)cc2ccc(C(F)(F)F)cc21)C(=O)[O-]

>  <Energy>  (50) 
77.5233252408338

>  <Genealogy>  (50) 
CC([N-]C(=O)C(=O)n1c(C([NH-])=O)cc2ccc(C(F)(F)F)cc21)C(=O)[O-] (protonated)
C[C@@H]([N-]C(=O)C(=O)n1c(C([NH-])=O)cc2ccc(C(F)(F)F)cc21)C(=O)[O-] (chirality)
C[C@@H]([N-]C(=O)C(=O)n1c(C([NH-])=O)cc2ccc(C(F)(F)F)cc21)C(=O)[O-] (3D coordinates assigned)
C[C@@H]([N-]C(=O)C(=O)n1c(C([NH-])=O)cc2ccc(C(F)(F)F)cc21)C(=O)[O-] (optimized conformer: 77.5233252408338 kcal/mol)

>  <smiles>  (50) 
CC(NC(=O)C(=O)n1c(C(N)=O)cc2ccc(C(F)(F)F)cc21)C(=O)O

>  <score_type>  (50) 
oracle

>  <origin>  (50) 
adg

>  <m_score__min__energy>  (50) 
-13.109999999999999

>  <m_primary>  (50) 
energy

$$$$
51:0
     RDKit          3D

 42 43  0  0  0  0  0  0  0  0999 V2000
   -6.8940   23.8660  -30.5410 C   0  0  0  0  0  0  0  0  0  0  0  0
   -7.3790   22.4210  -30.4920 C   0  0  0  0  0  0  0  0  0  0  0  0
   -8.0200   22.0640  -31.7150 O   0  0  0  0  0  0  0  0  0  0  0  0
   -9.0290   21.0990  -31.8020 C   0  0  0  0  0  0  0  0  0  0  0  0
  -10.2320   21.4340  -31.9810 O   0  0  0  0  0  0  0  0  0  0  0  0
   -8.6640   19.6490  -31.7360 C   0  0  0  0  0  0  0  0  0  0  0  0
   -8.1150   19.1960  -33.0140 N   0  0  0  0  0  0  0  0  0  0  0  0
   -6.7050   19.1930  -33.3110 C   0  0  0  0  0  0  0  0  0  0  0  0
   -6.1130   18.1730  -34.1060 C   0  0  0  0  0  0  0  0  0  0  0  0
   -4.7340   18.1810  -34.3770 C   0  0  0  0  0  0  0  0  0  0  0  0
   -3.9720   19.2190  -33.8480 C   0  0  0  0  0  0  0  0  0  0  0  0
   -2.6200   19.4620  -33.9380 C   0  0  0  0  0  0  0  0  0  0  0  0
   -2.4060   20.6300  -33.2070 C   0  0  0  0  0  0  0  0  0  0  0  0
   -1.0940   21.2990  -33.0900 C   0  0  0  0  0  0  0  0  0  0  0  0
   -0.4480   21.8070  -34.2540 N   0  0  0  0  0  0  0  0  0  0  0  0
   -0.5460   21.4480  -31.9650 O   0  0  0  0  0  0  0  0  0  0  0  0
   -3.5800   21.0830  -32.6840 N   0  0  0  0  0  0  0  0  0  0  0  0
   -3.7880   22.2130  -31.8240 C   0  0  0  0  0  0  0  0  0  0  0  0
   -4.5290   23.1590  -32.2040 O   0  0  0  0  0  0  0  0  0  0  0  0
   -3.2190   22.2320  -30.4410 C   0  0  0  0  0  0  0  0  0  0  0  0
   -2.2100   23.2110  -30.3830 O   0  0  0  0  0  0  0  0  0  0  0  0
   -2.8710   24.6240  -29.6930 P   0  0  0  0  0  0  0  0  0  0  0  0
   -3.6450   24.2810  -28.4400 O   0  0  0  0  0  0  0  0  0  0  0  0
   -1.6110   25.6780  -29.2900 O   0  0  0  0  0  0  0  0  0  0  0  0
   -3.8950   25.3910  -30.7990 O   0  0  0  0  0  0  0  0  0  0  0  0
   -4.5280   20.2130  -33.0910 C   0  0  0  0  0  0  0  0  0  0  0  0
   -5.8940   20.2280  -32.7970 C   0  0  0  0  0  0  0  0  0  0  0  0
   -6.7668   24.2450  -29.5162 H   0  0  0  0  0  0  0  0  0  0  0  0
   -5.9312   23.9118  -31.0711 H   0  0  0  0  0  0  0  0  0  0  0  0
   -7.6342   24.4834  -31.0711 H   0  0  0  0  0  0  0  0  0  0  0  0
   -6.5181   21.7563  -30.3278 H   0  0  0  0  0  0  0  0  0  0  0  0
   -8.1023   22.3178  -29.6697 H   0  0  0  0  0  0  0  0  0  0  0  0
   -7.9118   19.5014  -30.9471 H   0  0  0  0  0  0  0  0  0  0  0  0
   -9.5697   19.0658  -31.5132 H   0  0  0  0  0  0  0  0  0  0  0  0
   -8.7740   18.8800  -33.7630 H   0  0  0  0  0  0  0  0  0  0  0  0
   -6.7422   17.3681  -34.5137 H   0  0  0  0  0  0  0  0  0  0  0  0
   -4.2713   17.3919  -34.9879 H   0  0  0  0  0  0  0  0  0  0  0  0
   -1.8685   18.8625  -34.4727 H   0  0  0  0  0  0  0  0  0  0  0  0
   -0.9810   22.3420  -34.9750 H   0  0  0  0  0  0  0  0  0  0  0  0
   -4.0117   22.4738  -29.7177 H   0  0  0  0  0  0  0  0  0  0  0  0
   -2.7995   21.2456  -30.1942 H   0  0  0  0  0  0  0  0  0  0  0  0
   -6.3276   21.0281  -32.1791 H   0  0  0  0  0  0  0  0  0  0  0  0
  1  2  1  0
  2  3  1  0
  3  4  1  0
  4  5  2  0
  4  6  1  0
  6  7  1  0
  7  8  1  0
  8  9  2  0
  9 10  1  0
 10 11  2  0
 11 12  1  0
 12 13  2  0
 13 14  1  0
 14 15  1  0
 14 16  2  0
 13 17  1  0
 17 18  1  0
 18 19  2  0
 18 20  1  0
 20 21  1  0
 21 22  1  0
 22 23  2  0
 22 24  1  0
 22 25  1  0
 17 26  1  0
 26 27  2  0
 27  8  1  0
 26 11  1  0
  1 28  1  0
  1 29  1  0
  1 30  1  0
  2 31  1  0
  2 32  1  0
  6 33  1  0
  6 34  1  0
  7 35  1  0
  9 36  1  0
 10 37  1  0
 12 38  1  0
 15 39  1  0
 20 40  1  0
 20 41  1  0
 27 42  1  0
M  CHG  3  15  -1  24  -1  25  -1
M  END
>  <UniqueID>  (51) 
51

>  <SMILES>  (51) 
CCOC(=O)CNc1ccc2cc(C([NH-])=O)n(C(=O)COP(=O)([O-])[O-])c2c1

>  <Energy>  (51) 
74.27573081474156

>  <Genealogy>  (51) 
CCOC(=O)CNc1ccc2cc(C([NH-])=O)n(C(=O)COP(=O)([O-])[O-])c2c1 (protonated)
CCOC(=O)CNc1ccc2cc(C([NH-])=O)n(C(=O)COP(=O)([O-])[O-])c2c1 (3D coordinates assigned)
CCOC(=O)CNc1ccc2cc(C([NH-])=O)n(C(=O)COP(=O)([O-])[O-])c2c1 (optimized conformer: 74.27573081474156 kcal/mol)

>  <smiles>  (51) 
CCOC(=O)CNc1ccc2cc(C(N)=O)n(C(=O)COP(=O)(O)O)c2c1

>  <score_type>  (51) 
oracle

>  <origin>  (51) 
adg

>  <m_score__min__energy>  (51) 
-13.460000000000001

>  <m_primary>  (51) 
energy

$$$$
52:0
     RDKit          3D

 51 52  0  0  0  0  0  0  0  0999 V2000
   -3.8590   21.9440  -28.3650 C   0  0  0  0  0  0  0  0  0  0  0  0
   -3.3080   21.6100  -29.7540 C   0  0  2  0  0  0  0  0  0  0  0  0
   -1.8530   21.5830  -29.6780 N   0  0  0  0  0  0  0  0  0  0  0  0
   -1.0730   22.3510  -28.7490 C   0  0  0  0  0  0  0  0  0  0  0  0
   -1.0140   22.0190  -27.5330 O   0  0  0  0  0  0  0  0  0  0  0  0
   -0.3300   23.5630  -29.2340 C   0  0  2  0  0  0  0  0  0  0  0  0
    0.8320   23.8890  -28.2910 C   0  0  0  0  0  0  0  0  0  0  0  0
    0.7130   25.1970  -27.7950 O   0  0  0  0  0  0  0  0  0  0  0  0
   -1.2400   24.7050  -29.2790 N   0  0  0  0  0  0  0  0  0  0  0  0
   -2.1750   25.0120  -28.2470 C   0  0  0  0  0  0  0  0  0  0  0  0
   -3.3660   24.5930  -28.3180 O   0  0  0  0  0  0  0  0  0  0  0  0
   -1.7540   25.7790  -27.1580 O   0  0  0  0  0  0  0  0  0  0  0  0
   -2.2060   25.5410  -25.8300 C   0  0  0  0  0  0  0  0  0  0  0  0
   -1.0820   24.9180  -25.0110 C   0  0  0  0  0  0  0  0  0  0  0  0
   -0.4520   23.9230  -25.7670 O   0  0  0  0  0  0  0  0  0  0  0  0
   -3.7540   22.6210  -30.7820 C   0  0  0  0  0  0  0  0  0  0  0  0
   -2.9050   23.1430  -31.5530 O   0  0  0  0  0  0  0  0  0  0  0  0
   -5.1550   22.8910  -30.9800 N   0  0  0  0  0  0  0  0  0  0  0  0
   -5.8270   24.0490  -30.7300 C   0  0  0  0  0  0  0  0  0  0  0  0
   -5.2160   25.3570  -30.4370 C   0  0  0  0  0  0  0  0  0  0  0  0
   -3.8860   25.6380  -30.8420 N   0  0  0  0  0  0  0  0  0  0  0  0
   -5.8960   26.2610  -29.8840 O   0  0  0  0  0  0  0  0  0  0  0  0
   -7.1970   23.8680  -30.9010 C   0  0  0  0  0  0  0  0  0  0  0  0
   -7.3450   22.5560  -31.2860 C   0  0  0  0  0  0  0  0  0  0  0  0
   -8.4940   21.8420  -31.6020 C   0  0  0  0  0  0  0  0  0  0  0  0
   -8.3540   20.4890  -31.9440 C   0  0  0  0  0  0  0  0  0  0  0  0
   -7.0770   19.8750  -31.9750 C   0  0  0  0  0  0  0  0  0  0  0  0
   -6.9800   18.4110  -32.3230 C   0  0  0  0  0  0  0  0  0  0  0  0
   -6.1300   17.7750  -31.4320 F   0  0  0  0  0  0  0  0  0  0  0  0
   -6.4710   18.2820  -33.6050 F   0  0  0  0  0  0  0  0  0  0  0  0
   -8.2130   17.7890  -32.2720 F   0  0  0  0  0  0  0  0  0  0  0  0
   -5.9270   20.6370  -31.6530 C   0  0  0  0  0  0  0  0  0  0  0  0
   -6.0990   21.9870  -31.3240 C   0  0  0  0  0  0  0  0  0  0  0  0
   -3.1864   21.5363  -27.5960 H   0  0  0  0  0  0  0  0  0  0  0  0
   -3.9276   23.0359  -28.2506 H   0  0  0  0  0  0  0  0  0  0  0  0
   -4.8588   21.4998  -28.2506 H   0  0  0  0  0  0  0  0  0  0  0  0
   -3.6950   20.6293  -30.0678 H   0  0  0  0  0  0  0  0  0  0  0  0
    0.0671   23.3553  -30.2386 H   0  0  0  0  0  0  0  0  0  0  0  0
    0.8242   23.1809  -27.4492 H   0  0  0  0  0  0  0  0  0  0  0  0
    1.7762   23.8056  -28.8492 H   0  0  0  0  0  0  0  0  0  0  0  0
   -0.2140   25.2880  -27.4520 H   0  0  0  0  0  0  0  0  0  0  0  0
   -2.5093   26.4932  -25.3704 H   0  0  0  0  0  0  0  0  0  0  0  0
   -3.0645   24.8537  -25.8541 H   0  0  0  0  0  0  0  0  0  0  0  0
   -0.3498   25.6939  -24.7428 H   0  0  0  0  0  0  0  0  0  0  0  0
   -1.4978   24.4747  -24.0942 H   0  0  0  0  0  0  0  0  0  0  0  0
   -0.7950   24.0210  -26.6940 H   0  0  0  0  0  0  0  0  0  0  0  0
   -3.0780   25.0970  -30.4570 H   0  0  0  0  0  0  0  0  0  0  0  0
   -7.9916   24.6152  -30.7585 H   0  0  0  0  0  0  0  0  0  0  0  0
   -9.4831   22.3229  -31.5845 H   0  0  0  0  0  0  0  0  0  0  0  0
   -9.2472   19.8966  -32.1914 H   0  0  0  0  0  0  0  0  0  0  0  0
   -4.9262   20.1805  -31.6612 H   0  0  0  0  0  0  0  0  0  0  0  0
  1  2  1  0
  2  3  1  0
  3  4  1  0
  4  5  2  0
  4  6  1  0
  6  7  1  0
  7  8  1  0
  6  9  1  0
  9 10  1  0
 10 11  2  0
 10 12  1  0
 12 13  1  0
 13 14  1  0
 14 15  1  0
  2 16  1  0
 16 17  2  0
 16 18  1  0
 18 19  1  0
 19 20  1  0
 20 21  1  0
 20 22  2  0
 19 23  2  0
 23 24  1  0
 24 25  2  0
 25 26  1  0
 26 27  2  0
 27 28  1  0
 28 29  1  0
 28 30  1  0
 28 31  1  0
 27 32  1  0
 32 33  2  0
 33 18  1  0
 33 24  1  0
  1 34  1  0
  1 35  1  0
  1 36  1  0
  2 37  1  6
  6 38  1  6
  7 39  1  0
  7 40  1  0
  8 41  1  0
 13 42  1  0
 13 43  1  0
 14 44  1  0
 14 45  1  0
 15 46  1  0
 21 47  1  0
 23 48  1  0
 25 49  1  0
 26 50  1  0
 32 51  1  0
M  CHG  3   3  -1   9  -1  21  -1
M  END
>  <UniqueID>  (52) 
52

>  <SMILES>  (52) 
C[C@H]([N-]C(=O)[C@H](CO)[N-]C(=O)OCCO)C(=O)n1c(C([NH-])=O)cc2ccc(C(F)(F)F)cc21

>  <Energy>  (52) 
76.60726762630064

>  <Genealogy>  (52) 
C[C@H]([N-]C(=O)[C@H](CO)[N-]C(=O)OCCO)C(=O)n1c(C([NH-])=O)cc2ccc(C(F)(F)F)cc21 (protonated)
C[C@H]([N-]C(=O)[C@H](CO)[N-]C(=O)OCCO)C(=O)n1c(C([NH-])=O)cc2ccc(C(F)(F)F)cc21 (3D coordinates assigned)
C[C@H]([N-]C(=O)[C@H](CO)[N-]C(=O)OCCO)C(=O)n1c(C([NH-])=O)cc2ccc(C(F)(F)F)cc21 (optimized conformer: 76.60726762630064 kcal/mol)

>  <smiles>  (52) 
C[C@H](NC(=O)[C@H](CO)NC(=O)OCCO)C(=O)n1c(C(N)=O)cc2ccc(C(F)(F)F)cc21

>  <score_type>  (52) 
oracle

>  <origin>  (52) 
adg

>  <m_score__min__energy>  (52) 
-10.640000000000001

>  <m_primary>  (52) 
energy

$$$$
53:0
     RDKit          3D

 37 39  0  0  0  0  0  0  0  0999 V2000
   -2.6250   21.2110  -27.5730 C   0  0  0  0  0  0  0  0  0  0  0  0
   -3.4030   22.2090  -28.4320 C   0  0  2  0  0  0  0  0  0  0  0  0
   -3.4310   21.7760  -29.7910 O   0  0  0  0  0  0  0  0  0  0  0  0
   -3.8540   22.5820  -30.8540 C   0  0  0  0  0  0  0  0  0  0  0  0
   -3.0150   23.0560  -31.6690 O   0  0  0  0  0  0  0  0  0  0  0  0
   -5.2490   22.8860  -31.0020 N   0  0  0  0  0  0  0  0  0  0  0  0
   -5.8800   24.0750  -30.7710 C   0  0  0  0  0  0  0  0  0  0  0  0
   -5.2230   25.3580  -30.4450 C   0  0  0  0  0  0  0  0  0  0  0  0
   -3.8690   25.5800  -30.8330 N   0  0  0  0  0  0  0  0  0  0  0  0
   -5.8320   26.2470  -29.7940 O   0  0  0  0  0  0  0  0  0  0  0  0
   -7.2530   23.9450  -30.9690 C   0  0  0  0  0  0  0  0  0  0  0  0
   -7.4460   22.6320  -31.3380 C   0  0  0  0  0  0  0  0  0  0  0  0
   -8.6210   21.9560  -31.6560 C   0  0  0  0  0  0  0  0  0  0  0  0
   -8.5270   20.5930  -31.9820 C   0  0  0  0  0  0  0  0  0  0  0  0
   -7.2740   19.9320  -31.9660 C   0  0  0  0  0  0  0  0  0  0  0  0
   -7.1840   18.4820  -32.3410 C   0  0  0  0  0  0  0  0  0  0  0  0
   -8.3720   17.8500  -32.0250 F   0  0  0  0  0  0  0  0  0  0  0  0
   -6.1020   20.6540  -31.6530 C   0  0  0  0  0  0  0  0  0  0  0  0
   -6.2230   22.0150  -31.3500 C   0  0  0  0  0  0  0  0  0  0  0  0
   -2.7490   23.5560  -28.3640 C   0  0  0  0  0  0  0  0  0  0  0  0
   -2.6980   24.3790  -27.2580 C   0  0  0  0  0  0  0  0  0  0  0  0
   -1.9410   25.4490  -27.6810 C   0  0  0  0  0  0  0  0  0  0  0  0
   -1.5830   25.2410  -28.9270 O   0  0  0  0  0  0  0  0  0  0  0  0
   -2.0460   24.1080  -29.3710 N   0  0  0  0  0  0  0  0  0  0  0  0
   -2.7966   21.4311  -26.5090 H   0  0  0  0  0  0  0  0  0  0  0  0
   -2.9678   20.1899  -27.7961 H   0  0  0  0  0  0  0  0  0  0  0  0
   -1.5511   21.2942  -27.7961 H   0  0  0  0  0  0  0  0  0  0  0  0
   -4.4317   22.2728  -28.0478 H   0  0  0  0  0  0  0  0  0  0  0  0
   -3.1060   24.9500  -30.5000 H   0  0  0  0  0  0  0  0  0  0  0  0
   -8.0200   24.7252  -30.8549 H   0  0  0  0  0  0  0  0  0  0  0  0
   -9.5920   22.4729  -31.6520 H   0  0  0  0  0  0  0  0  0  0  0  0
   -9.4347   20.0336  -32.2523 H   0  0  0  0  0  0  0  0  0  0  0  0
   -6.9977   18.3935  -33.4215 H   0  0  0  0  0  0  0  0  0  0  0  0
   -6.3590   18.0104  -31.7870 H   0  0  0  0  0  0  0  0  0  0  0  0
   -5.1193   20.1598  -31.6474 H   0  0  0  0  0  0  0  0  0  0  0  0
   -3.1547   24.2184  -26.2703 H   0  0  0  0  0  0  0  0  0  0  0  0
   -1.6801   26.3301  -27.0764 H   0  0  0  0  0  0  0  0  0  0  0  0
  1  2  1  0
  2  3  1  0
  3  4  1  0
  4  5  2  0
  4  6  1  0
  6  7  1  0
  7  8  1  0
  8  9  1  0
  8 10  2  0
  7 11  2  0
 11 12  1  0
 12 13  2  0
 13 14  1  0
 14 15  2  0
 15 16  1  0
 16 17  1  0
 15 18  1  0
 18 19  2  0
  2 20  1  0
 20 21  1  0
 21 22  2  0
 22 23  1  0
 23 24  1  0
 19  6  1  0
 24 20  2  0
 19 12  1  0
  1 25  1  0
  1 26  1  0
  1 27  1  0
  2 28  1  1
  9 29  1  0
 11 30  1  0
 13 31  1  0
 14 32  1  0
 16 33  1  0
 16 34  1  0
 18 35  1  0
 21 36  1  0
 22 37  1  0
M  CHG  1   9  -1
M  END
>  <UniqueID>  (53) 
53

>  <SMILES>  (53) 
C[C@H](OC(=O)n1c(C([NH-])=O)cc2ccc(CF)cc21)c1ccon1

>  <Energy>  (53) 
102.65607770653561

>  <Genealogy>  (53) 
CC(OC(=O)n1c(C([NH-])=O)cc2ccc(CF)cc21)c1ccon1 (protonated)
C[C@H](OC(=O)n1c(C([NH-])=O)cc2ccc(CF)cc21)c1ccon1 (chirality)
C[C@H](OC(=O)n1c(C([NH-])=O)cc2ccc(CF)cc21)c1ccon1 (3D coordinates assigned)
C[C@H](OC(=O)n1c(C([NH-])=O)cc2ccc(CF)cc21)c1ccon1 (optimized conformer: 102.65607770653561 kcal/mol)

>  <smiles>  (53) 
CC(OC(=O)n1c(C(N)=O)cc2ccc(CF)cc21)c1ccon1

>  <score_type>  (53) 
oracle

>  <origin>  (53) 
adg

>  <m_score__min__energy>  (53) 
-10.07

>  <m_primary>  (53) 
energy

$$$$
54:0
     RDKit          3D

 45 47  0  0  0  0  0  0  0  0999 V2000
   -1.6010   25.7110  -28.9670 N   0  0  0  0  0  0  0  0  0  0  0  0
   -1.0310   24.4170  -29.1520 C   0  0  0  0  0  0  0  0  0  0  0  0
    0.0490   24.1320  -28.5710 O   0  0  0  0  0  0  0  0  0  0  0  0
   -1.7320   23.4160  -29.9840 C   0  0  0  0  0  0  0  0  0  0  0  0
   -1.1310   22.2450  -30.4400 C   0  0  0  0  0  0  0  0  0  0  0  0
   -2.0720   21.6390  -31.2410 C   0  0  0  0  0  0  0  0  0  0  0  0
   -2.0080   20.4440  -31.9500 C   0  0  0  0  0  0  0  0  0  0  0  0
   -3.1420   20.0480  -32.6780 C   0  0  0  0  0  0  0  0  0  0  0  0
   -4.3160   20.8420  -32.6720 C   0  0  0  0  0  0  0  0  0  0  0  0
   -5.5200   20.4180  -33.4730 C   0  0  0  0  0  0  0  0  0  0  0  0
   -6.8000   20.4880  -32.6230 C   0  0  1  0  0  0  0  0  0  0  0  0
   -7.9260   20.4160  -33.4610 O   0  0  0  0  0  0  0  0  0  0  0  0
   -6.8400   19.3540  -31.5850 C   0  0  0  0  0  0  0  0  0  0  0  0
   -7.5970   18.2550  -32.0680 O   0  0  0  0  0  0  0  0  0  0  0  0
   -6.8480   17.0560  -32.0430 C   0  0  0  0  0  0  0  0  0  0  0  0
   -5.7420   17.1010  -33.0660 C   0  0  0  0  0  0  0  0  0  0  0  0
   -6.0190   17.5140  -34.3790 C   0  0  0  0  0  0  0  0  0  0  0  0
   -4.9940   17.5740  -35.3280 C   0  0  0  0  0  0  0  0  0  0  0  0
   -3.6880   17.2250  -34.9720 C   0  0  0  0  0  0  0  0  0  0  0  0
   -3.4040   16.8180  -33.6650 C   0  0  0  0  0  0  0  0  0  0  0  0
   -4.4270   16.7570  -32.7130 C   0  0  0  0  0  0  0  0  0  0  0  0
   -4.3410   22.0540  -31.9480 C   0  0  0  0  0  0  0  0  0  0  0  0
   -3.1900   22.4330  -31.2460 C   0  0  0  0  0  0  0  0  0  0  0  0
   -2.9990   23.5270  -30.4760 N   0  0  0  0  0  0  0  0  0  0  0  0
   -3.9670   24.5510  -30.1980 C   0  0  0  0  0  0  0  0  0  0  0  0
   -3.8980   25.6690  -30.7730 O   0  0  0  0  0  0  0  0  0  0  0  0
   -4.9790   24.3270  -29.2710 O   0  0  0  0  0  0  0  0  0  0  0  0
   -2.6360   25.8490  -28.9870 H   0  0  0  0  0  0  0  0  0  0  0  0
   -0.1188   21.8816  -30.2089 H   0  0  0  0  0  0  0  0  0  0  0  0
   -1.0969   19.8278  -31.9408 H   0  0  0  0  0  0  0  0  0  0  0  0
   -3.1187   19.1135  -33.2578 H   0  0  0  0  0  0  0  0  0  0  0  0
   -5.6277   21.0850  -34.3410 H   0  0  0  0  0  0  0  0  0  0  0  0
   -5.3739   19.3784  -33.8016 H   0  0  0  0  0  0  0  0  0  0  0  0
   -6.8057   21.4444  -32.0796 H   0  0  0  0  0  0  0  0  0  0  0  0
   -7.9670   19.4860  -33.8060 H   0  0  0  0  0  0  0  0  0  0  0  0
   -5.8129   19.0203  -31.3758 H   0  0  0  0  0  0  0  0  0  0  0  0
   -7.3141   19.7325  -30.6674 H   0  0  0  0  0  0  0  0  0  0  0  0
   -6.4102   16.9239  -31.0426 H   0  0  0  0  0  0  0  0  0  0  0  0
   -7.5163   16.2149  -32.2795 H   0  0  0  0  0  0  0  0  0  0  0  0
   -7.0453   17.7911  -34.6618 H   0  0  0  0  0  0  0  0  0  0  0  0
   -5.2155   17.8963  -36.3561 H   0  0  0  0  0  0  0  0  0  0  0  0
   -2.8833   17.2706  -35.7206 H   0  0  0  0  0  0  0  0  0  0  0  0
   -2.3756   16.5456  -33.3852 H   0  0  0  0  0  0  0  0  0  0  0  0
   -4.2008   16.4386  -31.6847 H   0  0  0  0  0  0  0  0  0  0  0  0
   -5.2421   22.6848  -31.9357 H   0  0  0  0  0  0  0  0  0  0  0  0
  1  2  1  0
  2  3  2  0
  2  4  1  0
  4  5  2  0
  5  6  1  0
  6  7  2  0
  7  8  1  0
  8  9  2  0
  9 10  1  0
 10 11  1  0
 11 12  1  0
 11 13  1  0
 13 14  1  0
 14 15  1  0
 15 16  1  0
 16 17  2  0
 17 18  1  0
 18 19  2  0
 19 20  1  0
 20 21  2  0
  9 22  1  0
 22 23  2  0
 23 24  1  0
 24 25  1  0
 25 26  2  0
 25 27  1  0
 24  4  1  0
 23  6  1  0
 21 16  1  0
  1 28  1  0
  5 29  1  0
  7 30  1  0
  8 31  1  0
 10 32  1  0
 10 33  1  0
 11 34  1  1
 12 35  1  0
 13 36  1  0
 13 37  1  0
 15 38  1  0
 15 39  1  0
 17 40  1  0
 18 41  1  0
 19 42  1  0
 20 43  1  0
 21 44  1  0
 22 45  1  0
M  CHG  2   1  -1  27  -1
M  END
>  <UniqueID>  (54) 
54

>  <SMILES>  (54) 
[NH-]C(=O)c1cc2ccc(C[C@@H](O)COCc3ccccc3)cc2n1C(=O)[O-]

>  <Energy>  (54) 
86.48292325430486

>  <Genealogy>  (54) 
[NH-]C(=O)c1cc2ccc(CC(O)COCc3ccccc3)cc2n1C(=O)[O-] (protonated)
[NH-]C(=O)c1cc2ccc(C[C@@H](O)COCc3ccccc3)cc2n1C(=O)[O-] (chirality)
[NH-]C(=O)c1cc2ccc(C[C@@H](O)COCc3ccccc3)cc2n1C(=O)[O-] (3D coordinates assigned)
[NH-]C(=O)c1cc2ccc(C[C@@H](O)COCc3ccccc3)cc2n1C(=O)[O-] (optimized conformer: 86.48292325430486 kcal/mol)

>  <smiles>  (54) 
NC(=O)c1cc2ccc(CC(O)COCc3ccccc3)cc2n1C(=O)O

>  <score_type>  (54) 
oracle

>  <origin>  (54) 
adg

>  <m_score__min__energy>  (54) 
-12.130000000000001

>  <m_primary>  (54) 
energy

$$$$
55:0
     RDKit          3D

 33 34  0  0  0  0  0  0  0  0999 V2000
   -1.5370   25.7990  -28.9430 N   0  0  0  0  0  0  0  0  0  0  0  0
   -1.0690   24.4550  -29.0010 C   0  0  0  0  0  0  0  0  0  0  0  0
    0.0340   24.1620  -28.4670 O   0  0  0  0  0  0  0  0  0  0  0  0
   -1.8290   23.4150  -29.7250 C   0  0  0  0  0  0  0  0  0  0  0  0
   -1.3040   22.6780  -30.7840 C   0  0  0  0  0  0  0  0  0  0  0  0
   -2.3400   21.8930  -31.2330 C   0  0  0  0  0  0  0  0  0  0  0  0
   -2.3740   20.9560  -32.2620 C   0  0  0  0  0  0  0  0  0  0  0  0
   -3.5780   20.2660  -32.4860 C   0  0  0  0  0  0  0  0  0  0  0  0
   -4.7090   20.5210  -31.6780 C   0  0  0  0  0  0  0  0  0  0  0  0
   -5.9330   19.7990  -31.9090 C   0  0  0  0  0  0  0  0  0  0  0  0
   -6.9580   19.1950  -32.1010 C   0  0  0  0  0  0  0  0  0  0  0  0
   -8.2050   18.4610  -32.3350 C   0  0  0  0  0  0  0  0  0  0  0  0
   -9.1800   19.3250  -32.8510 O   0  0  0  0  0  0  0  0  0  0  0  0
   -4.6440   21.4760  -30.6440 C   0  0  0  0  0  0  0  0  0  0  0  0
   -3.4380   22.1620  -30.4540 C   0  0  0  0  0  0  0  0  0  0  0  0
   -3.1390   23.0930  -29.5220 N   0  0  0  0  0  0  0  0  0  0  0  0
   -4.0020   23.5550  -28.4710 C   0  0  0  0  0  0  0  0  0  0  0  0
   -3.5360   23.7510  -27.3150 O   0  0  0  0  0  0  0  0  0  0  0  0
   -5.3530   23.8060  -28.7410 O   0  0  0  0  0  0  0  0  0  0  0  0
   -5.8000   24.8910  -29.5500 C   0  0  0  0  0  0  0  0  0  0  0  0
   -4.9540   25.0090  -30.7770 C   0  0  0  0  0  0  0  0  0  0  0  0
   -3.8850   25.6730  -30.7500 O   0  0  0  0  0  0  0  0  0  0  0  0
   -5.3350   24.3610  -31.9460 O   0  0  0  0  0  0  0  0  0  0  0  0
   -2.5580   26.0130  -28.9440 H   0  0  0  0  0  0  0  0  0  0  0  0
   -0.2776   22.7159  -31.1779 H   0  0  0  0  0  0  0  0  0  0  0  0
   -1.4857   20.7615  -32.8810 H   0  0  0  0  0  0  0  0  0  0  0  0
   -3.6402   19.5232  -33.2950 H   0  0  0  0  0  0  0  0  0  0  0  0
   -8.0204   17.6492  -33.0539 H   0  0  0  0  0  0  0  0  0  0  0  0
   -8.5615   18.0419  -31.3825 H   0  0  0  0  0  0  0  0  0  0  0  0
   -9.0020   19.4060  -33.8260 H   0  0  0  0  0  0  0  0  0  0  0  0
   -5.5159   21.6770  -30.0041 H   0  0  0  0  0  0  0  0  0  0  0  0
   -6.8450   24.7162  -29.8457 H   0  0  0  0  0  0  0  0  0  0  0  0
   -5.7218   25.8234  -28.9716 H   0  0  0  0  0  0  0  0  0  0  0  0
  1  2  1  0
  2  3  2  0
  2  4  1  0
  4  5  2  0
  5  6  1  0
  6  7  2  0
  7  8  1  0
  8  9  2  0
  9 10  1  0
 10 11  3  0
 11 12  1  0
 12 13  1  0
  9 14  1  0
 14 15  2  0
 15 16  1  0
 16 17  1  0
 17 18  2  0
 17 19  1  0
 19 20  1  0
 20 21  1  0
 21 22  2  0
 21 23  1  0
 16  4  1  0
 15  6  1  0
  1 24  1  0
  5 25  1  0
  7 26  1  0
  8 27  1  0
 12 28  1  0
 12 29  1  0
 13 30  1  0
 14 31  1  0
 20 32  1  0
 20 33  1  0
M  CHG  2   1  -1  23  -1
M  END
>  <UniqueID>  (55) 
55

>  <SMILES>  (55) 
[NH-]C(=O)c1cc2ccc(C#CCO)cc2n1C(=O)OCC(=O)[O-]

>  <Energy>  (55) 
65.59506315652793

>  <Genealogy>  (55) 
[NH-]C(=O)c1cc2ccc(C#CCO)cc2n1C(=O)OCC(=O)[O-] (protonated)
[NH-]C(=O)c1cc2ccc(C#CCO)cc2n1C(=O)OCC(=O)[O-] (3D coordinates assigned)
[NH-]C(=O)c1cc2ccc(C#CCO)cc2n1C(=O)OCC(=O)[O-] (optimized conformer: 65.59506315652793 kcal/mol)

>  <smiles>  (55) 
NC(=O)c1cc2ccc(C#CCO)cc2n1C(=O)OCC(=O)O

>  <score_type>  (55) 
oracle

>  <origin>  (55) 
adg

>  <m_score__min__energy>  (55) 
-12.16

>  <m_primary>  (55) 
energy

$$$$
56:0
     RDKit          3D

 35 36  0  0  0  0  0  0  0  0999 V2000
   -3.3490   23.6790  -28.2240 C   0  0  0  0  0  0  0  0  0  0  0  0
   -2.7070   22.9630  -29.3310 N   0  0  0  0  0  0  0  0  0  0  0  0
   -1.3370   23.3260  -29.7200 C   0  0  0  0  0  0  0  0  0  0  0  0
   -0.9320   24.6210  -29.0850 C   0  0  0  0  0  0  0  0  0  0  0  0
   -1.5940   25.6690  -29.3050 O   0  0  0  0  0  0  0  0  0  0  0  0
    0.1720   24.6710  -28.2430 O   0  0  0  0  0  0  0  0  0  0  0  0
   -3.4980   22.0430  -30.1140 C   0  0  0  0  0  0  0  0  0  0  0  0
   -3.6010   20.8430  -29.7400 O   0  0  0  0  0  0  0  0  0  0  0  0
   -4.1680   22.4510  -31.3670 C   0  0  0  0  0  0  0  0  0  0  0  0
   -3.5300   22.4620  -32.4530 O   0  0  0  0  0  0  0  0  0  0  0  0
   -5.5720   22.7520  -31.3750 N   0  0  0  0  0  0  0  0  0  0  0  0
   -6.1930   23.8910  -30.9580 C   0  0  0  0  0  0  0  0  0  0  0  0
   -5.5240   25.1340  -30.5220 C   0  0  0  0  0  0  0  0  0  0  0  0
   -4.1430   25.3600  -30.7910 N   0  0  0  0  0  0  0  0  0  0  0  0
   -6.1910   26.0290  -29.9370 O   0  0  0  0  0  0  0  0  0  0  0  0
   -7.5770   23.7570  -31.0650 C   0  0  0  0  0  0  0  0  0  0  0  0
   -7.7840   22.4940  -31.5730 C   0  0  0  0  0  0  0  0  0  0  0  0
   -8.9700   21.8310  -31.8730 C   0  0  0  0  0  0  0  0  0  0  0  0
   -8.8830   20.5170  -32.3670 C   0  0  0  0  0  0  0  0  0  0  0  0
   -7.6220   19.8980  -32.5480 C   0  0  0  0  0  0  0  0  0  0  0  0
   -7.5470   18.5590  -33.0430 N   0  0  0  0  0  0  0  0  0  0  0  0
   -6.4400   20.6020  -32.2340 C   0  0  0  0  0  0  0  0  0  0  0  0
   -6.5570   21.9100  -31.7530 C   0  0  0  0  0  0  0  0  0  0  0  0
   -2.9869   23.2751  -27.2671 H   0  0  0  0  0  0  0  0  0  0  0  0
   -3.1022   24.7491  -28.2873 H   0  0  0  0  0  0  0  0  0  0  0  0
   -4.4396   23.5499  -28.2873 H   0  0  0  0  0  0  0  0  0  0  0  0
   -0.6472   22.5332  -29.3950 H   0  0  0  0  0  0  0  0  0  0  0  0
   -1.2984   23.4408  -30.8133 H   0  0  0  0  0  0  0  0  0  0  0  0
   -3.4920   25.6720  -30.0370 H   0  0  0  0  0  0  0  0  0  0  0  0
   -8.3413   24.5023  -30.7998 H   0  0  0  0  0  0  0  0  0  0  0  0
   -9.9450   22.3192  -31.7283 H   0  0  0  0  0  0  0  0  0  0  0  0
   -9.8019   19.9655  -32.6148 H   0  0  0  0  0  0  0  0  0  0  0  0
   -6.8710   17.8760  -32.6330 H   0  0  0  0  0  0  0  0  0  0  0  0
   -8.1640   18.2430  -33.8240 H   0  0  0  0  0  0  0  0  0  0  0  0
   -5.4529   20.1344  -32.3641 H   0  0  0  0  0  0  0  0  0  0  0  0
  1  2  1  0
  2  3  1  0
  3  4  1  0
  4  5  2  0
  4  6  1  0
  2  7  1  0
  7  8  2  0
  7  9  1  0
  9 10  2  0
  9 11  1  0
 11 12  1  0
 12 13  1  0
 13 14  1  0
 13 15  2  0
 12 16  2  0
 16 17  1  0
 17 18  2  0
 18 19  1  0
 19 20  2  0
 20 21  1  0
 20 22  1  0
 22 23  2  0
 23 11  1  0
 23 17  1  0
  1 24  1  0
  1 25  1  0
  1 26  1  0
  3 27  1  0
  3 28  1  0
 14 29  1  0
 16 30  1  0
 18 31  1  0
 19 32  1  0
 21 33  1  0
 21 34  1  0
 22 35  1  0
M  CHG  2   6  -1  14  -1
M  END
>  <UniqueID>  (56) 
56

>  <SMILES>  (56) 
CN(CC(=O)[O-])C(=O)C(=O)n1c(C([NH-])=O)cc2ccc(N)cc21

>  <Energy>  (56) 
74.97396061236162

>  <Genealogy>  (56) 
CN(CC(=O)[O-])C(=O)C(=O)n1c(C([NH-])=O)cc2ccc(N)cc21 (protonated)
CN(CC(=O)[O-])C(=O)C(=O)n1c(C([NH-])=O)cc2ccc(N)cc21 (3D coordinates assigned)
CN(CC(=O)[O-])C(=O)C(=O)n1c(C([NH-])=O)cc2ccc(N)cc21 (optimized conformer: 74.97396061236162 kcal/mol)

>  <smiles>  (56) 
CN(CC(=O)O)C(=O)C(=O)n1c(C(N)=O)cc2ccc(N)cc21

>  <score_type>  (56) 
oracle

>  <origin>  (56) 
adg

>  <m_score__min__energy>  (56) 
-12.02

>  <m_primary>  (56) 
energy

$$$$
57:0
     RDKit          3D

 44 45  0  0  0  0  0  0  0  0999 V2000
    0.2560   26.5180  -27.0470 C   0  0  0  0  0  0  0  0  0  0  0  0
   -0.8330   25.7590  -27.8190 C   0  0  1  0  0  0  0  0  0  0  0  0
   -1.2040   26.4900  -28.9600 O   0  0  0  0  0  0  0  0  0  0  0  0
   -0.3860   24.3270  -28.2090 C   0  0  2  0  0  0  0  0  0  0  0  0
   -1.1900   23.8260  -29.3280 N   0  0  0  0  0  0  0  0  0  0  0  0
   -0.9970   22.5150  -29.8800 C   0  0  0  0  0  0  0  0  0  0  0  0
   -0.1420   21.7330  -29.3810 O   0  0  0  0  0  0  0  0  0  0  0  0
   -1.7800   22.0750  -31.0800 C   0  0  0  0  0  0  0  0  0  0  0  0
   -2.8480   22.9830  -31.3330 O   0  0  0  0  0  0  0  0  0  0  0  0
   -4.0090   22.6310  -32.0310 C   0  0  0  0  0  0  0  0  0  0  0  0
   -3.9320   22.1030  -33.1740 O   0  0  0  0  0  0  0  0  0  0  0  0
   -5.2950   22.8920  -31.4500 N   0  0  0  0  0  0  0  0  0  0  0  0
   -5.6890   23.9960  -30.7540 C   0  0  0  0  0  0  0  0  0  0  0  0
   -4.9120   25.2420  -30.5900 C   0  0  0  0  0  0  0  0  0  0  0  0
   -3.5270   25.2030  -30.2540 N   0  0  0  0  0  0  0  0  0  0  0  0
   -5.4650   26.3550  -30.7960 O   0  0  0  0  0  0  0  0  0  0  0  0
   -6.9870   23.8320  -30.2750 C   0  0  0  0  0  0  0  0  0  0  0  0
   -7.3830   22.5890  -30.7130 C   0  0  0  0  0  0  0  0  0  0  0  0
   -8.5790   21.9070  -30.5090 C   0  0  0  0  0  0  0  0  0  0  0  0
   -8.7020   20.6170  -31.0510 C   0  0  0  0  0  0  0  0  0  0  0  0
   -7.6400   20.0360  -31.7930 C   0  0  0  0  0  0  0  0  0  0  0  0
   -7.7620   18.6280  -32.3150 C   0  0  0  0  0  0  0  0  0  0  0  0
   -7.2080   18.5260  -33.5800 F   0  0  0  0  0  0  0  0  0  0  0  0
   -7.1030   17.7390  -31.4820 F   0  0  0  0  0  0  0  0  0  0  0  0
   -9.0980   18.2780  -32.3780 F   0  0  0  0  0  0  0  0  0  0  0  0
   -6.4330   20.7530  -31.9560 C   0  0  0  0  0  0  0  0  0  0  0  0
   -6.3450   22.0430  -31.4210 C   0  0  0  0  0  0  0  0  0  0  0  0
   -0.5210   23.3850  -27.0450 C   0  0  0  0  0  0  0  0  0  0  0  0
    0.4640   23.1660  -26.2910 O   0  0  0  0  0  0  0  0  0  0  0  0
   -1.7360   22.7660  -26.7830 O   0  0  0  0  0  0  0  0  0  0  0  0
    0.0883   26.4011  -25.9662 H   0  0  0  0  0  0  0  0  0  0  0  0
    1.2435   26.1115  -27.3109 H   0  0  0  0  0  0  0  0  0  0  0  0
    0.2164   27.5851  -27.3109 H   0  0  0  0  0  0  0  0  0  0  0  0
   -1.7026   25.6515  -27.1539 H   0  0  0  0  0  0  0  0  0  0  0  0
   -2.0010   26.0480  -29.3530 H   0  0  0  0  0  0  0  0  0  0  0  0
    0.6712   24.3776  -28.5086 H   0  0  0  0  0  0  0  0  0  0  0  0
   -1.9310   24.4360  -29.7420 H   0  0  0  0  0  0  0  0  0  0  0  0
   -1.1151   22.0437  -31.9557 H   0  0  0  0  0  0  0  0  0  0  0  0
   -2.1976   21.0756  -30.8883 H   0  0  0  0  0  0  0  0  0  0  0  0
   -3.1810   25.6130  -29.3590 H   0  0  0  0  0  0  0  0  0  0  0  0
   -7.5712   24.5447  -29.6743 H   0  0  0  0  0  0  0  0  0  0  0  0
   -9.4025   22.3641  -29.9408 H   0  0  0  0  0  0  0  0  0  0  0  0
   -9.6323   20.0501  -30.8988 H   0  0  0  0  0  0  0  0  0  0  0  0
   -5.5819   20.3070  -32.4914 H   0  0  0  0  0  0  0  0  0  0  0  0
  1  2  1  0
  2  3  1  0
  2  4  1  0
  4  5  1  0
  5  6  1  0
  6  7  2  0
  6  8  1  0
  8  9  1  0
  9 10  1  0
 10 11  2  0
 10 12  1  0
 12 13  1  0
 13 14  1  0
 14 15  1  0
 14 16  2  0
 13 17  2  0
 17 18  1  0
 18 19  2  0
 19 20  1  0
 20 21  2  0
 21 22  1  0
 22 23  1  0
 22 24  1  0
 22 25  1  0
 21 26  1  0
 26 27  2  0
  4 28  1  0
 28 29  2  0
 28 30  1  0
 27 12  1  0
 27 18  1  0
  1 31  1  0
  1 32  1  0
  1 33  1  0
  2 34  1  1
  3 35  1  0
  4 36  1  6
  5 37  1  0
  8 38  1  0
  8 39  1  0
 15 40  1  0
 17 41  1  0
 19 42  1  0
 20 43  1  0
 26 44  1  0
M  CHG  2  15  -1  30  -1
M  END
>  <UniqueID>  (57) 
57

>  <SMILES>  (57) 
C[C@@H](O)[C@H](NC(=O)COC(=O)n1c(C([NH-])=O)cc2ccc(C(F)(F)F)cc21)C(=O)[O-]

>  <Energy>  (57) 
76.56275823710685

>  <Genealogy>  (57) 
CC(O)C(NC(=O)COC(=O)n1c(C([NH-])=O)cc2ccc(C(F)(F)F)cc21)C(=O)[O-] (protonated)
C[C@@H](O)[C@H](NC(=O)COC(=O)n1c(C([NH-])=O)cc2ccc(C(F)(F)F)cc21)C(=O)[O-] (chirality)
C[C@@H](O)[C@H](NC(=O)COC(=O)n1c(C([NH-])=O)cc2ccc(C(F)(F)F)cc21)C(=O)[O-] (3D coordinates assigned)
C[C@@H](O)[C@H](NC(=O)COC(=O)n1c(C([NH-])=O)cc2ccc(C(F)(F)F)cc21)C(=O)[O-] (optimized conformer: 76.56275823710685 kcal/mol)

>  <smiles>  (57) 
CC(O)C(NC(=O)COC(=O)n1c(C(N)=O)cc2ccc(C(F)(F)F)cc21)C(=O)O

>  <score_type>  (57) 
oracle

>  <origin>  (57) 
adg

>  <m_score__min__energy>  (57) 
-11.75

>  <m_primary>  (57) 
energy

$$$$
58:0
     RDKit          3D

 45 46  0  0  0  0  0  0  0  0999 V2000
   -5.4580   18.2220  -34.9480 C   0  0  0  0  0  0  0  0  0  0  0  0
   -5.0020   16.8190  -34.5820 C   0  0  0  0  0  0  0  0  0  0  0  0
   -5.8990   16.2620  -33.6280 O   0  0  0  0  0  0  0  0  0  0  0  0
   -5.6580   16.3030  -32.2520 C   0  0  0  0  0  0  0  0  0  0  0  0
   -4.9860   15.3960  -31.6890 O   0  0  0  0  0  0  0  0  0  0  0  0
   -6.1850   17.4450  -31.4430 C   0  0  0  0  0  0  0  0  0  0  0  0
   -6.8770   18.4020  -32.3050 N   0  0  0  0  0  0  0  0  0  0  0  0
   -7.0720   19.7950  -31.9880 C   0  0  0  0  0  0  0  0  0  0  0  0
   -8.3640   20.3890  -31.9840 C   0  0  0  0  0  0  0  0  0  0  0  0
   -8.5290   21.7490  -31.6690 C   0  0  0  0  0  0  0  0  0  0  0  0
   -7.3930   22.4910  -31.3610 C   0  0  0  0  0  0  0  0  0  0  0  0
   -7.2620   23.8160  -31.0060 C   0  0  0  0  0  0  0  0  0  0  0  0
   -5.8960   24.0100  -30.8010 C   0  0  0  0  0  0  0  0  0  0  0  0
   -5.2930   25.3070  -30.4290 C   0  0  0  0  0  0  0  0  0  0  0  0
   -3.9930   25.6720  -30.8880 N   0  0  0  0  0  0  0  0  0  0  0  0
   -5.9370   26.1100  -29.7020 O   0  0  0  0  0  0  0  0  0  0  0  0
   -5.2180   22.8480  -31.0110 N   0  0  0  0  0  0  0  0  0  0  0  0
   -3.8080   22.6150  -30.8960 C   0  0  0  0  0  0  0  0  0  0  0  0
   -3.1250   22.4750  -31.9460 O   0  0  0  0  0  0  0  0  0  0  0  0
   -3.1780   22.5140  -29.6020 N   0  0  0  0  0  0  0  0  0  0  0  0
   -2.7830   21.1930  -29.1020 C   0  0  0  0  0  0  0  0  0  0  0  0
   -2.9680   23.7100  -28.7740 C   0  0  0  0  0  0  0  0  0  0  0  0
   -1.6800   24.3780  -29.1400 C   0  0  0  0  0  0  0  0  0  0  0  0
   -1.6360   25.6260  -29.3040 O   0  0  0  0  0  0  0  0  0  0  0  0
   -0.5310   23.6190  -29.3230 O   0  0  0  0  0  0  0  0  0  0  0  0
   -6.1430   21.9330  -31.3600 C   0  0  0  0  0  0  0  0  0  0  0  0
   -5.9470   20.5840  -31.6650 C   0  0  0  0  0  0  0  0  0  0  0  0
   -5.6452   18.7979  -34.0297 H   0  0  0  0  0  0  0  0  0  0  0  0
   -4.6752   18.7193  -35.5396 H   0  0  0  0  0  0  0  0  0  0  0  0
   -6.3836   18.1641  -35.5396 H   0  0  0  0  0  0  0  0  0  0  0  0
   -4.9900   16.1903  -35.4846 H   0  0  0  0  0  0  0  0  0  0  0  0
   -3.9905   16.8629  -34.1520 H   0  0  0  0  0  0  0  0  0  0  0  0
   -6.8882   17.0614  -30.6891 H   0  0  0  0  0  0  0  0  0  0  0  0
   -5.3428   17.9523  -30.9497 H   0  0  0  0  0  0  0  0  0  0  0  0
   -7.2820   18.0330  -33.1950 H   0  0  0  0  0  0  0  0  0  0  0  0
   -9.2444   19.7772  -32.2302 H   0  0  0  0  0  0  0  0  0  0  0  0
   -9.5265   22.2128  -31.6661 H   0  0  0  0  0  0  0  0  0  0  0  0
   -8.0641   24.5620  -30.9056 H   0  0  0  0  0  0  0  0  0  0  0  0
   -3.1360   25.2810  -30.4370 H   0  0  0  0  0  0  0  0  0  0  0  0
   -2.7855   21.2015  -28.0020 H   0  0  0  0  0  0  0  0  0  0  0  0
   -3.4941   20.4361  -29.4645 H   0  0  0  0  0  0  0  0  0  0  0  0
   -1.7731   20.9507  -29.4645 H   0  0  0  0  0  0  0  0  0  0  0  0
   -3.7991   24.4125  -28.9345 H   0  0  0  0  0  0  0  0  0  0  0  0
   -2.9262   23.4093  -27.7167 H   0  0  0  0  0  0  0  0  0  0  0  0
   -4.9380   20.1461  -31.6537 H   0  0  0  0  0  0  0  0  0  0  0  0
  1  2  1  0
  2  3  1  0
  3  4  1  0
  4  5  2  0
  4  6  1  0
  6  7  1  0
  7  8  1  0
  8  9  2  0
  9 10  1  0
 10 11  2  0
 11 12  1  0
 12 13  2  0
 13 14  1  0
 14 15  1  0
 14 16  2  0
 13 17  1  0
 17 18  1  0
 18 19  2  0
 18 20  1  0
 20 21  1  0
 20 22  1  0
 22 23  1  0
 23 24  2  0
 23 25  1  0
 17 26  1  0
 26 27  2  0
 27  8  1  0
 26 11  1  0
  1 28  1  0
  1 29  1  0
  1 30  1  0
  2 31  1  0
  2 32  1  0
  6 33  1  0
  6 34  1  0
  7 35  1  0
  9 36  1  0
 10 37  1  0
 12 38  1  0
 15 39  1  0
 21 40  1  0
 21 41  1  0
 21 42  1  0
 22 43  1  0
 22 44  1  0
 27 45  1  0
M  CHG  2  15  -1  25  -1
M  END
>  <UniqueID>  (58) 
58

>  <SMILES>  (58) 
CCOC(=O)CNc1ccc2cc(C([NH-])=O)n(C(=O)N(C)CC(=O)[O-])c2c1

>  <Energy>  (58) 
74.17541310289359

>  <Genealogy>  (58) 
CCOC(=O)CNc1ccc2cc(C([NH-])=O)n(C(=O)N(C)CC(=O)[O-])c2c1 (protonated)
CCOC(=O)CNc1ccc2cc(C([NH-])=O)n(C(=O)N(C)CC(=O)[O-])c2c1 (3D coordinates assigned)
CCOC(=O)CNc1ccc2cc(C([NH-])=O)n(C(=O)N(C)CC(=O)[O-])c2c1 (optimized conformer: 74.17541310289359 kcal/mol)

>  <smiles>  (58) 
CCOC(=O)CNc1ccc2cc(C(N)=O)n(C(=O)N(C)CC(=O)O)c2c1

>  <score_type>  (58) 
oracle

>  <origin>  (58) 
adg

>  <m_score__min__energy>  (58) 
-11.960000000000001

>  <m_primary>  (58) 
energy

$$$$
59:0
     RDKit          3D

 45 46  0  0  0  0  0  0  0  0999 V2000
   -1.2320   22.0320  -27.2230 C   0  0  0  0  0  0  0  0  0  0  0  0
   -2.2600   22.6670  -28.0530 N   0  0  0  0  0  0  0  0  0  0  0  0
   -3.3870   21.8500  -28.5240 C   0  0  0  0  0  0  0  0  0  0  0  0
   -2.8930   20.7490  -29.4650 C   0  0  0  0  0  0  0  0  0  0  0  0
   -3.0730   21.1490  -30.8690 N   0  0  0  0  0  0  0  0  0  0  0  0
   -2.5490   20.3020  -31.9450 C   0  0  0  0  0  0  0  0  0  0  0  0
   -3.7150   22.3960  -31.2110 C   0  0  0  0  0  0  0  0  0  0  0  0
   -3.0160   23.4110  -31.4780 O   0  0  0  0  0  0  0  0  0  0  0  0
   -5.1460   22.5030  -31.2610 N   0  0  0  0  0  0  0  0  0  0  0  0
   -5.9140   23.5670  -30.8910 C   0  0  0  0  0  0  0  0  0  0  0  0
   -5.4030   24.8090  -30.2610 C   0  0  0  0  0  0  0  0  0  0  0  0
   -5.7500   25.1530  -28.9180 N   0  0  0  0  0  0  0  0  0  0  0  0
   -4.6470   25.5800  -30.9080 O   0  0  0  0  0  0  0  0  0  0  0  0
   -7.2590   23.3030  -31.1550 C   0  0  0  0  0  0  0  0  0  0  0  0
   -7.2840   22.0470  -31.7200 C   0  0  0  0  0  0  0  0  0  0  0  0
   -8.3550   21.2910  -32.1820 C   0  0  0  0  0  0  0  0  0  0  0  0
   -8.0810   20.0280  -32.7350 C   0  0  0  0  0  0  0  0  0  0  0  0
   -6.7460   19.5560  -32.8420 C   0  0  0  0  0  0  0  0  0  0  0  0
   -6.4730   18.1800  -33.3920 C   0  0  0  0  0  0  0  0  0  0  0  0
   -7.6070   17.3890  -33.3060 F   0  0  0  0  0  0  0  0  0  0  0  0
   -6.0940   18.2480  -34.7220 F   0  0  0  0  0  0  0  0  0  0  0  0
   -5.4570   17.5920  -32.6640 F   0  0  0  0  0  0  0  0  0  0  0  0
   -5.6860   20.3480  -32.3430 C   0  0  0  0  0  0  0  0  0  0  0  0
   -5.9940   21.5920  -31.7820 C   0  0  0  0  0  0  0  0  0  0  0  0
   -2.2660   24.0960  -28.2940 C   0  0  0  0  0  0  0  0  0  0  0  0
   -3.2970   24.7660  -28.0110 O   0  0  0  0  0  0  0  0  0  0  0  0
   -1.1170   24.8230  -28.8740 C   0  0  0  0  0  0  0  0  0  0  0  0
   -1.2390   25.9860  -29.3390 O   0  0  0  0  0  0  0  0  0  0  0  0
    0.1380   24.2230  -28.8820 O   0  0  0  0  0  0  0  0  0  0  0  0
   -1.4744   22.1818  -26.1606 H   0  0  0  0  0  0  0  0  0  0  0  0
   -1.1971   20.9548  -27.4428 H   0  0  0  0  0  0  0  0  0  0  0  0
   -0.2531   22.4830  -27.4428 H   0  0  0  0  0  0  0  0  0  0  0  0
   -3.8871   21.3898  -27.6591 H   0  0  0  0  0  0  0  0  0  0  0  0
   -4.0913   22.4953  -29.0695 H   0  0  0  0  0  0  0  0  0  0  0  0
   -1.8253   20.5639  -29.2758 H   0  0  0  0  0  0  0  0  0  0  0  0
   -3.4763   19.8352  -29.2789 H   0  0  0  0  0  0  0  0  0  0  0  0
   -2.0175   19.4429  -31.5096 H   0  0  0  0  0  0  0  0  0  0  0  0
   -3.3820   19.9413  -32.5663 H   0  0  0  0  0  0  0  0  0  0  0  0
   -1.8544   20.8863  -32.5663 H   0  0  0  0  0  0  0  0  0  0  0  0
   -5.3660   26.0250  -28.4890 H   0  0  0  0  0  0  0  0  0  0  0  0
   -6.4180   24.5810  -28.3570 H   0  0  0  0  0  0  0  0  0  0  0  0
   -8.1182   23.9598  -30.9541 H   0  0  0  0  0  0  0  0  0  0  0  0
   -9.3858   21.6696  -32.1169 H   0  0  0  0  0  0  0  0  0  0  0  0
   -8.9104   19.3980  -33.0890 H   0  0  0  0  0  0  0  0  0  0  0  0
   -4.6455   19.9948  -32.3947 H   0  0  0  0  0  0  0  0  0  0  0  0
  1  2  1  0
  2  3  1  0
  3  4  1  0
  4  5  1  0
  5  6  1  0
  5  7  1  0
  7  8  2  0
  7  9  1  0
  9 10  1  0
 10 11  1  0
 11 12  1  0
 11 13  2  0
 10 14  2  0
 14 15  1  0
 15 16  2  0
 16 17  1  0
 17 18  2  0
 18 19  1  0
 19 20  1  0
 19 21  1  0
 19 22  1  0
 18 23  1  0
 23 24  2  0
  2 25  1  0
 25 26  2  0
 25 27  1  0
 27 28  2  0
 27 29  1  0
 24  9  1  0
 24 15  1  0
  1 30  1  0
  1 31  1  0
  1 32  1  0
  3 33  1  0
  3 34  1  0
  4 35  1  0
  4 36  1  0
  6 37  1  0
  6 38  1  0
  6 39  1  0
 12 40  1  0
 12 41  1  0
 14 42  1  0
 16 43  1  0
 17 44  1  0
 23 45  1  0
M  CHG  1  29  -1
M  END
>  <UniqueID>  (59) 
59

>  <SMILES>  (59) 
CN(CCN(C)C(=O)n1c(C(N)=O)cc2ccc(C(F)(F)F)cc21)C(=O)C(=O)[O-]

>  <Energy>  (59) 
79.13599276644109

>  <Genealogy>  (59) 
CN(CCN(C)C(=O)n1c(C(N)=O)cc2ccc(C(F)(F)F)cc21)C(=O)C(=O)[O-] (protonated)
CN(CCN(C)C(=O)n1c(C(N)=O)cc2ccc(C(F)(F)F)cc21)C(=O)C(=O)[O-] (3D coordinates assigned)
CN(CCN(C)C(=O)n1c(C(N)=O)cc2ccc(C(F)(F)F)cc21)C(=O)C(=O)[O-] (optimized conformer: 79.13599276644109 kcal/mol)

>  <smiles>  (59) 
CN(CCN(C)C(=O)n1c(C(N)=O)cc2ccc(C(F)(F)F)cc21)C(=O)C(=O)O

>  <score_type>  (59) 
oracle

>  <origin>  (59) 
adg

>  <m_score__min__energy>  (59) 
-10.94

>  <m_primary>  (59) 
energy

$$$$
60:0
     RDKit          3D

 47 48  0  0  0  0  0  0  0  0999 V2000
   -1.3180   20.5070  -29.0750 C   0  0  0  0  0  0  0  0  0  0  0  0
   -1.8990   21.3020  -30.1760 N   0  0  1  0  0  0  0  0  0  0  0  0
   -2.1370   20.4460  -31.3270 C   0  0  0  0  0  0  0  0  0  0  0  0
   -3.2360   19.9400  -31.5040 O   0  0  0  0  0  0  0  0  0  0  0  0
   -1.0550   20.1930  -32.3490 C   0  0  0  0  0  0  0  0  0  0  0  0
   -0.9660   21.3130  -33.2830 N   0  0  0  0  0  0  0  0  0  0  0  0
    0.1700   21.5220  -34.1290 C   0  0  0  0  0  0  0  0  0  0  0  0
    1.1650   20.7510  -34.0730 O   0  0  0  0  0  0  0  0  0  0  0  0
    0.1820   22.5920  -35.0150 O   0  0  0  0  0  0  0  0  0  0  0  0
   -3.1380   22.0640  -29.8120 C   0  0  1  0  0  0  0  0  0  0  0  0
   -2.9050   23.1770  -28.7540 C   0  0  0  0  0  0  0  0  0  0  0  0
   -1.7670   24.0770  -29.1300 C   0  0  0  0  0  0  0  0  0  0  0  0
   -1.9550   25.3160  -29.2560 O   0  0  0  0  0  0  0  0  0  0  0  0
   -0.5030   23.5510  -29.3530 O   0  0  0  0  0  0  0  0  0  0  0  0
   -3.8130   22.6480  -31.0440 C   0  0  0  0  0  0  0  0  0  0  0  0
   -3.1160   23.0470  -32.0160 O   0  0  0  0  0  0  0  0  0  0  0  0
   -5.2370   22.8550  -31.0730 N   0  0  0  0  0  0  0  0  0  0  0  0
   -5.9230   24.0190  -30.8990 C   0  0  0  0  0  0  0  0  0  0  0  0
   -5.3460   25.2990  -30.4440 C   0  0  0  0  0  0  0  0  0  0  0  0
   -4.0290   25.6680  -30.8460 N   0  0  0  0  0  0  0  0  0  0  0  0
   -6.0220   26.0890  -29.7360 O   0  0  0  0  0  0  0  0  0  0  0  0
   -7.2860   23.8170  -31.1040 C   0  0  0  0  0  0  0  0  0  0  0  0
   -7.4170   22.4790  -31.3960 C   0  0  0  0  0  0  0  0  0  0  0  0
   -8.5540   21.7300  -31.6860 C   0  0  0  0  0  0  0  0  0  0  0  0
   -8.3900   20.3610  -31.9560 C   0  0  0  0  0  0  0  0  0  0  0  0
   -7.1010   19.7690  -31.9300 C   0  0  0  0  0  0  0  0  0  0  0  0
   -6.9270   18.3070  -32.2260 C   0  0  0  0  0  0  0  0  0  0  0  0
   -6.1130   17.7320  -31.2670 F   0  0  0  0  0  0  0  0  0  0  0  0
   -8.1610   17.6820  -32.2140 F   0  0  0  0  0  0  0  0  0  0  0  0
   -5.9720   20.5610  -31.6270 C   0  0  0  0  0  0  0  0  0  0  0  0
   -6.1670   21.9190  -31.3600 C   0  0  0  0  0  0  0  0  0  0  0  0
   -1.6299   20.9338  -28.1103 H   0  0  0  0  0  0  0  0  0  0  0  0
   -1.6709   19.4676  -29.1474 H   0  0  0  0  0  0  0  0  0  0  0  0
   -0.2206   20.5275  -29.1474 H   0  0  0  0  0  0  0  0  0  0  0  0
   -1.1630   21.9960  -30.4450 H   0  0  0  0  0  0  0  0  0  0  0  0
   -0.0905   20.0729  -31.8339 H   0  0  0  0  0  0  0  0  0  0  0  0
   -1.2999   19.2789  -32.9097 H   0  0  0  0  0  0  0  0  0  0  0  0
   -1.7500   22.0020  -33.3210 H   0  0  0  0  0  0  0  0  0  0  0  0
   -3.8047   21.3227  -29.3472 H   0  0  0  0  0  0  0  0  0  0  0  0
   -3.8207   23.7800  -28.6648 H   0  0  0  0  0  0  0  0  0  0  0  0
   -2.6546   22.6921  -27.7990 H   0  0  0  0  0  0  0  0  0  0  0  0
   -3.2700   24.9540  -30.9110 H   0  0  0  0  0  0  0  0  0  0  0  0
   -8.0875   24.5680  -31.0449 H   0  0  0  0  0  0  0  0  0  0  0  0
   -9.5504   22.1957  -31.7032 H   0  0  0  0  0  0  0  0  0  0  0  0
   -9.2691   19.7425  -32.1897 H   0  0  0  0  0  0  0  0  0  0  0  0
   -6.4647   18.1902  -33.2173 H   0  0  0  0  0  0  0  0  0  0  0  0
   -4.9644   20.1204  -31.6017 H   0  0  0  0  0  0  0  0  0  0  0  0
  1  2  1  0
  2  3  1  0
  3  4  2  0
  3  5  1  0
  5  6  1  0
  6  7  1  0
  7  8  2  0
  7  9  1  0
  2 10  1  0
 10 11  1  0
 11 12  1  0
 12 13  2  0
 12 14  1  0
 10 15  1  0
 15 16  2  0
 15 17  1  0
 17 18  1  0
 18 19  1  0
 19 20  1  0
 19 21  2  0
 18 22  2  0
 22 23  1  0
 23 24  2  0
 24 25  1  0
 25 26  2  0
 26 27  1  0
 27 28  1  0
 27 29  1  0
 26 30  1  0
 30 31  2  0
 31 17  1  0
 31 23  1  0
  1 32  1  0
  1 33  1  0
  1 34  1  0
  2 35  1  6
  5 36  1  0
  5 37  1  0
  6 38  1  0
 10 39  1  1
 11 40  1  0
 11 41  1  0
 20 42  1  0
 22 43  1  0
 24 44  1  0
 25 45  1  0
 27 46  1  0
 30 47  1  0
M  CHG  4   2   1   9  -1  14  -1  20  -1
M  END
>  <UniqueID>  (60) 
60

>  <SMILES>  (60) 
C[N@@H+](C(=O)CNC(=O)[O-])[C@@H](CC(=O)[O-])C(=O)n1c(C([NH-])=O)cc2ccc(C(F)F)cc21

>  <Energy>  (60) 
87.68751168912853

>  <Genealogy>  (60) 
C[NH+](C(=O)CNC(=O)[O-])[C@@H](CC(=O)[O-])C(=O)n1c(C([NH-])=O)cc2ccc(C(F)F)cc21 (protonated)
C[N@@H+](C(=O)CNC(=O)[O-])[C@@H](CC(=O)[O-])C(=O)n1c(C([NH-])=O)cc2ccc(C(F)F)cc21 (chirality)
C[N@@H+](C(=O)CNC(=O)[O-])[C@@H](CC(=O)[O-])C(=O)n1c(C([NH-])=O)cc2ccc(C(F)F)cc21 (3D coordinates assigned)
C[N@@H+](C(=O)CNC(=O)[O-])[C@@H](CC(=O)[O-])C(=O)n1c(C([NH-])=O)cc2ccc(C(F)F)cc21 (optimized conformer: 87.68751168912853 kcal/mol)

>  <smiles>  (60) 
CN(C(=O)CNC(=O)O)[C@@H](CC(=O)O)C(=O)n1c(C(N)=O)cc2ccc(C(F)F)cc21

>  <score_type>  (60) 
oracle

>  <origin>  (60) 
adg

>  <m_score__min__energy>  (60) 
-11.970000000000001

>  <m_primary>  (60) 
energy

$$$$
61:0
     RDKit          3D

 42 44  0  0  0  0  0  0  0  0999 V2000
   -3.4120   16.3420  -34.2280 H   0  0  0  0  0  0  0  0  0  0  0  0
   -4.0360   15.6320  -33.7840 N   0  0  0  0  0  0  0  0  0  0  0  0
   -5.4510   15.8130  -33.7590 C   0  0  0  0  0  0  0  0  0  0  0  0
   -6.1950   14.9110  -34.2280 O   0  0  0  0  0  0  0  0  0  0  0  0
   -6.0490   17.0580  -33.2370 C   0  0  0  0  0  0  0  0  0  0  0  0
   -7.2320   17.0950  -32.5030 C   0  0  0  0  0  0  0  0  0  0  0  0
   -7.8354   16.2388  -32.1671 H   0  0  0  0  0  0  0  0  0  0  0  0
   -7.4860   18.4310  -32.2870 C   0  0  0  0  0  0  0  0  0  0  0  0
   -8.5290   19.0470  -31.6030 C   0  0  0  0  0  0  0  0  0  0  0  0
   -9.3343   18.4541  -31.1448 H   0  0  0  0  0  0  0  0  0  0  0  0
   -8.5230   20.4500  -31.5150 C   0  0  0  0  0  0  0  0  0  0  0  0
   -9.3379   20.9642  -30.9845 H   0  0  0  0  0  0  0  0  0  0  0  0
   -7.4770   21.2130  -32.1030 C   0  0  0  0  0  0  0  0  0  0  0  0
   -7.4640   22.6550  -32.0010 N   0  0  0  0  0  0  0  0  0  0  0  0
   -6.3350   23.3260  -31.4100 C   0  0  0  0  0  0  0  0  0  0  0  0
   -5.0570   22.7440  -31.4640 C   0  0  0  0  0  0  0  0  0  0  0  0
   -4.9213   21.7668  -31.9504 H   0  0  0  0  0  0  0  0  0  0  0  0
   -3.9570   23.4000  -30.9030 C   0  0  0  0  0  0  0  0  0  0  0  0
   -2.9603   22.9365  -30.9464 H   0  0  0  0  0  0  0  0  0  0  0  0
   -4.1220   24.6440  -30.2870 C   0  0  0  0  0  0  0  0  0  0  0  0
   -3.0290   25.2960  -29.7310 O   0  0  0  0  0  0  0  0  0  0  0  0
   -5.3900   25.2330  -30.2320 C   0  0  0  0  0  0  0  0  0  0  0  0
   -5.5205   26.2121  -29.7479 H   0  0  0  0  0  0  0  0  0  0  0  0
   -6.4920   24.5780  -30.7920 C   0  0  0  0  0  0  0  0  0  0  0  0
   -7.4867   25.0456  -30.7483 H   0  0  0  0  0  0  0  0  0  0  0  0
   -8.6630   23.4340  -32.3320 C   0  0  0  0  0  0  0  0  0  0  0  0
   -9.1587   23.7560  -31.4043 H   0  0  0  0  0  0  0  0  0  0  0  0
   -8.3752   24.3180  -32.9199 H   0  0  0  0  0  0  0  0  0  0  0  0
   -9.3538   22.8118  -32.9199 H   0  0  0  0  0  0  0  0  0  0  0  0
   -6.4380   20.5440  -32.7930 C   0  0  0  0  0  0  0  0  0  0  0  0
   -5.6164   21.1098  -33.2565 H   0  0  0  0  0  0  0  0  0  0  0  0
   -6.4780   19.1480  -32.8730 C   0  0  0  0  0  0  0  0  0  0  0  0
   -5.5850   18.3210  -33.4560 N   0  0  0  0  0  0  0  0  0  0  0  0
   -4.3600   18.7190  -34.0910 C   0  0  0  0  0  0  0  0  0  0  0  0
   -4.0260   18.1840  -35.1830 O   0  0  0  0  0  0  0  0  0  0  0  0
   -3.5290   19.7820  -33.4930 C   0  0  0  0  0  0  0  0  0  0  0  0
   -3.8847   20.2832  -32.5807 H   0  0  0  0  0  0  0  0  0  0  0  0
   -2.3580   20.1580  -34.0210 C   0  0  0  0  0  0  0  0  0  0  0  0
   -2.0020   19.6570  -34.9333 H   0  0  0  0  0  0  0  0  0  0  0  0
   -1.5300   21.2180  -33.4240 C   0  0  0  0  0  0  0  0  0  0  0  0
   -1.7340   21.6190  -32.2470 O   0  0  0  0  0  0  0  0  0  0  0  0
   -0.5060   21.7860  -34.1710 O   0  0  0  0  0  0  0  0  0  0  0  0
  1  2  1  0
  2  3  1  0
  3  4  2  0
  3  5  1  0
  5  6  2  0
  6  7  1  0
  6  8  1  0
  8  9  2  0
  9 10  1  0
  9 11  1  0
 11 12  1  0
 11 13  2  0
 13 14  1  0
 14 15  1  0
 15 16  2  0
 16 17  1  0
 16 18  1  0
 18 19  1  0
 18 20  2  0
 20 21  1  0
 20 22  1  0
 22 23  1  0
 22 24  2  0
 24 25  1  0
 14 26  1  0
 26 27  1  0
 26 28  1  0
 26 29  1  0
 13 30  1  0
 30 31  1  0
 30 32  2  0
 32 33  1  0
 33 34  1  0
 34 35  2  0
 34 36  1  0
 36 37  1  0
 36 38  2  0
 38 39  1  0
 38 40  1  0
 40 41  2  0
 40 42  1  0
 33  5  1  0
 32  8  1  0
 24 15  1  0
M  CHG  3   2  -1  21  -1  42  -1
M  END
>  <UniqueID>  (61) 
61

>  <SMILES>  (61) 
CN(c1ccc([O-])cc1)c1ccc2cc(C([NH-])=O)n(C(=O)/C=C/C(=O)[O-])c2c1

>  <Energy>  (61) 
91.25751950823731

>  <Genealogy>  (61) 
CN(c1ccc([O-])cc1)c1ccc2cc(C([NH-])=O)n(C(=O)/C=C/C(=O)[O-])c2c1 (protonated)
CN(c1ccc([O-])cc1)c1ccc2cc(C([NH-])=O)n(C(=O)/C=C/C(=O)[O-])c2c1 (cis-trans isomerization)
CN(c1ccc([O-])cc1)c1ccc2cc(C([NH-])=O)n(C(=O)/C=C/C(=O)[O-])c2c1 (3D coordinates assigned)
CN(c1ccc([O-])cc1)c1ccc2cc(C([NH-])=O)n(C(=O)/C=C/C(=O)[O-])c2c1 (optimized conformer: 91.25751950823731 kcal/mol)

>  <smiles>  (61) 
CN(c1ccc(O)cc1)c1ccc2cc(C(N)=O)n(C(=O)/C=C/C(=O)O)c2c1

>  <score_type>  (61) 
oracle

>  <origin>  (61) 
adg

>  <m_score__min__energy>  (61) 
-12.539999999999999

>  <m_primary>  (61) 
energy

$$$$
62:0
     RDKit          3D

 39 40  0  0  0  0  0  0  0  0999 V2000
   -6.1220   17.4740  -31.0430 C   0  0  0  0  0  0  0  0  0  0  0  0
   -6.7520   18.2790  -32.0880 N   0  0  0  0  0  0  0  0  0  0  0  0
   -6.8800   17.7320  -33.4440 C   0  0  0  0  0  0  0  0  0  0  0  0
   -5.8100   18.3120  -34.3700 C   0  0  0  0  0  0  0  0  0  0  0  0
   -6.0840   19.6580  -34.6430 O   0  0  0  0  0  0  0  0  0  0  0  0
   -6.9150   19.6880  -31.8780 C   0  0  0  0  0  0  0  0  0  0  0  0
   -8.1820   20.2910  -32.0660 C   0  0  0  0  0  0  0  0  0  0  0  0
   -8.3480   21.6740  -31.8760 C   0  0  0  0  0  0  0  0  0  0  0  0
   -7.2360   22.4190  -31.4950 C   0  0  0  0  0  0  0  0  0  0  0  0
   -7.1110   23.7690  -31.2590 C   0  0  0  0  0  0  0  0  0  0  0  0
   -5.7750   23.9630  -30.9110 C   0  0  0  0  0  0  0  0  0  0  0  0
   -5.2270   25.2680  -30.4850 C   0  0  0  0  0  0  0  0  0  0  0  0
   -3.9210   25.6580  -30.9030 N   0  0  0  0  0  0  0  0  0  0  0  0
   -5.9120   26.0600  -29.7870 O   0  0  0  0  0  0  0  0  0  0  0  0
   -5.0980   22.7790  -30.9400 N   0  0  0  0  0  0  0  0  0  0  0  0
   -3.7040   22.5450  -30.6830 C   0  0  0  0  0  0  0  0  0  0  0  0
   -3.1090   21.5870  -31.2470 O   0  0  0  0  0  0  0  0  0  0  0  0
   -3.0220   23.3650  -29.7800 O   0  0  0  0  0  0  0  0  0  0  0  0
   -1.7000   23.0910  -29.3310 C   0  0  0  0  0  0  0  0  0  0  0  0
   -1.0050   24.3790  -29.0450 C   0  0  0  0  0  0  0  0  0  0  0  0
    0.1800   24.3800  -28.6220 O   0  0  0  0  0  0  0  0  0  0  0  0
   -1.6470   25.5840  -29.2990 O   0  0  0  0  0  0  0  0  0  0  0  0
   -6.0070   21.8440  -31.2970 C   0  0  0  0  0  0  0  0  0  0  0  0
   -5.8070   20.4750  -31.5040 C   0  0  0  0  0  0  0  0  0  0  0  0
   -6.4209   17.8559  -30.0557 H   0  0  0  0  0  0  0  0  0  0  0  0
   -6.4428   16.4266  -31.1435 H   0  0  0  0  0  0  0  0  0  0  0  0
   -5.0282   17.5337  -31.1435 H   0  0  0  0  0  0  0  0  0  0  0  0
   -6.7668   16.6386  -33.4034 H   0  0  0  0  0  0  0  0  0  0  0  0
   -7.8704   18.0015  -33.8395 H   0  0  0  0  0  0  0  0  0  0  0  0
   -4.8267   18.2329  -33.8833 H   0  0  0  0  0  0  0  0  0  0  0  0
   -5.8084   17.7476  -35.3142 H   0  0  0  0  0  0  0  0  0  0  0  0
   -6.9580   19.6810  -35.1130 H   0  0  0  0  0  0  0  0  0  0  0  0
   -9.0424   19.6732  -32.3628 H   0  0  0  0  0  0  0  0  0  0  0  0
   -9.3272   22.1528  -32.0240 H   0  0  0  0  0  0  0  0  0  0  0  0
   -7.8987   24.5335  -31.3299 H   0  0  0  0  0  0  0  0  0  0  0  0
   -3.0710   25.2910  -30.4220 H   0  0  0  0  0  0  0  0  0  0  0  0
   -1.7406   22.4831  -28.4151 H   0  0  0  0  0  0  0  0  0  0  0  0
   -1.1516   22.5387  -30.1083 H   0  0  0  0  0  0  0  0  0  0  0  0
   -4.8114   20.0246  -31.3782 H   0  0  0  0  0  0  0  0  0  0  0  0
  1  2  1  0
  2  3  1  0
  3  4  1  0
  4  5  1  0
  2  6  1  0
  6  7  2  0
  7  8  1  0
  8  9  2  0
  9 10  1  0
 10 11  2  0
 11 12  1  0
 12 13  1  0
 12 14  2  0
 11 15  1  0
 15 16  1  0
 16 17  2  0
 16 18  1  0
 18 19  1  0
 19 20  1  0
 20 21  2  0
 20 22  1  0
 15 23  1  0
 23 24  2  0
 24  6  1  0
 23  9  1  0
  1 25  1  0
  1 26  1  0
  1 27  1  0
  3 28  1  0
  3 29  1  0
  4 30  1  0
  4 31  1  0
  5 32  1  0
  7 33  1  0
  8 34  1  0
 10 35  1  0
 13 36  1  0
 19 37  1  0
 19 38  1  0
 24 39  1  0
M  CHG  2  13  -1  22  -1
M  END
>  <UniqueID>  (62) 
62

>  <SMILES>  (62) 
CN(CCO)c1ccc2cc(C([NH-])=O)n(C(=O)OCC(=O)[O-])c2c1

>  <Energy>  (62) 
75.84932119841618

>  <Genealogy>  (62) 
CN(CCO)c1ccc2cc(C([NH-])=O)n(C(=O)OCC(=O)[O-])c2c1 (protonated)
CN(CCO)c1ccc2cc(C([NH-])=O)n(C(=O)OCC(=O)[O-])c2c1 (3D coordinates assigned)
CN(CCO)c1ccc2cc(C([NH-])=O)n(C(=O)OCC(=O)[O-])c2c1 (optimized conformer: 75.84932119841618 kcal/mol)

>  <smiles>  (62) 
CN(CCO)c1ccc2cc(C(N)=O)n(C(=O)OCC(=O)O)c2c1

>  <score_type>  (62) 
oracle

>  <origin>  (62) 
adg

>  <m_score__min__energy>  (62) 
-12.19

>  <m_primary>  (62) 
energy

$$$$
63:0
     RDKit          3D

 45 46  0  0  0  0  0  0  0  0999 V2000
   -4.1650   17.4720  -34.9230 C   0  0  0  0  0  0  0  0  0  0  0  0
   -5.4640   16.8960  -34.9910 O   0  0  0  0  0  0  0  0  0  0  0  0
   -6.1600   16.4720  -33.8550 C   0  0  0  0  0  0  0  0  0  0  0  0
   -6.1630   15.2560  -33.5180 O   0  0  0  0  0  0  0  0  0  0  0  0
   -6.8800   17.4770  -33.0120 C   0  0  0  0  0  0  0  0  0  0  0  0
   -6.8700   18.7880  -33.6590 N   0  0  0  0  0  0  0  0  0  0  0  0
   -7.0530   20.0400  -32.9670 C   0  0  0  0  0  0  0  0  0  0  0  0
   -8.3450   20.5180  -32.6150 C   0  0  0  0  0  0  0  0  0  0  0  0
   -8.4990   21.7370  -31.9330 C   0  0  0  0  0  0  0  0  0  0  0  0
   -7.3530   22.4580  -31.6190 C   0  0  0  0  0  0  0  0  0  0  0  0
   -7.2140   23.6480  -30.9410 C   0  0  0  0  0  0  0  0  0  0  0  0
   -5.8440   23.8930  -30.9020 C   0  0  0  0  0  0  0  0  0  0  0  0
   -5.2520   25.1210  -30.3310 C   0  0  0  0  0  0  0  0  0  0  0  0
   -4.0260   25.6270  -30.8530 N   0  0  0  0  0  0  0  0  0  0  0  0
   -5.7980   25.7090  -29.3610 O   0  0  0  0  0  0  0  0  0  0  0  0
   -5.1610   22.8910  -31.5250 N   0  0  0  0  0  0  0  0  0  0  0  0
   -3.7380   22.7320  -31.6260 C   0  0  0  0  0  0  0  0  0  0  0  0
   -3.2400   22.2050  -32.6570 O   0  0  0  0  0  0  0  0  0  0  0  0
   -2.9210   23.1460  -30.5630 O   0  0  0  0  0  0  0  0  0  0  0  0
   -2.7340   22.4600  -29.3150 C   0  0  0  0  0  0  0  0  0  0  0  0
   -3.8490   22.8300  -28.3190 C   0  0  0  0  0  0  0  0  0  0  0  0
   -2.8120   20.9540  -29.6110 C   0  0  0  0  0  0  0  0  0  0  0  0
   -1.3480   22.7810  -28.7240 C   0  0  0  0  0  0  0  0  0  0  0  0
   -6.1000   22.0220  -31.9590 C   0  0  0  0  0  0  0  0  0  0  0  0
   -5.9160   20.8040  -32.6230 C   0  0  0  0  0  0  0  0  0  0  0  0
   -3.8755   17.6004  -33.8696 H   0  0  0  0  0  0  0  0  0  0  0  0
   -3.4435   16.8095  -35.4234 H   0  0  0  0  0  0  0  0  0  0  0  0
   -4.1716   18.4516  -35.4234 H   0  0  0  0  0  0  0  0  0  0  0  0
   -7.9210   17.1512  -32.8699 H   0  0  0  0  0  0  0  0  0  0  0  0
   -6.3717   17.5558  -32.0397 H   0  0  0  0  0  0  0  0  0  0  0  0
   -6.7280   18.8080  -34.6940 H   0  0  0  0  0  0  0  0  0  0  0  0
   -9.2341   19.9269  -32.8795 H   0  0  0  0  0  0  0  0  0  0  0  0
   -9.4963   22.1093  -31.6560 H   0  0  0  0  0  0  0  0  0  0  0  0
   -8.0153   24.2727  -30.5195 H   0  0  0  0  0  0  0  0  0  0  0  0
   -3.1070   25.2790  -30.5000 H   0  0  0  0  0  0  0  0  0  0  0  0
   -3.4779   22.7069  -27.2908 H   0  0  0  0  0  0  0  0  0  0  0  0
   -4.1498   23.8761  -28.4774 H   0  0  0  0  0  0  0  0  0  0  0  0
   -4.7156   22.1713  -28.4774 H   0  0  0  0  0  0  0  0  0  0  0  0
   -2.8409   20.3952  -28.6639 H   0  0  0  0  0  0  0  0  0  0  0  0
   -3.7224   20.7409  -30.1905 H   0  0  0  0  0  0  0  0  0  0  0  0
   -1.9285   20.6480  -30.1905 H   0  0  0  0  0  0  0  0  0  0  0  0
   -1.4057   22.7676  -27.6256 H   0  0  0  0  0  0  0  0  0  0  0  0
   -0.6217   22.0273  -29.0622 H   0  0  0  0  0  0  0  0  0  0  0  0
   -1.0270   23.7773  -29.0622 H   0  0  0  0  0  0  0  0  0  0  0  0
   -4.9053   20.4485  -32.8722 H   0  0  0  0  0  0  0  0  0  0  0  0
  1  2  1  0
  2  3  1  0
  3  4  2  0
  3  5  1  0
  5  6  1  0
  6  7  1  0
  7  8  2  0
  8  9  1  0
  9 10  2  0
 10 11  1  0
 11 12  2  0
 12 13  1  0
 13 14  1  0
 13 15  2  0
 12 16  1  0
 16 17  1  0
 17 18  2  0
 17 19  1  0
 19 20  1  0
 20 21  1  0
 20 22  1  0
 20 23  1  0
 16 24  1  0
 24 25  2  0
 25  7  1  0
 24 10  1  0
  1 26  1  0
  1 27  1  0
  1 28  1  0
  5 29  1  0
  5 30  1  0
  6 31  1  0
  8 32  1  0
  9 33  1  0
 11 34  1  0
 14 35  1  0
 21 36  1  0
 21 37  1  0
 21 38  1  0
 22 39  1  0
 22 40  1  0
 22 41  1  0
 23 42  1  0
 23 43  1  0
 23 44  1  0
 25 45  1  0
M  CHG  1  14  -1
M  END
>  <UniqueID>  (63) 
63

>  <SMILES>  (63) 
COC(=O)CNc1ccc2cc(C([NH-])=O)n(C(=O)OC(C)(C)C)c2c1

>  <Energy>  (63) 
74.95697905274902

>  <Genealogy>  (63) 
COC(=O)CNc1ccc2cc(C([NH-])=O)n(C(=O)OC(C)(C)C)c2c1 (protonated)
COC(=O)CNc1ccc2cc(C([NH-])=O)n(C(=O)OC(C)(C)C)c2c1 (3D coordinates assigned)
COC(=O)CNc1ccc2cc(C([NH-])=O)n(C(=O)OC(C)(C)C)c2c1 (optimized conformer: 74.95697905274902 kcal/mol)

>  <smiles>  (63) 
COC(=O)CNc1ccc2cc(C(N)=O)n(C(=O)OC(C)(C)C)c2c1

>  <score_type>  (63) 
oracle

>  <origin>  (63) 
adg

>  <m_score__min__energy>  (63) 
-9.7599999999999998

>  <m_primary>  (63) 
energy

$$$$
64:0
     RDKit          3D

 44 47  0  0  0  0  0  0  0  0999 V2000
   -4.0170   25.6740  -30.8630 N   0  0  0  0  0  0  0  0  0  0  0  0
   -5.3000   25.2030  -30.4590 C   0  0  0  0  0  0  0  0  0  0  0  0
   -6.0110   25.9190  -29.7060 O   0  0  0  0  0  0  0  0  0  0  0  0
   -5.7650   23.8680  -30.8960 C   0  0  0  0  0  0  0  0  0  0  0  0
   -7.1040   23.5570  -31.1250 C   0  0  0  0  0  0  0  0  0  0  0  0
   -7.1020   22.2640  -31.5930 C   0  0  0  0  0  0  0  0  0  0  0  0
   -8.1640   21.4460  -31.9640 C   0  0  0  0  0  0  0  0  0  0  0  0
   -7.8740   20.1370  -32.3840 C   0  0  0  0  0  0  0  0  0  0  0  0
   -6.5340   19.6670  -32.4220 C   0  0  0  0  0  0  0  0  0  0  0  0
   -6.2250   18.3180  -32.8330 N   0  0  0  0  0  0  0  0  0  0  0  0
   -6.5180   17.7110  -34.1210 C   0  0  1  0  0  0  0  0  0  0  0  0
   -5.3160   18.1300  -34.9840 C   0  0  0  0  0  0  0  0  0  0  0  0
   -4.1850   18.1520  -33.9440 C   0  0  0  0  0  0  0  0  0  0  0  0
   -4.9240   17.6940  -32.6740 C   0  0  2  0  0  0  0  0  0  0  0  0
   -5.2820   16.1980  -32.7610 C   0  0  2  0  0  0  0  0  0  0  0  0
   -4.1820   15.3780  -33.0830 O   0  0  0  0  0  0  0  0  0  0  0  0
   -6.4090   16.2090  -33.8170 C   0  0  0  0  0  0  0  0  0  0  0  0
   -5.4860   20.5280  -32.0250 C   0  0  0  0  0  0  0  0  0  0  0  0
   -5.8030   21.8320  -31.6320 C   0  0  0  0  0  0  0  0  0  0  0  0
   -4.9680   22.8060  -31.2040 N   0  0  0  0  0  0  0  0  0  0  0  0
   -3.5430   22.7030  -31.0620 C   0  0  0  0  0  0  0  0  0  0  0  0
   -2.8730   22.0380  -31.8970 O   0  0  0  0  0  0  0  0  0  0  0  0
   -2.8830   23.3730  -29.9810 N   0  0  0  0  0  0  0  0  0  0  0  0
   -1.4680   23.2060  -29.6730 C   0  0  0  0  0  0  0  0  0  0  0  0
   -0.8990   24.4830  -29.1440 C   0  0  0  0  0  0  0  0  0  0  0  0
    0.2320   24.4910  -28.5950 O   0  0  0  0  0  0  0  0  0  0  0  0
   -1.6040   25.6720  -29.2870 O   0  0  0  0  0  0  0  0  0  0  0  0
   -3.1460   25.2890  -30.4350 H   0  0  0  0  0  0  0  0  0  0  0  0
   -7.9767   24.2074  -30.9654 H   0  0  0  0  0  0  0  0  0  0  0  0
   -9.2004   21.8131  -31.9296 H   0  0  0  0  0  0  0  0  0  0  0  0
   -8.6936   19.4687  -32.6867 H   0  0  0  0  0  0  0  0  0  0  0  0
   -7.4753   17.9722  -34.5957 H   0  0  0  0  0  0  0  0  0  0  0  0
   -5.1168   17.3962  -35.7789 H   0  0  0  0  0  0  0  0  0  0  0  0
   -5.4557   19.0832  -35.5149 H   0  0  0  0  0  0  0  0  0  0  0  0
   -3.3786   17.4539  -34.2130 H   0  0  0  0  0  0  0  0  0  0  0  0
   -3.6870   19.1278  -33.8448 H   0  0  0  0  0  0  0  0  0  0  0  0
   -4.3341   17.9156  -31.7724 H   0  0  0  0  0  0  0  0  0  0  0  0
   -5.5984   15.7553  -31.8050 H   0  0  0  0  0  0  0  0  0  0  0  0
   -3.3420   15.8740  -32.9050 H   0  0  0  0  0  0  0  0  0  0  0  0
   -6.1278   15.6357  -34.7127 H   0  0  0  0  0  0  0  0  0  0  0  0
   -7.3486   15.7472  -33.4795 H   0  0  0  0  0  0  0  0  0  0  0  0
   -4.4426   20.1796  -32.0251 H   0  0  0  0  0  0  0  0  0  0  0  0
   -1.3519   22.4159  -28.9165 H   0  0  0  0  0  0  0  0  0  0  0  0
   -0.9316   22.9285  -30.5924 H   0  0  0  0  0  0  0  0  0  0  0  0
  1  2  1  0
  2  3  2  0
  2  4  1  0
  4  5  2  0
  5  6  1  0
  6  7  2  0
  7  8  1  0
  8  9  2  0
  9 10  1  0
 10 11  1  0
 11 12  1  0
 12 13  1  0
 13 14  1  0
 14 15  1  0
 15 16  1  0
 15 17  1  0
  9 18  1  0
 18 19  2  0
 19 20  1  0
 20 21  1  0
 21 22  2  0
 21 23  1  0
 23 24  1  0
 24 25  1  0
 25 26  2  0
 25 27  1  0
 20  4  1  0
 19  6  1  0
 14 10  1  0
 17 11  1  0
  1 28  1  0
  5 29  1  0
  7 30  1  0
  8 31  1  0
 11 32  1  6
 12 33  1  0
 12 34  1  0
 13 35  1  0
 13 36  1  0
 14 37  1  1
 15 38  1  1
 16 39  1  0
 17 40  1  0
 17 41  1  0
 18 42  1  0
 24 43  1  0
 24 44  1  0
M  CHG  3   1  -1  23  -1  27  -1
M  END
>  <UniqueID>  (64) 
64

>  <SMILES>  (64) 
[NH-]C(=O)c1cc2ccc(N3[C@H]4CC[C@@H]3C(O)C4)cc2n1C(=O)[N-]CC(=O)[O-]

>  <Energy>  (64) 
125.2518832001648

>  <Genealogy>  (64) 
[NH-]C(=O)c1cc2ccc(N3C4CCC3C(O)C4)cc2n1C(=O)[N-]CC(=O)[O-] (protonated)
[NH-]C(=O)c1cc2ccc(N3[C@H]4CC[C@@H]3C(O)C4)cc2n1C(=O)[N-]CC(=O)[O-] (chirality)
[NH-]C(=O)c1cc2ccc(N3[C@H]4CC[C@@H]3C(O)C4)cc2n1C(=O)[N-]CC(=O)[O-] (3D coordinates assigned)
[NH-]C(=O)c1cc2ccc(N3[C@H]4CC[C@@H]3C(O)C4)cc2n1C(=O)[N-]CC(=O)[O-] (nonaromatic ring conformer: 125.2518832001648 kcal/mol)

>  <smiles>  (64) 
NC(=O)c1cc2ccc(N3C4CCC3C(O)C4)cc2n1C(=O)NCC(=O)O

>  <score_type>  (64) 
oracle

>  <origin>  (64) 
adg

>  <m_score__min__energy>  (64) 
-14

>  <m_primary>  (64) 
energy

$$$$
65:0
     RDKit          3D

 41 42  0  0  0  0  0  0  0  0999 V2000
   -3.8670   25.3390  -30.5230 N   0  0  0  0  0  0  0  0  0  0  0  0
   -5.2610   25.1330  -30.3080 C   0  0  0  0  0  0  0  0  0  0  0  0
   -5.9230   26.0040  -29.6840 O   0  0  0  0  0  0  0  0  0  0  0  0
   -5.9180   23.9260  -30.8530 C   0  0  0  0  0  0  0  0  0  0  0  0
   -7.2800   23.8580  -31.1380 C   0  0  0  0  0  0  0  0  0  0  0  0
   -7.5070   22.5610  -31.5340 C   0  0  0  0  0  0  0  0  0  0  0  0
   -8.6830   21.9440  -31.9490 C   0  0  0  0  0  0  0  0  0  0  0  0
   -8.6200   20.5950  -32.3330 C   0  0  0  0  0  0  0  0  0  0  0  0
   -7.3900   19.8900  -32.2970 C   0  0  0  0  0  0  0  0  0  0  0  0
   -7.3300   18.4580  -32.7560 C   0  0  0  0  0  0  0  0  0  0  0  0
   -6.1300   18.2150  -33.6750 C   0  0  0  0  0  0  0  0  0  0  0  0
   -6.1000   19.1580  -34.7130 O   0  0  0  0  0  0  0  0  0  0  0  0
   -6.2150   20.5530  -31.8800 C   0  0  0  0  0  0  0  0  0  0  0  0
   -6.3100   21.8930  -31.4850 C   0  0  0  0  0  0  0  0  0  0  0  0
   -5.3230   22.7180  -31.0730 N   0  0  0  0  0  0  0  0  0  0  0  0
   -3.9310   22.3840  -30.9530 C   0  0  0  0  0  0  0  0  0  0  0  0
   -3.0690   23.0510  -31.5850 O   0  0  0  0  0  0  0  0  0  0  0  0
   -3.5470   21.3000  -30.1540 O   0  0  0  0  0  0  0  0  0  0  0  0
   -2.9780   21.4310  -28.8510 C   0  0  0  0  0  0  0  0  0  0  0  0
   -3.8640   22.3020  -27.9500 C   0  0  0  0  0  0  0  0  0  0  0  0
   -3.3140   23.7180  -27.7110 C   0  0  0  0  0  0  0  0  0  0  0  0
   -1.9970   23.9720  -28.4440 C   0  0  0  0  0  0  0  0  0  0  0  0
   -0.9030   25.5280  -27.4690 I   0  0  0  0  0  0  0  0  0  0  0  0
   -3.5290   26.0250  -31.2350 H   0  0  0  0  0  0  0  0  0  0  0  0
   -8.0179   24.6703  -31.0622 H   0  0  0  0  0  0  0  0  0  0  0  0
   -9.6337   22.4966  -31.9755 H   0  0  0  0  0  0  0  0  0  0  0  0
   -9.5335   20.0799  -32.6650 H   0  0  0  0  0  0  0  0  0  0  0  0
   -7.2450   17.8035  -31.8760 H   0  0  0  0  0  0  0  0  0  0  0  0
   -8.2481   18.2369  -33.3202 H   0  0  0  0  0  0  0  0  0  0  0  0
   -5.2035   18.2954  -33.0876 H   0  0  0  0  0  0  0  0  0  0  0  0
   -6.2187   17.2100  -34.1134 H   0  0  0  0  0  0  0  0  0  0  0  0
   -7.0450   19.3660  -34.9390 H   0  0  0  0  0  0  0  0  0  0  0  0
   -5.2479   20.0291  -31.8658 H   0  0  0  0  0  0  0  0  0  0  0  0
   -2.8775   20.4327  -28.4001 H   0  0  0  0  0  0  0  0  0  0  0  0
   -1.9931   21.9118  -28.9450 H   0  0  0  0  0  0  0  0  0  0  0  0
   -4.8543   22.3906  -28.4206 H   0  0  0  0  0  0  0  0  0  0  0  0
   -3.9036   21.8066  -26.9687 H   0  0  0  0  0  0  0  0  0  0  0  0
   -4.0582   24.4482  -28.0617 H   0  0  0  0  0  0  0  0  0  0  0  0
   -3.1190   23.8206  -26.6333 H   0  0  0  0  0  0  0  0  0  0  0  0
   -1.3969   23.0501  -28.4440 H   0  0  0  0  0  0  0  0  0  0  0  0
   -2.2134   24.2774  -29.4784 H   0  0  0  0  0  0  0  0  0  0  0  0
  1  2  1  0
  2  3  2  0
  2  4  1  0
  4  5  2  0
  5  6  1  0
  6  7  2  0
  7  8  1  0
  8  9  2  0
  9 10  1  0
 10 11  1  0
 11 12  1  0
  9 13  1  0
 13 14  2  0
 14 15  1  0
 15 16  1  0
 16 17  2  0
 16 18  1  0
 18 19  1  0
 19 20  1  0
 20 21  1  0
 21 22  1  0
 22 23  1  0
 15  4  1  0
 14  6  1  0
  1 24  1  0
  5 25  1  0
  7 26  1  0
  8 27  1  0
 10 28  1  0
 10 29  1  0
 11 30  1  0
 11 31  1  0
 12 32  1  0
 13 33  1  0
 19 34  1  0
 19 35  1  0
 20 36  1  0
 20 37  1  0
 21 38  1  0
 21 39  1  0
 22 40  1  0
 22 41  1  0
M  CHG  1   1  -1
M  END
>  <UniqueID>  (65) 
65

>  <SMILES>  (65) 
[NH-]C(=O)c1cc2ccc(CCO)cc2n1C(=O)OCCCCI

>  <Energy>  (65) 
70.26329074518605

>  <Genealogy>  (65) 
[NH-]C(=O)c1cc2ccc(CCO)cc2n1C(=O)OCCCCI (protonated)
[NH-]C(=O)c1cc2ccc(CCO)cc2n1C(=O)OCCCCI (3D coordinates assigned)
[NH-]C(=O)c1cc2ccc(CCO)cc2n1C(=O)OCCCCI (optimized conformer: 70.26329074518605 kcal/mol)

>  <smiles>  (65) 
NC(=O)c1cc2ccc(CCO)cc2n1C(=O)OCCCCI

>  <score_type>  (65) 
oracle

>  <origin>  (65) 
adg

>  <m_score__min__energy>  (65) 
-10.42

>  <m_primary>  (65) 
energy

$$$$
66:0
     RDKit          3D

 29 30  0  0  0  0  0  0  0  0999 V2000
   -2.4620   22.5293  -29.1683 H   0  0  0  0  0  0  0  0  0  0  0  0
   -2.3070   23.4700  -29.7170 C   0  0  0  0  0  0  0  0  0  0  0  0
   -2.8620   23.6430  -30.8760 N   0  0  0  0  0  0  0  0  0  0  0  0
   -3.6860   22.6650  -31.5250 C   0  0  0  0  0  0  0  0  0  0  0  0
   -3.1630   21.7200  -32.1770 O   0  0  0  0  0  0  0  0  0  0  0  0
   -5.1180   22.7580  -31.4230 N   0  0  0  0  0  0  0  0  0  0  0  0
   -5.8400   23.6620  -30.7000 C   0  0  0  0  0  0  0  0  0  0  0  0
   -5.2980   24.8480  -30.0090 C   0  0  0  0  0  0  0  0  0  0  0  0
   -5.7950   25.2030  -28.9070 O   0  0  0  0  0  0  0  0  0  0  0  0
   -4.2630   25.6380  -30.5960 N   0  0  0  0  0  0  0  0  0  0  0  0
   -3.9440   25.4690  -31.5750 H   0  0  0  0  0  0  0  0  0  0  0  0
   -3.8620   26.4490  -30.0740 H   0  0  0  0  0  0  0  0  0  0  0  0
   -7.1960   23.3520  -30.7390 C   0  0  0  0  0  0  0  0  0  0  0  0
   -8.0179   23.8912  -30.2454 H   0  0  0  0  0  0  0  0  0  0  0  0
   -7.2900   22.2280  -31.5260 C   0  0  0  0  0  0  0  0  0  0  0  0
   -8.4080   21.4820  -31.8890 C   0  0  0  0  0  0  0  0  0  0  0  0
   -9.4168   21.7771  -31.5646 H   0  0  0  0  0  0  0  0  0  0  0  0
   -8.2070   20.3400  -32.6830 C   0  0  0  0  0  0  0  0  0  0  0  0
   -9.0703   19.7330  -32.9932 H   0  0  0  0  0  0  0  0  0  0  0  0
   -6.9040   19.9640  -33.0870 C   0  0  0  0  0  0  0  0  0  0  0  0
   -6.7130   18.7930  -33.8850 N   0  0  0  0  0  0  0  0  0  0  0  0
   -6.4240   17.8900  -33.4480 H   0  0  0  0  0  0  0  0  0  0  0  0
   -6.8590   18.8220  -34.9190 H   0  0  0  0  0  0  0  0  0  0  0  0
   -5.7930   20.7430  -32.7000 C   0  0  0  0  0  0  0  0  0  0  0  0
   -4.7732   20.4588  -32.9987 H   0  0  0  0  0  0  0  0  0  0  0  0
   -6.0220   21.8870  -31.9260 C   0  0  0  0  0  0  0  0  0  0  0  0
   -1.4740   24.5260  -29.1380 C   0  0  0  0  0  0  0  0  0  0  0  0
   -1.9520   25.6760  -28.9600 O   0  0  0  0  0  0  0  0  0  0  0  0
   -0.1560   24.2660  -28.7810 O   0  0  0  0  0  0  0  0  0  0  0  0
  1  2  1  0
  2  3  2  0
  3  4  1  0
  4  5  2  0
  4  6  1  0
  6  7  1  0
  7  8  1  0
  8  9  2  0
  8 10  1  0
 10 11  1  0
 10 12  1  0
  7 13  2  0
 13 14  1  0
 13 15  1  0
 15 16  2  0
 16 17  1  0
 16 18  1  0
 18 19  1  0
 18 20  2  0
 20 21  1  0
 21 22  1  0
 21 23  1  0
 20 24  1  0
 24 25  1  0
 24 26  2  0
  2 27  1  0
 27 28  2  0
 27 29  1  0
 26  6  1  0
 26 15  1  0
M  CHG  1  29  -1
M  END
>  <UniqueID>  (66) 
66

>  <SMILES>  (66) 
NC(=O)c1cc2ccc(N)cc2n1C(=O)/N=C/C(=O)[O-]

>  <Energy>  (66) 
66.42910240212352

>  <Genealogy>  (66) 
NC(=O)c1cc2ccc(N)cc2n1C(=O)/N=C/C(=O)[O-] (protonated)
NC(=O)c1cc2ccc(N)cc2n1C(=O)/N=C/C(=O)[O-] (cis-trans isomerization)
NC(=O)c1cc2ccc(N)cc2n1C(=O)/N=C/C(=O)[O-] (3D coordinates assigned)
NC(=O)c1cc2ccc(N)cc2n1C(=O)/N=C/C(=O)[O-] (optimized conformer: 66.42910240212352 kcal/mol)

>  <smiles>  (66) 
NC(=O)c1cc2ccc(N)cc2n1C(=O)/N=C/C(=O)O

>  <score_type>  (66) 
oracle

>  <origin>  (66) 
adg

>  <m_score__min__energy>  (66) 
-9.8399999999999999

>  <m_primary>  (66) 
energy

$$$$
67:0
     RDKit          3D

 46 47  0  0  0  0  0  0  0  0999 V2000
   -3.5680   25.1090  -30.8440 N   0  0  0  0  0  0  0  0  0  0  0  0
   -4.9760   25.1360  -30.6250 C   0  0  0  0  0  0  0  0  0  0  0  0
   -5.5210   26.2100  -30.2510 O   0  0  0  0  0  0  0  0  0  0  0  0
   -5.8080   23.9360  -30.8560 C   0  0  0  0  0  0  0  0  0  0  0  0
   -7.1960   23.9190  -30.7240 C   0  0  0  0  0  0  0  0  0  0  0  0
   -7.5820   22.6440  -31.0700 C   0  0  0  0  0  0  0  0  0  0  0  0
   -8.8460   22.0670  -31.0990 C   0  0  0  0  0  0  0  0  0  0  0  0
   -8.9440   20.7160  -31.4690 C   0  0  0  0  0  0  0  0  0  0  0  0
   -7.7860   19.9670  -31.8010 C   0  0  0  0  0  0  0  0  0  0  0  0
   -7.9190   18.5040  -32.1400 C   0  0  0  0  0  0  0  0  0  0  0  0
   -7.5510   18.2530  -33.4500 F   0  0  0  0  0  0  0  0  0  0  0  0
   -9.2320   18.0980  -31.9710 F   0  0  0  0  0  0  0  0  0  0  0  0
   -7.1080   17.7660  -31.2970 F   0  0  0  0  0  0  0  0  0  0  0  0
   -6.5150   20.5870  -31.7390 C   0  0  0  0  0  0  0  0  0  0  0  0
   -6.4510   21.9390  -31.3890 C   0  0  0  0  0  0  0  0  0  0  0  0
   -5.3560   22.7170  -31.2650 N   0  0  0  0  0  0  0  0  0  0  0  0
   -3.9940   22.3130  -31.4720 C   0  0  0  0  0  0  0  0  0  0  0  0
   -3.4380   22.5420  -32.5800 O   0  0  0  0  0  0  0  0  0  0  0  0
   -3.2620   21.5420  -30.4120 C   0  0  0  0  0  0  0  0  0  0  0  0
   -2.4490   22.4530  -29.5400 C   0  0  0  0  0  0  0  0  0  0  0  0
   -1.7770   23.3820  -30.0660 O   0  0  0  0  0  0  0  0  0  0  0  0
   -2.4190   22.2550  -28.1210 N   0  0  0  0  0  0  0  0  0  0  0  0
   -1.5980   23.1000  -27.2520 C   0  0  0  0  0  0  0  0  0  0  0  0
   -1.9910   24.6010  -27.3410 C   0  0  0  0  0  0  0  0  0  0  0  0
   -3.1620   24.7410  -28.1120 O   0  0  0  0  0  0  0  0  0  0  0  0
   -2.2530   25.1460  -25.9130 C   0  0  0  0  0  0  0  0  0  0  0  0
   -3.5610   25.6390  -25.7860 O   0  0  0  0  0  0  0  0  0  0  0  0
   -0.8680   25.4180  -28.0280 C   0  0  0  0  0  0  0  0  0  0  0  0
   -1.2300   25.7950  -29.3320 O   0  0  0  0  0  0  0  0  0  0  0  0
   -2.8990   25.2830  -30.0630 H   0  0  0  0  0  0  0  0  0  0  0  0
   -7.8454   24.7493  -30.4097 H   0  0  0  0  0  0  0  0  0  0  0  0
   -9.7418   22.6505  -30.8402 H   0  0  0  0  0  0  0  0  0  0  0  0
   -9.9314   20.2323  -31.5018 H   0  0  0  0  0  0  0  0  0  0  0  0
   -5.5997   20.0187  -31.9609 H   0  0  0  0  0  0  0  0  0  0  0  0
   -3.9933   21.0072  -29.7882 H   0  0  0  0  0  0  0  0  0  0  0  0
   -2.5804   20.8337  -30.9056 H   0  0  0  0  0  0  0  0  0  0  0  0
   -2.9810   21.4700  -27.7200 H   0  0  0  0  0  0  0  0  0  0  0  0
   -1.7225   22.7634  -26.2122 H   0  0  0  0  0  0  0  0  0  0  0  0
   -0.5534   23.0069  -27.5838 H   0  0  0  0  0  0  0  0  0  0  0  0
   -2.9380   24.5110  -29.0530 H   0  0  0  0  0  0  0  0  0  0  0  0
   -2.1046   24.3333  -25.1867 H   0  0  0  0  0  0  0  0  0  0  0  0
   -1.5514   25.9716  -25.7230 H   0  0  0  0  0  0  0  0  0  0  0  0
   -3.9140   25.7530  -26.7080 H   0  0  0  0  0  0  0  0  0  0  0  0
   -0.6713   26.3238  -27.4356 H   0  0  0  0  0  0  0  0  0  0  0  0
    0.0308   24.7867  -28.0881 H   0  0  0  0  0  0  0  0  0  0  0  0
   -1.6950   25.0180  -29.7400 H   0  0  0  0  0  0  0  0  0  0  0  0
  1  2  1  0
  2  3  2  0
  2  4  1  0
  4  5  2  0
  5  6  1  0
  6  7  2  0
  7  8  1  0
  8  9  2  0
  9 10  1  0
 10 11  1  0
 10 12  1  0
 10 13  1  0
  9 14  1  0
 14 15  2  0
 15 16  1  0
 16 17  1  0
 17 18  2  0
 17 19  1  0
 19 20  1  0
 20 21  2  0
 20 22  1  0
 22 23  1  0
 23 24  1  0
 24 25  1  0
 24 26  1  0
 26 27  1  0
 24 28  1  0
 28 29  1  0
 16  4  1  0
 15  6  1  0
  1 30  1  0
  5 31  1  0
  7 32  1  0
  8 33  1  0
 14 34  1  0
 19 35  1  0
 19 36  1  0
 22 37  1  0
 23 38  1  0
 23 39  1  0
 25 40  1  0
 26 41  1  0
 26 42  1  0
 27 43  1  0
 28 44  1  0
 28 45  1  0
 29 46  1  0
M  CHG  1   1  -1
M  END
>  <UniqueID>  (67) 
67

>  <SMILES>  (67) 
[NH-]C(=O)c1cc2ccc(C(F)(F)F)cc2n1C(=O)CC(=O)NCC(O)(CO)CO

>  <Energy>  (67) 
81.80426619940793

>  <Genealogy>  (67) 
[NH-]C(=O)c1cc2ccc(C(F)(F)F)cc2n1C(=O)CC(=O)NCC(O)(CO)CO (protonated)
[NH-]C(=O)c1cc2ccc(C(F)(F)F)cc2n1C(=O)CC(=O)NCC(O)(CO)CO (3D coordinates assigned)
[NH-]C(=O)c1cc2ccc(C(F)(F)F)cc2n1C(=O)CC(=O)NCC(O)(CO)CO (optimized conformer: 81.80426619940793 kcal/mol)

>  <smiles>  (67) 
NC(=O)c1cc2ccc(C(F)(F)F)cc2n1C(=O)CC(=O)NCC(O)(CO)CO

>  <score_type>  (67) 
oracle

>  <origin>  (67) 
adg

>  <m_score__min__energy>  (67) 
-10.02

>  <m_primary>  (67) 
energy

$$$$
68:0
     RDKit          3D

 39 40  0  0  0  0  0  0  0  0999 V2000
   -2.7520   20.7130  -30.2000 C   0  0  0  0  0  0  0  0  0  0  0  0
   -3.1620   22.1090  -30.3810 N   0  0  0  0  0  0  0  0  0  0  0  0
   -2.6450   23.1240  -29.4980 C   0  0  0  0  0  0  0  0  0  0  0  0
   -3.3430   23.5290  -28.5270 O   0  0  0  0  0  0  0  0  0  0  0  0
   -1.3630   23.6460  -29.7040 O   0  0  0  0  0  0  0  0  0  0  0  0
   -0.4630   23.9680  -28.6450 C   0  0  0  0  0  0  0  0  0  0  0  0
   -0.7490   25.3660  -28.1050 C   0  0  0  0  0  0  0  0  0  0  0  0
   -1.6470   26.0220  -28.9560 O   0  0  0  0  0  0  0  0  0  0  0  0
   -3.9840   22.4720  -31.5060 C   0  0  0  0  0  0  0  0  0  0  0  0
   -3.4880   22.5120  -32.6640 O   0  0  0  0  0  0  0  0  0  0  0  0
   -5.3740   22.7850  -31.3230 N   0  0  0  0  0  0  0  0  0  0  0  0
   -5.9190   23.9680  -30.9260 C   0  0  0  0  0  0  0  0  0  0  0  0
   -5.1680   25.1630  -30.4940 C   0  0  0  0  0  0  0  0  0  0  0  0
   -3.7900   25.2990  -30.8360 N   0  0  0  0  0  0  0  0  0  0  0  0
   -5.7350   26.0810  -29.8440 O   0  0  0  0  0  0  0  0  0  0  0  0
   -7.3120   23.8830  -30.9220 C   0  0  0  0  0  0  0  0  0  0  0  0
   -7.6000   22.6010  -31.3350 C   0  0  0  0  0  0  0  0  0  0  0  0
   -8.8290   21.9760  -31.5280 C   0  0  0  0  0  0  0  0  0  0  0  0
   -8.8270   20.6480  -31.9890 C   0  0  0  0  0  0  0  0  0  0  0  0
   -7.6070   19.9780  -32.2540 C   0  0  0  0  0  0  0  0  0  0  0  0
   -7.6260   18.5630  -32.7590 C   0  0  0  0  0  0  0  0  0  0  0  0
   -7.3680   17.6930  -31.7150 F   0  0  0  0  0  0  0  0  0  0  0  0
   -6.6610   18.4030  -33.7370 F   0  0  0  0  0  0  0  0  0  0  0  0
   -6.3790   20.6460  -32.0500 C   0  0  0  0  0  0  0  0  0  0  0  0
   -6.4130   21.9610  -31.5720 C   0  0  0  0  0  0  0  0  0  0  0  0
   -2.6855   20.4867  -29.1256 H   0  0  0  0  0  0  0  0  0  0  0  0
   -3.4932   20.0494  -30.6693 H   0  0  0  0  0  0  0  0  0  0  0  0
   -1.7697   20.5556  -30.6693 H   0  0  0  0  0  0  0  0  0  0  0  0
   -0.5826   23.2353  -27.8333 H   0  0  0  0  0  0  0  0  0  0  0  0
    0.5660   23.9408  -29.0329 H   0  0  0  0  0  0  0  0  0  0  0  0
   -1.1879   25.2876  -27.0994 H   0  0  0  0  0  0  0  0  0  0  0  0
    0.1896   25.9373  -28.0528 H   0  0  0  0  0  0  0  0  0  0  0  0
   -2.4320   25.4210  -29.0430 H   0  0  0  0  0  0  0  0  0  0  0  0
   -3.0410   25.0850  -30.1410 H   0  0  0  0  0  0  0  0  0  0  0  0
   -8.0276   24.6720  -30.6474 H   0  0  0  0  0  0  0  0  0  0  0  0
   -9.7722   22.5048  -31.3261 H   0  0  0  0  0  0  0  0  0  0  0  0
   -9.7815   20.1241  -32.1455 H   0  0  0  0  0  0  0  0  0  0  0  0
   -8.6172   18.3451  -33.1832 H   0  0  0  0  0  0  0  0  0  0  0  0
   -5.4221   20.1462  -32.2611 H   0  0  0  0  0  0  0  0  0  0  0  0
  1  2  1  0
  2  3  1  0
  3  4  2  0
  3  5  1  0
  5  6  1  0
  6  7  1  0
  7  8  1  0
  2  9  1  0
  9 10  2  0
  9 11  1  0
 11 12  1  0
 12 13  1  0
 13 14  1  0
 13 15  2  0
 12 16  2  0
 16 17  1  0
 17 18  2  0
 18 19  1  0
 19 20  2  0
 20 21  1  0
 21 22  1  0
 21 23  1  0
 20 24  1  0
 24 25  2  0
 25 11  1  0
 25 17  1  0
  1 26  1  0
  1 27  1  0
  1 28  1  0
  6 29  1  0
  6 30  1  0
  7 31  1  0
  7 32  1  0
  8 33  1  0
 14 34  1  0
 16 35  1  0
 18 36  1  0
 19 37  1  0
 21 38  1  0
 24 39  1  0
M  CHG  1  14  -1
M  END
>  <UniqueID>  (68) 
68

>  <SMILES>  (68) 
CN(C(=O)OCCO)C(=O)n1c(C([NH-])=O)cc2ccc(C(F)F)cc21

>  <Energy>  (68) 
74.55897509464523

>  <Genealogy>  (68) 
CN(C(=O)OCCO)C(=O)n1c(C([NH-])=O)cc2ccc(C(F)F)cc21 (protonated)
CN(C(=O)OCCO)C(=O)n1c(C([NH-])=O)cc2ccc(C(F)F)cc21 (3D coordinates assigned)
CN(C(=O)OCCO)C(=O)n1c(C([NH-])=O)cc2ccc(C(F)F)cc21 (optimized conformer: 74.55897509464523 kcal/mol)

>  <smiles>  (68) 
CN(C(=O)OCCO)C(=O)n1c(C(N)=O)cc2ccc(C(F)F)cc21

>  <score_type>  (68) 
oracle

>  <origin>  (68) 
adg

>  <m_score__min__energy>  (68) 
-10.050000000000001

>  <m_primary>  (68) 
energy

$$$$
69:0
     RDKit          3D

 40 41  0  0  0  0  0  0  0  0999 V2000
   -3.8490   25.2840  -30.8310 N   0  0  0  0  0  0  0  0  0  0  0  0
   -5.2520   25.2050  -30.5960 C   0  0  0  0  0  0  0  0  0  0  0  0
   -5.8540   26.2020  -30.1170 O   0  0  0  0  0  0  0  0  0  0  0  0
   -5.9890   23.9740  -30.9450 C   0  0  0  0  0  0  0  0  0  0  0  0
   -7.3690   23.9260  -31.1420 C   0  0  0  0  0  0  0  0  0  0  0  0
   -7.6570   22.6030  -31.3930 C   0  0  0  0  0  0  0  0  0  0  0  0
   -8.8710   21.9910  -31.6930 C   0  0  0  0  0  0  0  0  0  0  0  0
   -8.8630   20.6110  -31.9590 C   0  0  0  0  0  0  0  0  0  0  0  0
   -7.6530   19.8750  -31.9270 C   0  0  0  0  0  0  0  0  0  0  0  0
   -7.6620   18.4060  -32.2410 C   0  0  0  0  0  0  0  0  0  0  0  0
   -6.7190   17.7560  -31.4650 F   0  0  0  0  0  0  0  0  0  0  0  0
   -8.9130   17.8810  -31.9730 F   0  0  0  0  0  0  0  0  0  0  0  0
   -6.4410   20.5310  -31.6200 C   0  0  0  0  0  0  0  0  0  0  0  0
   -6.4800   21.9020  -31.3430 C   0  0  0  0  0  0  0  0  0  0  0  0
   -5.4500   22.7290  -31.0660 N   0  0  0  0  0  0  0  0  0  0  0  0
   -4.0640   22.3640  -31.0320 C   0  0  0  0  0  0  0  0  0  0  0  0
   -3.3080   22.6850  -31.9890 O   0  0  0  0  0  0  0  0  0  0  0  0
   -3.5480   21.7070  -29.9080 O   0  0  0  0  0  0  0  0  0  0  0  0
   -2.2600   21.0890  -29.8770 C   0  0  0  0  0  0  0  0  0  0  0  0
   -1.1440   22.1350  -29.7250 C   0  0  1  0  0  0  0  0  0  0  0  0
   -1.4840   23.2640  -30.4890 O   0  0  0  0  0  0  0  0  0  0  0  0
   -0.9360   22.5440  -28.2580 C   0  0  0  0  0  0  0  0  0  0  0  0
   -0.4680   23.8720  -28.1990 O   0  0  0  0  0  0  0  0  0  0  0  0
   -1.8170   24.9040  -28.0370 P   0  0  1  0  0  0  0  0  0  0  0  0
   -1.9630   25.2970  -26.5850 O   0  0  0  0  0  0  0  0  0  0  0  0
   -1.5970   26.3010  -28.9660 O   0  0  0  0  0  0  0  0  0  0  0  0
   -3.2230   24.1090  -28.5410 O   0  0  0  0  0  0  0  0  0  0  0  0
   -3.2340   24.4500  -30.7000 H   0  0  0  0  0  0  0  0  0  0  0  0
   -8.0772   24.7668  -31.1048 H   0  0  0  0  0  0  0  0  0  0  0  0
   -9.8065   22.5690  -31.7209 H   0  0  0  0  0  0  0  0  0  0  0  0
   -9.8065   20.0969  -32.1946 H   0  0  0  0  0  0  0  0  0  0  0  0
   -7.4224   18.2642  -33.3052 H   0  0  0  0  0  0  0  0  0  0  0  0
   -5.4902   19.9783  -31.5991 H   0  0  0  0  0  0  0  0  0  0  0  0
   -2.2168   20.3924  -29.0268 H   0  0  0  0  0  0  0  0  0  0  0  0
   -2.1081   20.5536  -30.8258 H   0  0  0  0  0  0  0  0  0  0  0  0
   -0.2003   21.6940  -30.0783 H   0  0  0  0  0  0  0  0  0  0  0  0
   -2.3970   23.5400  -30.2100 H   0  0  0  0  0  0  0  0  0  0  0  0
   -1.8913   22.4682  -27.7179 H   0  0  0  0  0  0  0  0  0  0  0  0
   -0.1963   21.8752  -27.7938 H   0  0  0  0  0  0  0  0  0  0  0  0
   -2.9120   23.2340  -28.8830 H   0  0  0  0  0  0  0  0  0  0  0  0
  1  2  1  0
  2  3  2  0
  2  4  1  0
  4  5  2  0
  5  6  1  0
  6  7  2  0
  7  8  1  0
  8  9  2  0
  9 10  1  0
 10 11  1  0
 10 12  1  0
  9 13  1  0
 13 14  2  0
 14 15  1  0
 15 16  1  0
 16 17  2  0
 16 18  1  0
 18 19  1  0
 19 20  1  0
 20 21  1  0
 20 22  1  0
 22 23  1  0
 23 24  1  0
 24 25  2  0
 24 26  1  6
 24 27  1  0
 15  4  1  0
 14  6  1  0
  1 28  1  0
  5 29  1  0
  7 30  1  0
  8 31  1  0
 10 32  1  0
 13 33  1  0
 19 34  1  0
 19 35  1  0
 20 36  1  6
 21 37  1  0
 22 38  1  0
 22 39  1  0
 27 40  1  0
M  CHG  2   1  -1  26  -1
M  END
>  <UniqueID>  (69) 
69

>  <SMILES>  (69) 
[NH-]C(=O)c1cc2ccc(C(F)F)cc2n1C(=O)OC[C@@H](O)CO[P@@](=O)([O-])O

>  <Energy>  (69) 
71.14746852880286

>  <Genealogy>  (69) 
[NH-]C(=O)c1cc2ccc(C(F)F)cc2n1C(=O)OCC(O)COP(=O)([O-])O (protonated)
[NH-]C(=O)c1cc2ccc(C(F)F)cc2n1C(=O)OC[C@@H](O)CO[P@@](=O)([O-])O (chirality)
[NH-]C(=O)c1cc2ccc(C(F)F)cc2n1C(=O)OC[C@@H](O)CO[P@@](=O)([O-])O (3D coordinates assigned)
[NH-]C(=O)c1cc2ccc(C(F)F)cc2n1C(=O)OC[C@@H](O)CO[P@@](=O)([O-])O (optimized conformer: 71.14746852880286 kcal/mol)

>  <smiles>  (69) 
NC(=O)c1cc2ccc(C(F)F)cc2n1C(=O)OCC(O)COP(=O)(O)O

>  <score_type>  (69) 
oracle

>  <origin>  (69) 
adg

>  <m_score__min__energy>  (69) 
-10.69

>  <m_primary>  (69) 
energy

$$$$
70:0
     RDKit          3D

 45 46  0  0  0  0  0  0  0  0999 V2000
   -8.2160   18.5150  -32.6340 C   0  0  0  0  0  0  0  0  0  0  0  0
   -8.0540   19.9210  -32.1400 C   0  0  0  0  0  0  0  0  0  0  0  0
   -9.1920   20.7470  -31.9770 C   0  0  0  0  0  0  0  0  0  0  0  0
   -9.0520   22.0850  -31.5770 C   0  0  0  0  0  0  0  0  0  0  0  0
   -7.7660   22.5650  -31.3420 C   0  0  0  0  0  0  0  0  0  0  0  0
   -7.3510   23.8330  -31.0140 C   0  0  0  0  0  0  0  0  0  0  0  0
   -5.9640   23.7600  -30.9530 C   0  0  0  0  0  0  0  0  0  0  0  0
   -5.1080   24.9160  -30.6270 C   0  0  0  0  0  0  0  0  0  0  0  0
   -3.6890   24.8340  -30.7390 N   0  0  0  0  0  0  0  0  0  0  0  0
   -5.6340   25.9760  -30.1920 O   0  0  0  0  0  0  0  0  0  0  0  0
   -5.5280   22.4960  -31.2290 N   0  0  0  0  0  0  0  0  0  0  0  0
   -4.1580   22.0740  -31.3890 C   0  0  0  0  0  0  0  0  0  0  0  0
   -3.5240   22.4110  -32.4260 O   0  0  0  0  0  0  0  0  0  0  0  0
   -3.4870   21.1880  -30.3700 C   0  0  0  0  0  0  0  0  0  0  0  0
   -3.1970   21.9040  -29.0410 C   0  0  0  0  0  0  0  0  0  0  0  0
   -1.9010   22.6810  -29.0800 C   0  0  0  0  0  0  0  0  0  0  0  0
   -1.5100   23.1150  -30.1980 O   0  0  0  0  0  0  0  0  0  0  0  0
   -1.1220   22.9620  -27.8910 N   0  0  0  0  0  0  0  0  0  0  0  0
   -1.2410   22.1300  -26.6890 C   0  0  0  0  0  0  0  0  0  0  0  0
   -0.2330   24.1330  -27.8510 C   0  0  0  0  0  0  0  0  0  0  0  0
   -1.0400   25.4330  -27.9360 C   0  0  0  0  0  0  0  0  0  0  0  0
   -1.4570   25.6760  -29.2520 O   0  0  0  0  0  0  0  0  0  0  0  0
   -6.6500   21.7760  -31.4780 C   0  0  0  0  0  0  0  0  0  0  0  0
   -6.7630   20.4480  -31.9130 C   0  0  0  0  0  0  0  0  0  0  0  0
   -8.2947   17.8316  -31.7757 H   0  0  0  0  0  0  0  0  0  0  0  0
   -9.1283   18.4437  -33.2444 H   0  0  0  0  0  0  0  0  0  0  0  0
   -7.3438   18.2380  -33.2444 H   0  0  0  0  0  0  0  0  0  0  0  0
  -10.1950   20.3365  -32.1655 H   0  0  0  0  0  0  0  0  0  0  0  0
   -9.9310   22.7345  -31.4529 H   0  0  0  0  0  0  0  0  0  0  0  0
   -7.9814   24.7170  -30.8374 H   0  0  0  0  0  0  0  0  0  0  0  0
   -3.0950   25.6730  -30.5630 H   0  0  0  0  0  0  0  0  0  0  0  0
   -3.2260   23.9130  -30.8890 H   0  0  0  0  0  0  0  0  0  0  0  0
   -4.1433   20.3286  -30.1680 H   0  0  0  0  0  0  0  0  0  0  0  0
   -2.5194   20.8793  -30.7925 H   0  0  0  0  0  0  0  0  0  0  0  0
   -4.0210   22.6006  -28.8271 H   0  0  0  0  0  0  0  0  0  0  0  0
   -3.1065   21.1370  -28.2578 H   0  0  0  0  0  0  0  0  0  0  0  0
   -1.1504   22.7634  -25.7942 H   0  0  0  0  0  0  0  0  0  0  0  0
   -2.2200   21.6285  -26.6856 H   0  0  0  0  0  0  0  0  0  0  0  0
   -0.4418   21.3742  -26.6856 H   0  0  0  0  0  0  0  0  0  0  0  0
    0.3351   24.1223  -26.9091 H   0  0  0  0  0  0  0  0  0  0  0  0
    0.4506   24.0858  -28.7115 H   0  0  0  0  0  0  0  0  0  0  0  0
   -1.9243   25.3514  -27.2869 H   0  0  0  0  0  0  0  0  0  0  0  0
   -0.4005   26.2664  -27.6097 H   0  0  0  0  0  0  0  0  0  0  0  0
   -0.8990   25.1000  -29.8370 H   0  0  0  0  0  0  0  0  0  0  0  0
   -5.8670   19.8305  -32.0739 H   0  0  0  0  0  0  0  0  0  0  0  0
  1  2  1  0
  2  3  2  0
  3  4  1  0
  4  5  2  0
  5  6  1  0
  6  7  2  0
  7  8  1  0
  8  9  1  0
  8 10  2  0
  7 11  1  0
 11 12  1  0
 12 13  2  0
 12 14  1  0
 14 15  1  0
 15 16  1  0
 16 17  2  0
 16 18  1  0
 18 19  1  0
 18 20  1  0
 20 21  1  0
 21 22  1  0
 11 23  1  0
 23 24  2  0
 24  2  1  0
 23  5  1  0
  1 25  1  0
  1 26  1  0
  1 27  1  0
  3 28  1  0
  4 29  1  0
  6 30  1  0
  9 31  1  0
  9 32  1  0
 14 33  1  0
 14 34  1  0
 15 35  1  0
 15 36  1  0
 19 37  1  0
 19 38  1  0
 19 39  1  0
 20 40  1  0
 20 41  1  0
 21 42  1  0
 21 43  1  0
 22 44  1  0
 24 45  1  0
M  END
>  <UniqueID>  (70) 
70

>  <SMILES>  (70) 
Cc1ccc2cc(C(N)=O)n(C(=O)CCC(=O)N(C)CCO)c2c1

>  <Energy>  (70) 
78.47398571428434

>  <Genealogy>  (70) 
Cc1ccc2cc(C(N)=O)n(C(=O)CCC(=O)N(C)CCO)c2c1 (3D coordinates assigned)
Cc1ccc2cc(C(N)=O)n(C(=O)CCC(=O)N(C)CCO)c2c1 (optimized conformer: 78.47398571428434 kcal/mol)

>  <smiles>  (70) 
Cc1ccc2cc(C(N)=O)n(C(=O)CCC(=O)N(C)CCO)c2c1

>  <score_type>  (70) 
oracle

>  <origin>  (70) 
adg

>  <m_score__min__energy>  (70) 
-9.4700000000000006

>  <m_primary>  (70) 
energy

$$$$
71:0
     RDKit          3D

 40 41  0  0  0  0  0  0  0  0999 V2000
   -3.5180   25.6490  -30.2540 H   0  0  0  0  0  0  0  0  0  0  0  0
   -4.3810   25.6800  -30.8420 N   0  0  0  0  0  0  0  0  0  0  0  0
   -5.6040   25.1120  -30.3800 C   0  0  0  0  0  0  0  0  0  0  0  0
   -6.2500   25.6960  -29.4710 O   0  0  0  0  0  0  0  0  0  0  0  0
   -6.1200   23.8740  -31.0000 C   0  0  0  0  0  0  0  0  0  0  0  0
   -7.4770   23.5820  -31.1130 C   0  0  0  0  0  0  0  0  0  0  0  0
   -8.3229   24.2281  -30.8354 H   0  0  0  0  0  0  0  0  0  0  0  0
   -7.5360   22.3150  -31.6450 C   0  0  0  0  0  0  0  0  0  0  0  0
   -8.6400   21.5300  -31.9680 C   0  0  0  0  0  0  0  0  0  0  0  0
   -9.6638   21.8926  -31.7939 H   0  0  0  0  0  0  0  0  0  0  0  0
   -8.4060   20.2610  -32.5230 C   0  0  0  0  0  0  0  0  0  0  0  0
   -9.2573   19.6148  -32.7832 H   0  0  0  0  0  0  0  0  0  0  0  0
   -7.0830   19.8050  -32.7510 C   0  0  0  0  0  0  0  0  0  0  0  0
   -6.8360   18.4530  -33.3560 C   0  0  0  0  0  0  0  0  0  0  0  0
   -7.7763   18.0709  -33.7801 H   0  0  0  0  0  0  0  0  0  0  0  0
   -6.3810   17.5830  -32.3820 F   0  0  0  0  0  0  0  0  0  0  0  0
   -5.8870   18.5560  -34.3560 F   0  0  0  0  0  0  0  0  0  0  0  0
   -5.9890   20.6320  -32.4150 C   0  0  0  0  0  0  0  0  0  0  0  0
   -4.9561   20.3010  -32.5980 H   0  0  0  0  0  0  0  0  0  0  0  0
   -6.2500   21.8840  -31.8430 C   0  0  0  0  0  0  0  0  0  0  0  0
   -5.3680   22.8310  -31.4570 N   0  0  0  0  0  0  0  0  0  0  0  0
   -3.9360   22.7470  -31.5520 C   0  0  0  0  0  0  0  0  0  0  0  0
   -3.2130   23.6200  -30.9990 O   0  0  0  0  0  0  0  0  0  0  0  0
   -3.3520   21.7100  -32.2830 O   0  0  0  0  0  0  0  0  0  0  0  0
   -1.9440   21.5350  -32.3920 C   0  0  0  0  0  0  0  0  0  0  0  0
   -1.6290   21.7511  -33.4235 H   0  0  0  0  0  0  0  0  0  0  0  0
   -1.4401   22.2218  -31.6960 H   0  0  0  0  0  0  0  0  0  0  0  0
   -1.5670   20.0990  -32.0390 C   0  0  0  0  0  0  0  0  0  0  0  0
   -2.4716   19.4734  -32.0580 H   0  0  0  0  0  0  0  0  0  0  0  0
   -0.8349   19.7351  -32.7749 H   0  0  0  0  0  0  0  0  0  0  0  0
   -0.9810   20.0350  -30.7400 O   0  0  0  0  0  0  0  0  0  0  0  0
   -1.3640   20.8590  -29.6730 C   0  0  0  0  0  0  0  0  0  0  0  0
   -2.2140   20.4630  -28.8310 O   0  0  0  0  0  0  0  0  0  0  0  0
   -0.7720   22.1960  -29.5150 C   0  0  0  0  0  0  0  0  0  0  0  0
    0.2803   22.3497  -29.7960 H   0  0  0  0  0  0  0  0  0  0  0  0
   -1.4740   23.2310  -29.0400 C   0  0  0  0  0  0  0  0  0  0  0  0
   -2.5266   23.0749  -28.7614 H   0  0  0  0  0  0  0  0  0  0  0  0
   -0.8880   24.5710  -28.8770 C   0  0  0  0  0  0  0  0  0  0  0  0
    0.2400   24.7280  -28.3390 O   0  0  0  0  0  0  0  0  0  0  0  0
   -1.5900   25.6820  -29.3240 O   0  0  0  0  0  0  0  0  0  0  0  0
  1  2  1  0
  2  3  1  0
  3  4  2  0
  3  5  1  0
  5  6  2  0
  6  7  1  0
  6  8  1  0
  8  9  2  0
  9 10  1  0
  9 11  1  0
 11 12  1  0
 11 13  2  0
 13 14  1  0
 14 15  1  0
 14 16  1  0
 14 17  1  0
 13 18  1  0
 18 19  1  0
 18 20  2  0
 20 21  1  0
 21 22  1  0
 22 23  2  0
 22 24  1  0
 24 25  1  0
 25 26  1  0
 25 27  1  0
 25 28  1  0
 28 29  1  0
 28 30  1  0
 28 31  1  0
 31 32  1  0
 32 33  2  0
 32 34  1  0
 34 35  1  0
 34 36  2  0
 36 37  1  0
 36 38  1  0
 38 39  2  0
 38 40  1  0
 21  5  1  0
 20  8  1  0
M  CHG  2   2  -1  40  -1
M  END
>  <UniqueID>  (71) 
71

>  <SMILES>  (71) 
[NH-]C(=O)c1cc2ccc(C(F)F)cc2n1C(=O)OCCOC(=O)/C=C/C(=O)[O-]

>  <Energy>  (71) 
70.14653813196576

>  <Genealogy>  (71) 
[NH-]C(=O)c1cc2ccc(C(F)F)cc2n1C(=O)OCCOC(=O)/C=C/C(=O)[O-] (protonated)
[NH-]C(=O)c1cc2ccc(C(F)F)cc2n1C(=O)OCCOC(=O)/C=C/C(=O)[O-] (cis-trans isomerization)
[NH-]C(=O)c1cc2ccc(C(F)F)cc2n1C(=O)OCCOC(=O)/C=C/C(=O)[O-] (3D coordinates assigned)
[NH-]C(=O)c1cc2ccc(C(F)F)cc2n1C(=O)OCCOC(=O)/C=C/C(=O)[O-] (optimized conformer: 70.14653813196576 kcal/mol)

>  <smiles>  (71) 
NC(=O)c1cc2ccc(C(F)F)cc2n1C(=O)OCCOC(=O)/C=C/C(=O)O

>  <score_type>  (71) 
oracle

>  <origin>  (71) 
adg

>  <m_score__min__energy>  (71) 
-11.83

>  <m_primary>  (71) 
energy

$$$$
72:0
     RDKit          3D

 44 46  0  0  0  0  0  0  0  0999 V2000
   -3.9290   25.1940  -30.8420 N   0  0  0  0  0  0  0  0  0  0  0  0
   -5.3330   25.1620  -30.5970 C   0  0  0  0  0  0  0  0  0  0  0  0
   -5.8950   26.1710  -30.0950 O   0  0  0  0  0  0  0  0  0  0  0  0
   -6.1070   23.9420  -30.9070 C   0  0  0  0  0  0  0  0  0  0  0  0
   -7.4960   23.8630  -30.8260 C   0  0  0  0  0  0  0  0  0  0  0  0
   -7.8150   22.6000  -31.2720 C   0  0  0  0  0  0  0  0  0  0  0  0
   -9.0540   21.9790  -31.4020 C   0  0  0  0  0  0  0  0  0  0  0  0
   -9.0820   20.6580  -31.8810 C   0  0  0  0  0  0  0  0  0  0  0  0
   -7.8790   19.9840  -32.2150 C   0  0  0  0  0  0  0  0  0  0  0  0
   -7.9120   18.5690  -32.7180 C   0  0  0  0  0  0  0  0  0  0  0  0
   -8.8050   17.8290  -31.9660 F   0  0  0  0  0  0  0  0  0  0  0  0
   -6.6530   18.0080  -32.6150 F   0  0  0  0  0  0  0  0  0  0  0  0
   -6.6400   20.6470  -32.0690 C   0  0  0  0  0  0  0  0  0  0  0  0
   -6.6460   21.9640  -31.6000 C   0  0  0  0  0  0  0  0  0  0  0  0
   -5.5900   22.7720  -31.3740 N   0  0  0  0  0  0  0  0  0  0  0  0
   -4.2090   22.4270  -31.5660 C   0  0  0  0  0  0  0  0  0  0  0  0
   -3.7590   22.3270  -32.7390 O   0  0  0  0  0  0  0  0  0  0  0  0
   -3.3370   22.1480  -30.4050 C   0  0  0  0  0  0  0  0  0  0  0  0
   -3.3520   20.9900  -29.9000 O   0  0  0  0  0  0  0  0  0  0  0  0
   -2.5100   23.1820  -29.8130 N   0  0  2  0  0  0  0  0  0  0  0  0
   -1.0600   22.8750  -29.9850 C   0  0  0  0  0  0  0  0  0  0  0  0
   -0.4320   22.2360  -28.7360 C   0  0  0  0  0  0  0  0  0  0  0  0
   -0.5830   23.1460  -27.4910 C   0  0  1  0  0  0  0  0  0  0  0  0
    0.6600   23.9570  -27.2430 C   0  0  0  0  0  0  0  0  0  0  0  0
    1.0130   24.8540  -28.0550 O   0  0  0  0  0  0  0  0  0  0  0  0
    1.4160   23.7370  -26.0980 O   0  0  0  0  0  0  0  0  0  0  0  0
   -1.8190   24.0690  -27.5850 C   0  0  0  0  0  0  0  0  0  0  0  0
   -2.9270   23.3990  -28.4040 C   0  0  0  0  0  0  0  0  0  0  0  0
   -3.4810   26.0230  -31.2940 H   0  0  0  0  0  0  0  0  0  0  0  0
   -8.1896   24.6433  -30.4796 H   0  0  0  0  0  0  0  0  0  0  0  0
   -9.9827   22.5060  -31.1379 H   0  0  0  0  0  0  0  0  0  0  0  0
  -10.0461   20.1415  -31.9981 H   0  0  0  0  0  0  0  0  0  0  0  0
   -8.2289   18.5682  -33.7714 H   0  0  0  0  0  0  0  0  0  0  0  0
   -5.6958   20.1405  -32.3177 H   0  0  0  0  0  0  0  0  0  0  0  0
   -2.6810   24.0800  -30.3250 H   0  0  0  0  0  0  0  0  0  0  0  0
   -0.9461   22.1799  -30.8299 H   0  0  0  0  0  0  0  0  0  0  0  0
   -0.5400   23.8273  -30.1657 H   0  0  0  0  0  0  0  0  0  0  0  0
   -0.9299   21.2753  -28.5382 H   0  0  0  0  0  0  0  0  0  0  0  0
    0.6415   22.0909  -28.9272 H   0  0  0  0  0  0  0  0  0  0  0  0
   -0.7346   22.4734  -26.6339 H   0  0  0  0  0  0  0  0  0  0  0  0
   -2.1932   24.2774  -26.5718 H   0  0  0  0  0  0  0  0  0  0  0  0
   -1.5266   25.0062  -28.0811 H   0  0  0  0  0  0  0  0  0  0  0  0
   -3.1688   22.4269  -27.9495 H   0  0  0  0  0  0  0  0  0  0  0  0
   -3.8046   24.0622  -28.4031 H   0  0  0  0  0  0  0  0  0  0  0  0
  1  2  1  0
  2  3  2  0
  2  4  1  0
  4  5  2  0
  5  6  1  0
  6  7  2  0
  7  8  1  0
  8  9  2  0
  9 10  1  0
 10 11  1  0
 10 12  1  0
  9 13  1  0
 13 14  2  0
 14 15  1  0
 15 16  1  0
 16 17  2  0
 16 18  1  0
 18 19  2  0
 18 20  1  0
 20 21  1  0
 21 22  1  0
 22 23  1  0
 23 24  1  0
 24 25  2  0
 24 26  1  0
 23 27  1  0
 27 28  1  0
 15  4  1  0
 28 20  1  0
 14  6  1  0
  1 29  1  0
  5 30  1  0
  7 31  1  0
  8 32  1  0
 10 33  1  0
 13 34  1  0
 20 35  1  6
 21 36  1  0
 21 37  1  0
 22 38  1  0
 22 39  1  0
 23 40  1  1
 27 41  1  0
 27 42  1  0
 28 43  1  0
 28 44  1  0
M  CHG  3   1  -1  20   1  26  -1
M  END
>  <UniqueID>  (72) 
72

>  <SMILES>  (72) 
[NH-]C(=O)c1cc2ccc(C(F)F)cc2n1C(=O)C(=O)[NH+]1CCC(C(=O)[O-])CC1

>  <Energy>  (72) 
94.35670426299004

>  <Genealogy>  (72) 
[NH-]C(=O)c1cc2ccc(C(F)F)cc2n1C(=O)C(=O)[NH+]1CCC(C(=O)[O-])CC1 (protonated)
[NH-]C(=O)c1cc2ccc(C(F)F)cc2n1C(=O)C(=O)[NH+]1CCC(C(=O)[O-])CC1 (3D coordinates assigned)
[NH-]C(=O)c1cc2ccc(C(F)F)cc2n1C(=O)C(=O)[NH+]1CCC(C(=O)[O-])CC1 (nonaromatic ring conformer: 94.35670426299004 kcal/mol)

>  <smiles>  (72) 
NC(=O)c1cc2ccc(C(F)F)cc2n1C(=O)C(=O)N1CCC(C(=O)O)CC1

>  <score_type>  (72) 
oracle

>  <origin>  (72) 
adg

>  <m_score__min__energy>  (72) 
-10.220000000000001

>  <m_primary>  (72) 
energy

$$$$
73:0
     RDKit          3D

 36 37  0  0  0  0  0  0  0  0999 V2000
   -3.8730   25.1850  -30.7830 N   0  0  0  0  0  0  0  0  0  0  0  0
   -5.2670   25.0620  -30.5180 C   0  0  0  0  0  0  0  0  0  0  0  0
   -5.8510   25.9650  -29.8630 O   0  0  0  0  0  0  0  0  0  0  0  0
   -6.0250   23.8790  -30.9710 C   0  0  0  0  0  0  0  0  0  0  0  0
   -7.4170   23.8390  -31.0610 C   0  0  0  0  0  0  0  0  0  0  0  0
   -7.7210   22.5550  -31.4540 C   0  0  0  0  0  0  0  0  0  0  0  0
   -8.9530   21.9590  -31.7060 C   0  0  0  0  0  0  0  0  0  0  0  0
   -8.9630   20.6150  -32.1180 C   0  0  0  0  0  0  0  0  0  0  0  0
   -7.7500   19.8970  -32.2710 C   0  0  0  0  0  0  0  0  0  0  0  0
   -7.7640   18.4660  -32.7260 C   0  0  0  0  0  0  0  0  0  0  0  0
   -6.8370   18.2910  -33.7370 F   0  0  0  0  0  0  0  0  0  0  0  0
   -7.4470   17.6340  -31.6670 F   0  0  0  0  0  0  0  0  0  0  0  0
   -6.5180   20.5360  -32.0080 C   0  0  0  0  0  0  0  0  0  0  0  0
   -6.5410   21.8700  -31.5900 C   0  0  0  0  0  0  0  0  0  0  0  0
   -5.4940   22.6690  -31.3040 N   0  0  0  0  0  0  0  0  0  0  0  0
   -4.1120   22.2980  -31.4000 C   0  0  0  0  0  0  0  0  0  0  0  0
   -3.6290   22.0250  -32.5310 O   0  0  0  0  0  0  0  0  0  0  0  0
   -3.2440   22.3230  -30.1950 C   0  0  0  0  0  0  0  0  0  0  0  0
   -3.6900   21.8230  -29.1250 O   0  0  0  0  0  0  0  0  0  0  0  0
   -1.9260   22.9280  -30.1900 N   0  0  1  0  0  0  0  0  0  0  0  0
   -1.4850   23.3080  -28.8280 C   0  0  0  0  0  0  0  0  0  0  0  0
   -0.9430   24.7090  -28.7820 C   0  0  0  0  0  0  0  0  0  0  0  0
   -1.5690   25.6460  -29.3430 O   0  0  0  0  0  0  0  0  0  0  0  0
    0.2180   24.9890  -28.0710 O   0  0  0  0  0  0  0  0  0  0  0  0
   -0.9780   22.0520  -30.8390 C   0  0  0  0  0  0  0  0  0  0  0  0
   -0.1060   21.4520  -30.1530 O   0  0  0  0  0  0  0  0  0  0  0  0
   -0.9790   21.8860  -32.2220 O   0  0  0  0  0  0  0  0  0  0  0  0
   -3.4900   26.0340  -31.2540 H   0  0  0  0  0  0  0  0  0  0  0  0
   -8.1219   24.6593  -30.8605 H   0  0  0  0  0  0  0  0  0  0  0  0
   -9.8903   22.5223  -31.5865 H   0  0  0  0  0  0  0  0  0  0  0  0
   -9.9212   20.1155  -32.3237 H   0  0  0  0  0  0  0  0  0  0  0  0
   -8.7686   18.2173  -33.0988 H   0  0  0  0  0  0  0  0  0  0  0  0
   -5.5659   19.9984  -32.1288 H   0  0  0  0  0  0  0  0  0  0  0  0
   -1.9600   23.8040  -30.7670 H   0  0  0  0  0  0  0  0  0  0  0  0
   -2.3435   23.2367  -28.1440 H   0  0  0  0  0  0  0  0  0  0  0  0
   -0.6791   22.6220  -28.5281 H   0  0  0  0  0  0  0  0  0  0  0  0
  1  2  1  0
  2  3  2  0
  2  4  1  0
  4  5  2  0
  5  6  1  0
  6  7  2  0
  7  8  1  0
  8  9  2  0
  9 10  1  0
 10 11  1  0
 10 12  1  0
  9 13  1  0
 13 14  2  0
 14 15  1  0
 15 16  1  0
 16 17  2  0
 16 18  1  0
 18 19  2  0
 18 20  1  0
 20 21  1  0
 21 22  1  0
 22 23  2  0
 22 24  1  0
 20 25  1  0
 25 26  2  0
 25 27  1  0
 15  4  1  0
 14  6  1  0
  1 28  1  0
  5 29  1  0
  7 30  1  0
  8 31  1  0
 10 32  1  0
 13 33  1  0
 20 34  1  6
 21 35  1  0
 21 36  1  0
M  CHG  4   1  -1  20   1  24  -1  27  -1
M  END
>  <UniqueID>  (73) 
73

>  <SMILES>  (73) 
[NH-]C(=O)c1cc2ccc(C(F)F)cc2n1C(=O)C(=O)[NH+](CC(=O)[O-])C(=O)[O-]

>  <Energy>  (73) 
81.67840798942251

>  <Genealogy>  (73) 
[NH-]C(=O)c1cc2ccc(C(F)F)cc2n1C(=O)C(=O)[NH+](CC(=O)[O-])C(=O)[O-] (protonated)
[NH-]C(=O)c1cc2ccc(C(F)F)cc2n1C(=O)C(=O)[NH+](CC(=O)[O-])C(=O)[O-] (3D coordinates assigned)
[NH-]C(=O)c1cc2ccc(C(F)F)cc2n1C(=O)C(=O)[NH+](CC(=O)[O-])C(=O)[O-] (optimized conformer: 81.67840798942251 kcal/mol)

>  <smiles>  (73) 
NC(=O)c1cc2ccc(C(F)F)cc2n1C(=O)C(=O)N(CC(=O)O)C(=O)O

>  <score_type>  (73) 
oracle

>  <origin>  (73) 
adg

>  <m_score__min__energy>  (73) 
-11.630000000000001

>  <m_primary>  (73) 
energy

$$$$
74:0
     RDKit          3D

 47 48  0  0  0  0  0  0  0  0999 V2000
   -3.6560   22.5570  -28.7200 C   0  0  0  0  0  0  0  0  0  0  0  0
   -2.6100   23.2270  -29.6320 C   0  0  0  0  0  0  0  0  0  0  0  0
   -2.1160   24.5170  -28.9580 C   0  0  0  0  0  0  0  0  0  0  0  0
   -1.4070   22.2920  -29.8580 C   0  0  0  0  0  0  0  0  0  0  0  0
   -3.1980   23.6040  -30.8850 O   0  0  0  0  0  0  0  0  0  0  0  0
   -4.0630   22.8240  -31.6670 C   0  0  0  0  0  0  0  0  0  0  0  0
   -3.6140   22.0680  -32.5700 O   0  0  0  0  0  0  0  0  0  0  0  0
   -5.4800   22.9020  -31.4420 N   0  0  0  0  0  0  0  0  0  0  0  0
   -6.1650   23.8650  -30.7620 C   0  0  0  0  0  0  0  0  0  0  0  0
   -5.5870   25.1190  -30.2310 C   0  0  0  0  0  0  0  0  0  0  0  0
   -6.1310   25.7380  -29.0640 N   0  0  0  0  0  0  0  0  0  0  0  0
   -4.6220   25.6720  -30.8240 O   0  0  0  0  0  0  0  0  0  0  0  0
   -7.5230   23.5520  -30.7130 C   0  0  0  0  0  0  0  0  0  0  0  0
   -7.6480   22.3610  -31.3920 C   0  0  0  0  0  0  0  0  0  0  0  0
   -8.7770   21.5910  -31.6440 C   0  0  0  0  0  0  0  0  0  0  0  0
   -8.6120   20.3890  -32.3520 C   0  0  0  0  0  0  0  0  0  0  0  0
   -7.3240   19.9710  -32.7840 C   0  0  0  0  0  0  0  0  0  0  0  0
   -7.1240   18.7380  -33.5040 N   0  0  0  0  0  0  0  0  0  0  0  0
   -6.8700   17.4400  -32.8780 C   0  0  0  0  0  0  0  0  0  0  0  0
   -6.0230   16.5540  -33.7990 C   0  0  0  0  0  0  0  0  0  0  0  0
   -4.9400   17.3700  -34.5080 C   0  0  0  0  0  0  0  0  0  0  0  0
   -5.4770   18.0210  -35.6260 O   0  0  0  0  0  0  0  0  0  0  0  0
   -6.2040   20.7880  -32.5100 C   0  0  0  0  0  0  0  0  0  0  0  0
   -6.4010   21.9900  -31.8210 C   0  0  0  0  0  0  0  0  0  0  0  0
   -3.3880   22.7286  -27.6670 H   0  0  0  0  0  0  0  0  0  0  0  0
   -4.6477   22.9884  -28.9210 H   0  0  0  0  0  0  0  0  0  0  0  0
   -3.6789   21.4758  -28.9210 H   0  0  0  0  0  0  0  0  0  0  0  0
   -2.1608   24.4000  -27.8652 H   0  0  0  0  0  0  0  0  0  0  0  0
   -1.0781   24.7159  -29.2632 H   0  0  0  0  0  0  0  0  0  0  0  0
   -2.7556   25.3583  -29.2632 H   0  0  0  0  0  0  0  0  0  0  0  0
   -1.0005   21.9760  -28.8859 H   0  0  0  0  0  0  0  0  0  0  0  0
   -1.7319   21.4070  -30.4247 H   0  0  0  0  0  0  0  0  0  0  0  0
   -0.6295   22.8253  -30.4247 H   0  0  0  0  0  0  0  0  0  0  0  0
   -6.8930   25.2830  -28.5130 H   0  0  0  0  0  0  0  0  0  0  0  0
   -5.7400   26.6430  -28.7210 H   0  0  0  0  0  0  0  0  0  0  0  0
   -8.3243   24.1334  -30.2335 H   0  0  0  0  0  0  0  0  0  0  0  0
   -9.7706   21.9132  -31.2992 H   0  0  0  0  0  0  0  0  0  0  0  0
   -9.4895   19.7642  -32.5746 H   0  0  0  0  0  0  0  0  0  0  0  0
   -7.1720   18.7600  -34.5480 H   0  0  0  0  0  0  0  0  0  0  0  0
   -6.3329   17.5944  -31.9305 H   0  0  0  0  0  0  0  0  0  0  0  0
   -7.8326   16.9410  -32.6924 H   0  0  0  0  0  0  0  0  0  0  0  0
   -5.5438   15.7667  -33.1985 H   0  0  0  0  0  0  0  0  0  0  0  0
   -6.6822   16.1129  -34.5612 H   0  0  0  0  0  0  0  0  0  0  0  0
   -4.5353   18.1190  -33.8114 H   0  0  0  0  0  0  0  0  0  0  0  0
   -4.1393   16.6920  -34.8385 H   0  0  0  0  0  0  0  0  0  0  0  0
   -6.4640   17.9910  -35.5260 H   0  0  0  0  0  0  0  0  0  0  0  0
   -5.1968   20.4850  -32.8321 H   0  0  0  0  0  0  0  0  0  0  0  0
  1  2  1  0
  2  3  1  0
  2  4  1  0
  2  5  1  0
  5  6  1  0
  6  7  2  0
  6  8  1  0
  8  9  1  0
  9 10  1  0
 10 11  1  0
 10 12  2  0
  9 13  2  0
 13 14  1  0
 14 15  2  0
 15 16  1  0
 16 17  2  0
 17 18  1  0
 18 19  1  0
 19 20  1  0
 20 21  1  0
 21 22  1  0
 17 23  1  0
 23 24  2  0
 24  8  1  0
 24 14  1  0
  1 25  1  0
  1 26  1  0
  1 27  1  0
  3 28  1  0
  3 29  1  0
  3 30  1  0
  4 31  1  0
  4 32  1  0
  4 33  1  0
 11 34  1  0
 11 35  1  0
 13 36  1  0
 15 37  1  0
 16 38  1  0
 18 39  1  0
 19 40  1  0
 19 41  1  0
 20 42  1  0
 20 43  1  0
 21 44  1  0
 21 45  1  0
 22 46  1  0
 23 47  1  0
M  END
>  <UniqueID>  (74) 
74

>  <SMILES>  (74) 
CC(C)(C)OC(=O)n1c(C(N)=O)cc2ccc(NCCCO)cc21

>  <Energy>  (74) 
75.41826903245781

>  <Genealogy>  (74) 
CC(C)(C)OC(=O)n1c(C(N)=O)cc2ccc(NCCCO)cc21 (3D coordinates assigned)
CC(C)(C)OC(=O)n1c(C(N)=O)cc2ccc(NCCCO)cc21 (optimized conformer: 75.41826903245781 kcal/mol)

>  <smiles>  (74) 
CC(C)(C)OC(=O)n1c(C(N)=O)cc2ccc(NCCCO)cc21

>  <score_type>  (74) 
oracle

>  <origin>  (74) 
adg

>  <m_score__min__energy>  (74) 
-8.6999999999999993

>  <m_primary>  (74) 
energy

$$$$
75:0
     RDKit          3D

 46 47  0  0  0  0  0  0  0  0999 V2000
   -0.5430   24.6410  -26.0620 C   0  0  0  0  0  0  0  0  0  0  0  0
   -1.4860   24.0610  -27.1380 C   0  0  1  0  0  0  0  0  0  0  0  0
   -2.2380   25.1910  -27.9050 C   0  0  0  0  0  0  0  0  0  0  0  0
   -3.4970   24.7520  -28.3530 O   0  0  0  0  0  0  0  0  0  0  0  0
   -1.4660   25.6420  -28.9910 O   0  0  0  0  0  0  0  0  0  0  0  0
   -0.7670   23.0910  -28.0190 N   0  0  1  0  0  0  0  0  0  0  0  0
    0.7000   23.1780  -27.8660 C   0  0  0  0  0  0  0  0  0  0  0  0
   -1.2190   21.7200  -27.8620 C   0  0  0  0  0  0  0  0  0  0  0  0
   -1.1280   21.1430  -26.7410 O   0  0  0  0  0  0  0  0  0  0  0  0
   -1.8050   20.9760  -28.9930 C   0  0  0  0  0  0  0  0  0  0  0  0
   -1.1650   20.0150  -29.5020 O   0  0  0  0  0  0  0  0  0  0  0  0
   -3.0690   21.3350  -29.4760 O   0  0  0  0  0  0  0  0  0  0  0  0
   -3.3490   22.4660  -30.2520 C   0  0  0  0  0  0  0  0  0  0  0  0
   -2.4990   23.3890  -30.3760 O   0  0  0  0  0  0  0  0  0  0  0  0
   -4.6170   22.5650  -30.9230 N   0  0  0  0  0  0  0  0  0  0  0  0
   -5.4510   23.6420  -30.9620 C   0  0  0  0  0  0  0  0  0  0  0  0
   -5.1390   24.9980  -30.4690 C   0  0  0  0  0  0  0  0  0  0  0  0
   -3.9160   25.6280  -30.8490 N   0  0  0  0  0  0  0  0  0  0  0  0
   -5.9200   25.5930  -29.6810 O   0  0  0  0  0  0  0  0  0  0  0  0
   -6.6400   23.3180  -31.6120 C   0  0  0  0  0  0  0  0  0  0  0  0
   -6.5060   21.9990  -31.9790 C   0  0  0  0  0  0  0  0  0  0  0  0
   -7.3960   21.1620  -32.6450 C   0  0  0  0  0  0  0  0  0  0  0  0
   -7.0100   19.8300  -32.8650 C   0  0  0  0  0  0  0  0  0  0  0  0
   -5.7550   19.3570  -32.4060 C   0  0  0  0  0  0  0  0  0  0  0  0
   -5.3610   17.9290  -32.6520 C   0  0  0  0  0  0  0  0  0  0  0  0
   -5.7730   17.1390  -31.5940 F   0  0  0  0  0  0  0  0  0  0  0  0
   -5.9550   17.4790  -33.8180 F   0  0  0  0  0  0  0  0  0  0  0  0
   -4.8750   20.2370  -31.7370 C   0  0  0  0  0  0  0  0  0  0  0  0
   -5.2770   21.5660  -31.5500 C   0  0  0  0  0  0  0  0  0  0  0  0
   -0.9347   24.4001  -25.0627 H   0  0  0  0  0  0  0  0  0  0  0  0
    0.4593   24.2031  -26.1783 H   0  0  0  0  0  0  0  0  0  0  0  0
   -0.4817   25.7331  -26.1783 H   0  0  0  0  0  0  0  0  0  0  0  0
   -2.2744   23.4770  -26.6407 H   0  0  0  0  0  0  0  0  0  0  0  0
   -2.3967   26.0263  -27.2070 H   0  0  0  0  0  0  0  0  0  0  0  0
   -3.9790   25.5570  -28.6750 H   0  0  0  0  0  0  0  0  0  0  0  0
   -2.0570   25.6760  -29.7870 H   0  0  0  0  0  0  0  0  0  0  0  0
   -0.9370   23.3750  -29.0130 H   0  0  0  0  0  0  0  0  0  0  0  0
    0.9568   23.1932  -26.7965 H   0  0  0  0  0  0  0  0  0  0  0  0
    1.1708   22.3062  -28.3438 H   0  0  0  0  0  0  0  0  0  0  0  0
    1.0645   24.0993  -28.3438 H   0  0  0  0  0  0  0  0  0  0  0  0
   -3.0030   25.3010  -30.4640 H   0  0  0  0  0  0  0  0  0  0  0  0
   -7.5022   23.9766  -31.7931 H   0  0  0  0  0  0  0  0  0  0  0  0
   -8.3729   21.5328  -32.9889 H   0  0  0  0  0  0  0  0  0  0  0  0
   -7.6877   19.1473  -33.3984 H   0  0  0  0  0  0  0  0  0  0  0  0
   -4.2668   17.8686  -32.7472 H   0  0  0  0  0  0  0  0  0  0  0  0
   -3.8981   19.8872  -31.3719 H   0  0  0  0  0  0  0  0  0  0  0  0
  1  2  1  0
  2  3  1  0
  3  4  1  0
  3  5  1  0
  2  6  1  0
  6  7  1  0
  6  8  1  0
  8  9  2  0
  8 10  1  0
 10 11  2  0
 10 12  1  0
 12 13  1  0
 13 14  2  0
 13 15  1  0
 15 16  1  0
 16 17  1  0
 17 18  1  0
 17 19  2  0
 16 20  2  0
 20 21  1  0
 21 22  2  0
 22 23  1  0
 23 24  2  0
 24 25  1  0
 25 26  1  0
 25 27  1  0
 24 28  1  0
 28 29  2  0
 29 15  1  0
 29 21  1  0
  1 30  1  0
  1 31  1  0
  1 32  1  0
  2 33  1  1
  3 34  1  0
  4 35  1  0
  5 36  1  0
  6 37  1  6
  7 38  1  0
  7 39  1  0
  7 40  1  0
 18 41  1  0
 20 42  1  0
 22 43  1  0
 23 44  1  0
 25 45  1  0
 28 46  1  0
M  CHG  2   6   1  18  -1
M  END
>  <UniqueID>  (75) 
75

>  <SMILES>  (75) 
C[C@@H](C(O)O)[N@@H+](C)C(=O)C(=O)OC(=O)n1c(C([NH-])=O)cc2ccc(C(F)F)cc21

>  <Energy>  (75) 
90.66376900169118

>  <Genealogy>  (75) 
CC(C(O)O)[NH+](C)C(=O)C(=O)OC(=O)n1c(C([NH-])=O)cc2ccc(C(F)F)cc21 (protonated)
C[C@@H](C(O)O)[N@@H+](C)C(=O)C(=O)OC(=O)n1c(C([NH-])=O)cc2ccc(C(F)F)cc21 (chirality)
C[C@@H](C(O)O)[N@@H+](C)C(=O)C(=O)OC(=O)n1c(C([NH-])=O)cc2ccc(C(F)F)cc21 (3D coordinates assigned)
C[C@@H](C(O)O)[N@@H+](C)C(=O)C(=O)OC(=O)n1c(C([NH-])=O)cc2ccc(C(F)F)cc21 (optimized conformer: 90.66376900169118 kcal/mol)

>  <smiles>  (75) 
CC(C(O)O)N(C)C(=O)C(=O)OC(=O)n1c(C(N)=O)cc2ccc(C(F)F)cc21

>  <score_type>  (75) 
oracle

>  <origin>  (75) 
adg

>  <m_score__min__energy>  (75) 
-9.1400000000000006

>  <m_primary>  (75) 
energy

$$$$
76:0
     RDKit          3D

 42 43  0  0  0  0  0  0  0  0999 V2000
   -2.0890   25.2140  -27.3590 C   0  0  0  0  0  0  0  0  0  0  0  0
   -3.4520   24.6910  -27.5410 N   0  0  0  0  0  0  0  0  0  0  0  0
   -4.2670   24.9290  -26.3390 C   0  0  0  0  0  0  0  0  0  0  0  0
   -3.4080   23.2730  -27.8420 C   0  0  0  0  0  0  0  0  0  0  0  0
   -4.3890   22.5690  -27.6390 O   0  0  0  0  0  0  0  0  0  0  0  0
   -2.1690   22.6360  -28.4050 C   0  0  0  0  0  0  0  0  0  0  0  0
   -2.1870   22.7760  -29.8120 O   0  0  0  0  0  0  0  0  0  0  0  0
   -3.0320   21.8040  -30.3980 C   0  0  0  0  0  0  0  0  0  0  0  0
   -3.9340   22.4160  -31.4350 C   0  0  0  0  0  0  0  0  0  0  0  0
   -3.4800   22.6390  -32.5890 O   0  0  0  0  0  0  0  0  0  0  0  0
   -5.2960   22.7590  -31.1300 N   0  0  0  0  0  0  0  0  0  0  0  0
   -5.7630   23.9470  -30.6500 C   0  0  0  0  0  0  0  0  0  0  0  0
   -4.9510   25.1560  -30.3970 C   0  0  0  0  0  0  0  0  0  0  0  0
   -3.5280   25.0820  -30.4610 N   0  0  0  0  0  0  0  0  0  0  0  0
   -5.4970   26.2520  -30.1070 O   0  0  0  0  0  0  0  0  0  0  0  0
   -7.1450   23.8950  -30.4860 C   0  0  0  0  0  0  0  0  0  0  0  0
   -7.5140   22.6310  -30.8850 C   0  0  0  0  0  0  0  0  0  0  0  0
   -8.7700   22.0320  -30.9200 C   0  0  0  0  0  0  0  0  0  0  0  0
   -8.8520   20.7010  -31.3650 C   0  0  0  0  0  0  0  0  0  0  0  0
   -7.6890   19.9980  -31.7720 C   0  0  0  0  0  0  0  0  0  0  0  0
   -7.7840   18.5530  -32.1920 C   0  0  0  0  0  0  0  0  0  0  0  0
   -7.2380   18.3710  -33.4510 F   0  0  0  0  0  0  0  0  0  0  0  0
   -7.1000   17.7420  -31.3020 F   0  0  0  0  0  0  0  0  0  0  0  0
   -9.1130   18.1730  -32.2170 F   0  0  0  0  0  0  0  0  0  0  0  0
   -6.4290   20.6340  -31.6960 C   0  0  0  0  0  0  0  0  0  0  0  0
   -6.3790   21.9650  -31.2670 C   0  0  0  0  0  0  0  0  0  0  0  0
   -1.8691   25.2984  -26.2845 H   0  0  0  0  0  0  0  0  0  0  0  0
   -1.3677   24.5288  -27.8282 H   0  0  0  0  0  0  0  0  0  0  0  0
   -2.0112   26.2059  -27.8282 H   0  0  0  0  0  0  0  0  0  0  0  0
   -3.8930   25.2140  -28.3340 H   0  0  0  0  0  0  0  0  0  0  0  0
   -3.6569   24.7508  -25.4412 H   0  0  0  0  0  0  0  0  0  0  0  0
   -4.6249   25.9692  -26.3387 H   0  0  0  0  0  0  0  0  0  0  0  0
   -5.1284   24.2449  -26.3387 H   0  0  0  0  0  0  0  0  0  0  0  0
   -1.2778   23.1335  -27.9948 H   0  0  0  0  0  0  0  0  0  0  0  0
   -2.1394   21.5702  -28.1346 H   0  0  0  0  0  0  0  0  0  0  0  0
   -2.4116   21.0306  -30.8745 H   0  0  0  0  0  0  0  0  0  0  0  0
   -3.6594   21.3676  -29.6068 H   0  0  0  0  0  0  0  0  0  0  0  0
   -3.0540   24.3600  -31.0470 H   0  0  0  0  0  0  0  0  0  0  0  0
   -7.8026   24.6953  -30.1157 H   0  0  0  0  0  0  0  0  0  0  0  0
   -9.6701   22.5828  -30.6092 H   0  0  0  0  0  0  0  0  0  0  0  0
   -9.8300   20.1985  -31.3980 H   0  0  0  0  0  0  0  0  0  0  0  0
   -5.5093   20.0953  -31.9677 H   0  0  0  0  0  0  0  0  0  0  0  0
  1  2  1  0
  2  3  1  0
  2  4  1  0
  4  5  2  0
  4  6  1  0
  6  7  1  0
  7  8  1  0
  8  9  1  0
  9 10  2  0
  9 11  1  0
 11 12  1  0
 12 13  1  0
 13 14  1  0
 13 15  2  0
 12 16  2  0
 16 17  1  0
 17 18  2  0
 18 19  1  0
 19 20  2  0
 20 21  1  0
 21 22  1  0
 21 23  1  0
 21 24  1  0
 20 25  1  0
 25 26  2  0
 26 11  1  0
 26 17  1  0
  1 27  1  0
  1 28  1  0
  1 29  1  0
  2 30  1  0
  3 31  1  0
  3 32  1  0
  3 33  1  0
  6 34  1  0
  6 35  1  0
  8 36  1  0
  8 37  1  0
 14 38  1  0
 16 39  1  0
 18 40  1  0
 19 41  1  0
 25 42  1  0
M  CHG  2   2   1  14  -1
M  END
>  <UniqueID>  (76) 
76

>  <SMILES>  (76) 
C[NH+](C)C(=O)COCC(=O)n1c(C([NH-])=O)cc2ccc(C(F)(F)F)cc21

>  <Energy>  (76) 
79.98920160106917

>  <Genealogy>  (76) 
C[NH+](C)C(=O)COCC(=O)n1c(C([NH-])=O)cc2ccc(C(F)(F)F)cc21 (protonated)
C[NH+](C)C(=O)COCC(=O)n1c(C([NH-])=O)cc2ccc(C(F)(F)F)cc21 (3D coordinates assigned)
C[NH+](C)C(=O)COCC(=O)n1c(C([NH-])=O)cc2ccc(C(F)(F)F)cc21 (optimized conformer: 79.98920160106917 kcal/mol)

>  <smiles>  (76) 
CN(C)C(=O)COCC(=O)n1c(C(N)=O)cc2ccc(C(F)(F)F)cc21

>  <score_type>  (76) 
oracle

>  <origin>  (76) 
adg

>  <m_score__min__energy>  (76) 
-9.4399999999999995

>  <m_primary>  (76) 
energy

$$$$
77:0
     RDKit          3D

 44 45  0  0  0  0  0  0  0  0999 V2000
   -1.7800   24.8720  -29.5090 H   0  0  0  0  0  0  0  0  0  0  0  0
   -2.0080   25.6710  -28.9670 O   0  0  0  0  0  0  0  0  0  0  0  0
   -2.1430   25.2330  -27.6420 C   0  0  0  0  0  0  0  0  0  0  0  0
   -3.1823   24.9175  -27.4679 H   0  0  0  0  0  0  0  0  0  0  0  0
   -1.8818   26.0582  -26.9632 H   0  0  0  0  0  0  0  0  0  0  0  0
   -1.2040   24.0510  -27.3760 C   0  0  0  0  0  0  0  0  0  0  0  0
   -1.7861   23.1178  -27.3889 H   0  0  0  0  0  0  0  0  0  0  0  0
   -0.7287   24.1918  -26.3940 H   0  0  0  0  0  0  0  0  0  0  0  0
   -0.1470   23.9780  -28.4090 N   0  0  0  0  0  0  0  0  0  0  0  0
    1.1830   24.2960  -27.8590 C   0  0  0  0  0  0  0  0  0  0  0  0
    1.1375   24.2851  -26.7600 H   0  0  0  0  0  0  0  0  0  0  0  0
    1.9109   23.5466  -28.2033 H   0  0  0  0  0  0  0  0  0  0  0  0
    1.4932   25.2936  -28.2033 H   0  0  0  0  0  0  0  0  0  0  0  0
   -0.1470   22.6770  -29.1150 C   0  0  0  0  0  0  0  0  0  0  0  0
    0.8884   22.4290  -29.3913 H   0  0  0  0  0  0  0  0  0  0  0  0
   -0.5810   21.9332  -28.4306 H   0  0  0  0  0  0  0  0  0  0  0  0
   -0.9900   22.6810  -30.3670 C   0  0  0  0  0  0  0  0  0  0  0  0
   -0.7045   23.3354  -31.2038 H   0  0  0  0  0  0  0  0  0  0  0  0
   -2.0750   21.9090  -30.4840 C   0  0  0  0  0  0  0  0  0  0  0  0
   -2.3425   21.2420  -29.6512 H   0  0  0  0  0  0  0  0  0  0  0  0
   -2.9270   21.9180  -31.6880 C   0  0  0  0  0  0  0  0  0  0  0  0
   -2.4090   21.8130  -32.8340 O   0  0  0  0  0  0  0  0  0  0  0  0
   -4.3500   22.0810  -31.5660 N   0  0  0  0  0  0  0  0  0  0  0  0
   -5.0290   23.1270  -31.0140 C   0  0  0  0  0  0  0  0  0  0  0  0
   -4.4300   24.2550  -30.2720 C   0  0  0  0  0  0  0  0  0  0  0  0
   -3.5290   24.9460  -30.8200 O   0  0  0  0  0  0  0  0  0  0  0  0
   -4.8870   24.6120  -28.9670 N   0  0  0  0  0  0  0  0  0  0  0  0
   -5.7430   24.1800  -28.5560 H   0  0  0  0  0  0  0  0  0  0  0  0
   -4.4160   25.3800  -28.4390 H   0  0  0  0  0  0  0  0  0  0  0  0
   -6.4010   22.9710  -31.1970 C   0  0  0  0  0  0  0  0  0  0  0  0
   -7.1994   23.6545  -30.8722 H   0  0  0  0  0  0  0  0  0  0  0  0
   -6.5450   21.7790  -31.8710 C   0  0  0  0  0  0  0  0  0  0  0  0
   -7.6950   21.1340  -32.3120 C   0  0  0  0  0  0  0  0  0  0  0  0
   -8.6917   21.5599  -32.1243 H   0  0  0  0  0  0  0  0  0  0  0  0
   -7.5440   19.9210  -33.0050 C   0  0  0  0  0  0  0  0  0  0  0  0
   -8.4363   19.3763  -33.3471 H   0  0  0  0  0  0  0  0  0  0  0  0
   -6.2550   19.3900  -33.2690 C   0  0  0  0  0  0  0  0  0  0  0  0
   -6.1090   18.0700  -33.9810 C   0  0  0  0  0  0  0  0  0  0  0  0
   -6.0330   18.2940  -35.3430 F   0  0  0  0  0  0  0  0  0  0  0  0
   -7.1920   17.2490  -33.7190 F   0  0  0  0  0  0  0  0  0  0  0  0
   -4.9600   17.4160  -33.5680 F   0  0  0  0  0  0  0  0  0  0  0  0
   -5.1120   20.0670  -32.7840 C   0  0  0  0  0  0  0  0  0  0  0  0
   -4.1036   19.6624  -32.9556 H   0  0  0  0  0  0  0  0  0  0  0  0
   -5.2930   21.2630  -32.0810 C   0  0  0  0  0  0  0  0  0  0  0  0
  1  2  1  0
  2  3  1  0
  3  4  1  0
  3  5  1  0
  3  6  1  0
  6  7  1  0
  6  8  1  0
  6  9  1  0
  9 10  1  0
 10 11  1  0
 10 12  1  0
 10 13  1  0
  9 14  1  0
 14 15  1  0
 14 16  1  0
 14 17  1  0
 17 18  1  0
 17 19  2  0
 19 20  1  0
 19 21  1  0
 21 22  2  0
 21 23  1  0
 23 24  1  0
 24 25  1  0
 25 26  2  0
 25 27  1  0
 27 28  1  0
 27 29  1  0
 24 30  2  0
 30 31  1  0
 30 32  1  0
 32 33  2  0
 33 34  1  0
 33 35  1  0
 35 36  1  0
 35 37  2  0
 37 38  1  0
 38 39  1  0
 38 40  1  0
 38 41  1  0
 37 42  1  0
 42 43  1  0
 42 44  2  0
 44 23  1  0
 44 32  1  0
M  END
>  <UniqueID>  (77) 
77

>  <SMILES>  (77) 
CN(C/C=C/C(=O)n1c(C(N)=O)cc2ccc(C(F)(F)F)cc21)CCO

>  <Energy>  (77) 
83.89289499080162

>  <Genealogy>  (77) 
CN(C/C=C/C(=O)n1c(C(N)=O)cc2ccc(C(F)(F)F)cc21)CCO (cis-trans isomerization)
CN(C/C=C/C(=O)n1c(C(N)=O)cc2ccc(C(F)(F)F)cc21)CCO (3D coordinates assigned)
CN(C/C=C/C(=O)n1c(C(N)=O)cc2ccc(C(F)(F)F)cc21)CCO (optimized conformer: 83.89289499080162 kcal/mol)

>  <smiles>  (77) 
CN(C/C=C/C(=O)n1c(C(N)=O)cc2ccc(C(F)(F)F)cc21)CCO

>  <score_type>  (77) 
oracle

>  <origin>  (77) 
adg

>  <m_score__min__energy>  (77) 
-8.8000000000000007

>  <m_primary>  (77) 
energy

$$$$
78:0
     RDKit          3D

 33 34  0  0  0  0  0  0  0  0999 V2000
   -0.9314   19.3315  -34.7445 H   0  0  0  0  0  0  0  0  0  0  0  0
   -0.9430   20.4170  -34.5670 C   0  0  0  0  0  0  0  0  0  0  0  0
   -0.0700   21.2780  -35.3810 C   0  0  0  0  0  0  0  0  0  0  0  0
    0.4500   20.8550  -36.4480 O   0  0  0  0  0  0  0  0  0  0  0  0
    0.1810   22.5790  -34.9680 O   0  0  0  0  0  0  0  0  0  0  0  0
   -1.7510   20.9070  -33.6180 C   0  0  0  0  0  0  0  0  0  0  0  0
   -1.7619   21.9928  -33.4423 H   0  0  0  0  0  0  0  0  0  0  0  0
   -2.6270   20.0480  -32.7990 C   0  0  0  0  0  0  0  0  0  0  0  0
   -2.1220   19.0690  -32.1900 O   0  0  0  0  0  0  0  0  0  0  0  0
   -4.0390   20.2960  -32.6870 N   0  0  0  0  0  0  0  0  0  0  0  0
   -5.0370   19.7410  -33.4300 C   0  0  0  0  0  0  0  0  0  0  0  0
   -4.8560   18.6680  -34.4340 C   0  0  0  0  0  0  0  0  0  0  0  0
   -5.7200   18.4970  -35.3350 O   0  0  0  0  0  0  0  0  0  0  0  0
   -3.7040   17.8260  -34.4110 N   0  0  0  0  0  0  0  0  0  0  0  0
   -2.9960   17.8850  -33.6460 H   0  0  0  0  0  0  0  0  0  0  0  0
   -3.5740   17.0960  -35.1480 H   0  0  0  0  0  0  0  0  0  0  0  0
   -6.2700   20.2870  -33.0670 C   0  0  0  0  0  0  0  0  0  0  0  0
   -7.2579   20.0362  -33.4809 H   0  0  0  0  0  0  0  0  0  0  0  0
   -5.9870   21.2060  -32.0810 C   0  0  0  0  0  0  0  0  0  0  0  0
   -6.8380   22.0420  -31.3630 C   0  0  0  0  0  0  0  0  0  0  0  0
   -7.9241   22.0305  -31.5370 H   0  0  0  0  0  0  0  0  0  0  0  0
   -6.2660   22.9010  -30.4090 C   0  0  0  0  0  0  0  0  0  0  0  0
   -6.9127   23.5630  -29.8144 H   0  0  0  0  0  0  0  0  0  0  0  0
   -4.8630   22.9220  -30.2060 C   0  0  0  0  0  0  0  0  0  0  0  0
   -4.2630   23.8200  -29.1610 C   0  0  0  0  0  0  0  0  0  0  0  0
   -5.0669   24.2518  -28.5468 H   0  0  0  0  0  0  0  0  0  0  0  0
   -3.5835   23.2317  -28.5268 H   0  0  0  0  0  0  0  0  0  0  0  0
   -3.4930   24.9220  -29.8140 C   0  0  0  0  0  0  0  0  0  0  0  0
   -3.9470   25.4900  -30.8410 O   0  0  0  0  0  0  0  0  0  0  0  0
   -2.2480   25.2880  -29.3190 O   0  0  0  0  0  0  0  0  0  0  0  0
   -4.0330   22.0550  -30.9500 C   0  0  0  0  0  0  0  0  0  0  0  0
   -2.9427   22.0549  -30.8046 H   0  0  0  0  0  0  0  0  0  0  0  0
   -4.6330   21.1970  -31.8760 C   0  0  0  0  0  0  0  0  0  0  0  0
  1  2  1  0
  2  3  1  0
  3  4  2  0
  3  5  1  0
  2  6  2  0
  6  7  1  0
  6  8  1  0
  8  9  2  0
  8 10  1  0
 10 11  1  0
 11 12  1  0
 12 13  2  0
 12 14  1  0
 14 15  1  0
 14 16  1  0
 11 17  2  0
 17 18  1  0
 17 19  1  0
 19 20  2  0
 20 21  1  0
 20 22  1  0
 22 23  1  0
 22 24  2  0
 24 25  1  0
 25 26  1  0
 25 27  1  0
 25 28  1  0
 28 29  2  0
 28 30  1  0
 24 31  1  0
 31 32  1  0
 31 33  2  0
 33 10  1  0
 33 19  1  0
M  CHG  2   5  -1  30  -1
M  END
>  <UniqueID>  (78) 
78

>  <SMILES>  (78) 
NC(=O)c1cc2ccc(CC(=O)[O-])cc2n1C(=O)/C=C/C(=O)[O-]

>  <Energy>  (78) 
69.31509596797954

>  <Genealogy>  (78) 
NC(=O)c1cc2ccc(CC(=O)[O-])cc2n1C(=O)/C=C/C(=O)[O-] (protonated)
NC(=O)c1cc2ccc(CC(=O)[O-])cc2n1C(=O)/C=C/C(=O)[O-] (cis-trans isomerization)
NC(=O)c1cc2ccc(CC(=O)[O-])cc2n1C(=O)/C=C/C(=O)[O-] (3D coordinates assigned)
NC(=O)c1cc2ccc(CC(=O)[O-])cc2n1C(=O)/C=C/C(=O)[O-] (optimized conformer: 69.31509596797954 kcal/mol)

>  <smiles>  (78) 
NC(=O)c1cc2ccc(CC(=O)O)cc2n1C(=O)/C=C/C(=O)O

>  <score_type>  (78) 
oracle

>  <origin>  (78) 
adg

>  <m_score__min__energy>  (78) 
-10.949999999999999

>  <m_primary>  (78) 
energy

$$$$
79:0
     RDKit          3D

 37 38  0  0  0  0  0  0  0  0999 V2000
   -6.2440   15.6220  -33.8500 C   0  0  0  0  0  0  0  0  0  0  0  0
   -5.6910   16.8470  -34.4080 N   0  0  0  0  0  0  0  0  0  0  0  0
   -6.0370   18.1450  -33.9140 C   0  0  0  0  0  0  0  0  0  0  0  0
   -6.0560   19.1390  -34.6900 O   0  0  0  0  0  0  0  0  0  0  0  0
   -6.3260   18.3300  -32.4590 C   0  0  0  0  0  0  0  0  0  0  0  0
   -6.6410   19.7730  -32.1760 C   0  0  0  0  0  0  0  0  0  0  0  0
   -7.9650   20.2550  -32.3250 C   0  0  0  0  0  0  0  0  0  0  0  0
   -8.2800   21.5880  -32.0150 C   0  0  0  0  0  0  0  0  0  0  0  0
   -7.2530   22.4120  -31.5630 C   0  0  0  0  0  0  0  0  0  0  0  0
   -7.2890   23.7260  -31.1570 C   0  0  0  0  0  0  0  0  0  0  0  0
   -5.9840   24.0320  -30.7750 C   0  0  0  0  0  0  0  0  0  0  0  0
   -5.5700   25.3640  -30.2790 C   0  0  0  0  0  0  0  0  0  0  0  0
   -4.2570   25.8640  -30.5090 N   0  0  0  0  0  0  0  0  0  0  0  0
   -6.3970   26.0790  -29.6530 O   0  0  0  0  0  0  0  0  0  0  0  0
   -5.1710   22.9520  -30.9530 N   0  0  0  0  0  0  0  0  0  0  0  0
   -3.7680   22.8560  -30.6570 C   0  0  0  0  0  0  0  0  0  0  0  0
   -2.9360   22.8820  -31.6040 O   0  0  0  0  0  0  0  0  0  0  0  0
   -3.2610   22.7740  -29.2420 C   0  0  0  0  0  0  0  0  0  0  0  0
   -1.7020   23.6910  -29.0090 P   0  0  2  0  0  0  0  0  0  0  0  0
   -1.2240   23.5520  -27.5810 O   0  0  0  0  0  0  0  0  0  0  0  0
   -1.9800   25.3250  -29.3380 O   0  0  0  0  0  0  0  0  0  0  0  0
   -0.5220   23.1100  -30.0740 O   0  0  0  0  0  0  0  0  0  0  0  0
   -5.9660   21.9640  -31.4220 C   0  0  0  0  0  0  0  0  0  0  0  0
   -5.6280   20.6350  -31.7000 C   0  0  0  0  0  0  0  0  0  0  0  0
   -6.2197   15.6758  -32.7516 H   0  0  0  0  0  0  0  0  0  0  0  0
   -7.2837   15.5017  -34.1883 H   0  0  0  0  0  0  0  0  0  0  0  0
   -5.6465   14.7626  -34.1883 H   0  0  0  0  0  0  0  0  0  0  0  0
   -7.1876   17.7071  -32.1768 H   0  0  0  0  0  0  0  0  0  0  0  0
   -5.4427   18.0322  -31.8750 H   0  0  0  0  0  0  0  0  0  0  0  0
   -8.7535   19.5788  -32.6869 H   0  0  0  0  0  0  0  0  0  0  0  0
   -9.3059   21.9690  -32.1258 H   0  0  0  0  0  0  0  0  0  0  0  0
   -8.1629   24.3938  -31.1379 H   0  0  0  0  0  0  0  0  0  0  0  0
   -3.4980   25.2400  -30.8610 H   0  0  0  0  0  0  0  0  0  0  0  0
   -4.0225   23.1947  -28.5688 H   0  0  0  0  0  0  0  0  0  0  0  0
   -3.0648   21.7154  -29.0164 H   0  0  0  0  0  0  0  0  0  0  0  0
   -1.0190   22.8230  -30.8820 H   0  0  0  0  0  0  0  0  0  0  0  0
   -4.6006   20.2710  -31.5518 H   0  0  0  0  0  0  0  0  0  0  0  0
  1  2  1  0
  2  3  1  0
  3  4  2  0
  3  5  1  0
  5  6  1  0
  6  7  2  0
  7  8  1  0
  8  9  2  0
  9 10  1  0
 10 11  2  0
 11 12  1  0
 12 13  1  0
 12 14  2  0
 11 15  1  0
 15 16  1  0
 16 17  2  0
 16 18  1  0
 18 19  1  0
 19 20  2  0
 19 21  1  6
 19 22  1  0
 15 23  1  0
 23 24  2  0
 24  6  1  0
 23  9  1  0
  1 25  1  0
  1 26  1  0
  1 27  1  0
  5 28  1  0
  5 29  1  0
  7 30  1  0
  8 31  1  0
 10 32  1  0
 13 33  1  0
 18 34  1  0
 18 35  1  0
 22 36  1  0
 24 37  1  0
M  CHG  3   2  -1  13  -1  21  -1
M  END
>  <UniqueID>  (79) 
79

>  <SMILES>  (79) 
C[N-]C(=O)Cc1ccc2cc(C([NH-])=O)n(C(=O)C[P@](=O)([O-])O)c2c1

>  <Energy>  (79) 
66.97732760122562

>  <Genealogy>  (79) 
C[N-]C(=O)Cc1ccc2cc(C([NH-])=O)n(C(=O)CP(=O)([O-])O)c2c1 (protonated)
C[N-]C(=O)Cc1ccc2cc(C([NH-])=O)n(C(=O)C[P@](=O)([O-])O)c2c1 (chirality)
C[N-]C(=O)Cc1ccc2cc(C([NH-])=O)n(C(=O)C[P@](=O)([O-])O)c2c1 (3D coordinates assigned)
C[N-]C(=O)Cc1ccc2cc(C([NH-])=O)n(C(=O)C[P@](=O)([O-])O)c2c1 (optimized conformer: 66.97732760122562 kcal/mol)

>  <smiles>  (79) 
CNC(=O)Cc1ccc2cc(C(N)=O)n(C(=O)CP(=O)(O)O)c2c1

>  <score_type>  (79) 
oracle

>  <origin>  (79) 
adg

>  <m_score__min__energy>  (79) 
-11.91

>  <m_primary>  (79) 
energy

$$$$
80:0
     RDKit          3D

 36 37  0  0  0  0  0  0  0  0999 V2000
   -3.6650   22.5520  -28.5370 C   0  0  0  0  0  0  0  0  0  0  0  0
   -3.0950   23.0510  -29.6420 C   0  0  0  0  0  0  0  0  0  0  0  0
   -1.8740   23.8860  -29.5250 C   0  0  0  0  0  0  0  0  0  0  0  0
   -0.7310   23.3680  -29.6310 O   0  0  0  0  0  0  0  0  0  0  0  0
   -1.9710   25.2560  -29.3090 O   0  0  0  0  0  0  0  0  0  0  0  0
   -3.6810   22.7500  -30.9760 C   0  0  0  0  0  0  0  0  0  0  0  0
   -2.9270   22.4460  -31.9400 O   0  0  0  0  0  0  0  0  0  0  0  0
   -5.1010   22.8040  -31.1920 N   0  0  0  0  0  0  0  0  0  0  0  0
   -5.9410   23.8500  -30.9560 C   0  0  0  0  0  0  0  0  0  0  0  0
   -5.5350   25.2120  -30.5470 C   0  0  0  0  0  0  0  0  0  0  0  0
   -4.2060   25.6770  -30.7610 N   0  0  0  0  0  0  0  0  0  0  0  0
   -6.3830   25.9850  -30.0260 O   0  0  0  0  0  0  0  0  0  0  0  0
   -7.2620   23.4780  -31.2050 C   0  0  0  0  0  0  0  0  0  0  0  0
   -7.2020   22.1620  -31.6030 C   0  0  0  0  0  0  0  0  0  0  0  0
   -8.2230   21.2830  -31.9530 C   0  0  0  0  0  0  0  0  0  0  0  0
   -7.8710   19.9650  -32.2900 C   0  0  0  0  0  0  0  0  0  0  0  0
   -6.5140   19.5530  -32.2720 C   0  0  0  0  0  0  0  0  0  0  0  0
   -6.1540   18.1300  -32.5900 C   0  0  0  0  0  0  0  0  0  0  0  0
   -6.1050   17.9350  -34.0710 C   0  0  0  0  0  0  0  0  0  0  0  0
   -5.8200   18.9080  -34.8220 O   0  0  0  0  0  0  0  0  0  0  0  0
   -6.3310   16.6630  -34.6050 O   0  0  0  0  0  0  0  0  0  0  0  0
   -6.0260   15.4690  -33.8950 C   0  0  0  0  0  0  0  0  0  0  0  0
   -5.5070   20.4690  -31.8960 C   0  0  0  0  0  0  0  0  0  0  0  0
   -5.8870   21.7780  -31.5820 C   0  0  0  0  0  0  0  0  0  0  0  0
   -4.5703   21.9323  -28.6170 H   0  0  0  0  0  0  0  0  0  0  0  0
   -3.2277   22.7620  -27.5497 H   0  0  0  0  0  0  0  0  0  0  0  0
   -3.5050   25.6750  -29.9870 H   0  0  0  0  0  0  0  0  0  0  0  0
   -8.1611   24.1038  -31.1046 H   0  0  0  0  0  0  0  0  0  0  0  0
   -9.2732   21.6101  -31.9654 H   0  0  0  0  0  0  0  0  0  0  0  0
   -8.6551   19.2462  -32.5703 H   0  0  0  0  0  0  0  0  0  0  0  0
   -5.1688   17.8983  -32.1591 H   0  0  0  0  0  0  0  0  0  0  0  0
   -6.9146   17.4604  -32.1621 H   0  0  0  0  0  0  0  0  0  0  0  0
   -6.0755   15.6628  -32.8133 H   0  0  0  0  0  0  0  0  0  0  0  0
   -6.7535   14.6881  -34.1613 H   0  0  0  0  0  0  0  0  0  0  0  0
   -5.0131   15.1327  -34.1613 H   0  0  0  0  0  0  0  0  0  0  0  0
   -4.4519   20.1612  -31.8513 H   0  0  0  0  0  0  0  0  0  0  0  0
  1  2  2  0
  2  3  1  0
  3  4  2  0
  3  5  1  0
  2  6  1  0
  6  7  2  0
  6  8  1  0
  8  9  1  0
  9 10  1  0
 10 11  1  0
 10 12  2  0
  9 13  2  0
 13 14  1  0
 14 15  2  0
 15 16  1  0
 16 17  2  0
 17 18  1  0
 18 19  1  0
 19 20  2  0
 19 21  1  0
 21 22  1  0
 17 23  1  0
 23 24  2  0
 24  8  1  0
 24 14  1  0
  1 25  1  0
  1 26  1  0
 11 27  1  0
 13 28  1  0
 15 29  1  0
 16 30  1  0
 18 31  1  0
 18 32  1  0
 22 33  1  0
 22 34  1  0
 22 35  1  0
 23 36  1  0
M  CHG  2   5  -1  11  -1
M  END
>  <UniqueID>  (80) 
80

>  <SMILES>  (80) 
C=C(C(=O)[O-])C(=O)n1c(C([NH-])=O)cc2ccc(CC(=O)OC)cc21

>  <Energy>  (80) 
73.00471280646141

>  <Genealogy>  (80) 
C=C(C(=O)[O-])C(=O)n1c(C([NH-])=O)cc2ccc(CC(=O)OC)cc21 (protonated)
C=C(C(=O)[O-])C(=O)n1c(C([NH-])=O)cc2ccc(CC(=O)OC)cc21 (3D coordinates assigned)
C=C(C(=O)[O-])C(=O)n1c(C([NH-])=O)cc2ccc(CC(=O)OC)cc21 (optimized conformer: 73.00471280646141 kcal/mol)

>  <smiles>  (80) 
C=C(C(=O)O)C(=O)n1c(C(N)=O)cc2ccc(CC(=O)OC)cc21

>  <score_type>  (80) 
oracle

>  <origin>  (80) 
adg

>  <m_score__min__energy>  (80) 
-11.82

>  <m_primary>  (80) 
energy

$$$$
81:0
     RDKit          3D

 52 53  0  0  0  0  0  0  0  0999 V2000
   -5.0790   17.4530  -32.7430 C   0  0  0  0  0  0  0  0  0  0  0  0
   -4.6580   18.4410  -33.7530 N   0  0  0  0  0  0  0  0  0  0  0  0
   -5.6870   18.5340  -34.8000 C   0  0  0  0  0  0  0  0  0  0  0  0
   -3.3430   18.0610  -34.3190 C   0  0  0  0  0  0  0  0  0  0  0  0
   -2.1900   18.3320  -33.3360 C   0  0  0  0  0  0  0  0  0  0  0  0
   -0.9490   18.9480  -34.0040 C   0  0  0  0  0  0  0  0  0  0  0  0
   -0.9860   20.4210  -33.9720 N   0  0  0  0  0  0  0  0  0  0  0  0
   -0.2260   21.1650  -34.9810 C   0  0  0  0  0  0  0  0  0  0  0  0
   -1.7720   21.1690  -33.0150 C   0  0  0  0  0  0  0  0  0  0  0  0
   -1.1990   21.6960  -32.0210 O   0  0  0  0  0  0  0  0  0  0  0  0
   -3.2690   21.2870  -33.1040 C   0  0  0  0  0  0  0  0  0  0  0  0
   -3.8630   21.1830  -31.7330 C   0  0  0  0  0  0  0  0  0  0  0  0
   -3.3180   20.4570  -30.8610 O   0  0  0  0  0  0  0  0  0  0  0  0
   -4.9930   21.9880  -31.3790 N   0  0  0  0  0  0  0  0  0  0  0  0
   -4.9890   23.2260  -30.8130 C   0  0  0  0  0  0  0  0  0  0  0  0
   -3.7800   24.0430  -30.5630 C   0  0  0  0  0  0  0  0  0  0  0  0
   -2.5160   23.4260  -30.3120 N   0  0  0  0  0  0  0  0  0  0  0  0
   -3.8590   25.2990  -30.5630 O   0  0  0  0  0  0  0  0  0  0  0  0
   -6.2960   23.6340  -30.5370 C   0  0  0  0  0  0  0  0  0  0  0  0
   -7.0980   22.5910  -30.9480 C   0  0  0  0  0  0  0  0  0  0  0  0
   -8.4810   22.4470  -30.9010 C   0  0  0  0  0  0  0  0  0  0  0  0
   -9.0330   21.2430  -31.3710 C   0  0  0  0  0  0  0  0  0  0  0  0
   -8.2010   20.1980  -31.8520 C   0  0  0  0  0  0  0  0  0  0  0  0
   -8.8030   18.9210  -32.3810 C   0  0  0  0  0  0  0  0  0  0  0  0
   -7.8610   18.1850  -33.0800 F   0  0  0  0  0  0  0  0  0  0  0  0
   -9.2700   18.1660  -31.3200 F   0  0  0  0  0  0  0  0  0  0  0  0
   -9.8580   19.1980  -33.2350 F   0  0  0  0  0  0  0  0  0  0  0  0
   -6.8010   20.3960  -31.9100 C   0  0  0  0  0  0  0  0  0  0  0  0
   -6.2830   21.6100  -31.4490 C   0  0  0  0  0  0  0  0  0  0  0  0
   -4.9052   17.8609  -31.7363 H   0  0  0  0  0  0  0  0  0  0  0  0
   -6.1492   17.2325  -32.8695 H   0  0  0  0  0  0  0  0  0  0  0  0
   -4.4967   16.5284  -32.8695 H   0  0  0  0  0  0  0  0  0  0  0  0
   -6.6787   18.6236  -34.3325 H   0  0  0  0  0  0  0  0  0  0  0  0
   -5.4951   19.4185  -35.4252 H   0  0  0  0  0  0  0  0  0  0  0  0
   -5.6568   17.6295  -35.4252 H   0  0  0  0  0  0  0  0  0  0  0  0
   -3.3578   16.9882  -34.5615 H   0  0  0  0  0  0  0  0  0  0  0  0
   -3.1721   18.6709  -35.2184 H   0  0  0  0  0  0  0  0  0  0  0  0
   -2.5486   19.0250  -32.5606 H   0  0  0  0  0  0  0  0  0  0  0  0
   -1.8852   17.3613  -32.9178 H   0  0  0  0  0  0  0  0  0  0  0  0
   -0.0499   18.6026  -33.4726 H   0  0  0  0  0  0  0  0  0  0  0  0
   -0.9326   18.6287  -35.0565 H   0  0  0  0  0  0  0  0  0  0  0  0
    0.4741   21.8504  -34.4810 H   0  0  0  0  0  0  0  0  0  0  0  0
    0.3373   20.4596  -35.6095 H   0  0  0  0  0  0  0  0  0  0  0  0
   -0.9192   21.7432  -35.6095 H   0  0  0  0  0  0  0  0  0  0  0  0
   -3.5341   22.2592  -33.5452 H   0  0  0  0  0  0  0  0  0  0  0  0
   -3.6627   20.4768  -33.7354 H   0  0  0  0  0  0  0  0  0  0  0  0
   -1.6760   24.0180  -30.1200 H   0  0  0  0  0  0  0  0  0  0  0  0
   -2.3940   22.3920  -30.3700 H   0  0  0  0  0  0  0  0  0  0  0  0
   -6.6170   24.5852  -30.0874 H   0  0  0  0  0  0  0  0  0  0  0  0
   -9.1221   23.2500  -30.5084 H   0  0  0  0  0  0  0  0  0  0  0  0
  -10.1247   21.1085  -31.3661 H   0  0  0  0  0  0  0  0  0  0  0  0
   -6.1370   19.6144  -32.3078 H   0  0  0  0  0  0  0  0  0  0  0  0
  1  2  1  0
  2  3  1  0
  2  4  1  0
  4  5  1  0
  5  6  1  0
  6  7  1  0
  7  8  1  0
  7  9  1  0
  9 10  2  0
  9 11  1  0
 11 12  1  0
 12 13  2  0
 12 14  1  0
 14 15  1  0
 15 16  1  0
 16 17  1  0
 16 18  2  0
 15 19  2  0
 19 20  1  0
 20 21  2  0
 21 22  1  0
 22 23  2  0
 23 24  1  0
 24 25  1  0
 24 26  1  0
 24 27  1  0
 23 28  1  0
 28 29  2  0
 29 14  1  0
 29 20  1  0
  1 30  1  0
  1 31  1  0
  1 32  1  0
  3 33  1  0
  3 34  1  0
  3 35  1  0
  4 36  1  0
  4 37  1  0
  5 38  1  0
  5 39  1  0
  6 40  1  0
  6 41  1  0
  8 42  1  0
  8 43  1  0
  8 44  1  0
 11 45  1  0
 11 46  1  0
 17 47  1  0
 17 48  1  0
 19 49  1  0
 21 50  1  0
 22 51  1  0
 28 52  1  0
M  END
>  <UniqueID>  (81) 
81

>  <SMILES>  (81) 
CN(C)CCCN(C)C(=O)CC(=O)n1c(C(N)=O)cc2ccc(C(F)(F)F)cc21

>  <Energy>  (81) 
84.82484200501578

>  <Genealogy>  (81) 
CN(C)CCCN(C)C(=O)CC(=O)n1c(C(N)=O)cc2ccc(C(F)(F)F)cc21 (3D coordinates assigned)
CN(C)CCCN(C)C(=O)CC(=O)n1c(C(N)=O)cc2ccc(C(F)(F)F)cc21 (optimized conformer: 84.82484200501578 kcal/mol)

>  <smiles>  (81) 
CN(C)CCCN(C)C(=O)CC(=O)n1c(C(N)=O)cc2ccc(C(F)(F)F)cc21

>  <score_type>  (81) 
oracle

>  <origin>  (81) 
adg

>  <m_score__min__energy>  (81) 
-8.6600000000000001

>  <m_primary>  (81) 
energy

$$$$
82:0
     RDKit          3D

 44 45  0  0  0  0  0  0  0  0999 V2000
   -1.1920   23.8680  -27.3200 C   0  0  0  0  0  0  0  0  0  0  0  0
   -2.1420   24.5850  -28.2380 C   0  0  0  0  0  0  0  0  0  0  0  0
   -1.7000   25.4620  -28.9690 O   0  0  0  0  0  0  0  0  0  0  0  0
   -3.5540   24.2650  -28.2520 N   0  0  2  0  0  0  0  0  0  0  0  0
   -4.1530   24.5000  -26.9270 C   0  0  0  0  0  0  0  0  0  0  0  0
   -3.7290   22.8920  -28.6770 C   0  0  0  0  0  0  0  0  0  0  0  0
   -3.6040   21.9490  -27.8450 O   0  0  0  0  0  0  0  0  0  0  0  0
   -3.9910   22.5610  -30.0940 C   0  0  0  0  0  0  0  0  0  0  0  0
   -3.0570   22.1520  -30.8330 O   0  0  0  0  0  0  0  0  0  0  0  0
   -5.3010   22.7390  -30.6530 N   0  0  0  0  0  0  0  0  0  0  0  0
   -5.9930   23.9010  -30.8180 C   0  0  0  0  0  0  0  0  0  0  0  0
   -5.5660   25.2330  -30.3430 C   0  0  0  0  0  0  0  0  0  0  0  0
   -4.2280   25.6710  -30.5640 N   0  0  0  0  0  0  0  0  0  0  0  0
   -6.3790   26.0010  -29.7620 O   0  0  0  0  0  0  0  0  0  0  0  0
   -7.2120   23.6540  -31.4490 C   0  0  0  0  0  0  0  0  0  0  0  0
   -7.2460   22.2930  -31.6580 C   0  0  0  0  0  0  0  0  0  0  0  0
   -8.2180   21.5000  -32.2600 C   0  0  0  0  0  0  0  0  0  0  0  0
   -7.9720   20.1200  -32.3600 C   0  0  0  0  0  0  0  0  0  0  0  0
   -6.7700   19.5620  -31.8580 C   0  0  0  0  0  0  0  0  0  0  0  0
   -6.5040   18.0860  -32.0070 C   0  0  0  0  0  0  0  0  0  0  0  0
   -6.8750   17.5650  -33.4060 C   0  0  0  0  0  0  0  0  0  0  0  0
   -5.8590   17.9590  -34.4840 C   0  0  0  0  0  0  0  0  0  0  0  0
   -6.0970   19.2680  -34.9220 O   0  0  0  0  0  0  0  0  0  0  0  0
   -5.8070   20.3990  -31.2510 C   0  0  0  0  0  0  0  0  0  0  0  0
   -6.0820   21.7650  -31.1630 C   0  0  0  0  0  0  0  0  0  0  0  0
   -1.4658   24.0747  -26.2749 H   0  0  0  0  0  0  0  0  0  0  0  0
   -1.2485   22.7854  -27.5067 H   0  0  0  0  0  0  0  0  0  0  0  0
   -0.1664   24.2192  -27.5067 H   0  0  0  0  0  0  0  0  0  0  0  0
   -4.0560   24.8980  -28.9170 H   0  0  0  0  0  0  0  0  0  0  0  0
   -3.4336   24.2178  -26.1441 H   0  0  0  0  0  0  0  0  0  0  0  0
   -4.4083   25.5650  -26.8237 H   0  0  0  0  0  0  0  0  0  0  0  0
   -5.0644   23.8928  -26.8237 H   0  0  0  0  0  0  0  0  0  0  0  0
   -3.5290   25.6760  -29.7880 H   0  0  0  0  0  0  0  0  0  0  0  0
   -7.9827   24.3899  -31.7218 H   0  0  0  0  0  0  0  0  0  0  0  0
   -9.1498   21.9395  -32.6456 H   0  0  0  0  0  0  0  0  0  0  0  0
   -8.7199   19.4664  -32.8327 H   0  0  0  0  0  0  0  0  0  0  0  0
   -5.4340   17.8998  -31.8323 H   0  0  0  0  0  0  0  0  0  0  0  0
   -7.1287   17.5554  -31.2734 H   0  0  0  0  0  0  0  0  0  0  0  0
   -6.9350   16.4674  -33.3661 H   0  0  0  0  0  0  0  0  0  0  0  0
   -7.8377   18.0207  -33.6808 H   0  0  0  0  0  0  0  0  0  0  0  0
   -4.8435   17.8953  -34.0660 H   0  0  0  0  0  0  0  0  0  0  0  0
   -5.9592   17.2726  -35.3377 H   0  0  0  0  0  0  0  0  0  0  0  0
   -7.0720   19.3280  -35.0950 H   0  0  0  0  0  0  0  0  0  0  0  0
   -4.8662   19.9857  -30.8585 H   0  0  0  0  0  0  0  0  0  0  0  0
  1  2  1  0
  2  3  2  0
  2  4  1  0
  4  5  1  0
  4  6  1  0
  6  7  2  0
  6  8  1  0
  8  9  2  0
  8 10  1  0
 10 11  1  0
 11 12  1  0
 12 13  1  0
 12 14  2  0
 11 15  2  0
 15 16  1  0
 16 17  2  0
 17 18  1  0
 18 19  2  0
 19 20  1  0
 20 21  1  0
 21 22  1  0
 22 23  1  0
 19 24  1  0
 24 25  2  0
 25 10  1  0
 25 16  1  0
  1 26  1  0
  1 27  1  0
  1 28  1  0
  4 29  1  6
  5 30  1  0
  5 31  1  0
  5 32  1  0
 13 33  1  0
 15 34  1  0
 17 35  1  0
 18 36  1  0
 20 37  1  0
 20 38  1  0
 21 39  1  0
 21 40  1  0
 22 41  1  0
 22 42  1  0
 23 43  1  0
 24 44  1  0
M  CHG  2   4   1  13  -1
M  END
>  <UniqueID>  (82) 
82

>  <SMILES>  (82) 
CC(=O)[NH+](C)C(=O)C(=O)n1c(C([NH-])=O)cc2ccc(CCCO)cc21

>  <Energy>  (82) 
78.95425300227136

>  <Genealogy>  (82) 
CC(=O)[NH+](C)C(=O)C(=O)n1c(C([NH-])=O)cc2ccc(CCCO)cc21 (protonated)
CC(=O)[NH+](C)C(=O)C(=O)n1c(C([NH-])=O)cc2ccc(CCCO)cc21 (3D coordinates assigned)
CC(=O)[NH+](C)C(=O)C(=O)n1c(C([NH-])=O)cc2ccc(CCCO)cc21 (optimized conformer: 78.95425300227136 kcal/mol)

>  <smiles>  (82) 
CC(=O)N(C)C(=O)C(=O)n1c(C(N)=O)cc2ccc(CCCO)cc21

>  <score_type>  (82) 
oracle

>  <origin>  (82) 
adg

>  <m_score__min__energy>  (82) 
-9.5399999999999991

>  <m_primary>  (82) 
energy

$$$$
83:0
     RDKit          3D

 35 36  0  0  0  0  0  0  0  0999 V2000
   -5.7010   25.0070  -29.0490 N   0  0  0  0  0  0  0  0  0  0  0  0
   -5.5960   24.6030  -30.4150 C   0  0  0  0  0  0  0  0  0  0  0  0
   -4.9240   25.3060  -31.2160 O   0  0  0  0  0  0  0  0  0  0  0  0
   -6.2050   23.3450  -30.8890 C   0  0  0  0  0  0  0  0  0  0  0  0
   -7.5800   23.1460  -30.9760 C   0  0  0  0  0  0  0  0  0  0  0  0
   -7.7310   21.8910  -31.5190 C   0  0  0  0  0  0  0  0  0  0  0  0
   -8.8910   21.1790  -31.8140 C   0  0  0  0  0  0  0  0  0  0  0  0
   -8.7530   19.8830  -32.3370 C   0  0  0  0  0  0  0  0  0  0  0  0
   -7.4690   19.3220  -32.5480 C   0  0  0  0  0  0  0  0  0  0  0  0
   -7.3260   17.9260  -33.0830 C   0  0  0  0  0  0  0  0  0  0  0  0
   -6.4730   17.9260  -34.1730 F   0  0  0  0  0  0  0  0  0  0  0  0
   -6.8100   17.1030  -32.0990 F   0  0  0  0  0  0  0  0  0  0  0  0
   -6.3150   20.0720  -32.2290 C   0  0  0  0  0  0  0  0  0  0  0  0
   -6.4800   21.3700  -31.7310 C   0  0  0  0  0  0  0  0  0  0  0  0
   -5.5300   22.2520  -31.3440 N   0  0  0  0  0  0  0  0  0  0  0  0
   -4.1110   22.0260  -31.3180 C   0  0  0  0  0  0  0  0  0  0  0  0
   -3.6570   20.8520  -31.3980 O   0  0  0  0  0  0  0  0  0  0  0  0
   -3.2360   23.1110  -31.2090 O   0  0  0  0  0  0  0  0  0  0  0  0
   -2.1280   23.1220  -30.3170 C   0  0  0  0  0  0  0  0  0  0  0  0
   -2.5480   23.6960  -29.0390 C   0  0  0  0  0  0  0  0  0  0  0  0
   -2.9000   24.1710  -27.9880 C   0  0  0  0  0  0  0  0  0  0  0  0
   -3.3310   24.7530  -26.7130 C   0  0  0  0  0  0  0  0  0  0  0  0
   -4.6880   25.0920  -26.7760 O   0  0  0  0  0  0  0  0  0  0  0  0
   -6.1020   24.3670  -28.3270 H   0  0  0  0  0  0  0  0  0  0  0  0
   -5.2960   25.9180  -28.7390 H   0  0  0  0  0  0  0  0  0  0  0  0
   -8.3758   23.8432  -30.6749 H   0  0  0  0  0  0  0  0  0  0  0  0
   -9.8848   21.6183  -31.6426 H   0  0  0  0  0  0  0  0  0  0  0  0
   -9.6506   19.2976  -32.5853 H   0  0  0  0  0  0  0  0  0  0  0  0
   -8.3146   17.5564  -33.3929 H   0  0  0  0  0  0  0  0  0  0  0  0
   -5.3105   19.6461  -32.3686 H   0  0  0  0  0  0  0  0  0  0  0  0
   -1.7718   22.0933  -30.1594 H   0  0  0  0  0  0  0  0  0  0  0  0
   -1.3140   23.7257  -30.7447 H   0  0  0  0  0  0  0  0  0  0  0  0
   -3.1755   24.0206  -25.9071 H   0  0  0  0  0  0  0  0  0  0  0  0
   -2.7412   25.6595  -26.5120 H   0  0  0  0  0  0  0  0  0  0  0  0
   -4.7320   26.0420  -27.0630 H   0  0  0  0  0  0  0  0  0  0  0  0
  1  2  1  0
  2  3  2  0
  2  4  1  0
  4  5  2  0
  5  6  1  0
  6  7  2  0
  7  8  1  0
  8  9  2  0
  9 10  1  0
 10 11  1  0
 10 12  1  0
  9 13  1  0
 13 14  2  0
 14 15  1  0
 15 16  1  0
 16 17  2  0
 16 18  1  0
 18 19  1  0
 19 20  1  0
 20 21  3  0
 21 22  1  0
 22 23  1  0
 15  4  1  0
 14  6  1  0
  1 24  1  0
  1 25  1  0
  5 26  1  0
  7 27  1  0
  8 28  1  0
 10 29  1  0
 13 30  1  0
 19 31  1  0
 19 32  1  0
 22 33  1  0
 22 34  1  0
 23 35  1  0
M  END
>  <UniqueID>  (83) 
83

>  <SMILES>  (83) 
NC(=O)c1cc2ccc(C(F)F)cc2n1C(=O)OCC#CCO

>  <Energy>  (83) 
66.42209433944711

>  <Genealogy>  (83) 
NC(=O)c1cc2ccc(C(F)F)cc2n1C(=O)OCC#CCO (3D coordinates assigned)
NC(=O)c1cc2ccc(C(F)F)cc2n1C(=O)OCC#CCO (optimized conformer: 66.42209433944711 kcal/mol)

>  <smiles>  (83) 
NC(=O)c1cc2ccc(C(F)F)cc2n1C(=O)OCC#CCO

>  <score_type>  (83) 
oracle

>  <origin>  (83) 
adg

>  <m_score__min__energy>  (83) 
-8.7100000000000009

>  <m_primary>  (83) 
energy

$$$$
84:0
     RDKit          3D

 43 44  0  0  0  0  0  0  0  0999 V2000
   -3.1430   24.6130  -27.1200 C   0  0  0  0  0  0  0  0  0  0  0  0
   -3.2190   24.0250  -28.5330 C   0  0  1  0  0  0  0  0  0  0  0  0
   -2.3390   24.7160  -29.3770 O   0  0  0  0  0  0  0  0  0  0  0  0
   -2.8550   22.5300  -28.5100 C   0  0  0  0  0  0  0  0  0  0  0  0
   -3.3130   21.8390  -29.7290 N   0  0  0  0  0  0  0  0  0  0  0  0
   -3.0040   20.4170  -29.9090 C   0  0  0  0  0  0  0  0  0  0  0  0
   -3.9080   22.5620  -30.8310 C   0  0  0  0  0  0  0  0  0  0  0  0
   -3.1740   23.0830  -31.7140 O   0  0  0  0  0  0  0  0  0  0  0  0
   -5.3290   22.7190  -30.9350 N   0  0  0  0  0  0  0  0  0  0  0  0
   -6.0480   23.8670  -30.8080 C   0  0  0  0  0  0  0  0  0  0  0  0
   -5.5050   25.1960  -30.4540 C   0  0  0  0  0  0  0  0  0  0  0  0
   -4.1910   25.5970  -30.8440 N   0  0  0  0  0  0  0  0  0  0  0  0
   -6.2060   25.9830  -29.7640 O   0  0  0  0  0  0  0  0  0  0  0  0
   -7.3880   23.6370  -31.1160 C   0  0  0  0  0  0  0  0  0  0  0  0
   -7.4620   22.3020  -31.4470 C   0  0  0  0  0  0  0  0  0  0  0  0
   -8.5480   21.5370  -31.8590 C   0  0  0  0  0  0  0  0  0  0  0  0
   -8.3200   20.1890  -32.1820 C   0  0  0  0  0  0  0  0  0  0  0  0
   -7.0120   19.6380  -32.1200 C   0  0  0  0  0  0  0  0  0  0  0  0
   -6.7850   18.1760  -32.4370 C   0  0  0  0  0  0  0  0  0  0  0  0
   -6.1300   18.0290  -33.8070 C   0  0  0  0  0  0  0  0  0  0  0  0
   -5.9660   17.6010  -31.4770 F   0  0  0  0  0  0  0  0  0  0  0  0
   -7.9880   17.4890  -32.4350 F   0  0  0  0  0  0  0  0  0  0  0  0
   -5.9360   20.4490  -31.6870 C   0  0  0  0  0  0  0  0  0  0  0  0
   -6.2010   21.7760  -31.3440 C   0  0  0  0  0  0  0  0  0  0  0  0
   -3.2474   23.8053  -26.3806 H   0  0  0  0  0  0  0  0  0  0  0  0
   -2.1728   25.1128  -26.9825 H   0  0  0  0  0  0  0  0  0  0  0  0
   -3.9543   25.3430  -26.9825 H   0  0  0  0  0  0  0  0  0  0  0  0
   -4.2470   24.1316  -28.9096 H   0  0  0  0  0  0  0  0  0  0  0  0
   -2.1020   24.0970  -30.1170 H   0  0  0  0  0  0  0  0  0  0  0  0
   -1.7623   22.4302  -28.4328 H   0  0  0  0  0  0  0  0  0  0  0  0
   -3.3548   22.0684  -27.6456 H   0  0  0  0  0  0  0  0  0  0  0  0
   -2.8997   19.9370  -28.9248 H   0  0  0  0  0  0  0  0  0  0  0  0
   -3.8179   19.9329  -30.4686 H   0  0  0  0  0  0  0  0  0  0  0  0
   -2.0626   20.3143  -30.4686 H   0  0  0  0  0  0  0  0  0  0  0  0
   -3.8630   26.5690  -30.6450 H   0  0  0  0  0  0  0  0  0  0  0  0
   -3.4990   24.9110  -31.2140 H   0  0  0  0  0  0  0  0  0  0  0  0
   -8.2111   24.3665  -31.0984 H   0  0  0  0  0  0  0  0  0  0  0  0
   -9.5549   21.9742  -31.9298 H   0  0  0  0  0  0  0  0  0  0  0  0
   -9.1640   19.5527  -32.4865 H   0  0  0  0  0  0  0  0  0  0  0  0
   -5.0639   17.7897  -33.6799 H   0  0  0  0  0  0  0  0  0  0  0  0
   -6.6236   17.2193  -34.3644 H   0  0  0  0  0  0  0  0  0  0  0  0
   -6.2302   18.9720  -34.3644 H   0  0  0  0  0  0  0  0  0  0  0  0
   -4.9155   20.0435  -31.6223 H   0  0  0  0  0  0  0  0  0  0  0  0
  1  2  1  0
  2  3  1  0
  2  4  1  0
  4  5  1  0
  5  6  1  0
  5  7  1  0
  7  8  2  0
  7  9  1  0
  9 10  1  0
 10 11  1  0
 11 12  1  0
 11 13  2  0
 10 14  2  0
 14 15  1  0
 15 16  2  0
 16 17  1  0
 17 18  2  0
 18 19  1  0
 19 20  1  0
 19 21  1  0
 19 22  1  0
 18 23  1  0
 23 24  2  0
 24  9  1  0
 24 15  1  0
  1 25  1  0
  1 26  1  0
  1 27  1  0
  2 28  1  6
  3 29  1  0
  4 30  1  0
  4 31  1  0
  6 32  1  0
  6 33  1  0
  6 34  1  0
 12 35  1  0
 12 36  1  0
 14 37  1  0
 16 38  1  0
 17 39  1  0
 20 40  1  0
 20 41  1  0
 20 42  1  0
 23 43  1  0
M  END
>  <UniqueID>  (84) 
84

>  <SMILES>  (84) 
C[C@@H](O)CN(C)C(=O)n1c(C(N)=O)cc2ccc(C(C)(F)F)cc21

>  <Energy>  (84) 
76.70394670721679

>  <Genealogy>  (84) 
C[C@@H](O)CN(C)C(=O)n1c(C(N)=O)cc2ccc(C(C)(F)F)cc21 (chirality)
C[C@@H](O)CN(C)C(=O)n1c(C(N)=O)cc2ccc(C(C)(F)F)cc21 (3D coordinates assigned)
C[C@@H](O)CN(C)C(=O)n1c(C(N)=O)cc2ccc(C(C)(F)F)cc21 (optimized conformer: 76.70394670721679 kcal/mol)

>  <smiles>  (84) 
CC(O)CN(C)C(=O)n1c(C(N)=O)cc2ccc(C(C)(F)F)cc21

>  <score_type>  (84) 
oracle

>  <origin>  (84) 
adg

>  <m_score__min__energy>  (84) 
-8.9299999999999997

>  <m_primary>  (84) 
energy

$$$$
85:0
     RDKit          3D

 41 42  0  0  0  0  0  0  0  0999 V2000
   -4.2350   25.5870  -30.4620 N   0  0  0  0  0  0  0  0  0  0  0  0
   -5.6110   25.2300  -30.3300 C   0  0  0  0  0  0  0  0  0  0  0  0
   -6.4010   26.0280  -29.7610 O   0  0  0  0  0  0  0  0  0  0  0  0
   -6.1320   23.9630  -30.8840 C   0  0  0  0  0  0  0  0  0  0  0  0
   -7.4890   23.6870  -31.0350 C   0  0  0  0  0  0  0  0  0  0  0  0
   -7.5490   22.3730  -31.4500 C   0  0  0  0  0  0  0  0  0  0  0  0
   -8.6490   21.5510  -31.6770 C   0  0  0  0  0  0  0  0  0  0  0  0
   -8.4120   20.2000  -31.9830 C   0  0  0  0  0  0  0  0  0  0  0  0
   -7.0870   19.6970  -32.0650 C   0  0  0  0  0  0  0  0  0  0  0  0
   -6.8460   18.2200  -32.2540 C   0  0  0  0  0  0  0  0  0  0  0  0
   -8.0450   17.5330  -32.3360 F   0  0  0  0  0  0  0  0  0  0  0  0
   -6.1150   17.7020  -31.1990 F   0  0  0  0  0  0  0  0  0  0  0  0
   -5.7580   17.9410  -34.0670 I   0  0  0  0  0  0  0  0  0  0  0  0
   -4.8290   17.7070  -35.6200 O   0  0  0  0  0  0  0  0  0  0  0  0
   -5.9970   20.5650  -31.8280 C   0  0  0  0  0  0  0  0  0  0  0  0
   -6.2660   21.9040  -31.5310 C   0  0  0  0  0  0  0  0  0  0  0  0
   -5.3870   22.8670  -31.1950 N   0  0  0  0  0  0  0  0  0  0  0  0
   -3.9890   22.6600  -30.9480 C   0  0  0  0  0  0  0  0  0  0  0  0
   -3.1450   23.4510  -31.4470 O   0  0  0  0  0  0  0  0  0  0  0  0
   -3.5170   21.4910  -30.1360 C   0  0  0  0  0  0  0  0  0  0  0  0
   -2.6330   21.9340  -29.1200 O   0  0  0  0  0  0  0  0  0  0  0  0
   -3.3450   22.3400  -27.9720 C   0  0  0  0  0  0  0  0  0  0  0  0
   -3.8200   23.6610  -28.1440 O   0  0  0  0  0  0  0  0  0  0  0  0
   -3.1550   24.5500  -27.2640 C   0  0  0  0  0  0  0  0  0  0  0  0
   -1.9820   25.2110  -27.9820 C   0  0  0  0  0  0  0  0  0  0  0  0
   -2.1330   25.0740  -29.3680 O   0  0  0  0  0  0  0  0  0  0  0  0
   -3.8610   26.4230  -29.9570 H   0  0  0  0  0  0  0  0  0  0  0  0
   -3.6060   25.0800  -31.1180 H   0  0  0  0  0  0  0  0  0  0  0  0
   -8.3326   24.3710  -30.8605 H   0  0  0  0  0  0  0  0  0  0  0  0
   -9.6735   21.9471  -31.6186 H   0  0  0  0  0  0  0  0  0  0  0  0
   -9.2622   19.5251  -32.1609 H   0  0  0  0  0  0  0  0  0  0  0  0
   -4.9620   20.1956  -31.8761 H   0  0  0  0  0  0  0  0  0  0  0  0
   -4.3831   20.9941  -29.6746 H   0  0  0  0  0  0  0  0  0  0  0  0
   -2.9886   20.7841  -30.7925 H   0  0  0  0  0  0  0  0  0  0  0  0
   -4.1976   21.6634  -27.8130 H   0  0  0  0  0  0  0  0  0  0  0  0
   -2.6762   22.3057  -27.0993 H   0  0  0  0  0  0  0  0  0  0  0  0
   -3.8596   25.3246  -26.9269 H   0  0  0  0  0  0  0  0  0  0  0  0
   -2.7783   23.9872  -26.3972 H   0  0  0  0  0  0  0  0  0  0  0  0
   -1.9507   26.2795  -27.7224 H   0  0  0  0  0  0  0  0  0  0  0  0
   -1.0459   24.7249  -27.6699 H   0  0  0  0  0  0  0  0  0  0  0  0
   -2.3550   24.1190  -29.5290 H   0  0  0  0  0  0  0  0  0  0  0  0
  1  2  1  0
  2  3  2  0
  2  4  1  0
  4  5  2  0
  5  6  1  0
  6  7  2  0
  7  8  1  0
  8  9  2  0
  9 10  1  0
 10 11  1  0
 10 12  1  0
 10 13  1  0
 13 14  2  0
  9 15  1  0
 15 16  2  0
 16 17  1  0
 17 18  1  0
 18 19  2  0
 18 20  1  0
 20 21  1  0
 21 22  1  0
 22 23  1  0
 23 24  1  0
 24 25  1  0
 25 26  1  0
 17  4  1  0
 16  6  1  0
  1 27  1  0
  1 28  1  0
  5 29  1  0
  7 30  1  0
  8 31  1  0
 15 32  1  0
 20 33  1  0
 20 34  1  0
 22 35  1  0
 22 36  1  0
 24 37  1  0
 24 38  1  0
 25 39  1  0
 25 40  1  0
 26 41  1  0
M  END
>  <UniqueID>  (85) 
85

>  <SMILES>  (85) 
NC(=O)c1cc2ccc(C(F)(F)I=O)cc2n1C(=O)COCOCCO

>  <Energy>  (85) 
84.72688068136121

>  <Genealogy>  (85) 
NC(=O)c1cc2ccc(C(F)(F)I=O)cc2n1C(=O)COCOCCO (3D coordinates assigned)
NC(=O)c1cc2ccc(C(F)(F)I=O)cc2n1C(=O)COCOCCO (optimized conformer: 84.72688068136121 kcal/mol)

>  <smiles>  (85) 
NC(=O)c1cc2ccc(C(F)(F)I=O)cc2n1C(=O)COCOCCO

>  <score_type>  (85) 
oracle

>  <origin>  (85) 
adg

>  <m_score__min__energy>  (85) 
-8.7300000000000004

>  <m_primary>  (85) 
energy

$$$$
86:0
     RDKit          3D

 30 31  0  0  0  0  0  0  0  0999 V2000
   -1.6130   25.7450  -28.9580 N   0  0  0  0  0  0  0  0  0  0  0  0
   -1.0700   24.4350  -29.1020 C   0  0  0  0  0  0  0  0  0  0  0  0
    0.0270   24.1570  -28.5490 O   0  0  0  0  0  0  0  0  0  0  0  0
   -1.7440   23.4200  -29.9390 C   0  0  0  0  0  0  0  0  0  0  0  0
   -1.1280   22.2450  -30.3610 C   0  0  0  0  0  0  0  0  0  0  0  0
   -2.0420   21.6280  -31.1840 C   0  0  0  0  0  0  0  0  0  0  0  0
   -1.9560   20.4220  -31.8710 C   0  0  0  0  0  0  0  0  0  0  0  0
   -3.0660   20.0130  -32.6260 C   0  0  0  0  0  0  0  0  0  0  0  0
   -4.2410   20.8080  -32.6800 C   0  0  0  0  0  0  0  0  0  0  0  0
   -5.3790   20.3790  -33.4570 N   0  0  0  0  0  0  0  0  0  0  0  0
   -6.5450   20.0730  -32.6110 C   0  0  0  0  0  0  0  0  0  0  0  0
   -6.8610   18.5700  -32.5300 C   0  0  0  0  0  0  0  0  0  0  0  0
   -8.2160   18.3660  -32.3470 F   0  0  0  0  0  0  0  0  0  0  0  0
   -6.1640   17.9830  -31.4900 F   0  0  0  0  0  0  0  0  0  0  0  0
   -6.4770   17.9620  -33.7110 F   0  0  0  0  0  0  0  0  0  0  0  0
   -4.2900   22.0270  -31.9630 C   0  0  0  0  0  0  0  0  0  0  0  0
   -3.1610   22.4190  -31.2340 C   0  0  0  0  0  0  0  0  0  0  0  0
   -2.9950   23.5240  -30.4710 N   0  0  0  0  0  0  0  0  0  0  0  0
   -3.9820   24.5340  -30.2060 C   0  0  0  0  0  0  0  0  0  0  0  0
   -3.8960   25.6660  -30.7520 O   0  0  0  0  0  0  0  0  0  0  0  0
   -5.0560   24.2620  -29.3690 O   0  0  0  0  0  0  0  0  0  0  0  0
   -2.6440   25.9020  -28.9610 H   0  0  0  0  0  0  0  0  0  0  0  0
   -0.1233   21.8859  -30.0932 H   0  0  0  0  0  0  0  0  0  0  0  0
   -1.0452   19.8070  -31.8240 H   0  0  0  0  0  0  0  0  0  0  0  0
   -3.0252   19.0651  -33.1826 H   0  0  0  0  0  0  0  0  0  0  0  0
   -5.1120   19.5110  -33.9800 H   0  0  0  0  0  0  0  0  0  0  0  0
   -5.6310   21.0970  -34.1760 H   0  0  0  0  0  0  0  0  0  0  0  0
   -6.3454   20.4430  -31.5945 H   0  0  0  0  0  0  0  0  0  0  0  0
   -7.4166   20.5647  -33.0677 H   0  0  0  0  0  0  0  0  0  0  0  0
   -5.1948   22.6524  -31.9781 H   0  0  0  0  0  0  0  0  0  0  0  0
  1  2  1  0
  2  3  2  0
  2  4  1  0
  4  5  2  0
  5  6  1  0
  6  7  2  0
  7  8  1  0
  8  9  2  0
  9 10  1  0
 10 11  1  0
 11 12  1  0
 12 13  1  0
 12 14  1  0
 12 15  1  0
  9 16  1  0
 16 17  2  0
 17 18  1  0
 18 19  1  0
 19 20  2  0
 19 21  1  0
 18  4  1  0
 17  6  1  0
  1 22  1  0
  5 23  1  0
  7 24  1  0
  8 25  1  0
 10 26  1  0
 10 27  1  0
 11 28  1  0
 11 29  1  0
 16 30  1  0
M  CHG  3   1  -1  10   1  21  -1
M  END
>  <UniqueID>  (86) 
86

>  <SMILES>  (86) 
[NH-]C(=O)c1cc2ccc([NH2+]CC(F)(F)F)cc2n1C(=O)[O-]

>  <Energy>  (86) 
70.63023694779613

>  <Genealogy>  (86) 
[NH-]C(=O)c1cc2ccc([NH2+]CC(F)(F)F)cc2n1C(=O)[O-] (protonated)
[NH-]C(=O)c1cc2ccc([NH2+]CC(F)(F)F)cc2n1C(=O)[O-] (3D coordinates assigned)
[NH-]C(=O)c1cc2ccc([NH2+]CC(F)(F)F)cc2n1C(=O)[O-] (optimized conformer: 70.63023694779613 kcal/mol)

>  <smiles>  (86) 
NC(=O)c1cc2ccc(NCC(F)(F)F)cc2n1C(=O)O

>  <score_type>  (86) 
oracle

>  <origin>  (86) 
adg

>  <m_score__min__energy>  (86) 
-9.3599999999999994

>  <m_primary>  (86) 
energy

$$$$
87:0
     RDKit          3D

 57 59  0  0  0  0  0  0  0  0999 V2000
   -2.3470   19.4440  -32.1280 C   0  0  0  0  0  0  0  0  0  0  0  0
   -2.5120   20.8900  -32.3000 N   0  0  0  0  0  0  0  0  0  0  0  0
   -1.3030   21.7260  -32.3350 C   0  0  0  0  0  0  0  0  0  0  0  0
   -0.1620   21.0200  -31.6590 C   0  0  0  0  0  0  0  0  0  0  0  0
    0.8110   20.6070  -32.3450 O   0  0  0  0  0  0  0  0  0  0  0  0
   -0.1840   20.7830  -30.2420 N   0  0  0  0  0  0  0  0  0  0  0  0
   -0.5420   21.6480  -29.2530 C   0  0  0  0  0  0  0  0  0  0  0  0
   -0.8340   23.0850  -29.4240 C   0  0  0  0  0  0  0  0  0  0  0  0
   -2.0440   23.5270  -30.0420 N   0  0  0  0  0  0  0  0  0  0  0  0
    0.0250   23.9370  -29.0730 O   0  0  0  0  0  0  0  0  0  0  0  0
   -0.5590   21.0010  -28.0200 C   0  0  0  0  0  0  0  0  0  0  0  0
   -0.1860   19.7020  -28.2860 C   0  0  0  0  0  0  0  0  0  0  0  0
   -0.0450   18.6150  -27.4290 C   0  0  0  0  0  0  0  0  0  0  0  0
    0.3180   17.3780  -27.9890 C   0  0  0  0  0  0  0  0  0  0  0  0
    0.5040   17.2400  -29.3900 C   0  0  0  0  0  0  0  0  0  0  0  0
    0.9240   15.9130  -29.9710 C   0  0  0  0  0  0  0  0  0  0  0  0
   -0.0240   15.4470  -30.8680 F   0  0  0  0  0  0  0  0  0  0  0  0
    1.0720   14.9690  -28.9710 F   0  0  0  0  0  0  0  0  0  0  0  0
    2.1290   16.0660  -30.6290 F   0  0  0  0  0  0  0  0  0  0  0  0
    0.3750   18.3760  -30.2240 C   0  0  0  0  0  0  0  0  0  0  0  0
    0.0310   19.5970  -29.6350 C   0  0  0  0  0  0  0  0  0  0  0  0
   -3.7930   21.4570  -32.6630 C   0  0  0  0  0  0  0  0  0  0  0  0
   -3.9530   21.9320  -33.8230 O   0  0  0  0  0  0  0  0  0  0  0  0
   -4.9100   21.4720  -31.7490 N   0  0  0  0  0  0  0  0  0  0  0  0
   -6.2700   21.3170  -32.2790 C   0  0  0  0  0  0  0  0  0  0  0  0
   -6.9980   22.6670  -32.2330 C   0  0  0  0  0  0  0  0  0  0  0  0
   -6.8120   23.4250  -30.8800 C   0  0  0  0  0  0  0  0  0  0  0  0
   -6.1160   24.7960  -31.0700 C   0  0  0  0  0  0  0  0  0  0  0  0
   -5.0190   25.0470  -30.0250 C   0  0  0  0  0  0  0  0  0  0  0  0
   -3.8820   25.5890  -30.6400 O   0  0  0  0  0  0  0  0  0  0  0  0
   -6.0610   22.5710  -29.8310 C   0  0  0  0  0  0  0  0  0  0  0  0
   -4.7430   22.0010  -30.3850 C   0  0  0  0  0  0  0  0  0  0  0  0
   -2.3195   19.2032  -31.0550 H   0  0  0  0  0  0  0  0  0  0  0  0
   -3.1912   18.9199  -32.5999 H   0  0  0  0  0  0  0  0  0  0  0  0
   -1.4065   19.1236  -32.5999 H   0  0  0  0  0  0  0  0  0  0  0  0
   -1.0338   21.9314  -33.3816 H   0  0  0  0  0  0  0  0  0  0  0  0
   -1.5044   22.6692  -31.8060 H   0  0  0  0  0  0  0  0  0  0  0  0
   -2.6860   22.8550  -30.5170 H   0  0  0  0  0  0  0  0  0  0  0  0
   -2.2520   24.5480  -30.1120 H   0  0  0  0  0  0  0  0  0  0  0  0
   -0.8156   21.4347  -27.0422 H   0  0  0  0  0  0  0  0  0  0  0  0
   -0.2124   18.7204  -26.3469 H   0  0  0  0  0  0  0  0  0  0  0  0
    0.4598   16.5059  -27.3338 H   0  0  0  0  0  0  0  0  0  0  0  0
    0.5412   18.3006  -31.3088 H   0  0  0  0  0  0  0  0  0  0  0  0
   -6.2192   20.9638  -33.3195 H   0  0  0  0  0  0  0  0  0  0  0  0
   -6.8188   20.5853  -31.6679 H   0  0  0  0  0  0  0  0  0  0  0  0
   -6.6098   23.3006  -33.0441 H   0  0  0  0  0  0  0  0  0  0  0  0
   -8.0727   22.4610  -32.3453 H   0  0  0  0  0  0  0  0  0  0  0  0
   -7.8246   23.6141  -30.4941 H   0  0  0  0  0  0  0  0  0  0  0  0
   -5.6627   24.8259  -32.0718 H   0  0  0  0  0  0  0  0  0  0  0  0
   -6.8794   25.5787  -30.9487 H   0  0  0  0  0  0  0  0  0  0  0  0
   -5.3930   25.7510  -29.2670 H   0  0  0  0  0  0  0  0  0  0  0  0
   -4.7501   24.0923  -29.5493 H   0  0  0  0  0  0  0  0  0  0  0  0
   -4.0910   25.6710  -31.6070 H   0  0  0  0  0  0  0  0  0  0  0  0
   -5.8359   23.1999  -28.9570 H   0  0  0  0  0  0  0  0  0  0  0  0
   -6.7078   21.7244  -29.5574 H   0  0  0  0  0  0  0  0  0  0  0  0
   -3.9880   22.8008  -30.4026 H   0  0  0  0  0  0  0  0  0  0  0  0
   -4.4256   21.1742  -29.7327 H   0  0  0  0  0  0  0  0  0  0  0  0
  1  2  1  0
  2  3  1  0
  3  4  1  0
  4  5  2  0
  4  6  1  0
  6  7  1  0
  7  8  1  0
  8  9  1  0
  8 10  2  0
  7 11  2  0
 11 12  1  0
 12 13  2  0
 13 14  1  0
 14 15  2  0
 15 16  1  0
 16 17  1  0
 16 18  1  0
 16 19  1  0
 15 20  1  0
 20 21  2  0
  2 22  1  0
 22 23  2  0
 22 24  1  0
 24 25  1  0
 25 26  1  0
 26 27  1  0
 27 28  1  0
 28 29  1  0
 29 30  1  0
 27 31  1  0
 31 32  1  0
 21  6  1  0
 32 24  1  0
 21 12  1  0
  1 33  1  0
  1 34  1  0
  1 35  1  0
  3 36  1  0
  3 37  1  0
  9 38  1  0
  9 39  1  0
 11 40  1  0
 13 41  1  0
 14 42  1  0
 20 43  1  0
 25 44  1  0
 25 45  1  0
 26 46  1  0
 26 47  1  0
 27 48  1  0
 28 49  1  0
 28 50  1  0
 29 51  1  0
 29 52  1  0
 30 53  1  0
 31 54  1  0
 31 55  1  0
 32 56  1  0
 32 57  1  0
M  END
>  <UniqueID>  (87) 
87

>  <SMILES>  (87) 
CN(CC(=O)n1c(C(N)=O)cc2ccc(C(F)(F)F)cc21)C(=O)N1CCC(CCO)CC1

>  <Energy>  (87) 
101.12631772780534

>  <Genealogy>  (87) 
CN(CC(=O)n1c(C(N)=O)cc2ccc(C(F)(F)F)cc21)C(=O)N1CCC(CCO)CC1 (3D coordinates assigned)
CN(CC(=O)n1c(C(N)=O)cc2ccc(C(F)(F)F)cc21)C(=O)N1CCC(CCO)CC1 (nonaromatic ring conformer: 101.12631772780534 kcal/mol)

>  <smiles>  (87) 
CN(CC(=O)n1c(C(N)=O)cc2ccc(C(F)(F)F)cc21)C(=O)N1CCC(CCO)CC1

>  <score_type>  (87) 
oracle

>  <origin>  (87) 
adg

>  <m_score__min__energy>  (87) 
-9.6099999999999994

>  <m_primary>  (87) 
energy

$$$$
88:0
     RDKit          3D

 40 41  0  0  0  0  0  0  0  0999 V2000
   -3.9040   25.6050  -30.8510 N   0  0  0  0  0  0  0  0  0  0  0  0
   -5.1670   25.1280  -30.3940 C   0  0  0  0  0  0  0  0  0  0  0  0
   -5.7610   25.7460  -29.4690 O   0  0  0  0  0  0  0  0  0  0  0  0
   -5.7700   23.9010  -30.9580 C   0  0  0  0  0  0  0  0  0  0  0  0
   -7.1430   23.7190  -31.1180 C   0  0  0  0  0  0  0  0  0  0  0  0
   -7.2870   22.4420  -31.6140 C   0  0  0  0  0  0  0  0  0  0  0  0
   -8.4370   21.7420  -31.9670 C   0  0  0  0  0  0  0  0  0  0  0  0
   -8.2860   20.4420  -32.4750 C   0  0  0  0  0  0  0  0  0  0  0  0
   -6.9980   19.8750  -32.6390 C   0  0  0  0  0  0  0  0  0  0  0  0
   -6.8480   18.4760  -33.1570 C   0  0  0  0  0  0  0  0  0  0  0  0
   -6.1460   18.4970  -34.3480 F   0  0  0  0  0  0  0  0  0  0  0  0
   -5.8520   20.6120  -32.2610 C   0  0  0  0  0  0  0  0  0  0  0  0
   -6.0350   21.8980  -31.7410 C   0  0  0  0  0  0  0  0  0  0  0  0
   -5.0940   22.7790  -31.3370 N   0  0  0  0  0  0  0  0  0  0  0  0
   -3.6730   22.5860  -31.3920 C   0  0  0  0  0  0  0  0  0  0  0  0
   -3.1580   22.1230  -32.4440 O   0  0  0  0  0  0  0  0  0  0  0  0
   -2.8290   22.9610  -30.2360 C   0  0  0  0  0  0  0  0  0  0  0  0
   -1.6790   23.4250  -30.4580 O   0  0  0  0  0  0  0  0  0  0  0  0
   -3.2460   22.8080  -28.8710 N   0  0  0  0  0  0  0  0  0  0  0  0
   -2.5680   22.0580  -27.8160 C   0  0  0  0  0  0  0  0  0  0  0  0
   -1.8670   22.9950  -26.8230 C   0  0  0  0  0  0  0  0  0  0  0  0
   -0.9400   23.9910  -27.5360 C   0  0  0  0  0  0  0  0  0  0  0  0
   -1.5800   25.3780  -27.6470 C   0  0  0  0  0  0  0  0  0  0  0  0
   -2.0080   25.6270  -28.9580 O   0  0  0  0  0  0  0  0  0  0  0  0
   -3.0120   25.2080  -30.4800 H   0  0  0  0  0  0  0  0  0  0  0  0
   -7.9418   24.4418  -30.8954 H   0  0  0  0  0  0  0  0  0  0  0  0
   -9.4334   22.1934  -31.8515 H   0  0  0  0  0  0  0  0  0  0  0  0
   -9.1769   19.8576  -32.7485 H   0  0  0  0  0  0  0  0  0  0  0  0
   -6.3015   17.8691  -32.4202 H   0  0  0  0  0  0  0  0  0  0  0  0
   -7.8434   18.0396  -33.3264 H   0  0  0  0  0  0  0  0  0  0  0  0
   -4.8440   20.1859  -32.3727 H   0  0  0  0  0  0  0  0  0  0  0  0
   -3.3097   21.4529  -27.2741 H   0  0  0  0  0  0  0  0  0  0  0  0
   -1.8060   21.4166  -28.2829 H   0  0  0  0  0  0  0  0  0  0  0  0
   -2.6299   23.5563  -26.2636 H   0  0  0  0  0  0  0  0  0  0  0  0
   -1.2539   22.3805  -26.1473 H   0  0  0  0  0  0  0  0  0  0  0  0
   -0.0020   24.0753  -26.9676 H   0  0  0  0  0  0  0  0  0  0  0  0
   -0.7512   23.6172  -28.5532 H   0  0  0  0  0  0  0  0  0  0  0  0
   -2.4449   25.4310  -26.9694 H   0  0  0  0  0  0  0  0  0  0  0  0
   -0.8302   26.1344  -27.3721 H   0  0  0  0  0  0  0  0  0  0  0  0
   -2.6400   24.8990  -29.1920 H   0  0  0  0  0  0  0  0  0  0  0  0
  1  2  1  0
  2  3  2  0
  2  4  1  0
  4  5  2  0
  5  6  1  0
  6  7  2  0
  7  8  1  0
  8  9  2  0
  9 10  1  0
 10 11  1  0
  9 12  1  0
 12 13  2  0
 13 14  1  0
 14 15  1  0
 15 16  2  0
 15 17  1  0
 17 18  2  0
 17 19  1  0
 19 20  1  0
 20 21  1  0
 21 22  1  0
 22 23  1  0
 23 24  1  0
 14  4  1  0
 13  6  1  0
  1 25  1  0
  5 26  1  0
  7 27  1  0
  8 28  1  0
 10 29  1  0
 10 30  1  0
 12 31  1  0
 20 32  1  0
 20 33  1  0
 21 34  1  0
 21 35  1  0
 22 36  1  0
 22 37  1  0
 23 38  1  0
 23 39  1  0
 24 40  1  0
M  CHG  2   1  -1  19  -1
M  END
>  <UniqueID>  (88) 
88

>  <SMILES>  (88) 
[NH-]C(=O)c1cc2ccc(CF)cc2n1C(=O)C(=O)[N-]CCCCO

>  <Energy>  (88) 
72.72444900527668

>  <Genealogy>  (88) 
[NH-]C(=O)c1cc2ccc(CF)cc2n1C(=O)C(=O)[N-]CCCCO (protonated)
[NH-]C(=O)c1cc2ccc(CF)cc2n1C(=O)C(=O)[N-]CCCCO (3D coordinates assigned)
[NH-]C(=O)c1cc2ccc(CF)cc2n1C(=O)C(=O)[N-]CCCCO (optimized conformer: 72.72444900527668 kcal/mol)

>  <smiles>  (88) 
NC(=O)c1cc2ccc(CF)cc2n1C(=O)C(=O)NCCCCO

>  <score_type>  (88) 
oracle

>  <origin>  (88) 
adg

>  <m_score__min__energy>  (88) 
-10.4

>  <m_primary>  (88) 
energy

$$$$
89:0
     RDKit          3D

 40 41  0  0  0  0  0  0  0  0999 V2000
   -5.7640   18.3430  -34.8710 C   0  0  0  0  0  0  0  0  0  0  0  0
   -5.0800   18.4430  -33.5830 N   0  0  0  0  0  0  0  0  0  0  0  0
   -3.8480   19.1820  -33.5210 C   0  0  0  0  0  0  0  0  0  0  0  0
   -3.8060   20.4030  -33.8290 O   0  0  0  0  0  0  0  0  0  0  0  0
   -5.6850   17.8570  -32.3770 C   0  0  0  0  0  0  0  0  0  0  0  0
   -7.1590   18.2620  -32.2430 C   0  0  0  0  0  0  0  0  0  0  0  0
   -7.3070   19.7460  -32.0430 C   0  0  0  0  0  0  0  0  0  0  0  0
   -8.5790   20.3580  -32.1770 C   0  0  0  0  0  0  0  0  0  0  0  0
   -8.7400   21.7330  -31.9400 C   0  0  0  0  0  0  0  0  0  0  0  0
   -7.6200   22.4640  -31.5520 C   0  0  0  0  0  0  0  0  0  0  0  0
   -7.4900   23.8030  -31.2650 C   0  0  0  0  0  0  0  0  0  0  0  0
   -6.1480   23.9820  -30.9300 C   0  0  0  0  0  0  0  0  0  0  0  0
   -5.5810   25.2760  -30.4940 C   0  0  0  0  0  0  0  0  0  0  0  0
   -4.2520   25.6520  -30.8470 N   0  0  0  0  0  0  0  0  0  0  0  0
   -6.2680   26.0470  -29.7730 O   0  0  0  0  0  0  0  0  0  0  0  0
   -5.4760   22.7990  -31.0100 N   0  0  0  0  0  0  0  0  0  0  0  0
   -4.0740   22.5730  -30.7980 C   0  0  0  0  0  0  0  0  0  0  0  0
   -3.3620   22.1500  -31.7500 O   0  0  0  0  0  0  0  0  0  0  0  0
   -3.4340   22.9320  -29.4880 C   0  0  0  0  0  0  0  0  0  0  0  0
   -2.1220   23.6230  -29.6980 C   0  0  0  0  0  0  0  0  0  0  0  0
   -1.9800   25.0000  -29.3560 N   0  0  0  0  0  0  0  0  0  0  0  0
   -1.1540   23.0020  -30.2090 O   0  0  0  0  0  0  0  0  0  0  0  0
   -6.3880   21.8810  -31.3960 C   0  0  0  0  0  0  0  0  0  0  0  0
   -6.1940   20.5210  -31.6520 C   0  0  0  0  0  0  0  0  0  0  0  0
   -6.8398   18.1857  -34.7036 H   0  0  0  0  0  0  0  0  0  0  0  0
   -5.6134   19.2727  -35.4393 H   0  0  0  0  0  0  0  0  0  0  0  0
   -5.3536   17.4953  -35.4393 H   0  0  0  0  0  0  0  0  0  0  0  0
   -2.9273   18.6731  -33.1995 H   0  0  0  0  0  0  0  0  0  0  0  0
   -5.6182   16.7608  -32.4385 H   0  0  0  0  0  0  0  0  0  0  0  0
   -5.1399   18.2300  -31.4974 H   0  0  0  0  0  0  0  0  0  0  0  0
   -7.6947   17.9695  -33.1581 H   0  0  0  0  0  0  0  0  0  0  0  0
   -7.5786   17.7516  -31.3636 H   0  0  0  0  0  0  0  0  0  0  0  0
   -9.4479   19.7502  -32.4693 H   0  0  0  0  0  0  0  0  0  0  0  0
   -9.7206   22.2175  -32.0573 H   0  0  0  0  0  0  0  0  0  0  0  0
   -8.2778   24.5702  -31.2936 H   0  0  0  0  0  0  0  0  0  0  0  0
   -3.4920   25.6740  -30.1310 H   0  0  0  0  0  0  0  0  0  0  0  0
   -4.1068   23.6009  -28.9313 H   0  0  0  0  0  0  0  0  0  0  0  0
   -3.2535   22.0057  -28.9229 H   0  0  0  0  0  0  0  0  0  0  0  0
   -1.5450   25.6750  -30.0220 H   0  0  0  0  0  0  0  0  0  0  0  0
   -5.1979   20.0654  -31.5512 H   0  0  0  0  0  0  0  0  0  0  0  0
  1  2  1  0
  2  3  1  0
  3  4  2  0
  2  5  1  0
  5  6  1  0
  6  7  1  0
  7  8  2  0
  8  9  1  0
  9 10  2  0
 10 11  1  0
 11 12  2  0
 12 13  1  0
 13 14  1  0
 13 15  2  0
 12 16  1  0
 16 17  1  0
 17 18  2  0
 17 19  1  0
 19 20  1  0
 20 21  1  0
 20 22  2  0
 16 23  1  0
 23 24  2  0
 24  7  1  0
 23 10  1  0
  1 25  1  0
  1 26  1  0
  1 27  1  0
  3 28  1  0
  5 29  1  0
  5 30  1  0
  6 31  1  0
  6 32  1  0
  8 33  1  0
  9 34  1  0
 11 35  1  0
 14 36  1  0
 19 37  1  0
 19 38  1  0
 21 39  1  0
 24 40  1  0
M  CHG  2  14  -1  21  -1
M  END
>  <UniqueID>  (89) 
89

>  <SMILES>  (89) 
CN(C=O)CCc1ccc2cc(C([NH-])=O)n(C(=O)CC([NH-])=O)c2c1

>  <Energy>  (89) 
70.40524162005482

>  <Genealogy>  (89) 
CN(C=O)CCc1ccc2cc(C([NH-])=O)n(C(=O)CC([NH-])=O)c2c1 (protonated)
CN(C=O)CCc1ccc2cc(C([NH-])=O)n(C(=O)CC([NH-])=O)c2c1 (3D coordinates assigned)
CN(C=O)CCc1ccc2cc(C([NH-])=O)n(C(=O)CC([NH-])=O)c2c1 (optimized conformer: 70.40524162005482 kcal/mol)

>  <smiles>  (89) 
CN(C=O)CCc1ccc2cc(C(N)=O)n(C(=O)CC(N)=O)c2c1

>  <score_type>  (89) 
oracle

>  <origin>  (89) 
adg

>  <m_score__min__energy>  (89) 
-12.23

>  <m_primary>  (89) 
energy

$$$$
90:0
     RDKit          3D

 48 49  0  0  0  0  0  0  0  0999 V2000
   -0.4790   22.7750  -25.6190 C   0  0  0  0  0  0  0  0  0  0  0  0
   -0.8100   23.8410  -26.5880 N   0  0  2  0  0  0  0  0  0  0  0  0
   -1.6920   24.8420  -25.9330 C   0  0  0  0  0  0  0  0  0  0  0  0
   -1.6910   26.2200  -26.6280 C   0  0  0  0  0  0  0  0  0  0  0  0
   -0.7670   26.2540  -27.8060 C   0  0  0  0  0  0  0  0  0  0  0  0
   -1.2230   26.4350  -28.9660 O   0  0  0  0  0  0  0  0  0  0  0  0
    0.5970   26.0600  -27.6260 O   0  0  0  0  0  0  0  0  0  0  0  0
   -1.4610   23.2610  -27.7920 C   0  0  0  0  0  0  0  0  0  0  0  0
   -0.6680   23.5140  -29.0420 C   0  0  0  0  0  0  0  0  0  0  0  0
    0.5570   23.8040  -28.9570 O   0  0  0  0  0  0  0  0  0  0  0  0
   -1.2900   23.4070  -30.2910 O   0  0  0  0  0  0  0  0  0  0  0  0
   -1.5630   22.1540  -30.9120 C   0  0  0  0  0  0  0  0  0  0  0  0
   -2.8960   22.1390  -31.4190 O   0  0  0  0  0  0  0  0  0  0  0  0
   -3.9710   21.5950  -30.7080 C   0  0  0  0  0  0  0  0  0  0  0  0
   -3.8420   20.4930  -30.1040 O   0  0  0  0  0  0  0  0  0  0  0  0
   -5.2130   22.3110  -30.6320 N   0  0  0  0  0  0  0  0  0  0  0  0
   -5.4110   23.6070  -30.2560 C   0  0  0  0  0  0  0  0  0  0  0  0
   -4.3990   24.5060  -29.6640 C   0  0  0  0  0  0  0  0  0  0  0  0
   -3.5330   25.2830  -30.4880 N   0  0  0  0  0  0  0  0  0  0  0  0
   -4.2690   24.5570  -28.4110 O   0  0  0  0  0  0  0  0  0  0  0  0
   -6.7420   23.9740  -30.4500 C   0  0  0  0  0  0  0  0  0  0  0  0
   -7.3600   22.8540  -30.9540 C   0  0  0  0  0  0  0  0  0  0  0  0
   -8.6740   22.6670  -31.3690 C   0  0  0  0  0  0  0  0  0  0  0  0
   -9.0260   21.4160  -31.9020 C   0  0  0  0  0  0  0  0  0  0  0  0
   -8.0680   20.3730  -31.9990 C   0  0  0  0  0  0  0  0  0  0  0  0
   -8.4450   19.0620  -32.6430 C   0  0  0  0  0  0  0  0  0  0  0  0
   -9.5840   19.2430  -33.4060 F   0  0  0  0  0  0  0  0  0  0  0  0
   -7.4250   18.6000  -33.4590 F   0  0  0  0  0  0  0  0  0  0  0  0
   -8.6950   18.1040  -31.6760 F   0  0  0  0  0  0  0  0  0  0  0  0
   -6.7380   20.6110  -31.5860 C   0  0  0  0  0  0  0  0  0  0  0  0
   -6.4170   21.8620  -31.0500 C   0  0  0  0  0  0  0  0  0  0  0  0
   -0.5985   23.1599  -24.5955 H   0  0  0  0  0  0  0  0  0  0  0  0
   -1.1538   21.9196  -25.7702 H   0  0  0  0  0  0  0  0  0  0  0  0
    0.5617   22.4523  -25.7702 H   0  0  0  0  0  0  0  0  0  0  0  0
    0.0900   24.3000  -26.8670 H   0  0  0  0  0  0  0  0  0  0  0  0
   -2.7208   24.4526  -25.9356 H   0  0  0  0  0  0  0  0  0  0  0  0
   -1.3034   24.9953  -24.9154 H   0  0  0  0  0  0  0  0  0  0  0  0
   -2.7116   26.4456  -26.9707 H   0  0  0  0  0  0  0  0  0  0  0  0
   -1.3411   26.9671  -25.9003 H   0  0  0  0  0  0  0  0  0  0  0  0
   -1.5634   22.1749  -27.6510 H   0  0  0  0  0  0  0  0  0  0  0  0
   -2.4425   23.7431  -27.9109 H   0  0  0  0  0  0  0  0  0  0  0  0
   -0.8567   21.9969  -31.7405 H   0  0  0  0  0  0  0  0  0  0  0  0
   -1.4514   21.3513  -30.1682 H   0  0  0  0  0  0  0  0  0  0  0  0
   -2.5000   25.2800  -30.3340 H   0  0  0  0  0  0  0  0  0  0  0  0
   -7.2005   24.9523  -30.2436 H   0  0  0  0  0  0  0  0  0  0  0  0
   -9.4157   23.4747  -31.2824 H   0  0  0  0  0  0  0  0  0  0  0  0
  -10.0556   21.2426  -32.2481 H   0  0  0  0  0  0  0  0  0  0  0  0
   -5.9711   19.8286  -31.6840 H   0  0  0  0  0  0  0  0  0  0  0  0
  1  2  1  0
  2  3  1  0
  3  4  1  0
  4  5  1  0
  5  6  2  0
  5  7  1  0
  2  8  1  0
  8  9  1  0
  9 10  2  0
  9 11  1  0
 11 12  1  0
 12 13  1  0
 13 14  1  0
 14 15  2  0
 14 16  1  0
 16 17  1  0
 17 18  1  0
 18 19  1  0
 18 20  2  0
 17 21  2  0
 21 22  1  0
 22 23  2  0
 23 24  1  0
 24 25  2  0
 25 26  1  0
 26 27  1  0
 26 28  1  0
 26 29  1  0
 25 30  1  0
 30 31  2  0
 31 16  1  0
 31 22  1  0
  1 32  1  0
  1 33  1  0
  1 34  1  0
  2 35  1  6
  3 36  1  0
  3 37  1  0
  4 38  1  0
  4 39  1  0
  8 40  1  0
  8 41  1  0
 12 42  1  0
 12 43  1  0
 19 44  1  0
 21 45  1  0
 23 46  1  0
 24 47  1  0
 30 48  1  0
M  CHG  3   2   1   7  -1  19  -1
M  END
>  <UniqueID>  (90) 
90

>  <SMILES>  (90) 
C[N@H+](CCC(=O)[O-])CC(=O)OCOC(=O)n1c(C([NH-])=O)cc2ccc(C(F)(F)F)cc21

>  <Energy>  (90) 
82.73691119143209

>  <Genealogy>  (90) 
C[NH+](CCC(=O)[O-])CC(=O)OCOC(=O)n1c(C([NH-])=O)cc2ccc(C(F)(F)F)cc21 (protonated)
C[N@H+](CCC(=O)[O-])CC(=O)OCOC(=O)n1c(C([NH-])=O)cc2ccc(C(F)(F)F)cc21 (chirality)
C[N@H+](CCC(=O)[O-])CC(=O)OCOC(=O)n1c(C([NH-])=O)cc2ccc(C(F)(F)F)cc21 (3D coordinates assigned)
C[N@H+](CCC(=O)[O-])CC(=O)OCOC(=O)n1c(C([NH-])=O)cc2ccc(C(F)(F)F)cc21 (optimized conformer: 82.73691119143209 kcal/mol)

>  <smiles>  (90) 
CN(CCC(=O)O)CC(=O)OCOC(=O)n1c(C(N)=O)cc2ccc(C(F)(F)F)cc21

>  <score_type>  (90) 
oracle

>  <origin>  (90) 
adg

>  <m_score__min__energy>  (90) 
-10.93

>  <m_primary>  (90) 
energy

$$$$
91:0
     RDKit          3D

 46 48  0  0  0  0  0  0  0  0999 V2000
   -2.7500   24.5550  -29.3210 C   0  0  0  0  0  0  0  0  0  0  0  0
   -3.5140   24.9830  -30.4870 N   0  0  0  0  0  0  0  0  0  0  0  0
   -5.2010   25.0760  -30.0810 S   0  0  0  0  0  0  0  0  0  0  0  0
   -5.3700   24.9230  -28.5950 O   0  0  0  0  0  0  0  0  0  0  0  0
   -5.7350   26.4200  -30.4880 O   0  0  0  0  0  0  0  0  0  0  0  0
   -6.1000   23.8230  -30.9330 C   0  0  0  0  0  0  0  0  0  0  0  0
   -7.5010   23.8460  -30.9720 C   0  0  0  0  0  0  0  0  0  0  0  0
   -8.2000   22.8380  -31.6380 C   0  0  0  0  0  0  0  0  0  0  0  0
   -7.5070   21.7990  -32.2650 C   0  0  0  0  0  0  0  0  0  0  0  0
   -6.1000   21.7580  -32.2320 C   0  0  0  0  0  0  0  0  0  0  0  0
   -5.3620   20.6480  -32.8870 C   0  0  0  0  0  0  0  0  0  0  0  0
   -6.0650   19.5520  -33.4530 C   0  0  0  0  0  0  0  0  0  0  0  0
   -5.3740   18.4900  -34.0620 C   0  0  0  0  0  0  0  0  0  0  0  0
   -3.9850   18.5520  -34.1000 C   0  0  0  0  0  0  0  0  0  0  0  0
   -3.0700   17.6530  -34.5970 C   0  0  0  0  0  0  0  0  0  0  0  0
   -1.8210   18.2230  -34.3500 C   0  0  0  0  0  0  0  0  0  0  0  0
   -0.5460   17.6090  -34.7720 C   0  0  0  0  0  0  0  0  0  0  0  0
    0.6870   17.9400  -34.1310 N   0  0  0  0  0  0  0  0  0  0  0  0
   -0.5380   16.8090  -35.7450 O   0  0  0  0  0  0  0  0  0  0  0  0
   -1.9620   19.4190  -33.7130 N   0  0  0  0  0  0  0  0  0  0  0  0
   -0.9330   20.2630  -33.1750 C   0  0  0  0  0  0  0  0  0  0  0  0
   -0.0210   20.6930  -33.9310 O   0  0  0  0  0  0  0  0  0  0  0  0
   -0.9930   20.7270  -31.7480 C   0  0  0  0  0  0  0  0  0  0  0  0
    0.2400   20.2650  -30.9690 C   0  0  0  0  0  0  0  0  0  0  0  0
    1.0960   19.5190  -31.7930 O   0  0  0  0  0  0  0  0  0  0  0  0
   -3.2910   19.6090  -33.5740 C   0  0  0  0  0  0  0  0  0  0  0  0
   -3.9490   20.6720  -32.9470 C   0  0  0  0  0  0  0  0  0  0  0  0
   -5.4060   22.7810  -31.5610 C   0  0  0  0  0  0  0  0  0  0  0  0
   -3.2814   24.8527  -28.4050 H   0  0  0  0  0  0  0  0  0  0  0  0
   -2.6351   23.4612  -29.3392 H   0  0  0  0  0  0  0  0  0  0  0  0
   -1.7572   25.0283  -29.3392 H   0  0  0  0  0  0  0  0  0  0  0  0
   -8.0506   24.6600  -30.4768 H   0  0  0  0  0  0  0  0  0  0  0  0
   -9.2993   22.8615  -31.6694 H   0  0  0  0  0  0  0  0  0  0  0  0
   -8.0645   21.0079  -32.7878 H   0  0  0  0  0  0  0  0  0  0  0  0
   -7.1642   19.5336  -33.4145 H   0  0  0  0  0  0  0  0  0  0  0  0
   -5.9153   17.6360  -34.4953 H   0  0  0  0  0  0  0  0  0  0  0  0
   -3.2788   16.6897  -35.0853 H   0  0  0  0  0  0  0  0  0  0  0  0
    1.5670   17.4520  -34.4090 H   0  0  0  0  0  0  0  0  0  0  0  0
    0.7500   18.7250  -33.4480 H   0  0  0  0  0  0  0  0  0  0  0  0
   -1.0398   21.8258  -31.7287 H   0  0  0  0  0  0  0  0  0  0  0  0
   -1.8878   20.2948  -31.2763 H   0  0  0  0  0  0  0  0  0  0  0  0
    0.7795   21.1460  -30.5912 H   0  0  0  0  0  0  0  0  0  0  0  0
   -0.0874   19.6304  -30.1323 H   0  0  0  0  0  0  0  0  0  0  0  0
    1.4630   20.1450  -32.4700 H   0  0  0  0  0  0  0  0  0  0  0  0
   -3.3811   21.5070  -32.5108 H   0  0  0  0  0  0  0  0  0  0  0  0
   -4.3066   22.7625  -31.5291 H   0  0  0  0  0  0  0  0  0  0  0  0
  1  2  1  0
  2  3  1  0
  3  4  2  0
  3  5  2  0
  3  6  1  0
  6  7  2  0
  7  8  1  0
  8  9  2  0
  9 10  1  0
 10 11  1  0
 11 12  2  0
 12 13  1  0
 13 14  2  0
 14 15  1  0
 15 16  2  0
 16 17  1  0
 17 18  1  0
 17 19  2  0
 16 20  1  0
 20 21  1  0
 21 22  2  0
 21 23  1  0
 23 24  1  0
 24 25  1  0
 20 26  1  0
 26 27  2  0
 10 28  2  0
 28  6  1  0
 27 11  1  0
 26 14  1  0
  1 29  1  0
  1 30  1  0
  1 31  1  0
  7 32  1  0
  8 33  1  0
  9 34  1  0
 12 35  1  0
 13 36  1  0
 15 37  1  0
 18 38  1  0
 18 39  1  0
 23 40  1  0
 23 41  1  0
 24 42  1  0
 24 43  1  0
 25 44  1  0
 27 45  1  0
 28 46  1  0
M  CHG  1   2  -1
M  END
>  <UniqueID>  (91) 
91

>  <SMILES>  (91) 
C[N-]S(=O)(=O)c1cccc(-c2ccc3cc(C(N)=O)n(C(=O)CCO)c3c2)c1

>  <Energy>  (91) 
88.427908802467

>  <Genealogy>  (91) 
C[N-]S(=O)(=O)c1cccc(-c2ccc3cc(C(N)=O)n(C(=O)CCO)c3c2)c1 (protonated)
C[N-]S(=O)(=O)c1cccc(-c2ccc3cc(C(N)=O)n(C(=O)CCO)c3c2)c1 (3D coordinates assigned)
C[N-]S(=O)(=O)c1cccc(-c2ccc3cc(C(N)=O)n(C(=O)CCO)c3c2)c1 (optimized conformer: 88.427908802467 kcal/mol)

>  <smiles>  (91) 
CNS(=O)(=O)c1cccc(-c2ccc3cc(C(N)=O)n(C(=O)CCO)c3c2)c1

>  <score_type>  (91) 
oracle

>  <origin>  (91) 
adg

>  <m_score__min__energy>  (91) 
-9.9800000000000004

>  <m_primary>  (91) 
energy

$$$$
92:0
     RDKit          3D

 43 44  0  0  0  0  0  0  0  0999 V2000
   -4.0750   24.9140  -26.7210 C   0  0  0  0  0  0  0  0  0  0  0  0
   -3.5050   23.9990  -27.7280 N   0  0  0  0  0  0  0  0  0  0  0  0
   -4.2530   22.7290  -27.7700 C   0  0  0  0  0  0  0  0  0  0  0  0
   -2.0390   23.8020  -27.5760 C   0  0  0  0  0  0  0  0  0  0  0  0
   -1.2660   23.5150  -28.8830 C   0  0  0  0  0  0  0  0  0  0  0  0
   -2.1180   23.5660  -30.0090 O   0  0  0  0  0  0  0  0  0  0  0  0
   -2.6390   22.2890  -30.3140 C   0  0  0  0  0  0  0  0  0  0  0  0
   -3.4990   22.3640  -31.5400 C   0  0  0  0  0  0  0  0  0  0  0  0
   -2.9580   22.3000  -32.6760 O   0  0  0  0  0  0  0  0  0  0  0  0
   -4.9270   22.4840  -31.4420 N   0  0  0  0  0  0  0  0  0  0  0  0
   -5.6380   23.4860  -30.8560 C   0  0  0  0  0  0  0  0  0  0  0  0
   -5.0650   24.7020  -30.2400 C   0  0  0  0  0  0  0  0  0  0  0  0
   -3.8840   25.2850  -30.7870 N   0  0  0  0  0  0  0  0  0  0  0  0
   -5.5980   25.2240  -29.2260 O   0  0  0  0  0  0  0  0  0  0  0  0
   -7.0070   23.2430  -30.9680 C   0  0  0  0  0  0  0  0  0  0  0  0
   -7.1110   22.0500  -31.6470 C   0  0  0  0  0  0  0  0  0  0  0  0
   -8.2390   21.3350  -32.0380 C   0  0  0  0  0  0  0  0  0  0  0  0
   -8.0450   20.1250  -32.7260 C   0  0  0  0  0  0  0  0  0  0  0  0
   -6.7390   19.6520  -33.0030 C   0  0  0  0  0  0  0  0  0  0  0  0
   -6.5540   18.3590  -33.7450 C   0  0  0  0  0  0  0  0  0  0  0  0
   -5.7730   18.5710  -34.8670 F   0  0  0  0  0  0  0  0  0  0  0  0
   -5.9330   17.4370  -32.9230 F   0  0  0  0  0  0  0  0  0  0  0  0
   -5.6170   20.4050  -32.5900 C   0  0  0  0  0  0  0  0  0  0  0  0
   -5.8410   21.6110  -31.9190 C   0  0  0  0  0  0  0  0  0  0  0  0
   -3.8424   24.5405  -25.7128 H   0  0  0  0  0  0  0  0  0  0  0  0
   -3.6415   25.9168  -26.8496 H   0  0  0  0  0  0  0  0  0  0  0  0
   -5.1662   24.9670  -26.8496 H   0  0  0  0  0  0  0  0  0  0  0  0
   -3.6410   24.4590  -28.6600 H   0  0  0  0  0  0  0  0  0  0  0  0
   -4.4540   22.3877  -26.7438 H   0  0  0  0  0  0  0  0  0  0  0  0
   -5.2054   22.8817  -28.2988 H   0  0  0  0  0  0  0  0  0  0  0  0
   -3.6576   21.9701  -28.2988 H   0  0  0  0  0  0  0  0  0  0  0  0
   -1.6193   24.7147  -27.1278 H   0  0  0  0  0  0  0  0  0  0  0  0
   -1.9186   22.9046  -26.9513 H   0  0  0  0  0  0  0  0  0  0  0  0
   -0.4717   24.2667  -29.0012 H   0  0  0  0  0  0  0  0  0  0  0  0
   -0.8399   22.5030  -28.8175 H   0  0  0  0  0  0  0  0  0  0  0  0
   -1.8085   21.5905  -30.4941 H   0  0  0  0  0  0  0  0  0  0  0  0
   -3.2472   21.9363  -29.4680 H   0  0  0  0  0  0  0  0  0  0  0  0
   -2.9910   25.2960  -30.2470 H   0  0  0  0  0  0  0  0  0  0  0  0
   -7.8287   23.8711  -30.5934 H   0  0  0  0  0  0  0  0  0  0  0  0
   -9.2507   21.7052  -31.8156 H   0  0  0  0  0  0  0  0  0  0  0  0
   -8.9167   19.5391  -33.0528 H   0  0  0  0  0  0  0  0  0  0  0  0
   -7.5383   17.9754  -34.0516 H   0  0  0  0  0  0  0  0  0  0  0  0
   -4.5948   20.0519  -32.7910 H   0  0  0  0  0  0  0  0  0  0  0  0
  1  2  1  0
  2  3  1  0
  2  4  1  0
  4  5  1  0
  5  6  1  0
  6  7  1  0
  7  8  1  0
  8  9  2  0
  8 10  1  0
 10 11  1  0
 11 12  1  0
 12 13  1  0
 12 14  2  0
 11 15  2  0
 15 16  1  0
 16 17  2  0
 17 18  1  0
 18 19  2  0
 19 20  1  0
 20 21  1  0
 20 22  1  0
 19 23  1  0
 23 24  2  0
 24 10  1  0
 24 16  1  0
  1 25  1  0
  1 26  1  0
  1 27  1  0
  2 28  1  0
  3 29  1  0
  3 30  1  0
  3 31  1  0
  4 32  1  0
  4 33  1  0
  5 34  1  0
  5 35  1  0
  7 36  1  0
  7 37  1  0
 13 38  1  0
 15 39  1  0
 17 40  1  0
 18 41  1  0
 20 42  1  0
 23 43  1  0
M  CHG  2   2   1  13  -1
M  END
>  <UniqueID>  (92) 
92

>  <SMILES>  (92) 
C[NH+](C)CCOCC(=O)n1c(C([NH-])=O)cc2ccc(C(F)F)cc21

>  <Energy>  (92) 
84.45455680048684

>  <Genealogy>  (92) 
C[NH+](C)CCOCC(=O)n1c(C([NH-])=O)cc2ccc(C(F)F)cc21 (protonated)
C[NH+](C)CCOCC(=O)n1c(C([NH-])=O)cc2ccc(C(F)F)cc21 (3D coordinates assigned)
C[NH+](C)CCOCC(=O)n1c(C([NH-])=O)cc2ccc(C(F)F)cc21 (optimized conformer: 84.45455680048684 kcal/mol)

>  <smiles>  (92) 
CN(C)CCOCC(=O)n1c(C(N)=O)cc2ccc(C(F)F)cc21

>  <score_type>  (92) 
oracle

>  <origin>  (92) 
adg

>  <m_score__min__energy>  (92) 
-7.9199999999999999

>  <m_primary>  (92) 
energy

$$$$
93:0
     RDKit          3D

 48 50  0  0  0  0  0  0  0  0999 V2000
   -0.7370   26.3940  -23.7800 C   0  0  0  0  0  0  0  0  0  0  0  0
   -1.7270   26.1210  -24.7640 O   0  0  0  0  0  0  0  0  0  0  0  0
   -1.4790   26.2270  -26.1360 C   0  0  0  0  0  0  0  0  0  0  0  0
   -0.7820   27.1830  -26.5790 O   0  0  0  0  0  0  0  0  0  0  0  0
   -2.0330   25.2190  -27.0670 C   0  0  0  0  0  0  0  0  0  0  0  0
   -3.2700   24.6080  -26.7960 C   0  0  0  0  0  0  0  0  0  0  0  0
   -3.7970   23.6540  -27.6730 C   0  0  0  0  0  0  0  0  0  0  0  0
   -3.0880   23.2850  -28.8290 C   0  0  0  0  0  0  0  0  0  0  0  0
   -3.6050   22.3350  -29.7710 N   0  0  0  0  0  0  0  0  0  0  0  0
   -4.1050   22.6090  -31.0860 C   0  0  0  0  0  0  0  0  0  0  0  0
   -3.3040   22.7090  -32.0530 O   0  0  0  0  0  0  0  0  0  0  0  0
   -5.5120   22.8590  -31.2790 N   0  0  0  0  0  0  0  0  0  0  0  0
   -6.2170   23.9670  -30.9110 C   0  0  0  0  0  0  0  0  0  0  0  0
   -5.6460   25.2100  -30.3680 C   0  0  0  0  0  0  0  0  0  0  0  0
   -4.2770   25.5450  -30.5920 N   0  0  0  0  0  0  0  0  0  0  0  0
   -6.3940   26.0230  -29.7620 O   0  0  0  0  0  0  0  0  0  0  0  0
   -7.5840   23.7580  -31.0560 C   0  0  0  0  0  0  0  0  0  0  0  0
   -7.7030   22.4840  -31.5580 C   0  0  0  0  0  0  0  0  0  0  0  0
   -8.8410   21.7630  -31.9020 C   0  0  0  0  0  0  0  0  0  0  0  0
   -8.6710   20.4620  -32.4030 C   0  0  0  0  0  0  0  0  0  0  0  0
   -7.3770   19.9060  -32.5630 C   0  0  0  0  0  0  0  0  0  0  0  0
   -7.2540   18.5720  -33.0950 N   0  0  0  0  0  0  0  0  0  0  0  0
   -6.0030   17.8170  -33.2090 C   0  0  0  0  0  0  0  0  0  0  0  0
   -5.1860   18.2770  -34.4160 C   0  0  0  0  0  0  0  0  0  0  0  0
   -6.0290   18.6420  -35.4730 O   0  0  0  0  0  0  0  0  0  0  0  0
   -6.2430   20.6810  -32.2160 C   0  0  0  0  0  0  0  0  0  0  0  0
   -6.4420   21.9630  -31.6890 C   0  0  0  0  0  0  0  0  0  0  0  0
   -1.8690   23.9110  -29.1120 C   0  0  0  0  0  0  0  0  0  0  0  0
   -1.3390   24.8640  -28.2370 C   0  0  0  0  0  0  0  0  0  0  0  0
   -1.1735   26.2736  -22.7775 H   0  0  0  0  0  0  0  0  0  0  0  0
    0.1028   25.6939  -23.9007 H   0  0  0  0  0  0  0  0  0  0  0  0
   -0.3747   27.4256  -23.9007 H   0  0  0  0  0  0  0  0  0  0  0  0
   -3.8273   24.8820  -25.8881 H   0  0  0  0  0  0  0  0  0  0  0  0
   -4.7709   23.1905  -27.4568 H   0  0  0  0  0  0  0  0  0  0  0  0
   -3.6780   24.9540  -31.2110 H   0  0  0  0  0  0  0  0  0  0  0  0
   -3.8760   26.4210  -30.1900 H   0  0  0  0  0  0  0  0  0  0  0  0
   -8.3960   24.4614  -30.8197 H   0  0  0  0  0  0  0  0  0  0  0  0
   -9.8444   22.1985  -31.7853 H   0  0  0  0  0  0  0  0  0  0  0  0
   -9.5546   19.8660  -32.6751 H   0  0  0  0  0  0  0  0  0  0  0  0
   -8.1220   18.0940  -33.4300 H   0  0  0  0  0  0  0  0  0  0  0  0
   -5.4089   17.9675  -32.2955 H   0  0  0  0  0  0  0  0  0  0  0  0
   -6.2498   16.7532  -33.3413 H   0  0  0  0  0  0  0  0  0  0  0  0
   -4.5721   19.1431  -34.1279 H   0  0  0  0  0  0  0  0  0  0  0  0
   -4.5435   17.4473  -34.7458 H   0  0  0  0  0  0  0  0  0  0  0  0
   -6.8320   19.0500  -35.0570 H   0  0  0  0  0  0  0  0  0  0  0  0
   -5.2270   20.2838  -32.3576 H   0  0  0  0  0  0  0  0  0  0  0  0
   -1.3230   23.6511  -30.0309 H   0  0  0  0  0  0  0  0  0  0  0  0
   -0.3734   25.3388  -28.4653 H   0  0  0  0  0  0  0  0  0  0  0  0
  1  2  1  0
  2  3  1  0
  3  4  2  0
  3  5  1  0
  5  6  2  0
  6  7  1  0
  7  8  2  0
  8  9  1  0
  9 10  1  0
 10 11  2  0
 10 12  1  0
 12 13  1  0
 13 14  1  0
 14 15  1  0
 14 16  2  0
 13 17  2  0
 17 18  1  0
 18 19  2  0
 19 20  1  0
 20 21  2  0
 21 22  1  0
 22 23  1  0
 23 24  1  0
 24 25  1  0
 21 26  1  0
 26 27  2  0
  8 28  1  0
 28 29  2  0
 29  5  1  0
 27 12  1  0
 27 18  1  0
  1 30  1  0
  1 31  1  0
  1 32  1  0
  6 33  1  0
  7 34  1  0
 15 35  1  0
 15 36  1  0
 17 37  1  0
 19 38  1  0
 20 39  1  0
 22 40  1  0
 23 41  1  0
 23 42  1  0
 24 43  1  0
 24 44  1  0
 25 45  1  0
 26 46  1  0
 28 47  1  0
 29 48  1  0
M  CHG  1   9  -1
M  END
>  <UniqueID>  (93) 
93

>  <SMILES>  (93) 
COC(=O)c1ccc([N-]C(=O)n2c(C(N)=O)cc3ccc(NCCO)cc32)cc1

>  <Energy>  (93) 
92.03982625216622

>  <Genealogy>  (93) 
COC(=O)c1ccc([N-]C(=O)n2c(C(N)=O)cc3ccc(NCCO)cc32)cc1 (protonated)
COC(=O)c1ccc([N-]C(=O)n2c(C(N)=O)cc3ccc(NCCO)cc32)cc1 (3D coordinates assigned)
COC(=O)c1ccc([N-]C(=O)n2c(C(N)=O)cc3ccc(NCCO)cc32)cc1 (optimized conformer: 92.03982625216622 kcal/mol)

>  <smiles>  (93) 
COC(=O)c1ccc(NC(=O)n2c(C(N)=O)cc3ccc(NCCO)cc32)cc1

>  <score_type>  (93) 
oracle

>  <origin>  (93) 
adg

>  <m_score__min__energy>  (93) 
-9.5

>  <m_primary>  (93) 
energy

$$$$
94:0
     RDKit          3D

 41 43  0  0  0  0  0  0  0  0999 V2000
   -3.9070   25.5310  -30.7970 N   0  0  0  0  0  0  0  0  0  0  0  0
   -5.1740   25.0230  -30.3830 C   0  0  0  0  0  0  0  0  0  0  0  0
   -5.8370   25.6510  -29.5170 O   0  0  0  0  0  0  0  0  0  0  0  0
   -5.7040   23.7850  -30.9930 C   0  0  0  0  0  0  0  0  0  0  0  0
   -7.0560   23.5720  -31.2560 C   0  0  0  0  0  0  0  0  0  0  0  0
   -7.1340   22.2920  -31.7570 C   0  0  0  0  0  0  0  0  0  0  0  0
   -8.2340   21.5720  -32.2070 C   0  0  0  0  0  0  0  0  0  0  0  0
   -8.0150   20.2820  -32.7170 C   0  0  0  0  0  0  0  0  0  0  0  0
   -6.7040   19.7330  -32.7820 C   0  0  0  0  0  0  0  0  0  0  0  0
   -6.4850   18.4160  -33.3380 N   0  0  0  0  0  0  0  0  0  0  0  0
   -5.5640   18.1370  -34.4300 C   0  0  0  0  0  0  0  0  0  0  0  0
   -5.5490   16.6220  -34.5860 C   0  0  0  0  0  0  0  0  0  0  0  0
   -6.8100   16.1270  -33.8870 C   0  0  0  0  0  0  0  0  0  0  0  0
   -7.1850   17.2180  -32.8960 C   0  0  0  0  0  0  0  0  0  0  0  0
   -5.6130   20.5010  -32.3030 C   0  0  0  0  0  0  0  0  0  0  0  0
   -5.8670   21.7760  -31.7840 C   0  0  0  0  0  0  0  0  0  0  0  0
   -4.9760   22.6790  -31.3170 N   0  0  0  0  0  0  0  0  0  0  0  0
   -3.5530   22.5120  -31.2590 C   0  0  0  0  0  0  0  0  0  0  0  0
   -2.9060   22.2780  -32.3160 O   0  0  0  0  0  0  0  0  0  0  0  0
   -2.8900   22.6290  -30.0320 O   0  0  0  0  0  0  0  0  0  0  0  0
   -1.6260   23.2690  -29.8820 C   0  0  0  0  0  0  0  0  0  0  0  0
   -1.7330   24.6010  -28.6460 P   0  0  1  0  0  0  0  0  0  0  0  0
   -0.8460   24.2830  -27.4640 O   0  0  0  0  0  0  0  0  0  0  0  0
   -1.2340   26.0580  -29.3440 O   0  0  0  0  0  0  0  0  0  0  0  0
   -3.3340   24.7490  -28.1170 O   0  0  0  0  0  0  0  0  0  0  0  0
   -3.0360   25.2970  -30.2700 H   0  0  0  0  0  0  0  0  0  0  0  0
   -7.8851   24.2772  -31.0970 H   0  0  0  0  0  0  0  0  0  0  0  0
   -9.2465   21.9999  -32.1650 H   0  0  0  0  0  0  0  0  0  0  0  0
   -8.8697   19.6872  -33.0715 H   0  0  0  0  0  0  0  0  0  0  0  0
   -5.9143   18.6138  -35.3574 H   0  0  0  0  0  0  0  0  0  0  0  0
   -4.5586   18.5317  -34.2215 H   0  0  0  0  0  0  0  0  0  0  0  0
   -5.5659   16.3451  -35.6505 H   0  0  0  0  0  0  0  0  0  0  0  0
   -4.6413   16.1766  -34.1529 H   0  0  0  0  0  0  0  0  0  0  0  0
   -7.6193   15.9767  -34.6166 H   0  0  0  0  0  0  0  0  0  0  0  0
   -6.6447   15.1619  -33.3857 H   0  0  0  0  0  0  0  0  0  0  0  0
   -8.2722   17.3851  -32.9041 H   0  0  0  0  0  0  0  0  0  0  0  0
   -6.9061   16.9433  -31.8680 H   0  0  0  0  0  0  0  0  0  0  0  0
   -4.5880   20.1033  -32.3384 H   0  0  0  0  0  0  0  0  0  0  0  0
   -0.8814   22.5288  -29.5538 H   0  0  0  0  0  0  0  0  0  0  0  0
   -1.3278   23.7016  -30.8484 H   0  0  0  0  0  0  0  0  0  0  0  0
   -3.7740   25.3180  -28.7980 H   0  0  0  0  0  0  0  0  0  0  0  0
  1  2  1  0
  2  3  2  0
  2  4  1  0
  4  5  2  0
  5  6  1  0
  6  7  2  0
  7  8  1  0
  8  9  2  0
  9 10  1  0
 10 11  1  0
 11 12  1  0
 12 13  1  0
 13 14  1  0
  9 15  1  0
 15 16  2  0
 16 17  1  0
 17 18  1  0
 18 19  2  0
 18 20  1  0
 20 21  1  0
 21 22  1  0
 22 23  2  0
 22 24  1  6
 22 25  1  0
 17  4  1  0
 16  6  1  0
 14 10  1  0
  1 26  1  0
  5 27  1  0
  7 28  1  0
  8 29  1  0
 11 30  1  0
 11 31  1  0
 12 32  1  0
 12 33  1  0
 13 34  1  0
 13 35  1  0
 14 36  1  0
 14 37  1  0
 15 38  1  0
 21 39  1  0
 21 40  1  0
 25 41  1  0
M  CHG  2   1  -1  24  -1
M  END
>  <UniqueID>  (94) 
94

>  <SMILES>  (94) 
[NH-]C(=O)c1cc2ccc(N3CCCC3)cc2n1C(=O)OC[P@@](=O)([O-])O

>  <Energy>  (94) 
76.06611633151347

>  <Genealogy>  (94) 
[NH-]C(=O)c1cc2ccc(N3CCCC3)cc2n1C(=O)OCP(=O)([O-])O (protonated)
[NH-]C(=O)c1cc2ccc(N3CCCC3)cc2n1C(=O)OC[P@@](=O)([O-])O (chirality)
[NH-]C(=O)c1cc2ccc(N3CCCC3)cc2n1C(=O)OC[P@@](=O)([O-])O (3D coordinates assigned)
[NH-]C(=O)c1cc2ccc(N3CCCC3)cc2n1C(=O)OC[P@@](=O)([O-])O (nonaromatic ring conformer: 76.06611633151347 kcal/mol)

>  <smiles>  (94) 
NC(=O)c1cc2ccc(N3CCCC3)cc2n1C(=O)OCP(=O)(O)O

>  <score_type>  (94) 
oracle

>  <origin>  (94) 
adg

>  <m_score__min__energy>  (94) 
-13.15

>  <m_primary>  (94) 
energy

$$$$
95:0
     RDKit          3D

 41 43  0  0  0  0  0  0  0  0999 V2000
   -0.2990   24.1970  -29.1350 N   0  0  0  0  0  0  0  0  0  0  0  0
   -0.5310   22.7870  -29.1750 C   0  0  0  0  0  0  0  0  0  0  0  0
    0.1210   22.0390  -28.4000 O   0  0  0  0  0  0  0  0  0  0  0  0
   -1.5020   22.2040  -30.1280 C   0  0  0  0  0  0  0  0  0  0  0  0
   -1.1850   21.8230  -31.4320 C   0  0  0  0  0  0  0  0  0  0  0  0
   -2.3400   21.2820  -31.9450 C   0  0  0  0  0  0  0  0  0  0  0  0
   -2.5960   20.7600  -33.2090 C   0  0  0  0  0  0  0  0  0  0  0  0
   -3.8960   20.3020  -33.4810 C   0  0  0  0  0  0  0  0  0  0  0  0
   -4.9180   20.3850  -32.5020 C   0  0  0  0  0  0  0  0  0  0  0  0
   -6.2390   19.9100  -32.8310 N   0  0  0  0  0  0  0  0  0  0  0  0
   -7.4360   20.1880  -32.0250 C   0  0  1  0  0  0  0  0  0  0  0  0
   -7.7360   21.6590  -31.9480 C   0  0  0  0  0  0  0  0  0  0  0  0
   -9.2530   21.7010  -31.8870 C   0  0  0  0  0  0  0  0  0  0  0  0
   -9.7820   20.4510  -32.2690 O   0  0  0  0  0  0  0  0  0  0  0  0
   -8.7020   19.6410  -32.6640 C   0  0  0  0  0  0  0  0  0  0  0  0
   -4.6140   20.9220  -31.2270 C   0  0  0  0  0  0  0  0  0  0  0  0
   -3.3040   21.3450  -30.9730 C   0  0  0  0  0  0  0  0  0  0  0  0
   -2.8000   21.8940  -29.8440 N   0  0  0  0  0  0  0  0  0  0  0  0
   -3.5200   22.2030  -28.6340 C   0  0  0  0  0  0  0  0  0  0  0  0
   -3.0220   21.8830  -27.5230 O   0  0  0  0  0  0  0  0  0  0  0  0
   -4.7840   22.9700  -28.6390 C   0  0  0  0  0  0  0  0  0  0  0  0
   -4.9450   24.2190  -29.0990 C   0  0  0  0  0  0  0  0  0  0  0  0
   -3.9540   24.9790  -29.8790 C   0  0  0  0  0  0  0  0  0  0  0  0
   -4.2120   25.2900  -31.0710 O   0  0  0  0  0  0  0  0  0  0  0  0
   -2.7040   25.2830  -29.3550 O   0  0  0  0  0  0  0  0  0  0  0  0
    0.4170   24.5900  -28.4830 H   0  0  0  0  0  0  0  0  0  0  0  0
   -0.8630   24.8580  -29.7120 H   0  0  0  0  0  0  0  0  0  0  0  0
   -0.2163   21.9323  -31.9416 H   0  0  0  0  0  0  0  0  0  0  0  0
   -1.8051   20.7075  -33.9717 H   0  0  0  0  0  0  0  0  0  0  0  0
   -4.1242   19.8728  -34.4678 H   0  0  0  0  0  0  0  0  0  0  0  0
   -6.3370   19.3190  -33.6870 H   0  0  0  0  0  0  0  0  0  0  0  0
   -7.2046   19.7321  -31.0510 H   0  0  0  0  0  0  0  0  0  0  0  0
   -7.2924   22.1053  -31.0458 H   0  0  0  0  0  0  0  0  0  0  0  0
   -7.3223   22.2285  -32.7933 H   0  0  0  0  0  0  0  0  0  0  0  0
   -9.5707   21.9333  -30.8598 H   0  0  0  0  0  0  0  0  0  0  0  0
   -9.6224   22.4766  -32.5740 H   0  0  0  0  0  0  0  0  0  0  0  0
   -8.8707   18.6069  -32.3291 H   0  0  0  0  0  0  0  0  0  0  0  0
   -8.6058   19.6457  -33.7598 H   0  0  0  0  0  0  0  0  0  0  0  0
   -5.3910   21.0049  -30.4528 H   0  0  0  0  0  0  0  0  0  0  0  0
   -5.6735   22.4703  -28.2278 H   0  0  0  0  0  0  0  0  0  0  0  0
   -5.8989   24.7187  -28.8745 H   0  0  0  0  0  0  0  0  0  0  0  0
  1  2  1  0
  2  3  2  0
  2  4  1  0
  4  5  2  0
  5  6  1  0
  6  7  2  0
  7  8  1  0
  8  9  2  0
  9 10  1  0
 10 11  1  0
 11 12  1  0
 12 13  1  0
 13 14  1  0
 14 15  1  0
  9 16  1  0
 16 17  2  0
 17 18  1  0
 18 19  1  0
 19 20  2  0
 19 21  1  0
 21 22  2  3
 22 23  1  0
 23 24  2  0
 23 25  1  0
 18  4  1  0
 17  6  1  0
 15 11  1  0
  1 26  1  0
  1 27  1  0
  5 28  1  0
  7 29  1  0
  8 30  1  0
 10 31  1  0
 11 32  1  1
 12 33  1  0
 12 34  1  0
 13 35  1  0
 13 36  1  0
 15 37  1  0
 15 38  1  0
 16 39  1  0
 21 40  1  0
 22 41  1  0
M  CHG  1  25  -1
M  END
>  <UniqueID>  (95) 
95

>  <SMILES>  (95) 
NC(=O)c1cc2ccc(N[C@H]3CCOC3)cc2n1C(=O)C=CC(=O)[O-]

>  <Energy>  (95) 
87.02905095638867

>  <Genealogy>  (95) 
NC(=O)c1cc2ccc(NC3CCOC3)cc2n1C(=O)C=CC(=O)[O-] (protonated)
NC(=O)c1cc2ccc(N[C@H]3CCOC3)cc2n1C(=O)C=CC(=O)[O-] (chirality)
NC(=O)c1cc2ccc(N[C@H]3CCOC3)cc2n1C(=O)C=CC(=O)[O-] (3D coordinates assigned)
NC(=O)c1cc2ccc(N[C@H]3CCOC3)cc2n1C(=O)C=CC(=O)[O-] (nonaromatic ring conformer: 87.02905095638867 kcal/mol)

>  <smiles>  (95) 
NC(=O)c1cc2ccc(NC3CCOC3)cc2n1C(=O)C=CC(=O)O

>  <score_type>  (95) 
oracle

>  <origin>  (95) 
adg

>  <m_score__min__energy>  (95) 
-11.19

>  <m_primary>  (95) 
energy

$$$$
96:0
     RDKit          3D

 42 43  0  0  0  0  0  0  0  0999 V2000
   -5.1030   17.0270  -34.2420 C   0  0  0  0  0  0  0  0  0  0  0  0
   -5.3050   18.4030  -33.5980 C   0  0  0  0  0  0  0  0  0  0  0  0
   -4.4160   19.3060  -34.1620 F   0  0  0  0  0  0  0  0  0  0  0  0
   -5.0080   18.2960  -32.2500 F   0  0  0  0  0  0  0  0  0  0  0  0
   -6.6920   18.8880  -33.7410 N   0  0  0  0  0  0  0  0  0  0  0  0
   -6.9390   20.0940  -32.9840 C   0  0  0  0  0  0  0  0  0  0  0  0
   -8.2680   20.4730  -32.6570 C   0  0  0  0  0  0  0  0  0  0  0  0
   -8.5220   21.6550  -31.9410 C   0  0  0  0  0  0  0  0  0  0  0  0
   -7.4340   22.4320  -31.5580 C   0  0  0  0  0  0  0  0  0  0  0  0
   -7.3970   23.6330  -30.8870 C   0  0  0  0  0  0  0  0  0  0  0  0
   -6.0460   23.9610  -30.7900 C   0  0  0  0  0  0  0  0  0  0  0  0
   -5.5450   25.1480  -30.0650 C   0  0  0  0  0  0  0  0  0  0  0  0
   -4.3000   25.7330  -30.4390 N   0  0  0  0  0  0  0  0  0  0  0  0
   -6.2210   25.6720  -29.1420 O   0  0  0  0  0  0  0  0  0  0  0  0
   -5.2790   23.0030  -31.3830 N   0  0  0  0  0  0  0  0  0  0  0  0
   -3.8540   23.0090  -31.5680 C   0  0  0  0  0  0  0  0  0  0  0  0
   -3.3360   22.3050  -32.4770 O   0  0  0  0  0  0  0  0  0  0  0  0
   -3.0520   23.8120  -30.7490 O   0  0  0  0  0  0  0  0  0  0  0  0
   -2.0450   23.2930  -29.8820 C   0  0  0  0  0  0  0  0  0  0  0  0
   -1.8800   24.1920  -28.6420 C   0  0  1  0  0  0  0  0  0  0  0  0
   -1.8140   25.5500  -29.0030 O   0  0  0  0  0  0  0  0  0  0  0  0
   -2.9900   23.9530  -27.6060 C   0  0  0  0  0  0  0  0  0  0  0  0
   -4.0280   24.8860  -27.7440 O   0  0  0  0  0  0  0  0  0  0  0  0
   -6.1430   22.0740  -31.8460 C   0  0  0  0  0  0  0  0  0  0  0  0
   -5.8610   20.9110  -32.5720 C   0  0  0  0  0  0  0  0  0  0  0  0
   -4.9914   16.2666  -33.4550 H   0  0  0  0  0  0  0  0  0  0  0  0
   -5.9749   16.7829  -34.8666 H   0  0  0  0  0  0  0  0  0  0  0  0
   -4.1977   17.0438  -34.8666 H   0  0  0  0  0  0  0  0  0  0  0  0
   -6.9070   19.0470  -34.7540 H   0  0  0  0  0  0  0  0  0  0  0  0
   -7.3440   18.1400  -33.4070 H   0  0  0  0  0  0  0  0  0  0  0  0
   -9.1078   19.8341  -32.9677 H   0  0  0  0  0  0  0  0  0  0  0  0
   -9.5499   21.9565  -31.6911 H   0  0  0  0  0  0  0  0  0  0  0  0
   -8.2523   24.2114  -30.5077 H   0  0  0  0  0  0  0  0  0  0  0  0
   -3.4690   25.6760  -29.8090 H   0  0  0  0  0  0  0  0  0  0  0  0
   -2.3323   22.2814  -29.5593 H   0  0  0  0  0  0  0  0  0  0  0  0
   -1.0899   23.2622  -30.4268 H   0  0  0  0  0  0  0  0  0  0  0  0
   -0.9258   23.9160  -28.1693 H   0  0  0  0  0  0  0  0  0  0  0  0
   -2.2310   25.6470  -29.8980 H   0  0  0  0  0  0  0  0  0  0  0  0
   -3.3976   22.9408  -27.7452 H   0  0  0  0  0  0  0  0  0  0  0  0
   -2.5558   24.0641  -26.6014 H   0  0  0  0  0  0  0  0  0  0  0  0
   -3.9550   25.2650  -28.6600 H   0  0  0  0  0  0  0  0  0  0  0  0
   -4.8237   20.6386  -32.8166 H   0  0  0  0  0  0  0  0  0  0  0  0
  1  2  1  0
  2  3  1  0
  2  4  1  0
  2  5  1  0
  5  6  1  0
  6  7  2  0
  7  8  1  0
  8  9  2  0
  9 10  1  0
 10 11  2  0
 11 12  1  0
 12 13  1  0
 12 14  2  0
 11 15  1  0
 15 16  1  0
 16 17  2  0
 16 18  1  0
 18 19  1  0
 19 20  1  0
 20 21  1  0
 20 22  1  0
 22 23  1  0
 15 24  1  0
 24 25  2  0
 25  6  1  0
 24  9  1  0
  1 26  1  0
  1 27  1  0
  1 28  1  0
  5 29  1  0
  5 30  1  0
  7 31  1  0
  8 32  1  0
 10 33  1  0
 13 34  1  0
 19 35  1  0
 19 36  1  0
 20 37  1  1
 21 38  1  0
 22 39  1  0
 22 40  1  0
 23 41  1  0
 25 42  1  0
M  CHG  2   5   1  13  -1
M  END
>  <UniqueID>  (96) 
96

>  <SMILES>  (96) 
CC(F)(F)[NH2+]c1ccc2cc(C([NH-])=O)n(C(=O)OC[C@@H](O)CO)c2c1

>  <Energy>  (96) 
77.38768482960661

>  <Genealogy>  (96) 
CC(F)(F)[NH2+]c1ccc2cc(C([NH-])=O)n(C(=O)OCC(O)CO)c2c1 (protonated)
CC(F)(F)[NH2+]c1ccc2cc(C([NH-])=O)n(C(=O)OC[C@@H](O)CO)c2c1 (chirality)
CC(F)(F)[NH2+]c1ccc2cc(C([NH-])=O)n(C(=O)OC[C@@H](O)CO)c2c1 (3D coordinates assigned)
CC(F)(F)[NH2+]c1ccc2cc(C([NH-])=O)n(C(=O)OC[C@@H](O)CO)c2c1 (optimized conformer: 77.38768482960661 kcal/mol)

>  <smiles>  (96) 
CC(F)(F)Nc1ccc2cc(C(N)=O)n(C(=O)OCC(O)CO)c2c1

>  <score_type>  (96) 
oracle

>  <origin>  (96) 
adg

>  <m_score__min__energy>  (96) 
-9.7200000000000006

>  <m_primary>  (96) 
energy

$$$$
97:0
     RDKit          3D

 40 41  0  0  0  0  0  0  0  0999 V2000
   -0.9370   22.2140  -30.6450 C   0  0  0  0  0  0  0  0  0  0  0  0
   -1.7920   22.8960  -29.6550 N   0  0  2  0  0  0  0  0  0  0  0  0
   -1.2590   22.8060  -28.2760 C   0  0  0  0  0  0  0  0  0  0  0  0
   -1.3440   24.1220  -27.4740 C   0  0  0  0  0  0  0  0  0  0  0  0
   -0.6490   25.2230  -28.2100 C   0  0  0  0  0  0  0  0  0  0  0  0
    0.4910   25.6110  -27.8400 O   0  0  0  0  0  0  0  0  0  0  0  0
   -1.2360   25.7860  -29.3360 O   0  0  0  0  0  0  0  0  0  0  0  0
   -3.1700   22.4430  -29.7190 C   0  0  0  0  0  0  0  0  0  0  0  0
   -3.7940   22.1400  -28.6640 O   0  0  0  0  0  0  0  0  0  0  0  0
   -3.8870   22.3760  -31.0110 C   0  0  0  0  0  0  0  0  0  0  0  0
   -3.3070   21.9230  -32.0340 O   0  0  0  0  0  0  0  0  0  0  0  0
   -5.2450   22.8280  -31.1150 N   0  0  0  0  0  0  0  0  0  0  0  0
   -5.7240   24.0840  -30.8940 C   0  0  0  0  0  0  0  0  0  0  0  0
   -4.9060   25.2750  -30.5830 C   0  0  0  0  0  0  0  0  0  0  0  0
   -3.5510   25.1160  -30.1670 N   0  0  0  0  0  0  0  0  0  0  0  0
   -5.3940   26.4320  -30.6630 O   0  0  0  0  0  0  0  0  0  0  0  0
   -7.1100   24.1100  -31.0470 C   0  0  0  0  0  0  0  0  0  0  0  0
   -7.4660   22.8180  -31.3650 C   0  0  0  0  0  0  0  0  0  0  0  0
   -8.7210   22.2640  -31.5990 C   0  0  0  0  0  0  0  0  0  0  0  0
   -8.7920   20.8870  -31.8720 C   0  0  0  0  0  0  0  0  0  0  0  0
   -7.6160   20.0930  -31.9140 C   0  0  0  0  0  0  0  0  0  0  0  0
   -7.6970   18.6060  -32.1550 C   0  0  0  0  0  0  0  0  0  0  0  0
   -9.0070   18.1740  -32.0410 F   0  0  0  0  0  0  0  0  0  0  0  0
   -6.9310   17.9110  -31.2370 F   0  0  0  0  0  0  0  0  0  0  0  0
   -7.2390   18.3250  -33.4290 F   0  0  0  0  0  0  0  0  0  0  0  0
   -6.3650   20.6900  -31.6430 C   0  0  0  0  0  0  0  0  0  0  0  0
   -6.3220   22.0650  -31.3960 C   0  0  0  0  0  0  0  0  0  0  0  0
   -0.1804   21.6105  -30.1222 H   0  0  0  0  0  0  0  0  0  0  0  0
   -1.5566   21.5594  -31.2755 H   0  0  0  0  0  0  0  0  0  0  0  0
   -0.4365   22.9636  -31.2755 H   0  0  0  0  0  0  0  0  0  0  0  0
   -1.7760   23.9100  -29.9200 H   0  0  0  0  0  0  0  0  0  0  0  0
   -1.8296   22.0362  -27.7359 H   0  0  0  0  0  0  0  0  0  0  0  0
   -0.1904   22.5616  -28.3671 H   0  0  0  0  0  0  0  0  0  0  0  0
   -2.4006   24.3919  -27.3302 H   0  0  0  0  0  0  0  0  0  0  0  0
   -0.8559   23.9793  -26.4986 H   0  0  0  0  0  0  0  0  0  0  0  0
   -2.7620   25.2940  -30.8290 H   0  0  0  0  0  0  0  0  0  0  0  0
   -7.7770   24.9778  -30.9371 H   0  0  0  0  0  0  0  0  0  0  0  0
   -9.6290   22.8843  -31.5712 H   0  0  0  0  0  0  0  0  0  0  0  0
   -9.7705   20.4191  -32.0553 H   0  0  0  0  0  0  0  0  0  0  0  0
   -5.4455   20.0865  -31.6267 H   0  0  0  0  0  0  0  0  0  0  0  0
  1  2  1  0
  2  3  1  0
  3  4  1  0
  4  5  1  0
  5  6  2  0
  5  7  1  0
  2  8  1  0
  8  9  2  0
  8 10  1  0
 10 11  2  0
 10 12  1  0
 12 13  1  0
 13 14  1  0
 14 15  1  0
 14 16  2  0
 13 17  2  0
 17 18  1  0
 18 19  2  0
 19 20  1  0
 20 21  2  0
 21 22  1  0
 22 23  1  0
 22 24  1  0
 22 25  1  0
 21 26  1  0
 26 27  2  0
 27 12  1  0
 27 18  1  0
  1 28  1  0
  1 29  1  0
  1 30  1  0
  2 31  1  6
  3 32  1  0
  3 33  1  0
  4 34  1  0
  4 35  1  0
 15 36  1  0
 17 37  1  0
 19 38  1  0
 20 39  1  0
 26 40  1  0
M  CHG  3   2   1   7  -1  15  -1
M  END
>  <UniqueID>  (97) 
97

>  <SMILES>  (97) 
C[N@H+](CCC(=O)[O-])C(=O)C(=O)n1c(C([NH-])=O)cc2ccc(C(F)(F)F)cc21

>  <Energy>  (97) 
81.24317037560084

>  <Genealogy>  (97) 
C[NH+](CCC(=O)[O-])C(=O)C(=O)n1c(C([NH-])=O)cc2ccc(C(F)(F)F)cc21 (protonated)
C[N@H+](CCC(=O)[O-])C(=O)C(=O)n1c(C([NH-])=O)cc2ccc(C(F)(F)F)cc21 (chirality)
C[N@H+](CCC(=O)[O-])C(=O)C(=O)n1c(C([NH-])=O)cc2ccc(C(F)(F)F)cc21 (3D coordinates assigned)
C[N@H+](CCC(=O)[O-])C(=O)C(=O)n1c(C([NH-])=O)cc2ccc(C(F)(F)F)cc21 (optimized conformer: 81.24317037560084 kcal/mol)

>  <smiles>  (97) 
CN(CCC(=O)O)C(=O)C(=O)n1c(C(N)=O)cc2ccc(C(F)(F)F)cc21

>  <score_type>  (97) 
oracle

>  <origin>  (97) 
adg

>  <m_score__min__energy>  (97) 
-11.5

>  <m_primary>  (97) 
energy

$$$$
98:0
     RDKit          3D

 52 55  0  0  0  0  0  0  0  0999 V2000
    0.1850   22.0520  -34.6400 N   0  0  0  0  0  0  0  0  0  0  0  0
   -0.2830   21.1750  -33.6120 C   0  0  0  0  0  0  0  0  0  0  0  0
    0.2130   21.2570  -32.4570 O   0  0  0  0  0  0  0  0  0  0  0  0
   -1.3230   20.1730  -33.9210 C   0  0  0  0  0  0  0  0  0  0  0  0
   -1.0530   18.9220  -34.4750 C   0  0  0  0  0  0  0  0  0  0  0  0
   -2.2660   18.2740  -34.5250 C   0  0  0  0  0  0  0  0  0  0  0  0
   -2.5830   16.9910  -34.9640 C   0  0  0  0  0  0  0  0  0  0  0  0
   -3.9270   16.5850  -34.9020 C   0  0  0  0  0  0  0  0  0  0  0  0
   -4.9300   17.4710  -34.4260 C   0  0  0  0  0  0  0  0  0  0  0  0
   -6.3210   17.0720  -34.4220 N   0  0  0  0  0  0  0  0  0  0  0  0
   -6.8730   16.9410  -33.0590 C   0  0  0  0  0  0  0  0  0  0  0  0
   -7.5060   18.2170  -32.5620 C   0  0  0  0  0  0  0  0  0  0  0  0
   -8.6180   18.1930  -31.7050 C   0  0  0  0  0  0  0  0  0  0  0  0
   -9.1140   19.3590  -31.2110 N   0  0  0  0  0  0  0  0  0  0  0  0
   -8.5480   20.5540  -31.5320 C   0  0  0  0  0  0  0  0  0  0  0  0
   -9.0550   21.7450  -31.0070 C   0  0  0  0  0  0  0  0  0  0  0  0
   -8.4510   22.9630  -31.3350 C   0  0  0  0  0  0  0  0  0  0  0  0
   -7.3420   22.9900  -32.1900 C   0  0  0  0  0  0  0  0  0  0  0  0
   -6.8310   21.8020  -32.7200 C   0  0  0  0  0  0  0  0  0  0  0  0
   -7.4310   20.5810  -32.3900 C   0  0  0  0  0  0  0  0  0  0  0  0
   -6.9370   19.4140  -32.8760 N   0  0  0  0  0  0  0  0  0  0  0  0
   -4.5630   18.7660  -33.9920 C   0  0  0  0  0  0  0  0  0  0  0  0
   -3.2170   19.1280  -34.0240 C   0  0  0  0  0  0  0  0  0  0  0  0
   -2.6530   20.2950  -33.6460 N   0  0  0  0  0  0  0  0  0  0  0  0
   -3.3200   21.4110  -33.0310 C   0  0  0  0  0  0  0  0  0  0  0  0
   -3.8470   22.2970  -33.7590 O   0  0  0  0  0  0  0  0  0  0  0  0
   -3.2350   21.6130  -31.5410 C   0  0  0  0  0  0  0  0  0  0  0  0
   -4.2940   22.5780  -30.9680 C   0  0  0  0  0  0  0  0  0  0  0  0
   -3.8350   23.3220  -29.7010 C   0  0  0  0  0  0  0  0  0  0  0  0
   -3.4070   24.7260  -29.9910 C   0  0  0  0  0  0  0  0  0  0  0  0
   -4.0300   25.4080  -30.8470 O   0  0  0  0  0  0  0  0  0  0  0  0
   -2.3360   25.2960  -29.3120 O   0  0  0  0  0  0  0  0  0  0  0  0
   -0.4620   22.3990  -35.3820 H   0  0  0  0  0  0  0  0  0  0  0  0
   -0.0769   18.5350  -34.8027 H   0  0  0  0  0  0  0  0  0  0  0  0
   -1.8045   16.3154  -35.3479 H   0  0  0  0  0  0  0  0  0  0  0  0
   -4.2050   15.5710  -35.2253 H   0  0  0  0  0  0  0  0  0  0  0  0
   -6.8750   17.7910  -34.9420 H   0  0  0  0  0  0  0  0  0  0  0  0
   -6.4470   16.1630  -34.9320 H   0  0  0  0  0  0  0  0  0  0  0  0
   -7.6355   16.1482  -33.0629 H   0  0  0  0  0  0  0  0  0  0  0  0
   -6.0384   16.6995  -32.3844 H   0  0  0  0  0  0  0  0  0  0  0  0
   -9.0860   17.2351  -31.4343 H   0  0  0  0  0  0  0  0  0  0  0  0
   -9.9273   21.7250  -30.3371 H   0  0  0  0  0  0  0  0  0  0  0  0
   -8.8477   23.9016  -30.9207 H   0  0  0  0  0  0  0  0  0  0  0  0
   -6.8710   23.9507  -32.4455 H   0  0  0  0  0  0  0  0  0  0  0  0
   -5.9615   21.8263  -33.3933 H   0  0  0  0  0  0  0  0  0  0  0  0
   -5.3254   19.4745  -33.6358 H   0  0  0  0  0  0  0  0  0  0  0  0
   -3.3607   20.6351  -31.0533 H   0  0  0  0  0  0  0  0  0  0  0  0
   -2.2539   22.0684  -31.3410 H   0  0  0  0  0  0  0  0  0  0  0  0
   -4.5373   23.3237  -31.7392 H   0  0  0  0  0  0  0  0  0  0  0  0
   -5.1638   21.9674  -30.6839 H   0  0  0  0  0  0  0  0  0  0  0  0
   -4.6688   23.3473  -28.9839 H   0  0  0  0  0  0  0  0  0  0  0  0
   -2.9681   22.7839  -29.2901 H   0  0  0  0  0  0  0  0  0  0  0  0
  1  2  1  0
  2  3  2  0
  2  4  1  0
  4  5  2  0
  5  6  1  0
  6  7  2  0
  7  8  1  0
  8  9  2  0
  9 10  1  0
 10 11  1  0
 11 12  1  0
 12 13  2  0
 13 14  1  0
 14 15  2  0
 15 16  1  0
 16 17  2  0
 17 18  1  0
 18 19  2  0
 19 20  1  0
 20 21  2  0
  9 22  1  0
 22 23  2  0
 23 24  1  0
 24 25  1  0
 25 26  2  0
 25 27  1  0
 27 28  1  0
 28 29  1  0
 29 30  1  0
 30 31  2  0
 30 32  1  0
 24  4  1  0
 23  6  1  0
 21 12  1  0
 20 15  1  0
  1 33  1  0
  5 34  1  0
  7 35  1  0
  8 36  1  0
 10 37  1  0
 10 38  1  0
 11 39  1  0
 11 40  1  0
 13 41  1  0
 16 42  1  0
 17 43  1  0
 18 44  1  0
 19 45  1  0
 22 46  1  0
 27 47  1  0
 27 48  1  0
 28 49  1  0
 28 50  1  0
 29 51  1  0
 29 52  1  0
M  CHG  3   1  -1  10   1  32  -1
M  END
>  <UniqueID>  (98) 
98

>  <SMILES>  (98) 
[NH-]C(=O)c1cc2ccc([NH2+]Cc3cnc4ccccc4n3)cc2n1C(=O)CCCC(=O)[O-]

>  <Energy>  (98) 
96.88168167996113

>  <Genealogy>  (98) 
[NH-]C(=O)c1cc2ccc([NH2+]Cc3cnc4ccccc4n3)cc2n1C(=O)CCCC(=O)[O-] (protonated)
[NH-]C(=O)c1cc2ccc([NH2+]Cc3cnc4ccccc4n3)cc2n1C(=O)CCCC(=O)[O-] (3D coordinates assigned)
[NH-]C(=O)c1cc2ccc([NH2+]Cc3cnc4ccccc4n3)cc2n1C(=O)CCCC(=O)[O-] (optimized conformer: 96.88168167996113 kcal/mol)

>  <smiles>  (98) 
NC(=O)c1cc2ccc(NCc3cnc4ccccc4n3)cc2n1C(=O)CCCC(=O)O

>  <score_type>  (98) 
oracle

>  <origin>  (98) 
adg

>  <m_score__min__energy>  (98) 
-13.390000000000001

>  <m_primary>  (98) 
energy

$$$$
99:0
     RDKit          3D

 41 42  0  0  0  0  0  0  0  0999 V2000
   -9.0910   19.6720  -32.2630 C   0  0  0  0  0  0  0  0  0  0  0  0
   -7.7480   19.9990  -31.7720 N   0  0  0  0  0  0  0  0  0  0  0  0
   -7.5360   21.2600  -31.0430 C   0  0  0  0  0  0  0  0  0  0  0  0
   -7.9960   22.4450  -31.8890 C   0  0  0  0  0  0  0  0  0  0  0  0
   -6.8980   23.2550  -32.1990 O   0  0  0  0  0  0  0  0  0  0  0  0
   -6.6410   19.0840  -31.9560 C   0  0  0  0  0  0  0  0  0  0  0  0
   -6.1640   18.4730  -30.9600 O   0  0  0  0  0  0  0  0  0  0  0  0
   -5.9920   18.8530  -33.3000 C   0  0  0  0  0  0  0  0  0  0  0  0
   -5.2990   20.1170  -33.8230 C   0  0  0  0  0  0  0  0  0  0  0  0
   -4.1880   20.5700  -32.9100 C   0  0  0  0  0  0  0  0  0  0  0  0
   -3.0360   19.7620  -32.7440 C   0  0  0  0  0  0  0  0  0  0  0  0
   -1.9720   20.1930  -31.9360 C   0  0  0  0  0  0  0  0  0  0  0  0
   -2.0880   21.4290  -31.3080 C   0  0  0  0  0  0  0  0  0  0  0  0
   -1.2190   22.0720  -30.4570 C   0  0  0  0  0  0  0  0  0  0  0  0
   -1.8510   23.2660  -30.1180 C   0  0  0  0  0  0  0  0  0  0  0  0
   -1.2200   24.3090  -29.2830 C   0  0  0  0  0  0  0  0  0  0  0  0
   -1.9180   25.5070  -28.9560 N   0  0  0  0  0  0  0  0  0  0  0  0
   -0.0280   24.1640  -28.8980 O   0  0  0  0  0  0  0  0  0  0  0  0
   -3.0680   23.3550  -30.7260 N   0  0  0  0  0  0  0  0  0  0  0  0
   -4.0720   24.3650  -30.5270 C   0  0  0  0  0  0  0  0  0  0  0  0
   -3.8490   25.5600  -30.8480 O   0  0  0  0  0  0  0  0  0  0  0  0
   -5.3130   24.0230  -30.0030 O   0  0  0  0  0  0  0  0  0  0  0  0
   -3.1940   22.2250  -31.4580 C   0  0  0  0  0  0  0  0  0  0  0  0
   -4.2740   21.8160  -32.2510 C   0  0  0  0  0  0  0  0  0  0  0  0
   -9.7640   19.5081  -31.4085 H   0  0  0  0  0  0  0  0  0  0  0  0
   -9.4705   20.5040  -32.8744 H   0  0  0  0  0  0  0  0  0  0  0  0
   -9.0456   18.7587  -32.8744 H   0  0  0  0  0  0  0  0  0  0  0  0
   -8.1112   21.2384  -30.1056 H   0  0  0  0  0  0  0  0  0  0  0  0
   -6.4636   21.3711  -30.8246 H   0  0  0  0  0  0  0  0  0  0  0  0
   -8.4524   22.0755  -32.8191 H   0  0  0  0  0  0  0  0  0  0  0  0
   -8.7350   23.0321  -31.3240 H   0  0  0  0  0  0  0  0  0  0  0  0
   -6.4240   23.4150  -31.3410 H   0  0  0  0  0  0  0  0  0  0  0  0
   -5.2445   18.0521  -33.2014 H   0  0  0  0  0  0  0  0  0  0  0  0
   -6.7790   18.5736  -34.0160 H   0  0  0  0  0  0  0  0  0  0  0  0
   -4.8781   19.9059  -34.8171 H   0  0  0  0  0  0  0  0  0  0  0  0
   -6.0486   20.9206  -33.8712 H   0  0  0  0  0  0  0  0  0  0  0  0
   -2.9748   18.7886  -33.2526 H   0  0  0  0  0  0  0  0  0  0  0  0
   -1.0737   19.5722  -31.8034 H   0  0  0  0  0  0  0  0  0  0  0  0
   -0.2345   21.7184  -30.1167 H   0  0  0  0  0  0  0  0  0  0  0  0
   -2.8890   25.6740  -29.3010 H   0  0  0  0  0  0  0  0  0  0  0  0
   -5.1668   22.4497  -32.3577 H   0  0  0  0  0  0  0  0  0  0  0  0
  1  2  1  0
  2  3  1  0
  3  4  1  0
  4  5  1  0
  2  6  1  0
  6  7  2  0
  6  8  1  0
  8  9  1  0
  9 10  1  0
 10 11  2  0
 11 12  1  0
 12 13  2  0
 13 14  1  0
 14 15  2  0
 15 16  1  0
 16 17  1  0
 16 18  2  0
 15 19  1  0
 19 20  1  0
 20 21  2  0
 20 22  1  0
 19 23  1  0
 23 24  2  0
 24 10  1  0
 23 13  1  0
  1 25  1  0
  1 26  1  0
  1 27  1  0
  3 28  1  0
  3 29  1  0
  4 30  1  0
  4 31  1  0
  5 32  1  0
  8 33  1  0
  8 34  1  0
  9 35  1  0
  9 36  1  0
 11 37  1  0
 12 38  1  0
 14 39  1  0
 17 40  1  0
 24 41  1  0
M  CHG  2  17  -1  22  -1
M  END
>  <UniqueID>  (99) 
99

>  <SMILES>  (99) 
CN(CCO)C(=O)CCc1ccc2cc(C([NH-])=O)n(C(=O)[O-])c2c1

>  <Energy>  (99) 
70.65750138071743

>  <Genealogy>  (99) 
CN(CCO)C(=O)CCc1ccc2cc(C([NH-])=O)n(C(=O)[O-])c2c1 (protonated)
CN(CCO)C(=O)CCc1ccc2cc(C([NH-])=O)n(C(=O)[O-])c2c1 (3D coordinates assigned)
CN(CCO)C(=O)CCc1ccc2cc(C([NH-])=O)n(C(=O)[O-])c2c1 (optimized conformer: 70.65750138071743 kcal/mol)

>  <smiles>  (99) 
CN(CCO)C(=O)CCc1ccc2cc(C(N)=O)n(C(=O)O)c2c1

>  <score_type>  (99) 
oracle

>  <origin>  (99) 
adg

>  <m_score__min__energy>  (99) 
-10.9

>  <m_primary>  (99) 
energy

$$$$
