0:0
     RDKit          3D

 51 53  0  0  0  0  0  0  0  0999 V2000
   -2.9380   14.3710  -35.7550 C   0  0  0  0  0  0  0  0  0  0  0  0
   -4.2920   14.2630  -35.3360 O   0  0  0  0  0  0  0  0  0  0  0  0
   -4.6950   14.4840  -34.0140 C   0  0  0  0  0  0  0  0  0  0  0  0
   -4.6960   13.5270  -33.1920 O   0  0  0  0  0  0  0  0  0  0  0  0
   -5.1100   15.8010  -33.5950 N   0  0  0  0  0  0  0  0  0  0  0  0
   -4.9530   16.9430  -34.5060 C   0  0  0  0  0  0  0  0  0  0  0  0
   -6.1110   17.9250  -34.3330 C   0  0  0  0  0  0  0  0  0  0  0  0
   -6.3110   18.2190  -32.9110 N   0  0  0  0  0  0  0  0  0  0  0  0
   -6.6290   19.5580  -32.4870 C   0  0  0  0  0  0  0  0  0  0  0  0
   -7.9690   20.0240  -32.5190 C   0  0  0  0  0  0  0  0  0  0  0  0
   -8.2850   21.3260  -32.0930 C   0  0  0  0  0  0  0  0  0  0  0  0
   -7.2470   22.1380  -31.6480 C   0  0  0  0  0  0  0  0  0  0  0  0
   -7.2740   23.4230  -31.1560 C   0  0  0  0  0  0  0  0  0  0  0  0
   -5.9490   23.7270  -30.8530 C   0  0  0  0  0  0  0  0  0  0  0  0
   -5.5080   25.0450  -30.3560 C   0  0  0  0  0  0  0  0  0  0  0  0
   -4.1760   25.5090  -30.5770 N   0  0  0  0  0  0  0  0  0  0  0  0
   -6.3350   25.7940  -29.7710 O   0  0  0  0  0  0  0  0  0  0  0  0
   -5.1370   22.6690  -31.1310 N   0  0  0  0  0  0  0  0  0  0  0  0
   -3.7350   22.5270  -30.8480 C   0  0  0  0  0  0  0  0  0  0  0  0
   -2.9410   23.4540  -31.1630 O   0  0  0  0  0  0  0  0  0  0  0  0
   -3.1920   21.2270  -30.3190 C   0  0  0  0  0  0  0  0  0  0  0  0
   -2.1030   20.6470  -31.2210 C   0  0  0  0  0  0  0  0  0  0  0  0
   -2.6860   19.7210  -32.1320 O   0  0  0  0  0  0  0  0  0  0  0  0
   -2.9200   20.0450  -33.4550 N   0  0  0  0  0  0  0  0  0  0  0  0
   -3.2640   21.1990  -33.7840 O   0  0  0  0  0  0  0  0  0  0  0  0
   -2.7690   19.0810  -34.4220 O   0  0  0  0  0  0  0  0  0  0  0  0
   -5.9450   21.7070  -31.6230 C   0  0  0  0  0  0  0  0  0  0  0  0
   -5.6030   20.4120  -32.0250 C   0  0  0  0  0  0  0  0  0  0  0  0
   -6.4930   17.0830  -32.0020 C   0  0  0  0  0  0  0  0  0  0  0  0
   -5.3440   16.0870  -32.1700 C   0  0  0  0  0  0  0  0  0  0  0  0
   -2.2840   14.4232  -34.8721 H   0  0  0  0  0  0  0  0  0  0  0  0
   -2.6697   13.4914  -36.3586 H   0  0  0  0  0  0  0  0  0  0  0  0
   -2.8125   15.2820  -36.3586 H   0  0  0  0  0  0  0  0  0  0  0  0
   -4.0059   17.4565  -34.2838 H   0  0  0  0  0  0  0  0  0  0  0  0
   -4.9489   16.5749  -35.5426 H   0  0  0  0  0  0  0  0  0  0  0  0
   -5.8808   18.8576  -34.8689 H   0  0  0  0  0  0  0  0  0  0  0  0
   -7.0287   17.4766  -34.7415 H   0  0  0  0  0  0  0  0  0  0  0  0
   -8.7681   19.3602  -32.8806 H   0  0  0  0  0  0  0  0  0  0  0  0
   -9.3223   21.6917  -32.1111 H   0  0  0  0  0  0  0  0  0  0  0  0
   -8.1537   24.0712  -31.0292 H   0  0  0  0  0  0  0  0  0  0  0  0
   -3.5270   24.9970  -31.2120 H   0  0  0  0  0  0  0  0  0  0  0  0
   -3.8650   26.4200  -30.1720 H   0  0  0  0  0  0  0  0  0  0  0  0
   -2.7683   21.4008  -29.3189 H   0  0  0  0  0  0  0  0  0  0  0  0
   -4.0207   20.5046  -30.2825 H   0  0  0  0  0  0  0  0  0  0  0  0
   -1.6205   21.4602  -31.7830 H   0  0  0  0  0  0  0  0  0  0  0  0
   -1.3515   20.1319  -30.6046 H   0  0  0  0  0  0  0  0  0  0  0  0
   -4.5595   20.0665  -31.9825 H   0  0  0  0  0  0  0  0  0  0  0  0
   -6.5106   17.4466  -30.9640 H   0  0  0  0  0  0  0  0  0  0  0  0
   -7.4427   16.5808  -32.2384 H   0  0  0  0  0  0  0  0  0  0  0  0
   -4.4294   16.5131  -31.7319 H   0  0  0  0  0  0  0  0  0  0  0  0
   -5.6098   15.1497  -31.6593 H   0  0  0  0  0  0  0  0  0  0  0  0
  1  2  1  0
  2  3  1  0
  3  4  2  0
  3  5  1  0
  5  6  1  0
  6  7  1  0
  7  8  1  0
  8  9  1  0
  9 10  2  0
 10 11  1  0
 11 12  2  0
 12 13  1  0
 13 14  2  0
 14 15  1  0
 15 16  1  0
 15 17  2  0
 14 18  1  0
 18 19  1  0
 19 20  2  0
 19 21  1  0
 21 22  1  0
 22 23  1  0
 23 24  1  0
 24 25  2  0
 24 26  1  0
 18 27  1  0
 27 28  2  0
  8 29  1  0
 29 30  1  0
 30  5  1  0
 28  9  1  0
 27 12  1  0
  1 31  1  0
  1 32  1  0
  1 33  1  0
  6 34  1  0
  6 35  1  0
  7 36  1  0
  7 37  1  0
 10 38  1  0
 11 39  1  0
 13 40  1  0
 16 41  1  0
 16 42  1  0
 21 43  1  0
 21 44  1  0
 22 45  1  0
 22 46  1  0
 28 47  1  0
 29 48  1  0
 29 49  1  0
 30 50  1  0
 30 51  1  0
M  CHG  2  24   1  26  -1
M  END
>  <UniqueID>  (1) 
1

>  <SMILES>  (1) 
COC(=O)N1CCN(c2ccc3cc(C(N)=O)n(C(=O)CCO[N+](=O)[O-])c3c2)CC1

>  <Energy>  (1) 
89.41767563629837

>  <Genealogy>  (1) 
COC(=O)N1CCN(c2ccc3cc(C(N)=O)n(C(=O)CCO[N+](=O)[O-])c3c2)CC1 (3D coordinates assigned)
COC(=O)N1CCN(c2ccc3cc(C(N)=O)n(C(=O)CCO[N+](=O)[O-])c3c2)CC1 (nonaromatic ring conformer: 89.41767563629837 kcal/mol)

>  <smiles>  (1) 
COC(=O)N1CCN(c2ccc3cc(C(N)=O)n(C(=O)CCO[N+](=O)[O-])c3c2)CC1

>  <score_type>  (1) 
oracle

>  <origin>  (1) 
adg

>  <m_score__min__energy>  (1) 
-8.9399999999999995

>  <m_primary>  (1) 
energy

$$$$
1:0
     RDKit          3D

 35 36  0  0  0  0  0  0  0  0999 V2000
   -6.2740   25.7030  -29.0570 N   0  0  0  0  0  0  0  0  0  0  0  0
   -5.7390   25.2100  -30.2860 C   0  0  0  0  0  0  0  0  0  0  0  0
   -4.7910   25.8270  -30.8400 O   0  0  0  0  0  0  0  0  0  0  0  0
   -6.2430   23.9570  -30.8740 C   0  0  0  0  0  0  0  0  0  0  0  0
   -7.5860   23.7340  -31.1720 C   0  0  0  0  0  0  0  0  0  0  0  0
   -7.6640   22.4050  -31.5180 C   0  0  0  0  0  0  0  0  0  0  0  0
   -8.7670   21.6350  -31.8750 C   0  0  0  0  0  0  0  0  0  0  0  0
   -8.5560   20.2760  -32.1640 C   0  0  0  0  0  0  0  0  0  0  0  0
   -7.2540   19.7160  -32.1070 C   0  0  0  0  0  0  0  0  0  0  0  0
   -7.0470   18.2460  -32.3740 C   0  0  0  0  0  0  0  0  0  0  0  0
   -6.4990   18.0490  -33.6290 F   0  0  0  0  0  0  0  0  0  0  0  0
   -6.1900   17.7270  -31.4210 F   0  0  0  0  0  0  0  0  0  0  0  0
   -8.2510   17.5650  -32.3150 F   0  0  0  0  0  0  0  0  0  0  0  0
   -6.1640   20.5240  -31.7100 C   0  0  0  0  0  0  0  0  0  0  0  0
   -6.4040   21.8740  -31.4300 C   0  0  0  0  0  0  0  0  0  0  0  0
   -5.5150   22.8190  -31.0540 N   0  0  0  0  0  0  0  0  0  0  0  0
   -4.0900   22.6440  -30.9480 C   0  0  0  0  0  0  0  0  0  0  0  0
   -3.3900   22.6650  -31.9960 O   0  0  0  0  0  0  0  0  0  0  0  0
   -3.3980   22.4480  -29.6150 C   0  0  2  0  0  0  0  0  0  0  0  0
   -4.3490   22.3340  -28.6180 F   0  0  0  0  0  0  0  0  0  0  0  0
   -2.3960   23.5700  -29.2560 C   0  0  1  0  0  0  0  0  0  0  0  0
   -2.7870   24.7470  -29.9160 O   0  0  0  0  0  0  0  0  0  0  0  0
   -2.3570   23.8390  -27.7420 C   0  0  0  0  0  0  0  0  0  0  0  0
   -3.5140   24.4870  -27.3500 F   0  0  0  0  0  0  0  0  0  0  0  0
   -1.2770   24.6330  -27.4100 F   0  0  0  0  0  0  0  0  0  0  0  0
   -7.0740   25.2220  -28.5890 H   0  0  0  0  0  0  0  0  0  0  0  0
   -5.8880   26.5730  -28.6270 H   0  0  0  0  0  0  0  0  0  0  0  0
   -8.4078   24.4644  -31.1378 H   0  0  0  0  0  0  0  0  0  0  0  0
   -9.7730   22.0766  -31.9293 H   0  0  0  0  0  0  0  0  0  0  0  0
   -9.4103   19.6393  -32.4375 H   0  0  0  0  0  0  0  0  0  0  0  0
   -5.1519   20.1019  -31.6233 H   0  0  0  0  0  0  0  0  0  0  0  0
   -2.8048   21.5258  -29.7024 H   0  0  0  0  0  0  0  0  0  0  0  0
   -1.3918   23.2499  -29.5708 H   0  0  0  0  0  0  0  0  0  0  0  0
   -3.0640   24.4910  -30.8350 H   0  0  0  0  0  0  0  0  0  0  0  0
   -2.2678   22.8703  -27.2286 H   0  0  0  0  0  0  0  0  0  0  0  0
  1  2  1  0
  2  3  2  0
  2  4  1  0
  4  5  2  0
  5  6  1  0
  6  7  2  0
  7  8  1  0
  8  9  2  0
  9 10  1  0
 10 11  1  0
 10 12  1  0
 10 13  1  0
  9 14  1  0
 14 15  2  0
 15 16  1  0
 16 17  1  0
 17 18  2  0
 17 19  1  0
 19 20  1  0
 19 21  1  0
 21 22  1  0
 21 23  1  0
 23 24  1  0
 23 25  1  0
 16  4  1  0
 15  6  1  0
  1 26  1  0
  1 27  1  0
  5 28  1  0
  7 29  1  0
  8 30  1  0
 14 31  1  0
 19 32  1  6
 21 33  1  6
 22 34  1  0
 23 35  1  0
M  END
>  <UniqueID>  (2) 
2

>  <SMILES>  (2) 
NC(=O)c1cc2ccc(C(F)(F)F)cc2n1C(=O)[C@H](F)[C@@H](O)C(F)F

>  <Energy>  (2) 
75.29431748398636

>  <Genealogy>  (2) 
NC(=O)c1cc2ccc(C(F)(F)F)cc2n1C(=O)[C@H](F)[C@@H](O)C(F)F (chirality)
NC(=O)c1cc2ccc(C(F)(F)F)cc2n1C(=O)[C@H](F)[C@@H](O)C(F)F (3D coordinates assigned)
NC(=O)c1cc2ccc(C(F)(F)F)cc2n1C(=O)[C@H](F)[C@@H](O)C(F)F (optimized conformer: 75.29431748398636 kcal/mol)

>  <smiles>  (2) 
NC(=O)c1cc2ccc(C(F)(F)F)cc2n1C(=O)C(F)[C@@H](O)C(F)F

>  <score_type>  (2) 
oracle

>  <origin>  (2) 
adg

>  <m_score__min__energy>  (2) 
-7.71

>  <m_primary>  (2) 
energy

$$$$
2:0
     RDKit          3D

 39 40  0  0  0  0  0  0  0  0999 V2000
   -8.4850   19.6030  -31.5880 C   0  0  0  0  0  0  0  0  0  0  0  0
   -8.5850   18.7730  -32.7260 O   0  0  0  0  0  0  0  0  0  0  0  0
   -7.5420   17.8180  -32.7090 C   0  0  0  0  0  0  0  0  0  0  0  0
   -6.5130   18.1660  -33.7820 C   0  0  0  0  0  0  0  0  0  0  0  0
   -5.3910   18.9110  -33.1960 C   0  0  0  0  0  0  0  0  0  0  0  0
   -4.4790   19.5150  -32.6920 C   0  0  0  0  0  0  0  0  0  0  0  0
   -3.4040   20.2420  -32.0680 C   0  0  0  0  0  0  0  0  0  0  0  0
   -2.1060   19.6870  -32.0260 C   0  0  0  0  0  0  0  0  0  0  0  0
   -1.0580   20.3720  -31.3860 C   0  0  0  0  0  0  0  0  0  0  0  0
   -1.3480   21.6010  -30.7950 C   0  0  0  0  0  0  0  0  0  0  0  0
   -0.5320   22.4730  -30.1100 C   0  0  0  0  0  0  0  0  0  0  0  0
   -1.3530   23.5370  -29.7450 C   0  0  0  0  0  0  0  0  0  0  0  0
   -0.9020   24.6770  -28.9210 C   0  0  0  0  0  0  0  0  0  0  0  0
   -1.6180   25.9090  -28.9550 N   0  0  0  0  0  0  0  0  0  0  0  0
    0.1320   24.5840  -28.2070 O   0  0  0  0  0  0  0  0  0  0  0  0
   -2.6230   23.3340  -30.1950 N   0  0  0  0  0  0  0  0  0  0  0  0
   -3.7460   24.2230  -30.1120 C   0  0  0  0  0  0  0  0  0  0  0  0
   -3.7310   25.3000  -30.7630 O   0  0  0  0  0  0  0  0  0  0  0  0
   -4.8520   23.9470  -29.1300 C   0  0  2  0  0  0  0  0  0  0  0  0
   -4.4890   22.8260  -28.1530 C   0  0  0  0  0  0  0  0  0  0  0  0
   -6.4650   23.4850  -30.1070 Br  0  0  0  0  0  0  0  0  0  0  0  0
   -2.6050   22.1450  -30.8290 C   0  0  0  0  0  0  0  0  0  0  0  0
   -3.6620   21.4910  -31.4690 C   0  0  0  0  0  0  0  0  0  0  0  0
   -8.5590   18.9887  -30.6785 H   0  0  0  0  0  0  0  0  0  0  0  0
   -7.5173   20.1260  -31.5995 H   0  0  0  0  0  0  0  0  0  0  0  0
   -9.3007   20.3409  -31.5995 H   0  0  0  0  0  0  0  0  0  0  0  0
   -7.0573   17.8224  -31.7215 H   0  0  0  0  0  0  0  0  0  0  0  0
   -7.9570   16.8194  -32.9103 H   0  0  0  0  0  0  0  0  0  0  0  0
   -6.1342   17.2379  -34.2349 H   0  0  0  0  0  0  0  0  0  0  0  0
   -6.9948   18.7921  -34.5474 H   0  0  0  0  0  0  0  0  0  0  0  0
   -1.9135   18.7119  -32.4973 H   0  0  0  0  0  0  0  0  0  0  0  0
   -0.0420   19.9517  -31.3527 H   0  0  0  0  0  0  0  0  0  0  0  0
    0.5405   22.3545  -29.8964 H   0  0  0  0  0  0  0  0  0  0  0  0
   -2.6630   25.9240  -28.9570 H   0  0  0  0  0  0  0  0  0  0  0  0
   -5.0154   24.8558  -28.5322 H   0  0  0  0  0  0  0  0  0  0  0  0
   -4.6060   23.1872  -27.1206 H   0  0  0  0  0  0  0  0  0  0  0  0
   -5.1545   21.9659  -28.3181 H   0  0  0  0  0  0  0  0  0  0  0  0
   -3.4456   22.5193  -28.3181 H   0  0  0  0  0  0  0  0  0  0  0  0
   -4.6662   21.9386  -31.5039 H   0  0  0  0  0  0  0  0  0  0  0  0
  1  2  1  0
  2  3  1  0
  3  4  1  0
  4  5  1  0
  5  6  3  0
  6  7  1  0
  7  8  2  0
  8  9  1  0
  9 10  2  0
 10 11  1  0
 11 12  2  0
 12 13  1  0
 13 14  1  0
 13 15  2  0
 12 16  1  0
 16 17  1  0
 17 18  2  0
 17 19  1  0
 19 20  1  0
 19 21  1  0
 16 22  1  0
 22 23  2  0
 23  7  1  0
 22 10  1  0
  1 24  1  0
  1 25  1  0
  1 26  1  0
  3 27  1  0
  3 28  1  0
  4 29  1  0
  4 30  1  0
  8 31  1  0
  9 32  1  0
 11 33  1  0
 14 34  1  0
 19 35  1  1
 20 36  1  0
 20 37  1  0
 20 38  1  0
 23 39  1  0
M  CHG  1  14  -1
M  END
>  <UniqueID>  (3) 
3

>  <SMILES>  (3) 
COCCC#Cc1ccc2cc(C([NH-])=O)n(C(=O)[C@H](C)Br)c2c1

>  <Energy>  (3) 
69.55164472285577

>  <Genealogy>  (3) 
COCCC#Cc1ccc2cc(C([NH-])=O)n(C(=O)C(C)Br)c2c1 (protonated)
COCCC#Cc1ccc2cc(C([NH-])=O)n(C(=O)[C@H](C)Br)c2c1 (chirality)
COCCC#Cc1ccc2cc(C([NH-])=O)n(C(=O)[C@H](C)Br)c2c1 (3D coordinates assigned)
COCCC#Cc1ccc2cc(C([NH-])=O)n(C(=O)[C@H](C)Br)c2c1 (optimized conformer: 69.55164472285577 kcal/mol)

>  <smiles>  (3) 
COCCC#Cc1ccc2cc(C(N)=O)n(C(=O)C(C)Br)c2c1

>  <score_type>  (3) 
oracle

>  <origin>  (3) 
adg

>  <m_score__min__energy>  (3) 
-10.949999999999999

>  <m_primary>  (3) 
energy

$$$$
4:0
     RDKit          3D

 58 61  0  0  0  0  0  0  0  0999 V2000
   -0.8180   26.2880  -25.1280 C   0  0  0  0  0  0  0  0  0  0  0  0
   -0.7750   25.3430  -26.2540 N   0  0  0  0  0  0  0  0  0  0  0  0
    0.5810   24.7750  -26.3970 C   0  0  0  0  0  0  0  0  0  0  0  0
    0.7640   24.0690  -27.7570 C   0  0  0  0  0  0  0  0  0  0  0  0
   -0.5280   23.7270  -28.3930 N   0  0  0  0  0  0  0  0  0  0  0  0
   -1.3640   22.6790  -27.7250 C   0  0  2  0  0  0  0  0  0  0  0  0
   -1.2400   21.2590  -28.3480 C   0  0  0  0  0  0  0  0  0  0  0  0
   -1.9520   21.1810  -29.7020 C   0  0  0  0  0  0  0  0  0  0  0  0
   -3.4630   21.5560  -29.6210 C   0  0  2  0  0  0  0  0  0  0  0  0
   -3.8650   22.5180  -30.7320 C   0  0  0  0  0  0  0  0  0  0  0  0
   -2.9930   23.2010  -31.3310 O   0  0  0  0  0  0  0  0  0  0  0  0
   -5.2460   22.7130  -31.0720 N   0  0  0  0  0  0  0  0  0  0  0  0
   -6.0220   23.8040  -30.8300 C   0  0  0  0  0  0  0  0  0  0  0  0
   -5.5430   25.1080  -30.3280 C   0  0  0  0  0  0  0  0  0  0  0  0
   -4.2040   25.5440  -30.5620 N   0  0  0  0  0  0  0  0  0  0  0  0
   -6.3400   25.8680  -29.7170 O   0  0  0  0  0  0  0  0  0  0  0  0
   -7.3560   23.5270  -31.1220 C   0  0  0  0  0  0  0  0  0  0  0  0
   -7.3680   22.2210  -31.5610 C   0  0  0  0  0  0  0  0  0  0  0  0
   -8.4300   21.4190  -31.9690 C   0  0  0  0  0  0  0  0  0  0  0  0
   -8.1510   20.0910  -32.3290 C   0  0  0  0  0  0  0  0  0  0  0  0
   -6.8290   19.5780  -32.2490 C   0  0  0  0  0  0  0  0  0  0  0  0
   -6.5310   18.1630  -32.6720 C   0  0  0  0  0  0  0  0  0  0  0  0
   -5.4870   17.6340  -31.9300 F   0  0  0  0  0  0  0  0  0  0  0  0
   -6.1750   18.1230  -34.0090 F   0  0  0  0  0  0  0  0  0  0  0  0
   -7.6590   17.3840  -32.4810 F   0  0  0  0  0  0  0  0  0  0  0  0
   -5.7750   20.4310  -31.8470 C   0  0  0  0  0  0  0  0  0  0  0  0
   -6.0820   21.7550  -31.5190 C   0  0  0  0  0  0  0  0  0  0  0  0
   -3.8540   22.0940  -28.2210 C   0  0  0  0  0  0  0  0  0  0  0  0
   -2.8560   23.1480  -27.7220 C   0  0  0  0  0  0  0  0  0  0  0  0
   -1.2990   24.9720  -28.6510 C   0  0  0  0  0  0  0  0  0  0  0  0
   -1.1980   26.0020  -27.5010 C   0  0  0  0  0  0  0  0  0  0  0  0
   -0.7926   25.7304  -24.1802 H   0  0  0  0  0  0  0  0  0  0  0  0
    0.0504   26.9611  -25.1808 H   0  0  0  0  0  0  0  0  0  0  0  0
   -1.7440   26.8794  -25.1808 H   0  0  0  0  0  0  0  0  0  0  0  0
    1.3182   25.5873  -26.3151 H   0  0  0  0  0  0  0  0  0  0  0  0
    0.7259   24.0293  -25.6015 H   0  0  0  0  0  0  0  0  0  0  0  0
    1.3230   24.7365  -28.4292 H   0  0  0  0  0  0  0  0  0  0  0  0
    1.3085   23.1303  -27.5772 H   0  0  0  0  0  0  0  0  0  0  0  0
   -0.9802   22.5737  -26.6995 H   0  0  0  0  0  0  0  0  0  0  0  0
   -0.1753   21.0213  -28.4889 H   0  0  0  0  0  0  0  0  0  0  0  0
   -1.7128   20.5378  -27.6651 H   0  0  0  0  0  0  0  0  0  0  0  0
   -1.4564   21.8732  -30.3985 H   0  0  0  0  0  0  0  0  0  0  0  0
   -1.8910   20.1376  -30.0450 H   0  0  0  0  0  0  0  0  0  0  0  0
   -4.0329   20.6278  -29.7746 H   0  0  0  0  0  0  0  0  0  0  0  0
   -3.8630   26.4340  -30.1360 H   0  0  0  0  0  0  0  0  0  0  0  0
   -3.5670   25.0160  -31.1960 H   0  0  0  0  0  0  0  0  0  0  0  0
   -8.2158   24.2059  -31.0232 H   0  0  0  0  0  0  0  0  0  0  0  0
   -9.4561   21.8135  -32.0081 H   0  0  0  0  0  0  0  0  0  0  0  0
   -8.9663   19.4398  -32.6773 H   0  0  0  0  0  0  0  0  0  0  0  0
   -4.7400   20.0622  -31.7937 H   0  0  0  0  0  0  0  0  0  0  0  0
   -4.8539   22.5487  -28.2797 H   0  0  0  0  0  0  0  0  0  0  0  0
   -3.8467   21.2512  -27.5141 H   0  0  0  0  0  0  0  0  0  0  0  0
   -2.9393   24.0338  -28.3688 H   0  0  0  0  0  0  0  0  0  0  0  0
   -3.1172   23.3556  -26.6738 H   0  0  0  0  0  0  0  0  0  0  0  0
   -0.9147   25.4367  -29.5710 H   0  0  0  0  0  0  0  0  0  0  0  0
   -2.3576   24.6874  -28.7423 H   0  0  0  0  0  0  0  0  0  0  0  0
   -0.4621   26.7740  -27.7701 H   0  0  0  0  0  0  0  0  0  0  0  0
   -2.1865   26.4585  -27.3445 H   0  0  0  0  0  0  0  0  0  0  0  0
  1  2  1  0
  2  3  1  0
  3  4  1  0
  4  5  1  0
  5  6  1  0
  6  7  1  0
  7  8  1  0
  8  9  1  0
  9 10  1  0
 10 11  2  0
 10 12  1  0
 12 13  1  0
 13 14  1  0
 14 15  1  0
 14 16  2  0
 13 17  2  0
 17 18  1  0
 18 19  2  0
 19 20  1  0
 20 21  2  0
 21 22  1  0
 22 23  1  0
 22 24  1  0
 22 25  1  0
 21 26  1  0
 26 27  2  0
  9 28  1  0
 28 29  1  0
  5 30  1  0
 30 31  1  0
 31  2  1  0
 29  6  1  0
 27 12  1  0
 27 18  1  0
  1 32  1  0
  1 33  1  0
  1 34  1  0
  3 35  1  0
  3 36  1  0
  4 37  1  0
  4 38  1  0
  6 39  1  1
  7 40  1  0
  7 41  1  0
  8 42  1  0
  8 43  1  0
  9 44  1  6
 15 45  1  0
 15 46  1  0
 17 47  1  0
 19 48  1  0
 20 49  1  0
 26 50  1  0
 28 51  1  0
 28 52  1  0
 29 53  1  0
 29 54  1  0
 30 55  1  0
 30 56  1  0
 31 57  1  0
 31 58  1  0
M  END
>  <UniqueID>  (4) 
4

>  <SMILES>  (4) 
CN1CCN(C2CCC(C(=O)n3c(C(N)=O)cc4ccc(C(F)(F)F)cc43)CC2)CC1

>  <Energy>  (4) 
123.95497336467147

>  <Genealogy>  (4) 
CN1CCN(C2CCC(C(=O)n3c(C(N)=O)cc4ccc(C(F)(F)F)cc43)CC2)CC1 (3D coordinates assigned)
CN1CCN(C2CCC(C(=O)n3c(C(N)=O)cc4ccc(C(F)(F)F)cc43)CC2)CC1 (nonaromatic ring conformer: 123.95497336467147 kcal/mol)

>  <smiles>  (4) 
CN1CCN(C2CCC(C(=O)n3c(C(N)=O)cc4ccc(C(F)(F)F)cc43)CC2)CC1

>  <score_type>  (4) 
oracle

>  <origin>  (4) 
adg

>  <m_score__min__energy>  (4) 
-10.27

>  <m_primary>  (4) 
energy

$$$$
5:0
     RDKit          3D

 41 42  0  0  0  0  0  0  0  0999 V2000
   -3.6110   24.3310  -27.1320 C   0  0  0  0  0  0  0  0  0  0  0  0
   -2.4200   25.2870  -27.0060 C   0  0  0  0  0  0  0  0  0  0  0  0
   -1.5710   24.9470  -25.7770 C   0  0  0  0  0  0  0  0  0  0  0  0
   -1.5760   25.2530  -28.2490 C   0  0  0  0  0  0  0  0  0  0  0  0
   -0.3800   25.6590  -28.2150 O   0  0  0  0  0  0  0  0  0  0  0  0
   -2.1350   24.7900  -29.4440 O   0  0  0  0  0  0  0  0  0  0  0  0
   -1.9330   23.4670  -29.9280 C   0  0  0  0  0  0  0  0  0  0  0  0
   -3.1880   22.8020  -30.0260 O   0  0  0  0  0  0  0  0  0  0  0  0
   -3.8780   22.6520  -31.2310 C   0  0  0  0  0  0  0  0  0  0  0  0
   -3.2460   22.4100  -32.2960 O   0  0  0  0  0  0  0  0  0  0  0  0
   -5.3120   22.7690  -31.2550 N   0  0  0  0  0  0  0  0  0  0  0  0
   -6.0580   23.8810  -31.0030 C   0  0  0  0  0  0  0  0  0  0  0  0
   -5.5460   25.1690  -30.4940 C   0  0  0  0  0  0  0  0  0  0  0  0
   -4.1990   25.5770  -30.7370 N   0  0  0  0  0  0  0  0  0  0  0  0
   -6.2910   25.8940  -29.7830 O   0  0  0  0  0  0  0  0  0  0  0  0
   -7.4080   23.6340  -31.2310 C   0  0  0  0  0  0  0  0  0  0  0  0
   -7.4730   22.3150  -31.6150 C   0  0  0  0  0  0  0  0  0  0  0  0
   -8.5750   21.5450  -31.9750 C   0  0  0  0  0  0  0  0  0  0  0  0
   -8.3510   20.2140  -32.3630 C   0  0  0  0  0  0  0  0  0  0  0  0
   -7.0390   19.6740  -32.3780 C   0  0  0  0  0  0  0  0  0  0  0  0
   -6.8000   18.2650  -32.8590 C   0  0  0  0  0  0  0  0  0  0  0  0
   -5.7750   17.6750  -32.1400 F   0  0  0  0  0  0  0  0  0  0  0  0
   -7.9360   17.4910  -32.7070 F   0  0  0  0  0  0  0  0  0  0  0  0
   -6.4510   18.2950  -34.1970 F   0  0  0  0  0  0  0  0  0  0  0  0
   -5.9430   20.4970  -32.0320 C   0  0  0  0  0  0  0  0  0  0  0  0
   -6.1960   21.8140  -31.6240 C   0  0  0  0  0  0  0  0  0  0  0  0
   -3.9625   24.0489  -26.1286 H   0  0  0  0  0  0  0  0  0  0  0  0
   -4.4249   24.8294  -27.6789 H   0  0  0  0  0  0  0  0  0  0  0  0
   -3.3005   23.4285  -27.6789 H   0  0  0  0  0  0  0  0  0  0  0  0
   -2.8170   26.3052  -26.8805 H   0  0  0  0  0  0  0  0  0  0  0  0
   -2.1402   25.1749  -24.8637 H   0  0  0  0  0  0  0  0  0  0  0  0
   -1.3155   23.8772  -25.7924 H   0  0  0  0  0  0  0  0  0  0  0  0
   -0.6477   25.5447  -25.7924 H   0  0  0  0  0  0  0  0  0  0  0  0
   -1.4608   23.5076  -30.9207 H   0  0  0  0  0  0  0  0  0  0  0  0
   -1.2797   22.9179  -29.2340 H   0  0  0  0  0  0  0  0  0  0  0  0
   -3.8640   26.5070  -30.4040 H   0  0  0  0  0  0  0  0  0  0  0  0
   -3.5110   24.9270  -31.1780 H   0  0  0  0  0  0  0  0  0  0  0  0
   -8.2437   24.3416  -31.1266 H   0  0  0  0  0  0  0  0  0  0  0  0
   -9.5910   21.9663  -31.9562 H   0  0  0  0  0  0  0  0  0  0  0  0
   -9.2022   19.5831  -32.6586 H   0  0  0  0  0  0  0  0  0  0  0  0
   -4.9137   20.1122  -32.0819 H   0  0  0  0  0  0  0  0  0  0  0  0
  1  2  1  0
  2  3  1  0
  2  4  1  0
  4  5  2  0
  4  6  1  0
  6  7  1  0
  7  8  1  0
  8  9  1  0
  9 10  2  0
  9 11  1  0
 11 12  1  0
 12 13  1  0
 13 14  1  0
 13 15  2  0
 12 16  2  0
 16 17  1  0
 17 18  2  0
 18 19  1  0
 19 20  2  0
 20 21  1  0
 21 22  1  0
 21 23  1  0
 21 24  1  0
 20 25  1  0
 25 26  2  0
 26 11  1  0
 26 17  1  0
  1 27  1  0
  1 28  1  0
  1 29  1  0
  2 30  1  0
  3 31  1  0
  3 32  1  0
  3 33  1  0
  7 34  1  0
  7 35  1  0
 14 36  1  0
 14 37  1  0
 16 38  1  0
 18 39  1  0
 19 40  1  0
 25 41  1  0
M  END
>  <UniqueID>  (5) 
5

>  <SMILES>  (5) 
CC(C)C(=O)OCOC(=O)n1c(C(N)=O)cc2ccc(C(F)(F)F)cc21

>  <Energy>  (5) 
71.93078624447989

>  <Genealogy>  (5) 
CC(C)C(=O)OCOC(=O)n1c(C(N)=O)cc2ccc(C(F)(F)F)cc21 (3D coordinates assigned)
CC(C)C(=O)OCOC(=O)n1c(C(N)=O)cc2ccc(C(F)(F)F)cc21 (optimized conformer: 71.93078624447989 kcal/mol)

>  <smiles>  (5) 
CC(C)C(=O)OCOC(=O)n1c(C(N)=O)cc2ccc(C(F)(F)F)cc21

>  <score_type>  (5) 
oracle

>  <origin>  (5) 
adg

>  <m_score__min__energy>  (5) 
-8.3599999999999994

>  <m_primary>  (5) 
energy

$$$$
6:0
     RDKit          3D

 55 57  0  0  0  0  0  0  0  0999 V2000
   -7.1870   13.8690  -34.5680 C   0  0  0  0  0  0  0  0  0  0  0  0
   -5.8470   13.2770  -34.4110 N   0  0  0  0  0  0  0  0  0  0  0  0
   -5.8500   12.2710  -33.3370 C   0  0  0  0  0  0  0  0  0  0  0  0
   -4.8630   14.3020  -34.1230 C   0  0  0  0  0  0  0  0  0  0  0  0
   -3.6340   14.0420  -34.2630 O   0  0  0  0  0  0  0  0  0  0  0  0
   -5.2600   15.6710  -33.6970 C   0  0  0  0  0  0  0  0  0  0  0  0
   -5.4950   16.6940  -34.6330 C   0  0  0  0  0  0  0  0  0  0  0  0
   -5.8600   17.9750  -34.2090 C   0  0  0  0  0  0  0  0  0  0  0  0
   -5.9940   18.2640  -32.8400 C   0  0  0  0  0  0  0  0  0  0  0  0
   -6.3880   19.6240  -32.3910 C   0  0  0  0  0  0  0  0  0  0  0  0
   -7.7560   20.0030  -32.3600 C   0  0  0  0  0  0  0  0  0  0  0  0
   -8.1370   21.2900  -31.9460 C   0  0  0  0  0  0  0  0  0  0  0  0
   -7.1360   22.1750  -31.5620 C   0  0  0  0  0  0  0  0  0  0  0  0
   -7.2250   23.4830  -31.1410 C   0  0  0  0  0  0  0  0  0  0  0  0
   -5.9110   23.8820  -30.8980 C   0  0  0  0  0  0  0  0  0  0  0  0
   -5.5510   25.2040  -30.3450 C   0  0  0  0  0  0  0  0  0  0  0  0
   -4.2310   25.7120  -30.5220 N   0  0  0  0  0  0  0  0  0  0  0  0
   -6.4060   25.9080  -29.7460 O   0  0  0  0  0  0  0  0  0  0  0  0
   -5.0460   22.8630  -31.1660 N   0  0  0  0  0  0  0  0  0  0  0  0
   -3.6120   22.8810  -31.1030 C   0  0  0  0  0  0  0  0  0  0  0  0
   -2.9410   22.2680  -31.9770 O   0  0  0  0  0  0  0  0  0  0  0  0
   -2.9790   23.5570  -30.0500 O   0  0  0  0  0  0  0  0  0  0  0  0
   -2.8280   23.0870  -28.7030 C   0  0  0  0  0  0  0  0  0  0  0  0
   -3.9330   23.7470  -27.8670 C   0  0  0  0  0  0  0  0  0  0  0  0
   -1.4570   23.5010  -28.1350 C   0  0  0  0  0  0  0  0  0  0  0  0
   -3.0030   21.5580  -28.6430 C   0  0  0  0  0  0  0  0  0  0  0  0
   -5.8120   21.8250  -31.5690 C   0  0  0  0  0  0  0  0  0  0  0  0
   -5.4010   20.5570  -31.9930 C   0  0  0  0  0  0  0  0  0  0  0  0
   -5.7490   17.2450  -31.9050 C   0  0  0  0  0  0  0  0  0  0  0  0
   -5.3820   15.9650  -32.3280 C   0  0  0  0  0  0  0  0  0  0  0  0
   -7.6216   14.0610  -33.5759 H   0  0  0  0  0  0  0  0  0  0  0  0
   -7.1070   14.8155  -35.1227 H   0  0  0  0  0  0  0  0  0  0  0  0
   -7.8329   13.1725  -35.1227 H   0  0  0  0  0  0  0  0  0  0  0  0
   -5.6200   12.8020  -35.3160 H   0  0  0  0  0  0  0  0  0  0  0  0
   -5.8485   12.7772  -32.3604 H   0  0  0  0  0  0  0  0  0  0  0  0
   -6.7500   11.6446  -33.4239 H   0  0  0  0  0  0  0  0  0  0  0  0
   -4.9537   11.6392  -33.4239 H   0  0  0  0  0  0  0  0  0  0  0  0
   -5.3907   16.4843  -35.7078 H   0  0  0  0  0  0  0  0  0  0  0  0
   -6.0440   18.7638  -34.9533 H   0  0  0  0  0  0  0  0  0  0  0  0
   -8.5270   19.2797  -32.6640 H   0  0  0  0  0  0  0  0  0  0  0  0
   -9.1955   21.5886  -31.9262 H   0  0  0  0  0  0  0  0  0  0  0  0
   -8.1380   24.0849  -31.0218 H   0  0  0  0  0  0  0  0  0  0  0  0
   -3.5330   25.6740  -29.7470 H   0  0  0  0  0  0  0  0  0  0  0  0
   -3.7120   23.6150  -26.7975 H   0  0  0  0  0  0  0  0  0  0  0  0
   -3.9789   24.8206  -28.1021 H   0  0  0  0  0  0  0  0  0  0  0  0
   -4.9000   23.2784  -28.1021 H   0  0  0  0  0  0  0  0  0  0  0  0
   -1.4967   23.4890  -27.0358 H   0  0  0  0  0  0  0  0  0  0  0  0
   -0.6881   22.7950  -28.4818 H   0  0  0  0  0  0  0  0  0  0  0  0
   -1.2073   24.5146  -28.4818 H   0  0  0  0  0  0  0  0  0  0  0  0
   -3.0401   21.2341  -27.5924 H   0  0  0  0  0  0  0  0  0  0  0  0
   -3.9393   21.2760  -29.1469 H   0  0  0  0  0  0  0  0  0  0  0  0
   -2.1546   21.0718  -29.1469 H   0  0  0  0  0  0  0  0  0  0  0  0
   -4.3340   20.2908  -32.0166 H   0  0  0  0  0  0  0  0  0  0  0  0
   -5.8469   17.4566  -30.8300 H   0  0  0  0  0  0  0  0  0  0  0  0
   -5.1867   15.1800  -31.5826 H   0  0  0  0  0  0  0  0  0  0  0  0
  1  2  1  0
  2  3  1  0
  2  4  1  0
  4  5  2  0
  4  6  1  0
  6  7  2  0
  7  8  1  0
  8  9  2  0
  9 10  1  0
 10 11  2  0
 11 12  1  0
 12 13  2  0
 13 14  1  0
 14 15  2  0
 15 16  1  0
 16 17  1  0
 16 18  2  0
 15 19  1  0
 19 20  1  0
 20 21  2  0
 20 22  1  0
 22 23  1  0
 23 24  1  0
 23 25  1  0
 23 26  1  0
 19 27  1  0
 27 28  2  0
  9 29  1  0
 29 30  2  0
 30  6  1  0
 28 10  1  0
 27 13  1  0
  1 31  1  0
  1 32  1  0
  1 33  1  0
  2 34  1  0
  3 35  1  0
  3 36  1  0
  3 37  1  0
  7 38  1  0
  8 39  1  0
 11 40  1  0
 12 41  1  0
 14 42  1  0
 17 43  1  0
 24 44  1  0
 24 45  1  0
 24 46  1  0
 25 47  1  0
 25 48  1  0
 25 49  1  0
 26 50  1  0
 26 51  1  0
 26 52  1  0
 28 53  1  0
 29 54  1  0
 30 55  1  0
M  CHG  2   2   1  17  -1
M  END
>  <UniqueID>  (6) 
6

>  <SMILES>  (6) 
C[NH+](C)C(=O)c1ccc(-c2ccc3cc(C([NH-])=O)n(C(=O)OC(C)(C)C)c3c2)cc1

>  <Energy>  (6) 
99.37818376608152

>  <Genealogy>  (6) 
C[NH+](C)C(=O)c1ccc(-c2ccc3cc(C([NH-])=O)n(C(=O)OC(C)(C)C)c3c2)cc1 (protonated)
C[NH+](C)C(=O)c1ccc(-c2ccc3cc(C([NH-])=O)n(C(=O)OC(C)(C)C)c3c2)cc1 (3D coordinates assigned)
C[NH+](C)C(=O)c1ccc(-c2ccc3cc(C([NH-])=O)n(C(=O)OC(C)(C)C)c3c2)cc1 (optimized conformer: 99.37818376608152 kcal/mol)

>  <smiles>  (6) 
CN(C)C(=O)c1ccc(-c2ccc3cc(C(N)=O)n(C(=O)OC(C)(C)C)c3c2)cc1

>  <score_type>  (6) 
oracle

>  <origin>  (6) 
adg

>  <m_score__min__energy>  (6) 
-10.98

>  <m_primary>  (6) 
energy

$$$$
7:0
     RDKit          3D

 43 44  0  0  0  0  0  0  0  0999 V2000
    1.3470   19.5980  -36.3310 C   0  0  0  0  0  0  0  0  0  0  0  0
    0.2110   20.4520  -36.2710 O   0  0  0  0  0  0  0  0  0  0  0  0
   -0.0680   21.2520  -35.1580 C   0  0  0  0  0  0  0  0  0  0  0  0
    0.5620   22.3260  -34.9620 O   0  0  0  0  0  0  0  0  0  0  0  0
   -1.0980   20.8030  -34.1670 C   0  0  0  0  0  0  0  0  0  0  0  0
   -1.1890   19.2710  -34.0840 C   0  0  0  0  0  0  0  0  0  0  0  0
   -2.5460   18.7740  -33.5730 C   0  0  0  0  0  0  0  0  0  0  0  0
   -3.4590   18.6520  -34.6580 O   0  0  0  0  0  0  0  0  0  0  0  0
   -4.7450   18.1240  -34.5120 C   0  0  0  0  0  0  0  0  0  0  0  0
   -5.3910   17.7140  -35.5150 O   0  0  0  0  0  0  0  0  0  0  0  0
   -5.3630   18.0820  -33.1520 C   0  0  0  0  0  0  0  0  0  0  0  0
   -5.7930   19.4680  -32.7570 C   0  0  0  0  0  0  0  0  0  0  0  0
   -7.1650   19.8220  -32.7920 C   0  0  0  0  0  0  0  0  0  0  0  0
   -7.5890   21.0850  -32.3500 C   0  0  0  0  0  0  0  0  0  0  0  0
   -6.6250   21.9640  -31.8670 C   0  0  0  0  0  0  0  0  0  0  0  0
   -6.7620   23.2410  -31.3730 C   0  0  0  0  0  0  0  0  0  0  0  0
   -5.4740   23.6400  -31.0160 C   0  0  0  0  0  0  0  0  0  0  0  0
   -5.1640   24.9220  -30.3440 C   0  0  0  0  0  0  0  0  0  0  0  0
   -5.8570   25.3100  -29.1560 N   0  0  0  0  0  0  0  0  0  0  0  0
   -4.2620   25.6740  -30.7990 O   0  0  0  0  0  0  0  0  0  0  0  0
   -4.5770   22.6480  -31.2840 N   0  0  0  0  0  0  0  0  0  0  0  0
   -3.1520   22.6770  -31.0940 C   0  0  0  0  0  0  0  0  0  0  0  0
   -2.6230   23.5670  -30.3760 O   0  0  0  0  0  0  0  0  0  0  0  0
   -2.3430   21.7320  -31.7110 O   0  0  0  0  0  0  0  0  0  0  0  0
   -5.2970   21.6300  -31.8040 C   0  0  0  0  0  0  0  0  0  0  0  0
   -4.8440   20.3840  -32.2520 C   0  0  0  0  0  0  0  0  0  0  0  0
    1.6748   19.3516  -35.3103 H   0  0  0  0  0  0  0  0  0  0  0  0
    1.0826   18.6731  -36.8646 H   0  0  0  0  0  0  0  0  0  0  0  0
    2.1620   20.1089  -36.8646 H   0  0  0  0  0  0  0  0  0  0  0  0
   -0.8318   21.1970  -33.1751 H   0  0  0  0  0  0  0  0  0  0  0  0
   -2.0757   21.1837  -34.4976 H   0  0  0  0  0  0  0  0  0  0  0  0
   -1.0202   18.8557  -35.0885 H   0  0  0  0  0  0  0  0  0  0  0  0
   -0.4264   18.9365  -33.3653 H   0  0  0  0  0  0  0  0  0  0  0  0
   -2.4174   17.7927  -33.0929 H   0  0  0  0  0  0  0  0  0  0  0  0
   -2.9444   19.4959  -32.8449 H   0  0  0  0  0  0  0  0  0  0  0  0
   -6.2385   17.4162  -33.1669 H   0  0  0  0  0  0  0  0  0  0  0  0
   -4.6287   17.7036  -32.4257 H   0  0  0  0  0  0  0  0  0  0  0  0
   -7.9045   19.1002  -33.1691 H   0  0  0  0  0  0  0  0  0  0  0  0
   -8.6506   21.3709  -32.3845 H   0  0  0  0  0  0  0  0  0  0  0  0
   -7.6904   23.8236  -31.2795 H   0  0  0  0  0  0  0  0  0  0  0  0
   -5.6050   26.1970  -28.6680 H   0  0  0  0  0  0  0  0  0  0  0  0
   -6.6420   24.7380  -28.7750 H   0  0  0  0  0  0  0  0  0  0  0  0
   -3.7758   20.1246  -32.2118 H   0  0  0  0  0  0  0  0  0  0  0  0
  1  2  1  0
  2  3  1  0
  3  4  2  0
  3  5  1  0
  5  6  1  0
  6  7  1  0
  7  8  1  0
  8  9  1  0
  9 10  2  0
  9 11  1  0
 11 12  1  0
 12 13  2  0
 13 14  1  0
 14 15  2  0
 15 16  1  0
 16 17  2  0
 17 18  1  0
 18 19  1  0
 18 20  2  0
 17 21  1  0
 21 22  1  0
 22 23  2  0
 22 24  1  0
 21 25  1  0
 25 26  2  0
 26 12  1  0
 25 15  1  0
  1 27  1  0
  1 28  1  0
  1 29  1  0
  5 30  1  0
  5 31  1  0
  6 32  1  0
  6 33  1  0
  7 34  1  0
  7 35  1  0
 11 36  1  0
 11 37  1  0
 13 38  1  0
 14 39  1  0
 16 40  1  0
 19 41  1  0
 19 42  1  0
 26 43  1  0
M  CHG  1  24  -1
M  END
>  <UniqueID>  (7) 
7

>  <SMILES>  (7) 
COC(=O)CCCOC(=O)Cc1ccc2cc(C(N)=O)n(C(=O)[O-])c2c1

>  <Energy>  (7) 
67.73103013432716

>  <Genealogy>  (7) 
COC(=O)CCCOC(=O)Cc1ccc2cc(C(N)=O)n(C(=O)[O-])c2c1 (protonated)
COC(=O)CCCOC(=O)Cc1ccc2cc(C(N)=O)n(C(=O)[O-])c2c1 (3D coordinates assigned)
COC(=O)CCCOC(=O)Cc1ccc2cc(C(N)=O)n(C(=O)[O-])c2c1 (optimized conformer: 67.73103013432716 kcal/mol)

>  <smiles>  (7) 
COC(=O)CCCOC(=O)Cc1ccc2cc(C(N)=O)n(C(=O)O)c2c1

>  <score_type>  (7) 
oracle

>  <origin>  (7) 
adg

>  <m_score__min__energy>  (7) 
-8.3800000000000008

>  <m_primary>  (7) 
energy

$$$$
8:0
     RDKit          3D

 36 37  0  0  0  0  0  0  0  0999 V2000
   -4.5450   17.7600  -33.8570 C   0  0  0  0  0  0  0  0  0  0  0  0
   -5.8760   18.4100  -34.0950 C   0  0  0  0  0  0  0  0  0  0  0  0
   -6.1090   18.9100  -35.1830 O   0  0  0  0  0  0  0  0  0  0  0  0
   -6.9210   18.4600  -33.0180 C   0  0  0  0  0  0  0  0  0  0  0  0
   -7.0700   19.8610  -32.5020 C   0  0  0  0  0  0  0  0  0  0  0  0
   -8.3580   20.4490  -32.4050 C   0  0  0  0  0  0  0  0  0  0  0  0
   -8.5100   21.7670  -31.9360 C   0  0  0  0  0  0  0  0  0  0  0  0
   -7.3620   22.4710  -31.5850 C   0  0  0  0  0  0  0  0  0  0  0  0
   -7.2140   23.7600  -31.1200 C   0  0  0  0  0  0  0  0  0  0  0  0
   -5.8400   23.9420  -30.9570 C   0  0  0  0  0  0  0  0  0  0  0  0
   -5.2220   25.1920  -30.4690 C   0  0  0  0  0  0  0  0  0  0  0  0
   -3.9020   25.5640  -30.8650 N   0  0  0  0  0  0  0  0  0  0  0  0
   -5.8650   25.9430  -29.6880 O   0  0  0  0  0  0  0  0  0  0  0  0
   -5.1720   22.8080  -31.3040 N   0  0  0  0  0  0  0  0  0  0  0  0
   -3.7580   22.5830  -31.2870 C   0  0  0  0  0  0  0  0  0  0  0  0
   -3.1560   22.3070  -32.3580 O   0  0  0  0  0  0  0  0  0  0  0  0
   -2.9980   22.6620  -30.0020 C   0  0  0  0  0  0  0  0  0  0  0  0
   -1.8700   23.4820  -30.1840 O   0  0  0  0  0  0  0  0  0  0  0  0
   -1.7540   24.5240  -28.8540 S   0  0  0  0  0  0  0  0  0  0  0  0
   -3.0890   24.6360  -28.1750 O   0  0  0  0  0  0  0  0  0  0  0  0
   -0.7540   23.9640  -27.8790 O   0  0  0  0  0  0  0  0  0  0  0  0
   -1.2360   26.0490  -29.3430 O   0  0  0  0  0  0  0  0  0  0  0  0
   -6.1120   21.9200  -31.6850 C   0  0  0  0  0  0  0  0  0  0  0  0
   -5.9260   20.6140  -32.1490 C   0  0  0  0  0  0  0  0  0  0  0  0
   -4.3675   17.6733  -32.7749 H   0  0  0  0  0  0  0  0  0  0  0  0
   -4.5399   16.7580  -34.3108 H   0  0  0  0  0  0  0  0  0  0  0  0
   -3.7516   18.3721  -34.3108 H   0  0  0  0  0  0  0  0  0  0  0  0
   -7.8830   18.1206  -33.4297 H   0  0  0  0  0  0  0  0  0  0  0  0
   -6.6133   17.8044  -32.1900 H   0  0  0  0  0  0  0  0  0  0  0  0
   -9.2454   19.8693  -32.6991 H   0  0  0  0  0  0  0  0  0  0  0  0
   -9.5056   22.2267  -31.8495 H   0  0  0  0  0  0  0  0  0  0  0  0
   -8.0110   24.4912  -30.9196 H   0  0  0  0  0  0  0  0  0  0  0  0
   -3.0800   25.3010  -30.2840 H   0  0  0  0  0  0  0  0  0  0  0  0
   -3.6417   23.0895  -29.2191 H   0  0  0  0  0  0  0  0  0  0  0  0
   -2.6784   21.6543  -29.6980 H   0  0  0  0  0  0  0  0  0  0  0  0
   -4.9174   20.1840  -32.2370 H   0  0  0  0  0  0  0  0  0  0  0  0
  1  2  1  0
  2  3  2  0
  2  4  1  0
  4  5  1  0
  5  6  2  0
  6  7  1  0
  7  8  2  0
  8  9  1  0
  9 10  2  0
 10 11  1  0
 11 12  1  0
 11 13  2  0
 10 14  1  0
 14 15  1  0
 15 16  2  0
 15 17  1  0
 17 18  1  0
 18 19  1  0
 19 20  2  0
 19 21  2  0
 19 22  1  0
 14 23  1  0
 23 24  2  0
 24  5  1  0
 23  8  1  0
  1 25  1  0
  1 26  1  0
  1 27  1  0
  4 28  1  0
  4 29  1  0
  6 30  1  0
  7 31  1  0
  9 32  1  0
 12 33  1  0
 17 34  1  0
 17 35  1  0
 24 36  1  0
M  CHG  2  12  -1  22  -1
M  END
>  <UniqueID>  (8) 
8

>  <SMILES>  (8) 
CC(=O)Cc1ccc2cc(C([NH-])=O)n(C(=O)COS(=O)(=O)[O-])c2c1

>  <Energy>  (8) 
72.04249408039495

>  <Genealogy>  (8) 
CC(=O)Cc1ccc2cc(C([NH-])=O)n(C(=O)COS(=O)(=O)[O-])c2c1 (protonated)
CC(=O)Cc1ccc2cc(C([NH-])=O)n(C(=O)COS(=O)(=O)[O-])c2c1 (3D coordinates assigned)
CC(=O)Cc1ccc2cc(C([NH-])=O)n(C(=O)COS(=O)(=O)[O-])c2c1 (optimized conformer: 72.04249408039495 kcal/mol)

>  <smiles>  (8) 
CC(=O)Cc1ccc2cc(C(N)=O)n(C(=O)COS(=O)(=O)O)c2c1

>  <score_type>  (8) 
oracle

>  <origin>  (8) 
adg

>  <m_score__min__energy>  (8) 
-13.52

>  <m_primary>  (8) 
energy

$$$$
9:0
     RDKit          3D

 42 44  0  0  0  0  0  0  0  0999 V2000
   -3.8790   23.5340  -28.0040 C   0  0  0  0  0  0  0  0  0  0  0  0
   -2.7300   23.9690  -28.9070 C   0  0  0  0  0  0  0  0  0  0  0  0
   -3.1670   24.1070  -30.2590 O   0  0  0  0  0  0  0  0  0  0  0  0
   -3.7770   23.0770  -30.9870 C   0  0  0  0  0  0  0  0  0  0  0  0
   -3.0800   22.1690  -31.5120 O   0  0  0  0  0  0  0  0  0  0  0  0
   -5.2070   23.0640  -31.1420 N   0  0  0  0  0  0  0  0  0  0  0  0
   -6.0930   24.0200  -30.7430 C   0  0  0  0  0  0  0  0  0  0  0  0
   -5.7510   25.3650  -30.2390 C   0  0  0  0  0  0  0  0  0  0  0  0
   -6.3520   25.8880  -29.0530 N   0  0  0  0  0  0  0  0  0  0  0  0
   -4.8550   26.0330  -30.8230 O   0  0  0  0  0  0  0  0  0  0  0  0
   -7.4020   23.6000  -30.9660 C   0  0  0  0  0  0  0  0  0  0  0  0
   -7.2930   22.3540  -31.5380 C   0  0  0  0  0  0  0  0  0  0  0  0
   -8.2850   21.4820  -31.9770 C   0  0  0  0  0  0  0  0  0  0  0  0
   -7.8860   20.2550  -32.5350 C   0  0  0  0  0  0  0  0  0  0  0  0
   -6.5130   19.9260  -32.6410 C   0  0  0  0  0  0  0  0  0  0  0  0
   -6.1080   18.6480  -33.2660 C   0  0  0  0  0  0  0  0  0  0  0  0
   -5.7190   18.6490  -34.6170 C   0  0  0  0  0  0  0  0  0  0  0  0
   -5.3390   17.4610  -35.2470 C   0  0  0  0  0  0  0  0  0  0  0  0
   -5.3410   16.2590  -34.5340 C   0  0  0  0  0  0  0  0  0  0  0  0
   -5.7150   16.2410  -33.1890 C   0  0  0  0  0  0  0  0  0  0  0  0
   -6.0860   17.4310  -32.5340 C   0  0  0  0  0  0  0  0  0  0  0  0
   -6.4560   17.3780  -31.0740 C   0  0  0  0  0  0  0  0  0  0  0  0
   -5.5340   20.8240  -32.1610 C   0  0  0  0  0  0  0  0  0  0  0  0
   -5.9580   22.0520  -31.6330 C   0  0  0  0  0  0  0  0  0  0  0  0
   -3.5809   23.6469  -26.9512 H   0  0  0  0  0  0  0  0  0  0  0  0
   -4.7605   24.1606  -28.2047 H   0  0  0  0  0  0  0  0  0  0  0  0
   -4.1245   22.4807  -28.2047 H   0  0  0  0  0  0  0  0  0  0  0  0
   -2.3410   24.9355  -28.5541 H   0  0  0  0  0  0  0  0  0  0  0  0
   -1.9438   23.2006  -28.8691 H   0  0  0  0  0  0  0  0  0  0  0  0
   -6.9680   25.2910  -28.4510 H   0  0  0  0  0  0  0  0  0  0  0  0
   -6.0550   26.8130  -28.6810 H   0  0  0  0  0  0  0  0  0  0  0  0
   -8.3268   24.1485  -30.7339 H   0  0  0  0  0  0  0  0  0  0  0  0
   -9.3495   21.7451  -31.8899 H   0  0  0  0  0  0  0  0  0  0  0  0
   -8.6464   19.5449  -32.8921 H   0  0  0  0  0  0  0  0  0  0  0  0
   -5.7137   19.5924  -35.1826 H   0  0  0  0  0  0  0  0  0  0  0  0
   -5.0381   17.4719  -36.3050 H   0  0  0  0  0  0  0  0  0  0  0  0
   -5.0470   15.3243  -35.0340 H   0  0  0  0  0  0  0  0  0  0  0  0
   -5.7199   15.2897  -32.6366 H   0  0  0  0  0  0  0  0  0  0  0  0
   -5.5515   17.5076  -30.4616 H   0  0  0  0  0  0  0  0  0  0  0  0
   -7.1706   18.1829  -30.8474 H   0  0  0  0  0  0  0  0  0  0  0  0
   -6.9159   16.4048  -30.8474 H   0  0  0  0  0  0  0  0  0  0  0  0
   -4.4653   20.5664  -32.2004 H   0  0  0  0  0  0  0  0  0  0  0  0
  1  2  1  0
  2  3  1  0
  3  4  1  0
  4  5  2  0
  4  6  1  0
  6  7  1  0
  7  8  1  0
  8  9  1  0
  8 10  2  0
  7 11  2  0
 11 12  1  0
 12 13  2  0
 13 14  1  0
 14 15  2  0
 15 16  1  0
 16 17  2  0
 17 18  1  0
 18 19  2  0
 19 20  1  0
 20 21  2  0
 21 22  1  0
 15 23  1  0
 23 24  2  0
 24  6  1  0
 24 12  1  0
 21 16  1  0
  1 25  1  0
  1 26  1  0
  1 27  1  0
  2 28  1  0
  2 29  1  0
  9 30  1  0
  9 31  1  0
 11 32  1  0
 13 33  1  0
 14 34  1  0
 17 35  1  0
 18 36  1  0
 19 37  1  0
 20 38  1  0
 22 39  1  0
 22 40  1  0
 22 41  1  0
 23 42  1  0
M  END
>  <UniqueID>  (9) 
9

>  <SMILES>  (9) 
CCOC(=O)n1c(C(N)=O)cc2ccc(-c3ccccc3C)cc21

>  <Energy>  (9) 
87.06633767402707

>  <Genealogy>  (9) 
CCOC(=O)n1c(C(N)=O)cc2ccc(-c3ccccc3C)cc21 (3D coordinates assigned)
CCOC(=O)n1c(C(N)=O)cc2ccc(-c3ccccc3C)cc21 (optimized conformer: 87.06633767402707 kcal/mol)

>  <smiles>  (9) 
CCOC(=O)n1c(C(N)=O)cc2ccc(-c3ccccc3C)cc21

>  <score_type>  (9) 
oracle

>  <origin>  (9) 
adg

>  <m_score__min__energy>  (9) 
-9.5299999999999994

>  <m_primary>  (9) 
energy

$$$$
10:0
     RDKit          3D

 44 46  0  0  0  0  0  0  0  0999 V2000
    0.2910   21.1430  -33.1670 C   0  0  0  0  0  0  0  0  0  0  0  0
   -0.5570   20.3960  -34.0070 O   0  0  0  0  0  0  0  0  0  0  0  0
   -1.6190   19.8090  -33.2650 C   0  0  0  0  0  0  0  0  0  0  0  0
   -1.4260   20.1060  -31.7470 C   0  0  0  0  0  0  0  0  0  0  0  0
   -2.7520   20.4190  -31.0520 C   0  0  0  0  0  0  0  0  0  0  0  0
   -3.3980   21.5610  -31.7180 N   0  0  0  0  0  0  0  0  0  0  0  0
   -4.0550   22.5770  -30.9480 C   0  0  0  0  0  0  0  0  0  0  0  0
   -3.4050   23.2430  -30.0960 O   0  0  0  0  0  0  0  0  0  0  0  0
   -5.4640   22.7960  -31.1040 N   0  0  0  0  0  0  0  0  0  0  0  0
   -6.1640   23.9460  -30.8950 C   0  0  0  0  0  0  0  0  0  0  0  0
   -5.5700   25.2310  -30.4400 C   0  0  0  0  0  0  0  0  0  0  0  0
   -4.2280   25.5880  -30.7810 N   0  0  0  0  0  0  0  0  0  0  0  0
   -6.2530   26.0340  -29.7470 O   0  0  0  0  0  0  0  0  0  0  0  0
   -7.5180   23.7450  -31.2010 C   0  0  0  0  0  0  0  0  0  0  0  0
   -7.6210   22.4260  -31.5870 C   0  0  0  0  0  0  0  0  0  0  0  0
   -8.7330   21.6830  -31.9730 C   0  0  0  0  0  0  0  0  0  0  0  0
   -8.5430   20.3250  -32.2800 C   0  0  0  0  0  0  0  0  0  0  0  0
   -7.2570   19.7370  -32.1990 C   0  0  0  0  0  0  0  0  0  0  0  0
   -7.0750   18.2810  -32.5380 C   0  0  0  0  0  0  0  0  0  0  0  0
   -6.2250   18.1510  -33.6240 F   0  0  0  0  0  0  0  0  0  0  0  0
   -6.5390   17.6140  -31.4500 F   0  0  0  0  0  0  0  0  0  0  0  0
   -6.1470   20.5270  -31.8080 C   0  0  0  0  0  0  0  0  0  0  0  0
   -6.3670   21.8770  -31.5140 C   0  0  0  0  0  0  0  0  0  0  0  0
   -3.3810   21.6740  -33.1830 C   0  0  0  0  0  0  0  0  0  0  0  0
   -2.9590   20.3460  -33.8290 C   0  0  0  0  0  0  0  0  0  0  0  0
    0.0476   20.9286  -32.1159 H   0  0  0  0  0  0  0  0  0  0  0  0
    1.3376   20.8680  -33.3644 H   0  0  0  0  0  0  0  0  0  0  0  0
    0.1503   22.2159  -33.3644 H   0  0  0  0  0  0  0  0  0  0  0  0
   -1.6258   18.7137  -33.3668 H   0  0  0  0  0  0  0  0  0  0  0  0
   -0.9727   19.2258  -31.2676 H   0  0  0  0  0  0  0  0  0  0  0  0
   -0.7762   20.9886  -31.6531 H   0  0  0  0  0  0  0  0  0  0  0  0
   -3.4117   19.5406  -31.1085 H   0  0  0  0  0  0  0  0  0  0  0  0
   -2.5630   20.6688  -29.9976 H   0  0  0  0  0  0  0  0  0  0  0  0
   -3.8740   26.5460  -30.5400 H   0  0  0  0  0  0  0  0  0  0  0  0
   -3.5910   24.9310  -31.2790 H   0  0  0  0  0  0  0  0  0  0  0  0
   -8.3290   24.4860  -31.1446 H   0  0  0  0  0  0  0  0  0  0  0  0
   -9.7295   22.1446  -32.0358 H   0  0  0  0  0  0  0  0  0  0  0  0
   -9.4029   19.7115  -32.5868 H   0  0  0  0  0  0  0  0  0  0  0  0
   -8.0534   17.8462  -32.7905 H   0  0  0  0  0  0  0  0  0  0  0  0
   -5.1398   20.0904  -31.7376 H   0  0  0  0  0  0  0  0  0  0  0  0
   -4.3879   21.9423  -33.5355 H   0  0  0  0  0  0  0  0  0  0  0  0
   -2.6554   22.4502  -33.4678 H   0  0  0  0  0  0  0  0  0  0  0  0
   -3.7443   19.5985  -33.6433 H   0  0  0  0  0  0  0  0  0  0  0  0
   -2.8189   20.5281  -34.9047 H   0  0  0  0  0  0  0  0  0  0  0  0
  1  2  1  0
  2  3  1  0
  3  4  1  0
  4  5  1  0
  5  6  1  0
  6  7  1  0
  7  8  2  0
  7  9  1  0
  9 10  1  0
 10 11  1  0
 11 12  1  0
 11 13  2  0
 10 14  2  0
 14 15  1  0
 15 16  2  0
 16 17  1  0
 17 18  2  0
 18 19  1  0
 19 20  1  0
 19 21  1  0
 18 22  1  0
 22 23  2  0
  6 24  1  0
 24 25  1  0
 25  3  1  0
 23  9  1  0
 23 15  1  0
  1 26  1  0
  1 27  1  0
  1 28  1  0
  3 29  1  0
  4 30  1  0
  4 31  1  0
  5 32  1  0
  5 33  1  0
 12 34  1  0
 12 35  1  0
 14 36  1  0
 16 37  1  0
 17 38  1  0
 19 39  1  0
 22 40  1  0
 24 41  1  0
 24 42  1  0
 25 43  1  0
 25 44  1  0
M  END
>  <UniqueID>  (10) 
10

>  <SMILES>  (10) 
COC1CCN(C(=O)n2c(C(N)=O)cc3ccc(C(F)F)cc32)CC1

>  <Energy>  (10) 
93.24161420423968

>  <Genealogy>  (10) 
COC1CCN(C(=O)n2c(C(N)=O)cc3ccc(C(F)F)cc32)CC1 (3D coordinates assigned)
COC1CCN(C(=O)n2c(C(N)=O)cc3ccc(C(F)F)cc32)CC1 (nonaromatic ring conformer: 93.24161420423968 kcal/mol)

>  <smiles>  (10) 
COC1CCN(C(=O)n2c(C(N)=O)cc3ccc(C(F)F)cc32)CC1

>  <score_type>  (10) 
oracle

>  <origin>  (10) 
adg

>  <m_score__min__energy>  (10) 
-8.8000000000000007

>  <m_primary>  (10) 
energy

$$$$
11:0
     RDKit          3D

 43 45  0  0  0  0  0  0  0  0999 V2000
   -5.3460   14.0760  -33.6050 C   0  0  0  0  0  0  0  0  0  0  0  0
   -5.6750   15.5040  -33.3090 C   0  0  0  0  0  0  0  0  0  0  0  0
   -6.5250   16.2250  -34.1550 C   0  0  0  0  0  0  0  0  0  0  0  0
   -6.8220   17.5560  -33.8580 C   0  0  0  0  0  0  0  0  0  0  0  0
   -6.2700   18.1680  -32.7200 C   0  0  0  0  0  0  0  0  0  0  0  0
   -6.5770   19.5830  -32.3910 C   0  0  0  0  0  0  0  0  0  0  0  0
   -7.8860   20.0980  -32.5900 C   0  0  0  0  0  0  0  0  0  0  0  0
   -8.1840   21.4390  -32.2920 C   0  0  0  0  0  0  0  0  0  0  0  0
   -7.1620   22.2410  -31.7970 C   0  0  0  0  0  0  0  0  0  0  0  0
   -7.1680   23.5710  -31.4440 C   0  0  0  0  0  0  0  0  0  0  0  0
   -5.8700   23.8470  -31.0200 C   0  0  0  0  0  0  0  0  0  0  0  0
   -5.4560   25.1460  -30.4480 C   0  0  0  0  0  0  0  0  0  0  0  0
   -4.1540   25.6710  -30.6910 N   0  0  0  0  0  0  0  0  0  0  0  0
   -6.2480   25.7800  -29.7000 O   0  0  0  0  0  0  0  0  0  0  0  0
   -5.0880   22.7360  -31.1230 N   0  0  0  0  0  0  0  0  0  0  0  0
   -3.6800   22.6130  -30.8690 C   0  0  0  0  0  0  0  0  0  0  0  0
   -2.8540   23.0510  -31.7150 O   0  0  0  0  0  0  0  0  0  0  0  0
   -3.1770   22.0450  -29.5720 C   0  0  0  0  0  0  0  0  0  0  0  0
   -3.6550   22.8690  -28.3670 C   0  0  0  0  0  0  0  0  0  0  0  0
   -2.9000   24.1920  -28.2310 C   0  0  0  0  0  0  0  0  0  0  0  0
   -1.9930   24.3210  -29.2900 O   0  0  0  0  0  0  0  0  0  0  0  0
   -5.8970   21.7590  -31.5890 C   0  0  0  0  0  0  0  0  0  0  0  0
   -5.5670   20.4320  -31.8820 C   0  0  0  0  0  0  0  0  0  0  0  0
   -5.4210   17.4040  -31.9000 C   0  0  0  0  0  0  0  0  0  0  0  0
   -5.1500   16.1080  -32.2090 N   0  0  0  0  0  0  0  0  0  0  0  0
   -5.2192   13.5257  -32.6610 H   0  0  0  0  0  0  0  0  0  0  0  0
   -6.1636   13.6242  -34.1859 H   0  0  0  0  0  0  0  0  0  0  0  0
   -4.4131   14.0275  -34.1859 H   0  0  0  0  0  0  0  0  0  0  0  0
   -6.9557   15.7466  -35.0470 H   0  0  0  0  0  0  0  0  0  0  0  0
   -7.4910   18.1283  -34.5175 H   0  0  0  0  0  0  0  0  0  0  0  0
   -8.6754   19.4398  -32.9818 H   0  0  0  0  0  0  0  0  0  0  0  0
   -9.1959   21.8419  -32.4459 H   0  0  0  0  0  0  0  0  0  0  0  0
   -8.0176   24.2684  -31.4874 H   0  0  0  0  0  0  0  0  0  0  0  0
   -3.3390   25.0350  -30.8460 H   0  0  0  0  0  0  0  0  0  0  0  0
   -3.5459   21.0140  -29.4676 H   0  0  0  0  0  0  0  0  0  0  0  0
   -2.0774   22.0706  -29.5902 H   0  0  0  0  0  0  0  0  0  0  0  0
   -4.7268   23.0845  -28.4888 H   0  0  0  0  0  0  0  0  0  0  0  0
   -3.4641   22.2783  -27.4589 H   0  0  0  0  0  0  0  0  0  0  0  0
   -3.6154   25.0271  -28.2568 H   0  0  0  0  0  0  0  0  0  0  0  0
   -2.3543   24.2071  -27.2760 H   0  0  0  0  0  0  0  0  0  0  0  0
   -2.5410   24.4500  -30.1080 H   0  0  0  0  0  0  0  0  0  0  0  0
   -4.5455   20.0573  -31.7203 H   0  0  0  0  0  0  0  0  0  0  0  0
   -4.9735   17.8574  -31.0033 H   0  0  0  0  0  0  0  0  0  0  0  0
  1  2  1  0
  2  3  2  0
  3  4  1  0
  4  5  2  0
  5  6  1  0
  6  7  2  0
  7  8  1  0
  8  9  2  0
  9 10  1  0
 10 11  2  0
 11 12  1  0
 12 13  1  0
 12 14  2  0
 11 15  1  0
 15 16  1  0
 16 17  2  0
 16 18  1  0
 18 19  1  0
 19 20  1  0
 20 21  1  0
 15 22  1  0
 22 23  2  0
  5 24  1  0
 24 25  2  0
 25  2  1  0
 23  6  1  0
 22  9  1  0
  1 26  1  0
  1 27  1  0
  1 28  1  0
  3 29  1  0
  4 30  1  0
  7 31  1  0
  8 32  1  0
 10 33  1  0
 13 34  1  0
 18 35  1  0
 18 36  1  0
 19 37  1  0
 19 38  1  0
 20 39  1  0
 20 40  1  0
 21 41  1  0
 23 42  1  0
 24 43  1  0
M  CHG  1  13  -1
M  END
>  <UniqueID>  (11) 
11

>  <SMILES>  (11) 
Cc1ccc(-c2ccc3cc(C([NH-])=O)n(C(=O)CCCO)c3c2)cn1

>  <Energy>  (11) 
83.89017651879591

>  <Genealogy>  (11) 
Cc1ccc(-c2ccc3cc(C([NH-])=O)n(C(=O)CCCO)c3c2)cn1 (protonated)
Cc1ccc(-c2ccc3cc(C([NH-])=O)n(C(=O)CCCO)c3c2)cn1 (3D coordinates assigned)
Cc1ccc(-c2ccc3cc(C([NH-])=O)n(C(=O)CCCO)c3c2)cn1 (optimized conformer: 83.89017651879591 kcal/mol)

>  <smiles>  (11) 
Cc1ccc(-c2ccc3cc(C(N)=O)n(C(=O)CCCO)c3c2)cn1

>  <score_type>  (11) 
oracle

>  <origin>  (11) 
adg

>  <m_score__min__energy>  (11) 
-11.33

>  <m_primary>  (11) 
energy

$$$$
12:0
     RDKit          3D

 38 40  0  0  0  0  0  0  0  0999 V2000
   -4.1120   25.6640  -30.8460 N   0  0  0  0  0  0  0  0  0  0  0  0
   -5.1960   24.9630  -30.2400 C   0  0  0  0  0  0  0  0  0  0  0  0
   -5.7500   25.4480  -29.2190 O   0  0  0  0  0  0  0  0  0  0  0  0
   -5.6430   23.6710  -30.8050 C   0  0  0  0  0  0  0  0  0  0  0  0
   -6.9310   23.4430  -31.2840 C   0  0  0  0  0  0  0  0  0  0  0  0
   -6.9190   22.1510  -31.7610 C   0  0  0  0  0  0  0  0  0  0  0  0
   -7.9370   21.4010  -32.3400 C   0  0  0  0  0  0  0  0  0  0  0  0
   -7.6480   20.0800  -32.7200 C   0  0  0  0  0  0  0  0  0  0  0  0
   -6.3570   19.5280  -32.5070 C   0  0  0  0  0  0  0  0  0  0  0  0
   -6.0630   18.1280  -32.9080 C   0  0  0  0  0  0  0  0  0  0  0  0
   -6.1150   17.7290  -34.2520 C   0  0  0  0  0  0  0  0  0  0  0  0
   -5.8430   16.4440  -34.5950 N   0  0  0  0  0  0  0  0  0  0  0  0
   -5.5150   15.5210  -33.6520 C   0  0  0  0  0  0  0  0  0  0  0  0
   -5.2330   14.1780  -34.0350 N   0  0  0  0  0  0  0  0  0  0  0  0
   -5.4570   15.8820  -32.3440 N   0  0  0  0  0  0  0  0  0  0  0  0
   -5.7240   17.1560  -31.9550 C   0  0  0  0  0  0  0  0  0  0  0  0
   -5.3520   20.3240  -31.9100 C   0  0  0  0  0  0  0  0  0  0  0  0
   -5.6620   21.6430  -31.5620 C   0  0  0  0  0  0  0  0  0  0  0  0
   -4.8650   22.5650  -30.9810 N   0  0  0  0  0  0  0  0  0  0  0  0
   -3.4870   22.4010  -30.6070 C   0  0  0  0  0  0  0  0  0  0  0  0
   -2.6570   21.9880  -31.4600 O   0  0  0  0  0  0  0  0  0  0  0  0
   -3.0020   22.7400  -29.2240 C   0  0  0  0  0  0  0  0  0  0  0  0
   -2.7980   24.1790  -29.0670 N   0  0  0  0  0  0  0  0  0  0  0  0
   -1.5030   24.7870  -29.1310 C   0  0  0  0  0  0  0  0  0  0  0  0
   -0.4770   24.0910  -29.3540 O   0  0  0  0  0  0  0  0  0  0  0  0
   -1.3750   26.1570  -28.9480 O   0  0  0  0  0  0  0  0  0  0  0  0
   -3.1340   25.3050  -30.7760 H   0  0  0  0  0  0  0  0  0  0  0  0
   -7.7776   24.1454  -31.2818 H   0  0  0  0  0  0  0  0  0  0  0  0
   -8.9382   21.8293  -32.4957 H   0  0  0  0  0  0  0  0  0  0  0  0
   -8.4311   19.4656  -33.1882 H   0  0  0  0  0  0  0  0  0  0  0  0
   -6.3772   18.4602  -35.0308 H   0  0  0  0  0  0  0  0  0  0  0  0
   -5.9650   13.5980  -34.5030 H   0  0  0  0  0  0  0  0  0  0  0  0
   -4.2940   13.7620  -33.8540 H   0  0  0  0  0  0  0  0  0  0  0  0
   -5.6742   17.4261  -30.8898 H   0  0  0  0  0  0  0  0  0  0  0  0
   -4.3482   19.9148  -31.7233 H   0  0  0  0  0  0  0  0  0  0  0  0
   -3.7488   22.4025  -28.4903 H   0  0  0  0  0  0  0  0  0  0  0  0
   -2.0386   22.2345  -29.0619 H   0  0  0  0  0  0  0  0  0  0  0  0
   -3.6320   24.7920  -28.9210 H   0  0  0  0  0  0  0  0  0  0  0  0
  1  2  1  0
  2  3  2  0
  2  4  1  0
  4  5  2  0
  5  6  1  0
  6  7  2  0
  7  8  1  0
  8  9  2  0
  9 10  1  0
 10 11  2  0
 11 12  1  0
 12 13  2  0
 13 14  1  0
 13 15  1  0
 15 16  2  0
  9 17  1  0
 17 18  2  0
 18 19  1  0
 19 20  1  0
 20 21  2  0
 20 22  1  0
 22 23  1  0
 23 24  1  0
 24 25  2  0
 24 26  1  0
 19  4  1  0
 18  6  1  0
 16 10  1  0
  1 27  1  0
  5 28  1  0
  7 29  1  0
  8 30  1  0
 11 31  1  0
 14 32  1  0
 14 33  1  0
 16 34  1  0
 17 35  1  0
 22 36  1  0
 22 37  1  0
 23 38  1  0
M  CHG  2   1  -1  26  -1
M  END
>  <UniqueID>  (12) 
12

>  <SMILES>  (12) 
[NH-]C(=O)c1cc2ccc(-c3cnc(N)nc3)cc2n1C(=O)CNC(=O)[O-]

>  <Energy>  (12) 
81.18613978844164

>  <Genealogy>  (12) 
[NH-]C(=O)c1cc2ccc(-c3cnc(N)nc3)cc2n1C(=O)CNC(=O)[O-] (protonated)
[NH-]C(=O)c1cc2ccc(-c3cnc(N)nc3)cc2n1C(=O)CNC(=O)[O-] (3D coordinates assigned)
[NH-]C(=O)c1cc2ccc(-c3cnc(N)nc3)cc2n1C(=O)CNC(=O)[O-] (optimized conformer: 81.18613978844164 kcal/mol)

>  <smiles>  (12) 
NC(=O)c1cc2ccc(-c3cnc(N)nc3)cc2n1C(=O)CNC(=O)O

>  <score_type>  (12) 
oracle

>  <origin>  (12) 
adg

>  <m_score__min__energy>  (12) 
-12.210000000000001

>  <m_primary>  (12) 
energy

$$$$
13:0
     RDKit          3D

 66 68  0  0  0  0  0  0  0  0999 V2000
   -6.4110   15.3730  -34.2000 C   0  0  0  0  0  0  0  0  0  0  0  0
   -4.9250   15.7410  -34.1900 C   0  0  0  0  0  0  0  0  0  0  0  0
   -4.6750   17.2040  -33.7450 C   0  0  1  0  0  0  0  0  0  0  0  0
   -3.5260   17.8510  -34.5590 C   0  0  0  0  0  0  0  0  0  0  0  0
   -2.9440   19.0470  -33.8610 C   0  0  0  0  0  0  0  0  0  0  0  0
   -3.6450   20.0070  -33.5840 O   0  0  0  0  0  0  0  0  0  0  0  0
   -5.9550   18.0910  -33.7270 C   0  0  0  0  0  0  0  0  0  0  0  0
   -6.8020   18.1070  -32.4360 C   0  0  0  0  0  0  0  0  0  0  0  0
   -8.1250   18.8700  -32.5670 C   0  0  0  0  0  0  0  0  0  0  0  0
   -7.9700   20.2940  -32.1030 C   0  0  0  0  0  0  0  0  0  0  0  0
   -9.1100   21.0440  -31.7120 C   0  0  0  0  0  0  0  0  0  0  0  0
   -8.9750   22.3710  -31.2640 C   0  0  0  0  0  0  0  0  0  0  0  0
   -7.6940   22.9140  -31.2130 C   0  0  0  0  0  0  0  0  0  0  0  0
   -7.2720   24.1680  -30.8250 C   0  0  0  0  0  0  0  0  0  0  0  0
   -5.8860   24.1540  -30.9780 C   0  0  0  0  0  0  0  0  0  0  0  0
   -5.0140   25.3140  -30.7100 C   0  0  0  0  0  0  0  0  0  0  0  0
   -3.6000   25.2120  -30.8440 N   0  0  0  0  0  0  0  0  0  0  0  0
   -5.5240   26.4180  -30.3800 O   0  0  0  0  0  0  0  0  0  0  0  0
   -5.4720   22.9380  -31.4320 N   0  0  0  0  0  0  0  0  0  0  0  0
   -4.1300   22.4830  -31.6530 C   0  0  0  0  0  0  0  0  0  0  0  0
   -3.6100   22.6590  -32.7880 O   0  0  0  0  0  0  0  0  0  0  0  0
   -3.4100   21.6500  -30.6090 C   0  0  2  0  0  0  0  0  0  0  0  0
   -3.8510   20.2540  -30.6750 N   0  0  0  0  0  0  0  0  0  0  0  0
   -3.6450   22.1990  -29.1830 C   0  0  0  0  0  0  0  0  0  0  0  0
   -2.9280   23.4770  -28.9700 N   0  0  0  0  0  0  0  0  0  0  0  0
   -2.9440   23.8640  -27.5480 C   0  0  0  0  0  0  0  0  0  0  0  0
   -2.3560   25.2800  -27.3680 C   0  0  0  0  0  0  0  0  0  0  0  0
   -1.5580   25.7170  -28.5260 N   0  0  0  0  0  0  0  0  0  0  0  0
   -0.7020   24.6300  -29.0140 C   0  0  0  0  0  0  0  0  0  0  0  0
   -1.5330   23.4070  -29.4640 C   0  0  0  0  0  0  0  0  0  0  0  0
   -6.5870   22.1950  -31.5750 C   0  0  0  0  0  0  0  0  0  0  0  0
   -6.6860   20.8730  -32.0160 C   0  0  0  0  0  0  0  0  0  0  0  0
   -6.7735   15.2832  -33.1653 H   0  0  0  0  0  0  0  0  0  0  0  0
   -6.9795   16.1575  -34.7209 H   0  0  0  0  0  0  0  0  0  0  0  0
   -6.5477   14.4139  -34.7209 H   0  0  0  0  0  0  0  0  0  0  0  0
   -4.4002   15.0675  -33.4965 H   0  0  0  0  0  0  0  0  0  0  0  0
   -4.5499   15.6376  -35.2189 H   0  0  0  0  0  0  0  0  0  0  0  0
   -4.3575   17.1477  -32.6933 H   0  0  0  0  0  0  0  0  0  0  0  0
   -2.7315   17.1046  -34.7063 H   0  0  0  0  0  0  0  0  0  0  0  0
   -3.9398   18.1879  -35.5209 H   0  0  0  0  0  0  0  0  0  0  0  0
   -1.8762   19.0577  -33.5971 H   0  0  0  0  0  0  0  0  0  0  0  0
   -5.6397   19.1260  -33.9253 H   0  0  0  0  0  0  0  0  0  0  0  0
   -6.6138   17.6419  -34.4849 H   0  0  0  0  0  0  0  0  0  0  0  0
   -7.0286   17.0671  -32.1582 H   0  0  0  0  0  0  0  0  0  0  0  0
   -6.2077   18.6299  -31.6722 H   0  0  0  0  0  0  0  0  0  0  0  0
   -8.4403   18.8665  -33.6208 H   0  0  0  0  0  0  0  0  0  0  0  0
   -8.8807   18.3752  -31.9392 H   0  0  0  0  0  0  0  0  0  0  0  0
  -10.1079   20.5837  -31.7597 H   0  0  0  0  0  0  0  0  0  0  0  0
   -9.8537   22.9607  -30.9636 H   0  0  0  0  0  0  0  0  0  0  0  0
   -7.8957   25.0018  -30.4703 H   0  0  0  0  0  0  0  0  0  0  0  0
   -2.9710   25.3040  -30.0150 H   0  0  0  0  0  0  0  0  0  0  0  0
   -2.3336   21.7063  -30.8287 H   0  0  0  0  0  0  0  0  0  0  0  0
   -4.8820   20.2220  -30.5020 H   0  0  0  0  0  0  0  0  0  0  0  0
   -3.7250   19.9090  -31.6560 H   0  0  0  0  0  0  0  0  0  0  0  0
   -4.7225   22.3647  -29.0366 H   0  0  0  0  0  0  0  0  0  0  0  0
   -3.2611   21.4628  -28.4615 H   0  0  0  0  0  0  0  0  0  0  0  0
   -3.9810   23.8530  -27.1812 H   0  0  0  0  0  0  0  0  0  0  0  0
   -2.3331   23.1492  -26.9772 H   0  0  0  0  0  0  0  0  0  0  0  0
   -3.1845   25.9891  -27.2242 H   0  0  0  0  0  0  0  0  0  0  0  0
   -1.6868   25.2527  -26.4954 H   0  0  0  0  0  0  0  0  0  0  0  0
   -2.2060   26.0060  -29.2970 H   0  0  0  0  0  0  0  0  0  0  0  0
   -0.1139   24.9955  -29.8687 H   0  0  0  0  0  0  0  0  0  0  0  0
   -0.0451   24.3142  -28.1901 H   0  0  0  0  0  0  0  0  0  0  0  0
   -1.5461   23.3706  -30.5633 H   0  0  0  0  0  0  0  0  0  0  0  0
   -1.0667   22.5037  -29.0437 H   0  0  0  0  0  0  0  0  0  0  0  0
   -5.7878   20.2992  -32.2879 H   0  0  0  0  0  0  0  0  0  0  0  0
  1  2  1  0
  2  3  1  0
  3  4  1  0
  4  5  1  0
  5  6  2  0
  3  7  1  0
  7  8  1  0
  8  9  1  0
  9 10  1  0
 10 11  2  0
 11 12  1  0
 12 13  2  0
 13 14  1  0
 14 15  2  0
 15 16  1  0
 16 17  1  0
 16 18  2  0
 15 19  1  0
 19 20  1  0
 20 21  2  0
 20 22  1  0
 22 23  1  0
 22 24  1  0
 24 25  1  0
 25 26  1  0
 26 27  1  0
 27 28  1  0
 28 29  1  0
 29 30  1  0
 19 31  1  0
 31 32  2  0
 32 10  1  0
 31 13  1  0
 30 25  1  0
  1 33  1  0
  1 34  1  0
  1 35  1  0
  2 36  1  0
  2 37  1  0
  3 38  1  1
  4 39  1  0
  4 40  1  0
  5 41  1  0
  7 42  1  0
  7 43  1  0
  8 44  1  0
  8 45  1  0
  9 46  1  0
  9 47  1  0
 11 48  1  0
 12 49  1  0
 14 50  1  0
 17 51  1  0
 22 52  1  6
 23 53  1  0
 23 54  1  0
 24 55  1  0
 24 56  1  0
 26 57  1  0
 26 58  1  0
 27 59  1  0
 27 60  1  0
 28 61  1  0
 29 62  1  0
 29 63  1  0
 30 64  1  0
 30 65  1  0
 32 66  1  0
M  CHG  1  17  -1
M  END
>  <UniqueID>  (13) 
13

>  <SMILES>  (13) 
CC[C@@H](CC=O)CCCc1ccc2cc(C([NH-])=O)n(C(=O)[C@H](N)CN3CCNCC3)c2c1

>  <Energy>  (13) 
108.45178950602117

>  <Genealogy>  (13) 
CCC(CC=O)CCCc1ccc2cc(C([NH-])=O)n(C(=O)[C@H](N)CN3CCNCC3)c2c1 (protonated)
CC[C@@H](CC=O)CCCc1ccc2cc(C([NH-])=O)n(C(=O)[C@H](N)CN3CCNCC3)c2c1 (chirality)
CC[C@@H](CC=O)CCCc1ccc2cc(C([NH-])=O)n(C(=O)[C@H](N)CN3CCNCC3)c2c1 (3D coordinates assigned)
CC[C@@H](CC=O)CCCc1ccc2cc(C([NH-])=O)n(C(=O)[C@H](N)CN3CCNCC3)c2c1 (nonaromatic ring conformer: 108.45178950602117 kcal/mol)

>  <smiles>  (13) 
CCC(CC=O)CCCc1ccc2cc(C(N)=O)n(C(=O)[C@H](N)CN3CCNCC3)c2c1

>  <score_type>  (13) 
oracle

>  <origin>  (13) 
adg

>  <m_score__min__energy>  (13) 
-11.49

>  <m_primary>  (13) 
energy

$$$$
14:0
     RDKit          3D

 38 39  0  0  0  0  0  0  0  0999 V2000
   -1.8890   24.1280  -27.0890 C   0  0  0  0  0  0  0  0  0  0  0  0
   -1.1220   24.5910  -28.6250 S   0  0  0  0  0  0  0  0  0  0  0  0
    0.3700   24.4710  -28.4890 O   0  0  0  0  0  0  0  0  0  0  0  0
   -1.4850   26.0140  -28.9460 O   0  0  0  0  0  0  0  0  0  0  0  0
   -1.6900   23.5350  -29.8790 N   0  0  0  0  0  0  0  0  0  0  0  0
   -1.9140   22.1970  -29.3360 C   0  0  0  0  0  0  0  0  0  0  0  0
   -3.2740   21.6710  -29.7920 C   0  0  0  0  0  0  0  0  0  0  0  0
   -3.7500   22.3750  -31.0300 C   0  0  0  0  0  0  0  0  0  0  0  0
   -2.9260   22.6690  -31.9360 O   0  0  0  0  0  0  0  0  0  0  0  0
   -5.1440   22.6430  -31.2190 N   0  0  0  0  0  0  0  0  0  0  0  0
   -5.8400   23.7640  -30.8780 C   0  0  0  0  0  0  0  0  0  0  0  0
   -5.2710   25.0010  -30.3040 C   0  0  0  0  0  0  0  0  0  0  0  0
   -3.8620   25.2160  -30.2350 N   0  0  0  0  0  0  0  0  0  0  0  0
   -6.0500   25.9040  -29.8960 O   0  0  0  0  0  0  0  0  0  0  0  0
   -7.2070   23.5620  -31.0620 C   0  0  0  0  0  0  0  0  0  0  0  0
   -7.3260   22.2740  -31.5350 C   0  0  0  0  0  0  0  0  0  0  0  0
   -8.4580   21.5430  -31.8800 C   0  0  0  0  0  0  0  0  0  0  0  0
   -8.2800   20.2180  -32.3150 C   0  0  0  0  0  0  0  0  0  0  0  0
   -6.9840   19.6410  -32.3730 C   0  0  0  0  0  0  0  0  0  0  0  0
   -6.8030   18.2340  -32.8830 C   0  0  0  0  0  0  0  0  0  0  0  0
   -5.7750   17.6260  -32.1850 F   0  0  0  0  0  0  0  0  0  0  0  0
   -6.4910   18.2390  -34.2320 F   0  0  0  0  0  0  0  0  0  0  0  0
   -7.9620   17.4980  -32.7090 F   0  0  0  0  0  0  0  0  0  0  0  0
   -5.8570   20.4240  -32.0320 C   0  0  0  0  0  0  0  0  0  0  0  0
   -6.0670   21.7410  -31.6110 C   0  0  0  0  0  0  0  0  0  0  0  0
   -1.2802   24.4955  -26.2498 H   0  0  0  0  0  0  0  0  0  0  0  0
   -2.8948   24.5700  -27.0335 H   0  0  0  0  0  0  0  0  0  0  0  0
   -1.9665   23.0321  -27.0335 H   0  0  0  0  0  0  0  0  0  0  0  0
   -1.1231   21.5213  -29.6936 H   0  0  0  0  0  0  0  0  0  0  0  0
   -1.8942   22.2444  -28.2372 H   0  0  0  0  0  0  0  0  0  0  0  0
   -3.1883   20.5949  -30.0034 H   0  0  0  0  0  0  0  0  0  0  0  0
   -4.0023   21.8557  -28.9886 H   0  0  0  0  0  0  0  0  0  0  0  0
   -3.4870   26.0510  -29.7320 H   0  0  0  0  0  0  0  0  0  0  0  0
   -3.1980   24.6310  -30.7850 H   0  0  0  0  0  0  0  0  0  0  0  0
   -8.0186   24.2793  -30.8701 H   0  0  0  0  0  0  0  0  0  0  0  0
   -9.4618   21.9880  -31.8145 H   0  0  0  0  0  0  0  0  0  0  0  0
   -9.1547   19.6216  -32.6138 H   0  0  0  0  0  0  0  0  0  0  0  0
   -4.8408   20.0078  -32.0962 H   0  0  0  0  0  0  0  0  0  0  0  0
  1  2  1  0
  2  3  2  0
  2  4  2  0
  2  5  1  0
  5  6  1  0
  6  7  1  0
  7  8  1  0
  8  9  2  0
  8 10  1  0
 10 11  1  0
 11 12  1  0
 12 13  1  0
 12 14  2  0
 11 15  2  0
 15 16  1  0
 16 17  2  0
 17 18  1  0
 18 19  2  0
 19 20  1  0
 20 21  1  0
 20 22  1  0
 20 23  1  0
 19 24  1  0
 24 25  2  0
 25 10  1  0
 25 16  1  0
  1 26  1  0
  1 27  1  0
  1 28  1  0
  6 29  1  0
  6 30  1  0
  7 31  1  0
  7 32  1  0
 13 33  1  0
 13 34  1  0
 15 35  1  0
 17 36  1  0
 18 37  1  0
 24 38  1  0
M  CHG  1   5  -1
M  END
>  <UniqueID>  (14) 
14

>  <SMILES>  (14) 
CS(=O)(=O)[N-]CCC(=O)n1c(C(N)=O)cc2ccc(C(F)(F)F)cc21

>  <Energy>  (14) 
70.9301463357063

>  <Genealogy>  (14) 
CS(=O)(=O)[N-]CCC(=O)n1c(C(N)=O)cc2ccc(C(F)(F)F)cc21 (protonated)
CS(=O)(=O)[N-]CCC(=O)n1c(C(N)=O)cc2ccc(C(F)(F)F)cc21 (3D coordinates assigned)
CS(=O)(=O)[N-]CCC(=O)n1c(C(N)=O)cc2ccc(C(F)(F)F)cc21 (optimized conformer: 70.9301463357063 kcal/mol)

>  <smiles>  (14) 
CS(=O)(=O)NCCC(=O)n1c(C(N)=O)cc2ccc(C(F)(F)F)cc21

>  <score_type>  (14) 
oracle

>  <origin>  (14) 
adg

>  <m_score__min__energy>  (14) 
-10.19

>  <m_primary>  (14) 
energy

$$$$
15:0
     RDKit          3D

 36 38  0  0  0  0  0  0  0  0999 V2000
   -3.9540   25.5340  -30.8400 N   0  0  0  0  0  0  0  0  0  0  0  0
   -5.2810   25.2260  -30.4190 C   0  0  0  0  0  0  0  0  0  0  0  0
   -5.9230   26.0700  -29.7380 O   0  0  0  0  0  0  0  0  0  0  0  0
   -5.9310   23.9590  -30.8150 C   0  0  0  0  0  0  0  0  0  0  0  0
   -7.3060   23.8250  -30.9950 C   0  0  0  0  0  0  0  0  0  0  0  0
   -7.4900   22.5400  -31.4530 C   0  0  0  0  0  0  0  0  0  0  0  0
   -8.6610   21.8710  -31.7910 C   0  0  0  0  0  0  0  0  0  0  0  0
   -8.5570   20.5360  -32.2160 C   0  0  0  0  0  0  0  0  0  0  0  0
   -7.2990   19.8870  -32.2900 C   0  0  0  0  0  0  0  0  0  0  0  0
   -7.2840   18.4390  -32.7490 C   0  0  0  0  0  0  0  0  0  0  0  0
   -6.0800   17.9750  -33.5590 C   0  0  0  0  0  0  0  0  0  0  0  0
   -6.2500   17.5170  -32.1160 C   0  0  0  0  0  0  0  0  0  0  0  0
   -6.1270   20.6090  -31.9330 C   0  0  0  0  0  0  0  0  0  0  0  0
   -6.2610   21.9420  -31.5330 C   0  0  0  0  0  0  0  0  0  0  0  0
   -5.2930   22.7990  -31.1390 N   0  0  0  0  0  0  0  0  0  0  0  0
   -3.8930   22.5020  -31.0260 C   0  0  0  0  0  0  0  0  0  0  0  0
   -3.1280   22.6870  -32.0120 O   0  0  0  0  0  0  0  0  0  0  0  0
   -3.3820   22.0240  -29.8150 O   0  0  0  0  0  0  0  0  0  0  0  0
   -2.5380   22.7990  -28.9670 C   0  0  0  0  0  0  0  0  0  0  0  0
   -1.7740   23.7140  -29.7200 O   0  0  0  0  0  0  0  0  0  0  0  0
   -1.0030   24.8080  -28.6580 P   0  0  0  0  0  0  0  0  0  0  0  0
   -1.6170   24.7110  -27.2800 O   0  0  0  0  0  0  0  0  0  0  0  0
   -1.2180   26.3790  -29.2450 O   0  0  0  0  0  0  0  0  0  0  0  0
    0.6540   24.4820  -28.5640 O   0  0  0  0  0  0  0  0  0  0  0  0
   -3.1310   25.2710  -30.2560 H   0  0  0  0  0  0  0  0  0  0  0  0
   -8.0800   24.5845  -30.8104 H   0  0  0  0  0  0  0  0  0  0  0  0
   -9.6385   22.3714  -31.7276 H   0  0  0  0  0  0  0  0  0  0  0  0
   -9.4670   19.9851  -32.4960 H   0  0  0  0  0  0  0  0  0  0  0  0
   -8.3747   18.4066  -32.8881 H   0  0  0  0  0  0  0  0  0  0  0  0
   -6.2143   17.2587  -34.3829 H   0  0  0  0  0  0  0  0  0  0  0  0
   -5.2836   18.4784  -34.1267 H   0  0  0  0  0  0  0  0  0  0  0  0
   -6.5070   16.4699  -31.8980 H   0  0  0  0  0  0  0  0  0  0  0  0
   -5.6270   17.5527  -31.2101 H   0  0  0  0  0  0  0  0  0  0  0  0
   -5.1376   20.1297  -31.9707 H   0  0  0  0  0  0  0  0  0  0  0  0
   -3.1600   23.3538  -28.2491 H   0  0  0  0  0  0  0  0  0  0  0  0
   -1.8531   22.1207  -28.4371 H   0  0  0  0  0  0  0  0  0  0  0  0
  1  2  1  0
  2  3  2  0
  2  4  1  0
  4  5  2  0
  5  6  1  0
  6  7  2  0
  7  8  1  0
  8  9  2  0
  9 10  1  0
 10 11  1  0
 11 12  1  0
  9 13  1  0
 13 14  2  0
 14 15  1  0
 15 16  1  0
 16 17  2  0
 16 18  1  0
 18 19  1  0
 19 20  1  0
 20 21  1  0
 21 22  2  0
 21 23  1  0
 21 24  1  0
 15  4  1  0
 14  6  1  0
 12 10  1  0
  1 25  1  0
  5 26  1  0
  7 27  1  0
  8 28  1  0
 10 29  1  0
 11 30  1  0
 11 31  1  0
 12 32  1  0
 12 33  1  0
 13 34  1  0
 19 35  1  0
 19 36  1  0
M  CHG  3   1  -1  23  -1  24  -1
M  END
>  <UniqueID>  (15) 
15

>  <SMILES>  (15) 
[NH-]C(=O)c1cc2ccc(C3CC3)cc2n1C(=O)OCOP(=O)([O-])[O-]

>  <Energy>  (15) 
342.04166078240445

>  <Genealogy>  (15) 
[NH-]C(=O)c1cc2ccc(C3CC3)cc2n1C(=O)OCOP(=O)([O-])[O-] (protonated)
[NH-]C(=O)c1cc2ccc(C3CC3)cc2n1C(=O)OCOP(=O)([O-])[O-] (3D coordinates assigned)
[NH-]C(=O)c1cc2ccc(C3CC3)cc2n1C(=O)OCOP(=O)([O-])[O-] (nonaromatic ring conformer: 342.04166078240445 kcal/mol)

>  <smiles>  (15) 
NC(=O)c1cc2ccc(C3CC3)cc2n1C(=O)OCOP(=O)(O)O

>  <score_type>  (15) 
oracle

>  <origin>  (15) 
adg

>  <m_score__min__energy>  (15) 
-14.24

>  <m_primary>  (15) 
energy

$$$$
16:0
     RDKit          3D

 51 54  0  0  0  0  0  0  0  0999 V2000
   -3.2890   19.7380  -33.4880 C   0  0  0  0  0  0  0  0  0  0  0  0
   -3.4690   18.3540  -34.1020 C   0  0  0  0  0  0  0  0  0  0  0  0
   -4.7260   17.7990  -33.7180 O   0  0  0  0  0  0  0  0  0  0  0  0
   -5.9570   18.3660  -34.0690 C   0  0  0  0  0  0  0  0  0  0  0  0
   -6.1180   18.8990  -35.2010 O   0  0  0  0  0  0  0  0  0  0  0  0
   -7.0840   18.4010  -33.0710 C   0  0  1  0  0  0  0  0  0  0  0  0
   -6.8520   17.4170  -31.9180 C   0  0  0  0  0  0  0  0  0  0  0  0
   -7.2830   19.8080  -32.5480 C   0  0  0  0  0  0  0  0  0  0  0  0
   -8.5800   20.3850  -32.4860 C   0  0  0  0  0  0  0  0  0  0  0  0
   -8.7670   21.6850  -31.9890 C   0  0  0  0  0  0  0  0  0  0  0  0
   -7.6420   22.3940  -31.5800 C   0  0  0  0  0  0  0  0  0  0  0  0
   -7.5420   23.6530  -31.0340 C   0  0  0  0  0  0  0  0  0  0  0  0
   -6.1820   23.8490  -30.8090 C   0  0  0  0  0  0  0  0  0  0  0  0
   -5.6170   25.1100  -30.2910 C   0  0  0  0  0  0  0  0  0  0  0  0
   -6.1560   25.7420  -29.1300 N   0  0  0  0  0  0  0  0  0  0  0  0
   -4.6020   25.6090  -30.8490 O   0  0  0  0  0  0  0  0  0  0  0  0
   -5.4700   22.7490  -31.1880 N   0  0  0  0  0  0  0  0  0  0  0  0
   -4.0610   22.5160  -31.0210 C   0  0  0  0  0  0  0  0  0  0  0  0
   -3.2960   22.5590  -32.0220 O   0  0  0  0  0  0  0  0  0  0  0  0
   -3.5630   22.1880  -29.7550 O   0  0  0  0  0  0  0  0  0  0  0  0
   -3.1930   23.1090  -28.7640 C   0  0  0  0  0  0  0  0  0  0  0  0
   -4.1170   23.5900  -27.7960 C   0  0  0  0  0  0  0  0  0  0  0  0
   -3.7100   24.5040  -26.8080 C   0  0  0  0  0  0  0  0  0  0  0  0
   -2.3790   24.9130  -26.8060 C   0  0  0  0  0  0  0  0  0  0  0  0
   -1.4770   24.4390  -27.7270 C   0  0  0  0  0  0  0  0  0  0  0  0
   -1.8500   23.5300  -28.7150 C   0  0  0  0  0  0  0  0  0  0  0  0
   -0.1930   25.0590  -27.4260 C   0  0  0  0  0  0  0  0  0  0  0  0
    0.8810   24.8740  -28.0580 O   0  0  0  0  0  0  0  0  0  0  0  0
   -0.3210   25.9040  -26.3250 O   0  0  0  0  0  0  0  0  0  0  0  0
   -1.6550   25.8270  -25.9310 C   0  0  0  0  0  0  0  0  0  0  0  0
   -2.1440   26.4620  -24.9600 O   0  0  0  0  0  0  0  0  0  0  0  0
   -6.3790   21.8680  -31.6590 C   0  0  0  0  0  0  0  0  0  0  0  0
   -6.1650   20.5660  -32.1260 C   0  0  0  0  0  0  0  0  0  0  0  0
   -3.2996   19.6567  -32.3911 H   0  0  0  0  0  0  0  0  0  0  0  0
   -2.3281   20.1621  -33.8150 H   0  0  0  0  0  0  0  0  0  0  0  0
   -4.1094   20.3937  -33.8150 H   0  0  0  0  0  0  0  0  0  0  0  0
   -3.4287   18.4358  -35.1982 H   0  0  0  0  0  0  0  0  0  0  0  0
   -2.6639   17.6966  -33.7421 H   0  0  0  0  0  0  0  0  0  0  0  0
   -8.0013   18.0855  -33.5897 H   0  0  0  0  0  0  0  0  0  0  0  0
   -6.9755   17.9407  -30.9586 H   0  0  0  0  0  0  0  0  0  0  0  0
   -7.5812   16.5961  -31.9842 H   0  0  0  0  0  0  0  0  0  0  0  0
   -5.8329   17.0083  -31.9842 H   0  0  0  0  0  0  0  0  0  0  0  0
   -9.4489   19.8058  -32.8318 H   0  0  0  0  0  0  0  0  0  0  0  0
   -9.7715   22.1288  -31.9251 H   0  0  0  0  0  0  0  0  0  0  0  0
   -8.3616   24.3549  -30.8207 H   0  0  0  0  0  0  0  0  0  0  0  0
   -5.7610   26.6490  -28.7970 H   0  0  0  0  0  0  0  0  0  0  0  0
   -6.8810   25.2710  -28.5460 H   0  0  0  0  0  0  0  0  0  0  0  0
   -5.1607   23.2435  -27.8204 H   0  0  0  0  0  0  0  0  0  0  0  0
   -4.4211   24.8842  -26.0598 H   0  0  0  0  0  0  0  0  0  0  0  0
   -1.1137   23.1506  -29.4388 H   0  0  0  0  0  0  0  0  0  0  0  0
   -5.1509   20.1416  -32.1641 H   0  0  0  0  0  0  0  0  0  0  0  0
  1  2  1  0
  2  3  1  0
  3  4  1  0
  4  5  2  0
  4  6  1  0
  6  7  1  0
  6  8  1  0
  8  9  2  0
  9 10  1  0
 10 11  2  0
 11 12  1  0
 12 13  2  0
 13 14  1  0
 14 15  1  0
 14 16  2  0
 13 17  1  0
 17 18  1  0
 18 19  2  0
 18 20  1  0
 20 21  1  0
 21 22  2  0
 22 23  1  0
 23 24  2  0
 24 25  1  0
 25 26  2  0
 25 27  1  0
 27 28  2  0
 27 29  1  0
 29 30  1  0
 30 31  2  0
 17 32  1  0
 32 33  2  0
 33  8  1  0
 32 11  1  0
 26 21  1  0
 30 24  1  0
  1 34  1  0
  1 35  1  0
  1 36  1  0
  2 37  1  0
  2 38  1  0
  6 39  1  6
  7 40  1  0
  7 41  1  0
  7 42  1  0
  9 43  1  0
 10 44  1  0
 12 45  1  0
 15 46  1  0
 15 47  1  0
 22 48  1  0
 23 49  1  0
 26 50  1  0
 33 51  1  0
M  END
>  <UniqueID>  (16) 
16

>  <SMILES>  (16) 
CCOC(=O)[C@@H](C)c1ccc2cc(C(N)=O)n(C(=O)Oc3ccc4c(c3)C(=O)OC4=O)c2c1

>  <Energy>  (16) 
125.6257001220703

>  <Genealogy>  (16) 
CCOC(=O)[C@@H](C)c1ccc2cc(C(N)=O)n(C(=O)Oc3ccc4c(c3)C(=O)OC4=O)c2c1 (3D coordinates assigned)
CCOC(=O)[C@@H](C)c1ccc2cc(C(N)=O)n(C(=O)Oc3ccc4c(c3)C(=O)OC4=O)c2c1 (nonaromatic ring conformer: 125.6257001220703 kcal/mol)

>  <smiles>  (16) 
CCOC(=O)[C@@H](C)c1ccc2cc(C(N)=O)n(C(=O)Oc3ccc4c(c3)C(=O)OC4=O)c2c1

>  <score_type>  (16) 
oracle

>  <origin>  (16) 
adg

>  <m_score__min__energy>  (16) 
-10.99

>  <m_primary>  (16) 
energy

$$$$
17:0
     RDKit          3D

 39 41  0  0  0  0  0  0  0  0999 V2000
   -9.1870   20.3510  -32.3090 C   0  0  0  0  0  0  0  0  0  0  0  0
   -9.3380   21.7070  -31.6230 C   0  0  0  0  0  0  0  0  0  0  0  0
   -8.1790   22.6730  -31.9320 C   0  0  0  0  0  0  0  0  0  0  0  0
   -7.1100   22.7540  -30.8670 C   0  0  0  0  0  0  0  0  0  0  0  0
   -7.4530   23.0620  -29.6940 O   0  0  0  0  0  0  0  0  0  0  0  0
   -5.7180   22.5250  -31.1500 N   0  0  0  0  0  0  0  0  0  0  0  0
   -4.6800   23.3840  -30.9300 C   0  0  0  0  0  0  0  0  0  0  0  0
   -4.7610   24.7200  -30.2900 C   0  0  0  0  0  0  0  0  0  0  0  0
   -5.5460   24.9590  -29.1210 N   0  0  0  0  0  0  0  0  0  0  0  0
   -4.0880   25.6690  -30.7740 O   0  0  0  0  0  0  0  0  0  0  0  0
   -3.4980   22.8670  -31.4540 C   0  0  0  0  0  0  0  0  0  0  0  0
   -3.8440   21.6630  -32.0200 C   0  0  0  0  0  0  0  0  0  0  0  0
   -3.0650   20.7540  -32.7310 C   0  0  0  0  0  0  0  0  0  0  0  0
   -3.7000   19.6250  -33.2750 C   0  0  0  0  0  0  0  0  0  0  0  0
   -5.0920   19.4340  -33.1080 C   0  0  0  0  0  0  0  0  0  0  0  0
   -5.7710   18.2500  -33.7390 C   0  0  0  0  0  0  0  0  0  0  0  0
   -6.9760   17.7080  -33.0980 C   0  0  0  0  0  0  0  0  0  0  0  0
   -7.9260   17.2810  -32.5930 N   0  0  0  0  0  0  0  0  0  0  0  0
   -5.7360   18.1680  -35.2590 C   0  0  0  0  0  0  0  0  0  0  0  0
   -4.8730   17.2300  -34.4260 C   0  0  0  0  0  0  0  0  0  0  0  0
   -5.8550   20.3930  -32.4070 C   0  0  0  0  0  0  0  0  0  0  0  0
   -5.1910   21.4860  -31.8390 C   0  0  0  0  0  0  0  0  0  0  0  0
   -9.0992   19.5624  -31.5471 H   0  0  0  0  0  0  0  0  0  0  0  0
  -10.0692   20.1575  -32.9370 H   0  0  0  0  0  0  0  0  0  0  0  0
   -8.2839   20.3563  -32.9370 H   0  0  0  0  0  0  0  0  0  0  0  0
  -10.2776   22.1679  -31.9617 H   0  0  0  0  0  0  0  0  0  0  0  0
   -9.3349   21.5276  -30.5377 H   0  0  0  0  0  0  0  0  0  0  0  0
   -7.7031   22.3457  -32.8681 H   0  0  0  0  0  0  0  0  0  0  0  0
   -8.6253   23.6764  -31.9946 H   0  0  0  0  0  0  0  0  0  0  0  0
   -5.9800   24.1850  -28.5750 H   0  0  0  0  0  0  0  0  0  0  0  0
   -5.6220   25.9270  -28.7360 H   0  0  0  0  0  0  0  0  0  0  0  0
   -2.4985   23.3252  -31.4218 H   0  0  0  0  0  0  0  0  0  0  0  0
   -1.9849   20.9150  -32.8628 H   0  0  0  0  0  0  0  0  0  0  0  0
   -3.1106   18.8840  -33.8349 H   0  0  0  0  0  0  0  0  0  0  0  0
   -6.6037   17.7743  -35.8087 H   0  0  0  0  0  0  0  0  0  0  0  0
   -5.5454   18.8836  -36.0723 H   0  0  0  0  0  0  0  0  0  0  0  0
   -5.1173   16.1587  -34.3739 H   0  0  0  0  0  0  0  0  0  0  0  0
   -3.8008   16.9873  -34.3883 H   0  0  0  0  0  0  0  0  0  0  0  0
   -6.9452   20.2836  -32.3097 H   0  0  0  0  0  0  0  0  0  0  0  0
  1  2  1  0
  2  3  1  0
  3  4  1  0
  4  5  2  0
  4  6  1  0
  6  7  1  0
  7  8  1  0
  8  9  1  0
  8 10  2  0
  7 11  2  0
 11 12  1  0
 12 13  2  0
 13 14  1  0
 14 15  2  0
 15 16  1  0
 16 17  1  0
 17 18  3  0
 16 19  1  0
 19 20  1  0
 15 21  1  0
 21 22  2  0
 22  6  1  0
 22 12  1  0
 20 16  1  0
  1 23  1  0
  1 24  1  0
  1 25  1  0
  2 26  1  0
  2 27  1  0
  3 28  1  0
  3 29  1  0
  9 30  1  0
  9 31  1  0
 11 32  1  0
 13 33  1  0
 14 34  1  0
 19 35  1  0
 19 36  1  0
 20 37  1  0
 20 38  1  0
 21 39  1  0
M  END
>  <UniqueID>  (17) 
17

>  <SMILES>  (17) 
CCCC(=O)n1c(C(N)=O)cc2ccc(C3(C#N)CC3)cc21

>  <Energy>  (17) 
342.2873591293071

>  <Genealogy>  (17) 
CCCC(=O)n1c(C(N)=O)cc2ccc(C3(C#N)CC3)cc21 (3D coordinates assigned)
CCCC(=O)n1c(C(N)=O)cc2ccc(C3(C#N)CC3)cc21 (nonaromatic ring conformer: 342.2873591293071 kcal/mol)

>  <smiles>  (17) 
CCCC(=O)n1c(C(N)=O)cc2ccc(C3(C#N)CC3)cc21

>  <score_type>  (17) 
oracle

>  <origin>  (17) 
adg

>  <m_score__min__energy>  (17) 
-9.8100000000000005

>  <m_primary>  (17) 
energy

$$$$
18:0
     RDKit          3D

 74 77  0  0  0  0  0  0  0  0999 V2000
   -2.3090   26.0490  -28.9700 H   0  0  0  0  0  0  0  0  0  0  0  0
   -1.2650   26.0310  -28.9700 N   0  0  0  0  0  0  0  0  0  0  0  0
   -0.5490   24.8040  -28.8300 C   0  0  0  0  0  0  0  0  0  0  0  0
    0.5360   24.7930  -28.1900 O   0  0  0  0  0  0  0  0  0  0  0  0
   -1.0440   23.5590  -29.4570 C   0  0  0  0  0  0  0  0  0  0  0  0
   -0.2330   22.4620  -29.7480 C   0  0  0  0  0  0  0  0  0  0  0  0
    0.8335   22.3384  -29.5084 H   0  0  0  0  0  0  0  0  0  0  0  0
   -1.0520   21.5670  -30.3990 C   0  0  0  0  0  0  0  0  0  0  0  0
   -0.7650   20.3250  -30.9540 C   0  0  0  0  0  0  0  0  0  0  0  0
    0.2416   19.8884  -30.8760 H   0  0  0  0  0  0  0  0  0  0  0  0
   -1.7990   19.6450  -31.6170 C   0  0  0  0  0  0  0  0  0  0  0  0
   -1.5969   18.6661  -32.0763 H   0  0  0  0  0  0  0  0  0  0  0  0
   -3.1020   20.2030  -31.7030 C   0  0  0  0  0  0  0  0  0  0  0  0
   -4.1390   19.5290  -32.4460 N   0  0  0  0  0  0  0  0  0  0  0  0
   -4.1150   19.5370  -33.9120 C   0  0  0  0  0  0  0  0  0  0  0  0
   -4.6396   20.4324  -34.2768 H   0  0  0  0  0  0  0  0  0  0  0  0
   -3.0677   19.5445  -34.2484 H   0  0  0  0  0  0  0  0  0  0  0  0
   -4.8080   18.2790  -34.4760 C   0  0  0  0  0  0  0  0  0  0  0  0
   -5.8894   18.4689  -34.5426 H   0  0  0  0  0  0  0  0  0  0  0  0
   -4.3791   18.0702  -35.4672 H   0  0  0  0  0  0  0  0  0  0  0  0
   -4.5830   17.0920  -33.6210 N   0  0  0  0  0  0  0  0  0  0  0  0
   -3.1790   16.6470  -33.6570 C   0  0  0  0  0  0  0  0  0  0  0  0
   -2.8054   16.5286  -32.6292 H   0  0  0  0  0  0  0  0  0  0  0  0
   -3.1130   15.6839  -34.1844 H   0  0  0  0  0  0  0  0  0  0  0  0
   -2.5703   17.3962  -34.1844 H   0  0  0  0  0  0  0  0  0  0  0  0
   -5.0770   17.2630  -32.2280 C   0  0  0  0  0  0  0  0  0  0  0  0
   -6.0781   16.8127  -32.1574 H   0  0  0  0  0  0  0  0  0  0  0  0
   -4.3472   16.7728  -31.5669 H   0  0  0  0  0  0  0  0  0  0  0  0
   -5.1730   18.7340  -31.7780 C   0  0  0  0  0  0  0  0  0  0  0  0
   -6.1646   19.1315  -32.0400 H   0  0  0  0  0  0  0  0  0  0  0  0
   -5.0255   18.7898  -30.6894 H   0  0  0  0  0  0  0  0  0  0  0  0
   -3.3560   21.4640  -31.1160 C   0  0  0  0  0  0  0  0  0  0  0  0
   -4.3583   21.9149  -31.1605 H   0  0  0  0  0  0  0  0  0  0  0  0
   -2.3020   22.1230  -30.4780 C   0  0  0  0  0  0  0  0  0  0  0  0
   -2.3150   23.3370  -29.8930 N   0  0  0  0  0  0  0  0  0  0  0  0
   -3.4550   24.2000  -29.7820 C   0  0  0  0  0  0  0  0  0  0  0  0
   -3.5320   25.2040  -30.5400 O   0  0  0  0  0  0  0  0  0  0  0  0
   -4.6100   23.8390  -28.8730 C   0  0  1  0  0  0  0  0  0  0  0  0
   -5.1039   24.7754  -28.5742 H   0  0  0  0  0  0  0  0  0  0  0  0
   -5.5390   22.9570  -29.5930 N   0  0  0  0  0  0  0  0  0  0  0  0
   -6.1810   23.7170  -31.0180 S   0  0  0  0  0  0  0  0  0  0  0  0
   -6.0480   25.2110  -30.9150 O   0  0  0  0  0  0  0  0  0  0  0  0
   -5.4090   23.2360  -32.2120 O   0  0  0  0  0  0  0  0  0  0  0  0
   -7.8990   23.2640  -31.2030 C   0  0  0  0  0  0  0  0  0  0  0  0
   -8.4229   23.4329  -30.2506 H   0  0  0  0  0  0  0  0  0  0  0  0
   -8.3472   23.8810  -31.9957 H   0  0  0  0  0  0  0  0  0  0  0  0
   -8.0210   21.8160  -31.5850 C   0  0  0  0  0  0  0  0  0  0  0  0
   -7.3460   21.3200  -32.7140 C   0  0  0  0  0  0  0  0  0  0  0  0
   -6.7045   21.9883  -33.3072 H   0  0  0  0  0  0  0  0  0  0  0  0
   -7.4880   19.9790  -33.0850 C   0  0  0  0  0  0  0  0  0  0  0  0
   -6.9524   19.5933  -33.9650 H   0  0  0  0  0  0  0  0  0  0  0  0
   -8.3090   19.1280  -32.3400 C   0  0  0  0  0  0  0  0  0  0  0  0
   -8.4176   18.0733  -32.6328 H   0  0  0  0  0  0  0  0  0  0  0  0
   -8.9920   19.6170  -31.2230 C   0  0  0  0  0  0  0  0  0  0  0  0
   -9.6405   18.9474  -30.6390 H   0  0  0  0  0  0  0  0  0  0  0  0
   -8.8520   20.9560  -30.8470 C   0  0  0  0  0  0  0  0  0  0  0  0
   -9.3946   21.3381  -29.9697 H   0  0  0  0  0  0  0  0  0  0  0  0
   -4.1310   23.1060  -27.6010 C   0  0  0  0  0  0  0  0  0  0  0  0
   -4.9014   23.2094  -26.8227 H   0  0  0  0  0  0  0  0  0  0  0  0
   -3.1794   23.5618  -27.2900 H   0  0  0  0  0  0  0  0  0  0  0  0
   -3.8750   21.6080  -27.8470 C   0  0  0  0  0  0  0  0  0  0  0  0
   -4.0278   21.3858  -28.9134 H   0  0  0  0  0  0  0  0  0  0  0  0
   -4.5749   21.0237  -27.2316 H   0  0  0  0  0  0  0  0  0  0  0  0
   -2.4710   21.2400  -27.4630 C   0  0  0  0  0  0  0  0  0  0  0  0
   -1.8321   21.9851  -26.9665 H   0  0  0  0  0  0  0  0  0  0  0  0
   -1.9850   20.0180  -27.7160 C   0  0  0  0  0  0  0  0  0  0  0  0
   -2.6301   19.2874  -28.2259 H   0  0  0  0  0  0  0  0  0  0  0  0
   -0.6210   19.6150  -27.3380 C   0  0  0  0  0  0  0  0  0  0  0  0
    0.2920   20.4760  -27.1960 O   0  0  0  0  0  0  0  0  0  0  0  0
   -0.3550   18.2590  -27.1250 O   0  0  0  0  0  0  0  0  0  0  0  0
    0.4320   17.4810  -28.0190 C   0  0  0  0  0  0  0  0  0  0  0  0
    1.0983   16.8223  -27.4427 H   0  0  0  0  0  0  0  0  0  0  0  0
   -0.2283   16.8708  -28.6528 H   0  0  0  0  0  0  0  0  0  0  0  0
    1.0345   18.1483  -28.6528 H   0  0  0  0  0  0  0  0  0  0  0  0
  1  2  1  0
  2  3  1  0
  3  4  2  0
  3  5  1  0
  5  6  2  0
  6  7  1  0
  6  8  1  0
  8  9  2  0
  9 10  1  0
  9 11  1  0
 11 12  1  0
 11 13  2  0
 13 14  1  0
 14 15  1  0
 15 16  1  0
 15 17  1  0
 15 18  1  0
 18 19  1  0
 18 20  1  0
 18 21  1  0
 21 22  1  0
 22 23  1  0
 22 24  1  0
 22 25  1  0
 21 26  1  0
 26 27  1  0
 26 28  1  0
 26 29  1  0
 29 30  1  0
 29 31  1  0
 13 32  1  0
 32 33  1  0
 32 34  2  0
 34 35  1  0
 35 36  1  0
 36 37  2  0
 36 38  1  0
 38 39  1  1
 38 40  1  0
 40 41  1  0
 41 42  2  0
 41 43  2  0
 41 44  1  0
 44 45  1  0
 44 46  1  0
 44 47  1  0
 47 48  2  0
 48 49  1  0
 48 50  1  0
 50 51  1  0
 50 52  2  0
 52 53  1  0
 52 54  1  0
 54 55  1  0
 54 56  2  0
 56 57  1  0
 38 58  1  0
 58 59  1  0
 58 60  1  0
 58 61  1  0
 61 62  1  0
 61 63  1  0
 61 64  1  0
 64 65  1  0
 64 66  2  0
 66 67  1  0
 66 68  1  0
 68 69  2  0
 68 70  1  0
 70 71  1  0
 71 72  1  0
 71 73  1  0
 71 74  1  0
 35  5  1  0
 56 47  1  0
 34  8  1  0
 29 14  1  0
M  CHG  2   2  -1  40  -1
M  END
>  <UniqueID>  (18) 
18

>  <SMILES>  (18) 
COC(=O)/C=C/CC[C@H]([N-]S(=O)(=O)Cc1ccccc1)C(=O)n1c(C([NH-])=O)cc2ccc(N3CCN(C)CC3)cc21

>  <Energy>  (18) 
116.40941073395848

>  <Genealogy>  (18) 
COC(=O)C=CCC[C@H]([N-]S(=O)(=O)Cc1ccccc1)C(=O)n1c(C([NH-])=O)cc2ccc(N3CCN(C)CC3)cc21 (protonated)
COC(=O)/C=C/CC[C@H]([N-]S(=O)(=O)Cc1ccccc1)C(=O)n1c(C([NH-])=O)cc2ccc(N3CCN(C)CC3)cc21 (cis-trans isomerization)
COC(=O)/C=C/CC[C@H]([N-]S(=O)(=O)Cc1ccccc1)C(=O)n1c(C([NH-])=O)cc2ccc(N3CCN(C)CC3)cc21 (3D coordinates assigned)
COC(=O)/C=C/CC[C@H]([N-]S(=O)(=O)Cc1ccccc1)C(=O)n1c(C([NH-])=O)cc2ccc(N3CCN(C)CC3)cc21 (nonaromatic ring conformer: 116.40941073395848 kcal/mol)

>  <smiles>  (18) 
COC(=O)C=CCC[C@H](NS(=O)(=O)Cc1ccccc1)C(=O)n1c(C(N)=O)cc2ccc(N3CCN(C)CC3)cc21

>  <score_type>  (18) 
oracle

>  <origin>  (18) 
adg

>  <m_score__min__energy>  (18) 
-13.960000000000001

>  <m_primary>  (18) 
energy

$$$$
19:0
     RDKit          3D

 50 53  0  0  0  0  0  0  0  0999 V2000
   -3.9500   25.6710  -30.8380 N   0  0  0  0  0  0  0  0  0  0  0  0
   -5.2860   25.3310  -30.4760 C   0  0  0  0  0  0  0  0  0  0  0  0
   -6.0020   26.1870  -29.8890 O   0  0  0  0  0  0  0  0  0  0  0  0
   -5.8600   24.0130  -30.8210 C   0  0  0  0  0  0  0  0  0  0  0  0
   -7.2030   23.8200  -31.1390 C   0  0  0  0  0  0  0  0  0  0  0  0
   -7.3130   22.4890  -31.4750 C   0  0  0  0  0  0  0  0  0  0  0  0
   -8.4260   21.7500  -31.8600 C   0  0  0  0  0  0  0  0  0  0  0  0
   -8.2480   20.3800  -32.1240 C   0  0  0  0  0  0  0  0  0  0  0  0
   -6.9720   19.7750  -32.0010 C   0  0  0  0  0  0  0  0  0  0  0  0
   -6.8350   18.3700  -32.2880 N   0  0  0  0  0  0  0  0  0  0  0  0
   -6.6600   17.8160  -33.6380 C   0  0  2  0  0  0  0  0  0  0  0  0
   -5.7420   16.5710  -33.6010 C   0  0  0  0  0  0  0  0  0  0  0  0
   -4.3830   16.8310  -34.2590 C   0  0  0  0  0  0  0  0  0  0  0  0
   -3.8770   18.2450  -33.9200 C   0  0  0  0  0  0  0  0  0  0  0  0
   -4.7880   19.3150  -34.1680 O   0  0  0  0  0  0  0  0  0  0  0  0
   -6.0800   18.8950  -34.5720 C   0  0  0  0  0  0  0  0  0  0  0  0
   -5.8690   20.5610  -31.5910 C   0  0  0  0  0  0  0  0  0  0  0  0
   -6.0710   21.9240  -31.3530 C   0  0  0  0  0  0  0  0  0  0  0  0
   -5.1680   22.8450  -30.9500 N   0  0  0  0  0  0  0  0  0  0  0  0
   -3.7880   22.5910  -30.6440 C   0  0  0  0  0  0  0  0  0  0  0  0
   -2.8860   23.1020  -31.3600 O   0  0  0  0  0  0  0  0  0  0  0  0
   -3.4520   21.7370  -29.5370 N   0  0  0  0  0  0  0  0  0  0  0  0
   -2.3440   21.9240  -28.5830 C   0  0  0  0  0  0  0  0  0  0  0  0
   -2.1360   23.3410  -28.0310 C   0  0  0  0  0  0  0  0  0  0  0  0
   -1.9320   24.2480  -29.0800 O   0  0  0  0  0  0  0  0  0  0  0  0
   -2.0730   20.7700  -27.6300 C   0  0  0  0  0  0  0  0  0  0  0  0
   -1.0930   21.0720  -28.7690 C   0  0  0  0  0  0  0  0  0  0  0  0
   -3.1430   25.0870  -30.5240 H   0  0  0  0  0  0  0  0  0  0  0  0
   -8.0057   24.5720  -31.1247 H   0  0  0  0  0  0  0  0  0  0  0  0
   -9.4150   22.2221  -31.9552 H   0  0  0  0  0  0  0  0  0  0  0  0
   -9.1106   19.7698  -32.4300 H   0  0  0  0  0  0  0  0  0  0  0  0
   -6.8310   17.7060  -31.4790 H   0  0  0  0  0  0  0  0  0  0  0  0
   -7.6404   17.5017  -34.0254 H   0  0  0  0  0  0  0  0  0  0  0  0
   -5.5779   16.2835  -32.5520 H   0  0  0  0  0  0  0  0  0  0  0  0
   -6.2406   15.7684  -34.1642 H   0  0  0  0  0  0  0  0  0  0  0  0
   -3.6569   16.0901  -33.8932 H   0  0  0  0  0  0  0  0  0  0  0  0
   -4.4961   16.7475  -35.3500 H   0  0  0  0  0  0  0  0  0  0  0  0
   -3.6212   18.2627  -32.8503 H   0  0  0  0  0  0  0  0  0  0  0  0
   -3.0241   18.4220  -34.5917 H   0  0  0  0  0  0  0  0  0  0  0  0
   -6.7526   19.7654  -34.5683 H   0  0  0  0  0  0  0  0  0  0  0  0
   -5.9940   18.4595  -35.5784 H   0  0  0  0  0  0  0  0  0  0  0  0
   -4.8742   20.1095  -31.4623 H   0  0  0  0  0  0  0  0  0  0  0  0
   -4.1720   21.0260  -29.2800 H   0  0  0  0  0  0  0  0  0  0  0  0
   -3.0264   23.6419  -27.4595 H   0  0  0  0  0  0  0  0  0  0  0  0
   -1.2501   23.3439  -27.3789 H   0  0  0  0  0  0  0  0  0  0  0  0
   -2.7900   24.3020  -29.5760 H   0  0  0  0  0  0  0  0  0  0  0  0
   -1.7850   20.9730  -26.5880 H   0  0  0  0  0  0  0  0  0  0  0  0
   -2.6352   19.8834  -27.3015 H   0  0  0  0  0  0  0  0  0  0  0  0
   -0.1016   21.4929  -28.5457 H   0  0  0  0  0  0  0  0  0  0  0  0
   -0.6594   20.4941  -29.5984 H   0  0  0  0  0  0  0  0  0  0  0  0
  1  2  1  0
  2  3  2  0
  2  4  1  0
  4  5  2  0
  5  6  1  0
  6  7  2  0
  7  8  1  0
  8  9  2  0
  9 10  1  0
 10 11  1  0
 11 12  1  0
 12 13  1  0
 13 14  1  0
 14 15  1  0
 15 16  1  0
  9 17  1  0
 17 18  2  0
 18 19  1  0
 19 20  1  0
 20 21  2  0
 20 22  1  0
 22 23  1  0
 23 24  1  0
 24 25  1  0
 23 26  1  0
 26 27  1  0
 19  4  1  0
 27 23  1  0
 18  6  1  0
 16 11  1  0
  1 28  1  0
  5 29  1  0
  7 30  1  0
  8 31  1  0
 10 32  1  0
 11 33  1  6
 12 34  1  0
 12 35  1  0
 13 36  1  0
 13 37  1  0
 14 38  1  0
 14 39  1  0
 16 40  1  0
 16 41  1  0
 17 42  1  0
 22 43  1  0
 24 44  1  0
 24 45  1  0
 25 46  1  0
 26 47  1  0
 26 48  1  0
 27 49  1  0
 27 50  1  0
M  CHG  1   1  -1
M  END
>  <UniqueID>  (19) 
19

>  <SMILES>  (19) 
[NH-]C(=O)c1cc2ccc(N[C@@H]3CCCOC3)cc2n1C(=O)NC1(CO)CC1

>  <Energy>  (19) 
374.0297461950623

>  <Genealogy>  (19) 
[NH-]C(=O)c1cc2ccc(NC3CCCOC3)cc2n1C(=O)NC1(CO)CC1 (protonated)
[NH-]C(=O)c1cc2ccc(N[C@@H]3CCCOC3)cc2n1C(=O)NC1(CO)CC1 (chirality)
[NH-]C(=O)c1cc2ccc(N[C@@H]3CCCOC3)cc2n1C(=O)NC1(CO)CC1 (3D coordinates assigned)
[NH-]C(=O)c1cc2ccc(N[C@@H]3CCCOC3)cc2n1C(=O)NC1(CO)CC1 (nonaromatic ring conformer: 374.0297461950623 kcal/mol)

>  <smiles>  (19) 
NC(=O)c1cc2ccc(NC3CCCOC3)cc2n1C(=O)NC1(CO)CC1

>  <score_type>  (19) 
oracle

>  <origin>  (19) 
adg

>  <m_score__min__energy>  (19) 
-11.9

>  <m_primary>  (19) 
energy

$$$$
21:0
     RDKit          3D

 38 40  0  0  0  0  0  0  0  0999 V2000
   -9.2230   18.7070  -32.0190 C   0  0  0  0  0  0  0  0  0  0  0  0
   -7.7690   18.6980  -31.9060 N   0  0  0  0  0  0  0  0  0  0  0  0
   -6.9890   19.7680  -31.6700 C   0  0  0  0  0  0  0  0  0  0  0  0
   -5.6620   19.3620  -31.7260 C   0  0  0  0  0  0  0  0  0  0  0  0
   -4.4500   20.1980  -31.5330 C   0  0  0  0  0  0  0  0  0  0  0  0
   -3.3060   20.0060  -32.3540 C   0  0  0  0  0  0  0  0  0  0  0  0
   -2.1570   20.7980  -32.1890 C   0  0  0  0  0  0  0  0  0  0  0  0
   -2.1720   21.7690  -31.1930 C   0  0  0  0  0  0  0  0  0  0  0  0
   -1.2070   22.6820  -30.8360 C   0  0  0  0  0  0  0  0  0  0  0  0
   -1.7610   23.4100  -29.7850 C   0  0  0  0  0  0  0  0  0  0  0  0
   -1.0230   24.4500  -29.0370 C   0  0  0  0  0  0  0  0  0  0  0  0
   -1.5740   25.7600  -28.9120 N   0  0  0  0  0  0  0  0  0  0  0  0
    0.1060   24.2060  -28.5350 O   0  0  0  0  0  0  0  0  0  0  0  0
   -3.0220   22.9680  -29.5100 N   0  0  0  0  0  0  0  0  0  0  0  0
   -3.9470   23.4880  -28.5420 C   0  0  0  0  0  0  0  0  0  0  0  0
   -3.5270   23.8860  -27.4210 O   0  0  0  0  0  0  0  0  0  0  0  0
   -5.3080   23.5720  -28.8580 O   0  0  0  0  0  0  0  0  0  0  0  0
   -5.8530   24.5740  -29.7130 C   0  0  0  0  0  0  0  0  0  0  0  0
   -4.9490   24.8080  -30.8800 C   0  0  0  0  0  0  0  0  0  0  0  0
   -5.1440   24.2040  -31.9670 O   0  0  0  0  0  0  0  0  0  0  0  0
   -3.8710   25.6750  -30.7590 O   0  0  0  0  0  0  0  0  0  0  0  0
   -3.2550   21.9610  -30.3800 C   0  0  0  0  0  0  0  0  0  0  0  0
   -4.4210   21.2000  -30.5340 C   0  0  0  0  0  0  0  0  0  0  0  0
   -5.7190   18.0040  -32.0210 C   0  0  0  0  0  0  0  0  0  0  0  0
   -7.0090   17.6400  -32.1290 N   0  0  0  0  0  0  0  0  0  0  0  0
   -9.6689   18.7098  -31.0134 H   0  0  0  0  0  0  0  0  0  0  0  0
   -9.5428   19.6071  -32.5644 H   0  0  0  0  0  0  0  0  0  0  0  0
   -9.5539   17.8109  -32.5644 H   0  0  0  0  0  0  0  0  0  0  0  0
   -7.3418   20.7900  -31.4673 H   0  0  0  0  0  0  0  0  0  0  0  0
   -3.3201   19.2262  -33.1298 H   0  0  0  0  0  0  0  0  0  0  0  0
   -1.2730   20.6546  -32.8277 H   0  0  0  0  0  0  0  0  0  0  0  0
   -0.2108   22.8100  -31.2845 H   0  0  0  0  0  0  0  0  0  0  0  0
   -2.6050   25.9160  -28.9630 H   0  0  0  0  0  0  0  0  0  0  0  0
   -6.8373   24.2443  -30.0769 H   0  0  0  0  0  0  0  0  0  0  0  0
   -5.9553   25.5111  -29.1461 H   0  0  0  0  0  0  0  0  0  0  0  0
   -5.2961   21.3776  -29.8916 H   0  0  0  0  0  0  0  0  0  0  0  0
   -4.8524   17.3380  -32.1454 H   0  0  0  0  0  0  0  0  0  0  0  0
   -7.3630   16.6850  -32.3630 H   0  0  0  0  0  0  0  0  0  0  0  0
  1  2  1  0
  2  3  1  0
  3  4  2  0
  4  5  1  0
  5  6  2  0
  6  7  1  0
  7  8  2  0
  8  9  1  0
  9 10  2  0
 10 11  1  0
 11 12  1  0
 11 13  2  0
 10 14  1  0
 14 15  1  0
 15 16  2  0
 15 17  1  0
 17 18  1  0
 18 19  1  0
 19 20  2  0
 19 21  1  0
 14 22  1  0
 22 23  2  0
  4 24  1  0
 24 25  2  0
 25  2  1  0
 23  5  1  0
 22  8  1  0
  1 26  1  0
  1 27  1  0
  1 28  1  0
  3 29  1  0
  6 30  1  0
  7 31  1  0
  9 32  1  0
 12 33  1  0
 18 34  1  0
 18 35  1  0
 23 36  1  0
 24 37  1  0
 25 38  1  0
M  CHG  3  12  -1  21  -1  25   1
M  END
>  <UniqueID>  (20) 
20

>  <SMILES>  (20) 
Cn1cc(-c2ccc3cc(C([NH-])=O)n(C(=O)OCC(=O)[O-])c3c2)c[nH+]1

>  <Energy>  (20) 
108.41158889887129

>  <Genealogy>  (20) 
Cn1cc(-c2ccc3cc(C([NH-])=O)n(C(=O)OCC(=O)[O-])c3c2)c[nH+]1 (protonated)
Cn1cc(-c2ccc3cc(C([NH-])=O)n(C(=O)OCC(=O)[O-])c3c2)c[nH+]1 (3D coordinates assigned)
Cn1cc(-c2ccc3cc(C([NH-])=O)n(C(=O)OCC(=O)[O-])c3c2)c[nH+]1 (optimized conformer: 108.41158889887129 kcal/mol)

>  <smiles>  (20) 
Cn1cc(-c2ccc3cc(C(N)=O)n(C(=O)OCC(=O)O)c3c2)cn1

>  <score_type>  (20) 
oracle

>  <origin>  (20) 
adg

>  <m_score__min__energy>  (20) 
-12.609999999999999

>  <m_primary>  (20) 
energy

$$$$
22:0
     RDKit          3D

 42 43  0  0  0  0  0  0  0  0999 V2000
   -2.8057   24.0998  -31.0095 H   0  0  0  0  0  0  0  0  0  0  0  0
   -3.1010   23.0540  -30.8390 C   0  0  0  0  0  0  0  0  0  0  0  0
   -4.0140   22.4100  -31.7990 C   0  0  0  0  0  0  0  0  0  0  0  0
   -3.5550   21.7210  -32.7510 O   0  0  0  0  0  0  0  0  0  0  0  0
   -5.4360   22.5560  -31.6500 N   0  0  0  0  0  0  0  0  0  0  0  0
   -6.1030   23.5690  -31.0280 C   0  0  0  0  0  0  0  0  0  0  0  0
   -5.4950   24.8090  -30.5020 C   0  0  0  0  0  0  0  0  0  0  0  0
   -4.6460   25.4260  -31.1990 O   0  0  0  0  0  0  0  0  0  0  0  0
   -5.8100   25.2950  -29.1960 N   0  0  0  0  0  0  0  0  0  0  0  0
   -6.3580   24.7170  -28.5220 H   0  0  0  0  0  0  0  0  0  0  0  0
   -5.4100   26.2000  -28.8640 H   0  0  0  0  0  0  0  0  0  0  0  0
   -7.4670   23.2950  -30.9680 C   0  0  0  0  0  0  0  0  0  0  0  0
   -8.2547   23.9210  -30.5235 H   0  0  0  0  0  0  0  0  0  0  0  0
   -7.6190   22.0730  -31.5840 C   0  0  0  0  0  0  0  0  0  0  0  0
   -8.7650   21.3110  -31.7860 C   0  0  0  0  0  0  0  0  0  0  0  0
   -9.7523   21.6756  -31.4661 H   0  0  0  0  0  0  0  0  0  0  0  0
   -8.6220   20.0600  -32.4120 C   0  0  0  0  0  0  0  0  0  0  0  0
   -9.5121   19.4403  -32.5959 H   0  0  0  0  0  0  0  0  0  0  0  0
   -7.3470   19.5870  -32.8090 C   0  0  0  0  0  0  0  0  0  0  0  0
   -7.2410   18.2970  -33.4380 N   0  0  0  0  0  0  0  0  0  0  0  0
   -8.1070   17.8450  -33.8120 H   0  0  0  0  0  0  0  0  0  0  0  0
   -5.9780   17.5860  -33.6090 C   0  0  0  0  0  0  0  0  0  0  0  0
   -5.5548   17.3478  -32.6220 H   0  0  0  0  0  0  0  0  0  0  0  0
   -6.1542   16.6545  -34.1669 H   0  0  0  0  0  0  0  0  0  0  0  0
   -5.2730   18.2198  -34.1669 H   0  0  0  0  0  0  0  0  0  0  0  0
   -6.2040   20.3900  -32.5760 C   0  0  0  0  0  0  0  0  0  0  0  0
   -5.2012   20.0358  -32.8569 H   0  0  0  0  0  0  0  0  0  0  0  0
   -6.3790   21.6450  -31.9800 C   0  0  0  0  0  0  0  0  0  0  0  0
   -2.6180   22.4160  -29.7690 C   0  0  0  0  0  0  0  0  0  0  0  0
   -2.9545   21.3916  -29.5516 H   0  0  0  0  0  0  0  0  0  0  0  0
   -1.6230   23.0760  -28.8590 C   0  0  0  0  0  0  0  0  0  0  0  0
   -1.5784   22.5201  -27.9108 H   0  0  0  0  0  0  0  0  0  0  0  0
   -0.6402   23.0737  -29.3531 H   0  0  0  0  0  0  0  0  0  0  0  0
   -2.0080   24.4770  -28.5810 N   0  0  0  0  0  0  0  0  0  0  0  0
   -0.8490   25.2590  -28.1150 C   0  0  0  0  0  0  0  0  0  0  0  0
   -0.8325   25.2701  -27.0152 H   0  0  0  0  0  0  0  0  0  0  0  0
    0.0776   24.8007  -28.4910 H   0  0  0  0  0  0  0  0  0  0  0  0
   -0.9271   26.2898  -28.4910 H   0  0  0  0  0  0  0  0  0  0  0  0
   -3.0700   24.5150  -27.5660 C   0  0  0  0  0  0  0  0  0  0  0  0
   -2.6191   24.4989  -26.5628 H   0  0  0  0  0  0  0  0  0  0  0  0
   -3.6608   25.4349  -27.6877 H   0  0  0  0  0  0  0  0  0  0  0  0
   -3.7250   23.6397  -27.6877 H   0  0  0  0  0  0  0  0  0  0  0  0
  1  2  1  0
  2  3  1  0
  3  4  2  0
  3  5  1  0
  5  6  1  0
  6  7  1  0
  7  8  2  0
  7  9  1  0
  9 10  1  0
  9 11  1  0
  6 12  2  0
 12 13  1  0
 12 14  1  0
 14 15  2  0
 15 16  1  0
 15 17  1  0
 17 18  1  0
 17 19  2  0
 19 20  1  0
 20 21  1  0
 20 22  1  0
 22 23  1  0
 22 24  1  0
 22 25  1  0
 19 26  1  0
 26 27  1  0
 26 28  2  0
  2 29  2  0
 29 30  1  0
 29 31  1  0
 31 32  1  0
 31 33  1  0
 31 34  1  0
 34 35  1  0
 35 36  1  0
 35 37  1  0
 35 38  1  0
 34 39  1  0
 39 40  1  0
 39 41  1  0
 39 42  1  0
 28  5  1  0
 28 14  1  0
M  END
>  <UniqueID>  (21) 
21

>  <SMILES>  (21) 
CNc1ccc2cc(C(N)=O)n(C(=O)/C=C/CN(C)C)c2c1

>  <Energy>  (21) 
76.34230739450834

>  <Genealogy>  (21) 
CNc1ccc2cc(C(N)=O)n(C(=O)/C=C/CN(C)C)c2c1 (cis-trans isomerization)
CNc1ccc2cc(C(N)=O)n(C(=O)/C=C/CN(C)C)c2c1 (3D coordinates assigned)
CNc1ccc2cc(C(N)=O)n(C(=O)/C=C/CN(C)C)c2c1 (optimized conformer: 76.34230739450834 kcal/mol)

>  <smiles>  (21) 
CNc1ccc2cc(C(N)=O)n(C(=O)/C=C/CN(C)C)c2c1

>  <score_type>  (21) 
oracle

>  <origin>  (21) 
adg

>  <m_score__min__energy>  (21) 
-8.75

>  <m_primary>  (21) 
energy

$$$$
23:0
     RDKit          3D

 30 32  0  0  0  0  0  0  0  0999 V2000
   -1.6000   25.5810  -29.0990 N   0  0  0  0  0  0  0  0  0  0  0  0
   -0.9750   24.3010  -29.1400 C   0  0  0  0  0  0  0  0  0  0  0  0
    0.1470   24.1450  -28.5900 O   0  0  0  0  0  0  0  0  0  0  0  0
   -1.6060   23.1690  -29.8500 C   0  0  0  0  0  0  0  0  0  0  0  0
   -0.8890   22.1990  -30.5490 C   0  0  0  0  0  0  0  0  0  0  0  0
   -1.8400   21.3890  -31.1280 C   0  0  0  0  0  0  0  0  0  0  0  0
   -1.6910   20.2660  -31.9340 C   0  0  0  0  0  0  0  0  0  0  0  0
   -2.8530   19.6140  -32.3790 C   0  0  0  0  0  0  0  0  0  0  0  0
   -4.1450   20.0900  -32.0110 C   0  0  0  0  0  0  0  0  0  0  0  0
   -5.4410   19.4310  -32.4510 C   0  0  0  0  0  0  0  0  0  0  0  0
   -5.7250   19.3790  -33.9460 C   0  0  0  0  0  0  0  0  0  0  0  0
   -6.5120   20.3290  -33.0530 C   0  0  0  0  0  0  0  0  0  0  0  0
   -4.2460   21.2360  -31.1900 C   0  0  0  0  0  0  0  0  0  0  0  0
   -3.0710   21.8680  -30.7720 C   0  0  0  0  0  0  0  0  0  0  0  0
   -2.9460   22.9550  -29.9820 N   0  0  0  0  0  0  0  0  0  0  0  0
   -4.0260   23.6810  -29.3750 C   0  0  0  0  0  0  0  0  0  0  0  0
   -4.3980   23.3830  -28.2080 O   0  0  0  0  0  0  0  0  0  0  0  0
   -4.6710   24.8000  -30.0760 C   0  0  0  0  0  0  0  0  0  0  0  0
   -5.9160   24.9710  -29.9920 O   0  0  0  0  0  0  0  0  0  0  0  0
   -3.9110   25.6680  -30.8490 O   0  0  0  0  0  0  0  0  0  0  0  0
   -2.6310   25.6800  -29.2300 H   0  0  0  0  0  0  0  0  0  0  0  0
    0.2042   22.1015  -30.6224 H   0  0  0  0  0  0  0  0  0  0  0  0
   -0.6928   19.8989  -32.2149 H   0  0  0  0  0  0  0  0  0  0  0  0
   -2.7646   18.7244  -33.0199 H   0  0  0  0  0  0  0  0  0  0  0  0
   -5.4132   18.6909  -31.6376 H   0  0  0  0  0  0  0  0  0  0  0  0
   -4.9892   19.7777  -34.6599 H   0  0  0  0  0  0  0  0  0  0  0  0
   -5.9883   18.5855  -34.6608 H   0  0  0  0  0  0  0  0  0  0  0  0
   -6.3449   21.4140  -33.1221 H   0  0  0  0  0  0  0  0  0  0  0  0
   -7.5796   20.5060  -32.8558 H   0  0  0  0  0  0  0  0  0  0  0  0
   -5.2297   21.6231  -30.8859 H   0  0  0  0  0  0  0  0  0  0  0  0
  1  2  1  0
  2  3  2  0
  2  4  1  0
  4  5  2  0
  5  6  1  0
  6  7  2  0
  7  8  1  0
  8  9  2  0
  9 10  1  0
 10 11  1  0
 11 12  1  0
  9 13  1  0
 13 14  2  0
 14 15  1  0
 15 16  1  0
 16 17  2  0
 16 18  1  0
 18 19  2  0
 18 20  1  0
 15  4  1  0
 14  6  1  0
 12 10  1  0
  1 21  1  0
  5 22  1  0
  7 23  1  0
  8 24  1  0
 10 25  1  0
 11 26  1  0
 11 27  1  0
 12 28  1  0
 12 29  1  0
 13 30  1  0
M  CHG  2   1  -1  20  -1
M  END
>  <UniqueID>  (22) 
22

>  <SMILES>  (22) 
[NH-]C(=O)c1cc2ccc(C3CC3)cc2n1C(=O)C(=O)[O-]

>  <Energy>  (22) 
338.9597909298675

>  <Genealogy>  (22) 
[NH-]C(=O)c1cc2ccc(C3CC3)cc2n1C(=O)C(=O)[O-] (protonated)
[NH-]C(=O)c1cc2ccc(C3CC3)cc2n1C(=O)C(=O)[O-] (3D coordinates assigned)
[NH-]C(=O)c1cc2ccc(C3CC3)cc2n1C(=O)C(=O)[O-] (nonaromatic ring conformer: 338.9597909298675 kcal/mol)

>  <smiles>  (22) 
NC(=O)c1cc2ccc(C3CC3)cc2n1C(=O)C(=O)O

>  <score_type>  (22) 
oracle

>  <origin>  (22) 
adg

>  <m_score__min__energy>  (22) 
-10.609999999999999

>  <m_primary>  (22) 
energy

$$$$
24:0
     RDKit          3D

 46 47  0  0  0  0  0  0  0  0999 V2000
   -5.0460   17.7710  -35.3310 C   0  0  0  0  0  0  0  0  0  0  0  0
   -4.8080   17.9120  -33.8840 N   0  0  0  0  0  0  0  0  0  0  0  0
   -3.4730   17.3890  -33.5130 C   0  0  0  0  0  0  0  0  0  0  0  0
   -2.4250   18.5080  -33.5180 C   0  0  0  0  0  0  0  0  0  0  0  0
   -2.9330   19.6500  -34.1520 O   0  0  0  0  0  0  0  0  0  0  0  0
   -5.8860   17.2530  -33.1060 C   0  0  0  0  0  0  0  0  0  0  0  0
   -7.2220   17.9700  -33.3320 C   0  0  0  0  0  0  0  0  0  0  0  0
   -7.3140   19.2480  -32.5400 C   0  0  0  0  0  0  0  0  0  0  0  0
   -8.5200   19.5910  -31.8850 C   0  0  0  0  0  0  0  0  0  0  0  0
   -8.6480   20.8210  -31.2240 C   0  0  0  0  0  0  0  0  0  0  0  0
   -7.5550   21.6800  -31.2250 C   0  0  0  0  0  0  0  0  0  0  0  0
   -7.4270   22.9330  -30.6780 C   0  0  0  0  0  0  0  0  0  0  0  0
   -6.1380   23.3400  -30.9950 C   0  0  0  0  0  0  0  0  0  0  0  0
   -5.5900   24.6470  -30.6010 C   0  0  0  0  0  0  0  0  0  0  0  0
   -4.4480   24.7280  -29.7510 N   0  0  0  0  0  0  0  0  0  0  0  0
   -6.1090   25.7000  -31.0530 O   0  0  0  0  0  0  0  0  0  0  0  0
   -5.4740   22.3730  -31.6920 N   0  0  0  0  0  0  0  0  0  0  0  0
   -4.0760   22.3710  -32.0570 C   0  0  0  0  0  0  0  0  0  0  0  0
   -3.7140   21.9310  -33.1810 O   0  0  0  0  0  0  0  0  0  0  0  0
   -3.1190   22.8990  -31.1880 O   0  0  0  0  0  0  0  0  0  0  0  0
   -2.3050   22.0910  -30.3420 C   0  0  0  0  0  0  0  0  0  0  0  0
   -2.4980   22.4530  -28.9970 O   0  0  0  0  0  0  0  0  0  0  0  0
   -1.5680   23.9050  -28.6950 P   0  0  0  0  0  0  0  0  0  0  0  0
   -2.0150   25.2570  -29.3160 O   0  0  0  0  0  0  0  0  0  0  0  0
   -6.3670   21.3610  -31.8350 C   0  0  0  0  0  0  0  0  0  0  0  0
   -6.2220   20.1450  -32.5190 C   0  0  0  0  0  0  0  0  0  0  0  0
   -5.9816   17.2167  -35.4964 H   0  0  0  0  0  0  0  0  0  0  0  0
   -5.1248   18.7682  -35.7885 H   0  0  0  0  0  0  0  0  0  0  0  0
   -4.2093   17.2228  -35.7885 H   0  0  0  0  0  0  0  0  0  0  0  0
   -3.5257   16.9497  -32.5059 H   0  0  0  0  0  0  0  0  0  0  0  0
   -3.1771   16.6278  -34.2499 H   0  0  0  0  0  0  0  0  0  0  0  0
   -2.1569   18.7582  -32.4809 H   0  0  0  0  0  0  0  0  0  0  0  0
   -1.5358   18.1618  -34.0652 H   0  0  0  0  0  0  0  0  0  0  0  0
   -3.8200   19.8360  -33.7400 H   0  0  0  0  0  0  0  0  0  0  0  0
   -5.9776   16.2054  -33.4288 H   0  0  0  0  0  0  0  0  0  0  0  0
   -5.6331   17.2979  -32.0364 H   0  0  0  0  0  0  0  0  0  0  0  0
   -7.3224   18.2063  -34.4016 H   0  0  0  0  0  0  0  0  0  0  0  0
   -8.0288   17.3018  -32.9964 H   0  0  0  0  0  0  0  0  0  0  0  0
   -9.3648   18.8866  -31.8943 H   0  0  0  0  0  0  0  0  0  0  0  0
   -9.5855   21.0980  -30.7196 H   0  0  0  0  0  0  0  0  0  0  0  0
   -8.1838   23.4942  -30.1102 H   0  0  0  0  0  0  0  0  0  0  0  0
   -3.9520   23.8650  -29.4370 H   0  0  0  0  0  0  0  0  0  0  0  0
   -4.0810   25.6580  -29.4530 H   0  0  0  0  0  0  0  0  0  0  0  0
   -2.5771   21.0338  -30.4769 H   0  0  0  0  0  0  0  0  0  0  0  0
   -1.2483   22.2422  -30.6076 H   0  0  0  0  0  0  0  0  0  0  0  0
   -5.2793   19.8951  -33.0278 H   0  0  0  0  0  0  0  0  0  0  0  0
  1  2  1  0
  2  3  1  0
  3  4  1  0
  4  5  1  0
  2  6  1  0
  6  7  1  0
  7  8  1  0
  8  9  2  0
  9 10  1  0
 10 11  2  0
 11 12  1  0
 12 13  2  0
 13 14  1  0
 14 15  1  0
 14 16  2  0
 13 17  1  0
 17 18  1  0
 18 19  2  0
 18 20  1  0
 20 21  1  0
 21 22  1  0
 22 23  1  0
 23 24  2  0
 17 25  1  0
 25 26  2  0
 26  8  1  0
 25 11  1  0
  1 27  1  0
  1 28  1  0
  1 29  1  0
  3 30  1  0
  3 31  1  0
  4 32  1  0
  4 33  1  0
  5 34  1  0
  6 35  1  0
  6 36  1  0
  7 37  1  0
  7 38  1  0
  9 39  1  0
 10 40  1  0
 12 41  1  0
 15 42  1  0
 15 43  1  0
 21 44  1  0
 21 45  1  0
 26 46  1  0
M  END
>  <UniqueID>  (23) 
23

>  <SMILES>  (23) 
CN(CCO)CCc1ccc2cc(C(N)=O)n(C(=O)OCOP=O)c2c1

>  <Energy>  (23) 
83.580150915557

>  <Genealogy>  (23) 
CN(CCO)CCc1ccc2cc(C(N)=O)n(C(=O)OCOP=O)c2c1 (3D coordinates assigned)
CN(CCO)CCc1ccc2cc(C(N)=O)n(C(=O)OCOP=O)c2c1 (optimized conformer: 83.580150915557 kcal/mol)

>  <smiles>  (23) 
CN(CCO)CCc1ccc2cc(C(N)=O)n(C(=O)OCOP=O)c2c1

>  <score_type>  (23) 
oracle

>  <origin>  (23) 
adg

>  <m_score__min__energy>  (23) 
-7.5

>  <m_primary>  (23) 
energy

$$$$
25:0
     RDKit          3D

 48 50  0  0  0  0  0  0  0  0999 V2000
   -3.9710   13.7620  -31.9730 C   0  0  0  0  0  0  0  0  0  0  0  0
   -4.1060   13.4560  -33.4680 C   0  0  0  0  0  0  0  0  0  0  0  0
   -5.0400   14.3350  -34.2240 N   0  0  1  0  0  0  0  0  0  0  0  0
   -6.2280   13.6030  -34.7090 C   0  0  0  0  0  0  0  0  0  0  0  0
   -5.3820   15.6580  -33.6150 C   0  0  0  0  0  0  0  0  0  0  0  0
   -6.8540   16.0630  -33.8560 C   0  0  0  0  0  0  0  0  0  0  0  0
   -7.1910   17.3180  -33.0420 C   0  0  0  0  0  0  0  0  0  0  0  0
   -6.1940   18.3820  -33.2470 N   0  0  0  0  0  0  0  0  0  0  0  0
   -6.4520   19.6950  -32.7080 C   0  0  0  0  0  0  0  0  0  0  0  0
   -7.7830   20.1650  -32.5680 C   0  0  0  0  0  0  0  0  0  0  0  0
   -8.0430   21.4450  -32.0500 C   0  0  0  0  0  0  0  0  0  0  0  0
   -6.9580   22.2270  -31.6680 C   0  0  0  0  0  0  0  0  0  0  0  0
   -6.9250   23.5060  -31.1620 C   0  0  0  0  0  0  0  0  0  0  0  0
   -5.5750   23.7930  -30.9740 C   0  0  0  0  0  0  0  0  0  0  0  0
   -5.0900   25.0480  -30.3610 C   0  0  0  0  0  0  0  0  0  0  0  0
   -3.8930   25.6570  -30.8410 N   0  0  0  0  0  0  0  0  0  0  0  0
   -5.7400   25.6100  -29.4400 O   0  0  0  0  0  0  0  0  0  0  0  0
   -4.8020   22.7360  -31.3560 N   0  0  0  0  0  0  0  0  0  0  0  0
   -3.3680   22.6520  -31.3770 C   0  0  0  0  0  0  0  0  0  0  0  0
   -2.6870   23.1560  -30.4460 O   0  0  0  0  0  0  0  0  0  0  0  0
   -2.7170   22.0330  -32.4370 O   0  0  0  0  0  0  0  0  0  0  0  0
   -5.6660   21.7840  -31.7750 C   0  0  0  0  0  0  0  0  0  0  0  0
   -5.3760   20.5220  -32.3060 C   0  0  0  0  0  0  0  0  0  0  0  0
   -5.0750   18.1750  -34.1780 C   0  0  0  0  0  0  0  0  0  0  0  0
   -4.3900   16.8190  -33.9410 C   0  0  0  0  0  0  0  0  0  0  0  0
   -4.3472   12.9093  -31.3888 H   0  0  0  0  0  0  0  0  0  0  0  0
   -2.9127   13.9357  -31.7284 H   0  0  0  0  0  0  0  0  0  0  0  0
   -4.5562   14.6608  -31.7284 H   0  0  0  0  0  0  0  0  0  0  0  0
   -3.1093   13.5502  -33.9238 H   0  0  0  0  0  0  0  0  0  0  0  0
   -4.5303   12.4430  -33.5301 H   0  0  0  0  0  0  0  0  0  0  0  0
   -4.5130   14.5720  -35.1000 H   0  0  0  0  0  0  0  0  0  0  0  0
   -6.8127   13.2427  -33.8498 H   0  0  0  0  0  0  0  0  0  0  0  0
   -6.8491   14.2753  -35.3192 H   0  0  0  0  0  0  0  0  0  0  0  0
   -5.9068   12.7460  -35.3192 H   0  0  0  0  0  0  0  0  0  0  0  0
   -5.2582   15.4884  -32.5352 H   0  0  0  0  0  0  0  0  0  0  0  0
   -7.0044   16.2710  -34.9256 H   0  0  0  0  0  0  0  0  0  0  0  0
   -7.5119   15.2398  -33.5406 H   0  0  0  0  0  0  0  0  0  0  0  0
   -8.1787   17.6899  -33.3522 H   0  0  0  0  0  0  0  0  0  0  0  0
   -7.1899   17.0468  -31.9760 H   0  0  0  0  0  0  0  0  0  0  0  0
   -8.6216   19.5197  -32.8685 H   0  0  0  0  0  0  0  0  0  0  0  0
   -9.0732   21.8173  -31.9496 H   0  0  0  0  0  0  0  0  0  0  0  0
   -7.7822   24.1622  -30.9509 H   0  0  0  0  0  0  0  0  0  0  0  0
   -2.9560   25.2910  -30.5610 H   0  0  0  0  0  0  0  0  0  0  0  0
   -4.3354   20.1806  -32.4086 H   0  0  0  0  0  0  0  0  0  0  0  0
   -5.4569   18.2075  -35.2091 H   0  0  0  0  0  0  0  0  0  0  0  0
   -4.3341   18.9706  -34.0103 H   0  0  0  0  0  0  0  0  0  0  0  0
   -3.8291   16.5509  -34.8485 H   0  0  0  0  0  0  0  0  0  0  0  0
   -3.7390   16.9391  -33.0625 H   0  0  0  0  0  0  0  0  0  0  0  0
  1  2  1  0
  2  3  1  0
  3  4  1  0
  3  5  1  0
  5  6  1  0
  6  7  1  0
  7  8  1  0
  8  9  1  0
  9 10  2  0
 10 11  1  0
 11 12  2  0
 12 13  1  0
 13 14  2  0
 14 15  1  0
 15 16  1  0
 15 17  2  0
 14 18  1  0
 18 19  1  0
 19 20  2  0
 19 21  1  0
 18 22  1  0
 22 23  2  0
  8 24  1  0
 24 25  1  0
 25  5  1  0
 23  9  1  0
 22 12  1  0
  1 26  1  0
  1 27  1  0
  1 28  1  0
  2 29  1  0
  2 30  1  0
  3 31  1  6
  4 32  1  0
  4 33  1  0
  4 34  1  0
  5 35  1  0
  6 36  1  0
  6 37  1  0
  7 38  1  0
  7 39  1  0
 10 40  1  0
 11 41  1  0
 13 42  1  0
 16 43  1  0
 23 44  1  0
 24 45  1  0
 24 46  1  0
 25 47  1  0
 25 48  1  0
M  CHG  3   3   1  16  -1  21  -1
M  END
>  <UniqueID>  (24) 
24

>  <SMILES>  (24) 
CC[N@@H+](C)C1CCN(c2ccc3cc(C([NH-])=O)n(C(=O)[O-])c3c2)CC1

>  <Energy>  (24) 
105.30083182727095

>  <Genealogy>  (24) 
CC[NH+](C)C1CCN(c2ccc3cc(C([NH-])=O)n(C(=O)[O-])c3c2)CC1 (protonated)
CC[N@@H+](C)C1CCN(c2ccc3cc(C([NH-])=O)n(C(=O)[O-])c3c2)CC1 (chirality)
CC[N@@H+](C)C1CCN(c2ccc3cc(C([NH-])=O)n(C(=O)[O-])c3c2)CC1 (3D coordinates assigned)
CC[N@@H+](C)C1CCN(c2ccc3cc(C([NH-])=O)n(C(=O)[O-])c3c2)CC1 (nonaromatic ring conformer: 105.30083182727095 kcal/mol)

>  <smiles>  (24) 
CCN(C)C1CCN(c2ccc3cc(C(N)=O)n(C(=O)O)c3c2)CC1

>  <score_type>  (24) 
oracle

>  <origin>  (24) 
adg

>  <m_score__min__energy>  (24) 
-10.380000000000001

>  <m_primary>  (24) 
energy

$$$$
26:0
     RDKit          3D

 52 53  0  0  0  0  0  0  0  0999 V2000
   -3.2640   20.0610  -33.5140 C   0  0  0  0  0  0  0  0  0  0  0  0
   -3.7160   18.9410  -34.0750 C   0  0  0  0  0  0  0  0  0  0  0  0
   -5.0070   18.3190  -33.7180 C   0  0  0  0  0  0  0  0  0  0  0  0
   -5.7890   17.9790  -34.6490 O   0  0  0  0  0  0  0  0  0  0  0  0
   -5.3700   18.0760  -32.3500 N   0  0  0  0  0  0  0  0  0  0  0  0
   -6.7460   17.7910  -31.9410 C   0  0  0  0  0  0  0  0  0  0  0  0
   -7.7320   18.6720  -32.7150 C   0  0  0  0  0  0  0  0  0  0  0  0
   -7.7180   20.0890  -32.2010 C   0  0  0  0  0  0  0  0  0  0  0  0
   -8.9190   20.8390  -32.1420 C   0  0  0  0  0  0  0  0  0  0  0  0
   -8.9020   22.1840  -31.7340 C   0  0  0  0  0  0  0  0  0  0  0  0
   -7.6760   22.7470  -31.3950 C   0  0  0  0  0  0  0  0  0  0  0  0
   -7.3660   24.0380  -31.0330 C   0  0  0  0  0  0  0  0  0  0  0  0
   -5.9830   24.0540  -30.8640 C   0  0  0  0  0  0  0  0  0  0  0  0
   -5.2280   25.2570  -30.4490 C   0  0  0  0  0  0  0  0  0  0  0  0
   -3.8670   25.4490  -30.8300 N   0  0  0  0  0  0  0  0  0  0  0  0
   -5.7890   26.1230  -29.7240 O   0  0  0  0  0  0  0  0  0  0  0  0
   -5.4620   22.8150  -31.0950 N   0  0  0  0  0  0  0  0  0  0  0  0
   -4.0800   22.4240  -31.0730 C   0  0  0  0  0  0  0  0  0  0  0  0
   -3.2490   23.0400  -31.7920 O   0  0  0  0  0  0  0  0  0  0  0  0
   -3.6030   21.2960  -30.2020 C   0  0  0  0  0  0  0  0  0  0  0  0
   -2.2080   21.5630  -29.6130 C   0  0  0  0  0  0  0  0  0  0  0  0
   -2.2230   22.4320  -28.3410 C   0  0  0  0  0  0  0  0  0  0  0  0
   -2.7120   23.8030  -28.6080 N   0  0  0  0  0  0  0  0  0  0  0  0
   -3.7860   24.1790  -27.6700 C   0  0  0  0  0  0  0  0  0  0  0  0
   -1.6070   24.7710  -28.5070 C   0  0  0  0  0  0  0  0  0  0  0  0
   -6.5090   22.0300  -31.4290 C   0  0  0  0  0  0  0  0  0  0  0  0
   -6.4930   20.6960  -31.8470 C   0  0  0  0  0  0  0  0  0  0  0  0
   -2.2933   20.4773  -33.8215 H   0  0  0  0  0  0  0  0  0  0  0  0
   -3.8613   20.5699  -32.7431 H   0  0  0  0  0  0  0  0  0  0  0  0
   -3.0966   18.4547  -34.8430 H   0  0  0  0  0  0  0  0  0  0  0  0
   -4.6170   17.9710  -31.6370 H   0  0  0  0  0  0  0  0  0  0  0  0
   -6.9713   16.7333  -32.1423 H   0  0  0  0  0  0  0  0  0  0  0  0
   -6.8480   18.0039  -30.8666 H   0  0  0  0  0  0  0  0  0  0  0  0
   -7.4526   18.6737  -33.7789 H   0  0  0  0  0  0  0  0  0  0  0  0
   -8.7441   18.2629  -32.5799 H   0  0  0  0  0  0  0  0  0  0  0  0
   -9.8724   20.3647  -32.4178 H   0  0  0  0  0  0  0  0  0  0  0  0
   -9.8296   22.7732  -31.6843 H   0  0  0  0  0  0  0  0  0  0  0  0
   -8.0627   24.8794  -30.9043 H   0  0  0  0  0  0  0  0  0  0  0  0
   -3.1190   24.7970  -30.5040 H   0  0  0  0  0  0  0  0  0  0  0  0
   -4.3161   21.1615  -29.3754 H   0  0  0  0  0  0  0  0  0  0  0  0
   -3.5372   20.3931  -30.8269 H   0  0  0  0  0  0  0  0  0  0  0  0
   -1.7454   20.5960  -29.3663 H   0  0  0  0  0  0  0  0  0  0  0  0
   -1.6417   22.1204  -30.3737 H   0  0  0  0  0  0  0  0  0  0  0  0
   -2.8809   21.9596  -27.5967 H   0  0  0  0  0  0  0  0  0  0  0  0
   -1.1900   22.5074  -27.9706 H   0  0  0  0  0  0  0  0  0  0  0  0
   -3.4304   24.0545  -26.6365 H   0  0  0  0  0  0  0  0  0  0  0  0
   -4.0676   25.2292  -27.8369 H   0  0  0  0  0  0  0  0  0  0  0  0
   -4.6611   23.5338  -27.8369 H   0  0  0  0  0  0  0  0  0  0  0  0
   -1.3854   24.9652  -27.4472 H   0  0  0  0  0  0  0  0  0  0  0  0
   -0.7133   24.3599  -28.9992 H   0  0  0  0  0  0  0  0  0  0  0  0
   -1.8969   25.7111  -28.9992 H   0  0  0  0  0  0  0  0  0  0  0  0
   -5.5494   20.1330  -31.8989 H   0  0  0  0  0  0  0  0  0  0  0  0
  1  2  2  0
  2  3  1  0
  3  4  2  0
  3  5  1  0
  5  6  1  0
  6  7  1  0
  7  8  1  0
  8  9  2  0
  9 10  1  0
 10 11  2  0
 11 12  1  0
 12 13  2  0
 13 14  1  0
 14 15  1  0
 14 16  2  0
 13 17  1  0
 17 18  1  0
 18 19  2  0
 18 20  1  0
 20 21  1  0
 21 22  1  0
 22 23  1  0
 23 24  1  0
 23 25  1  0
 17 26  1  0
 26 27  2  0
 27  8  1  0
 26 11  1  0
  1 28  1  0
  1 29  1  0
  2 30  1  0
  5 31  1  0
  6 32  1  0
  6 33  1  0
  7 34  1  0
  7 35  1  0
  9 36  1  0
 10 37  1  0
 12 38  1  0
 15 39  1  0
 20 40  1  0
 20 41  1  0
 21 42  1  0
 21 43  1  0
 22 44  1  0
 22 45  1  0
 24 46  1  0
 24 47  1  0
 24 48  1  0
 25 49  1  0
 25 50  1  0
 25 51  1  0
 27 52  1  0
M  CHG  1  15  -1
M  END
>  <UniqueID>  (25) 
25

>  <SMILES>  (25) 
C=CC(=O)NCCc1ccc2cc(C([NH-])=O)n(C(=O)CCCN(C)C)c2c1

>  <Energy>  (25) 
80.22764840017146

>  <Genealogy>  (25) 
C=CC(=O)NCCc1ccc2cc(C([NH-])=O)n(C(=O)CCCN(C)C)c2c1 (protonated)
C=CC(=O)NCCc1ccc2cc(C([NH-])=O)n(C(=O)CCCN(C)C)c2c1 (3D coordinates assigned)
C=CC(=O)NCCc1ccc2cc(C([NH-])=O)n(C(=O)CCCN(C)C)c2c1 (optimized conformer: 80.22764840017146 kcal/mol)

>  <smiles>  (25) 
C=CC(=O)NCCc1ccc2cc(C(N)=O)n(C(=O)CCCN(C)C)c2c1

>  <score_type>  (25) 
oracle

>  <origin>  (25) 
adg

>  <m_score__min__energy>  (25) 
-11.130000000000001

>  <m_primary>  (25) 
energy

$$$$
27:0
     RDKit          3D

 46 48  0  0  0  0  0  0  0  0999 V2000
   -3.8840   25.5470  -30.8490 N   0  0  0  0  0  0  0  0  0  0  0  0
   -5.1760   25.2230  -30.3430 C   0  0  0  0  0  0  0  0  0  0  0  0
   -5.7670   26.0430  -29.5910 O   0  0  0  0  0  0  0  0  0  0  0  0
   -5.8520   23.9660  -30.7310 C   0  0  0  0  0  0  0  0  0  0  0  0
   -7.2280   23.8650  -30.9200 C   0  0  0  0  0  0  0  0  0  0  0  0
   -7.4430   22.5790  -31.3600 C   0  0  0  0  0  0  0  0  0  0  0  0
   -8.6300   21.9330  -31.6870 C   0  0  0  0  0  0  0  0  0  0  0  0
   -8.5600   20.5870  -32.0830 C   0  0  0  0  0  0  0  0  0  0  0  0
   -7.3120   19.9150  -32.1550 C   0  0  0  0  0  0  0  0  0  0  0  0
   -7.2560   18.4540  -32.5230 C   0  0  0  0  0  0  0  0  0  0  0  0
   -8.5120   17.8980  -32.3680 F   0  0  0  0  0  0  0  0  0  0  0  0
   -6.3620   17.7800  -31.7090 F   0  0  0  0  0  0  0  0  0  0  0  0
   -6.8510   18.2950  -33.8360 F   0  0  0  0  0  0  0  0  0  0  0  0
   -6.1310   20.6010  -31.7900 C   0  0  0  0  0  0  0  0  0  0  0  0
   -6.2280   21.9480  -31.4190 C   0  0  0  0  0  0  0  0  0  0  0  0
   -5.2400   22.7850  -31.0310 N   0  0  0  0  0  0  0  0  0  0  0  0
   -3.8480   22.4570  -30.9000 C   0  0  0  0  0  0  0  0  0  0  0  0
   -2.9680   23.3070  -31.2030 O   0  0  0  0  0  0  0  0  0  0  0  0
   -3.4630   21.1700  -30.4120 N   0  0  0  0  0  0  0  0  0  0  0  0
   -2.0740   20.7770  -30.2140 C   0  0  0  0  0  0  0  0  0  0  0  0
   -1.6550   21.0110  -28.7560 C   0  0  0  0  0  0  0  0  0  0  0  0
   -1.6600   22.4490  -28.3980 N   0  0  0  0  0  0  0  0  0  0  0  0
   -2.7790   22.7530  -27.4790 C   0  0  0  0  0  0  0  0  0  0  0  0
   -3.1710   24.2270  -27.6050 C   0  0  0  0  0  0  0  0  0  0  0  0
   -1.7120   25.2480  -27.5840 S   0  0  0  0  0  0  0  0  0  0  0  0
   -1.8860   26.3900  -26.6240 O   0  0  0  0  0  0  0  0  0  0  0  0
   -1.4360   25.7820  -28.9620 O   0  0  0  0  0  0  0  0  0  0  0  0
   -0.3700   24.2050  -27.0600 C   0  0  0  0  0  0  0  0  0  0  0  0
   -0.3420   22.8770  -27.8480 C   0  0  0  0  0  0  0  0  0  0  0  0
   -3.0210   25.2870  -30.3240 H   0  0  0  0  0  0  0  0  0  0  0  0
   -7.9830   24.6474  -30.7530 H   0  0  0  0  0  0  0  0  0  0  0  0
   -9.5944   22.4598  -31.6371 H   0  0  0  0  0  0  0  0  0  0  0  0
   -9.4834   20.0475  -32.3403 H   0  0  0  0  0  0  0  0  0  0  0  0
   -5.1578   20.0883  -31.7972 H   0  0  0  0  0  0  0  0  0  0  0  0
   -1.9609   19.7102  -30.4570 H   0  0  0  0  0  0  0  0  0  0  0  0
   -1.4340   21.3840  -30.8713 H   0  0  0  0  0  0  0  0  0  0  0  0
   -2.3557   20.4788  -28.0959 H   0  0  0  0  0  0  0  0  0  0  0  0
   -0.6283   20.6354  -28.6344 H   0  0  0  0  0  0  0  0  0  0  0  0
   -3.6432   22.1226  -27.7355 H   0  0  0  0  0  0  0  0  0  0  0  0
   -2.4639   22.5493  -26.4450 H   0  0  0  0  0  0  0  0  0  0  0  0
   -3.7101   24.3811  -28.5514 H   0  0  0  0  0  0  0  0  0  0  0  0
   -3.8174   24.5028  -26.7588 H   0  0  0  0  0  0  0  0  0  0  0  0
    0.5795   24.7364  -27.2218 H   0  0  0  0  0  0  0  0  0  0  0  0
   -0.5118   23.9704  -25.9947 H   0  0  0  0  0  0  0  0  0  0  0  0
    0.3584   22.9923  -28.6883 H   0  0  0  0  0  0  0  0  0  0  0  0
   -0.0372   22.0987  -27.1329 H   0  0  0  0  0  0  0  0  0  0  0  0
  1  2  1  0
  2  3  2  0
  2  4  1  0
  4  5  2  0
  5  6  1  0
  6  7  2  0
  7  8  1  0
  8  9  2  0
  9 10  1  0
 10 11  1  0
 10 12  1  0
 10 13  1  0
  9 14  1  0
 14 15  2  0
 15 16  1  0
 16 17  1  0
 17 18  2  0
 17 19  1  0
 19 20  1  0
 20 21  1  0
 21 22  1  0
 22 23  1  0
 23 24  1  0
 24 25  1  0
 25 26  2  0
 25 27  2  0
 25 28  1  0
 28 29  1  0
 16  4  1  0
 29 22  1  0
 15  6  1  0
  1 30  1  0
  5 31  1  0
  7 32  1  0
  8 33  1  0
 14 34  1  0
 20 35  1  0
 20 36  1  0
 21 37  1  0
 21 38  1  0
 23 39  1  0
 23 40  1  0
 24 41  1  0
 24 42  1  0
 28 43  1  0
 28 44  1  0
 29 45  1  0
 29 46  1  0
M  CHG  2   1  -1  19  -1
M  END
>  <UniqueID>  (26) 
26

>  <SMILES>  (26) 
[NH-]C(=O)c1cc2ccc(C(F)(F)F)cc2n1C(=O)[N-]CCN1CCS(=O)(=O)CC1

>  <Energy>  (26) 
86.72502884849439

>  <Genealogy>  (26) 
[NH-]C(=O)c1cc2ccc(C(F)(F)F)cc2n1C(=O)[N-]CCN1CCS(=O)(=O)CC1 (protonated)
[NH-]C(=O)c1cc2ccc(C(F)(F)F)cc2n1C(=O)[N-]CCN1CCS(=O)(=O)CC1 (3D coordinates assigned)
[NH-]C(=O)c1cc2ccc(C(F)(F)F)cc2n1C(=O)[N-]CCN1CCS(=O)(=O)CC1 (nonaromatic ring conformer: 86.72502884849439 kcal/mol)

>  <smiles>  (26) 
NC(=O)c1cc2ccc(C(F)(F)F)cc2n1C(=O)NCCN1CCS(=O)(=O)CC1

>  <score_type>  (26) 
oracle

>  <origin>  (26) 
adg

>  <m_score__min__energy>  (26) 
-11.84

>  <m_primary>  (26) 
energy

$$$$
28:0
     RDKit          3D

 40 42  0  0  0  0  0  0  0  0999 V2000
   -7.2240   17.2620  -32.8400 C   0  0  0  0  0  0  0  0  0  0  0  0
   -6.6330   18.4830  -33.4000 N   0  0  0  0  0  0  0  0  0  0  0  0
   -5.7590   18.3750  -34.5750 C   0  0  0  0  0  0  0  0  0  0  0  0
   -6.9050   19.7750  -32.8000 C   0  0  0  0  0  0  0  0  0  0  0  0
   -8.2440   20.2000  -32.5600 C   0  0  0  0  0  0  0  0  0  0  0  0
   -8.5170   21.4480  -31.9740 C   0  0  0  0  0  0  0  0  0  0  0  0
   -7.4410   22.2650  -31.6470 C   0  0  0  0  0  0  0  0  0  0  0  0
   -7.4150   23.4960  -31.0300 C   0  0  0  0  0  0  0  0  0  0  0  0
   -6.0650   23.8270  -30.9260 C   0  0  0  0  0  0  0  0  0  0  0  0
   -5.5700   25.0780  -30.3160 C   0  0  0  0  0  0  0  0  0  0  0  0
   -6.1440   25.6010  -29.1170 N   0  0  0  0  0  0  0  0  0  0  0  0
   -4.5920   25.6750  -30.8410 O   0  0  0  0  0  0  0  0  0  0  0  0
   -5.2920   22.8410  -31.4580 N   0  0  0  0  0  0  0  0  0  0  0  0
   -3.8630   22.7360  -31.4180 C   0  0  0  0  0  0  0  0  0  0  0  0
   -3.1860   23.6590  -30.8880 O   0  0  0  0  0  0  0  0  0  0  0  0
   -3.1980   21.6010  -31.9920 N   0  0  0  0  0  0  0  0  0  0  0  0
   -2.5610   20.5500  -31.2080 C   0  0  0  0  0  0  0  0  0  0  0  0
   -1.8650   19.7260  -32.2350 C   0  0  0  0  0  0  0  0  0  0  0  0
   -2.0500   20.2340  -33.4470 C   0  0  0  0  0  0  0  0  0  0  0  0
   -1.5290   19.6950  -34.5800 F   0  0  0  0  0  0  0  0  0  0  0  0
   -2.8940   21.4560  -33.4100 C   0  0  0  0  0  0  0  0  0  0  0  0
   -6.1480   21.8890  -31.8860 C   0  0  0  0  0  0  0  0  0  0  0  0
   -5.8420   20.6420  -32.4390 C   0  0  0  0  0  0  0  0  0  0  0  0
   -7.1992   17.3131  -31.7415 H   0  0  0  0  0  0  0  0  0  0  0  0
   -8.2663   17.1701  -33.1794 H   0  0  0  0  0  0  0  0  0  0  0  0
   -6.6494   16.3875  -33.1794 H   0  0  0  0  0  0  0  0  0  0  0  0
   -4.7171   18.2463  -34.2464 H   0  0  0  0  0  0  0  0  0  0  0  0
   -6.0627   17.5076  -35.1794 H   0  0  0  0  0  0  0  0  0  0  0  0
   -5.8424   19.2903  -35.1794 H   0  0  0  0  0  0  0  0  0  0  0  0
   -9.0786   19.5396  -32.8383 H   0  0  0  0  0  0  0  0  0  0  0  0
   -9.5512   21.7686  -31.7800 H   0  0  0  0  0  0  0  0  0  0  0  0
   -8.2760   24.0911  -30.6915 H   0  0  0  0  0  0  0  0  0  0  0  0
   -6.8100   25.0400  -28.5440 H   0  0  0  0  0  0  0  0  0  0  0  0
   -5.8180   26.5180  -28.7410 H   0  0  0  0  0  0  0  0  0  0  0  0
   -1.8427   20.9744  -30.4911 H   0  0  0  0  0  0  0  0  0  0  0  0
   -3.2762   19.9707  -30.6055 H   0  0  0  0  0  0  0  0  0  0  0  0
   -1.2784   18.8210  -32.0187 H   0  0  0  0  0  0  0  0  0  0  0  0
   -2.3420   22.3294  -33.7874 H   0  0  0  0  0  0  0  0  0  0  0  0
   -3.7921   21.3820  -34.0408 H   0  0  0  0  0  0  0  0  0  0  0  0
   -4.7957   20.3386  -32.5914 H   0  0  0  0  0  0  0  0  0  0  0  0
  1  2  1  0
  2  3  1  0
  2  4  1  0
  4  5  2  0
  5  6  1  0
  6  7  2  0
  7  8  1  0
  8  9  2  0
  9 10  1  0
 10 11  1  0
 10 12  2  0
  9 13  1  0
 13 14  1  0
 14 15  2  0
 14 16  1  0
 16 17  1  0
 17 18  1  0
 18 19  2  0
 19 20  1  0
 19 21  1  0
 13 22  1  0
 22 23  2  0
 23  4  1  0
 22  7  1  0
 21 16  1  0
  1 24  1  0
  1 25  1  0
  1 26  1  0
  3 27  1  0
  3 28  1  0
  3 29  1  0
  5 30  1  0
  6 31  1  0
  8 32  1  0
 11 33  1  0
 11 34  1  0
 17 35  1  0
 17 36  1  0
 18 37  1  0
 21 38  1  0
 21 39  1  0
 23 40  1  0
M  END
>  <UniqueID>  (27) 
27

>  <SMILES>  (27) 
CN(C)c1ccc2cc(C(N)=O)n(C(=O)N3CC=C(F)C3)c2c1

>  <Energy>  (27) 
88.32791296999255

>  <Genealogy>  (27) 
CN(C)c1ccc2cc(C(N)=O)n(C(=O)N3CC=C(F)C3)c2c1 (3D coordinates assigned)
CN(C)c1ccc2cc(C(N)=O)n(C(=O)N3CC=C(F)C3)c2c1 (nonaromatic ring conformer: 88.32791296999255 kcal/mol)

>  <smiles>  (27) 
CN(C)c1ccc2cc(C(N)=O)n(C(=O)N3CC=C(F)C3)c2c1

>  <score_type>  (27) 
oracle

>  <origin>  (27) 
adg

>  <m_score__min__energy>  (27) 
-9.0299999999999994

>  <m_primary>  (27) 
energy

$$$$
29:0
     RDKit          3D

 42 43  0  0  0  0  0  0  0  0999 V2000
   -1.5370   25.5100  -28.9170 N   0  0  0  0  0  0  0  0  0  0  0  0
   -2.1850   24.6430  -28.5070 C   0  0  0  0  0  0  0  0  0  0  0  0
   -3.0030   23.5410  -27.9870 C   0  0  0  0  0  0  0  0  0  0  0  0
   -3.2010   22.4620  -29.0470 C   0  0  0  0  0  0  0  0  0  0  0  0
   -2.9310   22.9970  -30.3400 O   0  0  0  0  0  0  0  0  0  0  0  0
   -3.7260   22.7220  -31.4560 C   0  0  0  0  0  0  0  0  0  0  0  0
   -3.2040   22.2760  -32.5140 O   0  0  0  0  0  0  0  0  0  0  0  0
   -5.1470   22.9150  -31.3810 N   0  0  0  0  0  0  0  0  0  0  0  0
   -5.8270   24.0400  -31.0150 C   0  0  0  0  0  0  0  0  0  0  0  0
   -5.2290   25.2780  -30.4730 C   0  0  0  0  0  0  0  0  0  0  0  0
   -3.9090   25.6560  -30.8580 N   0  0  0  0  0  0  0  0  0  0  0  0
   -5.8850   26.0290  -29.7040 O   0  0  0  0  0  0  0  0  0  0  0  0
   -7.2000   23.8450  -31.1420 C   0  0  0  0  0  0  0  0  0  0  0  0
   -7.3460   22.5520  -31.5920 C   0  0  0  0  0  0  0  0  0  0  0  0
   -8.4990   21.8380  -31.9050 C   0  0  0  0  0  0  0  0  0  0  0  0
   -8.3520   20.5250  -32.3800 C   0  0  0  0  0  0  0  0  0  0  0  0
   -7.0640   19.9520  -32.5300 C   0  0  0  0  0  0  0  0  0  0  0  0
   -6.9100   18.5650  -33.0900 C   0  0  0  0  0  0  0  0  0  0  0  0
   -5.6670   18.4900  -33.9210 C   0  0  0  0  0  0  0  0  0  0  0  0
   -5.7550   18.5460  -35.1770 O   0  0  0  0  0  0  0  0  0  0  0  0
   -4.3920   18.3110  -33.2890 N   0  0  0  0  0  0  0  0  0  0  0  0
   -3.1720   18.0160  -34.0390 C   0  0  0  0  0  0  0  0  0  0  0  0
   -2.1230   19.1060  -33.8150 C   0  0  0  0  0  0  0  0  0  0  0  0
   -0.9850   18.8420  -34.5550 F   0  0  0  0  0  0  0  0  0  0  0  0
   -1.7870   19.1690  -32.4730 F   0  0  0  0  0  0  0  0  0  0  0  0
   -2.6390   20.3270  -34.2070 F   0  0  0  0  0  0  0  0  0  0  0  0
   -5.9160   20.7120  -32.2130 C   0  0  0  0  0  0  0  0  0  0  0  0
   -6.0930   22.0120  -31.7260 C   0  0  0  0  0  0  0  0  0  0  0  0
   -2.4998   23.1000  -27.1139 H   0  0  0  0  0  0  0  0  0  0  0  0
   -3.9883   23.9389  -27.7026 H   0  0  0  0  0  0  0  0  0  0  0  0
   -2.5154   21.6251  -28.8481 H   0  0  0  0  0  0  0  0  0  0  0  0
   -4.2414   22.1066  -29.0121 H   0  0  0  0  0  0  0  0  0  0  0  0
   -3.0730   25.1960  -30.4330 H   0  0  0  0  0  0  0  0  0  0  0  0
   -7.9988   24.5704  -30.9281 H   0  0  0  0  0  0  0  0  0  0  0  0
   -9.4951   22.2887  -31.7839 H   0  0  0  0  0  0  0  0  0  0  0  0
   -9.2442   19.9356  -32.6381 H   0  0  0  0  0  0  0  0  0  0  0  0
   -6.8409   17.8427  -32.2632 H   0  0  0  0  0  0  0  0  0  0  0  0
   -7.7818   18.3272  -33.7173 H   0  0  0  0  0  0  0  0  0  0  0  0
   -4.3290   18.3790  -32.2470 H   0  0  0  0  0  0  0  0  0  0  0  0
   -2.7665   17.0501  -33.7034 H   0  0  0  0  0  0  0  0  0  0  0  0
   -3.4167   17.9755  -35.1107 H   0  0  0  0  0  0  0  0  0  0  0  0
   -4.9079   20.2923  -32.3457 H   0  0  0  0  0  0  0  0  0  0  0  0
  1  2  3  0
  2  3  1  0
  3  4  1  0
  4  5  1  0
  5  6  1  0
  6  7  2  0
  6  8  1  0
  8  9  1  0
  9 10  1  0
 10 11  1  0
 10 12  2  0
  9 13  2  0
 13 14  1  0
 14 15  2  0
 15 16  1  0
 16 17  2  0
 17 18  1  0
 18 19  1  0
 19 20  2  0
 19 21  1  0
 21 22  1  0
 22 23  1  0
 23 24  1  0
 23 25  1  0
 23 26  1  0
 17 27  1  0
 27 28  2  0
 28  8  1  0
 28 14  1  0
  3 29  1  0
  3 30  1  0
  4 31  1  0
  4 32  1  0
 11 33  1  0
 13 34  1  0
 15 35  1  0
 16 36  1  0
 18 37  1  0
 18 38  1  0
 21 39  1  0
 22 40  1  0
 22 41  1  0
 27 42  1  0
M  CHG  1  11  -1
M  END
>  <UniqueID>  (28) 
28

>  <SMILES>  (28) 
N#CCCOC(=O)n1c(C([NH-])=O)cc2ccc(CC(=O)NCC(F)(F)F)cc21

>  <Energy>  (28) 
67.62581732627437

>  <Genealogy>  (28) 
N#CCCOC(=O)n1c(C([NH-])=O)cc2ccc(CC(=O)NCC(F)(F)F)cc21 (protonated)
N#CCCOC(=O)n1c(C([NH-])=O)cc2ccc(CC(=O)NCC(F)(F)F)cc21 (3D coordinates assigned)
N#CCCOC(=O)n1c(C([NH-])=O)cc2ccc(CC(=O)NCC(F)(F)F)cc21 (optimized conformer: 67.62581732627437 kcal/mol)

>  <smiles>  (28) 
N#CCCOC(=O)n1c(C(N)=O)cc2ccc(CC(=O)NCC(F)(F)F)cc21

>  <score_type>  (28) 
oracle

>  <origin>  (28) 
adg

>  <m_score__min__energy>  (28) 
-10.220000000000001

>  <m_primary>  (28) 
energy

$$$$
30:0
     RDKit          3D

 38 39  0  0  0  0  0  0  0  0999 V2000
   -5.0730   16.3400  -33.1110 C   0  0  0  0  0  0  0  0  0  0  0  0
   -5.9350   17.5170  -32.7590 C   0  0  0  0  0  0  0  0  0  0  0  0
   -7.3370   17.3600  -32.6380 C   0  0  0  0  0  0  0  0  0  0  0  0
   -8.1600   18.4660  -32.3670 C   0  0  0  0  0  0  0  0  0  0  0  0
   -7.5530   19.7090  -32.2140 C   0  0  0  0  0  0  0  0  0  0  0  0
   -8.1140   20.9510  -32.0230 C   0  0  0  0  0  0  0  0  0  0  0  0
   -7.0450   21.8440  -32.0080 C   0  0  0  0  0  0  0  0  0  0  0  0
   -7.2150   23.3110  -31.8950 C   0  0  0  0  0  0  0  0  0  0  0  0
   -6.1110   24.2140  -31.9810 N   0  0  0  0  0  0  0  0  0  0  0  0
   -8.3670   23.7770  -31.6830 O   0  0  0  0  0  0  0  0  0  0  0  0
   -5.8650   21.1770  -32.1690 N   0  0  0  0  0  0  0  0  0  0  0  0
   -4.5570   21.7480  -32.3310 C   0  0  0  0  0  0  0  0  0  0  0  0
   -4.1380   22.0050  -33.4910 O   0  0  0  0  0  0  0  0  0  0  0  0
   -3.6890   22.1060  -31.1530 C   0  0  0  0  0  0  0  0  0  0  0  0
   -3.0930   23.4370  -31.2860 N   0  0  0  0  0  0  0  0  0  0  0  0
   -3.7080   24.5480  -30.0950 S   0  0  0  0  0  0  0  0  0  0  0  0
   -2.5730   25.1840  -29.3450 O   0  0  0  0  0  0  0  0  0  0  0  0
   -4.4810   25.6270  -30.7990 O   0  0  0  0  0  0  0  0  0  0  0  0
   -4.7890   23.7180  -28.9320 C   0  0  0  0  0  0  0  0  0  0  0  0
   -4.0560   23.2980  -27.6580 C   0  0  0  0  0  0  0  0  0  0  0  0
   -2.7140   23.1260  -27.9420 F   0  0  0  0  0  0  0  0  0  0  0  0
   -4.5640   22.1040  -27.1790 F   0  0  0  0  0  0  0  0  0  0  0  0
   -4.1830   24.2730  -26.6840 F   0  0  0  0  0  0  0  0  0  0  0  0
   -6.1960   19.8750  -32.3150 C   0  0  0  0  0  0  0  0  0  0  0  0
   -5.3570   18.7980  -32.6230 C   0  0  0  0  0  0  0  0  0  0  0  0
   -4.7187   15.8562  -32.1888 H   0  0  0  0  0  0  0  0  0  0  0  0
   -5.6589   15.6199  -33.7011 H   0  0  0  0  0  0  0  0  0  0  0  0
   -4.2097   16.6812  -33.7011 H   0  0  0  0  0  0  0  0  0  0  0  0
   -7.7860   16.3629  -32.7573 H   0  0  0  0  0  0  0  0  0  0  0  0
   -9.2506   18.3529  -32.2785 H   0  0  0  0  0  0  0  0  0  0  0  0
   -9.1817   21.1886  -31.9067 H   0  0  0  0  0  0  0  0  0  0  0  0
   -6.2810   25.2450  -31.9610 H   0  0  0  0  0  0  0  0  0  0  0  0
   -5.1240   23.8830  -31.9650 H   0  0  0  0  0  0  0  0  0  0  0  0
   -4.3035   22.0831  -30.2409 H   0  0  0  0  0  0  0  0  0  0  0  0
   -2.8696   21.3737  -31.1039 H   0  0  0  0  0  0  0  0  0  0  0  0
   -5.6077   24.4007  -28.6605 H   0  0  0  0  0  0  0  0  0  0  0  0
   -5.1701   22.8073  -29.4172 H   0  0  0  0  0  0  0  0  0  0  0  0
   -4.2751   18.9457  -32.7557 H   0  0  0  0  0  0  0  0  0  0  0  0
  1  2  1  0
  2  3  2  0
  3  4  1  0
  4  5  2  0
  5  6  1  0
  6  7  2  0
  7  8  1  0
  8  9  1  0
  8 10  2  0
  7 11  1  0
 11 12  1  0
 12 13  2  0
 12 14  1  0
 14 15  1  0
 15 16  1  0
 16 17  2  0
 16 18  2  0
 16 19  1  0
 19 20  1  0
 20 21  1  0
 20 22  1  0
 20 23  1  0
 11 24  1  0
 24 25  2  0
 25  2  1  0
 24  5  1  0
  1 26  1  0
  1 27  1  0
  1 28  1  0
  3 29  1  0
  4 30  1  0
  6 31  1  0
  9 32  1  0
  9 33  1  0
 14 34  1  0
 14 35  1  0
 19 36  1  0
 19 37  1  0
 25 38  1  0
M  CHG  1  15  -1
M  END
>  <UniqueID>  (29) 
29

>  <SMILES>  (29) 
Cc1ccc2cc(C(N)=O)n(C(=O)C[N-]S(=O)(=O)CC(F)(F)F)c2c1

>  <Energy>  (29) 
71.63982257694968

>  <Genealogy>  (29) 
Cc1ccc2cc(C(N)=O)n(C(=O)C[N-]S(=O)(=O)CC(F)(F)F)c2c1 (protonated)
Cc1ccc2cc(C(N)=O)n(C(=O)C[N-]S(=O)(=O)CC(F)(F)F)c2c1 (3D coordinates assigned)
Cc1ccc2cc(C(N)=O)n(C(=O)C[N-]S(=O)(=O)CC(F)(F)F)c2c1 (optimized conformer: 71.63982257694968 kcal/mol)

>  <smiles>  (29) 
Cc1ccc2cc(C(N)=O)n(C(=O)CNS(=O)(=O)CC(F)(F)F)c2c1

>  <score_type>  (29) 
oracle

>  <origin>  (29) 
adg

>  <m_score__min__energy>  (29) 
-9.5800000000000001

>  <m_primary>  (29) 
energy

$$$$
31:0
     RDKit          3D

 45 47  0  0  0  0  0  0  0  0999 V2000
    1.2390   18.5000  -35.3710 C   0  0  0  0  0  0  0  0  0  0  0  0
    0.2400   19.4480  -34.8650 N   0  0  0  0  0  0  0  0  0  0  0  0
    0.6210   20.8470  -34.6280 C   0  0  0  0  0  0  0  0  0  0  0  0
   -1.1070   18.9810  -34.6110 C   0  0  0  0  0  0  0  0  0  0  0  0
   -2.0720   19.7960  -33.9840 C   0  0  0  0  0  0  0  0  0  0  0  0
   -3.3680   19.3040  -33.7540 C   0  0  0  0  0  0  0  0  0  0  0  0
   -4.3930   20.1540  -33.0970 C   0  0  0  0  0  0  0  0  0  0  0  0
   -5.7650   19.7960  -33.1550 C   0  0  0  0  0  0  0  0  0  0  0  0
   -6.7410   20.5850  -32.5240 C   0  0  0  0  0  0  0  0  0  0  0  0
   -6.3220   21.7290  -31.8530 C   0  0  0  0  0  0  0  0  0  0  0  0
   -7.0510   22.6470  -31.1330 C   0  0  0  0  0  0  0  0  0  0  0  0
   -6.1200   23.5740  -30.6710 C   0  0  0  0  0  0  0  0  0  0  0  0
   -6.4870   24.7760  -29.8960 C   0  0  0  0  0  0  0  0  0  0  0  0
   -5.5660   25.3790  -28.9860 N   0  0  0  0  0  0  0  0  0  0  0  0
   -7.6140   25.3100  -30.0780 O   0  0  0  0  0  0  0  0  0  0  0  0
   -4.8630   23.2380  -31.0770 N   0  0  0  0  0  0  0  0  0  0  0  0
   -3.6270   23.8680  -30.7030 C   0  0  0  0  0  0  0  0  0  0  0  0
   -3.4880   25.1140  -30.8420 O   0  0  0  0  0  0  0  0  0  0  0  0
   -2.5500   23.0810  -30.1850 N   0  0  0  0  0  0  0  0  0  0  0  0
   -1.9070   23.3370  -28.9020 C   0  0  0  0  0  0  0  0  0  0  0  0
   -1.0750   24.5760  -28.9830 C   0  0  0  0  0  0  0  0  0  0  0  0
   -1.5930   25.6690  -29.3330 O   0  0  0  0  0  0  0  0  0  0  0  0
    0.2870   24.5140  -28.7130 O   0  0  0  0  0  0  0  0  0  0  0  0
   -5.0050   22.1040  -31.8020 C   0  0  0  0  0  0  0  0  0  0  0  0
   -4.0080   21.3270  -32.4030 C   0  0  0  0  0  0  0  0  0  0  0  0
   -3.6780   17.9960  -34.1550 C   0  0  0  0  0  0  0  0  0  0  0  0
   -2.7020   17.2150  -34.7720 C   0  0  0  0  0  0  0  0  0  0  0  0
   -1.4590   17.7170  -34.9820 N   0  0  0  0  0  0  0  0  0  0  0  0
    1.7481   18.0169  -34.5240 H   0  0  0  0  0  0  0  0  0  0  0  0
    0.7407   17.7347  -35.9842 H   0  0  0  0  0  0  0  0  0  0  0  0
    1.9772   19.0377  -35.9842 H   0  0  0  0  0  0  0  0  0  0  0  0
    0.6721   21.0347  -33.5453 H   0  0  0  0  0  0  0  0  0  0  0  0
    1.6047   21.0409  -35.0806 H   0  0  0  0  0  0  0  0  0  0  0  0
   -0.1285   21.5129  -35.0806 H   0  0  0  0  0  0  0  0  0  0  0  0
   -1.8098   20.8185  -33.6745 H   0  0  0  0  0  0  0  0  0  0  0  0
   -6.0678   18.8900  -33.7005 H   0  0  0  0  0  0  0  0  0  0  0  0
   -7.8046   20.3065  -32.5595 H   0  0  0  0  0  0  0  0  0  0  0  0
   -8.1372   22.6485  -30.9593 H   0  0  0  0  0  0  0  0  0  0  0  0
   -4.5760   25.0540  -28.9270 H   0  0  0  0  0  0  0  0  0  0  0  0
   -5.8530   26.2080  -28.4200 H   0  0  0  0  0  0  0  0  0  0  0  0
   -2.6779   23.4663  -28.1280 H   0  0  0  0  0  0  0  0  0  0  0  0
   -1.2600   22.4847  -28.6470 H   0  0  0  0  0  0  0  0  0  0  0  0
   -2.9499   21.6206  -32.3378 H   0  0  0  0  0  0  0  0  0  0  0  0
   -4.6854   17.5890  -33.9836 H   0  0  0  0  0  0  0  0  0  0  0  0
   -2.9401   16.1891  -35.0895 H   0  0  0  0  0  0  0  0  0  0  0  0
  1  2  1  0
  2  3  1  0
  2  4  1  0
  4  5  2  0
  5  6  1  0
  6  7  1  0
  7  8  2  0
  8  9  1  0
  9 10  2  0
 10 11  1  0
 11 12  2  0
 12 13  1  0
 13 14  1  0
 13 15  2  0
 12 16  1  0
 16 17  1  0
 17 18  2  0
 17 19  1  0
 19 20  1  0
 20 21  1  0
 21 22  2  0
 21 23  1  0
 16 24  1  0
 24 25  2  0
  6 26  2  0
 26 27  1  0
 27 28  2  0
 28  4  1  0
 25  7  1  0
 24 10  1  0
  1 29  1  0
  1 30  1  0
  1 31  1  0
  3 32  1  0
  3 33  1  0
  3 34  1  0
  5 35  1  0
  8 36  1  0
  9 37  1  0
 11 38  1  0
 14 39  1  0
 14 40  1  0
 20 41  1  0
 20 42  1  0
 25 43  1  0
 26 44  1  0
 27 45  1  0
M  CHG  2  19  -1  23  -1
M  END
>  <UniqueID>  (30) 
30

>  <SMILES>  (30) 
CN(C)c1cc(-c2ccc3cc(C(N)=O)n(C(=O)[N-]CC(=O)[O-])c3c2)ccn1

>  <Energy>  (30) 
89.12067192868979

>  <Genealogy>  (30) 
CN(C)c1cc(-c2ccc3cc(C(N)=O)n(C(=O)[N-]CC(=O)[O-])c3c2)ccn1 (protonated)
CN(C)c1cc(-c2ccc3cc(C(N)=O)n(C(=O)[N-]CC(=O)[O-])c3c2)ccn1 (3D coordinates assigned)
CN(C)c1cc(-c2ccc3cc(C(N)=O)n(C(=O)[N-]CC(=O)[O-])c3c2)ccn1 (optimized conformer: 89.12067192868979 kcal/mol)

>  <smiles>  (30) 
CN(C)c1cc(-c2ccc3cc(C(N)=O)n(C(=O)NCC(=O)O)c3c2)ccn1

>  <score_type>  (30) 
oracle

>  <origin>  (30) 
adg

>  <m_score__min__energy>  (30) 
-12.359999999999999

>  <m_primary>  (30) 
energy

$$$$
32:0
     RDKit          3D

 46 48  0  0  0  0  0  0  0  0999 V2000
   -3.8610   25.3550  -30.8410 N   0  0  0  0  0  0  0  0  0  0  0  0
   -5.1900   25.1250  -30.3820 C   0  0  0  0  0  0  0  0  0  0  0  0
   -5.7740   26.0190  -29.7140 O   0  0  0  0  0  0  0  0  0  0  0  0
   -5.9100   23.8810  -30.7270 C   0  0  0  0  0  0  0  0  0  0  0  0
   -7.2930   23.8130  -30.8800 C   0  0  0  0  0  0  0  0  0  0  0  0
   -7.5520   22.5230  -31.2810 C   0  0  0  0  0  0  0  0  0  0  0  0
   -8.7620   21.9040  -31.5760 C   0  0  0  0  0  0  0  0  0  0  0  0
   -8.7370   20.5470  -31.9430 C   0  0  0  0  0  0  0  0  0  0  0  0
   -7.5130   19.8290  -31.9820 C   0  0  0  0  0  0  0  0  0  0  0  0
   -7.4950   18.3840  -32.4110 C   0  0  0  0  0  0  0  0  0  0  0  0
   -6.6380   17.6460  -31.6130 F   0  0  0  0  0  0  0  0  0  0  0  0
   -7.0690   18.2700  -33.7240 F   0  0  0  0  0  0  0  0  0  0  0  0
   -8.7710   17.8630  -32.3050 F   0  0  0  0  0  0  0  0  0  0  0  0
   -6.3020   20.5010  -31.6970 C   0  0  0  0  0  0  0  0  0  0  0  0
   -6.3560   21.8580  -31.3540 C   0  0  0  0  0  0  0  0  0  0  0  0
   -5.3370   22.6790  -31.0160 N   0  0  0  0  0  0  0  0  0  0  0  0
   -3.9560   22.3110  -30.8840 C   0  0  0  0  0  0  0  0  0  0  0  0
   -3.0540   23.1140  -31.2500 O   0  0  0  0  0  0  0  0  0  0  0  0
   -3.6190   21.0550  -30.3660 O   0  0  0  0  0  0  0  0  0  0  0  0
   -2.3330   20.7440  -29.8340 C   0  0  0  0  0  0  0  0  0  0  0  0
   -2.1720   21.3520  -28.4340 C   0  0  0  0  0  0  0  0  0  0  0  0
   -2.2980   22.8930  -28.4270 C   0  0  0  0  0  0  0  0  0  0  0  0
   -2.2640   23.4750  -27.0010 C   0  0  0  0  0  0  0  0  0  0  0  0
   -2.4220   25.0130  -27.0120 C   0  0  0  0  0  0  0  0  0  0  0  0
   -2.0290   25.6410  -28.2870 N   0  0  0  0  0  0  0  0  0  0  0  0
   -0.8620   24.9790  -28.8820 C   0  0  0  0  0  0  0  0  0  0  0  0
   -1.1740   23.5250  -29.2830 C   0  0  0  0  0  0  0  0  0  0  0  0
   -3.0390   25.1360  -30.2370 H   0  0  0  0  0  0  0  0  0  0  0  0
   -8.0227   24.6194  -30.7152 H   0  0  0  0  0  0  0  0  0  0  0  0
   -9.7101   22.4594  -31.5238 H   0  0  0  0  0  0  0  0  0  0  0  0
   -9.6760   20.0362  -32.2027 H   0  0  0  0  0  0  0  0  0  0  0  0
   -5.3396   19.9703  -31.7436 H   0  0  0  0  0  0  0  0  0  0  0  0
   -2.2219   19.6515  -29.7697 H   0  0  0  0  0  0  0  0  0  0  0  0
   -1.5617   21.1640  -30.4963 H   0  0  0  0  0  0  0  0  0  0  0  0
   -2.9500   20.9336  -27.7785 H   0  0  0  0  0  0  0  0  0  0  0  0
   -1.1604   21.1028  -28.0811 H   0  0  0  0  0  0  0  0  0  0  0  0
   -3.2775   23.1415  -28.8615 H   0  0  0  0  0  0  0  0  0  0  0  0
   -3.0855   23.0356  -26.4161 H   0  0  0  0  0  0  0  0  0  0  0  0
   -1.2896   23.2317  -26.5524 H   0  0  0  0  0  0  0  0  0  0  0  0
   -3.4771   25.2550  -26.8166 H   0  0  0  0  0  0  0  0  0  0  0  0
   -1.7494   25.4104  -26.2376 H   0  0  0  0  0  0  0  0  0  0  0  0
   -2.8290   25.5870  -28.9610 H   0  0  0  0  0  0  0  0  0  0  0  0
   -0.5539   25.5375  -29.7782 H   0  0  0  0  0  0  0  0  0  0  0  0
   -0.0579   24.9624  -28.1316 H   0  0  0  0  0  0  0  0  0  0  0  0
   -1.4858   23.5108  -30.3378 H   0  0  0  0  0  0  0  0  0  0  0  0
   -0.2612   22.9337  -29.1185 H   0  0  0  0  0  0  0  0  0  0  0  0
  1  2  1  0
  2  3  2  0
  2  4  1  0
  4  5  2  0
  5  6  1  0
  6  7  2  0
  7  8  1  0
  8  9  2  0
  9 10  1  0
 10 11  1  0
 10 12  1  0
 10 13  1  0
  9 14  1  0
 14 15  2  0
 15 16  1  0
 16 17  1  0
 17 18  2  0
 17 19  1  0
 19 20  1  0
 20 21  1  0
 21 22  1  0
 22 23  1  0
 23 24  1  0
 24 25  1  0
 25 26  1  0
 26 27  1  0
 16  4  1  0
 27 22  1  0
 15  6  1  0
  1 28  1  0
  5 29  1  0
  7 30  1  0
  8 31  1  0
 14 32  1  0
 20 33  1  0
 20 34  1  0
 21 35  1  0
 21 36  1  0
 22 37  1  0
 23 38  1  0
 23 39  1  0
 24 40  1  0
 24 41  1  0
 25 42  1  0
 26 43  1  0
 26 44  1  0
 27 45  1  0
 27 46  1  0
M  CHG  1   1  -1
M  END
>  <UniqueID>  (31) 
31

>  <SMILES>  (31) 
[NH-]C(=O)c1cc2ccc(C(F)(F)F)cc2n1C(=O)OCCC1CCNCC1

>  <Energy>  (31) 
87.72805533772745

>  <Genealogy>  (31) 
[NH-]C(=O)c1cc2ccc(C(F)(F)F)cc2n1C(=O)OCCC1CCNCC1 (protonated)
[NH-]C(=O)c1cc2ccc(C(F)(F)F)cc2n1C(=O)OCCC1CCNCC1 (3D coordinates assigned)
[NH-]C(=O)c1cc2ccc(C(F)(F)F)cc2n1C(=O)OCCC1CCNCC1 (nonaromatic ring conformer: 87.72805533772745 kcal/mol)

>  <smiles>  (31) 
NC(=O)c1cc2ccc(C(F)(F)F)cc2n1C(=O)OCCC1CCNCC1

>  <score_type>  (31) 
oracle

>  <origin>  (31) 
adg

>  <m_score__min__energy>  (31) 
-10.6

>  <m_primary>  (31) 
energy

$$$$
33:0
     RDKit          3D

 49 51  0  0  0  0  0  0  0  0999 V2000
   -4.5860   18.9890  -34.0410 C   0  0  0  0  0  0  0  0  0  0  0  0
   -5.9990   18.9540  -34.1920 O   0  0  0  0  0  0  0  0  0  0  0  0
   -6.8030   18.0010  -33.5560 C   0  0  0  0  0  0  0  0  0  0  0  0
   -6.9950   16.8750  -34.0960 O   0  0  0  0  0  0  0  0  0  0  0  0
   -7.3830   18.3160  -32.1880 C   0  0  0  0  0  0  0  0  0  0  0  0
   -8.8200   17.7650  -32.0570 C   0  0  0  0  0  0  0  0  0  0  0  0
   -6.4880   17.5970  -31.1520 C   0  0  0  0  0  0  0  0  0  0  0  0
   -7.4330   19.8410  -31.9930 C   0  0  0  0  0  0  0  0  0  0  0  0
   -8.6700   20.5210  -32.1730 C   0  0  0  0  0  0  0  0  0  0  0  0
   -8.7810   21.9010  -31.9540 C   0  0  0  0  0  0  0  0  0  0  0  0
   -7.6470   22.5910  -31.5460 C   0  0  0  0  0  0  0  0  0  0  0  0
   -7.4980   23.9210  -31.2420 C   0  0  0  0  0  0  0  0  0  0  0  0
   -6.1720   24.0590  -30.8570 C   0  0  0  0  0  0  0  0  0  0  0  0
   -5.6070   25.3410  -30.4010 C   0  0  0  0  0  0  0  0  0  0  0  0
   -4.2570   25.6910  -30.7040 N   0  0  0  0  0  0  0  0  0  0  0  0
   -6.3000   26.1010  -29.6740 O   0  0  0  0  0  0  0  0  0  0  0  0
   -5.5060   22.8690  -30.9450 N   0  0  0  0  0  0  0  0  0  0  0  0
   -4.0820   22.6570  -30.8030 C   0  0  0  0  0  0  0  0  0  0  0  0
   -3.2850   23.1010  -31.6710 O   0  0  0  0  0  0  0  0  0  0  0  0
   -3.5830   21.9110  -29.7310 O   0  0  0  0  0  0  0  0  0  0  0  0
   -2.6220   22.4070  -28.8000 C   0  0  0  0  0  0  0  0  0  0  0  0
   -2.8540   23.8980  -28.5290 C   0  0  0  0  0  0  0  0  0  0  0  0
   -2.3720   24.8240  -29.4620 O   0  0  0  0  0  0  0  0  0  0  0  0
   -2.6650   24.3490  -27.0890 C   0  0  0  0  0  0  0  0  0  0  0  0
   -4.0580   24.3430  -27.7140 C   0  0  0  0  0  0  0  0  0  0  0  0
   -6.4390   21.9720  -31.3570 C   0  0  0  0  0  0  0  0  0  0  0  0
   -6.3080   20.5870  -31.5470 C   0  0  0  0  0  0  0  0  0  0  0  0
   -4.3317   18.9953  -32.9708 H   0  0  0  0  0  0  0  0  0  0  0  0
   -4.1442   18.1015  -34.5177 H   0  0  0  0  0  0  0  0  0  0  0  0
   -4.1887   19.8973  -34.5177 H   0  0  0  0  0  0  0  0  0  0  0  0
   -9.0790   17.6657  -30.9925 H   0  0  0  0  0  0  0  0  0  0  0  0
   -9.5237   18.4571  -32.5426 H   0  0  0  0  0  0  0  0  0  0  0  0
   -8.8806   16.7798  -32.5426 H   0  0  0  0  0  0  0  0  0  0  0  0
   -6.8174   17.8617  -30.1364 H   0  0  0  0  0  0  0  0  0  0  0  0
   -6.5674   16.5088  -31.2913 H   0  0  0  0  0  0  0  0  0  0  0  0
   -5.4425   17.9091  -31.2913 H   0  0  0  0  0  0  0  0  0  0  0  0
   -9.5566   19.9524  -32.4903 H   0  0  0  0  0  0  0  0  0  0  0  0
   -9.7384   22.4222  -32.1010 H   0  0  0  0  0  0  0  0  0  0  0  0
   -8.2647   24.7082  -31.2926 H   0  0  0  0  0  0  0  0  0  0  0  0
   -3.8640   26.6030  -30.3810 H   0  0  0  0  0  0  0  0  0  0  0  0
   -3.6330   25.0230  -31.2100 H   0  0  0  0  0  0  0  0  0  0  0  0
   -2.7119   21.8496  -27.8560 H   0  0  0  0  0  0  0  0  0  0  0  0
   -1.6158   22.2758  -29.2247 H   0  0  0  0  0  0  0  0  0  0  0  0
   -2.1500   24.2960  -30.2720 H   0  0  0  0  0  0  0  0  0  0  0  0
   -2.4074   23.6147  -26.3116 H   0  0  0  0  0  0  0  0  0  0  0  0
   -2.0413   25.1014  -26.5842 H   0  0  0  0  0  0  0  0  0  0  0  0
   -4.8047   23.6044  -27.3871 H   0  0  0  0  0  0  0  0  0  0  0  0
   -4.8551   25.0894  -27.8466 H   0  0  0  0  0  0  0  0  0  0  0  0
   -5.3480   20.0860  -31.3534 H   0  0  0  0  0  0  0  0  0  0  0  0
  1  2  1  0
  2  3  1  0
  3  4  2  0
  3  5  1  0
  5  6  1  0
  5  7  1  0
  5  8  1  0
  8  9  2  0
  9 10  1  0
 10 11  2  0
 11 12  1  0
 12 13  2  0
 13 14  1  0
 14 15  1  0
 14 16  2  0
 13 17  1  0
 17 18  1  0
 18 19  2  0
 18 20  1  0
 20 21  1  0
 21 22  1  0
 22 23  1  0
 22 24  1  0
 24 25  1  0
 17 26  1  0
 26 27  2  0
 27  8  1  0
 26 11  1  0
 25 22  1  0
  1 28  1  0
  1 29  1  0
  1 30  1  0
  6 31  1  0
  6 32  1  0
  6 33  1  0
  7 34  1  0
  7 35  1  0
  7 36  1  0
  9 37  1  0
 10 38  1  0
 12 39  1  0
 15 40  1  0
 15 41  1  0
 21 42  1  0
 21 43  1  0
 23 44  1  0
 24 45  1  0
 24 46  1  0
 25 47  1  0
 25 48  1  0
 27 49  1  0
M  END
>  <UniqueID>  (32) 
32

>  <SMILES>  (32) 
COC(=O)C(C)(C)c1ccc2cc(C(N)=O)n(C(=O)OCC3(O)CC3)c2c1

>  <Energy>  (32) 
357.1334541492775

>  <Genealogy>  (32) 
COC(=O)C(C)(C)c1ccc2cc(C(N)=O)n(C(=O)OCC3(O)CC3)c2c1 (3D coordinates assigned)
COC(=O)C(C)(C)c1ccc2cc(C(N)=O)n(C(=O)OCC3(O)CC3)c2c1 (nonaromatic ring conformer: 357.1334541492775 kcal/mol)

>  <smiles>  (32) 
COC(=O)C(C)(C)c1ccc2cc(C(N)=O)n(C(=O)OCC3(O)CC3)c2c1

>  <score_type>  (32) 
oracle

>  <origin>  (32) 
adg

>  <m_score__min__energy>  (32) 
-9.6300000000000008

>  <m_primary>  (32) 
energy

$$$$
34:0
     RDKit          3D

 43 45  0  0  0  0  0  0  0  0999 V2000
   -5.7800   25.2890  -29.0720 N   0  0  0  0  0  0  0  0  0  0  0  0
   -5.2410   24.8050  -30.3030 C   0  0  0  0  0  0  0  0  0  0  0  0
   -4.2780   25.4180  -30.8360 O   0  0  0  0  0  0  0  0  0  0  0  0
   -5.7570   23.5750  -30.9380 C   0  0  0  0  0  0  0  0  0  0  0  0
   -7.1120   23.3210  -31.1350 C   0  0  0  0  0  0  0  0  0  0  0  0
   -7.1640   22.0960  -31.7580 C   0  0  0  0  0  0  0  0  0  0  0  0
   -8.2650   21.3400  -32.1510 C   0  0  0  0  0  0  0  0  0  0  0  0
   -8.0290   20.0760  -32.7170 C   0  0  0  0  0  0  0  0  0  0  0  0
   -6.7060   19.5930  -32.8860 C   0  0  0  0  0  0  0  0  0  0  0  0
   -6.4680   18.2080  -33.4320 C   0  0  0  0  0  0  0  0  0  0  0  0
   -6.1280   18.3000  -34.7700 F   0  0  0  0  0  0  0  0  0  0  0  0
   -5.4400   17.5830  -32.7470 F   0  0  0  0  0  0  0  0  0  0  0  0
   -7.6060   17.4310  -33.3080 F   0  0  0  0  0  0  0  0  0  0  0  0
   -5.6160   20.3800  -32.4470 C   0  0  0  0  0  0  0  0  0  0  0  0
   -5.8780   21.6460  -31.9120 C   0  0  0  0  0  0  0  0  0  0  0  0
   -5.0010   22.5480  -31.4160 N   0  0  0  0  0  0  0  0  0  0  0  0
   -3.5790   22.3860  -31.2790 C   0  0  0  0  0  0  0  0  0  0  0  0
   -2.8780   22.1750  -32.3040 O   0  0  0  0  0  0  0  0  0  0  0  0
   -2.9390   22.3400  -29.9160 C   0  0  0  0  0  0  0  0  0  0  0  0
   -1.8800   23.4380  -29.7270 C   0  0  0  0  0  0  0  0  0  0  0  0
   -2.3570   24.5020  -28.8190 N   0  0  0  0  0  0  0  0  0  0  0  0
   -1.2670   25.1900  -28.1140 C   0  0  0  0  0  0  0  0  0  0  0  0
   -1.8070   25.6270  -26.7580 C   0  0  0  0  0  0  0  0  0  0  0  0
   -3.1520   24.9350  -26.6090 C   0  0  0  0  0  0  0  0  0  0  0  0
   -3.2190   23.9580  -27.7670 C   0  0  0  0  0  0  0  0  0  0  0  0
   -5.4390   26.1910  -28.6710 H   0  0  0  0  0  0  0  0  0  0  0  0
   -6.4380   24.7110  -28.5050 H   0  0  0  0  0  0  0  0  0  0  0  0
   -7.9595   23.9629  -30.8527 H   0  0  0  0  0  0  0  0  0  0  0  0
   -9.2889   21.7209  -32.0222 H   0  0  0  0  0  0  0  0  0  0  0  0
   -8.8796   19.4540  -33.0326 H   0  0  0  0  0  0  0  0  0  0  0  0
   -4.5848   20.0050  -32.5245 H   0  0  0  0  0  0  0  0  0  0  0  0
   -3.7217   22.4695  -29.1540 H   0  0  0  0  0  0  0  0  0  0  0  0
   -2.4346   21.3676  -29.8156 H   0  0  0  0  0  0  0  0  0  0  0  0
   -0.9704   22.9877  -29.3028 H   0  0  0  0  0  0  0  0  0  0  0  0
   -1.6732   23.8897  -30.7084 H   0  0  0  0  0  0  0  0  0  0  0  0
   -0.4165   24.5059  -27.9775 H   0  0  0  0  0  0  0  0  0  0  0  0
   -0.9176   26.0585  -28.6916 H   0  0  0  0  0  0  0  0  0  0  0  0
   -1.1239   25.3148  -25.9543 H   0  0  0  0  0  0  0  0  0  0  0  0
   -1.9035   26.7208  -26.6926 H   0  0  0  0  0  0  0  0  0  0  0  0
   -3.2083   24.4014  -25.6488 H   0  0  0  0  0  0  0  0  0  0  0  0
   -3.9885   25.6492  -26.6210 H   0  0  0  0  0  0  0  0  0  0  0  0
   -2.8557   22.9688  -27.4514 H   0  0  0  0  0  0  0  0  0  0  0  0
   -4.2521   23.8332  -28.1235 H   0  0  0  0  0  0  0  0  0  0  0  0
  1  2  1  0
  2  3  2  0
  2  4  1  0
  4  5  2  0
  5  6  1  0
  6  7  2  0
  7  8  1  0
  8  9  2  0
  9 10  1  0
 10 11  1  0
 10 12  1  0
 10 13  1  0
  9 14  1  0
 14 15  2  0
 15 16  1  0
 16 17  1  0
 17 18  2  0
 17 19  1  0
 19 20  1  0
 20 21  1  0
 21 22  1  0
 22 23  1  0
 23 24  1  0
 24 25  1  0
 16  4  1  0
 25 21  1  0
 15  6  1  0
  1 26  1  0
  1 27  1  0
  5 28  1  0
  7 29  1  0
  8 30  1  0
 14 31  1  0
 19 32  1  0
 19 33  1  0
 20 34  1  0
 20 35  1  0
 22 36  1  0
 22 37  1  0
 23 38  1  0
 23 39  1  0
 24 40  1  0
 24 41  1  0
 25 42  1  0
 25 43  1  0
M  END
>  <UniqueID>  (33) 
33

>  <SMILES>  (33) 
NC(=O)c1cc2ccc(C(F)(F)F)cc2n1C(=O)CCN1CCCC1

>  <Energy>  (33) 
85.49986927030723

>  <Genealogy>  (33) 
NC(=O)c1cc2ccc(C(F)(F)F)cc2n1C(=O)CCN1CCCC1 (3D coordinates assigned)
NC(=O)c1cc2ccc(C(F)(F)F)cc2n1C(=O)CCN1CCCC1 (nonaromatic ring conformer: 85.49986927030723 kcal/mol)

>  <smiles>  (33) 
NC(=O)c1cc2ccc(C(F)(F)F)cc2n1C(=O)CCN1CCCC1

>  <score_type>  (33) 
oracle

>  <origin>  (33) 
adg

>  <m_score__min__energy>  (33) 
-9.1500000000000004

>  <m_primary>  (33) 
energy

$$$$
35:0
     RDKit          3D

 49 51  0  0  0  0  0  0  0  0999 V2000
   -7.5790   13.5020  -34.9630 C   0  0  0  0  0  0  0  0  0  0  0  0
   -7.2630   14.8430  -34.6590 O   0  0  0  0  0  0  0  0  0  0  0  0
   -6.1230   14.9020  -33.8220 C   0  0  0  0  0  0  0  0  0  0  0  0
   -5.9080   16.3050  -33.3070 C   0  0  0  0  0  0  0  0  0  0  0  0
   -5.3070   16.4510  -32.2510 O   0  0  0  0  0  0  0  0  0  0  0  0
   -6.4320   17.4560  -34.0280 N   0  0  0  0  0  0  0  0  0  0  0  0
   -5.4710   18.0410  -34.9730 C   0  0  0  0  0  0  0  0  0  0  0  0
   -4.2600   18.6850  -34.2890 C   0  0  0  0  0  0  0  0  0  0  0  0
   -4.5590   19.3720  -33.0140 N   0  0  0  0  0  0  0  0  0  0  0  0
   -3.4810   20.0900  -32.3330 C   0  0  0  0  0  0  0  0  0  0  0  0
   -2.1400   19.5960  -32.3470 C   0  0  0  0  0  0  0  0  0  0  0  0
   -1.1020   20.2700  -31.6840 C   0  0  0  0  0  0  0  0  0  0  0  0
   -1.4060   21.4510  -31.0240 C   0  0  0  0  0  0  0  0  0  0  0  0
   -0.5980   22.2840  -30.2860 C   0  0  0  0  0  0  0  0  0  0  0  0
   -1.4290   23.3130  -29.8510 C   0  0  0  0  0  0  0  0  0  0  0  0
   -0.9470   24.4800  -29.0850 C   0  0  0  0  0  0  0  0  0  0  0  0
   -1.7380   25.6590  -28.9700 N   0  0  0  0  0  0  0  0  0  0  0  0
    0.2020   24.4540  -28.5700 O   0  0  0  0  0  0  0  0  0  0  0  0
   -2.7030   23.1180  -30.2950 N   0  0  0  0  0  0  0  0  0  0  0  0
   -3.8680   23.9050  -30.0000 C   0  0  0  0  0  0  0  0  0  0  0  0
   -4.6320   23.5680  -29.0550 O   0  0  0  0  0  0  0  0  0  0  0  0
   -4.1630   25.0290  -30.7770 O   0  0  0  0  0  0  0  0  0  0  0  0
   -5.4380   25.6590  -30.7640 C   0  0  0  0  0  0  0  0  0  0  0  0
   -2.6700   21.9720  -31.0120 C   0  0  0  0  0  0  0  0  0  0  0  0
   -3.7310   21.3100  -31.6400 C   0  0  0  0  0  0  0  0  0  0  0  0
   -5.8650   19.2340  -32.3330 C   0  0  0  0  0  0  0  0  0  0  0  0
   -6.9540   18.4990  -33.1330 C   0  0  0  0  0  0  0  0  0  0  0  0
   -7.7124   12.9360  -34.0293 H   0  0  0  0  0  0  0  0  0  0  0  0
   -8.5097   13.4682  -35.5484 H   0  0  0  0  0  0  0  0  0  0  0  0
   -6.7613   13.0562  -35.5484 H   0  0  0  0  0  0  0  0  0  0  0  0
   -6.2665   14.2227  -32.9688 H   0  0  0  0  0  0  0  0  0  0  0  0
   -5.2407   14.6018  -34.4063 H   0  0  0  0  0  0  0  0  0  0  0  0
   -7.2470   17.1360  -34.6040 H   0  0  0  0  0  0  0  0  0  0  0  0
   -5.1113   17.2453  -35.6420 H   0  0  0  0  0  0  0  0  0  0  0  0
   -5.9969   18.8376  -35.5197 H   0  0  0  0  0  0  0  0  0  0  0  0
   -3.5214   17.8953  -34.0869 H   0  0  0  0  0  0  0  0  0  0  0  0
   -3.8913   19.4591  -34.9781 H   0  0  0  0  0  0  0  0  0  0  0  0
   -1.9158   18.6660  -32.8899 H   0  0  0  0  0  0  0  0  0  0  0  0
   -0.0764   19.8723  -31.6880 H   0  0  0  0  0  0  0  0  0  0  0  0
    0.4763   22.1631  -30.0826 H   0  0  0  0  0  0  0  0  0  0  0  0
   -2.7250   25.6800  -29.3080 H   0  0  0  0  0  0  0  0  0  0  0  0
   -5.7582   25.8172  -29.7236 H   0  0  0  0  0  0  0  0  0  0  0  0
   -5.3731   26.6287  -31.2792 H   0  0  0  0  0  0  0  0  0  0  0  0
   -6.1688   25.0183  -31.2792 H   0  0  0  0  0  0  0  0  0  0  0  0
   -4.7480   21.7272  -31.5992 H   0  0  0  0  0  0  0  0  0  0  0  0
   -5.7019   18.6817  -31.3958 H   0  0  0  0  0  0  0  0  0  0  0  0
   -6.2382   20.2581  -32.1847 H   0  0  0  0  0  0  0  0  0  0  0  0
   -7.6491   18.0292  -32.4216 H   0  0  0  0  0  0  0  0  0  0  0  0
   -7.4454   19.2499  -33.7691 H   0  0  0  0  0  0  0  0  0  0  0  0
  1  2  1  0
  2  3  1  0
  3  4  1  0
  4  5  2  0
  4  6  1  0
  6  7  1  0
  7  8  1  0
  8  9  1  0
  9 10  1  0
 10 11  2  0
 11 12  1  0
 12 13  2  0
 13 14  1  0
 14 15  2  0
 15 16  1  0
 16 17  1  0
 16 18  2  0
 15 19  1  0
 19 20  1  0
 20 21  2  0
 20 22  1  0
 22 23  1  0
 19 24  1  0
 24 25  2  0
  9 26  1  0
 26 27  1  0
 27  6  1  0
 25 10  1  0
 24 13  1  0
  1 28  1  0
  1 29  1  0
  1 30  1  0
  3 31  1  0
  3 32  1  0
  6 33  1  0
  7 34  1  0
  7 35  1  0
  8 36  1  0
  8 37  1  0
 11 38  1  0
 12 39  1  0
 14 40  1  0
 17 41  1  0
 23 42  1  0
 23 43  1  0
 23 44  1  0
 25 45  1  0
 26 46  1  0
 26 47  1  0
 27 48  1  0
 27 49  1  0
M  CHG  2   6   1  17  -1
M  END
>  <UniqueID>  (34) 
34

>  <SMILES>  (34) 
COCC(=O)[NH+]1CCN(c2ccc3cc(C([NH-])=O)n(C(=O)OC)c3c2)CC1

>  <Energy>  (34) 
100.72529156573361

>  <Genealogy>  (34) 
COCC(=O)[NH+]1CCN(c2ccc3cc(C([NH-])=O)n(C(=O)OC)c3c2)CC1 (protonated)
COCC(=O)[NH+]1CCN(c2ccc3cc(C([NH-])=O)n(C(=O)OC)c3c2)CC1 (3D coordinates assigned)
COCC(=O)[NH+]1CCN(c2ccc3cc(C([NH-])=O)n(C(=O)OC)c3c2)CC1 (nonaromatic ring conformer: 100.72529156573361 kcal/mol)

>  <smiles>  (34) 
COCC(=O)N1CCN(c2ccc3cc(C(N)=O)n(C(=O)OC)c3c2)CC1

>  <score_type>  (34) 
oracle

>  <origin>  (34) 
adg

>  <m_score__min__energy>  (34) 
-10.09

>  <m_primary>  (34) 
energy

$$$$
36:0
     RDKit          3D

 44 46  0  0  0  0  0  0  0  0999 V2000
   -6.4910   17.4270  -31.0320 C   0  0  0  0  0  0  0  0  0  0  0  0
   -6.1040   17.4620  -32.4830 C   0  0  0  0  0  0  0  0  0  0  0  0
   -5.7560   16.2910  -33.0850 N   0  0  0  0  0  0  0  0  0  0  0  0
   -5.3740   16.2310  -34.3870 C   0  0  0  0  0  0  0  0  0  0  0  0
   -5.3250   17.3940  -35.1550 C   0  0  0  0  0  0  0  0  0  0  0  0
   -5.6840   18.6100  -34.5760 C   0  0  0  0  0  0  0  0  0  0  0  0
   -6.0940   18.6640  -33.2340 C   0  0  0  0  0  0  0  0  0  0  0  0
   -6.4930   19.9670  -32.6550 C   0  0  0  0  0  0  0  0  0  0  0  0
   -7.8640   20.3060  -32.5500 C   0  0  0  0  0  0  0  0  0  0  0  0
   -8.2590   21.5280  -31.9800 C   0  0  0  0  0  0  0  0  0  0  0  0
   -7.2630   22.3900  -31.5310 C   0  0  0  0  0  0  0  0  0  0  0  0
   -7.3660   23.6150  -30.9100 C   0  0  0  0  0  0  0  0  0  0  0  0
   -6.0540   24.0150  -30.6700 C   0  0  0  0  0  0  0  0  0  0  0  0
   -5.7000   25.3160  -30.0680 C   0  0  0  0  0  0  0  0  0  0  0  0
   -6.4600   25.8630  -28.9890 N   0  0  0  0  0  0  0  0  0  0  0  0
   -4.6780   25.9290  -30.4750 O   0  0  0  0  0  0  0  0  0  0  0  0
   -5.1740   23.0720  -31.1090 N   0  0  0  0  0  0  0  0  0  0  0  0
   -3.7450   23.0650  -30.9630 C   0  0  0  0  0  0  0  0  0  0  0  0
   -3.0190   22.5990  -31.8830 O   0  0  0  0  0  0  0  0  0  0  0  0
   -3.1670   23.5780  -29.7960 O   0  0  0  0  0  0  0  0  0  0  0  0
   -3.5960   23.2310  -28.4800 C   0  0  0  0  0  0  0  0  0  0  0  0
   -3.1210   21.8200  -28.1250 C   0  0  0  0  0  0  0  0  0  0  0  0
   -3.0290   24.2490  -27.4930 C   0  0  0  0  0  0  0  0  0  0  0  0
   -5.9300   22.0820  -31.6340 C   0  0  0  0  0  0  0  0  0  0  0  0
   -5.5120   20.8590  -32.1690 C   0  0  0  0  0  0  0  0  0  0  0  0
   -5.5877   17.5087  -30.4095 H   0  0  0  0  0  0  0  0  0  0  0  0
   -7.1652   18.2678  -30.8120 H   0  0  0  0  0  0  0  0  0  0  0  0
   -7.0034   16.4788  -30.8120 H   0  0  0  0  0  0  0  0  0  0  0  0
   -5.1030   15.2641  -34.8361 H   0  0  0  0  0  0  0  0  0  0  0  0
   -5.0063   17.3521  -36.2070 H   0  0  0  0  0  0  0  0  0  0  0  0
   -5.6459   19.5327  -35.1737 H   0  0  0  0  0  0  0  0  0  0  0  0
   -8.6277   19.6053  -32.9185 H   0  0  0  0  0  0  0  0  0  0  0  0
   -9.3224   21.7950  -31.8914 H   0  0  0  0  0  0  0  0  0  0  0  0
   -8.2873   24.1605  -30.6577 H   0  0  0  0  0  0  0  0  0  0  0  0
   -7.2020   25.3040  -28.5140 H   0  0  0  0  0  0  0  0  0  0  0  0
   -6.2200   26.8030  -28.6030 H   0  0  0  0  0  0  0  0  0  0  0  0
   -4.6948   23.2445  -28.4308 H   0  0  0  0  0  0  0  0  0  0  0  0
   -3.0840   21.7100  -27.0311 H   0  0  0  0  0  0  0  0  0  0  0  0
   -3.8200   21.0814  -28.5444 H   0  0  0  0  0  0  0  0  0  0  0  0
   -2.1176   21.6545  -28.5444 H   0  0  0  0  0  0  0  0  0  0  0  0
   -3.2190   23.9078  -26.4647 H   0  0  0  0  0  0  0  0  0  0  0  0
   -1.9451   24.3492  -27.6517 H   0  0  0  0  0  0  0  0  0  0  0  0
   -3.5144   25.2233  -27.6517 H   0  0  0  0  0  0  0  0  0  0  0  0
   -4.4442   20.5982  -32.2102 H   0  0  0  0  0  0  0  0  0  0  0  0
  1  2  1  0
  2  3  2  0
  3  4  1  0
  4  5  2  0
  5  6  1  0
  6  7  2  0
  7  8  1  0
  8  9  2  0
  9 10  1  0
 10 11  2  0
 11 12  1  0
 12 13  2  0
 13 14  1  0
 14 15  1  0
 14 16  2  0
 13 17  1  0
 17 18  1  0
 18 19  2  0
 18 20  1  0
 20 21  1  0
 21 22  1  0
 21 23  1  0
 17 24  1  0
 24 25  2  0
  7  2  1  0
 25  8  1  0
 24 11  1  0
  1 26  1  0
  1 27  1  0
  1 28  1  0
  4 29  1  0
  5 30  1  0
  6 31  1  0
  9 32  1  0
 10 33  1  0
 12 34  1  0
 15 35  1  0
 15 36  1  0
 21 37  1  0
 22 38  1  0
 22 39  1  0
 22 40  1  0
 23 41  1  0
 23 42  1  0
 23 43  1  0
 25 44  1  0
M  END
>  <UniqueID>  (35) 
35

>  <SMILES>  (35) 
Cc1ncccc1-c1ccc2cc(C(N)=O)n(C(=O)OC(C)C)c2c1

>  <Energy>  (35) 
85.8723000261286

>  <Genealogy>  (35) 
Cc1ncccc1-c1ccc2cc(C(N)=O)n(C(=O)OC(C)C)c2c1 (3D coordinates assigned)
Cc1ncccc1-c1ccc2cc(C(N)=O)n(C(=O)OC(C)C)c2c1 (optimized conformer: 85.8723000261286 kcal/mol)

>  <smiles>  (35) 
Cc1ncccc1-c1ccc2cc(C(N)=O)n(C(=O)OC(C)C)c2c1

>  <score_type>  (35) 
oracle

>  <origin>  (35) 
adg

>  <m_score__min__energy>  (35) 
-9.8000000000000007

>  <m_primary>  (35) 
energy

$$$$
37:0
     RDKit          3D

 50 51  0  0  0  0  0  0  0  0999 V2000
   -0.7330   20.7090  -31.6940 C   0  0  0  0  0  0  0  0  0  0  0  0
   -0.1650   21.7900  -30.7650 C   0  0  0  0  0  0  0  0  0  0  0  0
   -0.9250   21.9330  -29.4950 N   0  0  2  0  0  0  0  0  0  0  0  0
   -0.0920   22.4040  -28.3530 C   0  0  0  0  0  0  0  0  0  0  0  0
   -0.1500   23.9270  -28.1070 C   0  0  0  0  0  0  0  0  0  0  0  0
   -1.6000   24.4220  -28.0890 C   0  0  0  0  0  0  0  0  0  0  0  0
   -1.9930   24.8160  -29.3750 O   0  0  0  0  0  0  0  0  0  0  0  0
   -1.6360   20.6720  -29.1430 C   0  0  0  0  0  0  0  0  0  0  0  0
   -3.1570   20.8510  -28.9920 C   0  0  0  0  0  0  0  0  0  0  0  0
   -3.5270   22.1970  -29.2680 O   0  0  0  0  0  0  0  0  0  0  0  0
   -3.8290   22.6560  -30.5520 C   0  0  0  0  0  0  0  0  0  0  0  0
   -2.9040   22.8650  -31.3850 O   0  0  0  0  0  0  0  0  0  0  0  0
   -5.1990   22.8680  -30.9290 N   0  0  0  0  0  0  0  0  0  0  0  0
   -5.9170   24.0220  -30.8340 C   0  0  0  0  0  0  0  0  0  0  0  0
   -5.3800   25.3510  -30.4720 C   0  0  0  0  0  0  0  0  0  0  0  0
   -4.0040   25.6480  -30.7070 N   0  0  0  0  0  0  0  0  0  0  0  0
   -6.1120   26.2140  -29.9210 O   0  0  0  0  0  0  0  0  0  0  0  0
   -7.2420   23.8060  -31.2060 C   0  0  0  0  0  0  0  0  0  0  0  0
   -7.3140   22.4740  -31.5400 C   0  0  0  0  0  0  0  0  0  0  0  0
   -8.3980   21.7210  -31.9800 C   0  0  0  0  0  0  0  0  0  0  0  0
   -8.1930   20.3540  -32.2300 C   0  0  0  0  0  0  0  0  0  0  0  0
   -6.9230   19.7600  -32.0120 C   0  0  0  0  0  0  0  0  0  0  0  0
   -6.7050   18.2990  -32.3180 C   0  0  0  0  0  0  0  0  0  0  0  0
   -5.4080   18.0800  -32.7520 F   0  0  0  0  0  0  0  0  0  0  0  0
   -6.9200   17.5250  -31.1910 F   0  0  0  0  0  0  0  0  0  0  0  0
   -7.5840   17.9070  -33.3100 F   0  0  0  0  0  0  0  0  0  0  0  0
   -5.8400   20.5650  -31.5860 C   0  0  0  0  0  0  0  0  0  0  0  0
   -6.0700   21.9280  -31.3640 C   0  0  0  0  0  0  0  0  0  0  0  0
   -1.1608   19.8948  -31.0906 H   0  0  0  0  0  0  0  0  0  0  0  0
   -1.5178   21.1464  -32.3287 H   0  0  0  0  0  0  0  0  0  0  0  0
    0.0724   20.3108  -32.3287 H   0  0  0  0  0  0  0  0  0  0  0  0
    0.8757   21.5296  -30.5217 H   0  0  0  0  0  0  0  0  0  0  0  0
   -0.2385   22.7493  -31.2983 H   0  0  0  0  0  0  0  0  0  0  0  0
   -1.6480   22.6770  -29.6440 H   0  0  0  0  0  0  0  0  0  0  0  0
   -0.4383   21.8948  -27.4415 H   0  0  0  0  0  0  0  0  0  0  0  0
    0.9517   22.1664  -28.6066 H   0  0  0  0  0  0  0  0  0  0  0  0
    0.3202   24.1538  -27.1388 H   0  0  0  0  0  0  0  0  0  0  0  0
    0.3855   24.4358  -28.9221 H   0  0  0  0  0  0  0  0  0  0  0  0
   -2.2565   23.6109  -27.7410 H   0  0  0  0  0  0  0  0  0  0  0  0
   -1.6764   25.2844  -27.4104 H   0  0  0  0  0  0  0  0  0  0  0  0
   -2.7370   24.2140  -29.6420 H   0  0  0  0  0  0  0  0  0  0  0  0
   -1.4487   19.9329  -29.9358 H   0  0  0  0  0  0  0  0  0  0  0  0
   -1.2490   20.3418  -28.1677 H   0  0  0  0  0  0  0  0  0  0  0  0
   -3.6726   20.1815  -29.6962 H   0  0  0  0  0  0  0  0  0  0  0  0
   -3.4447   20.6061  -27.9589 H   0  0  0  0  0  0  0  0  0  0  0  0
   -3.3070   24.8820  -30.8420 H   0  0  0  0  0  0  0  0  0  0  0  0
   -8.0573   24.5441  -31.2279 H   0  0  0  0  0  0  0  0  0  0  0  0
   -9.3857   22.1822  -32.1276 H   0  0  0  0  0  0  0  0  0  0  0  0
   -9.0260   19.7374  -32.5987 H   0  0  0  0  0  0  0  0  0  0  0  0
   -4.8412   20.1302  -31.4329 H   0  0  0  0  0  0  0  0  0  0  0  0
  1  2  1  0
  2  3  1  0
  3  4  1  0
  4  5  1  0
  5  6  1  0
  6  7  1  0
  3  8  1  0
  8  9  1  0
  9 10  1  0
 10 11  1  0
 11 12  2  0
 11 13  1  0
 13 14  1  0
 14 15  1  0
 15 16  1  0
 15 17  2  0
 14 18  2  0
 18 19  1  0
 19 20  2  0
 20 21  1  0
 21 22  2  0
 22 23  1  0
 23 24  1  0
 23 25  1  0
 23 26  1  0
 22 27  1  0
 27 28  2  0
 28 13  1  0
 28 19  1  0
  1 29  1  0
  1 30  1  0
  1 31  1  0
  2 32  1  0
  2 33  1  0
  3 34  1  6
  4 35  1  0
  4 36  1  0
  5 37  1  0
  5 38  1  0
  6 39  1  0
  6 40  1  0
  7 41  1  0
  8 42  1  0
  8 43  1  0
  9 44  1  0
  9 45  1  0
 16 46  1  0
 18 47  1  0
 20 48  1  0
 21 49  1  0
 27 50  1  0
M  CHG  2   3   1  16  -1
M  END
>  <UniqueID>  (36) 
36

>  <SMILES>  (36) 
CC[N@H+](CCCO)CCOC(=O)n1c(C([NH-])=O)cc2ccc(C(F)(F)F)cc21

>  <Energy>  (36) 
87.4636269239807

>  <Genealogy>  (36) 
CC[NH+](CCCO)CCOC(=O)n1c(C([NH-])=O)cc2ccc(C(F)(F)F)cc21 (protonated)
CC[N@H+](CCCO)CCOC(=O)n1c(C([NH-])=O)cc2ccc(C(F)(F)F)cc21 (chirality)
CC[N@H+](CCCO)CCOC(=O)n1c(C([NH-])=O)cc2ccc(C(F)(F)F)cc21 (3D coordinates assigned)
CC[N@H+](CCCO)CCOC(=O)n1c(C([NH-])=O)cc2ccc(C(F)(F)F)cc21 (optimized conformer: 87.4636269239807 kcal/mol)

>  <smiles>  (36) 
CCN(CCCO)CCOC(=O)n1c(C(N)=O)cc2ccc(C(F)(F)F)cc21

>  <score_type>  (36) 
oracle

>  <origin>  (36) 
adg

>  <m_score__min__energy>  (36) 
-8.1999999999999993

>  <m_primary>  (36) 
energy

$$$$
38:0
     RDKit          3D

 36 38  0  0  0  0  0  0  0  0999 V2000
   -3.9100   25.5450  -30.8380 N   0  0  0  0  0  0  0  0  0  0  0  0
   -5.2900   25.2760  -30.6020 C   0  0  0  0  0  0  0  0  0  0  0  0
   -5.9950   26.1430  -30.0200 O   0  0  0  0  0  0  0  0  0  0  0  0
   -5.8870   23.9780  -30.9780 C   0  0  0  0  0  0  0  0  0  0  0  0
   -7.2440   23.8050  -31.2390 C   0  0  0  0  0  0  0  0  0  0  0  0
   -7.4050   22.4560  -31.4590 C   0  0  0  0  0  0  0  0  0  0  0  0
   -8.5520   21.7300  -31.7660 C   0  0  0  0  0  0  0  0  0  0  0  0
   -8.4200   20.3450  -31.9650 C   0  0  0  0  0  0  0  0  0  0  0  0
   -7.1510   19.7200  -31.8720 C   0  0  0  0  0  0  0  0  0  0  0  0
   -7.0270   18.2340  -32.0600 C   0  0  0  0  0  0  0  0  0  0  0  0
   -6.3320   17.9360  -33.3510 C   0  0  0  0  0  0  0  0  0  0  0  0
   -6.0630   18.8160  -34.3760 C   0  0  0  0  0  0  0  0  0  0  0  0
   -5.3450   18.1760  -35.3190 N   0  0  0  0  0  0  0  0  0  0  0  0
   -5.1400   16.9280  -34.9220 N   0  0  0  0  0  0  0  0  0  0  0  0
   -5.7250   16.7580  -33.7220 C   0  0  0  0  0  0  0  0  0  0  0  0
   -6.0120   20.4880  -31.5480 C   0  0  0  0  0  0  0  0  0  0  0  0
   -6.1750   21.8630  -31.3350 C   0  0  0  0  0  0  0  0  0  0  0  0
   -5.2310   22.7840  -31.0410 N   0  0  0  0  0  0  0  0  0  0  0  0
   -3.8190   22.5510  -30.9280 C   0  0  0  0  0  0  0  0  0  0  0  0
   -3.0770   22.6830  -31.9390 O   0  0  0  0  0  0  0  0  0  0  0  0
   -3.2720   22.1980  -29.6880 O   0  0  0  0  0  0  0  0  0  0  0  0
   -2.8940   23.1530  -28.6990 C   0  0  0  0  0  0  0  0  0  0  0  0
   -1.7210   23.9520  -29.1670 C   0  0  0  0  0  0  0  0  0  0  0  0
   -0.6250   23.3810  -29.4130 O   0  0  0  0  0  0  0  0  0  0  0  0
   -1.8250   25.3300  -29.3060 O   0  0  0  0  0  0  0  0  0  0  0  0
   -3.2100   24.7700  -30.8750 H   0  0  0  0  0  0  0  0  0  0  0  0
   -8.0223   24.5820  -31.2640 H   0  0  0  0  0  0  0  0  0  0  0  0
   -9.5309   22.2246  -31.8502 H   0  0  0  0  0  0  0  0  0  0  0  0
   -9.3096   19.7403  -32.1951 H   0  0  0  0  0  0  0  0  0  0  0  0
   -6.4467   17.8090  -31.2277 H   0  0  0  0  0  0  0  0  0  0  0  0
   -8.0324   17.7883  -32.0808 H   0  0  0  0  0  0  0  0  0  0  0  0
   -6.3819   19.8679  -34.4176 H   0  0  0  0  0  0  0  0  0  0  0  0
   -5.7189   15.8287  -33.1335 H   0  0  0  0  0  0  0  0  0  0  0  0
   -5.0207   20.0185  -31.4648 H   0  0  0  0  0  0  0  0  0  0  0  0
   -3.7397   23.8296  -28.5067 H   0  0  0  0  0  0  0  0  0  0  0  0
   -2.6179   22.6209  -27.7767 H   0  0  0  0  0  0  0  0  0  0  0  0
  1  2  1  0
  2  3  2  0
  2  4  1  0
  4  5  2  0
  5  6  1  0
  6  7  2  0
  7  8  1  0
  8  9  2  0
  9 10  1  0
 10 11  1  0
 11 12  1  0
 12 13  2  0
 13 14  1  0
 14 15  1  0
  9 16  1  0
 16 17  2  0
 17 18  1  0
 18 19  1  0
 19 20  2  0
 19 21  1  0
 21 22  1  0
 22 23  1  0
 23 24  2  0
 23 25  1  0
 18  4  1  0
 17  6  1  0
 15 11  2  0
  1 26  1  0
  5 27  1  0
  7 28  1  0
  8 29  1  0
 10 30  1  0
 10 31  1  0
 12 32  1  0
 15 33  1  0
 16 34  1  0
 22 35  1  0
 22 36  1  0
M  CHG  3   1  -1  14  -1  25  -1
M  END
>  <UniqueID>  (37) 
37

>  <SMILES>  (37) 
[NH-]C(=O)c1cc2ccc(Cc3cn[n-]c3)cc2n1C(=O)OCC(=O)[O-]

>  <Energy>  (37) 
102.93076368794551

>  <Genealogy>  (37) 
[NH-]C(=O)c1cc2ccc(Cc3cn[n-]c3)cc2n1C(=O)OCC(=O)[O-] (protonated)
[NH-]C(=O)c1cc2ccc(Cc3cn[n-]c3)cc2n1C(=O)OCC(=O)[O-] (3D coordinates assigned)
[NH-]C(=O)c1cc2ccc(Cc3cn[n-]c3)cc2n1C(=O)OCC(=O)[O-] (optimized conformer: 102.93076368794551 kcal/mol)

>  <smiles>  (37) 
NC(=O)c1cc2ccc(Cc3cn[nH]c3)cc2n1C(=O)OCC(=O)O

>  <score_type>  (37) 
oracle

>  <origin>  (37) 
adg

>  <m_score__min__energy>  (37) 
-12.56

>  <m_primary>  (37) 
energy

$$$$
39:0
     RDKit          3D

 47 50  0  0  0  0  0  0  0  0999 V2000
   -1.1540   18.8860  -33.0060 C   0  0  0  0  0  0  0  0  0  0  0  0
   -2.1420   19.9410  -32.8280 N   0  0  0  0  0  0  0  0  0  0  0  0
   -2.6430   20.3550  -31.6490 C   0  0  0  0  0  0  0  0  0  0  0  0
   -3.6190   21.2920  -31.9140 C   0  0  0  0  0  0  0  0  0  0  0  0
   -4.4590   21.9950  -30.9320 C   0  0  0  0  0  0  0  0  0  0  0  0
   -4.0210   22.1830  -29.7660 O   0  0  0  0  0  0  0  0  0  0  0  0
   -5.7750   22.4630  -31.2790 N   0  0  0  0  0  0  0  0  0  0  0  0
   -6.3100   23.6820  -30.9950 C   0  0  0  0  0  0  0  0  0  0  0  0
   -5.5620   24.8580  -30.5050 C   0  0  0  0  0  0  0  0  0  0  0  0
   -5.8860   25.4760  -29.2590 N   0  0  0  0  0  0  0  0  0  0  0  0
   -4.5910   25.2980  -31.1760 O   0  0  0  0  0  0  0  0  0  0  0  0
   -7.6860   23.6800  -31.2170 C   0  0  0  0  0  0  0  0  0  0  0  0
   -7.9820   22.4050  -31.6440 C   0  0  0  0  0  0  0  0  0  0  0  0
   -9.2140   21.8180  -31.9240 C   0  0  0  0  0  0  0  0  0  0  0  0
   -9.2350   20.4470  -32.2390 C   0  0  0  0  0  0  0  0  0  0  0  0
   -8.0330   19.6980  -32.2760 C   0  0  0  0  0  0  0  0  0  0  0  0
   -8.0630   18.2160  -32.5650 C   0  0  0  0  0  0  0  0  0  0  0  0
   -6.8240   17.4950  -32.0130 C   0  0  0  0  0  0  0  0  0  0  0  0
   -5.7260   17.4140  -33.0390 C   0  0  0  0  0  0  0  0  0  0  0  0
   -5.8900   17.9740  -34.3160 C   0  0  0  0  0  0  0  0  0  0  0  0
   -4.8970   17.7860  -35.2790 C   0  0  0  0  0  0  0  0  0  0  0  0
   -3.7530   17.0520  -34.9640 C   0  0  0  0  0  0  0  0  0  0  0  0
   -3.6180   16.5150  -33.6820 C   0  0  0  0  0  0  0  0  0  0  0  0
   -4.5990   16.7000  -32.7600 N   0  0  0  0  0  0  0  0  0  0  0  0
   -6.8050   20.3320  -31.9920 C   0  0  0  0  0  0  0  0  0  0  0  0
   -6.8120   21.6930  -31.6760 C   0  0  0  0  0  0  0  0  0  0  0  0
   -3.6610   21.3980  -33.2930 C   0  0  0  0  0  0  0  0  0  0  0  0
   -2.7570   20.5530  -33.8270 N   0  0  0  0  0  0  0  0  0  0  0  0
   -0.8186   18.5279  -32.0215 H   0  0  0  0  0  0  0  0  0  0  0  0
   -1.6041   18.0527  -33.5655 H   0  0  0  0  0  0  0  0  0  0  0  0
   -0.2930   19.2806  -33.5655 H   0  0  0  0  0  0  0  0  0  0  0  0
   -2.3299   20.0080  -30.6532 H   0  0  0  0  0  0  0  0  0  0  0  0
   -6.5570   25.0340  -28.5920 H   0  0  0  0  0  0  0  0  0  0  0  0
   -5.3790   26.3380  -28.9550 H   0  0  0  0  0  0  0  0  0  0  0  0
   -8.3857   24.5177  -31.0803 H   0  0  0  0  0  0  0  0  0  0  0  0
  -10.1419   22.4083  -31.8995 H   0  0  0  0  0  0  0  0  0  0  0  0
  -10.1927   19.9524  -32.4584 H   0  0  0  0  0  0  0  0  0  0  0  0
   -8.9616   17.7823  -32.1019 H   0  0  0  0  0  0  0  0  0  0  0  0
   -8.0737   18.0837  -33.6570 H   0  0  0  0  0  0  0  0  0  0  0  0
   -6.4526   18.0448  -31.1356 H   0  0  0  0  0  0  0  0  0  0  0  0
   -7.1159   16.4701  -31.7404 H   0  0  0  0  0  0  0  0  0  0  0  0
   -6.7925   18.5555  -34.5554 H   0  0  0  0  0  0  0  0  0  0  0  0
   -5.0163   18.2158  -36.2845 H   0  0  0  0  0  0  0  0  0  0  0  0
   -2.9662   16.8980  -35.7171 H   0  0  0  0  0  0  0  0  0  0  0  0
   -2.7169   15.9418  -33.4183 H   0  0  0  0  0  0  0  0  0  0  0  0
   -5.8618   19.7666  -32.0188 H   0  0  0  0  0  0  0  0  0  0  0  0
   -4.3255   22.0648  -33.8620 H   0  0  0  0  0  0  0  0  0  0  0  0
  1  2  1  0
  2  3  1  0
  3  4  2  0
  4  5  1  0
  5  6  2  0
  5  7  1  0
  7  8  1  0
  8  9  1  0
  9 10  1  0
  9 11  2  0
  8 12  2  0
 12 13  1  0
 13 14  2  0
 14 15  1  0
 15 16  2  0
 16 17  1  0
 17 18  1  0
 18 19  1  0
 19 20  2  0
 20 21  1  0
 21 22  2  0
 22 23  1  0
 23 24  2  0
 16 25  1  0
 25 26  2  0
  4 27  1  0
 27 28  2  0
 28  2  1  0
 26  7  1  0
 26 13  1  0
 24 19  1  0
  1 29  1  0
  1 30  1  0
  1 31  1  0
  3 32  1  0
 10 33  1  0
 10 34  1  0
 12 35  1  0
 14 36  1  0
 15 37  1  0
 17 38  1  0
 17 39  1  0
 18 40  1  0
 18 41  1  0
 20 42  1  0
 21 43  1  0
 22 44  1  0
 23 45  1  0
 25 46  1  0
 27 47  1  0
M  END
>  <UniqueID>  (38) 
38

>  <SMILES>  (38) 
Cn1cc(C(=O)n2c(C(N)=O)cc3ccc(CCc4ccccn4)cc32)cn1

>  <Energy>  (38) 
115.32149925466454

>  <Genealogy>  (38) 
Cn1cc(C(=O)n2c(C(N)=O)cc3ccc(CCc4ccccn4)cc32)cn1 (3D coordinates assigned)
Cn1cc(C(=O)n2c(C(N)=O)cc3ccc(CCc4ccccn4)cc32)cn1 (optimized conformer: 115.32149925466454 kcal/mol)

>  <smiles>  (38) 
Cn1cc(C(=O)n2c(C(N)=O)cc3ccc(CCc4ccccn4)cc32)cn1

>  <score_type>  (38) 
oracle

>  <origin>  (38) 
adg

>  <m_score__min__energy>  (38) 
-10.23

>  <m_primary>  (38) 
energy

$$$$
40:0
     RDKit          3D

 29 30  0  0  0  0  0  0  0  0999 V2000
   -5.3270   24.7310  -29.0150 N   0  0  0  0  0  0  0  0  0  0  0  0
   -4.7090   24.6300  -30.2970 C   0  0  0  0  0  0  0  0  0  0  0  0
   -4.2360   25.6660  -30.8380 O   0  0  0  0  0  0  0  0  0  0  0  0
   -4.6700   23.3480  -31.0290 C   0  0  0  0  0  0  0  0  0  0  0  0
   -3.4890   22.7380  -31.4430 C   0  0  0  0  0  0  0  0  0  0  0  0
   -3.8840   21.6180  -32.1370 C   0  0  0  0  0  0  0  0  0  0  0  0
   -3.1190   20.6420  -32.7670 C   0  0  0  0  0  0  0  0  0  0  0  0
   -3.7910   19.5740  -33.3850 C   0  0  0  0  0  0  0  0  0  0  0  0
   -5.2060   19.4830  -33.3380 C   0  0  0  0  0  0  0  0  0  0  0  0
   -5.9170   18.3510  -34.0340 C   0  0  0  0  0  0  0  0  0  0  0  0
   -7.1410   18.1010  -33.4370 F   0  0  0  0  0  0  0  0  0  0  0  0
   -6.1240   18.6880  -35.3590 F   0  0  0  0  0  0  0  0  0  0  0  0
   -5.1640   17.1910  -33.9780 F   0  0  0  0  0  0  0  0  0  0  0  0
   -5.9490   20.5060  -32.7050 C   0  0  0  0  0  0  0  0  0  0  0  0
   -5.2550   21.5710  -32.1180 C   0  0  0  0  0  0  0  0  0  0  0  0
   -5.7530   22.6280  -31.4370 N   0  0  0  0  0  0  0  0  0  0  0  0
   -7.1330   22.8690  -31.1170 C   0  0  0  0  0  0  0  0  0  0  0  0
   -7.4340   23.4660  -30.0460 O   0  0  0  0  0  0  0  0  0  0  0  0
   -8.1370   22.4390  -31.9910 O   0  0  0  0  0  0  0  0  0  0  0  0
   -9.2500   21.6550  -31.5740 C   0  0  0  0  0  0  0  0  0  0  0  0
   -9.1880   20.0420  -32.3290 Cl  0  0  0  0  0  0  0  0  0  0  0  0
   -5.8770   23.9390  -28.6160 H   0  0  0  0  0  0  0  0  0  0  0  0
   -5.3070   25.6370  -28.4940 H   0  0  0  0  0  0  0  0  0  0  0  0
   -2.4601   23.0788  -31.2553 H   0  0  0  0  0  0  0  0  0  0  0  0
   -2.0209   20.7044  -32.7810 H   0  0  0  0  0  0  0  0  0  0  0  0
   -3.2135   18.7997  -33.9112 H   0  0  0  0  0  0  0  0  0  0  0  0
   -7.0478   20.4660  -32.6744 H   0  0  0  0  0  0  0  0  0  0  0  0
   -9.2265   21.5446  -30.4798 H   0  0  0  0  0  0  0  0  0  0  0  0
  -10.1780   22.1588  -31.8821 H   0  0  0  0  0  0  0  0  0  0  0  0
  1  2  1  0
  2  3  2  0
  2  4  1  0
  4  5  2  0
  5  6  1  0
  6  7  2  0
  7  8  1  0
  8  9  2  0
  9 10  1  0
 10 11  1  0
 10 12  1  0
 10 13  1  0
  9 14  1  0
 14 15  2  0
 15 16  1  0
 16 17  1  0
 17 18  2  0
 17 19  1  0
 19 20  1  0
 20 21  1  0
 16  4  1  0
 15  6  1  0
  1 22  1  0
  1 23  1  0
  5 24  1  0
  7 25  1  0
  8 26  1  0
 14 27  1  0
 20 28  1  0
 20 29  1  0
M  END
>  <UniqueID>  (39) 
39

>  <SMILES>  (39) 
NC(=O)c1cc2ccc(C(F)(F)F)cc2n1C(=O)OCCl

>  <Energy>  (39) 
67.74308607998172

>  <Genealogy>  (39) 
NC(=O)c1cc2ccc(C(F)(F)F)cc2n1C(=O)OCCl (3D coordinates assigned)
NC(=O)c1cc2ccc(C(F)(F)F)cc2n1C(=O)OCCl (optimized conformer: 67.74308607998172 kcal/mol)

>  <smiles>  (39) 
NC(=O)c1cc2ccc(C(F)(F)F)cc2n1C(=O)OCCl

>  <score_type>  (39) 
oracle

>  <origin>  (39) 
adg

>  <m_score__min__energy>  (39) 
-7.5199999999999996

>  <m_primary>  (39) 
energy

$$$$
41:0
     RDKit          3D

 34 35  0  0  0  0  0  0  0  0999 V2000
   -2.5040   22.0520  -27.5110 C   0  0  0  0  0  0  0  0  0  0  0  0
   -3.0040   22.9390  -28.6530 C   0  0  2  0  0  0  0  0  0  0  0  0
   -3.3110   22.1440  -29.7980 O   0  0  0  0  0  0  0  0  0  0  0  0
   -3.8470   22.6640  -30.9820 C   0  0  0  0  0  0  0  0  0  0  0  0
   -3.0870   23.0390  -31.9160 O   0  0  0  0  0  0  0  0  0  0  0  0
   -5.2720   22.7820  -31.1260 N   0  0  0  0  0  0  0  0  0  0  0  0
   -6.0560   23.8560  -30.8220 C   0  0  0  0  0  0  0  0  0  0  0  0
   -5.5650   25.1900  -30.4090 C   0  0  0  0  0  0  0  0  0  0  0  0
   -4.2130   25.5800  -30.6590 N   0  0  0  0  0  0  0  0  0  0  0  0
   -6.3300   25.9860  -29.8030 O   0  0  0  0  0  0  0  0  0  0  0  0
   -7.3990   23.5570  -31.0450 C   0  0  0  0  0  0  0  0  0  0  0  0
   -7.4130   22.2580  -31.4990 C   0  0  0  0  0  0  0  0  0  0  0  0
   -8.4870   21.4510  -31.8660 C   0  0  0  0  0  0  0  0  0  0  0  0
   -8.2120   20.1350  -32.2740 C   0  0  0  0  0  0  0  0  0  0  0  0
   -6.8800   19.6520  -32.3030 C   0  0  0  0  0  0  0  0  0  0  0  0
   -6.5910   18.2380  -32.7220 C   0  0  0  0  0  0  0  0  0  0  0  0
   -7.6970   17.4440  -32.4850 F   0  0  0  0  0  0  0  0  0  0  0  0
   -6.2870   18.2070  -34.0710 F   0  0  0  0  0  0  0  0  0  0  0  0
   -5.8170   20.5000  -31.9230 C   0  0  0  0  0  0  0  0  0  0  0  0
   -6.1180   21.8130  -31.5390 C   0  0  0  0  0  0  0  0  0  0  0  0
   -1.9460   23.9330  -29.0230 C   0  0  0  0  0  0  0  0  0  0  0  0
   -0.7350   23.5900  -29.0490 O   0  0  0  0  0  0  0  0  0  0  0  0
   -2.3010   25.2280  -29.3840 O   0  0  0  0  0  0  0  0  0  0  0  0
   -2.7643   22.5138  -26.5471 H   0  0  0  0  0  0  0  0  0  0  0  0
   -2.9765   21.0612  -27.5824 H   0  0  0  0  0  0  0  0  0  0  0  0
   -1.4117   21.9433  -27.5824 H   0  0  0  0  0  0  0  0  0  0  0  0
   -3.9107   23.4636  -28.3174 H   0  0  0  0  0  0  0  0  0  0  0  0
   -3.8660   26.5060  -30.3280 H   0  0  0  0  0  0  0  0  0  0  0  0
   -3.5650   24.9710  -31.2060 H   0  0  0  0  0  0  0  0  0  0  0  0
   -8.2640   24.2188  -30.8908 H   0  0  0  0  0  0  0  0  0  0  0  0
   -9.5185   21.8320  -31.8373 H   0  0  0  0  0  0  0  0  0  0  0  0
   -9.0382   19.4735  -32.5737 H   0  0  0  0  0  0  0  0  0  0  0  0
   -5.7371   17.8580  -32.1419 H   0  0  0  0  0  0  0  0  0  0  0  0
   -4.7781   20.1385  -31.9284 H   0  0  0  0  0  0  0  0  0  0  0  0
  1  2  1  0
  2  3  1  0
  3  4  1  0
  4  5  2  0
  4  6  1  0
  6  7  1  0
  7  8  1  0
  8  9  1  0
  8 10  2  0
  7 11  2  0
 11 12  1  0
 12 13  2  0
 13 14  1  0
 14 15  2  0
 15 16  1  0
 16 17  1  0
 16 18  1  0
 15 19  1  0
 19 20  2  0
  2 21  1  0
 21 22  2  0
 21 23  1  0
 20  6  1  0
 20 12  1  0
  1 24  1  0
  1 25  1  0
  1 26  1  0
  2 27  1  1
  9 28  1  0
  9 29  1  0
 11 30  1  0
 13 31  1  0
 14 32  1  0
 16 33  1  0
 19 34  1  0
M  CHG  1  23  -1
M  END
>  <UniqueID>  (40) 
40

>  <SMILES>  (40) 
C[C@H](OC(=O)n1c(C(N)=O)cc2ccc(C(F)F)cc21)C(=O)[O-]

>  <Energy>  (40) 
67.85518840414437

>  <Genealogy>  (40) 
CC(OC(=O)n1c(C(N)=O)cc2ccc(C(F)F)cc21)C(=O)[O-] (protonated)
C[C@H](OC(=O)n1c(C(N)=O)cc2ccc(C(F)F)cc21)C(=O)[O-] (chirality)
C[C@H](OC(=O)n1c(C(N)=O)cc2ccc(C(F)F)cc21)C(=O)[O-] (3D coordinates assigned)
C[C@H](OC(=O)n1c(C(N)=O)cc2ccc(C(F)F)cc21)C(=O)[O-] (optimized conformer: 67.85518840414437 kcal/mol)

>  <smiles>  (40) 
CC(OC(=O)n1c(C(N)=O)cc2ccc(C(F)F)cc21)C(=O)O

>  <score_type>  (40) 
oracle

>  <origin>  (40) 
adg

>  <m_score__min__energy>  (40) 
-10.050000000000001

>  <m_primary>  (40) 
energy

$$$$
42:0
     RDKit          3D

 39 41  0  0  0  0  0  0  0  0999 V2000
   -5.6260   25.0660  -29.0290 N   0  0  0  0  0  0  0  0  0  0  0  0
   -5.5340   24.7790  -30.4260 C   0  0  0  0  0  0  0  0  0  0  0  0
   -5.1230   25.6750  -31.2100 O   0  0  0  0  0  0  0  0  0  0  0  0
   -5.9510   23.4620  -30.9560 C   0  0  0  0  0  0  0  0  0  0  0  0
   -7.2810   23.0670  -31.0890 C   0  0  0  0  0  0  0  0  0  0  0  0
   -7.2380   21.8400  -31.7090 C   0  0  0  0  0  0  0  0  0  0  0  0
   -8.2750   20.9980  -32.0960 C   0  0  0  0  0  0  0  0  0  0  0  0
   -7.9420   19.7810  -32.7130 C   0  0  0  0  0  0  0  0  0  0  0  0
   -6.5840   19.4150  -32.9080 C   0  0  0  0  0  0  0  0  0  0  0  0
   -6.2350   18.1260  -33.6080 C   0  0  0  0  0  0  0  0  0  0  0  0
   -7.2360   17.1860  -33.4340 F   0  0  0  0  0  0  0  0  0  0  0  0
   -5.0570   17.6010  -33.1040 F   0  0  0  0  0  0  0  0  0  0  0  0
   -6.0760   18.3710  -34.9590 F   0  0  0  0  0  0  0  0  0  0  0  0
   -5.5590   20.3090  -32.5200 C   0  0  0  0  0  0  0  0  0  0  0  0
   -5.9220   21.5260  -31.9270 C   0  0  0  0  0  0  0  0  0  0  0  0
   -5.1180   22.5120  -31.4700 N   0  0  0  0  0  0  0  0  0  0  0  0
   -3.6800   22.5190  -31.4860 C   0  0  0  0  0  0  0  0  0  0  0  0
   -3.0600   22.0300  -32.4680 O   0  0  0  0  0  0  0  0  0  0  0  0
   -2.9830   23.0960  -30.4170 O   0  0  0  0  0  0  0  0  0  0  0  0
   -3.1710   22.7830  -29.0640 C   0  0  0  0  0  0  0  0  0  0  0  0
   -3.8040   23.5580  -28.2970 O   0  0  0  0  0  0  0  0  0  0  0  0
   -2.6170   21.5310  -28.5380 C   0  0  0  0  0  0  0  0  0  0  0  0
   -3.1260   20.8060  -27.4690 C   0  0  0  0  0  0  0  0  0  0  0  0
   -2.3770   19.6540  -27.1800 C   0  0  0  0  0  0  0  0  0  0  0  0
   -2.7530   18.6840  -26.1010 C   0  0  0  0  0  0  0  0  0  0  0  0
   -4.1350   18.4580  -26.1160 O   0  0  0  0  0  0  0  0  0  0  0  0
   -1.2940   19.4620  -28.0320 C   0  0  0  0  0  0  0  0  0  0  0  0
   -1.2550   20.7380  -29.1280 S   0  0  0  0  0  0  0  0  0  0  0  0
   -5.3670   26.0120  -28.6710 H   0  0  0  0  0  0  0  0  0  0  0  0
   -5.9110   24.3330  -28.3440 H   0  0  0  0  0  0  0  0  0  0  0  0
   -8.1757   23.6196  -30.7664 H   0  0  0  0  0  0  0  0  0  0  0  0
   -9.3250   21.2769  -31.9239 H   0  0  0  0  0  0  0  0  0  0  0  0
   -8.7416   19.1043  -33.0487 H   0  0  0  0  0  0  0  0  0  0  0  0
   -4.5008   20.0549  -32.6800 H   0  0  0  0  0  0  0  0  0  0  0  0
   -4.0233   21.1033  -26.9065 H   0  0  0  0  0  0  0  0  0  0  0  0
   -2.2271   17.7324  -26.2680 H   0  0  0  0  0  0  0  0  0  0  0  0
   -2.4678   19.1035  -25.1250 H   0  0  0  0  0  0  0  0  0  0  0  0
   -4.5110   18.9510  -25.3400 H   0  0  0  0  0  0  0  0  0  0  0  0
   -0.5856   18.6212  -27.9954 H   0  0  0  0  0  0  0  0  0  0  0  0
  1  2  1  0
  2  3  2  0
  2  4  1  0
  4  5  2  0
  5  6  1  0
  6  7  2  0
  7  8  1  0
  8  9  2  0
  9 10  1  0
 10 11  1  0
 10 12  1  0
 10 13  1  0
  9 14  1  0
 14 15  2  0
 15 16  1  0
 16 17  1  0
 17 18  2  0
 17 19  1  0
 19 20  1  0
 20 21  2  0
 20 22  1  0
 22 23  2  0
 23 24  1  0
 24 25  1  0
 25 26  1  0
 24 27  2  0
 27 28  1  0
 16  4  1  0
 28 22  1  0
 15  6  1  0
  1 29  1  0
  1 30  1  0
  5 31  1  0
  7 32  1  0
  8 33  1  0
 14 34  1  0
 23 35  1  0
 25 36  1  0
 25 37  1  0
 26 38  1  0
 27 39  1  0
M  END
>  <UniqueID>  (41) 
41

>  <SMILES>  (41) 
NC(=O)c1cc2ccc(C(F)(F)F)cc2n1C(=O)OC(=O)c1cc(CO)cs1

>  <Energy>  (41) 
104.83210535342094

>  <Genealogy>  (41) 
NC(=O)c1cc2ccc(C(F)(F)F)cc2n1C(=O)OC(=O)c1cc(CO)cs1 (3D coordinates assigned)
NC(=O)c1cc2ccc(C(F)(F)F)cc2n1C(=O)OC(=O)c1cc(CO)cs1 (optimized conformer: 104.83210535342094 kcal/mol)

>  <smiles>  (41) 
NC(=O)c1cc2ccc(C(F)(F)F)cc2n1C(=O)OC(=O)c1cc(CO)cs1

>  <score_type>  (41) 
oracle

>  <origin>  (41) 
adg

>  <m_score__min__energy>  (41) 
-9.4199999999999999

>  <m_primary>  (41) 
energy

$$$$
43:0
     RDKit          3D

 44 46  0  0  0  0  0  0  0  0999 V2000
   -0.5570   19.9280  -27.6330 C   0  0  0  0  0  0  0  0  0  0  0  0
   -0.4350   21.3160  -27.9290 O   0  0  0  0  0  0  0  0  0  0  0  0
   -1.4580   22.1000  -28.4830 C   0  0  0  0  0  0  0  0  0  0  0  0
   -2.6990   21.5640  -28.8630 C   0  0  0  0  0  0  0  0  0  0  0  0
   -3.6870   22.3860  -29.4110 C   0  0  0  0  0  0  0  0  0  0  0  0
   -3.4570   23.7630  -29.5930 C   0  0  0  0  0  0  0  0  0  0  0  0
   -4.5140   24.6380  -30.1720 C   0  0  0  0  0  0  0  0  0  0  0  0
   -4.1830   25.6490  -30.8480 O   0  0  0  0  0  0  0  0  0  0  0  0
   -5.9850   24.3740  -29.9610 C   0  0  0  0  0  0  0  0  0  0  0  0
   -6.7510   24.2510  -31.2880 C   0  0  0  0  0  0  0  0  0  0  0  0
   -7.0400   22.8130  -31.6360 C   0  0  0  0  0  0  0  0  0  0  0  0
   -8.3670   22.3190  -31.5790 C   0  0  0  0  0  0  0  0  0  0  0  0
   -8.6570   20.9990  -31.9560 C   0  0  0  0  0  0  0  0  0  0  0  0
   -7.6020   20.1960  -32.3790 C   0  0  0  0  0  0  0  0  0  0  0  0
   -7.6100   18.8980  -32.8370 C   0  0  0  0  0  0  0  0  0  0  0  0
   -6.2840   18.6100  -33.1430 C   0  0  0  0  0  0  0  0  0  0  0  0
   -5.8300   17.2860  -33.6170 C   0  0  0  0  0  0  0  0  0  0  0  0
   -4.6420   17.1470  -34.3970 N   0  0  0  0  0  0  0  0  0  0  0  0
   -6.4730   16.2560  -33.2800 O   0  0  0  0  0  0  0  0  0  0  0  0
   -5.4850   19.6880  -32.8990 N   0  0  0  0  0  0  0  0  0  0  0  0
   -4.0840   19.8230  -33.1950 C   0  0  0  0  0  0  0  0  0  0  0  0
   -3.6630   20.8240  -33.8320 O   0  0  0  0  0  0  0  0  0  0  0  0
   -3.1790   18.8550  -32.7780 O   0  0  0  0  0  0  0  0  0  0  0  0
   -6.3090   20.6510  -32.4280 C   0  0  0  0  0  0  0  0  0  0  0  0
   -5.9960   21.9710  -32.0790 C   0  0  0  0  0  0  0  0  0  0  0  0
   -2.2090   24.2970  -29.2060 C   0  0  0  0  0  0  0  0  0  0  0  0
   -1.9390   25.6560  -29.3390 O   0  0  0  0  0  0  0  0  0  0  0  0
   -1.2240   23.4670  -28.6610 C   0  0  0  0  0  0  0  0  0  0  0  0
   -0.5695   19.7854  -26.5424 H   0  0  0  0  0  0  0  0  0  0  0  0
   -1.4925   19.5420  -28.0640 H   0  0  0  0  0  0  0  0  0  0  0  0
    0.2969   19.3847  -28.0640 H   0  0  0  0  0  0  0  0  0  0  0  0
   -2.8946   20.4899  -28.7284 H   0  0  0  0  0  0  0  0  0  0  0  0
   -4.6549   21.9527  -29.7034 H   0  0  0  0  0  0  0  0  0  0  0  0
   -6.0990   23.4357  -29.3983 H   0  0  0  0  0  0  0  0  0  0  0  0
   -6.4044   25.2272  -29.4078 H   0  0  0  0  0  0  0  0  0  0  0  0
   -7.7033   24.7947  -31.2012 H   0  0  0  0  0  0  0  0  0  0  0  0
   -6.1242   24.6766  -32.0855 H   0  0  0  0  0  0  0  0  0  0  0  0
   -9.1784   22.9775  -31.2355 H   0  0  0  0  0  0  0  0  0  0  0  0
   -9.6857   20.6111  -31.9184 H   0  0  0  0  0  0  0  0  0  0  0  0
   -8.4789   18.2312  -32.9392 H   0  0  0  0  0  0  0  0  0  0  0  0
   -4.3580   16.2080  -34.7550 H   0  0  0  0  0  0  0  0  0  0  0  0
   -4.0000   17.9540  -34.5490 H   0  0  0  0  0  0  0  0  0  0  0  0
   -4.9630   22.3426  -32.1482 H   0  0  0  0  0  0  0  0  0  0  0  0
   -0.2536   23.8948  -28.3689 H   0  0  0  0  0  0  0  0  0  0  0  0
  1  2  1  0
  2  3  1  0
  3  4  2  0
  4  5  1  0
  5  6  2  0
  6  7  1  0
  7  8  2  0
  7  9  1  0
  9 10  1  0
 10 11  1  0
 11 12  2  0
 12 13  1  0
 13 14  2  0
 14 15  1  0
 15 16  2  0
 16 17  1  0
 17 18  1  0
 17 19  2  0
 16 20  1  0
 20 21  1  0
 21 22  2  0
 21 23  1  0
 20 24  1  0
 24 25  2  0
  6 26  1  0
 26 27  1  0
 26 28  2  0
 28  3  1  0
 25 11  1  0
 24 14  1  0
  1 29  1  0
  1 30  1  0
  1 31  1  0
  4 32  1  0
  5 33  1  0
  9 34  1  0
  9 35  1  0
 10 36  1  0
 10 37  1  0
 12 38  1  0
 13 39  1  0
 15 40  1  0
 18 41  1  0
 18 42  1  0
 25 43  1  0
 28 44  1  0
M  CHG  2  23  -1  27  -1
M  END
>  <UniqueID>  (42) 
42

>  <SMILES>  (42) 
COc1ccc(C(=O)CCc2ccc3cc(C(N)=O)n(C(=O)[O-])c3c2)c([O-])c1

>  <Energy>  (42) 
86.10378659758881

>  <Genealogy>  (42) 
COc1ccc(C(=O)CCc2ccc3cc(C(N)=O)n(C(=O)[O-])c3c2)c([O-])c1 (protonated)
COc1ccc(C(=O)CCc2ccc3cc(C(N)=O)n(C(=O)[O-])c3c2)c([O-])c1 (3D coordinates assigned)
COc1ccc(C(=O)CCc2ccc3cc(C(N)=O)n(C(=O)[O-])c3c2)c([O-])c1 (optimized conformer: 86.10378659758881 kcal/mol)

>  <smiles>  (42) 
COc1ccc(C(=O)CCc2ccc3cc(C(N)=O)n(C(=O)O)c3c2)c(O)c1

>  <score_type>  (42) 
oracle

>  <origin>  (42) 
adg

>  <m_score__min__energy>  (42) 
-12.529999999999999

>  <m_primary>  (42) 
energy

$$$$
44:0
     RDKit          3D

 44 46  0  0  0  0  0  0  0  0999 V2000
   -1.8170   18.3840  -33.1760 C   0  0  0  0  0  0  0  0  0  0  0  0
   -3.2470   18.5320  -33.4140 N   0  0  0  0  0  0  0  0  0  0  0  0
   -4.2230   17.7720  -32.8810 C   0  0  0  0  0  0  0  0  0  0  0  0
   -5.4370   18.2700  -33.3110 C   0  0  0  0  0  0  0  0  0  0  0  0
   -6.7690   17.7550  -32.9370 C   0  0  0  0  0  0  0  0  0  0  0  0
   -7.7150   18.4520  -32.2870 C   0  0  0  0  0  0  0  0  0  0  0  0
   -7.6630   19.9050  -32.0020 C   0  0  0  0  0  0  0  0  0  0  0  0
   -8.8240   20.6910  -32.2010 C   0  0  0  0  0  0  0  0  0  0  0  0
   -8.8040   22.0730  -31.9520 C   0  0  0  0  0  0  0  0  0  0  0  0
   -7.6140   22.6400  -31.5050 C   0  0  0  0  0  0  0  0  0  0  0  0
   -7.3200   23.9420  -31.1700 C   0  0  0  0  0  0  0  0  0  0  0  0
   -5.9870   23.9270  -30.7610 C   0  0  0  0  0  0  0  0  0  0  0  0
   -5.2980   25.1110  -30.2040 C   0  0  0  0  0  0  0  0  0  0  0  0
   -4.1280   25.6150  -30.8440 N   0  0  0  0  0  0  0  0  0  0  0  0
   -5.7510   25.7060  -29.1920 O   0  0  0  0  0  0  0  0  0  0  0  0
   -5.4720   22.6680  -30.8560 N   0  0  0  0  0  0  0  0  0  0  0  0
   -4.1490   22.2180  -30.5200 C   0  0  0  0  0  0  0  0  0  0  0  0
   -3.8300   21.0100  -30.6900 O   0  0  0  0  0  0  0  0  0  0  0  0
   -3.2310   23.1230  -29.9730 O   0  0  0  0  0  0  0  0  0  0  0  0
   -2.5450   22.9070  -28.7430 C   0  0  0  0  0  0  0  0  0  0  0  0
   -2.1600   24.2410  -28.1060 C   0  0  0  0  0  0  0  0  0  0  0  0
   -2.4870   25.3010  -28.9630 O   0  0  0  0  0  0  0  0  0  0  0  0
   -6.4800   21.8950  -31.3140 C   0  0  0  0  0  0  0  0  0  0  0  0
   -6.4590   20.5270  -31.6030 C   0  0  0  0  0  0  0  0  0  0  0  0
   -5.1280   19.3810  -34.0810 C   0  0  0  0  0  0  0  0  0  0  0  0
   -3.7890   19.5070  -34.1250 N   0  0  0  0  0  0  0  0  0  0  0  0
   -1.6257   18.3642  -32.0929 H   0  0  0  0  0  0  0  0  0  0  0  0
   -1.4654   17.4447  -33.6277 H   0  0  0  0  0  0  0  0  0  0  0  0
   -1.2805   19.2314  -33.6277 H   0  0  0  0  0  0  0  0  0  0  0  0
   -4.0782   16.9057  -32.2187 H   0  0  0  0  0  0  0  0  0  0  0  0
   -7.0056   16.7168  -33.2130 H   0  0  0  0  0  0  0  0  0  0  0  0
   -8.5999   17.8996  -31.9380 H   0  0  0  0  0  0  0  0  0  0  0  0
   -9.7505   20.2145  -32.5540 H   0  0  0  0  0  0  0  0  0  0  0  0
   -9.7022   22.6891  -32.1057 H   0  0  0  0  0  0  0  0  0  0  0  0
   -7.9937   24.8104  -31.2153 H   0  0  0  0  0  0  0  0  0  0  0  0
   -3.1800   25.2600  -30.5880 H   0  0  0  0  0  0  0  0  0  0  0  0
   -3.2004   22.3527  -28.0551 H   0  0  0  0  0  0  0  0  0  0  0  0
   -1.6301   22.3294  -28.9416 H   0  0  0  0  0  0  0  0  0  0  0  0
   -2.7035   24.3604  -27.1571 H   0  0  0  0  0  0  0  0  0  0  0  0
   -1.0755   24.2504  -27.9224 H   0  0  0  0  0  0  0  0  0  0  0  0
   -3.4580   25.2230  -29.1530 H   0  0  0  0  0  0  0  0  0  0  0  0
   -5.5268   19.9487  -31.5216 H   0  0  0  0  0  0  0  0  0  0  0  0
   -5.8537   20.0460  -34.5721 H   0  0  0  0  0  0  0  0  0  0  0  0
   -3.2560   20.2580  -34.6190 H   0  0  0  0  0  0  0  0  0  0  0  0
  1  2  1  0
  2  3  1  0
  3  4  2  0
  4  5  1  0
  5  6  2  3
  6  7  1  0
  7  8  2  0
  8  9  1  0
  9 10  2  0
 10 11  1  0
 11 12  2  0
 12 13  1  0
 13 14  1  0
 13 15  2  0
 12 16  1  0
 16 17  1  0
 17 18  2  0
 17 19  1  0
 19 20  1  0
 20 21  1  0
 21 22  1  0
 16 23  1  0
 23 24  2  0
  4 25  1  0
 25 26  2  0
 26  2  1  0
 24  7  1  0
 23 10  1  0
  1 27  1  0
  1 28  1  0
  1 29  1  0
  3 30  1  0
  5 31  1  0
  6 32  1  0
  8 33  1  0
  9 34  1  0
 11 35  1  0
 14 36  1  0
 20 37  1  0
 20 38  1  0
 21 39  1  0
 21 40  1  0
 22 41  1  0
 24 42  1  0
 25 43  1  0
 26 44  1  0
M  CHG  2  14  -1  26   1
M  END
>  <UniqueID>  (43) 
43

>  <SMILES>  (43) 
Cn1cc(C=Cc2ccc3cc(C([NH-])=O)n(C(=O)OCCO)c3c2)c[nH+]1

>  <Energy>  (43) 
116.58343111729964

>  <Genealogy>  (43) 
Cn1cc(C=Cc2ccc3cc(C([NH-])=O)n(C(=O)OCCO)c3c2)c[nH+]1 (protonated)
Cn1cc(C=Cc2ccc3cc(C([NH-])=O)n(C(=O)OCCO)c3c2)c[nH+]1 (3D coordinates assigned)
Cn1cc(C=Cc2ccc3cc(C([NH-])=O)n(C(=O)OCCO)c3c2)c[nH+]1 (optimized conformer: 116.58343111729964 kcal/mol)

>  <smiles>  (43) 
Cn1cc(C=Cc2ccc3cc(C(N)=O)n(C(=O)OCCO)c3c2)cn1

>  <score_type>  (43) 
oracle

>  <origin>  (43) 
adg

>  <m_score__min__energy>  (43) 
-10.130000000000001

>  <m_primary>  (43) 
energy

$$$$
45:0
     RDKit          3D

 50 52  0  0  0  0  0  0  0  0999 V2000
   -5.9650   18.2830  -34.1610 C   0  0  0  0  0  0  0  0  0  0  0  0
   -6.8510   18.3280  -32.9110 C   0  0  0  0  0  0  0  0  0  0  0  0
   -6.3070   17.4070  -31.8130 C   0  0  0  0  0  0  0  0  0  0  0  0
   -7.0080   19.7490  -32.4050 C   0  0  0  0  0  0  0  0  0  0  0  0
   -8.2900   20.3580  -32.3200 C   0  0  0  0  0  0  0  0  0  0  0  0
   -8.4330   21.6710  -31.8450 C   0  0  0  0  0  0  0  0  0  0  0  0
   -7.2850   22.3570  -31.4640 C   0  0  0  0  0  0  0  0  0  0  0  0
   -7.1350   23.6280  -30.9560 C   0  0  0  0  0  0  0  0  0  0  0  0
   -5.7650   23.7850  -30.7500 C   0  0  0  0  0  0  0  0  0  0  0  0
   -5.1430   25.0310  -30.2580 C   0  0  0  0  0  0  0  0  0  0  0  0
   -3.7690   25.2960  -30.5290 N   0  0  0  0  0  0  0  0  0  0  0  0
   -5.8100   25.8580  -29.5820 O   0  0  0  0  0  0  0  0  0  0  0  0
   -5.0990   22.6500  -31.1070 N   0  0  0  0  0  0  0  0  0  0  0  0
   -3.6900   22.3830  -31.0130 C   0  0  0  0  0  0  0  0  0  0  0  0
   -3.0120   22.3030  -32.0730 O   0  0  0  0  0  0  0  0  0  0  0  0
   -3.0370   22.1690  -29.6990 C   0  0  0  0  0  0  0  0  0  0  0  0
   -2.4640   23.2470  -29.0060 C   0  0  0  0  0  0  0  0  0  0  0  0
   -1.8600   23.0500  -27.7640 C   0  0  0  0  0  0  0  0  0  0  0  0
   -1.8130   21.7740  -27.1880 C   0  0  0  0  0  0  0  0  0  0  0  0
   -1.2230   21.6070  -25.8920 N   0  0  0  0  0  0  0  0  0  0  0  0
   -2.3690   20.6790  -27.8820 C   0  0  0  0  0  0  0  0  0  0  0  0
   -2.3150   19.3540  -27.3300 N   0  0  0  0  0  0  0  0  0  0  0  0
   -1.0440   18.6310  -27.3250 C   0  0  0  0  0  0  0  0  0  0  0  0
   -3.3580   18.9370  -26.3940 C   0  0  0  0  0  0  0  0  0  0  0  0
   -2.9740   20.8850  -29.1320 C   0  0  0  0  0  0  0  0  0  0  0  0
   -6.0400   21.7910  -31.5490 C   0  0  0  0  0  0  0  0  0  0  0  0
   -5.8650   20.4820  -32.0070 C   0  0  0  0  0  0  0  0  0  0  0  0
   -4.9084   18.2293  -33.8598 H   0  0  0  0  0  0  0  0  0  0  0  0
   -6.2209   17.3967  -34.7601 H   0  0  0  0  0  0  0  0  0  0  0  0
   -6.1298   19.1907  -34.7601 H   0  0  0  0  0  0  0  0  0  0  0  0
   -7.8482   17.9591  -33.1929 H   0  0  0  0  0  0  0  0  0  0  0  0
   -6.5547   17.8263  -30.8267 H   0  0  0  0  0  0  0  0  0  0  0  0
   -6.7613   16.4101  -31.9122 H   0  0  0  0  0  0  0  0  0  0  0  0
   -5.2147   17.3237  -31.9122 H   0  0  0  0  0  0  0  0  0  0  0  0
   -9.1812   19.7929  -32.6305 H   0  0  0  0  0  0  0  0  0  0  0  0
   -9.4240   22.1434  -31.7762 H   0  0  0  0  0  0  0  0  0  0  0  0
   -7.9279   24.3635  -30.7553 H   0  0  0  0  0  0  0  0  0  0  0  0
   -3.4900   26.0300  -31.2170 H   0  0  0  0  0  0  0  0  0  0  0  0
   -2.4915   24.2549  -29.4457 H   0  0  0  0  0  0  0  0  0  0  0  0
   -1.4165   23.9046  -27.2321 H   0  0  0  0  0  0  0  0  0  0  0  0
   -1.4010   20.7420  -25.3340 H   0  0  0  0  0  0  0  0  0  0  0  0
   -0.5770   22.3200  -25.4890 H   0  0  0  0  0  0  0  0  0  0  0  0
   -0.7284   18.4515  -26.2867 H   0  0  0  0  0  0  0  0  0  0  0  0
   -1.1678   17.6682  -27.8423 H   0  0  0  0  0  0  0  0  0  0  0  0
   -0.2797   19.2295  -27.8423 H   0  0  0  0  0  0  0  0  0  0  0  0
   -3.0031   19.0789  -25.3625 H   0  0  0  0  0  0  0  0  0  0  0  0
   -4.2612   19.5432  -26.5576 H   0  0  0  0  0  0  0  0  0  0  0  0
   -3.5944   17.8752  -26.5576 H   0  0  0  0  0  0  0  0  0  0  0  0
   -3.4042   20.0302  -29.6745 H   0  0  0  0  0  0  0  0  0  0  0  0
   -4.8623   20.0323  -32.0568 H   0  0  0  0  0  0  0  0  0  0  0  0
  1  2  1  0
  2  3  1  0
  2  4  1  0
  4  5  2  0
  5  6  1  0
  6  7  2  0
  7  8  1  0
  8  9  2  0
  9 10  1  0
 10 11  1  0
 10 12  2  0
  9 13  1  0
 13 14  1  0
 14 15  2  0
 14 16  1  0
 16 17  2  0
 17 18  1  0
 18 19  2  0
 19 20  1  0
 19 21  1  0
 21 22  1  0
 22 23  1  0
 22 24  1  0
 21 25  2  0
 13 26  1  0
 26 27  2  0
 27  4  1  0
 26  7  1  0
 25 16  1  0
  1 28  1  0
  1 29  1  0
  1 30  1  0
  2 31  1  0
  3 32  1  0
  3 33  1  0
  3 34  1  0
  5 35  1  0
  6 36  1  0
  8 37  1  0
 11 38  1  0
 17 39  1  0
 18 40  1  0
 20 41  1  0
 20 42  1  0
 23 43  1  0
 23 44  1  0
 23 45  1  0
 24 46  1  0
 24 47  1  0
 24 48  1  0
 25 49  1  0
 27 50  1  0
M  CHG  1  11  -1
M  END
>  <UniqueID>  (44) 
44

>  <SMILES>  (44) 
CC(C)c1ccc2cc(C([NH-])=O)n(C(=O)c3ccc(N)c(N(C)C)c3)c2c1

>  <Energy>  (44) 
92.05837303475752

>  <Genealogy>  (44) 
CC(C)c1ccc2cc(C([NH-])=O)n(C(=O)c3ccc(N)c(N(C)C)c3)c2c1 (protonated)
CC(C)c1ccc2cc(C([NH-])=O)n(C(=O)c3ccc(N)c(N(C)C)c3)c2c1 (3D coordinates assigned)
CC(C)c1ccc2cc(C([NH-])=O)n(C(=O)c3ccc(N)c(N(C)C)c3)c2c1 (optimized conformer: 92.05837303475752 kcal/mol)

>  <smiles>  (44) 
CC(C)c1ccc2cc(C(N)=O)n(C(=O)c3ccc(N)c(N(C)C)c3)c2c1

>  <score_type>  (44) 
oracle

>  <origin>  (44) 
adg

>  <m_score__min__energy>  (44) 
-11.83

>  <m_primary>  (44) 
energy

$$$$
46:0
     RDKit          3D

 56 60  0  0  0  0  0  0  0  0999 V2000
   -5.3740   25.3160  -30.8310 C   0  0  0  0  0  0  0  0  0  0  0  0
   -4.2450   24.4800  -31.0520 O   0  0  0  0  0  0  0  0  0  0  0  0
   -4.0020   23.3260  -30.3000 C   0  0  0  0  0  0  0  0  0  0  0  0
   -4.8400   22.9430  -29.4380 O   0  0  0  0  0  0  0  0  0  0  0  0
   -2.7830   22.5920  -30.4920 N   0  0  0  0  0  0  0  0  0  0  0  0
   -1.5180   22.9570  -30.1330 C   0  0  0  0  0  0  0  0  0  0  0  0
   -1.1520   24.1410  -29.3250 C   0  0  0  0  0  0  0  0  0  0  0  0
   -1.9890   25.2960  -29.3420 N   0  0  0  0  0  0  0  0  0  0  0  0
   -0.0930   24.1570  -28.6470 O   0  0  0  0  0  0  0  0  0  0  0  0
   -0.5950   22.0060  -30.5640 C   0  0  0  0  0  0  0  0  0  0  0  0
   -1.3390   21.0360  -31.1950 C   0  0  0  0  0  0  0  0  0  0  0  0
   -0.9300   19.8620  -31.8200 C   0  0  0  0  0  0  0  0  0  0  0  0
   -1.9150   19.0540  -32.4120 C   0  0  0  0  0  0  0  0  0  0  0  0
   -3.2830   19.4300  -32.3730 C   0  0  0  0  0  0  0  0  0  0  0  0
   -4.2790   18.6020  -33.0000 N   0  0  0  0  0  0  0  0  0  0  0  0
   -4.8670   18.9760  -34.2920 C   0  0  0  0  0  0  0  0  0  0  0  0
   -6.4070   18.9890  -34.2200 C   0  0  0  0  0  0  0  0  0  0  0  0
   -6.9830   18.1740  -33.0280 C   0  0  0  0  0  0  0  0  0  0  0  0
   -7.0730   19.0190  -31.8140 N   0  0  0  0  0  0  0  0  0  0  0  0
   -7.5400   20.3970  -32.1010 C   0  0  2  0  0  0  0  0  0  0  0  0
   -6.8580   21.4550  -31.2160 C   0  0  0  0  0  0  0  0  0  0  0  0
   -7.9070   22.5040  -30.8630 C   0  0  1  0  0  0  0  0  0  0  0  0
   -8.7020   23.1140  -32.0100 C   0  0  0  0  0  0  0  0  0  0  0  0
   -9.2590   21.9340  -31.2220 C   0  0  1  0  0  0  0  0  0  0  0  0
   -9.0360   20.5410  -31.8030 C   0  0  0  0  0  0  0  0  0  0  0  0
   -6.1010   16.9290  -32.7910 C   0  0  0  0  0  0  0  0  0  0  0  0
   -4.6690   17.3240  -32.3870 C   0  0  0  0  0  0  0  0  0  0  0  0
   -3.6540   20.6370  -31.7380 C   0  0  0  0  0  0  0  0  0  0  0  0
   -2.6550   21.4130  -31.1400 C   0  0  0  0  0  0  0  0  0  0  0  0
   -5.5356   25.4356  -29.7495 H   0  0  0  0  0  0  0  0  0  0  0  0
   -5.1954   26.3013  -31.2863 H   0  0  0  0  0  0  0  0  0  0  0  0
   -6.2643   24.8577  -31.2863 H   0  0  0  0  0  0  0  0  0  0  0  0
   -2.8820   25.3020  -29.8850 H   0  0  0  0  0  0  0  0  0  0  0  0
    0.4964   22.0266  -30.4285 H   0  0  0  0  0  0  0  0  0  0  0  0
    0.1316   19.5755  -31.8496 H   0  0  0  0  0  0  0  0  0  0  0  0
   -1.6225   18.1187  -32.9117 H   0  0  0  0  0  0  0  0  0  0  0  0
   -4.5122   19.9792  -34.5709 H   0  0  0  0  0  0  0  0  0  0  0  0
   -4.5594   18.2335  -35.0430 H   0  0  0  0  0  0  0  0  0  0  0  0
   -6.7414   20.0323  -34.1214 H   0  0  0  0  0  0  0  0  0  0  0  0
   -6.7763   18.5157  -35.1418 H   0  0  0  0  0  0  0  0  0  0  0  0
   -8.0036   17.8402  -33.2666 H   0  0  0  0  0  0  0  0  0  0  0  0
   -6.1120   19.0700  -31.4030 H   0  0  0  0  0  0  0  0  0  0  0  0
   -7.2996   20.5596  -33.1620 H   0  0  0  0  0  0  0  0  0  0  0  0
   -6.0276   21.9241  -31.7641 H   0  0  0  0  0  0  0  0  0  0  0  0
   -6.4507   20.9930  -30.3046 H   0  0  0  0  0  0  0  0  0  0  0  0
   -7.3964   22.9695  -30.0071 H   0  0  0  0  0  0  0  0  0  0  0  0
   -8.3671   22.9749  -33.0485 H   0  0  0  0  0  0  0  0  0  0  0  0
   -9.0596   24.1231  -32.2628 H   0  0  0  0  0  0  0  0  0  0  0  0
  -10.2433   21.7672  -30.7601 H   0  0  0  0  0  0  0  0  0  0  0  0
   -9.6161   20.4242  -32.7303 H   0  0  0  0  0  0  0  0  0  0  0  0
   -9.3641   19.7688  -31.0916 H   0  0  0  0  0  0  0  0  0  0  0  0
   -6.5454   16.3232  -31.9875 H   0  0  0  0  0  0  0  0  0  0  0  0
   -6.0507   16.3566  -33.7290 H   0  0  0  0  0  0  0  0  0  0  0  0
   -4.6183   17.4204  -31.2924 H   0  0  0  0  0  0  0  0  0  0  0  0
   -3.9790   16.5430  -32.7390 H   0  0  0  0  0  0  0  0  0  0  0  0
   -4.7054   20.9594  -31.7144 H   0  0  0  0  0  0  0  0  0  0  0  0
  1  2  1  0
  2  3  1  0
  3  4  2  0
  3  5  1  0
  5  6  1  0
  6  7  1  0
  7  8  1  0
  7  9  2  0
  6 10  2  0
 10 11  1  0
 11 12  2  0
 12 13  1  0
 13 14  2  0
 14 15  1  0
 15 16  1  0
 16 17  1  0
 17 18  1  0
 18 19  1  0
 19 20  1  0
 20 21  1  0
 21 22  1  0
 22 23  1  0
 23 24  1  0
 24 25  1  0
 18 26  1  0
 26 27  1  0
 14 28  1  0
 28 29  2  0
 29  5  1  0
 29 11  1  0
 27 15  1  0
 25 20  1  0
 24 22  1  0
  1 30  1  0
  1 31  1  0
  1 32  1  0
  8 33  1  0
 10 34  1  0
 12 35  1  0
 13 36  1  0
 16 37  1  0
 16 38  1  0
 17 39  1  0
 17 40  1  0
 18 41  1  0
 19 42  1  0
 20 43  1  6
 21 44  1  0
 21 45  1  0
 22 46  1  1
 23 47  1  0
 23 48  1  0
 24 49  1  1
 25 50  1  0
 25 51  1  0
 26 52  1  0
 26 53  1  0
 27 54  1  0
 27 55  1  0
 28 56  1  0
M  CHG  1   8  -1
M  END
>  <UniqueID>  (45) 
45

>  <SMILES>  (45) 
COC(=O)n1c(C([NH-])=O)cc2ccc(N3CCC(NC4C[C@@H]5C[C@@H]5C4)CC3)cc21

>  <Energy>  (45) 
373.4563407353626

>  <Genealogy>  (45) 
COC(=O)n1c(C([NH-])=O)cc2ccc(N3CCC(NC4CC5CC5C4)CC3)cc21 (protonated)
COC(=O)n1c(C([NH-])=O)cc2ccc(N3CCC(NC4C[C@@H]5C[C@@H]5C4)CC3)cc21 (chirality)
COC(=O)n1c(C([NH-])=O)cc2ccc(N3CCC(NC4C[C@@H]5C[C@@H]5C4)CC3)cc21 (3D coordinates assigned)
COC(=O)n1c(C([NH-])=O)cc2ccc(N3CCC(NC4C[C@@H]5C[C@@H]5C4)CC3)cc21 (nonaromatic ring conformer: 373.4563407353626 kcal/mol)

>  <smiles>  (45) 
COC(=O)n1c(C(N)=O)cc2ccc(N3CCC(NC4CC5CC5C4)CC3)cc21

>  <score_type>  (45) 
oracle

>  <origin>  (45) 
adg

>  <m_score__min__energy>  (45) 
-12.109999999999999

>  <m_primary>  (45) 
energy

$$$$
47:0
     RDKit          3D

 59 60  0  0  0  0  0  0  0  0999 V2000
   -0.6970   24.4140  -27.2370 C   0  0  0  0  0  0  0  0  0  0  0  0
   -1.1320   25.0270  -28.5330 C   0  0  0  0  0  0  0  0  0  0  0  0
   -1.3840   26.2590  -28.5750 O   0  0  0  0  0  0  0  0  0  0  0  0
   -1.2910   24.2640  -29.6960 O   0  0  0  0  0  0  0  0  0  0  0  0
   -1.2280   22.8420  -29.7190 C   0  0  0  0  0  0  0  0  0  0  0  0
   -1.7270   22.3250  -31.0640 C   0  0  0  0  0  0  0  0  0  0  0  0
   -3.0620   22.7580  -31.3140 O   0  0  0  0  0  0  0  0  0  0  0  0
   -4.1930   22.0930  -30.8230 C   0  0  0  0  0  0  0  0  0  0  0  0
   -4.0700   21.0190  -30.1750 O   0  0  0  0  0  0  0  0  0  0  0  0
   -5.4980   22.6540  -31.0380 N   0  0  0  0  0  0  0  0  0  0  0  0
   -5.8780   23.9540  -30.8870 C   0  0  0  0  0  0  0  0  0  0  0  0
   -4.9840   25.0840  -30.5650 C   0  0  0  0  0  0  0  0  0  0  0  0
   -3.6730   24.8660  -30.0400 N   0  0  0  0  0  0  0  0  0  0  0  0
   -5.3680   26.2620  -30.7990 O   0  0  0  0  0  0  0  0  0  0  0  0
   -7.2400   24.0980  -31.1290 C   0  0  0  0  0  0  0  0  0  0  0  0
   -7.6880   22.8380  -31.4500 C   0  0  0  0  0  0  0  0  0  0  0  0
   -8.9650   22.3990  -31.7800 C   0  0  0  0  0  0  0  0  0  0  0  0
   -9.1490   21.0310  -32.0330 C   0  0  0  0  0  0  0  0  0  0  0  0
   -8.0600   20.1260  -31.9430 C   0  0  0  0  0  0  0  0  0  0  0  0
   -8.2900   18.6470  -32.1460 C   0  0  0  0  0  0  0  0  0  0  0  0
   -7.0040   17.8570  -32.2320 C   0  0  0  0  0  0  0  0  0  0  0  0
   -6.3910   17.5620  -31.1690 O   0  0  0  0  0  0  0  0  0  0  0  0
   -6.4300   17.4860  -33.5060 N   0  0  0  0  0  0  0  0  0  0  0  0
   -6.5110   16.0890  -33.9400 C   0  0  0  0  0  0  0  0  0  0  0  0
   -5.7850   18.4740  -34.3840 C   0  0  0  0  0  0  0  0  0  0  0  0
   -4.3090   18.1230  -34.5980 C   0  0  0  0  0  0  0  0  0  0  0  0
   -3.4380   19.2110  -34.0990 N   0  0  0  0  0  0  0  0  0  0  0  0
   -2.4700   18.6990  -33.1110 C   0  0  0  0  0  0  0  0  0  0  0  0
   -4.2490   20.2730  -33.4810 C   0  0  0  0  0  0  0  0  0  0  0  0
   -6.7770   20.6060  -31.5920 C   0  0  0  0  0  0  0  0  0  0  0  0
   -6.6180   21.9820  -31.3810 C   0  0  0  0  0  0  0  0  0  0  0  0
   -1.1097   24.9956  -26.3995 H   0  0  0  0  0  0  0  0  0  0  0  0
   -1.0634   23.3784  -27.1800 H   0  0  0  0  0  0  0  0  0  0  0  0
    0.4015   24.4179  -27.1800 H   0  0  0  0  0  0  0  0  0  0  0  0
   -0.1872   22.5200  -29.5672 H   0  0  0  0  0  0  0  0  0  0  0  0
   -1.8618   22.4371  -28.9162 H   0  0  0  0  0  0  0  0  0  0  0  0
   -1.0706   22.7041  -31.8611 H   0  0  0  0  0  0  0  0  0  0  0  0
   -1.7131   21.2253  -31.0439 H   0  0  0  0  0  0  0  0  0  0  0  0
   -3.0740   25.6790  -29.7750 H   0  0  0  0  0  0  0  0  0  0  0  0
   -3.2620   23.9080  -29.9990 H   0  0  0  0  0  0  0  0  0  0  0  0
   -7.8328   25.0230  -31.0751 H   0  0  0  0  0  0  0  0  0  0  0  0
   -9.8073   23.1039  -31.8411 H   0  0  0  0  0  0  0  0  0  0  0  0
  -10.1473   20.6567  -32.3037 H   0  0  0  0  0  0  0  0  0  0  0  0
   -8.8808   18.2646  -31.3006 H   0  0  0  0  0  0  0  0  0  0  0  0
   -8.8173   18.5237  -33.1035 H   0  0  0  0  0  0  0  0  0  0  0  0
   -6.5491   15.4327  -33.0581 H   0  0  0  0  0  0  0  0  0  0  0  0
   -7.4190   15.9447  -34.5439 H   0  0  0  0  0  0  0  0  0  0  0  0
   -5.6257   15.8407  -34.5439 H   0  0  0  0  0  0  0  0  0  0  0  0
   -6.2990   18.4835  -35.3565 H   0  0  0  0  0  0  0  0  0  0  0  0
   -5.8488   19.4647  -33.9102 H   0  0  0  0  0  0  0  0  0  0  0  0
   -4.0755   17.1951  -34.0553 H   0  0  0  0  0  0  0  0  0  0  0  0
   -4.1284   17.9892  -35.6748 H   0  0  0  0  0  0  0  0  0  0  0  0
   -2.8435   18.8965  -32.0954 H   0  0  0  0  0  0  0  0  0  0  0  0
   -2.3422   17.6154  -33.2504 H   0  0  0  0  0  0  0  0  0  0  0  0
   -1.5024   19.2032  -33.2504 H   0  0  0  0  0  0  0  0  0  0  0  0
   -4.1868   20.1915  -32.3858 H   0  0  0  0  0  0  0  0  0  0  0  0
   -3.8693   21.2556  -33.7977 H   0  0  0  0  0  0  0  0  0  0  0  0
   -5.2969   20.1654  -33.7977 H   0  0  0  0  0  0  0  0  0  0  0  0
   -5.9259   19.9170  -31.4873 H   0  0  0  0  0  0  0  0  0  0  0  0
  1  2  1  0
  2  3  2  0
  2  4  1  0
  4  5  1  0
  5  6  1  0
  6  7  1  0
  7  8  1  0
  8  9  2  0
  8 10  1  0
 10 11  1  0
 11 12  1  0
 12 13  1  0
 12 14  2  0
 11 15  2  0
 15 16  1  0
 16 17  2  0
 17 18  1  0
 18 19  2  0
 19 20  1  0
 20 21  1  0
 21 22  2  0
 21 23  1  0
 23 24  1  0
 23 25  1  0
 25 26  1  0
 26 27  1  0
 27 28  1  0
 27 29  1  0
 19 30  1  0
 30 31  2  0
 31 10  1  0
 31 16  1  0
  1 32  1  0
  1 33  1  0
  1 34  1  0
  5 35  1  0
  5 36  1  0
  6 37  1  0
  6 38  1  0
 13 39  1  0
 13 40  1  0
 15 41  1  0
 17 42  1  0
 18 43  1  0
 20 44  1  0
 20 45  1  0
 24 46  1  0
 24 47  1  0
 24 48  1  0
 25 49  1  0
 25 50  1  0
 26 51  1  0
 26 52  1  0
 28 53  1  0
 28 54  1  0
 28 55  1  0
 29 56  1  0
 29 57  1  0
 29 58  1  0
 30 59  1  0
M  END
>  <UniqueID>  (46) 
46

>  <SMILES>  (46) 
CC(=O)OCCOC(=O)n1c(C(N)=O)cc2ccc(CC(=O)N(C)CCN(C)C)cc21

>  <Energy>  (46) 
87.34384102095902

>  <Genealogy>  (46) 
CC(=O)OCCOC(=O)n1c(C(N)=O)cc2ccc(CC(=O)N(C)CCN(C)C)cc21 (3D coordinates assigned)
CC(=O)OCCOC(=O)n1c(C(N)=O)cc2ccc(CC(=O)N(C)CCN(C)C)cc21 (optimized conformer: 87.34384102095902 kcal/mol)

>  <smiles>  (46) 
CC(=O)OCCOC(=O)n1c(C(N)=O)cc2ccc(CC(=O)N(C)CCN(C)C)cc21

>  <score_type>  (46) 
oracle

>  <origin>  (46) 
adg

>  <m_score__min__energy>  (46) 
-8.5

>  <m_primary>  (46) 
energy

$$$$
48:0
     RDKit          3D

 39 40  0  0  0  0  0  0  0  0999 V2000
   -4.8760   19.1940  -33.8840 C   0  0  0  0  0  0  0  0  0  0  0  0
   -6.0630   18.3290  -33.9890 N   0  0  0  0  0  0  0  0  0  0  0  0
   -5.7350   17.0240  -34.5970 C   0  0  0  0  0  0  0  0  0  0  0  0
   -6.7100   18.1470  -32.6980 C   0  0  0  0  0  0  0  0  0  0  0  0
   -6.1100   17.5620  -31.8040 O   0  0  0  0  0  0  0  0  0  0  0  0
   -8.0860   18.7220  -32.4000 C   0  0  0  0  0  0  0  0  0  0  0  0
   -7.9900   20.1810  -32.0340 C   0  0  0  0  0  0  0  0  0  0  0  0
   -9.1680   20.9450  -31.8330 C   0  0  0  0  0  0  0  0  0  0  0  0
   -9.0870   22.2990  -31.4620 C   0  0  0  0  0  0  0  0  0  0  0  0
   -7.8210   22.8510  -31.2770 C   0  0  0  0  0  0  0  0  0  0  0  0
   -7.4490   24.1310  -30.9220 C   0  0  0  0  0  0  0  0  0  0  0  0
   -6.0570   24.1080  -30.8640 C   0  0  0  0  0  0  0  0  0  0  0  0
   -5.2270   25.2550  -30.4440 C   0  0  0  0  0  0  0  0  0  0  0  0
   -3.8570   25.3250  -30.8410 N   0  0  0  0  0  0  0  0  0  0  0  0
   -5.7270   26.1900  -29.7650 O   0  0  0  0  0  0  0  0  0  0  0  0
   -5.5880   22.8700  -31.1890 N   0  0  0  0  0  0  0  0  0  0  0  0
   -4.2250   22.4340  -31.2750 C   0  0  0  0  0  0  0  0  0  0  0  0
   -3.7060   22.2340  -32.4090 O   0  0  0  0  0  0  0  0  0  0  0  0
   -3.3680   22.3640  -30.0450 C   0  0  0  0  0  0  0  0  0  0  0  0
   -2.2990   23.2640  -30.1450 O   0  0  0  0  0  0  0  0  0  0  0  0
   -6.6770   22.1140  -31.4330 C   0  0  0  0  0  0  0  0  0  0  0  0
   -6.7240   20.7710  -31.8220 C   0  0  0  0  0  0  0  0  0  0  0  0
   -4.6402   19.3658  -32.8234 H   0  0  0  0  0  0  0  0  0  0  0  0
   -4.0216   18.7053  -34.3751 H   0  0  0  0  0  0  0  0  0  0  0  0
   -5.0795   20.1570  -34.3751 H   0  0  0  0  0  0  0  0  0  0  0  0
   -6.7340   18.8120  -34.6360 H   0  0  0  0  0  0  0  0  0  0  0  0
   -5.5495   16.2858  -33.8029 H   0  0  0  0  0  0  0  0  0  0  0  0
   -6.5767   16.6881  -35.2205 H   0  0  0  0  0  0  0  0  0  0  0  0
   -4.8345   17.1259  -35.2205 H   0  0  0  0  0  0  0  0  0  0  0  0
   -8.7220   18.6151  -33.2911 H   0  0  0  0  0  0  0  0  0  0  0  0
   -8.5202   18.1739  -31.5509 H   0  0  0  0  0  0  0  0  0  0  0  0
  -10.1530   20.4745  -31.9684 H   0  0  0  0  0  0  0  0  0  0  0  0
   -9.9951   22.9038  -31.3221 H   0  0  0  0  0  0  0  0  0  0  0  0
   -8.1106   24.9877  -30.7263 H   0  0  0  0  0  0  0  0  0  0  0  0
   -3.0880   25.2840  -30.1370 H   0  0  0  0  0  0  0  0  0  0  0  0
   -3.9758   22.6190  -29.1643 H   0  0  0  0  0  0  0  0  0  0  0  0
   -2.9686   21.3440  -29.9449 H   0  0  0  0  0  0  0  0  0  0  0  0
   -2.4040   23.7480  -31.0110 H   0  0  0  0  0  0  0  0  0  0  0  0
   -5.8000   20.1900  -31.9591 H   0  0  0  0  0  0  0  0  0  0  0  0
  1  2  1  0
  2  3  1  0
  2  4  1  0
  4  5  2  0
  4  6  1  0
  6  7  1  0
  7  8  2  0
  8  9  1  0
  9 10  2  0
 10 11  1  0
 11 12  2  0
 12 13  1  0
 13 14  1  0
 13 15  2  0
 12 16  1  0
 16 17  1  0
 17 18  2  0
 17 19  1  0
 19 20  1  0
 16 21  1  0
 21 22  2  0
 22  7  1  0
 21 10  1  0
  1 23  1  0
  1 24  1  0
  1 25  1  0
  2 26  1  0
  3 27  1  0
  3 28  1  0
  3 29  1  0
  6 30  1  0
  6 31  1  0
  8 32  1  0
  9 33  1  0
 11 34  1  0
 14 35  1  0
 19 36  1  0
 19 37  1  0
 20 38  1  0
 22 39  1  0
M  CHG  2   2   1  14  -1
M  END
>  <UniqueID>  (47) 
47

>  <SMILES>  (47) 
C[NH+](C)C(=O)Cc1ccc2cc(C([NH-])=O)n(C(=O)CO)c2c1

>  <Energy>  (47) 
78.8573056533648

>  <Genealogy>  (47) 
C[NH+](C)C(=O)Cc1ccc2cc(C([NH-])=O)n(C(=O)CO)c2c1 (protonated)
C[NH+](C)C(=O)Cc1ccc2cc(C([NH-])=O)n(C(=O)CO)c2c1 (3D coordinates assigned)
C[NH+](C)C(=O)Cc1ccc2cc(C([NH-])=O)n(C(=O)CO)c2c1 (optimized conformer: 78.8573056533648 kcal/mol)

>  <smiles>  (47) 
CN(C)C(=O)Cc1ccc2cc(C(N)=O)n(C(=O)CO)c2c1

>  <score_type>  (47) 
oracle

>  <origin>  (47) 
adg

>  <m_score__min__energy>  (47) 
-9.3000000000000007

>  <m_primary>  (47) 
energy

$$$$
49:0
     RDKit          3D

 35 37  0  0  0  0  0  0  0  0999 V2000
   -3.8790   25.3070  -30.5970 N   0  0  0  0  0  0  0  0  0  0  0  0
   -5.2850   25.1470  -30.4290 C   0  0  0  0  0  0  0  0  0  0  0  0
   -5.9430   26.0520  -29.8500 O   0  0  0  0  0  0  0  0  0  0  0  0
   -5.9710   23.9180  -30.8810 C   0  0  0  0  0  0  0  0  0  0  0  0
   -7.2890   23.8940  -31.3300 C   0  0  0  0  0  0  0  0  0  0  0  0
   -7.5700   22.5660  -31.5630 C   0  0  0  0  0  0  0  0  0  0  0  0
   -8.7400   21.9650  -32.0170 C   0  0  0  0  0  0  0  0  0  0  0  0
   -8.7420   20.5690  -32.1800 C   0  0  0  0  0  0  0  0  0  0  0  0
   -7.5750   19.8050  -31.9130 C   0  0  0  0  0  0  0  0  0  0  0  0
   -7.6030   18.3040  -32.0560 C   0  0  0  0  0  0  0  0  0  0  0  0
   -8.8940   17.8240  -31.9240 F   0  0  0  0  0  0  0  0  0  0  0  0
   -7.1190   17.9580  -33.3040 F   0  0  0  0  0  0  0  0  0  0  0  0
   -6.8180   17.7060  -31.0860 F   0  0  0  0  0  0  0  0  0  0  0  0
   -6.4140   20.4530  -31.4320 C   0  0  0  0  0  0  0  0  0  0  0  0
   -6.4470   21.8410  -31.2640 C   0  0  0  0  0  0  0  0  0  0  0  0
   -5.4550   22.6570  -30.8470 N   0  0  0  0  0  0  0  0  0  0  0  0
   -4.1130   22.2610  -30.5210 C   0  0  0  0  0  0  0  0  0  0  0  0
   -3.5550   21.3530  -31.1930 O   0  0  0  0  0  0  0  0  0  0  0  0
   -3.4030   22.9350  -29.4690 N   0  0  0  0  0  0  0  0  0  0  0  0
   -2.1280   22.5150  -28.9520 C   0  0  0  0  0  0  0  0  0  0  0  0
   -1.9200   21.2180  -28.5840 N   0  0  0  0  0  0  0  0  0  0  0  0
   -0.7310   20.7900  -28.0820 C   0  0  0  0  0  0  0  0  0  0  0  0
    0.3260   21.6880  -27.9280 C   0  0  0  0  0  0  0  0  0  0  0  0
    0.1450   23.0230  -28.2920 C   0  0  0  0  0  0  0  0  0  0  0  0
   -1.0840   23.4450  -28.8040 C   0  0  0  0  0  0  0  0  0  0  0  0
   -1.2540   24.7440  -29.1550 F   0  0  0  0  0  0  0  0  0  0  0  0
   -3.4930   26.0440  -31.2270 H   0  0  0  0  0  0  0  0  0  0  0  0
   -7.9622   24.7528  -31.4690 H   0  0  0  0  0  0  0  0  0  0  0  0
   -9.6352   22.5636  -32.2413 H   0  0  0  0  0  0  0  0  0  0  0  0
   -9.6579   20.0624  -32.5182 H   0  0  0  0  0  0  0  0  0  0  0  0
   -5.5060   19.8788  -31.1955 H   0  0  0  0  0  0  0  0  0  0  0  0
   -3.8570   23.7820  -29.0560 H   0  0  0  0  0  0  0  0  0  0  0  0
   -0.6023   19.7354  -27.7971 H   0  0  0  0  0  0  0  0  0  0  0  0
    1.2909   21.3474  -27.5243 H   0  0  0  0  0  0  0  0  0  0  0  0
    0.9693   23.7421  -28.1758 H   0  0  0  0  0  0  0  0  0  0  0  0
  1  2  1  0
  2  3  2  0
  2  4  1  0
  4  5  2  0
  5  6  1  0
  6  7  2  0
  7  8  1  0
  8  9  2  0
  9 10  1  0
 10 11  1  0
 10 12  1  0
 10 13  1  0
  9 14  1  0
 14 15  2  0
 15 16  1  0
 16 17  1  0
 17 18  2  0
 17 19  1  0
 19 20  1  0
 20 21  2  0
 21 22  1  0
 22 23  2  0
 23 24  1  0
 24 25  2  0
 25 26  1  0
 16  4  1  0
 25 20  1  0
 15  6  1  0
  1 27  1  0
  5 28  1  0
  7 29  1  0
  8 30  1  0
 14 31  1  0
 19 32  1  0
 22 33  1  0
 23 34  1  0
 24 35  1  0
M  CHG  1   1  -1
M  END
>  <UniqueID>  (48) 
48

>  <SMILES>  (48) 
[NH-]C(=O)c1cc2ccc(C(F)(F)F)cc2n1C(=O)Nc1ncccc1F

>  <Energy>  (48) 
79.74193692954073

>  <Genealogy>  (48) 
[NH-]C(=O)c1cc2ccc(C(F)(F)F)cc2n1C(=O)Nc1ncccc1F (protonated)
[NH-]C(=O)c1cc2ccc(C(F)(F)F)cc2n1C(=O)Nc1ncccc1F (3D coordinates assigned)
[NH-]C(=O)c1cc2ccc(C(F)(F)F)cc2n1C(=O)Nc1ncccc1F (optimized conformer: 79.74193692954073 kcal/mol)

>  <smiles>  (48) 
NC(=O)c1cc2ccc(C(F)(F)F)cc2n1C(=O)Nc1ncccc1F

>  <score_type>  (48) 
oracle

>  <origin>  (48) 
adg

>  <m_score__min__energy>  (48) 
-10.609999999999999

>  <m_primary>  (48) 
energy

$$$$
50:0
     RDKit          3D

 35 37  0  0  0  0  0  0  0  0999 V2000
   -5.6850   17.7130  -34.6120 N   0  0  0  0  0  0  0  0  0  0  0  0
   -6.4990   17.7760  -33.7730 C   0  0  0  0  0  0  0  0  0  0  0  0
   -7.5320   17.8540  -32.7410 C   0  0  0  0  0  0  0  0  0  0  0  0
   -7.5880   19.2490  -32.2330 C   0  0  0  0  0  0  0  0  0  0  0  0
   -8.8140   19.7490  -31.8870 C   0  0  0  0  0  0  0  0  0  0  0  0
   -8.8730   21.0350  -31.4160 C   0  0  0  0  0  0  0  0  0  0  0  0
   -7.7230   21.7850  -31.3010 C   0  0  0  0  0  0  0  0  0  0  0  0
   -7.5370   23.0600  -30.8490 C   0  0  0  0  0  0  0  0  0  0  0  0
   -6.1640   23.3770  -30.9110 C   0  0  0  0  0  0  0  0  0  0  0  0
   -5.7000   24.6790  -30.4910 C   0  0  0  0  0  0  0  0  0  0  0  0
   -5.3640   24.9130  -29.0900 N   0  0  0  0  0  0  0  0  0  0  0  0
   -5.5350   25.6950  -31.2010 O   0  0  0  0  0  0  0  0  0  0  0  0
   -5.5310   22.2900  -31.4010 N   0  0  0  0  0  0  0  0  0  0  0  0
   -4.1380   22.1680  -31.5750 C   0  0  0  0  0  0  0  0  0  0  0  0
   -3.7090   22.3340  -32.7770 O   0  0  0  0  0  0  0  0  0  0  0  0
   -3.0990   21.8780  -30.5980 C   0  0  0  0  0  0  0  0  0  0  0  0
   -2.4830   23.1010  -29.9730 C   0  0  0  0  0  0  0  0  0  0  0  0
   -2.9800   24.3590  -29.9550 N   0  0  0  0  0  0  0  0  0  0  0  0
   -2.1450   25.1270  -29.3180 O   0  0  0  0  0  0  0  0  0  0  0  0
   -1.1060   24.4480  -28.9040 C   0  0  0  0  0  0  0  0  0  0  0  0
   -0.1440   24.9430  -28.2610 O   0  0  0  0  0  0  0  0  0  0  0  0
   -1.3140   23.1830  -29.3110 N   0  0  0  0  0  0  0  0  0  0  0  0
   -6.4670   21.3200  -31.6390 C   0  0  0  0  0  0  0  0  0  0  0  0
   -6.4270   20.0250  -32.1100 C   0  0  0  0  0  0  0  0  0  0  0  0
   -8.5062   17.5760  -33.1696 H   0  0  0  0  0  0  0  0  0  0  0  0
   -7.2953   17.1631  -31.9185 H   0  0  0  0  0  0  0  0  0  0  0  0
   -9.7236   19.1381  -31.9838 H   0  0  0  0  0  0  0  0  0  0  0  0
   -9.8418   21.4696  -31.1289 H   0  0  0  0  0  0  0  0  0  0  0  0
   -8.3313   23.7327  -30.4932 H   0  0  0  0  0  0  0  0  0  0  0  0
   -6.1280   24.9400  -28.3840 H   0  0  0  0  0  0  0  0  0  0  0  0
   -4.3590   25.0490  -28.8190 H   0  0  0  0  0  0  0  0  0  0  0  0
   -3.5393   21.2656  -29.7973 H   0  0  0  0  0  0  0  0  0  0  0  0
   -2.2935   21.3580  -31.1372 H   0  0  0  0  0  0  0  0  0  0  0  0
   -0.6650   22.3910  -29.1370 H   0  0  0  0  0  0  0  0  0  0  0  0
   -5.4586   19.5891  -32.3968 H   0  0  0  0  0  0  0  0  0  0  0  0
  1  2  3  0
  2  3  1  0
  3  4  1  0
  4  5  2  0
  5  6  1  0
  6  7  2  0
  7  8  1  0
  8  9  2  0
  9 10  1  0
 10 11  1  0
 10 12  2  0
  9 13  1  0
 13 14  1  0
 14 15  2  0
 14 16  1  0
 16 17  1  0
 17 18  2  0
 18 19  1  0
 19 20  1  0
 20 21  2  0
 20 22  1  0
 13 23  1  0
 23 24  2  0
 24  4  1  0
 23  7  1  0
 22 17  1  0
  3 25  1  0
  3 26  1  0
  5 27  1  0
  6 28  1  0
  8 29  1  0
 11 30  1  0
 11 31  1  0
 16 32  1  0
 16 33  1  0
 22 34  1  0
 24 35  1  0
M  END
>  <smiles>  (49) 
N#CCc1ccc2cc(C(N)=O)n(C(=O)Cc3noc(=O)[nH]3)c2c1

>  <score_type>  (49) 
oracle

>  <origin>  (49) 
adg

>  <m_score__min__energy>  (49) 
-10.109999999999999

>  <m_primary>  (49) 
energy

$$$$
51:0
     RDKit          3D

 38 39  0  0  0  0  0  0  0  0999 V2000
   -6.9870   18.3740  -33.0520 C   0  0  0  0  0  0  0  0  0  0  0  0
   -7.1810   19.7510  -32.4890 C   0  0  0  0  0  0  0  0  0  0  0  0
   -8.4830   20.2090  -32.1710 C   0  0  0  0  0  0  0  0  0  0  0  0
   -8.6740   21.4760  -31.5950 C   0  0  0  0  0  0  0  0  0  0  0  0
   -7.5490   22.2540  -31.3440 C   0  0  0  0  0  0  0  0  0  0  0  0
   -7.4500   23.5030  -30.7750 C   0  0  0  0  0  0  0  0  0  0  0  0
   -6.0880   23.7810  -30.7410 C   0  0  0  0  0  0  0  0  0  0  0  0
   -5.5390   25.0480  -30.2330 C   0  0  0  0  0  0  0  0  0  0  0  0
   -4.2530   25.5050  -30.6490 N   0  0  0  0  0  0  0  0  0  0  0  0
   -6.1830   25.7000  -29.3700 O   0  0  0  0  0  0  0  0  0  0  0  0
   -5.3670   22.7630  -31.2890 N   0  0  0  0  0  0  0  0  0  0  0  0
   -3.9500   22.7370  -31.5490 C   0  0  0  0  0  0  0  0  0  0  0  0
   -3.5190   22.2960  -32.6480 O   0  0  0  0  0  0  0  0  0  0  0  0
   -3.0550   23.2150  -30.5890 O   0  0  0  0  0  0  0  0  0  0  0  0
   -1.7210   22.7320  -30.4400 C   0  0  0  0  0  0  0  0  0  0  0  0
   -1.2460   22.8330  -28.9870 C   0  0  0  0  0  0  0  0  0  0  0  0
   -1.4880   24.4710  -28.3030 S   0  0  0  0  0  0  0  0  0  0  0  0
   -2.4040   24.3840  -26.7770 C   0  0  0  0  0  0  0  0  0  0  0  0
   -0.1450   25.0810  -28.0230 O   0  0  0  0  0  0  0  0  0  0  0  0
   -2.2280   25.3400  -29.2820 O   0  0  0  0  0  0  0  0  0  0  0  0
   -6.2800   21.8280  -31.6450 C   0  0  0  0  0  0  0  0  0  0  0  0
   -6.0600   20.5620  -32.2060 C   0  0  0  0  0  0  0  0  0  0  0  0
   -6.8853   17.6521  -32.2283 H   0  0  0  0  0  0  0  0  0  0  0  0
   -7.8561   18.1048  -33.6702 H   0  0  0  0  0  0  0  0  0  0  0  0
   -6.0774   18.3554  -33.6702 H   0  0  0  0  0  0  0  0  0  0  0  0
   -9.3522   19.5670  -32.3768 H   0  0  0  0  0  0  0  0  0  0  0  0
   -9.6822   21.8414  -31.3501 H   0  0  0  0  0  0  0  0  0  0  0  0
   -8.2717   24.1438  -30.4227 H   0  0  0  0  0  0  0  0  0  0  0  0
   -3.6530   24.9180  -31.2700 H   0  0  0  0  0  0  0  0  0  0  0  0
   -3.8770   26.4120  -30.2960 H   0  0  0  0  0  0  0  0  0  0  0  0
   -1.6849   21.6788  -30.7554 H   0  0  0  0  0  0  0  0  0  0  0  0
   -1.0585   23.3505  -31.0633 H   0  0  0  0  0  0  0  0  0  0  0  0
   -1.8098   22.1095  -28.3797 H   0  0  0  0  0  0  0  0  0  0  0  0
   -0.1673   22.6182  -28.9706 H   0  0  0  0  0  0  0  0  0  0  0  0
   -1.7083   24.4501  -25.9275 H   0  0  0  0  0  0  0  0  0  0  0  0
   -3.1195   25.2182  -26.7308 H   0  0  0  0  0  0  0  0  0  0  0  0
   -2.9496   23.4300  -26.7308 H   0  0  0  0  0  0  0  0  0  0  0  0
   -5.0403   20.2095  -32.4202 H   0  0  0  0  0  0  0  0  0  0  0  0
  1  2  1  0
  2  3  2  0
  3  4  1  0
  4  5  2  0
  5  6  1  0
  6  7  2  0
  7  8  1  0
  8  9  1  0
  8 10  2  0
  7 11  1  0
 11 12  1  0
 12 13  2  0
 12 14  1  0
 14 15  1  0
 15 16  1  0
 16 17  1  0
 17 18  1  0
 17 19  2  0
 17 20  2  0
 11 21  1  0
 21 22  2  0
 22  2  1  0
 21  5  1  0
  1 23  1  0
  1 24  1  0
  1 25  1  0
  3 26  1  0
  4 27  1  0
  6 28  1  0
  9 29  1  0
  9 30  1  0
 15 31  1  0
 15 32  1  0
 16 33  1  0
 16 34  1  0
 18 35  1  0
 18 36  1  0
 18 37  1  0
 22 38  1  0
M  END
>  <UniqueID>  (50) 
49

>  <SMILES>  (50) 
Cc1ccc2cc(C(N)=O)n(C(=O)OCCS(C)(=O)=O)c2c1

>  <Energy>  (50) 
68.1167224082942

>  <Genealogy>  (50) 
Cc1ccc2cc(C(N)=O)n(C(=O)OCCS(C)(=O)=O)c2c1 (3D coordinates assigned)
Cc1ccc2cc(C(N)=O)n(C(=O)OCCS(C)(=O)=O)c2c1 (optimized conformer: 68.1167224082942 kcal/mol)

>  <smiles>  (50) 
Cc1ccc2cc(C(N)=O)n(C(=O)OCCS(C)(=O)=O)c2c1

>  <score_type>  (50) 
oracle

>  <origin>  (50) 
adg

>  <m_score__min__energy>  (50) 
-9.1699999999999999

>  <m_primary>  (50) 
energy

$$$$
52:0
     RDKit          3D

 35 37  0  0  0  0  0  0  0  0999 V2000
   -1.1830   22.9110  -30.0740 N   0  0  0  0  0  0  0  0  0  0  0  0
   -1.7050   22.2310  -31.2520 C   0  0  0  0  0  0  0  0  0  0  0  0
   -0.8060   21.8450  -32.0330 O   0  0  0  0  0  0  0  0  0  0  0  0
   -3.1240   22.0710  -31.4090 C   0  0  0  0  0  0  0  0  0  0  0  0
   -3.6650   20.9990  -32.1440 C   0  0  0  0  0  0  0  0  0  0  0  0
   -5.0190   21.0770  -32.1390 C   0  0  0  0  0  0  0  0  0  0  0  0
   -5.9800   20.2730  -32.7090 C   0  0  0  0  0  0  0  0  0  0  0  0
   -7.2980   20.5640  -32.5610 C   0  0  0  0  0  0  0  0  0  0  0  0
   -7.6550   21.6690  -31.8350 C   0  0  0  0  0  0  0  0  0  0  0  0
   -9.1010   22.0120  -31.6550 C   0  0  0  0  0  0  0  0  0  0  0  0
   -9.8530   21.1110  -32.3800 F   0  0  0  0  0  0  0  0  0  0  0  0
   -9.4830   21.9090  -30.3470 F   0  0  0  0  0  0  0  0  0  0  0  0
   -9.3520   23.3010  -32.0730 F   0  0  0  0  0  0  0  0  0  0  0  0
   -6.6720   22.4780  -31.2610 C   0  0  0  0  0  0  0  0  0  0  0  0
   -5.3270   22.2120  -31.3930 C   0  0  0  0  0  0  0  0  0  0  0  0
   -4.1760   22.7960  -30.9620 N   0  0  0  0  0  0  0  0  0  0  0  0
   -4.0940   23.9570  -30.1900 C   0  0  0  0  0  0  0  0  0  0  0  0
   -4.0270   25.1270  -30.7240 O   0  0  0  0  0  0  0  0  0  0  0  0
   -4.0710   24.0190  -28.7020 C   0  0  0  0  0  0  0  0  0  0  0  0
   -2.7270   24.5530  -28.2590 C   0  0  0  0  0  0  0  0  0  0  0  0
   -2.0940   24.3680  -27.0590 C   0  0  0  0  0  0  0  0  0  0  0  0
   -0.8760   25.0540  -27.1180 C   0  0  0  0  0  0  0  0  0  0  0  0
   -0.8070   25.6210  -28.3190 N   0  0  0  0  0  0  0  0  0  0  0  0
   -1.8860   25.3290  -28.9850 N   0  0  0  0  0  0  0  0  0  0  0  0
   -0.8470   23.8990  -30.1600 H   0  0  0  0  0  0  0  0  0  0  0  0
   -1.1500   22.3930  -29.1460 H   0  0  0  0  0  0  0  0  0  0  0  0
   -3.0780   20.2162  -32.6466 H   0  0  0  0  0  0  0  0  0  0  0  0
   -5.6780   19.3883  -33.2887 H   0  0  0  0  0  0  0  0  0  0  0  0
   -8.0666   19.9225  -33.0169 H   0  0  0  0  0  0  0  0  0  0  0  0
   -6.9833   23.3601  -30.6822 H   0  0  0  0  0  0  0  0  0  0  0  0
   -4.8698   24.6868  -28.3471 H   0  0  0  0  0  0  0  0  0  0  0  0
   -4.2317   23.0148  -28.2828 H   0  0  0  0  0  0  0  0  0  0  0  0
   -2.4733   23.7869  -26.2055 H   0  0  0  0  0  0  0  0  0  0  0  0
   -0.1191   25.1131  -26.3220 H   0  0  0  0  0  0  0  0  0  0  0  0
   -2.0590   25.6700  -29.9710 H   0  0  0  0  0  0  0  0  0  0  0  0
  1  2  1  0
  2  3  2  0
  2  4  1  0
  4  5  2  0
  5  6  1  0
  6  7  2  0
  7  8  1  0
  8  9  2  0
  9 10  1  0
 10 11  1  0
 10 12  1  0
 10 13  1  0
  9 14  1  0
 14 15  2  0
 15 16  1  0
 16 17  1  0
 17 18  2  0
 17 19  1  0
 19 20  1  0
 20 21  2  0
 21 22  1  0
 22 23  2  0
 23 24  1  0
 16  4  1  0
 24 20  1  0
 15  6  1  0
  1 25  1  0
  1 26  1  0
  5 27  1  0
  7 28  1  0
  8 29  1  0
 14 30  1  0
 19 31  1  0
 19 32  1  0
 21 33  1  0
 22 34  1  0
 24 35  1  0
M  END
>  <smiles>  (51) 
NC(=O)c1cc2ccc(C(F)(F)F)cc2n1C(=O)Cc1ccn[nH]1

>  <score_type>  (51) 
oracle

>  <origin>  (51) 
adg

>  <m_score__min__energy>  (51) 
-8.7200000000000006

>  <m_primary>  (51) 
energy

$$$$
53:0
     RDKit          3D

 44 46  0  0  0  0  0  0  0  0999 V2000
   -5.7080   12.6780  -33.1250 C   0  0  0  0  0  0  0  0  0  0  0  0
   -5.2930   13.2750  -34.4730 C   0  0  2  0  0  0  0  0  0  0  0  0
   -4.4230   12.4090  -35.1540 O   0  0  0  0  0  0  0  0  0  0  0  0
   -4.6400   14.6250  -34.3070 C   0  0  0  0  0  0  0  0  0  0  0  0
   -3.4250   14.6660  -33.9770 O   0  0  0  0  0  0  0  0  0  0  0  0
   -5.3570   15.8590  -34.5260 N   0  0  0  0  0  0  0  0  0  0  0  0
   -4.6470   17.0420  -35.0250 C   0  0  0  0  0  0  0  0  0  0  0  0
   -4.5090   18.0620  -33.8960 C   0  0  0  0  0  0  0  0  0  0  0  0
   -5.8150   18.2860  -33.2590 N   0  0  0  0  0  0  0  0  0  0  0  0
   -6.1600   19.6000  -32.7790 C   0  0  0  0  0  0  0  0  0  0  0  0
   -7.5160   20.0120  -32.7590 C   0  0  0  0  0  0  0  0  0  0  0  0
   -7.8700   21.2930  -32.3040 C   0  0  0  0  0  0  0  0  0  0  0  0
   -6.8520   22.1340  -31.8660 C   0  0  0  0  0  0  0  0  0  0  0  0
   -6.9120   23.4260  -31.3990 C   0  0  0  0  0  0  0  0  0  0  0  0
   -5.5940   23.7780  -31.1140 C   0  0  0  0  0  0  0  0  0  0  0  0
   -5.2130   25.0700  -30.5060 C   0  0  0  0  0  0  0  0  0  0  0  0
   -3.9670   25.6740  -30.8440 N   0  0  0  0  0  0  0  0  0  0  0  0
   -5.9920   25.6670  -29.7170 O   0  0  0  0  0  0  0  0  0  0  0  0
   -4.7510   22.7460  -31.4010 N   0  0  0  0  0  0  0  0  0  0  0  0
   -3.3170   22.7230  -31.3040 C   0  0  0  0  0  0  0  0  0  0  0  0
   -2.7380   23.2090  -30.2970 O   0  0  0  0  0  0  0  0  0  0  0  0
   -2.5530   22.1880  -32.3340 O   0  0  0  0  0  0  0  0  0  0  0  0
   -5.5380   21.7450  -31.8560 C   0  0  0  0  0  0  0  0  0  0  0  0
   -5.1550   20.4820  -32.3230 C   0  0  0  0  0  0  0  0  0  0  0  0
   -6.5870   17.1130  -32.8210 C   0  0  0  0  0  0  0  0  0  0  0  0
   -6.6890   16.0940  -33.9580 C   0  0  0  0  0  0  0  0  0  0  0  0
   -5.2864   13.2846  -32.3100 H   0  0  0  0  0  0  0  0  0  0  0  0
   -6.8053   12.6730  -33.0484 H   0  0  0  0  0  0  0  0  0  0  0  0
   -5.3304   11.6477  -33.0484 H   0  0  0  0  0  0  0  0  0  0  0  0
   -6.2103   13.4064  -35.0657 H   0  0  0  0  0  0  0  0  0  0  0  0
   -3.5120   12.7980  -35.0770 H   0  0  0  0  0  0  0  0  0  0  0  0
   -3.6478   16.7485  -35.3792 H   0  0  0  0  0  0  0  0  0  0  0  0
   -5.2125   17.4874  -35.8567 H   0  0  0  0  0  0  0  0  0  0  0  0
   -3.7985   17.6825  -33.1469 H   0  0  0  0  0  0  0  0  0  0  0  0
   -4.1415   19.0123  -34.3105 H   0  0  0  0  0  0  0  0  0  0  0  0
   -8.2996   19.3212  -33.1035 H   0  0  0  0  0  0  0  0  0  0  0  0
   -8.9199   21.6211  -32.2943 H   0  0  0  0  0  0  0  0  0  0  0  0
   -7.8099   24.0495  -31.2764 H   0  0  0  0  0  0  0  0  0  0  0  0
   -3.0690   25.3050  -30.4570 H   0  0  0  0  0  0  0  0  0  0  0  0
   -4.0964   20.1834  -32.3346 H   0  0  0  0  0  0  0  0  0  0  0  0
   -6.0845   16.6479  -31.9600 H   0  0  0  0  0  0  0  0  0  0  0  0
   -7.5992   17.4352  -32.5354 H   0  0  0  0  0  0  0  0  0  0  0  0
   -7.0930   15.1483  -33.5675 H   0  0  0  0  0  0  0  0  0  0  0  0
   -7.3573   16.4835  -34.7401 H   0  0  0  0  0  0  0  0  0  0  0  0
  1  2  1  0
  2  3  1  0
  2  4  1  0
  4  5  2  0
  4  6  1  0
  6  7  1  0
  7  8  1  0
  8  9  1  0
  9 10  1  0
 10 11  2  0
 11 12  1  0
 12 13  2  0
 13 14  1  0
 14 15  2  0
 15 16  1  0
 16 17  1  0
 16 18  2  0
 15 19  1  0
 19 20  1  0
 20 21  2  0
 20 22  1  0
 19 23  1  0
 23 24  2  0
  9 25  1  0
 25 26  1  0
 26  6  1  0
 24 10  1  0
 23 13  1  0
  1 27  1  0
  1 28  1  0
  1 29  1  0
  2 30  1  6
  3 31  1  0
  7 32  1  0
  7 33  1  0
  8 34  1  0
  8 35  1  0
 11 36  1  0
 12 37  1  0
 14 38  1  0
 17 39  1  0
 24 40  1  0
 25 41  1  0
 25 42  1  0
 26 43  1  0
 26 44  1  0
M  CHG  2  17  -1  22  -1
M  END
>  <UniqueID>  (52) 
50

>  <SMILES>  (52) 
C[C@H](O)C(=O)N1CCN(c2ccc3cc(C([NH-])=O)n(C(=O)[O-])c3c2)CC1

>  <Energy>  (52) 
88.87350186901133

>  <Genealogy>  (52) 
C[C@H](O)C(=O)N1CCN(c2ccc3cc(C([NH-])=O)n(C(=O)[O-])c3c2)CC1 (protonated)
C[C@H](O)C(=O)N1CCN(c2ccc3cc(C([NH-])=O)n(C(=O)[O-])c3c2)CC1 (3D coordinates assigned)
C[C@H](O)C(=O)N1CCN(c2ccc3cc(C([NH-])=O)n(C(=O)[O-])c3c2)CC1 (nonaromatic ring conformer: 88.87350186901133 kcal/mol)

>  <smiles>  (52) 
C[C@H](O)C(=O)N1CCN(c2ccc3cc(C(N)=O)n(C(=O)O)c3c2)CC1

>  <score_type>  (52) 
oracle

>  <origin>  (52) 
adg

>  <m_score__min__energy>  (52) 
-10.23

>  <m_primary>  (52) 
energy

$$$$
54:0
     RDKit          3D

 43 45  0  0  0  0  0  0  0  0999 V2000
   -3.0470   21.4560  -29.2850 C   0  0  0  0  0  0  0  0  0  0  0  0
   -3.2780   21.7650  -30.5590 C   0  0  0  0  0  0  0  0  0  0  0  0
   -4.0800   22.9350  -30.9650 C   0  0  0  0  0  0  0  0  0  0  0  0
   -3.4910   24.0220  -31.2030 O   0  0  0  0  0  0  0  0  0  0  0  0
   -5.5110   22.8670  -31.0820 N   0  0  0  0  0  0  0  0  0  0  0  0
   -6.4060   23.8610  -30.8260 C   0  0  0  0  0  0  0  0  0  0  0  0
   -6.0910   25.1700  -30.2170 C   0  0  0  0  0  0  0  0  0  0  0  0
   -5.0740   26.0150  -30.7540 N   0  0  0  0  0  0  0  0  0  0  0  0
   -6.7060   25.5300  -29.1770 O   0  0  0  0  0  0  0  0  0  0  0  0
   -7.6870   23.4790  -31.2180 C   0  0  0  0  0  0  0  0  0  0  0  0
   -7.5470   22.2090  -31.7310 C   0  0  0  0  0  0  0  0  0  0  0  0
   -8.4940   21.3590  -32.2910 C   0  0  0  0  0  0  0  0  0  0  0  0
   -8.0570   20.1190  -32.7850 C   0  0  0  0  0  0  0  0  0  0  0  0
   -6.6850   19.7540  -32.7280 C   0  0  0  0  0  0  0  0  0  0  0  0
   -6.2430   18.4780  -33.2440 N   0  0  0  0  0  0  0  0  0  0  0  0
   -5.1570   18.4180  -34.2310 C   0  0  0  0  0  0  0  0  0  0  0  0
   -4.5020   17.0340  -34.2190 C   0  0  0  0  0  0  0  0  0  0  0  0
   -5.4870   15.9640  -34.4880 N   0  0  0  0  0  0  0  0  0  0  0  0
   -4.9110   14.6500  -34.1610 C   0  0  0  0  0  0  0  0  0  0  0  0
   -6.8100   16.1550  -33.8340 C   0  0  0  0  0  0  0  0  0  0  0  0
   -6.8050   17.2230  -32.7300 C   0  0  0  0  0  0  0  0  0  0  0  0
   -5.7540   20.6520  -32.1540 C   0  0  0  0  0  0  0  0  0  0  0  0
   -6.2230   21.8680  -31.6460 C   0  0  0  0  0  0  0  0  0  0  0  0
   -2.4421   20.5721  -29.0344 H   0  0  0  0  0  0  0  0  0  0  0  0
   -3.4611   22.0845  -28.4828 H   0  0  0  0  0  0  0  0  0  0  0  0
   -2.8528   21.1206  -31.3425 H   0  0  0  0  0  0  0  0  0  0  0  0
   -4.9100   26.9610  -30.3440 H   0  0  0  0  0  0  0  0  0  0  0  0
   -4.4130   25.6720  -31.4850 H   0  0  0  0  0  0  0  0  0  0  0  0
   -8.6131   24.0668  -31.1353 H   0  0  0  0  0  0  0  0  0  0  0  0
   -9.5537   21.6489  -32.3455 H   0  0  0  0  0  0  0  0  0  0  0  0
   -8.7866   19.4212  -33.2218 H   0  0  0  0  0  0  0  0  0  0  0  0
   -5.5659   18.6170  -35.2326 H   0  0  0  0  0  0  0  0  0  0  0  0
   -4.3998   19.1738  -33.9754 H   0  0  0  0  0  0  0  0  0  0  0  0
   -3.7201   17.0022  -34.9921 H   0  0  0  0  0  0  0  0  0  0  0  0
   -4.0734   16.8644  -33.2202 H   0  0  0  0  0  0  0  0  0  0  0  0
   -4.8600   14.5337  -33.0684 H   0  0  0  0  0  0  0  0  0  0  0  0
   -5.5438   13.8565  -34.5851 H   0  0  0  0  0  0  0  0  0  0  0  0
   -3.8986   14.5776  -34.5851 H   0  0  0  0  0  0  0  0  0  0  0  0
   -7.5375   16.4539  -34.6030 H   0  0  0  0  0  0  0  0  0  0  0  0
   -7.0730   15.1999  -33.3559 H   0  0  0  0  0  0  0  0  0  0  0  0
   -7.8360   17.3988  -32.3893 H   0  0  0  0  0  0  0  0  0  0  0  0
   -6.1882   16.8698  -31.8905 H   0  0  0  0  0  0  0  0  0  0  0  0
   -4.6844   20.3992  -32.1083 H   0  0  0  0  0  0  0  0  0  0  0  0
  1  2  2  0
  2  3  1  0
  3  4  2  0
  3  5  1  0
  5  6  1  0
  6  7  1  0
  7  8  1  0
  7  9  2  0
  6 10  2  0
 10 11  1  0
 11 12  2  0
 12 13  1  0
 13 14  2  0
 14 15  1  0
 15 16  1  0
 16 17  1  0
 17 18  1  0
 18 19  1  0
 18 20  1  0
 20 21  1  0
 14 22  1  0
 22 23  2  0
 23  5  1  0
 23 11  1  0
 21 15  1  0
  1 24  1  0
  1 25  1  0
  2 26  1  0
  8 27  1  0
  8 28  1  0
 10 29  1  0
 12 30  1  0
 13 31  1  0
 16 32  1  0
 16 33  1  0
 17 34  1  0
 17 35  1  0
 19 36  1  0
 19 37  1  0
 19 38  1  0
 20 39  1  0
 20 40  1  0
 21 41  1  0
 21 42  1  0
 22 43  1  0
M  END
>  <UniqueID>  (53) 
51

>  <SMILES>  (53) 
C=CC(=O)n1c(C(N)=O)cc2ccc(N3CCN(C)CC3)cc21

>  <Energy>  (53) 
92.56570477108167

>  <Genealogy>  (53) 
C=CC(=O)n1c(C(N)=O)cc2ccc(N3CCN(C)CC3)cc21 (3D coordinates assigned)
C=CC(=O)n1c(C(N)=O)cc2ccc(N3CCN(C)CC3)cc21 (nonaromatic ring conformer: 92.56570477108167 kcal/mol)

>  <smiles>  (53) 
C=CC(=O)n1c(C(N)=O)cc2ccc(N3CCN(C)CC3)cc21

>  <score_type>  (53) 
oracle

>  <origin>  (53) 
adg

>  <m_score__min__energy>  (53) 
-9.1899999999999995

>  <m_primary>  (53) 
energy

$$$$
55:0
     RDKit          3D

 48 50  0  0  0  0  0  0  0  0999 V2000
   -0.6590   26.2120  -27.7770 C   0  0  0  0  0  0  0  0  0  0  0  0
   -1.3430   25.1870  -28.5800 N   0  0  0  0  0  0  0  0  0  0  0  0
   -2.6800   24.8630  -28.0210 C   0  0  0  0  0  0  0  0  0  0  0  0
   -2.6790   23.5440  -27.2280 C   0  0  0  0  0  0  0  0  0  0  0  0
   -2.2510   22.3900  -28.0580 N   0  0  0  0  0  0  0  0  0  0  0  0
   -3.4140   21.6500  -28.5970 C   0  0  0  0  0  0  0  0  0  0  0  0
   -3.2600   21.3800  -30.1000 C   0  0  0  0  0  0  0  0  0  0  0  0
   -3.8640   22.4960  -30.9010 C   0  0  0  0  0  0  0  0  0  0  0  0
   -3.1100   23.3440  -31.4520 O   0  0  0  0  0  0  0  0  0  0  0  0
   -5.2890   22.6380  -31.0040 N   0  0  0  0  0  0  0  0  0  0  0  0
   -6.0310   23.7490  -30.7440 C   0  0  0  0  0  0  0  0  0  0  0  0
   -5.5010   25.0210  -30.1990 C   0  0  0  0  0  0  0  0  0  0  0  0
   -4.2220   25.5170  -30.6010 N   0  0  0  0  0  0  0  0  0  0  0  0
   -6.1850   25.6910  -29.3810 O   0  0  0  0  0  0  0  0  0  0  0  0
   -7.3790   23.5050  -31.0110 C   0  0  0  0  0  0  0  0  0  0  0  0
   -7.4330   22.2020  -31.4530 C   0  0  0  0  0  0  0  0  0  0  0  0
   -8.5190   21.4480  -31.8860 C   0  0  0  0  0  0  0  0  0  0  0  0
   -8.2750   20.1370  -32.3300 C   0  0  0  0  0  0  0  0  0  0  0  0
   -6.9610   19.6010  -32.3250 C   0  0  0  0  0  0  0  0  0  0  0  0
   -6.7040   18.2160  -32.8640 C   0  0  0  0  0  0  0  0  0  0  0  0
   -6.4400   18.2960  -34.2180 F   0  0  0  0  0  0  0  0  0  0  0  0
   -5.6200   17.6380  -32.2260 F   0  0  0  0  0  0  0  0  0  0  0  0
   -7.8060   17.4020  -32.6660 F   0  0  0  0  0  0  0  0  0  0  0  0
   -5.8820   20.4090  -31.9000 C   0  0  0  0  0  0  0  0  0  0  0  0
   -6.1570   21.7020  -31.4430 C   0  0  0  0  0  0  0  0  0  0  0  0
   -1.2940   22.7640  -29.1310 C   0  0  0  0  0  0  0  0  0  0  0  0
   -0.4720   24.0020  -28.7550 C   0  0  0  0  0  0  0  0  0  0  0  0
   -0.8028   25.9966  -26.7079 H   0  0  0  0  0  0  0  0  0  0  0  0
    0.4157   26.2045  -28.0113 H   0  0  0  0  0  0  0  0  0  0  0  0
   -1.0784   27.2016  -28.0113 H   0  0  0  0  0  0  0  0  0  0  0  0
   -2.9899   25.6782  -27.3507 H   0  0  0  0  0  0  0  0  0  0  0  0
   -3.3775   24.7478  -28.8637 H   0  0  0  0  0  0  0  0  0  0  0  0
   -1.9893   23.6431  -26.3768 H   0  0  0  0  0  0  0  0  0  0  0  0
   -3.7081   23.3530  -26.8898 H   0  0  0  0  0  0  0  0  0  0  0  0
   -3.5030   20.6895  -28.0684 H   0  0  0  0  0  0  0  0  0  0  0  0
   -4.3142   22.2640  -28.4466 H   0  0  0  0  0  0  0  0  0  0  0  0
   -2.1908   21.2967  -30.3448 H   0  0  0  0  0  0  0  0  0  0  0  0
   -3.7808   20.4432  -30.3475 H   0  0  0  0  0  0  0  0  0  0  0  0
   -3.5930   24.9670  -31.2240 H   0  0  0  0  0  0  0  0  0  0  0  0
   -3.8790   26.4340  -30.2360 H   0  0  0  0  0  0  0  0  0  0  0  0
   -8.2195   24.2048  -30.8934 H   0  0  0  0  0  0  0  0  0  0  0  0
   -9.5369   21.8649  -31.8810 H   0  0  0  0  0  0  0  0  0  0  0  0
   -9.1126   19.5190  -32.6856 H   0  0  0  0  0  0  0  0  0  0  0  0
   -4.8498   20.0297  -31.9280 H   0  0  0  0  0  0  0  0  0  0  0  0
   -0.6088   21.9215  -29.3064 H   0  0  0  0  0  0  0  0  0  0  0  0
   -1.8715   22.9995  -30.0371 H   0  0  0  0  0  0  0  0  0  0  0  0
    0.0620   23.8064  -27.8134 H   0  0  0  0  0  0  0  0  0  0  0  0
    0.2402   24.2086  -29.5675 H   0  0  0  0  0  0  0  0  0  0  0  0
  1  2  1  0
  2  3  1  0
  3  4  1  0
  4  5  1  0
  5  6  1  0
  6  7  1  0
  7  8  1  0
  8  9  2  0
  8 10  1  0
 10 11  1  0
 11 12  1  0
 12 13  1  0
 12 14  2  0
 11 15  2  0
 15 16  1  0
 16 17  2  0
 17 18  1  0
 18 19  2  0
 19 20  1  0
 20 21  1  0
 20 22  1  0
 20 23  1  0
 19 24  1  0
 24 25  2  0
  5 26  1  0
 26 27  1  0
 27  2  1  0
 25 10  1  0
 25 16  1  0
  1 28  1  0
  1 29  1  0
  1 30  1  0
  3 31  1  0
  3 32  1  0
  4 33  1  0
  4 34  1  0
  6 35  1  0
  6 36  1  0
  7 37  1  0
  7 38  1  0
 13 39  1  0
 13 40  1  0
 15 41  1  0
 17 42  1  0
 18 43  1  0
 24 44  1  0
 26 45  1  0
 26 46  1  0
 27 47  1  0
 27 48  1  0
M  END
>  <UniqueID>  (54) 
52

>  <SMILES>  (54) 
CN1CCN(CCC(=O)n2c(C(N)=O)cc3ccc(C(F)(F)F)cc32)CC1

>  <Energy>  (54) 
99.13797113123978

>  <Genealogy>  (54) 
CN1CCN(CCC(=O)n2c(C(N)=O)cc3ccc(C(F)(F)F)cc32)CC1 (3D coordinates assigned)
CN1CCN(CCC(=O)n2c(C(N)=O)cc3ccc(C(F)(F)F)cc32)CC1 (nonaromatic ring conformer: 99.13797113123978 kcal/mol)

>  <smiles>  (54) 
CN1CCN(CCC(=O)n2c(C(N)=O)cc3ccc(C(F)(F)F)cc32)CC1

>  <score_type>  (54) 
oracle

>  <origin>  (54) 
adg

>  <m_score__min__energy>  (54) 
-9.3800000000000008

>  <m_primary>  (54) 
energy

$$$$
56:0
     RDKit          3D

 47 49  0  0  0  0  0  0  0  0999 V2000
   -3.8800   25.6360  -30.8520 N   0  0  0  0  0  0  0  0  0  0  0  0
   -5.2310   25.4100  -30.4590 C   0  0  0  0  0  0  0  0  0  0  0  0
   -5.8200   26.2700  -29.7530 O   0  0  0  0  0  0  0  0  0  0  0  0
   -5.9090   24.1550  -30.8450 C   0  0  0  0  0  0  0  0  0  0  0  0
   -7.2900   24.0450  -30.9940 C   0  0  0  0  0  0  0  0  0  0  0  0
   -7.5080   22.7630  -31.4440 C   0  0  0  0  0  0  0  0  0  0  0  0
   -8.7000   22.1090  -31.7410 C   0  0  0  0  0  0  0  0  0  0  0  0
   -8.6310   20.7690  -32.1570 C   0  0  0  0  0  0  0  0  0  0  0  0
   -7.3800   20.1120  -32.2700 C   0  0  0  0  0  0  0  0  0  0  0  0
   -7.3190   18.6640  -32.6830 C   0  0  0  0  0  0  0  0  0  0  0  0
   -5.8750   18.1990  -32.9100 C   0  0  0  0  0  0  0  0  0  0  0  0
   -5.3550   18.6140  -34.2560 C   0  0  0  0  0  0  0  0  0  0  0  0
   -6.0760   18.5690  -35.2400 O   0  0  0  0  0  0  0  0  0  0  0  0
   -6.1930   20.8060  -31.9470 C   0  0  0  0  0  0  0  0  0  0  0  0
   -6.2890   22.1440  -31.5500 C   0  0  0  0  0  0  0  0  0  0  0  0
   -5.2960   22.9830  -31.1810 N   0  0  0  0  0  0  0  0  0  0  0  0
   -3.8980   22.6590  -31.0920 C   0  0  0  0  0  0  0  0  0  0  0  0
   -3.3460   21.9930  -32.0100 O   0  0  0  0  0  0  0  0  0  0  0  0
   -3.1470   23.1050  -30.0000 O   0  0  0  0  0  0  0  0  0  0  0  0
   -3.6870   23.2080  -28.6850 C   0  0  0  0  0  0  0  0  0  0  0  0
   -2.5450   23.2970  -27.6530 C   0  0  0  0  0  0  0  0  0  0  0  0
   -2.5550   24.6450  -26.8910 C   0  0  0  0  0  0  0  0  0  0  0  0
   -1.5960   25.6740  -27.5170 C   0  0  0  0  0  0  0  0  0  0  0  0
   -1.4890   25.4700  -28.9110 O   0  0  0  0  0  0  0  0  0  0  0  0
   -0.7500   24.2900  -29.1830 C   0  0  0  0  0  0  0  0  0  0  0  0
   -1.1760   23.0750  -28.3210 C   0  0  0  0  0  0  0  0  0  0  0  0
   -3.0850   25.2690  -30.2820 H   0  0  0  0  0  0  0  0  0  0  0  0
   -8.0458   24.8189  -30.7943 H   0  0  0  0  0  0  0  0  0  0  0  0
   -9.6670   22.6258  -31.6527 H   0  0  0  0  0  0  0  0  0  0  0  0
   -9.5562   20.2246  -32.3972 H   0  0  0  0  0  0  0  0  0  0  0  0
   -7.7715   18.0483  -31.8917 H   0  0  0  0  0  0  0  0  0  0  0  0
   -7.8674   18.5542  -33.6302 H   0  0  0  0  0  0  0  0  0  0  0  0
   -5.2341   18.6378  -32.1311 H   0  0  0  0  0  0  0  0  0  0  0  0
   -5.8611   17.1000  -32.8647 H   0  0  0  0  0  0  0  0  0  0  0  0
   -4.3161   18.9613  -34.3562 H   0  0  0  0  0  0  0  0  0  0  0  0
   -5.2151   20.3057  -32.0063 H   0  0  0  0  0  0  0  0  0  0  0  0
   -4.3111   24.1113  -28.6169 H   0  0  0  0  0  0  0  0  0  0  0  0
   -4.2968   22.3173  -28.4737 H   0  0  0  0  0  0  0  0  0  0  0  0
   -2.7155   22.4949  -26.9198 H   0  0  0  0  0  0  0  0  0  0  0  0
   -3.5756   25.0549  -26.9096 H   0  0  0  0  0  0  0  0  0  0  0  0
   -2.2193   24.4533  -25.8612 H   0  0  0  0  0  0  0  0  0  0  0  0
   -1.9798   26.6874  -27.3283 H   0  0  0  0  0  0  0  0  0  0  0  0
   -0.6011   25.5534  -27.0635 H   0  0  0  0  0  0  0  0  0  0  0  0
   -0.8892   24.0297  -30.2427 H   0  0  0  0  0  0  0  0  0  0  0  0
    0.3005   24.5052  -28.9378 H   0  0  0  0  0  0  0  0  0  0  0  0
   -1.2346   22.1851  -28.9650 H   0  0  0  0  0  0  0  0  0  0  0  0
   -0.4268   22.9410  -27.5268 H   0  0  0  0  0  0  0  0  0  0  0  0
  1  2  1  0
  2  3  2  0
  2  4  1  0
  4  5  2  0
  5  6  1  0
  6  7  2  0
  7  8  1  0
  8  9  2  0
  9 10  1  0
 10 11  1  0
 11 12  1  0
 12 13  2  0
  9 14  1  0
 14 15  2  0
 15 16  1  0
 16 17  1  0
 17 18  2  0
 17 19  1  0
 19 20  1  0
 20 21  1  0
 21 22  1  0
 22 23  1  0
 23 24  1  0
 24 25  1  0
 25 26  1  0
 16  4  1  0
 26 21  1  0
 15  6  1  0
  1 27  1  0
  5 28  1  0
  7 29  1  0
  8 30  1  0
 10 31  1  0
 10 32  1  0
 11 33  1  0
 11 34  1  0
 12 35  1  0
 14 36  1  0
 20 37  1  0
 20 38  1  0
 21 39  1  0
 22 40  1  0
 22 41  1  0
 23 42  1  0
 23 43  1  0
 25 44  1  0
 25 45  1  0
 26 46  1  0
 26 47  1  0
M  CHG  1   1  -1
M  END
>  <UniqueID>  (55) 
53

>  <SMILES>  (55) 
[NH-]C(=O)c1cc2ccc(CCC=O)cc2n1C(=O)OCC1CCOCC1

>  <Energy>  (55) 
85.62801521994082

>  <Genealogy>  (55) 
[NH-]C(=O)c1cc2ccc(CCC=O)cc2n1C(=O)OCC1CCOCC1 (protonated)
[NH-]C(=O)c1cc2ccc(CCC=O)cc2n1C(=O)OCC1CCOCC1 (3D coordinates assigned)
[NH-]C(=O)c1cc2ccc(CCC=O)cc2n1C(=O)OCC1CCOCC1 (nonaromatic ring conformer: 85.62801521994082 kcal/mol)

>  <smiles>  (55) 
NC(=O)c1cc2ccc(CCC=O)cc2n1C(=O)OCC1CCOCC1

>  <score_type>  (55) 
oracle

>  <origin>  (55) 
adg

>  <m_score__min__energy>  (55) 
-11.300000000000001

>  <m_primary>  (55) 
energy

$$$$
57:0
     RDKit          3D

 57 60  0  0  0  0  0  0  0  0999 V2000
   -3.7500   24.1720  -29.5820 C   0  0  0  0  0  0  0  0  0  0  0  0
   -3.8580   25.2650  -30.4660 O   0  0  0  0  0  0  0  0  0  0  0  0
   -5.1990   25.7050  -30.5060 C   0  0  0  0  0  0  0  0  0  0  0  0
   -6.0940   24.7310  -29.7260 C   0  0  0  0  0  0  0  0  0  0  0  0
   -6.9960   23.9720  -30.6220 N   0  0  0  0  0  0  0  0  0  0  0  0
   -6.3600   23.7110  -31.9400 C   0  0  0  0  0  0  0  0  0  0  0  0
   -5.7430   22.3090  -32.0410 C   0  0  0  0  0  0  0  0  0  0  0  0
   -6.7600   21.2860  -31.7590 N   0  0  0  0  0  0  0  0  0  0  0  0
   -6.6150   19.9460  -32.2790 C   0  0  0  0  0  0  0  0  0  0  0  0
   -7.6980   19.0290  -32.2180 C   0  0  0  0  0  0  0  0  0  0  0  0
   -7.5640   17.7190  -32.7090 C   0  0  0  0  0  0  0  0  0  0  0  0
   -6.3420   17.3530  -33.2630 C   0  0  0  0  0  0  0  0  0  0  0  0
   -5.9300   16.1460  -33.7830 C   0  0  0  0  0  0  0  0  0  0  0  0
   -4.6090   16.3490  -34.1800 C   0  0  0  0  0  0  0  0  0  0  0  0
   -3.7810   15.3100  -34.8270 C   0  0  0  0  0  0  0  0  0  0  0  0
   -2.9790   15.6050  -35.9720 N   0  0  0  0  0  0  0  0  0  0  0  0
   -3.8130   14.1320  -34.3840 O   0  0  0  0  0  0  0  0  0  0  0  0
   -4.2170   17.6230  -33.8960 N   0  0  0  0  0  0  0  0  0  0  0  0
   -2.9140   18.2070  -34.0610 C   0  0  0  0  0  0  0  0  0  0  0  0
   -2.1960   17.8420  -35.0310 O   0  0  0  0  0  0  0  0  0  0  0  0
   -2.4110   19.2400  -33.1240 C   0  0  0  0  0  0  0  0  0  0  0  0
   -2.6720   20.6010  -33.3630 C   0  0  0  0  0  0  0  0  0  0  0  0
   -2.2030   21.5790  -32.4820 C   0  0  0  0  0  0  0  0  0  0  0  0
   -1.4720   21.2090  -31.3460 C   0  0  0  0  0  0  0  0  0  0  0  0
   -0.9920   22.2170  -30.4370 C   0  0  0  0  0  0  0  0  0  0  0  0
   -0.6050   23.0280  -29.7070 N   0  0  0  0  0  0  0  0  0  0  0  0
   -1.2150   19.8580  -31.0950 C   0  0  0  0  0  0  0  0  0  0  0  0
   -1.6830   18.8780  -31.9750 C   0  0  0  0  0  0  0  0  0  0  0  0
   -5.2900   18.2260  -33.3440 C   0  0  0  0  0  0  0  0  0  0  0  0
   -5.3890   19.5300  -32.8520 C   0  0  0  0  0  0  0  0  0  0  0  0
   -7.9280   21.6580  -30.9530 C   0  0  0  0  0  0  0  0  0  0  0  0
   -7.5430   22.7580  -29.9590 C   0  0  0  0  0  0  0  0  0  0  0  0
   -3.7859   24.5349  -28.5442 H   0  0  0  0  0  0  0  0  0  0  0  0
   -4.5837   23.4759  -29.7561 H   0  0  0  0  0  0  0  0  0  0  0  0
   -2.7961   23.6525  -29.7561 H   0  0  0  0  0  0  0  0  0  0  0  0
   -5.2680   26.7053  -30.0535 H   0  0  0  0  0  0  0  0  0  0  0  0
   -5.5350   25.7454  -31.5526 H   0  0  0  0  0  0  0  0  0  0  0  0
   -5.4556   24.0211  -29.1797 H   0  0  0  0  0  0  0  0  0  0  0  0
   -6.7157   25.3185  -29.0344 H   0  0  0  0  0  0  0  0  0  0  0  0
   -7.1239   23.8152  -32.7246 H   0  0  0  0  0  0  0  0  0  0  0  0
   -5.5444   24.4390  -32.0618 H   0  0  0  0  0  0  0  0  0  0  0  0
   -5.3476   22.1582  -33.0563 H   0  0  0  0  0  0  0  0  0  0  0  0
   -4.9305   22.2203  -31.3048 H   0  0  0  0  0  0  0  0  0  0  0  0
   -8.6552   19.3487  -31.7802 H   0  0  0  0  0  0  0  0  0  0  0  0
   -8.3995   17.0055  -32.6568 H   0  0  0  0  0  0  0  0  0  0  0  0
   -6.5176   15.2199  -33.8671 H   0  0  0  0  0  0  0  0  0  0  0  0
   -3.0800   16.5050  -36.4890 H   0  0  0  0  0  0  0  0  0  0  0  0
   -2.3510   14.8720  -36.3720 H   0  0  0  0  0  0  0  0  0  0  0  0
   -3.2500   20.8981  -34.2505 H   0  0  0  0  0  0  0  0  0  0  0  0
   -2.4082   22.6412  -32.6810 H   0  0  0  0  0  0  0  0  0  0  0  0
   -0.6428   19.5653  -30.2023 H   0  0  0  0  0  0  0  0  0  0  0  0
   -1.4810   17.8167  -31.7682 H   0  0  0  0  0  0  0  0  0  0  0  0
   -4.5330   20.2185  -32.9086 H   0  0  0  0  0  0  0  0  0  0  0  0
   -8.7259   22.0264  -31.6145 H   0  0  0  0  0  0  0  0  0  0  0  0
   -8.2833   20.7763  -30.3995 H   0  0  0  0  0  0  0  0  0  0  0  0
   -8.4384   23.0436  -29.3874 H   0  0  0  0  0  0  0  0  0  0  0  0
   -6.7537   22.3534  -29.3084 H   0  0  0  0  0  0  0  0  0  0  0  0
  1  2  1  0
  2  3  1  0
  3  4  1  0
  4  5  1  0
  5  6  1  0
  6  7  1  0
  7  8  1  0
  8  9  1  0
  9 10  2  0
 10 11  1  0
 11 12  2  0
 12 13  1  0
 13 14  2  0
 14 15  1  0
 15 16  1  0
 15 17  2  0
 14 18  1  0
 18 19  1  0
 19 20  2  0
 19 21  1  0
 21 22  2  0
 22 23  1  0
 23 24  2  0
 24 25  1  0
 25 26  3  0
 24 27  1  0
 27 28  2  0
 18 29  1  0
 29 30  2  0
  8 31  1  0
 31 32  1  0
 32  5  1  0
 30  9  1  0
 29 12  1  0
 28 21  1  0
  1 33  1  0
  1 34  1  0
  1 35  1  0
  3 36  1  0
  3 37  1  0
  4 38  1  0
  4 39  1  0
  6 40  1  0
  6 41  1  0
  7 42  1  0
  7 43  1  0
 10 44  1  0
 11 45  1  0
 13 46  1  0
 16 47  1  0
 16 48  1  0
 22 49  1  0
 23 50  1  0
 27 51  1  0
 28 52  1  0
 30 53  1  0
 31 54  1  0
 31 55  1  0
 32 56  1  0
 32 57  1  0
M  END
>  <UniqueID>  (56) 
54

>  <SMILES>  (56) 
COCCN1CCN(c2ccc3cc(C(N)=O)n(C(=O)c4ccc(C#N)cc4)c3c2)CC1

>  <Energy>  (56) 
111.86366459369435

>  <Genealogy>  (56) 
COCCN1CCN(c2ccc3cc(C(N)=O)n(C(=O)c4ccc(C#N)cc4)c3c2)CC1 (3D coordinates assigned)
COCCN1CCN(c2ccc3cc(C(N)=O)n(C(=O)c4ccc(C#N)cc4)c3c2)CC1 (nonaromatic ring conformer: 111.86366459369435 kcal/mol)

>  <smiles>  (56) 
COCCN1CCN(c2ccc3cc(C(N)=O)n(C(=O)c4ccc(C#N)cc4)c3c2)CC1

>  <score_type>  (56) 
oracle

>  <origin>  (56) 
adg

>  <m_score__min__energy>  (56) 
-10.289999999999999

>  <m_primary>  (56) 
energy

$$$$
58:0
     RDKit          3D

 47 49  0  0  0  0  0  0  0  0999 V2000
   -2.3590   19.5990  -26.9790 C   0  0  0  0  0  0  0  0  0  0  0  0
   -1.2930   19.6380  -27.9190 O   0  0  0  0  0  0  0  0  0  0  0  0
   -1.0090   20.7720  -28.6870 C   0  0  0  0  0  0  0  0  0  0  0  0
   -0.3150   20.6810  -29.7370 O   0  0  0  0  0  0  0  0  0  0  0  0
   -1.5210   22.1080  -28.2430 C   0  0  0  0  0  0  0  0  0  0  0  0
   -1.5410   23.1160  -29.4060 C   0  0  1  0  0  0  0  0  0  0  0  0
   -2.9160   23.3640  -29.8480 N   0  0  0  0  0  0  0  0  0  0  0  0
   -3.6030   22.5100  -30.7750 C   0  0  0  0  0  0  0  0  0  0  0  0
   -2.9820   21.5910  -31.3740 O   0  0  0  0  0  0  0  0  0  0  0  0
   -5.0070   22.6950  -31.0190 N   0  0  0  0  0  0  0  0  0  0  0  0
   -5.7300   23.8440  -30.9020 C   0  0  0  0  0  0  0  0  0  0  0  0
   -5.2300   25.1330  -30.3790 C   0  0  0  0  0  0  0  0  0  0  0  0
   -3.9940   25.6610  -30.8550 N   0  0  0  0  0  0  0  0  0  0  0  0
   -5.8960   25.7880  -29.5340 O   0  0  0  0  0  0  0  0  0  0  0  0
   -7.0520   23.6290  -31.2890 C   0  0  0  0  0  0  0  0  0  0  0  0
   -7.1160   22.3010  -31.6490 C   0  0  0  0  0  0  0  0  0  0  0  0
   -8.1850   21.5530  -32.1280 C   0  0  0  0  0  0  0  0  0  0  0  0
   -7.9560   20.2050  -32.4520 C   0  0  0  0  0  0  0  0  0  0  0  0
   -6.6660   19.6270  -32.3020 C   0  0  0  0  0  0  0  0  0  0  0  0
   -6.4270   18.2050  -32.6630 C   0  0  0  0  0  0  0  0  0  0  0  0
   -6.8060   17.5420  -33.8180 C   0  0  0  0  0  0  0  0  0  0  0  0
   -6.3950   16.2620  -33.7450 N   0  0  0  0  0  0  0  0  0  0  0  0
   -5.7890   16.1160  -32.6040 O   0  0  0  0  0  0  0  0  0  0  0  0
   -5.7760   17.2360  -31.9200 C   0  0  0  0  0  0  0  0  0  0  0  0
   -5.6060   20.4270  -31.8100 C   0  0  0  0  0  0  0  0  0  0  0  0
   -5.8700   21.7610  -31.4780 C   0  0  0  0  0  0  0  0  0  0  0  0
   -0.9060   24.4140  -28.9880 C   0  0  0  0  0  0  0  0  0  0  0  0
   -1.5760   25.4830  -29.0150 O   0  0  0  0  0  0  0  0  0  0  0  0
    0.4360   24.4270  -28.5940 O   0  0  0  0  0  0  0  0  0  0  0  0
    0.8320   24.5350  -27.2330 C   0  0  0  0  0  0  0  0  0  0  0  0
   -1.9487   19.6140  -25.9585 H   0  0  0  0  0  0  0  0  0  0  0  0
   -3.0094   20.4740  -27.1256 H   0  0  0  0  0  0  0  0  0  0  0  0
   -2.9437   18.6789  -27.1256 H   0  0  0  0  0  0  0  0  0  0  0  0
   -2.5434   21.9887  -27.8551 H   0  0  0  0  0  0  0  0  0  0  0  0
   -0.8498   22.4939  -27.4616 H   0  0  0  0  0  0  0  0  0  0  0  0
   -0.9674   22.6860  -30.2403 H   0  0  0  0  0  0  0  0  0  0  0  0
   -3.4550   24.1410  -29.4020 H   0  0  0  0  0  0  0  0  0  0  0  0
   -3.0820   25.3070  -30.4900 H   0  0  0  0  0  0  0  0  0  0  0  0
   -7.8703   24.3639  -31.3037 H   0  0  0  0  0  0  0  0  0  0  0  0
   -9.1813   22.0031  -32.2499 H   0  0  0  0  0  0  0  0  0  0  0  0
   -8.7864   19.5886  -32.8269 H   0  0  0  0  0  0  0  0  0  0  0  0
   -7.3547   17.9892  -34.6599 H   0  0  0  0  0  0  0  0  0  0  0  0
   -5.3252   17.3797  -30.9270 H   0  0  0  0  0  0  0  0  0  0  0  0
   -4.5957   20.0086  -31.6912 H   0  0  0  0  0  0  0  0  0  0  0  0
   -0.0238   24.3016  -26.5825 H   0  0  0  0  0  0  0  0  0  0  0  0
    1.6494   23.8270  -27.0317 H   0  0  0  0  0  0  0  0  0  0  0  0
    1.1768   25.5600  -27.0317 H   0  0  0  0  0  0  0  0  0  0  0  0
  1  2  1  0
  2  3  1  0
  3  4  2  0
  3  5  1  0
  5  6  1  0
  6  7  1  0
  7  8  1  0
  8  9  2  0
  8 10  1  0
 10 11  1  0
 11 12  1  0
 12 13  1  0
 12 14  2  0
 11 15  2  0
 15 16  1  0
 16 17  2  0
 17 18  1  0
 18 19  2  0
 19 20  1  0
 20 21  1  0
 21 22  2  0
 22 23  1  0
 23 24  1  0
 19 25  1  0
 25 26  2  0
  6 27  1  0
 27 28  2  0
 27 29  1  0
 29 30  1  0
 26 10  1  0
 26 16  1  0
 24 20  2  0
  1 31  1  0
  1 32  1  0
  1 33  1  0
  5 34  1  0
  5 35  1  0
  6 36  1  6
  7 37  1  0
 13 38  1  0
 15 39  1  0
 17 40  1  0
 18 41  1  0
 21 42  1  0
 24 43  1  0
 25 44  1  0
 30 45  1  0
 30 46  1  0
 30 47  1  0
M  CHG  1  13  -1
M  END
>  <UniqueID>  (57) 
55

>  <SMILES>  (57) 
COC(=O)C[C@@H](NC(=O)n1c(C([NH-])=O)cc2ccc(-c3cnoc3)cc21)C(=O)OC

>  <Energy>  (57) 
110.3934114391688

>  <Genealogy>  (57) 
COC(=O)C[C@@H](NC(=O)n1c(C([NH-])=O)cc2ccc(-c3cnoc3)cc21)C(=O)OC (protonated)
COC(=O)C[C@@H](NC(=O)n1c(C([NH-])=O)cc2ccc(-c3cnoc3)cc21)C(=O)OC (3D coordinates assigned)
COC(=O)C[C@@H](NC(=O)n1c(C([NH-])=O)cc2ccc(-c3cnoc3)cc21)C(=O)OC (optimized conformer: 110.3934114391688 kcal/mol)

>  <smiles>  (57) 
COC(=O)C[C@@H](NC(=O)n1c(C(N)=O)cc2ccc(-c3cnoc3)cc21)C(=O)OC

>  <score_type>  (57) 
oracle

>  <origin>  (57) 
adg

>  <m_score__min__energy>  (57) 
-11.359999999999999

>  <m_primary>  (57) 
energy

$$$$
59:0
     RDKit          3D

 34 35  0  0  0  0  0  0  0  0999 V2000
   -1.5530   22.0900  -29.4050 C   0  0  0  0  0  0  0  0  0  0  0  0
   -2.3860   23.3730  -29.4360 C   0  0  2  0  0  0  0  0  0  0  0  0
   -2.8030   23.6590  -30.7710 O   0  0  0  0  0  0  0  0  0  0  0  0
   -3.5320   22.7660  -31.5650 C   0  0  0  0  0  0  0  0  0  0  0  0
   -2.9330   21.9600  -32.3290 O   0  0  0  0  0  0  0  0  0  0  0  0
   -4.9670   22.7690  -31.5090 N   0  0  0  0  0  0  0  0  0  0  0  0
   -5.7710   23.6650  -30.8720 C   0  0  0  0  0  0  0  0  0  0  0  0
   -5.3310   24.9240  -30.2370 C   0  0  0  0  0  0  0  0  0  0  0  0
   -4.1830   25.6300  -30.7090 N   0  0  0  0  0  0  0  0  0  0  0  0
   -6.0110   25.4120  -29.2970 O   0  0  0  0  0  0  0  0  0  0  0  0
   -7.1030   23.2660  -30.9390 C   0  0  0  0  0  0  0  0  0  0  0  0
   -7.0940   22.0920  -31.6550 C   0  0  0  0  0  0  0  0  0  0  0  0
   -8.1470   21.2580  -32.0180 C   0  0  0  0  0  0  0  0  0  0  0  0
   -7.8450   20.0880  -32.7320 C   0  0  0  0  0  0  0  0  0  0  0  0
   -6.5020   19.7540  -33.0450 C   0  0  0  0  0  0  0  0  0  0  0  0
   -6.1930   18.5120  -33.8420 C   0  0  0  0  0  0  0  0  0  0  0  0
   -7.1920   17.5670  -33.6820 F   0  0  0  0  0  0  0  0  0  0  0  0
   -4.9970   17.9510  -33.4280 F   0  0  0  0  0  0  0  0  0  0  0  0
   -6.0960   18.8430  -35.1800 F   0  0  0  0  0  0  0  0  0  0  0  0
   -5.4610   20.6380  -32.6760 C   0  0  0  0  0  0  0  0  0  0  0  0
   -5.7940   21.8100  -31.9850 C   0  0  0  0  0  0  0  0  0  0  0  0
   -1.5690   24.5210  -28.9270 C   0  0  0  0  0  0  0  0  0  0  0  0
   -2.0170   25.6960  -28.9930 O   0  0  0  0  0  0  0  0  0  0  0  0
   -0.3320   24.2910  -28.3370 O   0  0  0  0  0  0  0  0  0  0  0  0
   -1.3648   21.8002  -28.3607 H   0  0  0  0  0  0  0  0  0  0  0  0
   -2.1009   21.2846  -29.9160 H   0  0  0  0  0  0  0  0  0  0  0  0
   -0.5944   22.2628  -29.9160 H   0  0  0  0  0  0  0  0  0  0  0  0
   -3.2708   23.2310  -28.7980 H   0  0  0  0  0  0  0  0  0  0  0  0
   -3.8640   26.4960  -30.2220 H   0  0  0  0  0  0  0  0  0  0  0  0
   -3.7010   25.3470  -31.5910 H   0  0  0  0  0  0  0  0  0  0  0  0
   -7.9761   23.7800  -30.5107 H   0  0  0  0  0  0  0  0  0  0  0  0
   -9.1850   21.5082  -31.7533 H   0  0  0  0  0  0  0  0  0  0  0  0
   -8.6594   19.4218  -33.0528 H   0  0  0  0  0  0  0  0  0  0  0  0
   -4.4143   20.4102  -32.9260 H   0  0  0  0  0  0  0  0  0  0  0  0
  1  2  1  0
  2  3  1  0
  3  4  1  0
  4  5  2  0
  4  6  1  0
  6  7  1  0
  7  8  1  0
  8  9  1  0
  8 10  2  0
  7 11  2  0
 11 12  1  0
 12 13  2  0
 13 14  1  0
 14 15  2  0
 15 16  1  0
 16 17  1  0
 16 18  1  0
 16 19  1  0
 15 20  1  0
 20 21  2  0
  2 22  1  0
 22 23  2  0
 22 24  1  0
 21  6  1  0
 21 12  1  0
  1 25  1  0
  1 26  1  0
  1 27  1  0
  2 28  1  1
  9 29  1  0
  9 30  1  0
 11 31  1  0
 13 32  1  0
 14 33  1  0
 20 34  1  0
M  CHG  1  24  -1
M  END
>  <UniqueID>  (58) 
56

>  <SMILES>  (58) 
C[C@H](OC(=O)n1c(C(N)=O)cc2ccc(C(F)(F)F)cc21)C(=O)[O-]

>  <Energy>  (58) 
69.7878202385834

>  <Genealogy>  (58) 
CC(OC(=O)n1c(C(N)=O)cc2ccc(C(F)(F)F)cc21)C(=O)[O-] (protonated)
C[C@H](OC(=O)n1c(C(N)=O)cc2ccc(C(F)(F)F)cc21)C(=O)[O-] (chirality)
C[C@H](OC(=O)n1c(C(N)=O)cc2ccc(C(F)(F)F)cc21)C(=O)[O-] (3D coordinates assigned)
C[C@H](OC(=O)n1c(C(N)=O)cc2ccc(C(F)(F)F)cc21)C(=O)[O-] (optimized conformer: 69.7878202385834 kcal/mol)

>  <smiles>  (58) 
CC(OC(=O)n1c(C(N)=O)cc2ccc(C(F)(F)F)cc21)C(=O)O

>  <score_type>  (58) 
oracle

>  <origin>  (58) 
adg

>  <m_score__min__energy>  (58) 
-10.33

>  <m_primary>  (58) 
energy

$$$$
60:0
     RDKit          3D

 45 47  0  0  0  0  0  0  0  0999 V2000
    0.3030   21.6180  -35.6200 C   0  0  0  0  0  0  0  0  0  0  0  0
   -0.1780   21.9150  -34.3280 O   0  0  0  0  0  0  0  0  0  0  0  0
   -1.1570   20.9720  -33.9250 C   0  0  0  0  0  0  0  0  0  0  0  0
   -1.6720   21.2920  -32.5150 C   0  0  2  0  0  0  0  0  0  0  0  0
   -1.9770   20.0070  -31.7360 C   0  0  0  0  0  0  0  0  0  0  0  0
   -2.8440   22.0970  -32.6210 O   0  0  0  0  0  0  0  0  0  0  0  0
   -3.4460   22.7580  -31.5450 C   0  0  0  0  0  0  0  0  0  0  0  0
   -2.7390   23.2630  -30.6310 O   0  0  0  0  0  0  0  0  0  0  0  0
   -4.8790   22.8330  -31.4730 N   0  0  0  0  0  0  0  0  0  0  0  0
   -5.6480   23.8160  -30.9230 C   0  0  0  0  0  0  0  0  0  0  0  0
   -5.1590   25.1030  -30.3840 C   0  0  0  0  0  0  0  0  0  0  0  0
   -3.9230   25.6410  -30.8490 N   0  0  0  0  0  0  0  0  0  0  0  0
   -5.7990   25.7130  -29.4880 O   0  0  0  0  0  0  0  0  0  0  0  0
   -6.9990   23.4900  -31.0140 C   0  0  0  0  0  0  0  0  0  0  0  0
   -7.0370   22.2720  -31.6540 C   0  0  0  0  0  0  0  0  0  0  0  0
   -8.1250   21.4820  -32.0070 C   0  0  0  0  0  0  0  0  0  0  0  0
   -7.8710   20.2590  -32.6520 C   0  0  0  0  0  0  0  0  0  0  0  0
   -6.5420   19.8380  -32.9220 C   0  0  0  0  0  0  0  0  0  0  0  0
   -6.2800   18.5430  -33.6040 C   0  0  0  0  0  0  0  0  0  0  0  0
   -5.3620   18.2810  -34.6140 C   0  0  0  0  0  0  0  0  0  0  0  0
   -5.4150   16.9770  -34.9450 N   0  0  0  0  0  0  0  0  0  0  0  0
   -6.3420   16.4100  -34.1910 N   0  0  0  0  0  0  0  0  0  0  0  0
   -6.6460   14.9860  -34.2080 C   0  0  0  0  0  0  0  0  0  0  0  0
   -6.8810   17.3180  -33.3580 C   0  0  0  0  0  0  0  0  0  0  0  0
   -5.4650   20.6710  -32.5350 C   0  0  0  0  0  0  0  0  0  0  0  0
   -5.7480   21.8960  -31.9190 C   0  0  0  0  0  0  0  0  0  0  0  0
    1.2365   21.0416  -35.5402 H   0  0  0  0  0  0  0  0  0  0  0  0
   -0.4480   21.0262  -36.1638 H   0  0  0  0  0  0  0  0  0  0  0  0
    0.4957   22.5546  -36.1638 H   0  0  0  0  0  0  0  0  0  0  0  0
   -1.9991   21.0015  -34.6321 H   0  0  0  0  0  0  0  0  0  0  0  0
   -0.7006   19.9712  -33.9157 H   0  0  0  0  0  0  0  0  0  0  0  0
   -0.8932   21.8396  -31.9640 H   0  0  0  0  0  0  0  0  0  0  0  0
   -1.9283   20.2124  -30.6564 H   0  0  0  0  0  0  0  0  0  0  0  0
   -2.9846   19.6508  -31.9964 H   0  0  0  0  0  0  0  0  0  0  0  0
   -1.2369   19.2360  -31.9964 H   0  0  0  0  0  0  0  0  0  0  0  0
   -3.0120   25.3000  -30.4680 H   0  0  0  0  0  0  0  0  0  0  0  0
   -7.8536   24.0802  -30.6516 H   0  0  0  0  0  0  0  0  0  0  0  0
   -9.1538   21.8042  -31.7882 H   0  0  0  0  0  0  0  0  0  0  0  0
   -8.7139   19.6190  -32.9519 H   0  0  0  0  0  0  0  0  0  0  0  0
   -4.6943   19.0251  -35.0728 H   0  0  0  0  0  0  0  0  0  0  0  0
   -6.7251   14.6156  -33.1753 H   0  0  0  0  0  0  0  0  0  0  0  0
   -7.5996   14.8209  -34.7308 H   0  0  0  0  0  0  0  0  0  0  0  0
   -5.8429   14.4458  -34.7308 H   0  0  0  0  0  0  0  0  0  0  0  0
   -7.6638   17.1224  -32.6103 H   0  0  0  0  0  0  0  0  0  0  0  0
   -4.4249   20.3616  -32.7149 H   0  0  0  0  0  0  0  0  0  0  0  0
  1  2  1  0
  2  3  1  0
  3  4  1  0
  4  5  1  0
  4  6  1  0
  6  7  1  0
  7  8  2  0
  7  9  1  0
  9 10  1  0
 10 11  1  0
 11 12  1  0
 11 13  2  0
 10 14  2  0
 14 15  1  0
 15 16  2  0
 16 17  1  0
 17 18  2  0
 18 19  1  0
 19 20  1  0
 20 21  2  0
 21 22  1  0
 22 23  1  0
 22 24  1  0
 18 25  1  0
 25 26  2  0
 26  9  1  0
 26 15  1  0
 24 19  2  0
  1 27  1  0
  1 28  1  0
  1 29  1  0
  3 30  1  0
  3 31  1  0
  4 32  1  1
  5 33  1  0
  5 34  1  0
  5 35  1  0
 12 36  1  0
 14 37  1  0
 16 38  1  0
 17 39  1  0
 20 40  1  0
 23 41  1  0
 23 42  1  0
 23 43  1  0
 24 44  1  0
 25 45  1  0
M  CHG  1  12  -1
M  END
>  <UniqueID>  (59) 
57

>  <SMILES>  (59) 
COC[C@H](C)OC(=O)n1c(C([NH-])=O)cc2ccc(-c3cnn(C)c3)cc21

>  <Energy>  (59) 
112.15847814272888

>  <Genealogy>  (59) 
COCC(C)OC(=O)n1c(C([NH-])=O)cc2ccc(-c3cnn(C)c3)cc21 (protonated)
COC[C@H](C)OC(=O)n1c(C([NH-])=O)cc2ccc(-c3cnn(C)c3)cc21 (chirality)
COC[C@H](C)OC(=O)n1c(C([NH-])=O)cc2ccc(-c3cnn(C)c3)cc21 (3D coordinates assigned)
COC[C@H](C)OC(=O)n1c(C([NH-])=O)cc2ccc(-c3cnn(C)c3)cc21 (optimized conformer: 112.15847814272888 kcal/mol)

>  <smiles>  (59) 
COCC(C)OC(=O)n1c(C(N)=O)cc2ccc(-c3cnn(C)c3)cc21

>  <score_type>  (59) 
oracle

>  <origin>  (59) 
adg

>  <m_score__min__energy>  (59) 
-11.19

>  <m_primary>  (59) 
energy

$$$$
61:0
     RDKit          3D

 43 45  0  0  0  0  0  0  0  0999 V2000
   -6.7420   18.0650  -32.2470 C   0  0  0  0  0  0  0  0  0  0  0  0
   -6.9130   19.5310  -31.9800 C   0  0  0  0  0  0  0  0  0  0  0  0
   -8.1680   20.1520  -32.1960 C   0  0  0  0  0  0  0  0  0  0  0  0
   -8.3280   21.5330  -31.9910 C   0  0  0  0  0  0  0  0  0  0  0  0
   -7.2180   22.2630  -31.5740 C   0  0  0  0  0  0  0  0  0  0  0  0
   -7.0840   23.6110  -31.3250 C   0  0  0  0  0  0  0  0  0  0  0  0
   -5.7500   23.7880  -30.9580 C   0  0  0  0  0  0  0  0  0  0  0  0
   -5.1790   25.0890  -30.5470 C   0  0  0  0  0  0  0  0  0  0  0  0
   -3.7700   25.3040  -30.5430 N   0  0  0  0  0  0  0  0  0  0  0  0
   -5.9450   26.0140  -30.1670 O   0  0  0  0  0  0  0  0  0  0  0  0
   -5.0900   22.5970  -30.9800 N   0  0  0  0  0  0  0  0  0  0  0  0
   -3.6940   22.3580  -30.7370 C   0  0  0  0  0  0  0  0  0  0  0  0
   -2.8570   22.6270  -31.6400 O   0  0  0  0  0  0  0  0  0  0  0  0
   -3.2590   21.8170  -29.4770 N   0  0  0  0  0  0  0  0  0  0  0  0
   -2.8700   20.5440  -29.2590 C   0  0  0  0  0  0  0  0  0  0  0  0
   -2.5400   20.4200  -27.9230 C   0  0  0  0  0  0  0  0  0  0  0  0
   -2.0660   19.2260  -27.2690 N   0  0  0  0  0  0  0  0  0  0  0  0
   -0.7720   18.6530  -27.6490 C   0  0  0  0  0  0  0  0  0  0  0  0
   -2.8830   18.5890  -26.2310 C   0  0  0  0  0  0  0  0  0  0  0  0
   -2.7260   21.6060  -27.3080 N   0  0  0  0  0  0  0  0  0  0  0  0
   -3.1630   22.4380  -28.2760 C   0  0  0  0  0  0  0  0  0  0  0  0
   -3.4880   23.8790  -28.0250 C   0  0  0  0  0  0  0  0  0  0  0  0
   -5.9990   21.6760  -31.3620 C   0  0  0  0  0  0  0  0  0  0  0  0
   -5.8040   20.3070  -31.5770 C   0  0  0  0  0  0  0  0  0  0  0  0
   -6.6788   17.5233  -31.2917 H   0  0  0  0  0  0  0  0  0  0  0  0
   -7.6030   17.6942  -32.8225 H   0  0  0  0  0  0  0  0  0  0  0  0
   -5.8188   17.9024  -32.8225 H   0  0  0  0  0  0  0  0  0  0  0  0
   -9.0252   19.5475  -32.5273 H   0  0  0  0  0  0  0  0  0  0  0  0
   -9.2996   22.0220  -32.1548 H   0  0  0  0  0  0  0  0  0  0  0  0
   -7.8633   24.3837  -31.3997 H   0  0  0  0  0  0  0  0  0  0  0  0
   -3.1360   24.7230  -31.1360 H   0  0  0  0  0  0  0  0  0  0  0  0
   -2.8236   19.7444  -30.0130 H   0  0  0  0  0  0  0  0  0  0  0  0
   -0.2023   18.4007  -26.7425 H   0  0  0  0  0  0  0  0  0  0  0  0
   -0.9348   17.7428  -28.2449 H   0  0  0  0  0  0  0  0  0  0  0  0
   -0.2075   19.3853  -28.2449 H   0  0  0  0  0  0  0  0  0  0  0  0
   -2.5084   18.8811  -25.2389 H   0  0  0  0  0  0  0  0  0  0  0  0
   -3.9290   18.9124  -26.3378 H   0  0  0  0  0  0  0  0  0  0  0  0
   -2.8245   17.4958  -26.3378 H   0  0  0  0  0  0  0  0  0  0  0  0
   -2.5660   21.8410  -26.3040 H   0  0  0  0  0  0  0  0  0  0  0  0
   -3.5293   24.0622  -26.9411 H   0  0  0  0  0  0  0  0  0  0  0  0
   -2.7105   24.5140  -28.4748 H   0  0  0  0  0  0  0  0  0  0  0  0
   -4.4628   24.1188  -28.4748 H   0  0  0  0  0  0  0  0  0  0  0  0
   -4.8143   19.8480  -31.4360 H   0  0  0  0  0  0  0  0  0  0  0  0
  1  2  1  0
  2  3  2  0
  3  4  1  0
  4  5  2  0
  5  6  1  0
  6  7  2  0
  7  8  1  0
  8  9  1  0
  8 10  2  0
  7 11  1  0
 11 12  1  0
 12 13  2  0
 12 14  1  0
 14 15  1  0
 15 16  2  0
 16 17  1  0
 17 18  1  0
 17 19  1  0
 16 20  1  0
 20 21  2  0
 21 22  1  0
 11 23  1  0
 23 24  2  0
 24  2  1  0
 23  5  1  0
 21 14  1  0
  1 25  1  0
  1 26  1  0
  1 27  1  0
  3 28  1  0
  4 29  1  0
  6 30  1  0
  9 31  1  0
 15 32  1  0
 18 33  1  0
 18 34  1  0
 18 35  1  0
 19 36  1  0
 19 37  1  0
 19 38  1  0
 20 39  1  0
 22 40  1  0
 22 41  1  0
 22 42  1  0
 24 43  1  0
M  CHG  2   9  -1  20   1
M  END
>  <UniqueID>  (60) 
58

>  <SMILES>  (60) 
Cc1ccc2cc(C([NH-])=O)n(C(=O)n3cc(N(C)C)[nH+]c3C)c2c1

>  <Energy>  (60) 
111.88529267465131

>  <Genealogy>  (60) 
Cc1ccc2cc(C([NH-])=O)n(C(=O)n3cc(N(C)C)[nH+]c3C)c2c1 (protonated)
Cc1ccc2cc(C([NH-])=O)n(C(=O)n3cc(N(C)C)[nH+]c3C)c2c1 (3D coordinates assigned)
Cc1ccc2cc(C([NH-])=O)n(C(=O)n3cc(N(C)C)[nH+]c3C)c2c1 (optimized conformer: 111.88529267465131 kcal/mol)

>  <smiles>  (60) 
Cc1ccc2cc(C(N)=O)n(C(=O)n3cc(N(C)C)nc3C)c2c1

>  <score_type>  (60) 
oracle

>  <origin>  (60) 
adg

>  <m_score__min__energy>  (60) 
-10.460000000000001

>  <m_primary>  (60) 
energy

$$$$
62:0
     RDKit          3D

 42 43  0  0  0  0  0  0  0  0999 V2000
   -0.8170   24.1000  -29.3200 C   0  0  0  0  0  0  0  0  0  0  0  0
   -2.0020   24.7830  -28.7710 N   0  0  0  0  0  0  0  0  0  0  0  0
   -1.6240   25.5110  -27.5480 C   0  0  0  0  0  0  0  0  0  0  0  0
   -3.0840   23.8180  -28.4800 C   0  0  0  0  0  0  0  0  0  0  0  0
   -2.6040   22.3790  -28.7260 C   0  0  0  0  0  0  0  0  0  0  0  0
   -3.5500   21.6010  -29.6530 C   0  0  0  0  0  0  0  0  0  0  0  0
   -4.0400   22.4570  -30.7880 C   0  0  0  0  0  0  0  0  0  0  0  0
   -3.2040   23.0400  -31.5300 O   0  0  0  0  0  0  0  0  0  0  0  0
   -5.4450   22.6870  -30.9830 N   0  0  0  0  0  0  0  0  0  0  0  0
   -6.1250   23.8620  -30.8660 C   0  0  0  0  0  0  0  0  0  0  0  0
   -5.5580   25.1290  -30.3530 C   0  0  0  0  0  0  0  0  0  0  0  0
   -4.2380   25.5400  -30.7120 N   0  0  0  0  0  0  0  0  0  0  0  0
   -6.2490   25.8710  -29.6050 O   0  0  0  0  0  0  0  0  0  0  0  0
   -7.4640   23.6820  -31.2130 C   0  0  0  0  0  0  0  0  0  0  0  0
   -7.5800   22.3510  -31.5430 C   0  0  0  0  0  0  0  0  0  0  0  0
   -8.6820   21.6290  -31.9890 C   0  0  0  0  0  0  0  0  0  0  0  0
   -8.5020   20.2680  -32.2940 C   0  0  0  0  0  0  0  0  0  0  0  0
   -7.2340   19.6500  -32.1340 C   0  0  0  0  0  0  0  0  0  0  0  0
   -7.0370   18.2090  -32.5280 C   0  0  0  0  0  0  0  0  0  0  0  0
   -6.6840   18.1120  -33.8630 F   0  0  0  0  0  0  0  0  0  0  0  0
   -6.0340   17.6290  -31.7710 F   0  0  0  0  0  0  0  0  0  0  0  0
   -8.2150   17.5170  -32.3220 F   0  0  0  0  0  0  0  0  0  0  0  0
   -6.1350   20.4230  -31.6930 C   0  0  0  0  0  0  0  0  0  0  0  0
   -6.3480   21.7720  -31.3900 C   0  0  0  0  0  0  0  0  0  0  0  0
   -0.1875   23.7372  -28.4941 H   0  0  0  0  0  0  0  0  0  0  0  0
   -1.1380   23.2484  -29.9378 H   0  0  0  0  0  0  0  0  0  0  0  0
   -0.2410   24.8047  -29.9378 H   0  0  0  0  0  0  0  0  0  0  0  0
   -1.9268   24.9279  -26.6658 H   0  0  0  0  0  0  0  0  0  0  0  0
   -0.5343   25.6606  -27.5323 H   0  0  0  0  0  0  0  0  0  0  0  0
   -2.1285   26.4883  -27.5323 H   0  0  0  0  0  0  0  0  0  0  0  0
   -3.3891   23.9228  -27.4284 H   0  0  0  0  0  0  0  0  0  0  0  0
   -3.9349   24.0272  -29.1450 H   0  0  0  0  0  0  0  0  0  0  0  0
   -1.6056   22.4127  -29.1865 H   0  0  0  0  0  0  0  0  0  0  0  0
   -2.5809   21.8608  -27.7560 H   0  0  0  0  0  0  0  0  0  0  0  0
   -3.0127   20.7343  -30.0656 H   0  0  0  0  0  0  0  0  0  0  0  0
   -4.4213   21.2788  -29.0638 H   0  0  0  0  0  0  0  0  0  0  0  0
   -3.6110   24.9270  -31.2760 H   0  0  0  0  0  0  0  0  0  0  0  0
   -3.8650   26.4540  -30.3720 H   0  0  0  0  0  0  0  0  0  0  0  0
   -8.2586   24.4426  -31.2211 H   0  0  0  0  0  0  0  0  0  0  0  0
   -9.6657   22.1086  -32.0999 H   0  0  0  0  0  0  0  0  0  0  0  0
   -9.3533   19.6757  -32.6607 H   0  0  0  0  0  0  0  0  0  0  0  0
   -5.1360   19.9740  -31.5906 H   0  0  0  0  0  0  0  0  0  0  0  0
  1  2  1  0
  2  3  1  0
  2  4  1  0
  4  5  1  0
  5  6  1  0
  6  7  1  0
  7  8  2  0
  7  9  1  0
  9 10  1  0
 10 11  1  0
 11 12  1  0
 11 13  2  0
 10 14  2  0
 14 15  1  0
 15 16  2  0
 16 17  1  0
 17 18  2  0
 18 19  1  0
 19 20  1  0
 19 21  1  0
 19 22  1  0
 18 23  1  0
 23 24  2  0
 24  9  1  0
 24 15  1  0
  1 25  1  0
  1 26  1  0
  1 27  1  0
  3 28  1  0
  3 29  1  0
  3 30  1  0
  4 31  1  0
  4 32  1  0
  5 33  1  0
  5 34  1  0
  6 35  1  0
  6 36  1  0
 12 37  1  0
 12 38  1  0
 14 39  1  0
 16 40  1  0
 17 41  1  0
 23 42  1  0
M  END
>  <UniqueID>  (61) 
59

>  <SMILES>  (61) 
CN(C)CCCC(=O)n1c(C(N)=O)cc2ccc(C(F)(F)F)cc21

>  <Energy>  (61) 
76.88580260870836

>  <Genealogy>  (61) 
CN(C)CCCC(=O)n1c(C(N)=O)cc2ccc(C(F)(F)F)cc21 (3D coordinates assigned)
CN(C)CCCC(=O)n1c(C(N)=O)cc2ccc(C(F)(F)F)cc21 (optimized conformer: 76.88580260870836 kcal/mol)

>  <smiles>  (61) 
CN(C)CCCC(=O)n1c(C(N)=O)cc2ccc(C(F)(F)F)cc21

>  <score_type>  (61) 
oracle

>  <origin>  (61) 
adg

>  <m_score__min__energy>  (61) 
-8.1699999999999999

>  <m_primary>  (61) 
energy

$$$$
63:0
     RDKit          3D

 53 54  0  0  0  0  0  0  0  0999 V2000
   -3.8370   22.6410  -28.6800 C   0  0  0  0  0  0  0  0  0  0  0  0
   -3.2040   22.2710  -29.9480 N   0  0  0  0  0  0  0  0  0  0  0  0
   -1.8290   21.7640  -29.9740 C   0  0  0  0  0  0  0  0  0  0  0  0
   -3.9100   22.4660  -31.1890 C   0  0  0  0  0  0  0  0  0  0  0  0
   -3.2950   22.3900  -32.2870 O   0  0  0  0  0  0  0  0  0  0  0  0
   -5.3160   22.7490  -31.1950 N   0  0  0  0  0  0  0  0  0  0  0  0
   -5.9300   23.9220  -30.8870 C   0  0  0  0  0  0  0  0  0  0  0  0
   -5.2550   25.1400  -30.3920 C   0  0  0  0  0  0  0  0  0  0  0  0
   -3.8570   25.3170  -30.6060 N   0  0  0  0  0  0  0  0  0  0  0  0
   -5.9060   26.0350  -29.7900 O   0  0  0  0  0  0  0  0  0  0  0  0
   -7.3080   23.8140  -31.0730 C   0  0  0  0  0  0  0  0  0  0  0  0
   -7.5150   22.5260  -31.5170 C   0  0  0  0  0  0  0  0  0  0  0  0
   -8.6920   21.8790  -31.8830 C   0  0  0  0  0  0  0  0  0  0  0  0
   -8.5990   20.5500  -32.3340 C   0  0  0  0  0  0  0  0  0  0  0  0
   -7.3420   19.8990  -32.4130 C   0  0  0  0  0  0  0  0  0  0  0  0
   -7.2560   18.4860  -32.9320 C   0  0  0  0  0  0  0  0  0  0  0  0
   -6.1240   18.3160  -33.9560 C   0  0  0  0  0  0  0  0  0  0  0  0
   -5.0370   17.3440  -33.4660 C   0  0  0  0  0  0  0  0  0  0  0  0
   -3.6170   17.8810  -33.7020 C   0  0  0  0  0  0  0  0  0  0  0  0
   -3.5730   19.4180  -33.8340 C   0  0  0  0  0  0  0  0  0  0  0  0
   -2.3700   20.0070  -33.1980 N   0  0  0  0  0  0  0  0  0  0  0  0
   -1.7060   18.9970  -32.3540 C   0  0  0  0  0  0  0  0  0  0  0  0
   -1.4150   20.5150  -34.2020 C   0  0  0  0  0  0  0  0  0  0  0  0
   -6.1690   20.5910  -32.0400 C   0  0  0  0  0  0  0  0  0  0  0  0
   -6.2940   21.9060  -31.5840 C   0  0  0  0  0  0  0  0  0  0  0  0
   -3.2204   22.2806  -27.8434 H   0  0  0  0  0  0  0  0  0  0  0  0
   -3.9298   23.7356  -28.6221 H   0  0  0  0  0  0  0  0  0  0  0  0
   -4.8362   22.1848  -28.6221 H   0  0  0  0  0  0  0  0  0  0  0  0
   -1.4678   21.6308  -28.9436 H   0  0  0  0  0  0  0  0  0  0  0  0
   -1.8044   20.7977  -30.4990 H   0  0  0  0  0  0  0  0  0  0  0  0
   -1.1829   22.4830  -30.4990 H   0  0  0  0  0  0  0  0  0  0  0  0
   -3.5020   26.0440  -31.2660 H   0  0  0  0  0  0  0  0  0  0  0  0
   -8.0675   24.5911  -30.9018 H   0  0  0  0  0  0  0  0  0  0  0  0
   -9.6637   22.3908  -31.8215 H   0  0  0  0  0  0  0  0  0  0  0  0
   -9.5110   20.0101  -32.6285 H   0  0  0  0  0  0  0  0  0  0  0  0
   -7.0738   17.8075  -32.0856 H   0  0  0  0  0  0  0  0  0  0  0  0
   -8.2060   18.2505  -33.4341 H   0  0  0  0  0  0  0  0  0  0  0  0
   -6.5496   17.9279  -34.8932 H   0  0  0  0  0  0  0  0  0  0  0  0
   -5.6544   19.2993  -34.1060 H   0  0  0  0  0  0  0  0  0  0  0  0
   -5.1753   17.1746  -32.3880 H   0  0  0  0  0  0  0  0  0  0  0  0
   -5.1406   16.4107  -34.0389 H   0  0  0  0  0  0  0  0  0  0  0  0
   -2.9831   17.5828  -32.8539 H   0  0  0  0  0  0  0  0  0  0  0  0
   -3.2559   17.4567  -34.6505 H   0  0  0  0  0  0  0  0  0  0  0  0
   -3.5720   19.6807  -34.9022 H   0  0  0  0  0  0  0  0  0  0  0  0
   -4.4564   19.8237  -33.3193 H   0  0  0  0  0  0  0  0  0  0  0  0
   -2.6570   20.8010  -32.5770 H   0  0  0  0  0  0  0  0  0  0  0  0
   -1.8670   19.2419  -31.2938 H   0  0  0  0  0  0  0  0  0  0  0  0
   -2.1283   18.0043  -32.5692 H   0  0  0  0  0  0  0  0  0  0  0  0
   -0.6273   18.9911  -32.5692 H   0  0  0  0  0  0  0  0  0  0  0  0
   -0.5549   20.9725  -33.6913 H   0  0  0  0  0  0  0  0  0  0  0  0
   -1.0674   19.6826  -34.8315 H   0  0  0  0  0  0  0  0  0  0  0  0
   -1.9110   21.2685  -34.8315 H   0  0  0  0  0  0  0  0  0  0  0  0
   -5.1831   20.1078  -32.1066 H   0  0  0  0  0  0  0  0  0  0  0  0
  1  2  1  0
  2  3  1  0
  2  4  1  0
  4  5  2  0
  4  6  1  0
  6  7  1  0
  7  8  1  0
  8  9  1  0
  8 10  2  0
  7 11  2  0
 11 12  1  0
 12 13  2  0
 13 14  1  0
 14 15  2  0
 15 16  1  0
 16 17  1  0
 17 18  1  0
 18 19  1  0
 19 20  1  0
 20 21  1  0
 21 22  1  0
 21 23  1  0
 15 24  1  0
 24 25  2  0
 25  6  1  0
 25 12  1  0
  1 26  1  0
  1 27  1  0
  1 28  1  0
  3 29  1  0
  3 30  1  0
  3 31  1  0
  9 32  1  0
 11 33  1  0
 13 34  1  0
 14 35  1  0
 16 36  1  0
 16 37  1  0
 17 38  1  0
 17 39  1  0
 18 40  1  0
 18 41  1  0
 19 42  1  0
 19 43  1  0
 20 44  1  0
 20 45  1  0
 21 46  1  0
 22 47  1  0
 22 48  1  0
 22 49  1  0
 23 50  1  0
 23 51  1  0
 23 52  1  0
 24 53  1  0
M  CHG  2   9  -1  21   1
M  END
>  <UniqueID>  (62) 
60

>  <SMILES>  (62) 
CN(C)C(=O)n1c(C([NH-])=O)cc2ccc(CCCCC[NH+](C)C)cc21

>  <Energy>  (62) 
82.5132358117374

>  <Genealogy>  (62) 
CN(C)C(=O)n1c(C([NH-])=O)cc2ccc(CCCCC[NH+](C)C)cc21 (protonated)
CN(C)C(=O)n1c(C([NH-])=O)cc2ccc(CCCCC[NH+](C)C)cc21 (3D coordinates assigned)
CN(C)C(=O)n1c(C([NH-])=O)cc2ccc(CCCCC[NH+](C)C)cc21 (optimized conformer: 82.5132358117374 kcal/mol)

>  <smiles>  (62) 
CN(C)CCCCCc1ccc2cc(C(N)=O)n(C(=O)N(C)C)c2c1

>  <score_type>  (62) 
oracle

>  <origin>  (62) 
adg

>  <m_score__min__energy>  (62) 
-9.7799999999999994

>  <m_primary>  (62) 
energy

$$$$
64:0
     RDKit          3D

 40 41  0  0  0  0  0  0  0  0999 V2000
   -8.7170   21.6940  -31.7590 C   0  0  0  0  0  0  0  0  0  0  0  0
   -8.2290   20.3460  -32.2990 C   0  0  2  0  0  0  0  0  0  0  0  0
   -9.4220   19.4240  -32.6080 C   0  0  0  0  0  0  0  0  0  0  0  0
   -9.2420   18.1630  -32.0080 O   0  0  0  0  0  0  0  0  0  0  0  0
   -7.3870   19.7480  -31.3160 O   0  0  0  0  0  0  0  0  0  0  0  0
   -6.5000   18.6980  -31.5820 C   0  0  0  0  0  0  0  0  0  0  0  0
   -6.7480   17.5510  -31.1250 O   0  0  0  0  0  0  0  0  0  0  0  0
   -5.3310   18.9080  -32.4110 N   0  0  0  0  0  0  0  0  0  0  0  0
   -5.0030   18.2390  -33.5580 C   0  0  0  0  0  0  0  0  0  0  0  0
   -5.6890   17.0480  -34.0990 C   0  0  0  0  0  0  0  0  0  0  0  0
   -7.0620   16.7870  -33.7980 N   0  0  0  0  0  0  0  0  0  0  0  0
   -5.0350   16.2150  -34.7850 O   0  0  0  0  0  0  0  0  0  0  0  0
   -3.8910   18.8070  -34.1730 C   0  0  0  0  0  0  0  0  0  0  0  0
   -3.5130   19.8400  -33.3530 C   0  0  0  0  0  0  0  0  0  0  0  0
   -2.4450   20.7290  -33.4840 C   0  0  0  0  0  0  0  0  0  0  0  0
   -2.2680   21.6960  -32.4820 C   0  0  0  0  0  0  0  0  0  0  0  0
   -3.1530   21.7530  -31.3820 C   0  0  0  0  0  0  0  0  0  0  0  0
   -2.9350   22.7220  -30.3400 C   0  0  0  0  0  0  0  0  0  0  0  0
   -2.7500   23.5260  -29.4620 C   0  0  0  0  0  0  0  0  0  0  0  0
   -2.5210   24.5120  -28.4050 C   0  0  0  0  0  0  0  0  0  0  0  0
   -1.2310   25.2200  -28.6470 C   0  0  0  0  0  0  0  0  0  0  0  0
   -1.2310   26.4380  -28.9620 O   0  0  0  0  0  0  0  0  0  0  0  0
   -0.0300   24.5230  -28.5760 O   0  0  0  0  0  0  0  0  0  0  0  0
   -4.2320   20.8490  -31.2830 C   0  0  0  0  0  0  0  0  0  0  0  0
   -4.3890   19.8840  -32.2930 C   0  0  0  0  0  0  0  0  0  0  0  0
   -8.7094   21.6729  -30.6592 H   0  0  0  0  0  0  0  0  0  0  0  0
   -8.0515   22.4942  -32.1150 H   0  0  0  0  0  0  0  0  0  0  0  0
   -9.7405   21.8828  -32.1150 H   0  0  0  0  0  0  0  0  0  0  0  0
   -7.6699   20.5000  -33.2337 H   0  0  0  0  0  0  0  0  0  0  0  0
  -10.3431   19.8817  -32.2181 H   0  0  0  0  0  0  0  0  0  0  0  0
   -9.4948   19.2912  -33.6975 H   0  0  0  0  0  0  0  0  0  0  0  0
   -8.7680   18.3210  -31.1540 H   0  0  0  0  0  0  0  0  0  0  0  0
   -7.5820   17.3780  -33.1070 H   0  0  0  0  0  0  0  0  0  0  0  0
   -7.5460   15.9660  -34.2300 H   0  0  0  0  0  0  0  0  0  0  0  0
   -3.4167   18.4945  -35.1150 H   0  0  0  0  0  0  0  0  0  0  0  0
   -1.7633   20.6736  -34.3455 H   0  0  0  0  0  0  0  0  0  0  0  0
   -1.4365   22.4126  -32.5535 H   0  0  0  0  0  0  0  0  0  0  0  0
   -3.3436   25.2423  -28.4021 H   0  0  0  0  0  0  0  0  0  0  0  0
   -2.4777   23.9994  -27.4327 H   0  0  0  0  0  0  0  0  0  0  0  0
   -4.9328   20.8982  -30.4366 H   0  0  0  0  0  0  0  0  0  0  0  0
  1  2  1  0
  2  3  1  0
  3  4  1  0
  2  5  1  0
  5  6  1  0
  6  7  2  0
  6  8  1  0
  8  9  1  0
  9 10  1  0
 10 11  1  0
 10 12  2  0
  9 13  2  0
 13 14  1  0
 14 15  2  0
 15 16  1  0
 16 17  2  0
 17 18  1  0
 18 19  3  0
 19 20  1  0
 20 21  1  0
 21 22  2  0
 21 23  1  0
 17 24  1  0
 24 25  2  0
 25  8  1  0
 25 14  1  0
  1 26  1  0
  1 27  1  0
  1 28  1  0
  2 29  1  6
  3 30  1  0
  3 31  1  0
  4 32  1  0
 11 33  1  0
 11 34  1  0
 13 35  1  0
 15 36  1  0
 16 37  1  0
 20 38  1  0
 20 39  1  0
 24 40  1  0
M  CHG  1  23  -1
M  END
>  <UniqueID>  (63) 
61

>  <SMILES>  (63) 
C[C@H](CO)OC(=O)n1c(C(N)=O)cc2ccc(C#CCC(=O)[O-])cc21

>  <Energy>  (63) 
70.55409675467035

>  <Genealogy>  (63) 
CC(CO)OC(=O)n1c(C(N)=O)cc2ccc(C#CCC(=O)[O-])cc21 (protonated)
C[C@H](CO)OC(=O)n1c(C(N)=O)cc2ccc(C#CCC(=O)[O-])cc21 (chirality)
C[C@H](CO)OC(=O)n1c(C(N)=O)cc2ccc(C#CCC(=O)[O-])cc21 (3D coordinates assigned)
C[C@H](CO)OC(=O)n1c(C(N)=O)cc2ccc(C#CCC(=O)[O-])cc21 (optimized conformer: 70.55409675467035 kcal/mol)

>  <smiles>  (63) 
CC(CO)OC(=O)n1c(C(N)=O)cc2ccc(C#CCC(=O)O)cc21

>  <score_type>  (63) 
oracle

>  <origin>  (63) 
adg

>  <m_score__min__energy>  (63) 
-9.4800000000000004

>  <m_primary>  (63) 
energy

$$$$
65:0
     RDKit          3D

 35 36  0  0  0  0  0  0  0  0999 V2000
   -6.7590   24.1010  -30.3080 C   0  0  0  0  0  0  0  0  0  0  0  0
   -5.4470   24.1260  -29.6780 N   0  0  0  0  0  0  0  0  0  0  0  0
   -4.2470   24.4080  -30.4040 C   0  0  0  0  0  0  0  0  0  0  0  0
   -4.0320   25.5720  -30.8400 O   0  0  0  0  0  0  0  0  0  0  0  0
   -3.2800   23.3690  -30.6220 N   0  0  0  0  0  0  0  0  0  0  0  0
   -2.0260   23.2700  -30.0950 C   0  0  0  0  0  0  0  0  0  0  0  0
   -1.3330   24.3050  -29.2990 C   0  0  0  0  0  0  0  0  0  0  0  0
   -1.9820   25.5280  -28.9610 N   0  0  0  0  0  0  0  0  0  0  0  0
   -0.1360   24.1260  -28.9520 O   0  0  0  0  0  0  0  0  0  0  0  0
   -1.4310   22.0680  -30.4730 C   0  0  0  0  0  0  0  0  0  0  0  0
   -2.3630   21.4310  -31.2590 C   0  0  0  0  0  0  0  0  0  0  0  0
   -2.3060   20.1900  -31.8880 C   0  0  0  0  0  0  0  0  0  0  0  0
   -3.4340   19.7650  -32.6090 C   0  0  0  0  0  0  0  0  0  0  0  0
   -4.5910   20.5790  -32.6850 C   0  0  0  0  0  0  0  0  0  0  0  0
   -5.8110   20.0970  -33.4270 C   0  0  0  0  0  0  0  0  0  0  0  0
   -6.3870   18.8110  -32.8140 C   0  0  0  0  0  0  0  0  0  0  0  0
   -7.8770   18.9380  -32.4840 C   0  0  0  0  0  0  0  0  0  0  0  0
   -8.3950   20.0810  -33.1040 O   0  0  0  0  0  0  0  0  0  0  0  0
   -4.6150   21.8300  -32.0290 C   0  0  0  0  0  0  0  0  0  0  0  0
   -3.4700   22.2370  -31.3340 C   0  0  0  0  0  0  0  0  0  0  0  0
   -7.5383   24.0862  -29.5318 H   0  0  0  0  0  0  0  0  0  0  0  0
   -6.8822   24.9970  -30.9342 H   0  0  0  0  0  0  0  0  0  0  0  0
   -6.8480   23.2010  -30.9342 H   0  0  0  0  0  0  0  0  0  0  0  0
   -2.9730   25.7050  -29.2390 H   0  0  0  0  0  0  0  0  0  0  0  0
   -0.4288   21.7055  -30.2007 H   0  0  0  0  0  0  0  0  0  0  0  0
   -1.4054   19.5619  -31.8223 H   0  0  0  0  0  0  0  0  0  0  0  0
   -3.4189   18.7908  -33.1195 H   0  0  0  0  0  0  0  0  0  0  0  0
   -6.5806   20.8822  -33.3930 H   0  0  0  0  0  0  0  0  0  0  0  0
   -5.5134   19.8760  -34.4627 H   0  0  0  0  0  0  0  0  0  0  0  0
   -6.2529   17.9873  -33.5306 H   0  0  0  0  0  0  0  0  0  0  0  0
   -5.8504   18.6184  -31.8733 H   0  0  0  0  0  0  0  0  0  0  0  0
   -8.4109   18.0484  -32.8495 H   0  0  0  0  0  0  0  0  0  0  0  0
   -8.0062   19.0205  -31.3947 H   0  0  0  0  0  0  0  0  0  0  0  0
   -8.7380   19.7840  -33.9860 H   0  0  0  0  0  0  0  0  0  0  0  0
   -5.5105   22.4679  -32.0635 H   0  0  0  0  0  0  0  0  0  0  0  0
  1  2  1  0
  2  3  1  0
  3  4  2  0
  3  5  1  0
  5  6  1  0
  6  7  1  0
  7  8  1  0
  7  9  2  0
  6 10  2  0
 10 11  1  0
 11 12  2  0
 12 13  1  0
 13 14  2  0
 14 15  1  0
 15 16  1  0
 16 17  1  0
 17 18  1  0
 14 19  1  0
 19 20  2  0
 20  5  1  0
 20 11  1  0
  1 21  1  0
  1 22  1  0
  1 23  1  0
  8 24  1  0
 10 25  1  0
 12 26  1  0
 13 27  1  0
 15 28  1  0
 15 29  1  0
 16 30  1  0
 16 31  1  0
 17 32  1  0
 17 33  1  0
 18 34  1  0
 19 35  1  0
M  CHG  2   2  -1   8  -1
M  END
>  <UniqueID>  (64) 
62

>  <SMILES>  (64) 
C[N-]C(=O)n1c(C([NH-])=O)cc2ccc(CCCO)cc21

>  <Energy>  (64) 
66.98595447484712

>  <Genealogy>  (64) 
C[N-]C(=O)n1c(C([NH-])=O)cc2ccc(CCCO)cc21 (protonated)
C[N-]C(=O)n1c(C([NH-])=O)cc2ccc(CCCO)cc21 (3D coordinates assigned)
C[N-]C(=O)n1c(C([NH-])=O)cc2ccc(CCCO)cc21 (optimized conformer: 66.98595447484712 kcal/mol)

>  <smiles>  (64) 
CNC(=O)n1c(C(N)=O)cc2ccc(CCCO)cc21

>  <score_type>  (64) 
oracle

>  <origin>  (64) 
adg

>  <m_score__min__energy>  (64) 
-10.140000000000001

>  <m_primary>  (64) 
energy

$$$$
66:0
     RDKit          3D

 43 46  0  0  0  0  0  0  0  0999 V2000
   -3.9800   25.6510  -30.8130 N   0  0  0  0  0  0  0  0  0  0  0  0
   -5.1900   25.0630  -30.3460 C   0  0  0  0  0  0  0  0  0  0  0  0
   -5.8200   25.6160  -29.4040 O   0  0  0  0  0  0  0  0  0  0  0  0
   -5.7340   23.8370  -30.9690 C   0  0  0  0  0  0  0  0  0  0  0  0
   -7.0950   23.6040  -31.1570 C   0  0  0  0  0  0  0  0  0  0  0  0
   -7.1720   22.3940  -31.8090 C   0  0  0  0  0  0  0  0  0  0  0  0
   -8.2840   21.6710  -32.2240 C   0  0  0  0  0  0  0  0  0  0  0  0
   -8.0680   20.4280  -32.8440 C   0  0  0  0  0  0  0  0  0  0  0  0
   -6.7490   19.9260  -33.0430 C   0  0  0  0  0  0  0  0  0  0  0  0
   -6.5140   18.6180  -33.6430 N   0  0  2  0  0  0  0  0  0  0  0  0
   -7.2120   17.5340  -32.9200 C   0  0  0  0  0  0  0  0  0  0  0  0
   -6.1740   16.6960  -32.1800 C   0  0  0  0  0  0  0  0  0  0  0  0
   -4.8250   17.3160  -32.4910 C   0  0  0  0  0  0  0  0  0  0  0  0
   -5.0720   18.2790  -33.6500 C   0  0  1  0  0  0  0  0  0  0  0  0
   -4.6640   17.6480  -34.9610 C   0  0  0  0  0  0  0  0  0  0  0  0
   -5.3720   17.7980  -35.9930 O   0  0  0  0  0  0  0  0  0  0  0  0
   -3.4980   16.8960  -35.0360 O   0  0  0  0  0  0  0  0  0  0  0  0
   -5.6490   20.6950  -32.5870 C   0  0  0  0  0  0  0  0  0  0  0  0
   -5.8960   21.9360  -31.9930 C   0  0  0  0  0  0  0  0  0  0  0  0
   -5.0010   22.8110  -31.4850 N   0  0  0  0  0  0  0  0  0  0  0  0
   -3.5770   22.6370  -31.4340 C   0  0  0  0  0  0  0  0  0  0  0  0
   -2.9530   22.2840  -32.4710 O   0  0  0  0  0  0  0  0  0  0  0  0
   -2.8430   22.8670  -30.1800 C   0  0  0  0  0  0  0  0  0  0  0  0
   -3.1720   22.3520  -28.9420 C   0  0  0  0  0  0  0  0  0  0  0  0
   -2.2120   22.8320  -28.0760 C   0  0  0  0  0  0  0  0  0  0  0  0
   -1.3620   23.6080  -28.8370 C   0  0  0  0  0  0  0  0  0  0  0  0
   -1.7650   23.6110  -30.0860 O   0  0  0  0  0  0  0  0  0  0  0  0
   -3.0510   25.2980  -30.4920 H   0  0  0  0  0  0  0  0  0  0  0  0
   -7.9306   24.2500  -30.8496 H   0  0  0  0  0  0  0  0  0  0  0  0
   -9.3018   22.0595  -32.0720 H   0  0  0  0  0  0  0  0  0  0  0  0
   -8.9302   19.8337  -33.1807 H   0  0  0  0  0  0  0  0  0  0  0  0
   -6.8890   18.6340  -34.6230 H   0  0  0  0  0  0  0  0  0  0  0  0
   -7.9216   17.9663  -32.1992 H   0  0  0  0  0  0  0  0  0  0  0  0
   -7.7662   16.9039  -33.6312 H   0  0  0  0  0  0  0  0  0  0  0  0
   -6.3648   16.7229  -31.0970 H   0  0  0  0  0  0  0  0  0  0  0  0
   -6.2120   15.6429  -32.4956 H   0  0  0  0  0  0  0  0  0  0  0  0
   -4.4415   17.8599  -31.6152 H   0  0  0  0  0  0  0  0  0  0  0  0
   -4.0764   16.5525  -32.7492 H   0  0  0  0  0  0  0  0  0  0  0  0
   -4.4687   19.1915  -33.5343 H   0  0  0  0  0  0  0  0  0  0  0  0
   -4.6202   20.3221  -32.6985 H   0  0  0  0  0  0  0  0  0  0  0  0
   -4.0211   21.6967  -28.6978 H   0  0  0  0  0  0  0  0  0  0  0  0
   -2.1387   22.6357  -26.9961 H   0  0  0  0  0  0  0  0  0  0  0  0
   -0.4802   24.1431  -28.4548 H   0  0  0  0  0  0  0  0  0  0  0  0
  1  2  1  0
  2  3  2  0
  2  4  1  0
  4  5  2  0
  5  6  1  0
  6  7  2  0
  7  8  1  0
  8  9  2  0
  9 10  1  0
 10 11  1  0
 11 12  1  0
 12 13  1  0
 13 14  1  0
 14 15  1  0
 15 16  2  0
 15 17  1  0
  9 18  1  0
 18 19  2  0
 19 20  1  0
 20 21  1  0
 21 22  2  0
 21 23  1  0
 23 24  2  0
 24 25  1  0
 25 26  2  0
 26 27  1  0
 20  4  1  0
 27 23  1  0
 19  6  1  0
 14 10  1  0
  1 28  1  0
  5 29  1  0
  7 30  1  0
  8 31  1  0
 10 32  1  6
 11 33  1  0
 11 34  1  0
 12 35  1  0
 12 36  1  0
 13 37  1  0
 13 38  1  0
 14 39  1  1
 18 40  1  0
 24 41  1  0
 25 42  1  0
 26 43  1  0
M  CHG  3   1  -1  10   1  17  -1
M  END
>  <UniqueID>  (65) 
63

>  <SMILES>  (65) 
[NH-]C(=O)c1cc2ccc([N@@H+]3CCC[C@H]3C(=O)[O-])cc2n1C(=O)c1ccco1

>  <Energy>  (65) 
120.73286931533748

>  <Genealogy>  (65) 
[NH-]C(=O)c1cc2ccc([NH+]3CCC[C@H]3C(=O)[O-])cc2n1C(=O)c1ccco1 (protonated)
[NH-]C(=O)c1cc2ccc([N@@H+]3CCC[C@H]3C(=O)[O-])cc2n1C(=O)c1ccco1 (chirality)
[NH-]C(=O)c1cc2ccc([N@@H+]3CCC[C@H]3C(=O)[O-])cc2n1C(=O)c1ccco1 (3D coordinates assigned)
[NH-]C(=O)c1cc2ccc([N@@H+]3CCC[C@H]3C(=O)[O-])cc2n1C(=O)c1ccco1 (nonaromatic ring conformer: 120.73286931533748 kcal/mol)

>  <smiles>  (65) 
NC(=O)c1cc2ccc(N3CCC[C@H]3C(=O)O)cc2n1C(=O)c1ccco1

>  <score_type>  (65) 
oracle

>  <origin>  (65) 
adg

>  <m_score__min__energy>  (65) 
-10.68

>  <m_primary>  (65) 
energy

$$$$
67:0
     RDKit          3D

 34 35  0  0  0  0  0  0  0  0999 V2000
   -7.1080   18.2240  -32.8480 C   0  0  0  0  0  0  0  0  0  0  0  0
   -7.2890   19.6490  -32.4200 C   0  0  0  0  0  0  0  0  0  0  0  0
   -8.5880   20.2100  -32.3560 C   0  0  0  0  0  0  0  0  0  0  0  0
   -8.7770   21.5270  -31.9040 C   0  0  0  0  0  0  0  0  0  0  0  0
   -7.6520   22.2540  -31.5230 C   0  0  0  0  0  0  0  0  0  0  0  0
   -7.5530   23.5290  -31.0180 C   0  0  0  0  0  0  0  0  0  0  0  0
   -6.1930   23.7320  -30.7880 C   0  0  0  0  0  0  0  0  0  0  0  0
   -5.6130   25.0040  -30.2950 C   0  0  0  0  0  0  0  0  0  0  0  0
   -6.1580   25.6620  -29.1500 N   0  0  0  0  0  0  0  0  0  0  0  0
   -4.6410   25.5320  -30.8970 O   0  0  0  0  0  0  0  0  0  0  0  0
   -5.4800   22.6260  -31.1440 N   0  0  0  0  0  0  0  0  0  0  0  0
   -4.0620   22.4300  -31.0320 C   0  0  0  0  0  0  0  0  0  0  0  0
   -3.2780   23.0350  -31.8100 O   0  0  0  0  0  0  0  0  0  0  0  0
   -3.3860   21.3120  -29.7990 S   0  0  0  0  0  0  0  0  0  0  0  0
   -2.0840   22.4640  -29.2410 C   0  0  0  0  0  0  0  0  0  0  0  0
   -2.6920   23.6510  -28.4950 C   0  0  0  0  0  0  0  0  0  0  0  0
   -2.6650   24.8410  -29.3390 N   0  0  0  0  0  0  0  0  0  0  0  0
   -6.3870   21.7290  -31.5880 C   0  0  0  0  0  0  0  0  0  0  0  0
   -6.1730   20.4110  -32.0100 C   0  0  0  0  0  0  0  0  0  0  0  0
   -7.0264   17.5816  -31.9588 H   0  0  0  0  0  0  0  0  0  0  0  0
   -7.9734   17.9091  -33.4497 H   0  0  0  0  0  0  0  0  0  0  0  0
   -6.1914   18.1355  -33.4497 H   0  0  0  0  0  0  0  0  0  0  0  0
   -9.4568   19.6092  -32.6629 H   0  0  0  0  0  0  0  0  0  0  0  0
   -9.7825   21.9700  -31.8527 H   0  0  0  0  0  0  0  0  0  0  0  0
   -8.3732   24.2386  -30.8343 H   0  0  0  0  0  0  0  0  0  0  0  0
   -5.7640   26.5770  -28.8370 H   0  0  0  0  0  0  0  0  0  0  0  0
   -6.9180   25.2290  -28.5820 H   0  0  0  0  0  0  0  0  0  0  0  0
   -1.3946   21.9311  -28.5696 H   0  0  0  0  0  0  0  0  0  0  0  0
   -1.5453   22.8407  -30.1230 H   0  0  0  0  0  0  0  0  0  0  0  0
   -3.7333   23.4180  -28.2278 H   0  0  0  0  0  0  0  0  0  0  0  0
   -2.1056   23.8423  -27.5842 H   0  0  0  0  0  0  0  0  0  0  0  0
   -2.7990   24.5390  -30.3320 H   0  0  0  0  0  0  0  0  0  0  0  0
   -3.4970   25.4250  -29.0920 H   0  0  0  0  0  0  0  0  0  0  0  0
   -5.1610   19.9801  -32.0218 H   0  0  0  0  0  0  0  0  0  0  0  0
  1  2  1  0
  2  3  2  0
  3  4  1  0
  4  5  2  0
  5  6  1  0
  6  7  2  0
  7  8  1  0
  8  9  1  0
  8 10  2  0
  7 11  1  0
 11 12  1  0
 12 13  2  0
 12 14  1  0
 14 15  1  0
 15 16  1  0
 16 17  1  0
 11 18  1  0
 18 19  2  0
 19  2  1  0
 18  5  1  0
  1 20  1  0
  1 21  1  0
  1 22  1  0
  3 23  1  0
  4 24  1  0
  6 25  1  0
  9 26  1  0
  9 27  1  0
 15 28  1  0
 15 29  1  0
 16 30  1  0
 16 31  1  0
 17 32  1  0
 17 33  1  0
 19 34  1  0
M  END
>  <UniqueID>  (66) 
64

>  <SMILES>  (66) 
Cc1ccc2cc(C(N)=O)n(C(=O)SCCN)c2c1

>  <Energy>  (66) 
65.28320788870907

>  <Genealogy>  (66) 
Cc1ccc2cc(C(N)=O)n(C(=O)SCCN)c2c1 (3D coordinates assigned)
Cc1ccc2cc(C(N)=O)n(C(=O)SCCN)c2c1 (optimized conformer: 65.28320788870907 kcal/mol)

>  <smiles>  (66) 
Cc1ccc2cc(C(N)=O)n(C(=O)SCCN)c2c1

>  <score_type>  (66) 
oracle

>  <origin>  (66) 
adg

>  <m_score__min__energy>  (66) 
-8.3200000000000003

>  <m_primary>  (66) 
energy

$$$$
68:0
     RDKit          3D

 46 49  0  0  0  0  0  0  0  0999 V2000
   -1.2970   19.2380  -33.6940 C   0  0  0  0  0  0  0  0  0  0  0  0
   -2.2630   20.2900  -33.2580 C   0  0  0  0  0  0  0  0  0  0  0  0
   -3.1310   20.8720  -34.0550 O   0  0  0  0  0  0  0  0  0  0  0  0
   -3.8230   21.7600  -33.4050 N   0  0  0  0  0  0  0  0  0  0  0  0
   -3.4090   21.7700  -32.1230 C   0  0  0  0  0  0  0  0  0  0  0  0
   -3.9990   22.6350  -31.0810 C   0  0  0  0  0  0  0  0  0  0  0  0
   -3.2540   23.1100  -30.1820 O   0  0  0  0  0  0  0  0  0  0  0  0
   -5.3910   22.9860  -31.1000 N   0  0  0  0  0  0  0  0  0  0  0  0
   -5.9510   24.2030  -30.8520 C   0  0  0  0  0  0  0  0  0  0  0  0
   -5.2210   25.4180  -30.4330 C   0  0  0  0  0  0  0  0  0  0  0  0
   -3.8700   25.6110  -30.8430 N   0  0  0  0  0  0  0  0  0  0  0  0
   -5.7840   26.2970  -29.7290 O   0  0  0  0  0  0  0  0  0  0  0  0
   -7.3380   24.1340  -30.9770 C   0  0  0  0  0  0  0  0  0  0  0  0
   -7.6110   22.8270  -31.3130 C   0  0  0  0  0  0  0  0  0  0  0  0
   -8.8280   22.1870  -31.5260 C   0  0  0  0  0  0  0  0  0  0  0  0
   -8.8080   20.8140  -31.8300 C   0  0  0  0  0  0  0  0  0  0  0  0
   -7.5770   20.1180  -31.9390 C   0  0  0  0  0  0  0  0  0  0  0  0
   -7.5560   18.6380  -32.2050 C   0  0  0  0  0  0  0  0  0  0  0  0
   -6.3090   18.2690  -32.9640 C   0  0  0  0  0  0  0  0  0  0  0  0
   -5.3630   17.3960  -32.4060 C   0  0  0  0  0  0  0  0  0  0  0  0
   -4.2380   17.0230  -33.1430 C   0  0  0  0  0  0  0  0  0  0  0  0
   -4.0740   17.5160  -34.4380 C   0  0  0  0  0  0  0  0  0  0  0  0
   -5.0060   18.3500  -34.9720 N   0  0  0  0  0  0  0  0  0  0  0  0
   -6.1080   18.7320  -34.2730 C   0  0  0  0  0  0  0  0  0  0  0  0
   -6.3630   20.8060  -31.7310 C   0  0  0  0  0  0  0  0  0  0  0  0
   -6.4170   22.1610  -31.3930 C   0  0  0  0  0  0  0  0  0  0  0  0
   -2.3810   20.8430  -31.9930 C   0  0  0  0  0  0  0  0  0  0  0  0
   -1.5780   20.4890  -30.7780 C   0  0  0  0  0  0  0  0  0  0  0  0
   -0.8550   18.7567  -32.8092 H   0  0  0  0  0  0  0  0  0  0  0  0
   -1.8238   18.4837  -34.2970 H   0  0  0  0  0  0  0  0  0  0  0  0
   -0.5007   19.6987  -34.2970 H   0  0  0  0  0  0  0  0  0  0  0  0
   -4.5820   22.3430  -33.8230 H   0  0  0  0  0  0  0  0  0  0  0  0
   -3.0760   25.3000  -30.2410 H   0  0  0  0  0  0  0  0  0  0  0  0
   -8.0611   24.9510  -30.8368 H   0  0  0  0  0  0  0  0  0  0  0  0
   -9.7774   22.7385  -31.4586 H   0  0  0  0  0  0  0  0  0  0  0  0
   -9.7547   20.2756  -31.9845 H   0  0  0  0  0  0  0  0  0  0  0  0
   -7.5740   18.0956  -31.2482 H   0  0  0  0  0  0  0  0  0  0  0  0
   -8.4374   18.3663  -32.8045 H   0  0  0  0  0  0  0  0  0  0  0  0
   -5.5079   17.0056  -31.3879 H   0  0  0  0  0  0  0  0  0  0  0  0
   -3.4878   16.3468  -32.7071 H   0  0  0  0  0  0  0  0  0  0  0  0
   -3.1903   17.2299  -35.0273 H   0  0  0  0  0  0  0  0  0  0  0  0
   -6.8441   19.4061  -34.7353 H   0  0  0  0  0  0  0  0  0  0  0  0
   -5.3976   20.2886  -31.8324 H   0  0  0  0  0  0  0  0  0  0  0  0
   -2.1508   20.7415  -29.8735 H   0  0  0  0  0  0  0  0  0  0  0  0
   -1.3592   19.4110  -30.7844 H   0  0  0  0  0  0  0  0  0  0  0  0
   -0.6346   21.0547  -30.7844 H   0  0  0  0  0  0  0  0  0  0  0  0
  1  2  1  0
  2  3  1  0
  3  4  1  0
  4  5  2  0
  5  6  1  0
  6  7  2  0
  6  8  1  0
  8  9  1  0
  9 10  1  0
 10 11  1  0
 10 12  2  0
  9 13  2  0
 13 14  1  0
 14 15  2  0
 15 16  1  0
 16 17  2  0
 17 18  1  0
 18 19  1  0
 19 20  2  0
 20 21  1  0
 21 22  2  0
 22 23  1  0
 23 24  2  0
 17 25  1  0
 25 26  2  0
  5 27  1  0
 27 28  1  0
 27  2  2  0
 26  8  1  0
 26 14  1  0
 24 19  1  0
  1 29  1  0
  1 30  1  0
  1 31  1  0
  4 32  1  0
 11 33  1  0
 13 34  1  0
 15 35  1  0
 16 36  1  0
 18 37  1  0
 18 38  1  0
 20 39  1  0
 21 40  1  0
 22 41  1  0
 24 42  1  0
 25 43  1  0
 28 44  1  0
 28 45  1  0
 28 46  1  0
M  CHG  2   4   1  11  -1
M  END
>  <UniqueID>  (67) 
65

>  <SMILES>  (67) 
Cc1o[nH+]c(C(=O)n2c(C([NH-])=O)cc3ccc(Cc4cccnc4)cc32)c1C

>  <Energy>  (67) 
116.00226923417833

>  <Genealogy>  (67) 
Cc1o[nH+]c(C(=O)n2c(C([NH-])=O)cc3ccc(Cc4cccnc4)cc32)c1C (protonated)
Cc1o[nH+]c(C(=O)n2c(C([NH-])=O)cc3ccc(Cc4cccnc4)cc32)c1C (3D coordinates assigned)
Cc1o[nH+]c(C(=O)n2c(C([NH-])=O)cc3ccc(Cc4cccnc4)cc32)c1C (optimized conformer: 116.00226923417833 kcal/mol)

>  <smiles>  (67) 
Cc1onc(C(=O)n2c(C(N)=O)cc3ccc(Cc4cccnc4)cc32)c1C

>  <score_type>  (67) 
oracle

>  <origin>  (67) 
adg

>  <m_score__min__energy>  (67) 
-12.359999999999999

>  <m_primary>  (67) 
energy

$$$$
69:0
     RDKit          3D

 37 39  0  0  0  0  0  0  0  0999 V2000
   -3.8690   25.3370  -30.6260 N   0  0  0  0  0  0  0  0  0  0  0  0
   -5.2710   25.1320  -30.4740 C   0  0  0  0  0  0  0  0  0  0  0  0
   -5.9700   26.0200  -29.9170 O   0  0  0  0  0  0  0  0  0  0  0  0
   -5.9180   23.8910  -30.9570 C   0  0  0  0  0  0  0  0  0  0  0  0
   -7.2970   23.7440  -31.1190 C   0  0  0  0  0  0  0  0  0  0  0  0
   -7.4810   22.4530  -31.5640 C   0  0  0  0  0  0  0  0  0  0  0  0
   -8.6410   21.7850  -31.9330 C   0  0  0  0  0  0  0  0  0  0  0  0
   -8.5290   20.4600  -32.3930 C   0  0  0  0  0  0  0  0  0  0  0  0
   -7.2590   19.8310  -32.4660 C   0  0  0  0  0  0  0  0  0  0  0  0
   -7.1390   18.4350  -33.0100 C   0  0  0  0  0  0  0  0  0  0  0  0
   -5.8320   18.2720  -33.7840 C   0  0  0  0  0  0  0  0  0  0  0  0
   -6.0330   18.5820  -35.1180 F   0  0  0  0  0  0  0  0  0  0  0  0
   -6.0990   20.5450  -32.0920 C   0  0  0  0  0  0  0  0  0  0  0  0
   -6.2450   21.8620  -31.6460 C   0  0  0  0  0  0  0  0  0  0  0  0
   -5.2760   22.7300  -31.2850 N   0  0  0  0  0  0  0  0  0  0  0  0
   -3.8720   22.4530  -31.2440 C   0  0  0  0  0  0  0  0  0  0  0  0
   -3.2110   22.4180  -32.3180 O   0  0  0  0  0  0  0  0  0  0  0  0
   -3.1790   22.2510  -29.9340 C   0  0  0  0  0  0  0  0  0  0  0  0
   -1.9410   23.1570  -29.8550 C   0  0  2  0  0  0  0  0  0  0  0  0
   -1.0980   22.9740  -28.5890 C   0  0  0  0  0  0  0  0  0  0  0  0
   -1.9390   24.2230  -28.7680 C   0  0  0  0  0  0  0  0  0  0  0  0
   -1.2200   25.3670  -29.0510 F   0  0  0  0  0  0  0  0  0  0  0  0
   -3.0460   24.3090  -27.9460 F   0  0  0  0  0  0  0  0  0  0  0  0
   -3.4950   26.0460  -31.3000 H   0  0  0  0  0  0  0  0  0  0  0  0
   -8.0735   24.5001  -30.9309 H   0  0  0  0  0  0  0  0  0  0  0  0
   -9.6218   22.2787  -31.8674 H   0  0  0  0  0  0  0  0  0  0  0  0
   -9.4308   19.9087  -32.6977 H   0  0  0  0  0  0  0  0  0  0  0  0
   -7.1571   17.7186  -32.1754 H   0  0  0  0  0  0  0  0  0  0  0  0
   -7.9815   18.2454  -33.6913 H   0  0  0  0  0  0  0  0  0  0  0  0
   -5.0722   18.9469  -33.3631 H   0  0  0  0  0  0  0  0  0  0  0  0
   -5.4898   17.2298  -33.7018 H   0  0  0  0  0  0  0  0  0  0  0  0
   -5.1055   20.0765  -32.1502 H   0  0  0  0  0  0  0  0  0  0  0  0
   -3.8679   22.5018  -29.1139 H   0  0  0  0  0  0  0  0  0  0  0  0
   -2.8661   21.2001  -29.8470 H   0  0  0  0  0  0  0  0  0  0  0  0
   -1.7558   23.1636  -30.9393 H   0  0  0  0  0  0  0  0  0  0  0  0
   -1.3849   22.2200  -27.8412 H   0  0  0  0  0  0  0  0  0  0  0  0
   -0.0362   22.7736  -28.3833 H   0  0  0  0  0  0  0  0  0  0  0  0
  1  2  1  0
  2  3  2  0
  2  4  1  0
  4  5  2  0
  5  6  1  0
  6  7  2  0
  7  8  1  0
  8  9  2  0
  9 10  1  0
 10 11  1  0
 11 12  1  0
  9 13  1  0
 13 14  2  0
 14 15  1  0
 15 16  1  0
 16 17  2  0
 16 18  1  0
 18 19  1  0
 19 20  1  0
 20 21  1  0
 21 22  1  0
 21 23  1  0
 15  4  1  0
 21 19  1  0
 14  6  1  0
  1 24  1  0
  5 25  1  0
  7 26  1  0
  8 27  1  0
 10 28  1  0
 10 29  1  0
 11 30  1  0
 11 31  1  0
 13 32  1  0
 18 33  1  0
 18 34  1  0
 19 35  1  6
 20 36  1  0
 20 37  1  0
M  CHG  1   1  -1
M  END
>  <UniqueID>  (68) 
66

>  <SMILES>  (68) 
[NH-]C(=O)c1cc2ccc(CCF)cc2n1C(=O)C[C@@H]1CC1(F)F

>  <Energy>  (68) 
342.6468472015973

>  <Genealogy>  (68) 
[NH-]C(=O)c1cc2ccc(CCF)cc2n1C(=O)CC1CC1(F)F (protonated)
[NH-]C(=O)c1cc2ccc(CCF)cc2n1C(=O)C[C@@H]1CC1(F)F (chirality)
[NH-]C(=O)c1cc2ccc(CCF)cc2n1C(=O)C[C@@H]1CC1(F)F (3D coordinates assigned)
[NH-]C(=O)c1cc2ccc(CCF)cc2n1C(=O)C[C@@H]1CC1(F)F (nonaromatic ring conformer: 342.6468472015973 kcal/mol)

>  <smiles>  (68) 
NC(=O)c1cc2ccc(CCF)cc2n1C(=O)CC1CC1(F)F

>  <score_type>  (68) 
oracle

>  <origin>  (68) 
adg

>  <m_score__min__energy>  (68) 
-10.27

>  <m_primary>  (68) 
energy

$$$$
70:0
     RDKit          3D

 43 45  0  0  0  0  0  0  0  0999 V2000
   -3.9300   23.0880  -28.0770 C   0  0  0  0  0  0  0  0  0  0  0  0
   -2.7420   22.5910  -28.9150 C   0  0  0  0  0  0  0  0  0  0  0  0
   -2.8180   21.0570  -29.0270 C   0  0  0  0  0  0  0  0  0  0  0  0
   -1.4330   23.0240  -28.2280 C   0  0  0  0  0  0  0  0  0  0  0  0
   -2.8570   23.1980  -30.2100 O   0  0  0  0  0  0  0  0  0  0  0  0
   -3.5850   22.7000  -31.3020 C   0  0  0  0  0  0  0  0  0  0  0  0
   -3.0020   22.1330  -32.2640 O   0  0  0  0  0  0  0  0  0  0  0  0
   -5.0100   22.8710  -31.3320 N   0  0  0  0  0  0  0  0  0  0  0  0
   -5.7370   23.9430  -30.9060 C   0  0  0  0  0  0  0  0  0  0  0  0
   -5.1920   25.2410  -30.4580 C   0  0  0  0  0  0  0  0  0  0  0  0
   -3.8860   25.6610  -30.8450 N   0  0  0  0  0  0  0  0  0  0  0  0
   -5.9070   26.0120  -29.7640 O   0  0  0  0  0  0  0  0  0  0  0  0
   -7.1010   23.6850  -31.0260 C   0  0  0  0  0  0  0  0  0  0  0  0
   -7.1880   22.4160  -31.5530 C   0  0  0  0  0  0  0  0  0  0  0  0
   -8.3080   21.6520  -31.8720 C   0  0  0  0  0  0  0  0  0  0  0  0
   -8.1000   20.3580  -32.3790 C   0  0  0  0  0  0  0  0  0  0  0  0
   -6.7880   19.8570  -32.5480 C   0  0  0  0  0  0  0  0  0  0  0  0
   -6.5870   18.5370  -33.0550 N   0  0  0  0  0  0  0  0  0  0  0  0
   -6.8130   17.1490  -32.6070 C   0  0  0  0  0  0  0  0  0  0  0  0
   -6.2790   16.5020  -33.8410 C   0  0  0  0  0  0  0  0  0  0  0  0
   -7.2380   15.8300  -34.5800 F   0  0  0  0  0  0  0  0  0  0  0  0
   -5.1110   15.7870  -33.6380 F   0  0  0  0  0  0  0  0  0  0  0  0
   -6.0550   17.9100  -34.2810 C   0  0  0  0  0  0  0  0  0  0  0  0
   -5.6770   20.6560  -32.2130 C   0  0  0  0  0  0  0  0  0  0  0  0
   -5.9120   21.9480  -31.7290 C   0  0  0  0  0  0  0  0  0  0  0  0
   -3.6917   22.9883  -27.0078 H   0  0  0  0  0  0  0  0  0  0  0  0
   -4.1278   24.1443  -28.3116 H   0  0  0  0  0  0  0  0  0  0  0  0
   -4.8211   22.4872  -28.3116 H   0  0  0  0  0  0  0  0  0  0  0  0
   -2.8398   20.6164  -28.0193 H   0  0  0  0  0  0  0  0  0  0  0  0
   -3.7313   20.7739  -29.5708 H   0  0  0  0  0  0  0  0  0  0  0  0
   -1.9372   20.6850  -29.5708 H   0  0  0  0  0  0  0  0  0  0  0  0
   -1.5605   22.9818  -27.1362 H   0  0  0  0  0  0  0  0  0  0  0  0
   -0.6198   22.3470  -28.5286 H   0  0  0  0  0  0  0  0  0  0  0  0
   -1.1839   24.0524  -28.5286 H   0  0  0  0  0  0  0  0  0  0  0  0
   -3.0380   25.2970  -30.3550 H   0  0  0  0  0  0  0  0  0  0  0  0
   -7.9321   24.3534  -30.7568 H   0  0  0  0  0  0  0  0  0  0  0  0
   -9.3241   22.0493  -31.7314 H   0  0  0  0  0  0  0  0  0  0  0  0
   -8.9631   19.7306  -32.6462 H   0  0  0  0  0  0  0  0  0  0  0  0
   -6.2341   16.8926  -31.7075 H   0  0  0  0  0  0  0  0  0  0  0  0
   -7.8341   16.8796  -32.2991 H   0  0  0  0  0  0  0  0  0  0  0  0
   -4.9925   18.1393  -34.4496 H   0  0  0  0  0  0  0  0  0  0  0  0
   -6.5033   18.2156  -35.2379 H   0  0  0  0  0  0  0  0  0  0  0  0
   -4.6518   20.2744  -32.3288 H   0  0  0  0  0  0  0  0  0  0  0  0
  1  2  1  0
  2  3  1  0
  2  4  1  0
  2  5  1  0
  5  6  1  0
  6  7  2  0
  6  8  1  0
  8  9  1  0
  9 10  1  0
 10 11  1  0
 10 12  2  0
  9 13  2  0
 13 14  1  0
 14 15  2  0
 15 16  1  0
 16 17  2  0
 17 18  1  0
 18 19  1  0
 19 20  1  0
 20 21  1  0
 20 22  1  0
 20 23  1  0
 17 24  1  0
 24 25  2  0
 25  8  1  0
 25 14  1  0
 23 18  1  0
  1 26  1  0
  1 27  1  0
  1 28  1  0
  3 29  1  0
  3 30  1  0
  3 31  1  0
  4 32  1  0
  4 33  1  0
  4 34  1  0
 11 35  1  0
 13 36  1  0
 15 37  1  0
 16 38  1  0
 19 39  1  0
 19 40  1  0
 23 41  1  0
 23 42  1  0
 24 43  1  0
M  CHG  1  11  -1
M  END
>  <UniqueID>  (69) 
67

>  <SMILES>  (69) 
CC(C)(C)OC(=O)n1c(C([NH-])=O)cc2ccc(N3CC(F)(F)C3)cc21

>  <Energy>  (69) 
122.89789291630666

>  <Genealogy>  (69) 
CC(C)(C)OC(=O)n1c(C([NH-])=O)cc2ccc(N3CC(F)(F)C3)cc21 (protonated)
CC(C)(C)OC(=O)n1c(C([NH-])=O)cc2ccc(N3CC(F)(F)C3)cc21 (3D coordinates assigned)
CC(C)(C)OC(=O)n1c(C([NH-])=O)cc2ccc(N3CC(F)(F)C3)cc21 (nonaromatic ring conformer: 122.89789291630666 kcal/mol)

>  <smiles>  (69) 
CC(C)(C)OC(=O)n1c(C(N)=O)cc2ccc(N3CC(F)(F)C3)cc21

>  <score_type>  (69) 
oracle

>  <origin>  (69) 
adg

>  <m_score__min__energy>  (69) 
-10.380000000000001

>  <m_primary>  (69) 
energy

$$$$
71:0
     RDKit          3D

 51 53  0  0  0  0  0  0  0  0999 V2000
   -9.4840   19.4080  -32.5590 C   0  0  0  0  0  0  0  0  0  0  0  0
   -8.0290   19.6650  -32.3030 C   0  0  0  0  0  0  0  0  0  0  0  0
   -7.2090   18.7200  -32.4690 O   0  0  0  0  0  0  0  0  0  0  0  0
   -7.5540   20.9630  -31.8920 N   0  0  0  0  0  0  0  0  0  0  0  0
   -6.2300   21.0850  -31.2670 C   0  0  0  0  0  0  0  0  0  0  0  0
   -6.1840   22.3150  -30.3580 C   0  0  0  0  0  0  0  0  0  0  0  0
   -6.4990   23.5430  -31.1170 N   0  0  0  0  0  0  0  0  0  0  0  0
   -6.5330   24.7800  -30.3020 C   0  0  0  0  0  0  0  0  0  0  0  0
   -5.4100   25.7890  -30.6110 C   0  0  0  0  0  0  0  0  0  0  0  0
   -4.1340   25.1560  -30.6430 O   0  0  0  0  0  0  0  0  0  0  0  0
   -3.6820   24.2690  -29.6590 C   0  0  0  0  0  0  0  0  0  0  0  0
   -4.3450   24.1080  -28.5990 O   0  0  0  0  0  0  0  0  0  0  0  0
   -2.4640   23.5330  -29.8700 N   0  0  0  0  0  0  0  0  0  0  0  0
   -1.2600   23.7280  -29.2600 C   0  0  0  0  0  0  0  0  0  0  0  0
   -0.9870   24.6920  -28.1720 C   0  0  0  0  0  0  0  0  0  0  0  0
   -2.0620   25.3320  -27.4810 N   0  0  0  0  0  0  0  0  0  0  0  0
    0.1990   24.9880  -27.8680 O   0  0  0  0  0  0  0  0  0  0  0  0
   -0.3280   22.7950  -29.7100 C   0  0  0  0  0  0  0  0  0  0  0  0
   -1.0060   22.0070  -30.6090 C   0  0  0  0  0  0  0  0  0  0  0  0
   -0.5740   20.8930  -31.3210 C   0  0  0  0  0  0  0  0  0  0  0  0
   -1.4980   20.2470  -32.1600 C   0  0  0  0  0  0  0  0  0  0  0  0
   -2.8200   20.7400  -32.2960 C   0  0  0  0  0  0  0  0  0  0  0  0
   -3.8200   20.0080  -33.1540 C   0  0  0  0  0  0  0  0  0  0  0  0
   -4.4760   19.0380  -32.4170 F   0  0  0  0  0  0  0  0  0  0  0  0
   -4.7680   20.8820  -33.6590 F   0  0  0  0  0  0  0  0  0  0  0  0
   -3.1590   19.4040  -34.2070 F   0  0  0  0  0  0  0  0  0  0  0  0
   -3.2250   21.8660  -31.5420 C   0  0  0  0  0  0  0  0  0  0  0  0
   -2.2910   22.4750  -30.6940 C   0  0  0  0  0  0  0  0  0  0  0  0
   -7.5860   23.4260  -32.1230 C   0  0  0  0  0  0  0  0  0  0  0  0
   -8.4220   22.1460  -31.9750 C   0  0  0  0  0  0  0  0  0  0  0  0
  -10.0141   19.3144  -31.5997 H   0  0  0  0  0  0  0  0  0  0  0  0
   -9.9088   20.2450  -33.1325 H   0  0  0  0  0  0  0  0  0  0  0  0
   -9.5964   18.4761  -33.1325 H   0  0  0  0  0  0  0  0  0  0  0  0
   -6.0262   20.1842  -30.6695 H   0  0  0  0  0  0  0  0  0  0  0  0
   -5.4705   21.1936  -32.0553 H   0  0  0  0  0  0  0  0  0  0  0  0
   -6.9194   22.1929  -29.5491 H   0  0  0  0  0  0  0  0  0  0  0  0
   -5.1693   22.4083  -29.9436 H   0  0  0  0  0  0  0  0  0  0  0  0
   -7.4981   25.2782  -30.4764 H   0  0  0  0  0  0  0  0  0  0  0  0
   -6.3886   24.4665  -29.2575 H   0  0  0  0  0  0  0  0  0  0  0  0
   -5.6043   26.2514  -31.5900 H   0  0  0  0  0  0  0  0  0  0  0  0
   -5.3991   26.5480  -29.8148 H   0  0  0  0  0  0  0  0  0  0  0  0
   -1.8620   26.0410  -26.7420 H   0  0  0  0  0  0  0  0  0  0  0  0
   -3.0550   25.0760  -27.6730 H   0  0  0  0  0  0  0  0  0  0  0  0
    0.7265   22.7077  -29.4095 H   0  0  0  0  0  0  0  0  0  0  0  0
    0.4599   20.5285  -31.2301 H   0  0  0  0  0  0  0  0  0  0  0  0
   -1.1921   19.3492  -32.7171 H   0  0  0  0  0  0  0  0  0  0  0  0
   -4.2510   22.2550  -31.6198 H   0  0  0  0  0  0  0  0  0  0  0  0
   -8.2545   24.2929  -32.0158 H   0  0  0  0  0  0  0  0  0  0  0  0
   -7.1081   23.3879  -33.1130 H   0  0  0  0  0  0  0  0  0  0  0  0
   -9.0272   22.2143  -31.0590 H   0  0  0  0  0  0  0  0  0  0  0  0
   -9.0722   22.0454  -32.8566 H   0  0  0  0  0  0  0  0  0  0  0  0
  1  2  1  0
  2  3  2  0
  2  4  1  0
  4  5  1  0
  5  6  1  0
  6  7  1  0
  7  8  1  0
  8  9  1  0
  9 10  1  0
 10 11  1  0
 11 12  2  0
 11 13  1  0
 13 14  1  0
 14 15  1  0
 15 16  1  0
 15 17  2  0
 14 18  2  0
 18 19  1  0
 19 20  2  0
 20 21  1  0
 21 22  2  0
 22 23  1  0
 23 24  1  0
 23 25  1  0
 23 26  1  0
 22 27  1  0
 27 28  2  0
  7 29  1  0
 29 30  1  0
 30  4  1  0
 28 13  1  0
 28 19  1  0
  1 31  1  0
  1 32  1  0
  1 33  1  0
  5 34  1  0
  5 35  1  0
  6 36  1  0
  6 37  1  0
  8 38  1  0
  8 39  1  0
  9 40  1  0
  9 41  1  0
 16 42  1  0
 16 43  1  0
 18 44  1  0
 20 45  1  0
 21 46  1  0
 27 47  1  0
 29 48  1  0
 29 49  1  0
 30 50  1  0
 30 51  1  0
M  END
>  <UniqueID>  (70) 
68

>  <SMILES>  (70) 
CC(=O)N1CCN(CCOC(=O)n2c(C(N)=O)cc3ccc(C(F)(F)F)cc32)CC1

>  <Energy>  (70) 
95.98443110847982

>  <Genealogy>  (70) 
CC(=O)N1CCN(CCOC(=O)n2c(C(N)=O)cc3ccc(C(F)(F)F)cc32)CC1 (3D coordinates assigned)
CC(=O)N1CCN(CCOC(=O)n2c(C(N)=O)cc3ccc(C(F)(F)F)cc32)CC1 (nonaromatic ring conformer: 95.98443110847982 kcal/mol)

>  <smiles>  (70) 
CC(=O)N1CCN(CCOC(=O)n2c(C(N)=O)cc3ccc(C(F)(F)F)cc32)CC1

>  <score_type>  (70) 
oracle

>  <origin>  (70) 
adg

>  <m_score__min__energy>  (70) 
-9.4299999999999997

>  <m_primary>  (70) 
energy

$$$$
72:0
     RDKit          3D

 31 32  0  0  0  0  0  0  0  0999 V2000
   -9.0330   22.5790  -31.9560 C   0  0  0  0  0  0  0  0  0  0  0  0
   -9.1510   21.1680  -31.8180 O   0  0  0  0  0  0  0  0  0  0  0  0
   -8.1600   20.2850  -32.2590 C   0  0  0  0  0  0  0  0  0  0  0  0
   -8.1630   19.0780  -31.8900 O   0  0  0  0  0  0  0  0  0  0  0  0
   -7.0600   20.7910  -33.1340 C   0  0  0  0  0  0  0  0  0  0  0  0
   -5.7970   20.9460  -32.3350 C   0  0  0  0  0  0  0  0  0  0  0  0
   -4.8630   19.8830  -32.2740 C   0  0  0  0  0  0  0  0  0  0  0  0
   -3.6550   20.0320  -31.5700 C   0  0  0  0  0  0  0  0  0  0  0  0
   -3.4120   21.2490  -30.9410 C   0  0  0  0  0  0  0  0  0  0  0  0
   -2.3120   21.6710  -30.2320 C   0  0  0  0  0  0  0  0  0  0  0  0
   -2.6000   22.9790  -29.8520 C   0  0  0  0  0  0  0  0  0  0  0  0
   -1.7000   23.7970  -29.0150 C   0  0  0  0  0  0  0  0  0  0  0  0
   -1.4780   25.1790  -29.3010 N   0  0  0  0  0  0  0  0  0  0  0  0
   -1.1630   23.2830  -27.9980 O   0  0  0  0  0  0  0  0  0  0  0  0
   -3.8230   23.3600  -30.3200 N   0  0  0  0  0  0  0  0  0  0  0  0
   -4.4230   24.6650  -30.2390 C   0  0  0  0  0  0  0  0  0  0  0  0
   -3.8800   25.6510  -30.8020 O   0  0  0  0  0  0  0  0  0  0  0  0
   -5.6080   24.8520  -29.5390 O   0  0  0  0  0  0  0  0  0  0  0  0
   -4.3100   22.2870  -30.9820 C   0  0  0  0  0  0  0  0  0  0  0  0
   -5.5110   22.1720  -31.6950 C   0  0  0  0  0  0  0  0  0  0  0  0
   -8.9942   23.0429  -30.9594 H   0  0  0  0  0  0  0  0  0  0  0  0
   -8.1118   22.8177  -32.5077 H   0  0  0  0  0  0  0  0  0  0  0  0
   -9.9018   22.9674  -32.5077 H   0  0  0  0  0  0  0  0  0  0  0  0
   -6.8878   20.0765  -33.9524 H   0  0  0  0  0  0  0  0  0  0  0  0
   -7.3482   21.7691  -33.5467 H   0  0  0  0  0  0  0  0  0  0  0  0
   -5.0846   18.9327  -32.7817 H   0  0  0  0  0  0  0  0  0  0  0  0
   -2.9243   19.2114  -31.5181 H   0  0  0  0  0  0  0  0  0  0  0  0
   -1.3994   21.0976  -30.0120 H   0  0  0  0  0  0  0  0  0  0  0  0
   -2.0360   25.6750  -30.0290 H   0  0  0  0  0  0  0  0  0  0  0  0
   -0.8090   25.7330  -28.7210 H   0  0  0  0  0  0  0  0  0  0  0  0
   -6.2138   23.0161  -31.7547 H   0  0  0  0  0  0  0  0  0  0  0  0
  1  2  1  0
  2  3  1  0
  3  4  2  0
  3  5  1  0
  5  6  1  0
  6  7  2  0
  7  8  1  0
  8  9  2  0
  9 10  1  0
 10 11  2  0
 11 12  1  0
 12 13  1  0
 12 14  2  0
 11 15  1  0
 15 16  1  0
 16 17  2  0
 16 18  1  0
 15 19  1  0
 19 20  2  0
 20  6  1  0
 19  9  1  0
  1 21  1  0
  1 22  1  0
  1 23  1  0
  5 24  1  0
  5 25  1  0
  7 26  1  0
  8 27  1  0
 10 28  1  0
 13 29  1  0
 13 30  1  0
 20 31  1  0
M  CHG  1  18  -1
M  END
>  <UniqueID>  (71) 
69

>  <SMILES>  (71) 
COC(=O)Cc1ccc2cc(C(N)=O)n(C(=O)[O-])c2c1

>  <Energy>  (71) 
67.23555760630947

>  <Genealogy>  (71) 
COC(=O)Cc1ccc2cc(C(N)=O)n(C(=O)[O-])c2c1 (protonated)
COC(=O)Cc1ccc2cc(C(N)=O)n(C(=O)[O-])c2c1 (3D coordinates assigned)
COC(=O)Cc1ccc2cc(C(N)=O)n(C(=O)[O-])c2c1 (optimized conformer: 67.23555760630947 kcal/mol)

>  <smiles>  (71) 
COC(=O)Cc1ccc2cc(C(N)=O)n(C(=O)O)c2c1

>  <score_type>  (71) 
oracle

>  <origin>  (71) 
adg

>  <m_score__min__energy>  (71) 
-8.4000000000000004

>  <m_primary>  (71) 
energy

$$$$
73:0
     RDKit          3D

 44 46  0  0  0  0  0  0  0  0999 V2000
   -4.1390   17.0420  -34.6150 C   0  0  0  0  0  0  0  0  0  0  0  0
   -5.2040   17.1580  -33.6120 N   0  0  0  0  0  0  0  0  0  0  0  0
   -5.2680   16.2020  -32.5010 C   0  0  0  0  0  0  0  0  0  0  0  0
   -6.1730   18.2230  -33.7460 C   0  0  0  0  0  0  0  0  0  0  0  0
   -6.0940   19.0170  -34.7240 O   0  0  0  0  0  0  0  0  0  0  0  0
   -7.3100   18.4090  -32.7730 C   0  0  0  0  0  0  0  0  0  0  0  0
   -7.3920   19.8400  -32.3100 C   0  0  0  0  0  0  0  0  0  0  0  0
   -8.6260   20.5350  -32.3680 C   0  0  0  0  0  0  0  0  0  0  0  0
   -8.7130   21.8760  -31.9560 C   0  0  0  0  0  0  0  0  0  0  0  0
   -7.5580   22.4890  -31.4800 C   0  0  0  0  0  0  0  0  0  0  0  0
   -7.3510   23.7830  -31.0560 C   0  0  0  0  0  0  0  0  0  0  0  0
   -6.0030   23.8450  -30.7130 C   0  0  0  0  0  0  0  0  0  0  0  0
   -5.3570   25.0540  -30.1640 C   0  0  0  0  0  0  0  0  0  0  0  0
   -3.9350   25.1660  -30.0860 N   0  0  0  0  0  0  0  0  0  0  0  0
   -6.0730   25.9850  -29.7090 O   0  0  0  0  0  0  0  0  0  0  0  0
   -5.3970   22.6430  -30.9230 N   0  0  0  0  0  0  0  0  0  0  0  0
   -4.0050   22.3240  -30.7860 C   0  0  0  0  0  0  0  0  0  0  0  0
   -3.1810   22.7070  -31.6620 O   0  0  0  0  0  0  0  0  0  0  0  0
   -3.5530   21.5750  -29.6530 N   0  0  0  0  0  0  0  0  0  0  0  0
   -2.2830   21.8130  -28.9820 C   0  0  0  0  0  0  0  0  0  0  0  0
   -2.0640   23.2830  -28.8170 C   0  0  0  0  0  0  0  0  0  0  0  0
   -2.5450   24.0840  -27.8090 C   0  0  0  0  0  0  0  0  0  0  0  0
   -2.1760   25.3450  -28.0950 N   0  0  0  0  0  0  0  0  0  0  0  0
   -1.5070   25.3010  -29.2380 N   0  0  0  0  0  0  0  0  0  0  0  0
   -1.4280   24.0650  -29.7050 N   0  0  0  0  0  0  0  0  0  0  0  0
   -6.3620   21.8230  -31.3960 C   0  0  0  0  0  0  0  0  0  0  0  0
   -6.2390   20.5000  -31.8320 C   0  0  0  0  0  0  0  0  0  0  0  0
   -3.1683   16.9363  -34.1085 H   0  0  0  0  0  0  0  0  0  0  0  0
   -4.3225   16.1585  -35.2441 H   0  0  0  0  0  0  0  0  0  0  0  0
   -4.1280   17.9443  -35.2441 H   0  0  0  0  0  0  0  0  0  0  0  0
   -5.2315   16.7467  -31.5460 H   0  0  0  0  0  0  0  0  0  0  0  0
   -6.2064   15.6313  -32.5620 H   0  0  0  0  0  0  0  0  0  0  0  0
   -4.4141   15.5113  -32.5620 H   0  0  0  0  0  0  0  0  0  0  0  0
   -8.2545   18.1352  -33.2660 H   0  0  0  0  0  0  0  0  0  0  0  0
   -7.1330   17.7660  -31.8982 H   0  0  0  0  0  0  0  0  0  0  0  0
   -9.5243   20.0199  -32.7391 H   0  0  0  0  0  0  0  0  0  0  0  0
   -9.6652   22.4243  -32.0083 H   0  0  0  0  0  0  0  0  0  0  0  0
   -8.0921   24.5940  -31.0003 H   0  0  0  0  0  0  0  0  0  0  0  0
   -3.3160   24.3480  -30.2810 H   0  0  0  0  0  0  0  0  0  0  0  0
   -3.4980   26.0490  -29.7400 H   0  0  0  0  0  0  0  0  0  0  0  0
   -2.2973   21.3327  -27.9925 H   0  0  0  0  0  0  0  0  0  0  0  0
   -1.4678   21.3905  -29.5877 H   0  0  0  0  0  0  0  0  0  0  0  0
   -3.1232   23.7553  -26.9329 H   0  0  0  0  0  0  0  0  0  0  0  0
   -5.2670   19.9857  -31.8032 H   0  0  0  0  0  0  0  0  0  0  0  0
  1  2  1  0
  2  3  1  0
  2  4  1  0
  4  5  2  0
  4  6  1  0
  6  7  1  0
  7  8  2  0
  8  9  1  0
  9 10  2  0
 10 11  1  0
 11 12  2  0
 12 13  1  0
 13 14  1  0
 13 15  2  0
 12 16  1  0
 16 17  1  0
 17 18  2  0
 17 19  1  0
 19 20  1  0
 20 21  1  0
 21 22  1  0
 22 23  2  0
 23 24  1  0
 24 25  1  0
 16 26  1  0
 26 27  2  0
 27  7  1  0
 26 10  1  0
 25 21  2  0
  1 28  1  0
  1 29  1  0
  1 30  1  0
  3 31  1  0
  3 32  1  0
  3 33  1  0
  6 34  1  0
  6 35  1  0
  8 36  1  0
  9 37  1  0
 11 38  1  0
 14 39  1  0
 14 40  1  0
 20 41  1  0
 20 42  1  0
 22 43  1  0
 27 44  1  0
M  CHG  2  19  -1  24  -1
M  END
>  <UniqueID>  (72) 
70

>  <SMILES>  (72) 
CN(C)C(=O)Cc1ccc2cc(C(N)=O)n(C(=O)[N-]Cc3cn[n-]n3)c2c1

>  <Energy>  (72) 
112.47906994586019

>  <Genealogy>  (72) 
CN(C)C(=O)Cc1ccc2cc(C(N)=O)n(C(=O)[N-]Cc3cn[n-]n3)c2c1 (protonated)
CN(C)C(=O)Cc1ccc2cc(C(N)=O)n(C(=O)[N-]Cc3cn[n-]n3)c2c1 (3D coordinates assigned)
CN(C)C(=O)Cc1ccc2cc(C(N)=O)n(C(=O)[N-]Cc3cn[n-]n3)c2c1 (optimized conformer: 112.47906994586019 kcal/mol)

>  <smiles>  (72) 
CN(C)C(=O)Cc1ccc2cc(C(N)=O)n(C(=O)NCc3cn[nH]n3)c2c1

>  <score_type>  (72) 
oracle

>  <origin>  (72) 
adg

>  <m_score__min__energy>  (72) 
-12.32

>  <m_primary>  (72) 
energy

$$$$
74:0
     RDKit          3D

 41 42  0  0  0  0  0  0  0  0999 V2000
   -2.8880   20.1850  -33.8200 C   0  0  0  0  0  0  0  0  0  0  0  0
   -3.1020   18.6810  -33.7570 C   0  0  0  0  0  0  0  0  0  0  0  0
   -4.0370   18.2940  -34.7570 O   0  0  0  0  0  0  0  0  0  0  0  0
   -5.4190   18.3350  -34.5600 C   0  0  0  0  0  0  0  0  0  0  0  0
   -6.1410   19.1390  -35.2110 O   0  0  0  0  0  0  0  0  0  0  0  0
   -6.0510   17.3570  -33.6170 C   0  0  0  0  0  0  0  0  0  0  0  0
   -5.9770   17.8490  -32.1650 C   0  0  0  0  0  0  0  0  0  0  0  0
   -6.3800   19.2980  -32.0450 C   0  0  0  0  0  0  0  0  0  0  0  0
   -7.7100   19.6950  -32.3390 C   0  0  0  0  0  0  0  0  0  0  0  0
   -8.1140   21.0300  -32.1660 C   0  0  0  0  0  0  0  0  0  0  0  0
   -7.1730   21.9390  -31.6920 C   0  0  0  0  0  0  0  0  0  0  0  0
   -7.2910   23.2880  -31.4340 C   0  0  0  0  0  0  0  0  0  0  0  0
   -6.0360   23.6860  -30.9730 C   0  0  0  0  0  0  0  0  0  0  0  0
   -5.7270   25.0530  -30.5060 C   0  0  0  0  0  0  0  0  0  0  0  0
   -4.4830   25.6580  -30.8520 N   0  0  0  0  0  0  0  0  0  0  0  0
   -6.5600   25.7030  -29.8220 O   0  0  0  0  0  0  0  0  0  0  0  0
   -5.1800   22.6260  -30.9540 N   0  0  0  0  0  0  0  0  0  0  0  0
   -3.7930   22.6190  -30.5930 C   0  0  0  0  0  0  0  0  0  0  0  0
   -2.9330   22.2150  -31.4230 O   0  0  0  0  0  0  0  0  0  0  0  0
   -3.3460   23.1890  -29.2830 C   0  0  0  0  0  0  0  0  0  0  0  0
   -2.1170   24.0160  -29.4850 C   0  0  0  0  0  0  0  0  0  0  0  0
   -2.1700   25.2690  -29.3710 O   0  0  0  0  0  0  0  0  0  0  0  0
   -0.9030   23.4000  -29.7590 O   0  0  0  0  0  0  0  0  0  0  0  0
   -5.8890   21.5670  -31.3920 C   0  0  0  0  0  0  0  0  0  0  0  0
   -5.4540   20.2490  -31.5620 C   0  0  0  0  0  0  0  0  0  0  0  0
   -2.8303   20.5902  -32.7990 H   0  0  0  0  0  0  0  0  0  0  0  0
   -1.9502   20.3999  -34.3533 H   0  0  0  0  0  0  0  0  0  0  0  0
   -3.7286   20.6529  -34.3533 H   0  0  0  0  0  0  0  0  0  0  0  0
   -2.1453   18.1667  -33.9305 H   0  0  0  0  0  0  0  0  0  0  0  0
   -3.4905   18.4066  -32.7651 H   0  0  0  0  0  0  0  0  0  0  0  0
   -7.1066   17.2225  -33.8957 H   0  0  0  0  0  0  0  0  0  0  0  0
   -5.5036   16.4055  -33.6878 H   0  0  0  0  0  0  0  0  0  0  0  0
   -6.6523   17.2389  -31.5471 H   0  0  0  0  0  0  0  0  0  0  0  0
   -4.9357   17.7535  -31.8235 H   0  0  0  0  0  0  0  0  0  0  0  0
   -8.4320   18.9507  -32.7059 H   0  0  0  0  0  0  0  0  0  0  0  0
   -9.1417   21.3463  -32.3980 H   0  0  0  0  0  0  0  0  0  0  0  0
   -8.1843   23.9166  -31.5639 H   0  0  0  0  0  0  0  0  0  0  0  0
   -3.8550   26.0510  -30.1170 H   0  0  0  0  0  0  0  0  0  0  0  0
   -4.1459   23.8189  -28.8665 H   0  0  0  0  0  0  0  0  0  0  0  0
   -3.1214   22.3677  -28.5866 H   0  0  0  0  0  0  0  0  0  0  0  0
   -4.4190   19.9607  -31.3261 H   0  0  0  0  0  0  0  0  0  0  0  0
  1  2  1  0
  2  3  1  0
  3  4  1  0
  4  5  2  0
  4  6  1  0
  6  7  1  0
  7  8  1  0
  8  9  2  0
  9 10  1  0
 10 11  2  0
 11 12  1  0
 12 13  2  0
 13 14  1  0
 14 15  1  0
 14 16  2  0
 13 17  1  0
 17 18  1  0
 18 19  2  0
 18 20  1  0
 20 21  1  0
 21 22  2  0
 21 23  1  0
 17 24  1  0
 24 25  2  0
 25  8  1  0
 24 11  1  0
  1 26  1  0
  1 27  1  0
  1 28  1  0
  2 29  1  0
  2 30  1  0
  6 31  1  0
  6 32  1  0
  7 33  1  0
  7 34  1  0
  9 35  1  0
 10 36  1  0
 12 37  1  0
 15 38  1  0
 20 39  1  0
 20 40  1  0
 25 41  1  0
M  CHG  2  15  -1  23  -1
M  END
>  <UniqueID>  (73) 
71

>  <SMILES>  (73) 
CCOC(=O)CCc1ccc2cc(C([NH-])=O)n(C(=O)CC(=O)[O-])c2c1

>  <Energy>  (73) 
68.29475579991288

>  <Genealogy>  (73) 
CCOC(=O)CCc1ccc2cc(C([NH-])=O)n(C(=O)CC(=O)[O-])c2c1 (protonated)
CCOC(=O)CCc1ccc2cc(C([NH-])=O)n(C(=O)CC(=O)[O-])c2c1 (3D coordinates assigned)
CCOC(=O)CCc1ccc2cc(C([NH-])=O)n(C(=O)CC(=O)[O-])c2c1 (optimized conformer: 68.29475579991288 kcal/mol)

>  <smiles>  (73) 
CCOC(=O)CCc1ccc2cc(C(N)=O)n(C(=O)CC(=O)O)c2c1

>  <score_type>  (73) 
oracle

>  <origin>  (73) 
adg

>  <m_score__min__energy>  (73) 
-11.460000000000001

>  <m_primary>  (73) 
energy

$$$$
75:0
     RDKit          3D

 49 51  0  0  0  0  0  0  0  0999 V2000
   -3.6830   17.5470  -34.6900 C   0  0  0  0  0  0  0  0  0  0  0  0
   -4.6020   18.1260  -33.6980 N   0  0  0  0  0  0  0  0  0  0  0  0
   -5.9600   18.3230  -34.2650 C   0  0  0  0  0  0  0  0  0  0  0  0
   -6.9380   17.2150  -33.8410 C   0  0  0  0  0  0  0  0  0  0  0  0
   -7.0790   17.1240  -32.3640 N   0  0  0  0  0  0  0  0  0  0  0  0
   -8.2890   17.8270  -31.8800 C   0  0  0  0  0  0  0  0  0  0  0  0
   -8.6240   19.0440  -32.7550 C   0  0  0  0  0  0  0  0  0  0  0  0
   -8.0580   20.3110  -32.1670 C   0  0  0  0  0  0  0  0  0  0  0  0
   -8.9140   21.2330  -31.5120 C   0  0  0  0  0  0  0  0  0  0  0  0
   -8.3910   22.3870  -30.9030 C   0  0  0  0  0  0  0  0  0  0  0  0
   -7.0160   22.5880  -30.9590 C   0  0  0  0  0  0  0  0  0  0  0  0
   -6.2420   23.5940  -30.4240 C   0  0  0  0  0  0  0  0  0  0  0  0
   -4.9290   23.2710  -30.7680 C   0  0  0  0  0  0  0  0  0  0  0  0
   -3.7560   24.1190  -30.4660 C   0  0  0  0  0  0  0  0  0  0  0  0
   -2.5000   23.5350  -30.1160 N   0  0  0  0  0  0  0  0  0  0  0  0
   -3.8650   25.3740  -30.4870 O   0  0  0  0  0  0  0  0  0  0  0  0
   -4.8970   22.1130  -31.4850 N   0  0  0  0  0  0  0  0  0  0  0  0
   -3.7470   21.3860  -31.9460 C   0  0  0  0  0  0  0  0  0  0  0  0
   -3.0740   20.7050  -31.1280 O   0  0  0  0  0  0  0  0  0  0  0  0
   -3.3190   21.4440  -33.3850 C   0  0  0  0  0  0  0  0  0  0  0  0
   -2.8250   20.2030  -33.8100 O   0  0  0  0  0  0  0  0  0  0  0  0
   -6.1790   21.7110  -31.5960 C   0  0  0  0  0  0  0  0  0  0  0  0
   -6.6670   20.5530  -32.2060 C   0  0  0  0  0  0  0  0  0  0  0  0
   -5.8620   17.5620  -31.6320 C   0  0  0  0  0  0  0  0  0  0  0  0
   -4.5910   17.3220  -32.4550 C   0  0  0  0  0  0  0  0  0  0  0  0
   -2.8622   17.0299  -34.1715 H   0  0  0  0  0  0  0  0  0  0  0  0
   -4.2286   16.8292  -35.3202 H   0  0  0  0  0  0  0  0  0  0  0  0
   -3.2710   18.3490  -35.3202 H   0  0  0  0  0  0  0  0  0  0  0  0
   -6.3507   19.2910  -33.9181 H   0  0  0  0  0  0  0  0  0  0  0  0
   -5.8736   18.2930  -35.3612 H   0  0  0  0  0  0  0  0  0  0  0  0
   -7.9247   17.4273  -34.2784 H   0  0  0  0  0  0  0  0  0  0  0  0
   -6.5377   16.2559  -34.2013 H   0  0  0  0  0  0  0  0  0  0  0  0
   -9.1389   17.1290  -31.8989 H   0  0  0  0  0  0  0  0  0  0  0  0
   -8.0946   18.1818  -30.8571 H   0  0  0  0  0  0  0  0  0  0  0  0
   -8.1985   18.8927  -33.7580 H   0  0  0  0  0  0  0  0  0  0  0  0
   -9.7182   19.1436  -32.8086 H   0  0  0  0  0  0  0  0  0  0  0  0
   -9.9971   21.0433  -31.4803 H   0  0  0  0  0  0  0  0  0  0  0  0
   -9.0492   23.1090  -30.3976 H   0  0  0  0  0  0  0  0  0  0  0  0
   -6.5858   24.4660  -29.8483 H   0  0  0  0  0  0  0  0  0  0  0  0
   -2.3570   22.5010  -30.1410 H   0  0  0  0  0  0  0  0  0  0  0  0
   -1.6900   24.1440  -29.8670 H   0  0  0  0  0  0  0  0  0  0  0  0
   -4.1833   21.7198  -34.0070 H   0  0  0  0  0  0  0  0  0  0  0  0
   -2.5197   22.1932  -33.4842 H   0  0  0  0  0  0  0  0  0  0  0  0
   -3.0570   19.5480  -33.1000 H   0  0  0  0  0  0  0  0  0  0  0  0
   -5.9855   19.8476  -32.7040 H   0  0  0  0  0  0  0  0  0  0  0  0
   -5.9461   18.6361  -31.4103 H   0  0  0  0  0  0  0  0  0  0  0  0
   -5.7878   16.9740  -30.7053 H   0  0  0  0  0  0  0  0  0  0  0  0
   -3.7145   17.6032  -31.8528 H   0  0  0  0  0  0  0  0  0  0  0  0
   -4.5468   16.2572  -32.7276 H   0  0  0  0  0  0  0  0  0  0  0  0
  1  2  1  0
  2  3  1  0
  3  4  1  0
  4  5  1  0
  5  6  1  0
  6  7  1  0
  7  8  1  0
  8  9  2  0
  9 10  1  0
 10 11  2  0
 11 12  1  0
 12 13  2  0
 13 14  1  0
 14 15  1  0
 14 16  2  0
 13 17  1  0
 17 18  1  0
 18 19  2  0
 18 20  1  0
 20 21  1  0
 17 22  1  0
 22 23  2  0
  5 24  1  0
 24 25  1  0
 25  2  1  0
 23  8  1  0
 22 11  1  0
  1 26  1  0
  1 27  1  0
  1 28  1  0
  3 29  1  0
  3 30  1  0
  4 31  1  0
  4 32  1  0
  6 33  1  0
  6 34  1  0
  7 35  1  0
  7 36  1  0
  9 37  1  0
 10 38  1  0
 12 39  1  0
 15 40  1  0
 15 41  1  0
 20 42  1  0
 20 43  1  0
 21 44  1  0
 23 45  1  0
 24 46  1  0
 24 47  1  0
 25 48  1  0
 25 49  1  0
M  END
>  <UniqueID>  (74) 
72

>  <SMILES>  (74) 
CN1CCN(CCc2ccc3cc(C(N)=O)n(C(=O)CO)c3c2)CC1

>  <Energy>  (74) 
99.24688596730145

>  <Genealogy>  (74) 
CN1CCN(CCc2ccc3cc(C(N)=O)n(C(=O)CO)c3c2)CC1 (3D coordinates assigned)
CN1CCN(CCc2ccc3cc(C(N)=O)n(C(=O)CO)c3c2)CC1 (nonaromatic ring conformer: 99.24688596730145 kcal/mol)

>  <smiles>  (74) 
CN1CCN(CCc2ccc3cc(C(N)=O)n(C(=O)CO)c3c2)CC1

>  <score_type>  (74) 
oracle

>  <origin>  (74) 
adg

>  <m_score__min__energy>  (74) 
-9.2200000000000006

>  <m_primary>  (74) 
energy

$$$$
76:0
     RDKit          3D

 33 35  0  0  0  0  0  0  0  0999 V2000
   -3.7960   25.3050  -30.8310 N   0  0  0  0  0  0  0  0  0  0  0  0
   -5.1630   25.0910  -30.4940 C   0  0  0  0  0  0  0  0  0  0  0  0
   -5.7670   25.9500  -29.7960 O   0  0  0  0  0  0  0  0  0  0  0  0
   -5.8760   23.8690  -30.9260 C   0  0  0  0  0  0  0  0  0  0  0  0
   -7.2370   23.8320  -31.2220 C   0  0  0  0  0  0  0  0  0  0  0  0
   -7.5100   22.5170  -31.5270 C   0  0  0  0  0  0  0  0  0  0  0  0
   -8.7030   21.9120  -31.9120 C   0  0  0  0  0  0  0  0  0  0  0  0
   -8.6840   20.5350  -32.1900 C   0  0  0  0  0  0  0  0  0  0  0  0
   -7.4830   19.7870  -32.0740 C   0  0  0  0  0  0  0  0  0  0  0  0
   -7.4620   18.3240  -32.4350 C   0  0  0  0  0  0  0  0  0  0  0  0
   -7.0210   18.1840  -33.7380 F   0  0  0  0  0  0  0  0  0  0  0  0
   -8.7300   17.7780  -32.3260 F   0  0  0  0  0  0  0  0  0  0  0  0
   -6.6150   17.6220  -31.5940 F   0  0  0  0  0  0  0  0  0  0  0  0
   -6.2870   20.4460  -31.7050 C   0  0  0  0  0  0  0  0  0  0  0  0
   -6.3410   21.8110  -31.4140 C   0  0  0  0  0  0  0  0  0  0  0  0
   -5.3310   22.6260  -31.0440 N   0  0  0  0  0  0  0  0  0  0  0  0
   -3.9630   22.2440  -30.8440 C   0  0  0  0  0  0  0  0  0  0  0  0
   -3.1760   22.2050  -31.8280 O   0  0  0  0  0  0  0  0  0  0  0  0
   -3.4460   21.9620  -29.4640 C   0  0  0  0  0  0  0  0  0  0  0  0
   -3.2320   23.2030  -28.7260 N   0  0  0  0  0  0  0  0  0  0  0  0
   -4.0520   23.7820  -27.8340 C   0  0  0  0  0  0  0  0  0  0  0  0
   -3.4920   24.9280  -27.4140 N   0  0  0  0  0  0  0  0  0  0  0  0
   -2.3390   25.0430  -28.0560 N   0  0  0  0  0  0  0  0  0  0  0  0
   -2.1810   23.9990  -28.8560 N   0  0  0  0  0  0  0  0  0  0  0  0
   -3.0530   25.2970  -30.0960 H   0  0  0  0  0  0  0  0  0  0  0  0
   -7.9439   24.6748  -31.2138 H   0  0  0  0  0  0  0  0  0  0  0  0
   -9.6324   22.4943  -31.9960 H   0  0  0  0  0  0  0  0  0  0  0  0
   -9.6106   20.0305  -32.5012 H   0  0  0  0  0  0  0  0  0  0  0  0
   -5.3361   19.8960  -31.6485 H   0  0  0  0  0  0  0  0  0  0  0  0
   -4.1781   21.3433  -28.9243 H   0  0  0  0  0  0  0  0  0  0  0  0
   -2.4854   21.4328  -29.5491 H   0  0  0  0  0  0  0  0  0  0  0  0
   -5.0221   23.3834  -27.5022 H   0  0  0  0  0  0  0  0  0  0  0  0
   -3.8720   25.6100  -26.7210 H   0  0  0  0  0  0  0  0  0  0  0  0
  1  2  1  0
  2  3  2  0
  2  4  1  0
  4  5  2  0
  5  6  1  0
  6  7  2  0
  7  8  1  0
  8  9  2  0
  9 10  1  0
 10 11  1  0
 10 12  1  0
 10 13  1  0
  9 14  1  0
 14 15  2  0
 15 16  1  0
 16 17  1  0
 17 18  2  0
 17 19  1  0
 19 20  1  0
 20 21  1  0
 21 22  2  0
 22 23  1  0
 23 24  2  0
 16  4  1  0
 24 20  1  0
 15  6  1  0
  1 25  1  0
  5 26  1  0
  7 27  1  0
  8 28  1  0
 14 29  1  0
 19 30  1  0
 19 31  1  0
 21 32  1  0
 22 33  1  0
M  CHG  2   1  -1  22   1
M  END
>  <UniqueID>  (75) 
73

>  <SMILES>  (75) 
[NH-]C(=O)c1cc2ccc(C(F)(F)F)cc2n1C(=O)Cn1c[nH+]nn1

>  <Energy>  (75) 
115.2785042963651

>  <Genealogy>  (75) 
[NH-]C(=O)c1cc2ccc(C(F)(F)F)cc2n1C(=O)Cn1c[nH+]nn1 (protonated)
[NH-]C(=O)c1cc2ccc(C(F)(F)F)cc2n1C(=O)Cn1c[nH+]nn1 (3D coordinates assigned)
[NH-]C(=O)c1cc2ccc(C(F)(F)F)cc2n1C(=O)Cn1c[nH+]nn1 (optimized conformer: 115.2785042963651 kcal/mol)

>  <smiles>  (75) 
NC(=O)c1cc2ccc(C(F)(F)F)cc2n1C(=O)Cn1cnnn1

>  <score_type>  (75) 
oracle

>  <origin>  (75) 
adg

>  <m_score__min__energy>  (75) 
-9.5500000000000007

>  <m_primary>  (75) 
energy

$$$$
77:0
     RDKit          3D

 49 51  0  0  0  0  0  0  0  0999 V2000
    2.5080   21.9750  -35.8620 C   0  0  0  0  0  0  0  0  0  0  0  0
    0.9850   22.0890  -35.6440 C   0  0  0  0  0  0  0  0  0  0  0  0
    0.2620   21.0170  -36.4820 C   0  0  0  0  0  0  0  0  0  0  0  0
    0.4680   23.4830  -36.0820 C   0  0  0  0  0  0  0  0  0  0  0  0
    1.4980   24.2400  -36.8310 N   0  0  0  0  0  0  0  0  0  0  0  0
    0.9640   25.4430  -37.4900 C   0  0  0  0  0  0  0  0  0  0  0  0
    1.7400   26.3840  -36.5940 C   0  0  0  0  0  0  0  0  0  0  0  0
    2.2620   25.1240  -35.9390 C   0  0  0  0  0  0  0  0  0  0  0  0
    0.6760   21.9170  -34.2190 N   0  0  0  0  0  0  0  0  0  0  0  0
    0.6900   20.6910  -33.4780 C   0  0  0  0  0  0  0  0  0  0  0  0
    1.3430   19.6900  -33.8860 O   0  0  0  0  0  0  0  0  0  0  0  0
   -0.0640   20.6100  -32.1840 C   0  0  0  0  0  0  0  0  0  0  0  0
   -1.5430   20.8820  -32.3320 C   0  0  0  0  0  0  0  0  0  0  0  0
   -2.4120   19.9700  -32.9910 C   0  0  0  0  0  0  0  0  0  0  0  0
   -3.7890   20.2300  -33.0810 C   0  0  0  0  0  0  0  0  0  0  0  0
   -4.2790   21.3790  -32.4740 C   0  0  0  0  0  0  0  0  0  0  0  0
   -5.5680   21.8420  -32.3770 C   0  0  0  0  0  0  0  0  0  0  0  0
   -5.4870   23.0170  -31.6320 C   0  0  0  0  0  0  0  0  0  0  0  0
   -6.6510   23.8850  -31.3300 C   0  0  0  0  0  0  0  0  0  0  0  0
   -6.5590   24.9140  -30.3390 N   0  0  0  0  0  0  0  0  0  0  0  0
   -7.7430   23.7170  -31.9330 O   0  0  0  0  0  0  0  0  0  0  0  0
   -4.1920   23.2710  -31.2810 N   0  0  0  0  0  0  0  0  0  0  0  0
   -3.6970   24.3300  -30.4400 C   0  0  0  0  0  0  0  0  0  0  0  0
   -3.0890   24.0680  -29.3710 O   0  0  0  0  0  0  0  0  0  0  0  0
   -3.8700   25.6610  -30.8090 O   0  0  0  0  0  0  0  0  0  0  0  0
   -3.4620   22.2630  -31.8160 C   0  0  0  0  0  0  0  0  0  0  0  0
   -2.0880   22.0230  -31.7050 C   0  0  0  0  0  0  0  0  0  0  0  0
    3.0161   21.9370  -34.8871 H   0  0  0  0  0  0  0  0  0  0  0  0
    2.7299   21.0577  -36.4272 H   0  0  0  0  0  0  0  0  0  0  0  0
    2.8639   22.8490  -36.4272 H   0  0  0  0  0  0  0  0  0  0  0  0
   -0.2254   20.2943  -35.8111 H   0  0  0  0  0  0  0  0  0  0  0  0
   -0.4970   21.4979  -37.1166 H   0  0  0  0  0  0  0  0  0  0  0  0
    0.9923   20.4935  -37.1166 H   0  0  0  0  0  0  0  0  0  0  0  0
   -0.4143   23.3498  -36.7252 H   0  0  0  0  0  0  0  0  0  0  0  0
    0.2140   24.0540  -35.1768 H   0  0  0  0  0  0  0  0  0  0  0  0
    1.2448   25.5201  -38.5508 H   0  0  0  0  0  0  0  0  0  0  0  0
   -0.1269   25.5640  -37.5628 H   0  0  0  0  0  0  0  0  0  0  0  0
    2.4994   26.9952  -37.1036 H   0  0  0  0  0  0  0  0  0  0  0  0
    1.2656   27.1999  -36.0290 H   0  0  0  0  0  0  0  0  0  0  0  0
    3.3512   25.0028  -36.0338 H   0  0  0  0  0  0  0  0  0  0  0  0
    2.1409   25.0069  -34.8520 H   0  0  0  0  0  0  0  0  0  0  0  0
    0.0646   19.5997  -31.7684 H   0  0  0  0  0  0  0  0  0  0  0  0
    0.3441   21.3877  -31.5217 H   0  0  0  0  0  0  0  0  0  0  0  0
   -2.0014   19.0511  -33.4350 H   0  0  0  0  0  0  0  0  0  0  0  0
   -4.4605   19.5431  -33.6170 H   0  0  0  0  0  0  0  0  0  0  0  0
   -6.4740   21.3822  -32.7986 H   0  0  0  0  0  0  0  0  0  0  0  0
   -7.3530   25.5810  -30.2120 H   0  0  0  0  0  0  0  0  0  0  0  0
   -5.6830   25.0740  -29.7990 H   0  0  0  0  0  0  0  0  0  0  0  0
   -1.4437   22.7117  -31.1388 H   0  0  0  0  0  0  0  0  0  0  0  0
  1  2  1  0
  2  3  1  0
  2  4  1  0
  4  5  1  0
  5  6  1  0
  6  7  1  0
  7  8  1  0
  2  9  1  0
  9 10  1  0
 10 11  2  0
 10 12  1  0
 12 13  1  0
 13 14  2  0
 14 15  1  0
 15 16  2  0
 16 17  1  0
 17 18  2  0
 18 19  1  0
 19 20  1  0
 19 21  2  0
 18 22  1  0
 22 23  1  0
 23 24  2  0
 23 25  1  0
 22 26  1  0
 26 27  2  0
  8  5  1  0
 27 13  1  0
 26 16  1  0
  1 28  1  0
  1 29  1  0
  1 30  1  0
  3 31  1  0
  3 32  1  0
  3 33  1  0
  4 34  1  0
  4 35  1  0
  6 36  1  0
  6 37  1  0
  7 38  1  0
  7 39  1  0
  8 40  1  0
  8 41  1  0
 12 42  1  0
 12 43  1  0
 14 44  1  0
 15 45  1  0
 17 46  1  0
 20 47  1  0
 20 48  1  0
 27 49  1  0
M  CHG  2   9  -1  25  -1
M  END
>  <UniqueID>  (76) 
74

>  <SMILES>  (76) 
CC(C)(CN1CCC1)[N-]C(=O)Cc1ccc2cc(C(N)=O)n(C(=O)[O-])c2c1

>  <Energy>  (76) 
156.13299291167002

>  <Genealogy>  (76) 
CC(C)(CN1CCC1)[N-]C(=O)Cc1ccc2cc(C(N)=O)n(C(=O)[O-])c2c1 (protonated)
CC(C)(CN1CCC1)[N-]C(=O)Cc1ccc2cc(C(N)=O)n(C(=O)[O-])c2c1 (3D coordinates assigned)
CC(C)(CN1CCC1)[N-]C(=O)Cc1ccc2cc(C(N)=O)n(C(=O)[O-])c2c1 (nonaromatic ring conformer: 156.13299291167002 kcal/mol)

>  <smiles>  (76) 
CC(C)(CN1CCC1)NC(=O)Cc1ccc2cc(C(N)=O)n(C(=O)O)c2c1

>  <score_type>  (76) 
oracle

>  <origin>  (76) 
adg

>  <m_score__min__energy>  (76) 
-9.8900000000000006

>  <m_primary>  (76) 
energy

$$$$
78:0
     RDKit          3D

 37 39  0  0  0  0  0  0  0  0999 V2000
   -3.9100   25.6660  -30.8250 N   0  0  0  0  0  0  0  0  0  0  0  0
   -5.2430   25.3000  -30.4770 C   0  0  0  0  0  0  0  0  0  0  0  0
   -5.9500   26.1050  -29.8150 O   0  0  0  0  0  0  0  0  0  0  0  0
   -5.7940   24.0070  -30.9320 C   0  0  0  0  0  0  0  0  0  0  0  0
   -7.1280   23.8240  -31.2880 C   0  0  0  0  0  0  0  0  0  0  0  0
   -7.2520   22.4800  -31.5580 C   0  0  0  0  0  0  0  0  0  0  0  0
   -8.3640   21.7470  -31.9630 C   0  0  0  0  0  0  0  0  0  0  0  0
   -8.1970   20.3700  -32.1920 C   0  0  0  0  0  0  0  0  0  0  0  0
   -6.9280   19.7590  -32.0260 C   0  0  0  0  0  0  0  0  0  0  0  0
   -6.7670   18.2790  -32.2560 C   0  0  0  0  0  0  0  0  0  0  0  0
   -6.1680   17.9870  -33.6320 C   0  0  0  0  0  0  0  0  0  0  0  0
   -6.8350   16.9320  -34.2320 F   0  0  0  0  0  0  0  0  0  0  0  0
   -4.8350   17.6490  -33.4900 F   0  0  0  0  0  0  0  0  0  0  0  0
   -6.2610   19.1040  -34.4430 F   0  0  0  0  0  0  0  0  0  0  0  0
   -5.8260   20.5340  -31.6060 C   0  0  0  0  0  0  0  0  0  0  0  0
   -6.0250   21.8990  -31.3690 C   0  0  0  0  0  0  0  0  0  0  0  0
   -5.1180   22.8250  -30.9860 N   0  0  0  0  0  0  0  0  0  0  0  0
   -3.7160   22.6000  -30.7660 C   0  0  0  0  0  0  0  0  0  0  0  0
   -2.8730   22.9980  -31.6150 O   0  0  0  0  0  0  0  0  0  0  0  0
   -3.2760   21.9540  -29.5680 N   0  0  0  0  0  0  0  0  0  0  0  0
   -2.7310   22.6880  -28.4310 C   0  0  0  0  0  0  0  0  0  0  0  0
   -1.9640   23.9280  -28.8530 C   0  0  0  0  0  0  0  0  0  0  0  0
   -2.9640   24.8350  -28.2870 N   0  0  0  0  0  0  0  0  0  0  0  0
   -3.7340   23.6660  -27.8540 C   0  0  0  0  0  0  0  0  0  0  0  0
   -3.0930   25.1210  -30.4700 H   0  0  0  0  0  0  0  0  0  0  0  0
   -7.9151   24.5905  -31.3419 H   0  0  0  0  0  0  0  0  0  0  0  0
   -9.3428   22.2301  -32.0996 H   0  0  0  0  0  0  0  0  0  0  0  0
   -9.0586   19.7609  -32.5028 H   0  0  0  0  0  0  0  0  0  0  0  0
   -6.1022   17.8674  -31.4823 H   0  0  0  0  0  0  0  0  0  0  0  0
   -7.7618   17.8122  -32.2069 H   0  0  0  0  0  0  0  0  0  0  0  0
   -4.8351   20.0766  -31.4683 H   0  0  0  0  0  0  0  0  0  0  0  0
   -2.2782   21.8687  -27.8533 H   0  0  0  0  0  0  0  0  0  0  0  0
   -0.9764   24.0142  -28.3763 H   0  0  0  0  0  0  0  0  0  0  0  0
   -1.6841   24.0426  -29.9106 H   0  0  0  0  0  0  0  0  0  0  0  0
   -3.4780   25.2940  -29.0770 H   0  0  0  0  0  0  0  0  0  0  0  0
   -3.8376   23.5916  -26.7614 H   0  0  0  0  0  0  0  0  0  0  0  0
   -4.7876   23.5844  -28.1594 H   0  0  0  0  0  0  0  0  0  0  0  0
  1  2  1  0
  2  3  2  0
  2  4  1  0
  4  5  2  0
  5  6  1  0
  6  7  2  0
  7  8  1  0
  8  9  2  0
  9 10  1  0
 10 11  1  0
 11 12  1  0
 11 13  1  0
 11 14  1  0
  9 15  1  0
 15 16  2  0
 16 17  1  0
 17 18  1  0
 18 19  2  0
 18 20  1  0
 20 21  1  0
 21 22  1  0
 22 23  1  0
 23 24  1  0
 17  4  1  0
 24 21  1  0
 16  6  1  0
  1 25  1  0
  5 26  1  0
  7 27  1  0
  8 28  1  0
 10 29  1  0
 10 30  1  0
 15 31  1  0
 21 32  1  0
 22 33  1  0
 22 34  1  0
 23 35  1  0
 24 36  1  0
 24 37  1  0
M  CHG  2   1  -1  20  -1
M  END
>  <UniqueID>  (77) 
75

>  <SMILES>  (77) 
[NH-]C(=O)c1cc2ccc(CC(F)(F)F)cc2n1C(=O)[N-]C1CNC1

>  <Energy>  (77) 
139.09083850095286

>  <Genealogy>  (77) 
[NH-]C(=O)c1cc2ccc(CC(F)(F)F)cc2n1C(=O)[N-]C1CNC1 (protonated)
[NH-]C(=O)c1cc2ccc(CC(F)(F)F)cc2n1C(=O)[N-]C1CNC1 (3D coordinates assigned)
[NH-]C(=O)c1cc2ccc(CC(F)(F)F)cc2n1C(=O)[N-]C1CNC1 (nonaromatic ring conformer: 139.09083850095286 kcal/mol)

>  <smiles>  (77) 
NC(=O)c1cc2ccc(CC(F)(F)F)cc2n1C(=O)NC1CNC1

>  <score_type>  (77) 
oracle

>  <origin>  (77) 
adg

>  <m_score__min__energy>  (77) 
-10.26

>  <m_primary>  (77) 
energy

$$$$
79:0
     RDKit          3D

 41 42  0  0  0  0  0  0  0  0999 V2000
   -4.5470   17.5390  -34.1430 N   0  0  0  0  0  0  0  0  0  0  0  0
   -5.9160   17.7650  -33.8050 C   0  0  0  0  0  0  0  0  0  0  0  0
   -6.7700   16.8820  -34.0780 O   0  0  0  0  0  0  0  0  0  0  0  0
   -6.3330   18.9750  -33.0690 C   0  0  0  0  0  0  0  0  0  0  0  0
   -7.6440   19.2100  -32.6690 C   0  0  0  0  0  0  0  0  0  0  0  0
   -7.5990   20.3790  -31.9470 C   0  0  0  0  0  0  0  0  0  0  0  0
   -8.6210   21.0760  -31.3110 C   0  0  0  0  0  0  0  0  0  0  0  0
   -8.2940   22.2730  -30.6510 C   0  0  0  0  0  0  0  0  0  0  0  0
   -6.9610   22.7570  -30.6540 C   0  0  0  0  0  0  0  0  0  0  0  0
   -6.6140   24.0140  -29.9040 C   0  0  0  0  0  0  0  0  0  0  0  0
   -5.2210   23.8930  -29.2800 C   0  0  0  0  0  0  0  0  0  0  0  0
   -3.9790   24.6110  -30.3440 S   0  0  0  0  0  0  0  0  0  0  0  0
   -4.5980   25.6760  -31.2080 O   0  0  0  0  0  0  0  0  0  0  0  0
   -3.3790   23.5440  -31.2170 O   0  0  0  0  0  0  0  0  0  0  0  0
   -2.7740   25.2980  -29.3960 O   0  0  0  0  0  0  0  0  0  0  0  0
   -5.9480   22.0210  -31.3070 C   0  0  0  0  0  0  0  0  0  0  0  0
   -6.2990   20.8190  -31.9380 C   0  0  0  0  0  0  0  0  0  0  0  0
   -5.5070   19.9660  -32.6280 N   0  0  0  0  0  0  0  0  0  0  0  0
   -4.1110   20.1350  -32.9300 C   0  0  0  0  0  0  0  0  0  0  0  0
   -3.7560   20.9200  -33.8500 O   0  0  0  0  0  0  0  0  0  0  0  0
   -3.1510   19.4240  -32.2020 O   0  0  0  0  0  0  0  0  0  0  0  0
   -1.7450   19.6350  -32.3290 C   0  0  0  0  0  0  0  0  0  0  0  0
   -1.0280   18.3350  -32.6850 C   0  0  0  0  0  0  0  0  0  0  0  0
   -1.9850   17.2950  -32.8490 O   0  0  0  0  0  0  0  0  0  0  0  0
   -2.2160   16.7110  -34.0760 N   0  0  0  0  0  0  0  0  0  0  0  0
   -2.1790   17.4150  -35.1050 O   0  0  0  0  0  0  0  0  0  0  0  0
   -2.5590   15.3810  -34.1750 O   0  0  0  0  0  0  0  0  0  0  0  0
   -4.2660   16.6720  -34.6540 H   0  0  0  0  0  0  0  0  0  0  0  0
   -3.7930   18.1620  -33.7760 H   0  0  0  0  0  0  0  0  0  0  0  0
   -8.5283   18.5923  -32.8844 H   0  0  0  0  0  0  0  0  0  0  0  0
   -9.6551   20.7012  -31.3242 H   0  0  0  0  0  0  0  0  0  0  0  0
   -9.0786   22.8392  -30.1277 H   0  0  0  0  0  0  0  0  0  0  0  0
   -6.6276   24.8666  -30.5989 H   0  0  0  0  0  0  0  0  0  0  0  0
   -7.3525   24.1685  -29.1035 H   0  0  0  0  0  0  0  0  0  0  0  0
   -5.2131   24.4173  -28.3130 H   0  0  0  0  0  0  0  0  0  0  0  0
   -4.9902   22.8264  -29.1417 H   0  0  0  0  0  0  0  0  0  0  0  0
   -4.9090   22.3818  -31.3203 H   0  0  0  0  0  0  0  0  0  0  0  0
   -1.5623   20.3756  -33.1216 H   0  0  0  0  0  0  0  0  0  0  0  0
   -1.3561   19.9981  -31.3662 H   0  0  0  0  0  0  0  0  0  0  0  0
   -0.4686   18.4697  -33.6225 H   0  0  0  0  0  0  0  0  0  0  0  0
   -0.3309   18.0677  -31.8772 H   0  0  0  0  0  0  0  0  0  0  0  0
  1  2  1  0
  2  3  2  0
  2  4  1  0
  4  5  2  0
  5  6  1  0
  6  7  2  0
  7  8  1  0
  8  9  2  0
  9 10  1  0
 10 11  1  0
 11 12  1  0
 12 13  2  0
 12 14  2  0
 12 15  1  0
  9 16  1  0
 16 17  2  0
 17 18  1  0
 18 19  1  0
 19 20  2  0
 19 21  1  0
 21 22  1  0
 22 23  1  0
 23 24  1  0
 24 25  1  0
 25 26  2  0
 25 27  1  0
 18  4  1  0
 17  6  1  0
  1 28  1  0
  1 29  1  0
  5 30  1  0
  7 31  1  0
  8 32  1  0
 10 33  1  0
 10 34  1  0
 11 35  1  0
 11 36  1  0
 16 37  1  0
 22 38  1  0
 22 39  1  0
 23 40  1  0
 23 41  1  0
M  CHG  3  15  -1  25   1  27  -1
M  END
>  <UniqueID>  (78) 
76

>  <SMILES>  (78) 
NC(=O)c1cc2ccc(CCS(=O)(=O)[O-])cc2n1C(=O)OCCO[N+](=O)[O-]

>  <Energy>  (78) 
67.56497300462945

>  <Genealogy>  (78) 
NC(=O)c1cc2ccc(CCS(=O)(=O)[O-])cc2n1C(=O)OCCO[N+](=O)[O-] (protonated)
NC(=O)c1cc2ccc(CCS(=O)(=O)[O-])cc2n1C(=O)OCCO[N+](=O)[O-] (3D coordinates assigned)
NC(=O)c1cc2ccc(CCS(=O)(=O)[O-])cc2n1C(=O)OCCO[N+](=O)[O-] (optimized conformer: 67.56497300462945 kcal/mol)

>  <smiles>  (78) 
NC(=O)c1cc2ccc(CCS(=O)(=O)O)cc2n1C(=O)OCCO[N+](=O)O

>  <score_type>  (78) 
oracle

>  <origin>  (78) 
adg

>  <m_score__min__energy>  (78) 
-10.17

>  <m_primary>  (78) 
energy

$$$$
80:0
     RDKit          3D

 49 53  0  0  0  0  0  0  0  0999 V2000
   -1.2420   26.3250  -28.9530 N   0  0  0  0  0  0  0  0  0  0  0  0
   -1.8380   25.1060  -28.5170 C   0  0  0  0  0  0  0  0  0  0  0  0
   -2.4090   25.0660  -27.3950 O   0  0  0  0  0  0  0  0  0  0  0  0
   -1.8190   23.9000  -29.3730 C   0  0  0  0  0  0  0  0  0  0  0  0
   -0.7930   22.9560  -29.3610 C   0  0  0  0  0  0  0  0  0  0  0  0
   -1.1780   21.9840  -30.2560 C   0  0  0  0  0  0  0  0  0  0  0  0
   -0.5280   20.8200  -30.6530 C   0  0  0  0  0  0  0  0  0  0  0  0
   -1.1530   20.0140  -31.6210 C   0  0  0  0  0  0  0  0  0  0  0  0
   -2.4090   20.3810  -32.1640 C   0  0  0  0  0  0  0  0  0  0  0  0
   -3.0440   19.5370  -33.2280 C   0  0  0  0  0  0  0  0  0  0  0  0
   -4.0630   20.2480  -33.8350 F   0  0  0  0  0  0  0  0  0  0  0  0
   -3.0310   21.5790  -31.7490 C   0  0  0  0  0  0  0  0  0  0  0  0
   -2.3930   22.3520  -30.7750 C   0  0  0  0  0  0  0  0  0  0  0  0
   -2.8010   23.5220  -30.2380 N   0  0  0  0  0  0  0  0  0  0  0  0
   -3.9840   24.2520  -30.5990 C   0  0  0  0  0  0  0  0  0  0  0  0
   -3.9320   25.5110  -30.6630 O   0  0  0  0  0  0  0  0  0  0  0  0
   -5.2530   23.5480  -30.9050 C   0  0  0  0  0  0  0  0  0  0  0  0
   -6.0100   22.9590  -29.8810 C   0  0  0  0  0  0  0  0  0  0  0  0
   -7.2040   22.3020  -30.1790 C   0  0  0  0  0  0  0  0  0  0  0  0
   -7.6410   22.2290  -31.5120 C   0  0  0  0  0  0  0  0  0  0  0  0
   -8.8330   21.5870  -31.8730 O   0  0  0  0  0  0  0  0  0  0  0  0
   -9.1180   20.2190  -31.5890 C   0  0  1  0  0  0  0  0  0  0  0  0
   -9.6180   19.4400  -32.8060 C   0  0  0  0  0  0  0  0  0  0  0  0
   -8.1960   19.2380  -32.2940 C   0  0  1  0  0  0  0  0  0  0  0  0
   -7.0530   19.6960  -33.1370 C   0  0  0  0  0  0  0  0  0  0  0  0
   -6.1730   18.4550  -33.1130 C   0  0  0  0  0  0  0  0  0  0  0  0
   -6.5080   17.6460  -31.9970 O   0  0  0  0  0  0  0  0  0  0  0  0
   -7.8480   17.9210  -31.6550 C   0  0  0  0  0  0  0  0  0  0  0  0
   -6.8890   22.7990  -32.4900 N   0  0  0  0  0  0  0  0  0  0  0  0
   -5.7230   23.4450  -32.2240 C   0  0  0  0  0  0  0  0  0  0  0  0
   -0.9200   26.4440  -29.9390 H   0  0  0  0  0  0  0  0  0  0  0  0
    0.1295   22.9825  -28.7625 H   0  0  0  0  0  0  0  0  0  0  0  0
    0.4447   20.5388  -30.2231 H   0  0  0  0  0  0  0  0  0  0  0  0
   -0.6621   19.0898  -31.9598 H   0  0  0  0  0  0  0  0  0  0  0  0
   -2.2884   19.2654  -33.9798 H   0  0  0  0  0  0  0  0  0  0  0  0
   -3.4551   18.6234  -32.7738 H   0  0  0  0  0  0  0  0  0  0  0  0
   -3.9920   21.8953  -32.1808 H   0  0  0  0  0  0  0  0  0  0  0  0
   -5.6607   23.0155  -28.8394 H   0  0  0  0  0  0  0  0  0  0  0  0
   -7.7994   21.8441  -29.3754 H   0  0  0  0  0  0  0  0  0  0  0  0
   -9.4587   20.3580  -30.5524 H   0  0  0  0  0  0  0  0  0  0  0  0
  -10.3668   18.6440  -32.6809 H   0  0  0  0  0  0  0  0  0  0  0  0
  -10.0675   19.7092  -33.7732 H   0  0  0  0  0  0  0  0  0  0  0  0
   -7.3763   19.9444  -34.1586 H   0  0  0  0  0  0  0  0  0  0  0  0
   -6.5606   20.6130  -32.7811 H   0  0  0  0  0  0  0  0  0  0  0  0
   -6.3269   17.8810  -34.0387 H   0  0  0  0  0  0  0  0  0  0  0  0
   -5.1191   18.7603  -33.0351 H   0  0  0  0  0  0  0  0  0  0  0  0
   -8.5073   17.1280  -32.0378 H   0  0  0  0  0  0  0  0  0  0  0  0
   -7.9767   17.9647  -30.5634 H   0  0  0  0  0  0  0  0  0  0  0  0
   -5.1442   23.8897  -33.0470 H   0  0  0  0  0  0  0  0  0  0  0  0
  1  2  1  0
  2  3  2  0
  2  4  1  0
  4  5  2  0
  5  6  1  0
  6  7  2  0
  7  8  1  0
  8  9  2  0
  9 10  1  0
 10 11  1  0
  9 12  1  0
 12 13  2  0
 13 14  1  0
 14 15  1  0
 15 16  2  0
 15 17  1  0
 17 18  2  0
 18 19  1  0
 19 20  2  0
 20 21  1  0
 21 22  1  0
 22 23  1  0
 24 23  1  6
 24 25  1  0
 25 26  1  0
 26 27  1  0
 27 28  1  0
 20 29  1  0
 29 30  2  0
 14  4  1  0
 30 17  1  0
 13  6  1  0
 24 22  1  0
 28 24  1  0
  1 31  1  0
  5 32  1  0
  7 33  1  0
  8 34  1  0
 10 35  1  0
 10 36  1  0
 12 37  1  0
 18 38  1  0
 19 39  1  0
 22 40  1  1
 23 41  1  0
 23 42  1  0
 25 43  1  0
 25 44  1  0
 26 45  1  0
 26 46  1  0
 28 47  1  0
 28 48  1  0
 30 49  1  0
M  CHG  1   1  -1
M  END
>  <UniqueID>  (79) 
77

>  <SMILES>  (79) 
[NH-]C(=O)c1cc2ccc(CF)cc2n1C(=O)c1ccc(O[C@H]2C[C@@]23CCOC3)nc1

>  <Energy>  (79) 
369.82591899129386

>  <Genealogy>  (79) 
[NH-]C(=O)c1cc2ccc(CF)cc2n1C(=O)c1ccc(OC2CC23CCOC3)nc1 (protonated)
[NH-]C(=O)c1cc2ccc(CF)cc2n1C(=O)c1ccc(O[C@H]2C[C@@]23CCOC3)nc1 (chirality)
[NH-]C(=O)c1cc2ccc(CF)cc2n1C(=O)c1ccc(O[C@H]2C[C@@]23CCOC3)nc1 (3D coordinates assigned)
[NH-]C(=O)c1cc2ccc(CF)cc2n1C(=O)c1ccc(O[C@H]2C[C@@]23CCOC3)nc1 (nonaromatic ring conformer: 369.82591899129386 kcal/mol)

>  <smiles>  (79) 
NC(=O)c1cc2ccc(CF)cc2n1C(=O)c1ccc(OC2CC23CCOC3)nc1

>  <score_type>  (79) 
oracle

>  <origin>  (79) 
adg

>  <m_score__min__energy>  (79) 
-11.960000000000001

>  <m_primary>  (79) 
energy

$$$$
81:0
     RDKit          3D

 36 38  0  0  0  0  0  0  0  0999 V2000
   -8.7210   21.2340  -31.9450 C   0  0  0  0  0  0  0  0  0  0  0  0
   -7.8640   22.2530  -31.9620 C   0  0  0  0  0  0  0  0  0  0  0  0
   -6.8880   22.4880  -30.8810 C   0  0  0  0  0  0  0  0  0  0  0  0
   -7.2840   22.7520  -29.7120 O   0  0  0  0  0  0  0  0  0  0  0  0
   -5.4790   22.3740  -31.1420 N   0  0  0  0  0  0  0  0  0  0  0  0
   -4.5140   23.3190  -30.9570 C   0  0  0  0  0  0  0  0  0  0  0  0
   -4.7120   24.6300  -30.3010 C   0  0  0  0  0  0  0  0  0  0  0  0
   -5.4720   24.7380  -29.0960 N   0  0  0  0  0  0  0  0  0  0  0  0
   -4.2310   25.6740  -30.8170 O   0  0  0  0  0  0  0  0  0  0  0  0
   -3.2770   22.8390  -31.3870 C   0  0  0  0  0  0  0  0  0  0  0  0
   -3.5170   21.5600  -31.8360 C   0  0  0  0  0  0  0  0  0  0  0  0
   -2.6450   20.6220  -32.3780 C   0  0  0  0  0  0  0  0  0  0  0  0
   -3.1740   19.3830  -32.7760 C   0  0  0  0  0  0  0  0  0  0  0  0
   -4.5570   19.1020  -32.6250 C   0  0  0  0  0  0  0  0  0  0  0  0
   -5.1040   17.7950  -33.0640 C   0  0  0  0  0  0  0  0  0  0  0  0
   -4.2810   16.6540  -33.0660 C   0  0  0  0  0  0  0  0  0  0  0  0
   -4.7840   15.4180  -33.4840 C   0  0  0  0  0  0  0  0  0  0  0  0
   -6.1130   15.3070  -33.9000 C   0  0  0  0  0  0  0  0  0  0  0  0
   -6.5990   14.1080  -34.3030 F   0  0  0  0  0  0  0  0  0  0  0  0
   -6.9430   16.4310  -33.8970 C   0  0  0  0  0  0  0  0  0  0  0  0
   -6.4450   17.6720  -33.4810 C   0  0  0  0  0  0  0  0  0  0  0  0
   -7.2850   18.7390  -33.4520 F   0  0  0  0  0  0  0  0  0  0  0  0
   -5.4110   20.0850  -32.0740 C   0  0  0  0  0  0  0  0  0  0  0  0
   -4.8530   21.3040  -31.6750 C   0  0  0  0  0  0  0  0  0  0  0  0
   -9.4312   21.0987  -32.7741 H   0  0  0  0  0  0  0  0  0  0  0  0
   -8.7188   20.5275  -31.1019 H   0  0  0  0  0  0  0  0  0  0  0  0
   -7.8846   22.9467  -32.8155 H   0  0  0  0  0  0  0  0  0  0  0  0
   -5.8360   23.8920  -28.6050 H   0  0  0  0  0  0  0  0  0  0  0  0
   -5.6350   25.6740  -28.6630 H   0  0  0  0  0  0  0  0  0  0  0  0
   -2.3138   23.3700  -31.3708 H   0  0  0  0  0  0  0  0  0  0  0  0
   -1.5735   20.8435  -32.4916 H   0  0  0  0  0  0  0  0  0  0  0  0
   -2.5087   18.6218  -33.2097 H   0  0  0  0  0  0  0  0  0  0  0  0
   -3.2346   16.7347  -32.7365 H   0  0  0  0  0  0  0  0  0  0  0  0
   -4.1323   14.5318  -33.4853 H   0  0  0  0  0  0  0  0  0  0  0  0
   -7.9900   16.3409  -34.2221 H   0  0  0  0  0  0  0  0  0  0  0  0
   -6.4887   19.8956  -31.9618 H   0  0  0  0  0  0  0  0  0  0  0  0
  1  2  2  0
  2  3  1  0
  3  4  2  0
  3  5  1  0
  5  6  1  0
  6  7  1  0
  7  8  1  0
  7  9  2  0
  6 10  2  0
 10 11  1  0
 11 12  2  0
 12 13  1  0
 13 14  2  0
 14 15  1  0
 15 16  2  0
 16 17  1  0
 17 18  2  0
 18 19  1  0
 18 20  1  0
 20 21  2  0
 21 22  1  0
 14 23  1  0
 23 24  2  0
 24  5  1  0
 24 11  1  0
 21 15  1  0
  1 25  1  0
  1 26  1  0
  2 27  1  0
  8 28  1  0
  8 29  1  0
 10 30  1  0
 12 31  1  0
 13 32  1  0
 16 33  1  0
 17 34  1  0
 20 35  1  0
 23 36  1  0
M  END
>  <UniqueID>  (80) 
78

>  <SMILES>  (80) 
C=CC(=O)n1c(C(N)=O)cc2ccc(-c3ccc(F)cc3F)cc21

>  <Energy>  (80) 
83.00129681890728

>  <Genealogy>  (80) 
C=CC(=O)n1c(C(N)=O)cc2ccc(-c3ccc(F)cc3F)cc21 (3D coordinates assigned)
C=CC(=O)n1c(C(N)=O)cc2ccc(-c3ccc(F)cc3F)cc21 (optimized conformer: 83.00129681890728 kcal/mol)

>  <smiles>  (80) 
C=CC(=O)n1c(C(N)=O)cc2ccc(-c3ccc(F)cc3F)cc21

>  <score_type>  (80) 
oracle

>  <origin>  (80) 
adg

>  <m_score__min__energy>  (80) 
-9.4600000000000009

>  <m_primary>  (80) 
energy

$$$$
82:0
     RDKit          3D

 48 49  0  0  0  0  0  0  0  0999 V2000
   -0.8590   26.0850  -24.4250 C   0  0  0  0  0  0  0  0  0  0  0  0
   -1.5240   25.0920  -25.3930 C   0  0  0  0  0  0  0  0  0  0  0  0
   -0.5170   24.0120  -25.8150 C   0  0  0  0  0  0  0  0  0  0  0  0
   -2.1580   25.7730  -26.6360 C   0  0  2  0  0  0  0  0  0  0  0  0
   -3.1320   24.8970  -27.2990 N   0  0  0  0  0  0  0  0  0  0  0  0
   -1.1060   26.2720  -27.5960 C   0  0  0  0  0  0  0  0  0  0  0  0
   -0.3300   27.2120  -27.2660 O   0  0  0  0  0  0  0  0  0  0  0  0
   -1.0320   25.7100  -28.8730 O   0  0  0  0  0  0  0  0  0  0  0  0
   -0.6600   24.3530  -29.0940 C   0  0  0  0  0  0  0  0  0  0  0  0
   -1.8140   23.5210  -29.0260 O   0  0  0  0  0  0  0  0  0  0  0  0
   -1.9660   22.3660  -29.7990 C   0  0  0  0  0  0  0  0  0  0  0  0
   -0.9540   21.7020  -30.1580 O   0  0  0  0  0  0  0  0  0  0  0  0
   -3.2570   21.9740  -30.1730 O   0  0  0  0  0  0  0  0  0  0  0  0
   -3.9350   22.4240  -31.3150 C   0  0  0  0  0  0  0  0  0  0  0  0
   -3.3700   22.4290  -32.4430 O   0  0  0  0  0  0  0  0  0  0  0  0
   -5.2980   22.8620  -31.2010 N   0  0  0  0  0  0  0  0  0  0  0  0
   -5.7480   24.0830  -30.7960 C   0  0  0  0  0  0  0  0  0  0  0  0
   -4.9150   25.2800  -30.5560 C   0  0  0  0  0  0  0  0  0  0  0  0
   -3.4960   25.1770  -30.4580 N   0  0  0  0  0  0  0  0  0  0  0  0
   -5.4580   26.4140  -30.4860 O   0  0  0  0  0  0  0  0  0  0  0  0
   -7.1390   24.0910  -30.7200 C   0  0  0  0  0  0  0  0  0  0  0  0
   -7.5330   22.8290  -31.1040 C   0  0  0  0  0  0  0  0  0  0  0  0
   -8.8070   22.2790  -31.1960 C   0  0  0  0  0  0  0  0  0  0  0  0
   -8.9180   20.9350  -31.5910 C   0  0  0  0  0  0  0  0  0  0  0  0
   -7.7630   20.1710  -31.8950 C   0  0  0  0  0  0  0  0  0  0  0  0
   -7.8920   18.7140  -32.2630 C   0  0  0  0  0  0  0  0  0  0  0  0
   -7.2660   18.4590  -33.4700 F   0  0  0  0  0  0  0  0  0  0  0  0
   -9.2320   18.3910  -32.3740 F   0  0  0  0  0  0  0  0  0  0  0  0
   -7.3120   17.9110  -31.2970 F   0  0  0  0  0  0  0  0  0  0  0  0
   -6.4830   20.7600  -31.7660 C   0  0  0  0  0  0  0  0  0  0  0  0
   -6.4040   22.1060  -31.3880 C   0  0  0  0  0  0  0  0  0  0  0  0
   -1.0637   25.7794  -23.3883 H   0  0  0  0  0  0  0  0  0  0  0  0
    0.2274   26.0932  -24.5972 H   0  0  0  0  0  0  0  0  0  0  0  0
   -1.2651   27.0927  -24.5972 H   0  0  0  0  0  0  0  0  0  0  0  0
   -2.3568   24.6252  -24.8467 H   0  0  0  0  0  0  0  0  0  0  0  0
   -0.0822   23.5457  -24.9186 H   0  0  0  0  0  0  0  0  0  0  0  0
   -1.0306   23.2459  -26.4143 H   0  0  0  0  0  0  0  0  0  0  0  0
    0.2832   24.4709  -26.4143 H   0  0  0  0  0  0  0  0  0  0  0  0
   -2.7106   26.6538  -26.2770 H   0  0  0  0  0  0  0  0  0  0  0  0
   -2.8550   23.8960  -27.1880 H   0  0  0  0  0  0  0  0  0  0  0  0
   -3.1240   25.1070  -28.3240 H   0  0  0  0  0  0  0  0  0  0  0  0
   -0.1987   24.2577  -30.0881 H   0  0  0  0  0  0  0  0  0  0  0  0
    0.0588   24.0422  -28.3215 H   0  0  0  0  0  0  0  0  0  0  0  0
   -3.0110   25.2850  -29.5410 H   0  0  0  0  0  0  0  0  0  0  0  0
   -7.7854   24.9280  -30.4174 H   0  0  0  0  0  0  0  0  0  0  0  0
   -9.7007   22.8779  -30.9665 H   0  0  0  0  0  0  0  0  0  0  0  0
   -9.9123   20.4704  -31.6652 H   0  0  0  0  0  0  0  0  0  0  0  0
   -5.5717   20.1746  -31.9581 H   0  0  0  0  0  0  0  0  0  0  0  0
  1  2  1  0
  2  3  1  0
  2  4  1  0
  4  5  1  0
  4  6  1  0
  6  7  2  0
  6  8  1  0
  8  9  1  0
  9 10  1  0
 10 11  1  0
 11 12  2  0
 11 13  1  0
 13 14  1  0
 14 15  2  0
 14 16  1  0
 16 17  1  0
 17 18  1  0
 18 19  1  0
 18 20  2  0
 17 21  2  0
 21 22  1  0
 22 23  2  0
 23 24  1  0
 24 25  2  0
 25 26  1  0
 26 27  1  0
 26 28  1  0
 26 29  1  0
 25 30  1  0
 30 31  2  0
 31 16  1  0
 31 22  1  0
  1 32  1  0
  1 33  1  0
  1 34  1  0
  2 35  1  0
  3 36  1  0
  3 37  1  0
  3 38  1  0
  4 39  1  1
  5 40  1  0
  5 41  1  0
  9 42  1  0
  9 43  1  0
 19 44  1  0
 21 45  1  0
 23 46  1  0
 24 47  1  0
 30 48  1  0
M  CHG  1  19  -1
M  END
>  <UniqueID>  (81) 
79

>  <SMILES>  (81) 
CC(C)[C@H](N)C(=O)OCOC(=O)OC(=O)n1c(C([NH-])=O)cc2ccc(C(F)(F)F)cc21

>  <Energy>  (81) 
81.62173838448788

>  <Genealogy>  (81) 
CC(C)[C@H](N)C(=O)OCOC(=O)OC(=O)n1c(C([NH-])=O)cc2ccc(C(F)(F)F)cc21 (protonated)
CC(C)[C@H](N)C(=O)OCOC(=O)OC(=O)n1c(C([NH-])=O)cc2ccc(C(F)(F)F)cc21 (3D coordinates assigned)
CC(C)[C@H](N)C(=O)OCOC(=O)OC(=O)n1c(C([NH-])=O)cc2ccc(C(F)(F)F)cc21 (optimized conformer: 81.62173838448788 kcal/mol)

>  <smiles>  (81) 
CC(C)[C@H](N)C(=O)OCOC(=O)OC(=O)n1c(C(N)=O)cc2ccc(C(F)(F)F)cc21

>  <score_type>  (81) 
oracle

>  <origin>  (81) 
adg

>  <m_score__min__energy>  (81) 
-9.9199999999999999

>  <m_primary>  (81) 
energy

$$$$
83:0
     RDKit          3D

 41 43  0  0  0  0  0  0  0  0999 V2000
   -4.1610   24.4690  -27.3850 C   0  0  0  0  0  0  0  0  0  0  0  0
   -3.3520   23.2510  -27.5410 N   0  0  1  0  0  0  0  0  0  0  0  0
   -3.8670   22.3310  -28.5650 C   0  0  0  0  0  0  0  0  0  0  0  0
   -2.6290   22.4980  -29.4350 C   0  0  1  0  0  0  0  0  0  0  0  0
   -2.9020   23.1720  -30.6610 O   0  0  0  0  0  0  0  0  0  0  0  0
   -3.8350   22.6950  -31.5870 C   0  0  0  0  0  0  0  0  0  0  0  0
   -3.4480   22.1420  -32.6530 O   0  0  0  0  0  0  0  0  0  0  0  0
   -5.2380   22.8750  -31.3430 N   0  0  0  0  0  0  0  0  0  0  0  0
   -5.8740   24.0100  -30.9370 C   0  0  0  0  0  0  0  0  0  0  0  0
   -5.2170   25.2450  -30.4650 C   0  0  0  0  0  0  0  0  0  0  0  0
   -3.8800   25.5520  -30.8460 N   0  0  0  0  0  0  0  0  0  0  0  0
   -5.8250   26.0100  -29.6680 O   0  0  0  0  0  0  0  0  0  0  0  0
   -7.2540   23.8230  -30.9320 C   0  0  0  0  0  0  0  0  0  0  0  0
   -7.4470   22.5250  -31.3440 C   0  0  0  0  0  0  0  0  0  0  0  0
   -8.6280   21.8110  -31.5280 C   0  0  0  0  0  0  0  0  0  0  0  0
   -8.5310   20.4870  -31.9880 C   0  0  0  0  0  0  0  0  0  0  0  0
   -7.2670   19.9110  -32.2710 C   0  0  0  0  0  0  0  0  0  0  0  0
   -7.1760   18.4850  -32.7510 C   0  0  0  0  0  0  0  0  0  0  0  0
   -6.0950   18.3220  -33.8200 C   0  0  0  0  0  0  0  0  0  0  0  0
   -6.1250   19.3910  -34.7000 F   0  0  0  0  0  0  0  0  0  0  0  0
   -4.8450   18.2490  -33.2320 F   0  0  0  0  0  0  0  0  0  0  0  0
   -6.3240   17.1570  -34.5280 F   0  0  0  0  0  0  0  0  0  0  0  0
   -6.0900   20.6650  -32.0650 C   0  0  0  0  0  0  0  0  0  0  0  0
   -6.2160   21.9740  -31.5880 C   0  0  0  0  0  0  0  0  0  0  0  0
   -2.1440   23.4520  -28.3550 C   0  0  0  0  0  0  0  0  0  0  0  0
   -4.3018   24.6811  -26.3149 H   0  0  0  0  0  0  0  0  0  0  0  0
   -3.6450   25.3155  -27.8617 H   0  0  0  0  0  0  0  0  0  0  0  0
   -5.1413   24.3216  -27.8617 H   0  0  0  0  0  0  0  0  0  0  0  0
   -3.1500   22.7690  -26.6320 H   0  0  0  0  0  0  0  0  0  0  0  0
   -4.7919   22.6824  -29.0456 H   0  0  0  0  0  0  0  0  0  0  0  0
   -4.1767   21.3187  -28.2660 H   0  0  0  0  0  0  0  0  0  0  0  0
   -2.0380   21.6444  -29.7984 H   0  0  0  0  0  0  0  0  0  0  0  0
   -3.0740   25.2900  -30.2360 H   0  0  0  0  0  0  0  0  0  0  0  0
   -8.0256   24.5572  -30.6570 H   0  0  0  0  0  0  0  0  0  0  0  0
   -9.6062   22.2690  -31.3198 H   0  0  0  0  0  0  0  0  0  0  0  0
   -9.4449   19.8915  -32.1300 H   0  0  0  0  0  0  0  0  0  0  0  0
   -6.9351   17.8350  -31.8969 H   0  0  0  0  0  0  0  0  0  0  0  0
   -8.1440   18.2071  -33.1935 H   0  0  0  0  0  0  0  0  0  0  0  0
   -5.0999   20.2338  -32.2743 H   0  0  0  0  0  0  0  0  0  0  0  0
   -2.0194   24.4866  -28.7072 H   0  0  0  0  0  0  0  0  0  0  0  0
   -1.1582   23.2827  -27.8973 H   0  0  0  0  0  0  0  0  0  0  0  0
  1  2  1  0
  2  3  1  0
  3  4  1  0
  4  5  1  0
  5  6  1  0
  6  7  2  0
  6  8  1  0
  8  9  1  0
  9 10  1  0
 10 11  1  0
 10 12  2  0
  9 13  2  0
 13 14  1  0
 14 15  2  0
 15 16  1  0
 16 17  2  0
 17 18  1  0
 18 19  1  0
 19 20  1  0
 19 21  1  0
 19 22  1  0
 17 23  1  0
 23 24  2  0
  4 25  1  0
 25  2  1  0
 24  8  1  0
 24 14  1  0
  1 26  1  0
  1 27  1  0
  1 28  1  0
  2 29  1  1
  3 30  1  0
  3 31  1  0
  4 32  1  6
 11 33  1  0
 13 34  1  0
 15 35  1  0
 16 36  1  0
 18 37  1  0
 18 38  1  0
 23 39  1  0
 25 40  1  0
 25 41  1  0
M  CHG  2   2   1  11  -1
M  END
>  <UniqueID>  (82) 
80

>  <SMILES>  (82) 
C[NH+]1CC(OC(=O)n2c(C([NH-])=O)cc3ccc(CC(F)(F)F)cc32)C1

>  <Energy>  (82) 
148.3012434177535

>  <Genealogy>  (82) 
C[NH+]1CC(OC(=O)n2c(C([NH-])=O)cc3ccc(CC(F)(F)F)cc32)C1 (protonated)
C[NH+]1CC(OC(=O)n2c(C([NH-])=O)cc3ccc(CC(F)(F)F)cc32)C1 (3D coordinates assigned)
C[NH+]1CC(OC(=O)n2c(C([NH-])=O)cc3ccc(CC(F)(F)F)cc32)C1 (nonaromatic ring conformer: 148.3012434177535 kcal/mol)

>  <smiles>  (82) 
CN1CC(OC(=O)n2c(C(N)=O)cc3ccc(CC(F)(F)F)cc32)C1

>  <score_type>  (82) 
oracle

>  <origin>  (82) 
adg

>  <m_score__min__energy>  (82) 
-9.6500000000000004

>  <m_primary>  (82) 
energy

$$$$
84:0
     RDKit          3D

 28 29  0  0  0  0  0  0  0  0999 V2000
   -3.1380   20.8840  -33.3030 C   0  0  0  0  0  0  0  0  0  0  0  0
   -3.6860   22.1700  -33.0380 O   0  0  0  0  0  0  0  0  0  0  0  0
   -3.9620   22.6190  -31.7430 C   0  0  0  0  0  0  0  0  0  0  0  0
   -3.0300   22.7460  -30.9020 O   0  0  0  0  0  0  0  0  0  0  0  0
   -5.3160   22.9130  -31.3630 N   0  0  0  0  0  0  0  0  0  0  0  0
   -5.7970   24.0510  -30.7880 C   0  0  0  0  0  0  0  0  0  0  0  0
   -5.0430   25.3040  -30.5750 C   0  0  0  0  0  0  0  0  0  0  0  0
   -3.6220   25.2960  -30.4620 N   0  0  0  0  0  0  0  0  0  0  0  0
   -5.6570   26.4040  -30.5420 O   0  0  0  0  0  0  0  0  0  0  0  0
   -7.1510   23.9120  -30.4880 C   0  0  0  0  0  0  0  0  0  0  0  0
   -7.4890   22.6470  -30.9090 C   0  0  0  0  0  0  0  0  0  0  0  0
   -8.7060   21.9750  -30.8340 C   0  0  0  0  0  0  0  0  0  0  0  0
   -8.7600   20.6560  -31.3150 C   0  0  0  0  0  0  0  0  0  0  0  0
   -7.6100   20.0360  -31.8660 C   0  0  0  0  0  0  0  0  0  0  0  0
   -7.6670   18.5990  -32.3200 C   0  0  0  0  0  0  0  0  0  0  0  0
   -6.9490   17.8160  -31.4370 F   0  0  0  0  0  0  0  0  0  0  0  0
   -8.9760   18.1510  -32.3600 F   0  0  0  0  0  0  0  0  0  0  0  0
   -7.1240   18.4650  -33.5860 F   0  0  0  0  0  0  0  0  0  0  0  0
   -6.3860   20.7440  -31.9010 C   0  0  0  0  0  0  0  0  0  0  0  0
   -6.3660   22.0640  -31.4340 C   0  0  0  0  0  0  0  0  0  0  0  0
   -2.9211   20.3749  -32.3524 H   0  0  0  0  0  0  0  0  0  0  0  0
   -3.8609   20.2893  -33.8808 H   0  0  0  0  0  0  0  0  0  0  0  0
   -2.2084   20.9935  -33.8808 H   0  0  0  0  0  0  0  0  0  0  0  0
   -3.0250   24.8940  -31.2180 H   0  0  0  0  0  0  0  0  0  0  0  0
   -7.8092   24.6557  -30.0152 H   0  0  0  0  0  0  0  0  0  0  0  0
   -9.5974   22.4615  -30.4114 H   0  0  0  0  0  0  0  0  0  0  0  0
   -9.7062   20.0974  -31.2635 H   0  0  0  0  0  0  0  0  0  0  0  0
   -5.4716   20.2690  -32.2859 H   0  0  0  0  0  0  0  0  0  0  0  0
  1  2  1  0
  2  3  1  0
  3  4  2  0
  3  5  1  0
  5  6  1  0
  6  7  1  0
  7  8  1  0
  7  9  2  0
  6 10  2  0
 10 11  1  0
 11 12  2  0
 12 13  1  0
 13 14  2  0
 14 15  1  0
 15 16  1  0
 15 17  1  0
 15 18  1  0
 14 19  1  0
 19 20  2  0
 20  5  1  0
 20 11  1  0
  1 21  1  0
  1 22  1  0
  1 23  1  0
  8 24  1  0
 10 25  1  0
 12 26  1  0
 13 27  1  0
 19 28  1  0
M  CHG  1   8  -1
M  END
>  <UniqueID>  (83) 
81

>  <SMILES>  (83) 
COC(=O)n1c(C([NH-])=O)cc2ccc(C(F)(F)F)cc21

>  <Energy>  (83) 
66.32612789578745

>  <Genealogy>  (83) 
COC(=O)n1c(C([NH-])=O)cc2ccc(C(F)(F)F)cc21 (protonated)
COC(=O)n1c(C([NH-])=O)cc2ccc(C(F)(F)F)cc21 (3D coordinates assigned)
COC(=O)n1c(C([NH-])=O)cc2ccc(C(F)(F)F)cc21 (optimized conformer: 66.32612789578745 kcal/mol)

>  <smiles>  (83) 
COC(=O)n1c(C(N)=O)cc2ccc(C(F)(F)F)cc21

>  <score_type>  (83) 
oracle

>  <origin>  (83) 
adg

>  <m_score__min__energy>  (83) 
-9.0999999999999996

>  <m_primary>  (83) 
energy

$$$$
85:0
     RDKit          3D

 48 50  0  0  0  0  0  0  0  0999 V2000
   -4.1720   24.9270  -26.4870 C   0  0  0  0  0  0  0  0  0  0  0  0
   -4.1250   24.4590  -27.8760 N   0  0  0  0  0  0  0  0  0  0  0  0
   -2.8460   23.7860  -28.1490 C   0  0  0  0  0  0  0  0  0  0  0  0
   -3.0520   22.2630  -28.1350 C   0  0  0  0  0  0  0  0  0  0  0  0
   -3.3910   21.6870  -29.5220 C   0  0  0  0  0  0  0  0  0  0  0  0
   -3.8020   22.7280  -30.5290 C   0  0  0  0  0  0  0  0  0  0  0  0
   -2.9240   23.3910  -31.1530 O   0  0  0  0  0  0  0  0  0  0  0  0
   -5.1850   22.8580  -30.9010 N   0  0  0  0  0  0  0  0  0  0  0  0
   -5.9980   23.9340  -30.7180 C   0  0  0  0  0  0  0  0  0  0  0  0
   -5.5630   25.2650  -30.2680 C   0  0  0  0  0  0  0  0  0  0  0  0
   -4.2120   25.6820  -30.4710 N   0  0  0  0  0  0  0  0  0  0  0  0
   -6.3870   26.0490  -29.7130 O   0  0  0  0  0  0  0  0  0  0  0  0
   -7.3090   23.6220  -31.0740 C   0  0  0  0  0  0  0  0  0  0  0  0
   -7.2660   22.3110  -31.4940 C   0  0  0  0  0  0  0  0  0  0  0  0
   -8.2830   21.4850  -31.9570 C   0  0  0  0  0  0  0  0  0  0  0  0
   -7.9540   20.1610  -32.2960 C   0  0  0  0  0  0  0  0  0  0  0  0
   -6.6220   19.6770  -32.1500 C   0  0  0  0  0  0  0  0  0  0  0  0
   -6.2870   18.2660  -32.4960 C   0  0  0  0  0  0  0  0  0  0  0  0
   -6.2760   17.8340  -33.8350 C   0  0  0  0  0  0  0  0  0  0  0  0
   -5.9560   16.5130  -34.1470 C   0  0  0  0  0  0  0  0  0  0  0  0
   -5.6580   15.6060  -33.1140 C   0  0  0  0  0  0  0  0  0  0  0  0
   -5.2800   14.1770  -33.4100 C   0  0  0  0  0  0  0  0  0  0  0  0
   -4.8510   13.5120  -32.2700 F   0  0  0  0  0  0  0  0  0  0  0  0
   -6.3790   13.5140  -33.9290 F   0  0  0  0  0  0  0  0  0  0  0  0
   -4.2590   14.1530  -34.3440 F   0  0  0  0  0  0  0  0  0  0  0  0
   -5.6640   16.0430  -31.8190 N   0  0  0  0  0  0  0  0  0  0  0  0
   -5.9730   17.3290  -31.4940 C   0  0  0  0  0  0  0  0  0  0  0  0
   -5.6190   20.5550  -31.6710 C   0  0  0  0  0  0  0  0  0  0  0  0
   -5.9750   21.8730  -31.3720 C   0  0  0  0  0  0  0  0  0  0  0  0
   -4.0856   24.0666  -25.8071 H   0  0  0  0  0  0  0  0  0  0  0  0
   -3.3392   25.6225  -26.3060 H   0  0  0  0  0  0  0  0  0  0  0  0
   -5.1265   25.4430  -26.3060 H   0  0  0  0  0  0  0  0  0  0  0  0
   -4.1910   25.3030  -28.5010 H   0  0  0  0  0  0  0  0  0  0  0  0
   -2.4726   24.0959  -29.1362 H   0  0  0  0  0  0  0  0  0  0  0  0
   -2.1148   24.0630  -27.3753 H   0  0  0  0  0  0  0  0  0  0  0  0
   -2.1275   21.7879  -27.7750 H   0  0  0  0  0  0  0  0  0  0  0  0
   -3.9066   22.0535  -27.4749 H   0  0  0  0  0  0  0  0  0  0  0  0
   -2.5030   21.1640  -29.9067 H   0  0  0  0  0  0  0  0  0  0  0  0
   -4.2509   21.0143  -29.3878 H   0  0  0  0  0  0  0  0  0  0  0  0
   -3.5140   25.6320  -29.6970 H   0  0  0  0  0  0  0  0  0  0  0  0
   -8.1886   24.2810  -31.0292 H   0  0  0  0  0  0  0  0  0  0  0  0
   -9.3139   21.8558  -32.0552 H   0  0  0  0  0  0  0  0  0  0  0  0
   -8.7361   19.4891  -32.6794 H   0  0  0  0  0  0  0  0  0  0  0  0
   -6.5212   18.5422  -34.6402 H   0  0  0  0  0  0  0  0  0  0  0  0
   -5.9367   16.1819  -35.1958 H   0  0  0  0  0  0  0  0  0  0  0  0
   -5.4290   15.3780  -31.0440 H   0  0  0  0  0  0  0  0  0  0  0  0
   -5.9772   17.6382  -30.4384 H   0  0  0  0  0  0  0  0  0  0  0  0
   -4.5839   20.2075  -31.5374 H   0  0  0  0  0  0  0  0  0  0  0  0
  1  2  1  0
  2  3  1  0
  3  4  1  0
  4  5  1  0
  5  6  1  0
  6  7  2  0
  6  8  1  0
  8  9  1  0
  9 10  1  0
 10 11  1  0
 10 12  2  0
  9 13  2  0
 13 14  1  0
 14 15  2  0
 15 16  1  0
 16 17  2  0
 17 18  1  0
 18 19  2  0
 19 20  1  0
 20 21  2  0
 21 22  1  0
 22 23  1  0
 22 24  1  0
 22 25  1  0
 21 26  1  0
 26 27  2  0
 17 28  1  0
 28 29  2  0
 29  8  1  0
 29 14  1  0
 27 18  1  0
  1 30  1  0
  1 31  1  0
  1 32  1  0
  2 33  1  0
  3 34  1  0
  3 35  1  0
  4 36  1  0
  4 37  1  0
  5 38  1  0
  5 39  1  0
 11 40  1  0
 13 41  1  0
 15 42  1  0
 16 43  1  0
 19 44  1  0
 20 45  1  0
 26 46  1  0
 27 47  1  0
 28 48  1  0
M  CHG  2  11  -1  26   1
M  END
>  <UniqueID>  (84) 
82

>  <SMILES>  (84) 
CNCCCC(=O)n1c(C([NH-])=O)cc2ccc(-c3ccc(C(F)(F)F)[nH+]c3)cc21

>  <Energy>  (84) 
92.73882885363335

>  <Genealogy>  (84) 
CNCCCC(=O)n1c(C([NH-])=O)cc2ccc(-c3ccc(C(F)(F)F)[nH+]c3)cc21 (protonated)
CNCCCC(=O)n1c(C([NH-])=O)cc2ccc(-c3ccc(C(F)(F)F)[nH+]c3)cc21 (3D coordinates assigned)
CNCCCC(=O)n1c(C([NH-])=O)cc2ccc(-c3ccc(C(F)(F)F)[nH+]c3)cc21 (optimized conformer: 92.73882885363335 kcal/mol)

>  <smiles>  (84) 
CNCCCC(=O)n1c(C(N)=O)cc2ccc(-c3ccc(C(F)(F)F)nc3)cc21

>  <score_type>  (84) 
oracle

>  <origin>  (84) 
adg

>  <m_score__min__energy>  (84) 
-10.51

>  <m_primary>  (84) 
energy

$$$$
86:0
     RDKit          3D

 35 36  0  0  0  0  0  0  0  0999 V2000
    2.6410   20.7080  -35.6090 C   0  0  0  0  0  0  0  0  0  0  0  0
    1.2720   21.2080  -35.4710 N   0  0  0  0  0  0  0  0  0  0  0  0
    0.2320   20.3620  -34.8720 C   0  0  0  0  0  0  0  0  0  0  0  0
    0.0320   20.7270  -33.3990 C   0  0  0  0  0  0  0  0  0  0  0  0
   -1.4300   20.8980  -33.0900 C   0  0  0  0  0  0  0  0  0  0  0  0
   -2.3890   20.0540  -33.7040 C   0  0  0  0  0  0  0  0  0  0  0  0
   -3.7580   20.2160  -33.4380 C   0  0  0  0  0  0  0  0  0  0  0  0
   -4.1390   21.2370  -32.5720 C   0  0  0  0  0  0  0  0  0  0  0  0
   -5.3890   21.5910  -32.1210 C   0  0  0  0  0  0  0  0  0  0  0  0
   -5.1790   22.6740  -31.2720 C   0  0  0  0  0  0  0  0  0  0  0  0
   -6.2770   23.4100  -30.6110 C   0  0  0  0  0  0  0  0  0  0  0  0
   -6.0260   24.2570  -29.4890 N   0  0  0  0  0  0  0  0  0  0  0  0
   -7.4430   23.3320  -31.0790 O   0  0  0  0  0  0  0  0  0  0  0  0
   -3.8520   22.9720  -31.1870 N   0  0  0  0  0  0  0  0  0  0  0  0
   -3.2270   23.9430  -30.3310 C   0  0  0  0  0  0  0  0  0  0  0  0
   -2.4230   23.5750  -29.4330 O   0  0  0  0  0  0  0  0  0  0  0  0
   -3.4990   25.2970  -30.4830 O   0  0  0  0  0  0  0  0  0  0  0  0
   -3.2270   22.0830  -31.9920 C   0  0  0  0  0  0  0  0  0  0  0  0
   -1.8540   21.9300  -32.2230 C   0  0  0  0  0  0  0  0  0  0  0  0
    0.9640   22.5420  -35.9200 C   0  0  0  0  0  0  0  0  0  0  0  0
   -0.0540   23.1450  -35.4860 O   0  0  0  0  0  0  0  0  0  0  0  0
    1.7860   23.1790  -36.8410 O   0  0  0  0  0  0  0  0  0  0  0  0
    3.0757   20.5492  -34.6111 H   0  0  0  0  0  0  0  0  0  0  0  0
    2.6298   19.7559  -36.1598 H   0  0  0  0  0  0  0  0  0  0  0  0
    3.2461   21.4432  -36.1598 H   0  0  0  0  0  0  0  0  0  0  0  0
   -0.7135   20.5109  -35.4142 H   0  0  0  0  0  0  0  0  0  0  0  0
    0.5443   19.3095  -34.9402 H   0  0  0  0  0  0  0  0  0  0  0  0
    0.4433   19.9248  -32.7687 H   0  0  0  0  0  0  0  0  0  0  0  0
    0.5510   21.6752  -33.1949 H   0  0  0  0  0  0  0  0  0  0  0  0
   -2.0577   19.2650  -34.3951 H   0  0  0  0  0  0  0  0  0  0  0  0
   -4.5069   19.5560  -33.9000 H   0  0  0  0  0  0  0  0  0  0  0  0
   -6.3493   21.1193  -32.3765 H   0  0  0  0  0  0  0  0  0  0  0  0
   -6.8190   24.7400  -29.0120 H   0  0  0  0  0  0  0  0  0  0  0  0
   -5.0530   24.4770  -29.1850 H   0  0  0  0  0  0  0  0  0  0  0  0
   -1.1238   22.5969  -31.7413 H   0  0  0  0  0  0  0  0  0  0  0  0
  1  2  1  0
  2  3  1  0
  3  4  1  0
  4  5  1  0
  5  6  2  0
  6  7  1  0
  7  8  2  0
  8  9  1  0
  9 10  2  0
 10 11  1  0
 11 12  1  0
 11 13  2  0
 10 14  1  0
 14 15  1  0
 15 16  2  0
 15 17  1  0
 14 18  1  0
 18 19  2  0
  2 20  1  0
 20 21  2  0
 20 22  1  0
 19  5  1  0
 18  8  1  0
  1 23  1  0
  1 24  1  0
  1 25  1  0
  3 26  1  0
  3 27  1  0
  4 28  1  0
  4 29  1  0
  6 30  1  0
  7 31  1  0
  9 32  1  0
 12 33  1  0
 12 34  1  0
 19 35  1  0
M  CHG  2  17  -1  22  -1
M  END
>  <UniqueID>  (85) 
83

>  <SMILES>  (85) 
CN(CCc1ccc2cc(C(N)=O)n(C(=O)[O-])c2c1)C(=O)[O-]

>  <Energy>  (85) 
69.79530831299508

>  <Genealogy>  (85) 
CN(CCc1ccc2cc(C(N)=O)n(C(=O)[O-])c2c1)C(=O)[O-] (protonated)
CN(CCc1ccc2cc(C(N)=O)n(C(=O)[O-])c2c1)C(=O)[O-] (3D coordinates assigned)
CN(CCc1ccc2cc(C(N)=O)n(C(=O)[O-])c2c1)C(=O)[O-] (optimized conformer: 69.79530831299508 kcal/mol)

>  <smiles>  (85) 
CN(CCc1ccc2cc(C(N)=O)n(C(=O)O)c2c1)C(=O)O

>  <score_type>  (85) 
oracle

>  <origin>  (85) 
adg

>  <m_score__min__energy>  (85) 
-9.4399999999999995

>  <m_primary>  (85) 
energy

$$$$
87:0
     RDKit          3D

 32 33  0  0  0  0  0  0  0  0999 V2000
   -1.6010   25.6870  -29.0170 N   0  0  0  0  0  0  0  0  0  0  0  0
   -1.0700   24.3750  -29.1850 C   0  0  0  0  0  0  0  0  0  0  0  0
   -0.0030   24.0610  -28.5900 O   0  0  0  0  0  0  0  0  0  0  0  0
   -1.7800   23.3640  -29.9950 C   0  0  0  0  0  0  0  0  0  0  0  0
   -1.1820   22.1910  -30.4500 C   0  0  0  0  0  0  0  0  0  0  0  0
   -2.1870   21.4870  -31.0720 C   0  0  0  0  0  0  0  0  0  0  0  0
   -2.1500   20.2510  -31.7110 C   0  0  0  0  0  0  0  0  0  0  0  0
   -3.3380   19.7730  -32.2900 C   0  0  0  0  0  0  0  0  0  0  0  0
   -4.5300   20.5380  -32.2280 C   0  0  0  0  0  0  0  0  0  0  0  0
   -5.8020   20.0100  -32.8380 C   0  0  0  0  0  0  0  0  0  0  0  0
   -6.9850   20.9760  -32.6570 C   0  0  0  0  0  0  0  0  0  0  0  0
   -8.3000   20.2660  -32.3000 C   0  0  0  0  0  0  0  0  0  0  0  0
   -8.4300   19.0060  -33.0250 N   0  0  0  0  0  0  0  0  0  0  0  0
   -4.5280   21.7880  -31.5700 C   0  0  0  0  0  0  0  0  0  0  0  0
   -3.3360   22.2300  -30.9860 C   0  0  0  0  0  0  0  0  0  0  0  0
   -3.1010   23.3890  -30.3290 N   0  0  0  0  0  0  0  0  0  0  0  0
   -4.0380   24.4580  -30.1250 C   0  0  0  0  0  0  0  0  0  0  0  0
   -5.0290   24.3000  -29.3640 O   0  0  0  0  0  0  0  0  0  0  0  0
   -3.8770   25.6680  -30.7880 O   0  0  0  0  0  0  0  0  0  0  0  0
   -2.6310   25.8470  -28.9820 H   0  0  0  0  0  0  0  0  0  0  0  0
   -0.1297   21.8913  -30.3361 H   0  0  0  0  0  0  0  0  0  0  0  0
   -1.2196   19.6664  -31.7613 H   0  0  0  0  0  0  0  0  0  0  0  0
   -3.3430   18.7963  -32.7960 H   0  0  0  0  0  0  0  0  0  0  0  0
   -5.6379   19.8504  -33.9139 H   0  0  0  0  0  0  0  0  0  0  0  0
   -6.0550   19.0706  -32.3247 H   0  0  0  0  0  0  0  0  0  0  0  0
   -6.7391   21.6819  -31.8500 H   0  0  0  0  0  0  0  0  0  0  0  0
   -7.1404   21.4850  -33.6197 H   0  0  0  0  0  0  0  0  0  0  0  0
   -8.3163   20.0620  -31.2192 H   0  0  0  0  0  0  0  0  0  0  0  0
   -9.1382   20.9199  -32.5825 H   0  0  0  0  0  0  0  0  0  0  0  0
   -9.3690   18.9860  -33.4850 H   0  0  0  0  0  0  0  0  0  0  0  0
   -7.7200   19.0050  -33.7940 H   0  0  0  0  0  0  0  0  0  0  0  0
   -5.4413   22.3989  -31.5181 H   0  0  0  0  0  0  0  0  0  0  0  0
  1  2  1  0
  2  3  2  0
  2  4  1  0
  4  5  2  0
  5  6  1  0
  6  7  2  0
  7  8  1  0
  8  9  2  0
  9 10  1  0
 10 11  1  0
 11 12  1  0
 12 13  1  0
  9 14  1  0
 14 15  2  0
 15 16  1  0
 16 17  1  0
 17 18  2  0
 17 19  1  0
 16  4  1  0
 15  6  1  0
  1 20  1  0
  5 21  1  0
  7 22  1  0
  8 23  1  0
 10 24  1  0
 10 25  1  0
 11 26  1  0
 11 27  1  0
 12 28  1  0
 12 29  1  0
 13 30  1  0
 13 31  1  0
 14 32  1  0
M  CHG  2   1  -1  19  -1
M  END
>  <UniqueID>  (86) 
84

>  <SMILES>  (86) 
[NH-]C(=O)c1cc2ccc(CCCN)cc2n1C(=O)[O-]

>  <Energy>  (86) 
67.01108399167016

>  <Genealogy>  (86) 
[NH-]C(=O)c1cc2ccc(CCCN)cc2n1C(=O)[O-] (protonated)
[NH-]C(=O)c1cc2ccc(CCCN)cc2n1C(=O)[O-] (3D coordinates assigned)
[NH-]C(=O)c1cc2ccc(CCCN)cc2n1C(=O)[O-] (optimized conformer: 67.01108399167016 kcal/mol)

>  <smiles>  (86) 
NCCCc1ccc2cc(C(N)=O)n(C(=O)O)c2c1

>  <score_type>  (86) 
oracle

>  <origin>  (86) 
adg

>  <m_score__min__energy>  (86) 
-10.710000000000001

>  <m_primary>  (86) 
energy

$$$$
88:0
     RDKit          3D

 26 27  0  0  0  0  0  0  0  0999 V2000
   -1.6060   25.5900  -28.9840 N   0  0  0  0  0  0  0  0  0  0  0  0
   -0.8830   24.3670  -29.1160 C   0  0  0  0  0  0  0  0  0  0  0  0
    0.2480   24.2590  -28.5730 O   0  0  0  0  0  0  0  0  0  0  0  0
   -1.4550   23.2550  -29.9030 C   0  0  0  0  0  0  0  0  0  0  0  0
   -0.6900   22.2640  -30.5180 C   0  0  0  0  0  0  0  0  0  0  0  0
   -1.5990   21.4110  -31.1010 C   0  0  0  0  0  0  0  0  0  0  0  0
   -1.3920   20.2630  -31.8610 C   0  0  0  0  0  0  0  0  0  0  0  0
   -2.5200   19.5960  -32.3670 C   0  0  0  0  0  0  0  0  0  0  0  0
   -3.8250   20.0880  -32.1120 C   0  0  0  0  0  0  0  0  0  0  0  0
   -5.0170   19.3690  -32.6770 C   0  0  0  0  0  0  0  0  0  0  0  0
   -4.7090   18.8660  -33.9280 F   0  0  0  0  0  0  0  0  0  0  0  0
   -5.3720   18.3260  -31.8400 F   0  0  0  0  0  0  0  0  0  0  0  0
   -3.9950   21.2580  -31.3400 C   0  0  0  0  0  0  0  0  0  0  0  0
   -2.8540   21.8910  -30.8340 C   0  0  0  0  0  0  0  0  0  0  0  0
   -2.7830   23.0190  -30.0950 N   0  0  0  0  0  0  0  0  0  0  0  0
   -3.8870   23.8320  -29.6700 C   0  0  0  0  0  0  0  0  0  0  0  0
   -4.3310   23.7150  -28.4960 O   0  0  0  0  0  0  0  0  0  0  0  0
   -4.5120   24.7960  -30.5870 C   0  0  0  0  0  0  0  0  0  0  0  0
   -4.2390   26.0220  -30.5050 O   0  0  0  0  0  0  0  0  0  0  0  0
   -5.3970   24.3560  -31.5620 O   0  0  0  0  0  0  0  0  0  0  0  0
   -2.5970   25.6640  -29.3050 H   0  0  0  0  0  0  0  0  0  0  0  0
    0.4068   22.1818  -30.5337 H   0  0  0  0  0  0  0  0  0  0  0  0
   -0.3764   19.8898  -32.0591 H   0  0  0  0  0  0  0  0  0  0  0  0
   -2.3895   18.6832  -32.9668 H   0  0  0  0  0  0  0  0  0  0  0  0
   -5.8563   20.0750  -32.7615 H   0  0  0  0  0  0  0  0  0  0  0  0
   -4.9988   21.6617  -31.1413 H   0  0  0  0  0  0  0  0  0  0  0  0
  1  2  1  0
  2  3  2  0
  2  4  1  0
  4  5  2  0
  5  6  1  0
  6  7  2  0
  7  8  1  0
  8  9  2  0
  9 10  1  0
 10 11  1  0
 10 12  1  0
  9 13  1  0
 13 14  2  0
 14 15  1  0
 15 16  1  0
 16 17  2  0
 16 18  1  0
 18 19  2  0
 18 20  1  0
 15  4  1  0
 14  6  1  0
  1 21  1  0
  5 22  1  0
  7 23  1  0
  8 24  1  0
 10 25  1  0
 13 26  1  0
M  CHG  2   1  -1  20  -1
M  END
>  <UniqueID>  (87) 
85

>  <SMILES>  (87) 
[NH-]C(=O)c1cc2ccc(C(F)F)cc2n1C(=O)C(=O)[O-]

>  <Energy>  (87) 
65.25488078393492

>  <Genealogy>  (87) 
[NH-]C(=O)c1cc2ccc(C(F)F)cc2n1C(=O)C(=O)[O-] (protonated)
[NH-]C(=O)c1cc2ccc(C(F)F)cc2n1C(=O)C(=O)[O-] (3D coordinates assigned)
[NH-]C(=O)c1cc2ccc(C(F)F)cc2n1C(=O)C(=O)[O-] (optimized conformer: 65.25488078393492 kcal/mol)

>  <smiles>  (87) 
NC(=O)c1cc2ccc(C(F)F)cc2n1C(=O)C(=O)O

>  <score_type>  (87) 
oracle

>  <origin>  (87) 
adg

>  <m_score__min__energy>  (87) 
-9.5099999999999998

>  <m_primary>  (87) 
energy

$$$$
89:0
     RDKit          3D

 44 46  0  0  0  0  0  0  0  0999 V2000
   -7.5710   18.3180  -32.4780 C   0  0  0  0  0  0  0  0  0  0  0  0
   -7.5300   19.7630  -32.0770 C   0  0  0  0  0  0  0  0  0  0  0  0
   -8.7200   20.5340  -32.0780 C   0  0  0  0  0  0  0  0  0  0  0  0
   -8.6880   21.8990  -31.7500 C   0  0  0  0  0  0  0  0  0  0  0  0
   -7.4560   22.4640  -31.4270 C   0  0  0  0  0  0  0  0  0  0  0  0
   -7.1380   23.7620  -31.0980 C   0  0  0  0  0  0  0  0  0  0  0  0
   -5.7610   23.7610  -30.8900 C   0  0  0  0  0  0  0  0  0  0  0  0
   -5.0060   24.9480  -30.4430 C   0  0  0  0  0  0  0  0  0  0  0  0
   -3.6420   24.8450  -30.0310 N   0  0  0  0  0  0  0  0  0  0  0  0
   -5.5900   26.0610  -30.3710 O   0  0  0  0  0  0  0  0  0  0  0  0
   -5.2440   22.5160  -31.0950 N   0  0  0  0  0  0  0  0  0  0  0  0
   -3.8580   22.1370  -31.0980 C   0  0  0  0  0  0  0  0  0  0  0  0
   -3.0290   22.7910  -31.7870 O   0  0  0  0  0  0  0  0  0  0  0  0
   -3.4220   21.0250  -30.3010 N   0  0  0  0  0  0  0  0  0  0  0  0
   -2.3810   21.0570  -29.2690 C   0  0  2  0  0  0  0  0  0  0  0  0
   -2.9600   21.1890  -27.8610 C   0  0  0  0  0  0  0  0  0  0  0  0
   -2.3570   22.4690  -27.3030 C   0  0  0  0  0  0  0  0  0  0  0  0
   -1.1620   22.7530  -28.0980 N   0  0  0  0  0  0  0  0  0  0  0  0
   -0.7660   24.4550  -28.1000 S   0  0  0  0  0  0  0  0  0  0  0  0
   -1.4220   25.3380  -26.6910 C   0  0  0  0  0  0  0  0  0  0  0  0
   -1.3190   25.0800  -29.3490 O   0  0  0  0  0  0  0  0  0  0  0  0
    0.7280   24.6110  -28.1070 O   0  0  0  0  0  0  0  0  0  0  0  0
   -1.4290   22.2400  -29.4420 C   0  0  0  0  0  0  0  0  0  0  0  0
   -6.2960   21.7320  -31.4190 C   0  0  0  0  0  0  0  0  0  0  0  0
   -6.2970   20.3740  -31.7640 C   0  0  0  0  0  0  0  0  0  0  0  0
   -7.5889   17.6877  -31.5767 H   0  0  0  0  0  0  0  0  0  0  0  0
   -8.4749   18.1288  -33.0757 H   0  0  0  0  0  0  0  0  0  0  0  0
   -6.6793   18.0779  -33.0757 H   0  0  0  0  0  0  0  0  0  0  0  0
   -9.6772   20.0584  -32.3381 H   0  0  0  0  0  0  0  0  0  0  0  0
   -9.6070   22.5035  -31.7481 H   0  0  0  0  0  0  0  0  0  0  0  0
   -7.8248   24.6174  -31.0167 H   0  0  0  0  0  0  0  0  0  0  0  0
   -3.1820   23.9160  -29.9180 H   0  0  0  0  0  0  0  0  0  0  0  0
   -3.1140   25.7000  -29.7500 H   0  0  0  0  0  0  0  0  0  0  0  0
   -1.8498   20.1011  -29.3879 H   0  0  0  0  0  0  0  0  0  0  0  0
   -4.0568   21.2638  -27.8999 H   0  0  0  0  0  0  0  0  0  0  0  0
   -2.7248   20.3156  -27.2351 H   0  0  0  0  0  0  0  0  0  0  0  0
   -3.0763   23.2966  -27.3911 H   0  0  0  0  0  0  0  0  0  0  0  0
   -2.1058   22.3562  -26.2380 H   0  0  0  0  0  0  0  0  0  0  0  0
   -1.0691   24.8629  -25.7638 H   0  0  0  0  0  0  0  0  0  0  0  0
   -1.0794   26.3828  -26.7211 H   0  0  0  0  0  0  0  0  0  0  0  0
   -2.5213   25.3116  -26.7211 H   0  0  0  0  0  0  0  0  0  0  0  0
   -1.8983   23.0191  -30.0607 H   0  0  0  0  0  0  0  0  0  0  0  0
   -0.4996   21.9347  -29.9451 H   0  0  0  0  0  0  0  0  0  0  0  0
   -5.3600   19.7984  -31.7902 H   0  0  0  0  0  0  0  0  0  0  0  0
  1  2  1  0
  2  3  2  0
  3  4  1  0
  4  5  2  0
  5  6  1  0
  6  7  2  0
  7  8  1  0
  8  9  1  0
  8 10  2  0
  7 11  1  0
 11 12  1  0
 12 13  2  0
 12 14  1  0
 14 15  1  0
 15 16  1  0
 16 17  1  0
 17 18  1  0
 18 19  1  0
 19 20  1  0
 19 21  2  0
 19 22  2  0
 18 23  1  0
 11 24  1  0
 24 25  2  0
 25  2  1  0
 24  5  1  0
 23 15  1  0
  1 26  1  0
  1 27  1  0
  1 28  1  0
  3 29  1  0
  4 30  1  0
  6 31  1  0
  9 32  1  0
  9 33  1  0
 15 34  1  1
 16 35  1  0
 16 36  1  0
 17 37  1  0
 17 38  1  0
 20 39  1  0
 20 40  1  0
 20 41  1  0
 23 42  1  0
 23 43  1  0
 25 44  1  0
M  CHG  1  14  -1
M  END
>  <UniqueID>  (88) 
86

>  <SMILES>  (88) 
Cc1ccc2cc(C(N)=O)n(C(=O)[N-][C@@H]3CCN(S(C)(=O)=O)C3)c2c1

>  <Energy>  (88) 
81.34517333595774

>  <Genealogy>  (88) 
Cc1ccc2cc(C(N)=O)n(C(=O)[N-][C@@H]3CCN(S(C)(=O)=O)C3)c2c1 (protonated)
Cc1ccc2cc(C(N)=O)n(C(=O)[N-][C@@H]3CCN(S(C)(=O)=O)C3)c2c1 (3D coordinates assigned)
Cc1ccc2cc(C(N)=O)n(C(=O)[N-][C@@H]3CCN(S(C)(=O)=O)C3)c2c1 (nonaromatic ring conformer: 81.34517333595774 kcal/mol)

>  <smiles>  (88) 
Cc1ccc2cc(C(N)=O)n(C(=O)N[C@@H]3CCN(S(C)(=O)=O)C3)c2c1

>  <score_type>  (88) 
oracle

>  <origin>  (88) 
adg

>  <m_score__min__energy>  (88) 
-10.710000000000001

>  <m_primary>  (88) 
energy

$$$$
90:0
     RDKit          3D

 44 47  0  0  0  0  0  0  0  0999 V2000
   -6.2300   17.2840  -30.8020 C   0  0  0  0  0  0  0  0  0  0  0  0
   -5.8180   17.1940  -32.2480 C   0  0  0  0  0  0  0  0  0  0  0  0
   -5.3850   15.9620  -32.7620 C   0  0  0  0  0  0  0  0  0  0  0  0
   -5.0280   15.8450  -34.0690 N   0  0  0  0  0  0  0  0  0  0  0  0
   -5.0750   16.9060  -34.9160 C   0  0  0  0  0  0  0  0  0  0  0  0
   -5.4820   18.1560  -34.4530 C   0  0  0  0  0  0  0  0  0  0  0  0
   -5.8420   18.3180  -33.1080 C   0  0  0  0  0  0  0  0  0  0  0  0
   -6.2470   19.6600  -32.6350 C   0  0  0  0  0  0  0  0  0  0  0  0
   -7.5880   20.0970  -32.7780 C   0  0  0  0  0  0  0  0  0  0  0  0
   -7.9790   21.3680  -32.3250 C   0  0  0  0  0  0  0  0  0  0  0  0
   -7.0110   22.1770  -31.7350 C   0  0  0  0  0  0  0  0  0  0  0  0
   -7.1140   23.4420  -31.2010 C   0  0  0  0  0  0  0  0  0  0  0  0
   -5.8340   23.7570  -30.7470 C   0  0  0  0  0  0  0  0  0  0  0  0
   -5.4720   25.0500  -30.1330 C   0  0  0  0  0  0  0  0  0  0  0  0
   -4.2380   25.6790  -30.4740 N   0  0  0  0  0  0  0  0  0  0  0  0
   -6.2340   25.6010  -29.2950 O   0  0  0  0  0  0  0  0  0  0  0  0
   -4.9760   22.7290  -30.9960 N   0  0  0  0  0  0  0  0  0  0  0  0
   -3.5920   22.6340  -30.6280 C   0  0  0  0  0  0  0  0  0  0  0  0
   -2.7170   23.1430  -31.3780 O   0  0  0  0  0  0  0  0  0  0  0  0
   -3.1780   21.9800  -29.3720 C   0  0  0  0  0  0  0  0  0  0  0  0
   -2.6990   20.6910  -29.2440 C   0  0  0  0  0  0  0  0  0  0  0  0
   -2.4460   20.4680  -27.9410 N   0  0  0  0  0  0  0  0  0  0  0  0
   -1.9900   19.2100  -27.3660 C   0  0  0  0  0  0  0  0  0  0  0  0
   -2.7680   21.5320  -27.2230 N   0  0  0  0  0  0  0  0  0  0  0  0
   -3.2090   22.4760  -28.0760 C   0  0  0  0  0  0  0  0  0  0  0  0
   -3.8160   24.0340  -27.5450 Cl  0  0  0  0  0  0  0  0  0  0  0  0
   -5.7120   21.7670  -31.5910 C   0  0  0  0  0  0  0  0  0  0  0  0
   -5.2970   20.5010  -32.0160 C   0  0  0  0  0  0  0  0  0  0  0  0
   -5.3576   17.0934  -30.1596 H   0  0  0  0  0  0  0  0  0  0  0  0
   -6.6250   18.2896  -30.5952 H   0  0  0  0  0  0  0  0  0  0  0  0
   -7.0083   16.5347  -30.5952 H   0  0  0  0  0  0  0  0  0  0  0  0
   -5.3339   15.0835  -32.1020 H   0  0  0  0  0  0  0  0  0  0  0  0
   -4.7150   14.9160  -34.4320 H   0  0  0  0  0  0  0  0  0  0  0  0
   -4.7909   16.7782  -35.9709 H   0  0  0  0  0  0  0  0  0  0  0  0
   -5.5206   19.0132  -35.1413 H   0  0  0  0  0  0  0  0  0  0  0  0
   -8.3296   19.4344  -33.2482 H   0  0  0  0  0  0  0  0  0  0  0  0
   -9.0177   21.7136  -32.4330 H   0  0  0  0  0  0  0  0  0  0  0  0
   -8.0149   24.0706  -31.1446 H   0  0  0  0  0  0  0  0  0  0  0  0
   -3.4080   25.1120  -30.7550 H   0  0  0  0  0  0  0  0  0  0  0  0
   -2.5503   19.9724  -30.0635 H   0  0  0  0  0  0  0  0  0  0  0  0
   -2.0147   19.2782  -26.2684 H   0  0  0  0  0  0  0  0  0  0  0  0
   -2.6498   18.3947  -27.6977 H   0  0  0  0  0  0  0  0  0  0  0  0
   -0.9610   19.0069  -27.6977 H   0  0  0  0  0  0  0  0  0  0  0  0
   -4.2581   20.1693  -31.8718 H   0  0  0  0  0  0  0  0  0  0  0  0
  1  2  1  0
  2  3  2  0
  3  4  1  0
  4  5  2  0
  5  6  1  0
  6  7  2  0
  7  8  1  0
  8  9  2  0
  9 10  1  0
 10 11  2  0
 11 12  1  0
 12 13  2  0
 13 14  1  0
 14 15  1  0
 14 16  2  0
 13 17  1  0
 17 18  1  0
 18 19  2  0
 18 20  1  0
 20 21  2  0
 21 22  1  0
 22 23  1  0
 22 24  1  0
 24 25  2  0
 25 26  1  0
 17 27  1  0
 27 28  2  0
  7  2  1  0
 28  8  1  0
 27 11  1  0
 25 20  1  0
  1 29  1  0
  1 30  1  0
  1 31  1  0
  3 32  1  0
  4 33  1  0
  5 34  1  0
  6 35  1  0
  9 36  1  0
 10 37  1  0
 12 38  1  0
 15 39  1  0
 21 40  1  0
 23 41  1  0
 23 42  1  0
 23 43  1  0
 28 44  1  0
M  CHG  2   4   1  15  -1
M  END
>  <UniqueID>  (89) 
87

>  <SMILES>  (89) 
Cc1c[nH+]ccc1-c1ccc2cc(C([NH-])=O)n(C(=O)c3cn(C)nc3Cl)c2c1

>  <Energy>  (89) 
124.13456125138498

>  <Genealogy>  (89) 
Cc1c[nH+]ccc1-c1ccc2cc(C([NH-])=O)n(C(=O)c3cn(C)nc3Cl)c2c1 (protonated)
Cc1c[nH+]ccc1-c1ccc2cc(C([NH-])=O)n(C(=O)c3cn(C)nc3Cl)c2c1 (3D coordinates assigned)
Cc1c[nH+]ccc1-c1ccc2cc(C([NH-])=O)n(C(=O)c3cn(C)nc3Cl)c2c1 (optimized conformer: 124.13456125138498 kcal/mol)

>  <smiles>  (89) 
Cc1cnccc1-c1ccc2cc(C(N)=O)n(C(=O)c3cn(C)nc3Cl)c2c1

>  <score_type>  (89) 
oracle

>  <origin>  (89) 
adg

>  <m_score__min__energy>  (89) 
-11.34

>  <m_primary>  (89) 
energy

$$$$
91:0
     RDKit          3D

 71 76  0  0  0  0  0  0  0  0999 V2000
   -3.9420   14.6710  -32.4160 C   0  0  0  0  0  0  0  0  0  0  0  0
   -4.0050   15.7300  -33.4250 N   0  0  0  0  0  0  0  0  0  0  0  0
   -3.2020   15.9200  -34.5130 C   0  0  0  0  0  0  0  0  0  0  0  0
   -2.0240   15.1480  -34.8050 N   0  0  0  0  0  0  0  0  0  0  0  0
   -1.8890   14.0710  -35.6110 C   0  0  0  0  0  0  0  0  0  0  0  0
   -0.6730   13.5060  -35.4760 N   0  0  0  0  0  0  0  0  0  0  0  0
   -0.0300   14.2290  -34.5730 N   0  0  0  0  0  0  0  0  0  0  0  0
   -0.8460   15.2120  -34.1580 C   0  0  0  0  0  0  0  0  0  0  0  0
   -3.5940   16.9550  -35.3030 N   0  0  0  0  0  0  0  0  0  0  0  0
   -4.6670   17.4350  -34.6520 C   0  0  0  0  0  0  0  0  0  0  0  0
   -5.4470   18.5230  -35.0140 C   0  0  0  0  0  0  0  0  0  0  0  0
   -6.5050   18.8700  -34.1570 C   0  0  0  0  0  0  0  0  0  0  0  0
   -6.7460   18.1590  -33.0000 N   0  0  0  0  0  0  0  0  0  0  0  0
   -7.8340   18.6070  -32.1150 C   0  0  0  0  0  0  0  0  0  0  0  0
   -7.7210   20.0830  -31.8520 C   0  0  0  0  0  0  0  0  0  0  0  0
   -8.8630   20.9140  -31.9660 C   0  0  0  0  0  0  0  0  0  0  0  0
   -8.7740   22.2900  -31.7100 C   0  0  0  0  0  0  0  0  0  0  0  0
   -7.5350   22.8070  -31.3410 C   0  0  0  0  0  0  0  0  0  0  0  0
   -7.1770   24.1020  -31.0670 C   0  0  0  0  0  0  0  0  0  0  0  0
   -5.8130   24.0600  -30.7910 C   0  0  0  0  0  0  0  0  0  0  0  0
   -5.0210   25.2820  -30.5500 C   0  0  0  0  0  0  0  0  0  0  0  0
   -3.6140   25.2980  -30.7930 N   0  0  0  0  0  0  0  0  0  0  0  0
   -5.6080   26.3470  -30.2150 O   0  0  0  0  0  0  0  0  0  0  0  0
   -5.3430   22.7780  -30.8530 N   0  0  0  0  0  0  0  0  0  0  0  0
   -4.0120   22.3150  -30.5340 C   0  0  0  0  0  0  0  0  0  0  0  0
   -3.3180   21.7260  -31.4120 O   0  0  0  0  0  0  0  0  0  0  0  0
   -3.4630   22.5540  -29.2650 O   0  0  0  0  0  0  0  0  0  0  0  0
   -2.0860   22.5900  -29.0240 C   0  0  0  0  0  0  0  0  0  0  0  0
   -1.4700   21.5590  -28.6340 O   0  0  0  0  0  0  0  0  0  0  0  0
   -1.3320   23.8490  -29.2900 C   0  0  0  0  0  0  0  0  0  0  0  0
   -1.6580   24.8620  -28.2630 N   0  0  0  0  0  0  0  0  0  0  0  0
   -2.5120   24.3970  -27.1510 C   0  0  0  0  0  0  0  0  0  0  0  0
   -3.0390   25.5120  -26.2270 C   0  0  0  0  0  0  0  0  0  0  0  0
   -1.9590   26.1800  -25.3690 C   0  0  0  0  0  0  0  0  0  0  0  0
   -0.6780   25.3350  -25.3060 C   0  0  0  0  0  0  0  0  0  0  0  0
    0.1800   25.4280  -26.5770 C   0  0  0  0  0  0  0  0  0  0  0  0
   -0.5730   25.7890  -27.8780 C   0  0  0  0  0  0  0  0  0  0  0  0
   -6.4150   22.0230  -31.2110 C   0  0  0  0  0  0  0  0  0  0  0  0
   -6.4860   20.6400  -31.4500 C   0  0  0  0  0  0  0  0  0  0  0  0
   -5.9500   17.0830  -32.6560 C   0  0  0  0  0  0  0  0  0  0  0  0
   -6.1380   16.4560  -31.5770 O   0  0  0  0  0  0  0  0  0  0  0  0
   -4.9110   16.7220  -33.5210 C   0  0  0  0  0  0  0  0  0  0  0  0
   -3.9687   15.1193  -31.4118 H   0  0  0  0  0  0  0  0  0  0  0  0
   -4.8016   13.9957  -32.5390 H   0  0  0  0  0  0  0  0  0  0  0  0
   -3.0084   14.1024  -32.5390 H   0  0  0  0  0  0  0  0  0  0  0  0
   -2.6719   13.7028  -36.2904 H   0  0  0  0  0  0  0  0  0  0  0  0
    0.9350   14.0270  -34.2280 H   0  0  0  0  0  0  0  0  0  0  0  0
   -0.5877   15.9630  -33.3969 H   0  0  0  0  0  0  0  0  0  0  0  0
   -5.2457   19.0910  -35.9342 H   0  0  0  0  0  0  0  0  0  0  0  0
   -7.1515   19.7224  -34.4130 H   0  0  0  0  0  0  0  0  0  0  0  0
   -8.8013   18.3973  -32.5949 H   0  0  0  0  0  0  0  0  0  0  0  0
   -7.7617   18.0675  -31.1591 H   0  0  0  0  0  0  0  0  0  0  0  0
   -9.8287   20.4756  -32.2581 H   0  0  0  0  0  0  0  0  0  0  0  0
   -9.6563   22.9410  -31.7981 H   0  0  0  0  0  0  0  0  0  0  0  0
   -7.8298   24.9873  -31.0656 H   0  0  0  0  0  0  0  0  0  0  0  0
   -2.9350   25.3130  -30.0010 H   0  0  0  0  0  0  0  0  0  0  0  0
   -0.2525   23.6391  -29.2645 H   0  0  0  0  0  0  0  0  0  0  0  0
   -1.6143   24.2359  -30.2803 H   0  0  0  0  0  0  0  0  0  0  0  0
   -3.3777   23.8724  -27.5814 H   0  0  0  0  0  0  0  0  0  0  0  0
   -1.8785   23.7514  -26.5249 H   0  0  0  0  0  0  0  0  0  0  0  0
   -3.5094   26.2848  -26.8526 H   0  0  0  0  0  0  0  0  0  0  0  0
   -3.7467   25.0376  -25.5312 H   0  0  0  0  0  0  0  0  0  0  0  0
   -1.7171   27.1619  -25.8018 H   0  0  0  0  0  0  0  0  0  0  0  0
   -2.3505   26.2847  -24.3464 H   0  0  0  0  0  0  0  0  0  0  0  0
   -0.0751   25.6795  -24.4529 H   0  0  0  0  0  0  0  0  0  0  0  0
   -0.9878   24.2848  -25.2006 H   0  0  0  0  0  0  0  0  0  0  0  0
    0.9487   26.1967  -26.4087 H   0  0  0  0  0  0  0  0  0  0  0  0
    0.5822   24.4169  -26.7379 H   0  0  0  0  0  0  0  0  0  0  0  0
   -1.0117   26.7895  -27.7492 H   0  0  0  0  0  0  0  0  0  0  0  0
    0.1730   25.7326  -28.6844 H   0  0  0  0  0  0  0  0  0  0  0  0
   -5.5975   20.0034  -31.3266 H   0  0  0  0  0  0  0  0  0  0  0  0
  1  2  1  0
  2  3  1  0
  3  4  1  0
  4  5  1  0
  5  6  2  0
  6  7  1  0
  7  8  2  0
  3  9  2  0
  9 10  1  0
 10 11  1  0
 11 12  2  0
 12 13  1  0
 13 14  1  0
 14 15  1  0
 15 16  2  0
 16 17  1  0
 17 18  2  0
 18 19  1  0
 19 20  2  0
 20 21  1  0
 21 22  1  0
 21 23  2  0
 20 24  1  0
 24 25  1  0
 25 26  2  0
 25 27  1  0
 27 28  1  0
 28 29  2  0
 28 30  1  0
 30 31  1  0
 31 32  1  0
 32 33  1  0
 33 34  1  0
 34 35  1  0
 35 36  1  0
 36 37  1  0
 24 38  1  0
 38 39  2  0
 13 40  1  0
 40 41  2  0
 40 42  1  0
 42  2  1  0
  8  4  1  0
 42 10  2  0
 39 15  1  0
 38 18  1  0
 37 31  1  0
  1 43  1  0
  1 44  1  0
  1 45  1  0
  5 46  1  0
  7 47  1  0
  8 48  1  0
 11 49  1  0
 12 50  1  0
 14 51  1  0
 14 52  1  0
 16 53  1  0
 17 54  1  0
 19 55  1  0
 22 56  1  0
 30 57  1  0
 30 58  1  0
 32 59  1  0
 32 60  1  0
 33 61  1  0
 33 62  1  0
 34 63  1  0
 34 64  1  0
 35 65  1  0
 35 66  1  0
 36 67  1  0
 36 68  1  0
 37 69  1  0
 37 70  1  0
 39 71  1  0
M  CHG  2   7   1  22  -1
M  END
>  <UniqueID>  (90) 
88

>  <SMILES>  (90) 
Cn1c(-n2cn[nH+]c2)nc2ccn(Cc3ccc4cc(C([NH-])=O)n(C(=O)OC(=O)CN5CCCCCC5)c4c3)c(=O)c21

>  <Energy>  (90) 
215.25004760255285

>  <Genealogy>  (90) 
Cn1c(-n2cn[nH+]c2)nc2ccn(Cc3ccc4cc(C([NH-])=O)n(C(=O)OC(=O)CN5CCCCCC5)c4c3)c(=O)c21 (protonated)
Cn1c(-n2cn[nH+]c2)nc2ccn(Cc3ccc4cc(C([NH-])=O)n(C(=O)OC(=O)CN5CCCCCC5)c4c3)c(=O)c21 (3D coordinates assigned)
Cn1c(-n2cn[nH+]c2)nc2ccn(Cc3ccc4cc(C([NH-])=O)n(C(=O)OC(=O)CN5CCCCCC5)c4c3)c(=O)c21 (nonaromatic ring conformer: 215.25004760255285 kcal/mol)

>  <smiles>  (90) 
Cn1c(-n2cnnc2)nc2ccn(Cc3ccc4cc(C(N)=O)n(C(=O)OC(=O)CN5CCCCCC5)c4c3)c(=O)c21

>  <score_type>  (90) 
oracle

>  <origin>  (90) 
adg

>  <m_score__min__energy>  (90) 
-9.6400000000000006

>  <m_primary>  (90) 
energy

$$$$
92:0
     RDKit          3D

 51 54  0  0  0  0  0  0  0  0999 V2000
   -4.4480   15.7050  -34.6950 C   0  0  0  0  0  0  0  0  0  0  0  0
   -5.4620   16.5570  -34.0850 N   0  0  0  0  0  0  0  0  0  0  0  0
   -5.3290   17.8690  -33.8150 C   0  0  0  0  0  0  0  0  0  0  0  0
   -6.4660   18.2890  -33.1490 C   0  0  0  0  0  0  0  0  0  0  0  0
   -6.7700   19.6500  -32.6280 C   0  0  0  0  0  0  0  0  0  0  0  0
   -8.1130   20.1090  -32.5560 C   0  0  0  0  0  0  0  0  0  0  0  0
   -8.4140   21.3900  -32.0620 C   0  0  0  0  0  0  0  0  0  0  0  0
   -7.3600   22.1930  -31.6500 C   0  0  0  0  0  0  0  0  0  0  0  0
   -7.3660   23.4670  -31.1240 C   0  0  0  0  0  0  0  0  0  0  0  0
   -6.0270   23.7760  -30.8940 C   0  0  0  0  0  0  0  0  0  0  0  0
   -5.5460   25.0900  -30.4140 C   0  0  0  0  0  0  0  0  0  0  0  0
   -4.1980   25.5040  -30.6440 N   0  0  0  0  0  0  0  0  0  0  0  0
   -6.3200   25.8440  -29.7700 O   0  0  0  0  0  0  0  0  0  0  0  0
   -5.2300   22.7350  -31.2580 N   0  0  0  0  0  0  0  0  0  0  0  0
   -3.8090   22.6130  -31.0910 C   0  0  0  0  0  0  0  0  0  0  0  0
   -3.0460   22.8980  -32.0540 O   0  0  0  0  0  0  0  0  0  0  0  0
   -3.2500   21.9720  -29.8470 C   0  0  0  0  0  0  0  0  0  0  0  0
   -1.7360   22.1740  -29.6890 C   0  0  0  0  0  0  0  0  0  0  0  0
   -1.4220   22.7060  -28.3430 N   0  0  0  0  0  0  0  0  0  0  0  0
   -2.6240   23.1580  -27.6170 C   0  0  0  0  0  0  0  0  0  0  0  0
   -3.1930   24.4710  -28.2030 C   0  0  0  0  0  0  0  0  0  0  0  0
   -2.3220   25.0770  -29.1410 O   0  0  0  0  0  0  0  0  0  0  0  0
   -1.0210   25.1770  -28.5990 C   0  0  0  0  0  0  0  0  0  0  0  0
   -0.4000   23.7800  -28.3840 C   0  0  0  0  0  0  0  0  0  0  0  0
   -6.0590   21.7770  -31.7210 C   0  0  0  0  0  0  0  0  0  0  0  0
   -5.7260   20.5050  -32.1960 C   0  0  0  0  0  0  0  0  0  0  0  0
   -7.2500   17.1430  -33.0350 C   0  0  0  0  0  0  0  0  0  0  0  0
   -6.6080   16.1050  -33.6060 N   0  0  0  0  0  0  0  0  0  0  0  0
   -3.8609   15.2117  -33.9064 H   0  0  0  0  0  0  0  0  0  0  0  0
   -4.9369   14.9427  -35.3194 H   0  0  0  0  0  0  0  0  0  0  0  0
   -3.7813   16.3179  -35.3194 H   0  0  0  0  0  0  0  0  0  0  0  0
   -4.4658   18.4979  -34.0784 H   0  0  0  0  0  0  0  0  0  0  0  0
   -8.9289   19.4521  -32.8918 H   0  0  0  0  0  0  0  0  0  0  0  0
   -9.4535   21.7451  -32.0038 H   0  0  0  0  0  0  0  0  0  0  0  0
   -8.2411   24.1039  -30.9277 H   0  0  0  0  0  0  0  0  0  0  0  0
   -3.5410   24.9240  -31.2120 H   0  0  0  0  0  0  0  0  0  0  0  0
   -3.8630   26.4240  -30.2790 H   0  0  0  0  0  0  0  0  0  0  0  0
   -3.7539   22.4088  -28.9722 H   0  0  0  0  0  0  0  0  0  0  0  0
   -3.4280   20.8896  -29.9294 H   0  0  0  0  0  0  0  0  0  0  0  0
   -1.2258   21.2090  -29.8250 H   0  0  0  0  0  0  0  0  0  0  0  0
   -1.3921   22.8945  -30.4457 H   0  0  0  0  0  0  0  0  0  0  0  0
   -3.3945   22.3758  -27.6835 H   0  0  0  0  0  0  0  0  0  0  0  0
   -2.3393   23.3470  -26.5714 H   0  0  0  0  0  0  0  0  0  0  0  0
   -4.1473   24.2482  -28.7027 H   0  0  0  0  0  0  0  0  0  0  0  0
   -3.3235   25.1763  -27.3690 H   0  0  0  0  0  0  0  0  0  0  0  0
   -0.3864   25.7497  -29.2913 H   0  0  0  0  0  0  0  0  0  0  0  0
   -1.0861   25.6842  -27.6251 H   0  0  0  0  0  0  0  0  0  0  0  0
    0.2971   23.5727  -29.2093 H   0  0  0  0  0  0  0  0  0  0  0  0
    0.1158   23.7887  -27.4125 H   0  0  0  0  0  0  0  0  0  0  0  0
   -4.6772   20.1754  -32.2335 H   0  0  0  0  0  0  0  0  0  0  0  0
   -8.2381   17.0933  -32.5543 H   0  0  0  0  0  0  0  0  0  0  0  0
  1  2  1  0
  2  3  1  0
  3  4  2  0
  4  5  1  0
  5  6  2  0
  6  7  1  0
  7  8  2  0
  8  9  1  0
  9 10  2  0
 10 11  1  0
 11 12  1  0
 11 13  2  0
 10 14  1  0
 14 15  1  0
 15 16  2  0
 15 17  1  0
 17 18  1  0
 18 19  1  0
 19 20  1  0
 20 21  1  0
 21 22  1  0
 22 23  1  0
 23 24  1  0
 14 25  1  0
 25 26  2  0
  4 27  1  0
 27 28  2  0
 28  2  1  0
 26  5  1  0
 25  8  1  0
 24 19  1  0
  1 29  1  0
  1 30  1  0
  1 31  1  0
  3 32  1  0
  6 33  1  0
  7 34  1  0
  9 35  1  0
 12 36  1  0
 12 37  1  0
 17 38  1  0
 17 39  1  0
 18 40  1  0
 18 41  1  0
 20 42  1  0
 20 43  1  0
 21 44  1  0
 21 45  1  0
 23 46  1  0
 23 47  1  0
 24 48  1  0
 24 49  1  0
 26 50  1  0
 27 51  1  0
M  END
>  <UniqueID>  (91) 
89

>  <SMILES>  (91) 
Cn1cc(-c2ccc3cc(C(N)=O)n(C(=O)CCN4CCOCC4)c3c2)cn1

>  <Energy>  (91) 
135.70446674575058

>  <Genealogy>  (91) 
Cn1cc(-c2ccc3cc(C(N)=O)n(C(=O)CCN4CCOCC4)c3c2)cn1 (3D coordinates assigned)
Cn1cc(-c2ccc3cc(C(N)=O)n(C(=O)CCN4CCOCC4)c3c2)cn1 (nonaromatic ring conformer: 135.70446674575058 kcal/mol)

>  <smiles>  (91) 
Cn1cc(-c2ccc3cc(C(N)=O)n(C(=O)CCN4CCOCC4)c3c2)cn1

>  <score_type>  (91) 
oracle

>  <origin>  (91) 
adg

>  <m_score__min__energy>  (91) 
-10.43

>  <m_primary>  (91) 
energy

$$$$
93:0
     RDKit          3D

 41 42  0  0  0  0  0  0  0  0999 V2000
   -2.9720   20.7970  -32.9990 C   0  0  0  0  0  0  0  0  0  0  0  0
   -3.6190   21.9610  -33.0360 C   0  0  0  0  0  0  0  0  0  0  0  0
   -3.9920   22.6950  -31.8110 C   0  0  0  0  0  0  0  0  0  0  0  0
   -3.1020   23.1330  -31.0350 O   0  0  0  0  0  0  0  0  0  0  0  0
   -5.3780   22.8720  -31.4770 N   0  0  0  0  0  0  0  0  0  0  0  0
   -5.9600   23.9460  -30.8750 C   0  0  0  0  0  0  0  0  0  0  0  0
   -5.2410   25.0840  -30.2670 C   0  0  0  0  0  0  0  0  0  0  0  0
   -4.0280   25.5580  -30.8490 N   0  0  0  0  0  0  0  0  0  0  0  0
   -5.7170   25.6750  -29.2600 O   0  0  0  0  0  0  0  0  0  0  0  0
   -7.3450   23.7930  -30.8330 C   0  0  0  0  0  0  0  0  0  0  0  0
   -7.5950   22.5770  -31.4280 C   0  0  0  0  0  0  0  0  0  0  0  0
   -8.8020   21.9320  -31.6760 C   0  0  0  0  0  0  0  0  0  0  0  0
   -8.7630   20.6920  -32.3360 C   0  0  0  0  0  0  0  0  0  0  0  0
   -7.5240   20.1220  -32.7370 C   0  0  0  0  0  0  0  0  0  0  0  0
   -7.4970   18.8660  -33.4510 N   0  0  0  0  0  0  0  0  0  0  0  0
   -6.5290   17.9220  -32.8620 C   0  0  0  0  0  0  0  0  0  0  0  0
   -5.4540   17.4930  -33.8380 C   0  0  0  0  0  0  0  0  0  0  0  0
   -5.2660   18.2120  -34.8600 O   0  0  0  0  0  0  0  0  0  0  0  0
   -4.6610   16.3000  -33.6510 N   0  0  0  0  0  0  0  0  0  0  0  0
   -4.6520   15.5660  -32.3780 C   0  0  0  0  0  0  0  0  0  0  0  0
   -3.7990   15.8550  -34.7500 C   0  0  0  0  0  0  0  0  0  0  0  0
   -6.3170   20.8110  -32.4660 C   0  0  0  0  0  0  0  0  0  0  0  0
   -6.3900   22.0380  -31.8000 C   0  0  0  0  0  0  0  0  0  0  0  0
   -2.7125   20.2820  -33.9357 H   0  0  0  0  0  0  0  0  0  0  0  0
   -2.6973   20.3509  -32.0318 H   0  0  0  0  0  0  0  0  0  0  0  0
   -3.8845   22.3900  -34.0135 H   0  0  0  0  0  0  0  0  0  0  0  0
   -3.1030   25.2540  -30.4730 H   0  0  0  0  0  0  0  0  0  0  0  0
   -8.0813   24.4945  -30.4137 H   0  0  0  0  0  0  0  0  0  0  0  0
   -9.7579   22.3788  -31.3650 H   0  0  0  0  0  0  0  0  0  0  0  0
   -9.7011   20.1568  -32.5445 H   0  0  0  0  0  0  0  0  0  0  0  0
   -7.2200   19.0500  -34.4430 H   0  0  0  0  0  0  0  0  0  0  0  0
   -8.4490   18.4370  -33.4770 H   0  0  0  0  0  0  0  0  0  0  0  0
   -6.0470   18.4062  -31.9999 H   0  0  0  0  0  0  0  0  0  0  0  0
   -7.0856   17.0201  -32.5675 H   0  0  0  0  0  0  0  0  0  0  0  0
   -4.6608   16.2812  -31.5423 H   0  0  0  0  0  0  0  0  0  0  0  0
   -5.5423   14.9227  -32.3194 H   0  0  0  0  0  0  0  0  0  0  0  0
   -3.7462   14.9447  -32.3194 H   0  0  0  0  0  0  0  0  0  0  0  0
   -2.8925   15.3870  -34.3386 H   0  0  0  0  0  0  0  0  0  0  0  0
   -4.3408   15.1239  -35.3681 H   0  0  0  0  0  0  0  0  0  0  0  0
   -3.5168   16.7201  -35.3681 H   0  0  0  0  0  0  0  0  0  0  0  0
   -5.3471   20.3917  -32.7716 H   0  0  0  0  0  0  0  0  0  0  0  0
  1  2  2  0
  2  3  1  0
  3  4  2  0
  3  5  1  0
  5  6  1  0
  6  7  1  0
  7  8  1  0
  7  9  2  0
  6 10  2  0
 10 11  1  0
 11 12  2  0
 12 13  1  0
 13 14  2  0
 14 15  1  0
 15 16  1  0
 16 17  1  0
 17 18  2  0
 17 19  1  0
 19 20  1  0
 19 21  1  0
 14 22  1  0
 22 23  2  0
 23  5  1  0
 23 11  1  0
  1 24  1  0
  1 25  1  0
  2 26  1  0
  8 27  1  0
 10 28  1  0
 12 29  1  0
 13 30  1  0
 15 31  1  0
 15 32  1  0
 16 33  1  0
 16 34  1  0
 20 35  1  0
 20 36  1  0
 20 37  1  0
 21 38  1  0
 21 39  1  0
 21 40  1  0
 22 41  1  0
M  CHG  2   8  -1  15   1
M  END
>  <UniqueID>  (92) 
90

>  <SMILES>  (92) 
C=CC(=O)n1c(C([NH-])=O)cc2ccc([NH2+]CC(=O)N(C)C)cc21

>  <Energy>  (92) 
78.28549439692685

>  <Genealogy>  (92) 
C=CC(=O)n1c(C([NH-])=O)cc2ccc([NH2+]CC(=O)N(C)C)cc21 (protonated)
C=CC(=O)n1c(C([NH-])=O)cc2ccc([NH2+]CC(=O)N(C)C)cc21 (3D coordinates assigned)
C=CC(=O)n1c(C([NH-])=O)cc2ccc([NH2+]CC(=O)N(C)C)cc21 (optimized conformer: 78.28549439692685 kcal/mol)

>  <smiles>  (92) 
C=CC(=O)n1c(C(N)=O)cc2ccc(NCC(=O)N(C)C)cc21

>  <score_type>  (92) 
oracle

>  <origin>  (92) 
adg

>  <m_score__min__energy>  (92) 
-10.16

>  <m_primary>  (92) 
energy

$$$$
95:0
     RDKit          3D

 43 45  0  0  0  0  0  0  0  0999 V2000
   -8.9960   18.6910  -31.9670 C   0  0  0  0  0  0  0  0  0  0  0  0
   -8.1430   19.6410  -32.7160 N   0  0  0  0  0  0  0  0  0  0  0  0
   -8.3750   21.0010  -32.1680 C   0  0  0  0  0  0  0  0  0  0  0  0
   -6.6770   19.2780  -32.8030 C   0  0  0  0  0  0  0  0  0  0  0  0
   -5.8070   20.3800  -33.5010 C   0  0  0  0  0  0  0  0  0  0  0  0
   -4.5720   20.8080  -32.7490 C   0  0  0  0  0  0  0  0  0  0  0  0
   -3.4100   19.9950  -32.7610 C   0  0  0  0  0  0  0  0  0  0  0  0
   -2.2610   20.3800  -32.0520 C   0  0  0  0  0  0  0  0  0  0  0  0
   -2.3010   21.5740  -31.3400 C   0  0  0  0  0  0  0  0  0  0  0  0
   -1.3280   22.1880  -30.5860 C   0  0  0  0  0  0  0  0  0  0  0  0
   -1.9130   23.3600  -30.1110 C   0  0  0  0  0  0  0  0  0  0  0  0
   -1.2350   24.2860  -29.1790 C   0  0  0  0  0  0  0  0  0  0  0  0
   -1.7610   25.5950  -28.9700 N   0  0  0  0  0  0  0  0  0  0  0  0
   -0.1730   23.9480  -28.5910 O   0  0  0  0  0  0  0  0  0  0  0  0
   -3.1950   23.4710  -30.5620 N   0  0  0  0  0  0  0  0  0  0  0  0
   -4.1190   24.5520  -30.3440 C   0  0  0  0  0  0  0  0  0  0  0  0
   -3.9300   25.6700  -30.8900 O   0  0  0  0  0  0  0  0  0  0  0  0
   -5.2430   24.3640  -29.5480 O   0  0  0  0  0  0  0  0  0  0  0  0
   -3.4180   22.3690  -31.3110 C   0  0  0  0  0  0  0  0  0  0  0  0
   -4.5690   22.0240  -32.0280 C   0  0  0  0  0  0  0  0  0  0  0  0
   -6.0690   18.7440  -31.4850 C   0  0  0  0  0  0  0  0  0  0  0  0
   -5.7350   17.4200  -32.1550 C   0  0  0  0  0  0  0  0  0  0  0  0
   -6.3410   17.9070  -33.4610 C   0  0  0  0  0  0  0  0  0  0  0  0
   -8.8567   18.8461  -30.8869 H   0  0  0  0  0  0  0  0  0  0  0  0
  -10.0509   18.8605  -32.2287 H   0  0  0  0  0  0  0  0  0  0  0  0
   -8.7143   17.6604  -32.2287 H   0  0  0  0  0  0  0  0  0  0  0  0
   -8.5220   19.6410  -33.6920 H   0  0  0  0  0  0  0  0  0  0  0  0
   -8.3679   20.9595  -31.0688 H   0  0  0  0  0  0  0  0  0  0  0  0
   -7.5791   21.6766  -32.5146 H   0  0  0  0  0  0  0  0  0  0  0  0
   -9.3498   21.3746  -32.5146 H   0  0  0  0  0  0  0  0  0  0  0  0
   -5.4895   19.9910  -34.4797 H   0  0  0  0  0  0  0  0  0  0  0  0
   -6.4460   21.2732  -33.5635 H   0  0  0  0  0  0  0  0  0  0  0  0
   -3.4090   19.0542  -33.3310 H   0  0  0  0  0  0  0  0  0  0  0  0
   -1.3555   19.7555  -32.0594 H   0  0  0  0  0  0  0  0  0  0  0  0
   -0.3051   21.8297  -30.3980 H   0  0  0  0  0  0  0  0  0  0  0  0
   -2.7810   25.7870  -29.0800 H   0  0  0  0  0  0  0  0  0  0  0  0
   -5.4499   22.6828  -32.0306 H   0  0  0  0  0  0  0  0  0  0  0  0
   -5.1877   19.3049  -31.1404 H   0  0  0  0  0  0  0  0  0  0  0  0
   -6.6625   18.7585  -30.5589 H   0  0  0  0  0  0  0  0  0  0  0  0
   -4.6570   17.2092  -32.2143 H   0  0  0  0  0  0  0  0  0  0  0  0
   -6.0771   16.4750  -31.7079 H   0  0  0  0  0  0  0  0  0  0  0  0
   -5.6224   17.9727  -34.2912 H   0  0  0  0  0  0  0  0  0  0  0  0
   -7.1295   17.3227  -33.9579 H   0  0  0  0  0  0  0  0  0  0  0  0
  1  2  1  0
  2  3  1  0
  2  4  1  0
  4  5  1  0
  5  6  1  0
  6  7  2  0
  7  8  1  0
  8  9  2  0
  9 10  1  0
 10 11  2  0
 11 12  1  0
 12 13  1  0
 12 14  2  0
 11 15  1  0
 15 16  1  0
 16 17  2  0
 16 18  1  0
 15 19  1  0
 19 20  2  0
  4 21  1  0
 21 22  1  0
 22 23  1  0
 23  4  1  0
 20  6  1  0
 19  9  1  0
  1 24  1  0
  1 25  1  0
  1 26  1  0
  2 27  1  0
  3 28  1  0
  3 29  1  0
  3 30  1  0
  5 31  1  0
  5 32  1  0
  7 33  1  0
  8 34  1  0
 10 35  1  0
 13 36  1  0
 20 37  1  0
 21 38  1  0
 21 39  1  0
 22 40  1  0
 22 41  1  0
 23 42  1  0
 23 43  1  0
M  CHG  3   2   1  13  -1  18  -1
M  END
>  <UniqueID>  (93) 
91

>  <SMILES>  (93) 
C[NH+](C)C1(Cc2ccc3cc(C([NH-])=O)n(C(=O)[O-])c3c2)CCC1

>  <Energy>  (93) 
159.86190089011345

>  <Genealogy>  (93) 
C[NH+](C)C1(Cc2ccc3cc(C([NH-])=O)n(C(=O)[O-])c3c2)CCC1 (protonated)
C[NH+](C)C1(Cc2ccc3cc(C([NH-])=O)n(C(=O)[O-])c3c2)CCC1 (3D coordinates assigned)
C[NH+](C)C1(Cc2ccc3cc(C([NH-])=O)n(C(=O)[O-])c3c2)CCC1 (nonaromatic ring conformer: 159.86190089011345 kcal/mol)

>  <smiles>  (93) 
CN(C)C1(Cc2ccc3cc(C(N)=O)n(C(=O)O)c3c2)CCC1

>  <score_type>  (93) 
oracle

>  <origin>  (93) 
adg

>  <m_score__min__energy>  (93) 
-11.98

>  <m_primary>  (93) 
energy

$$$$
96:0
     RDKit          3D

 35 36  0  0  0  0  0  0  0  0999 V2000
   -2.6040   21.1690  -32.8900 C   0  0  0  0  0  0  0  0  0  0  0  0
   -3.5050   20.3260  -32.3880 C   0  0  0  0  0  0  0  0  0  0  0  0
   -4.4560   19.5830  -33.2380 C   0  0  0  0  0  0  0  0  0  0  0  0
   -4.0580   18.9960  -34.2810 O   0  0  0  0  0  0  0  0  0  0  0  0
   -5.8460   19.5280  -32.8810 N   0  0  0  0  0  0  0  0  0  0  0  0
   -6.6640   18.4380  -32.8840 C   0  0  0  0  0  0  0  0  0  0  0  0
   -6.3160   17.0920  -33.3840 C   0  0  0  0  0  0  0  0  0  0  0  0
   -5.0330   16.5230  -33.1330 N   0  0  0  0  0  0  0  0  0  0  0  0
   -7.1510   16.4450  -34.0710 O   0  0  0  0  0  0  0  0  0  0  0  0
   -7.9270   18.7760  -32.3980 C   0  0  0  0  0  0  0  0  0  0  0  0
   -7.8550   20.1170  -32.0940 C   0  0  0  0  0  0  0  0  0  0  0  0
   -8.8180   20.9680  -31.5590 C   0  0  0  0  0  0  0  0  0  0  0  0
   -8.4540   22.3030  -31.3160 C   0  0  0  0  0  0  0  0  0  0  0  0
   -7.1440   22.7590  -31.6050 C   0  0  0  0  0  0  0  0  0  0  0  0
   -6.7490   24.1820  -31.3030 C   0  0  0  0  0  0  0  0  0  0  0  0
   -5.7640   24.2650  -30.1220 C   0  0  2  0  0  0  0  0  0  0  0  0
   -6.1420   25.3440  -29.2070 N   0  0  0  0  0  0  0  0  0  0  0  0
   -4.3770   24.5140  -30.6460 C   0  0  0  0  0  0  0  0  0  0  0  0
   -3.8620   25.6580  -30.5550 O   0  0  0  0  0  0  0  0  0  0  0  0
   -3.6460   23.4760  -31.2130 O   0  0  0  0  0  0  0  0  0  0  0  0
   -6.1920   21.8640  -32.1410 C   0  0  0  0  0  0  0  0  0  0  0  0
   -6.5880   20.5460  -32.3930 C   0  0  0  0  0  0  0  0  0  0  0  0
   -1.9148   21.7015  -32.2181 H   0  0  0  0  0  0  0  0  0  0  0  0
   -2.5492   21.3326  -33.9764 H   0  0  0  0  0  0  0  0  0  0  0  0
   -3.5417   20.1779  -31.2986 H   0  0  0  0  0  0  0  0  0  0  0  0
   -4.1600   17.0710  -33.3030 H   0  0  0  0  0  0  0  0  0  0  0  0
   -8.7963   18.1120  -32.2821 H   0  0  0  0  0  0  0  0  0  0  0  0
   -9.8322   20.6065  -31.3336 H   0  0  0  0  0  0  0  0  0  0  0  0
   -9.1935   23.0013  -30.8971 H   0  0  0  0  0  0  0  0  0  0  0  0
   -6.2729   24.6160  -32.1946 H   0  0  0  0  0  0  0  0  0  0  0  0
   -7.6579   24.7379  -31.0292 H   0  0  0  0  0  0  0  0  0  0  0  0
   -5.7919   23.3130  -29.5717 H   0  0  0  0  0  0  0  0  0  0  0  0
   -6.3250   24.9310  -28.2640 H   0  0  0  0  0  0  0  0  0  0  0  0
   -5.3150   25.9740  -29.0790 H   0  0  0  0  0  0  0  0  0  0  0  0
   -5.1650   22.1948  -32.3550 H   0  0  0  0  0  0  0  0  0  0  0  0
  1  2  2  0
  2  3  1  0
  3  4  2  0
  3  5  1  0
  5  6  1  0
  6  7  1  0
  7  8  1  0
  7  9  2  0
  6 10  2  0
 10 11  1  0
 11 12  2  0
 12 13  1  0
 13 14  2  0
 14 15  1  0
 15 16  1  0
 16 17  1  0
 16 18  1  0
 18 19  2  0
 18 20  1  0
 14 21  1  0
 21 22  2  0
 22  5  1  0
 22 11  1  0
  1 23  1  0
  1 24  1  0
  2 25  1  0
  8 26  1  0
 10 27  1  0
 12 28  1  0
 13 29  1  0
 15 30  1  0
 15 31  1  0
 16 32  1  1
 17 33  1  0
 17 34  1  0
 21 35  1  0
M  CHG  2   8  -1  20  -1
M  END
>  <UniqueID>  (94) 
92

>  <SMILES>  (94) 
C=CC(=O)n1c(C([NH-])=O)cc2ccc(C[C@H](N)C(=O)[O-])cc21

>  <Energy>  (94) 
70.47119975329193

>  <Genealogy>  (94) 
C=CC(=O)n1c(C([NH-])=O)cc2ccc(CC(N)C(=O)[O-])cc21 (protonated)
C=CC(=O)n1c(C([NH-])=O)cc2ccc(C[C@H](N)C(=O)[O-])cc21 (chirality)
C=CC(=O)n1c(C([NH-])=O)cc2ccc(C[C@H](N)C(=O)[O-])cc21 (3D coordinates assigned)
C=CC(=O)n1c(C([NH-])=O)cc2ccc(C[C@H](N)C(=O)[O-])cc21 (optimized conformer: 70.47119975329193 kcal/mol)

>  <smiles>  (94) 
C=CC(=O)n1c(C(N)=O)cc2ccc(CC(N)C(=O)O)cc21

>  <score_type>  (94) 
oracle

>  <origin>  (94) 
adg

>  <m_score__min__energy>  (94) 
-10.68

>  <m_primary>  (94) 
energy

$$$$
97:0
     RDKit          3D

 36 37  0  0  0  0  0  0  0  0999 V2000
   -2.1310   25.2980  -29.0100 N   0  0  0  0  0  0  0  0  0  0  0  0
   -2.7470   24.3370  -28.1030 C   0  0  0  0  0  0  0  0  0  0  0  0
   -4.2720   24.5090  -28.0670 C   0  0  0  0  0  0  0  0  0  0  0  0
   -5.0080   23.5820  -29.0480 C   0  0  0  0  0  0  0  0  0  0  0  0
   -4.3770   23.5770  -30.4150 C   0  0  0  0  0  0  0  0  0  0  0  0
   -3.7520   24.5980  -30.8070 O   0  0  0  0  0  0  0  0  0  0  0  0
   -4.4490   22.4170  -31.2640 N   0  0  0  0  0  0  0  0  0  0  0  0
   -3.4190   21.7310  -31.8380 C   0  0  0  0  0  0  0  0  0  0  0  0
   -1.9840   21.9360  -31.5460 C   0  0  0  0  0  0  0  0  0  0  0  0
   -1.5710   22.8370  -30.5180 N   0  0  0  0  0  0  0  0  0  0  0  0
   -1.1100   21.3340  -32.2240 O   0  0  0  0  0  0  0  0  0  0  0  0
   -3.9080   20.7080  -32.6490 C   0  0  0  0  0  0  0  0  0  0  0  0
   -5.2780   20.7780  -32.5400 C   0  0  0  0  0  0  0  0  0  0  0  0
   -6.2650   20.0020  -33.1390 C   0  0  0  0  0  0  0  0  0  0  0  0
   -7.6060   20.3070  -32.8560 C   0  0  0  0  0  0  0  0  0  0  0  0
   -7.9380   21.3630  -31.9670 C   0  0  0  0  0  0  0  0  0  0  0  0
   -9.3810   21.7200  -31.7150 C   0  0  0  0  0  0  0  0  0  0  0  0
   -9.6160   21.7250  -30.3530 F   0  0  0  0  0  0  0  0  0  0  0  0
   -9.6740   22.9710  -32.2290 F   0  0  0  0  0  0  0  0  0  0  0  0
  -10.2220   20.7990  -32.3150 F   0  0  0  0  0  0  0  0  0  0  0  0
   -6.9060   22.1390  -31.3920 C   0  0  0  0  0  0  0  0  0  0  0  0
   -5.5790   21.8110  -31.6920 C   0  0  0  0  0  0  0  0  0  0  0  0
   -2.8780   25.9510  -29.3400 H   0  0  0  0  0  0  0  0  0  0  0  0
   -1.7930   24.7810  -29.8560 H   0  0  0  0  0  0  0  0  0  0  0  0
   -2.5084   23.3184  -28.4429 H   0  0  0  0  0  0  0  0  0  0  0  0
   -2.3523   24.5096  -27.0909 H   0  0  0  0  0  0  0  0  0  0  0  0
   -4.6247   24.2910  -27.0481 H   0  0  0  0  0  0  0  0  0  0  0  0
   -4.4920   25.5442  -28.3670 H   0  0  0  0  0  0  0  0  0  0  0  0
   -4.9907   22.5578  -28.6470 H   0  0  0  0  0  0  0  0  0  0  0  0
   -6.0372   23.9553  -29.1547 H   0  0  0  0  0  0  0  0  0  0  0  0
   -2.2650   23.3110  -29.9000 H   0  0  0  0  0  0  0  0  0  0  0  0
   -0.5540   23.0020  -30.3440 H   0  0  0  0  0  0  0  0  0  0  0  0
   -3.3227   19.9957  -33.2490 H   0  0  0  0  0  0  0  0  0  0  0  0
   -6.0027   19.1742  -33.8142 H   0  0  0  0  0  0  0  0  0  0  0  0
   -8.4083   19.7212  -33.3284 H   0  0  0  0  0  0  0  0  0  0  0  0
   -7.1404   22.9811  -30.7243 H   0  0  0  0  0  0  0  0  0  0  0  0
  1  2  1  0
  2  3  1  0
  3  4  1  0
  4  5  1  0
  5  6  2  0
  5  7  1  0
  7  8  1  0
  8  9  1  0
  9 10  1  0
  9 11  2  0
  8 12  2  0
 12 13  1  0
 13 14  2  0
 14 15  1  0
 15 16  2  0
 16 17  1  0
 17 18  1  0
 17 19  1  0
 17 20  1  0
 16 21  1  0
 21 22  2  0
 22  7  1  0
 22 13  1  0
  1 23  1  0
  1 24  1  0
  2 25  1  0
  2 26  1  0
  3 27  1  0
  3 28  1  0
  4 29  1  0
  4 30  1  0
 10 31  1  0
 10 32  1  0
 12 33  1  0
 14 34  1  0
 15 35  1  0
 21 36  1  0
M  END
>  <UniqueID>  (95) 
93

>  <SMILES>  (95) 
NCCCC(=O)n1c(C(N)=O)cc2ccc(C(F)(F)F)cc21

>  <Energy>  (95) 
70.38533647315846

>  <Genealogy>  (95) 
NCCCC(=O)n1c(C(N)=O)cc2ccc(C(F)(F)F)cc21 (3D coordinates assigned)
NCCCC(=O)n1c(C(N)=O)cc2ccc(C(F)(F)F)cc21 (optimized conformer: 70.38533647315846 kcal/mol)

>  <smiles>  (95) 
NCCCC(=O)n1c(C(N)=O)cc2ccc(C(F)(F)F)cc21

>  <score_type>  (95) 
oracle

>  <origin>  (95) 
adg

>  <m_score__min__energy>  (95) 
-8.1099999999999994

>  <m_primary>  (95) 
energy

$$$$
98:0
     RDKit          3D

 42 43  0  0  0  0  0  0  0  0999 V2000
   -2.4980   20.0650  -33.5690 C   0  0  0  0  0  0  0  0  0  0  0  0
   -2.4380   21.5470  -33.2120 C   0  0  0  0  0  0  0  0  0  0  0  0
   -3.7810   22.0700  -32.9700 N   0  0  0  0  0  0  0  0  0  0  0  0
   -4.2350   22.4600  -31.6670 C   0  0  0  0  0  0  0  0  0  0  0  0
   -3.4270   22.5000  -30.6990 O   0  0  0  0  0  0  0  0  0  0  0  0
   -5.6140   22.7960  -31.4580 N   0  0  0  0  0  0  0  0  0  0  0  0
   -6.1270   23.9530  -30.9510 C   0  0  0  0  0  0  0  0  0  0  0  0
   -5.3550   25.1670  -30.6150 C   0  0  0  0  0  0  0  0  0  0  0  0
   -3.9470   25.1980  -30.8390 N   0  0  0  0  0  0  0  0  0  0  0  0
   -5.9200   26.1710  -30.1050 O   0  0  0  0  0  0  0  0  0  0  0  0
   -7.5150   23.8650  -30.8470 C   0  0  0  0  0  0  0  0  0  0  0  0
   -7.8380   22.6100  -31.3080 C   0  0  0  0  0  0  0  0  0  0  0  0
   -9.0760   21.9800  -31.4050 C   0  0  0  0  0  0  0  0  0  0  0  0
   -9.1080   20.6600  -31.8830 C   0  0  0  0  0  0  0  0  0  0  0  0
   -7.9110   19.9970  -32.2550 C   0  0  0  0  0  0  0  0  0  0  0  0
   -7.9490   18.5640  -32.7200 C   0  0  0  0  0  0  0  0  0  0  0  0
   -6.6420   17.8480  -32.4690 C   0  0  0  0  0  0  0  0  0  0  0  0
   -6.4870   17.2030  -31.3940 O   0  0  0  0  0  0  0  0  0  0  0  0
   -5.5920   17.8350  -33.4620 N   0  0  0  0  0  0  0  0  0  0  0  0
   -4.3330   17.1460  -33.1580 C   0  0  0  0  0  0  0  0  0  0  0  0
   -5.7780   18.4820  -34.7640 C   0  0  0  0  0  0  0  0  0  0  0  0
   -6.6730   20.6640  -32.1310 C   0  0  0  0  0  0  0  0  0  0  0  0
   -6.6730   21.9850  -31.6700 C   0  0  0  0  0  0  0  0  0  0  0  0
   -2.5222   19.4663  -32.6465 H   0  0  0  0  0  0  0  0  0  0  0  0
   -3.4049   19.8664  -34.1590 H   0  0  0  0  0  0  0  0  0  0  0  0
   -1.6101   19.7937  -34.1590 H   0  0  0  0  0  0  0  0  0  0  0  0
   -1.8302   21.6764  -32.3044 H   0  0  0  0  0  0  0  0  0  0  0  0
   -1.9879   22.0972  -34.0515 H   0  0  0  0  0  0  0  0  0  0  0  0
   -4.4210   22.2000  -33.7860 H   0  0  0  0  0  0  0  0  0  0  0  0
   -3.4930   26.0230  -31.2890 H   0  0  0  0  0  0  0  0  0  0  0  0
   -8.2055   24.6362  -30.4749 H   0  0  0  0  0  0  0  0  0  0  0  0
  -10.0009   22.5006  -31.1159 H   0  0  0  0  0  0  0  0  0  0  0  0
  -10.0709   20.1353  -31.9697 H   0  0  0  0  0  0  0  0  0  0  0  0
   -8.7505   18.0377  -32.1810 H   0  0  0  0  0  0  0  0  0  0  0  0
   -8.1305   18.5655  -33.8049 H   0  0  0  0  0  0  0  0  0  0  0  0
   -4.2069   17.0770  -32.0674 H   0  0  0  0  0  0  0  0  0  0  0  0
   -4.3552   16.1343  -33.5893 H   0  0  0  0  0  0  0  0  0  0  0  0
   -3.4929   17.7101  -33.5893 H   0  0  0  0  0  0  0  0  0  0  0  0
   -6.0791   19.5292  -34.6134 H   0  0  0  0  0  0  0  0  0  0  0  0
   -4.8341   18.4493  -35.3279 H   0  0  0  0  0  0  0  0  0  0  0  0
   -6.5605   17.9530  -35.3279 H   0  0  0  0  0  0  0  0  0  0  0  0
   -5.7316   20.1576  -32.3904 H   0  0  0  0  0  0  0  0  0  0  0  0
  1  2  1  0
  2  3  1  0
  3  4  1  0
  4  5  2  0
  4  6  1  0
  6  7  1  0
  7  8  1  0
  8  9  1  0
  8 10  2  0
  7 11  2  0
 11 12  1  0
 12 13  2  0
 13 14  1  0
 14 15  2  0
 15 16  1  0
 16 17  1  0
 17 18  2  0
 17 19  1  0
 19 20  1  0
 19 21  1  0
 15 22  1  0
 22 23  2  0
 23  6  1  0
 23 12  1  0
  1 24  1  0
  1 25  1  0
  1 26  1  0
  2 27  1  0
  2 28  1  0
  3 29  1  0
  9 30  1  0
 11 31  1  0
 13 32  1  0
 14 33  1  0
 16 34  1  0
 16 35  1  0
 20 36  1  0
 20 37  1  0
 20 38  1  0
 21 39  1  0
 21 40  1  0
 21 41  1  0
 22 42  1  0
M  CHG  1   9  -1
M  END
>  <UniqueID>  (96) 
94

>  <SMILES>  (96) 
CCNC(=O)n1c(C([NH-])=O)cc2ccc(CC(=O)N(C)C)cc21

>  <Energy>  (96) 
72.91182209239712

>  <Genealogy>  (96) 
CCNC(=O)n1c(C([NH-])=O)cc2ccc(CC(=O)N(C)C)cc21 (protonated)
CCNC(=O)n1c(C([NH-])=O)cc2ccc(CC(=O)N(C)C)cc21 (3D coordinates assigned)
CCNC(=O)n1c(C([NH-])=O)cc2ccc(CC(=O)N(C)C)cc21 (optimized conformer: 72.91182209239712 kcal/mol)

>  <smiles>  (96) 
CCNC(=O)n1c(C(N)=O)cc2ccc(CC(=O)N(C)C)cc21

>  <score_type>  (96) 
oracle

>  <origin>  (96) 
adg

>  <m_score__min__energy>  (96) 
-11.17

>  <m_primary>  (96) 
energy

$$$$
99:0
     RDKit          3D

 40 42  0  0  0  0  0  0  0  0999 V2000
   -6.3130   13.4680  -34.5430 C   0  0  0  0  0  0  0  0  0  0  0  0
   -5.3840   14.5440  -34.5950 O   0  0  0  0  0  0  0  0  0  0  0  0
   -5.6790   15.8220  -34.1120 C   0  0  0  0  0  0  0  0  0  0  0  0
   -4.8070   16.8520  -34.2830 N   0  0  0  0  0  0  0  0  0  0  0  0
   -5.0870   18.0960  -33.8180 C   0  0  0  0  0  0  0  0  0  0  0  0
   -6.2940   18.3410  -33.1450 C   0  0  0  0  0  0  0  0  0  0  0  0
   -6.6240   19.6940  -32.6280 C   0  0  0  0  0  0  0  0  0  0  0  0
   -7.9740   20.1360  -32.5800 C   0  0  0  0  0  0  0  0  0  0  0  0
   -8.2960   21.4170  -32.1020 C   0  0  0  0  0  0  0  0  0  0  0  0
   -7.2550   22.2320  -31.6710 C   0  0  0  0  0  0  0  0  0  0  0  0
   -7.2800   23.5230  -31.1900 C   0  0  0  0  0  0  0  0  0  0  0  0
   -5.9490   23.8450  -30.9290 C   0  0  0  0  0  0  0  0  0  0  0  0
   -5.5220   25.1290  -30.3320 C   0  0  0  0  0  0  0  0  0  0  0  0
   -4.2260   25.6630  -30.5860 N   0  0  0  0  0  0  0  0  0  0  0  0
   -6.3010   25.7460  -29.5570 O   0  0  0  0  0  0  0  0  0  0  0  0
   -5.1360   22.7970  -31.2370 N   0  0  0  0  0  0  0  0  0  0  0  0
   -3.7020   22.7450  -31.1780 C   0  0  0  0  0  0  0  0  0  0  0  0
   -3.0650   22.0630  -32.0280 O   0  0  0  0  0  0  0  0  0  0  0  0
   -3.0000   23.4530  -30.1500 N   0  0  0  0  0  0  0  0  0  0  0  0
   -1.5530   23.3240  -29.9840 C   0  0  0  0  0  0  0  0  0  0  0  0
   -0.9930   24.5310  -29.3030 C   0  0  0  0  0  0  0  0  0  0  0  0
   -1.6230   25.6210  -29.3240 O   0  0  0  0  0  0  0  0  0  0  0  0
    0.2000   24.4390  -28.5960 O   0  0  0  0  0  0  0  0  0  0  0  0
   -5.9490   21.8190  -31.6910 C   0  0  0  0  0  0  0  0  0  0  0  0
   -5.5970   20.5580  -32.1830 C   0  0  0  0  0  0  0  0  0  0  0  0
   -7.1760   17.2630  -32.9810 C   0  0  0  0  0  0  0  0  0  0  0  0
   -6.8530   16.0360  -33.4650 N   0  0  0  0  0  0  0  0  0  0  0  0
   -6.5277   13.2193  -33.4932 H   0  0  0  0  0  0  0  0  0  0  0  0
   -7.2447   13.7632  -35.0478 H   0  0  0  0  0  0  0  0  0  0  0  0
   -5.8850   12.5894  -35.0478 H   0  0  0  0  0  0  0  0  0  0  0  0
   -4.3667   18.9136  -33.9689 H   0  0  0  0  0  0  0  0  0  0  0  0
   -8.7770   19.4663  -32.9216 H   0  0  0  0  0  0  0  0  0  0  0  0
   -9.3391   21.7646  -32.0696 H   0  0  0  0  0  0  0  0  0  0  0  0
   -8.1624   24.1632  -31.0432 H   0  0  0  0  0  0  0  0  0  0  0  0
   -3.4930   25.6700  -29.8420 H   0  0  0  0  0  0  0  0  0  0  0  0
   -3.5460   24.0800  -29.5160 H   0  0  0  0  0  0  0  0  0  0  0  0
   -1.3366   22.4329  -29.3764 H   0  0  0  0  0  0  0  0  0  0  0  0
   -1.0888   23.2290  -30.9767 H   0  0  0  0  0  0  0  0  0  0  0  0
   -4.5432   20.2449  -32.2229 H   0  0  0  0  0  0  0  0  0  0  0  0
   -8.1325   17.4119  -32.4586 H   0  0  0  0  0  0  0  0  0  0  0  0
  1  2  1  0
  2  3  1  0
  3  4  2  0
  4  5  1  0
  5  6  2  0
  6  7  1  0
  7  8  2  0
  8  9  1  0
  9 10  2  0
 10 11  1  0
 11 12  2  0
 12 13  1  0
 13 14  1  0
 13 15  2  0
 12 16  1  0
 16 17  1  0
 17 18  2  0
 17 19  1  0
 19 20  1  0
 20 21  1  0
 21 22  2  0
 21 23  1  0
 16 24  1  0
 24 25  2  0
  6 26  1  0
 26 27  2  0
 27  3  1  0
 25  7  1  0
 24 10  1  0
  1 28  1  0
  1 29  1  0
  1 30  1  0
  5 31  1  0
  8 32  1  0
  9 33  1  0
 11 34  1  0
 14 35  1  0
 19 36  1  0
 20 37  1  0
 20 38  1  0
 25 39  1  0
 26 40  1  0
M  CHG  2  14  -1  23  -1
M  END
>  <UniqueID>  (97) 
95

>  <SMILES>  (97) 
COc1ncc(-c2ccc3cc(C([NH-])=O)n(C(=O)NCC(=O)[O-])c3c2)cn1

>  <Energy>  (97) 
83.03281476952245

>  <Genealogy>  (97) 
COc1ncc(-c2ccc3cc(C([NH-])=O)n(C(=O)NCC(=O)[O-])c3c2)cn1 (protonated)
COc1ncc(-c2ccc3cc(C([NH-])=O)n(C(=O)NCC(=O)[O-])c3c2)cn1 (3D coordinates assigned)
COc1ncc(-c2ccc3cc(C([NH-])=O)n(C(=O)NCC(=O)[O-])c3c2)cn1 (optimized conformer: 83.03281476952245 kcal/mol)

>  <smiles>  (97) 
COc1ncc(-c2ccc3cc(C(N)=O)n(C(=O)NCC(=O)O)c3c2)cn1

>  <score_type>  (97) 
oracle

>  <origin>  (97) 
adg

>  <m_score__min__energy>  (97) 
-13.050000000000001

>  <m_primary>  (97) 
energy

$$$$
