0:0
     RDKit          3D

 48 49  0  0  0  0  0  0  0  0999 V2000
   -1.6170   26.4780  -24.9950 C   0  0  0  0  0  0  0  0  0  0  0  0
   -1.6930   25.4250  -26.1180 C   0  0  0  0  0  0  0  0  0  0  0  0
   -0.8690   24.1920  -25.6970 C   0  0  0  0  0  0  0  0  0  0  0  0
   -1.0940   26.0110  -27.4110 C   0  0  0  0  0  0  0  0  0  0  0  0
   -3.1610   24.9860  -26.3630 C   0  0  0  0  0  0  0  0  0  0  0  0
   -3.3270   24.3580  -27.6360 O   0  0  0  0  0  0  0  0  0  0  0  0
   -3.4030   22.9740  -27.8200 C   0  0  0  0  0  0  0  0  0  0  0  0
   -4.4880   22.3590  -27.6250 O   0  0  0  0  0  0  0  0  0  0  0  0
   -2.2550   22.2830  -28.2190 O   0  0  0  0  0  0  0  0  0  0  0  0
   -2.1750   21.5100  -29.4130 C   0  0  0  0  0  0  0  0  0  0  0  0
   -3.4840   21.3050  -29.9430 O   0  0  0  0  0  0  0  0  0  0  0  0
   -3.9300   21.8540  -31.1500 C   0  0  0  0  0  0  0  0  0  0  0  0
   -3.1190   22.0660  -32.0920 O   0  0  0  0  0  0  0  0  0  0  0  0
   -5.3210   22.1740  -31.3130 N   0  0  0  0  0  0  0  0  0  0  0  0
   -5.9640   23.2960  -30.8880 C   0  0  0  0  0  0  0  0  0  0  0  0
   -5.3180   24.5130  -30.3580 C   0  0  0  0  0  0  0  0  0  0  0  0
   -5.2980   24.7890  -28.9570 N   0  0  0  0  0  0  0  0  0  0  0  0
   -4.7280   25.2960  -31.1490 O   0  0  0  0  0  0  0  0  0  0  0  0
   -7.3410   23.1650  -31.0440 C   0  0  0  0  0  0  0  0  0  0  0  0
   -7.5260   21.9160  -31.5930 C   0  0  0  0  0  0  0  0  0  0  0  0
   -8.7040   21.2500  -31.9180 C   0  0  0  0  0  0  0  0  0  0  0  0
   -8.6030   19.9370  -32.4070 C   0  0  0  0  0  0  0  0  0  0  0  0
   -7.3390   19.3170  -32.5580 C   0  0  0  0  0  0  0  0  0  0  0  0
   -7.2560   17.8970  -33.0430 C   0  0  0  0  0  0  0  0  0  0  0  0
   -6.7320   17.0930  -32.0480 F   0  0  0  0  0  0  0  0  0  0  0  0
   -6.4410   17.8360  -34.1580 F   0  0  0  0  0  0  0  0  0  0  0  0
   -6.1650   20.0260  -32.2200 C   0  0  0  0  0  0  0  0  0  0  0  0
   -6.2920   21.3370  -31.7460 C   0  0  0  0  0  0  0  0  0  0  0  0
   -1.6533   25.9748  -24.0175 H   0  0  0  0  0  0  0  0  0  0  0  0
   -0.6759   27.0407  -25.0830 H   0  0  0  0  0  0  0  0  0  0  0  0
   -2.4675   27.1700  -25.0830 H   0  0  0  0  0  0  0  0  0  0  0  0
   -0.8304   24.1342  -24.5992 H   0  0  0  0  0  0  0  0  0  0  0  0
   -1.3411   23.2820  -26.0957 H   0  0  0  0  0  0  0  0  0  0  0  0
    0.1524   24.2800  -26.0957 H   0  0  0  0  0  0  0  0  0  0  0  0
   -0.3293   26.7591  -27.1547 H   0  0  0  0  0  0  0  0  0  0  0  0
   -0.6344   25.2041  -28.0007 H   0  0  0  0  0  0  0  0  0  0  0  0
   -1.8906   26.4882  -28.0007 H   0  0  0  0  0  0  0  0  0  0  0  0
   -3.4554   24.2763  -25.5759 H   0  0  0  0  0  0  0  0  0  0  0  0
   -3.7925   25.8865  -26.3436 H   0  0  0  0  0  0  0  0  0  0  0  0
   -1.5604   22.0433  -30.1532 H   0  0  0  0  0  0  0  0  0  0  0  0
   -1.7178   20.5357  -29.1857 H   0  0  0  0  0  0  0  0  0  0  0  0
   -4.8710   25.6740  -28.6040 H   0  0  0  0  0  0  0  0  0  0  0  0
   -5.6350   24.0850  -28.2630 H   0  0  0  0  0  0  0  0  0  0  0  0
   -8.1155   23.9016  -30.7843 H   0  0  0  0  0  0  0  0  0  0  0  0
   -9.6831   21.7363  -31.7958 H   0  0  0  0  0  0  0  0  0  0  0  0
   -9.5156   19.3846  -32.6755 H   0  0  0  0  0  0  0  0  0  0  0  0
   -8.2649   17.5445  -33.3036 H   0  0  0  0  0  0  0  0  0  0  0  0
   -5.1747   19.5591  -32.3267 H   0  0  0  0  0  0  0  0  0  0  0  0
  1  2  1  0
  2  3  1  0
  2  4  1  0
  2  5  1  0
  5  6  1  0
  6  7  1  0
  7  8  2  0
  7  9  1  0
  9 10  1  0
 10 11  1  0
 11 12  1  0
 12 13  2  0
 12 14  1  0
 14 15  1  0
 15 16  1  0
 16 17  1  0
 16 18  2  0
 15 19  2  0
 19 20  1  0
 20 21  2  0
 21 22  1  0
 22 23  2  0
 23 24  1  0
 24 25  1  0
 24 26  1  0
 23 27  1  0
 27 28  2  0
 28 14  1  0
 28 20  1  0
  1 29  1  0
  1 30  1  0
  1 31  1  0
  3 32  1  0
  3 33  1  0
  3 34  1  0
  4 35  1  0
  4 36  1  0
  4 37  1  0
  5 38  1  0
  5 39  1  0
 10 40  1  0
 10 41  1  0
 17 42  1  0
 17 43  1  0
 19 44  1  0
 21 45  1  0
 22 46  1  0
 24 47  1  0
 27 48  1  0
M  END
>  <UniqueID>  (1) 
1

>  <SMILES>  (1) 
CC(C)(C)COC(=O)OCOC(=O)n1c(C(N)=O)cc2ccc(C(F)F)cc21

>  <Energy>  (1) 
77.26971879121989

>  <Genealogy>  (1) 
CC(C)(C)COC(=O)OCOC(=O)n1c(C(N)=O)cc2ccc(C(F)F)cc21 (3D coordinates assigned)
CC(C)(C)COC(=O)OCOC(=O)n1c(C(N)=O)cc2ccc(C(F)F)cc21 (optimized conformer: 77.26971879121989 kcal/mol)

>  <smiles>  (1) 
CC(C)(C)COC(=O)OCOC(=O)n1c(C(N)=O)cc2ccc(C(F)F)cc21

>  <score_type>  (1) 
oracle

>  <origin>  (1) 
adg

>  <m_score__min__energy>  (1) 
-9.2100000000000009

>  <m_primary>  (1) 
energy

$$$$
1:0
     RDKit          3D

 27 28  0  0  0  0  0  0  0  0999 V2000
   -1.1480   22.8830  -29.9310 N   0  0  0  0  0  0  0  0  0  0  0  0
   -1.5580   22.0820  -31.0410 C   0  0  0  0  0  0  0  0  0  0  0  0
   -0.6810   21.5270  -31.7550 O   0  0  0  0  0  0  0  0  0  0  0  0
   -2.9870   21.8530  -31.3380 C   0  0  0  0  0  0  0  0  0  0  0  0
   -3.4380   21.0050  -32.3480 C   0  0  0  0  0  0  0  0  0  0  0  0
   -4.8120   21.0710  -32.2900 C   0  0  0  0  0  0  0  0  0  0  0  0
   -5.7700   20.4620  -33.0950 C   0  0  0  0  0  0  0  0  0  0  0  0
   -7.1210   20.7610  -32.8510 C   0  0  0  0  0  0  0  0  0  0  0  0
   -7.4910   21.6530  -31.8120 C   0  0  0  0  0  0  0  0  0  0  0  0
   -8.9390   22.0190  -31.6050 C   0  0  0  0  0  0  0  0  0  0  0  0
   -9.7630   21.1730  -32.3270 F   0  0  0  0  0  0  0  0  0  0  0  0
   -9.1450   23.3190  -32.0270 F   0  0  0  0  0  0  0  0  0  0  0  0
   -9.2810   21.9190  -30.2680 F   0  0  0  0  0  0  0  0  0  0  0  0
   -6.4840   22.2740  -31.0360 C   0  0  0  0  0  0  0  0  0  0  0  0
   -5.1480   21.9360  -31.2820 C   0  0  0  0  0  0  0  0  0  0  0  0
   -4.0380   22.4190  -30.6830 N   0  0  0  0  0  0  0  0  0  0  0  0
   -3.9850   23.4480  -29.6820 C   0  0  0  0  0  0  0  0  0  0  0  0
   -4.4060   23.2060  -28.5190 O   0  0  0  0  0  0  0  0  0  0  0  0
   -3.4780   24.7900  -30.0020 C   0  0  0  0  0  0  0  0  0  0  0  0
   -4.0660   25.5090  -30.8510 O   0  0  0  0  0  0  0  0  0  0  0  0
   -2.3570   25.2840  -29.3480 O   0  0  0  0  0  0  0  0  0  0  0  0
   -0.1350   23.0800  -29.7750 H   0  0  0  0  0  0  0  0  0  0  0  0
   -1.8310   23.1970  -29.2070 H   0  0  0  0  0  0  0  0  0  0  0  0
   -2.8269   20.4102  -33.0428 H   0  0  0  0  0  0  0  0  0  0  0  0
   -5.4786   19.7682  -33.8973 H   0  0  0  0  0  0  0  0  0  0  0  0
   -7.9011   20.2978  -33.4731 H   0  0  0  0  0  0  0  0  0  0  0  0
   -6.7449   23.0057  -30.2572 H   0  0  0  0  0  0  0  0  0  0  0  0
  1  2  1  0
  2  3  2  0
  2  4  1  0
  4  5  2  0
  5  6  1  0
  6  7  2  0
  7  8  1  0
  8  9  2  0
  9 10  1  0
 10 11  1  0
 10 12  1  0
 10 13  1  0
  9 14  1  0
 14 15  2  0
 15 16  1  0
 16 17  1  0
 17 18  2  0
 17 19  1  0
 19 20  2  0
 19 21  1  0
 16  4  1  0
 15  6  1  0
  1 22  1  0
  1 23  1  0
  5 24  1  0
  7 25  1  0
  8 26  1  0
 14 27  1  0
M  CHG  1  21  -1
M  END
>  <UniqueID>  (2) 
2

>  <SMILES>  (2) 
NC(=O)c1cc2ccc(C(F)(F)F)cc2n1C(=O)C(=O)[O-]

>  <Energy>  (2) 
68.31002310916399

>  <Genealogy>  (2) 
NC(=O)c1cc2ccc(C(F)(F)F)cc2n1C(=O)C(=O)[O-] (protonated)
NC(=O)c1cc2ccc(C(F)(F)F)cc2n1C(=O)C(=O)[O-] (3D coordinates assigned)
NC(=O)c1cc2ccc(C(F)(F)F)cc2n1C(=O)C(=O)[O-] (optimized conformer: 68.31002310916399 kcal/mol)

>  <smiles>  (2) 
NC(=O)c1cc2ccc(C(F)(F)F)cc2n1C(=O)C(=O)O

>  <score_type>  (2) 
oracle

>  <origin>  (2) 
adg

>  <m_score__min__energy>  (2) 
-8.3399999999999999

>  <m_primary>  (2) 
energy

$$$$
2:0
     RDKit          3D

 42 44  0  0  0  0  0  0  0  0999 V2000
   -8.2440   18.7180  -32.5150 C   0  0  0  0  0  0  0  0  0  0  0  0
   -8.0980   20.1620  -32.1420 C   0  0  0  0  0  0  0  0  0  0  0  0
   -9.2470   20.9740  -31.9810 C   0  0  0  0  0  0  0  0  0  0  0  0
   -9.1250   22.3150  -31.5820 C   0  0  0  0  0  0  0  0  0  0  0  0
   -7.8450   22.8130  -31.3510 C   0  0  0  0  0  0  0  0  0  0  0  0
   -7.4460   24.0550  -30.9180 C   0  0  0  0  0  0  0  0  0  0  0  0
   -6.0570   23.9890  -30.8280 C   0  0  0  0  0  0  0  0  0  0  0  0
   -5.2160   25.1360  -30.4180 C   0  0  0  0  0  0  0  0  0  0  0  0
   -3.8410   25.2130  -30.7790 N   0  0  0  0  0  0  0  0  0  0  0  0
   -5.7300   26.0780  -29.7580 O   0  0  0  0  0  0  0  0  0  0  0  0
   -5.6130   22.7520  -31.1970 N   0  0  0  0  0  0  0  0  0  0  0  0
   -4.2600   22.2650  -31.1870 C   0  0  0  0  0  0  0  0  0  0  0  0
   -3.7300   21.9230  -30.0940 O   0  0  0  0  0  0  0  0  0  0  0  0
   -3.4500   22.2020  -32.4640 C   0  0  2  0  0  0  0  0  0  0  0  0
   -4.1040   21.2120  -33.4620 C   0  0  0  0  0  0  0  0  0  0  0  0
   -3.8010   19.7230  -33.1730 C   0  0  0  0  0  0  0  0  0  0  0  0
   -2.3120   19.3610  -33.0200 C   0  0  0  0  0  0  0  0  0  0  0  0
   -1.3570   20.2200  -33.8750 C   0  0  0  0  0  0  0  0  0  0  0  0
   -1.1840   21.5930  -33.3750 N   0  0  0  0  0  0  0  0  0  0  0  0
   -1.9590   21.8660  -32.1530 C   0  0  0  0  0  0  0  0  0  0  0  0
   -6.7220   22.0430  -31.5080 C   0  0  0  0  0  0  0  0  0  0  0  0
   -6.8170   20.6970  -31.8800 C   0  0  0  0  0  0  0  0  0  0  0  0
   -8.3057   18.1078  -31.6018 H   0  0  0  0  0  0  0  0  0  0  0  0
   -9.1603   18.5834  -33.1085 H   0  0  0  0  0  0  0  0  0  0  0  0
   -7.3732   18.4027  -33.1085 H   0  0  0  0  0  0  0  0  0  0  0  0
  -10.2444   20.5504  -32.1702 H   0  0  0  0  0  0  0  0  0  0  0  0
  -10.0127   22.9522  -31.4559 H   0  0  0  0  0  0  0  0  0  0  0  0
   -8.0878   24.9189  -30.6905 H   0  0  0  0  0  0  0  0  0  0  0  0
   -3.4500   26.0700  -31.2300 H   0  0  0  0  0  0  0  0  0  0  0  0
   -3.4487   23.1891  -32.9494 H   0  0  0  0  0  0  0  0  0  0  0  0
   -5.1940   21.3552  -33.4248 H   0  0  0  0  0  0  0  0  0  0  0  0
   -3.6769   21.4340  -34.4511 H   0  0  0  0  0  0  0  0  0  0  0  0
   -4.3129   19.4493  -32.2386 H   0  0  0  0  0  0  0  0  0  0  0  0
   -4.1548   19.1688  -34.0549 H   0  0  0  0  0  0  0  0  0  0  0  0
   -2.0342   19.4860  -31.9630 H   0  0  0  0  0  0  0  0  0  0  0  0
   -2.2027   18.3246  -33.3720 H   0  0  0  0  0  0  0  0  0  0  0  0
   -0.3720   19.7306  -33.8922 H   0  0  0  0  0  0  0  0  0  0  0  0
   -1.8062   20.2981  -34.8761 H   0  0  0  0  0  0  0  0  0  0  0  0
   -1.5160   22.2440  -34.1250 H   0  0  0  0  0  0  0  0  0  0  0  0
   -1.9237   20.9777  -31.5052 H   0  0  0  0  0  0  0  0  0  0  0  0
   -1.5119   22.7405  -31.6577 H   0  0  0  0  0  0  0  0  0  0  0  0
   -5.9165   20.0712  -31.9662 H   0  0  0  0  0  0  0  0  0  0  0  0
  1  2  1  0
  2  3  2  0
  3  4  1  0
  4  5  2  0
  5  6  1  0
  6  7  2  0
  7  8  1  0
  8  9  1  0
  8 10  2  0
  7 11  1  0
 11 12  1  0
 12 13  2  0
 12 14  1  0
 14 15  1  0
 15 16  1  0
 16 17  1  0
 17 18  1  0
 18 19  1  0
 19 20  1  0
 11 21  1  0
 21 22  2  0
 22  2  1  0
 21  5  1  0
 20 14  1  0
  1 23  1  0
  1 24  1  0
  1 25  1  0
  3 26  1  0
  4 27  1  0
  6 28  1  0
  9 29  1  0
 14 30  1  6
 15 31  1  0
 15 32  1  0
 16 33  1  0
 16 34  1  0
 17 35  1  0
 17 36  1  0
 18 37  1  0
 18 38  1  0
 19 39  1  0
 20 40  1  0
 20 41  1  0
 22 42  1  0
M  CHG  1   9  -1
M  END
>  <UniqueID>  (3) 
3

>  <SMILES>  (3) 
Cc1ccc2cc(C([NH-])=O)n(C(=O)[C@@H]3CCCCNC3)c2c1

>  <Energy>  (3) 
90.74011202920016

>  <Genealogy>  (3) 
Cc1ccc2cc(C([NH-])=O)n(C(=O)[C@@H]3CCCCNC3)c2c1 (protonated)
Cc1ccc2cc(C([NH-])=O)n(C(=O)[C@@H]3CCCCNC3)c2c1 (3D coordinates assigned)
Cc1ccc2cc(C([NH-])=O)n(C(=O)[C@@H]3CCCCNC3)c2c1 (nonaromatic ring conformer: 90.74011202920016 kcal/mol)

>  <smiles>  (3) 
Cc1ccc2cc(C(N)=O)n(C(=O)[C@@H]3CCCCNC3)c2c1

>  <score_type>  (3) 
oracle

>  <origin>  (3) 
adg

>  <m_score__min__energy>  (3) 
-9.2200000000000006

>  <m_primary>  (3) 
energy

$$$$
3:0
     RDKit          3D

 45 46  0  0  0  0  0  0  0  0999 V2000
    0.9290   24.0310  -27.2490 C   0  0  0  0  0  0  0  0  0  0  0  0
    0.2160   24.4170  -28.4180 O   0  0  0  0  0  0  0  0  0  0  0  0
   -1.1610   24.6500  -28.4160 C   0  0  0  0  0  0  0  0  0  0  0  0
   -1.6410   25.6740  -28.9760 O   0  0  0  0  0  0  0  0  0  0  0  0
   -2.0760   23.6810  -27.7240 C   0  0  0  0  0  0  0  0  0  0  0  0
   -3.5010   23.9400  -28.0480 N   0  0  2  0  0  0  0  0  0  0  0  0
   -4.2230   24.4050  -26.8460 C   0  0  0  0  0  0  0  0  0  0  0  0
   -4.1550   22.7160  -28.5780 C   0  0  0  0  0  0  0  0  0  0  0  0
   -3.3780   22.1020  -29.7570 C   0  0  0  0  0  0  0  0  0  0  0  0
   -4.0080   22.5000  -31.0600 C   0  0  0  0  0  0  0  0  0  0  0  0
   -3.2870   22.6650  -32.0800 O   0  0  0  0  0  0  0  0  0  0  0  0
   -5.4170   22.7680  -31.1320 N   0  0  0  0  0  0  0  0  0  0  0  0
   -6.0500   23.9470  -30.8820 C   0  0  0  0  0  0  0  0  0  0  0  0
   -5.3990   25.2050  -30.4590 C   0  0  0  0  0  0  0  0  0  0  0  0
   -3.9760   25.2910  -30.4200 N   0  0  0  0  0  0  0  0  0  0  0  0
   -6.0850   26.2110  -30.1400 O   0  0  0  0  0  0  0  0  0  0  0  0
   -7.4280   23.8020  -31.0410 C   0  0  0  0  0  0  0  0  0  0  0  0
   -7.6170   22.4850  -31.4000 C   0  0  0  0  0  0  0  0  0  0  0  0
   -8.7890   21.7930  -31.6900 C   0  0  0  0  0  0  0  0  0  0  0  0
   -8.6830   20.4410  -32.0540 C   0  0  0  0  0  0  0  0  0  0  0  0
   -7.4150   19.8100  -32.1270 C   0  0  0  0  0  0  0  0  0  0  0  0
   -7.3050   18.3660  -32.5290 C   0  0  0  0  0  0  0  0  0  0  0  0
   -6.7640   17.6330  -31.4870 F   0  0  0  0  0  0  0  0  0  0  0  0
   -6.4890   18.2530  -33.6390 F   0  0  0  0  0  0  0  0  0  0  0  0
   -6.2470   20.5450  -31.8260 C   0  0  0  0  0  0  0  0  0  0  0  0
   -6.3870   21.8850  -31.4510 C   0  0  0  0  0  0  0  0  0  0  0  0
    0.3634   24.3372  -26.3567 H   0  0  0  0  0  0  0  0  0  0  0  0
    1.0599   22.9388  -27.2432 H   0  0  0  0  0  0  0  0  0  0  0  0
    1.9151   24.5185  -27.2432 H   0  0  0  0  0  0  0  0  0  0  0  0
   -1.8187   22.6597  -28.0415 H   0  0  0  0  0  0  0  0  0  0  0  0
   -1.9448   23.8028  -26.6387 H   0  0  0  0  0  0  0  0  0  0  0  0
   -3.5650   24.7000  -28.7690 H   0  0  0  0  0  0  0  0  0  0  0  0
   -3.6928   24.0635  -25.9448 H   0  0  0  0  0  0  0  0  0  0  0  0
   -4.2706   25.5040  -26.8491 H   0  0  0  0  0  0  0  0  0  0  0  0
   -5.2432   23.9938  -26.8491 H   0  0  0  0  0  0  0  0  0  0  0  0
   -4.2193   21.9715  -27.7708 H   0  0  0  0  0  0  0  0  0  0  0  0
   -5.1530   22.9993  -28.9438 H   0  0  0  0  0  0  0  0  0  0  0  0
   -2.3383   22.4603  -29.7323 H   0  0  0  0  0  0  0  0  0  0  0  0
   -3.4011   21.0058  -29.6685 H   0  0  0  0  0  0  0  0  0  0  0  0
   -3.4840   25.6650  -29.5800 H   0  0  0  0  0  0  0  0  0  0  0  0
   -8.1997   24.5745  -30.9081 H   0  0  0  0  0  0  0  0  0  0  0  0
   -9.7688   22.2901  -31.6357 H   0  0  0  0  0  0  0  0  0  0  0  0
   -9.5919   19.8659  -32.2847 H   0  0  0  0  0  0  0  0  0  0  0  0
   -8.3069   17.9804  -32.7688 H   0  0  0  0  0  0  0  0  0  0  0  0
   -5.2538   20.0759  -31.8850 H   0  0  0  0  0  0  0  0  0  0  0  0
  1  2  1  0
  2  3  1  0
  3  4  2  0
  3  5  1  0
  5  6  1  0
  6  7  1  0
  6  8  1  0
  8  9  1  0
  9 10  1  0
 10 11  2  0
 10 12  1  0
 12 13  1  0
 13 14  1  0
 14 15  1  0
 14 16  2  0
 13 17  2  0
 17 18  1  0
 18 19  2  0
 19 20  1  0
 20 21  2  0
 21 22  1  0
 22 23  1  0
 22 24  1  0
 21 25  1  0
 25 26  2  0
 26 12  1  0
 26 18  1  0
  1 27  1  0
  1 28  1  0
  1 29  1  0
  5 30  1  0
  5 31  1  0
  6 32  1  6
  7 33  1  0
  7 34  1  0
  7 35  1  0
  8 36  1  0
  8 37  1  0
  9 38  1  0
  9 39  1  0
 15 40  1  0
 17 41  1  0
 19 42  1  0
 20 43  1  0
 22 44  1  0
 25 45  1  0
M  CHG  2   6   1  15  -1
M  END
>  <UniqueID>  (4) 
4

>  <SMILES>  (4) 
COC(=O)C[N@H+](C)CCC(=O)n1c(C([NH-])=O)cc2ccc(C(F)F)cc21

>  <Energy>  (4) 
81.20954026716544

>  <Genealogy>  (4) 
COC(=O)C[NH+](C)CCC(=O)n1c(C([NH-])=O)cc2ccc(C(F)F)cc21 (protonated)
COC(=O)C[N@H+](C)CCC(=O)n1c(C([NH-])=O)cc2ccc(C(F)F)cc21 (chirality)
COC(=O)C[N@H+](C)CCC(=O)n1c(C([NH-])=O)cc2ccc(C(F)F)cc21 (3D coordinates assigned)
COC(=O)C[N@H+](C)CCC(=O)n1c(C([NH-])=O)cc2ccc(C(F)F)cc21 (optimized conformer: 81.20954026716544 kcal/mol)

>  <smiles>  (4) 
COC(=O)CN(C)CCC(=O)n1c(C(N)=O)cc2ccc(C(F)F)cc21

>  <score_type>  (4) 
oracle

>  <origin>  (4) 
adg

>  <m_score__min__energy>  (4) 
-9.5099999999999998

>  <m_primary>  (4) 
energy

$$$$
4:0
     RDKit          3D

 36 37  0  0  0  0  0  0  0  0999 V2000
   -4.1540   24.4980  -28.9120 N   0  0  0  0  0  0  0  0  0  0  0  0
   -4.8510   24.5990  -30.1560 C   0  0  0  0  0  0  0  0  0  0  0  0
   -4.6210   25.5790  -30.9160 O   0  0  0  0  0  0  0  0  0  0  0  0
   -5.7850   23.5460  -30.5960 C   0  0  0  0  0  0  0  0  0  0  0  0
   -7.1420   23.5470  -30.2860 C   0  0  0  0  0  0  0  0  0  0  0  0
   -7.6630   22.4510  -30.9320 C   0  0  0  0  0  0  0  0  0  0  0  0
   -8.9700   21.9690  -30.9610 C   0  0  0  0  0  0  0  0  0  0  0  0
   -9.2220   20.7940  -31.6910 C   0  0  0  0  0  0  0  0  0  0  0  0
   -8.1710   20.1200  -32.3560 C   0  0  0  0  0  0  0  0  0  0  0  0
   -8.4390   18.9180  -33.0860 N   0  0  0  0  0  0  0  0  0  0  0  0
   -6.8580   20.6330  -32.3000 C   0  0  0  0  0  0  0  0  0  0  0  0
   -6.6370   21.8200  -31.5870 C   0  0  0  0  0  0  0  0  0  0  0  0
   -5.4720   22.4820  -31.3890 N   0  0  0  0  0  0  0  0  0  0  0  0
   -4.1660   22.0720  -31.8320 C   0  0  0  0  0  0  0  0  0  0  0  0
   -3.9000   22.0390  -33.0650 O   0  0  0  0  0  0  0  0  0  0  0  0
   -3.1900   21.7260  -30.8940 O   0  0  0  0  0  0  0  0  0  0  0  0
   -1.9740   22.4470  -30.7410 C   0  0  0  0  0  0  0  0  0  0  0  0
   -1.6550   22.5690  -29.2880 C   0  0  0  0  0  0  0  0  0  0  0  0
   -2.5100   22.2280  -28.4280 O   0  0  0  0  0  0  0  0  0  0  0  0
   -0.3910   23.0230  -28.8980 O   0  0  0  0  0  0  0  0  0  0  0  0
   -0.2040   24.1590  -28.0620 C   0  0  0  0  0  0  0  0  0  0  0  0
   -1.3530   25.0950  -28.2390 C   0  0  0  0  0  0  0  0  0  0  0  0
   -1.5420   25.6700  -29.3440 O   0  0  0  0  0  0  0  0  0  0  0  0
   -2.2020   25.3600  -27.1710 O   0  0  0  0  0  0  0  0  0  0  0  0
   -4.1900   23.6240  -28.3430 H   0  0  0  0  0  0  0  0  0  0  0  0
   -3.5260   25.2720  -28.6010 H   0  0  0  0  0  0  0  0  0  0  0  0
   -7.6824   24.2706  -29.6579 H   0  0  0  0  0  0  0  0  0  0  0  0
   -9.7792   22.4913  -30.4295 H   0  0  0  0  0  0  0  0  0  0  0  0
  -10.2457   20.3952  -31.7455 H   0  0  0  0  0  0  0  0  0  0  0  0
   -9.0920   18.1960  -32.7070 H   0  0  0  0  0  0  0  0  0  0  0  0
   -7.9830   18.7400  -34.0090 H   0  0  0  0  0  0  0  0  0  0  0  0
   -6.0283   20.1148  -32.8031 H   0  0  0  0  0  0  0  0  0  0  0  0
   -1.1613   21.9103  -31.2523 H   0  0  0  0  0  0  0  0  0  0  0  0
   -2.0809   23.4494  -31.1812 H   0  0  0  0  0  0  0  0  0  0  0  0
   -0.1502   23.8375  -27.0114 H   0  0  0  0  0  0  0  0  0  0  0  0
    0.7320   24.6681  -28.3353 H   0  0  0  0  0  0  0  0  0  0  0  0
  1  2  1  0
  2  3  2  0
  2  4  1  0
  4  5  2  0
  5  6  1  0
  6  7  2  0
  7  8  1  0
  8  9  2  0
  9 10  1  0
  9 11  1  0
 11 12  2  0
 12 13  1  0
 13 14  1  0
 14 15  2  0
 14 16  1  0
 16 17  1  0
 17 18  1  0
 18 19  2  0
 18 20  1  0
 20 21  1  0
 21 22  1  0
 22 23  2  0
 22 24  1  0
 13  4  1  0
 12  6  1  0
  1 25  1  0
  1 26  1  0
  5 27  1  0
  7 28  1  0
  8 29  1  0
 10 30  1  0
 10 31  1  0
 11 32  1  0
 17 33  1  0
 17 34  1  0
 21 35  1  0
 21 36  1  0
M  CHG  1  24  -1
M  END
>  <UniqueID>  (5) 
5

>  <SMILES>  (5) 
NC(=O)c1cc2ccc(N)cc2n1C(=O)OCC(=O)OCC(=O)[O-]

>  <Energy>  (5) 
67.71935196247726

>  <Genealogy>  (5) 
NC(=O)c1cc2ccc(N)cc2n1C(=O)OCC(=O)OCC(=O)[O-] (protonated)
NC(=O)c1cc2ccc(N)cc2n1C(=O)OCC(=O)OCC(=O)[O-] (3D coordinates assigned)
NC(=O)c1cc2ccc(N)cc2n1C(=O)OCC(=O)OCC(=O)[O-] (optimized conformer: 67.71935196247726 kcal/mol)

>  <smiles>  (5) 
NC(=O)c1cc2ccc(N)cc2n1C(=O)OCC(=O)OCC(=O)O

>  <score_type>  (5) 
oracle

>  <origin>  (5) 
adg

>  <m_score__min__energy>  (5) 
-9.2899999999999991

>  <m_primary>  (5) 
energy

$$$$
5:0
     RDKit          3D

 31 32  0  0  0  0  0  0  0  0999 V2000
   -5.7020   25.1360  -29.0000 N   0  0  0  0  0  0  0  0  0  0  0  0
   -5.5010   24.8580  -30.3850 C   0  0  0  0  0  0  0  0  0  0  0  0
   -4.8590   25.6750  -31.0980 O   0  0  0  0  0  0  0  0  0  0  0  0
   -5.9620   23.5900  -30.9730 C   0  0  0  0  0  0  0  0  0  0  0  0
   -7.3030   23.3040  -31.2040 C   0  0  0  0  0  0  0  0  0  0  0  0
   -7.3160   22.0320  -31.7240 C   0  0  0  0  0  0  0  0  0  0  0  0
   -8.3890   21.2510  -32.1400 C   0  0  0  0  0  0  0  0  0  0  0  0
   -8.1150   19.9710  -32.6490 C   0  0  0  0  0  0  0  0  0  0  0  0
   -6.7800   19.5050  -32.7590 C   0  0  0  0  0  0  0  0  0  0  0  0
   -6.5000   18.1160  -33.2760 C   0  0  0  0  0  0  0  0  0  0  0  0
   -7.6130   17.3050  -33.1330 F   0  0  0  0  0  0  0  0  0  0  0  0
   -5.4500   17.5690  -32.5630 F   0  0  0  0  0  0  0  0  0  0  0  0
   -6.1630   18.1540  -34.6170 F   0  0  0  0  0  0  0  0  0  0  0  0
   -5.7180   20.3200  -32.3030 C   0  0  0  0  0  0  0  0  0  0  0  0
   -6.0190   21.5850  -31.7800 C   0  0  0  0  0  0  0  0  0  0  0  0
   -5.1710   22.5300  -31.3080 N   0  0  0  0  0  0  0  0  0  0  0  0
   -3.7590   22.3800  -31.0520 C   0  0  0  0  0  0  0  0  0  0  0  0
   -2.9340   22.4530  -32.0000 O   0  0  0  0  0  0  0  0  0  0  0  0
   -3.2910   22.1880  -29.7110 N   0  0  0  0  0  0  0  0  0  0  0  0
   -3.3270   23.1680  -28.6660 C   0  0  0  0  0  0  0  0  0  0  0  0
   -4.3200   23.2500  -27.8940 O   0  0  0  0  0  0  0  0  0  0  0  0
   -2.2050   24.1480  -28.5380 C   0  0  0  0  0  0  0  0  0  0  0  0
   -2.0910   24.5430  -27.2190 F   0  0  0  0  0  0  0  0  0  0  0  0
   -2.4550   25.2570  -29.3260 F   0  0  0  0  0  0  0  0  0  0  0  0
   -1.0160   23.5680  -28.9440 F   0  0  0  0  0  0  0  0  0  0  0  0
   -5.3850   26.0440  -28.5940 H   0  0  0  0  0  0  0  0  0  0  0  0
   -6.1100   24.4140  -28.3660 H   0  0  0  0  0  0  0  0  0  0  0  0
   -8.1678   23.9560  -31.0118 H   0  0  0  0  0  0  0  0  0  0  0  0
   -9.4214   21.6246  -32.0724 H   0  0  0  0  0  0  0  0  0  0  0  0
   -8.9452   19.3226  -32.9659 H   0  0  0  0  0  0  0  0  0  0  0  0
   -4.6772   19.9683  -32.3577 H   0  0  0  0  0  0  0  0  0  0  0  0
  1  2  1  0
  2  3  2  0
  2  4  1  0
  4  5  2  0
  5  6  1  0
  6  7  2  0
  7  8  1  0
  8  9  2  0
  9 10  1  0
 10 11  1  0
 10 12  1  0
 10 13  1  0
  9 14  1  0
 14 15  2  0
 15 16  1  0
 16 17  1  0
 17 18  2  0
 17 19  1  0
 19 20  1  0
 20 21  2  0
 20 22  1  0
 22 23  1  0
 22 24  1  0
 22 25  1  0
 16  4  1  0
 15  6  1  0
  1 26  1  0
  1 27  1  0
  5 28  1  0
  7 29  1  0
  8 30  1  0
 14 31  1  0
M  CHG  1  19  -1
M  END
>  <UniqueID>  (6) 
6

>  <SMILES>  (6) 
NC(=O)c1cc2ccc(C(F)(F)F)cc2n1C(=O)[N-]C(=O)C(F)(F)F

>  <Energy>  (6) 
73.70235983079708

>  <Genealogy>  (6) 
NC(=O)c1cc2ccc(C(F)(F)F)cc2n1C(=O)[N-]C(=O)C(F)(F)F (protonated)
NC(=O)c1cc2ccc(C(F)(F)F)cc2n1C(=O)[N-]C(=O)C(F)(F)F (3D coordinates assigned)
NC(=O)c1cc2ccc(C(F)(F)F)cc2n1C(=O)[N-]C(=O)C(F)(F)F (optimized conformer: 73.70235983079708 kcal/mol)

>  <smiles>  (6) 
NC(=O)c1cc2ccc(C(F)(F)F)cc2n1C(=O)NC(=O)C(F)(F)F

>  <score_type>  (6) 
oracle

>  <origin>  (6) 
adg

>  <m_score__min__energy>  (6) 
-8.0500000000000007

>  <m_primary>  (6) 
energy

$$$$
6:0
     RDKit          3D

 48 51  0  0  0  0  0  0  0  0999 V2000
   -2.1720   22.8640  -28.2100 C   0  0  0  0  0  0  0  0  0  0  0  0
   -2.2740   23.7820  -29.3800 C   0  0  0  0  0  0  0  0  0  0  0  0
   -1.8180   24.9540  -29.2890 O   0  0  0  0  0  0  0  0  0  0  0  0
   -2.8280   23.3060  -30.5750 O   0  0  0  0  0  0  0  0  0  0  0  0
   -3.7300   22.2370  -30.6750 C   0  0  0  0  0  0  0  0  0  0  0  0
   -3.3390   21.0470  -30.5330 O   0  0  0  0  0  0  0  0  0  0  0  0
   -5.1110   22.5040  -30.9660 N   0  0  0  0  0  0  0  0  0  0  0  0
   -5.7670   23.6940  -30.8510 C   0  0  0  0  0  0  0  0  0  0  0  0
   -5.2350   24.9240  -30.2300 C   0  0  0  0  0  0  0  0  0  0  0  0
   -4.1590   25.6410  -30.8280 N   0  0  0  0  0  0  0  0  0  0  0  0
   -5.7060   25.3220  -29.1310 O   0  0  0  0  0  0  0  0  0  0  0  0
   -7.0710   23.5790  -31.3320 C   0  0  0  0  0  0  0  0  0  0  0  0
   -7.1920   22.2720  -31.7430 C   0  0  0  0  0  0  0  0  0  0  0  0
   -8.2820   21.6050  -32.2860 C   0  0  0  0  0  0  0  0  0  0  0  0
   -8.1240   20.2550  -32.6330 C   0  0  0  0  0  0  0  0  0  0  0  0
   -6.8660   19.5940  -32.4950 C   0  0  0  0  0  0  0  0  0  0  0  0
   -6.7370   18.1640  -32.7880 N   0  0  2  0  0  0  0  0  0  0  0  0
   -5.6390   17.4450  -32.1130 C   0  0  1  0  0  0  0  0  0  0  0  0
   -5.6350   16.0510  -32.7590 C   0  0  0  0  0  0  0  0  0  0  0  0
   -6.1980   16.2870  -34.1550 C   0  0  0  0  0  0  0  0  0  0  0  0
   -6.4800   17.7960  -34.1940 C   0  0  2  0  0  0  0  0  0  0  0  0
   -5.2340   18.5410  -34.7460 C   0  0  0  0  0  0  0  0  0  0  0  0
   -4.1200   18.5670  -33.7770 N   0  0  0  0  0  0  0  0  0  0  0  0
   -2.8590   19.1310  -34.1850 C   0  0  0  0  0  0  0  0  0  0  0  0
   -2.6750   20.3770  -34.1500 O   0  0  0  0  0  0  0  0  0  0  0  0
   -1.8280   18.3070  -34.6220 O   0  0  0  0  0  0  0  0  0  0  0  0
   -4.2740   18.1390  -32.3740 C   0  0  0  0  0  0  0  0  0  0  0  0
   -5.8060   20.3040  -31.8640 C   0  0  0  0  0  0  0  0  0  0  0  0
   -5.9990   21.6450  -31.5140 C   0  0  0  0  0  0  0  0  0  0  0  0
   -2.2368   23.4472  -27.2796 H   0  0  0  0  0  0  0  0  0  0  0  0
   -2.9946   22.1345  -28.2435 H   0  0  0  0  0  0  0  0  0  0  0  0
   -1.2093   22.3329  -28.2435 H   0  0  0  0  0  0  0  0  0  0  0  0
   -3.1750   25.3050  -30.7380 H   0  0  0  0  0  0  0  0  0  0  0  0
   -7.8388   24.3656  -31.3738 H   0  0  0  0  0  0  0  0  0  0  0  0
   -9.2416   22.1202  -32.4396 H   0  0  0  0  0  0  0  0  0  0  0  0
   -8.9875   19.6938  -33.0196 H   0  0  0  0  0  0  0  0  0  0  0  0
   -7.6450   17.7270  -32.4950 H   0  0  0  0  0  0  0  0  0  0  0  0
   -5.7822   17.4172  -31.0227 H   0  0  0  0  0  0  0  0  0  0  0  0
   -6.2730   15.3564  -32.1929 H   0  0  0  0  0  0  0  0  0  0  0  0
   -4.6330   15.5977  -32.7789 H   0  0  0  0  0  0  0  0  0  0  0  0
   -7.1240   15.7125  -34.3050 H   0  0  0  0  0  0  0  0  0  0  0  0
   -5.5078   15.9655  -34.9489 H   0  0  0  0  0  0  0  0  0  0  0  0
   -7.3272   18.0607  -34.8438 H   0  0  0  0  0  0  0  0  0  0  0  0
   -5.5185   19.5763  -34.9854 H   0  0  0  0  0  0  0  0  0  0  0  0
   -4.8888   18.0014  -35.6402 H   0  0  0  0  0  0  0  0  0  0  0  0
   -4.1975   19.0234  -31.7244 H   0  0  0  0  0  0  0  0  0  0  0  0
   -3.4799   17.4095  -32.1568 H   0  0  0  0  0  0  0  0  0  0  0  0
   -4.8482   19.8054  -31.6543 H   0  0  0  0  0  0  0  0  0  0  0  0
  1  2  1  0
  2  3  2  0
  2  4  1  0
  4  5  1  0
  5  6  2  0
  5  7  1  0
  7  8  1  0
  8  9  1  0
  9 10  1  0
  9 11  2  0
  8 12  2  0
 12 13  1  0
 13 14  2  0
 14 15  1  0
 15 16  2  0
 16 17  1  0
 17 18  1  0
 18 19  1  0
 19 20  1  0
 20 21  1  0
 21 22  1  0
 22 23  1  0
 23 24  1  0
 24 25  2  0
 24 26  1  0
 23 27  1  0
 16 28  1  0
 28 29  2  0
 29  7  1  0
 29 13  1  0
 21 17  1  0
 27 18  1  0
  1 30  1  0
  1 31  1  0
  1 32  1  0
 10 33  1  0
 12 34  1  0
 14 35  1  0
 15 36  1  0
 17 37  1  1
 18 38  1  1
 19 39  1  0
 19 40  1  0
 20 41  1  0
 20 42  1  0
 21 43  1  6
 22 44  1  0
 22 45  1  0
 27 46  1  0
 27 47  1  0
 28 48  1  0
M  CHG  3  10  -1  17   1  26  -1
M  END
>  <UniqueID>  (7) 
7

>  <SMILES>  (7) 
CC(=O)OC(=O)n1c(C([NH-])=O)cc2ccc([NH+]3[C@@H]4CC[C@H]3CN(C(=O)[O-])C4)cc21

>  <Energy>  (7) 
111.0520936387565

>  <Genealogy>  (7) 
CC(=O)OC(=O)n1c(C([NH-])=O)cc2ccc([NH+]3C4CCC3CN(C(=O)[O-])C4)cc21 (protonated)
CC(=O)OC(=O)n1c(C([NH-])=O)cc2ccc([NH+]3[C@@H]4CC[C@H]3CN(C(=O)[O-])C4)cc21 (chirality)
CC(=O)OC(=O)n1c(C([NH-])=O)cc2ccc([NH+]3[C@@H]4CC[C@H]3CN(C(=O)[O-])C4)cc21 (3D coordinates assigned)
CC(=O)OC(=O)n1c(C([NH-])=O)cc2ccc([NH+]3[C@@H]4CC[C@H]3CN(C(=O)[O-])C4)cc21 (nonaromatic ring conformer: 111.0520936387565 kcal/mol)

>  <smiles>  (7) 
CC(=O)OC(=O)n1c(C(N)=O)cc2ccc(N3C4CCC3CN(C(=O)O)C4)cc21

>  <score_type>  (7) 
oracle

>  <origin>  (7) 
adg

>  <m_score__min__energy>  (7) 
-10.35

>  <m_primary>  (7) 
energy

$$$$
7:0
     RDKit          3D

 31 33  0  0  0  0  0  0  0  0999 V2000
   -4.1860   25.5200  -30.7180 N   0  0  0  0  0  0  0  0  0  0  0  0
   -5.4820   25.0390  -30.3560 C   0  0  0  0  0  0  0  0  0  0  0  0
   -6.1880   25.7130  -29.5600 O   0  0  0  0  0  0  0  0  0  0  0  0
   -5.9880   23.7440  -30.8550 C   0  0  0  0  0  0  0  0  0  0  0  0
   -7.3330   23.4900  -31.1150 C   0  0  0  0  0  0  0  0  0  0  0  0
   -7.3780   22.1850  -31.5510 C   0  0  0  0  0  0  0  0  0  0  0  0
   -8.4600   21.4200  -31.9790 C   0  0  0  0  0  0  0  0  0  0  0  0
   -8.2070   20.1140  -32.4300 C   0  0  0  0  0  0  0  0  0  0  0  0
   -6.8840   19.6050  -32.4600 C   0  0  0  0  0  0  0  0  0  0  0  0
   -6.6140   18.2170  -32.9680 C   0  0  0  0  0  0  0  0  0  0  0  0
   -6.4280   18.2470  -34.3380 F   0  0  0  0  0  0  0  0  0  0  0  0
   -7.6870   17.3970  -32.6710 F   0  0  0  0  0  0  0  0  0  0  0  0
   -5.8100   20.4130  -32.0270 C   0  0  0  0  0  0  0  0  0  0  0  0
   -6.0960   21.6990  -31.5540 C   0  0  0  0  0  0  0  0  0  0  0  0
   -5.2320   22.6420  -31.1220 N   0  0  0  0  0  0  0  0  0  0  0  0
   -3.7990   22.5490  -31.1110 C   0  0  0  0  0  0  0  0  0  0  0  0
   -3.1420   23.1520  -30.2190 O   0  0  0  0  0  0  0  0  0  0  0  0
   -3.0920   21.7310  -32.1080 C   0  0  0  0  0  0  0  0  0  0  0  0
   -2.0450   20.8680  -31.8600 C   0  0  0  0  0  0  0  0  0  0  0  0
   -1.7570   20.3360  -33.0970 C   0  0  0  0  0  0  0  0  0  0  0  0
   -2.5830   20.8560  -33.9770 O   0  0  0  0  0  0  0  0  0  0  0  0
   -3.4020   21.6980  -33.4180 N   0  0  0  0  0  0  0  0  0  0  0  0
   -3.8720   26.4640  -30.4000 H   0  0  0  0  0  0  0  0  0  0  0  0
   -3.4980   24.9100  -31.2100 H   0  0  0  0  0  0  0  0  0  0  0  0
   -8.1783   24.1839  -30.9971 H   0  0  0  0  0  0  0  0  0  0  0  0
   -9.4821   21.8262  -31.9643 H   0  0  0  0  0  0  0  0  0  0  0  0
   -9.0425   19.4807  -32.7628 H   0  0  0  0  0  0  0  0  0  0  0  0
   -5.7062   17.8274  -32.4841 H   0  0  0  0  0  0  0  0  0  0  0  0
   -4.7752   20.0414  -32.0605 H   0  0  0  0  0  0  0  0  0  0  0  0
   -1.5547   20.6546  -30.8987 H   0  0  0  0  0  0  0  0  0  0  0  0
   -0.9685   19.5999  -33.3123 H   0  0  0  0  0  0  0  0  0  0  0  0
  1  2  1  0
  2  3  2  0
  2  4  1  0
  4  5  2  0
  5  6  1  0
  6  7  2  0
  7  8  1  0
  8  9  2  0
  9 10  1  0
 10 11  1  0
 10 12  1  0
  9 13  1  0
 13 14  2  0
 14 15  1  0
 15 16  1  0
 16 17  2  0
 16 18  1  0
 18 19  1  0
 19 20  2  0
 20 21  1  0
 21 22  1  0
 15  4  1  0
 22 18  2  0
 14  6  1  0
  1 23  1  0
  1 24  1  0
  5 25  1  0
  7 26  1  0
  8 27  1  0
 10 28  1  0
 13 29  1  0
 19 30  1  0
 20 31  1  0
M  END
>  <UniqueID>  (8) 
8

>  <SMILES>  (8) 
NC(=O)c1cc2ccc(C(F)F)cc2n1C(=O)c1ccon1

>  <Energy>  (8) 
103.12581981163271

>  <Genealogy>  (8) 
NC(=O)c1cc2ccc(C(F)F)cc2n1C(=O)c1ccon1 (3D coordinates assigned)
NC(=O)c1cc2ccc(C(F)F)cc2n1C(=O)c1ccon1 (optimized conformer: 103.12581981163271 kcal/mol)

>  <smiles>  (8) 
NC(=O)c1cc2ccc(C(F)F)cc2n1C(=O)c1ccon1

>  <score_type>  (8) 
oracle

>  <origin>  (8) 
adg

>  <m_score__min__energy>  (8) 
-8.5899999999999999

>  <m_primary>  (8) 
energy

$$$$
8:0
     RDKit          3D

 42 43  0  0  0  0  0  0  0  0999 V2000
   -8.4010   23.0630  -31.5990 C   0  0  0  0  0  0  0  0  0  0  0  0
   -7.8800   21.7240  -32.0300 C   0  0  0  0  0  0  0  0  0  0  0  0
   -8.7580   20.6160  -32.1210 C   0  0  0  0  0  0  0  0  0  0  0  0
   -8.2920   19.3690  -32.5720 C   0  0  0  0  0  0  0  0  0  0  0  0
   -6.9490   19.2640  -32.9250 C   0  0  0  0  0  0  0  0  0  0  0  0
   -6.2410   18.1900  -33.4180 C   0  0  0  0  0  0  0  0  0  0  0  0
   -4.9440   18.6600  -33.6120 C   0  0  0  0  0  0  0  0  0  0  0  0
   -3.8280   17.8180  -34.0950 C   0  0  0  0  0  0  0  0  0  0  0  0
   -2.6830   17.6170  -33.2690 N   0  0  0  0  0  0  0  0  0  0  0  0
   -3.8670   17.2850  -35.2350 O   0  0  0  0  0  0  0  0  0  0  0  0
   -4.8550   19.9710  -33.2540 N   0  0  0  0  0  0  0  0  0  0  0  0
   -3.6950   20.8170  -33.3090 C   0  0  0  0  0  0  0  0  0  0  0  0
   -3.8400   22.0470  -33.5540 O   0  0  0  0  0  0  0  0  0  0  0  0
   -2.3740   20.2540  -33.1420 N   0  0  1  0  0  0  0  0  0  0  0  0
   -1.4510   20.8090  -34.1430 C   0  0  0  0  0  0  0  0  0  0  0  0
   -1.8730   20.4970  -31.8070 C   0  0  0  0  0  0  0  0  0  0  0  0
   -1.2250   19.5980  -31.2020 O   0  0  0  0  0  0  0  0  0  0  0  0
   -2.1440   21.7520  -31.1570 N   0  0  0  0  0  0  0  0  0  0  0  0
   -1.5800   22.1440  -29.8970 C   0  0  0  0  0  0  0  0  0  0  0  0
   -0.7930   21.3770  -29.2770 O   0  0  0  0  0  0  0  0  0  0  0  0
   -1.9050   23.4000  -29.3710 O   0  0  0  0  0  0  0  0  0  0  0  0
   -3.2460   23.8380  -29.1620 C   0  0  0  0  0  0  0  0  0  0  0  0
   -3.8130   24.4090  -30.4210 C   0  0  0  0  0  0  0  0  0  0  0  0
   -3.8700   25.6560  -30.5790 O   0  0  0  0  0  0  0  0  0  0  0  0
   -4.2540   23.5650  -31.4320 O   0  0  0  0  0  0  0  0  0  0  0  0
   -6.0890   20.3270  -32.8400 C   0  0  0  0  0  0  0  0  0  0  0  0
   -6.5300   21.5840  -32.4150 C   0  0  0  0  0  0  0  0  0  0  0  0
   -8.4203   23.1126  -30.5003 H   0  0  0  0  0  0  0  0  0  0  0  0
   -7.7454   23.8548  -31.9903 H   0  0  0  0  0  0  0  0  0  0  0  0
   -9.4194   23.2035  -31.9903 H   0  0  0  0  0  0  0  0  0  0  0  0
   -9.8140   20.7326  -31.8361 H   0  0  0  0  0  0  0  0  0  0  0  0
   -8.9669   18.5033  -32.6439 H   0  0  0  0  0  0  0  0  0  0  0  0
   -6.6195   17.1764  -33.6164 H   0  0  0  0  0  0  0  0  0  0  0  0
   -2.4720   18.2650  -32.4780 H   0  0  0  0  0  0  0  0  0  0  0  0
   -2.4300   19.2220  -33.3080 H   0  0  0  0  0  0  0  0  0  0  0  0
   -0.6158   21.3112  -33.6330 H   0  0  0  0  0  0  0  0  0  0  0  0
   -1.0605   19.9958  -34.7724 H   0  0  0  0  0  0  0  0  0  0  0  0
   -1.9862   21.5352  -34.7724 H   0  0  0  0  0  0  0  0  0  0  0  0
   -2.7630   22.4420  -31.6380 H   0  0  0  0  0  0  0  0  0  0  0  0
   -3.8605   22.9830  -28.8436 H   0  0  0  0  0  0  0  0  0  0  0  0
   -3.2485   24.6172  -28.3856 H   0  0  0  0  0  0  0  0  0  0  0  0
   -5.8420   22.4417  -32.3817 H   0  0  0  0  0  0  0  0  0  0  0  0
  1  2  1  0
  2  3  2  0
  3  4  1  0
  4  5  2  0
  5  6  1  0
  6  7  2  0
  7  8  1  0
  8  9  1  0
  8 10  2  0
  7 11  1  0
 11 12  1  0
 12 13  2  0
 12 14  1  0
 14 15  1  0
 14 16  1  0
 16 17  2  0
 16 18  1  0
 18 19  1  0
 19 20  2  0
 19 21  1  0
 21 22  1  0
 22 23  1  0
 23 24  2  0
 23 25  1  0
 11 26  1  0
 26 27  2  0
 27  2  1  0
 26  5  1  0
  1 28  1  0
  1 29  1  0
  1 30  1  0
  3 31  1  0
  4 32  1  0
  6 33  1  0
  9 34  1  0
 14 35  1  6
 15 36  1  0
 15 37  1  0
 15 38  1  0
 18 39  1  0
 22 40  1  0
 22 41  1  0
 27 42  1  0
M  CHG  3   9  -1  14   1  25  -1
M  END
>  <UniqueID>  (9) 
9

>  <SMILES>  (9) 
Cc1ccc2cc(C([NH-])=O)n(C(=O)[NH+](C)C(=O)NC(=O)OCC(=O)[O-])c2c1

>  <Energy>  (9) 
79.99035549970878

>  <Genealogy>  (9) 
Cc1ccc2cc(C([NH-])=O)n(C(=O)[NH+](C)C(=O)NC(=O)OCC(=O)[O-])c2c1 (protonated)
Cc1ccc2cc(C([NH-])=O)n(C(=O)[NH+](C)C(=O)NC(=O)OCC(=O)[O-])c2c1 (3D coordinates assigned)
Cc1ccc2cc(C([NH-])=O)n(C(=O)[NH+](C)C(=O)NC(=O)OCC(=O)[O-])c2c1 (optimized conformer: 79.99035549970878 kcal/mol)

>  <smiles>  (9) 
Cc1ccc2cc(C(N)=O)n(C(=O)N(C)C(=O)NC(=O)OCC(=O)O)c2c1

>  <score_type>  (9) 
oracle

>  <origin>  (9) 
adg

>  <m_score__min__energy>  (9) 
-11.359999999999999

>  <m_primary>  (9) 
energy

$$$$
9:0
     RDKit          3D

 50 53  0  0  0  0  0  0  0  0999 V2000
   -3.4420   23.6860  -27.5020 C   0  0  0  0  0  0  0  0  0  0  0  0
   -2.3250   24.6310  -27.4730 N   0  0  0  0  0  0  0  0  0  0  0  0
   -1.4300   24.6330  -28.6030 C   0  0  0  0  0  0  0  0  0  0  0  0
   -1.2170   25.7100  -29.2270 O   0  0  0  0  0  0  0  0  0  0  0  0
   -0.8610   23.4390  -29.0610 O   0  0  0  0  0  0  0  0  0  0  0  0
   -1.4840   22.6020  -30.0290 C   0  0  0  0  0  0  0  0  0  0  0  0
   -2.7500   23.1490  -30.3800 O   0  0  0  0  0  0  0  0  0  0  0  0
   -3.4790   22.7430  -31.4990 C   0  0  0  0  0  0  0  0  0  0  0  0
   -2.8870   22.2540  -32.4980 O   0  0  0  0  0  0  0  0  0  0  0  0
   -4.9140   22.8490  -31.4880 N   0  0  0  0  0  0  0  0  0  0  0  0
   -5.6730   23.9310  -31.1510 C   0  0  0  0  0  0  0  0  0  0  0  0
   -5.1790   25.1920  -30.5590 C   0  0  0  0  0  0  0  0  0  0  0  0
   -3.8650   25.6680  -30.8410 N   0  0  0  0  0  0  0  0  0  0  0  0
   -5.9040   25.8260  -29.7490 O   0  0  0  0  0  0  0  0  0  0  0  0
   -7.0250   23.6620  -31.3470 C   0  0  0  0  0  0  0  0  0  0  0  0
   -7.0760   22.3650  -31.8020 C   0  0  0  0  0  0  0  0  0  0  0  0
   -8.1730   21.5840  -32.1490 C   0  0  0  0  0  0  0  0  0  0  0  0
   -7.9340   20.2730  -32.5980 C   0  0  0  0  0  0  0  0  0  0  0  0
   -6.6100   19.7690  -32.7000 C   0  0  0  0  0  0  0  0  0  0  0  0
   -6.3670   18.3800  -33.1670 C   0  0  0  0  0  0  0  0  0  0  0  0
   -7.2280   17.2940  -33.0840 C   0  0  0  0  0  0  0  0  0  0  0  0
   -6.6320   16.2080  -33.6150 N   0  0  0  0  0  0  0  0  0  0  0  0
   -5.4350   16.5770  -34.0390 N   0  0  0  0  0  0  0  0  0  0  0  0
   -4.4600   15.6620  -34.6160 C   0  0  0  0  0  0  0  0  0  0  0  0
   -5.2310   17.8810  -33.7780 C   0  0  0  0  0  0  0  0  0  0  0  0
   -5.5230   20.6020  -32.3470 C   0  0  0  0  0  0  0  0  0  0  0  0
   -5.7910   21.8960  -31.8800 C   0  0  0  0  0  0  0  0  0  0  0  0
   -2.2400   25.5590  -26.3260 C   0  0  0  0  0  0  0  0  0  0  0  0
   -0.9690   26.3800  -26.1450 C   0  0  0  0  0  0  0  0  0  0  0  0
   -1.2170   25.1520  -25.2770 C   0  0  0  0  0  0  0  0  0  0  0  0
   -3.7376   23.4360  -26.4724 H   0  0  0  0  0  0  0  0  0  0  0  0
   -4.2941   24.1415  -28.0277 H   0  0  0  0  0  0  0  0  0  0  0  0
   -3.1339   22.7702  -28.0277 H   0  0  0  0  0  0  0  0  0  0  0  0
   -0.8490   22.5412  -30.9251 H   0  0  0  0  0  0  0  0  0  0  0  0
   -1.6218   21.5942  -29.6102 H   0  0  0  0  0  0  0  0  0  0  0  0
   -3.0360   25.2870  -30.3340 H   0  0  0  0  0  0  0  0  0  0  0  0
   -7.8722   24.3421  -31.1746 H   0  0  0  0  0  0  0  0  0  0  0  0
   -9.1966   21.9797  -32.0745 H   0  0  0  0  0  0  0  0  0  0  0  0
   -8.7828   19.6299  -32.8736 H   0  0  0  0  0  0  0  0  0  0  0  0
   -8.2394   17.3164  -32.6520 H   0  0  0  0  0  0  0  0  0  0  0  0
   -3.9149   15.1504  -33.8091 H   0  0  0  0  0  0  0  0  0  0  0  0
   -4.9789   14.9173  -35.2374 H   0  0  0  0  0  0  0  0  0  0  0  0
   -3.7497   16.2271  -35.2374 H   0  0  0  0  0  0  0  0  0  0  0  0
   -4.3193   18.4511  -34.0102 H   0  0  0  0  0  0  0  0  0  0  0  0
   -4.4877   20.2415  -32.4372 H   0  0  0  0  0  0  0  0  0  0  0  0
   -3.3078   25.8219  -26.3499 H   0  0  0  0  0  0  0  0  0  0  0  0
   -0.1857   26.3592  -26.9170 H   0  0  0  0  0  0  0  0  0  0  0  0
   -0.7477   27.4397  -25.9498 H   0  0  0  0  0  0  0  0  0  0  0  0
   -0.6119   24.2449  -25.4220 H   0  0  0  0  0  0  0  0  0  0  0  0
   -1.2482   24.9585  -24.1946 H   0  0  0  0  0  0  0  0  0  0  0  0
  1  2  1  0
  2  3  1  0
  3  4  2  0
  3  5  1  0
  5  6  1  0
  6  7  1  0
  7  8  1  0
  8  9  2  0
  8 10  1  0
 10 11  1  0
 11 12  1  0
 12 13  1  0
 12 14  2  0
 11 15  2  0
 15 16  1  0
 16 17  2  0
 17 18  1  0
 18 19  2  0
 19 20  1  0
 20 21  1  0
 21 22  2  0
 22 23  1  0
 23 24  1  0
 23 25  1  0
 19 26  1  0
 26 27  2  0
  2 28  1  0
 28 29  1  0
 29 30  1  0
 27 10  1  0
 30 28  1  0
 27 16  1  0
 25 20  2  0
  1 31  1  0
  1 32  1  0
  1 33  1  0
  6 34  1  0
  6 35  1  0
 13 36  1  0
 15 37  1  0
 17 38  1  0
 18 39  1  0
 21 40  1  0
 24 41  1  0
 24 42  1  0
 24 43  1  0
 25 44  1  0
 26 45  1  0
 28 46  1  0
 29 47  1  0
 29 48  1  0
 30 49  1  0
 30 50  1  0
M  CHG  1  13  -1
M  END
>  <UniqueID>  (10) 
10

>  <SMILES>  (10) 
CN(C(=O)OCOC(=O)n1c(C([NH-])=O)cc2ccc(-c3cnn(C)c3)cc21)C1CC1

>  <Energy>  (10) 
390.22509198055593

>  <Genealogy>  (10) 
CN(C(=O)OCOC(=O)n1c(C([NH-])=O)cc2ccc(-c3cnn(C)c3)cc21)C1CC1 (protonated)
CN(C(=O)OCOC(=O)n1c(C([NH-])=O)cc2ccc(-c3cnn(C)c3)cc21)C1CC1 (3D coordinates assigned)
CN(C(=O)OCOC(=O)n1c(C([NH-])=O)cc2ccc(-c3cnn(C)c3)cc21)C1CC1 (nonaromatic ring conformer: 390.22509198055593 kcal/mol)

>  <smiles>  (10) 
CN(C(=O)OCOC(=O)n1c(C(N)=O)cc2ccc(-c3cnn(C)c3)cc21)C1CC1

>  <score_type>  (10) 
oracle

>  <origin>  (10) 
adg

>  <m_score__min__energy>  (10) 
-11.470000000000001

>  <m_primary>  (10) 
energy

$$$$
10:0
     RDKit          3D

 41 43  0  0  0  0  0  0  0  0999 V2000
   -3.9000   25.3970  -30.8380 N   0  0  0  0  0  0  0  0  0  0  0  0
   -4.9330   24.6380  -30.2110 C   0  0  0  0  0  0  0  0  0  0  0  0
   -5.3660   25.0000  -29.0850 O   0  0  0  0  0  0  0  0  0  0  0  0
   -5.4490   23.4190  -30.8660 C   0  0  0  0  0  0  0  0  0  0  0  0
   -6.8060   23.1250  -30.9820 C   0  0  0  0  0  0  0  0  0  0  0  0
   -6.8670   21.9670  -31.7190 C   0  0  0  0  0  0  0  0  0  0  0  0
   -7.9700   21.2130  -32.1110 C   0  0  0  0  0  0  0  0  0  0  0  0
   -7.7380   20.0340  -32.8360 C   0  0  0  0  0  0  0  0  0  0  0  0
   -6.4180   19.6310  -33.1660 C   0  0  0  0  0  0  0  0  0  0  0  0
   -6.1790   18.3310  -33.8900 C   0  0  0  0  0  0  0  0  0  0  0  0
   -6.0590   18.5450  -35.2520 F   0  0  0  0  0  0  0  0  0  0  0  0
   -5.0160   17.7280  -33.4420 F   0  0  0  0  0  0  0  0  0  0  0  0
   -7.2440   17.4800  -33.6600 F   0  0  0  0  0  0  0  0  0  0  0  0
   -5.3220   20.4120  -32.7270 C   0  0  0  0  0  0  0  0  0  0  0  0
   -5.5840   21.5920  -32.0220 C   0  0  0  0  0  0  0  0  0  0  0  0
   -4.6990   22.4740  -31.5020 N   0  0  0  0  0  0  0  0  0  0  0  0
   -3.2670   22.3720  -31.5410 C   0  0  0  0  0  0  0  0  0  0  0  0
   -2.7250   21.3460  -32.0320 O   0  0  0  0  0  0  0  0  0  0  0  0
   -2.4890   23.4130  -31.0150 O   0  0  0  0  0  0  0  0  0  0  0  0
   -1.9080   23.4270  -29.7390 C   0  0  0  0  0  0  0  0  0  0  0  0
   -1.2800   24.4420  -29.3290 O   0  0  0  0  0  0  0  0  0  0  0  0
   -2.0370   22.2370  -28.8680 C   0  0  0  0  0  0  0  0  0  0  0  0
   -0.9170   21.4340  -28.5960 C   0  0  0  0  0  0  0  0  0  0  0  0
   -1.0330   20.3080  -27.7760 C   0  0  0  0  0  0  0  0  0  0  0  0
   -2.2740   19.9550  -27.2150 C   0  0  0  0  0  0  0  0  0  0  0  0
   -2.3790   18.7600  -26.3440 C   0  0  0  0  0  0  0  0  0  0  0  0
   -3.4590   18.6010  -25.4190 N   0  0  0  0  0  0  0  0  0  0  0  0
   -1.5080   17.8520  -26.4230 O   0  0  0  0  0  0  0  0  0  0  0  0
   -3.3910   20.7670  -27.4800 C   0  0  0  0  0  0  0  0  0  0  0  0
   -3.2750   21.8930  -28.2990 C   0  0  0  0  0  0  0  0  0  0  0  0
   -2.9050   25.2970  -30.5380 H   0  0  0  0  0  0  0  0  0  0  0  0
   -7.6498   23.6985  -30.5707 H   0  0  0  0  0  0  0  0  0  0  0  0
   -8.9924   21.5319  -31.8600 H   0  0  0  0  0  0  0  0  0  0  0  0
   -8.5901   19.4145  -33.1524 H   0  0  0  0  0  0  0  0  0  0  0  0
   -4.2884   20.0986  -32.9352 H   0  0  0  0  0  0  0  0  0  0  0  0
    0.0591   21.6934  -29.0318 H   0  0  0  0  0  0  0  0  0  0  0  0
   -0.1458   19.6921  -27.5674 H   0  0  0  0  0  0  0  0  0  0  0  0
   -3.4760   17.7780  -24.7770 H   0  0  0  0  0  0  0  0  0  0  0  0
   -4.2850   19.2370  -25.4230 H   0  0  0  0  0  0  0  0  0  0  0  0
   -4.3658   20.5132  -27.0381 H   0  0  0  0  0  0  0  0  0  0  0  0
   -4.1597   22.5151  -28.5000 H   0  0  0  0  0  0  0  0  0  0  0  0
  1  2  1  0
  2  3  2  0
  2  4  1  0
  4  5  2  0
  5  6  1  0
  6  7  2  0
  7  8  1  0
  8  9  2  0
  9 10  1  0
 10 11  1  0
 10 12  1  0
 10 13  1  0
  9 14  1  0
 14 15  2  0
 15 16  1  0
 16 17  1  0
 17 18  2  0
 17 19  1  0
 19 20  1  0
 20 21  2  0
 20 22  1  0
 22 23  2  0
 23 24  1  0
 24 25  2  0
 25 26  1  0
 26 27  1  0
 26 28  2  0
 25 29  1  0
 29 30  2  0
 16  4  1  0
 30 22  1  0
 15  6  1  0
  1 31  1  0
  5 32  1  0
  7 33  1  0
  8 34  1  0
 14 35  1  0
 23 36  1  0
 24 37  1  0
 27 38  1  0
 27 39  1  0
 29 40  1  0
 30 41  1  0
M  CHG  1   1  -1
M  END
>  <UniqueID>  (11) 
11

>  <SMILES>  (11) 
[NH-]C(=O)c1cc2ccc(C(F)(F)F)cc2n1C(=O)OC(=O)c1ccc(C(N)=O)cc1

>  <Energy>  (11) 
85.84919930862445

>  <Genealogy>  (11) 
[NH-]C(=O)c1cc2ccc(C(F)(F)F)cc2n1C(=O)OC(=O)c1ccc(C(N)=O)cc1 (protonated)
[NH-]C(=O)c1cc2ccc(C(F)(F)F)cc2n1C(=O)OC(=O)c1ccc(C(N)=O)cc1 (3D coordinates assigned)
[NH-]C(=O)c1cc2ccc(C(F)(F)F)cc2n1C(=O)OC(=O)c1ccc(C(N)=O)cc1 (optimized conformer: 85.84919930862445 kcal/mol)

>  <smiles>  (11) 
NC(=O)c1ccc(C(=O)OC(=O)n2c(C(N)=O)cc3ccc(C(F)(F)F)cc32)cc1

>  <score_type>  (11) 
oracle

>  <origin>  (11) 
adg

>  <m_score__min__energy>  (11) 
-11.73

>  <m_primary>  (11) 
energy

$$$$
11:0
     RDKit          3D

 32 34  0  0  0  0  0  0  0  0999 V2000
   -1.6760   20.9150  -31.8890 C   0  0  0  0  0  0  0  0  0  0  0  0
   -2.6860   21.5960  -32.4900 C   0  0  0  0  0  0  0  0  0  0  0  0
   -2.8370   21.3550  -33.8230 O   0  0  0  0  0  0  0  0  0  0  0  0
   -3.4440   22.4560  -31.6180 C   0  0  0  0  0  0  0  0  0  0  0  0
   -2.6820   23.2090  -30.8850 O   0  0  0  0  0  0  0  0  0  0  0  0
   -4.8160   22.5980  -31.4330 N   0  0  0  0  0  0  0  0  0  0  0  0
   -5.5610   23.6170  -31.0020 C   0  0  0  0  0  0  0  0  0  0  0  0
   -5.1980   24.8170  -30.2490 C   0  0  0  0  0  0  0  0  0  0  0  0
   -5.6750   25.1540  -28.9670 N   0  0  0  0  0  0  0  0  0  0  0  0
   -4.3890   25.6620  -30.7740 O   0  0  0  0  0  0  0  0  0  0  0  0
   -6.9260   23.3430  -31.1930 C   0  0  0  0  0  0  0  0  0  0  0  0
   -6.9950   22.1050  -31.7580 C   0  0  0  0  0  0  0  0  0  0  0  0
   -8.1100   21.3850  -32.1380 C   0  0  0  0  0  0  0  0  0  0  0  0
   -7.9390   20.1430  -32.6930 C   0  0  0  0  0  0  0  0  0  0  0  0
   -6.6640   19.6550  -32.8530 C   0  0  0  0  0  0  0  0  0  0  0  0
   -6.4880   18.3300  -33.4460 C   0  0  0  0  0  0  0  0  0  0  0  0
   -7.1980   17.1430  -32.9660 C   0  0  0  0  0  0  0  0  0  0  0  0
   -6.6490   15.8540  -33.9850 S   0  0  0  0  0  0  0  0  0  0  0  0
   -5.5210   16.9760  -34.9730 N   0  0  0  0  0  0  0  0  0  0  0  0
   -5.7110   18.0420  -34.4390 N   0  0  0  0  0  0  0  0  0  0  0  0
   -5.5600   20.3980  -32.4640 C   0  0  0  0  0  0  0  0  0  0  0  0
   -5.7080   21.6620  -31.8980 C   0  0  0  0  0  0  0  0  0  0  0  0
   -1.4843   21.0507  -30.8144 H   0  0  0  0  0  0  0  0  0  0  0  0
   -1.0498   20.2279  -32.4769 H   0  0  0  0  0  0  0  0  0  0  0  0
   -2.4580   21.8980  -34.5740 H   0  0  0  0  0  0  0  0  0  0  0  0
   -5.0770   25.6700  -28.2840 H   0  0  0  0  0  0  0  0  0  0  0  0
   -6.6660   24.8630  -28.7130 H   0  0  0  0  0  0  0  0  0  0  0  0
   -7.7716   23.9984  -30.9370 H   0  0  0  0  0  0  0  0  0  0  0  0
   -9.1187   21.8008  -31.9978 H   0  0  0  0  0  0  0  0  0  0  0  0
   -8.8087   19.5463  -33.0054 H   0  0  0  0  0  0  0  0  0  0  0  0
   -7.9214   17.0828  -32.1395 H   0  0  0  0  0  0  0  0  0  0  0  0
   -4.5512   19.9826  -32.6046 H   0  0  0  0  0  0  0  0  0  0  0  0
  1  2  2  0
  2  3  1  0
  2  4  1  0
  4  5  2  0
  4  6  1  0
  6  7  1  0
  7  8  1  0
  8  9  1  0
  8 10  2  0
  7 11  2  0
 11 12  1  0
 12 13  2  0
 13 14  1  0
 14 15  2  0
 15 16  1  0
 16 17  2  0
 17 18  1  0
 18 19  1  0
 19 20  2  0
 15 21  1  0
 21 22  2  0
 22  6  1  0
 22 12  1  0
 20 16  1  0
  1 23  1  0
  1 24  1  0
  3 25  1  0
  9 26  1  0
  9 27  1  0
 11 28  1  0
 13 29  1  0
 14 30  1  0
 17 31  1  0
 21 32  1  0
M  END
>  <smiles>  (12) 
C=C(O)C(=O)n1c(C(N)=O)cc2ccc(-c3csnn3)cc21

>  <score_type>  (12) 
oracle

>  <origin>  (12) 
adg

>  <m_score__min__energy>  (12) 
-9.2799999999999994

>  <m_primary>  (12) 
energy

$$$$
12:0
     RDKit          3D

 36 37  0  0  0  0  0  0  0  0999 V2000
   -6.1110   19.2350  -34.5790 N   0  0  0  0  0  0  0  0  0  0  0  0
   -6.3090   18.1980  -33.6220 C   0  0  0  0  0  0  0  0  0  0  0  0
   -5.6670   17.1180  -33.7230 O   0  0  0  0  0  0  0  0  0  0  0  0
   -7.3100   18.3730  -32.5250 C   0  0  0  0  0  0  0  0  0  0  0  0
   -7.3810   19.8180  -32.1140 C   0  0  0  0  0  0  0  0  0  0  0  0
   -8.6370   20.4620  -31.9990 C   0  0  0  0  0  0  0  0  0  0  0  0
   -8.7160   21.8160  -31.6300 C   0  0  0  0  0  0  0  0  0  0  0  0
   -7.5260   22.5000  -31.3980 C   0  0  0  0  0  0  0  0  0  0  0  0
   -7.3150   23.8010  -31.0060 C   0  0  0  0  0  0  0  0  0  0  0  0
   -5.9320   23.9420  -30.9210 C   0  0  0  0  0  0  0  0  0  0  0  0
   -5.2620   25.2210  -30.6070 C   0  0  0  0  0  0  0  0  0  0  0  0
   -3.8630   25.3650  -30.8410 N   0  0  0  0  0  0  0  0  0  0  0  0
   -5.9030   26.1780  -30.0980 O   0  0  0  0  0  0  0  0  0  0  0  0
   -5.3110   22.7720  -31.2420 N   0  0  0  0  0  0  0  0  0  0  0  0
   -3.9040   22.4850  -31.1990 C   0  0  0  0  0  0  0  0  0  0  0  0
   -3.2190   22.5360  -32.2580 O   0  0  0  0  0  0  0  0  0  0  0  0
   -3.3040   22.1250  -29.9880 O   0  0  0  0  0  0  0  0  0  0  0  0
   -3.7900   22.5670  -28.7280 C   0  0  0  0  0  0  0  0  0  0  0  0
   -3.6070   23.9590  -28.6390 O   0  0  0  0  0  0  0  0  0  0  0  0
   -1.9410   24.2940  -28.7890 P   0  0  2  0  0  0  0  0  0  0  0  0
   -1.2000   23.7970  -27.5670 O   0  0  0  0  0  0  0  0  0  0  0  0
   -1.6900   25.9590  -28.9620 O   0  0  0  0  0  0  0  0  0  0  0  0
   -1.3410   23.5050  -30.1600 O   0  0  0  0  0  0  0  0  0  0  0  0
   -6.3010   21.8980  -31.5320 C   0  0  0  0  0  0  0  0  0  0  0  0
   -6.1930   20.5470  -31.8830 C   0  0  0  0  0  0  0  0  0  0  0  0
   -6.9080   19.6030  -35.1430 H   0  0  0  0  0  0  0  0  0  0  0  0
   -8.2989   18.0469  -32.8797 H   0  0  0  0  0  0  0  0  0  0  0  0
   -7.0039   17.7676  -31.6591 H   0  0  0  0  0  0  0  0  0  0  0  0
   -9.5593   19.8974  -32.2003 H   0  0  0  0  0  0  0  0  0  0  0  0
   -9.6885   22.3197  -31.5277 H   0  0  0  0  0  0  0  0  0  0  0  0
   -8.0770   24.5678  -30.8027 H   0  0  0  0  0  0  0  0  0  0  0  0
   -3.2040   24.5770  -30.6590 H   0  0  0  0  0  0  0  0  0  0  0  0
   -4.8599   22.3275  -28.6389 H   0  0  0  0  0  0  0  0  0  0  0  0
   -3.2432   22.0637  -27.9170 H   0  0  0  0  0  0  0  0  0  0  0  0
   -2.0330   23.6470  -30.8560 H   0  0  0  0  0  0  0  0  0  0  0  0
   -5.2084   20.0654  -31.9765 H   0  0  0  0  0  0  0  0  0  0  0  0
  1  2  1  0
  2  3  2  0
  2  4  1  0
  4  5  1  0
  5  6  2  0
  6  7  1  0
  7  8  2  0
  8  9  1  0
  9 10  2  0
 10 11  1  0
 11 12  1  0
 11 13  2  0
 10 14  1  0
 14 15  1  0
 15 16  2  0
 15 17  1  0
 17 18  1  0
 18 19  1  0
 19 20  1  0
 20 21  2  0
 20 22  1  6
 20 23  1  0
 14 24  1  0
 24 25  2  0
 25  5  1  0
 24  8  1  0
  1 26  1  0
  4 27  1  0
  4 28  1  0
  6 29  1  0
  7 30  1  0
  9 31  1  0
 12 32  1  0
 18 33  1  0
 18 34  1  0
 23 35  1  0
 25 36  1  0
M  CHG  3   1  -1  12  -1  22  -1
M  END
>  <UniqueID>  (13) 
12

>  <SMILES>  (13) 
[NH-]C(=O)Cc1ccc2cc(C([NH-])=O)n(C(=O)OCO[P@](=O)([O-])O)c2c1

>  <Energy>  (13) 
68.67360028490081

>  <Genealogy>  (13) 
[NH-]C(=O)Cc1ccc2cc(C([NH-])=O)n(C(=O)OCOP(=O)([O-])O)c2c1 (protonated)
[NH-]C(=O)Cc1ccc2cc(C([NH-])=O)n(C(=O)OCO[P@](=O)([O-])O)c2c1 (chirality)
[NH-]C(=O)Cc1ccc2cc(C([NH-])=O)n(C(=O)OCO[P@](=O)([O-])O)c2c1 (3D coordinates assigned)
[NH-]C(=O)Cc1ccc2cc(C([NH-])=O)n(C(=O)OCO[P@](=O)([O-])O)c2c1 (optimized conformer: 68.67360028490081 kcal/mol)

>  <smiles>  (13) 
NC(=O)Cc1ccc2cc(C(N)=O)n(C(=O)OCOP(=O)(O)O)c2c1

>  <score_type>  (13) 
oracle

>  <origin>  (13) 
adg

>  <m_score__min__energy>  (13) 
-11.92

>  <m_primary>  (13) 
energy

$$$$
13:0
     RDKit          3D

 35 36  0  0  0  0  0  0  0  0999 V2000
   -3.1860   21.2020  -29.3940 C   0  0  0  0  0  0  0  0  0  0  0  0
   -3.0120   22.3450  -30.0710 C   0  0  0  0  0  0  0  0  0  0  0  0
   -1.9300   23.2840  -29.6850 C   0  0  0  0  0  0  0  0  0  0  0  0
   -0.7260   22.9030  -29.6780 O   0  0  0  0  0  0  0  0  0  0  0  0
   -2.2460   24.6010  -29.3360 O   0  0  0  0  0  0  0  0  0  0  0  0
   -2.2620   25.0600  -27.9910 C   0  0  0  0  0  0  0  0  0  0  0  0
   -3.8940   22.6580  -31.2240 C   0  0  0  0  0  0  0  0  0  0  0  0
   -3.3900   22.8760  -32.3590 O   0  0  0  0  0  0  0  0  0  0  0  0
   -5.3220   22.7320  -31.0680 N   0  0  0  0  0  0  0  0  0  0  0  0
   -6.0600   23.8310  -30.7510 C   0  0  0  0  0  0  0  0  0  0  0  0
   -5.5200   25.1460  -30.3500 C   0  0  0  0  0  0  0  0  0  0  0  0
   -4.2150   25.5660  -30.7520 N   0  0  0  0  0  0  0  0  0  0  0  0
   -6.2040   25.8940  -29.6010 O   0  0  0  0  0  0  0  0  0  0  0  0
   -7.4210   23.5460  -30.8330 C   0  0  0  0  0  0  0  0  0  0  0  0
   -7.4940   22.2240  -31.2100 C   0  0  0  0  0  0  0  0  0  0  0  0
   -8.6040   21.4260  -31.4710 C   0  0  0  0  0  0  0  0  0  0  0  0
   -8.3790   20.1050  -31.8940 C   0  0  0  0  0  0  0  0  0  0  0  0
   -7.0600   19.6030  -32.0430 C   0  0  0  0  0  0  0  0  0  0  0  0
   -6.8300   18.2090  -32.5650 C   0  0  0  0  0  0  0  0  0  0  0  0
   -5.8680   17.5880  -31.7930 F   0  0  0  0  0  0  0  0  0  0  0  0
   -8.0000   17.4710  -32.5100 F   0  0  0  0  0  0  0  0  0  0  0  0
   -6.4020   18.2420  -33.8800 F   0  0  0  0  0  0  0  0  0  0  0  0
   -5.9610   20.4560  -31.7940 C   0  0  0  0  0  0  0  0  0  0  0  0
   -6.2140   21.7580  -31.3510 C   0  0  0  0  0  0  0  0  0  0  0  0
   -3.9893   20.5083  -29.6831 H   0  0  0  0  0  0  0  0  0  0  0  0
   -2.5256   20.9572  -28.5490 H   0  0  0  0  0  0  0  0  0  0  0  0
   -2.2319   24.1976  -27.3089 H   0  0  0  0  0  0  0  0  0  0  0  0
   -1.3856   25.7001  -27.8116 H   0  0  0  0  0  0  0  0  0  0  0  0
   -3.1808   25.6376  -27.8116 H   0  0  0  0  0  0  0  0  0  0  0  0
   -3.8740   26.5200  -30.5030 H   0  0  0  0  0  0  0  0  0  0  0  0
   -3.5520   24.9060  -31.2140 H   0  0  0  0  0  0  0  0  0  0  0  0
   -8.2590   24.2314  -30.6380 H   0  0  0  0  0  0  0  0  0  0  0  0
   -9.6250   21.8170  -31.3500 H   0  0  0  0  0  0  0  0  0  0  0  0
   -9.2364   19.4515  -32.1125 H   0  0  0  0  0  0  0  0  0  0  0  0
   -4.9300   20.1037  -31.9452 H   0  0  0  0  0  0  0  0  0  0  0  0
  1  2  2  0
  2  3  1  0
  3  4  2  0
  3  5  1  0
  5  6  1  0
  2  7  1  0
  7  8  2  0
  7  9  1  0
  9 10  1  0
 10 11  1  0
 11 12  1  0
 11 13  2  0
 10 14  2  0
 14 15  1  0
 15 16  2  0
 16 17  1  0
 17 18  2  0
 18 19  1  0
 19 20  1  0
 19 21  1  0
 19 22  1  0
 18 23  1  0
 23 24  2  0
 24  9  1  0
 24 15  1  0
  1 25  1  0
  1 26  1  0
  6 27  1  0
  6 28  1  0
  6 29  1  0
 12 30  1  0
 12 31  1  0
 14 32  1  0
 16 33  1  0
 17 34  1  0
 23 35  1  0
M  END
>  <UniqueID>  (14) 
13

>  <SMILES>  (14) 
C=C(C(=O)OC)C(=O)n1c(C(N)=O)cc2ccc(C(F)(F)F)cc21

>  <Energy>  (14) 
74.25316668355475

>  <Genealogy>  (14) 
C=C(C(=O)OC)C(=O)n1c(C(N)=O)cc2ccc(C(F)(F)F)cc21 (3D coordinates assigned)
C=C(C(=O)OC)C(=O)n1c(C(N)=O)cc2ccc(C(F)(F)F)cc21 (optimized conformer: 74.25316668355475 kcal/mol)

>  <smiles>  (14) 
C=C(C(=O)OC)C(=O)n1c(C(N)=O)cc2ccc(C(F)(F)F)cc21

>  <score_type>  (14) 
oracle

>  <origin>  (14) 
adg

>  <m_score__min__energy>  (14) 
-8.2899999999999991

>  <m_primary>  (14) 
energy

$$$$
14:0
     RDKit          3D

 51 53  0  0  0  0  0  0  0  0999 V2000
   -3.9030   25.6700  -30.8470 N   0  0  0  0  0  0  0  0  0  0  0  0
   -5.2370   25.2480  -30.5740 C   0  0  0  0  0  0  0  0  0  0  0  0
   -6.0160   26.0230  -29.9610 O   0  0  0  0  0  0  0  0  0  0  0  0
   -5.7050   23.9310  -31.0540 C   0  0  0  0  0  0  0  0  0  0  0  0
   -7.0390   23.6480  -31.3380 C   0  0  0  0  0  0  0  0  0  0  0  0
   -7.0660   22.3120  -31.6670 C   0  0  0  0  0  0  0  0  0  0  0  0
   -8.1350   21.5080  -32.0510 C   0  0  0  0  0  0  0  0  0  0  0  0
   -7.8680   20.1650  -32.3660 C   0  0  0  0  0  0  0  0  0  0  0  0
   -6.5490   19.6560  -32.2990 C   0  0  0  0  0  0  0  0  0  0  0  0
   -6.2830   18.2220  -32.6620 C   0  0  0  0  0  0  0  0  0  0  0  0
   -7.2970   17.7520  -33.4750 F   0  0  0  0  0  0  0  0  0  0  0  0
   -6.2250   17.4530  -31.5140 F   0  0  0  0  0  0  0  0  0  0  0  0
   -5.4870   20.5040  -31.9100 C   0  0  0  0  0  0  0  0  0  0  0  0
   -5.7840   21.8320  -31.5820 C   0  0  0  0  0  0  0  0  0  0  0  0
   -4.9350   22.8160  -31.2070 N   0  0  0  0  0  0  0  0  0  0  0  0
   -3.5050   22.7240  -31.1020 C   0  0  0  0  0  0  0  0  0  0  0  0
   -2.8250   22.2940  -32.0750 O   0  0  0  0  0  0  0  0  0  0  0  0
   -2.8710   23.1220  -29.9230 O   0  0  0  0  0  0  0  0  0  0  0  0
   -1.4740   22.9800  -29.7020 C   0  0  0  0  0  0  0  0  0  0  0  0
   -0.9690   24.1890  -28.9890 C   0  0  0  0  0  0  0  0  0  0  0  0
    0.2660   24.3200  -28.7650 O   0  0  0  0  0  0  0  0  0  0  0  0
   -1.8830   25.1450  -28.5380 O   0  0  0  0  0  0  0  0  0  0  0  0
   -2.8360   24.8840  -27.5130 C   0  0  0  0  0  0  0  0  0  0  0  0
   -2.3360   25.4910  -26.1950 C   0  0  0  0  0  0  0  0  0  0  0  0
   -0.9070   25.9000  -26.2470 N   0  0  0  0  0  0  0  0  0  0  0  0
   -0.7690   27.3790  -26.3280 C   0  0  0  0  0  0  0  0  0  0  0  0
   -0.6380   28.0420  -24.9400 C   0  0  0  0  0  0  0  0  0  0  0  0
   -1.2320   27.2420  -23.9400 O   0  0  0  0  0  0  0  0  0  0  0  0
   -0.4950   26.0430  -23.7750 C   0  0  0  0  0  0  0  0  0  0  0  0
   -0.1060   25.3760  -25.1160 C   0  0  0  0  0  0  0  0  0  0  0  0
   -3.0940   25.2580  -30.3310 H   0  0  0  0  0  0  0  0  0  0  0  0
   -7.8899   24.3443  -31.3061 H   0  0  0  0  0  0  0  0  0  0  0  0
   -9.1569   21.9112  -32.1062 H   0  0  0  0  0  0  0  0  0  0  0  0
   -8.6925   19.5024  -32.6678 H   0  0  0  0  0  0  0  0  0  0  0  0
   -5.3234   18.1579  -33.1959 H   0  0  0  0  0  0  0  0  0  0  0  0
   -4.4535   20.1298  -31.8662 H   0  0  0  0  0  0  0  0  0  0  0  0
   -1.2867   22.0857  -29.0895 H   0  0  0  0  0  0  0  0  0  0  0  0
   -0.9546   22.8733  -30.6657 H   0  0  0  0  0  0  0  0  0  0  0  0
   -3.8014   25.3364  -27.7839 H   0  0  0  0  0  0  0  0  0  0  0  0
   -2.9649   23.7980  -27.3951 H   0  0  0  0  0  0  0  0  0  0  0  0
   -2.9457   26.3769  -25.9639 H   0  0  0  0  0  0  0  0  0  0  0  0
   -2.4275   24.7151  -25.4206 H   0  0  0  0  0  0  0  0  0  0  0  0
   -0.5010   25.5060  -27.1300 H   0  0  0  0  0  0  0  0  0  0  0  0
    0.1285   27.6169  -26.9178 H   0  0  0  0  0  0  0  0  0  0  0  0
   -1.6816   27.7725  -26.7994 H   0  0  0  0  0  0  0  0  0  0  0  0
    0.4280   28.1785  -24.7056 H   0  0  0  0  0  0  0  0  0  0  0  0
   -1.1541   29.0131  -24.9650 H   0  0  0  0  0  0  0  0  0  0  0  0
    0.4259   26.2726  -23.2189 H   0  0  0  0  0  0  0  0  0  0  0  0
   -1.1398   25.3353  -23.2334 H   0  0  0  0  0  0  0  0  0  0  0  0
    0.9584   25.5702  -25.3141 H   0  0  0  0  0  0  0  0  0  0  0  0
   -0.3032   24.2973  -25.0298 H   0  0  0  0  0  0  0  0  0  0  0  0
  1  2  1  0
  2  3  2  0
  2  4  1  0
  4  5  2  0
  5  6  1  0
  6  7  2  0
  7  8  1  0
  8  9  2  0
  9 10  1  0
 10 11  1  0
 10 12  1  0
  9 13  1  0
 13 14  2  0
 14 15  1  0
 15 16  1  0
 16 17  2  0
 16 18  1  0
 18 19  1  0
 19 20  1  0
 20 21  2  0
 20 22  1  0
 22 23  1  0
 23 24  1  0
 24 25  1  0
 25 26  1  0
 26 27  1  0
 27 28  1  0
 28 29  1  0
 29 30  1  0
 15  4  1  0
 30 25  1  0
 14  6  1  0
  1 31  1  0
  5 32  1  0
  7 33  1  0
  8 34  1  0
 10 35  1  0
 13 36  1  0
 19 37  1  0
 19 38  1  0
 23 39  1  0
 23 40  1  0
 24 41  1  0
 24 42  1  0
 25 43  1  0
 26 44  1  0
 26 45  1  0
 27 46  1  0
 27 47  1  0
 29 48  1  0
 29 49  1  0
 30 50  1  0
 30 51  1  0
M  CHG  2   1  -1  25   1
M  END
>  <UniqueID>  (15) 
14

>  <SMILES>  (15) 
[NH-]C(=O)c1cc2ccc(C(F)F)cc2n1C(=O)OCC(=O)OCC[NH+]1CCOCC1

>  <Energy>  (15) 
96.88801339651913

>  <Genealogy>  (15) 
[NH-]C(=O)c1cc2ccc(C(F)F)cc2n1C(=O)OCC(=O)OCC[NH+]1CCOCC1 (protonated)
[NH-]C(=O)c1cc2ccc(C(F)F)cc2n1C(=O)OCC(=O)OCC[NH+]1CCOCC1 (3D coordinates assigned)
[NH-]C(=O)c1cc2ccc(C(F)F)cc2n1C(=O)OCC(=O)OCC[NH+]1CCOCC1 (nonaromatic ring conformer: 96.88801339651913 kcal/mol)

>  <smiles>  (15) 
NC(=O)c1cc2ccc(C(F)F)cc2n1C(=O)OCC(=O)OCCN1CCOCC1

>  <score_type>  (15) 
oracle

>  <origin>  (15) 
adg

>  <m_score__min__energy>  (15) 
-9.9100000000000001

>  <m_primary>  (15) 
energy

$$$$
15:0
     RDKit          3D

 49 50  0  0  0  0  0  0  0  0999 V2000
   -3.3600   14.4400  -32.7410 C   0  0  0  0  0  0  0  0  0  0  0  0
   -4.3980   14.7820  -33.8030 C   0  0  0  0  0  0  0  0  0  0  0  0
   -5.6530   15.0870  -33.2020 O   0  0  0  0  0  0  0  0  0  0  0  0
   -6.3950   16.2370  -33.5010 C   0  0  0  0  0  0  0  0  0  0  0  0
   -7.2300   16.2280  -34.4470 O   0  0  0  0  0  0  0  0  0  0  0  0
   -6.1430   17.5150  -32.7320 C   0  0  0  0  0  0  0  0  0  0  0  0
   -4.7480   18.0290  -33.1330 C   0  0  0  0  0  0  0  0  0  0  0  0
   -6.1490   17.2640  -31.2080 C   0  0  0  0  0  0  0  0  0  0  0  0
   -7.1540   18.5380  -33.0770 N   0  0  0  0  0  0  0  0  0  0  0  0
   -7.1990   19.8950  -32.5860 C   0  0  0  0  0  0  0  0  0  0  0  0
   -8.4630   20.5250  -32.4460 C   0  0  0  0  0  0  0  0  0  0  0  0
   -8.5680   21.8430  -31.9740 C   0  0  0  0  0  0  0  0  0  0  0  0
   -7.3970   22.5080  -31.6310 C   0  0  0  0  0  0  0  0  0  0  0  0
   -7.2050   23.7890  -31.1670 C   0  0  0  0  0  0  0  0  0  0  0  0
   -5.8270   23.9220  -31.0010 C   0  0  0  0  0  0  0  0  0  0  0  0
   -5.1820   25.1410  -30.4640 C   0  0  0  0  0  0  0  0  0  0  0  0
   -3.7660   25.2900  -30.4680 N   0  0  0  0  0  0  0  0  0  0  0  0
   -5.8940   26.0580  -29.9700 O   0  0  0  0  0  0  0  0  0  0  0  0
   -5.1950   22.7660  -31.3500 N   0  0  0  0  0  0  0  0  0  0  0  0
   -3.7850   22.4960  -31.3650 C   0  0  0  0  0  0  0  0  0  0  0  0
   -3.1090   22.6610  -30.3140 O   0  0  0  0  0  0  0  0  0  0  0  0
   -3.1310   22.0140  -32.5980 C   0  0  0  0  0  0  0  0  0  0  0  0
   -3.8350   21.7940  -33.6200 O   0  0  0  0  0  0  0  0  0  0  0  0
   -1.7620   21.7200  -32.6510 O   0  0  0  0  0  0  0  0  0  0  0  0
   -1.1180   21.1490  -33.7570 C   0  0  0  0  0  0  0  0  0  0  0  0
   -0.4010   21.8530  -34.5190 O   0  0  0  0  0  0  0  0  0  0  0  0
   -1.3650   19.7150  -34.0920 C   0  0  0  0  0  0  0  0  0  0  0  0
   -0.4830   19.3110  -35.0810 F   0  0  0  0  0  0  0  0  0  0  0  0
   -1.1800   18.9280  -32.9660 F   0  0  0  0  0  0  0  0  0  0  0  0
   -2.6610   19.5540  -34.5470 F   0  0  0  0  0  0  0  0  0  0  0  0
   -6.1690   21.9130  -31.7340 C   0  0  0  0  0  0  0  0  0  0  0  0
   -6.0310   20.6080  -32.2150 C   0  0  0  0  0  0  0  0  0  0  0  0
   -3.7967   14.5839  -31.7417 H   0  0  0  0  0  0  0  0  0  0  0  0
   -3.0481   13.3916  -32.8574 H   0  0  0  0  0  0  0  0  0  0  0  0
   -2.4860   15.0977  -32.8574 H   0  0  0  0  0  0  0  0  0  0  0  0
   -4.0521   15.6534  -34.3783 H   0  0  0  0  0  0  0  0  0  0  0  0
   -4.5254   13.9129  -34.4652 H   0  0  0  0  0  0  0  0  0  0  0  0
   -4.1624   18.2448  -32.2272 H   0  0  0  0  0  0  0  0  0  0  0  0
   -4.2320   17.2619  -33.7291 H   0  0  0  0  0  0  0  0  0  0  0  0
   -4.8530   18.9475  -33.7291 H   0  0  0  0  0  0  0  0  0  0  0  0
   -6.1260   18.2274  -30.6776 H   0  0  0  0  0  0  0  0  0  0  0  0
   -7.0605   16.7144  -30.9305 H   0  0  0  0  0  0  0  0  0  0  0  0
   -5.2648   16.6714  -30.9305 H   0  0  0  0  0  0  0  0  0  0  0  0
   -7.8600   18.2910  -33.8100 H   0  0  0  0  0  0  0  0  0  0  0  0
   -9.3756   19.9714  -32.7117 H   0  0  0  0  0  0  0  0  0  0  0  0
   -9.5475   22.3344  -31.8786 H   0  0  0  0  0  0  0  0  0  0  0  0
   -7.9760   24.5481  -30.9688 H   0  0  0  0  0  0  0  0  0  0  0  0
   -3.1640   24.7010  -31.0840 H   0  0  0  0  0  0  0  0  0  0  0  0
   -5.0376   20.1441  -32.3038 H   0  0  0  0  0  0  0  0  0  0  0  0
  1  2  1  0
  2  3  1  0
  3  4  1  0
  4  5  2  0
  4  6  1  0
  6  7  1  0
  6  8  1  0
  6  9  1  0
  9 10  1  0
 10 11  2  0
 11 12  1  0
 12 13  2  0
 13 14  1  0
 14 15  2  0
 15 16  1  0
 16 17  1  0
 16 18  2  0
 15 19  1  0
 19 20  1  0
 20 21  2  0
 20 22  1  0
 22 23  2  0
 22 24  1  0
 24 25  1  0
 25 26  2  0
 25 27  1  0
 27 28  1  0
 27 29  1  0
 27 30  1  0
 19 31  1  0
 31 32  2  0
 32 10  1  0
 31 13  1  0
  1 33  1  0
  1 34  1  0
  1 35  1  0
  2 36  1  0
  2 37  1  0
  7 38  1  0
  7 39  1  0
  7 40  1  0
  8 41  1  0
  8 42  1  0
  8 43  1  0
  9 44  1  0
 11 45  1  0
 12 46  1  0
 14 47  1  0
 17 48  1  0
 32 49  1  0
M  CHG  1  17  -1
M  END
>  <UniqueID>  (16) 
15

>  <SMILES>  (16) 
CCOC(=O)C(C)(C)Nc1ccc2cc(C([NH-])=O)n(C(=O)C(=O)OC(=O)C(F)(F)F)c2c1

>  <Energy>  (16) 
85.81897745368398

>  <Genealogy>  (16) 
CCOC(=O)C(C)(C)Nc1ccc2cc(C([NH-])=O)n(C(=O)C(=O)OC(=O)C(F)(F)F)c2c1 (protonated)
CCOC(=O)C(C)(C)Nc1ccc2cc(C([NH-])=O)n(C(=O)C(=O)OC(=O)C(F)(F)F)c2c1 (3D coordinates assigned)
CCOC(=O)C(C)(C)Nc1ccc2cc(C([NH-])=O)n(C(=O)C(=O)OC(=O)C(F)(F)F)c2c1 (optimized conformer: 85.81897745368398 kcal/mol)

>  <smiles>  (16) 
CCOC(=O)C(C)(C)Nc1ccc2cc(C(N)=O)n(C(=O)C(=O)OC(=O)C(F)(F)F)c2c1

>  <score_type>  (16) 
oracle

>  <origin>  (16) 
adg

>  <m_score__min__energy>  (16) 
-10.16

>  <m_primary>  (16) 
energy

$$$$
16:0
     RDKit          3D

 55 57  0  0  0  0  0  0  0  0999 V2000
   -3.5680   24.5010  -27.0870 C   0  0  0  0  0  0  0  0  0  0  0  0
   -2.7800   24.9110  -28.1830 O   0  0  0  0  0  0  0  0  0  0  0  0
   -1.5400   25.4250  -27.7330 C   0  0  0  0  0  0  0  0  0  0  0  0
   -0.3890   24.5640  -28.2600 C   0  0  0  0  0  0  0  0  0  0  0  0
   -0.8300   23.2270  -28.4960 O   0  0  0  0  0  0  0  0  0  0  0  0
   -1.3350   22.7850  -29.7230 C   0  0  0  0  0  0  0  0  0  0  0  0
   -0.5520   22.4250  -30.6430 O   0  0  0  0  0  0  0  0  0  0  0  0
   -2.7550   22.7660  -29.9220 N   0  0  0  0  0  0  0  0  0  0  0  0
   -3.3960   22.2920  -31.1180 C   0  0  0  0  0  0  0  0  0  0  0  0
   -2.7230   21.7280  -32.0230 O   0  0  0  0  0  0  0  0  0  0  0  0
   -4.8190   22.4230  -31.2710 N   0  0  0  0  0  0  0  0  0  0  0  0
   -5.6090   23.4510  -30.8510 C   0  0  0  0  0  0  0  0  0  0  0  0
   -5.1240   24.7260  -30.2770 C   0  0  0  0  0  0  0  0  0  0  0  0
   -5.7300   25.2790  -29.1070 N   0  0  0  0  0  0  0  0  0  0  0  0
   -4.1820   25.3500  -30.8330 O   0  0  0  0  0  0  0  0  0  0  0  0
   -6.9490   23.1780  -31.1300 C   0  0  0  0  0  0  0  0  0  0  0  0
   -6.9490   21.9440  -31.7400 C   0  0  0  0  0  0  0  0  0  0  0  0
   -8.0090   21.1870  -32.2240 C   0  0  0  0  0  0  0  0  0  0  0  0
   -7.7210   19.9340  -32.7910 C   0  0  0  0  0  0  0  0  0  0  0  0
   -6.3830   19.4550  -32.8650 C   0  0  0  0  0  0  0  0  0  0  0  0
   -6.0980   18.1620  -33.4430 N   0  0  0  0  0  0  0  0  0  0  0  0
   -7.0710   17.1010  -33.6050 C   0  0  0  0  0  0  0  0  0  0  0  0
   -6.3410   16.0740  -34.4630 C   0  0  2  0  0  0  0  0  0  0  0  0
   -6.8240   14.6290  -34.2260 C   0  0  0  0  0  0  0  0  0  0  0  0
   -5.9050   13.7290  -34.7830 O   0  0  0  0  0  0  0  0  0  0  0  0
   -4.8890   16.3100  -34.2690 N   0  0  0  0  0  0  0  0  0  0  0  0
   -4.3040   15.5230  -33.1640 C   0  0  0  0  0  0  0  0  0  0  0  0
   -4.7990   17.7490  -33.9560 C   0  0  0  0  0  0  0  0  0  0  0  0
   -5.3350   20.2630  -32.3590 C   0  0  0  0  0  0  0  0  0  0  0  0
   -5.6530   21.5110  -31.8140 C   0  0  0  0  0  0  0  0  0  0  0  0
   -3.0581   24.7663  -26.1491 H   0  0  0  0  0  0  0  0  0  0  0  0
   -4.5447   25.0052  -27.1286 H   0  0  0  0  0  0  0  0  0  0  0  0
   -3.7156   23.4117  -27.1286 H   0  0  0  0  0  0  0  0  0  0  0  0
   -1.4197   26.4556  -28.0982 H   0  0  0  0  0  0  0  0  0  0  0  0
   -1.5237   25.4123  -26.6332 H   0  0  0  0  0  0  0  0  0  0  0  0
   -0.0176   24.9939  -29.2019 H   0  0  0  0  0  0  0  0  0  0  0  0
    0.4137   24.5456  -27.5081 H   0  0  0  0  0  0  0  0  0  0  0  0
   -3.3580   23.1080  -29.1410 H   0  0  0  0  0  0  0  0  0  0  0  0
   -5.4030   26.1980  -28.7340 H   0  0  0  0  0  0  0  0  0  0  0  0
   -6.4710   24.7640  -28.5830 H   0  0  0  0  0  0  0  0  0  0  0  0
   -7.8194   23.8134  -30.9095 H   0  0  0  0  0  0  0  0  0  0  0  0
   -9.0430   21.5577  -32.1650 H   0  0  0  0  0  0  0  0  0  0  0  0
   -8.5412   19.3147  -33.1831 H   0  0  0  0  0  0  0  0  0  0  0  0
   -7.3503   16.6721  -32.6313 H   0  0  0  0  0  0  0  0  0  0  0  0
   -8.0105   17.4481  -34.0599 H   0  0  0  0  0  0  0  0  0  0  0  0
   -6.5757   16.2054  -35.5296 H   0  0  0  0  0  0  0  0  0  0  0  0
   -6.9086   14.4439  -33.1450 H   0  0  0  0  0  0  0  0  0  0  0  0
   -7.8061   14.4894  -34.7013 H   0  0  0  0  0  0  0  0  0  0  0  0
   -5.0980   14.2620  -35.0070 H   0  0  0  0  0  0  0  0  0  0  0  0
   -4.6216   15.9502  -32.2014 H   0  0  0  0  0  0  0  0  0  0  0  0
   -4.6482   14.4806  -33.2339 H   0  0  0  0  0  0  0  0  0  0  0  0
   -3.2066   15.5522  -33.2339 H   0  0  0  0  0  0  0  0  0  0  0  0
   -4.0221   17.9213  -33.1966 H   0  0  0  0  0  0  0  0  0  0  0  0
   -4.5326   18.3271  -34.8531 H   0  0  0  0  0  0  0  0  0  0  0  0
   -4.2919   19.9156  -32.3941 H   0  0  0  0  0  0  0  0  0  0  0  0
  1  2  1  0
  2  3  1  0
  3  4  1  0
  4  5  1  0
  5  6  1  0
  6  7  2  0
  6  8  1  0
  8  9  1  0
  9 10  2  0
  9 11  1  0
 11 12  1  0
 12 13  1  0
 13 14  1  0
 13 15  2  0
 12 16  2  0
 16 17  1  0
 17 18  2  0
 18 19  1  0
 19 20  2  0
 20 21  1  0
 21 22  1  0
 22 23  1  0
 23 24  1  0
 24 25  1  0
 23 26  1  0
 26 27  1  0
 26 28  1  0
 20 29  1  0
 29 30  2  0
 30 11  1  0
 30 17  1  0
 28 21  1  0
  1 31  1  0
  1 32  1  0
  1 33  1  0
  3 34  1  0
  3 35  1  0
  4 36  1  0
  4 37  1  0
  8 38  1  0
 14 39  1  0
 14 40  1  0
 16 41  1  0
 18 42  1  0
 19 43  1  0
 22 44  1  0
 22 45  1  0
 23 46  1  6
 24 47  1  0
 24 48  1  0
 25 49  1  0
 27 50  1  0
 27 51  1  0
 27 52  1  0
 28 53  1  0
 28 54  1  0
 29 55  1  0
M  END
>  <UniqueID>  (17) 
16

>  <SMILES>  (17) 
COCCOC(=O)NC(=O)n1c(C(N)=O)cc2ccc(N3C[C@H](CO)N(C)C3)cc21

>  <Energy>  (17) 
101.29822635632368

>  <Genealogy>  (17) 
COCCOC(=O)NC(=O)n1c(C(N)=O)cc2ccc(N3C[C@H](CO)N(C)C3)cc21 (chirality)
COCCOC(=O)NC(=O)n1c(C(N)=O)cc2ccc(N3C[C@H](CO)N(C)C3)cc21 (3D coordinates assigned)
COCCOC(=O)NC(=O)n1c(C(N)=O)cc2ccc(N3C[C@H](CO)N(C)C3)cc21 (nonaromatic ring conformer: 101.29822635632368 kcal/mol)

>  <smiles>  (17) 
COCCOC(=O)NC(=O)n1c(C(N)=O)cc2ccc(N3CC(CO)N(C)C3)cc21

>  <score_type>  (17) 
oracle

>  <origin>  (17) 
adg

>  <m_score__min__energy>  (17) 
-8.4600000000000009

>  <m_primary>  (17) 
energy

$$$$
17:0
     RDKit          3D

 46 47  0  0  0  0  0  0  0  0999 V2000
   -3.8770   25.3020  -30.7330 N   0  0  0  0  0  0  0  0  0  0  0  0
   -5.2040   24.9810  -30.3210 C   0  0  0  0  0  0  0  0  0  0  0  0
   -5.7600   25.6810  -29.4330 O   0  0  0  0  0  0  0  0  0  0  0  0
   -5.9090   23.8090  -30.8770 C   0  0  0  0  0  0  0  0  0  0  0  0
   -7.2840   23.7800  -31.1050 C   0  0  0  0  0  0  0  0  0  0  0  0
   -7.5550   22.5020  -31.5370 C   0  0  0  0  0  0  0  0  0  0  0  0
   -8.7640   21.9230  -31.9130 C   0  0  0  0  0  0  0  0  0  0  0  0
   -8.7470   20.5860  -32.3450 C   0  0  0  0  0  0  0  0  0  0  0  0
   -7.5300   19.8630  -32.4090 C   0  0  0  0  0  0  0  0  0  0  0  0
   -7.5310   18.4230  -32.8540 C   0  0  0  0  0  0  0  0  0  0  0  0
   -6.1100   17.8520  -32.9300 C   0  0  0  0  0  0  0  0  0  0  0  0
   -5.3730   18.3590  -34.1320 C   0  0  0  0  0  0  0  0  0  0  0  0
   -4.3810   19.1220  -33.9920 O   0  0  0  0  0  0  0  0  0  0  0  0
   -5.7550   17.9550  -35.4040 O   0  0  0  0  0  0  0  0  0  0  0  0
   -6.3230   20.4840  -32.0130 C   0  0  0  0  0  0  0  0  0  0  0  0
   -6.3720   21.8100  -31.5670 C   0  0  0  0  0  0  0  0  0  0  0  0
   -5.3510   22.5990  -31.1650 N   0  0  0  0  0  0  0  0  0  0  0  0
   -3.9560   22.2530  -31.1570 C   0  0  0  0  0  0  0  0  0  0  0  0
   -3.1020   23.0650  -31.6050 O   0  0  0  0  0  0  0  0  0  0  0  0
   -3.5520   21.0230  -30.6330 O   0  0  0  0  0  0  0  0  0  0  0  0
   -3.0850   20.8700  -29.2960 C   0  0  0  0  0  0  0  0  0  0  0  0
   -1.6190   21.2870  -29.2070 C   0  0  0  0  0  0  0  0  0  0  0  0
   -1.4910   22.7750  -29.1290 C   0  0  0  0  0  0  0  0  0  0  0  0
   -0.4030   23.3270  -29.4510 O   0  0  0  0  0  0  0  0  0  0  0  0
   -2.5630   23.5330  -28.6440 O   0  0  0  0  0  0  0  0  0  0  0  0
   -2.4540   24.4520  -27.5590 C   0  0  0  0  0  0  0  0  0  0  0  0
   -1.6310   25.6780  -27.9620 C   0  0  0  0  0  0  0  0  0  0  0  0
   -1.3960   25.6930  -29.3440 O   0  0  0  0  0  0  0  0  0  0  0  0
   -3.0540   24.8080  -30.3230 H   0  0  0  0  0  0  0  0  0  0  0  0
   -8.0001   24.6037  -30.9685 H   0  0  0  0  0  0  0  0  0  0  0  0
   -9.7032   22.4943  -31.8731 H   0  0  0  0  0  0  0  0  0  0  0  0
   -9.6876   20.0958  -32.6364 H   0  0  0  0  0  0  0  0  0  0  0  0
   -8.1161   17.8286  -32.1368 H   0  0  0  0  0  0  0  0  0  0  0  0
   -7.9741   18.3752  -33.8597 H   0  0  0  0  0  0  0  0  0  0  0  0
   -5.5591   18.1450  -32.0241 H   0  0  0  0  0  0  0  0  0  0  0  0
   -6.1839   16.7574  -33.0094 H   0  0  0  0  0  0  0  0  0  0  0  0
   -5.3687   19.9384  -32.0544 H   0  0  0  0  0  0  0  0  0  0  0  0
   -3.6854   21.5022  -28.6253 H   0  0  0  0  0  0  0  0  0  0  0  0
   -3.1805   19.8156  -28.9973 H   0  0  0  0  0  0  0  0  0  0  0  0
   -1.1713   20.8394  -28.3075 H   0  0  0  0  0  0  0  0  0  0  0  0
   -1.0985   20.9364  -30.1104 H   0  0  0  0  0  0  0  0  0  0  0  0
   -3.4614   24.7770  -27.2598 H   0  0  0  0  0  0  0  0  0  0  0  0
   -1.9480   23.9489  -26.7218 H   0  0  0  0  0  0  0  0  0  0  0  0
   -2.1804   26.5885  -27.6806 H   0  0  0  0  0  0  0  0  0  0  0  0
   -0.6625   25.6363  -27.4422 H   0  0  0  0  0  0  0  0  0  0  0  0
   -1.8960   24.9240  -29.7250 H   0  0  0  0  0  0  0  0  0  0  0  0
  1  2  1  0
  2  3  2  0
  2  4  1  0
  4  5  2  0
  5  6  1  0
  6  7  2  0
  7  8  1  0
  8  9  2  0
  9 10  1  0
 10 11  1  0
 11 12  1  0
 12 13  2  0
 12 14  1  0
  9 15  1  0
 15 16  2  0
 16 17  1  0
 17 18  1  0
 18 19  2  0
 18 20  1  0
 20 21  1  0
 21 22  1  0
 22 23  1  0
 23 24  2  0
 23 25  1  0
 25 26  1  0
 26 27  1  0
 27 28  1  0
 17  4  1  0
 16  6  1  0
  1 29  1  0
  5 30  1  0
  7 31  1  0
  8 32  1  0
 10 33  1  0
 10 34  1  0
 11 35  1  0
 11 36  1  0
 15 37  1  0
 21 38  1  0
 21 39  1  0
 22 40  1  0
 22 41  1  0
 26 42  1  0
 26 43  1  0
 27 44  1  0
 27 45  1  0
 28 46  1  0
M  CHG  2   1  -1  14  -1
M  END
>  <UniqueID>  (18) 
17

>  <SMILES>  (18) 
[NH-]C(=O)c1cc2ccc(CCC(=O)[O-])cc2n1C(=O)OCCC(=O)OCCO

>  <Energy>  (18) 
72.62440707722065

>  <Genealogy>  (18) 
[NH-]C(=O)c1cc2ccc(CCC(=O)[O-])cc2n1C(=O)OCCC(=O)OCCO (protonated)
[NH-]C(=O)c1cc2ccc(CCC(=O)[O-])cc2n1C(=O)OCCC(=O)OCCO (3D coordinates assigned)
[NH-]C(=O)c1cc2ccc(CCC(=O)[O-])cc2n1C(=O)OCCC(=O)OCCO (optimized conformer: 72.62440707722065 kcal/mol)

>  <smiles>  (18) 
NC(=O)c1cc2ccc(CCC(=O)O)cc2n1C(=O)OCCC(=O)OCCO

>  <score_type>  (18) 
oracle

>  <origin>  (18) 
adg

>  <m_score__min__energy>  (18) 
-10.35

>  <m_primary>  (18) 
energy

$$$$
18:0
     RDKit          3D

 52 54  0  0  0  0  0  0  0  0999 V2000
    0.3510   17.2030  -36.4440 C   0  0  0  0  0  0  0  0  0  0  0  0
   -0.4910   16.7370  -35.2390 C   0  0  0  0  0  0  0  0  0  0  0  0
    0.4390   16.1410  -34.1700 C   0  0  0  0  0  0  0  0  0  0  0  0
   -1.3730   15.7180  -35.6490 O   0  0  0  0  0  0  0  0  0  0  0  0
   -1.3080   17.9180  -34.6580 C   0  0  0  0  0  0  0  0  0  0  0  0
   -2.7040   17.6210  -34.6040 O   0  0  0  0  0  0  0  0  0  0  0  0
   -3.2810   16.7340  -33.6870 C   0  0  0  0  0  0  0  0  0  0  0  0
   -2.5560   15.9450  -33.0210 O   0  0  0  0  0  0  0  0  0  0  0  0
   -4.7040   16.7300  -33.5030 N   0  0  0  0  0  0  0  0  0  0  0  0
   -5.5680   15.7080  -33.7680 C   0  0  0  0  0  0  0  0  0  0  0  0
   -5.1890   14.3310  -34.1410 C   0  0  0  0  0  0  0  0  0  0  0  0
   -3.9090   14.0410  -34.7040 N   0  0  0  0  0  0  0  0  0  0  0  0
   -5.9900   13.3850  -33.9100 O   0  0  0  0  0  0  0  0  0  0  0  0
   -6.8860   16.1240  -33.6020 C   0  0  0  0  0  0  0  0  0  0  0  0
   -6.8050   17.4420  -33.2140 C   0  0  0  0  0  0  0  0  0  0  0  0
   -7.8170   18.3540  -32.9380 C   0  0  0  0  0  0  0  0  0  0  0  0
   -7.4470   19.6690  -32.6080 C   0  0  0  0  0  0  0  0  0  0  0  0
   -6.0810   20.0540  -32.5700 C   0  0  0  0  0  0  0  0  0  0  0  0
   -5.7150   21.4150  -32.2520 N   0  0  0  0  0  0  0  0  0  0  0  0
   -4.3680   21.9130  -32.5700 C   0  0  0  0  0  0  0  0  0  0  0  0
   -3.9170   22.9600  -31.5450 C   0  0  0  0  0  0  0  0  0  0  0  0
   -4.9550   23.9730  -31.3040 N   0  0  0  0  0  0  0  0  0  0  0  0
   -4.6200   25.1700  -30.5780 C   0  0  0  0  0  0  0  0  0  0  0  0
   -3.4900   25.2900  -30.0340 O   0  0  0  0  0  0  0  0  0  0  0  0
   -5.5360   26.2110  -30.4680 O   0  0  0  0  0  0  0  0  0  0  0  0
   -6.2980   23.8020  -31.8750 C   0  0  0  0  0  0  0  0  0  0  0  0
   -6.7430   22.3420  -31.7510 C   0  0  0  0  0  0  0  0  0  0  0  0
   -5.0830   19.0940  -32.8640 C   0  0  0  0  0  0  0  0  0  0  0  0
   -5.4790   17.7850  -33.1650 C   0  0  0  0  0  0  0  0  0  0  0  0
    1.2602   17.7062  -36.0833 H   0  0  0  0  0  0  0  0  0  0  0  0
    0.6316   16.3318  -37.0541 H   0  0  0  0  0  0  0  0  0  0  0  0
   -0.2382   17.9034  -37.0541 H   0  0  0  0  0  0  0  0  0  0  0  0
    0.0536   16.3880  -33.1698 H   0  0  0  0  0  0  0  0  0  0  0  0
    0.4798   15.0481  -34.2876 H   0  0  0  0  0  0  0  0  0  0  0  0
    1.4491   16.5604  -34.2876 H   0  0  0  0  0  0  0  0  0  0  0  0
   -2.0390   15.5780  -34.9240 H   0  0  0  0  0  0  0  0  0  0  0  0
   -0.9498   18.1322  -33.6402 H   0  0  0  0  0  0  0  0  0  0  0  0
   -1.1685   18.7875  -35.3172 H   0  0  0  0  0  0  0  0  0  0  0  0
   -3.1630   14.7700  -34.7520 H   0  0  0  0  0  0  0  0  0  0  0  0
   -3.6780   13.0690  -35.0060 H   0  0  0  0  0  0  0  0  0  0  0  0
   -7.7978   15.5267  -33.7495 H   0  0  0  0  0  0  0  0  0  0  0  0
   -8.8750   18.0556  -32.9767 H   0  0  0  0  0  0  0  0  0  0  0  0
   -8.2262   20.4099  -32.3760 H   0  0  0  0  0  0  0  0  0  0  0  0
   -3.6607   21.0706  -32.5598 H   0  0  0  0  0  0  0  0  0  0  0  0
   -4.3919   22.3818  -33.5648 H   0  0  0  0  0  0  0  0  0  0  0  0
   -3.6875   22.4531  -30.5961 H   0  0  0  0  0  0  0  0  0  0  0  0
   -3.0290   23.4702  -31.9465 H   0  0  0  0  0  0  0  0  0  0  0  0
   -7.0075   24.4454  -31.3340 H   0  0  0  0  0  0  0  0  0  0  0  0
   -6.2741   24.0810  -32.9388 H   0  0  0  0  0  0  0  0  0  0  0  0
   -6.9395   22.1179  -30.6921 H   0  0  0  0  0  0  0  0  0  0  0  0
   -7.6508   22.2075  -32.3575 H   0  0  0  0  0  0  0  0  0  0  0  0
   -4.0184   19.3706  -32.8562 H   0  0  0  0  0  0  0  0  0  0  0  0
  1  2  1  0
  2  3  1  0
  2  4  1  0
  2  5  1  0
  5  6  1  0
  6  7  1  0
  7  8  2  0
  7  9  1  0
  9 10  1  0
 10 11  1  0
 11 12  1  0
 11 13  2  0
 10 14  2  0
 14 15  1  0
 15 16  2  0
 16 17  1  0
 17 18  2  0
 18 19  1  0
 19 20  1  0
 20 21  1  0
 21 22  1  0
 22 23  1  0
 23 24  2  0
 23 25  1  0
 22 26  1  0
 26 27  1  0
 18 28  1  0
 28 29  2  0
 29  9  1  0
 29 15  1  0
 27 19  1  0
  1 30  1  0
  1 31  1  0
  1 32  1  0
  3 33  1  0
  3 34  1  0
  3 35  1  0
  4 36  1  0
  5 37  1  0
  5 38  1  0
 12 39  1  0
 12 40  1  0
 14 41  1  0
 16 42  1  0
 17 43  1  0
 20 44  1  0
 20 45  1  0
 21 46  1  0
 21 47  1  0
 26 48  1  0
 26 49  1  0
 27 50  1  0
 27 51  1  0
 28 52  1  0
M  CHG  1  25  -1
M  END
>  <UniqueID>  (19) 
18

>  <SMILES>  (19) 
CC(C)(O)COC(=O)n1c(C(N)=O)cc2ccc(N3CCN(C(=O)[O-])CC3)cc21

>  <Energy>  (19) 
90.97745689153317

>  <Genealogy>  (19) 
CC(C)(O)COC(=O)n1c(C(N)=O)cc2ccc(N3CCN(C(=O)[O-])CC3)cc21 (protonated)
CC(C)(O)COC(=O)n1c(C(N)=O)cc2ccc(N3CCN(C(=O)[O-])CC3)cc21 (3D coordinates assigned)
CC(C)(O)COC(=O)n1c(C(N)=O)cc2ccc(N3CCN(C(=O)[O-])CC3)cc21 (nonaromatic ring conformer: 90.97745689153317 kcal/mol)

>  <smiles>  (19) 
CC(C)(O)COC(=O)n1c(C(N)=O)cc2ccc(N3CCN(C(=O)O)CC3)cc21

>  <score_type>  (19) 
oracle

>  <origin>  (19) 
adg

>  <m_score__min__energy>  (19) 
-10.34

>  <m_primary>  (19) 
energy

$$$$
19:0
     RDKit          3D

 39 40  0  0  0  0  0  0  0  0999 V2000
   -5.3970   24.5060  -29.1360 N   0  0  0  0  0  0  0  0  0  0  0  0
   -6.5250   24.3450  -29.9990 C   0  0  0  0  0  0  0  0  0  0  0  0
   -7.3640   25.2800  -30.1100 O   0  0  0  0  0  0  0  0  0  0  0  0
   -6.7540   23.0790  -30.7170 C   0  0  0  0  0  0  0  0  0  0  0  0
   -8.0280   22.5950  -30.9890 C   0  0  0  0  0  0  0  0  0  0  0  0
   -7.8320   21.3770  -31.5900 C   0  0  0  0  0  0  0  0  0  0  0  0
   -8.7680   20.4610  -32.0580 C   0  0  0  0  0  0  0  0  0  0  0  0
   -8.2980   19.2730  -32.6390 C   0  0  0  0  0  0  0  0  0  0  0  0
   -6.9080   19.0300  -32.7670 C   0  0  0  0  0  0  0  0  0  0  0  0
   -6.4240   17.7190  -33.3400 C   0  0  0  0  0  0  0  0  0  0  0  0
   -7.3970   16.7430  -33.2190 F   0  0  0  0  0  0  0  0  0  0  0  0
   -5.2910   17.3170  -32.6580 F   0  0  0  0  0  0  0  0  0  0  0  0
   -6.1220   17.8500  -34.6870 F   0  0  0  0  0  0  0  0  0  0  0  0
   -5.9830   19.9820  -32.2680 C   0  0  0  0  0  0  0  0  0  0  0  0
   -6.4770   21.1600  -31.6800 C   0  0  0  0  0  0  0  0  0  0  0  0
   -5.7930   22.2110  -31.1510 N   0  0  0  0  0  0  0  0  0  0  0  0
   -4.3650   22.4390  -31.1730 C   0  0  0  0  0  0  0  0  0  0  0  0
   -3.7810   22.7250  -32.2560 O   0  0  0  0  0  0  0  0  0  0  0  0
   -3.6260   22.3930  -29.9790 O   0  0  0  0  0  0  0  0  0  0  0  0
   -2.3750   23.0590  -29.8000 C   0  0  0  0  0  0  0  0  0  0  0  0
   -2.5660   24.5500  -29.7160 C   0  0  0  0  0  0  0  0  0  0  0  0
   -3.5110   25.0840  -30.3570 O   0  0  0  0  0  0  0  0  0  0  0  0
   -1.6740   25.3910  -28.9680 N   0  0  0  0  0  0  0  0  0  0  0  0
   -1.2100   25.1270  -27.6070 C   0  0  0  0  0  0  0  0  0  0  0  0
   -2.3870   24.7430  -26.7060 C   0  0  0  0  0  0  0  0  0  0  0  0
   -3.5980   24.8470  -27.4050 O   0  0  0  0  0  0  0  0  0  0  0  0
   -4.7330   23.7160  -28.9640 H   0  0  0  0  0  0  0  0  0  0  0  0
   -5.2550   25.4120  -28.6310 H   0  0  0  0  0  0  0  0  0  0  0  0
   -8.9886   23.0839  -30.7694 H   0  0  0  0  0  0  0  0  0  0  0  0
   -9.8463   20.6619  -31.9751 H   0  0  0  0  0  0  0  0  0  0  0  0
   -9.0168   18.5222  -32.9990 H   0  0  0  0  0  0  0  0  0  0  0  0
   -4.9001   19.8025  -32.3395 H   0  0  0  0  0  0  0  0  0  0  0  0
   -1.9076   22.7031  -28.8700 H   0  0  0  0  0  0  0  0  0  0  0  0
   -1.7318   22.8357  -30.6639 H   0  0  0  0  0  0  0  0  0  0  0  0
   -0.4835   24.3012  -27.6257 H   0  0  0  0  0  0  0  0  0  0  0  0
   -0.7381   26.0372  -27.2084 H   0  0  0  0  0  0  0  0  0  0  0  0
   -2.2559   23.7064  -26.3622 H   0  0  0  0  0  0  0  0  0  0  0  0
   -2.4138   25.4285  -25.8462 H   0  0  0  0  0  0  0  0  0  0  0  0
   -3.4590   25.5150  -28.1310 H   0  0  0  0  0  0  0  0  0  0  0  0
  1  2  1  0
  2  3  2  0
  2  4  1  0
  4  5  2  0
  5  6  1  0
  6  7  2  0
  7  8  1  0
  8  9  2  0
  9 10  1  0
 10 11  1  0
 10 12  1  0
 10 13  1  0
  9 14  1  0
 14 15  2  0
 15 16  1  0
 16 17  1  0
 17 18  2  0
 17 19  1  0
 19 20  1  0
 20 21  1  0
 21 22  2  0
 21 23  1  0
 23 24  1  0
 24 25  1  0
 25 26  1  0
 16  4  1  0
 15  6  1  0
  1 27  1  0
  1 28  1  0
  5 29  1  0
  7 30  1  0
  8 31  1  0
 14 32  1  0
 20 33  1  0
 20 34  1  0
 24 35  1  0
 24 36  1  0
 25 37  1  0
 25 38  1  0
 26 39  1  0
M  CHG  1  23  -1
M  END
>  <UniqueID>  (20) 
19

>  <SMILES>  (20) 
NC(=O)c1cc2ccc(C(F)(F)F)cc2n1C(=O)OCC(=O)[N-]CCO

>  <Energy>  (20) 
74.9812482604419

>  <Genealogy>  (20) 
NC(=O)c1cc2ccc(C(F)(F)F)cc2n1C(=O)OCC(=O)[N-]CCO (protonated)
NC(=O)c1cc2ccc(C(F)(F)F)cc2n1C(=O)OCC(=O)[N-]CCO (3D coordinates assigned)
NC(=O)c1cc2ccc(C(F)(F)F)cc2n1C(=O)OCC(=O)[N-]CCO (optimized conformer: 74.9812482604419 kcal/mol)

>  <smiles>  (20) 
NC(=O)c1cc2ccc(C(F)(F)F)cc2n1C(=O)OCC(=O)NCCO

>  <score_type>  (20) 
oracle

>  <origin>  (20) 
adg

>  <m_score__min__energy>  (20) 
-9.3399999999999999

>  <m_primary>  (20) 
energy

$$$$
20:0
     RDKit          3D

 69 71  0  0  0  0  0  0  0  0999 V2000
   -3.5030   16.6670  -35.8150 C   0  0  0  0  0  0  0  0  0  0  0  0
   -4.7600   16.7040  -34.9370 C   0  0  2  0  0  0  0  0  0  0  0  0
   -5.2860   18.1490  -34.7940 C   0  0  0  0  0  0  0  0  0  0  0  0
   -6.1600   18.2690  -33.6190 N   0  0  0  0  0  0  0  0  0  0  0  0
   -6.4360   19.5660  -33.0470 C   0  0  0  0  0  0  0  0  0  0  0  0
   -7.7740   19.9950  -32.8540 C   0  0  0  0  0  0  0  0  0  0  0  0
   -8.0530   21.2450  -32.2790 C   0  0  0  0  0  0  0  0  0  0  0  0
   -6.9790   22.0390  -31.8890 C   0  0  0  0  0  0  0  0  0  0  0  0
   -6.9690   23.2880  -31.3140 C   0  0  0  0  0  0  0  0  0  0  0  0
   -5.6250   23.6000  -31.1340 C   0  0  0  0  0  0  0  0  0  0  0  0
   -5.1640   24.8170  -30.4370 C   0  0  0  0  0  0  0  0  0  0  0  0
   -3.8640   25.3490  -30.6800 N   0  0  0  0  0  0  0  0  0  0  0  0
   -5.9030   25.3600  -29.5750 O   0  0  0  0  0  0  0  0  0  0  0  0
   -4.8320   22.5910  -31.5950 N   0  0  0  0  0  0  0  0  0  0  0  0
   -3.3970   22.5830  -31.6900 C   0  0  0  0  0  0  0  0  0  0  0  0
   -2.8430   22.3050  -32.7880 O   0  0  0  0  0  0  0  0  0  0  0  0
   -2.6310   22.8820  -30.5560 O   0  0  0  0  0  0  0  0  0  0  0  0
   -3.0000   22.5930  -29.2360 C   0  0  0  0  0  0  0  0  0  0  0  0
   -3.5360   23.4710  -28.5040 O   0  0  0  0  0  0  0  0  0  0  0  0
   -2.7660   21.3040  -28.7460 O   0  0  0  0  0  0  0  0  0  0  0  0
   -2.5340   21.0090  -27.3700 C   0  0  0  0  0  0  0  0  0  0  0  0
   -1.0410   20.7790  -27.1080 C   0  0  0  0  0  0  0  0  0  0  0  0
   -0.3070   22.0900  -26.8280 C   0  0  0  0  0  0  0  0  0  0  0  0
   -0.5320   23.0070  -27.8950 O   0  0  0  0  0  0  0  0  0  0  0  0
   -0.1500   24.3510  -27.8320 C   0  0  0  0  0  0  0  0  0  0  0  0
    1.0710   24.6670  -27.9150 O   0  0  0  0  0  0  0  0  0  0  0  0
   -1.2030   25.4300  -27.7010 C   0  0  0  0  0  0  0  0  0  0  0  0
   -2.1200   25.1230  -26.5000 C   0  0  0  0  0  0  0  0  0  0  0  0
   -0.5020   26.7830  -27.4910 C   0  0  0  0  0  0  0  0  0  0  0  0
   -2.0010   25.4920  -28.9340 N   0  0  0  0  0  0  0  0  0  0  0  0
   -5.6790   21.6380  -32.0490 C   0  0  0  0  0  0  0  0  0  0  0  0
   -5.3720   20.4060  -32.6400 C   0  0  0  0  0  0  0  0  0  0  0  0
   -6.7880   17.0540  -33.0890 C   0  0  0  0  0  0  0  0  0  0  0  0
   -5.7200   15.9640  -32.8000 C   0  0  2  0  0  0  0  0  0  0  0  0
   -5.3810   15.9100  -31.3030 C   0  0  0  0  0  0  0  0  0  0  0  0
   -4.4810   16.1430  -33.6000 N   0  0  0  0  0  0  0  0  0  0  0  0
   -2.6091   16.6407  -35.1746 H   0  0  0  0  0  0  0  0  0  0  0  0
   -3.5256   15.7691  -36.4501 H   0  0  0  0  0  0  0  0  0  0  0  0
   -3.4728   17.5646  -36.4501 H   0  0  0  0  0  0  0  0  0  0  0  0
   -5.5303   16.0910  -35.4278 H   0  0  0  0  0  0  0  0  0  0  0  0
   -4.4330   18.8344  -34.6812 H   0  0  0  0  0  0  0  0  0  0  0  0
   -5.8650   18.4055  -35.6934 H   0  0  0  0  0  0  0  0  0  0  0  0
   -8.6036   19.3401  -33.1587 H   0  0  0  0  0  0  0  0  0  0  0  0
   -9.0895   21.5864  -32.1409 H   0  0  0  0  0  0  0  0  0  0  0  0
   -7.8386   23.9086  -31.0520 H   0  0  0  0  0  0  0  0  0  0  0  0
   -3.0280   24.9820  -30.1750 H   0  0  0  0  0  0  0  0  0  0  0  0
   -2.8823   21.8529  -26.7563 H   0  0  0  0  0  0  0  0  0  0  0  0
   -3.0837   20.0931  -27.1077 H   0  0  0  0  0  0  0  0  0  0  0  0
   -0.9300   20.1155  -26.2377 H   0  0  0  0  0  0  0  0  0  0  0  0
   -0.6010   20.3256  -28.0084 H   0  0  0  0  0  0  0  0  0  0  0  0
   -0.6803   22.5240  -25.8887 H   0  0  0  0  0  0  0  0  0  0  0  0
    0.7714   21.8910  -26.7417 H   0  0  0  0  0  0  0  0  0  0  0  0
   -1.5721   25.3064  -25.5640 H   0  0  0  0  0  0  0  0  0  0  0  0
   -3.0062   25.7735  -26.5396 H   0  0  0  0  0  0  0  0  0  0  0  0
   -2.4359   24.0701  -26.5396 H   0  0  0  0  0  0  0  0  0  0  0  0
   -0.4000   26.9798  -26.4136 H   0  0  0  0  0  0  0  0  0  0  0  0
    0.4951   26.7552  -27.9546 H   0  0  0  0  0  0  0  0  0  0  0  0
   -1.0998   27.5815  -27.9546 H   0  0  0  0  0  0  0  0  0  0  0  0
   -1.8940   24.5950  -29.4630 H   0  0  0  0  0  0  0  0  0  0  0  0
   -3.0140   25.5780  -28.6890 H   0  0  0  0  0  0  0  0  0  0  0  0
   -4.3261   20.0977  -32.7848 H   0  0  0  0  0  0  0  0  0  0  0  0
   -7.3160   17.2984  -32.1555 H   0  0  0  0  0  0  0  0  0  0  0  0
   -7.4947   16.6664  -33.8375 H   0  0  0  0  0  0  0  0  0  0  0  0
   -6.1667   15.0060  -33.1044 H   0  0  0  0  0  0  0  0  0  0  0  0
   -6.2983   16.0561  -30.7138 H   0  0  0  0  0  0  0  0  0  0  0  0
   -4.9422   14.9306  -31.0615 H   0  0  0  0  0  0  0  0  0  0  0  0
   -4.6596   16.7046  -31.0615 H   0  0  0  0  0  0  0  0  0  0  0  0
   -4.0200   15.2080  -33.7030 H   0  0  0  0  0  0  0  0  0  0  0  0
   -3.8110   16.7780  -33.1040 H   0  0  0  0  0  0  0  0  0  0  0  0
  1  2  1  0
  2  3  1  0
  3  4  1  0
  4  5  1  0
  5  6  2  0
  6  7  1  0
  7  8  2  0
  8  9  1  0
  9 10  2  0
 10 11  1  0
 11 12  1  0
 11 13  2  0
 10 14  1  0
 14 15  1  0
 15 16  2  0
 15 17  1  0
 17 18  1  0
 18 19  2  0
 18 20  1  0
 20 21  1  0
 21 22  1  0
 22 23  1  0
 23 24  1  0
 24 25  1  0
 25 26  2  0
 25 27  1  0
 27 28  1  0
 27 29  1  0
 27 30  1  0
 14 31  1  0
 31 32  2  0
  4 33  1  0
 33 34  1  0
 34 35  1  0
 34 36  1  0
 36  2  1  0
 32  5  1  0
 31  8  1  0
  1 37  1  0
  1 38  1  0
  1 39  1  0
  2 40  1  6
  3 41  1  0
  3 42  1  0
  6 43  1  0
  7 44  1  0
  9 45  1  0
 12 46  1  0
 21 47  1  0
 21 48  1  0
 22 49  1  0
 22 50  1  0
 23 51  1  0
 23 52  1  0
 28 53  1  0
 28 54  1  0
 28 55  1  0
 29 56  1  0
 29 57  1  0
 29 58  1  0
 30 59  1  0
 30 60  1  0
 32 61  1  0
 33 62  1  0
 33 63  1  0
 34 64  1  6
 35 65  1  0
 35 66  1  0
 35 67  1  0
 36 68  1  0
 36 69  1  0
M  CHG  2  12  -1  36   1
M  END
>  <UniqueID>  (21) 
20

>  <SMILES>  (21) 
C[C@@H]1CN(c2ccc3cc(C([NH-])=O)n(C(=O)OC(=O)OCCCOC(=O)C(C)(C)N)c3c2)C[C@H](C)[NH2+]1

>  <Energy>  (21) 
105.6586843368358

>  <Genealogy>  (21) 
C[C@@H]1CN(c2ccc3cc(C([NH-])=O)n(C(=O)OC(=O)OCCCOC(=O)C(C)(C)N)c3c2)C[C@H](C)[NH2+]1 (protonated)
C[C@@H]1CN(c2ccc3cc(C([NH-])=O)n(C(=O)OC(=O)OCCCOC(=O)C(C)(C)N)c3c2)C[C@H](C)[NH2+]1 (3D coordinates assigned)
C[C@@H]1CN(c2ccc3cc(C([NH-])=O)n(C(=O)OC(=O)OCCCOC(=O)C(C)(C)N)c3c2)C[C@H](C)[NH2+]1 (nonaromatic ring conformer: 105.6586843368358 kcal/mol)

>  <smiles>  (21) 
C[C@@H]1CN(c2ccc3cc(C(N)=O)n(C(=O)OC(=O)OCCCOC(=O)C(C)(C)N)c3c2)C[C@H](C)N1

>  <score_type>  (21) 
oracle

>  <origin>  (21) 
adg

>  <m_score__min__energy>  (21) 
-10.07

>  <m_primary>  (21) 
energy

$$$$
21:0
     RDKit          3D

 48 50  0  0  0  0  0  0  0  0999 V2000
   -2.4120   18.7910  -26.3410 C   0  0  0  0  0  0  0  0  0  0  0  0
   -1.4090   19.6930  -26.9240 N   0  0  0  0  0  0  0  0  0  0  0  0
   -1.5200   19.7570  -28.3840 C   0  0  0  0  0  0  0  0  0  0  0  0
   -0.9560   21.1030  -28.8090 C   0  0  0  0  0  0  0  0  0  0  0  0
   -1.0470   21.9840  -27.5620 C   0  0  1  0  0  0  0  0  0  0  0  0
   -1.9200   23.1610  -27.7670 N   0  0  0  0  0  0  0  0  0  0  0  0
   -2.2000   24.0990  -26.6710 C   0  0  0  0  0  0  0  0  0  0  0  0
   -2.4790   23.4500  -29.0640 C   0  0  0  0  0  0  0  0  0  0  0  0
   -2.2310   24.5470  -29.6340 O   0  0  0  0  0  0  0  0  0  0  0  0
   -3.3060   22.5010  -29.6820 O   0  0  0  0  0  0  0  0  0  0  0  0
   -3.8390   22.6060  -30.9750 C   0  0  0  0  0  0  0  0  0  0  0  0
   -3.0850   22.5920  -31.9850 O   0  0  0  0  0  0  0  0  0  0  0  0
   -5.2600   22.7190  -31.1450 N   0  0  0  0  0  0  0  0  0  0  0  0
   -6.0470   23.7850  -30.8250 C   0  0  0  0  0  0  0  0  0  0  0  0
   -5.5600   25.1120  -30.3890 C   0  0  0  0  0  0  0  0  0  0  0  0
   -4.2160   25.5180  -30.6540 N   0  0  0  0  0  0  0  0  0  0  0  0
   -6.3190   25.8840  -29.7470 O   0  0  0  0  0  0  0  0  0  0  0  0
   -7.3900   23.4870  -31.0520 C   0  0  0  0  0  0  0  0  0  0  0  0
   -7.4010   22.1960  -31.5280 C   0  0  0  0  0  0  0  0  0  0  0  0
   -8.4730   21.3890  -31.8930 C   0  0  0  0  0  0  0  0  0  0  0  0
   -8.1970   20.0770  -32.3150 C   0  0  0  0  0  0  0  0  0  0  0  0
   -6.8620   19.6010  -32.3750 C   0  0  0  0  0  0  0  0  0  0  0  0
   -6.5850   18.1720  -32.7690 C   0  0  0  0  0  0  0  0  0  0  0  0
   -5.5220   17.6930  -32.0250 F   0  0  0  0  0  0  0  0  0  0  0  0
   -6.2690   18.0880  -34.1140 F   0  0  0  0  0  0  0  0  0  0  0  0
   -7.6940   17.3760  -32.5350 F   0  0  0  0  0  0  0  0  0  0  0  0
   -5.8020   20.4460  -31.9720 C   0  0  0  0  0  0  0  0  0  0  0  0
   -6.1050   21.7540  -31.5740 C   0  0  0  0  0  0  0  0  0  0  0  0
   -1.5700   21.0710  -26.4490 C   0  0  0  0  0  0  0  0  0  0  0  0
   -2.3563   18.8411  -25.2436 H   0  0  0  0  0  0  0  0  0  0  0  0
   -3.4158   19.0962  -26.6715 H   0  0  0  0  0  0  0  0  0  0  0  0
   -2.2147   17.7606  -26.6715 H   0  0  0  0  0  0  0  0  0  0  0  0
   -0.9418   18.9420  -28.8438 H   0  0  0  0  0  0  0  0  0  0  0  0
   -2.5664   19.6484  -28.7053 H   0  0  0  0  0  0  0  0  0  0  0  0
    0.0901   20.9987  -29.1328 H   0  0  0  0  0  0  0  0  0  0  0  0
   -1.5081   21.5320  -29.6582 H   0  0  0  0  0  0  0  0  0  0  0  0
   -0.0649   22.4082  -27.3062 H   0  0  0  0  0  0  0  0  0  0  0  0
   -2.0486   23.5919  -25.7067 H   0  0  0  0  0  0  0  0  0  0  0  0
   -1.5199   24.9605  -26.7430 H   0  0  0  0  0  0  0  0  0  0  0  0
   -3.2411   24.4467  -26.7430 H   0  0  0  0  0  0  0  0  0  0  0  0
   -3.5740   24.9250  -31.2250 H   0  0  0  0  0  0  0  0  0  0  0  0
   -3.8710   26.4410  -30.3120 H   0  0  0  0  0  0  0  0  0  0  0  0
   -8.2564   24.1441  -30.8859 H   0  0  0  0  0  0  0  0  0  0  0  0
   -9.5056   21.7659  -31.8527 H   0  0  0  0  0  0  0  0  0  0  0  0
   -9.0251   19.4122  -32.6018 H   0  0  0  0  0  0  0  0  0  0  0  0
   -4.7632   20.0841  -31.9712 H   0  0  0  0  0  0  0  0  0  0  0  0
   -0.9887   21.2249  -25.5279 H   0  0  0  0  0  0  0  0  0  0  0  0
   -2.6233   21.2900  -26.2197 H   0  0  0  0  0  0  0  0  0  0  0  0
  1  2  1  0
  2  3  1  0
  3  4  1  0
  4  5  1  0
  5  6  1  0
  6  7  1  0
  6  8  1  0
  8  9  2  0
  8 10  1  0
 10 11  1  0
 11 12  2  0
 11 13  1  0
 13 14  1  0
 14 15  1  0
 15 16  1  0
 15 17  2  0
 14 18  2  0
 18 19  1  0
 19 20  2  0
 20 21  1  0
 21 22  2  0
 22 23  1  0
 23 24  1  0
 23 25  1  0
 23 26  1  0
 22 27  1  0
 27 28  2  0
  5 29  1  0
 29  2  1  0
 28 13  1  0
 28 19  1  0
  1 30  1  0
  1 31  1  0
  1 32  1  0
  3 33  1  0
  3 34  1  0
  4 35  1  0
  4 36  1  0
  5 37  1  1
  7 38  1  0
  7 39  1  0
  7 40  1  0
 16 41  1  0
 16 42  1  0
 18 43  1  0
 20 44  1  0
 21 45  1  0
 27 46  1  0
 29 47  1  0
 29 48  1  0
M  END
>  <UniqueID>  (22) 
21

>  <SMILES>  (22) 
CN1CC[C@@H](N(C)C(=O)OC(=O)n2c(C(N)=O)cc3ccc(C(F)(F)F)cc32)C1

>  <Energy>  (22) 
91.21358513557192

>  <Genealogy>  (22) 
CN1CC[C@@H](N(C)C(=O)OC(=O)n2c(C(N)=O)cc3ccc(C(F)(F)F)cc32)C1 (chirality)
CN1CC[C@@H](N(C)C(=O)OC(=O)n2c(C(N)=O)cc3ccc(C(F)(F)F)cc32)C1 (3D coordinates assigned)
CN1CC[C@@H](N(C)C(=O)OC(=O)n2c(C(N)=O)cc3ccc(C(F)(F)F)cc32)C1 (nonaromatic ring conformer: 91.21358513557192 kcal/mol)

>  <smiles>  (22) 
CN1CCC(N(C)C(=O)OC(=O)n2c(C(N)=O)cc3ccc(C(F)(F)F)cc32)C1

>  <score_type>  (22) 
oracle

>  <origin>  (22) 
adg

>  <m_score__min__energy>  (22) 
-9.5

>  <m_primary>  (22) 
energy

$$$$
22:0
     RDKit          3D

 41 42  0  0  0  0  0  0  0  0999 V2000
   -5.9490   15.6750  -33.8090 C   0  0  0  0  0  0  0  0  0  0  0  0
   -5.6790   17.0760  -34.1480 N   0  0  0  0  0  0  0  0  0  0  0  0
   -4.5890   17.4090  -35.0710 C   0  0  0  0  0  0  0  0  0  0  0  0
   -6.4910   18.1460  -33.6170 C   0  0  0  0  0  0  0  0  0  0  0  0
   -6.4240   19.2950  -34.1340 O   0  0  0  0  0  0  0  0  0  0  0  0
   -7.3740   17.9640  -32.4070 C   0  0  0  0  0  0  0  0  0  0  0  0
   -8.5840   18.9080  -32.4480 C   0  0  0  0  0  0  0  0  0  0  0  0
   -8.2110   20.3080  -32.0340 C   0  0  0  0  0  0  0  0  0  0  0  0
   -9.1470   21.3640  -32.1720 C   0  0  0  0  0  0  0  0  0  0  0  0
   -8.7950   22.6800  -31.8320 C   0  0  0  0  0  0  0  0  0  0  0  0
   -7.5010   22.9120  -31.3790 C   0  0  0  0  0  0  0  0  0  0  0  0
   -6.9110   24.0790  -30.9500 C   0  0  0  0  0  0  0  0  0  0  0  0
   -5.6110   23.7260  -30.5980 C   0  0  0  0  0  0  0  0  0  0  0  0
   -4.6120   24.6930  -30.0960 C   0  0  0  0  0  0  0  0  0  0  0  0
   -4.0240   24.5480  -28.8030 N   0  0  0  0  0  0  0  0  0  0  0  0
   -4.2370   25.6360  -30.8420 O   0  0  0  0  0  0  0  0  0  0  0  0
   -5.4020   22.3950  -30.7990 N   0  0  0  0  0  0  0  0  0  0  0  0
   -4.2300   21.6380  -30.4510 C   0  0  0  0  0  0  0  0  0  0  0  0
   -3.6120   21.9010  -29.3840 O   0  0  0  0  0  0  0  0  0  0  0  0
   -3.7310   20.5370  -31.3370 C   0  0  0  0  0  0  0  0  0  0  0  0
   -3.3500   21.2140  -33.1130 Br  0  0  0  0  0  0  0  0  0  0  0  0
   -6.5730   21.9080  -31.2670 C   0  0  0  0  0  0  0  0  0  0  0  0
   -6.9080   20.5810  -31.5650 C   0  0  0  0  0  0  0  0  0  0  0  0
   -5.9711   15.5601  -32.7152 H   0  0  0  0  0  0  0  0  0  0  0  0
   -6.9211   15.3770  -34.2287 H   0  0  0  0  0  0  0  0  0  0  0  0
   -5.1573   15.0370  -34.2287 H   0  0  0  0  0  0  0  0  0  0  0  0
   -3.6923   17.6830  -34.4958 H   0  0  0  0  0  0  0  0  0  0  0  0
   -4.3662   16.5380  -35.7047 H   0  0  0  0  0  0  0  0  0  0  0  0
   -4.8910   18.2559  -35.7047 H   0  0  0  0  0  0  0  0  0  0  0  0
   -7.7322   16.9244  -32.3788 H   0  0  0  0  0  0  0  0  0  0  0  0
   -6.7830   18.1984  -31.5094 H   0  0  0  0  0  0  0  0  0  0  0  0
   -8.9822   18.9332  -33.4731 H   0  0  0  0  0  0  0  0  0  0  0  0
   -9.3384   18.5305  -31.7420 H   0  0  0  0  0  0  0  0  0  0  0  0
  -10.1581   21.1503  -32.5488 H   0  0  0  0  0  0  0  0  0  0  0  0
   -9.5204   23.5020  -31.9212 H   0  0  0  0  0  0  0  0  0  0  0  0
   -7.3689   25.0777  -30.8966 H   0  0  0  0  0  0  0  0  0  0  0  0
   -4.1570   23.6770  -28.2440 H   0  0  0  0  0  0  0  0  0  0  0  0
   -3.3610   25.2720  -28.4460 H   0  0  0  0  0  0  0  0  0  0  0  0
   -2.8116   20.1142  -30.9059 H   0  0  0  0  0  0  0  0  0  0  0  0
   -4.5070   19.7610  -31.4112 H   0  0  0  0  0  0  0  0  0  0  0  0
   -6.1740   19.7718  -31.4367 H   0  0  0  0  0  0  0  0  0  0  0  0
  1  2  1  0
  2  3  1  0
  2  4  1  0
  4  5  2  0
  4  6  1  0
  6  7  1  0
  7  8  1  0
  8  9  2  0
  9 10  1  0
 10 11  2  0
 11 12  1  0
 12 13  2  0
 13 14  1  0
 14 15  1  0
 14 16  2  0
 13 17  1  0
 17 18  1  0
 18 19  2  0
 18 20  1  0
 20 21  1  0
 17 22  1  0
 22 23  2  0
 23  8  1  0
 22 11  1  0
  1 24  1  0
  1 25  1  0
  1 26  1  0
  3 27  1  0
  3 28  1  0
  3 29  1  0
  6 30  1  0
  6 31  1  0
  7 32  1  0
  7 33  1  0
  9 34  1  0
 10 35  1  0
 12 36  1  0
 15 37  1  0
 15 38  1  0
 20 39  1  0
 20 40  1  0
 23 41  1  0
M  END
>  <UniqueID>  (23) 
22

>  <SMILES>  (23) 
CN(C)C(=O)CCc1ccc2cc(C(N)=O)n(C(=O)CBr)c2c1

>  <Energy>  (23) 
73.14533618948515

>  <Genealogy>  (23) 
CN(C)C(=O)CCc1ccc2cc(C(N)=O)n(C(=O)CBr)c2c1 (3D coordinates assigned)
CN(C)C(=O)CCc1ccc2cc(C(N)=O)n(C(=O)CBr)c2c1 (optimized conformer: 73.14533618948515 kcal/mol)

>  <smiles>  (23) 
CN(C)C(=O)CCc1ccc2cc(C(N)=O)n(C(=O)CBr)c2c1

>  <score_type>  (23) 
oracle

>  <origin>  (23) 
adg

>  <m_score__min__energy>  (23) 
-9.2300000000000004

>  <m_primary>  (23) 
energy

$$$$
23:0
     RDKit          3D

 36 37  0  0  0  0  0  0  0  0999 V2000
   -6.4530   15.6740  -34.1710 C   0  0  0  0  0  0  0  0  0  0  0  0
   -5.7850   16.9100  -34.5510 N   0  0  0  0  0  0  0  0  0  0  0  0
   -6.0750   18.1670  -33.9350 C   0  0  0  0  0  0  0  0  0  0  0  0
   -6.0270   19.2330  -34.6050 O   0  0  0  0  0  0  0  0  0  0  0  0
   -6.3870   18.2190  -32.4730 C   0  0  0  0  0  0  0  0  0  0  0  0
   -6.6480   19.6390  -32.0530 C   0  0  0  0  0  0  0  0  0  0  0  0
   -7.9710   20.1470  -32.0330 C   0  0  0  0  0  0  0  0  0  0  0  0
   -8.2210   21.4780  -31.6610 C   0  0  0  0  0  0  0  0  0  0  0  0
   -7.1310   22.2800  -31.3350 C   0  0  0  0  0  0  0  0  0  0  0  0
   -7.0880   23.5950  -30.9310 C   0  0  0  0  0  0  0  0  0  0  0  0
   -5.7360   23.8820  -30.7510 C   0  0  0  0  0  0  0  0  0  0  0  0
   -5.2330   25.2280  -30.4050 C   0  0  0  0  0  0  0  0  0  0  0  0
   -3.9510   25.6690  -30.8460 N   0  0  0  0  0  0  0  0  0  0  0  0
   -5.9650   26.0180  -29.7500 O   0  0  0  0  0  0  0  0  0  0  0  0
   -4.9740   22.7860  -31.0230 N   0  0  0  0  0  0  0  0  0  0  0  0
   -3.5500   22.6440  -30.9030 C   0  0  0  0  0  0  0  0  0  0  0  0
   -2.9210   21.8950  -31.6990 O   0  0  0  0  0  0  0  0  0  0  0  0
   -2.8640   23.3630  -29.9200 O   0  0  0  0  0  0  0  0  0  0  0  0
   -1.4490   23.3250  -29.7820 C   0  0  0  0  0  0  0  0  0  0  0  0
   -0.9850   24.5740  -29.1080 C   0  0  0  0  0  0  0  0  0  0  0  0
   -1.6270   25.6480  -29.2490 O   0  0  0  0  0  0  0  0  0  0  0  0
    0.1450   24.5480  -28.3010 O   0  0  0  0  0  0  0  0  0  0  0  0
   -5.8430   21.8130  -31.3810 C   0  0  0  0  0  0  0  0  0  0  0  0
   -5.5660   20.4850  -31.7220 C   0  0  0  0  0  0  0  0  0  0  0  0
   -6.4925   15.6008  -33.0742 H   0  0  0  0  0  0  0  0  0  0  0  0
   -7.4758   15.6705  -34.5758 H   0  0  0  0  0  0  0  0  0  0  0  0
   -5.8955   14.8165  -34.5758 H   0  0  0  0  0  0  0  0  0  0  0  0
   -7.2793   17.6089  -32.2690 H   0  0  0  0  0  0  0  0  0  0  0  0
   -5.5295   17.8268  -31.9066 H   0  0  0  0  0  0  0  0  0  0  0  0
   -8.8101   19.4925  -32.3115 H   0  0  0  0  0  0  0  0  0  0  0  0
   -9.2465   21.8745  -31.6283 H   0  0  0  0  0  0  0  0  0  0  0  0
   -7.9397   24.2750  -30.7819 H   0  0  0  0  0  0  0  0  0  0  0  0
   -3.0760   25.2950  -30.4160 H   0  0  0  0  0  0  0  0  0  0  0  0
   -1.1622   22.4525  -29.1766 H   0  0  0  0  0  0  0  0  0  0  0  0
   -0.9839   23.2481  -30.7758 H   0  0  0  0  0  0  0  0  0  0  0  0
   -4.5323   20.1090  -31.7322 H   0  0  0  0  0  0  0  0  0  0  0  0
  1  2  1  0
  2  3  1  0
  3  4  2  0
  3  5  1  0
  5  6  1  0
  6  7  2  0
  7  8  1  0
  8  9  2  0
  9 10  1  0
 10 11  2  0
 11 12  1  0
 12 13  1  0
 12 14  2  0
 11 15  1  0
 15 16  1  0
 16 17  2  0
 16 18  1  0
 18 19  1  0
 19 20  1  0
 20 21  2  0
 20 22  1  0
 15 23  1  0
 23 24  2  0
 24  6  1  0
 23  9  1  0
  1 25  1  0
  1 26  1  0
  1 27  1  0
  5 28  1  0
  5 29  1  0
  7 30  1  0
  8 31  1  0
 10 32  1  0
 13 33  1  0
 19 34  1  0
 19 35  1  0
 24 36  1  0
M  CHG  3   2  -1  13  -1  22  -1
M  END
>  <UniqueID>  (24) 
23

>  <SMILES>  (24) 
C[N-]C(=O)Cc1ccc2cc(C([NH-])=O)n(C(=O)OCC(=O)[O-])c2c1

>  <Energy>  (24) 
67.2142913267149

>  <Genealogy>  (24) 
C[N-]C(=O)Cc1ccc2cc(C([NH-])=O)n(C(=O)OCC(=O)[O-])c2c1 (protonated)
C[N-]C(=O)Cc1ccc2cc(C([NH-])=O)n(C(=O)OCC(=O)[O-])c2c1 (3D coordinates assigned)
C[N-]C(=O)Cc1ccc2cc(C([NH-])=O)n(C(=O)OCC(=O)[O-])c2c1 (optimized conformer: 67.2142913267149 kcal/mol)

>  <smiles>  (24) 
CNC(=O)Cc1ccc2cc(C(N)=O)n(C(=O)OCC(=O)O)c2c1

>  <score_type>  (24) 
oracle

>  <origin>  (24) 
adg

>  <m_score__min__energy>  (24) 
-12.109999999999999

>  <m_primary>  (24) 
energy

$$$$
24:0
     RDKit          3D

 49 52  0  0  0  0  0  0  0  0999 V2000
   -5.0540   15.6770  -34.1610 C   0  0  0  0  0  0  0  0  0  0  0  0
   -5.9980   16.6850  -33.5970 C   0  0  0  0  0  0  0  0  0  0  0  0
   -7.2520   16.3930  -33.2050 N   0  0  0  0  0  0  0  0  0  0  0  0
   -7.7170   17.5090  -32.7320 O   0  0  0  0  0  0  0  0  0  0  0  0
   -6.7990   18.4420  -32.8150 C   0  0  0  0  0  0  0  0  0  0  0  0
   -6.9870   19.8340  -32.3590 C   0  0  0  0  0  0  0  0  0  0  0  0
   -8.2720   20.4340  -32.3900 C   0  0  0  0  0  0  0  0  0  0  0  0
   -8.4520   21.7670  -31.9810 C   0  0  0  0  0  0  0  0  0  0  0  0
   -7.3360   22.4690  -31.5380 C   0  0  0  0  0  0  0  0  0  0  0  0
   -7.2150   23.7760  -31.1180 C   0  0  0  0  0  0  0  0  0  0  0  0
   -5.8640   23.9460  -30.8170 C   0  0  0  0  0  0  0  0  0  0  0  0
   -5.2930   25.2030  -30.2880 C   0  0  0  0  0  0  0  0  0  0  0  0
   -4.0050   25.6560  -30.6960 N   0  0  0  0  0  0  0  0  0  0  0  0
   -5.9460   25.8790  -29.4490 O   0  0  0  0  0  0  0  0  0  0  0  0
   -5.1800   22.7880  -31.0380 N   0  0  0  0  0  0  0  0  0  0  0  0
   -3.7710   22.5570  -30.9010 C   0  0  0  0  0  0  0  0  0  0  0  0
   -2.9590   23.2340  -31.5890 O   0  0  0  0  0  0  0  0  0  0  0  0
   -3.2670   21.5340  -29.9750 C   0  0  0  0  0  0  0  0  0  0  0  0
   -3.6980   20.3520  -30.0470 O   0  0  0  0  0  0  0  0  0  0  0  0
   -2.2940   21.8850  -28.9890 N   0  0  0  0  0  0  0  0  0  0  0  0
   -2.5780   22.7980  -27.8870 C   0  0  0  0  0  0  0  0  0  0  0  0
   -1.6950   24.0660  -27.9580 C   0  0  2  0  0  0  0  0  0  0  0  0
   -1.6780   24.5450  -29.2830 O   0  0  0  0  0  0  0  0  0  0  0  0
   -0.2410   23.7910  -27.4900 C   0  0  0  0  0  0  0  0  0  0  0  0
    0.4390   25.1310  -27.2220 C   0  0  0  0  0  0  0  0  0  0  0  0
   -0.8540   26.2010  -26.6630 S   0  0  0  0  0  0  0  0  0  0  0  0
   -0.8700   27.4940  -27.4290 O   0  0  0  0  0  0  0  0  0  0  0  0
   -0.7590   26.4550  -25.1850 O   0  0  0  0  0  0  0  0  0  0  0  0
   -2.2500   25.1890  -27.0610 C   0  0  0  0  0  0  0  0  0  0  0  0
   -6.0920   21.8980  -31.4840 C   0  0  0  0  0  0  0  0  0  0  0  0
   -5.8790   20.5800  -31.9020 C   0  0  0  0  0  0  0  0  0  0  0  0
   -5.6610   17.9690  -33.3600 N   0  0  0  0  0  0  0  0  0  0  0  0
   -4.5539   15.1430  -33.3395 H   0  0  0  0  0  0  0  0  0  0  0  0
   -5.6115   14.9584  -34.7797 H   0  0  0  0  0  0  0  0  0  0  0  0
   -4.3004   16.1863  -34.7797 H   0  0  0  0  0  0  0  0  0  0  0  0
   -9.1369   19.8501  -32.7378 H   0  0  0  0  0  0  0  0  0  0  0  0
   -9.4446   22.2401  -32.0104 H   0  0  0  0  0  0  0  0  0  0  0  0
   -8.0151   24.5266  -31.0373 H   0  0  0  0  0  0  0  0  0  0  0  0
   -3.1460   25.1050  -30.4750 H   0  0  0  0  0  0  0  0  0  0  0  0
   -3.6358   23.0962  -27.9337 H   0  0  0  0  0  0  0  0  0  0  0  0
   -2.3586   22.2776  -26.9430 H   0  0  0  0  0  0  0  0  0  0  0  0
   -2.2750   23.9670  -29.8280 H   0  0  0  0  0  0  0  0  0  0  0  0
   -0.2544   23.1901  -26.5687 H   0  0  0  0  0  0  0  0  0  0  0  0
    0.3077   23.2365  -28.2655 H   0  0  0  0  0  0  0  0  0  0  0  0
    1.2128   25.0232  -26.4476 H   0  0  0  0  0  0  0  0  0  0  0  0
    0.9410   25.5247  -28.1181 H   0  0  0  0  0  0  0  0  0  0  0  0
   -2.6940   24.7681  -26.1468 H   0  0  0  0  0  0  0  0  0  0  0  0
   -3.0422   25.7625  -27.5645 H   0  0  0  0  0  0  0  0  0  0  0  0
   -4.8730   20.1359  -31.8752 H   0  0  0  0  0  0  0  0  0  0  0  0
  1  2  1  0
  2  3  2  0
  3  4  1  0
  4  5  1  0
  5  6  1  0
  6  7  2  0
  7  8  1  0
  8  9  2  0
  9 10  1  0
 10 11  2  0
 11 12  1  0
 12 13  1  0
 12 14  2  0
 11 15  1  0
 15 16  1  0
 16 17  2  0
 16 18  1  0
 18 19  2  0
 18 20  1  0
 20 21  1  0
 21 22  1  0
 22 23  1  6
 22 24  1  0
 24 25  1  0
 25 26  1  0
 26 27  2  0
 26 28  2  0
 26 29  1  0
 15 30  1  0
 30 31  2  0
  5 32  2  0
 32  2  1  0
 31  6  1  0
 30  9  1  0
 29 22  1  0
  1 33  1  0
  1 34  1  0
  1 35  1  0
  7 36  1  0
  8 37  1  0
 10 38  1  0
 13 39  1  0
 21 40  1  0
 21 41  1  0
 23 42  1  0
 24 43  1  0
 24 44  1  0
 25 45  1  0
 25 46  1  0
 29 47  1  0
 29 48  1  0
 31 49  1  0
M  CHG  2  13  -1  20  -1
M  END
>  <UniqueID>  (25) 
24

>  <SMILES>  (25) 
Cc1noc(-c2ccc3cc(C([NH-])=O)n(C(=O)C(=O)[N-]C[C@]4(O)CCS(=O)(=O)C4)c3c2)n1

>  <Energy>  (25) 
119.78588212103132

>  <Genealogy>  (25) 
Cc1noc(-c2ccc3cc(C([NH-])=O)n(C(=O)C(=O)[N-]CC4(O)CCS(=O)(=O)C4)c3c2)n1 (protonated)
Cc1noc(-c2ccc3cc(C([NH-])=O)n(C(=O)C(=O)[N-]C[C@]4(O)CCS(=O)(=O)C4)c3c2)n1 (chirality)
Cc1noc(-c2ccc3cc(C([NH-])=O)n(C(=O)C(=O)[N-]C[C@]4(O)CCS(=O)(=O)C4)c3c2)n1 (3D coordinates assigned)
Cc1noc(-c2ccc3cc(C([NH-])=O)n(C(=O)C(=O)[N-]C[C@]4(O)CCS(=O)(=O)C4)c3c2)n1 (nonaromatic ring conformer: 119.78588212103132 kcal/mol)

>  <smiles>  (25) 
Cc1noc(-c2ccc3cc(C(N)=O)n(C(=O)C(=O)NCC4(O)CCS(=O)(=O)C4)c3c2)n1

>  <score_type>  (25) 
oracle

>  <origin>  (25) 
adg

>  <m_score__min__energy>  (25) 
-12.640000000000001

>  <m_primary>  (25) 
energy

$$$$
25:0
     RDKit          3D

 28 29  0  0  0  0  0  0  0  0999 V2000
   -1.9700   25.1880  -29.3380 N   0  0  0  0  0  0  0  0  0  0  0  0
   -1.8740   23.8110  -29.6900 C   0  0  0  0  0  0  0  0  0  0  0  0
   -1.0790   23.0630  -29.0600 O   0  0  0  0  0  0  0  0  0  0  0  0
   -2.6660   23.3180  -30.7340 O   0  0  0  0  0  0  0  0  0  0  0  0
   -3.6010   22.2810  -30.6140 C   0  0  0  0  0  0  0  0  0  0  0  0
   -3.2620   21.1550  -30.1580 O   0  0  0  0  0  0  0  0  0  0  0  0
   -4.9680   22.5120  -30.9920 N   0  0  0  0  0  0  0  0  0  0  0  0
   -5.7230   23.6190  -30.7420 C   0  0  0  0  0  0  0  0  0  0  0  0
   -5.2340   24.8960  -30.1800 C   0  0  0  0  0  0  0  0  0  0  0  0
   -4.2430   25.6630  -30.8580 N   0  0  0  0  0  0  0  0  0  0  0  0
   -5.7350   25.3390  -29.1130 O   0  0  0  0  0  0  0  0  0  0  0  0
   -7.0350   23.4230  -31.1710 C   0  0  0  0  0  0  0  0  0  0  0  0
   -7.0580   22.1540  -31.7020 C   0  0  0  0  0  0  0  0  0  0  0  0
   -8.1120   21.4390  -32.2640 C   0  0  0  0  0  0  0  0  0  0  0  0
   -7.8580   20.1300  -32.7060 C   0  0  0  0  0  0  0  0  0  0  0  0
   -6.5670   19.5610  -32.5740 C   0  0  0  0  0  0  0  0  0  0  0  0
   -6.3050   18.1550  -33.0320 C   0  0  0  0  0  0  0  0  0  0  0  0
   -6.0740   18.1450  -34.3950 F   0  0  0  0  0  0  0  0  0  0  0  0
   -7.4010   17.3600  -32.7490 F   0  0  0  0  0  0  0  0  0  0  0  0
   -5.5230   20.3170  -31.9970 C   0  0  0  0  0  0  0  0  0  0  0  0
   -5.7990   21.6250  -31.5830 C   0  0  0  0  0  0  0  0  0  0  0  0
   -2.8970   25.6670  -29.3000 H   0  0  0  0  0  0  0  0  0  0  0  0
   -3.2650   25.3120  -30.9560 H   0  0  0  0  0  0  0  0  0  0  0  0
   -7.8731   24.1319  -31.1000 H   0  0  0  0  0  0  0  0  0  0  0  0
   -9.1129   21.8853  -32.3590 H   0  0  0  0  0  0  0  0  0  0  0  0
   -8.6691   19.5410  -33.1590 H   0  0  0  0  0  0  0  0  0  0  0  0
   -5.4218   17.7637  -32.5059 H   0  0  0  0  0  0  0  0  0  0  0  0
   -4.5173   19.8881  -31.8759 H   0  0  0  0  0  0  0  0  0  0  0  0
  1  2  1  0
  2  3  2  0
  2  4  1  0
  4  5  1  0
  5  6  2  0
  5  7  1  0
  7  8  1  0
  8  9  1  0
  9 10  1  0
  9 11  2  0
  8 12  2  0
 12 13  1  0
 13 14  2  0
 14 15  1  0
 15 16  2  0
 16 17  1  0
 17 18  1  0
 17 19  1  0
 16 20  1  0
 20 21  2  0
 21  7  1  0
 21 13  1  0
  1 22  1  0
 10 23  1  0
 12 24  1  0
 14 25  1  0
 15 26  1  0
 17 27  1  0
 20 28  1  0
M  CHG  2   1  -1  10  -1
M  END
>  <UniqueID>  (26) 
25

>  <SMILES>  (26) 
[NH-]C(=O)OC(=O)n1c(C([NH-])=O)cc2ccc(C(F)F)cc21

>  <Energy>  (26) 
67.79019050793465

>  <Genealogy>  (26) 
[NH-]C(=O)OC(=O)n1c(C([NH-])=O)cc2ccc(C(F)F)cc21 (protonated)
[NH-]C(=O)OC(=O)n1c(C([NH-])=O)cc2ccc(C(F)F)cc21 (3D coordinates assigned)
[NH-]C(=O)OC(=O)n1c(C([NH-])=O)cc2ccc(C(F)F)cc21 (optimized conformer: 67.79019050793465 kcal/mol)

>  <smiles>  (26) 
NC(=O)OC(=O)n1c(C(N)=O)cc2ccc(C(F)F)cc21

>  <score_type>  (26) 
oracle

>  <origin>  (26) 
adg

>  <m_score__min__energy>  (26) 
-10.99

>  <m_primary>  (26) 
energy

$$$$
26:0
     RDKit          3D

 43 46  0  0  0  0  0  0  0  0999 V2000
   -2.2380   25.0290  -26.7380 C   0  0  0  0  0  0  0  0  0  0  0  0
   -2.1410   24.0270  -27.7900 N   0  0  0  0  0  0  0  0  0  0  0  0
   -3.1870   23.1000  -28.1490 C   0  0  0  0  0  0  0  0  0  0  0  0
   -2.5650   22.1470  -29.1870 C   0  0  1  0  0  0  0  0  0  0  0  0
   -3.4370   21.9980  -30.3060 O   0  0  0  0  0  0  0  0  0  0  0  0
   -4.1460   23.0640  -30.8670 C   0  0  0  0  0  0  0  0  0  0  0  0
   -3.5300   24.1060  -31.2080 O   0  0  0  0  0  0  0  0  0  0  0  0
   -5.5760   22.9700  -31.0370 N   0  0  0  0  0  0  0  0  0  0  0  0
   -6.4900   23.9550  -30.8050 C   0  0  0  0  0  0  0  0  0  0  0  0
   -6.2370   25.2050  -30.0770 C   0  0  0  0  0  0  0  0  0  0  0  0
   -5.1670   26.0650  -30.4710 N   0  0  0  0  0  0  0  0  0  0  0  0
   -6.9220   25.4820  -29.0580 O   0  0  0  0  0  0  0  0  0  0  0  0
   -7.7540   23.5780  -31.2400 C   0  0  0  0  0  0  0  0  0  0  0  0
   -7.5980   22.3030  -31.7320 C   0  0  0  0  0  0  0  0  0  0  0  0
   -8.5430   21.4390  -32.2720 C   0  0  0  0  0  0  0  0  0  0  0  0
   -8.1130   20.1670  -32.6910 C   0  0  0  0  0  0  0  0  0  0  0  0
   -6.7540   19.7840  -32.5600 C   0  0  0  0  0  0  0  0  0  0  0  0
   -6.3110   18.4370  -32.9740 C   0  0  0  0  0  0  0  0  0  0  0  0
   -6.1110   18.0750  -34.2560 N   0  0  0  0  0  0  0  0  0  0  0  0
   -5.7230   16.7900  -34.1590 C   0  0  0  0  0  0  0  0  0  0  0  0
   -5.7000   16.4190  -32.8370 C   0  0  0  0  0  0  0  0  0  0  0  0
   -6.0680   17.4550  -32.1320 O   0  0  0  0  0  0  0  0  0  0  0  0
   -5.8210   20.6920  -32.0120 C   0  0  0  0  0  0  0  0  0  0  0  0
   -6.2760   21.9540  -31.5980 C   0  0  0  0  0  0  0  0  0  0  0  0
   -1.2170   22.7630  -29.6150 C   0  0  0  0  0  0  0  0  0  0  0  0
   -1.0270   23.8550  -28.6450 C   0  0  0  0  0  0  0  0  0  0  0  0
    0.0100   24.5730  -28.5890 O   0  0  0  0  0  0  0  0  0  0  0  0
   -2.1902   24.5355  -25.7561 H   0  0  0  0  0  0  0  0  0  0  0  0
   -1.4046   25.7408  -26.8316 H   0  0  0  0  0  0  0  0  0  0  0  0
   -3.1925   25.5677  -26.8316 H   0  0  0  0  0  0  0  0  0  0  0  0
   -3.5208   22.5378  -27.2644 H   0  0  0  0  0  0  0  0  0  0  0  0
   -4.0677   23.6202  -28.5536 H   0  0  0  0  0  0  0  0  0  0  0  0
   -2.4100   21.1446  -28.7613 H   0  0  0  0  0  0  0  0  0  0  0  0
   -4.5500   25.8030  -31.2730 H   0  0  0  0  0  0  0  0  0  0  0  0
   -5.0200   26.9770  -29.9810 H   0  0  0  0  0  0  0  0  0  0  0  0
   -8.6797   24.1709  -31.1998 H   0  0  0  0  0  0  0  0  0  0  0  0
   -9.5963   21.7410  -32.3689 H   0  0  0  0  0  0  0  0  0  0  0  0
   -8.8380   19.4625  -33.1245 H   0  0  0  0  0  0  0  0  0  0  0  0
   -5.4645   16.1383  -35.0067 H   0  0  0  0  0  0  0  0  0  0  0  0
   -5.4224   15.4299  -32.4437 H   0  0  0  0  0  0  0  0  0  0  0  0
   -4.7608   20.4163  -31.9118 H   0  0  0  0  0  0  0  0  0  0  0  0
   -0.4047   22.0248  -29.5430 H   0  0  0  0  0  0  0  0  0  0  0  0
   -1.2104   23.1063  -30.6600 H   0  0  0  0  0  0  0  0  0  0  0  0
  1  2  1  0
  2  3  1  0
  3  4  1  0
  4  5  1  0
  5  6  1  0
  6  7  2  0
  6  8  1  0
  8  9  1  0
  9 10  1  0
 10 11  1  0
 10 12  2  0
  9 13  2  0
 13 14  1  0
 14 15  2  0
 15 16  1  0
 16 17  2  0
 17 18  1  0
 18 19  2  0
 19 20  1  0
 20 21  2  0
 21 22  1  0
 17 23  1  0
 23 24  2  0
  4 25  1  0
 25 26  1  0
 26 27  2  0
 26  2  1  0
 24  8  1  0
 24 14  1  0
 22 18  1  0
  1 28  1  0
  1 29  1  0
  1 30  1  0
  3 31  1  0
  3 32  1  0
  4 33  1  1
 11 34  1  0
 11 35  1  0
 13 36  1  0
 15 37  1  0
 16 38  1  0
 20 39  1  0
 21 40  1  0
 23 41  1  0
 25 42  1  0
 25 43  1  0
M  END
>  <UniqueID>  (27) 
26

>  <SMILES>  (27) 
CN1C[C@@H](OC(=O)n2c(C(N)=O)cc3ccc(-c4ncco4)cc32)CC1=O

>  <Energy>  (27) 
119.7296756122046

>  <Genealogy>  (27) 
CN1C[C@@H](OC(=O)n2c(C(N)=O)cc3ccc(-c4ncco4)cc32)CC1=O (chirality)
CN1C[C@@H](OC(=O)n2c(C(N)=O)cc3ccc(-c4ncco4)cc32)CC1=O (3D coordinates assigned)
CN1C[C@@H](OC(=O)n2c(C(N)=O)cc3ccc(-c4ncco4)cc32)CC1=O (nonaromatic ring conformer: 119.7296756122046 kcal/mol)

>  <smiles>  (27) 
CN1CC(OC(=O)n2c(C(N)=O)cc3ccc(-c4ncco4)cc32)CC1=O

>  <score_type>  (27) 
oracle

>  <origin>  (27) 
adg

>  <m_score__min__energy>  (27) 
-10.130000000000001

>  <m_primary>  (27) 
energy

$$$$
27:0
     RDKit          3D

 37 38  0  0  0  0  0  0  0  0999 V2000
   -3.8950   25.5350  -30.8610 N   0  0  0  0  0  0  0  0  0  0  0  0
   -5.2130   25.2260  -30.4150 C   0  0  0  0  0  0  0  0  0  0  0  0
   -5.8350   26.0610  -29.7060 O   0  0  0  0  0  0  0  0  0  0  0  0
   -5.8780   23.9700  -30.8200 C   0  0  0  0  0  0  0  0  0  0  0  0
   -7.2530   23.7640  -30.7170 C   0  0  0  0  0  0  0  0  0  0  0  0
   -7.4790   22.5270  -31.2730 C   0  0  0  0  0  0  0  0  0  0  0  0
   -8.6670   21.8150  -31.4200 C   0  0  0  0  0  0  0  0  0  0  0  0
   -8.6020   20.5390  -32.0030 C   0  0  0  0  0  0  0  0  0  0  0  0
   -7.3610   20.0000  -32.4260 C   0  0  0  0  0  0  0  0  0  0  0  0
   -7.2970   18.6150  -33.0050 C   0  0  0  0  0  0  0  0  0  0  0  0
   -6.0130   18.4300  -33.7550 C   0  0  0  0  0  0  0  0  0  0  0  0
   -5.9610   18.6550  -35.1640 N   0  0  0  0  0  0  0  0  0  0  0  0
   -4.9830   18.0360  -33.1460 O   0  0  0  0  0  0  0  0  0  0  0  0
   -6.1750   20.7470  -32.2500 C   0  0  0  0  0  0  0  0  0  0  0  0
   -6.2720   22.0240  -31.6840 C   0  0  0  0  0  0  0  0  0  0  0  0
   -5.2770   22.8960  -31.4080 N   0  0  0  0  0  0  0  0  0  0  0  0
   -3.8740   22.6770  -31.6230 C   0  0  0  0  0  0  0  0  0  0  0  0
   -3.4950   21.9440  -32.5770 O   0  0  0  0  0  0  0  0  0  0  0  0
   -2.9430   23.3040  -30.7840 O   0  0  0  0  0  0  0  0  0  0  0  0
   -2.7820   23.0390  -29.4190 C   0  0  0  0  0  0  0  0  0  0  0  0
   -2.3320   21.9280  -29.0210 O   0  0  0  0  0  0  0  0  0  0  0  0
   -3.1300   24.0290  -28.4970 O   0  0  0  0  0  0  0  0  0  0  0  0
   -2.1790   24.6480  -27.6370 C   0  0  0  0  0  0  0  0  0  0  0  0
   -1.0390   25.1580  -28.4510 C   0  0  0  0  0  0  0  0  0  0  0  0
   -1.2320   26.0370  -29.3310 O   0  0  0  0  0  0  0  0  0  0  0  0
    0.2330   24.6240  -28.2780 O   0  0  0  0  0  0  0  0  0  0  0  0
   -3.0610   25.2900  -30.2830 H   0  0  0  0  0  0  0  0  0  0  0  0
   -7.9988   24.4463  -30.2830 H   0  0  0  0  0  0  0  0  0  0  0  0
   -9.6267   22.2391  -31.0896 H   0  0  0  0  0  0  0  0  0  0  0  0
   -9.5232   19.9520  -32.1327 H   0  0  0  0  0  0  0  0  0  0  0  0
   -7.3525   17.8773  -32.1909 H   0  0  0  0  0  0  0  0  0  0  0  0
   -8.1413   18.4739  -33.6958 H   0  0  0  0  0  0  0  0  0  0  0  0
   -6.8100   18.9640  -35.6860 H   0  0  0  0  0  0  0  0  0  0  0  0
   -5.0690   18.5080  -35.6880 H   0  0  0  0  0  0  0  0  0  0  0  0
   -5.1999   20.3358  -32.5500 H   0  0  0  0  0  0  0  0  0  0  0  0
   -2.6545   25.4852  -27.1051 H   0  0  0  0  0  0  0  0  0  0  0  0
   -1.8106   23.9140  -26.9052 H   0  0  0  0  0  0  0  0  0  0  0  0
  1  2  1  0
  2  3  2  0
  2  4  1  0
  4  5  2  0
  5  6  1  0
  6  7  2  0
  7  8  1  0
  8  9  2  0
  9 10  1  0
 10 11  1  0
 11 12  1  0
 11 13  2  0
  9 14  1  0
 14 15  2  0
 15 16  1  0
 16 17  1  0
 17 18  2  0
 17 19  1  0
 19 20  1  0
 20 21  2  0
 20 22  1  0
 22 23  1  0
 23 24  1  0
 24 25  2  0
 24 26  1  0
 16  4  1  0
 15  6  1  0
  1 27  1  0
  5 28  1  0
  7 29  1  0
  8 30  1  0
 10 31  1  0
 10 32  1  0
 12 33  1  0
 12 34  1  0
 14 35  1  0
 23 36  1  0
 23 37  1  0
M  CHG  2   1  -1  26  -1
M  END
>  <UniqueID>  (28) 
27

>  <SMILES>  (28) 
[NH-]C(=O)c1cc2ccc(CC(N)=O)cc2n1C(=O)OC(=O)OCC(=O)[O-]

>  <Energy>  (28) 
71.18297847454893

>  <Genealogy>  (28) 
[NH-]C(=O)c1cc2ccc(CC(N)=O)cc2n1C(=O)OC(=O)OCC(=O)[O-] (protonated)
[NH-]C(=O)c1cc2ccc(CC(N)=O)cc2n1C(=O)OC(=O)OCC(=O)[O-] (3D coordinates assigned)
[NH-]C(=O)c1cc2ccc(CC(N)=O)cc2n1C(=O)OC(=O)OCC(=O)[O-] (optimized conformer: 71.18297847454893 kcal/mol)

>  <smiles>  (28) 
NC(=O)Cc1ccc2cc(C(N)=O)n(C(=O)OC(=O)OCC(=O)O)c2c1

>  <score_type>  (28) 
oracle

>  <origin>  (28) 
adg

>  <m_score__min__energy>  (28) 
-12.67

>  <m_primary>  (28) 
energy

$$$$
28:0
     RDKit          3D

 43 44  0  0  0  0  0  0  0  0999 V2000
   -2.7150   24.3630  -27.3130 C   0  0  0  0  0  0  0  0  0  0  0  0
   -2.0950   24.5800  -28.6520 C   0  0  0  0  0  0  0  0  0  0  0  0
   -1.5890   25.7000  -28.9310 O   0  0  0  0  0  0  0  0  0  0  0  0
   -2.1100   23.5360  -29.5860 O   0  0  0  0  0  0  0  0  0  0  0  0
   -3.1680   22.6350  -29.7630 C   0  0  0  0  0  0  0  0  0  0  0  0
   -3.5280   21.8640  -28.8320 O   0  0  0  0  0  0  0  0  0  0  0  0
   -3.8700   22.5980  -31.0540 C   0  0  0  0  0  0  0  0  0  0  0  0
   -3.2290   22.3150  -32.1010 O   0  0  0  0  0  0  0  0  0  0  0  0
   -5.2710   22.8940  -31.1370 N   0  0  0  0  0  0  0  0  0  0  0  0
   -5.8870   24.0820  -30.8850 C   0  0  0  0  0  0  0  0  0  0  0  0
   -5.2280   25.3050  -30.3820 C   0  0  0  0  0  0  0  0  0  0  0  0
   -3.9300   25.6590  -30.8550 N   0  0  0  0  0  0  0  0  0  0  0  0
   -5.8040   26.0510  -29.5480 O   0  0  0  0  0  0  0  0  0  0  0  0
   -7.2560   23.9810  -31.1260 C   0  0  0  0  0  0  0  0  0  0  0  0
   -7.4590   22.6840  -31.5410 C   0  0  0  0  0  0  0  0  0  0  0  0
   -8.6280   22.0380  -31.9310 C   0  0  0  0  0  0  0  0  0  0  0  0
   -8.5330   20.6990  -32.3440 C   0  0  0  0  0  0  0  0  0  0  0  0
   -7.2840   20.0300  -32.3700 C   0  0  0  0  0  0  0  0  0  0  0  0
   -7.2340   18.6610  -32.8170 N   0  0  0  0  0  0  0  0  0  0  0  0
   -6.8450   17.5310  -31.9720 C   0  0  0  0  0  0  0  0  0  0  0  0
   -6.0420   16.5300  -32.7510 C   0  0  0  0  0  0  0  0  0  0  0  0
   -5.9870   16.6130  -34.0080 O   0  0  0  0  0  0  0  0  0  0  0  0
   -5.2820   15.5290  -32.0610 N   0  0  0  0  0  0  0  0  0  0  0  0
   -4.4130   14.6000  -32.7840 C   0  0  0  0  0  0  0  0  0  0  0  0
   -3.9670   13.4790  -31.8950 C   0  0  0  0  0  0  0  0  0  0  0  0
   -4.3290   13.4360  -30.7300 O   0  0  0  0  0  0  0  0  0  0  0  0
   -6.1170   20.7230  -31.9640 C   0  0  0  0  0  0  0  0  0  0  0  0
   -6.2450   22.0500  -31.5420 C   0  0  0  0  0  0  0  0  0  0  0  0
   -1.9886   24.6172  -26.5270 H   0  0  0  0  0  0  0  0  0  0  0  0
   -3.6035   25.0036  -27.2122 H   0  0  0  0  0  0  0  0  0  0  0  0
   -3.0101   23.3081  -27.2122 H   0  0  0  0  0  0  0  0  0  0  0  0
   -3.0700   25.2940  -30.3890 H   0  0  0  0  0  0  0  0  0  0  0  0
   -8.0135   24.7700  -31.0094 H   0  0  0  0  0  0  0  0  0  0  0  0
   -9.5963   22.5597  -31.9163 H   0  0  0  0  0  0  0  0  0  0  0  0
   -9.4419   20.1614  -32.6520 H   0  0  0  0  0  0  0  0  0  0  0  0
   -7.4650   18.4530  -33.8150 H   0  0  0  0  0  0  0  0  0  0  0  0
   -6.2403   17.9016  -31.1312 H   0  0  0  0  0  0  0  0  0  0  0  0
   -7.7567   17.0387  -31.6025 H   0  0  0  0  0  0  0  0  0  0  0  0
   -5.3470   15.4770  -31.0180 H   0  0  0  0  0  0  0  0  0  0  0  0
   -4.9648   14.1830  -33.6393 H   0  0  0  0  0  0  0  0  0  0  0  0
   -3.5241   15.1483  -33.1291 H   0  0  0  0  0  0  0  0  0  0  0  0
   -3.3106   12.6916  -32.2940 H   0  0  0  0  0  0  0  0  0  0  0  0
   -5.1342   20.2293  -31.9803 H   0  0  0  0  0  0  0  0  0  0  0  0
  1  2  1  0
  2  3  2  0
  2  4  1  0
  4  5  1  0
  5  6  2  0
  5  7  1  0
  7  8  2  0
  7  9  1  0
  9 10  1  0
 10 11  1  0
 11 12  1  0
 11 13  2  0
 10 14  2  0
 14 15  1  0
 15 16  2  0
 16 17  1  0
 17 18  2  0
 18 19  1  0
 19 20  1  0
 20 21  1  0
 21 22  2  0
 21 23  1  0
 23 24  1  0
 24 25  1  0
 25 26  2  0
 18 27  1  0
 27 28  2  0
 28  9  1  0
 28 15  1  0
  1 29  1  0
  1 30  1  0
  1 31  1  0
 12 32  1  0
 14 33  1  0
 16 34  1  0
 17 35  1  0
 19 36  1  0
 20 37  1  0
 20 38  1  0
 23 39  1  0
 24 40  1  0
 24 41  1  0
 25 42  1  0
 27 43  1  0
M  CHG  1  12  -1
M  END
>  <UniqueID>  (29) 
28

>  <SMILES>  (29) 
CC(=O)OC(=O)C(=O)n1c(C([NH-])=O)cc2ccc(NCC(=O)NCC=O)cc21

>  <Energy>  (29) 
74.29113005776246

>  <Genealogy>  (29) 
CC(=O)OC(=O)C(=O)n1c(C([NH-])=O)cc2ccc(NCC(=O)NCC=O)cc21 (protonated)
CC(=O)OC(=O)C(=O)n1c(C([NH-])=O)cc2ccc(NCC(=O)NCC=O)cc21 (3D coordinates assigned)
CC(=O)OC(=O)C(=O)n1c(C([NH-])=O)cc2ccc(NCC(=O)NCC=O)cc21 (optimized conformer: 74.29113005776246 kcal/mol)

>  <smiles>  (29) 
CC(=O)OC(=O)C(=O)n1c(C(N)=O)cc2ccc(NCC(=O)NCC=O)cc21

>  <score_type>  (29) 
oracle

>  <origin>  (29) 
adg

>  <m_score__min__energy>  (29) 
-10.1

>  <m_primary>  (29) 
energy

$$$$
29:0
     RDKit          3D

 38 39  0  0  0  0  0  0  0  0999 V2000
   -5.8670   18.3740  -34.1520 C   0  0  0  0  0  0  0  0  0  0  0  0
   -6.9080   18.3450  -33.0380 C   0  0  0  0  0  0  0  0  0  0  0  0
   -7.1320   19.7250  -32.4810 C   0  0  0  0  0  0  0  0  0  0  0  0
   -8.4460   20.2460  -32.3800 C   0  0  0  0  0  0  0  0  0  0  0  0
   -8.6640   21.5500  -31.9040 C   0  0  0  0  0  0  0  0  0  0  0  0
   -7.5530   22.3050  -31.5390 C   0  0  0  0  0  0  0  0  0  0  0  0
   -7.4750   23.6010  -31.0810 C   0  0  0  0  0  0  0  0  0  0  0  0
   -6.1130   23.8490  -30.9030 C   0  0  0  0  0  0  0  0  0  0  0  0
   -5.5560   25.1100  -30.3640 C   0  0  0  0  0  0  0  0  0  0  0  0
   -4.2320   25.5300  -30.6990 N   0  0  0  0  0  0  0  0  0  0  0  0
   -6.2570   25.8410  -29.6150 O   0  0  0  0  0  0  0  0  0  0  0  0
   -5.3840   22.7450  -31.2310 N   0  0  0  0  0  0  0  0  0  0  0  0
   -3.9530   22.6160  -31.2480 C   0  0  0  0  0  0  0  0  0  0  0  0
   -3.2820   23.0710  -30.2840 O   0  0  0  0  0  0  0  0  0  0  0  0
   -3.2790   21.9160  -32.3650 C   0  0  0  0  0  0  0  0  0  0  0  0
   -3.7500   22.0620  -33.5260 O   0  0  0  0  0  0  0  0  0  0  0  0
   -2.1180   21.0790  -32.1710 N   0  0  0  0  0  0  0  0  0  0  0  0
   -1.2840   21.1970  -30.9700 C   0  0  0  0  0  0  0  0  0  0  0  0
   -1.7130   20.1700  -33.2490 C   0  0  0  0  0  0  0  0  0  0  0  0
   -6.2780   21.8120  -31.6240 C   0  0  0  0  0  0  0  0  0  0  0  0
   -6.0290   20.5260  -32.1140 C   0  0  0  0  0  0  0  0  0  0  0  0
   -4.8594   18.4021  -33.7116 H   0  0  0  0  0  0  0  0  0  0  0  0
   -5.9703   17.4726  -34.7740 H   0  0  0  0  0  0  0  0  0  0  0  0
   -6.0204   19.2682  -34.7740 H   0  0  0  0  0  0  0  0  0  0  0  0
   -7.8566   17.9601  -33.4405 H   0  0  0  0  0  0  0  0  0  0  0  0
   -6.5427   17.6935  -32.2305 H   0  0  0  0  0  0  0  0  0  0  0  0
   -9.3032   19.6239  -32.6770 H   0  0  0  0  0  0  0  0  0  0  0  0
   -9.6809   21.9613  -31.8224 H   0  0  0  0  0  0  0  0  0  0  0  0
   -8.3089   24.2938  -30.8949 H   0  0  0  0  0  0  0  0  0  0  0  0
   -3.5940   24.9250  -31.2610 H   0  0  0  0  0  0  0  0  0  0  0  0
   -3.8660   26.4390  -30.3410 H   0  0  0  0  0  0  0  0  0  0  0  0
   -1.9163   21.1075  -30.0743 H   0  0  0  0  0  0  0  0  0  0  0  0
   -0.5294   20.3967  -30.9675 H   0  0  0  0  0  0  0  0  0  0  0  0
   -0.7810   22.1753  -30.9675 H   0  0  0  0  0  0  0  0  0  0  0  0
   -1.3017   19.2467  -32.8150 H   0  0  0  0  0  0  0  0  0  0  0  0
   -2.5872   19.9253  -33.8702 H   0  0  0  0  0  0  0  0  0  0  0  0
   -0.9464   20.6564  -33.8702 H   0  0  0  0  0  0  0  0  0  0  0  0
   -5.0004   20.1484  -32.2109 H   0  0  0  0  0  0  0  0  0  0  0  0
  1  2  1  0
  2  3  1  0
  3  4  2  0
  4  5  1  0
  5  6  2  0
  6  7  1  0
  7  8  2  0
  8  9  1  0
  9 10  1  0
  9 11  2  0
  8 12  1  0
 12 13  1  0
 13 14  2  0
 13 15  1  0
 15 16  2  0
 15 17  1  0
 17 18  1  0
 17 19  1  0
 12 20  1  0
 20 21  2  0
 21  3  1  0
 20  6  1  0
  1 22  1  0
  1 23  1  0
  1 24  1  0
  2 25  1  0
  2 26  1  0
  4 27  1  0
  5 28  1  0
  7 29  1  0
 10 30  1  0
 10 31  1  0
 18 32  1  0
 18 33  1  0
 18 34  1  0
 19 35  1  0
 19 36  1  0
 19 37  1  0
 21 38  1  0
M  END
>  <UniqueID>  (30) 
29

>  <SMILES>  (30) 
CCc1ccc2cc(C(N)=O)n(C(=O)C(=O)N(C)C)c2c1

>  <Energy>  (30) 
73.72527100983051

>  <Genealogy>  (30) 
CCc1ccc2cc(C(N)=O)n(C(=O)C(=O)N(C)C)c2c1 (3D coordinates assigned)
CCc1ccc2cc(C(N)=O)n(C(=O)C(=O)N(C)C)c2c1 (optimized conformer: 73.72527100983051 kcal/mol)

>  <smiles>  (30) 
CCc1ccc2cc(C(N)=O)n(C(=O)C(=O)N(C)C)c2c1

>  <score_type>  (30) 
oracle

>  <origin>  (30) 
adg

>  <m_score__min__energy>  (30) 
-8.6799999999999997

>  <m_primary>  (30) 
energy

$$$$
30:0
     RDKit          3D

 38 39  0  0  0  0  0  0  0  0999 V2000
   -8.8890   19.2800  -31.7600 C   0  0  0  0  0  0  0  0  0  0  0  0
   -8.2550   19.5230  -33.0520 N   0  0  0  0  0  0  0  0  0  0  0  0
   -6.8310   19.4860  -33.2590 C   0  0  0  0  0  0  0  0  0  0  0  0
   -6.2170   18.4520  -34.0150 C   0  0  0  0  0  0  0  0  0  0  0  0
   -4.8270   18.4410  -34.2170 C   0  0  0  0  0  0  0  0  0  0  0  0
   -4.0750   19.4620  -33.6470 C   0  0  0  0  0  0  0  0  0  0  0  0
   -2.7230   19.7060  -33.7180 C   0  0  0  0  0  0  0  0  0  0  0  0
   -2.5210   20.8680  -32.9780 C   0  0  0  0  0  0  0  0  0  0  0  0
   -1.1900   21.4610  -32.7480 C   0  0  0  0  0  0  0  0  0  0  0  0
   -0.7860   21.8930  -31.4480 N   0  0  0  0  0  0  0  0  0  0  0  0
   -0.3730   21.5380  -33.7050 O   0  0  0  0  0  0  0  0  0  0  0  0
   -3.7010   21.3340  -32.4790 N   0  0  0  0  0  0  0  0  0  0  0  0
   -3.9160   22.5690  -31.7760 C   0  0  0  0  0  0  0  0  0  0  0  0
   -3.1940   22.8720  -30.7860 O   0  0  0  0  0  0  0  0  0  0  0  0
   -4.9300   23.4350  -32.1950 O   0  0  0  0  0  0  0  0  0  0  0  0
   -6.1530   23.5990  -31.4860 C   0  0  0  0  0  0  0  0  0  0  0  0
   -5.9100   24.3730  -30.1890 C   0  0  0  0  0  0  0  0  0  0  0  0
   -5.2760   25.7490  -30.4360 C   0  0  0  0  0  0  0  0  0  0  0  0
   -3.8830   25.6480  -30.5620 O   0  0  0  0  0  0  0  0  0  0  0  0
   -4.6450   20.4580  -32.8960 C   0  0  0  0  0  0  0  0  0  0  0  0
   -6.0310   20.5060  -32.6980 C   0  0  0  0  0  0  0  0  0  0  0  0
   -8.1910   19.5475  -30.9530 H   0  0  0  0  0  0  0  0  0  0  0  0
   -9.7983   19.8933  -31.6766 H   0  0  0  0  0  0  0  0  0  0  0  0
   -9.1555   18.2160  -31.6766 H   0  0  0  0  0  0  0  0  0  0  0  0
   -8.8790   19.7340  -33.8640 H   0  0  0  0  0  0  0  0  0  0  0  0
   -6.8363   17.6519  -34.4466 H   0  0  0  0  0  0  0  0  0  0  0  0
   -4.3474   17.6476  -34.8090 H   0  0  0  0  0  0  0  0  0  0  0  0
   -1.9639   19.1105  -34.2464 H   0  0  0  0  0  0  0  0  0  0  0  0
   -1.3760   21.6970  -30.6080 H   0  0  0  0  0  0  0  0  0  0  0  0
    0.1430   22.3510  -31.3110 H   0  0  0  0  0  0  0  0  0  0  0  0
   -6.8653   24.1550  -32.1133 H   0  0  0  0  0  0  0  0  0  0  0  0
   -6.5630   22.6079  -31.2420 H   0  0  0  0  0  0  0  0  0  0  0  0
   -6.8732   24.5151  -29.6772 H   0  0  0  0  0  0  0  0  0  0  0  0
   -5.2092   23.7870  -29.5762 H   0  0  0  0  0  0  0  0  0  0  0  0
   -5.6905   26.1745  -31.3618 H   0  0  0  0  0  0  0  0  0  0  0  0
   -5.5029   26.3974  -29.5769 H   0  0  0  0  0  0  0  0  0  0  0  0
   -3.7080   24.9240  -31.2170 H   0  0  0  0  0  0  0  0  0  0  0  0
   -6.4870   21.3215  -32.1174 H   0  0  0  0  0  0  0  0  0  0  0  0
  1  2  1  0
  2  3  1  0
  3  4  2  0
  4  5  1  0
  5  6  2  0
  6  7  1  0
  7  8  2  0
  8  9  1  0
  9 10  1  0
  9 11  2  0
  8 12  1  0
 12 13  1  0
 13 14  2  0
 13 15  1  0
 15 16  1  0
 16 17  1  0
 17 18  1  0
 18 19  1  0
 12 20  1  0
 20 21  2  0
 21  3  1  0
 20  6  1  0
  1 22  1  0
  1 23  1  0
  1 24  1  0
  2 25  1  0
  4 26  1  0
  5 27  1  0
  7 28  1  0
 10 29  1  0
 10 30  1  0
 16 31  1  0
 16 32  1  0
 17 33  1  0
 17 34  1  0
 18 35  1  0
 18 36  1  0
 19 37  1  0
 21 38  1  0
M  END
>  <UniqueID>  (31) 
30

>  <SMILES>  (31) 
CNc1ccc2cc(C(N)=O)n(C(=O)OCCCO)c2c1

>  <Energy>  (31) 
69.33818088446681

>  <Genealogy>  (31) 
CNc1ccc2cc(C(N)=O)n(C(=O)OCCCO)c2c1 (3D coordinates assigned)
CNc1ccc2cc(C(N)=O)n(C(=O)OCCCO)c2c1 (optimized conformer: 69.33818088446681 kcal/mol)

>  <smiles>  (31) 
CNc1ccc2cc(C(N)=O)n(C(=O)OCCCO)c2c1

>  <score_type>  (31) 
oracle

>  <origin>  (31) 
adg

>  <m_score__min__energy>  (31) 
-8.2699999999999996

>  <m_primary>  (31) 
energy

$$$$
31:0
     RDKit          3D

 57 60  0  0  0  0  0  0  0  0999 V2000
    1.0050   28.7270  -23.8320 C   0  0  0  0  0  0  0  0  0  0  0  0
    1.2070   27.3480  -23.3540 N   0  0  2  0  0  0  0  0  0  0  0  0
    1.9630   26.5620  -24.3660 C   0  0  0  0  0  0  0  0  0  0  0  0
    1.7280   25.0570  -24.2090 C   0  0  0  0  0  0  0  0  0  0  0  0
    0.2410   24.6980  -24.4550 C   0  0  2  0  0  0  0  0  0  0  0  0
   -0.0390   24.2680  -25.9090 C   0  0  0  0  0  0  0  0  0  0  0  0
   -1.4270   23.9890  -26.1110 O   0  0  0  0  0  0  0  0  0  0  0  0
   -2.0410   23.6040  -27.3160 C   0  0  0  0  0  0  0  0  0  0  0  0
   -3.3810   23.1740  -27.4040 C   0  0  0  0  0  0  0  0  0  0  0  0
   -3.9250   22.8050  -28.6360 C   0  0  0  0  0  0  0  0  0  0  0  0
   -3.1470   22.8500  -29.8060 C   0  0  0  0  0  0  0  0  0  0  0  0
   -3.7310   22.4540  -31.1110 C   0  0  0  0  0  0  0  0  0  0  0  0
   -3.0000   21.9280  -31.9930 O   0  0  0  0  0  0  0  0  0  0  0  0
   -5.1310   22.6280  -31.3800 N   0  0  0  0  0  0  0  0  0  0  0  0
   -5.8930   23.7410  -31.1880 C   0  0  0  0  0  0  0  0  0  0  0  0
   -5.4050   25.0580  -30.7300 C   0  0  0  0  0  0  0  0  0  0  0  0
   -4.0190   25.3880  -30.7840 N   0  0  0  0  0  0  0  0  0  0  0  0
   -6.2260   25.9170  -30.3100 O   0  0  0  0  0  0  0  0  0  0  0  0
   -7.2210   23.4830  -31.5300 C   0  0  0  0  0  0  0  0  0  0  0  0
   -7.2400   22.1710  -31.9510 C   0  0  0  0  0  0  0  0  0  0  0  0
   -8.3010   21.3860  -32.3930 C   0  0  0  0  0  0  0  0  0  0  0  0
   -8.0300   20.0520  -32.7440 C   0  0  0  0  0  0  0  0  0  0  0  0
   -6.7130   19.5320  -32.6630 C   0  0  0  0  0  0  0  0  0  0  0  0
   -6.4500   18.0840  -32.9900 C   0  0  0  0  0  0  0  0  0  0  0  0
   -5.4160   17.5850  -32.2170 F   0  0  0  0  0  0  0  0  0  0  0  0
   -7.5940   17.3470  -32.7420 F   0  0  0  0  0  0  0  0  0  0  0  0
   -6.1020   17.9420  -34.3220 F   0  0  0  0  0  0  0  0  0  0  0  0
   -5.6670   20.3570  -32.1860 C   0  0  0  0  0  0  0  0  0  0  0  0
   -5.9660   21.6810  -31.8550 C   0  0  0  0  0  0  0  0  0  0  0  0
   -1.8160   23.2890  -29.7170 C   0  0  0  0  0  0  0  0  0  0  0  0
   -1.2720   23.6590  -28.4840 C   0  0  0  0  0  0  0  0  0  0  0  0
   -0.7000   25.8660  -24.0620 C   0  0  0  0  0  0  0  0  0  0  0  0
   -0.0880   26.7290  -22.9490 C   0  0  0  0  0  0  0  0  0  0  0  0
    0.9060   29.4031  -22.9700 H   0  0  0  0  0  0  0  0  0  0  0  0
    1.8678   29.0339  -24.4415 H   0  0  0  0  0  0  0  0  0  0  0  0
    0.0905   28.7736  -24.4415 H   0  0  0  0  0  0  0  0  0  0  0  0
    1.8040   27.4110  -22.4940 H   0  0  0  0  0  0  0  0  0  0  0  0
    1.6387   26.8700  -25.3709 H   0  0  0  0  0  0  0  0  0  0  0  0
    3.0355   26.7576  -24.2193 H   0  0  0  0  0  0  0  0  0  0  0  0
    2.3532   24.5177  -24.9358 H   0  0  0  0  0  0  0  0  0  0  0  0
    1.9931   24.7664  -23.1817 H   0  0  0  0  0  0  0  0  0  0  0  0
    0.0316   23.8348  -23.8061 H   0  0  0  0  0  0  0  0  0  0  0  0
    0.2658   25.0786  -26.5872 H   0  0  0  0  0  0  0  0  0  0  0  0
    0.5327   23.3513  -26.1158 H   0  0  0  0  0  0  0  0  0  0  0  0
   -4.0015   23.1290  -26.4968 H   0  0  0  0  0  0  0  0  0  0  0  0
   -4.9731   22.4757  -28.6916 H   0  0  0  0  0  0  0  0  0  0  0  0
   -3.5010   25.6760  -29.9250 H   0  0  0  0  0  0  0  0  0  0  0  0
   -8.0714   24.1786  -31.4752 H   0  0  0  0  0  0  0  0  0  0  0  0
   -9.3190   21.7963  -32.4654 H   0  0  0  0  0  0  0  0  0  0  0  0
   -8.8499   19.4032  -33.0858 H   0  0  0  0  0  0  0  0  0  0  0  0
   -4.6445   19.9659  -32.0785 H   0  0  0  0  0  0  0  0  0  0  0  0
   -1.1969   23.3420  -30.6247 H   0  0  0  0  0  0  0  0  0  0  0  0
   -0.2267   23.9976  -28.4309 H   0  0  0  0  0  0  0  0  0  0  0  0
   -0.8774   26.4957  -24.9464 H   0  0  0  0  0  0  0  0  0  0  0  0
   -1.6436   25.4400  -23.6902 H   0  0  0  0  0  0  0  0  0  0  0  0
   -0.7972   27.5300  -22.6932 H   0  0  0  0  0  0  0  0  0  0  0  0
    0.1093   26.0737  -22.0878 H   0  0  0  0  0  0  0  0  0  0  0  0
  1  2  1  0
  2  3  1  0
  3  4  1  0
  4  5  1  0
  5  6  1  0
  6  7  1  0
  7  8  1  0
  8  9  2  0
  9 10  1  0
 10 11  2  0
 11 12  1  0
 12 13  2  0
 12 14  1  0
 14 15  1  0
 15 16  1  0
 16 17  1  0
 16 18  2  0
 15 19  2  0
 19 20  1  0
 20 21  2  0
 21 22  1  0
 22 23  2  0
 23 24  1  0
 24 25  1  0
 24 26  1  0
 24 27  1  0
 23 28  1  0
 28 29  2  0
 11 30  1  0
 30 31  2  0
  5 32  1  0
 32 33  1  0
 33  2  1  0
 31  8  1  0
 29 14  1  0
 29 20  1  0
  1 34  1  0
  1 35  1  0
  1 36  1  0
  2 37  1  1
  3 38  1  0
  3 39  1  0
  4 40  1  0
  4 41  1  0
  5 42  1  1
  6 43  1  0
  6 44  1  0
  9 45  1  0
 10 46  1  0
 17 47  1  0
 19 48  1  0
 21 49  1  0
 22 50  1  0
 28 51  1  0
 30 52  1  0
 31 53  1  0
 32 54  1  0
 32 55  1  0
 33 56  1  0
 33 57  1  0
M  CHG  2   2   1  17  -1
M  END
>  <UniqueID>  (32) 
31

>  <SMILES>  (32) 
C[NH+]1CCC(COc2ccc(C(=O)n3c(C([NH-])=O)cc4ccc(C(F)(F)F)cc43)cc2)CC1

>  <Energy>  (32) 
111.51835269811708

>  <Genealogy>  (32) 
C[NH+]1CCC(COc2ccc(C(=O)n3c(C([NH-])=O)cc4ccc(C(F)(F)F)cc43)cc2)CC1 (protonated)
C[NH+]1CCC(COc2ccc(C(=O)n3c(C([NH-])=O)cc4ccc(C(F)(F)F)cc43)cc2)CC1 (3D coordinates assigned)
C[NH+]1CCC(COc2ccc(C(=O)n3c(C([NH-])=O)cc4ccc(C(F)(F)F)cc43)cc2)CC1 (nonaromatic ring conformer: 111.51835269811708 kcal/mol)

>  <smiles>  (32) 
CN1CCC(COc2ccc(C(=O)n3c(C(N)=O)cc4ccc(C(F)(F)F)cc43)cc2)CC1

>  <score_type>  (32) 
oracle

>  <origin>  (32) 
adg

>  <m_score__min__energy>  (32) 
-12.85

>  <m_primary>  (32) 
energy

$$$$
32:0
     RDKit          3D

 43 44  0  0  0  0  0  0  0  0999 V2000
   -1.2620   22.5030  -30.7150 C   0  0  0  0  0  0  0  0  0  0  0  0
   -2.6860   22.8090  -30.4690 N   0  0  2  0  0  0  0  0  0  0  0  0
   -3.2000   22.1500  -29.2470 C   0  0  0  0  0  0  0  0  0  0  0  0
   -3.6490   23.1140  -28.1800 C   0  0  0  0  0  0  0  0  0  0  0  0
   -4.3560   22.7010  -27.2200 O   0  0  0  0  0  0  0  0  0  0  0  0
   -3.2680   24.4590  -28.2560 O   0  0  0  0  0  0  0  0  0  0  0  0
   -2.3630   25.0540  -27.3330 C   0  0  0  0  0  0  0  0  0  0  0  0
   -1.0610   25.4110  -28.0410 C   0  0  0  0  0  0  0  0  0  0  0  0
   -1.1750   25.2040  -29.4220 O   0  0  0  0  0  0  0  0  0  0  0  0
   -3.5110   22.4980  -31.6200 C   0  0  0  0  0  0  0  0  0  0  0  0
   -3.0010   21.9850  -32.6560 O   0  0  0  0  0  0  0  0  0  0  0  0
   -4.9390   22.6290  -31.5400 N   0  0  0  0  0  0  0  0  0  0  0  0
   -5.6720   23.6640  -31.0350 C   0  0  0  0  0  0  0  0  0  0  0  0
   -5.1350   24.9580  -30.5680 C   0  0  0  0  0  0  0  0  0  0  0  0
   -3.7840   25.3170  -30.8610 N   0  0  0  0  0  0  0  0  0  0  0  0
   -5.8450   25.7410  -29.8850 O   0  0  0  0  0  0  0  0  0  0  0  0
   -7.0380   23.3870  -31.1200 C   0  0  0  0  0  0  0  0  0  0  0  0
   -7.1200   22.1420  -31.6980 C   0  0  0  0  0  0  0  0  0  0  0  0
   -8.2350   21.3640  -31.9970 C   0  0  0  0  0  0  0  0  0  0  0  0
   -8.0210   20.0970  -32.5640 C   0  0  0  0  0  0  0  0  0  0  0  0
   -6.7070   19.6440  -32.8570 C   0  0  0  0  0  0  0  0  0  0  0  0
   -6.4740   18.2650  -33.4220 C   0  0  0  0  0  0  0  0  0  0  0  0
   -6.1480   18.3720  -34.7600 F   0  0  0  0  0  0  0  0  0  0  0  0
   -5.4440   17.6220  -32.7590 F   0  0  0  0  0  0  0  0  0  0  0  0
   -7.6180   17.4970  -33.2950 F   0  0  0  0  0  0  0  0  0  0  0  0
   -5.6000   20.4630  -32.5320 C   0  0  0  0  0  0  0  0  0  0  0  0
   -5.8420   21.7110  -31.9500 C   0  0  0  0  0  0  0  0  0  0  0  0
   -0.7397   22.3908  -29.7535 H   0  0  0  0  0  0  0  0  0  0  0  0
   -1.1816   21.5671  -31.2874 H   0  0  0  0  0  0  0  0  0  0  0  0
   -0.8043   23.3233  -31.2874 H   0  0  0  0  0  0  0  0  0  0  0  0
   -2.7490   23.8410  -30.2990 H   0  0  0  0  0  0  0  0  0  0  0  0
   -4.0564   21.5191  -29.5272 H   0  0  0  0  0  0  0  0  0  0  0  0
   -2.3689   21.5672  -28.8233 H   0  0  0  0  0  0  0  0  0  0  0  0
   -2.8141   25.9668  -26.9166 H   0  0  0  0  0  0  0  0  0  0  0  0
   -2.1512   24.3412  -26.5224 H   0  0  0  0  0  0  0  0  0  0  0  0
   -0.8260   26.4690  -27.8527 H   0  0  0  0  0  0  0  0  0  0  0  0
   -0.2589   24.7666  -27.6520 H   0  0  0  0  0  0  0  0  0  0  0  0
   -1.9960   25.6820  -29.7090 H   0  0  0  0  0  0  0  0  0  0  0  0
   -3.0420   25.2490  -30.1320 H   0  0  0  0  0  0  0  0  0  0  0  0
   -7.8706   24.0278  -30.7942 H   0  0  0  0  0  0  0  0  0  0  0  0
   -9.2524   21.7303  -31.7954 H   0  0  0  0  0  0  0  0  0  0  0  0
   -8.8813   19.4477  -32.7838 H   0  0  0  0  0  0  0  0  0  0  0  0
   -4.5724   20.1256  -32.7326 H   0  0  0  0  0  0  0  0  0  0  0  0
  1  2  1  0
  2  3  1  0
  3  4  1  0
  4  5  2  0
  4  6  1  0
  6  7  1  0
  7  8  1  0
  8  9  1  0
  2 10  1  0
 10 11  2  0
 10 12  1  0
 12 13  1  0
 13 14  1  0
 14 15  1  0
 14 16  2  0
 13 17  2  0
 17 18  1  0
 18 19  2  0
 19 20  1  0
 20 21  2  0
 21 22  1  0
 22 23  1  0
 22 24  1  0
 22 25  1  0
 21 26  1  0
 26 27  2  0
 27 12  1  0
 27 18  1  0
  1 28  1  0
  1 29  1  0
  1 30  1  0
  2 31  1  1
  3 32  1  0
  3 33  1  0
  7 34  1  0
  7 35  1  0
  8 36  1  0
  8 37  1  0
  9 38  1  0
 15 39  1  0
 17 40  1  0
 19 41  1  0
 20 42  1  0
 26 43  1  0
M  CHG  2   2   1  15  -1
M  END
>  <UniqueID>  (33) 
32

>  <SMILES>  (33) 
C[N@H+](CC(=O)OCCO)C(=O)n1c(C([NH-])=O)cc2ccc(C(F)(F)F)cc21

>  <Energy>  (33) 
81.9028691989132

>  <Genealogy>  (33) 
C[NH+](CC(=O)OCCO)C(=O)n1c(C([NH-])=O)cc2ccc(C(F)(F)F)cc21 (protonated)
C[N@H+](CC(=O)OCCO)C(=O)n1c(C([NH-])=O)cc2ccc(C(F)(F)F)cc21 (chirality)
C[N@H+](CC(=O)OCCO)C(=O)n1c(C([NH-])=O)cc2ccc(C(F)(F)F)cc21 (3D coordinates assigned)
C[N@H+](CC(=O)OCCO)C(=O)n1c(C([NH-])=O)cc2ccc(C(F)(F)F)cc21 (optimized conformer: 81.9028691989132 kcal/mol)

>  <smiles>  (33) 
CN(CC(=O)OCCO)C(=O)n1c(C(N)=O)cc2ccc(C(F)(F)F)cc21

>  <score_type>  (33) 
oracle

>  <origin>  (33) 
adg

>  <m_score__min__energy>  (33) 
-8.9299999999999997

>  <m_primary>  (33) 
energy

$$$$
33:0
     RDKit          3D

 56 59  0  0  0  0  0  0  0  0999 V2000
   -0.8470   16.2260  -33.4600 C   0  0  0  0  0  0  0  0  0  0  0  0
   -2.1090   16.2120  -32.8050 O   0  0  0  0  0  0  0  0  0  0  0  0
   -3.1640   15.3910  -33.2300 C   0  0  0  0  0  0  0  0  0  0  0  0
   -3.3770   14.2760  -32.6730 O   0  0  0  0  0  0  0  0  0  0  0  0
   -4.0830   15.8620  -34.3230 C   0  0  2  0  0  0  0  0  0  0  0  0
   -3.6080   17.0620  -34.8830 O   0  0  0  0  0  0  0  0  0  0  0  0
   -5.4590   16.0240  -33.7900 N   0  0  0  0  0  0  0  0  0  0  0  0
   -5.5590   16.3230  -32.3410 C   0  0  0  0  0  0  0  0  0  0  0  0
   -5.3650   17.8110  -32.0040 C   0  0  0  0  0  0  0  0  0  0  0  0
   -6.1320   18.6600  -32.9180 N   0  0  0  0  0  0  0  0  0  0  0  0
   -6.5820   19.9500  -32.4680 C   0  0  0  0  0  0  0  0  0  0  0  0
   -7.9490   20.2990  -32.5860 C   0  0  0  0  0  0  0  0  0  0  0  0
   -8.4070   21.5550  -32.1540 C   0  0  0  0  0  0  0  0  0  0  0  0
   -7.4810   22.4370  -31.6040 C   0  0  0  0  0  0  0  0  0  0  0  0
   -7.6660   23.7050  -31.1080 C   0  0  0  0  0  0  0  0  0  0  0  0
   -6.4120   24.1090  -30.6710 C   0  0  0  0  0  0  0  0  0  0  0  0
   -6.1720   25.3930  -30.0000 C   0  0  0  0  0  0  0  0  0  0  0  0
   -5.1670   26.2840  -30.4810 N   0  0  0  0  0  0  0  0  0  0  0  0
   -6.8450   25.7000  -28.9810 O   0  0  0  0  0  0  0  0  0  0  0  0
   -5.4720   23.1460  -30.8970 N   0  0  0  0  0  0  0  0  0  0  0  0
   -4.0480   23.2660  -30.6720 C   0  0  0  0  0  0  0  0  0  0  0  0
   -3.4790   24.3870  -30.7710 O   0  0  0  0  0  0  0  0  0  0  0  0
   -3.2970   22.1310  -30.3250 O   0  0  0  0  0  0  0  0  0  0  0  0
   -2.1580   21.6850  -31.0130 C   0  0  0  0  0  0  0  0  0  0  0  0
   -1.0060   22.0040  -30.6230 O   0  0  0  0  0  0  0  0  0  0  0  0
   -2.3100   20.7940  -32.1730 C   0  0  0  0  0  0  0  0  0  0  0  0
   -2.7300   21.1510  -33.4390 C   0  0  0  0  0  0  0  0  0  0  0  0
   -2.7350   19.9810  -34.1740 C   0  0  0  0  0  0  0  0  0  0  0  0
   -2.3460   18.9800  -33.4140 O   0  0  0  0  0  0  0  0  0  0  0  0
   -2.0820   19.4330  -32.2060 C   0  0  0  0  0  0  0  0  0  0  0  0
   -6.1500   22.1180  -31.4710 C   0  0  0  0  0  0  0  0  0  0  0  0
   -5.6690   20.8700  -31.9040 C   0  0  0  0  0  0  0  0  0  0  0  0
   -6.0500   18.3800  -34.3540 C   0  0  0  0  0  0  0  0  0  0  0  0
   -6.3240   16.8970  -34.6080 C   0  0  0  0  0  0  0  0  0  0  0  0
   -0.0439   16.2349  -32.7084 H   0  0  0  0  0  0  0  0  0  0  0  0
   -0.7505   15.3289  -34.0892 H   0  0  0  0  0  0  0  0  0  0  0  0
   -0.7704   17.1251  -34.0892 H   0  0  0  0  0  0  0  0  0  0  0  0
   -4.1084   15.1074  -35.1230 H   0  0  0  0  0  0  0  0  0  0  0  0
   -3.0130   17.4820  -34.2060 H   0  0  0  0  0  0  0  0  0  0  0  0
   -6.5547   16.0140  -31.9902 H   0  0  0  0  0  0  0  0  0  0  0  0
   -4.7492   15.7711  -31.8413 H   0  0  0  0  0  0  0  0  0  0  0  0
   -5.7038   17.9937  -30.9735 H   0  0  0  0  0  0  0  0  0  0  0  0
   -4.2981   18.0579  -32.1082 H   0  0  0  0  0  0  0  0  0  0  0  0
   -8.6593   19.5799  -33.0201 H   0  0  0  0  0  0  0  0  0  0  0  0
   -9.4670   21.8335  -32.2477 H   0  0  0  0  0  0  0  0  0  0  0  0
   -8.6050   24.2765  -31.0663 H   0  0  0  0  0  0  0  0  0  0  0  0
   -4.5930   26.0500  -31.3210 H   0  0  0  0  0  0  0  0  0  0  0  0
   -4.9950   27.1870  -29.9840 H   0  0  0  0  0  0  0  0  0  0  0  0
   -3.0036   22.1572  -33.7894 H   0  0  0  0  0  0  0  0  0  0  0  0
   -3.0207   19.8990  -35.2331 H   0  0  0  0  0  0  0  0  0  0  0  0
   -1.7351   18.8239  -31.3583 H   0  0  0  0  0  0  0  0  0  0  0  0
   -4.6036   20.6146  -31.8059 H   0  0  0  0  0  0  0  0  0  0  0  0
   -6.7968   18.9862  -34.8877 H   0  0  0  0  0  0  0  0  0  0  0  0
   -5.0422   18.6309  -34.7164 H   0  0  0  0  0  0  0  0  0  0  0  0
   -7.3752   16.6837  -34.3640 H   0  0  0  0  0  0  0  0  0  0  0  0
   -6.1098   16.6896  -35.6668 H   0  0  0  0  0  0  0  0  0  0  0  0
  1  2  1  0
  2  3  1  0
  3  4  2  0
  3  5  1  0
  5  6  1  0
  5  7  1  0
  7  8  1  0
  8  9  1  0
  9 10  1  0
 10 11  1  0
 11 12  2  0
 12 13  1  0
 13 14  2  0
 14 15  1  0
 15 16  2  0
 16 17  1  0
 17 18  1  0
 17 19  2  0
 16 20  1  0
 20 21  1  0
 21 22  2  0
 21 23  1  0
 23 24  1  0
 24 25  2  0
 24 26  1  0
 26 27  1  0
 27 28  2  0
 28 29  1  0
 29 30  1  0
 20 31  1  0
 31 32  2  0
 10 33  1  0
 33 34  1  0
 34  7  1  0
 32 11  1  0
 31 14  1  0
 30 26  2  0
  1 35  1  0
  1 36  1  0
  1 37  1  0
  5 38  1  6
  6 39  1  0
  8 40  1  0
  8 41  1  0
  9 42  1  0
  9 43  1  0
 12 44  1  0
 13 45  1  0
 15 46  1  0
 18 47  1  0
 18 48  1  0
 27 49  1  0
 28 50  1  0
 30 51  1  0
 32 52  1  0
 33 53  1  0
 33 54  1  0
 34 55  1  0
 34 56  1  0
M  END
>  <UniqueID>  (34) 
33

>  <SMILES>  (34) 
COC(=O)[C@H](O)N1CCN(c2ccc3cc(C(N)=O)n(C(=O)OC(=O)c4ccoc4)c3c2)CC1

>  <Energy>  (34) 
136.30612755644725

>  <Genealogy>  (34) 
COC(=O)[C@H](O)N1CCN(c2ccc3cc(C(N)=O)n(C(=O)OC(=O)c4ccoc4)c3c2)CC1 (chirality)
COC(=O)[C@H](O)N1CCN(c2ccc3cc(C(N)=O)n(C(=O)OC(=O)c4ccoc4)c3c2)CC1 (3D coordinates assigned)
COC(=O)[C@H](O)N1CCN(c2ccc3cc(C(N)=O)n(C(=O)OC(=O)c4ccoc4)c3c2)CC1 (nonaromatic ring conformer: 136.30612755644725 kcal/mol)

>  <smiles>  (34) 
COC(=O)C(O)N1CCN(c2ccc3cc(C(N)=O)n(C(=O)OC(=O)c4ccoc4)c3c2)CC1

>  <score_type>  (34) 
oracle

>  <origin>  (34) 
adg

>  <m_score__min__energy>  (34) 
-9.3100000000000005

>  <m_primary>  (34) 
energy

$$$$
34:0
     RDKit          3D

 36 37  0  0  0  0  0  0  0  0999 V2000
   -0.2070   22.4400  -28.7600 C   0  0  0  0  0  0  0  0  0  0  0  0
   -1.3080   23.5000  -28.6860 C   0  0  2  0  0  0  0  0  0  0  0  0
   -2.1850   23.4170  -29.8600 N   0  0  0  0  0  0  0  0  0  0  0  0
   -3.1760   22.3870  -29.9950 C   0  0  0  0  0  0  0  0  0  0  0  0
   -3.3080   21.5160  -29.0920 O   0  0  0  0  0  0  0  0  0  0  0  0
   -4.0560   22.3420  -31.1780 C   0  0  0  0  0  0  0  0  0  0  0  0
   -3.5830   22.0250  -32.3020 O   0  0  0  0  0  0  0  0  0  0  0  0
   -5.4510   22.6660  -31.0650 N   0  0  0  0  0  0  0  0  0  0  0  0
   -6.0040   23.8860  -30.8170 C   0  0  0  0  0  0  0  0  0  0  0  0
   -5.2580   25.1240  -30.5080 C   0  0  0  0  0  0  0  0  0  0  0  0
   -3.8720   25.2180  -30.8310 N   0  0  0  0  0  0  0  0  0  0  0  0
   -5.8350   26.1090  -29.9760 O   0  0  0  0  0  0  0  0  0  0  0  0
   -7.3950   23.8040  -30.8430 C   0  0  0  0  0  0  0  0  0  0  0  0
   -7.6780   22.4860  -31.1230 C   0  0  0  0  0  0  0  0  0  0  0  0
   -8.9030   21.8490  -31.2970 C   0  0  0  0  0  0  0  0  0  0  0  0
   -8.8950   20.4820  -31.6190 C   0  0  0  0  0  0  0  0  0  0  0  0
   -7.6710   19.7740  -31.7520 C   0  0  0  0  0  0  0  0  0  0  0  0
   -7.6740   18.3220  -32.1570 C   0  0  0  0  0  0  0  0  0  0  0  0
   -7.3090   18.1840  -33.4840 F   0  0  0  0  0  0  0  0  0  0  0  0
   -6.7760   17.6280  -31.3680 F   0  0  0  0  0  0  0  0  0  0  0  0
   -8.9350   17.7720  -31.9960 F   0  0  0  0  0  0  0  0  0  0  0  0
   -6.4470   20.4650  -31.5930 C   0  0  0  0  0  0  0  0  0  0  0  0
   -6.4870   21.8210  -31.2550 C   0  0  0  0  0  0  0  0  0  0  0  0
   -0.6990   24.8690  -28.5910 C   0  0  0  0  0  0  0  0  0  0  0  0
    0.2770   25.0820  -27.8230 O   0  0  0  0  0  0  0  0  0  0  0  0
   -1.2310   25.9190  -29.3290 O   0  0  0  0  0  0  0  0  0  0  0  0
    0.0930   22.1512  -27.7419 H   0  0  0  0  0  0  0  0  0  0  0  0
   -0.5842   21.5564  -29.2957 H   0  0  0  0  0  0  0  0  0  0  0  0
    0.6617   22.8504  -29.2957 H   0  0  0  0  0  0  0  0  0  0  0  0
   -1.9128   23.3137  -27.7863 H   0  0  0  0  0  0  0  0  0  0  0  0
   -2.0810   24.1210  -30.6250 H   0  0  0  0  0  0  0  0  0  0  0  0
   -3.4960   26.0440  -31.3480 H   0  0  0  0  0  0  0  0  0  0  0  0
   -8.1142   24.6193  -30.6754 H   0  0  0  0  0  0  0  0  0  0  0  0
   -9.8488   22.3995  -31.1857 H   0  0  0  0  0  0  0  0  0  0  0  0
   -9.8478   19.9535  -31.7699 H   0  0  0  0  0  0  0  0  0  0  0  0
   -5.4863   19.9476  -31.7320 H   0  0  0  0  0  0  0  0  0  0  0  0
  1  2  1  0
  2  3  1  0
  3  4  1  0
  4  5  2  0
  4  6  1  0
  6  7  2  0
  6  8  1  0
  8  9  1  0
  9 10  1  0
 10 11  1  0
 10 12  2  0
  9 13  2  0
 13 14  1  0
 14 15  2  0
 15 16  1  0
 16 17  2  0
 17 18  1  0
 18 19  1  0
 18 20  1  0
 18 21  1  0
 17 22  1  0
 22 23  2  0
  2 24  1  0
 24 25  2  0
 24 26  1  0
 23  8  1  0
 23 14  1  0
  1 27  1  0
  1 28  1  0
  1 29  1  0
  2 30  1  1
  3 31  1  0
 11 32  1  0
 13 33  1  0
 15 34  1  0
 16 35  1  0
 22 36  1  0
M  CHG  2  11  -1  26  -1
M  END
>  <UniqueID>  (35) 
34

>  <SMILES>  (35) 
C[C@H](NC(=O)C(=O)n1c(C([NH-])=O)cc2ccc(C(F)(F)F)cc21)C(=O)[O-]

>  <Energy>  (35) 
71.7481373179422

>  <Genealogy>  (35) 
CC(NC(=O)C(=O)n1c(C([NH-])=O)cc2ccc(C(F)(F)F)cc21)C(=O)[O-] (protonated)
C[C@H](NC(=O)C(=O)n1c(C([NH-])=O)cc2ccc(C(F)(F)F)cc21)C(=O)[O-] (chirality)
C[C@H](NC(=O)C(=O)n1c(C([NH-])=O)cc2ccc(C(F)(F)F)cc21)C(=O)[O-] (3D coordinates assigned)
C[C@H](NC(=O)C(=O)n1c(C([NH-])=O)cc2ccc(C(F)(F)F)cc21)C(=O)[O-] (optimized conformer: 71.7481373179422 kcal/mol)

>  <smiles>  (35) 
CC(NC(=O)C(=O)n1c(C(N)=O)cc2ccc(C(F)(F)F)cc21)C(=O)O

>  <score_type>  (35) 
oracle

>  <origin>  (35) 
adg

>  <m_score__min__energy>  (35) 
-12.56

>  <m_primary>  (35) 
energy

$$$$
35:0
     RDKit          3D

 39 41  0  0  0  0  0  0  0  0999 V2000
   -5.4040   23.3670  -30.7090 N   0  0  0  0  0  0  0  0  0  0  0  0
   -6.6060   22.6960  -31.0870 C   0  0  0  0  0  0  0  0  0  0  0  0
   -7.7170   23.2440  -30.8570 O   0  0  0  0  0  0  0  0  0  0  0  0
   -6.5740   21.3460  -31.6820 C   0  0  0  0  0  0  0  0  0  0  0  0
   -7.6780   20.5010  -31.7210 C   0  0  0  0  0  0  0  0  0  0  0  0
   -7.2200   19.3340  -32.2910 C   0  0  0  0  0  0  0  0  0  0  0  0
   -7.8990   18.1560  -32.5780 C   0  0  0  0  0  0  0  0  0  0  0  0
   -7.1860   17.1180  -33.1980 C   0  0  0  0  0  0  0  0  0  0  0  0
   -5.8140   17.2710  -33.5320 C   0  0  0  0  0  0  0  0  0  0  0  0
   -5.0740   16.1690  -34.2000 C   0  0  0  0  0  0  0  0  0  0  0  0
   -3.9330   16.2610  -34.9780 C   0  0  0  0  0  0  0  0  0  0  0  0
   -3.5810   15.0320  -35.3980 N   0  0  0  0  0  0  0  0  0  0  0  0
   -4.4520   14.1570  -34.9190 N   0  0  0  0  0  0  0  0  0  0  0  0
   -5.3690   14.8170  -34.1890 C   0  0  0  0  0  0  0  0  0  0  0  0
   -5.1620   18.4900  -33.2220 C   0  0  0  0  0  0  0  0  0  0  0  0
   -5.8910   19.5010  -32.5830 C   0  0  0  0  0  0  0  0  0  0  0  0
   -5.4780   20.7360  -32.2150 N   0  0  0  0  0  0  0  0  0  0  0  0
   -4.1910   21.3260  -32.4620 C   0  0  0  0  0  0  0  0  0  0  0  0
   -4.1140   22.5160  -32.8720 O   0  0  0  0  0  0  0  0  0  0  0  0
   -3.0320   20.5670  -32.2510 O   0  0  0  0  0  0  0  0  0  0  0  0
   -1.8740   21.0230  -31.6090 C   0  0  0  0  0  0  0  0  0  0  0  0
   -0.8460   21.3370  -32.2680 O   0  0  0  0  0  0  0  0  0  0  0  0
   -1.8780   21.1300  -30.2160 O   0  0  0  0  0  0  0  0  0  0  0  0
   -2.1610   22.3480  -29.5380 C   0  0  0  0  0  0  0  0  0  0  0  0
   -2.3670   23.3580  -30.4970 O   0  0  0  0  0  0  0  0  0  0  0  0
   -3.0690   24.7040  -29.7200 P   0  0  0  0  0  0  0  0  0  0  0  0
   -4.0330   24.2380  -28.6500 O   0  0  0  0  0  0  0  0  0  0  0  0
   -3.8910   25.6740  -30.8380 O   0  0  0  0  0  0  0  0  0  0  0  0
   -1.8440   25.6190  -28.9950 O   0  0  0  0  0  0  0  0  0  0  0  0
   -4.4820   22.8760  -30.7330 H   0  0  0  0  0  0  0  0  0  0  0  0
   -5.4430   24.3330  -30.3180 H   0  0  0  0  0  0  0  0  0  0  0  0
   -8.6981   20.7182  -31.3715 H   0  0  0  0  0  0  0  0  0  0  0  0
   -8.9637   18.0404  -32.3268 H   0  0  0  0  0  0  0  0  0  0  0  0
   -7.6975   16.1719  -33.4287 H   0  0  0  0  0  0  0  0  0  0  0  0
   -3.3980   17.1923  -35.2156 H   0  0  0  0  0  0  0  0  0  0  0  0
   -6.2192   14.3550  -33.6659 H   0  0  0  0  0  0  0  0  0  0  0  0
   -4.1028   18.6397  -33.4784 H   0  0  0  0  0  0  0  0  0  0  0  0
   -3.0663   22.2291  -28.9246 H   0  0  0  0  0  0  0  0  0  0  0  0
   -1.3197   22.6177  -28.8826 H   0  0  0  0  0  0  0  0  0  0  0  0
  1  2  1  0
  2  3  2  0
  2  4  1  0
  4  5  2  0
  5  6  1  0
  6  7  2  0
  7  8  1  0
  8  9  2  0
  9 10  1  0
 10 11  1  0
 11 12  2  0
 12 13  1  0
 13 14  1  0
  9 15  1  0
 15 16  2  0
 16 17  1  0
 17 18  1  0
 18 19  2  0
 18 20  1  0
 20 21  1  0
 21 22  2  0
 21 23  1  0
 23 24  1  0
 24 25  1  0
 25 26  1  0
 26 27  2  0
 26 28  1  0
 26 29  1  0
 17  4  1  0
 16  6  1  0
 14 10  2  0
  1 30  1  0
  1 31  1  0
  5 32  1  0
  7 33  1  0
  8 34  1  0
 11 35  1  0
 14 36  1  0
 15 37  1  0
 24 38  1  0
 24 39  1  0
M  CHG  3  13  -1  28  -1  29  -1
M  END
>  <UniqueID>  (36) 
35

>  <SMILES>  (36) 
NC(=O)c1cc2ccc(-c3cn[n-]c3)cc2n1C(=O)OC(=O)OCOP(=O)([O-])[O-]

>  <Energy>  (36) 
110.93222095016543

>  <Genealogy>  (36) 
NC(=O)c1cc2ccc(-c3cn[n-]c3)cc2n1C(=O)OC(=O)OCOP(=O)([O-])[O-] (protonated)
NC(=O)c1cc2ccc(-c3cn[n-]c3)cc2n1C(=O)OC(=O)OCOP(=O)([O-])[O-] (3D coordinates assigned)
NC(=O)c1cc2ccc(-c3cn[n-]c3)cc2n1C(=O)OC(=O)OCOP(=O)([O-])[O-] (optimized conformer: 110.93222095016543 kcal/mol)

>  <smiles>  (36) 
NC(=O)c1cc2ccc(-c3cn[nH]c3)cc2n1C(=O)OC(=O)OCOP(=O)(O)O

>  <score_type>  (36) 
oracle

>  <origin>  (36) 
adg

>  <m_score__min__energy>  (36) 
-12.289999999999999

>  <m_primary>  (36) 
energy

$$$$
36:0
     RDKit          3D

 34 35  0  0  0  0  0  0  0  0999 V2000
   -6.3080   18.1940  -32.7230 C   0  0  0  0  0  0  0  0  0  0  0  0
   -6.6040   19.6180  -32.3590 C   0  0  0  0  0  0  0  0  0  0  0  0
   -7.9440   20.0810  -32.3370 C   0  0  0  0  0  0  0  0  0  0  0  0
   -8.2390   21.4010  -31.9550 C   0  0  0  0  0  0  0  0  0  0  0  0
   -7.1790   22.2270  -31.5890 C   0  0  0  0  0  0  0  0  0  0  0  0
   -7.1760   23.5360  -31.1590 C   0  0  0  0  0  0  0  0  0  0  0  0
   -5.8370   23.8420  -30.9170 C   0  0  0  0  0  0  0  0  0  0  0  0
   -5.3620   25.1660  -30.4620 C   0  0  0  0  0  0  0  0  0  0  0  0
   -4.0930   25.6720  -30.8680 N   0  0  0  0  0  0  0  0  0  0  0  0
   -6.0910   25.8680  -29.7100 O   0  0  0  0  0  0  0  0  0  0  0  0
   -5.0510   22.7620  -31.1790 N   0  0  0  0  0  0  0  0  0  0  0  0
   -3.6270   22.6530  -31.0480 C   0  0  0  0  0  0  0  0  0  0  0  0
   -2.9410   22.3530  -32.0630 O   0  0  0  0  0  0  0  0  0  0  0  0
   -2.9830   22.8550  -29.7730 N   0  0  0  0  0  0  0  0  0  0  0  0
   -3.8090   22.9870  -28.5690 C   0  0  0  0  0  0  0  0  0  0  0  0
   -1.5200   22.9700  -29.6810 C   0  0  0  0  0  0  0  0  0  0  0  0
   -1.1350   24.3290  -29.1870 C   0  0  0  0  0  0  0  0  0  0  0  0
   -1.9300   25.2980  -29.3100 O   0  0  0  0  0  0  0  0  0  0  0  0
    0.1110   24.5310  -28.6060 O   0  0  0  0  0  0  0  0  0  0  0  0
   -5.8820   21.7880  -31.5980 C   0  0  0  0  0  0  0  0  0  0  0  0
   -5.5560   20.4800  -31.9680 C   0  0  0  0  0  0  0  0  0  0  0  0
   -6.1844   17.5992  -31.8060 H   0  0  0  0  0  0  0  0  0  0  0  0
   -7.1406   17.7862  -33.3151 H   0  0  0  0  0  0  0  0  0  0  0  0
   -5.3819   18.1518  -33.3151 H   0  0  0  0  0  0  0  0  0  0  0  0
   -8.7603   19.4008  -32.6216 H   0  0  0  0  0  0  0  0  0  0  0  0
   -9.2751   21.7703  -31.9454 H   0  0  0  0  0  0  0  0  0  0  0  0
   -8.0449   24.1987  -31.0333 H   0  0  0  0  0  0  0  0  0  0  0  0
   -3.2070   25.2610  -30.5000 H   0  0  0  0  0  0  0  0  0  0  0  0
   -3.1745   22.8856  -27.6761 H   0  0  0  0  0  0  0  0  0  0  0  0
   -4.2944   23.9741  -28.5637 H   0  0  0  0  0  0  0  0  0  0  0  0
   -4.5778   22.2003  -28.5637 H   0  0  0  0  0  0  0  0  0  0  0  0
   -1.1395   22.2093  -28.9835 H   0  0  0  0  0  0  0  0  0  0  0  0
   -1.0859   22.8166  -30.6800 H   0  0  0  0  0  0  0  0  0  0  0  0
   -4.5126   20.1320  -31.9550 H   0  0  0  0  0  0  0  0  0  0  0  0
  1  2  1  0
  2  3  2  0
  3  4  1  0
  4  5  2  0
  5  6  1  0
  6  7  2  0
  7  8  1  0
  8  9  1  0
  8 10  2  0
  7 11  1  0
 11 12  1  0
 12 13  2  0
 12 14  1  0
 14 15  1  0
 14 16  1  0
 16 17  1  0
 17 18  2  0
 17 19  1  0
 11 20  1  0
 20 21  2  0
 21  2  1  0
 20  5  1  0
  1 22  1  0
  1 23  1  0
  1 24  1  0
  3 25  1  0
  4 26  1  0
  6 27  1  0
  9 28  1  0
 15 29  1  0
 15 30  1  0
 15 31  1  0
 16 32  1  0
 16 33  1  0
 21 34  1  0
M  CHG  2   9  -1  19  -1
M  END
>  <UniqueID>  (37) 
36

>  <SMILES>  (37) 
Cc1ccc2cc(C([NH-])=O)n(C(=O)N(C)CC(=O)[O-])c2c1

>  <Energy>  (37) 
69.48671080766024

>  <Genealogy>  (37) 
Cc1ccc2cc(C([NH-])=O)n(C(=O)N(C)CC(=O)[O-])c2c1 (protonated)
Cc1ccc2cc(C([NH-])=O)n(C(=O)N(C)CC(=O)[O-])c2c1 (3D coordinates assigned)
Cc1ccc2cc(C([NH-])=O)n(C(=O)N(C)CC(=O)[O-])c2c1 (optimized conformer: 69.48671080766024 kcal/mol)

>  <smiles>  (37) 
Cc1ccc2cc(C(N)=O)n(C(=O)N(C)CC(=O)O)c2c1

>  <score_type>  (37) 
oracle

>  <origin>  (37) 
adg

>  <m_score__min__energy>  (37) 
-12.08

>  <m_primary>  (37) 
energy

$$$$
37:0
     RDKit          3D

 34 35  0  0  0  0  0  0  0  0999 V2000
   -1.7310   22.2350  -30.9690 C   0  0  0  0  0  0  0  0  0  0  0  0
   -2.9520   23.0460  -30.8010 N   0  0  2  0  0  0  0  0  0  0  0  0
   -3.4820   22.9910  -29.4180 C   0  0  0  0  0  0  0  0  0  0  0  0
   -2.9940   24.1120  -28.5390 C   0  0  0  0  0  0  0  0  0  0  0  0
   -3.2380   24.1060  -27.3040 O   0  0  0  0  0  0  0  0  0  0  0  0
   -2.2630   25.1590  -29.0870 O   0  0  0  0  0  0  0  0  0  0  0  0
   -3.9740   22.6970  -31.7670 C   0  0  0  0  0  0  0  0  0  0  0  0
   -3.6750   22.0450  -32.8080 O   0  0  0  0  0  0  0  0  0  0  0  0
   -5.3580   22.9690  -31.4860 N   0  0  0  0  0  0  0  0  0  0  0  0
   -5.8980   24.0770  -30.9030 C   0  0  0  0  0  0  0  0  0  0  0  0
   -5.1880   25.3410  -30.6260 C   0  0  0  0  0  0  0  0  0  0  0  0
   -3.8690   25.5580  -31.1180 N   0  0  0  0  0  0  0  0  0  0  0  0
   -5.7700   26.2580  -29.9880 O   0  0  0  0  0  0  0  0  0  0  0  0
   -7.2630   23.8990  -30.6850 C   0  0  0  0  0  0  0  0  0  0  0  0
   -7.5500   22.6440  -31.1710 C   0  0  0  0  0  0  0  0  0  0  0  0
   -8.7570   21.9530  -31.2110 C   0  0  0  0  0  0  0  0  0  0  0  0
   -8.7560   20.6600  -31.7620 C   0  0  0  0  0  0  0  0  0  0  0  0
   -7.5590   20.0890  -32.2580 C   0  0  0  0  0  0  0  0  0  0  0  0
   -7.5700   18.7730  -32.8140 N   0  0  0  0  0  0  0  0  0  0  0  0
   -6.3540   20.8200  -32.2030 C   0  0  0  0  0  0  0  0  0  0  0  0
   -6.3850   22.1060  -31.6530 C   0  0  0  0  0  0  0  0  0  0  0  0
   -1.3292   21.9681  -29.9804 H   0  0  0  0  0  0  0  0  0  0  0  0
   -1.9737   21.3180  -31.5259 H   0  0  0  0  0  0  0  0  0  0  0  0
   -0.9798   22.8143  -31.5259 H   0  0  0  0  0  0  0  0  0  0  0  0
   -2.6750   24.0410  -30.9710 H   0  0  0  0  0  0  0  0  0  0  0  0
   -4.5800   23.0386  -29.4645 H   0  0  0  0  0  0  0  0  0  0  0  0
   -3.1218   22.0521  -28.9722 H   0  0  0  0  0  0  0  0  0  0  0  0
   -3.0340   25.2900  -30.5510 H   0  0  0  0  0  0  0  0  0  0  0  0
   -7.9626   24.6108  -30.2225 H   0  0  0  0  0  0  0  0  0  0  0  0
   -9.6824   22.4042  -30.8238 H   0  0  0  0  0  0  0  0  0  0  0  0
   -9.6935   20.0865  -31.8083 H   0  0  0  0  0  0  0  0  0  0  0  0
   -7.1020   17.9800  -32.3200 H   0  0  0  0  0  0  0  0  0  0  0  0
   -8.0450   18.5800  -33.7230 H   0  0  0  0  0  0  0  0  0  0  0  0
   -5.4151   20.3905  -32.5824 H   0  0  0  0  0  0  0  0  0  0  0  0
  1  2  1  0
  2  3  1  0
  3  4  1  0
  4  5  2  0
  4  6  1  0
  2  7  1  0
  7  8  2  0
  7  9  1  0
  9 10  1  0
 10 11  1  0
 11 12  1  0
 11 13  2  0
 10 14  2  0
 14 15  1  0
 15 16  2  0
 16 17  1  0
 17 18  2  0
 18 19  1  0
 18 20  1  0
 20 21  2  0
 21  9  1  0
 21 15  1  0
  1 22  1  0
  1 23  1  0
  1 24  1  0
  2 25  1  6
  3 26  1  0
  3 27  1  0
 12 28  1  0
 14 29  1  0
 16 30  1  0
 17 31  1  0
 19 32  1  0
 19 33  1  0
 20 34  1  0
M  CHG  3   2   1   6  -1  12  -1
M  END
>  <UniqueID>  (38) 
37

>  <SMILES>  (38) 
C[N@H+](CC(=O)[O-])C(=O)n1c(C([NH-])=O)cc2ccc(N)cc21

>  <Energy>  (38) 
77.18841764743223

>  <Genealogy>  (38) 
C[NH+](CC(=O)[O-])C(=O)n1c(C([NH-])=O)cc2ccc(N)cc21 (protonated)
C[N@H+](CC(=O)[O-])C(=O)n1c(C([NH-])=O)cc2ccc(N)cc21 (chirality)
C[N@H+](CC(=O)[O-])C(=O)n1c(C([NH-])=O)cc2ccc(N)cc21 (3D coordinates assigned)
C[N@H+](CC(=O)[O-])C(=O)n1c(C([NH-])=O)cc2ccc(N)cc21 (optimized conformer: 77.18841764743223 kcal/mol)

>  <smiles>  (38) 
CN(CC(=O)O)C(=O)n1c(C(N)=O)cc2ccc(N)cc21

>  <score_type>  (38) 
oracle

>  <origin>  (38) 
adg

>  <m_score__min__energy>  (38) 
-9.6500000000000004

>  <m_primary>  (38) 
energy

$$$$
38:0
     RDKit          3D

 45 46  0  0  0  0  0  0  0  0999 V2000
   -0.2890   21.9760  -29.1830 C   0  0  0  0  0  0  0  0  0  0  0  0
   -0.8270   22.3400  -27.7900 C   0  0  0  0  0  0  0  0  0  0  0  0
    0.2870   22.2410  -26.7370 C   0  0  0  0  0  0  0  0  0  0  0  0
   -1.5730   23.7060  -27.7110 C   0  0  2  0  0  0  0  0  0  0  0  0
   -2.9760   23.5870  -28.1230 N   0  0  0  0  0  0  0  0  0  0  0  0
   -3.7190   22.3750  -28.3180 C   0  0  0  0  0  0  0  0  0  0  0  0
   -4.5450   21.9770  -27.4540 O   0  0  0  0  0  0  0  0  0  0  0  0
   -3.5140   21.5800  -29.5690 C   0  0  0  0  0  0  0  0  0  0  0  0
   -3.9240   22.3540  -30.7900 C   0  0  0  0  0  0  0  0  0  0  0  0
   -3.0630   22.6520  -31.6620 O   0  0  0  0  0  0  0  0  0  0  0  0
   -5.3070   22.6550  -31.0290 N   0  0  0  0  0  0  0  0  0  0  0  0
   -5.9610   23.8250  -30.7910 C   0  0  0  0  0  0  0  0  0  0  0  0
   -5.3150   25.0960  -30.4070 C   0  0  0  0  0  0  0  0  0  0  0  0
   -3.9270   25.1390  -30.0730 N   0  0  0  0  0  0  0  0  0  0  0  0
   -5.9970   26.1510  -30.3380 O   0  0  0  0  0  0  0  0  0  0  0  0
   -7.3230   23.6830  -31.0560 C   0  0  0  0  0  0  0  0  0  0  0  0
   -7.4790   22.3800  -31.4710 C   0  0  0  0  0  0  0  0  0  0  0  0
   -8.6260   21.6890  -31.8480 C   0  0  0  0  0  0  0  0  0  0  0  0
   -8.4930   20.3360  -32.2060 C   0  0  0  0  0  0  0  0  0  0  0  0
   -7.2210   19.7040  -32.1970 C   0  0  0  0  0  0  0  0  0  0  0  0
   -7.1010   18.2380  -32.5270 C   0  0  0  0  0  0  0  0  0  0  0  0
   -6.7130   18.0650  -33.8440 F   0  0  0  0  0  0  0  0  0  0  0  0
   -6.1560   17.6620  -31.6980 F   0  0  0  0  0  0  0  0  0  0  0  0
   -8.3130   17.5940  -32.3450 F   0  0  0  0  0  0  0  0  0  0  0  0
   -6.0830   20.4360  -31.7860 C   0  0  0  0  0  0  0  0  0  0  0  0
   -6.2470   21.7820  -31.4470 C   0  0  0  0  0  0  0  0  0  0  0  0
   -0.8960   24.8730  -28.3960 C   0  0  0  0  0  0  0  0  0  0  0  0
    0.2900   25.1640  -28.0900 O   0  0  0  0  0  0  0  0  0  0  0  0
   -1.5690   25.6640  -29.3180 O   0  0  0  0  0  0  0  0  0  0  0  0
    0.6178   21.3625  -29.0770 H   0  0  0  0  0  0  0  0  0  0  0  0
   -1.0532   21.4086  -29.7345 H   0  0  0  0  0  0  0  0  0  0  0  0
   -0.0466   22.8964  -29.7345 H   0  0  0  0  0  0  0  0  0  0  0  0
   -1.6027   21.5920  -27.5688 H   0  0  0  0  0  0  0  0  0  0  0  0
   -0.1552   22.2803  -25.7306 H   0  0  0  0  0  0  0  0  0  0  0  0
    0.8275   21.2913  -26.8632 H   0  0  0  0  0  0  0  0  0  0  0  0
    0.9865   23.0805  -26.8632 H   0  0  0  0  0  0  0  0  0  0  0  0
   -1.5318   23.9601  -26.6416 H   0  0  0  0  0  0  0  0  0  0  0  0
   -2.4494   21.3167  -29.6541 H   0  0  0  0  0  0  0  0  0  0  0  0
   -4.1387   20.6766  -29.5086 H   0  0  0  0  0  0  0  0  0  0  0  0
   -3.3200   24.2950  -30.1660 H   0  0  0  0  0  0  0  0  0  0  0  0
   -3.4900   26.0370  -29.7690 H   0  0  0  0  0  0  0  0  0  0  0  0
   -8.1058   24.4492  -30.9549 H   0  0  0  0  0  0  0  0  0  0  0  0
   -9.6071   22.1861  -31.8655 H   0  0  0  0  0  0  0  0  0  0  0  0
   -9.3842   19.7603  -32.4964 H   0  0  0  0  0  0  0  0  0  0  0  0
   -5.0936   19.9581  -31.7344 H   0  0  0  0  0  0  0  0  0  0  0  0
  1  2  1  0
  2  3  1  0
  2  4  1  0
  4  5  1  0
  5  6  1  0
  6  7  2  0
  6  8  1  0
  8  9  1  0
  9 10  2  0
  9 11  1  0
 11 12  1  0
 12 13  1  0
 13 14  1  0
 13 15  2  0
 12 16  2  0
 16 17  1  0
 17 18  2  0
 18 19  1  0
 19 20  2  0
 20 21  1  0
 21 22  1  0
 21 23  1  0
 21 24  1  0
 20 25  1  0
 25 26  2  0
  4 27  1  0
 27 28  2  0
 27 29  1  0
 26 11  1  0
 26 17  1  0
  1 30  1  0
  1 31  1  0
  1 32  1  0
  2 33  1  0
  3 34  1  0
  3 35  1  0
  3 36  1  0
  4 37  1  1
  8 38  1  0
  8 39  1  0
 14 40  1  0
 14 41  1  0
 16 42  1  0
 18 43  1  0
 19 44  1  0
 25 45  1  0
M  CHG  2   5  -1  29  -1
M  END
>  <UniqueID>  (39) 
38

>  <SMILES>  (39) 
CC(C)[C@H]([N-]C(=O)CC(=O)n1c(C(N)=O)cc2ccc(C(F)(F)F)cc21)C(=O)[O-]

>  <Energy>  (39) 
83.82517815468799

>  <Genealogy>  (39) 
CC(C)C([N-]C(=O)CC(=O)n1c(C(N)=O)cc2ccc(C(F)(F)F)cc21)C(=O)[O-] (protonated)
CC(C)[C@H]([N-]C(=O)CC(=O)n1c(C(N)=O)cc2ccc(C(F)(F)F)cc21)C(=O)[O-] (chirality)
CC(C)[C@H]([N-]C(=O)CC(=O)n1c(C(N)=O)cc2ccc(C(F)(F)F)cc21)C(=O)[O-] (3D coordinates assigned)
CC(C)[C@H]([N-]C(=O)CC(=O)n1c(C(N)=O)cc2ccc(C(F)(F)F)cc21)C(=O)[O-] (optimized conformer: 83.82517815468799 kcal/mol)

>  <smiles>  (39) 
CC(C)C(NC(=O)CC(=O)n1c(C(N)=O)cc2ccc(C(F)(F)F)cc21)C(=O)O

>  <score_type>  (39) 
oracle

>  <origin>  (39) 
adg

>  <m_score__min__energy>  (39) 
-12

>  <m_primary>  (39) 
energy

$$$$
39:0
     RDKit          3D

 52 53  0  0  0  0  0  0  0  0999 V2000
   -6.5020   17.4400  -31.9320 C   0  0  0  0  0  0  0  0  0  0  0  0
   -6.9580   18.3990  -33.0370 C   0  0  0  0  0  0  0  0  0  0  0  0
   -6.0020   18.3560  -34.2350 C   0  0  0  0  0  0  0  0  0  0  0  0
   -7.1090   19.8130  -32.5120 C   0  0  0  0  0  0  0  0  0  0  0  0
   -8.3900   20.4160  -32.3900 C   0  0  0  0  0  0  0  0  0  0  0  0
   -8.5230   21.7310  -31.9140 C   0  0  0  0  0  0  0  0  0  0  0  0
   -7.3680   22.4160  -31.5540 C   0  0  0  0  0  0  0  0  0  0  0  0
   -7.2110   23.6970  -31.0780 C   0  0  0  0  0  0  0  0  0  0  0  0
   -5.8400   23.8530  -30.8790 C   0  0  0  0  0  0  0  0  0  0  0  0
   -5.2400   25.0620  -30.2760 C   0  0  0  0  0  0  0  0  0  0  0  0
   -3.8590   25.3470  -30.4850 N   0  0  0  0  0  0  0  0  0  0  0  0
   -5.9420   25.8680  -29.6100 O   0  0  0  0  0  0  0  0  0  0  0  0
   -5.1740   22.7150  -31.2300 N   0  0  0  0  0  0  0  0  0  0  0  0
   -3.7590   22.4710  -31.2020 C   0  0  0  0  0  0  0  0  0  0  0  0
   -3.1210   22.3110  -32.2790 O   0  0  0  0  0  0  0  0  0  0  0  0
   -3.1010   22.3790  -29.9740 O   0  0  0  0  0  0  0  0  0  0  0  0
   -1.7110   22.6330  -29.8070 C   0  0  0  0  0  0  0  0  0  0  0  0
   -1.5050   24.0390  -29.7400 O   0  0  0  0  0  0  0  0  0  0  0  0
   -1.2060   24.6990  -28.5410 C   0  0  0  0  0  0  0  0  0  0  0  0
   -0.0090   24.9420  -28.2290 O   0  0  0  0  0  0  0  0  0  0  0  0
   -2.3110   25.0590  -27.5790 C   0  0  1  0  0  0  0  0  0  0  0  0
   -3.6090   24.5610  -28.0610 N   0  0  0  0  0  0  0  0  0  0  0  0
   -1.9630   24.5650  -26.1420 C   0  0  0  0  0  0  0  0  0  0  0  0
   -1.1180   23.2840  -26.1610 C   0  0  0  0  0  0  0  0  0  0  0  0
   -1.2870   25.6360  -25.2680 C   0  0  0  0  0  0  0  0  0  0  0  0
   -6.1250   21.8440  -31.6380 C   0  0  0  0  0  0  0  0  0  0  0  0
   -5.9600   20.5440  -32.1290 C   0  0  0  0  0  0  0  0  0  0  0  0
   -6.7140   17.8859  -30.9490 H   0  0  0  0  0  0  0  0  0  0  0  0
   -7.0435   16.4872  -32.0269 H   0  0  0  0  0  0  0  0  0  0  0  0
   -5.4212   17.2586  -32.0269 H   0  0  0  0  0  0  0  0  0  0  0  0
   -7.9472   18.0630  -33.3815 H   0  0  0  0  0  0  0  0  0  0  0  0
   -4.9639   18.3093  -33.8742 H   0  0  0  0  0  0  0  0  0  0  0  0
   -6.2185   17.4667  -34.8451 H   0  0  0  0  0  0  0  0  0  0  0  0
   -6.1378   19.2612  -34.8451 H   0  0  0  0  0  0  0  0  0  0  0  0
   -9.2879   19.8464  -32.6716 H   0  0  0  0  0  0  0  0  0  0  0  0
   -9.5120   22.2048  -31.8286 H   0  0  0  0  0  0  0  0  0  0  0  0
   -8.0001   24.4408  -30.8934 H   0  0  0  0  0  0  0  0  0  0  0  0
   -3.1440   24.5870  -30.4580 H   0  0  0  0  0  0  0  0  0  0  0  0
   -1.3588   22.1633  -28.8767 H   0  0  0  0  0  0  0  0  0  0  0  0
   -1.1506   22.2139  -30.6558 H   0  0  0  0  0  0  0  0  0  0  0  0
   -2.4011   26.1540  -27.5258 H   0  0  0  0  0  0  0  0  0  0  0  0
   -4.2140   25.3710  -28.3290 H   0  0  0  0  0  0  0  0  0  0  0  0
   -3.4950   23.9410  -28.8950 H   0  0  0  0  0  0  0  0  0  0  0  0
   -4.1020   24.0380  -27.3040 H   0  0  0  0  0  0  0  0  0  0  0  0
   -2.9344   24.3392  -25.6780 H   0  0  0  0  0  0  0  0  0  0  0  0
   -0.9090   22.9672  -25.1285 H   0  0  0  0  0  0  0  0  0  0  0  0
   -1.6694   22.4888  -26.6840 H   0  0  0  0  0  0  0  0  0  0  0  0
   -0.1699   23.4779  -26.6840 H   0  0  0  0  0  0  0  0  0  0  0  0
   -1.4403   25.3931  -24.2062 H   0  0  0  0  0  0  0  0  0  0  0  0
   -0.2092   25.6609  -25.4865 H   0  0  0  0  0  0  0  0  0  0  0  0
   -1.7282   26.6196  -25.4865 H   0  0  0  0  0  0  0  0  0  0  0  0
   -4.9575   20.0997  -32.2154 H   0  0  0  0  0  0  0  0  0  0  0  0
  1  2  1  0
  2  3  1  0
  2  4  1  0
  4  5  2  0
  5  6  1  0
  6  7  2  0
  7  8  1  0
  8  9  2  0
  9 10  1  0
 10 11  1  0
 10 12  2  0
  9 13  1  0
 13 14  1  0
 14 15  2  0
 14 16  1  0
 16 17  1  0
 17 18  1  0
 18 19  1  0
 19 20  2  0
 19 21  1  0
 21 22  1  0
 21 23  1  0
 23 24  1  0
 23 25  1  0
 13 26  1  0
 26 27  2  0
 27  4  1  0
 26  7  1  0
  1 28  1  0
  1 29  1  0
  1 30  1  0
  2 31  1  0
  3 32  1  0
  3 33  1  0
  3 34  1  0
  5 35  1  0
  6 36  1  0
  8 37  1  0
 11 38  1  0
 17 39  1  0
 17 40  1  0
 21 41  1  1
 22 42  1  0
 22 43  1  0
 22 44  1  0
 23 45  1  0
 24 46  1  0
 24 47  1  0
 24 48  1  0
 25 49  1  0
 25 50  1  0
 25 51  1  0
 27 52  1  0
M  CHG  2  11  -1  22   1
M  END
>  <UniqueID>  (40) 
39

>  <SMILES>  (40) 
CC(C)c1ccc2cc(C([NH-])=O)n(C(=O)OCOC(=O)[C@@H]([NH3+])C(C)C)c2c1

>  <Energy>  (40) 
76.83193560815829

>  <Genealogy>  (40) 
CC(C)c1ccc2cc(C([NH-])=O)n(C(=O)OCOC(=O)C([NH3+])C(C)C)c2c1 (protonated)
CC(C)c1ccc2cc(C([NH-])=O)n(C(=O)OCOC(=O)[C@@H]([NH3+])C(C)C)c2c1 (chirality)
CC(C)c1ccc2cc(C([NH-])=O)n(C(=O)OCOC(=O)[C@@H]([NH3+])C(C)C)c2c1 (3D coordinates assigned)
CC(C)c1ccc2cc(C([NH-])=O)n(C(=O)OCOC(=O)[C@@H]([NH3+])C(C)C)c2c1 (optimized conformer: 76.83193560815829 kcal/mol)

>  <smiles>  (40) 
CC(C)c1ccc2cc(C(N)=O)n(C(=O)OCOC(=O)C(N)C(C)C)c2c1

>  <score_type>  (40) 
oracle

>  <origin>  (40) 
adg

>  <m_score__min__energy>  (40) 
-10.49

>  <m_primary>  (40) 
energy

$$$$
40:0
     RDKit          3D

 46 47  0  0  0  0  0  0  0  0999 V2000
   -4.6330   16.7730  -34.6140 C   0  0  0  0  0  0  0  0  0  0  0  0
   -5.4030   15.6360  -34.0790 N   0  0  0  0  0  0  0  0  0  0  0  0
   -4.7330   15.0560  -32.9040 C   0  0  0  0  0  0  0  0  0  0  0  0
   -6.8100   15.9990  -33.7980 C   0  0  0  0  0  0  0  0  0  0  0  0
   -6.9640   17.3850  -33.3190 C   0  0  0  0  0  0  0  0  0  0  0  0
   -7.0830   18.5200  -32.9310 C   0  0  0  0  0  0  0  0  0  0  0  0
   -7.2160   19.8730  -32.4620 C   0  0  0  0  0  0  0  0  0  0  0  0
   -8.4870   20.4930  -32.4460 C   0  0  0  0  0  0  0  0  0  0  0  0
   -8.6250   21.8200  -32.0020 C   0  0  0  0  0  0  0  0  0  0  0  0
   -7.4790   22.4880  -31.5770 C   0  0  0  0  0  0  0  0  0  0  0  0
   -7.3190   23.7830  -31.1370 C   0  0  0  0  0  0  0  0  0  0  0  0
   -5.9560   23.9180  -30.8740 C   0  0  0  0  0  0  0  0  0  0  0  0
   -5.3510   25.1450  -30.3150 C   0  0  0  0  0  0  0  0  0  0  0  0
   -4.1140   25.6470  -30.8160 N   0  0  0  0  0  0  0  0  0  0  0  0
   -5.9110   25.7360  -29.3540 O   0  0  0  0  0  0  0  0  0  0  0  0
   -5.3010   22.7530  -31.1420 N   0  0  0  0  0  0  0  0  0  0  0  0
   -3.8880   22.5090  -31.1040 C   0  0  0  0  0  0  0  0  0  0  0  0
   -3.0850   23.4170  -31.4540 O   0  0  0  0  0  0  0  0  0  0  0  0
   -3.4110   21.2760  -30.6420 O   0  0  0  0  0  0  0  0  0  0  0  0
   -2.1630   21.1200  -29.9690 C   0  0  0  0  0  0  0  0  0  0  0  0
   -2.0720   22.0610  -28.7690 C   0  0  0  0  0  0  0  0  0  0  0  0
   -1.2160   23.1330  -29.0840 O   0  0  0  0  0  0  0  0  0  0  0  0
   -1.8660   24.5600  -28.4140 P   0  0  1  0  0  0  0  0  0  0  0  0
   -1.3820   24.7370  -26.9920 O   0  0  0  0  0  0  0  0  0  0  0  0
   -1.4050   25.9010  -29.3400 O   0  0  0  0  0  0  0  0  0  0  0  0
   -3.5530   24.4470  -28.4110 O   0  0  0  0  0  0  0  0  0  0  0  0
   -6.2450   21.8890  -31.5710 C   0  0  0  0  0  0  0  0  0  0  0  0
   -6.0760   20.5760  -32.0250 C   0  0  0  0  0  0  0  0  0  0  0  0
   -4.2303   17.3676  -33.7808 H   0  0  0  0  0  0  0  0  0  0  0  0
   -3.8033   16.3964  -35.2303 H   0  0  0  0  0  0  0  0  0  0  0  0
   -5.2906   17.4036  -35.2303 H   0  0  0  0  0  0  0  0  0  0  0  0
   -5.1921   15.4534  -31.9868 H   0  0  0  0  0  0  0  0  0  0  0  0
   -4.8409   13.9615  -32.9235 H   0  0  0  0  0  0  0  0  0  0  0  0
   -3.6652   15.3196  -32.9235 H   0  0  0  0  0  0  0  0  0  0  0  0
   -7.3936   15.8811  -34.7229 H   0  0  0  0  0  0  0  0  0  0  0  0
   -7.1676   15.3335  -32.9985 H   0  0  0  0  0  0  0  0  0  0  0  0
   -9.3725   19.9340  -32.7828 H   0  0  0  0  0  0  0  0  0  0  0  0
   -9.6072   22.3151  -31.9906 H   0  0  0  0  0  0  0  0  0  0  0  0
   -8.1001   24.5483  -31.0182 H   0  0  0  0  0  0  0  0  0  0  0  0
   -3.2030   25.3120  -30.4310 H   0  0  0  0  0  0  0  0  0  0  0  0
   -2.0688   20.0810  -29.6204 H   0  0  0  0  0  0  0  0  0  0  0  0
   -1.3515   21.3638  -30.6704 H   0  0  0  0  0  0  0  0  0  0  0  0
   -3.0731   22.4482  -28.5286 H   0  0  0  0  0  0  0  0  0  0  0  0
   -1.6751   21.5146  -27.9008 H   0  0  0  0  0  0  0  0  0  0  0  0
   -3.8660   25.3400  -28.7040 H   0  0  0  0  0  0  0  0  0  0  0  0
   -5.0814   20.1063  -32.0402 H   0  0  0  0  0  0  0  0  0  0  0  0
  1  2  1  0
  2  3  1  0
  2  4  1  0
  4  5  1  0
  5  6  3  0
  6  7  1  0
  7  8  2  0
  8  9  1  0
  9 10  2  0
 10 11  1  0
 11 12  2  0
 12 13  1  0
 13 14  1  0
 13 15  2  0
 12 16  1  0
 16 17  1  0
 17 18  2  0
 17 19  1  0
 19 20  1  0
 20 21  1  0
 21 22  1  0
 22 23  1  0
 23 24  2  0
 23 25  1  6
 23 26  1  0
 16 27  1  0
 27 28  2  0
 28  7  1  0
 27 10  1  0
  1 29  1  0
  1 30  1  0
  1 31  1  0
  3 32  1  0
  3 33  1  0
  3 34  1  0
  4 35  1  0
  4 36  1  0
  8 37  1  0
  9 38  1  0
 11 39  1  0
 14 40  1  0
 20 41  1  0
 20 42  1  0
 21 43  1  0
 21 44  1  0
 26 45  1  0
 28 46  1  0
M  CHG  2  14  -1  25  -1
M  END
>  <UniqueID>  (41) 
40

>  <SMILES>  (41) 
CN(C)CC#Cc1ccc2cc(C([NH-])=O)n(C(=O)OCCO[P@@](=O)([O-])O)c2c1

>  <Energy>  (41) 
76.40578765652167

>  <Genealogy>  (41) 
CN(C)CC#Cc1ccc2cc(C([NH-])=O)n(C(=O)OCCOP(=O)([O-])O)c2c1 (protonated)
CN(C)CC#Cc1ccc2cc(C([NH-])=O)n(C(=O)OCCO[P@@](=O)([O-])O)c2c1 (chirality)
CN(C)CC#Cc1ccc2cc(C([NH-])=O)n(C(=O)OCCO[P@@](=O)([O-])O)c2c1 (3D coordinates assigned)
CN(C)CC#Cc1ccc2cc(C([NH-])=O)n(C(=O)OCCO[P@@](=O)([O-])O)c2c1 (optimized conformer: 76.40578765652167 kcal/mol)

>  <smiles>  (41) 
CN(C)CC#Cc1ccc2cc(C(N)=O)n(C(=O)OCCOP(=O)(O)O)c2c1

>  <score_type>  (41) 
oracle

>  <origin>  (41) 
adg

>  <m_score__min__energy>  (41) 
-13.25

>  <m_primary>  (41) 
energy

$$$$
41:0
     RDKit          3D

 35 36  0  0  0  0  0  0  0  0999 V2000
   -3.7560   23.3660  -29.4740 C   0  0  0  0  0  0  0  0  0  0  0  0
   -4.2590   23.9470  -30.5250 C   0  0  0  0  0  0  0  0  0  0  0  0
   -3.7320   25.2820  -30.7210 O   0  0  0  0  0  0  0  0  0  0  0  0
   -5.2120   23.5350  -31.4940 C   0  0  0  0  0  0  0  0  0  0  0  0
   -5.9940   24.5170  -31.9010 O   0  0  0  0  0  0  0  0  0  0  0  0
   -5.4990   22.3150  -32.1230 N   0  0  0  0  0  0  0  0  0  0  0  0
   -6.6050   21.5840  -32.2510 C   0  0  0  0  0  0  0  0  0  0  0  0
   -8.0010   21.9900  -32.1050 C   0  0  0  0  0  0  0  0  0  0  0  0
   -8.3380   23.3890  -31.9690 N   0  0  0  0  0  0  0  0  0  0  0  0
   -8.9780   21.2060  -32.0860 O   0  0  0  0  0  0  0  0  0  0  0  0
   -6.3250   20.3110  -32.7680 C   0  0  0  0  0  0  0  0  0  0  0  0
   -4.9960   20.2790  -32.9670 C   0  0  0  0  0  0  0  0  0  0  0  0
   -4.2000   19.2510  -33.4650 C   0  0  0  0  0  0  0  0  0  0  0  0
   -2.8440   19.4170  -33.5890 C   0  0  0  0  0  0  0  0  0  0  0  0
   -2.3130   20.6260  -33.2060 C   0  0  0  0  0  0  0  0  0  0  0  0
   -0.8900   20.8380  -33.3230 N   0  0  0  0  0  0  0  0  0  0  0  0
   -0.3000   21.0210  -34.6230 C   0  0  0  0  0  0  0  0  0  0  0  0
   -0.0730   20.8630  -32.1250 C   0  0  0  0  0  0  0  0  0  0  0  0
   -3.1160   21.6490  -32.7090 C   0  0  0  0  0  0  0  0  0  0  0  0
   -4.4940   21.4940  -32.5770 C   0  0  0  0  0  0  0  0  0  0  0  0
   -4.0693   22.3461  -29.2065 H   0  0  0  0  0  0  0  0  0  0  0  0
   -3.0177   23.8951  -28.8535 H   0  0  0  0  0  0  0  0  0  0  0  0
   -4.1030   25.6790  -31.5920 H   0  0  0  0  0  0  0  0  0  0  0  0
   -8.0040   24.1030  -32.6560 H   0  0  0  0  0  0  0  0  0  0  0  0
   -8.9310   23.6030  -31.1380 H   0  0  0  0  0  0  0  0  0  0  0  0
   -7.0451   19.5042  -32.9694 H   0  0  0  0  0  0  0  0  0  0  0  0
   -4.6623   18.2979  -33.7615 H   0  0  0  0  0  0  0  0  0  0  0  0
   -2.2047   18.6121  -33.9806 H   0  0  0  0  0  0  0  0  0  0  0  0
    0.7450   21.3451  -34.5091 H   0  0  0  0  0  0  0  0  0  0  0  0
   -0.3310   20.0710  -35.1767 H   0  0  0  0  0  0  0  0  0  0  0  0
   -0.8631   21.7867  -35.1767 H   0  0  0  0  0  0  0  0  0  0  0  0
   -0.7227   20.8431  -31.2376 H   0  0  0  0  0  0  0  0  0  0  0  0
    0.5892   19.9847  -32.1144 H   0  0  0  0  0  0  0  0  0  0  0  0
    0.5342   21.7801  -32.1144 H   0  0  0  0  0  0  0  0  0  0  0  0
   -2.6516   22.6015  -32.4138 H   0  0  0  0  0  0  0  0  0  0  0  0
  1  2  2  0
  2  3  1  0
  2  4  1  0
  4  5  2  0
  4  6  1  0
  6  7  1  0
  7  8  1  0
  8  9  1  0
  8 10  2  0
  7 11  2  0
 11 12  1  0
 12 13  2  0
 13 14  1  0
 14 15  2  0
 15 16  1  0
 16 17  1  0
 16 18  1  0
 15 19  1  0
 19 20  2  0
 20  6  1  0
 20 12  1  0
  1 21  1  0
  1 22  1  0
  3 23  1  0
  9 24  1  0
  9 25  1  0
 11 26  1  0
 13 27  1  0
 14 28  1  0
 17 29  1  0
 17 30  1  0
 17 31  1  0
 18 32  1  0
 18 33  1  0
 18 34  1  0
 19 35  1  0
M  END
>  <smiles>  (42) 
C=C(O)C(=O)n1c(C(N)=O)cc2ccc(N(C)C)cc21

>  <score_type>  (42) 
oracle

>  <origin>  (42) 
adg

>  <m_score__min__energy>  (42) 
-8.3900000000000006

>  <m_primary>  (42) 
energy

$$$$
42:0
     RDKit          3D

 51 52  0  0  0  0  0  0  0  0999 V2000
   -4.6050   15.6180  -32.3920 C   0  0  0  0  0  0  0  0  0  0  0  0
   -5.7440   16.1220  -32.8780 C   0  0  0  0  0  0  0  0  0  0  0  0
   -6.3490   17.3880  -32.3310 C   0  0  0  0  0  0  0  0  0  0  0  0
   -6.5990   18.4380  -33.4350 C   0  0  2  0  0  0  0  0  0  0  0  0
   -5.4820   18.4780  -34.4460 C   0  0  0  0  0  0  0  0  0  0  0  0
   -5.7440   18.3850  -35.6740 O   0  0  0  0  0  0  0  0  0  0  0  0
   -4.1650   18.6670  -34.0440 O   0  0  0  0  0  0  0  0  0  0  0  0
   -6.8090   19.8150  -32.8360 C   0  0  0  0  0  0  0  0  0  0  0  0
   -8.1180   20.3100  -32.5910 C   0  0  0  0  0  0  0  0  0  0  0  0
   -8.3110   21.5890  -32.0420 C   0  0  0  0  0  0  0  0  0  0  0  0
   -7.1850   22.3440  -31.7340 C   0  0  0  0  0  0  0  0  0  0  0  0
   -7.0880   23.6060  -31.1960 C   0  0  0  0  0  0  0  0  0  0  0  0
   -5.7230   23.8570  -31.0850 C   0  0  0  0  0  0  0  0  0  0  0  0
   -5.1770   25.0680  -30.4390 C   0  0  0  0  0  0  0  0  0  0  0  0
   -3.9290   25.6190  -30.8500 N   0  0  0  0  0  0  0  0  0  0  0  0
   -5.7910   25.5880  -29.4690 O   0  0  0  0  0  0  0  0  0  0  0  0
   -5.0000   22.8000  -31.5560 N   0  0  0  0  0  0  0  0  0  0  0  0
   -3.5700   22.6840  -31.6620 C   0  0  0  0  0  0  0  0  0  0  0  0
   -3.0510   22.1520  -32.6800 O   0  0  0  0  0  0  0  0  0  0  0  0
   -2.7620   23.1410  -30.6190 O   0  0  0  0  0  0  0  0  0  0  0  0
   -2.3300   22.3160  -29.5440 C   0  0  0  0  0  0  0  0  0  0  0  0
   -1.5530   23.1480  -28.5180 C   0  0  0  0  0  0  0  0  0  0  0  0
   -0.8550   24.3660  -29.1460 C   0  0  0  0  0  0  0  0  0  0  0  0
   -1.6040   25.5240  -28.8230 O   0  0  0  0  0  0  0  0  0  0  0  0
   -1.9880   25.4930  -27.4660 C   0  0  0  0  0  0  0  0  0  0  0  0
    0.4390   24.4910  -28.5770 O   0  0  0  0  0  0  0  0  0  0  0  0
    0.6810   23.4530  -27.6520 C   0  0  0  0  0  0  0  0  0  0  0  0
   -5.9120   21.8790  -31.9440 C   0  0  0  0  0  0  0  0  0  0  0  0
   -5.6910   20.6200  -32.5170 C   0  0  0  0  0  0  0  0  0  0  0  0
   -4.1895   14.6910  -32.8140 H   0  0  0  0  0  0  0  0  0  0  0  0
   -4.0834   16.1303  -31.5701 H   0  0  0  0  0  0  0  0  0  0  0  0
   -6.2532   15.5975  -33.7000 H   0  0  0  0  0  0  0  0  0  0  0  0
   -7.3079   17.1438  -31.8504 H   0  0  0  0  0  0  0  0  0  0  0  0
   -5.6385   17.8182  -31.6098 H   0  0  0  0  0  0  0  0  0  0  0  0
   -7.5153   18.1328  -33.9615 H   0  0  0  0  0  0  0  0  0  0  0  0
   -8.9901   19.6851  -32.8338 H   0  0  0  0  0  0  0  0  0  0  0  0
   -9.3227   21.9811  -31.8613 H   0  0  0  0  0  0  0  0  0  0  0  0
   -7.9139   24.2753  -30.9133 H   0  0  0  0  0  0  0  0  0  0  0  0
   -3.0310   25.2880  -30.4320 H   0  0  0  0  0  0  0  0  0  0  0  0
   -3.2071   21.8650  -29.0569 H   0  0  0  0  0  0  0  0  0  0  0  0
   -1.6727   21.5272  -29.9385 H   0  0  0  0  0  0  0  0  0  0  0  0
   -2.2548   23.5027  -27.7488 H   0  0  0  0  0  0  0  0  0  0  0  0
   -0.7720   22.5022  -28.0902 H   0  0  0  0  0  0  0  0  0  0  0  0
   -0.7805   24.2465  -30.2370 H   0  0  0  0  0  0  0  0  0  0  0  0
   -1.0934   25.5652  -26.8300 H   0  0  0  0  0  0  0  0  0  0  0  0
   -2.6573   26.3400  -27.2549 H   0  0  0  0  0  0  0  0  0  0  0  0
   -2.5128   24.5496  -27.2549 H   0  0  0  0  0  0  0  0  0  0  0  0
    0.5895   23.8453  -26.6284 H   0  0  0  0  0  0  0  0  0  0  0  0
   -0.0536   22.6484  -27.8033 H   0  0  0  0  0  0  0  0  0  0  0  0
    1.6957   23.0562  -27.8033 H   0  0  0  0  0  0  0  0  0  0  0  0
   -4.6689   20.2649  -32.7147 H   0  0  0  0  0  0  0  0  0  0  0  0
  1  2  2  0
  2  3  1  0
  3  4  1  0
  4  5  1  0
  5  6  2  0
  5  7  1  0
  4  8  1  0
  8  9  2  0
  9 10  1  0
 10 11  2  0
 11 12  1  0
 12 13  2  0
 13 14  1  0
 14 15  1  0
 14 16  2  0
 13 17  1  0
 17 18  1  0
 18 19  2  0
 18 20  1  0
 20 21  1  0
 21 22  1  0
 22 23  1  0
 23 24  1  0
 24 25  1  0
 23 26  1  0
 26 27  1  0
 17 28  1  0
 28 29  2  0
 29  8  1  0
 28 11  1  0
  1 30  1  0
  1 31  1  0
  2 32  1  0
  3 33  1  0
  3 34  1  0
  4 35  1  6
  9 36  1  0
 10 37  1  0
 12 38  1  0
 15 39  1  0
 21 40  1  0
 21 41  1  0
 22 42  1  0
 22 43  1  0
 23 44  1  0
 25 45  1  0
 25 46  1  0
 25 47  1  0
 27 48  1  0
 27 49  1  0
 27 50  1  0
 29 51  1  0
M  CHG  2   7  -1  15  -1
M  END
>  <UniqueID>  (43) 
41

>  <SMILES>  (43) 
C=CC[C@H](C(=O)[O-])c1ccc2cc(C([NH-])=O)n(C(=O)OCCC(OC)OC)c2c1

>  <Energy>  (43) 
83.85511745000086

>  <Genealogy>  (43) 
C=CCC(C(=O)[O-])c1ccc2cc(C([NH-])=O)n(C(=O)OCCC(OC)OC)c2c1 (protonated)
C=CC[C@H](C(=O)[O-])c1ccc2cc(C([NH-])=O)n(C(=O)OCCC(OC)OC)c2c1 (chirality)
C=CC[C@H](C(=O)[O-])c1ccc2cc(C([NH-])=O)n(C(=O)OCCC(OC)OC)c2c1 (3D coordinates assigned)
C=CC[C@H](C(=O)[O-])c1ccc2cc(C([NH-])=O)n(C(=O)OCCC(OC)OC)c2c1 (optimized conformer: 83.85511745000086 kcal/mol)

>  <smiles>  (43) 
C=CCC(C(=O)O)c1ccc2cc(C(N)=O)n(C(=O)OCCC(OC)OC)c2c1

>  <score_type>  (43) 
oracle

>  <origin>  (43) 
adg

>  <m_score__min__energy>  (43) 
-11.210000000000001

>  <m_primary>  (43) 
energy

$$$$
43:0
     RDKit          3D

 49 50  0  0  0  0  0  0  0  0999 V2000
    0.3700   24.8050  -36.1080 C   0  0  0  0  0  0  0  0  0  0  0  0
    1.5770   23.8690  -36.1470 C   0  0  0  0  0  0  0  0  0  0  0  0
    2.8600   24.6350  -35.8100 C   0  0  0  0  0  0  0  0  0  0  0  0
    1.3720   22.8100  -35.2110 O   0  0  0  0  0  0  0  0  0  0  0  0
    0.2840   21.9330  -35.2660 C   0  0  0  0  0  0  0  0  0  0  0  0
    0.1530   21.1380  -36.2370 O   0  0  0  0  0  0  0  0  0  0  0  0
   -0.6540   21.9520  -34.2290 O   0  0  0  0  0  0  0  0  0  0  0  0
   -1.3550   20.7910  -33.7800 C   0  0  0  0  0  0  0  0  0  0  0  0
   -2.0220   21.0480  -32.4320 C   0  0  0  0  0  0  0  0  0  0  0  0
   -2.9820   22.0910  -32.5530 O   0  0  0  0  0  0  0  0  0  0  0  0
   -3.5730   22.7170  -31.4520 C   0  0  0  0  0  0  0  0  0  0  0  0
   -2.8580   23.1360  -30.5010 O   0  0  0  0  0  0  0  0  0  0  0  0
   -5.0010   22.8610  -31.3990 N   0  0  0  0  0  0  0  0  0  0  0  0
   -5.7210   23.9100  -30.9080 C   0  0  0  0  0  0  0  0  0  0  0  0
   -5.1730   25.1990  -30.4360 C   0  0  0  0  0  0  0  0  0  0  0  0
   -3.8800   25.6400  -30.8420 N   0  0  0  0  0  0  0  0  0  0  0  0
   -5.8780   25.9450  -29.7060 O   0  0  0  0  0  0  0  0  0  0  0  0
   -7.0860   23.6480  -30.9970 C   0  0  0  0  0  0  0  0  0  0  0  0
   -7.1820   22.4040  -31.5760 C   0  0  0  0  0  0  0  0  0  0  0  0
   -8.3060   21.6580  -31.9090 C   0  0  0  0  0  0  0  0  0  0  0  0
   -8.1120   20.3960  -32.4930 C   0  0  0  0  0  0  0  0  0  0  0  0
   -6.8030   19.8860  -32.7270 C   0  0  0  0  0  0  0  0  0  0  0  0
   -6.6120   18.5810  -33.3320 N   0  0  0  0  0  0  0  0  0  0  0  0
   -5.7920   18.4330  -34.5410 C   0  0  0  0  0  0  0  0  0  0  0  0
   -7.2200   17.3840  -32.7370 C   0  0  0  0  0  0  0  0  0  0  0  0
   -5.6870   20.6830  -32.3590 C   0  0  0  0  0  0  0  0  0  0  0  0
   -5.9120   21.9490  -31.8060 C   0  0  0  0  0  0  0  0  0  0  0  0
    0.1013   25.0134  -35.0619 H   0  0  0  0  0  0  0  0  0  0  0  0
    0.6203   25.7475  -36.6170 H   0  0  0  0  0  0  0  0  0  0  0  0
   -0.4805   24.3280  -36.6170 H   0  0  0  0  0  0  0  0  0  0  0  0
    1.6848   23.4520  -37.1592 H   0  0  0  0  0  0  0  0  0  0  0  0
    2.9712   24.7014  -34.7177 H   0  0  0  0  0  0  0  0  0  0  0  0
    3.7255   24.1057  -36.2352 H   0  0  0  0  0  0  0  0  0  0  0  0
    2.8047   25.6480  -36.2352 H   0  0  0  0  0  0  0  0  0  0  0  0
   -2.1257   20.5268  -34.5191 H   0  0  0  0  0  0  0  0  0  0  0  0
   -0.6353   19.9670  -33.6658 H   0  0  0  0  0  0  0  0  0  0  0  0
   -2.5234   20.1294  -32.0931 H   0  0  0  0  0  0  0  0  0  0  0  0
   -1.2554   21.3469  -31.7019 H   0  0  0  0  0  0  0  0  0  0  0  0
   -3.0190   25.2830  -30.3720 H   0  0  0  0  0  0  0  0  0  0  0  0
   -7.9121   24.2981  -30.6730 H   0  0  0  0  0  0  0  0  0  0  0  0
   -9.3183   22.0449  -31.7206 H   0  0  0  0  0  0  0  0  0  0  0  0
   -8.9862   19.7907  -32.7747 H   0  0  0  0  0  0  0  0  0  0  0  0
   -4.7469   18.2444  -34.2544 H   0  0  0  0  0  0  0  0  0  0  0  0
   -6.1669   17.5880  -35.1372 H   0  0  0  0  0  0  0  0  0  0  0  0
   -5.8479   19.3557  -35.1372 H   0  0  0  0  0  0  0  0  0  0  0  0
   -7.1815   17.4598  -31.6403 H   0  0  0  0  0  0  0  0  0  0  0  0
   -8.2677   17.3045  -33.0625 H   0  0  0  0  0  0  0  0  0  0  0  0
   -6.6662   16.4911  -33.0625 H   0  0  0  0  0  0  0  0  0  0  0  0
   -4.6621   20.3115  -32.5061 H   0  0  0  0  0  0  0  0  0  0  0  0
  1  2  1  0
  2  3  1  0
  2  4  1  0
  4  5  1  0
  5  6  2  0
  5  7  1  0
  7  8  1  0
  8  9  1  0
  9 10  1  0
 10 11  1  0
 11 12  2  0
 11 13  1  0
 13 14  1  0
 14 15  1  0
 15 16  1  0
 15 17  2  0
 14 18  2  0
 18 19  1  0
 19 20  2  0
 20 21  1  0
 21 22  2  0
 22 23  1  0
 23 24  1  0
 23 25  1  0
 22 26  1  0
 26 27  2  0
 27 13  1  0
 27 19  1  0
  1 28  1  0
  1 29  1  0
  1 30  1  0
  2 31  1  0
  3 32  1  0
  3 33  1  0
  3 34  1  0
  8 35  1  0
  8 36  1  0
  9 37  1  0
  9 38  1  0
 16 39  1  0
 18 40  1  0
 20 41  1  0
 21 42  1  0
 24 43  1  0
 24 44  1  0
 24 45  1  0
 25 46  1  0
 25 47  1  0
 25 48  1  0
 26 49  1  0
M  CHG  1  16  -1
M  END
>  <UniqueID>  (44) 
42

>  <SMILES>  (44) 
CC(C)OC(=O)OCCOC(=O)n1c(C([NH-])=O)cc2ccc(N(C)C)cc21

>  <Energy>  (44) 
76.76865585761355

>  <Genealogy>  (44) 
CC(C)OC(=O)OCCOC(=O)n1c(C([NH-])=O)cc2ccc(N(C)C)cc21 (protonated)
CC(C)OC(=O)OCCOC(=O)n1c(C([NH-])=O)cc2ccc(N(C)C)cc21 (3D coordinates assigned)
CC(C)OC(=O)OCCOC(=O)n1c(C([NH-])=O)cc2ccc(N(C)C)cc21 (optimized conformer: 76.76865585761355 kcal/mol)

>  <smiles>  (44) 
CC(C)OC(=O)OCCOC(=O)n1c(C(N)=O)cc2ccc(N(C)C)cc21

>  <score_type>  (44) 
oracle

>  <origin>  (44) 
adg

>  <m_score__min__energy>  (44) 
-10.380000000000001

>  <m_primary>  (44) 
energy

$$$$
44:0
     RDKit          3D

 35 36  0  0  0  0  0  0  0  0999 V2000
   -0.8760   23.0580  -27.6010 C   0  0  0  0  0  0  0  0  0  0  0  0
   -0.7980   23.0680  -29.1290 C   0  0  1  0  0  0  0  0  0  0  0  0
   -0.7990   21.7530  -29.6210 O   0  0  0  0  0  0  0  0  0  0  0  0
   -1.9650   23.8140  -29.6990 C   0  0  0  0  0  0  0  0  0  0  0  0
   -2.1210   25.0360  -29.4260 O   0  0  0  0  0  0  0  0  0  0  0  0
   -2.8480   23.1430  -30.5560 O   0  0  0  0  0  0  0  0  0  0  0  0
   -3.9490   22.3800  -30.1440 C   0  0  0  0  0  0  0  0  0  0  0  0
   -3.8320   21.5270  -29.2220 O   0  0  0  0  0  0  0  0  0  0  0  0
   -5.2230   22.5780  -30.7800 N   0  0  0  0  0  0  0  0  0  0  0  0
   -5.9590   23.7250  -30.8110 C   0  0  0  0  0  0  0  0  0  0  0  0
   -5.5140   25.0530  -30.3390 C   0  0  0  0  0  0  0  0  0  0  0  0
   -4.1840   25.5170  -30.5750 N   0  0  0  0  0  0  0  0  0  0  0  0
   -6.3390   25.8140  -29.7680 O   0  0  0  0  0  0  0  0  0  0  0  0
   -7.2000   23.4990  -31.3970 C   0  0  0  0  0  0  0  0  0  0  0  0
   -7.2000   22.1680  -31.7420 C   0  0  0  0  0  0  0  0  0  0  0  0
   -8.1990   21.4000  -32.3330 C   0  0  0  0  0  0  0  0  0  0  0  0
   -7.9490   20.0330  -32.5320 C   0  0  0  0  0  0  0  0  0  0  0  0
   -6.7100   19.4590  -32.1470 C   0  0  0  0  0  0  0  0  0  0  0  0
   -6.4780   17.9770  -32.3080 C   0  0  0  0  0  0  0  0  0  0  0  0
   -6.1600   17.3960  -31.0920 F   0  0  0  0  0  0  0  0  0  0  0  0
   -7.6270   17.3880  -32.8010 F   0  0  0  0  0  0  0  0  0  0  0  0
   -5.4370   17.7370  -33.1880 F   0  0  0  0  0  0  0  0  0  0  0  0
   -5.7290   20.2680  -31.5260 C   0  0  0  0  0  0  0  0  0  0  0  0
   -5.9980   21.6320  -31.3590 C   0  0  0  0  0  0  0  0  0  0  0  0
    0.1326   23.1873  -27.1815 H   0  0  0  0  0  0  0  0  0  0  0  0
   -1.5226   23.8806  -27.2615 H   0  0  0  0  0  0  0  0  0  0  0  0
   -1.2941   22.0989  -27.2615 H   0  0  0  0  0  0  0  0  0  0  0  0
    0.1348   23.5676  -29.4295 H   0  0  0  0  0  0  0  0  0  0  0  0
   -1.7480   21.5030  -29.7660 H   0  0  0  0  0  0  0  0  0  0  0  0
   -3.5300   24.9890  -31.1950 H   0  0  0  0  0  0  0  0  0  0  0  0
   -3.8750   26.4390  -30.1940 H   0  0  0  0  0  0  0  0  0  0  0  0
   -8.0084   24.2288  -31.5514 H   0  0  0  0  0  0  0  0  0  0  0  0
   -9.1559   21.8507  -32.6351 H   0  0  0  0  0  0  0  0  0  0  0  0
   -8.7223   19.3999  -32.9915 H   0  0  0  0  0  0  0  0  0  0  0  0
   -4.7776   19.8356  -31.1826 H   0  0  0  0  0  0  0  0  0  0  0  0
  1  2  1  0
  2  3  1  0
  2  4  1  0
  4  5  2  0
  4  6  1  0
  6  7  1  0
  7  8  2  0
  7  9  1  0
  9 10  1  0
 10 11  1  0
 11 12  1  0
 11 13  2  0
 10 14  2  0
 14 15  1  0
 15 16  2  0
 16 17  1  0
 17 18  2  0
 18 19  1  0
 19 20  1  0
 19 21  1  0
 19 22  1  0
 18 23  1  0
 23 24  2  0
 24  9  1  0
 24 15  1  0
  1 25  1  0
  1 26  1  0
  1 27  1  0
  2 28  1  1
  3 29  1  0
 12 30  1  0
 12 31  1  0
 14 32  1  0
 16 33  1  0
 17 34  1  0
 23 35  1  0
M  END
>  <UniqueID>  (45) 
43

>  <SMILES>  (45) 
C[C@@H](O)C(=O)OC(=O)n1c(C(N)=O)cc2ccc(C(F)(F)F)cc21

>  <Energy>  (45) 
72.68699539458065

>  <Genealogy>  (45) 
C[C@@H](O)C(=O)OC(=O)n1c(C(N)=O)cc2ccc(C(F)(F)F)cc21 (chirality)
C[C@@H](O)C(=O)OC(=O)n1c(C(N)=O)cc2ccc(C(F)(F)F)cc21 (3D coordinates assigned)
C[C@@H](O)C(=O)OC(=O)n1c(C(N)=O)cc2ccc(C(F)(F)F)cc21 (optimized conformer: 72.68699539458065 kcal/mol)

>  <smiles>  (45) 
CC(O)C(=O)OC(=O)n1c(C(N)=O)cc2ccc(C(F)(F)F)cc21

>  <score_type>  (45) 
oracle

>  <origin>  (45) 
adg

>  <m_score__min__energy>  (45) 
-8.7599999999999998

>  <m_primary>  (45) 
energy

$$$$
45:0
     RDKit          3D

 37 38  0  0  0  0  0  0  0  0999 V2000
   -0.6330   22.0870  -30.8690 C   0  0  0  0  0  0  0  0  0  0  0  0
   -1.6830   22.8420  -30.1600 N   0  0  2  0  0  0  0  0  0  0  0  0
   -1.2920   23.2000  -28.7770 C   0  0  0  0  0  0  0  0  0  0  0  0
   -0.6960   24.5780  -28.6520 C   0  0  0  0  0  0  0  0  0  0  0  0
    0.2920   24.7740  -27.8970 O   0  0  0  0  0  0  0  0  0  0  0  0
   -1.2360   25.6410  -29.3630 O   0  0  0  0  0  0  0  0  0  0  0  0
   -2.9490   22.1360  -30.1850 C   0  0  0  0  0  0  0  0  0  0  0  0
   -3.3340   21.4860  -29.1730 O   0  0  0  0  0  0  0  0  0  0  0  0
   -3.8310   22.1870  -31.3730 C   0  0  0  0  0  0  0  0  0  0  0  0
   -3.3830   21.8830  -32.5110 O   0  0  0  0  0  0  0  0  0  0  0  0
   -5.2060   22.5790  -31.2400 N   0  0  0  0  0  0  0  0  0  0  0  0
   -5.6920   23.8080  -30.9160 C   0  0  0  0  0  0  0  0  0  0  0  0
   -4.8830   25.0250  -30.7010 C   0  0  0  0  0  0  0  0  0  0  0  0
   -3.5270   24.9120  -30.2720 N   0  0  0  0  0  0  0  0  0  0  0  0
   -5.3800   26.1690  -30.8790 O   0  0  0  0  0  0  0  0  0  0  0  0
   -7.0850   23.7790  -30.8560 C   0  0  0  0  0  0  0  0  0  0  0  0
   -7.4350   22.4790  -31.1500 C   0  0  0  0  0  0  0  0  0  0  0  0
   -8.6900   21.8830  -31.2310 C   0  0  0  0  0  0  0  0  0  0  0  0
   -8.7490   20.5130  -31.5390 C   0  0  0  0  0  0  0  0  0  0  0  0
   -7.5610   19.7600  -31.7330 C   0  0  0  0  0  0  0  0  0  0  0  0
   -7.6360   18.3000  -32.1030 C   0  0  0  0  0  0  0  0  0  0  0  0
   -6.8210   17.5440  -31.2790 F   0  0  0  0  0  0  0  0  0  0  0  0
   -7.2290   18.1060  -33.4110 F   0  0  0  0  0  0  0  0  0  0  0  0
   -8.9420   17.8640  -31.9680 F   0  0  0  0  0  0  0  0  0  0  0  0
   -6.3070   20.4090  -31.6620 C   0  0  0  0  0  0  0  0  0  0  0  0
   -6.2820   21.7760  -31.3730 C   0  0  0  0  0  0  0  0  0  0  0  0
    0.0328   21.6082  -30.1359 H   0  0  0  0  0  0  0  0  0  0  0  0
   -1.0987   21.3156  -31.5000 H   0  0  0  0  0  0  0  0  0  0  0  0
   -0.0500   22.7740  -31.5000 H   0  0  0  0  0  0  0  0  0  0  0  0
   -1.7880   23.7420  -30.6850 H   0  0  0  0  0  0  0  0  0  0  0  0
   -2.1870   23.1499  -28.1394 H   0  0  0  0  0  0  0  0  0  0  0  0
   -0.5150   22.4852  -28.4681 H   0  0  0  0  0  0  0  0  0  0  0  0
   -2.7480   25.3060  -30.8450 H   0  0  0  0  0  0  0  0  0  0  0  0
   -7.7604   24.6155  -30.6235 H   0  0  0  0  0  0  0  0  0  0  0  0
   -9.6070   22.4659  -31.0594 H   0  0  0  0  0  0  0  0  0  0  0  0
   -9.7271   20.0182  -31.6309 H   0  0  0  0  0  0  0  0  0  0  0  0
   -5.3738   19.8515  -31.8301 H   0  0  0  0  0  0  0  0  0  0  0  0
  1  2  1  0
  2  3  1  0
  3  4  1  0
  4  5  2  0
  4  6  1  0
  2  7  1  0
  7  8  2  0
  7  9  1  0
  9 10  2  0
  9 11  1  0
 11 12  1  0
 12 13  1  0
 13 14  1  0
 13 15  2  0
 12 16  2  0
 16 17  1  0
 17 18  2  0
 18 19  1  0
 19 20  2  0
 20 21  1  0
 21 22  1  0
 21 23  1  0
 21 24  1  0
 20 25  1  0
 25 26  2  0
 26 11  1  0
 26 17  1  0
  1 27  1  0
  1 28  1  0
  1 29  1  0
  2 30  1  6
  3 31  1  0
  3 32  1  0
 14 33  1  0
 16 34  1  0
 18 35  1  0
 19 36  1  0
 25 37  1  0
M  CHG  3   2   1   6  -1  14  -1
M  END
>  <UniqueID>  (46) 
44

>  <SMILES>  (46) 
C[N@H+](CC(=O)[O-])C(=O)C(=O)n1c(C([NH-])=O)cc2ccc(C(F)(F)F)cc21

>  <Energy>  (46) 
80.63898935706253

>  <Genealogy>  (46) 
C[NH+](CC(=O)[O-])C(=O)C(=O)n1c(C([NH-])=O)cc2ccc(C(F)(F)F)cc21 (protonated)
C[N@H+](CC(=O)[O-])C(=O)C(=O)n1c(C([NH-])=O)cc2ccc(C(F)(F)F)cc21 (chirality)
C[N@H+](CC(=O)[O-])C(=O)C(=O)n1c(C([NH-])=O)cc2ccc(C(F)(F)F)cc21 (3D coordinates assigned)
C[N@H+](CC(=O)[O-])C(=O)C(=O)n1c(C([NH-])=O)cc2ccc(C(F)(F)F)cc21 (optimized conformer: 80.63898935706253 kcal/mol)

>  <smiles>  (46) 
CN(CC(=O)O)C(=O)C(=O)n1c(C(N)=O)cc2ccc(C(F)(F)F)cc21

>  <score_type>  (46) 
oracle

>  <origin>  (46) 
adg

>  <m_score__min__energy>  (46) 
-10.970000000000001

>  <m_primary>  (46) 
energy

$$$$
46:0
     RDKit          3D

 44 45  0  0  0  0  0  0  0  0999 V2000
   -7.5240   17.9980  -32.8340 C   0  0  0  0  0  0  0  0  0  0  0  0
   -7.5690   19.4150  -32.3450 C   0  0  0  0  0  0  0  0  0  0  0  0
   -8.8000   20.1150  -32.3120 C   0  0  0  0  0  0  0  0  0  0  0  0
   -8.8480   21.4580  -31.9040 C   0  0  0  0  0  0  0  0  0  0  0  0
   -7.6530   22.0740  -31.5420 C   0  0  0  0  0  0  0  0  0  0  0  0
   -7.4110   23.3660  -31.1360 C   0  0  0  0  0  0  0  0  0  0  0  0
   -6.0360   23.4350  -30.9210 C   0  0  0  0  0  0  0  0  0  0  0  0
   -5.3440   24.6260  -30.3810 C   0  0  0  0  0  0  0  0  0  0  0  0
   -5.2670   24.8500  -28.9720 N   0  0  0  0  0  0  0  0  0  0  0  0
   -4.7870   25.4440  -31.1620 O   0  0  0  0  0  0  0  0  0  0  0  0
   -5.4500   22.2320  -31.1890 N   0  0  0  0  0  0  0  0  0  0  0  0
   -4.0520   21.9060  -31.1370 C   0  0  0  0  0  0  0  0  0  0  0  0
   -3.2310   22.5330  -31.8600 O   0  0  0  0  0  0  0  0  0  0  0  0
   -3.6100   20.8830  -30.2900 O   0  0  0  0  0  0  0  0  0  0  0  0
   -3.0470   21.1230  -29.0020 C   0  0  0  0  0  0  0  0  0  0  0  0
   -3.5210   22.4280  -28.4450 C   0  0  0  0  0  0  0  0  0  0  0  0
   -4.6010   22.4660  -27.7970 O   0  0  0  0  0  0  0  0  0  0  0  0
   -2.7780   23.5930  -28.6910 O   0  0  0  0  0  0  0  0  0  0  0  0
   -2.0050   24.3270  -27.7320 C   0  0  0  0  0  0  0  0  0  0  0  0
   -1.0370   23.3900  -26.9860 C   0  0  0  0  0  0  0  0  0  0  0  0
   -1.2320   25.4710  -28.4160 C   0  0  0  0  0  0  0  0  0  0  0  0
   -2.9910   24.9310  -26.7210 C   0  0  0  0  0  0  0  0  0  0  0  0
   -6.4530   21.4100  -31.5660 C   0  0  0  0  0  0  0  0  0  0  0  0
   -6.3740   20.0760  -31.9850 C   0  0  0  0  0  0  0  0  0  0  0  0
   -7.5023   17.3136  -31.9731 H   0  0  0  0  0  0  0  0  0  0  0  0
   -8.4161   17.7920  -33.4438 H   0  0  0  0  0  0  0  0  0  0  0  0
   -6.6207   17.8490  -33.4438 H   0  0  0  0  0  0  0  0  0  0  0  0
   -9.7268   19.6021  -32.6086 H   0  0  0  0  0  0  0  0  0  0  0  0
   -9.8009   22.0066  -31.8714 H   0  0  0  0  0  0  0  0  0  0  0  0
   -8.1470   24.1735  -31.0082 H   0  0  0  0  0  0  0  0  0  0  0  0
   -4.7420   25.6730  -28.6010 H   0  0  0  0  0  0  0  0  0  0  0  0
   -5.7630   24.2290  -28.2960 H   0  0  0  0  0  0  0  0  0  0  0  0
   -3.3458   20.3117  -28.3219 H   0  0  0  0  0  0  0  0  0  0  0  0
   -1.9520   21.1603  -29.0994 H   0  0  0  0  0  0  0  0  0  0  0  0
   -1.1675   23.5163  -25.9011 H   0  0  0  0  0  0  0  0  0  0  0  0
   -1.2507   22.3469  -27.2620 H   0  0  0  0  0  0  0  0  0  0  0  0
   -0.0014   23.6375  -27.2620 H   0  0  0  0  0  0  0  0  0  0  0  0
   -0.7903   26.1247  -27.6495 H   0  0  0  0  0  0  0  0  0  0  0  0
   -0.4327   25.0497  -29.0434 H   0  0  0  0  0  0  0  0  0  0  0  0
   -1.9211   26.0554  -29.0434 H   0  0  0  0  0  0  0  0  0  0  0  0
   -2.6443   24.7186  -25.6989 H   0  0  0  0  0  0  0  0  0  0  0  0
   -3.0483   26.0194  -26.8700 H   0  0  0  0  0  0  0  0  0  0  0  0
   -3.9866   24.4876  -26.8700 H   0  0  0  0  0  0  0  0  0  0  0  0
   -5.4057   19.5562  -32.0325 H   0  0  0  0  0  0  0  0  0  0  0  0
  1  2  1  0
  2  3  2  0
  3  4  1  0
  4  5  2  0
  5  6  1  0
  6  7  2  0
  7  8  1  0
  8  9  1  0
  8 10  2  0
  7 11  1  0
 11 12  1  0
 12 13  2  0
 12 14  1  0
 14 15  1  0
 15 16  1  0
 16 17  2  0
 16 18  1  0
 18 19  1  0
 19 20  1  0
 19 21  1  0
 19 22  1  0
 11 23  1  0
 23 24  2  0
 24  2  1  0
 23  5  1  0
  1 25  1  0
  1 26  1  0
  1 27  1  0
  3 28  1  0
  4 29  1  0
  6 30  1  0
  9 31  1  0
  9 32  1  0
 15 33  1  0
 15 34  1  0
 20 35  1  0
 20 36  1  0
 20 37  1  0
 21 38  1  0
 21 39  1  0
 21 40  1  0
 22 41  1  0
 22 42  1  0
 22 43  1  0
 24 44  1  0
M  END
>  <UniqueID>  (47) 
45

>  <SMILES>  (47) 
Cc1ccc2cc(C(N)=O)n(C(=O)OCC(=O)OC(C)(C)C)c2c1

>  <Energy>  (47) 
73.65215054251131

>  <Genealogy>  (47) 
Cc1ccc2cc(C(N)=O)n(C(=O)OCC(=O)OC(C)(C)C)c2c1 (3D coordinates assigned)
Cc1ccc2cc(C(N)=O)n(C(=O)OCC(=O)OC(C)(C)C)c2c1 (optimized conformer: 73.65215054251131 kcal/mol)

>  <smiles>  (47) 
Cc1ccc2cc(C(N)=O)n(C(=O)OCC(=O)OC(C)(C)C)c2c1

>  <score_type>  (47) 
oracle

>  <origin>  (47) 
adg

>  <m_score__min__energy>  (47) 
-9.3300000000000001

>  <m_primary>  (47) 
energy

$$$$
47:0
     RDKit          3D

 51 53  0  0  0  0  0  0  0  0999 V2000
   -1.9730   26.0570  -25.5030 C   0  0  0  0  0  0  0  0  0  0  0  0
   -1.1070   25.5170  -26.3580 C   0  0  0  0  0  0  0  0  0  0  0  0
   -1.4370   25.2830  -27.7830 C   0  0  0  0  0  0  0  0  0  0  0  0
   -1.2380   26.2000  -28.6280 O   0  0  0  0  0  0  0  0  0  0  0  0
   -1.9530   23.9990  -28.2130 N   0  0  1  0  0  0  0  0  0  0  0  0
   -0.8940   22.9570  -28.1370 C   0  0  0  0  0  0  0  0  0  0  0  0
   -1.3860   21.6140  -27.5500 C   0  0  0  0  0  0  0  0  0  0  0  0
   -2.3310   20.8280  -28.4880 C   0  0  0  0  0  0  0  0  0  0  0  0
   -3.3330   21.7200  -29.1090 N   0  0  0  0  0  0  0  0  0  0  0  0
   -2.8370   22.4700  -30.2850 C   0  0  0  0  0  0  0  0  0  0  0  0
   -3.7940   22.5260  -31.4560 C   0  0  0  0  0  0  0  0  0  0  0  0
   -3.4390   22.1540  -32.6060 O   0  0  0  0  0  0  0  0  0  0  0  0
   -5.1680   22.8630  -31.2250 N   0  0  0  0  0  0  0  0  0  0  0  0
   -5.6810   24.0240  -30.7300 C   0  0  0  0  0  0  0  0  0  0  0  0
   -4.9210   25.2620  -30.4670 C   0  0  0  0  0  0  0  0  0  0  0  0
   -3.5220   25.2180  -30.2010 N   0  0  0  0  0  0  0  0  0  0  0  0
   -5.5050   26.3770  -30.5140 O   0  0  0  0  0  0  0  0  0  0  0  0
   -7.0600   23.9120  -30.5590 C   0  0  0  0  0  0  0  0  0  0  0  0
   -7.3760   22.6380  -30.9760 C   0  0  0  0  0  0  0  0  0  0  0  0
   -8.6030   21.9810  -31.0060 C   0  0  0  0  0  0  0  0  0  0  0  0
   -8.6270   20.6510  -31.4600 C   0  0  0  0  0  0  0  0  0  0  0  0
   -7.4360   20.0080  -31.8880 C   0  0  0  0  0  0  0  0  0  0  0  0
   -7.4660   18.5630  -32.3190 C   0  0  0  0  0  0  0  0  0  0  0  0
   -6.7510   17.7740  -31.4350 F   0  0  0  0  0  0  0  0  0  0  0  0
   -8.7770   18.1270  -32.3550 F   0  0  0  0  0  0  0  0  0  0  0  0
   -6.9080   18.4170  -33.5780 F   0  0  0  0  0  0  0  0  0  0  0  0
   -6.2060   20.7030  -31.8200 C   0  0  0  0  0  0  0  0  0  0  0  0
   -6.2170   22.0280  -31.3730 C   0  0  0  0  0  0  0  0  0  0  0  0
   -4.0800   22.5630  -28.1510 C   0  0  0  0  0  0  0  0  0  0  0  0
   -3.2310   23.6920  -27.5180 C   0  0  0  0  0  0  0  0  0  0  0  0
   -1.6848   26.2125  -24.4529 H   0  0  0  0  0  0  0  0  0  0  0  0
   -2.9767   26.3476  -25.8467 H   0  0  0  0  0  0  0  0  0  0  0  0
   -0.1089   25.2340  -25.9925 H   0  0  0  0  0  0  0  0  0  0  0  0
   -2.2000   24.0780  -29.2290 H   0  0  0  0  0  0  0  0  0  0  0  0
   -0.5134   22.7737  -29.1526 H   0  0  0  0  0  0  0  0  0  0  0  0
   -0.1153   23.3382  -27.4600 H   0  0  0  0  0  0  0  0  0  0  0  0
   -0.5078   20.9864  -27.3382 H   0  0  0  0  0  0  0  0  0  0  0  0
   -1.9626   21.8539  -26.6444 H   0  0  0  0  0  0  0  0  0  0  0  0
   -1.7350   20.3516  -29.2804 H   0  0  0  0  0  0  0  0  0  0  0  0
   -2.8614   20.0705  -27.8923 H   0  0  0  0  0  0  0  0  0  0  0  0
   -2.6249   23.5016  -29.9676 H   0  0  0  0  0  0  0  0  0  0  0  0
   -1.9461   21.9315  -30.6406 H   0  0  0  0  0  0  0  0  0  0  0  0
   -3.1330   25.5900  -29.3060 H   0  0  0  0  0  0  0  0  0  0  0  0
   -7.7489   24.6779  -30.1732 H   0  0  0  0  0  0  0  0  0  0  0  0
   -9.5252   22.4871  -30.6844 H   0  0  0  0  0  0  0  0  0  0  0  0
   -9.5799   20.1019  -31.4839 H   0  0  0  0  0  0  0  0  0  0  0  0
   -5.2648   20.2138  -32.1113 H   0  0  0  0  0  0  0  0  0  0  0  0
   -4.9278   23.0220  -28.6807 H   0  0  0  0  0  0  0  0  0  0  0  0
   -4.4025   21.9059  -27.3299 H   0  0  0  0  0  0  0  0  0  0  0  0
   -3.8396   24.6083  -27.5076 H   0  0  0  0  0  0  0  0  0  0  0  0
   -2.9512   23.3337  -26.5163 H   0  0  0  0  0  0  0  0  0  0  0  0
  1  2  2  0
  2  3  1  0
  3  4  2  0
  3  5  1  0
  5  6  1  0
  6  7  1  0
  7  8  1  0
  8  9  1  0
  9 10  1  0
 10 11  1  0
 11 12  2  0
 11 13  1  0
 13 14  1  0
 14 15  1  0
 15 16  1  0
 15 17  2  0
 14 18  2  0
 18 19  1  0
 19 20  2  0
 20 21  1  0
 21 22  2  0
 22 23  1  0
 23 24  1  0
 23 25  1  0
 23 26  1  0
 22 27  1  0
 27 28  2  0
  9 29  1  0
 29 30  1  0
 30  5  1  0
 28 13  1  0
 28 19  1  0
  1 31  1  0
  1 32  1  0
  2 33  1  0
  5 34  1  6
  6 35  1  0
  6 36  1  0
  7 37  1  0
  7 38  1  0
  8 39  1  0
  8 40  1  0
 10 41  1  0
 10 42  1  0
 16 43  1  0
 18 44  1  0
 20 45  1  0
 21 46  1  0
 27 47  1  0
 29 48  1  0
 29 49  1  0
 30 50  1  0
 30 51  1  0
M  CHG  2   5   1  16  -1
M  END
>  <UniqueID>  (48) 
46

>  <SMILES>  (48) 
C=CC(=O)[N@H+]1CCCN(CC(=O)n2c(C([NH-])=O)cc3ccc(C(F)(F)F)cc32)CC1

>  <Energy>  (48) 
114.30019025775134

>  <Genealogy>  (48) 
C=CC(=O)[NH+]1CCCN(CC(=O)n2c(C([NH-])=O)cc3ccc(C(F)(F)F)cc32)CC1 (protonated)
C=CC(=O)[N@H+]1CCCN(CC(=O)n2c(C([NH-])=O)cc3ccc(C(F)(F)F)cc32)CC1 (chirality)
C=CC(=O)[N@H+]1CCCN(CC(=O)n2c(C([NH-])=O)cc3ccc(C(F)(F)F)cc32)CC1 (3D coordinates assigned)
C=CC(=O)[N@H+]1CCCN(CC(=O)n2c(C([NH-])=O)cc3ccc(C(F)(F)F)cc32)CC1 (nonaromatic ring conformer: 114.30019025775134 kcal/mol)

>  <smiles>  (48) 
C=CC(=O)N1CCCN(CC(=O)n2c(C(N)=O)cc3ccc(C(F)(F)F)cc32)CC1

>  <score_type>  (48) 
oracle

>  <origin>  (48) 
adg

>  <m_score__min__energy>  (48) 
-8.8399999999999999

>  <m_primary>  (48) 
energy

$$$$
48:0
     RDKit          3D

 62 64  0  0  0  0  0  0  0  0999 V2000
   -0.4530   22.8620  -28.4980 C   0  0  0  0  0  0  0  0  0  0  0  0
   -1.4720   24.0030  -28.4990 C   0  0  2  0  0  0  0  0  0  0  0  0
   -2.2820   23.9560  -29.7200 N   0  0  0  0  0  0  0  0  0  0  0  0
   -3.1230   22.8350  -30.0340 C   0  0  0  0  0  0  0  0  0  0  0  0
   -3.2270   21.8760  -29.2210 O   0  0  0  0  0  0  0  0  0  0  0  0
   -3.8650   22.7860  -31.3080 C   0  0  0  0  0  0  0  0  0  0  0  0
   -3.2510   22.5640  -32.3850 O   0  0  0  0  0  0  0  0  0  0  0  0
   -5.2930   22.9350  -31.3270 N   0  0  0  0  0  0  0  0  0  0  0  0
   -6.0390   23.9710  -30.8520 C   0  0  0  0  0  0  0  0  0  0  0  0
   -5.5130   25.2480  -30.3260 C   0  0  0  0  0  0  0  0  0  0  0  0
   -4.1630   25.6380  -30.5610 N   0  0  0  0  0  0  0  0  0  0  0  0
   -6.2760   26.0220  -29.6850 O   0  0  0  0  0  0  0  0  0  0  0  0
   -7.3990   23.6930  -30.9920 C   0  0  0  0  0  0  0  0  0  0  0  0
   -7.4590   22.4500  -31.5800 C   0  0  0  0  0  0  0  0  0  0  0  0
   -8.5600   21.6820  -31.9470 C   0  0  0  0  0  0  0  0  0  0  0  0
   -8.3210   20.4220  -32.5230 C   0  0  0  0  0  0  0  0  0  0  0  0
   -6.9970   19.9510  -32.7130 C   0  0  0  0  0  0  0  0  0  0  0  0
   -6.7640   18.6590  -33.3050 N   0  0  0  0  0  0  0  0  0  0  0  0
   -6.0210   18.5670  -34.5710 C   0  0  0  0  0  0  0  0  0  0  0  0
   -5.6930   17.1110  -34.9350 C   0  0  0  0  0  0  0  0  0  0  0  0
   -5.2420   16.3710  -33.7440 N   0  0  0  0  0  0  0  0  0  0  0  0
   -4.1560   15.4300  -33.8240 C   0  0  0  0  0  0  0  0  0  0  0  0
   -3.5910   15.2100  -34.9300 O   0  0  0  0  0  0  0  0  0  0  0  0
   -3.7390   14.7620  -32.6610 O   0  0  0  0  0  0  0  0  0  0  0  0
   -3.6200   13.3410  -32.4920 C   0  0  0  0  0  0  0  0  0  0  0  0
   -3.5930   12.9740  -30.9960 C   0  0  0  0  0  0  0  0  0  0  0  0
   -2.3610   12.8130  -33.2040 C   0  0  0  0  0  0  0  0  0  0  0  0
   -4.8600   12.7040  -33.1380 C   0  0  0  0  0  0  0  0  0  0  0  0
   -5.9790   16.4950  -32.4770 C   0  0  0  0  0  0  0  0  0  0  0  0
   -7.1780   17.4330  -32.6140 C   0  0  0  0  0  0  0  0  0  0  0  0
   -5.9060   20.7650  -32.3320 C   0  0  0  0  0  0  0  0  0  0  0  0
   -6.1750   22.0170  -31.7730 C   0  0  0  0  0  0  0  0  0  0  0  0
   -0.7830   25.3350  -28.3820 C   0  0  0  0  0  0  0  0  0  0  0  0
   -1.2470   26.3490  -28.9700 O   0  0  0  0  0  0  0  0  0  0  0  0
    0.3610   25.4580  -27.6030 O   0  0  0  0  0  0  0  0  0  0  0  0
   -0.2092   22.5890  -27.4607 H   0  0  0  0  0  0  0  0  0  0  0  0
   -0.8784   21.9900  -29.0163 H   0  0  0  0  0  0  0  0  0  0  0  0
    0.4614   23.1865  -29.0163 H   0  0  0  0  0  0  0  0  0  0  0  0
   -2.1321   23.8788  -27.6279 H   0  0  0  0  0  0  0  0  0  0  0  0
   -2.2050   24.7380  -30.4090 H   0  0  0  0  0  0  0  0  0  0  0  0
   -3.4790   25.7070  -29.7760 H   0  0  0  0  0  0  0  0  0  0  0  0
   -8.2440   24.3317  -30.6954 H   0  0  0  0  0  0  0  0  0  0  0  0
   -9.5851   22.0493  -31.7913 H   0  0  0  0  0  0  0  0  0  0  0  0
   -9.1707   19.7944  -32.8298 H   0  0  0  0  0  0  0  0  0  0  0  0
   -6.6306   19.0063  -35.3744 H   0  0  0  0  0  0  0  0  0  0  0  0
   -5.0728   19.1117  -34.4515 H   0  0  0  0  0  0  0  0  0  0  0  0
   -6.5935   16.6279  -35.3420 H   0  0  0  0  0  0  0  0  0  0  0  0
   -4.8878   17.1042  -35.6844 H   0  0  0  0  0  0  0  0  0  0  0  0
   -3.6605   13.8910  -30.3922 H   0  0  0  0  0  0  0  0  0  0  0  0
   -4.4454   12.3186  -30.7638 H   0  0  0  0  0  0  0  0  0  0  0  0
   -2.6539   12.4504  -30.7638 H   0  0  0  0  0  0  0  0  0  0  0  0
   -1.6189   12.5018  -32.4540 H   0  0  0  0  0  0  0  0  0  0  0  0
   -2.6297   11.9517  -33.8333 H   0  0  0  0  0  0  0  0  0  0  0  0
   -1.9350   13.6083  -33.8333 H   0  0  0  0  0  0  0  0  0  0  0  0
   -5.5438   12.3527  -32.3512 H   0  0  0  0  0  0  0  0  0  0  0  0
   -5.3724   13.4505  -33.7627 H   0  0  0  0  0  0  0  0  0  0  0  0
   -4.5516   11.8527  -33.7627 H   0  0  0  0  0  0  0  0  0  0  0  0
   -6.3367   15.5002  -32.1731 H   0  0  0  0  0  0  0  0  0  0  0  0
   -5.2979   16.9146  -31.7220 H   0  0  0  0  0  0  0  0  0  0  0  0
   -7.9689   16.9347  -33.1938 H   0  0  0  0  0  0  0  0  0  0  0  0
   -7.5605   17.6871  -31.6144 H   0  0  0  0  0  0  0  0  0  0  0  0
   -4.8705   20.4212  -32.4722 H   0  0  0  0  0  0  0  0  0  0  0  0
  1  2  1  0
  2  3  1  0
  3  4  1  0
  4  5  2  0
  4  6  1  0
  6  7  2  0
  6  8  1  0
  8  9  1  0
  9 10  1  0
 10 11  1  0
 10 12  2  0
  9 13  2  0
 13 14  1  0
 14 15  2  0
 15 16  1  0
 16 17  2  0
 17 18  1  0
 18 19  1  0
 19 20  1  0
 20 21  1  0
 21 22  1  0
 22 23  2  0
 22 24  1  0
 24 25  1  0
 25 26  1  0
 25 27  1  0
 25 28  1  0
 21 29  1  0
 29 30  1  0
 17 31  1  0
 31 32  2  0
  2 33  1  0
 33 34  2  0
 33 35  1  0
 32  8  1  0
 32 14  1  0
 30 18  1  0
  1 36  1  0
  1 37  1  0
  1 38  1  0
  2 39  1  1
  3 40  1  0
 11 41  1  0
 13 42  1  0
 15 43  1  0
 16 44  1  0
 19 45  1  0
 19 46  1  0
 20 47  1  0
 20 48  1  0
 26 49  1  0
 26 50  1  0
 26 51  1  0
 27 52  1  0
 27 53  1  0
 27 54  1  0
 28 55  1  0
 28 56  1  0
 28 57  1  0
 29 58  1  0
 29 59  1  0
 30 60  1  0
 30 61  1  0
 31 62  1  0
M  CHG  2  11  -1  35  -1
M  END
>  <UniqueID>  (49) 
47

>  <SMILES>  (49) 
C[C@H](NC(=O)C(=O)n1c(C([NH-])=O)cc2ccc(N3CCN(C(=O)OC(C)(C)C)CC3)cc21)C(=O)[O-]

>  <Energy>  (49) 
97.6777450895652

>  <Genealogy>  (49) 
C[C@H](NC(=O)C(=O)n1c(C([NH-])=O)cc2ccc(N3CCN(C(=O)OC(C)(C)C)CC3)cc21)C(=O)[O-] (protonated)
C[C@H](NC(=O)C(=O)n1c(C([NH-])=O)cc2ccc(N3CCN(C(=O)OC(C)(C)C)CC3)cc21)C(=O)[O-] (3D coordinates assigned)
C[C@H](NC(=O)C(=O)n1c(C([NH-])=O)cc2ccc(N3CCN(C(=O)OC(C)(C)C)CC3)cc21)C(=O)[O-] (nonaromatic ring conformer: 97.6777450895652 kcal/mol)

>  <smiles>  (49) 
C[C@H](NC(=O)C(=O)n1c(C(N)=O)cc2ccc(N3CCN(C(=O)OC(C)(C)C)CC3)cc21)C(=O)O

>  <score_type>  (49) 
oracle

>  <origin>  (49) 
adg

>  <m_score__min__energy>  (49) 
-14.33

>  <m_primary>  (49) 
energy

$$$$
49:0
     RDKit          3D

 59 61  0  0  0  0  0  0  0  0999 V2000
   -0.8550   27.3300  -25.8600 C   0  0  0  0  0  0  0  0  0  0  0  0
   -1.0070   25.8700  -26.2930 C   0  0  0  0  0  0  0  0  0  0  0  0
   -2.4030   25.3400  -25.9520 C   0  0  0  0  0  0  0  0  0  0  0  0
   -0.7420   25.7420  -27.7650 C   0  0  0  0  0  0  0  0  0  0  0  0
   -1.2100   26.6010  -28.5630 O   0  0  0  0  0  0  0  0  0  0  0  0
   -0.0070   24.6510  -28.2450 O   0  0  0  0  0  0  0  0  0  0  0  0
    0.1990   23.4650  -27.4840 C   0  0  0  0  0  0  0  0  0  0  0  0
   -0.2080   22.3260  -28.2370 O   0  0  0  0  0  0  0  0  0  0  0  0
   -1.4330   21.6790  -28.0320 C   0  0  0  0  0  0  0  0  0  0  0  0
   -2.3810   22.2810  -27.4560 O   0  0  0  0  0  0  0  0  0  0  0  0
   -1.6110   20.2530  -28.4960 C   0  0  0  0  0  0  0  0  0  0  0  0
   -0.2230   19.6610  -28.8060 C   0  0  0  0  0  0  0  0  0  0  0  0
   -2.3200   19.4520  -27.3870 C   0  0  0  0  0  0  0  0  0  0  0  0
   -2.4210   20.2820  -29.6810 O   0  0  0  0  0  0  0  0  0  0  0  0
   -2.4420   21.2860  -30.6600 C   0  0  0  0  0  0  0  0  0  0  0  0
   -1.3680   21.7690  -31.1120 O   0  0  0  0  0  0  0  0  0  0  0  0
   -3.7040   21.7580  -31.1580 N   0  0  0  0  0  0  0  0  0  0  0  0
   -4.2370   23.0030  -31.0040 C   0  0  0  0  0  0  0  0  0  0  0  0
   -3.5380   24.1700  -30.4230 C   0  0  0  0  0  0  0  0  0  0  0  0
   -2.3760   23.9940  -29.6110 N   0  0  0  0  0  0  0  0  0  0  0  0
   -3.9810   25.3340  -30.6170 O   0  0  0  0  0  0  0  0  0  0  0  0
   -5.5200   23.0580  -31.5440 C   0  0  0  0  0  0  0  0  0  0  0  0
   -5.7600   21.7950  -32.0380 C   0  0  0  0  0  0  0  0  0  0  0  0
   -6.8900   21.2850  -32.6670 C   0  0  0  0  0  0  0  0  0  0  0  0
   -6.8810   19.9310  -33.0400 C   0  0  0  0  0  0  0  0  0  0  0  0
   -5.7540   19.1100  -32.7700 C   0  0  0  0  0  0  0  0  0  0  0  0
   -5.7670   17.6730  -33.1480 C   0  0  0  0  0  0  0  0  0  0  0  0
   -6.8730   17.1120  -33.8080 C   0  0  0  0  0  0  0  0  0  0  0  0
   -6.8690   15.7620  -34.1620 C   0  0  0  0  0  0  0  0  0  0  0  0
   -5.7580   14.9760  -33.8510 C   0  0  0  0  0  0  0  0  0  0  0  0
   -5.7370   13.6640  -34.1860 F   0  0  0  0  0  0  0  0  0  0  0  0
   -4.6940   15.5290  -33.2100 N   0  0  0  0  0  0  0  0  0  0  0  0
   -4.6720   16.8410  -32.8570 C   0  0  0  0  0  0  0  0  0  0  0  0
   -4.6230   19.6710  -32.1320 C   0  0  0  0  0  0  0  0  0  0  0  0
   -4.6520   21.0290  -31.7900 C   0  0  0  0  0  0  0  0  0  0  0  0
   -0.8490   27.3879  -24.7615 H   0  0  0  0  0  0  0  0  0  0  0  0
    0.0899   27.7327  -26.2536 H   0  0  0  0  0  0  0  0  0  0  0  0
   -1.6967   27.9187  -26.2536 H   0  0  0  0  0  0  0  0  0  0  0  0
   -0.2712   25.2649  -25.7431 H   0  0  0  0  0  0  0  0  0  0  0  0
   -2.5213   25.2951  -24.8593 H   0  0  0  0  0  0  0  0  0  0  0  0
   -3.1639   26.0118  -26.3759 H   0  0  0  0  0  0  0  0  0  0  0  0
   -2.5263   24.3325  -26.3759 H   0  0  0  0  0  0  0  0  0  0  0  0
    1.2662   23.3737  -27.2335 H   0  0  0  0  0  0  0  0  0  0  0  0
   -0.3974   23.5198  -26.5614 H   0  0  0  0  0  0  0  0  0  0  0  0
    0.2993   19.4382  -27.8639 H   0  0  0  0  0  0  0  0  0  0  0  0
   -0.3410   18.7349  -29.3877 H   0  0  0  0  0  0  0  0  0  0  0  0
    0.3637   20.3872  -29.3877 H   0  0  0  0  0  0  0  0  0  0  0  0
   -1.9940   19.8203  -26.4031 H   0  0  0  0  0  0  0  0  0  0  0  0
   -3.4086   19.5772  -27.4831 H   0  0  0  0  0  0  0  0  0  0  0  0
   -2.0636   18.3866  -27.4831 H   0  0  0  0  0  0  0  0  0  0  0  0
   -1.9000   24.8230  -29.1890 H   0  0  0  0  0  0  0  0  0  0  0  0
   -1.9550   23.0500  -29.4670 H   0  0  0  0  0  0  0  0  0  0  0  0
   -6.1967   23.9248  -31.5702 H   0  0  0  0  0  0  0  0  0  0  0  0
   -7.7642   21.9222  -32.8664 H   0  0  0  0  0  0  0  0  0  0  0  0
   -7.7573   19.5013  -33.5473 H   0  0  0  0  0  0  0  0  0  0  0  0
   -7.7449   17.7388  -34.0465 H   0  0  0  0  0  0  0  0  0  0  0  0
   -7.7330   15.3215  -34.6811 H   0  0  0  0  0  0  0  0  0  0  0  0
   -3.7928   17.2541  -32.3409 H   0  0  0  0  0  0  0  0  0  0  0  0
   -3.7399   19.0542  -31.9093 H   0  0  0  0  0  0  0  0  0  0  0  0
  1  2  1  0
  2  3  1  0
  2  4  1  0
  4  5  2  0
  4  6  1  0
  6  7  1  0
  7  8  1  0
  8  9  1  0
  9 10  2  0
  9 11  1  0
 11 12  1  0
 11 13  1  0
 11 14  1  0
 14 15  1  0
 15 16  2  0
 15 17  1  0
 17 18  1  0
 18 19  1  0
 19 20  1  0
 19 21  2  0
 18 22  2  0
 22 23  1  0
 23 24  2  0
 24 25  1  0
 25 26  2  0
 26 27  1  0
 27 28  2  0
 28 29  1  0
 29 30  2  0
 30 31  1  0
 30 32  1  0
 32 33  2  0
 26 34  1  0
 34 35  2  0
 35 17  1  0
 35 23  1  0
 33 27  1  0
  1 36  1  0
  1 37  1  0
  1 38  1  0
  2 39  1  0
  3 40  1  0
  3 41  1  0
  3 42  1  0
  7 43  1  0
  7 44  1  0
 12 45  1  0
 12 46  1  0
 12 47  1  0
 13 48  1  0
 13 49  1  0
 13 50  1  0
 20 51  1  0
 20 52  1  0
 22 53  1  0
 24 54  1  0
 25 55  1  0
 28 56  1  0
 29 57  1  0
 33 58  1  0
 34 59  1  0
M  END
>  <UniqueID>  (50) 
48

>  <SMILES>  (50) 
CC(C)C(=O)OCOC(=O)C(C)(C)OC(=O)n1c(C(N)=O)cc2ccc(-c3ccc(F)nc3)cc21

>  <Energy>  (50) 
92.88118026035662

>  <Genealogy>  (50) 
CC(C)C(=O)OCOC(=O)C(C)(C)OC(=O)n1c(C(N)=O)cc2ccc(-c3ccc(F)nc3)cc21 (3D coordinates assigned)
CC(C)C(=O)OCOC(=O)C(C)(C)OC(=O)n1c(C(N)=O)cc2ccc(-c3ccc(F)nc3)cc21 (optimized conformer: 92.88118026035662 kcal/mol)

>  <smiles>  (50) 
CC(C)C(=O)OCOC(=O)C(C)(C)OC(=O)n1c(C(N)=O)cc2ccc(-c3ccc(F)nc3)cc21

>  <score_type>  (50) 
oracle

>  <origin>  (50) 
adg

>  <m_score__min__energy>  (50) 
-10.210000000000001

>  <m_primary>  (50) 
energy

$$$$
50:0
     RDKit          3D

 42 43  0  0  0  0  0  0  0  0999 V2000
   -1.2800   23.7680  -26.2070 C   0  0  0  0  0  0  0  0  0  0  0  0
   -2.2990   24.3500  -27.1830 C   0  0  2  0  0  0  0  0  0  0  0  0
   -2.9950   23.3030  -27.8080 O   0  0  0  0  0  0  0  0  0  0  0  0
   -1.6070   25.1950  -28.2110 C   0  0  0  0  0  0  0  0  0  0  0  0
   -1.5630   26.4490  -28.0720 O   0  0  0  0  0  0  0  0  0  0  0  0
   -1.0400   24.5830  -29.3350 O   0  0  0  0  0  0  0  0  0  0  0  0
   -0.2110   23.4270  -29.2510 C   0  0  0  0  0  0  0  0  0  0  0  0
   -0.9780   22.2500  -29.4830 O   0  0  0  0  0  0  0  0  0  0  0  0
   -1.7530   22.0600  -30.6300 C   0  0  0  0  0  0  0  0  0  0  0  0
   -1.2000   21.8070  -31.7370 O   0  0  0  0  0  0  0  0  0  0  0  0
   -3.1450   22.1640  -30.5250 O   0  0  0  0  0  0  0  0  0  0  0  0
   -4.0300   22.2540  -31.6070 C   0  0  0  0  0  0  0  0  0  0  0  0
   -3.6560   21.9570  -32.7750 O   0  0  0  0  0  0  0  0  0  0  0  0
   -5.3820   22.6900  -31.3830 N   0  0  0  0  0  0  0  0  0  0  0  0
   -5.7950   23.8710  -30.8440 C   0  0  0  0  0  0  0  0  0  0  0  0
   -4.9330   25.0260  -30.5240 C   0  0  0  0  0  0  0  0  0  0  0  0
   -3.6230   24.8440  -29.9840 N   0  0  0  0  0  0  0  0  0  0  0  0
   -5.3370   26.1910  -30.7810 O   0  0  0  0  0  0  0  0  0  0  0  0
   -7.1770   23.8770  -30.6710 C   0  0  0  0  0  0  0  0  0  0  0  0
   -7.6050   22.6550  -31.1370 C   0  0  0  0  0  0  0  0  0  0  0  0
   -8.8900   22.1220  -31.1950 C   0  0  0  0  0  0  0  0  0  0  0  0
   -9.0390   20.8160  -31.6930 C   0  0  0  0  0  0  0  0  0  0  0  0
   -7.9070   20.0660  -32.0980 C   0  0  0  0  0  0  0  0  0  0  0  0
   -8.0810   18.6810  -32.6480 C   0  0  0  0  0  0  0  0  0  0  0  0
   -9.0840   18.0310  -31.9530 F   0  0  0  0  0  0  0  0  0  0  0  0
   -6.6210   20.6440  -32.0380 C   0  0  0  0  0  0  0  0  0  0  0  0
   -6.5030   21.9560  -31.5590 C   0  0  0  0  0  0  0  0  0  0  0  0
   -1.6111   23.9571  -25.1752 H   0  0  0  0  0  0  0  0  0  0  0  0
   -1.1927   22.6838  -26.3712 H   0  0  0  0  0  0  0  0  0  0  0  0
   -0.3018   24.2436  -26.3712 H   0  0  0  0  0  0  0  0  0  0  0  0
   -3.0100   24.9828  -26.6316 H   0  0  0  0  0  0  0  0  0  0  0  0
   -2.5730   23.1690  -28.6960 H   0  0  0  0  0  0  0  0  0  0  0  0
    0.5852   23.4959  -30.0068 H   0  0  0  0  0  0  0  0  0  0  0  0
    0.2284   23.3746  -28.2439 H   0  0  0  0  0  0  0  0  0  0  0  0
   -3.1910   23.8960  -29.9230 H   0  0  0  0  0  0  0  0  0  0  0  0
   -3.0430   25.6740  -29.7260 H   0  0  0  0  0  0  0  0  0  0  0  0
   -7.7941   24.6853  -30.2517 H   0  0  0  0  0  0  0  0  0  0  0  0
   -9.7613   22.7047  -30.8615 H   0  0  0  0  0  0  0  0  0  0  0  0
  -10.0427   20.3725  -31.7690 H   0  0  0  0  0  0  0  0  0  0  0  0
   -8.3520   18.7407  -33.7124 H   0  0  0  0  0  0  0  0  0  0  0  0
   -7.1393   18.1229  -32.5397 H   0  0  0  0  0  0  0  0  0  0  0  0
   -5.7334   20.0791  -32.3591 H   0  0  0  0  0  0  0  0  0  0  0  0
  1  2  1  0
  2  3  1  0
  2  4  1  0
  4  5  2  0
  4  6  1  0
  6  7  1  0
  7  8  1  0
  8  9  1  0
  9 10  2  0
  9 11  1  0
 11 12  1  0
 12 13  2  0
 12 14  1  0
 14 15  1  0
 15 16  1  0
 16 17  1  0
 16 18  2  0
 15 19  2  0
 19 20  1  0
 20 21  2  0
 21 22  1  0
 22 23  2  0
 23 24  1  0
 24 25  1  0
 23 26  1  0
 26 27  2  0
 27 14  1  0
 27 20  1  0
  1 28  1  0
  1 29  1  0
  1 30  1  0
  2 31  1  1
  3 32  1  0
  7 33  1  0
  7 34  1  0
 17 35  1  0
 17 36  1  0
 19 37  1  0
 21 38  1  0
 22 39  1  0
 24 40  1  0
 24 41  1  0
 26 42  1  0
M  END
>  <UniqueID>  (51) 
49

>  <SMILES>  (51) 
C[C@H](O)C(=O)OCOC(=O)OC(=O)n1c(C(N)=O)cc2ccc(CF)cc21

>  <Energy>  (51) 
75.12254940539137

>  <Genealogy>  (51) 
C[C@H](O)C(=O)OCOC(=O)OC(=O)n1c(C(N)=O)cc2ccc(CF)cc21 (3D coordinates assigned)
C[C@H](O)C(=O)OCOC(=O)OC(=O)n1c(C(N)=O)cc2ccc(CF)cc21 (optimized conformer: 75.12254940539137 kcal/mol)

>  <smiles>  (51) 
C[C@H](O)C(=O)OCOC(=O)OC(=O)n1c(C(N)=O)cc2ccc(CF)cc21

>  <score_type>  (51) 
oracle

>  <origin>  (51) 
adg

>  <m_score__min__energy>  (51) 
-7.79

>  <m_primary>  (51) 
energy

$$$$
51:0
     RDKit          3D

 45 46  0  0  0  0  0  0  0  0999 V2000
   -0.7160   18.4480  -32.0160 C   0  0  0  0  0  0  0  0  0  0  0  0
   -1.9700   18.8240  -32.5710 O   0  0  0  0  0  0  0  0  0  0  0  0
   -2.2220   20.1110  -33.0570 C   0  0  0  0  0  0  0  0  0  0  0  0
   -2.7650   20.2780  -34.1820 O   0  0  0  0  0  0  0  0  0  0  0  0
   -1.8090   21.2990  -32.2470 C   0  0  0  0  0  0  0  0  0  0  0  0
   -2.8010   22.3210  -32.3140 O   0  0  0  0  0  0  0  0  0  0  0  0
   -3.5320   22.7540  -31.2020 C   0  0  0  0  0  0  0  0  0  0  0  0
   -2.9450   23.0230  -30.1180 O   0  0  0  0  0  0  0  0  0  0  0  0
   -4.9590   22.8750  -31.2920 N   0  0  0  0  0  0  0  0  0  0  0  0
   -5.7330   23.9440  -30.9500 C   0  0  0  0  0  0  0  0  0  0  0  0
   -5.2410   25.2700  -30.5240 C   0  0  0  0  0  0  0  0  0  0  0  0
   -3.9120   25.6730  -30.8490 N   0  0  0  0  0  0  0  0  0  0  0  0
   -5.9670   26.0410  -29.8420 O   0  0  0  0  0  0  0  0  0  0  0  0
   -7.0820   23.6490  -31.1400 C   0  0  0  0  0  0  0  0  0  0  0  0
   -7.1100   22.3600  -31.6210 C   0  0  0  0  0  0  0  0  0  0  0  0
   -8.1910   21.5620  -31.9800 C   0  0  0  0  0  0  0  0  0  0  0  0
   -7.9260   20.2580  -32.4300 C   0  0  0  0  0  0  0  0  0  0  0  0
   -6.5960   19.7710  -32.5070 C   0  0  0  0  0  0  0  0  0  0  0  0
   -6.3320   18.4280  -32.9650 N   0  0  0  0  0  0  0  0  0  0  0  0
   -6.2820   17.3330  -31.9900 C   0  0  0  0  0  0  0  0  0  0  0  0
   -6.0980   18.1540  -34.3930 C   0  0  0  0  0  0  0  0  0  0  0  0
   -4.8200   17.3280  -34.6010 C   0  0  0  0  0  0  0  0  0  0  0  0
   -3.7050   17.8520  -33.8130 N   0  0  0  0  0  0  0  0  0  0  0  0
   -5.5250   20.6150  -32.1280 C   0  0  0  0  0  0  0  0  0  0  0  0
   -5.8170   21.9150  -31.7040 C   0  0  0  0  0  0  0  0  0  0  0  0
   -0.7804   18.4673  -30.9181 H   0  0  0  0  0  0  0  0  0  0  0  0
   -0.4567   17.4326  -32.3503 H   0  0  0  0  0  0  0  0  0  0  0  0
    0.0592   19.1532  -32.3503 H   0  0  0  0  0  0  0  0  0  0  0  0
   -1.6751   20.9932  -31.1989 H   0  0  0  0  0  0  0  0  0  0  0  0
   -0.8652   21.6935  -32.6515 H   0  0  0  0  0  0  0  0  0  0  0  0
   -3.0870   25.1750  -30.4490 H   0  0  0  0  0  0  0  0  0  0  0  0
   -7.9419   24.3071  -30.9465 H   0  0  0  0  0  0  0  0  0  0  0  0
   -9.2218   21.9403  -31.9136 H   0  0  0  0  0  0  0  0  0  0  0  0
   -8.7608   19.6060  -32.7266 H   0  0  0  0  0  0  0  0  0  0  0  0
   -6.3009   17.7479  -30.9714 H   0  0  0  0  0  0  0  0  0  0  0  0
   -7.1510   16.6741  -32.1338 H   0  0  0  0  0  0  0  0  0  0  0  0
   -5.3566   16.7560  -32.1338 H   0  0  0  0  0  0  0  0  0  0  0  0
   -6.9554   17.5949  -34.7957 H   0  0  0  0  0  0  0  0  0  0  0  0
   -5.9793   19.1145  -34.9158 H   0  0  0  0  0  0  0  0  0  0  0  0
   -5.0137   16.2885  -34.2978 H   0  0  0  0  0  0  0  0  0  0  0  0
   -4.5448   17.3827  -35.6646 H   0  0  0  0  0  0  0  0  0  0  0  0
   -4.0230   18.7030  -33.2950 H   0  0  0  0  0  0  0  0  0  0  0  0
   -3.3850   17.1380  -33.1190 H   0  0  0  0  0  0  0  0  0  0  0  0
   -2.9100   18.1150  -34.4400 H   0  0  0  0  0  0  0  0  0  0  0  0
   -4.4859   20.2562  -32.1661 H   0  0  0  0  0  0  0  0  0  0  0  0
  1  2  1  0
  2  3  1  0
  3  4  2  0
  3  5  1  0
  5  6  1  0
  6  7  1  0
  7  8  2  0
  7  9  1  0
  9 10  1  0
 10 11  1  0
 11 12  1  0
 11 13  2  0
 10 14  2  0
 14 15  1  0
 15 16  2  0
 16 17  1  0
 17 18  2  0
 18 19  1  0
 19 20  1  0
 19 21  1  0
 21 22  1  0
 22 23  1  0
 18 24  1  0
 24 25  2  0
 25  9  1  0
 25 15  1  0
  1 26  1  0
  1 27  1  0
  1 28  1  0
  5 29  1  0
  5 30  1  0
 12 31  1  0
 14 32  1  0
 16 33  1  0
 17 34  1  0
 20 35  1  0
 20 36  1  0
 20 37  1  0
 21 38  1  0
 21 39  1  0
 22 40  1  0
 22 41  1  0
 23 42  1  0
 23 43  1  0
 23 44  1  0
 24 45  1  0
M  CHG  2  12  -1  23   1
M  END
>  <UniqueID>  (52) 
50

>  <SMILES>  (52) 
COC(=O)COC(=O)n1c(C([NH-])=O)cc2ccc(N(C)CC[NH3+])cc21

>  <Energy>  (52) 
77.49016579742629

>  <Genealogy>  (52) 
COC(=O)COC(=O)n1c(C([NH-])=O)cc2ccc(N(C)CC[NH3+])cc21 (protonated)
COC(=O)COC(=O)n1c(C([NH-])=O)cc2ccc(N(C)CC[NH3+])cc21 (3D coordinates assigned)
COC(=O)COC(=O)n1c(C([NH-])=O)cc2ccc(N(C)CC[NH3+])cc21 (optimized conformer: 77.49016579742629 kcal/mol)

>  <smiles>  (52) 
COC(=O)COC(=O)n1c(C(N)=O)cc2ccc(N(C)CCN)cc21

>  <score_type>  (52) 
oracle

>  <origin>  (52) 
adg

>  <m_score__min__energy>  (52) 
-7.7800000000000002

>  <m_primary>  (52) 
energy

$$$$
52:0
     RDKit          3D

 40 41  0  0  0  0  0  0  0  0999 V2000
   -4.2390   24.6490  -26.6930 C   0  0  0  0  0  0  0  0  0  0  0  0
   -2.8780   24.5650  -27.3730 C   0  0  0  0  0  0  0  0  0  0  0  0
   -2.8420   23.4810  -28.3000 O   0  0  0  0  0  0  0  0  0  0  0  0
   -1.7150   23.1460  -29.0580 C   0  0  0  0  0  0  0  0  0  0  0  0
   -1.0390   24.0360  -29.6400 O   0  0  0  0  0  0  0  0  0  0  0  0
   -1.3080   21.7090  -29.1710 C   0  0  0  0  0  0  0  0  0  0  0  0
   -2.1680   20.9410  -30.1790 C   0  0  0  0  0  0  0  0  0  0  0  0
   -3.5050   21.4440  -30.2120 O   0  0  0  0  0  0  0  0  0  0  0  0
   -3.9340   22.4530  -31.0850 C   0  0  0  0  0  0  0  0  0  0  0  0
   -3.1240   22.9700  -31.9020 O   0  0  0  0  0  0  0  0  0  0  0  0
   -5.3110   22.8670  -31.0830 N   0  0  0  0  0  0  0  0  0  0  0  0
   -5.8160   24.0920  -30.7590 C   0  0  0  0  0  0  0  0  0  0  0  0
   -5.0320   25.3190  -30.5060 C   0  0  0  0  0  0  0  0  0  0  0  0
   -3.6090   25.2880  -30.4830 N   0  0  0  0  0  0  0  0  0  0  0  0
   -5.6280   26.4200  -30.3650 O   0  0  0  0  0  0  0  0  0  0  0  0
   -7.2070   24.0700  -30.7740 C   0  0  0  0  0  0  0  0  0  0  0  0
   -7.5480   22.7870  -31.1280 C   0  0  0  0  0  0  0  0  0  0  0  0
   -8.8040   22.2120  -31.2960 C   0  0  0  0  0  0  0  0  0  0  0  0
   -8.8650   20.8520  -31.6440 C   0  0  0  0  0  0  0  0  0  0  0  0
   -7.6780   20.0880  -31.7920 C   0  0  0  0  0  0  0  0  0  0  0  0
   -7.7550   18.6390  -32.2010 C   0  0  0  0  0  0  0  0  0  0  0  0
   -7.1020   18.4350  -33.4040 F   0  0  0  0  0  0  0  0  0  0  0  0
   -9.0820   18.2760  -32.3410 F   0  0  0  0  0  0  0  0  0  0  0  0
   -7.1650   17.8280  -31.2460 F   0  0  0  0  0  0  0  0  0  0  0  0
   -6.4210   20.7160  -31.6350 C   0  0  0  0  0  0  0  0  0  0  0  0
   -6.3890   22.0780  -31.3090 C   0  0  0  0  0  0  0  0  0  0  0  0
   -4.1046   24.6407  -25.6013 H   0  0  0  0  0  0  0  0  0  0  0  0
   -4.7422   25.5799  -26.9934 H   0  0  0  0  0  0  0  0  0  0  0  0
   -4.8528   23.7870  -26.9934 H   0  0  0  0  0  0  0  0  0  0  0  0
   -2.6842   25.5054  -27.9097 H   0  0  0  0  0  0  0  0  0  0  0  0
   -2.1090   24.3980  -26.6044 H   0  0  0  0  0  0  0  0  0  0  0  0
   -0.2575   21.6628  -29.4940 H   0  0  0  0  0  0  0  0  0  0  0  0
   -1.4449   21.2410  -28.1850 H   0  0  0  0  0  0  0  0  0  0  0  0
   -1.7227   21.0417  -31.1798 H   0  0  0  0  0  0  0  0  0  0  0  0
   -2.2023   19.8852  -29.8721 H   0  0  0  0  0  0  0  0  0  0  0  0
   -3.0940   24.4060  -30.2670 H   0  0  0  0  0  0  0  0  0  0  0  0
   -7.8892   24.9033  -30.5499 H   0  0  0  0  0  0  0  0  0  0  0  0
   -9.7211   22.8041  -31.1605 H   0  0  0  0  0  0  0  0  0  0  0  0
   -9.8430   20.3744  -31.8034 H   0  0  0  0  0  0  0  0  0  0  0  0
   -5.4885   20.1475  -31.7660 H   0  0  0  0  0  0  0  0  0  0  0  0
  1  2  1  0
  2  3  1  0
  3  4  1  0
  4  5  2  0
  4  6  1  0
  6  7  1  0
  7  8  1  0
  8  9  1  0
  9 10  2  0
  9 11  1  0
 11 12  1  0
 12 13  1  0
 13 14  1  0
 13 15  2  0
 12 16  2  0
 16 17  1  0
 17 18  2  0
 18 19  1  0
 19 20  2  0
 20 21  1  0
 21 22  1  0
 21 23  1  0
 21 24  1  0
 20 25  1  0
 25 26  2  0
 26 11  1  0
 26 17  1  0
  1 27  1  0
  1 28  1  0
  1 29  1  0
  2 30  1  0
  2 31  1  0
  6 32  1  0
  6 33  1  0
  7 34  1  0
  7 35  1  0
 14 36  1  0
 16 37  1  0
 18 38  1  0
 19 39  1  0
 25 40  1  0
M  CHG  1  14  -1
M  END
>  <UniqueID>  (53) 
51

>  <SMILES>  (53) 
CCOC(=O)CCOC(=O)n1c(C([NH-])=O)cc2ccc(C(F)(F)F)cc21

>  <Energy>  (53) 
70.54964530730638

>  <Genealogy>  (53) 
CCOC(=O)CCOC(=O)n1c(C([NH-])=O)cc2ccc(C(F)(F)F)cc21 (protonated)
CCOC(=O)CCOC(=O)n1c(C([NH-])=O)cc2ccc(C(F)(F)F)cc21 (3D coordinates assigned)
CCOC(=O)CCOC(=O)n1c(C([NH-])=O)cc2ccc(C(F)(F)F)cc21 (optimized conformer: 70.54964530730638 kcal/mol)

>  <smiles>  (53) 
CCOC(=O)CCOC(=O)n1c(C(N)=O)cc2ccc(C(F)(F)F)cc21

>  <score_type>  (53) 
oracle

>  <origin>  (53) 
adg

>  <m_score__min__energy>  (53) 
-10.02

>  <m_primary>  (53) 
energy

$$$$
53:0
     RDKit          3D

 43 44  0  0  0  0  0  0  0  0999 V2000
   -5.4600   18.1960  -34.6050 C   0  0  0  0  0  0  0  0  0  0  0  0
   -5.3090   17.7850  -33.2520 O   0  0  0  0  0  0  0  0  0  0  0  0
   -6.3410   17.8880  -32.3150 C   0  0  0  0  0  0  0  0  0  0  0  0
   -6.1720   17.5010  -31.1270 O   0  0  0  0  0  0  0  0  0  0  0  0
   -7.6410   18.5080  -32.7160 C   0  0  0  0  0  0  0  0  0  0  0  0
   -7.6940   19.9340  -32.2460 C   0  0  0  0  0  0  0  0  0  0  0  0
   -8.9360   20.6120  -32.1590 C   0  0  0  0  0  0  0  0  0  0  0  0
   -8.9900   21.9590  -31.7620 C   0  0  0  0  0  0  0  0  0  0  0  0
   -7.7910   22.5990  -31.4600 C   0  0  0  0  0  0  0  0  0  0  0  0
   -7.5480   23.9000  -31.0830 C   0  0  0  0  0  0  0  0  0  0  0  0
   -6.1630   23.9920  -30.9410 C   0  0  0  0  0  0  0  0  0  0  0  0
   -5.4600   25.2170  -30.5060 C   0  0  0  0  0  0  0  0  0  0  0  0
   -4.0380   25.3040  -30.5540 N   0  0  0  0  0  0  0  0  0  0  0  0
   -6.1210   26.1920  -30.0600 O   0  0  0  0  0  0  0  0  0  0  0  0
   -5.5790   22.7940  -31.2180 N   0  0  0  0  0  0  0  0  0  0  0  0
   -4.1780   22.4830  -31.2510 C   0  0  0  0  0  0  0  0  0  0  0  0
   -3.5840   22.4280  -32.3600 O   0  0  0  0  0  0  0  0  0  0  0  0
   -3.4400   22.2270  -29.9940 C   0  0  0  0  0  0  0  0  0  0  0  0
   -3.0560   21.0500  -29.7480 O   0  0  0  0  0  0  0  0  0  0  0  0
   -3.1270   23.3030  -29.0750 N   0  0  1  0  0  0  0  0  0  0  0  0
   -4.0780   23.3420  -27.9500 C   0  0  0  0  0  0  0  0  0  0  0  0
   -1.7150   23.2370  -28.6270 C   0  0  0  0  0  0  0  0  0  0  0  0
   -0.9560   24.5230  -28.8200 C   0  0  0  0  0  0  0  0  0  0  0  0
    0.2710   24.5830  -28.5440 O   0  0  0  0  0  0  0  0  0  0  0  0
   -1.6020   25.6500  -29.3110 O   0  0  0  0  0  0  0  0  0  0  0  0
   -6.5850   21.9540  -31.5380 C   0  0  0  0  0  0  0  0  0  0  0  0
   -6.4980   20.6210  -31.9470 C   0  0  0  0  0  0  0  0  0  0  0  0
   -5.8392   19.2281  -34.6345 H   0  0  0  0  0  0  0  0  0  0  0  0
   -4.4857   18.1486  -35.1135 H   0  0  0  0  0  0  0  0  0  0  0  0
   -6.1718   17.5291  -35.1135 H   0  0  0  0  0  0  0  0  0  0  0  0
   -7.7352   18.4813  -33.8116 H   0  0  0  0  0  0  0  0  0  0  0  0
   -8.4674   17.9448  -32.2579 H   0  0  0  0  0  0  0  0  0  0  0  0
   -9.8662   20.0787  -32.4046 H   0  0  0  0  0  0  0  0  0  0  0  0
   -9.9501   22.4913  -31.6920 H   0  0  0  0  0  0  0  0  0  0  0  0
   -8.2886   24.6982  -30.9267 H   0  0  0  0  0  0  0  0  0  0  0  0
   -3.4940   25.6740  -29.7430 H   0  0  0  0  0  0  0  0  0  0  0  0
   -3.2400   24.2170  -29.5740 H   0  0  0  0  0  0  0  0  0  0  0  0
   -3.5235   23.3193  -27.0002 H   0  0  0  0  0  0  0  0  0  0  0  0
   -4.6734   24.2653  -28.0050 H   0  0  0  0  0  0  0  0  0  0  0  0
   -4.7470   22.4705  -28.0050 H   0  0  0  0  0  0  0  0  0  0  0  0
   -1.7021   22.9839  -27.5566 H   0  0  0  0  0  0  0  0  0  0  0  0
   -1.2177   22.4753  -29.2455 H   0  0  0  0  0  0  0  0  0  0  0  0
   -5.5226   20.1199  -32.0337 H   0  0  0  0  0  0  0  0  0  0  0  0
  1  2  1  0
  2  3  1  0
  3  4  2  0
  3  5  1  0
  5  6  1  0
  6  7  2  0
  7  8  1  0
  8  9  2  0
  9 10  1  0
 10 11  2  0
 11 12  1  0
 12 13  1  0
 12 14  2  0
 11 15  1  0
 15 16  1  0
 16 17  2  0
 16 18  1  0
 18 19  2  0
 18 20  1  0
 20 21  1  0
 20 22  1  0
 22 23  1  0
 23 24  2  0
 23 25  1  0
 15 26  1  0
 26 27  2  0
 27  6  1  0
 26  9  1  0
  1 28  1  0
  1 29  1  0
  1 30  1  0
  5 31  1  0
  5 32  1  0
  7 33  1  0
  8 34  1  0
 10 35  1  0
 13 36  1  0
 20 37  1  6
 21 38  1  0
 21 39  1  0
 21 40  1  0
 22 41  1  0
 22 42  1  0
 27 43  1  0
M  CHG  3  13  -1  20   1  25  -1
M  END
>  <UniqueID>  (54) 
52

>  <SMILES>  (54) 
COC(=O)Cc1ccc2cc(C([NH-])=O)n(C(=O)C(=O)[N@@H+](C)CC(=O)[O-])c2c1

>  <Energy>  (54) 
81.83037507614068

>  <Genealogy>  (54) 
COC(=O)Cc1ccc2cc(C([NH-])=O)n(C(=O)C(=O)[NH+](C)CC(=O)[O-])c2c1 (protonated)
COC(=O)Cc1ccc2cc(C([NH-])=O)n(C(=O)C(=O)[N@@H+](C)CC(=O)[O-])c2c1 (chirality)
COC(=O)Cc1ccc2cc(C([NH-])=O)n(C(=O)C(=O)[N@@H+](C)CC(=O)[O-])c2c1 (3D coordinates assigned)
COC(=O)Cc1ccc2cc(C([NH-])=O)n(C(=O)C(=O)[N@@H+](C)CC(=O)[O-])c2c1 (optimized conformer: 81.83037507614068 kcal/mol)

>  <smiles>  (54) 
COC(=O)Cc1ccc2cc(C(N)=O)n(C(=O)C(=O)N(C)CC(=O)O)c2c1

>  <score_type>  (54) 
oracle

>  <origin>  (54) 
adg

>  <m_score__min__energy>  (54) 
-11.73

>  <m_primary>  (54) 
energy

$$$$
54:0
     RDKit          3D

 31 32  0  0  0  0  0  0  0  0999 V2000
   -3.5930   22.1940  -28.4810 C   0  0  0  0  0  0  0  0  0  0  0  0
   -3.1410   22.8970  -29.5280 C   0  0  0  0  0  0  0  0  0  0  0  0
   -2.0450   23.8820  -29.3450 C   0  0  0  0  0  0  0  0  0  0  0  0
   -0.8560   23.4990  -29.1770 O   0  0  0  0  0  0  0  0  0  0  0  0
   -2.3150   25.2450  -29.3440 O   0  0  0  0  0  0  0  0  0  0  0  0
   -3.7290   22.6750  -30.8750 C   0  0  0  0  0  0  0  0  0  0  0  0
   -2.9760   22.4210  -31.8530 O   0  0  0  0  0  0  0  0  0  0  0  0
   -5.1510   22.7320  -31.0840 N   0  0  0  0  0  0  0  0  0  0  0  0
   -5.9750   23.7960  -30.8760 C   0  0  0  0  0  0  0  0  0  0  0  0
   -5.5300   25.1600  -30.5070 C   0  0  0  0  0  0  0  0  0  0  0  0
   -4.1760   25.5720  -30.7100 N   0  0  0  0  0  0  0  0  0  0  0  0
   -6.3440   25.9720  -29.9910 O   0  0  0  0  0  0  0  0  0  0  0  0
   -7.3000   23.4380  -31.1240 C   0  0  0  0  0  0  0  0  0  0  0  0
   -7.2590   22.1090  -31.4830 C   0  0  0  0  0  0  0  0  0  0  0  0
   -8.2910   21.2380  -31.8220 C   0  0  0  0  0  0  0  0  0  0  0  0
   -7.9570   19.9070  -32.1230 C   0  0  0  0  0  0  0  0  0  0  0  0
   -6.6080   19.4720  -32.0750 C   0  0  0  0  0  0  0  0  0  0  0  0
   -6.2570   18.0440  -32.3830 C   0  0  0  0  0  0  0  0  0  0  0  0
   -7.1220   17.5480  -33.3420 F   0  0  0  0  0  0  0  0  0  0  0  0
   -6.3590   17.2800  -31.2350 F   0  0  0  0  0  0  0  0  0  0  0  0
   -5.5900   20.3840  -31.7230 C   0  0  0  0  0  0  0  0  0  0  0  0
   -5.9500   21.7070  -31.4460 C   0  0  0  0  0  0  0  0  0  0  0  0
   -4.4049   21.4645  -28.6176 H   0  0  0  0  0  0  0  0  0  0  0  0
   -3.1522   22.3462  -27.4847 H   0  0  0  0  0  0  0  0  0  0  0  0
   -3.4860   24.9580  -31.1930 H   0  0  0  0  0  0  0  0  0  0  0  0
   -3.8700   26.5240  -30.4110 H   0  0  0  0  0  0  0  0  0  0  0  0
   -8.1894   24.0809  -31.0488 H   0  0  0  0  0  0  0  0  0  0  0  0
   -9.3356   21.5814  -31.8532 H   0  0  0  0  0  0  0  0  0  0  0  0
   -8.7493   19.1955  -32.3985 H   0  0  0  0  0  0  0  0  0  0  0  0
   -5.2251   18.0004  -32.7614 H   0  0  0  0  0  0  0  0  0  0  0  0
   -4.5395   20.0624  -31.6679 H   0  0  0  0  0  0  0  0  0  0  0  0
  1  2  2  0
  2  3  1  0
  3  4  2  0
  3  5  1  0
  2  6  1  0
  6  7  2  0
  6  8  1  0
  8  9  1  0
  9 10  1  0
 10 11  1  0
 10 12  2  0
  9 13  2  0
 13 14  1  0
 14 15  2  0
 15 16  1  0
 16 17  2  0
 17 18  1  0
 18 19  1  0
 18 20  1  0
 17 21  1  0
 21 22  2  0
 22  8  1  0
 22 14  1  0
  1 23  1  0
  1 24  1  0
 11 25  1  0
 11 26  1  0
 13 27  1  0
 15 28  1  0
 16 29  1  0
 18 30  1  0
 21 31  1  0
M  CHG  1   5  -1
M  END
>  <UniqueID>  (55) 
53

>  <SMILES>  (55) 
C=C(C(=O)[O-])C(=O)n1c(C(N)=O)cc2ccc(C(F)F)cc21

>  <Energy>  (55) 
71.81033165239423

>  <Genealogy>  (55) 
C=C(C(=O)[O-])C(=O)n1c(C(N)=O)cc2ccc(C(F)F)cc21 (protonated)
C=C(C(=O)[O-])C(=O)n1c(C(N)=O)cc2ccc(C(F)F)cc21 (3D coordinates assigned)
C=C(C(=O)[O-])C(=O)n1c(C(N)=O)cc2ccc(C(F)F)cc21 (optimized conformer: 71.81033165239423 kcal/mol)

>  <smiles>  (55) 
C=C(C(=O)O)C(=O)n1c(C(N)=O)cc2ccc(C(F)F)cc21

>  <score_type>  (55) 
oracle

>  <origin>  (55) 
adg

>  <m_score__min__energy>  (55) 
-10.109999999999999

>  <m_primary>  (55) 
energy

$$$$
55:0
     RDKit          3D

 42 43  0  0  0  0  0  0  0  0999 V2000
   -3.2210   19.8300  -33.6320 C   0  0  0  0  0  0  0  0  0  0  0  0
   -2.6220   20.9090  -32.7080 C   0  0  0  0  0  0  0  0  0  0  0  0
   -1.1910   21.2700  -33.1470 C   0  0  0  0  0  0  0  0  0  0  0  0
   -2.5810   20.3630  -31.2730 C   0  0  0  0  0  0  0  0  0  0  0  0
   -3.4560   22.0760  -32.6920 O   0  0  0  0  0  0  0  0  0  0  0  0
   -3.9800   22.7100  -31.5560 C   0  0  0  0  0  0  0  0  0  0  0  0
   -3.2180   23.2070  -30.6830 O   0  0  0  0  0  0  0  0  0  0  0  0
   -5.4050   22.8050  -31.3950 N   0  0  0  0  0  0  0  0  0  0  0  0
   -6.1230   23.8790  -30.9610 C   0  0  0  0  0  0  0  0  0  0  0  0
   -5.5630   25.1250  -30.4000 C   0  0  0  0  0  0  0  0  0  0  0  0
   -4.2330   25.5430  -30.7080 N   0  0  0  0  0  0  0  0  0  0  0  0
   -6.2520   25.8030  -29.5920 O   0  0  0  0  0  0  0  0  0  0  0  0
   -7.4890   23.6320  -31.0710 C   0  0  0  0  0  0  0  0  0  0  0  0
   -7.5880   22.3570  -31.5780 C   0  0  0  0  0  0  0  0  0  0  0  0
   -8.7150   21.6100  -31.9060 C   0  0  0  0  0  0  0  0  0  0  0  0
   -8.5210   20.3300  -32.4540 C   0  0  0  0  0  0  0  0  0  0  0  0
   -7.2150   19.8230  -32.6740 C   0  0  0  0  0  0  0  0  0  0  0  0
   -7.0620   18.5100  -33.2490 N   0  0  0  0  0  0  0  0  0  0  0  0
   -5.9000   17.6470  -33.0330 C   0  0  0  0  0  0  0  0  0  0  0  0
   -6.1120   16.3040  -33.6650 C   0  0  0  0  0  0  0  0  0  0  0  0
   -7.1630   16.0570  -34.2340 O   0  0  0  0  0  0  0  0  0  0  0  0
   -6.0950   20.6170  -32.3300 C   0  0  0  0  0  0  0  0  0  0  0  0
   -6.3170   21.8800  -31.7660 C   0  0  0  0  0  0  0  0  0  0  0  0
   -3.6652   19.0299  -33.0216 H   0  0  0  0  0  0  0  0  0  0  0  0
   -3.9979   20.2810  -34.2669 H   0  0  0  0  0  0  0  0  0  0  0  0
   -2.4274   19.4092  -34.2669 H   0  0  0  0  0  0  0  0  0  0  0  0
   -0.5635   21.4283  -32.2575 H   0  0  0  0  0  0  0  0  0  0  0  0
   -0.7739   20.4489  -33.7486 H   0  0  0  0  0  0  0  0  0  0  0  0
   -1.2133   22.1907  -33.7486 H   0  0  0  0  0  0  0  0  0  0  0  0
   -2.6438   21.1989  -30.5607 H   0  0  0  0  0  0  0  0  0  0  0  0
   -3.4306   19.6823  -31.1153 H   0  0  0  0  0  0  0  0  0  0  0  0
   -1.6393   19.8168  -31.1153 H   0  0  0  0  0  0  0  0  0  0  0  0
   -3.5790   24.9210  -31.2320 H   0  0  0  0  0  0  0  0  0  0  0  0
   -3.8690   26.4480  -30.3350 H   0  0  0  0  0  0  0  0  0  0  0  0
   -8.3132   24.3115  -30.8085 H   0  0  0  0  0  0  0  0  0  0  0  0
   -9.7269   22.0088  -31.7416 H   0  0  0  0  0  0  0  0  0  0  0  0
   -9.3937   19.7136  -32.7156 H   0  0  0  0  0  0  0  0  0  0  0  0
   -7.8440   18.1230  -33.8250 H   0  0  0  0  0  0  0  0  0  0  0  0
   -5.0118   18.1193  -33.4781 H   0  0  0  0  0  0  0  0  0  0  0  0
   -5.7578   17.5099  -31.9509 H   0  0  0  0  0  0  0  0  0  0  0  0
   -5.3205   15.5416  -33.6158 H   0  0  0  0  0  0  0  0  0  0  0  0
   -5.0723   20.2503  -32.5018 H   0  0  0  0  0  0  0  0  0  0  0  0
  1  2  1  0
  2  3  1  0
  2  4  1  0
  2  5  1  0
  5  6  1  0
  6  7  2  0
  6  8  1  0
  8  9  1  0
  9 10  1  0
 10 11  1  0
 10 12  2  0
  9 13  2  0
 13 14  1  0
 14 15  2  0
 15 16  1  0
 16 17  2  0
 17 18  1  0
 18 19  1  0
 19 20  1  0
 20 21  2  0
 17 22  1  0
 22 23  2  0
 23  8  1  0
 23 14  1  0
  1 24  1  0
  1 25  1  0
  1 26  1  0
  3 27  1  0
  3 28  1  0
  3 29  1  0
  4 30  1  0
  4 31  1  0
  4 32  1  0
 11 33  1  0
 11 34  1  0
 13 35  1  0
 15 36  1  0
 16 37  1  0
 18 38  1  0
 19 39  1  0
 19 40  1  0
 20 41  1  0
 22 42  1  0
M  END
>  <UniqueID>  (56) 
54

>  <SMILES>  (56) 
CC(C)(C)OC(=O)n1c(C(N)=O)cc2ccc(NCC=O)cc21

>  <Energy>  (56) 
73.68921022866967

>  <Genealogy>  (56) 
CC(C)(C)OC(=O)n1c(C(N)=O)cc2ccc(NCC=O)cc21 (3D coordinates assigned)
CC(C)(C)OC(=O)n1c(C(N)=O)cc2ccc(NCC=O)cc21 (optimized conformer: 73.68921022866967 kcal/mol)

>  <smiles>  (56) 
CC(C)(C)OC(=O)n1c(C(N)=O)cc2ccc(NCC=O)cc21

>  <score_type>  (56) 
oracle

>  <origin>  (56) 
adg

>  <m_score__min__energy>  (56) 
-8.0800000000000001

>  <m_primary>  (56) 
energy

$$$$
56:0
     RDKit          3D

 34 35  0  0  0  0  0  0  0  0999 V2000
   -6.1900   18.0420  -33.5980 C   0  0  0  0  0  0  0  0  0  0  0  0
   -7.3970   18.6590  -33.0570 N   0  0  0  0  0  0  0  0  0  0  0  0
   -7.4410   20.0060  -32.5490 C   0  0  0  0  0  0  0  0  0  0  0  0
   -8.6970   20.6450  -32.4000 C   0  0  0  0  0  0  0  0  0  0  0  0
   -8.7820   21.9620  -31.9150 C   0  0  0  0  0  0  0  0  0  0  0  0
   -7.5990   22.6110  -31.5780 C   0  0  0  0  0  0  0  0  0  0  0  0
   -7.3900   23.8900  -31.1130 C   0  0  0  0  0  0  0  0  0  0  0  0
   -6.0090   24.0110  -30.9710 C   0  0  0  0  0  0  0  0  0  0  0  0
   -5.3380   25.2210  -30.4520 C   0  0  0  0  0  0  0  0  0  0  0  0
   -4.0010   25.5180  -30.8510 N   0  0  0  0  0  0  0  0  0  0  0  0
   -5.9380   26.0060  -29.6730 O   0  0  0  0  0  0  0  0  0  0  0  0
   -5.3910   22.8510  -31.3310 N   0  0  0  0  0  0  0  0  0  0  0  0
   -3.9790   22.5920  -31.3860 C   0  0  0  0  0  0  0  0  0  0  0  0
   -3.4650   22.1750  -32.4580 O   0  0  0  0  0  0  0  0  0  0  0  0
   -3.1270   22.8080  -30.2080 C   0  0  0  0  0  0  0  0  0  0  0  0
   -3.6080   22.6780  -29.0500 O   0  0  0  0  0  0  0  0  0  0  0  0
   -1.7560   23.1820  -30.3810 N   0  0  0  0  0  0  0  0  0  0  0  0
   -0.7990   23.2830  -29.2850 C   0  0  0  0  0  0  0  0  0  0  0  0
   -0.7020   24.6950  -28.7940 C   0  0  0  0  0  0  0  0  0  0  0  0
    0.2250   25.0230  -28.0070 O   0  0  0  0  0  0  0  0  0  0  0  0
   -1.5950   25.6630  -29.2410 O   0  0  0  0  0  0  0  0  0  0  0  0
   -6.3770   22.0060  -31.7040 C   0  0  0  0  0  0  0  0  0  0  0  0
   -6.2580   20.7040  -32.2010 C   0  0  0  0  0  0  0  0  0  0  0  0
   -5.5445   17.7120  -32.7707 H   0  0  0  0  0  0  0  0  0  0  0  0
   -6.4667   17.1748  -34.2155 H   0  0  0  0  0  0  0  0  0  0  0  0
   -5.6491   18.7742  -34.2155 H   0  0  0  0  0  0  0  0  0  0  0  0
   -8.2670   18.0800  -33.0280 H   0  0  0  0  0  0  0  0  0  0  0  0
   -9.6168   20.1040  -32.6671 H   0  0  0  0  0  0  0  0  0  0  0  0
   -9.7547   22.4638  -31.8054 H   0  0  0  0  0  0  0  0  0  0  0  0
   -8.1516   24.6543  -30.8990 H   0  0  0  0  0  0  0  0  0  0  0  0
   -3.1940   24.9740  -30.4710 H   0  0  0  0  0  0  0  0  0  0  0  0
   -1.1269   22.6352  -28.4586 H   0  0  0  0  0  0  0  0  0  0  0  0
    0.1897   22.9669  -29.6491 H   0  0  0  0  0  0  0  0  0  0  0  0
   -5.2706   20.2336  -32.3188 H   0  0  0  0  0  0  0  0  0  0  0  0
  1  2  1  0
  2  3  1  0
  3  4  2  0
  4  5  1  0
  5  6  2  0
  6  7  1  0
  7  8  2  0
  8  9  1  0
  9 10  1  0
  9 11  2  0
  8 12  1  0
 12 13  1  0
 13 14  2  0
 13 15  1  0
 15 16  2  0
 15 17  1  0
 17 18  1  0
 18 19  1  0
 19 20  2  0
 19 21  1  0
 12 22  1  0
 22 23  2  0
 23  3  1  0
 22  6  1  0
  1 24  1  0
  1 25  1  0
  1 26  1  0
  2 27  1  0
  4 28  1  0
  5 29  1  0
  7 30  1  0
 10 31  1  0
 18 32  1  0
 18 33  1  0
 23 34  1  0
M  CHG  3  10  -1  17  -1  21  -1
M  END
>  <UniqueID>  (57) 
55

>  <SMILES>  (57) 
CNc1ccc2cc(C([NH-])=O)n(C(=O)C(=O)[N-]CC(=O)[O-])c2c1

>  <Energy>  (57) 
69.1098125076533

>  <Genealogy>  (57) 
CNc1ccc2cc(C([NH-])=O)n(C(=O)C(=O)[N-]CC(=O)[O-])c2c1 (protonated)
CNc1ccc2cc(C([NH-])=O)n(C(=O)C(=O)[N-]CC(=O)[O-])c2c1 (3D coordinates assigned)
CNc1ccc2cc(C([NH-])=O)n(C(=O)C(=O)[N-]CC(=O)[O-])c2c1 (optimized conformer: 69.1098125076533 kcal/mol)

>  <smiles>  (57) 
CNc1ccc2cc(C(N)=O)n(C(=O)C(=O)NCC(=O)O)c2c1

>  <score_type>  (57) 
oracle

>  <origin>  (57) 
adg

>  <m_score__min__energy>  (57) 
-12.75

>  <m_primary>  (57) 
energy

$$$$
57:0
     RDKit          3D

 42 43  0  0  0  0  0  0  0  0999 V2000
   -2.9030   25.3500  -26.0820 C   0  0  0  0  0  0  0  0  0  0  0  0
   -1.6050   24.8310  -25.8980 O   0  0  0  0  0  0  0  0  0  0  0  0
   -0.6580   25.7550  -26.3910 C   0  0  0  0  0  0  0  0  0  0  0  0
    0.5620   24.9980  -26.9140 C   0  0  0  0  0  0  0  0  0  0  0  0
    0.3370   24.5270  -28.2420 O   0  0  0  0  0  0  0  0  0  0  0  0
   -0.9380   24.3150  -28.7790 C   0  0  0  0  0  0  0  0  0  0  0  0
   -1.5840   25.2700  -29.2940 O   0  0  0  0  0  0  0  0  0  0  0  0
   -1.4850   23.0300  -28.7380 O   0  0  0  0  0  0  0  0  0  0  0  0
   -2.8720   22.7870  -28.5340 C   0  0  0  0  0  0  0  0  0  0  0  0
   -3.3780   21.9970  -29.6040 O   0  0  0  0  0  0  0  0  0  0  0  0
   -3.8030   22.5440  -30.8180 C   0  0  0  0  0  0  0  0  0  0  0  0
   -2.9640   22.8110  -31.7220 O   0  0  0  0  0  0  0  0  0  0  0  0
   -5.1970   22.8210  -31.0240 N   0  0  0  0  0  0  0  0  0  0  0  0
   -5.8560   24.0000  -30.8310 C   0  0  0  0  0  0  0  0  0  0  0  0
   -5.2370   25.2960  -30.4860 C   0  0  0  0  0  0  0  0  0  0  0  0
   -3.8720   25.5410  -30.8190 N   0  0  0  0  0  0  0  0  0  0  0  0
   -5.8880   26.1770  -29.8660 O   0  0  0  0  0  0  0  0  0  0  0  0
   -7.2160   23.8480  -31.0940 C   0  0  0  0  0  0  0  0  0  0  0  0
   -7.3710   22.5330  -31.4680 C   0  0  0  0  0  0  0  0  0  0  0  0
   -8.5170   21.8420  -31.8490 C   0  0  0  0  0  0  0  0  0  0  0  0
   -8.3890   20.4810  -32.1730 C   0  0  0  0  0  0  0  0  0  0  0  0
   -7.1300   19.8310  -32.0860 C   0  0  0  0  0  0  0  0  0  0  0  0
   -6.9890   18.3770  -32.4620 C   0  0  0  0  0  0  0  0  0  0  0  0
   -8.1960   17.7180  -32.2990 F   0  0  0  0  0  0  0  0  0  0  0  0
   -6.0390   17.7870  -31.6480 F   0  0  0  0  0  0  0  0  0  0  0  0
   -6.5960   18.2430  -33.7840 F   0  0  0  0  0  0  0  0  0  0  0  0
   -5.9860   20.5750  -31.7160 C   0  0  0  0  0  0  0  0  0  0  0  0
   -6.1400   21.9340  -31.4180 C   0  0  0  0  0  0  0  0  0  0  0  0
   -3.3662   25.5352  -25.1016 H   0  0  0  0  0  0  0  0  0  0  0  0
   -2.8443   26.2938  -26.6440 H   0  0  0  0  0  0  0  0  0  0  0  0
   -3.5112   24.6259  -26.6440 H   0  0  0  0  0  0  0  0  0  0  0  0
   -1.1059   26.3394  -27.2083 H   0  0  0  0  0  0  0  0  0  0  0  0
   -0.3510   26.4346  -25.5823 H   0  0  0  0  0  0  0  0  0  0  0  0
    1.4317   25.6716  -26.9131 H   0  0  0  0  0  0  0  0  0  0  0  0
    0.7461   24.1327  -26.2602 H   0  0  0  0  0  0  0  0  0  0  0  0
   -3.0145   22.2515  -27.5837 H   0  0  0  0  0  0  0  0  0  0  0  0
   -3.4108   23.7454  -28.4994 H   0  0  0  0  0  0  0  0  0  0  0  0
   -3.1540   24.7900  -30.7240 H   0  0  0  0  0  0  0  0  0  0  0  0
   -7.9995   24.6164  -31.0186 H   0  0  0  0  0  0  0  0  0  0  0  0
   -9.4936   22.3461  -31.8951 H   0  0  0  0  0  0  0  0  0  0  0  0
   -9.2735   19.9132  -32.4975 H   0  0  0  0  0  0  0  0  0  0  0  0
   -4.9969   20.0965  -31.6635 H   0  0  0  0  0  0  0  0  0  0  0  0
  1  2  1  0
  2  3  1  0
  3  4  1  0
  4  5  1  0
  5  6  1  0
  6  7  2  0
  6  8  1  0
  8  9  1  0
  9 10  1  0
 10 11  1  0
 11 12  2  0
 11 13  1  0
 13 14  1  0
 14 15  1  0
 15 16  1  0
 15 17  2  0
 14 18  2  0
 18 19  1  0
 19 20  2  0
 20 21  1  0
 21 22  2  0
 22 23  1  0
 23 24  1  0
 23 25  1  0
 23 26  1  0
 22 27  1  0
 27 28  2  0
 28 13  1  0
 28 19  1  0
  1 29  1  0
  1 30  1  0
  1 31  1  0
  3 32  1  0
  3 33  1  0
  4 34  1  0
  4 35  1  0
  9 36  1  0
  9 37  1  0
 16 38  1  0
 18 39  1  0
 20 40  1  0
 21 41  1  0
 27 42  1  0
M  CHG  1  16  -1
M  END
>  <UniqueID>  (58) 
56

>  <SMILES>  (58) 
COCCOC(=O)OCOC(=O)n1c(C([NH-])=O)cc2ccc(C(F)(F)F)cc21

>  <Energy>  (58) 
74.32627199920827

>  <Genealogy>  (58) 
COCCOC(=O)OCOC(=O)n1c(C([NH-])=O)cc2ccc(C(F)(F)F)cc21 (protonated)
COCCOC(=O)OCOC(=O)n1c(C([NH-])=O)cc2ccc(C(F)(F)F)cc21 (3D coordinates assigned)
COCCOC(=O)OCOC(=O)n1c(C([NH-])=O)cc2ccc(C(F)(F)F)cc21 (optimized conformer: 74.32627199920827 kcal/mol)

>  <smiles>  (58) 
COCCOC(=O)OCOC(=O)n1c(C(N)=O)cc2ccc(C(F)(F)F)cc21

>  <score_type>  (58) 
oracle

>  <origin>  (58) 
adg

>  <m_score__min__energy>  (58) 
-9.5999999999999996

>  <m_primary>  (58) 
energy

$$$$
58:0
     RDKit          3D

 39 40  0  0  0  0  0  0  0  0999 V2000
   -8.3980   18.5900  -32.7190 C   0  0  0  0  0  0  0  0  0  0  0  0
   -8.1710   19.9940  -32.2420 C   0  0  0  0  0  0  0  0  0  0  0  0
   -9.2740   20.8330  -31.9500 C   0  0  0  0  0  0  0  0  0  0  0  0
   -9.0720   22.1570  -31.5250 C   0  0  0  0  0  0  0  0  0  0  0  0
   -7.7620   22.6180  -31.4250 C   0  0  0  0  0  0  0  0  0  0  0  0
   -7.2820   23.8430  -31.0210 C   0  0  0  0  0  0  0  0  0  0  0  0
   -5.8950   23.7450  -31.1120 C   0  0  0  0  0  0  0  0  0  0  0  0
   -4.9760   24.8690  -30.8320 C   0  0  0  0  0  0  0  0  0  0  0  0
   -3.6150   24.6360  -30.4820 N   0  0  0  0  0  0  0  0  0  0  0  0
   -5.3900   26.0540  -30.9420 O   0  0  0  0  0  0  0  0  0  0  0  0
   -5.5330   22.5060  -31.5510 N   0  0  0  0  0  0  0  0  0  0  0  0
   -4.2070   21.9790  -31.7140 C   0  0  0  0  0  0  0  0  0  0  0  0
   -3.9220   21.3220  -32.7510 O   0  0  0  0  0  0  0  0  0  0  0  0
   -3.2170   22.2130  -30.7010 N   0  0  0  0  0  0  0  0  0  0  0  0
   -1.8170   21.9360  -30.8640 C   0  0  0  0  0  0  0  0  0  0  0  0
   -1.3830   21.4290  -31.9350 O   0  0  0  0  0  0  0  0  0  0  0  0
   -0.8920   22.2900  -29.8220 N   0  0  0  0  0  0  0  0  0  0  0  0
   -1.5880   22.2970  -28.5260 C   0  0  0  0  0  0  0  0  0  0  0  0
   -1.8100   23.7270  -28.0120 C   0  0  0  0  0  0  0  0  0  0  0  0
   -0.8720   24.6980  -28.6590 C   0  0  0  0  0  0  0  0  0  0  0  0
   -1.3220   25.6850  -29.3000 O   0  0  0  0  0  0  0  0  0  0  0  0
    0.5000   24.4950  -28.5830 O   0  0  0  0  0  0  0  0  0  0  0  0
   -6.6870   21.8290  -31.7380 C   0  0  0  0  0  0  0  0  0  0  0  0
   -6.8570   20.4990  -32.1400 C   0  0  0  0  0  0  0  0  0  0  0  0
   -8.5061   17.9213  -31.8523 H   0  0  0  0  0  0  0  0  0  0  0  0
   -9.3138   18.5529  -33.3272 H   0  0  0  0  0  0  0  0  0  0  0  0
   -7.5405   18.2662  -33.3272 H   0  0  0  0  0  0  0  0  0  0  0  0
  -10.2977   20.4448  -32.0568 H   0  0  0  0  0  0  0  0  0  0  0  0
   -9.9228   22.8093  -31.2788 H   0  0  0  0  0  0  0  0  0  0  0  0
   -7.8688   24.7146  -30.6953 H   0  0  0  0  0  0  0  0  0  0  0  0
   -2.8640   25.3010  -30.7740 H   0  0  0  0  0  0  0  0  0  0  0  0
   -3.5300   22.6430  -29.8030 H   0  0  0  0  0  0  0  0  0  0  0  0
   -0.1130   21.5920  -29.8140 H   0  0  0  0  0  0  0  0  0  0  0  0
   -0.4940   23.2390  -30.0190 H   0  0  0  0  0  0  0  0  0  0  0  0
   -2.5643   21.8038  -28.6423 H   0  0  0  0  0  0  0  0  0  0  0  0
   -0.9624   21.7620  -27.7963 H   0  0  0  0  0  0  0  0  0  0  0  0
   -2.8444   24.0290  -28.2329 H   0  0  0  0  0  0  0  0  0  0  0  0
   -1.6205   23.7360  -26.9285 H   0  0  0  0  0  0  0  0  0  0  0  0
   -5.9890   19.8639  -32.3704 H   0  0  0  0  0  0  0  0  0  0  0  0
  1  2  1  0
  2  3  2  0
  3  4  1  0
  4  5  2  0
  5  6  1  0
  6  7  2  0
  7  8  1  0
  8  9  1  0
  8 10  2  0
  7 11  1  0
 11 12  1  0
 12 13  2  0
 12 14  1  0
 14 15  1  0
 15 16  2  0
 15 17  1  0
 17 18  1  0
 18 19  1  0
 19 20  1  0
 20 21  2  0
 20 22  1  0
 11 23  1  0
 23 24  2  0
 24  2  1  0
 23  5  1  0
  1 25  1  0
  1 26  1  0
  1 27  1  0
  3 28  1  0
  4 29  1  0
  6 30  1  0
  9 31  1  0
 14 32  1  0
 17 33  1  0
 17 34  1  0
 18 35  1  0
 18 36  1  0
 19 37  1  0
 19 38  1  0
 24 39  1  0
M  CHG  3   9  -1  17   1  22  -1
M  END
>  <UniqueID>  (59) 
57

>  <SMILES>  (59) 
Cc1ccc2cc(C([NH-])=O)n(C(=O)NC(=O)[NH2+]CCC(=O)[O-])c2c1

>  <Energy>  (59) 
74.11210851918663

>  <Genealogy>  (59) 
Cc1ccc2cc(C([NH-])=O)n(C(=O)NC(=O)[NH2+]CCC(=O)[O-])c2c1 (protonated)
Cc1ccc2cc(C([NH-])=O)n(C(=O)NC(=O)[NH2+]CCC(=O)[O-])c2c1 (3D coordinates assigned)
Cc1ccc2cc(C([NH-])=O)n(C(=O)NC(=O)[NH2+]CCC(=O)[O-])c2c1 (optimized conformer: 74.11210851918663 kcal/mol)

>  <smiles>  (59) 
Cc1ccc2cc(C(N)=O)n(C(=O)NC(=O)NCCC(=O)O)c2c1

>  <score_type>  (59) 
oracle

>  <origin>  (59) 
adg

>  <m_score__min__energy>  (59) 
-11.949999999999999

>  <m_primary>  (59) 
energy

$$$$
59:0
     RDKit          3D

 38 39  0  0  0  0  0  0  0  0999 V2000
   -0.6240   26.6790  -27.8200 C   0  0  0  0  0  0  0  0  0  0  0  0
   -1.2170   26.0710  -28.9630 O   0  0  0  0  0  0  0  0  0  0  0  0
   -1.9200   24.8640  -28.8930 C   0  0  0  0  0  0  0  0  0  0  0  0
   -3.1800   24.8600  -28.8320 O   0  0  0  0  0  0  0  0  0  0  0  0
   -1.1840   23.5600  -28.8600 C   0  0  0  0  0  0  0  0  0  0  0  0
   -1.0410   23.0050  -30.1650 O   0  0  0  0  0  0  0  0  0  0  0  0
   -1.9670   22.1240  -30.7350 C   0  0  0  0  0  0  0  0  0  0  0  0
   -1.5860   21.0180  -31.2070 O   0  0  0  0  0  0  0  0  0  0  0  0
   -3.3470   22.5040  -30.7810 N   0  0  0  0  0  0  0  0  0  0  0  0
   -4.4150   21.6270  -31.1730 C   0  0  0  0  0  0  0  0  0  0  0  0
   -4.1820   20.4230  -31.4650 O   0  0  0  0  0  0  0  0  0  0  0  0
   -5.7630   22.1200  -31.2200 N   0  0  0  0  0  0  0  0  0  0  0  0
   -6.2120   23.3590  -30.8720 C   0  0  0  0  0  0  0  0  0  0  0  0
   -5.3580   24.4940  -30.4480 C   0  0  0  0  0  0  0  0  0  0  0  0
   -5.5960   25.1710  -29.2120 N   0  0  0  0  0  0  0  0  0  0  0  0
   -4.4180   24.8910  -31.1880 O   0  0  0  0  0  0  0  0  0  0  0  0
   -7.5960   23.4360  -31.0400 C   0  0  0  0  0  0  0  0  0  0  0  0
   -7.9780   22.1970  -31.5030 C   0  0  0  0  0  0  0  0  0  0  0  0
   -9.2410   21.7110  -31.8300 C   0  0  0  0  0  0  0  0  0  0  0  0
   -9.3440   20.3800  -32.2630 C   0  0  0  0  0  0  0  0  0  0  0  0
   -8.1920   19.5610  -32.3540 C   0  0  0  0  0  0  0  0  0  0  0  0
   -8.3090   18.2040  -32.7870 N   0  0  0  0  0  0  0  0  0  0  0  0
   -6.9250   20.0880  -32.0180 C   0  0  0  0  0  0  0  0  0  0  0  0
   -6.8520   21.4230  -31.6040 C   0  0  0  0  0  0  0  0  0  0  0  0
   -1.0525   26.2396  -26.9071 H   0  0  0  0  0  0  0  0  0  0  0  0
    0.4623   26.5064  -27.8350 H   0  0  0  0  0  0  0  0  0  0  0  0
   -0.8237   27.7606  -27.8350 H   0  0  0  0  0  0  0  0  0  0  0  0
   -0.1847   23.7249  -28.4307 H   0  0  0  0  0  0  0  0  0  0  0  0
   -1.7631   22.8535  -28.2472 H   0  0  0  0  0  0  0  0  0  0  0  0
   -3.5970   23.4600  -30.4450 H   0  0  0  0  0  0  0  0  0  0  0  0
   -5.0420   26.0230  -28.9690 H   0  0  0  0  0  0  0  0  0  0  0  0
   -6.3030   24.8280  -28.5270 H   0  0  0  0  0  0  0  0  0  0  0  0
   -8.2439   24.3030  -30.8439 H   0  0  0  0  0  0  0  0  0  0  0  0
  -10.1319   22.3514  -31.7513 H   0  0  0  0  0  0  0  0  0  0  0  0
  -10.3278   19.9693  -32.5340 H   0  0  0  0  0  0  0  0  0  0  0  0
   -8.3300   17.9650  -33.8040 H   0  0  0  0  0  0  0  0  0  0  0  0
   -8.3740   17.4250  -32.0920 H   0  0  0  0  0  0  0  0  0  0  0  0
   -6.0200   19.4657  -32.0801 H   0  0  0  0  0  0  0  0  0  0  0  0
  1  2  1  0
  2  3  1  0
  3  4  2  0
  3  5  1  0
  5  6  1  0
  6  7  1  0
  7  8  2  0
  7  9  1  0
  9 10  1  0
 10 11  2  0
 10 12  1  0
 12 13  1  0
 13 14  1  0
 14 15  1  0
 14 16  2  0
 13 17  2  0
 17 18  1  0
 18 19  2  0
 19 20  1  0
 20 21  2  0
 21 22  1  0
 21 23  1  0
 23 24  2  0
 24 12  1  0
 24 18  1  0
  1 25  1  0
  1 26  1  0
  1 27  1  0
  5 28  1  0
  5 29  1  0
  9 30  1  0
 15 31  1  0
 15 32  1  0
 17 33  1  0
 19 34  1  0
 20 35  1  0
 22 36  1  0
 22 37  1  0
 23 38  1  0
M  END
>  <UniqueID>  (60) 
58

>  <SMILES>  (60) 
COC(=O)COC(=O)NC(=O)n1c(C(N)=O)cc2ccc(N)cc21

>  <Energy>  (60) 
72.21615664299566

>  <Genealogy>  (60) 
COC(=O)COC(=O)NC(=O)n1c(C(N)=O)cc2ccc(N)cc21 (3D coordinates assigned)
COC(=O)COC(=O)NC(=O)n1c(C(N)=O)cc2ccc(N)cc21 (optimized conformer: 72.21615664299566 kcal/mol)

>  <smiles>  (60) 
COC(=O)COC(=O)NC(=O)n1c(C(N)=O)cc2ccc(N)cc21

>  <score_type>  (60) 
oracle

>  <origin>  (60) 
adg

>  <m_score__min__energy>  (60) 
-8.5700000000000003

>  <m_primary>  (60) 
energy

$$$$
60:0
     RDKit          3D

 41 42  0  0  0  0  0  0  0  0999 V2000
   -9.8470   21.3250  -31.9670 C   0  0  0  0  0  0  0  0  0  0  0  0
   -8.5200   21.6610  -31.4240 N   0  0  0  0  0  0  0  0  0  0  0  0
   -7.5410   20.6070  -31.7410 C   0  0  0  0  0  0  0  0  0  0  0  0
   -8.0600   23.0040  -31.8430 C   0  0  0  0  0  0  0  0  0  0  0  0
   -6.5700   23.1920  -31.7340 C   0  0  0  0  0  0  0  0  0  0  0  0
   -5.9380   23.7450  -32.6760 O   0  0  0  0  0  0  0  0  0  0  0  0
   -5.9020   22.7460  -30.5870 O   0  0  0  0  0  0  0  0  0  0  0  0
   -5.1920   23.6120  -29.7040 C   0  0  0  0  0  0  0  0  0  0  0  0
   -3.9260   24.1010  -30.3450 C   0  0  0  0  0  0  0  0  0  0  0  0
   -3.8900   25.2650  -30.8300 O   0  0  0  0  0  0  0  0  0  0  0  0
   -2.7920   23.2300  -30.4950 N   0  0  0  0  0  0  0  0  0  0  0  0
   -1.5780   23.3210  -29.8840 C   0  0  0  0  0  0  0  0  0  0  0  0
   -1.0890   24.4740  -29.1030 C   0  0  0  0  0  0  0  0  0  0  0  0
   -1.8830   25.6480  -28.9630 N   0  0  0  0  0  0  0  0  0  0  0  0
    0.0600   24.4400  -28.5870 O   0  0  0  0  0  0  0  0  0  0  0  0
   -0.7980   22.2060  -30.1820 C   0  0  0  0  0  0  0  0  0  0  0  0
   -1.5760   21.4280  -31.0120 C   0  0  0  0  0  0  0  0  0  0  0  0
   -1.3090   20.1950  -31.5980 C   0  0  0  0  0  0  0  0  0  0  0  0
   -2.3150   19.6070  -32.3850 C   0  0  0  0  0  0  0  0  0  0  0  0
   -3.5560   20.2670  -32.5890 C   0  0  0  0  0  0  0  0  0  0  0  0
   -4.6570   19.6060  -33.3800 C   0  0  0  0  0  0  0  0  0  0  0  0
   -4.1460   18.9130  -34.4630 F   0  0  0  0  0  0  0  0  0  0  0  0
   -5.3360   18.7240  -32.5620 F   0  0  0  0  0  0  0  0  0  0  0  0
   -5.5440   20.5560  -33.8540 F   0  0  0  0  0  0  0  0  0  0  0  0
   -3.7930   21.5120  -31.9610 C   0  0  0  0  0  0  0  0  0  0  0  0
   -2.7710   22.0730  -31.1870 C   0  0  0  0  0  0  0  0  0  0  0  0
  -10.5481   21.1475  -31.1382 H   0  0  0  0  0  0  0  0  0  0  0  0
  -10.2125   22.1589  -32.5842 H   0  0  0  0  0  0  0  0  0  0  0  0
   -9.7716   20.4176  -32.5842 H   0  0  0  0  0  0  0  0  0  0  0  0
   -7.1454   20.1811  -30.8071 H   0  0  0  0  0  0  0  0  0  0  0  0
   -8.0313   19.8152  -32.3263 H   0  0  0  0  0  0  0  0  0  0  0  0
   -6.7152   21.0376  -32.3263 H   0  0  0  0  0  0  0  0  0  0  0  0
   -8.3546   23.1612  -32.8911 H   0  0  0  0  0  0  0  0  0  0  0  0
   -8.5275   23.7317  -31.1634 H   0  0  0  0  0  0  0  0  0  0  0  0
   -5.8277   24.4747  -29.4558 H   0  0  0  0  0  0  0  0  0  0  0  0
   -4.9339   23.0533  -28.7923 H   0  0  0  0  0  0  0  0  0  0  0  0
   -2.8600   25.6840  -29.3280 H   0  0  0  0  0  0  0  0  0  0  0  0
    0.2219   21.9920  -29.8298 H   0  0  0  0  0  0  0  0  0  0  0  0
   -0.3403   19.6952  -31.4502 H   0  0  0  0  0  0  0  0  0  0  0  0
   -2.1389   18.6248  -32.8479 H   0  0  0  0  0  0  0  0  0  0  0  0
   -4.7579   22.0271  -32.0782 H   0  0  0  0  0  0  0  0  0  0  0  0
  1  2  1  0
  2  3  1  0
  2  4  1  0
  4  5  1  0
  5  6  2  0
  5  7  1  0
  7  8  1  0
  8  9  1  0
  9 10  2  0
  9 11  1  0
 11 12  1  0
 12 13  1  0
 13 14  1  0
 13 15  2  0
 12 16  2  0
 16 17  1  0
 17 18  2  0
 18 19  1  0
 19 20  2  0
 20 21  1  0
 21 22  1  0
 21 23  1  0
 21 24  1  0
 20 25  1  0
 25 26  2  0
 26 11  1  0
 26 17  1  0
  1 27  1  0
  1 28  1  0
  1 29  1  0
  3 30  1  0
  3 31  1  0
  3 32  1  0
  4 33  1  0
  4 34  1  0
  8 35  1  0
  8 36  1  0
 14 37  1  0
 16 38  1  0
 18 39  1  0
 19 40  1  0
 25 41  1  0
M  CHG  1  14  -1
M  END
>  <UniqueID>  (61) 
59

>  <SMILES>  (61) 
CN(C)CC(=O)OCC(=O)n1c(C([NH-])=O)cc2ccc(C(F)(F)F)cc21

>  <Energy>  (61) 
78.53361381589868

>  <Genealogy>  (61) 
CN(C)CC(=O)OCC(=O)n1c(C([NH-])=O)cc2ccc(C(F)(F)F)cc21 (protonated)
CN(C)CC(=O)OCC(=O)n1c(C([NH-])=O)cc2ccc(C(F)(F)F)cc21 (3D coordinates assigned)
CN(C)CC(=O)OCC(=O)n1c(C([NH-])=O)cc2ccc(C(F)(F)F)cc21 (optimized conformer: 78.53361381589868 kcal/mol)

>  <smiles>  (61) 
CN(C)CC(=O)OCC(=O)n1c(C(N)=O)cc2ccc(C(F)(F)F)cc21

>  <score_type>  (61) 
oracle

>  <origin>  (61) 
adg

>  <m_score__min__energy>  (61) 
-9.9600000000000009

>  <m_primary>  (61) 
energy

$$$$
61:0
     RDKit          3D

 40 41  0  0  0  0  0  0  0  0999 V2000
   -3.6270   21.9190  -28.8650 C   0  0  0  0  0  0  0  0  0  0  0  0
   -3.1610   22.7900  -29.9550 N   0  0  1  0  0  0  0  0  0  0  0  0
   -1.7170   22.6920  -30.0920 C   0  0  0  0  0  0  0  0  0  0  0  0
   -1.2220   21.7830  -30.7480 O   0  0  0  0  0  0  0  0  0  0  0  0
   -0.7980   23.6490  -29.3720 C   0  0  0  0  0  0  0  0  0  0  0  0
   -1.5530   24.8320  -28.8510 C   0  0  0  0  0  0  0  0  0  0  0  0
   -2.4780   24.6780  -28.0110 O   0  0  0  0  0  0  0  0  0  0  0  0
   -1.2370   26.1100  -29.2950 O   0  0  0  0  0  0  0  0  0  0  0  0
   -3.8350   22.4380  -31.1870 C   0  0  0  0  0  0  0  0  0  0  0  0
   -3.2120   21.8500  -32.1140 O   0  0  0  0  0  0  0  0  0  0  0  0
   -5.2460   22.6730  -31.3320 N   0  0  0  0  0  0  0  0  0  0  0  0
   -5.9470   23.7920  -30.9920 C   0  0  0  0  0  0  0  0  0  0  0  0
   -5.3730   25.0580  -30.4840 C   0  0  0  0  0  0  0  0  0  0  0  0
   -3.9670   25.2930  -30.5040 N   0  0  0  0  0  0  0  0  0  0  0  0
   -6.1400   25.9570  -30.0460 O   0  0  0  0  0  0  0  0  0  0  0  0
   -7.3070   23.6070  -31.2330 C   0  0  0  0  0  0  0  0  0  0  0  0
   -7.4190   22.3290  -31.7310 C   0  0  0  0  0  0  0  0  0  0  0  0
   -8.5480   21.6120  -32.1220 C   0  0  0  0  0  0  0  0  0  0  0  0
   -8.3680   20.2900  -32.5650 C   0  0  0  0  0  0  0  0  0  0  0  0
   -7.0750   19.7170  -32.5980 C   0  0  0  0  0  0  0  0  0  0  0  0
   -6.8990   18.3590  -33.0380 C   0  0  0  0  0  0  0  0  0  0  0  0
   -6.7410   17.2220  -33.4060 C   0  0  0  0  0  0  0  0  0  0  0  0
   -6.5420   15.8400  -33.8510 C   0  0  0  0  0  0  0  0  0  0  0  0
   -5.3870   15.3080  -33.2610 O   0  0  0  0  0  0  0  0  0  0  0  0
   -5.9560   20.4690  -32.1940 C   0  0  0  0  0  0  0  0  0  0  0  0
   -6.1610   21.7870  -31.7770 C   0  0  0  0  0  0  0  0  0  0  0  0
   -3.3806   22.3795  -27.8969 H   0  0  0  0  0  0  0  0  0  0  0  0
   -4.7163   21.7868  -28.9415 H   0  0  0  0  0  0  0  0  0  0  0  0
   -3.1325   20.9394  -28.9415 H   0  0  0  0  0  0  0  0  0  0  0  0
   -3.4230   23.7690  -29.6980 H   0  0  0  0  0  0  0  0  0  0  0  0
   -0.3236   23.1257  -28.5287 H   0  0  0  0  0  0  0  0  0  0  0  0
   -0.0379   24.0051  -30.0829 H   0  0  0  0  0  0  0  0  0  0  0  0
   -3.4720   25.6650  -29.6640 H   0  0  0  0  0  0  0  0  0  0  0  0
   -8.1188   24.3292  -31.0616 H   0  0  0  0  0  0  0  0  0  0  0  0
   -9.5491   22.0663  -32.0852 H   0  0  0  0  0  0  0  0  0  0  0  0
   -9.2372   19.6980  -32.8877 H   0  0  0  0  0  0  0  0  0  0  0  0
   -7.4124   15.2343  -33.5587 H   0  0  0  0  0  0  0  0  0  0  0  0
   -6.4280   15.8258  -34.9450 H   0  0  0  0  0  0  0  0  0  0  0  0
   -5.6230   14.3970  -32.9430 H   0  0  0  0  0  0  0  0  0  0  0  0
   -4.9470   20.0310  -32.2062 H   0  0  0  0  0  0  0  0  0  0  0  0
  1  2  1  0
  2  3  1  0
  3  4  2  0
  3  5  1  0
  5  6  1  0
  6  7  2  0
  6  8  1  0
  2  9  1  0
  9 10  2  0
  9 11  1  0
 11 12  1  0
 12 13  1  0
 13 14  1  0
 13 15  2  0
 12 16  2  0
 16 17  1  0
 17 18  2  0
 18 19  1  0
 19 20  2  0
 20 21  1  0
 21 22  3  0
 22 23  1  0
 23 24  1  0
 20 25  1  0
 25 26  2  0
 26 11  1  0
 26 17  1  0
  1 27  1  0
  1 28  1  0
  1 29  1  0
  2 30  1  1
  5 31  1  0
  5 32  1  0
 14 33  1  0
 16 34  1  0
 18 35  1  0
 19 36  1  0
 23 37  1  0
 23 38  1  0
 24 39  1  0
 25 40  1  0
M  CHG  3   2   1   8  -1  14  -1
M  END
>  <UniqueID>  (62) 
60

>  <SMILES>  (62) 
C[NH+](C(=O)CC(=O)[O-])C(=O)n1c(C([NH-])=O)cc2ccc(C#CCO)cc21

>  <Energy>  (62) 
74.45073782307651

>  <Genealogy>  (62) 
C[NH+](C(=O)CC(=O)[O-])C(=O)n1c(C([NH-])=O)cc2ccc(C#CCO)cc21 (protonated)
C[NH+](C(=O)CC(=O)[O-])C(=O)n1c(C([NH-])=O)cc2ccc(C#CCO)cc21 (3D coordinates assigned)
C[NH+](C(=O)CC(=O)[O-])C(=O)n1c(C([NH-])=O)cc2ccc(C#CCO)cc21 (optimized conformer: 74.45073782307651 kcal/mol)

>  <smiles>  (62) 
CN(C(=O)CC(=O)O)C(=O)n1c(C(N)=O)cc2ccc(C#CCO)cc21

>  <score_type>  (62) 
oracle

>  <origin>  (62) 
adg

>  <m_score__min__energy>  (62) 
-11.5

>  <m_primary>  (62) 
energy

$$$$
62:0
     RDKit          3D

 35 36  0  0  0  0  0  0  0  0999 V2000
   -3.4770   25.3460  -30.8990 H   0  0  0  0  0  0  0  0  0  0  0  0
   -4.2390   25.9440  -30.5080 N   0  0  0  0  0  0  0  0  0  0  0  0
   -5.5180   25.3970  -30.2030 C   0  0  0  0  0  0  0  0  0  0  0  0
   -6.3140   26.0510  -29.4800 O   0  0  0  0  0  0  0  0  0  0  0  0
   -5.9150   24.0930  -30.7740 C   0  0  0  0  0  0  0  0  0  0  0  0
   -7.2200   23.7890  -31.1540 C   0  0  0  0  0  0  0  0  0  0  0  0
   -8.0870   24.4659  -31.1628 H   0  0  0  0  0  0  0  0  0  0  0  0
   -7.1940   22.4620  -31.5160 C   0  0  0  0  0  0  0  0  0  0  0  0
   -8.2150   21.6400  -31.9770 C   0  0  0  0  0  0  0  0  0  0  0  0
   -9.2406   22.0211  -32.0903 H   0  0  0  0  0  0  0  0  0  0  0  0
   -7.9000   20.3090  -32.2940 C   0  0  0  0  0  0  0  0  0  0  0  0
   -8.6921   19.6374  -32.6565 H   0  0  0  0  0  0  0  0  0  0  0  0
   -6.5720   19.8140  -32.1540 C   0  0  0  0  0  0  0  0  0  0  0  0
   -6.2530   18.4390  -32.4970 N   0  0  0  0  0  0  0  0  0  0  0  0
   -6.3800   17.3710  -31.4970 C   0  0  0  0  0  0  0  0  0  0  0  0
   -6.3283   17.8056  -30.4878 H   0  0  0  0  0  0  0  0  0  0  0  0
   -7.3453   16.8598  -31.6271 H   0  0  0  0  0  0  0  0  0  0  0  0
   -5.5615   16.6477  -31.6271 H   0  0  0  0  0  0  0  0  0  0  0  0
   -5.7990   18.0930  -33.8490 C   0  0  0  0  0  0  0  0  0  0  0  0
   -4.9257   17.4274  -33.7834 H   0  0  0  0  0  0  0  0  0  0  0  0
   -6.6099   17.5818  -34.3885 H   0  0  0  0  0  0  0  0  0  0  0  0
   -5.5211   19.0105  -34.3885 H   0  0  0  0  0  0  0  0  0  0  0  0
   -5.5640   20.6920  -31.6780 C   0  0  0  0  0  0  0  0  0  0  0  0
   -4.5270   20.3435  -31.5633 H   0  0  0  0  0  0  0  0  0  0  0  0
   -5.9120   22.0090  -31.3570 C   0  0  0  0  0  0  0  0  0  0  0  0
   -5.1090   23.0020  -30.9160 N   0  0  0  0  0  0  0  0  0  0  0  0
   -3.6940   22.8990  -30.6680 C   0  0  0  0  0  0  0  0  0  0  0  0
   -2.8840   23.1840  -31.5890 O   0  0  0  0  0  0  0  0  0  0  0  0
   -3.1510   22.4050  -29.3840 C   0  0  0  0  0  0  0  0  0  0  0  0
   -3.5170   21.4307  -29.0278 H   0  0  0  0  0  0  0  0  0  0  0  0
   -2.2520   23.0380  -28.6140 C   0  0  0  0  0  0  0  0  0  0  0  0
   -2.0838   22.6344  -27.6046 H   0  0  0  0  0  0  0  0  0  0  0  0
   -1.4710   24.2250  -29.0010 C   0  0  0  0  0  0  0  0  0  0  0  0
   -2.0360   25.3000  -29.3350 O   0  0  0  0  0  0  0  0  0  0  0  0
   -0.0890   24.1310  -29.0860 O   0  0  0  0  0  0  0  0  0  0  0  0
  1  2  1  0
  2  3  1  0
  3  4  2  0
  3  5  1  0
  5  6  2  0
  6  7  1  0
  6  8  1  0
  8  9  2  0
  9 10  1  0
  9 11  1  0
 11 12  1  0
 11 13  2  0
 13 14  1  0
 14 15  1  0
 15 16  1  0
 15 17  1  0
 15 18  1  0
 14 19  1  0
 19 20  1  0
 19 21  1  0
 19 22  1  0
 13 23  1  0
 23 24  1  0
 23 25  2  0
 25 26  1  0
 26 27  1  0
 27 28  2  0
 27 29  1  0
 29 30  1  0
 29 31  2  0
 31 32  1  0
 31 33  1  0
 33 34  2  0
 33 35  1  0
 26  5  1  0
 25  8  1  0
M  CHG  2   2  -1  35  -1
M  END
>  <UniqueID>  (63) 
61

>  <SMILES>  (63) 
CN(C)c1ccc2cc(C([NH-])=O)n(C(=O)/C=C\C(=O)[O-])c2c1

>  <Energy>  (63) 
81.63283146155156

>  <Genealogy>  (63) 
CN(C)c1ccc2cc(C([NH-])=O)n(C(=O)/C=C\C(=O)[O-])c2c1 (protonated)
CN(C)c1ccc2cc(C([NH-])=O)n(C(=O)/C=C\C(=O)[O-])c2c1 (cis-trans isomerization)
CN(C)c1ccc2cc(C([NH-])=O)n(C(=O)/C=C\C(=O)[O-])c2c1 (3D coordinates assigned)
CN(C)c1ccc2cc(C([NH-])=O)n(C(=O)/C=C\C(=O)[O-])c2c1 (optimized conformer: 81.63283146155156 kcal/mol)

>  <smiles>  (63) 
CN(C)c1ccc2cc(C(N)=O)n(C(=O)/C=C\C(=O)O)c2c1

>  <score_type>  (63) 
oracle

>  <origin>  (63) 
adg

>  <m_score__min__energy>  (63) 
-11.84

>  <m_primary>  (63) 
energy

$$$$
63:0
     RDKit          3D

 41 42  0  0  0  0  0  0  0  0999 V2000
   -5.7680   18.1300  -34.7410 C   0  0  0  0  0  0  0  0  0  0  0  0
   -6.4700   18.2700  -33.4600 N   0  0  0  0  0  0  0  0  0  0  0  0
   -6.9040   17.0570  -32.7530 C   0  0  0  0  0  0  0  0  0  0  0  0
   -6.7290   19.5840  -32.8980 C   0  0  0  0  0  0  0  0  0  0  0  0
   -8.0640   20.0620  -32.7460 C   0  0  0  0  0  0  0  0  0  0  0  0
   -8.3230   21.3360  -32.2150 C   0  0  0  0  0  0  0  0  0  0  0  0
   -7.2390   22.1170  -31.8310 C   0  0  0  0  0  0  0  0  0  0  0  0
   -7.2030   23.3930  -31.3150 C   0  0  0  0  0  0  0  0  0  0  0  0
   -5.8510   23.6790  -31.1330 C   0  0  0  0  0  0  0  0  0  0  0  0
   -5.3540   24.9360  -30.5350 C   0  0  0  0  0  0  0  0  0  0  0  0
   -3.9850   25.3150  -30.6500 N   0  0  0  0  0  0  0  0  0  0  0  0
   -6.1430   25.6710  -29.8820 O   0  0  0  0  0  0  0  0  0  0  0  0
   -5.0860   22.6220  -31.5230 N   0  0  0  0  0  0  0  0  0  0  0  0
   -3.6540   22.5340  -31.5530 C   0  0  0  0  0  0  0  0  0  0  0  0
   -3.0800   22.0250  -32.5540 O   0  0  0  0  0  0  0  0  0  0  0  0
   -2.8830   23.0160  -30.4430 N   0  0  0  0  0  0  0  0  0  0  0  0
   -1.4380   22.8020  -30.3390 C   0  0  1  0  0  0  0  0  0  0  0  0
   -0.8710   23.5100  -29.0970 C   0  0  0  0  0  0  0  0  0  0  0  0
   -1.6420   24.7590  -28.7920 C   0  0  0  0  0  0  0  0  0  0  0  0
   -2.6770   24.7060  -28.0770 O   0  0  0  0  0  0  0  0  0  0  0  0
   -1.2400   25.9730  -29.3320 O   0  0  0  0  0  0  0  0  0  0  0  0
   -1.1580   21.3280  -30.2630 C   0  0  0  0  0  0  0  0  0  0  0  0
   -1.8990   20.5780  -29.5770 O   0  0  0  0  0  0  0  0  0  0  0  0
   -0.0830   20.7840  -30.9570 O   0  0  0  0  0  0  0  0  0  0  0  0
   -5.9500   21.6750  -31.9480 C   0  0  0  0  0  0  0  0  0  0  0  0
   -5.6580   20.4210  -32.4940 C   0  0  0  0  0  0  0  0  0  0  0  0
   -4.7047   17.9180  -34.5552 H   0  0  0  0  0  0  0  0  0  0  0  0
   -6.2122   17.3027  -35.3140 H   0  0  0  0  0  0  0  0  0  0  0  0
   -5.8609   19.0643  -35.3140 H   0  0  0  0  0  0  0  0  0  0  0  0
   -6.8442   17.2241  -31.6674 H   0  0  0  0  0  0  0  0  0  0  0  0
   -7.9420   16.8220  -33.0312 H   0  0  0  0  0  0  0  0  0  0  0  0
   -6.2507   16.2169  -33.0312 H   0  0  0  0  0  0  0  0  0  0  0  0
   -8.9053   19.4218  -33.0499 H   0  0  0  0  0  0  0  0  0  0  0  0
   -9.3535   21.7051  -32.1061 H   0  0  0  0  0  0  0  0  0  0  0  0
   -8.0590   24.0474  -31.0935 H   0  0  0  0  0  0  0  0  0  0  0  0
   -3.4540   25.6710  -29.8240 H   0  0  0  0  0  0  0  0  0  0  0  0
   -3.3930   23.4460  -29.6370 H   0  0  0  0  0  0  0  0  0  0  0  0
   -0.9499   23.2257  -31.2291 H   0  0  0  0  0  0  0  0  0  0  0  0
   -0.9332   22.8293  -28.2351 H   0  0  0  0  0  0  0  0  0  0  0  0
    0.1754   23.7840  -29.2968 H   0  0  0  0  0  0  0  0  0  0  0  0
   -4.6153   20.0896  -32.6081 H   0  0  0  0  0  0  0  0  0  0  0  0
  1  2  1  0
  2  3  1  0
  2  4  1  0
  4  5  2  0
  5  6  1  0
  6  7  2  0
  7  8  1  0
  8  9  2  0
  9 10  1  0
 10 11  1  0
 10 12  2  0
  9 13  1  0
 13 14  1  0
 14 15  2  0
 14 16  1  0
 16 17  1  0
 17 18  1  0
 18 19  1  0
 19 20  2  0
 19 21  1  0
 17 22  1  0
 22 23  2  0
 22 24  1  0
 13 25  1  0
 25 26  2  0
 26  4  1  0
 25  7  1  0
  1 27  1  0
  1 28  1  0
  1 29  1  0
  3 30  1  0
  3 31  1  0
  3 32  1  0
  5 33  1  0
  6 34  1  0
  8 35  1  0
 11 36  1  0
 16 37  1  0
 17 38  1  6
 18 39  1  0
 18 40  1  0
 26 41  1  0
M  CHG  3  11  -1  21  -1  24  -1
M  END
>  <UniqueID>  (64) 
62

>  <SMILES>  (64) 
CN(C)c1ccc2cc(C([NH-])=O)n(C(=O)N[C@@H](CC(=O)[O-])C(=O)[O-])c2c1

>  <Energy>  (64) 
76.69431717397511

>  <Genealogy>  (64) 
CN(C)c1ccc2cc(C([NH-])=O)n(C(=O)N[C@@H](CC(=O)[O-])C(=O)[O-])c2c1 (protonated)
CN(C)c1ccc2cc(C([NH-])=O)n(C(=O)N[C@@H](CC(=O)[O-])C(=O)[O-])c2c1 (3D coordinates assigned)
CN(C)c1ccc2cc(C([NH-])=O)n(C(=O)N[C@@H](CC(=O)[O-])C(=O)[O-])c2c1 (optimized conformer: 76.69431717397511 kcal/mol)

>  <smiles>  (64) 
CN(C)c1ccc2cc(C(N)=O)n(C(=O)N[C@@H](CC(=O)O)C(=O)O)c2c1

>  <score_type>  (64) 
oracle

>  <origin>  (64) 
adg

>  <m_score__min__energy>  (64) 
-12.17

>  <m_primary>  (64) 
energy

$$$$
64:0
     RDKit          3D

 31 32  0  0  0  0  0  0  0  0999 V2000
   -4.2160   25.5200  -30.4540 N   0  0  0  0  0  0  0  0  0  0  0  0
   -5.5420   25.0570  -30.1900 C   0  0  0  0  0  0  0  0  0  0  0  0
   -6.3420   25.8050  -29.5660 O   0  0  0  0  0  0  0  0  0  0  0  0
   -6.0120   23.7510  -30.6920 C   0  0  0  0  0  0  0  0  0  0  0  0
   -7.2600   23.5590  -31.2760 C   0  0  0  0  0  0  0  0  0  0  0  0
   -7.2810   22.2380  -31.6610 C   0  0  0  0  0  0  0  0  0  0  0  0
   -8.2890   21.5050  -32.2790 C   0  0  0  0  0  0  0  0  0  0  0  0
   -8.0550   20.1420  -32.5270 C   0  0  0  0  0  0  0  0  0  0  0  0
   -6.8300   19.5390  -32.1460 C   0  0  0  0  0  0  0  0  0  0  0  0
   -6.5920   18.0760  -32.3920 C   0  0  0  0  0  0  0  0  0  0  0  0
   -5.4510   17.9100  -33.1570 F   0  0  0  0  0  0  0  0  0  0  0  0
   -6.4320   17.4220  -31.1850 F   0  0  0  0  0  0  0  0  0  0  0  0
   -5.8320   20.3140  -31.5150 C   0  0  0  0  0  0  0  0  0  0  0  0
   -6.0830   21.6760  -31.3000 C   0  0  0  0  0  0  0  0  0  0  0  0
   -5.2920   22.5930  -30.7000 N   0  0  0  0  0  0  0  0  0  0  0  0
   -4.0100   22.3550  -30.0960 C   0  0  0  0  0  0  0  0  0  0  0  0
   -3.8870   21.4660  -29.2080 O   0  0  0  0  0  0  0  0  0  0  0  0
   -2.9000   23.1060  -30.4960 O   0  0  0  0  0  0  0  0  0  0  0  0
   -1.6340   23.0100  -29.8540 C   0  0  0  0  0  0  0  0  0  0  0  0
   -1.2460   24.3530  -29.3350 C   0  0  0  0  0  0  0  0  0  0  0  0
   -2.0830   25.2940  -29.3220 O   0  0  0  0  0  0  0  0  0  0  0  0
    0.0250   24.5560  -28.8110 O   0  0  0  0  0  0  0  0  0  0  0  0
   -3.8890   26.4290  -30.0590 H   0  0  0  0  0  0  0  0  0  0  0  0
   -3.5870   25.0060  -31.1100 H   0  0  0  0  0  0  0  0  0  0  0  0
   -8.0593   24.3040  -31.4029 H   0  0  0  0  0  0  0  0  0  0  0  0
   -9.2401   21.9780  -32.5647 H   0  0  0  0  0  0  0  0  0  0  0  0
   -8.8295   19.5372  -33.0214 H   0  0  0  0  0  0  0  0  0  0  0  0
   -7.4562   17.6554  -32.9271 H   0  0  0  0  0  0  0  0  0  0  0  0
   -4.8810   19.8597  -31.2000 H   0  0  0  0  0  0  0  0  0  0  0  0
   -1.6978   22.2969  -29.0189 H   0  0  0  0  0  0  0  0  0  0  0  0
   -0.8797   22.6591  -30.5736 H   0  0  0  0  0  0  0  0  0  0  0  0
  1  2  1  0
  2  3  2  0
  2  4  1  0
  4  5  2  0
  5  6  1  0
  6  7  2  0
  7  8  1  0
  8  9  2  0
  9 10  1  0
 10 11  1  0
 10 12  1  0
  9 13  1  0
 13 14  2  0
 14 15  1  0
 15 16  1  0
 16 17  2  0
 16 18  1  0
 18 19  1  0
 19 20  1  0
 20 21  2  0
 20 22  1  0
 15  4  1  0
 14  6  1  0
  1 23  1  0
  1 24  1  0
  5 25  1  0
  7 26  1  0
  8 27  1  0
 10 28  1  0
 13 29  1  0
 19 30  1  0
 19 31  1  0
M  CHG  1  22  -1
M  END
>  <UniqueID>  (65) 
63

>  <SMILES>  (65) 
NC(=O)c1cc2ccc(C(F)F)cc2n1C(=O)OCC(=O)[O-]

>  <Energy>  (65) 
67.18196683492832

>  <Genealogy>  (65) 
NC(=O)c1cc2ccc(C(F)F)cc2n1C(=O)OCC(=O)[O-] (protonated)
NC(=O)c1cc2ccc(C(F)F)cc2n1C(=O)OCC(=O)[O-] (3D coordinates assigned)
NC(=O)c1cc2ccc(C(F)F)cc2n1C(=O)OCC(=O)[O-] (optimized conformer: 67.18196683492832 kcal/mol)

>  <smiles>  (65) 
NC(=O)c1cc2ccc(C(F)F)cc2n1C(=O)OCC(=O)O

>  <score_type>  (65) 
oracle

>  <origin>  (65) 
adg

>  <m_score__min__energy>  (65) 
-10

>  <m_primary>  (65) 
energy

$$$$
65:0
     RDKit          3D

 49 50  0  0  0  0  0  0  0  0999 V2000
   -2.7480   19.7470  -34.0130 C   0  0  0  0  0  0  0  0  0  0  0  0
   -2.9530   18.3410  -33.6470 N   0  0  0  0  0  0  0  0  0  0  0  0
   -1.9810   17.6660  -32.7790 C   0  0  0  0  0  0  0  0  0  0  0  0
   -4.1050   17.6450  -34.1730 C   0  0  0  0  0  0  0  0  0  0  0  0
   -4.8110   18.1970  -35.0620 O   0  0  0  0  0  0  0  0  0  0  0  0
   -4.5330   16.2860  -33.6730 C   0  0  0  0  0  0  0  0  0  0  0  0
   -6.0460   16.2290  -33.4040 C   0  0  0  0  0  0  0  0  0  0  0  0
   -6.5590   17.4080  -32.5640 C   0  0  0  0  0  0  0  0  0  0  0  0
   -6.7980   18.5970  -33.3870 N   0  0  0  0  0  0  0  0  0  0  0  0
   -7.0050   19.9090  -32.8310 C   0  0  0  0  0  0  0  0  0  0  0  0
   -8.3290   20.3920  -32.6830 C   0  0  0  0  0  0  0  0  0  0  0  0
   -8.5760   21.6540  -32.1180 C   0  0  0  0  0  0  0  0  0  0  0  0
   -7.4850   22.4180  -31.7230 C   0  0  0  0  0  0  0  0  0  0  0  0
   -7.4440   23.6510  -31.1160 C   0  0  0  0  0  0  0  0  0  0  0  0
   -6.0920   23.9270  -30.9350 C   0  0  0  0  0  0  0  0  0  0  0  0
   -5.5890   25.1890  -30.3580 C   0  0  0  0  0  0  0  0  0  0  0  0
   -4.2130   25.5540  -30.4620 N   0  0  0  0  0  0  0  0  0  0  0  0
   -6.3990   25.9830  -29.8100 O   0  0  0  0  0  0  0  0  0  0  0  0
   -5.3240   22.9000  -31.3990 N   0  0  0  0  0  0  0  0  0  0  0  0
   -3.8970   22.7620  -31.2970 C   0  0  0  0  0  0  0  0  0  0  0  0
   -3.2290   22.3850  -32.2990 O   0  0  0  0  0  0  0  0  0  0  0  0
   -3.2520   23.0460  -30.0870 O   0  0  0  0  0  0  0  0  0  0  0  0
   -1.8380   23.0040  -29.9250 C   0  0  0  0  0  0  0  0  0  0  0  0
   -1.3450   24.2940  -29.3520 C   0  0  0  0  0  0  0  0  0  0  0  0
   -2.0930   25.3050  -29.3300 O   0  0  0  0  0  0  0  0  0  0  0  0
   -0.0370   24.3950  -28.8940 O   0  0  0  0  0  0  0  0  0  0  0  0
   -6.1940   21.9830  -31.8800 C   0  0  0  0  0  0  0  0  0  0  0  0
   -5.9180   20.7190  -32.4180 C   0  0  0  0  0  0  0  0  0  0  0  0
   -2.6594   20.3543  -33.1002 H   0  0  0  0  0  0  0  0  0  0  0  0
   -1.8267   19.8408  -34.6066 H   0  0  0  0  0  0  0  0  0  0  0  0
   -3.6042   20.0999  -34.6066 H   0  0  0  0  0  0  0  0  0  0  0  0
   -2.2420   17.8472  -31.7259 H   0  0  0  0  0  0  0  0  0  0  0  0
   -1.9985   16.5847  -32.9803 H   0  0  0  0  0  0  0  0  0  0  0  0
   -0.9739   18.0601  -32.9803 H   0  0  0  0  0  0  0  0  0  0  0  0
   -4.2770   15.5307  -34.4306 H   0  0  0  0  0  0  0  0  0  0  0  0
   -4.0089   16.0885  -32.7263 H   0  0  0  0  0  0  0  0  0  0  0  0
   -6.5726   16.2332  -34.3697 H   0  0  0  0  0  0  0  0  0  0  0  0
   -6.2402   15.3112  -32.8297 H   0  0  0  0  0  0  0  0  0  0  0  0
   -7.5014   17.1158  -32.0778 H   0  0  0  0  0  0  0  0  0  0  0  0
   -5.7906   17.6568  -31.8173 H   0  0  0  0  0  0  0  0  0  0  0  0
   -6.8590   18.4900  -34.4250 H   0  0  0  0  0  0  0  0  0  0  0  0
   -9.1740   19.7707  -33.0148 H   0  0  0  0  0  0  0  0  0  0  0  0
   -9.6033   22.0265  -31.9920 H   0  0  0  0  0  0  0  0  0  0  0  0
   -8.2979   24.2844  -30.8336 H   0  0  0  0  0  0  0  0  0  0  0  0
   -3.5520   25.0060  -31.0560 H   0  0  0  0  0  0  0  0  0  0  0  0
   -3.8650   26.4230  -30.0000 H   0  0  0  0  0  0  0  0  0  0  0  0
   -1.5745   22.1803  -29.2452 H   0  0  0  0  0  0  0  0  0  0  0  0
   -1.3689   22.8452  -30.9072 H   0  0  0  0  0  0  0  0  0  0  0  0
   -4.8817   20.3637  -32.5175 H   0  0  0  0  0  0  0  0  0  0  0  0
  1  2  1  0
  2  3  1  0
  2  4  1  0
  4  5  2  0
  4  6  1  0
  6  7  1  0
  7  8  1  0
  8  9  1  0
  9 10  1  0
 10 11  2  0
 11 12  1  0
 12 13  2  0
 13 14  1  0
 14 15  2  0
 15 16  1  0
 16 17  1  0
 16 18  2  0
 15 19  1  0
 19 20  1  0
 20 21  2  0
 20 22  1  0
 22 23  1  0
 23 24  1  0
 24 25  2  0
 24 26  1  0
 19 27  1  0
 27 28  2  0
 28 10  1  0
 27 13  1  0
  1 29  1  0
  1 30  1  0
  1 31  1  0
  3 32  1  0
  3 33  1  0
  3 34  1  0
  6 35  1  0
  6 36  1  0
  7 37  1  0
  7 38  1  0
  8 39  1  0
  8 40  1  0
  9 41  1  0
 11 42  1  0
 12 43  1  0
 14 44  1  0
 17 45  1  0
 17 46  1  0
 23 47  1  0
 23 48  1  0
 28 49  1  0
M  CHG  1  26  -1
M  END
>  <UniqueID>  (66) 
64

>  <SMILES>  (66) 
CN(C)C(=O)CCCNc1ccc2cc(C(N)=O)n(C(=O)OCC(=O)[O-])c2c1

>  <Energy>  (66) 
78.60986161884627

>  <Genealogy>  (66) 
CN(C)C(=O)CCCNc1ccc2cc(C(N)=O)n(C(=O)OCC(=O)[O-])c2c1 (protonated)
CN(C)C(=O)CCCNc1ccc2cc(C(N)=O)n(C(=O)OCC(=O)[O-])c2c1 (3D coordinates assigned)
CN(C)C(=O)CCCNc1ccc2cc(C(N)=O)n(C(=O)OCC(=O)[O-])c2c1 (optimized conformer: 78.60986161884627 kcal/mol)

>  <smiles>  (66) 
CN(C)C(=O)CCCNc1ccc2cc(C(N)=O)n(C(=O)OCC(=O)O)c2c1

>  <score_type>  (66) 
oracle

>  <origin>  (66) 
adg

>  <m_score__min__energy>  (66) 
-10.84

>  <m_primary>  (66) 
energy

$$$$
66:0
     RDKit          3D

 43 44  0  0  0  0  0  0  0  0999 V2000
   -4.0330   24.6560  -26.7230 C   0  0  0  0  0  0  0  0  0  0  0  0
   -3.3240   24.7420  -27.9540 O   0  0  0  0  0  0  0  0  0  0  0  0
   -1.9770   25.1140  -28.0230 C   0  0  0  0  0  0  0  0  0  0  0  0
   -1.4900   25.5660  -29.0980 O   0  0  0  0  0  0  0  0  0  0  0  0
   -1.0910   24.9770  -26.8210 C   0  0  0  0  0  0  0  0  0  0  0  0
   -1.1280   23.6550  -26.2900 O   0  0  0  0  0  0  0  0  0  0  0  0
   -0.7460   22.5160  -27.0150 C   0  0  0  0  0  0  0  0  0  0  0  0
    0.4500   22.1160  -26.9900 O   0  0  0  0  0  0  0  0  0  0  0  0
   -1.7470   21.7810  -27.8100 C   0  0  0  0  0  0  0  0  0  0  0  0
   -2.0770   20.6190  -27.4570 O   0  0  0  0  0  0  0  0  0  0  0  0
   -2.3470   22.3930  -28.9650 N   0  0  0  0  0  0  0  0  0  0  0  0
   -3.1750   21.6810  -29.9080 C   0  0  0  0  0  0  0  0  0  0  0  0
   -3.4250   20.4560  -29.7410 O   0  0  0  0  0  0  0  0  0  0  0  0
   -3.7340   22.3690  -31.0880 C   0  0  0  0  0  0  0  0  0  0  0  0
   -2.9620   22.7590  -32.0090 O   0  0  0  0  0  0  0  0  0  0  0  0
   -5.1500   22.6110  -31.1960 N   0  0  0  0  0  0  0  0  0  0  0  0
   -5.8480   23.6730  -30.7100 C   0  0  0  0  0  0  0  0  0  0  0  0
   -5.2640   24.8540  -30.0490 C   0  0  0  0  0  0  0  0  0  0  0  0
   -3.9450   25.2880  -30.3820 N   0  0  0  0  0  0  0  0  0  0  0  0
   -5.8870   25.4310  -29.1140 O   0  0  0  0  0  0  0  0  0  0  0  0
   -7.2170   23.4970  -30.9020 C   0  0  0  0  0  0  0  0  0  0  0  0
   -7.3390   22.2880  -31.5430 C   0  0  0  0  0  0  0  0  0  0  0  0
   -8.4730   21.6230  -31.9890 C   0  0  0  0  0  0  0  0  0  0  0  0
   -8.3020   20.3770  -32.6190 C   0  0  0  0  0  0  0  0  0  0  0  0
   -7.0090   19.8190  -32.7750 C   0  0  0  0  0  0  0  0  0  0  0  0
   -6.8530   18.4860  -33.4490 C   0  0  0  0  0  0  0  0  0  0  0  0
   -5.8750   20.5350  -32.3340 C   0  0  0  0  0  0  0  0  0  0  0  0
   -6.0770   21.7680  -31.7020 C   0  0  0  0  0  0  0  0  0  0  0  0
   -3.3251   24.7419  -25.8854 H   0  0  0  0  0  0  0  0  0  0  0  0
   -4.7691   25.4714  -26.6661 H   0  0  0  0  0  0  0  0  0  0  0  0
   -4.5528   23.6882  -26.6661 H   0  0  0  0  0  0  0  0  0  0  0  0
   -0.0572   25.2167  -27.1104 H   0  0  0  0  0  0  0  0  0  0  0  0
   -1.4526   25.6692  -26.0463 H   0  0  0  0  0  0  0  0  0  0  0  0
   -2.1420   23.3980  -29.1570 H   0  0  0  0  0  0  0  0  0  0  0  0
   -3.5020   26.0630  -29.8370 H   0  0  0  0  0  0  0  0  0  0  0  0
   -3.4370   24.8850  -31.2050 H   0  0  0  0  0  0  0  0  0  0  0  0
   -8.0264   24.1797  -30.6042 H   0  0  0  0  0  0  0  0  0  0  0  0
   -9.4746   22.0571  -31.8539 H   0  0  0  0  0  0  0  0  0  0  0  0
   -9.1801   19.8308  -32.9940 H   0  0  0  0  0  0  0  0  0  0  0  0
   -6.7608   17.6983  -32.6868 H   0  0  0  0  0  0  0  0  0  0  0  0
   -7.7340   18.2873  -34.0769 H   0  0  0  0  0  0  0  0  0  0  0  0
   -5.9499   18.4961  -34.0769 H   0  0  0  0  0  0  0  0  0  0  0  0
   -4.8610   20.1354  -32.4827 H   0  0  0  0  0  0  0  0  0  0  0  0
  1  2  1  0
  2  3  1  0
  3  4  2  0
  3  5  1  0
  5  6  1  0
  6  7  1  0
  7  8  2  0
  7  9  1  0
  9 10  2  0
  9 11  1  0
 11 12  1  0
 12 13  2  0
 12 14  1  0
 14 15  2  0
 14 16  1  0
 16 17  1  0
 17 18  1  0
 18 19  1  0
 18 20  2  0
 17 21  2  0
 21 22  1  0
 22 23  2  0
 23 24  1  0
 24 25  2  0
 25 26  1  0
 25 27  1  0
 27 28  2  0
 28 16  1  0
 28 22  1  0
  1 29  1  0
  1 30  1  0
  1 31  1  0
  5 32  1  0
  5 33  1  0
 11 34  1  0
 19 35  1  0
 19 36  1  0
 21 37  1  0
 23 38  1  0
 24 39  1  0
 26 40  1  0
 26 41  1  0
 26 42  1  0
 27 43  1  0
M  END
>  <UniqueID>  (67) 
65

>  <SMILES>  (67) 
COC(=O)COC(=O)C(=O)NC(=O)C(=O)n1c(C(N)=O)cc2ccc(C)cc21

>  <Energy>  (67) 
79.5103240122841

>  <Genealogy>  (67) 
COC(=O)COC(=O)C(=O)NC(=O)C(=O)n1c(C(N)=O)cc2ccc(C)cc21 (3D coordinates assigned)
COC(=O)COC(=O)C(=O)NC(=O)C(=O)n1c(C(N)=O)cc2ccc(C)cc21 (optimized conformer: 79.5103240122841 kcal/mol)

>  <smiles>  (67) 
COC(=O)COC(=O)C(=O)NC(=O)C(=O)n1c(C(N)=O)cc2ccc(C)cc21

>  <score_type>  (67) 
oracle

>  <origin>  (67) 
adg

>  <m_score__min__energy>  (67) 
-8.9499999999999993

>  <m_primary>  (67) 
energy

$$$$
67:0
     RDKit          3D

 43 44  0  0  0  0  0  0  0  0999 V2000
   -4.5320   16.4020  -34.0180 C   0  0  0  0  0  0  0  0  0  0  0  0
   -5.6940   17.0390  -34.5320 O   0  0  0  0  0  0  0  0  0  0  0  0
   -6.1500   18.2720  -34.0560 C   0  0  0  0  0  0  0  0  0  0  0  0
   -6.0850   19.3040  -34.7810 O   0  0  0  0  0  0  0  0  0  0  0  0
   -6.7760   18.3540  -32.6980 C   0  0  0  0  0  0  0  0  0  0  0  0
   -8.0040   17.7120  -32.7220 F   0  0  0  0  0  0  0  0  0  0  0  0
   -5.9770   17.6980  -31.7740 F   0  0  0  0  0  0  0  0  0  0  0  0
   -6.9530   19.8030  -32.3110 C   0  0  0  0  0  0  0  0  0  0  0  0
   -8.2530   20.3630  -32.1970 C   0  0  0  0  0  0  0  0  0  0  0  0
   -8.4290   21.7000  -31.8050 C   0  0  0  0  0  0  0  0  0  0  0  0
   -7.2940   22.4470  -31.5080 C   0  0  0  0  0  0  0  0  0  0  0  0
   -7.1760   23.7630  -31.1260 C   0  0  0  0  0  0  0  0  0  0  0  0
   -5.8100   23.9800  -30.9630 C   0  0  0  0  0  0  0  0  0  0  0  0
   -5.2420   25.2530  -30.4730 C   0  0  0  0  0  0  0  0  0  0  0  0
   -3.9310   25.6640  -30.8480 N   0  0  0  0  0  0  0  0  0  0  0  0
   -5.9060   25.9650  -29.6720 O   0  0  0  0  0  0  0  0  0  0  0  0
   -5.1090   22.8450  -31.2400 N   0  0  0  0  0  0  0  0  0  0  0  0
   -3.6830   22.6850  -31.2840 C   0  0  0  0  0  0  0  0  0  0  0  0
   -2.9760   23.1230  -30.3380 O   0  0  0  0  0  0  0  0  0  0  0  0
   -3.0980   22.0210  -32.3730 O   0  0  0  0  0  0  0  0  0  0  0  0
   -2.2070   20.8970  -32.3070 C   0  0  0  0  0  0  0  0  0  0  0  0
   -2.0720   20.3980  -30.8550 C   0  0  0  0  0  0  0  0  0  0  0  0
   -0.8270   21.2630  -32.8850 C   0  0  0  0  0  0  0  0  0  0  0  0
   -2.8220   19.7800  -33.1620 C   0  0  0  0  0  0  0  0  0  0  0  0
   -6.0320   21.9150  -31.5720 C   0  0  0  0  0  0  0  0  0  0  0  0
   -5.8260   20.5920  -31.9790 C   0  0  0  0  0  0  0  0  0  0  0  0
   -4.5611   16.4180  -32.9185 H   0  0  0  0  0  0  0  0  0  0  0  0
   -4.4995   15.3600  -34.3689 H   0  0  0  0  0  0  0  0  0  0  0  0
   -3.6361   16.9351  -34.3689 H   0  0  0  0  0  0  0  0  0  0  0  0
   -9.1333   19.7417  -32.4185 H   0  0  0  0  0  0  0  0  0  0  0  0
   -9.4335   22.1428  -31.7350 H   0  0  0  0  0  0  0  0  0  0  0  0
   -7.9884   24.4901  -30.9801 H   0  0  0  0  0  0  0  0  0  0  0  0
   -3.0890   25.2910  -30.3580 H   0  0  0  0  0  0  0  0  0  0  0  0
   -2.2950   21.2224  -30.1617 H   0  0  0  0  0  0  0  0  0  0  0  0
   -2.7793   19.5732  -30.6835 H   0  0  0  0  0  0  0  0  0  0  0  0
   -1.0453   20.0423  -30.6835 H   0  0  0  0  0  0  0  0  0  0  0  0
   -0.1223   21.4499  -32.0613 H   0  0  0  0  0  0  0  0  0  0  0  0
   -0.4563   20.4321  -33.5032 H   0  0  0  0  0  0  0  0  0  0  0  0
   -0.9168   22.1684  -33.5032 H   0  0  0  0  0  0  0  0  0  0  0  0
   -3.2475   19.0073  -32.5048 H   0  0  0  0  0  0  0  0  0  0  0  0
   -3.6164   20.1994  -33.7969 H   0  0  0  0  0  0  0  0  0  0  0  0
   -2.0428   19.3330  -33.7969 H   0  0  0  0  0  0  0  0  0  0  0  0
   -4.8102   20.1744  -32.0395 H   0  0  0  0  0  0  0  0  0  0  0  0
  1  2  1  0
  2  3  1  0
  3  4  2  0
  3  5  1  0
  5  6  1  0
  5  7  1  0
  5  8  1  0
  8  9  2  0
  9 10  1  0
 10 11  2  0
 11 12  1  0
 12 13  2  0
 13 14  1  0
 14 15  1  0
 14 16  2  0
 13 17  1  0
 17 18  1  0
 18 19  2  0
 18 20  1  0
 20 21  1  0
 21 22  1  0
 21 23  1  0
 21 24  1  0
 17 25  1  0
 25 26  2  0
 26  8  1  0
 25 11  1  0
  1 27  1  0
  1 28  1  0
  1 29  1  0
  9 30  1  0
 10 31  1  0
 12 32  1  0
 15 33  1  0
 22 34  1  0
 22 35  1  0
 22 36  1  0
 23 37  1  0
 23 38  1  0
 23 39  1  0
 24 40  1  0
 24 41  1  0
 24 42  1  0
 26 43  1  0
M  CHG  1  15  -1
M  END
>  <UniqueID>  (68) 
66

>  <SMILES>  (68) 
COC(=O)C(F)(F)c1ccc2cc(C([NH-])=O)n(C(=O)OC(C)(C)C)c2c1

>  <Energy>  (68) 
74.60863059677645

>  <Genealogy>  (68) 
COC(=O)C(F)(F)c1ccc2cc(C([NH-])=O)n(C(=O)OC(C)(C)C)c2c1 (protonated)
COC(=O)C(F)(F)c1ccc2cc(C([NH-])=O)n(C(=O)OC(C)(C)C)c2c1 (3D coordinates assigned)
COC(=O)C(F)(F)c1ccc2cc(C([NH-])=O)n(C(=O)OC(C)(C)C)c2c1 (optimized conformer: 74.60863059677645 kcal/mol)

>  <smiles>  (68) 
COC(=O)C(F)(F)c1ccc2cc(C(N)=O)n(C(=O)OC(C)(C)C)c2c1

>  <score_type>  (68) 
oracle

>  <origin>  (68) 
adg

>  <m_score__min__energy>  (68) 
-10.300000000000001

>  <m_primary>  (68) 
energy

$$$$
68:0
     RDKit          3D

 39 41  0  0  0  0  0  0  0  0999 V2000
   -9.8660   21.3890  -31.9140 C   0  0  0  0  0  0  0  0  0  0  0  0
   -8.5320   21.1030  -31.3510 N   0  0  0  0  0  0  0  0  0  0  0  0
   -7.6900   22.2010  -30.9060 C   0  0  0  0  0  0  0  0  0  0  0  0
   -7.8680   22.6960  -29.7590 O   0  0  0  0  0  0  0  0  0  0  0  0
   -6.6480   22.8300  -31.7670 C   0  0  0  0  0  0  0  0  0  0  0  0
   -6.9420   23.7360  -32.5860 O   0  0  0  0  0  0  0  0  0  0  0  0
   -5.2770   22.4090  -31.6640 N   0  0  0  0  0  0  0  0  0  0  0  0
   -4.2570   23.0680  -31.0460 C   0  0  0  0  0  0  0  0  0  0  0  0
   -4.3990   24.3210  -30.2680 C   0  0  0  0  0  0  0  0  0  0  0  0
   -5.4040   24.4510  -29.2590 N   0  0  0  0  0  0  0  0  0  0  0  0
   -3.6350   25.2990  -30.4940 O   0  0  0  0  0  0  0  0  0  0  0  0
   -3.0550   22.3820  -31.2320 C   0  0  0  0  0  0  0  0  0  0  0  0
   -3.3740   21.2850  -32.0010 C   0  0  0  0  0  0  0  0  0  0  0  0
   -2.5560   20.2880  -32.5220 C   0  0  0  0  0  0  0  0  0  0  0  0
   -3.1490   19.3050  -33.3350 C   0  0  0  0  0  0  0  0  0  0  0  0
   -4.5440   19.3310  -33.6070 C   0  0  0  0  0  0  0  0  0  0  0  0
   -5.1500   18.3040  -34.5320 C   0  0  0  0  0  0  0  0  0  0  0  0
   -4.1760   17.7380  -35.3370 F   0  0  0  0  0  0  0  0  0  0  0  0
   -5.7570   17.2910  -33.8100 F   0  0  0  0  0  0  0  0  0  0  0  0
   -6.0970   18.9160  -35.3360 F   0  0  0  0  0  0  0  0  0  0  0  0
   -5.3350   20.3790  -33.0800 C   0  0  0  0  0  0  0  0  0  0  0  0
   -4.7210   21.3290  -32.2550 C   0  0  0  0  0  0  0  0  0  0  0  0
   -8.0180   19.7200  -31.4000 C   0  0  0  0  0  0  0  0  0  0  0  0
   -9.1200   18.6790  -31.5750 C   0  0  0  0  0  0  0  0  0  0  0  0
   -8.1720   18.9680  -32.7230 C   0  0  0  0  0  0  0  0  0  0  0  0
  -10.5842   21.5430  -31.0952 H   0  0  0  0  0  0  0  0  0  0  0  0
   -9.8157   22.2968  -32.5332 H   0  0  0  0  0  0  0  0  0  0  0  0
  -10.1923   20.5404  -32.5332 H   0  0  0  0  0  0  0  0  0  0  0  0
   -5.4780   25.3400  -28.7120 H   0  0  0  0  0  0  0  0  0  0  0  0
   -6.0540   23.6660  -29.0290 H   0  0  0  0  0  0  0  0  0  0  0  0
   -2.0630   22.6593  -30.8459 H   0  0  0  0  0  0  0  0  0  0  0  0
   -1.4778   20.2687  -32.3048 H   0  0  0  0  0  0  0  0  0  0  0  0
   -2.5260   18.5070  -33.7652 H   0  0  0  0  0  0  0  0  0  0  0  0
   -6.4079   20.4459  -33.3131 H   0  0  0  0  0  0  0  0  0  0  0  0
   -7.1729   19.8910  -30.7170 H   0  0  0  0  0  0  0  0  0  0  0  0
   -9.0587   17.7195  -31.0406 H   0  0  0  0  0  0  0  0  0  0  0  0
  -10.2132   18.6787  -31.4531 H   0  0  0  0  0  0  0  0  0  0  0  0
   -7.4234   18.2186  -33.0196 H   0  0  0  0  0  0  0  0  0  0  0  0
   -8.2935   19.2639  -33.7755 H   0  0  0  0  0  0  0  0  0  0  0  0
  1  2  1  0
  2  3  1  0
  3  4  2  0
  3  5  1  0
  5  6  2  0
  5  7  1  0
  7  8  1  0
  8  9  1  0
  9 10  1  0
  9 11  2  0
  8 12  2  0
 12 13  1  0
 13 14  2  0
 14 15  1  0
 15 16  2  0
 16 17  1  0
 17 18  1  0
 17 19  1  0
 17 20  1  0
 16 21  1  0
 21 22  2  0
  2 23  1  0
 23 24  1  0
 24 25  1  0
 22  7  1  0
 25 23  1  0
 22 13  1  0
  1 26  1  0
  1 27  1  0
  1 28  1  0
 10 29  1  0
 10 30  1  0
 12 31  1  0
 14 32  1  0
 15 33  1  0
 21 34  1  0
 23 35  1  0
 24 36  1  0
 24 37  1  0
 25 38  1  0
 25 39  1  0
M  END
>  <UniqueID>  (69) 
67

>  <SMILES>  (69) 
CN(C(=O)C(=O)n1c(C(N)=O)cc2ccc(C(F)(F)F)cc21)C1CC1

>  <Energy>  (69) 
349.90965077466115

>  <Genealogy>  (69) 
CN(C(=O)C(=O)n1c(C(N)=O)cc2ccc(C(F)(F)F)cc21)C1CC1 (3D coordinates assigned)
CN(C(=O)C(=O)n1c(C(N)=O)cc2ccc(C(F)(F)F)cc21)C1CC1 (nonaromatic ring conformer: 349.90965077466115 kcal/mol)

>  <smiles>  (69) 
CN(C(=O)C(=O)n1c(C(N)=O)cc2ccc(C(F)(F)F)cc21)C1CC1

>  <score_type>  (69) 
oracle

>  <origin>  (69) 
adg

>  <m_score__min__energy>  (69) 
-8.4399999999999995

>  <m_primary>  (69) 
energy

$$$$
69:0
     RDKit          3D

110116  0  0  0  0  0  0  0  0999 V2000
   -3.1320   19.8100  -27.3400 C   0  0  0  0  0  0  0  0  0  0  0  0
   -2.2600   21.0330  -27.4350 C   0  0  0  0  0  0  0  0  0  0  0  0
   -2.7790   22.2630  -27.2000 N   0  0  0  0  0  0  0  0  0  0  0  0
   -1.8470   23.2460  -27.3130 C   0  0  0  0  0  0  0  0  0  0  0  0
   -0.3290   22.5960  -27.6300 S   0  0  0  0  0  0  0  0  0  0  0  0
   -0.8800   21.0060  -27.6470 C   0  0  0  0  0  0  0  0  0  0  0  0
    0.0150   19.8310  -27.7160 C   0  0  0  0  0  0  0  0  0  0  0  0
    1.3470   19.9780  -28.1320 C   0  0  0  0  0  0  0  0  0  0  0  0
    2.1630   18.8510  -28.3060 C   0  0  0  0  0  0  0  0  0  0  0  0
    1.6450   17.5690  -28.0690 C   0  0  0  0  0  0  0  0  0  0  0  0
    2.4990   16.3460  -28.3020 C   0  0  0  0  0  0  0  0  0  0  0  0
    2.4630   15.9150  -29.6980 N   0  0  0  0  0  0  0  0  0  0  0  0
    1.4800   16.3230  -30.6560 C   0  0  0  0  0  0  0  0  0  0  0  0
    0.3430   15.7780  -30.6800 O   0  0  0  0  0  0  0  0  0  0  0  0
    1.7980   17.4920  -31.5550 C   0  0  2  0  0  0  0  0  0  0  0  0
    0.7060   18.5620  -31.4600 C   0  0  0  0  0  0  0  0  0  0  0  0
   -0.1200   18.4040  -32.7370 C   0  0  1  0  0  0  0  0  0  0  0  0
   -0.6200   19.6460  -33.1590 O   0  0  0  0  0  0  0  0  0  0  0  0
    0.8450   17.8020  -33.7580 C   0  0  0  0  0  0  0  0  0  0  0  0
    1.8310   17.1020  -32.9590 N   0  0  0  0  0  0  0  0  0  0  0  0
    2.8350   16.2140  -33.4840 C   0  0  0  0  0  0  0  0  0  0  0  0
    3.7970   16.7050  -34.1390 O   0  0  0  0  0  0  0  0  0  0  0  0
    2.6880   14.7130  -33.3710 C   0  0  1  0  0  0  0  0  0  0  0  0
    1.2690   14.3860  -33.5160 N   0  0  0  0  0  0  0  0  0  0  0  0
    0.5410   13.6110  -32.5490 C   0  0  0  0  0  0  0  0  0  0  0  0
    1.1490   12.8620  -31.7400 O   0  0  0  0  0  0  0  0  0  0  0  0
   -0.9160   13.6890  -32.5280 C   0  0  0  0  0  0  0  0  0  0  0  0
   -1.6800   14.8460  -32.6470 C   0  0  0  0  0  0  0  0  0  0  0  0
   -2.9380   14.5820  -32.2360 N   0  0  0  0  0  0  0  0  0  0  0  0
   -2.9780   13.2920  -31.9110 N   0  0  0  0  0  0  0  0  0  0  0  0
   -4.1150   12.6760  -31.2370 C   0  0  0  0  0  0  0  0  0  0  0  0
   -5.3730   12.8270  -32.1050 C   0  0  0  0  0  0  0  0  0  0  0  0
   -5.3900   11.9190  -33.1910 O   0  0  0  0  0  0  0  0  0  0  0  0
   -6.0450   12.4810  -34.3100 C   0  0  0  0  0  0  0  0  0  0  0  0
   -6.0020   14.0080  -34.2100 C   0  0  0  0  0  0  0  0  0  0  0  0
   -4.9170   14.5430  -34.9740 O   0  0  0  0  0  0  0  0  0  0  0  0
   -4.2520   15.7580  -34.7120 C   0  0  0  0  0  0  0  0  0  0  0  0
   -3.0150   15.9820  -35.3150 C   0  0  0  0  0  0  0  0  0  0  0  0
   -2.3630   17.1980  -35.1310 C   0  0  0  0  0  0  0  0  0  0  0  0
   -2.9550   18.1760  -34.3930 N   0  0  0  0  0  0  0  0  0  0  0  0
   -4.1580   18.0050  -33.7810 C   0  0  0  0  0  0  0  0  0  0  0  0
   -4.7850   19.1430  -33.0590 C   0  0  0  0  0  0  0  0  0  0  0  0
   -6.1710   19.4020  -33.1990 C   0  0  0  0  0  0  0  0  0  0  0  0
   -6.7530   20.5390  -32.6150 C   0  0  0  0  0  0  0  0  0  0  0  0
   -5.9290   21.3890  -31.8930 C   0  0  0  0  0  0  0  0  0  0  0  0
   -6.2230   22.5880  -31.2910 C   0  0  0  0  0  0  0  0  0  0  0  0
   -4.9980   23.0800  -30.8390 C   0  0  0  0  0  0  0  0  0  0  0  0
   -4.8450   24.4530  -30.3050 C   0  0  0  0  0  0  0  0  0  0  0  0
   -3.8590   25.3220  -30.8490 N   0  0  0  0  0  0  0  0  0  0  0  0
   -5.5300   24.8300  -29.3120 O   0  0  0  0  0  0  0  0  0  0  0  0
   -3.9970   22.1910  -31.0820 N   0  0  0  0  0  0  0  0  0  0  0  0
   -2.6140   22.3000  -30.6610 C   0  0  0  0  0  0  0  0  0  0  0  0
   -2.1460   23.3940  -30.2740 O   0  0  0  0  0  0  0  0  0  0  0  0
   -1.7570   21.2130  -30.7860 O   0  0  0  0  0  0  0  0  0  0  0  0
   -4.5810   21.1680  -31.7510 C   0  0  0  0  0  0  0  0  0  0  0  0
   -3.9690   20.0460  -32.3390 C   0  0  0  0  0  0  0  0  0  0  0  0
   -4.8070   16.7570  -33.8850 C   0  0  0  0  0  0  0  0  0  0  0  0
   -1.7670   12.7250  -32.0490 C   0  0  0  0  0  0  0  0  0  0  0  0
    3.5770   13.9000  -34.3840 C   0  0  0  0  0  0  0  0  0  0  0  0
    5.0970   14.0610  -34.1460 C   0  0  0  0  0  0  0  0  0  0  0  0
    3.2340   12.3990  -34.2870 C   0  0  0  0  0  0  0  0  0  0  0  0
    3.2550   14.3720  -35.8240 C   0  0  0  0  0  0  0  0  0  0  0  0
    0.3160   17.4230  -27.6280 C   0  0  0  0  0  0  0  0  0  0  0  0
   -0.4930   18.5520  -27.4600 C   0  0  0  0  0  0  0  0  0  0  0  0
   -3.3064   19.5653  -26.2818 H   0  0  0  0  0  0  0  0  0  0  0  0
   -4.0947   20.0068  -27.8344 H   0  0  0  0  0  0  0  0  0  0  0  0
   -2.6321   18.9640  -27.8344 H   0  0  0  0  0  0  0  0  0  0  0  0
   -2.0573   24.3209  -27.2109 H   0  0  0  0  0  0  0  0  0  0  0  0
    1.7531   20.9824  -28.3226 H   0  0  0  0  0  0  0  0  0  0  0  0
    3.2079   18.9720  -28.6279 H   0  0  0  0  0  0  0  0  0  0  0  0
    3.5384   16.5806  -28.0288 H   0  0  0  0  0  0  0  0  0  0  0  0
    2.1012   15.5289  -27.6822 H   0  0  0  0  0  0  0  0  0  0  0  0
    2.7777   17.8660  -31.2230 H   0  0  0  0  0  0  0  0  0  0  0  0
    0.0789   18.3958  -30.5716 H   0  0  0  0  0  0  0  0  0  0  0  0
    1.1278   19.5735  -31.3649 H   0  0  0  0  0  0  0  0  0  0  0  0
   -1.0013   17.7618  -32.5928 H   0  0  0  0  0  0  0  0  0  0  0  0
   -1.0240   20.0780  -32.3600 H   0  0  0  0  0  0  0  0  0  0  0  0
    0.3187   17.1035  -34.4252 H   0  0  0  0  0  0  0  0  0  0  0  0
    1.2987   18.5669  -34.4053 H   0  0  0  0  0  0  0  0  0  0  0  0
    3.0603   14.4075  -32.3820 H   0  0  0  0  0  0  0  0  0  0  0  0
    0.7010   14.8820  -34.2360 H   0  0  0  0  0  0  0  0  0  0  0  0
   -1.3177   15.8170  -33.0158 H   0  0  0  0  0  0  0  0  0  0  0  0
   -3.9090   11.6078  -31.0739 H   0  0  0  0  0  0  0  0  0  0  0  0
   -4.2779   13.1720  -30.2688 H   0  0  0  0  0  0  0  0  0  0  0  0
   -6.2587   12.6454  -31.4785 H   0  0  0  0  0  0  0  0  0  0  0  0
   -5.3752   13.8461  -32.5191 H   0  0  0  0  0  0  0  0  0  0  0  0
   -5.5383   12.1591  -35.2318 H   0  0  0  0  0  0  0  0  0  0  0  0
   -7.0917   12.1434  -34.3311 H   0  0  0  0  0  0  0  0  0  0  0  0
   -6.9478   14.4200  -34.5916 H   0  0  0  0  0  0  0  0  0  0  0  0
   -5.8575   14.2855  -33.1554 H   0  0  0  0  0  0  0  0  0  0  0  0
   -2.5549   15.1988  -35.9354 H   0  0  0  0  0  0  0  0  0  0  0  0
   -1.3734   17.3676  -35.5803 H   0  0  0  0  0  0  0  0  0  0  0  0
   -6.7989   18.7040  -33.7721 H   0  0  0  0  0  0  0  0  0  0  0  0
   -7.8271   20.7483  -32.7267 H   0  0  0  0  0  0  0  0  0  0  0  0
   -7.2116   23.0591  -31.1875 H   0  0  0  0  0  0  0  0  0  0  0  0
   -2.8780   25.3100  -30.4900 H   0  0  0  0  0  0  0  0  0  0  0  0
   -2.8866   19.8760  -32.2415 H   0  0  0  0  0  0  0  0  0  0  0  0
   -5.7356   16.5649  -33.3274 H   0  0  0  0  0  0  0  0  0  0  0  0
   -1.5064   11.6811  -31.8202 H   0  0  0  0  0  0  0  0  0  0  0  0
    5.2986   14.0824  -33.0648 H   0  0  0  0  0  0  0  0  0  0  0  0
    5.6312   13.2144  -34.6020 H   0  0  0  0  0  0  0  0  0  0  0  0
    5.4420   15.0007  -34.6020 H   0  0  0  0  0  0  0  0  0  0  0  0
    3.1670   12.1058  -33.2289 H   0  0  0  0  0  0  0  0  0  0  0  0
    2.2696   12.2106  -34.7815 H   0  0  0  0  0  0  0  0  0  0  0  0
    4.0208   11.8104  -34.7815 H   0  0  0  0  0  0  0  0  0  0  0  0
    2.6355   15.2800  -35.7823 H   0  0  0  0  0  0  0  0  0  0  0  0
    4.1924   14.5917  -36.3561 H   0  0  0  0  0  0  0  0  0  0  0  0
    2.7085   13.5794  -36.3561 H   0  0  0  0  0  0  0  0  0  0  0  0
   -0.0862   16.4215  -27.4156 H   0  0  0  0  0  0  0  0  0  0  0  0
   -1.5340   18.4339  -27.1249 H   0  0  0  0  0  0  0  0  0  0  0  0
  1  2  1  0
  2  3  1  0
  3  4  2  0
  4  5  1  0
  5  6  1  0
  6  7  1  0
  7  8  2  0
  8  9  1  0
  9 10  2  0
 10 11  1  0
 11 12  1  0
 12 13  1  0
 13 14  2  0
 13 15  1  0
 15 16  1  0
 16 17  1  0
 17 18  1  0
 17 19  1  0
 19 20  1  0
 20 21  1  0
 21 22  2  0
 21 23  1  0
 23 24  1  0
 24 25  1  0
 25 26  2  0
 25 27  1  0
 27 28  1  0
 28 29  2  0
 29 30  1  0
 30 31  1  0
 31 32  1  0
 32 33  1  0
 33 34  1  0
 34 35  1  0
 35 36  1  0
 36 37  1  0
 37 38  2  0
 38 39  1  0
 39 40  2  0
 40 41  1  0
 41 42  1  0
 42 43  2  0
 43 44  1  0
 44 45  2  0
 45 46  1  0
 46 47  2  0
 47 48  1  0
 48 49  1  0
 48 50  2  0
 47 51  1  0
 51 52  1  0
 52 53  2  0
 52 54  1  0
 51 55  1  0
 55 56  2  0
 41 57  2  0
 30 58  1  0
 23 59  1  0
 59 60  1  0
 59 61  1  0
 59 62  1  0
 10 63  1  0
 63 64  2  0
  6  2  2  0
 64  7  1  0
 20 15  1  0
 58 27  2  0
 57 37  1  0
 56 42  1  0
 55 45  1  0
  1 65  1  0
  1 66  1  0
  1 67  1  0
  4 68  1  0
  8 69  1  0
  9 70  1  0
 11 71  1  0
 11 72  1  0
 15 73  1  1
 16 74  1  0
 16 75  1  0
 17 76  1  1
 18 77  1  0
 19 78  1  0
 19 79  1  0
 23 80  1  1
 24 81  1  0
 28 82  1  0
 31 83  1  0
 31 84  1  0
 32 85  1  0
 32 86  1  0
 34 87  1  0
 34 88  1  0
 35 89  1  0
 35 90  1  0
 38 91  1  0
 39 92  1  0
 43 93  1  0
 44 94  1  0
 46 95  1  0
 49 96  1  0
 56 97  1  0
 57 98  1  0
 58 99  1  0
 60100  1  0
 60101  1  0
 60102  1  0
 61103  1  0
 61104  1  0
 61105  1  0
 62106  1  0
 62107  1  0
 62108  1  0
 63109  1  0
 64110  1  0
M  CHG  3  12  -1  49  -1  54  -1
M  END
>  <UniqueID>  (70) 
68

>  <SMILES>  (70) 
Cc1ncsc1-c1ccc(C[N-]C(=O)[C@@H]2C[C@@H](O)CN2C(=O)[C@@H](NC(=O)c2cnn(CCOCCOc3ccnc(-c4ccc5cc(C([NH-])=O)n(C(=O)[O-])c5c4)c3)c2)C(C)(C)C)cc1

>  <Energy>  (70) 
233.257935366389

>  <Genealogy>  (70) 
Cc1ncsc1-c1ccc(C[N-]C(=O)[C@@H]2C[C@@H](O)CN2C(=O)[C@@H](NC(=O)c2cnn(CCOCCOc3ccnc(-c4ccc5cc(C([NH-])=O)n(C(=O)[O-])c5c4)c3)c2)C(C)(C)C)cc1 (protonated)
Cc1ncsc1-c1ccc(C[N-]C(=O)[C@@H]2C[C@@H](O)CN2C(=O)[C@@H](NC(=O)c2cnn(CCOCCOc3ccnc(-c4ccc5cc(C([NH-])=O)n(C(=O)[O-])c5c4)c3)c2)C(C)(C)C)cc1 (3D coordinates assigned)
Cc1ncsc1-c1ccc(C[N-]C(=O)[C@@H]2C[C@@H](O)CN2C(=O)[C@@H](NC(=O)c2cnn(CCOCCOc3ccnc(-c4ccc5cc(C([NH-])=O)n(C(=O)[O-])c5c4)c3)c2)C(C)(C)C)cc1 (nonaromatic ring conformer: 233.257935366389 kcal/mol)

>  <smiles>  (70) 
Cc1ncsc1-c1ccc(CNC(=O)[C@@H]2C[C@@H](O)CN2C(=O)[C@@H](NC(=O)c2cnn(CCOCCOc3ccnc(-c4ccc5cc(C(N)=O)n(C(=O)O)c5c4)c3)c2)C(C)(C)C)cc1

>  <score_type>  (70) 
oracle

>  <origin>  (70) 
adg

>  <m_score__min__energy>  (70) 
-11.83

>  <m_primary>  (70) 
energy

$$$$
70:0
     RDKit          3D

 47 49  0  0  0  0  0  0  0  0999 V2000
   -7.2860   17.1430  -32.7120 C   0  0  0  0  0  0  0  0  0  0  0  0
   -6.7430   18.3360  -33.3760 N   0  0  0  0  0  0  0  0  0  0  0  0
   -6.0210   18.1740  -34.6440 C   0  0  0  0  0  0  0  0  0  0  0  0
   -6.9190   19.6510  -32.7880 C   0  0  0  0  0  0  0  0  0  0  0  0
   -8.2230   20.1730  -32.5470 C   0  0  0  0  0  0  0  0  0  0  0  0
   -8.4030   21.4500  -31.9890 C   0  0  0  0  0  0  0  0  0  0  0  0
   -7.2700   22.1920  -31.6750 C   0  0  0  0  0  0  0  0  0  0  0  0
   -7.1530   23.4590  -31.1480 C   0  0  0  0  0  0  0  0  0  0  0  0
   -5.7830   23.6950  -31.0590 C   0  0  0  0  0  0  0  0  0  0  0  0
   -5.1940   24.9260  -30.4910 C   0  0  0  0  0  0  0  0  0  0  0  0
   -3.8650   25.3060  -30.8390 N   0  0  0  0  0  0  0  0  0  0  0  0
   -5.8630   25.6590  -29.7160 O   0  0  0  0  0  0  0  0  0  0  0  0
   -5.0860   22.6190  -31.5160 N   0  0  0  0  0  0  0  0  0  0  0  0
   -3.6640   22.4800  -31.6570 C   0  0  0  0  0  0  0  0  0  0  0  0
   -3.1910   22.1690  -32.7850 O   0  0  0  0  0  0  0  0  0  0  0  0
   -2.7900   22.8310  -30.5570 N   0  0  2  0  0  0  0  0  0  0  0  0
   -1.4380   22.2980  -30.8160 C   0  0  0  0  0  0  0  0  0  0  0  0
   -3.3650   22.4500  -29.2310 C   0  0  2  0  0  0  0  0  0  0  0  0
   -3.0640   23.4920  -28.1470 C   0  0  0  0  0  0  0  0  0  0  0  0
   -2.2120   22.7750  -27.1070 C   0  0  0  0  0  0  0  0  0  0  0  0
   -1.7970   21.4940  -27.6710 N   0  0  0  0  0  0  0  0  0  0  0  0
   -2.8210   21.1380  -28.6460 C   0  0  0  0  0  0  0  0  0  0  0  0
   -6.0080   21.7090  -31.8880 C   0  0  0  0  0  0  0  0  0  0  0  0
   -5.7940   20.4480  -32.4490 C   0  0  0  0  0  0  0  0  0  0  0  0
   -7.2274   17.2719  -31.6212 H   0  0  0  0  0  0  0  0  0  0  0  0
   -8.3360   17.0041  -33.0089 H   0  0  0  0  0  0  0  0  0  0  0  0
   -6.7011   16.2599  -33.0089 H   0  0  0  0  0  0  0  0  0  0  0  0
   -4.9667   17.9374  -34.4380 H   0  0  0  0  0  0  0  0  0  0  0  0
   -6.4743   17.3552  -35.2220 H   0  0  0  0  0  0  0  0  0  0  0  0
   -6.0810   19.1079  -35.2220 H   0  0  0  0  0  0  0  0  0  0  0  0
   -9.1039   19.5657  -32.8022 H   0  0  0  0  0  0  0  0  0  0  0  0
   -9.4109   21.8509  -31.8060 H   0  0  0  0  0  0  0  0  0  0  0  0
   -7.9676   24.1394  -30.8590 H   0  0  0  0  0  0  0  0  0  0  0  0
   -3.0920   25.2550  -30.1390 H   0  0  0  0  0  0  0  0  0  0  0  0
   -2.7060   23.8760  -30.5690 H   0  0  0  0  0  0  0  0  0  0  0  0
   -0.9329   22.0989  -29.8593 H   0  0  0  0  0  0  0  0  0  0  0  0
   -1.5162   21.3634  -31.3908 H   0  0  0  0  0  0  0  0  0  0  0  0
   -0.8574   23.0345  -31.3908 H   0  0  0  0  0  0  0  0  0  0  0  0
   -4.4368   22.3580  -29.4609 H   0  0  0  0  0  0  0  0  0  0  0  0
   -2.5116   24.3415  -28.5751 H   0  0  0  0  0  0  0  0  0  0  0  0
   -3.9873   23.8953  -27.7056 H   0  0  0  0  0  0  0  0  0  0  0  0
   -1.3265   23.3818  -26.8668 H   0  0  0  0  0  0  0  0  0  0  0  0
   -2.7878   22.6177  -26.1830 H   0  0  0  0  0  0  0  0  0  0  0  0
   -1.7780   20.7720  -26.9130 H   0  0  0  0  0  0  0  0  0  0  0  0
   -2.3829   20.5218  -29.4450 H   0  0  0  0  0  0  0  0  0  0  0  0
   -3.6265   20.5573  -28.1727 H   0  0  0  0  0  0  0  0  0  0  0  0
   -4.7727   20.0792  -32.6249 H   0  0  0  0  0  0  0  0  0  0  0  0
  1  2  1  0
  2  3  1  0
  2  4  1  0
  4  5  2  0
  5  6  1  0
  6  7  2  0
  7  8  1  0
  8  9  2  0
  9 10  1  0
 10 11  1  0
 10 12  2  0
  9 13  1  0
 13 14  1  0
 14 15  2  0
 14 16  1  0
 16 17  1  0
 16 18  1  0
 18 19  1  0
 19 20  1  0
 20 21  1  0
 21 22  1  0
 13 23  1  0
 23 24  2  0
 24  4  1  0
 23  7  1  0
 22 18  1  0
  1 25  1  0
  1 26  1  0
  1 27  1  0
  3 28  1  0
  3 29  1  0
  3 30  1  0
  5 31  1  0
  6 32  1  0
  8 33  1  0
 11 34  1  0
 16 35  1  1
 17 36  1  0
 17 37  1  0
 17 38  1  0
 18 39  1  6
 19 40  1  0
 19 41  1  0
 20 42  1  0
 20 43  1  0
 21 44  1  0
 22 45  1  0
 22 46  1  0
 24 47  1  0
M  CHG  2  11  -1  16   1
M  END
>  <UniqueID>  (71) 
69

>  <SMILES>  (71) 
CN(C)c1ccc2cc(C([NH-])=O)n(C(=O)[N@H+](C)[C@@H]3CCNC3)c2c1

>  <Energy>  (71) 
97.68503505209846

>  <Genealogy>  (71) 
CN(C)c1ccc2cc(C([NH-])=O)n(C(=O)[NH+](C)[C@@H]3CCNC3)c2c1 (protonated)
CN(C)c1ccc2cc(C([NH-])=O)n(C(=O)[N@H+](C)[C@@H]3CCNC3)c2c1 (chirality)
CN(C)c1ccc2cc(C([NH-])=O)n(C(=O)[N@H+](C)[C@@H]3CCNC3)c2c1 (3D coordinates assigned)
CN(C)c1ccc2cc(C([NH-])=O)n(C(=O)[N@H+](C)[C@@H]3CCNC3)c2c1 (nonaromatic ring conformer: 97.68503505209846 kcal/mol)

>  <smiles>  (71) 
CN(C)c1ccc2cc(C(N)=O)n(C(=O)N(C)[C@@H]3CCNC3)c2c1

>  <score_type>  (71) 
oracle

>  <origin>  (71) 
adg

>  <m_score__min__energy>  (71) 
-9.2300000000000004

>  <m_primary>  (71) 
energy

$$$$
71:0
     RDKit          3D

 53 55  0  0  0  0  0  0  0  0999 V2000
   -4.9200   16.5210  -32.6400 C   0  0  0  0  0  0  0  0  0  0  0  0
   -5.2360   17.9400  -33.1320 C   0  0  1  0  0  0  0  0  0  0  0  0
   -5.1180   18.0670  -34.6290 C   0  0  0  0  0  0  0  0  0  0  0  0
   -6.0140   18.6380  -35.3060 O   0  0  0  0  0  0  0  0  0  0  0  0
   -3.9770   17.5980  -35.2680 O   0  0  0  0  0  0  0  0  0  0  0  0
   -6.5720   18.3730  -32.6760 N   0  0  0  0  0  0  0  0  0  0  0  0
   -7.6880   17.4170  -32.6320 C   0  0  0  0  0  0  0  0  0  0  0  0
   -6.7910   19.7260  -32.2140 C   0  0  0  0  0  0  0  0  0  0  0  0
   -8.1090   20.2460  -32.0860 C   0  0  0  0  0  0  0  0  0  0  0  0
   -8.3280   21.5650  -31.6570 C   0  0  0  0  0  0  0  0  0  0  0  0
   -7.2190   22.3490  -31.3620 C   0  0  0  0  0  0  0  0  0  0  0  0
   -7.1370   23.6640  -30.9570 C   0  0  0  0  0  0  0  0  0  0  0  0
   -5.7730   23.9310  -30.8440 C   0  0  0  0  0  0  0  0  0  0  0  0
   -5.2180   25.2320  -30.4140 C   0  0  0  0  0  0  0  0  0  0  0  0
   -3.9310   25.6610  -30.8510 N   0  0  0  0  0  0  0  0  0  0  0  0
   -5.8810   25.9670  -29.6340 O   0  0  0  0  0  0  0  0  0  0  0  0
   -5.0470   22.8250  -31.1640 N   0  0  0  0  0  0  0  0  0  0  0  0
   -3.6230   22.7000  -31.2620 C   0  0  0  0  0  0  0  0  0  0  0  0
   -2.8940   23.2310  -30.3830 O   0  0  0  0  0  0  0  0  0  0  0  0
   -3.0190   21.9430  -32.3730 C   0  0  0  0  0  0  0  0  0  0  0  0
   -3.5570   21.9880  -33.5120 O   0  0  0  0  0  0  0  0  0  0  0  0
   -1.8250   21.1640  -32.1820 N   0  0  0  0  0  0  0  0  0  0  0  0
   -0.8610   21.0630  -33.2790 C   0  0  0  0  0  0  0  0  0  0  0  0
    0.5510   20.8160  -32.7270 C   0  0  0  0  0  0  0  0  0  0  0  0
    0.5970   19.7070  -31.7520 N   0  0  0  0  0  0  0  0  0  0  0  0
    0.4720   18.3870  -32.3930 C   0  0  0  0  0  0  0  0  0  0  0  0
   -0.3710   19.8980  -30.6520 C   0  0  0  0  0  0  0  0  0  0  0  0
   -1.8020   20.1160  -31.1560 C   0  0  0  0  0  0  0  0  0  0  0  0
   -5.9430   21.8680  -31.4780 C   0  0  0  0  0  0  0  0  0  0  0  0
   -5.6900   20.5630  -31.9070 C   0  0  0  0  0  0  0  0  0  0  0  0
   -4.9168   16.5065  -31.5401 H   0  0  0  0  0  0  0  0  0  0  0  0
   -5.6850   15.8245  -33.0136 H   0  0  0  0  0  0  0  0  0  0  0  0
   -3.9317   16.2150  -33.0136 H   0  0  0  0  0  0  0  0  0  0  0  0
   -4.4807   18.6058  -32.6890 H   0  0  0  0  0  0  0  0  0  0  0  0
   -7.9428   17.1988  -31.5844 H   0  0  0  0  0  0  0  0  0  0  0  0
   -8.5624   17.8506  -33.1393 H   0  0  0  0  0  0  0  0  0  0  0  0
   -7.3938   16.4864  -33.1393 H   0  0  0  0  0  0  0  0  0  0  0  0
   -8.9698   19.6049  -32.3268 H   0  0  0  0  0  0  0  0  0  0  0  0
   -9.3474   21.9660  -31.5573 H   0  0  0  0  0  0  0  0  0  0  0  0
   -7.9703   24.3557  -30.7640 H   0  0  0  0  0  0  0  0  0  0  0  0
   -3.0620   25.2990  -30.3990 H   0  0  0  0  0  0  0  0  0  0  0  0
   -1.1451   20.2277  -33.9359 H   0  0  0  0  0  0  0  0  0  0  0  0
   -0.8637   22.0058  -33.8456 H   0  0  0  0  0  0  0  0  0  0  0  0
    1.2195   20.5743  -33.5664 H   0  0  0  0  0  0  0  0  0  0  0  0
    0.8677   21.7307  -32.2044 H   0  0  0  0  0  0  0  0  0  0  0  0
    0.3983   17.6090  -31.6189 H   0  0  0  0  0  0  0  0  0  0  0  0
   -0.4320   18.3677  -33.0194 H   0  0  0  0  0  0  0  0  0  0  0  0
    1.3563   18.1984  -33.0194 H   0  0  0  0  0  0  0  0  0  0  0  0
   -0.3559   19.0045  -30.0105 H   0  0  0  0  0  0  0  0  0  0  0  0
   -0.0720   20.8004  -30.0986 H   0  0  0  0  0  0  0  0  0  0  0  0
   -2.1822   19.1779  -31.5866 H   0  0  0  0  0  0  0  0  0  0  0  0
   -2.4357   20.4266  -30.3122 H   0  0  0  0  0  0  0  0  0  0  0  0
   -4.6586   20.1933  -32.0043 H   0  0  0  0  0  0  0  0  0  0  0  0
  1  2  1  0
  2  3  1  0
  3  4  2  0
  3  5  1  0
  2  6  1  0
  6  7  1  0
  6  8  1  0
  8  9  2  0
  9 10  1  0
 10 11  2  0
 11 12  1  0
 12 13  2  0
 13 14  1  0
 14 15  1  0
 14 16  2  0
 13 17  1  0
 17 18  1  0
 18 19  2  0
 18 20  1  0
 20 21  2  0
 20 22  1  0
 22 23  1  0
 23 24  1  0
 24 25  1  0
 25 26  1  0
 25 27  1  0
 27 28  1  0
 17 29  1  0
 29 30  2  0
 30  8  1  0
 29 11  1  0
 28 22  1  0
  1 31  1  0
  1 32  1  0
  1 33  1  0
  2 34  1  1
  7 35  1  0
  7 36  1  0
  7 37  1  0
  9 38  1  0
 10 39  1  0
 12 40  1  0
 15 41  1  0
 23 42  1  0
 23 43  1  0
 24 44  1  0
 24 45  1  0
 26 46  1  0
 26 47  1  0
 26 48  1  0
 27 49  1  0
 27 50  1  0
 28 51  1  0
 28 52  1  0
 30 53  1  0
M  CHG  2   5  -1  15  -1
M  END
>  <UniqueID>  (72) 
70

>  <SMILES>  (72) 
C[C@@H](C(=O)[O-])N(C)c1ccc2cc(C([NH-])=O)n(C(=O)C(=O)N3CCN(C)CC3)c2c1

>  <Energy>  (72) 
101.53588688881766

>  <Genealogy>  (72) 
CC(C(=O)[O-])N(C)c1ccc2cc(C([NH-])=O)n(C(=O)C(=O)N3CCN(C)CC3)c2c1 (protonated)
C[C@@H](C(=O)[O-])N(C)c1ccc2cc(C([NH-])=O)n(C(=O)C(=O)N3CCN(C)CC3)c2c1 (chirality)
C[C@@H](C(=O)[O-])N(C)c1ccc2cc(C([NH-])=O)n(C(=O)C(=O)N3CCN(C)CC3)c2c1 (3D coordinates assigned)
C[C@@H](C(=O)[O-])N(C)c1ccc2cc(C([NH-])=O)n(C(=O)C(=O)N3CCN(C)CC3)c2c1 (nonaromatic ring conformer: 101.53588688881766 kcal/mol)

>  <smiles>  (72) 
CC(C(=O)O)N(C)c1ccc2cc(C(N)=O)n(C(=O)C(=O)N3CCN(C)CC3)c2c1

>  <score_type>  (72) 
oracle

>  <origin>  (72) 
adg

>  <m_score__min__energy>  (72) 
-11.08

>  <m_primary>  (72) 
energy

$$$$
72:0
     RDKit          3D

 52 54  0  0  0  0  0  0  0  0999 V2000
   -1.2170   25.7850  -28.2030 C   0  0  0  0  0  0  0  0  0  0  0  0
   -1.4150   24.7620  -29.1540 O   0  0  0  0  0  0  0  0  0  0  0  0
   -1.1710   23.4930  -28.5750 C   0  0  0  0  0  0  0  0  0  0  0  0
   -1.5050   22.3850  -29.5790 C   0  0  0  0  0  0  0  0  0  0  0  0
   -2.7330   21.5860  -29.1340 C   0  0  0  0  0  0  0  0  0  0  0  0
   -3.6450   21.4290  -30.2200 O   0  0  0  0  0  0  0  0  0  0  0  0
   -4.0060   22.4710  -31.0820 C   0  0  0  0  0  0  0  0  0  0  0  0
   -3.1290   23.0620  -31.7690 O   0  0  0  0  0  0  0  0  0  0  0  0
   -5.3840   22.8560  -31.1960 N   0  0  0  0  0  0  0  0  0  0  0  0
   -5.9480   24.0510  -30.8560 C   0  0  0  0  0  0  0  0  0  0  0  0
   -5.2180   25.2660  -30.4370 C   0  0  0  0  0  0  0  0  0  0  0  0
   -3.8640   25.4540  -30.8430 N   0  0  0  0  0  0  0  0  0  0  0  0
   -5.7640   26.1210  -29.6920 O   0  0  0  0  0  0  0  0  0  0  0  0
   -7.3280   24.0090  -31.0400 C   0  0  0  0  0  0  0  0  0  0  0  0
   -7.5970   22.7450  -31.5120 C   0  0  0  0  0  0  0  0  0  0  0  0
   -8.8100   22.1570  -31.8570 C   0  0  0  0  0  0  0  0  0  0  0  0
   -8.7940   20.8210  -32.2920 C   0  0  0  0  0  0  0  0  0  0  0  0
   -7.5770   20.0950  -32.3590 C   0  0  0  0  0  0  0  0  0  0  0  0
   -7.5730   18.7300  -32.8220 N   0  0  0  0  0  0  0  0  0  0  0  0
   -6.2200   18.1680  -32.7190 C   0  0  0  0  0  0  0  0  0  0  0  0
   -5.6180   17.9980  -34.0810 C   0  0  0  0  0  0  0  0  0  0  0  0
   -6.1240   18.5910  -35.0720 O   0  0  0  0  0  0  0  0  0  0  0  0
   -4.4460   17.2050  -34.2550 N   0  0  0  0  0  0  0  0  0  0  0  0
   -3.5510   16.3830  -33.4230 C   0  0  0  0  0  0  0  0  0  0  0  0
   -2.6330   15.9770  -34.5300 C   0  0  0  0  0  0  0  0  0  0  0  0
   -3.5520   16.8140  -35.3590 C   0  0  0  0  0  0  0  0  0  0  0  0
   -6.3630   20.7320  -32.0100 C   0  0  0  0  0  0  0  0  0  0  0  0
   -6.4070   22.0680  -31.5960 C   0  0  0  0  0  0  0  0  0  0  0  0
   -1.2984   25.3645  -27.1898 H   0  0  0  0  0  0  0  0  0  0  0  0
   -0.2173   26.2234  -28.3388 H   0  0  0  0  0  0  0  0  0  0  0  0
   -1.9809   26.5648  -28.3388 H   0  0  0  0  0  0  0  0  0  0  0  0
   -0.1107   23.4199  -28.2915 H   0  0  0  0  0  0  0  0  0  0  0  0
   -1.8049   23.3753  -27.6838 H   0  0  0  0  0  0  0  0  0  0  0  0
   -1.7087   22.8392  -30.5599 H   0  0  0  0  0  0  0  0  0  0  0  0
   -0.6468   21.6996  -29.6395 H   0  0  0  0  0  0  0  0  0  0  0  0
   -2.4123   20.5938  -28.7838 H   0  0  0  0  0  0  0  0  0  0  0  0
   -3.2367   22.1295  -28.3210 H   0  0  0  0  0  0  0  0  0  0  0  0
   -3.1070   24.8280  -30.4920 H   0  0  0  0  0  0  0  0  0  0  0  0
   -8.0504   24.8161  -30.8484 H   0  0  0  0  0  0  0  0  0  0  0  0
   -9.7523   22.7206  -31.7912 H   0  0  0  0  0  0  0  0  0  0  0  0
   -9.7355   20.3327  -32.5838 H   0  0  0  0  0  0  0  0  0  0  0  0
   -7.9000   18.6950  -33.8150 H   0  0  0  0  0  0  0  0  0  0  0  0
   -8.2360   18.1590  -32.2450 H   0  0  0  0  0  0  0  0  0  0  0  0
   -5.5897   18.8476  -32.1267 H   0  0  0  0  0  0  0  0  0  0  0  0
   -6.2793   17.1842  -32.2305 H   0  0  0  0  0  0  0  0  0  0  0  0
   -3.0420   16.9671  -32.6421 H   0  0  0  0  0  0  0  0  0  0  0  0
   -4.0140   15.5767  -32.8352 H   0  0  0  0  0  0  0  0  0  0  0  0
   -1.5993   16.3443  -34.4488 H   0  0  0  0  0  0  0  0  0  0  0  0
   -2.3737   14.9336  -34.7625 H   0  0  0  0  0  0  0  0  0  0  0  0
   -3.0438   17.6744  -35.8189 H   0  0  0  0  0  0  0  0  0  0  0  0
   -4.0159   16.3333  -36.2329 H   0  0  0  0  0  0  0  0  0  0  0  0
   -5.4072   20.1900  -32.0628 H   0  0  0  0  0  0  0  0  0  0  0  0
  1  2  1  0
  2  3  1  0
  3  4  1  0
  4  5  1  0
  5  6  1  0
  6  7  1  0
  7  8  2  0
  7  9  1  0
  9 10  1  0
 10 11  1  0
 11 12  1  0
 11 13  2  0
 10 14  2  0
 14 15  1  0
 15 16  2  0
 16 17  1  0
 17 18  2  0
 18 19  1  0
 19 20  1  0
 20 21  1  0
 21 22  2  0
 21 23  1  0
 23 24  1  0
 24 25  1  0
 25 26  1  0
 18 27  1  0
 27 28  2  0
 28  9  1  0
 28 15  1  0
 26 23  1  0
  1 29  1  0
  1 30  1  0
  1 31  1  0
  3 32  1  0
  3 33  1  0
  4 34  1  0
  4 35  1  0
  5 36  1  0
  5 37  1  0
 12 38  1  0
 14 39  1  0
 16 40  1  0
 17 41  1  0
 19 42  1  0
 19 43  1  0
 20 44  1  0
 20 45  1  0
 24 46  1  0
 24 47  1  0
 25 48  1  0
 25 49  1  0
 26 50  1  0
 26 51  1  0
 27 52  1  0
M  CHG  2  12  -1  19   1
M  END
>  <UniqueID>  (73) 
71

>  <SMILES>  (73) 
COCCCOC(=O)n1c(C([NH-])=O)cc2ccc([NH2+]CC(=O)N3CCC3)cc21

>  <Energy>  (73) 
129.4456727416559

>  <Genealogy>  (73) 
COCCCOC(=O)n1c(C([NH-])=O)cc2ccc([NH2+]CC(=O)N3CCC3)cc21 (protonated)
COCCCOC(=O)n1c(C([NH-])=O)cc2ccc([NH2+]CC(=O)N3CCC3)cc21 (3D coordinates assigned)
COCCCOC(=O)n1c(C([NH-])=O)cc2ccc([NH2+]CC(=O)N3CCC3)cc21 (nonaromatic ring conformer: 129.4456727416559 kcal/mol)

>  <smiles>  (73) 
COCCCOC(=O)n1c(C(N)=O)cc2ccc(NCC(=O)N3CCC3)cc21

>  <score_type>  (73) 
oracle

>  <origin>  (73) 
adg

>  <m_score__min__energy>  (73) 
-10.460000000000001

>  <m_primary>  (73) 
energy

$$$$
73:0
     RDKit          3D

 34 35  0  0  0  0  0  0  0  0999 V2000
   -4.8970   24.7130  -29.3730 N   0  0  0  0  0  0  0  0  0  0  0  0
   -6.2250   24.5960  -29.8880 C   0  0  0  0  0  0  0  0  0  0  0  0
   -7.0400   25.5360  -29.6960 O   0  0  0  0  0  0  0  0  0  0  0  0
   -6.6300   23.4060  -30.6690 C   0  0  0  0  0  0  0  0  0  0  0  0
   -7.9560   23.0410  -30.8950 C   0  0  0  0  0  0  0  0  0  0  0  0
   -7.8960   21.8420  -31.5660 C   0  0  0  0  0  0  0  0  0  0  0  0
   -8.9220   21.0320  -32.0460 C   0  0  0  0  0  0  0  0  0  0  0  0
   -8.5680   19.8560  -32.7270 C   0  0  0  0  0  0  0  0  0  0  0  0
   -7.2080   19.5180  -32.9220 C   0  0  0  0  0  0  0  0  0  0  0  0
   -6.8610   18.3240  -33.6280 N   0  0  0  0  0  0  0  0  0  0  0  0
   -6.1930   20.3610  -32.4220 C   0  0  0  0  0  0  0  0  0  0  0  0
   -6.5730   21.5180  -31.7290 C   0  0  0  0  0  0  0  0  0  0  0  0
   -5.7830   22.4690  -31.1840 N   0  0  0  0  0  0  0  0  0  0  0  0
   -4.3460   22.5020  -31.2070 C   0  0  0  0  0  0  0  0  0  0  0  0
   -3.7490   23.5740  -31.4970 O   0  0  0  0  0  0  0  0  0  0  0  0
   -3.6250   21.3340  -30.9220 O   0  0  0  0  0  0  0  0  0  0  0  0
   -2.3050   21.0850  -31.3210 C   0  0  0  0  0  0  0  0  0  0  0  0
   -2.0490   20.3840  -32.3380 O   0  0  0  0  0  0  0  0  0  0  0  0
   -1.2010   21.6510  -30.5420 C   0  0  0  0  0  0  0  0  0  0  0  0
   -0.0960   21.8800  -31.1080 O   0  0  0  0  0  0  0  0  0  0  0  0
   -1.3890   21.9300  -29.1820 O   0  0  0  0  0  0  0  0  0  0  0  0
   -2.0990   23.0290  -28.6770 C   0  0  0  0  0  0  0  0  0  0  0  0
   -3.1260   22.8700  -27.9630 O   0  0  0  0  0  0  0  0  0  0  0  0
   -1.6380   24.3850  -28.9840 C   0  0  0  0  0  0  0  0  0  0  0  0
   -2.4650   25.2670  -29.3380 O   0  0  0  0  0  0  0  0  0  0  0  0
   -0.2910   24.7050  -28.8880 O   0  0  0  0  0  0  0  0  0  0  0  0
   -4.6100   25.5740  -28.8570 H   0  0  0  0  0  0  0  0  0  0  0  0
   -4.2090   23.9330  -29.4630 H   0  0  0  0  0  0  0  0  0  0  0  0
   -8.8593   23.5947  -30.5993 H   0  0  0  0  0  0  0  0  0  0  0  0
   -9.9771   21.3049  -31.8964 H   0  0  0  0  0  0  0  0  0  0  0  0
   -9.3553   19.1915  -33.1124 H   0  0  0  0  0  0  0  0  0  0  0  0
   -6.8410   18.3060  -34.6710 H   0  0  0  0  0  0  0  0  0  0  0  0
   -6.6220   17.4480  -33.1100 H   0  0  0  0  0  0  0  0  0  0  0  0
   -5.1312   20.1163  -32.5723 H   0  0  0  0  0  0  0  0  0  0  0  0
  1  2  1  0
  2  3  2  0
  2  4  1  0
  4  5  2  0
  5  6  1  0
  6  7  2  0
  7  8  1  0
  8  9  2  0
  9 10  1  0
  9 11  1  0
 11 12  2  0
 12 13  1  0
 13 14  1  0
 14 15  2  0
 14 16  1  0
 16 17  1  0
 17 18  2  0
 17 19  1  0
 19 20  2  0
 19 21  1  0
 21 22  1  0
 22 23  2  0
 22 24  1  0
 24 25  2  0
 24 26  1  0
 13  4  1  0
 12  6  1  0
  1 27  1  0
  1 28  1  0
  5 29  1  0
  7 30  1  0
  8 31  1  0
 10 32  1  0
 10 33  1  0
 11 34  1  0
M  CHG  1  26  -1
M  END
>  <UniqueID>  (74) 
72

>  <SMILES>  (74) 
NC(=O)c1cc2ccc(N)cc2n1C(=O)OC(=O)C(=O)OC(=O)C(=O)[O-]

>  <Energy>  (74) 
71.34366937896938

>  <Genealogy>  (74) 
NC(=O)c1cc2ccc(N)cc2n1C(=O)OC(=O)C(=O)OC(=O)C(=O)[O-] (protonated)
NC(=O)c1cc2ccc(N)cc2n1C(=O)OC(=O)C(=O)OC(=O)C(=O)[O-] (3D coordinates assigned)
NC(=O)c1cc2ccc(N)cc2n1C(=O)OC(=O)C(=O)OC(=O)C(=O)[O-] (optimized conformer: 71.34366937896938 kcal/mol)

>  <smiles>  (74) 
NC(=O)c1cc2ccc(N)cc2n1C(=O)OC(=O)C(=O)OC(=O)C(=O)O

>  <score_type>  (74) 
oracle

>  <origin>  (74) 
adg

>  <m_score__min__energy>  (74) 
-9.5700000000000003

>  <m_primary>  (74) 
energy

$$$$
74:0
     RDKit          3D

 46 48  0  0  0  0  0  0  0  0999 V2000
   -6.7690   18.4270  -33.0760 C   0  0  0  0  0  0  0  0  0  0  0  0
   -7.0290   19.7750  -32.4730 C   0  0  0  0  0  0  0  0  0  0  0  0
   -8.3540   20.2700  -32.3840 C   0  0  0  0  0  0  0  0  0  0  0  0
   -8.6070   21.5460  -31.8490 C   0  0  0  0  0  0  0  0  0  0  0  0
   -7.5180   22.3030  -31.4270 C   0  0  0  0  0  0  0  0  0  0  0  0
   -7.4720   23.5640  -30.8720 C   0  0  0  0  0  0  0  0  0  0  0  0
   -6.1170   23.8250  -30.6560 C   0  0  0  0  0  0  0  0  0  0  0  0
   -5.5780   25.1060  -30.1440 C   0  0  0  0  0  0  0  0  0  0  0  0
   -4.2720   25.5550  -30.5110 N   0  0  0  0  0  0  0  0  0  0  0  0
   -6.2670   25.8090  -29.3570 O   0  0  0  0  0  0  0  0  0  0  0  0
   -5.3640   22.7640  -31.0590 N   0  0  0  0  0  0  0  0  0  0  0  0
   -3.9400   22.6070  -30.9710 C   0  0  0  0  0  0  0  0  0  0  0  0
   -3.1920   23.4210  -31.5750 O   0  0  0  0  0  0  0  0  0  0  0  0
   -3.3560   21.4960  -30.1960 C   0  0  0  0  0  0  0  0  0  0  0  0
   -3.4300   20.3210  -30.6450 O   0  0  0  0  0  0  0  0  0  0  0  0
   -2.7060   21.7320  -28.9370 N   0  0  0  0  0  0  0  0  0  0  0  0
   -3.0720   20.9280  -27.7710 C   0  0  0  0  0  0  0  0  0  0  0  0
   -1.9060   20.8390  -26.7620 C   0  0  1  0  0  0  0  0  0  0  0  0
   -0.8410   19.8270  -27.2040 C   0  0  0  0  0  0  0  0  0  0  0  0
   -1.2860   22.0790  -26.4260 O   0  0  0  0  0  0  0  0  0  0  0  0
   -1.3640   23.1160  -27.4000 C   0  0  2  0  0  0  0  0  0  0  0  0
   -2.4340   24.1330  -26.9840 C   0  0  0  0  0  0  0  0  0  0  0  0
   -1.5650   22.6430  -28.8520 C   0  0  0  0  0  0  0  0  0  0  0  0
   -6.2310   21.8460  -31.5320 C   0  0  0  0  0  0  0  0  0  0  0  0
   -5.9480   20.5790  -32.0520 C   0  0  0  0  0  0  0  0  0  0  0  0
   -6.6264   17.6878  -32.2739 H   0  0  0  0  0  0  0  0  0  0  0  0
   -7.6268   18.1320  -33.6982 H   0  0  0  0  0  0  0  0  0  0  0  0
   -5.8630   18.4722  -33.6982 H   0  0  0  0  0  0  0  0  0  0  0  0
   -9.1920   19.6508  -32.7365 H   0  0  0  0  0  0  0  0  0  0  0  0
   -9.6332   21.9334  -31.7667 H   0  0  0  0  0  0  0  0  0  0  0  0
   -8.3222   24.2247  -30.6469 H   0  0  0  0  0  0  0  0  0  0  0  0
   -3.6900   25.0370  -31.2040 H   0  0  0  0  0  0  0  0  0  0  0  0
   -3.8840   26.4290  -30.0920 H   0  0  0  0  0  0  0  0  0  0  0  0
   -3.9396   21.3888  -27.2761 H   0  0  0  0  0  0  0  0  0  0  0  0
   -3.3136   19.9108  -28.1128 H   0  0  0  0  0  0  0  0  0  0  0  0
   -2.3943   20.4900  -25.8402 H   0  0  0  0  0  0  0  0  0  0  0  0
   -0.3699   19.3793  -26.3165 H   0  0  0  0  0  0  0  0  0  0  0  0
   -1.3134   19.0370  -27.8062 H   0  0  0  0  0  0  0  0  0  0  0  0
   -0.0761   20.3391  -27.8062 H   0  0  0  0  0  0  0  0  0  0  0  0
   -0.3727   23.5925  -27.4156 H   0  0  0  0  0  0  0  0  0  0  0  0
   -2.4859   24.1823  -25.8863 H   0  0  0  0  0  0  0  0  0  0  0  0
   -2.1730   25.1240  -27.3837 H   0  0  0  0  0  0  0  0  0  0  0  0
   -3.4105   23.8220  -27.3837 H   0  0  0  0  0  0  0  0  0  0  0  0
   -1.7491   23.5159  -29.4955 H   0  0  0  0  0  0  0  0  0  0  0  0
   -0.6597   22.1136  -29.1839 H   0  0  0  0  0  0  0  0  0  0  0  0
   -4.9116   20.2190  -32.1307 H   0  0  0  0  0  0  0  0  0  0  0  0
  1  2  1  0
  2  3  2  0
  3  4  1  0
  4  5  2  0
  5  6  1  0
  6  7  2  0
  7  8  1  0
  8  9  1  0
  8 10  2  0
  7 11  1  0
 11 12  1  0
 12 13  2  0
 12 14  1  0
 14 15  2  0
 14 16  1  0
 16 17  1  0
 17 18  1  0
 18 19  1  0
 18 20  1  0
 20 21  1  0
 21 22  1  0
 21 23  1  0
 11 24  1  0
 24 25  2  0
 25  2  1  0
 24  5  1  0
 23 16  1  0
  1 26  1  0
  1 27  1  0
  1 28  1  0
  3 29  1  0
  4 30  1  0
  6 31  1  0
  9 32  1  0
  9 33  1  0
 17 34  1  0
 17 35  1  0
 18 36  1  1
 19 37  1  0
 19 38  1  0
 19 39  1  0
 21 40  1  6
 22 41  1  0
 22 42  1  0
 22 43  1  0
 23 44  1  0
 23 45  1  0
 25 46  1  0
M  END
>  <UniqueID>  (75) 
73

>  <SMILES>  (75) 
Cc1ccc2cc(C(N)=O)n(C(=O)C(=O)N3C[C@@H](C)O[C@H](C)C3)c2c1

>  <Energy>  (75) 
98.0176825944706

>  <Genealogy>  (75) 
Cc1ccc2cc(C(N)=O)n(C(=O)C(=O)N3C[C@@H](C)O[C@H](C)C3)c2c1 (chirality)
Cc1ccc2cc(C(N)=O)n(C(=O)C(=O)N3C[C@@H](C)O[C@H](C)C3)c2c1 (3D coordinates assigned)
Cc1ccc2cc(C(N)=O)n(C(=O)C(=O)N3C[C@@H](C)O[C@H](C)C3)c2c1 (nonaromatic ring conformer: 98.0176825944706 kcal/mol)

>  <smiles>  (75) 
Cc1ccc2cc(C(N)=O)n(C(=O)C(=O)N3CC(C)OC(C)C3)c2c1

>  <score_type>  (75) 
oracle

>  <origin>  (75) 
adg

>  <m_score__min__energy>  (75) 
-9.3399999999999999

>  <m_primary>  (75) 
energy

$$$$
75:0
     RDKit          3D

 41 42  0  0  0  0  0  0  0  0999 V2000
   -0.3340   23.6340  -26.2830 C   0  0  0  0  0  0  0  0  0  0  0  0
   -0.0040   23.0550  -27.6550 C   0  0  0  0  0  0  0  0  0  0  0  0
   -0.4850   23.9080  -28.6910 O   0  0  0  0  0  0  0  0  0  0  0  0
   -1.8440   24.1700  -28.9040 C   0  0  0  0  0  0  0  0  0  0  0  0
   -2.2190   25.2900  -29.3460 O   0  0  0  0  0  0  0  0  0  0  0  0
   -2.8350   23.1290  -28.5940 C   0  0  0  0  0  0  0  0  0  0  0  0
   -3.3200   23.0780  -27.4310 O   0  0  0  0  0  0  0  0  0  0  0  0
   -3.2720   22.1840  -29.5900 N   0  0  0  0  0  0  0  0  0  0  0  0
   -2.9710   20.7630  -29.3980 C   0  0  0  0  0  0  0  0  0  0  0  0
   -3.8130   22.6230  -30.8550 C   0  0  0  0  0  0  0  0  0  0  0  0
   -3.0330   22.9460  -31.7920 O   0  0  0  0  0  0  0  0  0  0  0  0
   -5.2330   22.7310  -31.0580 N   0  0  0  0  0  0  0  0  0  0  0  0
   -6.0260   23.8150  -30.8240 C   0  0  0  0  0  0  0  0  0  0  0  0
   -5.5470   25.1500  -30.3940 C   0  0  0  0  0  0  0  0  0  0  0  0
   -4.1950   25.5540  -30.6190 N   0  0  0  0  0  0  0  0  0  0  0  0
   -6.3300   25.9450  -29.8080 O   0  0  0  0  0  0  0  0  0  0  0  0
   -7.3580   23.5100  -31.1060 C   0  0  0  0  0  0  0  0  0  0  0  0
   -7.3560   22.1950  -31.5060 C   0  0  0  0  0  0  0  0  0  0  0  0
   -8.4120   21.3730  -31.8890 C   0  0  0  0  0  0  0  0  0  0  0  0
   -8.1220   20.0380  -32.2210 C   0  0  0  0  0  0  0  0  0  0  0  0
   -6.7910   19.5510  -32.1560 C   0  0  0  0  0  0  0  0  0  0  0  0
   -6.4860   18.1200  -32.4940 C   0  0  0  0  0  0  0  0  0  0  0  0
   -6.1510   17.4310  -31.3430 F   0  0  0  0  0  0  0  0  0  0  0  0
   -7.5960   17.5320  -33.0710 F   0  0  0  0  0  0  0  0  0  0  0  0
   -5.7480   20.4150  -31.7580 C   0  0  0  0  0  0  0  0  0  0  0  0
   -6.0640   21.7440  -31.4600 C   0  0  0  0  0  0  0  0  0  0  0  0
    0.0486   22.9627  -25.5001 H   0  0  0  0  0  0  0  0  0  0  0  0
    0.1360   24.6232  -26.1797 H   0  0  0  0  0  0  0  0  0  0  0  0
   -1.4246   23.7337  -26.1797 H   0  0  0  0  0  0  0  0  0  0  0  0
    1.0869   22.9511  -27.7502 H   0  0  0  0  0  0  0  0  0  0  0  0
   -0.4907   22.0732  -27.7508 H   0  0  0  0  0  0  0  0  0  0  0  0
   -2.9238   20.5403  -28.3218 H   0  0  0  0  0  0  0  0  0  0  0  0
   -3.7602   20.1548  -29.8640 H   0  0  0  0  0  0  0  0  0  0  0  0
   -2.0029   20.5270  -29.8640 H   0  0  0  0  0  0  0  0  0  0  0  0
   -3.8630   26.4820  -30.2770 H   0  0  0  0  0  0  0  0  0  0  0  0
   -3.5300   24.9590  -31.1600 H   0  0  0  0  0  0  0  0  0  0  0  0
   -8.2264   24.1804  -31.0253 H   0  0  0  0  0  0  0  0  0  0  0  0
   -9.4422   21.7563  -31.9306 H   0  0  0  0  0  0  0  0  0  0  0  0
   -8.9341   19.3652  -32.5339 H   0  0  0  0  0  0  0  0  0  0  0  0
   -5.6433   18.0877  -33.2002 H   0  0  0  0  0  0  0  0  0  0  0  0
   -4.7124   20.0517  -31.6841 H   0  0  0  0  0  0  0  0  0  0  0  0
  1  2  1  0
  2  3  1  0
  3  4  1  0
  4  5  2  0
  4  6  1  0
  6  7  2  0
  6  8  1  0
  8  9  1  0
  8 10  1  0
 10 11  2  0
 10 12  1  0
 12 13  1  0
 13 14  1  0
 14 15  1  0
 14 16  2  0
 13 17  2  0
 17 18  1  0
 18 19  2  0
 19 20  1  0
 20 21  2  0
 21 22  1  0
 22 23  1  0
 22 24  1  0
 21 25  1  0
 25 26  2  0
 26 12  1  0
 26 18  1  0
  1 27  1  0
  1 28  1  0
  1 29  1  0
  2 30  1  0
  2 31  1  0
  9 32  1  0
  9 33  1  0
  9 34  1  0
 15 35  1  0
 15 36  1  0
 17 37  1  0
 19 38  1  0
 20 39  1  0
 22 40  1  0
 25 41  1  0
M  END
>  <UniqueID>  (76) 
74

>  <SMILES>  (76) 
CCOC(=O)C(=O)N(C)C(=O)n1c(C(N)=O)cc2ccc(C(F)F)cc21

>  <Energy>  (76) 
77.55709769906568

>  <Genealogy>  (76) 
CCOC(=O)C(=O)N(C)C(=O)n1c(C(N)=O)cc2ccc(C(F)F)cc21 (3D coordinates assigned)
CCOC(=O)C(=O)N(C)C(=O)n1c(C(N)=O)cc2ccc(C(F)F)cc21 (optimized conformer: 77.55709769906568 kcal/mol)

>  <smiles>  (76) 
CCOC(=O)C(=O)N(C)C(=O)n1c(C(N)=O)cc2ccc(C(F)F)cc21

>  <score_type>  (76) 
oracle

>  <origin>  (76) 
adg

>  <m_score__min__energy>  (76) 
-8.8300000000000001

>  <m_primary>  (76) 
energy

$$$$
76:0
     RDKit          3D

 43 44  0  0  0  0  0  0  0  0999 V2000
   -8.1190   22.0360  -30.8710 C   0  0  0  0  0  0  0  0  0  0  0  0
   -7.4630   22.7810  -29.9740 C   0  0  0  0  0  0  0  0  0  0  0  0
   -6.5380   23.9200  -30.3730 C   0  0  0  0  0  0  0  0  0  0  0  0
   -7.0940   25.2560  -29.8450 C   0  0  0  0  0  0  0  0  0  0  0  0
   -6.4400   23.9970  -31.9060 C   0  0  0  0  0  0  0  0  0  0  0  0
   -5.1900   23.7080  -29.8340 N   0  0  0  0  0  0  0  0  0  0  0  0
   -3.9690   24.1610  -30.4340 C   0  0  0  0  0  0  0  0  0  0  0  0
   -3.8640   25.3490  -30.8440 O   0  0  0  0  0  0  0  0  0  0  0  0
   -2.8750   23.2470  -30.6100 N   0  0  0  0  0  0  0  0  0  0  0  0
   -1.6350   23.3040  -30.0450 C   0  0  0  0  0  0  0  0  0  0  0  0
   -1.0870   24.4330  -29.2670 C   0  0  0  0  0  0  0  0  0  0  0  0
   -1.9080   25.5410  -28.9070 N   0  0  0  0  0  0  0  0  0  0  0  0
    0.1330   24.4450  -28.9580 O   0  0  0  0  0  0  0  0  0  0  0  0
   -0.8970   22.1690  -30.3680 C   0  0  0  0  0  0  0  0  0  0  0  0
   -1.7260   21.4090  -31.1590 C   0  0  0  0  0  0  0  0  0  0  0  0
   -1.5090   20.1680  -31.7470 C   0  0  0  0  0  0  0  0  0  0  0  0
   -2.5560   19.5960  -32.4870 C   0  0  0  0  0  0  0  0  0  0  0  0
   -3.8090   20.2590  -32.6240 C   0  0  0  0  0  0  0  0  0  0  0  0
   -4.8900   19.6520  -33.3790 N   0  0  0  0  0  0  0  0  0  0  0  0
   -4.6360   18.4940  -34.2460 C   0  0  0  0  0  0  0  0  0  0  0  0
   -6.2540   20.1860  -33.2900 C   0  0  0  0  0  0  0  0  0  0  0  0
   -3.9810   21.5240  -32.0040 C   0  0  0  0  0  0  0  0  0  0  0  0
   -2.9120   22.0790  -31.2910 C   0  0  0  0  0  0  0  0  0  0  0  0
   -8.7777   21.2221  -30.5337 H   0  0  0  0  0  0  0  0  0  0  0  0
   -7.9997   22.2373  -31.9458 H   0  0  0  0  0  0  0  0  0  0  0  0
   -7.5982   22.5607  -28.9048 H   0  0  0  0  0  0  0  0  0  0  0  0
   -7.0898   25.2458  -28.7451 H   0  0  0  0  0  0  0  0  0  0  0  0
   -6.4654   26.0832  -30.2064 H   0  0  0  0  0  0  0  0  0  0  0  0
   -8.1238   25.3930  -30.2064 H   0  0  0  0  0  0  0  0  0  0  0  0
   -5.6038   24.6540  -32.1874 H   0  0  0  0  0  0  0  0  0  0  0  0
   -6.2681   22.9898  -32.3135 H   0  0  0  0  0  0  0  0  0  0  0  0
   -7.3779   24.4023  -32.3135 H   0  0  0  0  0  0  0  0  0  0  0  0
   -2.8440   25.6810  -29.3470 H   0  0  0  0  0  0  0  0  0  0  0  0
    0.1308   21.9307  -30.0567 H   0  0  0  0  0  0  0  0  0  0  0  0
   -0.5453   19.6495  -31.6357 H   0  0  0  0  0  0  0  0  0  0  0  0
   -2.4060   18.6188  -32.9693 H   0  0  0  0  0  0  0  0  0  0  0  0
   -4.4414   17.6069  -33.6253 H   0  0  0  0  0  0  0  0  0  0  0  0
   -5.5155   18.3115  -34.8810 H   0  0  0  0  0  0  0  0  0  0  0  0
   -3.7609   18.6963  -34.8810 H   0  0  0  0  0  0  0  0  0  0  0  0
   -6.5362   20.2965  -32.2326 H   0  0  0  0  0  0  0  0  0  0  0  0
   -6.2967   21.1672  -33.7854 H   0  0  0  0  0  0  0  0  0  0  0  0
   -6.9515   19.4946  -33.7854 H   0  0  0  0  0  0  0  0  0  0  0  0
   -4.9387   22.0595  -32.0825 H   0  0  0  0  0  0  0  0  0  0  0  0
  1  2  2  0
  2  3  1  0
  3  4  1  0
  3  5  1  0
  3  6  1  0
  6  7  1  0
  7  8  2  0
  7  9  1  0
  9 10  1  0
 10 11  1  0
 11 12  1  0
 11 13  2  0
 10 14  2  0
 14 15  1  0
 15 16  2  0
 16 17  1  0
 17 18  2  0
 18 19  1  0
 19 20  1  0
 19 21  1  0
 18 22  1  0
 22 23  2  0
 23  9  1  0
 23 15  1  0
  1 24  1  0
  1 25  1  0
  2 26  1  0
  4 27  1  0
  4 28  1  0
  4 29  1  0
  5 30  1  0
  5 31  1  0
  5 32  1  0
 12 33  1  0
 14 34  1  0
 16 35  1  0
 17 36  1  0
 20 37  1  0
 20 38  1  0
 20 39  1  0
 21 40  1  0
 21 41  1  0
 21 42  1  0
 22 43  1  0
M  CHG  2   6  -1  12  -1
M  END
>  <UniqueID>  (77) 
75

>  <SMILES>  (77) 
C=CC(C)(C)[N-]C(=O)n1c(C([NH-])=O)cc2ccc(N(C)C)cc21

>  <Energy>  (77) 
77.84816041667565

>  <Genealogy>  (77) 
C=CC(C)(C)[N-]C(=O)n1c(C([NH-])=O)cc2ccc(N(C)C)cc21 (protonated)
C=CC(C)(C)[N-]C(=O)n1c(C([NH-])=O)cc2ccc(N(C)C)cc21 (3D coordinates assigned)
C=CC(C)(C)[N-]C(=O)n1c(C([NH-])=O)cc2ccc(N(C)C)cc21 (optimized conformer: 77.84816041667565 kcal/mol)

>  <smiles>  (77) 
C=CC(C)(C)NC(=O)n1c(C(N)=O)cc2ccc(N(C)C)cc21

>  <score_type>  (77) 
oracle

>  <origin>  (77) 
adg

>  <m_score__min__energy>  (77) 
-11.1

>  <m_primary>  (77) 
energy

$$$$
77:0
     RDKit          3D

 55 56  0  0  0  0  0  0  0  0999 V2000
   -5.9800   19.2410  -34.1660 C   0  0  0  0  0  0  0  0  0  0  0  0
   -5.5040   19.3700  -32.7090 C   0  0  0  0  0  0  0  0  0  0  0  0
   -6.2060   18.3290  -31.8170 C   0  0  0  0  0  0  0  0  0  0  0  0
   -5.8470   20.7800  -32.1980 C   0  0  0  0  0  0  0  0  0  0  0  0
   -4.0780   19.2280  -32.6220 O   0  0  0  0  0  0  0  0  0  0  0  0
   -3.1240   20.0730  -33.1910 C   0  0  0  0  0  0  0  0  0  0  0  0
   -3.4590   21.1580  -33.7400 O   0  0  0  0  0  0  0  0  0  0  0  0
   -1.7440   19.6910  -33.1270 N   0  0  0  0  0  0  0  0  0  0  0  0
   -0.6610   20.5250  -33.6440 C   0  0  0  0  0  0  0  0  0  0  0  0
    0.6900   19.8300  -33.4620 C   0  0  0  0  0  0  0  0  0  0  0  0
    0.4910   18.4530  -33.0210 N   0  0  0  0  0  0  0  0  0  0  0  0
    0.8790   17.9750  -31.7290 C   0  0  0  0  0  0  0  0  0  0  0  0
    2.0750   17.6480  -31.5050 O   0  0  0  0  0  0  0  0  0  0  0  0
   -0.1350   17.8910  -30.6320 C   0  0  0  0  0  0  0  0  0  0  0  0
   -0.1250   19.1400  -29.7960 C   0  0  0  0  0  0  0  0  0  0  0  0
    0.7410   19.2360  -28.6760 C   0  0  0  0  0  0  0  0  0  0  0  0
    0.7520   20.3940  -27.8790 C   0  0  0  0  0  0  0  0  0  0  0  0
   -0.1040   21.4390  -28.2310 C   0  0  0  0  0  0  0  0  0  0  0  0
   -0.3250   22.6540  -27.6200 C   0  0  0  0  0  0  0  0  0  0  0  0
   -1.3110   23.2770  -28.3830 C   0  0  0  0  0  0  0  0  0  0  0  0
   -1.8580   24.6180  -28.0940 C   0  0  0  0  0  0  0  0  0  0  0  0
   -1.5570   25.7100  -28.9580 N   0  0  0  0  0  0  0  0  0  0  0  0
   -2.5910   24.8120  -27.0880 O   0  0  0  0  0  0  0  0  0  0  0  0
   -1.6750   22.4780  -29.4270 N   0  0  0  0  0  0  0  0  0  0  0  0
   -2.6730   22.7370  -30.4190 C   0  0  0  0  0  0  0  0  0  0  0  0
   -2.3690   22.6660  -31.6410 O   0  0  0  0  0  0  0  0  0  0  0  0
   -4.0710   23.0800  -30.0100 C   0  0  0  0  0  0  0  0  0  0  0  0
   -4.5430   24.2810  -30.7650 C   0  0  0  0  0  0  0  0  0  0  0  0
   -5.5160   24.1850  -31.5620 O   0  0  0  0  0  0  0  0  0  0  0  0
   -3.8580   25.4830  -30.6600 O   0  0  0  0  0  0  0  0  0  0  0  0
   -0.9300   21.3640  -29.3220 C   0  0  0  0  0  0  0  0  0  0  0  0
   -0.9650   20.2250  -30.1330 C   0  0  0  0  0  0  0  0  0  0  0  0
   -7.0416   18.9533  -34.1808 H   0  0  0  0  0  0  0  0  0  0  0  0
   -5.8543   20.2056  -34.6796 H   0  0  0  0  0  0  0  0  0  0  0  0
   -5.3845   18.4719  -34.6796 H   0  0  0  0  0  0  0  0  0  0  0  0
   -6.0373   18.5792  -30.7592 H   0  0  0  0  0  0  0  0  0  0  0  0
   -7.2857   18.3343  -32.0274 H   0  0  0  0  0  0  0  0  0  0  0  0
   -5.7964   17.3300  -32.0274 H   0  0  0  0  0  0  0  0  0  0  0  0
   -5.8473   20.7813  -31.0980 H   0  0  0  0  0  0  0  0  0  0  0  0
   -5.0968   21.4957  -32.5653 H   0  0  0  0  0  0  0  0  0  0  0  0
   -6.8422   21.0711  -32.5653 H   0  0  0  0  0  0  0  0  0  0  0  0
   -1.4990   18.8100  -32.6210 H   0  0  0  0  0  0  0  0  0  0  0  0
   -0.8293   20.7127  -34.7147 H   0  0  0  0  0  0  0  0  0  0  0  0
   -0.6486   21.4739  -33.0878 H   0  0  0  0  0  0  0  0  0  0  0  0
    1.2312   19.8306  -34.4196 H   0  0  0  0  0  0  0  0  0  0  0  0
    1.2731   20.3705  -32.7018 H   0  0  0  0  0  0  0  0  0  0  0  0
   -1.1339   17.7614  -31.0740 H   0  0  0  0  0  0  0  0  0  0  0  0
    0.1140   17.0348  -29.9879 H   0  0  0  0  0  0  0  0  0  0  0  0
    1.4091   18.3976  -28.4294 H   0  0  0  0  0  0  0  0  0  0  0  0
    1.4148   20.4742  -27.0048 H   0  0  0  0  0  0  0  0  0  0  0  0
    0.1713   23.0485  -26.7211 H   0  0  0  0  0  0  0  0  0  0  0  0
   -1.6560   25.6160  -29.9910 H   0  0  0  0  0  0  0  0  0  0  0  0
   -4.7335   22.2292  -30.2273 H   0  0  0  0  0  0  0  0  0  0  0  0
   -4.0889   23.3001  -28.9324 H   0  0  0  0  0  0  0  0  0  0  0  0
   -1.6283   20.1753  -31.0091 H   0  0  0  0  0  0  0  0  0  0  0  0
  1  2  1  0
  2  3  1  0
  2  4  1  0
  2  5  1  0
  5  6  1  0
  6  7  2  0
  6  8  1  0
  8  9  1  0
  9 10  1  0
 10 11  1  0
 11 12  1  0
 12 13  2  0
 12 14  1  0
 14 15  1  0
 15 16  2  0
 16 17  1  0
 17 18  2  0
 18 19  1  0
 19 20  2  0
 20 21  1  0
 21 22  1  0
 21 23  2  0
 20 24  1  0
 24 25  1  0
 25 26  2  0
 25 27  1  0
 27 28  1  0
 28 29  2  0
 28 30  1  0
 24 31  1  0
 31 32  2  0
 32 15  1  0
 31 18  1  0
  1 33  1  0
  1 34  1  0
  1 35  1  0
  3 36  1  0
  3 37  1  0
  3 38  1  0
  4 39  1  0
  4 40  1  0
  4 41  1  0
  8 42  1  0
  9 43  1  0
  9 44  1  0
 10 45  1  0
 10 46  1  0
 14 47  1  0
 14 48  1  0
 16 49  1  0
 17 50  1  0
 19 51  1  0
 22 52  1  0
 27 53  1  0
 27 54  1  0
 32 55  1  0
M  CHG  3  11  -1  22  -1  30  -1
M  END
>  <UniqueID>  (78) 
76

>  <SMILES>  (78) 
CC(C)(C)OC(=O)NCC[N-]C(=O)Cc1ccc2cc(C([NH-])=O)n(C(=O)CC(=O)[O-])c2c1

>  <Energy>  (78) 
80.1723485033685

>  <Genealogy>  (78) 
CC(C)(C)OC(=O)NCC[N-]C(=O)Cc1ccc2cc(C([NH-])=O)n(C(=O)CC(=O)[O-])c2c1 (protonated)
CC(C)(C)OC(=O)NCC[N-]C(=O)Cc1ccc2cc(C([NH-])=O)n(C(=O)CC(=O)[O-])c2c1 (3D coordinates assigned)
CC(C)(C)OC(=O)NCC[N-]C(=O)Cc1ccc2cc(C([NH-])=O)n(C(=O)CC(=O)[O-])c2c1 (optimized conformer: 80.1723485033685 kcal/mol)

>  <smiles>  (78) 
CC(C)(C)OC(=O)NCCNC(=O)Cc1ccc2cc(C(N)=O)n(C(=O)CC(=O)O)c2c1

>  <score_type>  (78) 
oracle

>  <origin>  (78) 
adg

>  <m_score__min__energy>  (78) 
-12.26

>  <m_primary>  (78) 
energy

$$$$
78:0
     RDKit          3D

 31 32  0  0  0  0  0  0  0  0999 V2000
   -6.1450   24.1370  -29.6690 N   0  0  0  0  0  0  0  0  0  0  0  0
   -6.7570   22.9180  -30.0870 C   0  0  0  0  0  0  0  0  0  0  0  0
   -7.9020   22.6250  -29.6490 O   0  0  0  0  0  0  0  0  0  0  0  0
   -6.1030   22.0160  -31.0600 C   0  0  0  0  0  0  0  0  0  0  0  0
   -6.7960   21.3560  -32.0700 C   0  0  0  0  0  0  0  0  0  0  0  0
   -5.8550   20.5930  -32.7200 C   0  0  0  0  0  0  0  0  0  0  0  0
   -6.0090   19.6960  -33.7720 C   0  0  0  0  0  0  0  0  0  0  0  0
   -4.8800   18.9740  -34.1930 C   0  0  0  0  0  0  0  0  0  0  0  0
   -3.6320   19.1450  -33.5440 C   0  0  0  0  0  0  0  0  0  0  0  0
   -2.4370   18.3400  -33.9690 C   0  0  0  0  0  0  0  0  0  0  0  0
   -1.4930   19.1690  -34.5460 F   0  0  0  0  0  0  0  0  0  0  0  0
   -1.8840   17.7150  -32.8670 F   0  0  0  0  0  0  0  0  0  0  0  0
   -3.5180   20.0550  -32.4700 C   0  0  0  0  0  0  0  0  0  0  0  0
   -4.6490   20.7950  -32.0980 C   0  0  0  0  0  0  0  0  0  0  0  0
   -4.7800   21.6830  -31.0850 N   0  0  0  0  0  0  0  0  0  0  0  0
   -3.7690   22.0620  -30.1330 C   0  0  0  0  0  0  0  0  0  0  0  0
   -3.7570   21.5240  -28.9930 O   0  0  0  0  0  0  0  0  0  0  0  0
   -2.7050   23.0650  -30.4840 C   0  0  0  0  0  0  0  0  0  0  0  0
   -3.0500   24.6920  -29.7460 P   0  0  0  0  0  0  0  0  0  0  0  0
   -3.8960   24.5040  -28.5080 O   0  0  0  0  0  0  0  0  0  0  0  0
   -3.8850   25.6710  -30.8450 O   0  0  0  0  0  0  0  0  0  0  0  0
   -1.5970   25.4420  -29.3120 O   0  0  0  0  0  0  0  0  0  0  0  0
   -5.2960   24.5050  -30.1480 H   0  0  0  0  0  0  0  0  0  0  0  0
   -6.6010   24.7290  -28.9400 H   0  0  0  0  0  0  0  0  0  0  0  0
   -7.8693   21.4292  -32.2997 H   0  0  0  0  0  0  0  0  0  0  0  0
   -6.9852   19.5563  -34.2594 H   0  0  0  0  0  0  0  0  0  0  0  0
   -4.9654   18.2698  -35.0337 H   0  0  0  0  0  0  0  0  0  0  0  0
   -2.7549   17.5841  -34.7021 H   0  0  0  0  0  0  0  0  0  0  0  0
   -2.5636   20.1802  -31.9376 H   0  0  0  0  0  0  0  0  0  0  0  0
   -1.7355   22.7023  -30.1117 H   0  0  0  0  0  0  0  0  0  0  0  0
   -2.6873   23.1798  -31.5779 H   0  0  0  0  0  0  0  0  0  0  0  0
  1  2  1  0
  2  3  2  0
  2  4  1  0
  4  5  2  0
  5  6  1  0
  6  7  2  0
  7  8  1  0
  8  9  2  0
  9 10  1  0
 10 11  1  0
 10 12  1  0
  9 13  1  0
 13 14  2  0
 14 15  1  0
 15 16  1  0
 16 17  2  0
 16 18  1  0
 18 19  1  0
 19 20  2  0
 19 21  1  0
 19 22  1  0
 15  4  1  0
 14  6  1  0
  1 23  1  0
  1 24  1  0
  5 25  1  0
  7 26  1  0
  8 27  1  0
 10 28  1  0
 13 29  1  0
 18 30  1  0
 18 31  1  0
M  CHG  2  21  -1  22  -1
M  END
>  <UniqueID>  (79) 
77

>  <SMILES>  (79) 
NC(=O)c1cc2ccc(C(F)F)cc2n1C(=O)CP(=O)([O-])[O-]

>  <Energy>  (79) 
67.25635140934547

>  <Genealogy>  (79) 
NC(=O)c1cc2ccc(C(F)F)cc2n1C(=O)CP(=O)([O-])[O-] (protonated)
NC(=O)c1cc2ccc(C(F)F)cc2n1C(=O)CP(=O)([O-])[O-] (3D coordinates assigned)
NC(=O)c1cc2ccc(C(F)F)cc2n1C(=O)CP(=O)([O-])[O-] (optimized conformer: 67.25635140934547 kcal/mol)

>  <smiles>  (79) 
NC(=O)c1cc2ccc(C(F)F)cc2n1C(=O)CP(=O)(O)O

>  <score_type>  (79) 
oracle

>  <origin>  (79) 
adg

>  <m_score__min__energy>  (79) 
-12.109999999999999

>  <m_primary>  (79) 
energy

$$$$
79:0
     RDKit          3D

 43 44  0  0  0  0  0  0  0  0999 V2000
   -2.4400   19.9840  -27.4210 C   0  0  0  0  0  0  0  0  0  0  0  0
   -2.3380   21.0740  -28.1910 C   0  0  0  0  0  0  0  0  0  0  0  0
   -2.3870   20.9170  -29.6940 C   0  0  0  0  0  0  0  0  0  0  0  0
   -3.6810   21.2480  -30.1950 O   0  0  0  0  0  0  0  0  0  0  0  0
   -3.9680   22.4620  -30.8290 C   0  0  0  0  0  0  0  0  0  0  0  0
   -3.0360   23.1760  -31.2920 O   0  0  0  0  0  0  0  0  0  0  0  0
   -5.3310   22.8880  -30.9690 N   0  0  0  0  0  0  0  0  0  0  0  0
   -5.8250   24.1560  -30.8860 C   0  0  0  0  0  0  0  0  0  0  0  0
   -5.0680   25.3580  -30.4730 C   0  0  0  0  0  0  0  0  0  0  0  0
   -3.6870   25.2720  -30.1310 N   0  0  0  0  0  0  0  0  0  0  0  0
   -5.6600   26.4650  -30.3760 O   0  0  0  0  0  0  0  0  0  0  0  0
   -7.1900   24.1680  -31.1640 C   0  0  0  0  0  0  0  0  0  0  0  0
   -7.5230   22.8550  -31.4100 C   0  0  0  0  0  0  0  0  0  0  0  0
   -8.7470   22.2920  -31.7570 C   0  0  0  0  0  0  0  0  0  0  0  0
   -8.7930   20.9070  -31.9860 C   0  0  0  0  0  0  0  0  0  0  0  0
   -7.6270   20.1090  -31.8550 C   0  0  0  0  0  0  0  0  0  0  0  0
   -7.6780   18.6350  -32.1650 C   0  0  0  0  0  0  0  0  0  0  0  0
   -6.8760   17.9530  -31.2690 F   0  0  0  0  0  0  0  0  0  0  0  0
   -8.9740   18.1600  -32.0620 F   0  0  0  0  0  0  0  0  0  0  0  0
   -7.2290   18.3890  -33.4510 F   0  0  0  0  0  0  0  0  0  0  0  0
   -6.3970   20.7250  -31.5250 C   0  0  0  0  0  0  0  0  0  0  0  0
   -6.3840   22.1030  -31.2850 C   0  0  0  0  0  0  0  0  0  0  0  0
   -2.1650   22.4100  -27.5590 C   0  0  0  0  0  0  0  0  0  0  0  0
   -1.4560   22.5050  -26.5160 O   0  0  0  0  0  0  0  0  0  0  0  0
   -2.8030   23.5930  -28.0990 N   0  0  0  0  0  0  0  0  0  0  0  0
   -4.1640   23.7220  -27.5550 C   0  0  0  0  0  0  0  0  0  0  0  0
   -2.0080   24.7930  -27.7900 C   0  0  0  0  0  0  0  0  0  0  0  0
   -2.4064   20.0793  -26.3256 H   0  0  0  0  0  0  0  0  0  0  0  0
   -2.5575   18.9929  -27.8835 H   0  0  0  0  0  0  0  0  0  0  0  0
   -1.6416   21.5844  -30.1510 H   0  0  0  0  0  0  0  0  0  0  0  0
   -2.1680   19.8691  -29.9468 H   0  0  0  0  0  0  0  0  0  0  0  0
   -2.9470   25.3030  -30.8690 H   0  0  0  0  0  0  0  0  0  0  0  0
   -7.8593   25.0408  -31.1829 H   0  0  0  0  0  0  0  0  0  0  0  0
   -9.6507   22.9123  -31.8492 H   0  0  0  0  0  0  0  0  0  0  0  0
   -9.7450   20.4350  -32.2705 H   0  0  0  0  0  0  0  0  0  0  0  0
   -5.4718   20.1338  -31.4586 H   0  0  0  0  0  0  0  0  0  0  0  0
   -2.8620   23.5290  -29.1410 H   0  0  0  0  0  0  0  0  0  0  0  0
   -4.1214   23.7180  -26.4558 H   0  0  0  0  0  0  0  0  0  0  0  0
   -4.6093   24.6664  -27.9012 H   0  0  0  0  0  0  0  0  0  0  0  0
   -4.7788   22.8781  -27.9012 H   0  0  0  0  0  0  0  0  0  0  0  0
   -1.9302   24.9104  -26.6991 H   0  0  0  0  0  0  0  0  0  0  0  0
   -1.0012   24.6866  -28.2200 H   0  0  0  0  0  0  0  0  0  0  0  0
   -2.4986   25.6786  -28.2200 H   0  0  0  0  0  0  0  0  0  0  0  0
  1  2  2  0
  2  3  1  0
  3  4  1  0
  4  5  1  0
  5  6  2  0
  5  7  1  0
  7  8  1  0
  8  9  1  0
  9 10  1  0
  9 11  2  0
  8 12  2  0
 12 13  1  0
 13 14  2  0
 14 15  1  0
 15 16  2  0
 16 17  1  0
 17 18  1  0
 17 19  1  0
 17 20  1  0
 16 21  1  0
 21 22  2  0
  2 23  1  0
 23 24  2  0
 23 25  1  0
 25 26  1  0
 25 27  1  0
 22  7  1  0
 22 13  1  0
  1 28  1  0
  1 29  1  0
  3 30  1  0
  3 31  1  0
 10 32  1  0
 12 33  1  0
 14 34  1  0
 15 35  1  0
 21 36  1  0
 25 37  1  0
 26 38  1  0
 26 39  1  0
 26 40  1  0
 27 41  1  0
 27 42  1  0
 27 43  1  0
M  CHG  2  10  -1  25   1
M  END
>  <UniqueID>  (80) 
78

>  <SMILES>  (80) 
C=C(COC(=O)n1c(C([NH-])=O)cc2ccc(C(F)(F)F)cc21)C(=O)[NH+](C)C

>  <Energy>  (80) 
83.09211217867743

>  <Genealogy>  (80) 
C=C(COC(=O)n1c(C([NH-])=O)cc2ccc(C(F)(F)F)cc21)C(=O)[NH+](C)C (protonated)
C=C(COC(=O)n1c(C([NH-])=O)cc2ccc(C(F)(F)F)cc21)C(=O)[NH+](C)C (3D coordinates assigned)
C=C(COC(=O)n1c(C([NH-])=O)cc2ccc(C(F)(F)F)cc21)C(=O)[NH+](C)C (optimized conformer: 83.09211217867743 kcal/mol)

>  <smiles>  (80) 
C=C(COC(=O)n1c(C(N)=O)cc2ccc(C(F)(F)F)cc21)C(=O)N(C)C

>  <score_type>  (80) 
oracle

>  <origin>  (80) 
adg

>  <m_score__min__energy>  (80) 
-9.8200000000000003

>  <m_primary>  (80) 
energy

$$$$
80:0
     RDKit          3D

 45 46  0  0  0  0  0  0  0  0999 V2000
   -0.8640   25.6280  -24.5740 C   0  0  0  0  0  0  0  0  0  0  0  0
   -1.1370   24.9760  -25.7940 O   0  0  0  0  0  0  0  0  0  0  0  0
   -2.0090   25.7580  -26.5890 C   0  0  0  0  0  0  0  0  0  0  0  0
   -1.2460   26.4000  -27.7510 C   0  0  0  0  0  0  0  0  0  0  0  0
   -1.2520   25.5490  -28.8970 O   0  0  0  0  0  0  0  0  0  0  0  0
   -0.5930   24.3130  -28.9460 C   0  0  0  0  0  0  0  0  0  0  0  0
    0.6210   24.2370  -28.6090 O   0  0  0  0  0  0  0  0  0  0  0  0
   -1.3120   23.1370  -29.3750 N   0  0  0  0  0  0  0  0  0  0  0  0
   -0.5460   21.9580  -29.7940 C   0  0  0  0  0  0  0  0  0  0  0  0
   -2.7490   23.0460  -29.2640 C   0  0  0  0  0  0  0  0  0  0  0  0
   -3.3640   23.8000  -28.4590 O   0  0  0  0  0  0  0  0  0  0  0  0
   -3.4600   22.1270  -30.0500 O   0  0  0  0  0  0  0  0  0  0  0  0
   -4.0760   22.4120  -31.2750 C   0  0  0  0  0  0  0  0  0  0  0  0
   -3.4440   22.2970  -32.3600 O   0  0  0  0  0  0  0  0  0  0  0  0
   -5.4530   22.8240  -31.2920 N   0  0  0  0  0  0  0  0  0  0  0  0
   -5.9640   24.0270  -30.9080 C   0  0  0  0  0  0  0  0  0  0  0  0
   -5.1820   25.2330  -30.5630 C   0  0  0  0  0  0  0  0  0  0  0  0
   -3.7820   25.2980  -30.8210 N   0  0  0  0  0  0  0  0  0  0  0  0
   -5.7660   26.2380  -30.0780 O   0  0  0  0  0  0  0  0  0  0  0  0
   -7.3560   24.0070  -30.9570 C   0  0  0  0  0  0  0  0  0  0  0  0
   -7.6870   22.7460  -31.3950 C   0  0  0  0  0  0  0  0  0  0  0  0
   -8.9360   22.1740  -31.6180 C   0  0  0  0  0  0  0  0  0  0  0  0
   -8.9830   20.8370  -32.0410 C   0  0  0  0  0  0  0  0  0  0  0  0
   -7.7900   20.0930  -32.2160 C   0  0  0  0  0  0  0  0  0  0  0  0
   -7.8510   18.6730  -32.6960 C   0  0  0  0  0  0  0  0  0  0  0  0
   -6.5390   20.7090  -31.9940 C   0  0  0  0  0  0  0  0  0  0  0  0
   -6.5210   22.0500  -31.5890 C   0  0  0  0  0  0  0  0  0  0  0  0
   -1.1396   24.9698  -23.7368 H   0  0  0  0  0  0  0  0  0  0  0  0
    0.2087   25.8645  -24.5167 H   0  0  0  0  0  0  0  0  0  0  0  0
   -1.4482   26.5583  -24.5167 H   0  0  0  0  0  0  0  0  0  0  0  0
   -2.8063   25.1154  -26.9908 H   0  0  0  0  0  0  0  0  0  0  0  0
   -2.4412   26.5540  -25.9648 H   0  0  0  0  0  0  0  0  0  0  0  0
   -1.7233   27.3565  -28.0103 H   0  0  0  0  0  0  0  0  0  0  0  0
   -0.2036   26.5624  -27.4396 H   0  0  0  0  0  0  0  0  0  0  0  0
   -0.1932   21.4150  -28.9048 H   0  0  0  0  0  0  0  0  0  0  0  0
   -1.1884   21.2982  -30.3957 H   0  0  0  0  0  0  0  0  0  0  0  0
    0.3179   22.2768  -30.3957 H   0  0  0  0  0  0  0  0  0  0  0  0
   -3.0900   25.2880  -30.0400 H   0  0  0  0  0  0  0  0  0  0  0  0
   -8.0442   24.8257  -30.7000 H   0  0  0  0  0  0  0  0  0  0  0  0
   -9.8591   22.7530  -31.4671 H   0  0  0  0  0  0  0  0  0  0  0  0
   -9.9553   20.3620  -32.2386 H   0  0  0  0  0  0  0  0  0  0  0  0
   -7.8802   17.9944  -31.8307 H   0  0  0  0  0  0  0  0  0  0  0  0
   -8.7561   18.5302  -33.3046 H   0  0  0  0  0  0  0  0  0  0  0  0
   -6.9615   18.4531  -33.3046 H   0  0  0  0  0  0  0  0  0  0  0  0
   -5.6022   20.1501  -32.1355 H   0  0  0  0  0  0  0  0  0  0  0  0
  1  2  1  0
  2  3  1  0
  3  4  1  0
  4  5  1  0
  5  6  1  0
  6  7  2  0
  6  8  1  0
  8  9  1  0
  8 10  1  0
 10 11  2  0
 10 12  1  0
 12 13  1  0
 13 14  2  0
 13 15  1  0
 15 16  1  0
 16 17  1  0
 17 18  1  0
 17 19  2  0
 16 20  2  0
 20 21  1  0
 21 22  2  0
 22 23  1  0
 23 24  2  0
 24 25  1  0
 24 26  1  0
 26 27  2  0
 27 15  1  0
 27 21  1  0
  1 28  1  0
  1 29  1  0
  1 30  1  0
  3 31  1  0
  3 32  1  0
  4 33  1  0
  4 34  1  0
  9 35  1  0
  9 36  1  0
  9 37  1  0
 18 38  1  0
 20 39  1  0
 22 40  1  0
 23 41  1  0
 25 42  1  0
 25 43  1  0
 25 44  1  0
 26 45  1  0
M  CHG  1  18  -1
M  END
>  <UniqueID>  (81) 
79

>  <SMILES>  (81) 
COCCOC(=O)N(C)C(=O)OC(=O)n1c(C([NH-])=O)cc2ccc(C)cc21

>  <Energy>  (81) 
83.88482151227765

>  <Genealogy>  (81) 
COCCOC(=O)N(C)C(=O)OC(=O)n1c(C([NH-])=O)cc2ccc(C)cc21 (protonated)
COCCOC(=O)N(C)C(=O)OC(=O)n1c(C([NH-])=O)cc2ccc(C)cc21 (3D coordinates assigned)
COCCOC(=O)N(C)C(=O)OC(=O)n1c(C([NH-])=O)cc2ccc(C)cc21 (optimized conformer: 83.88482151227765 kcal/mol)

>  <smiles>  (81) 
COCCOC(=O)N(C)C(=O)OC(=O)n1c(C(N)=O)cc2ccc(C)cc21

>  <score_type>  (81) 
oracle

>  <origin>  (81) 
adg

>  <m_score__min__energy>  (81) 
-10.970000000000001

>  <m_primary>  (81) 
energy

$$$$
81:0
     RDKit          3D

 42 44  0  0  0  0  0  0  0  0999 V2000
   -2.1180   18.8760  -32.8470 C   0  0  0  0  0  0  0  0  0  0  0  0
   -2.0460   20.1930  -32.9920 C   0  0  0  0  0  0  0  0  0  0  0  0
   -2.0440   20.7360  -34.2500 O   0  0  0  0  0  0  0  0  0  0  0  0
   -1.9740   20.9750  -31.7370 C   0  0  0  0  0  0  0  0  0  0  0  0
   -0.8660   20.7880  -31.1260 O   0  0  0  0  0  0  0  0  0  0  0  0
   -3.0050   21.8160  -31.2880 N   0  0  0  0  0  0  0  0  0  0  0  0
   -2.8610   22.2270  -29.8520 C   0  0  0  0  0  0  0  0  0  0  0  0
   -4.1780   22.2430  -31.8820 C   0  0  0  0  0  0  0  0  0  0  0  0
   -4.0400   22.3010  -33.2010 O   0  0  0  0  0  0  0  0  0  0  0  0
   -5.4450   22.6290  -31.4470 N   0  0  0  0  0  0  0  0  0  0  0  0
   -5.9460   23.7480  -30.9220 C   0  0  0  0  0  0  0  0  0  0  0  0
   -5.2120   24.8490  -30.2520 C   0  0  0  0  0  0  0  0  0  0  0  0
   -5.5150   25.2660  -28.9280 N   0  0  0  0  0  0  0  0  0  0  0  0
   -4.2890   25.4670  -30.8370 O   0  0  0  0  0  0  0  0  0  0  0  0
   -7.3270   23.7380  -30.8720 C   0  0  0  0  0  0  0  0  0  0  0  0
   -7.7030   22.5340  -31.3920 C   0  0  0  0  0  0  0  0  0  0  0  0
   -8.9730   22.0250  -31.5670 C   0  0  0  0  0  0  0  0  0  0  0  0
   -9.1090   20.7690  -32.1220 C   0  0  0  0  0  0  0  0  0  0  0  0
   -7.9960   20.0430  -32.4930 C   0  0  0  0  0  0  0  0  0  0  0  0
   -8.1430   18.7510  -33.0630 N   0  0  0  0  0  0  0  0  0  0  0  0
   -7.1880   17.7890  -33.0840 C   0  0  0  0  0  0  0  0  0  0  0  0
   -6.6650   16.9070  -33.9210 N   0  0  0  0  0  0  0  0  0  0  0  0
   -5.7260   16.0910  -33.6350 C   0  0  0  0  0  0  0  0  0  0  0  0
   -5.1950   16.1120  -32.3500 C   0  0  0  0  0  0  0  0  0  0  0  0
   -6.1760   17.4380  -31.5440 S   0  0  0  0  0  0  0  0  0  0  0  0
   -6.7310   20.6100  -32.2910 C   0  0  0  0  0  0  0  0  0  0  0  0
   -6.5610   21.8600  -31.7390 C   0  0  0  0  0  0  0  0  0  0  0  0
   -2.1201   18.4328  -31.8402 H   0  0  0  0  0  0  0  0  0  0  0  0
   -2.1756   18.2274  -33.7336 H   0  0  0  0  0  0  0  0  0  0  0  0
   -2.5000   21.5810  -34.5390 H   0  0  0  0  0  0  0  0  0  0  0  0
   -3.1540   21.3908  -29.2001 H   0  0  0  0  0  0  0  0  0  0  0  0
   -1.8141   22.4988  -29.6516 H   0  0  0  0  0  0  0  0  0  0  0  0
   -3.5094   23.0927  -29.6516 H   0  0  0  0  0  0  0  0  0  0  0  0
   -6.4950   25.1820  -28.5760 H   0  0  0  0  0  0  0  0  0  0  0  0
   -4.7730   25.6530  -28.3090 H   0  0  0  0  0  0  0  0  0  0  0  0
   -7.9850   24.5337  -30.4926 H   0  0  0  0  0  0  0  0  0  0  0  0
   -9.8578   22.6075  -31.2707 H   0  0  0  0  0  0  0  0  0  0  0  0
  -10.1125   20.3433  -32.2698 H   0  0  0  0  0  0  0  0  0  0  0  0
   -9.0960   18.5600  -33.5000 H   0  0  0  0  0  0  0  0  0  0  0  0
   -5.3450   15.3863  -34.3889 H   0  0  0  0  0  0  0  0  0  0  0  0
   -4.3919   15.4921  -31.9248 H   0  0  0  0  0  0  0  0  0  0  0  0
   -5.8402   20.0352  -32.5843 H   0  0  0  0  0  0  0  0  0  0  0  0
  1  2  2  0
  2  3  1  0
  2  4  1  0
  4  5  2  0
  4  6  1  0
  6  7  1  0
  6  8  1  0
  8  9  2  0
  8 10  1  0
 10 11  1  0
 11 12  1  0
 12 13  1  0
 12 14  2  0
 11 15  2  0
 15 16  1  0
 16 17  2  0
 17 18  1  0
 18 19  2  0
 19 20  1  0
 20 21  1  0
 21 22  2  0
 22 23  1  0
 23 24  2  0
 24 25  1  0
 19 26  1  0
 26 27  2  0
 27 10  1  0
 27 16  1  0
 25 21  1  0
  1 28  1  0
  1 29  1  0
  3 30  1  0
  7 31  1  0
  7 32  1  0
  7 33  1  0
 13 34  1  0
 13 35  1  0
 15 36  1  0
 17 37  1  0
 18 38  1  0
 20 39  1  0
 23 40  1  0
 24 41  1  0
 26 42  1  0
M  END
>  <smiles>  (82) 
C=C(O)C(=O)N(C)C(=O)n1c(C(N)=O)cc2ccc(Nc3nccs3)cc21

>  <score_type>  (82) 
oracle

>  <origin>  (82) 
adg

>  <m_score__min__energy>  (82) 
-10.49

>  <m_primary>  (82) 
energy

$$$$
82:0
     RDKit          3D

 46 49  0  0  0  0  0  0  0  0999 V2000
   -5.8530   16.5540  -31.3180 N   0  0  0  0  0  0  0  0  0  0  0  0
   -5.7710   17.4610  -32.0320 C   0  0  0  0  0  0  0  0  0  0  0  0
   -5.6670   18.6140  -32.9360 C   0  0  0  0  0  0  0  0  0  0  0  0
   -6.2160   19.9380  -32.4800 C   0  0  0  0  0  0  0  0  0  0  0  0
   -7.5820   20.2520  -32.6800 C   0  0  0  0  0  0  0  0  0  0  0  0
   -8.0990   21.4910  -32.2650 C   0  0  0  0  0  0  0  0  0  0  0  0
   -7.2220   22.4030  -31.6870 C   0  0  0  0  0  0  0  0  0  0  0  0
   -7.4610   23.6560  -31.1700 C   0  0  0  0  0  0  0  0  0  0  0  0
   -6.2240   24.1100  -30.7190 C   0  0  0  0  0  0  0  0  0  0  0  0
   -6.0140   25.4370  -30.1070 C   0  0  0  0  0  0  0  0  0  0  0  0
   -6.0630   25.6180  -28.6900 N   0  0  0  0  0  0  0  0  0  0  0  0
   -5.7420   26.4210  -30.8440 O   0  0  0  0  0  0  0  0  0  0  0  0
   -5.2590   23.1740  -30.9460 N   0  0  0  0  0  0  0  0  0  0  0  0
   -3.8840   23.2240  -30.5340 C   0  0  0  0  0  0  0  0  0  0  0  0
   -3.0270   22.5480  -31.1620 O   0  0  0  0  0  0  0  0  0  0  0  0
   -3.4920   23.9990  -29.3380 C   0  0  0  0  0  0  0  0  0  0  0  0
   -4.1190   23.8070  -28.2620 O   0  0  0  0  0  0  0  0  0  0  0  0
   -2.4190   24.9500  -29.3410 N   0  0  0  0  0  0  0  0  0  0  0  0
   -1.0160   24.6770  -29.0420 C   0  0  0  0  0  0  0  0  0  0  0  0
   -0.8840   24.0070  -27.7000 C   0  0  0  0  0  0  0  0  0  0  0  0
   -0.6390   24.7600  -26.5400 C   0  0  0  0  0  0  0  0  0  0  0  0
   -0.5080   24.1250  -25.3020 C   0  0  0  0  0  0  0  0  0  0  0  0
   -0.6110   22.7340  -25.2130 C   0  0  0  0  0  0  0  0  0  0  0  0
   -0.4750   22.1210  -24.0100 F   0  0  0  0  0  0  0  0  0  0  0  0
   -0.8580   21.9760  -26.3620 C   0  0  0  0  0  0  0  0  0  0  0  0
   -0.9600   20.6270  -26.2780 F   0  0  0  0  0  0  0  0  0  0  0  0
   -0.9950   22.6090  -27.6010 C   0  0  0  0  0  0  0  0  0  0  0  0
   -5.8870   22.1310  -31.5300 C   0  0  0  0  0  0  0  0  0  0  0  0
   -5.3510   20.8930  -31.9020 C   0  0  0  0  0  0  0  0  0  0  0  0
   -5.8260   18.2990  -34.4170 C   0  0  0  0  0  0  0  0  0  0  0  0
   -4.4520   18.6350  -33.8540 C   0  0  0  0  0  0  0  0  0  0  0  0
   -8.2444   19.5196  -33.1645 H   0  0  0  0  0  0  0  0  0  0  0  0
   -9.1645   21.7323  -32.3933 H   0  0  0  0  0  0  0  0  0  0  0  0
   -8.4238   24.1859  -31.1230 H   0  0  0  0  0  0  0  0  0  0  0  0
   -5.9680   26.5760  -28.2830 H   0  0  0  0  0  0  0  0  0  0  0  0
   -6.0910   24.8030  -28.0400 H   0  0  0  0  0  0  0  0  0  0  0  0
   -0.6021   24.0169  -29.8185 H   0  0  0  0  0  0  0  0  0  0  0  0
   -0.4649   25.6288  -29.0204 H   0  0  0  0  0  0  0  0  0  0  0  0
   -0.5498   25.8544  -26.6062 H   0  0  0  0  0  0  0  0  0  0  0  0
   -0.3235   24.7210  -24.3960 H   0  0  0  0  0  0  0  0  0  0  0  0
   -1.1906   22.0103  -28.5028 H   0  0  0  0  0  0  0  0  0  0  0  0
   -4.2849   20.6698  -31.7484 H   0  0  0  0  0  0  0  0  0  0  0  0
   -6.0520   17.2719  -34.7396 H   0  0  0  0  0  0  0  0  0  0  0  0
   -6.4495   18.6927  -35.2332 H   0  0  0  0  0  0  0  0  0  0  0  0
   -3.6853   17.8507  -33.7697 H   0  0  0  0  0  0  0  0  0  0  0  0
   -3.6716   19.3719  -34.0948 H   0  0  0  0  0  0  0  0  0  0  0  0
  1  2  3  0
  2  3  1  0
  3  4  1  0
  4  5  2  0
  5  6  1  0
  6  7  2  0
  7  8  1  0
  8  9  2  0
  9 10  1  0
 10 11  1  0
 10 12  2  0
  9 13  1  0
 13 14  1  0
 14 15  2  0
 14 16  1  0
 16 17  2  0
 16 18  1  0
 18 19  1  0
 19 20  1  0
 20 21  2  0
 21 22  1  0
 22 23  2  0
 23 24  1  0
 23 25  1  0
 25 26  1  0
 25 27  2  0
 13 28  1  0
 28 29  2  0
  3 30  1  0
 30 31  1  0
 31  3  1  0
 29  4  1  0
 28  7  1  0
 27 20  1  0
  5 32  1  0
  6 33  1  0
  8 34  1  0
 11 35  1  0
 11 36  1  0
 19 37  1  0
 19 38  1  0
 21 39  1  0
 22 40  1  0
 27 41  1  0
 29 42  1  0
 30 43  1  0
 30 44  1  0
 31 45  1  0
 31 46  1  0
M  CHG  1  18  -1
M  END
>  <UniqueID>  (83) 
80

>  <SMILES>  (83) 
N#CC1(c2ccc3cc(C(N)=O)n(C(=O)C(=O)[N-]Cc4ccc(F)c(F)c4)c3c2)CC1

>  <Energy>  (83) 
352.87773826380413

>  <Genealogy>  (83) 
N#CC1(c2ccc3cc(C(N)=O)n(C(=O)C(=O)[N-]Cc4ccc(F)c(F)c4)c3c2)CC1 (protonated)
N#CC1(c2ccc3cc(C(N)=O)n(C(=O)C(=O)[N-]Cc4ccc(F)c(F)c4)c3c2)CC1 (3D coordinates assigned)
N#CC1(c2ccc3cc(C(N)=O)n(C(=O)C(=O)[N-]Cc4ccc(F)c(F)c4)c3c2)CC1 (nonaromatic ring conformer: 352.87773826380413 kcal/mol)

>  <smiles>  (83) 
N#CC1(c2ccc3cc(C(N)=O)n(C(=O)C(=O)NCc4ccc(F)c(F)c4)c3c2)CC1

>  <score_type>  (83) 
oracle

>  <origin>  (83) 
adg

>  <m_score__min__energy>  (83) 
-10.77

>  <m_primary>  (83) 
energy

$$$$
83:0
     RDKit          3D

 38 39  0  0  0  0  0  0  0  0999 V2000
   -0.2600   26.4570  -26.8630 C   0  0  0  0  0  0  0  0  0  0  0  0
   -1.5180   25.7110  -26.9580 N   0  0  0  0  0  0  0  0  0  0  0  0
   -2.3590   25.5050  -25.7760 C   0  0  0  0  0  0  0  0  0  0  0  0
   -1.9390   25.1730  -28.2240 C   0  0  0  0  0  0  0  0  0  0  0  0
   -1.2210   25.3430  -29.2480 O   0  0  0  0  0  0  0  0  0  0  0  0
   -3.1460   24.4620  -28.3060 O   0  0  0  0  0  0  0  0  0  0  0  0
   -3.3090   23.2180  -28.9300 C   0  0  0  0  0  0  0  0  0  0  0  0
   -3.8030   22.2410  -28.3050 O   0  0  0  0  0  0  0  0  0  0  0  0
   -2.9120   23.0900  -30.2670 O   0  0  0  0  0  0  0  0  0  0  0  0
   -3.7580   22.7390  -31.3290 C   0  0  0  0  0  0  0  0  0  0  0  0
   -3.2870   22.2800  -32.4050 O   0  0  0  0  0  0  0  0  0  0  0  0
   -5.1750   22.9270  -31.1950 N   0  0  0  0  0  0  0  0  0  0  0  0
   -5.8370   24.0830  -30.9040 C   0  0  0  0  0  0  0  0  0  0  0  0
   -5.2170   25.3590  -30.4910 C   0  0  0  0  0  0  0  0  0  0  0  0
   -3.8720   25.6680  -30.8450 N   0  0  0  0  0  0  0  0  0  0  0  0
   -5.8670   26.1650  -29.7730 O   0  0  0  0  0  0  0  0  0  0  0  0
   -7.2150   23.8870  -30.9700 C   0  0  0  0  0  0  0  0  0  0  0  0
   -7.3800   22.5620  -31.3040 C   0  0  0  0  0  0  0  0  0  0  0  0
   -8.5430   21.8340  -31.5260 C   0  0  0  0  0  0  0  0  0  0  0  0
   -8.4170   20.4860  -31.9000 C   0  0  0  0  0  0  0  0  0  0  0  0
   -7.1370   19.8880  -32.0340 C   0  0  0  0  0  0  0  0  0  0  0  0
   -7.0140   18.4580  -32.4970 C   0  0  0  0  0  0  0  0  0  0  0  0
   -8.2190   17.7920  -32.3510 F   0  0  0  0  0  0  0  0  0  0  0  0
   -6.6490   18.4040  -33.8310 F   0  0  0  0  0  0  0  0  0  0  0  0
   -6.0510   17.8160  -31.7400 F   0  0  0  0  0  0  0  0  0  0  0  0
   -5.9780   20.6680  -31.8230 C   0  0  0  0  0  0  0  0  0  0  0  0
   -6.1340   22.0050  -31.4340 C   0  0  0  0  0  0  0  0  0  0  0  0
   -0.0031   26.6093  -25.8043 H   0  0  0  0  0  0  0  0  0  0  0  0
    0.5417   25.8882  -27.3567 H   0  0  0  0  0  0  0  0  0  0  0  0
   -0.3745   27.4333  -27.3567 H   0  0  0  0  0  0  0  0  0  0  0  0
   -1.7568   25.6525  -24.8673 H   0  0  0  0  0  0  0  0  0  0  0  0
   -3.1894   26.2263  -25.7866 H   0  0  0  0  0  0  0  0  0  0  0  0
   -2.7621   24.4816  -25.7866 H   0  0  0  0  0  0  0  0  0  0  0  0
   -3.0690   25.2700  -30.3080 H   0  0  0  0  0  0  0  0  0  0  0  0
   -8.0037   24.6330  -30.7928 H   0  0  0  0  0  0  0  0  0  0  0  0
   -9.5330   22.2998  -31.4121 H   0  0  0  0  0  0  0  0  0  0  0  0
   -9.3200   19.8875  -32.0910 H   0  0  0  0  0  0  0  0  0  0  0  0
   -4.9760   20.2355  -31.9610 H   0  0  0  0  0  0  0  0  0  0  0  0
  1  2  1  0
  2  3  1  0
  2  4  1  0
  4  5  2  0
  4  6  1  0
  6  7  1  0
  7  8  2  0
  7  9  1  0
  9 10  1  0
 10 11  2  0
 10 12  1  0
 12 13  1  0
 13 14  1  0
 14 15  1  0
 14 16  2  0
 13 17  2  0
 17 18  1  0
 18 19  2  0
 19 20  1  0
 20 21  2  0
 21 22  1  0
 22 23  1  0
 22 24  1  0
 22 25  1  0
 21 26  1  0
 26 27  2  0
 27 12  1  0
 27 18  1  0
  1 28  1  0
  1 29  1  0
  1 30  1  0
  3 31  1  0
  3 32  1  0
  3 33  1  0
 15 34  1  0
 17 35  1  0
 19 36  1  0
 20 37  1  0
 26 38  1  0
M  CHG  1  15  -1
M  END
>  <UniqueID>  (84) 
81

>  <SMILES>  (84) 
CN(C)C(=O)OC(=O)OC(=O)n1c(C([NH-])=O)cc2ccc(C(F)(F)F)cc21

>  <Energy>  (84) 
76.68176879740919

>  <Genealogy>  (84) 
CN(C)C(=O)OC(=O)OC(=O)n1c(C([NH-])=O)cc2ccc(C(F)(F)F)cc21 (protonated)
CN(C)C(=O)OC(=O)OC(=O)n1c(C([NH-])=O)cc2ccc(C(F)(F)F)cc21 (3D coordinates assigned)
CN(C)C(=O)OC(=O)OC(=O)n1c(C([NH-])=O)cc2ccc(C(F)(F)F)cc21 (optimized conformer: 76.68176879740919 kcal/mol)

>  <smiles>  (84) 
CN(C)C(=O)OC(=O)OC(=O)n1c(C(N)=O)cc2ccc(C(F)(F)F)cc21

>  <score_type>  (84) 
oracle

>  <origin>  (84) 
adg

>  <m_score__min__energy>  (84) 
-10.09

>  <m_primary>  (84) 
energy

$$$$
84:0
     RDKit          3D

 46 47  0  0  0  0  0  0  0  0999 V2000
   -0.6730   26.9630  -27.4230 C   0  0  0  0  0  0  0  0  0  0  0  0
   -1.0000   26.2980  -28.6370 O   0  0  0  0  0  0  0  0  0  0  0  0
   -0.8710   24.9150  -28.7950 C   0  0  0  0  0  0  0  0  0  0  0  0
    0.2360   24.3440  -28.5960 O   0  0  0  0  0  0  0  0  0  0  0  0
   -2.0470   24.1150  -29.2570 C   0  0  0  0  0  0  0  0  0  0  0  0
   -3.2090   24.9810  -29.4710 N   0  0  0  0  0  0  0  0  0  0  0  0
   -4.5080   24.4800  -29.8390 C   0  0  0  0  0  0  0  0  0  0  0  0
   -5.6910   25.2300  -29.5970 C   0  0  0  0  0  0  0  0  0  0  0  0
   -6.9500   24.7180  -29.9520 C   0  0  0  0  0  0  0  0  0  0  0  0
   -7.0010   23.4650  -30.5540 C   0  0  0  0  0  0  0  0  0  0  0  0
   -8.0860   22.7300  -30.9730 C   0  0  0  0  0  0  0  0  0  0  0  0
   -7.5540   21.5490  -31.4870 C   0  0  0  0  0  0  0  0  0  0  0  0
   -8.3620   20.4940  -32.1360 C   0  0  0  0  0  0  0  0  0  0  0  0
   -7.9810   19.9620  -33.4080 N   0  0  0  0  0  0  0  0  0  0  0  0
   -9.3800   20.0300  -31.5580 O   0  0  0  0  0  0  0  0  0  0  0  0
   -6.1940   21.5550  -31.3880 N   0  0  0  0  0  0  0  0  0  0  0  0
   -5.2910   20.4920  -31.7370 C   0  0  0  0  0  0  0  0  0  0  0  0
   -4.5980   19.9420  -30.8410 O   0  0  0  0  0  0  0  0  0  0  0  0
   -5.2050   20.0730  -33.0740 O   0  0  0  0  0  0  0  0  0  0  0  0
   -4.9760   18.7330  -33.5320 C   0  0  0  0  0  0  0  0  0  0  0  0
   -5.3620   17.7140  -32.4430 C   0  0  0  0  0  0  0  0  0  0  0  0
   -5.8760   18.5140  -34.7580 C   0  0  0  0  0  0  0  0  0  0  0  0
   -3.5060   18.5470  -33.9550 C   0  0  0  0  0  0  0  0  0  0  0  0
   -5.8710   22.7350  -30.8140 C   0  0  0  0  0  0  0  0  0  0  0  0
   -4.6050   23.2110  -30.4520 C   0  0  0  0  0  0  0  0  0  0  0  0
   -0.9793   26.3401  -26.5697 H   0  0  0  0  0  0  0  0  0  0  0  0
    0.4126   27.1353  -27.3802 H   0  0  0  0  0  0  0  0  0  0  0  0
   -1.1994   27.9279  -27.3802 H   0  0  0  0  0  0  0  0  0  0  0  0
   -1.7929   23.6114  -30.2014 H   0  0  0  0  0  0  0  0  0  0  0  0
   -2.2960   23.3727  -28.4843 H   0  0  0  0  0  0  0  0  0  0  0  0
   -3.0950   26.0140  -29.3510 H   0  0  0  0  0  0  0  0  0  0  0  0
   -5.6198   26.2219  -29.1267 H   0  0  0  0  0  0  0  0  0  0  0  0
   -7.8689   25.2913  -29.7595 H   0  0  0  0  0  0  0  0  0  0  0  0
   -9.1471   23.0140  -30.9147 H   0  0  0  0  0  0  0  0  0  0  0  0
   -8.5370   19.1920  -33.8410 H   0  0  0  0  0  0  0  0  0  0  0  0
   -7.1770   20.3580  -33.9410 H   0  0  0  0  0  0  0  0  0  0  0  0
   -5.1942   18.1570  -31.4503 H   0  0  0  0  0  0  0  0  0  0  0  0
   -6.4236   17.4468  -32.5506 H   0  0  0  0  0  0  0  0  0  0  0  0
   -4.7438   16.8105  -32.5506 H   0  0  0  0  0  0  0  0  0  0  0  0
   -6.8948   18.2661  -34.4254 H   0  0  0  0  0  0  0  0  0  0  0  0
   -5.9011   19.4322  -35.3631 H   0  0  0  0  0  0  0  0  0  0  0  0
   -5.4764   17.6869  -35.3631 H   0  0  0  0  0  0  0  0  0  0  0  0
   -2.8738   18.4670  -33.0584 H   0  0  0  0  0  0  0  0  0  0  0  0
   -3.4102   17.6296  -34.5543 H   0  0  0  0  0  0  0  0  0  0  0  0
   -3.1847   19.4117  -34.5543 H   0  0  0  0  0  0  0  0  0  0  0  0
   -3.7040   22.6089  -30.6411 H   0  0  0  0  0  0  0  0  0  0  0  0
  1  2  1  0
  2  3  1  0
  3  4  2  0
  3  5  1  0
  5  6  1  0
  6  7  1  0
  7  8  2  0
  8  9  1  0
  9 10  2  0
 10 11  1  0
 11 12  2  0
 12 13  1  0
 13 14  1  0
 13 15  2  0
 12 16  1  0
 16 17  1  0
 17 18  2  0
 17 19  1  0
 19 20  1  0
 20 21  1  0
 20 22  1  0
 20 23  1  0
 16 24  1  0
 24 25  2  0
 25  7  1  0
 24 10  1  0
  1 26  1  0
  1 27  1  0
  1 28  1  0
  5 29  1  0
  5 30  1  0
  6 31  1  0
  8 32  1  0
  9 33  1  0
 11 34  1  0
 14 35  1  0
 14 36  1  0
 21 37  1  0
 21 38  1  0
 21 39  1  0
 22 40  1  0
 22 41  1  0
 22 42  1  0
 23 43  1  0
 23 44  1  0
 23 45  1  0
 25 46  1  0
M  END
>  <UniqueID>  (85) 
82

>  <SMILES>  (85) 
COC(=O)CNc1ccc2cc(C(N)=O)n(C(=O)OC(C)(C)C)c2c1

>  <Energy>  (85) 
75.79621816628595

>  <Genealogy>  (85) 
COC(=O)CNc1ccc2cc(C(N)=O)n(C(=O)OC(C)(C)C)c2c1 (3D coordinates assigned)
COC(=O)CNc1ccc2cc(C(N)=O)n(C(=O)OC(C)(C)C)c2c1 (optimized conformer: 75.79621816628595 kcal/mol)

>  <smiles>  (85) 
COC(=O)CNc1ccc2cc(C(N)=O)n(C(=O)OC(C)(C)C)c2c1

>  <score_type>  (85) 
oracle

>  <origin>  (85) 
adg

>  <m_score__min__energy>  (85) 
-8.4900000000000002

>  <m_primary>  (85) 
energy

$$$$
85:0
     RDKit          3D

 43 44  0  0  0  0  0  0  0  0999 V2000
   -0.4190   21.4940  -31.1920 C   0  0  0  0  0  0  0  0  0  0  0  0
   -0.0270   20.8450  -32.3960 O   0  0  0  0  0  0  0  0  0  0  0  0
   -0.6480   21.0960  -33.6220 C   0  0  0  0  0  0  0  0  0  0  0  0
   -0.1490   21.9160  -34.4400 O   0  0  0  0  0  0  0  0  0  0  0  0
   -1.9440   20.4200  -33.9440 C   0  0  0  0  0  0  0  0  0  0  0  0
   -2.9750   20.6500  -32.8360 C   0  0  0  0  0  0  0  0  0  0  0  0
   -3.4920   21.9790  -32.8790 O   0  0  0  0  0  0  0  0  0  0  0  0
   -3.8730   22.6960  -31.7400 C   0  0  0  0  0  0  0  0  0  0  0  0
   -3.0020   23.1660  -30.9580 O   0  0  0  0  0  0  0  0  0  0  0  0
   -5.2670   22.8740  -31.4460 N   0  0  0  0  0  0  0  0  0  0  0  0
   -5.8770   23.9830  -30.9400 C   0  0  0  0  0  0  0  0  0  0  0  0
   -5.1980   25.1880  -30.4200 C   0  0  0  0  0  0  0  0  0  0  0  0
   -3.8880   25.5380  -30.8610 N   0  0  0  0  0  0  0  0  0  0  0  0
   -5.7620   25.8920  -29.5410 O   0  0  0  0  0  0  0  0  0  0  0  0
   -7.2590   23.8040  -30.9010 C   0  0  0  0  0  0  0  0  0  0  0  0
   -7.4770   22.5390  -31.3980 C   0  0  0  0  0  0  0  0  0  0  0  0
   -8.6700   21.8460  -31.5910 C   0  0  0  0  0  0  0  0  0  0  0  0
   -8.5990   20.5580  -32.1480 C   0  0  0  0  0  0  0  0  0  0  0  0
   -7.3510   19.9980  -32.5160 C   0  0  0  0  0  0  0  0  0  0  0  0
   -7.2850   18.6100  -33.0870 C   0  0  0  0  0  0  0  0  0  0  0  0
   -6.0760   18.4720  -33.9540 C   0  0  0  0  0  0  0  0  0  0  0  0
   -6.1100   18.8790  -35.1470 O   0  0  0  0  0  0  0  0  0  0  0  0
   -4.9350   17.8470  -33.4460 O   0  0  0  0  0  0  0  0  0  0  0  0
   -4.9790   16.5800  -32.7990 C   0  0  0  0  0  0  0  0  0  0  0  0
   -6.1610   20.7270  -32.2960 C   0  0  0  0  0  0  0  0  0  0  0  0
   -6.2590   21.9990  -31.7210 C   0  0  0  0  0  0  0  0  0  0  0  0
   -0.0663   20.9101  -30.3291 H   0  0  0  0  0  0  0  0  0  0  0  0
    0.0219   22.5012  -31.1580 H   0  0  0  0  0  0  0  0  0  0  0  0
   -1.5157   21.5725  -31.1580 H   0  0  0  0  0  0  0  0  0  0  0  0
   -2.3355   20.8249  -34.8889 H   0  0  0  0  0  0  0  0  0  0  0  0
   -1.7618   19.3389  -34.0331 H   0  0  0  0  0  0  0  0  0  0  0  0
   -3.8040   19.9384  -32.9641 H   0  0  0  0  0  0  0  0  0  0  0  0
   -2.4811   20.5000  -31.8646 H   0  0  0  0  0  0  0  0  0  0  0  0
   -3.0440   25.2530  -30.3180 H   0  0  0  0  0  0  0  0  0  0  0  0
   -8.0147   24.5212  -30.5481 H   0  0  0  0  0  0  0  0  0  0  0  0
   -9.6368   22.2929  -31.3161 H   0  0  0  0  0  0  0  0  0  0  0  0
   -9.5217   19.9788  -32.2998 H   0  0  0  0  0  0  0  0  0  0  0  0
   -7.2297   17.8803  -32.2657 H   0  0  0  0  0  0  0  0  0  0  0  0
   -8.1857   18.4242  -33.6905 H   0  0  0  0  0  0  0  0  0  0  0  0
   -4.9740   16.7248  -31.7086 H   0  0  0  0  0  0  0  0  0  0  0  0
   -5.8961   16.0492  -33.0942 H   0  0  0  0  0  0  0  0  0  0  0  0
   -4.1009   15.9869  -33.0942 H   0  0  0  0  0  0  0  0  0  0  0  0
   -5.1825   20.3055  -32.5697 H   0  0  0  0  0  0  0  0  0  0  0  0
  1  2  1  0
  2  3  1  0
  3  4  2  0
  3  5  1  0
  5  6  1  0
  6  7  1  0
  7  8  1  0
  8  9  2  0
  8 10  1  0
 10 11  1  0
 11 12  1  0
 12 13  1  0
 12 14  2  0
 11 15  2  0
 15 16  1  0
 16 17  2  0
 17 18  1  0
 18 19  2  0
 19 20  1  0
 20 21  1  0
 21 22  2  0
 21 23  1  0
 23 24  1  0
 19 25  1  0
 25 26  2  0
 26 10  1  0
 26 16  1  0
  1 27  1  0
  1 28  1  0
  1 29  1  0
  5 30  1  0
  5 31  1  0
  6 32  1  0
  6 33  1  0
 13 34  1  0
 15 35  1  0
 17 36  1  0
 18 37  1  0
 20 38  1  0
 20 39  1  0
 24 40  1  0
 24 41  1  0
 24 42  1  0
 25 43  1  0
M  CHG  1  13  -1
M  END
>  <UniqueID>  (86) 
83

>  <SMILES>  (86) 
COC(=O)CCOC(=O)n1c(C([NH-])=O)cc2ccc(CC(=O)OC)cc21

>  <Energy>  (86) 
70.80072350498124

>  <Genealogy>  (86) 
COC(=O)CCOC(=O)n1c(C([NH-])=O)cc2ccc(CC(=O)OC)cc21 (protonated)
COC(=O)CCOC(=O)n1c(C([NH-])=O)cc2ccc(CC(=O)OC)cc21 (3D coordinates assigned)
COC(=O)CCOC(=O)n1c(C([NH-])=O)cc2ccc(CC(=O)OC)cc21 (optimized conformer: 70.80072350498124 kcal/mol)

>  <smiles>  (86) 
COC(=O)CCOC(=O)n1c(C(N)=O)cc2ccc(CC(=O)OC)cc21

>  <score_type>  (86) 
oracle

>  <origin>  (86) 
adg

>  <m_score__min__energy>  (86) 
-10.470000000000001

>  <m_primary>  (86) 
energy

$$$$
86:0
     RDKit          3D

 48 50  0  0  0  0  0  0  0  0999 V2000
   -8.3950   22.5520  -30.9800 C   0  0  0  0  0  0  0  0  0  0  0  0
   -6.9330   22.4530  -30.9550 N   0  0  0  0  0  0  0  0  0  0  0  0
   -6.2120   22.4820  -29.6790 C   0  0  0  0  0  0  0  0  0  0  0  0
   -6.2020   22.5900  -32.1890 C   0  0  0  0  0  0  0  0  0  0  0  0
   -6.6110   23.4010  -33.0660 O   0  0  0  0  0  0  0  0  0  0  0  0
   -5.0140   21.8150  -32.4430 N   0  0  0  0  0  0  0  0  0  0  0  0
   -4.9580   20.3960  -32.0620 C   0  0  0  0  0  0  0  0  0  0  0  0
   -3.5630   20.0230  -31.5380 C   0  0  0  0  0  0  0  0  0  0  0  0
   -2.5450   20.9620  -32.0440 N   0  0  0  0  0  0  0  0  0  0  0  0
   -1.6300   21.6420  -31.1560 C   0  0  0  0  0  0  0  0  0  0  0  0
   -0.6230   22.2420  -31.6170 O   0  0  0  0  0  0  0  0  0  0  0  0
   -1.9030   21.7480  -29.7530 N   0  0  0  0  0  0  0  0  0  0  0  0
   -2.5200   22.7790  -29.1180 C   0  0  0  0  0  0  0  0  0  0  0  0
   -3.0030   24.0190  -29.7650 C   0  0  0  0  0  0  0  0  0  0  0  0
   -2.4910   25.2830  -29.3510 N   0  0  0  0  0  0  0  0  0  0  0  0
   -3.8840   23.9710  -30.6650 O   0  0  0  0  0  0  0  0  0  0  0  0
   -2.6100   22.5250  -27.7500 C   0  0  0  0  0  0  0  0  0  0  0  0
   -1.9950   21.3050  -27.5660 C   0  0  0  0  0  0  0  0  0  0  0  0
   -1.7960   20.5610  -26.4060 C   0  0  0  0  0  0  0  0  0  0  0  0
   -1.1050   19.3400  -26.5130 C   0  0  0  0  0  0  0  0  0  0  0  0
   -0.6200   18.8920  -27.7730 C   0  0  0  0  0  0  0  0  0  0  0  0
    0.1040   17.5780  -27.9020 C   0  0  0  0  0  0  0  0  0  0  0  0
   -0.1220   17.0080  -29.1420 F   0  0  0  0  0  0  0  0  0  0  0  0
    1.4630   17.7920  -27.7430 F   0  0  0  0  0  0  0  0  0  0  0  0
   -0.3330   16.6880  -26.9350 F   0  0  0  0  0  0  0  0  0  0  0  0
   -0.8850   19.6570  -28.9340 C   0  0  0  0  0  0  0  0  0  0  0  0
   -1.5640   20.8670  -28.7900 C   0  0  0  0  0  0  0  0  0  0  0  0
   -2.7490   21.4860  -33.3960 C   0  0  0  0  0  0  0  0  0  0  0  0
   -4.0390   22.3160  -33.4210 C   0  0  0  0  0  0  0  0  0  0  0  0
   -8.7784   22.5780  -29.9493 H   0  0  0  0  0  0  0  0  0  0  0  0
   -8.6913   23.4723  -31.5047 H   0  0  0  0  0  0  0  0  0  0  0  0
   -8.8126   21.6801  -31.5047 H   0  0  0  0  0  0  0  0  0  0  0  0
   -6.9337   22.4530  -28.8493 H   0  0  0  0  0  0  0  0  0  0  0  0
   -5.5446   21.6100  -29.6151 H   0  0  0  0  0  0  0  0  0  0  0  0
   -5.6167   23.4048  -29.6151 H   0  0  0  0  0  0  0  0  0  0  0  0
   -5.7014   20.2052  -31.2740 H   0  0  0  0  0  0  0  0  0  0  0  0
   -5.1742   19.7850  -32.9508 H   0  0  0  0  0  0  0  0  0  0  0  0
   -3.5699   20.0567  -30.4385 H   0  0  0  0  0  0  0  0  0  0  0  0
   -3.3139   19.0106  -31.8886 H   0  0  0  0  0  0  0  0  0  0  0  0
   -1.6140   25.6630  -29.7780 H   0  0  0  0  0  0  0  0  0  0  0  0
   -3.0728   23.1619  -26.9818 H   0  0  0  0  0  0  0  0  0  0  0  0
   -2.1682   20.9174  -25.4342 H   0  0  0  0  0  0  0  0  0  0  0  0
   -0.9385   18.7269  -25.6150 H   0  0  0  0  0  0  0  0  0  0  0  0
   -0.5634   19.3059  -29.9256 H   0  0  0  0  0  0  0  0  0  0  0  0
   -1.8963   22.1212  -33.6778 H   0  0  0  0  0  0  0  0  0  0  0  0
   -2.8297   20.6525  -34.1092 H   0  0  0  0  0  0  0  0  0  0  0  0
   -3.7969   23.3621  -33.1822 H   0  0  0  0  0  0  0  0  0  0  0  0
   -4.4825   22.2390  -34.4247 H   0  0  0  0  0  0  0  0  0  0  0  0
  1  2  1  0
  2  3  1  0
  2  4  1  0
  4  5  2  0
  4  6  1  0
  6  7  1  0
  7  8  1  0
  8  9  1  0
  9 10  1  0
 10 11  2  0
 10 12  1  0
 12 13  1  0
 13 14  1  0
 14 15  1  0
 14 16  2  0
 13 17  2  0
 17 18  1  0
 18 19  2  0
 19 20  1  0
 20 21  2  0
 21 22  1  0
 22 23  1  0
 22 24  1  0
 22 25  1  0
 21 26  1  0
 26 27  2  0
  9 28  1  0
 28 29  1  0
 29  6  1  0
 27 12  1  0
 27 18  1  0
  1 30  1  0
  1 31  1  0
  1 32  1  0
  3 33  1  0
  3 34  1  0
  3 35  1  0
  7 36  1  0
  7 37  1  0
  8 38  1  0
  8 39  1  0
 15 40  1  0
 17 41  1  0
 19 42  1  0
 20 43  1  0
 26 44  1  0
 28 45  1  0
 28 46  1  0
 29 47  1  0
 29 48  1  0
M  CHG  1  15  -1
M  END
>  <UniqueID>  (87) 
84

>  <SMILES>  (87) 
CN(C)C(=O)N1CCN(C(=O)n2c(C([NH-])=O)cc3ccc(C(F)(F)F)cc32)CC1

>  <Energy>  (87) 
96.96299709364055

>  <Genealogy>  (87) 
CN(C)C(=O)N1CCN(C(=O)n2c(C([NH-])=O)cc3ccc(C(F)(F)F)cc32)CC1 (protonated)
CN(C)C(=O)N1CCN(C(=O)n2c(C([NH-])=O)cc3ccc(C(F)(F)F)cc32)CC1 (3D coordinates assigned)
CN(C)C(=O)N1CCN(C(=O)n2c(C([NH-])=O)cc3ccc(C(F)(F)F)cc32)CC1 (nonaromatic ring conformer: 96.96299709364055 kcal/mol)

>  <smiles>  (87) 
CN(C)C(=O)N1CCN(C(=O)n2c(C(N)=O)cc3ccc(C(F)(F)F)cc32)CC1

>  <score_type>  (87) 
oracle

>  <origin>  (87) 
adg

>  <m_score__min__energy>  (87) 
-8.4600000000000009

>  <m_primary>  (87) 
energy

$$$$
87:0
     RDKit          3D

 42 44  0  0  0  0  0  0  0  0999 V2000
   -2.6480   17.1960  -33.1220 C   0  0  0  0  0  0  0  0  0  0  0  0
   -4.0980   17.3830  -33.2860 N   0  0  0  0  0  0  0  0  0  0  0  0
   -4.7140   16.1670  -33.8440 C   0  0  0  0  0  0  0  0  0  0  0  0
   -6.2510   16.2620  -33.7730 C   0  0  0  0  0  0  0  0  0  0  0  0
   -6.7680   17.7210  -33.7700 C   0  0  0  0  0  0  0  0  0  0  0  0
   -6.8800   18.2340  -32.3950 N   0  0  0  0  0  0  0  0  0  0  0  0
   -7.0640   19.6240  -32.0560 C   0  0  0  0  0  0  0  0  0  0  0  0
   -8.3630   20.1860  -32.1510 C   0  0  0  0  0  0  0  0  0  0  0  0
   -8.5950   21.5320  -31.8270 C   0  0  0  0  0  0  0  0  0  0  0  0
   -7.5120   22.2980  -31.4100 C   0  0  0  0  0  0  0  0  0  0  0  0
   -7.4560   23.6180  -31.0300 C   0  0  0  0  0  0  0  0  0  0  0  0
   -6.1190   23.8570  -30.7180 C   0  0  0  0  0  0  0  0  0  0  0  0
   -5.5910   25.1910  -30.3590 C   0  0  0  0  0  0  0  0  0  0  0  0
   -4.2450   25.5480  -30.6740 N   0  0  0  0  0  0  0  0  0  0  0  0
   -6.3120   26.0100  -29.7300 O   0  0  0  0  0  0  0  0  0  0  0  0
   -5.3790   22.7240  -30.8900 N   0  0  0  0  0  0  0  0  0  0  0  0
   -3.9830   22.5160  -30.6080 C   0  0  0  0  0  0  0  0  0  0  0  0
   -3.0980   23.2240  -31.1530 O   0  0  0  0  0  0  0  0  0  0  0  0
   -6.2460   21.7810  -31.3200 C   0  0  0  0  0  0  0  0  0  0  0  0
   -5.9870   20.4400  -31.6260 C   0  0  0  0  0  0  0  0  0  0  0  0
   -5.8430   18.6200  -34.6110 C   0  0  0  0  0  0  0  0  0  0  0  0
   -4.3670   18.5510  -34.1550 C   0  0  0  0  0  0  0  0  0  0  0  0
   -2.4013   17.1642  -32.0505 H   0  0  0  0  0  0  0  0  0  0  0  0
   -2.3442   16.2512  -33.5964 H   0  0  0  0  0  0  0  0  0  0  0  0
   -2.1144   18.0328  -33.5964 H   0  0  0  0  0  0  0  0  0  0  0  0
   -4.4060   16.0538  -34.8939 H   0  0  0  0  0  0  0  0  0  0  0  0
   -4.3828   15.2977  -33.2570 H   0  0  0  0  0  0  0  0  0  0  0  0
   -6.6749   15.7419  -34.6447 H   0  0  0  0  0  0  0  0  0  0  0  0
   -6.5655   15.7999  -32.8256 H   0  0  0  0  0  0  0  0  0  0  0  0
   -7.7712   17.7329  -34.2211 H   0  0  0  0  0  0  0  0  0  0  0  0
   -6.7820   17.5580  -31.6040 H   0  0  0  0  0  0  0  0  0  0  0  0
   -9.2018   19.5571  -32.4839 H   0  0  0  0  0  0  0  0  0  0  0  0
   -9.6025   21.9674  -31.9007 H   0  0  0  0  0  0  0  0  0  0  0  0
   -8.2898   24.3338  -30.9823 H   0  0  0  0  0  0  0  0  0  0  0  0
   -3.6320   24.9100  -31.2290 H   0  0  0  0  0  0  0  0  0  0  0  0
   -3.8650   26.4760  -30.3820 H   0  0  0  0  0  0  0  0  0  0  0  0
   -3.6853   21.7248  -29.9042 H   0  0  0  0  0  0  0  0  0  0  0  0
   -4.9710   20.0284  -31.5350 H   0  0  0  0  0  0  0  0  0  0  0  0
   -5.9019   18.3002  -35.6618 H   0  0  0  0  0  0  0  0  0  0  0  0
   -6.1822   19.6584  -34.4819 H   0  0  0  0  0  0  0  0  0  0  0  0
   -3.7250   18.4837  -35.0457 H   0  0  0  0  0  0  0  0  0  0  0  0
   -4.1538   19.4588  -33.5716 H   0  0  0  0  0  0  0  0  0  0  0  0
  1  2  1  0
  2  3  1  0
  3  4  1  0
  4  5  1  0
  5  6  1  0
  6  7  1  0
  7  8  2  0
  8  9  1  0
  9 10  2  0
 10 11  1  0
 11 12  2  0
 12 13  1  0
 13 14  1  0
 13 15  2  0
 12 16  1  0
 16 17  1  0
 17 18  2  0
 16 19  1  0
 19 20  2  0
  5 21  1  0
 21 22  1  0
 22  2  1  0
 20  7  1  0
 19 10  1  0
  1 23  1  0
  1 24  1  0
  1 25  1  0
  3 26  1  0
  3 27  1  0
  4 28  1  0
  4 29  1  0
  5 30  1  0
  6 31  1  0
  8 32  1  0
  9 33  1  0
 11 34  1  0
 14 35  1  0
 14 36  1  0
 17 37  1  0
 20 38  1  0
 21 39  1  0
 21 40  1  0
 22 41  1  0
 22 42  1  0
M  END
>  <UniqueID>  (88) 
85

>  <SMILES>  (88) 
CN1CCC(Nc2ccc3cc(C(N)=O)n(C=O)c3c2)CC1

>  <Energy>  (88) 
86.56710482834383

>  <Genealogy>  (88) 
CN1CCC(Nc2ccc3cc(C(N)=O)n(C=O)c3c2)CC1 (3D coordinates assigned)
CN1CCC(Nc2ccc3cc(C(N)=O)n(C=O)c3c2)CC1 (nonaromatic ring conformer: 86.56710482834383 kcal/mol)

>  <smiles>  (88) 
CN1CCC(Nc2ccc3cc(C(N)=O)n(C=O)c3c2)CC1

>  <score_type>  (88) 
oracle

>  <origin>  (88) 
adg

>  <m_score__min__energy>  (88) 
-9.1099999999999994

>  <m_primary>  (88) 
energy

$$$$
88:0
     RDKit          3D

 49 50  0  0  0  0  0  0  0  0999 V2000
   -1.6450   26.0480  -26.0990 C   0  0  0  0  0  0  0  0  0  0  0  0
   -0.5920   26.6030  -27.0630 C   0  0  0  0  0  0  0  0  0  0  0  0
   -0.4900   28.1210  -26.9250 C   0  0  0  0  0  0  0  0  0  0  0  0
   -0.9380   26.2840  -28.4120 O   0  0  0  0  0  0  0  0  0  0  0  0
   -1.0570   24.9760  -28.8910 C   0  0  0  0  0  0  0  0  0  0  0  0
   -0.0740   24.1850  -28.8510 O   0  0  0  0  0  0  0  0  0  0  0  0
   -2.2780   24.5600  -29.4250 O   0  0  0  0  0  0  0  0  0  0  0  0
   -3.0480   23.5070  -28.8510 C   0  0  0  0  0  0  0  0  0  0  0  0
   -3.1490   22.4290  -29.7750 O   0  0  0  0  0  0  0  0  0  0  0  0
   -3.6070   22.5870  -31.0870 C   0  0  0  0  0  0  0  0  0  0  0  0
   -2.7740   22.6390  -32.0320 O   0  0  0  0  0  0  0  0  0  0  0  0
   -5.0250   22.6410  -31.3600 N   0  0  0  0  0  0  0  0  0  0  0  0
   -5.8840   23.6520  -31.0420 C   0  0  0  0  0  0  0  0  0  0  0  0
   -5.5110   24.9690  -30.5010 C   0  0  0  0  0  0  0  0  0  0  0  0
   -4.1860   25.4740  -30.6640 N   0  0  0  0  0  0  0  0  0  0  0  0
   -6.3870   25.6850  -29.9470 O   0  0  0  0  0  0  0  0  0  0  0  0
   -7.2000   23.2930  -31.3010 C   0  0  0  0  0  0  0  0  0  0  0  0
   -7.1300   22.0250  -31.8230 C   0  0  0  0  0  0  0  0  0  0  0  0
   -8.1480   21.2040  -32.2910 C   0  0  0  0  0  0  0  0  0  0  0  0
   -7.7970   19.9500  -32.8130 C   0  0  0  0  0  0  0  0  0  0  0  0
   -6.4400   19.5190  -32.8540 C   0  0  0  0  0  0  0  0  0  0  0  0
   -6.0980   18.1630  -33.4950 C   0  0  0  0  0  0  0  0  0  0  0  0
   -7.1190   17.1120  -33.0230 C   0  0  0  0  0  0  0  0  0  0  0  0
   -6.0900   18.1990  -35.0390 C   0  0  0  0  0  0  0  0  0  0  0  0
   -4.7480   17.7390  -33.0680 C   0  0  0  0  0  0  0  0  0  0  0  0
   -3.6900   17.4070  -32.7340 N   0  0  0  0  0  0  0  0  0  0  0  0
   -5.4330   20.4090  -32.3870 C   0  0  0  0  0  0  0  0  0  0  0  0
   -5.8120   21.6500  -31.8540 C   0  0  0  0  0  0  0  0  0  0  0  0
   -1.3197   26.2195  -25.0623 H   0  0  0  0  0  0  0  0  0  0  0  0
   -2.6046   26.5575  -26.2712 H   0  0  0  0  0  0  0  0  0  0  0  0
   -1.7670   24.9684  -26.2712 H   0  0  0  0  0  0  0  0  0  0  0  0
    0.3760   26.1452  -26.8112 H   0  0  0  0  0  0  0  0  0  0  0  0
   -0.4718   28.3919  -25.8590 H   0  0  0  0  0  0  0  0  0  0  0  0
    0.4337   28.4719  -27.4083 H   0  0  0  0  0  0  0  0  0  0  0  0
   -1.3585   28.5923  -27.4083 H   0  0  0  0  0  0  0  0  0  0  0  0
   -2.5584   23.1554  -27.9308 H   0  0  0  0  0  0  0  0  0  0  0  0
   -4.0554   23.8795  -28.6137 H   0  0  0  0  0  0  0  0  0  0  0  0
   -3.4720   24.9320  -31.2020 H   0  0  0  0  0  0  0  0  0  0  0  0
   -3.9260   26.4090  -30.2790 H   0  0  0  0  0  0  0  0  0  0  0  0
   -8.1039   23.8948  -31.1257 H   0  0  0  0  0  0  0  0  0  0  0  0
   -9.1987   21.5276  -32.2534 H   0  0  0  0  0  0  0  0  0  0  0  0
   -8.5853   19.2865  -33.1982 H   0  0  0  0  0  0  0  0  0  0  0  0
   -7.1406   17.0897  -31.9234 H   0  0  0  0  0  0  0  0  0  0  0  0
   -8.1172   17.3735  -33.4041 H   0  0  0  0  0  0  0  0  0  0  0  0
   -6.8288   16.1218  -33.4041 H   0  0  0  0  0  0  0  0  0  0  0  0
   -5.8632   19.2197  -35.3808 H   0  0  0  0  0  0  0  0  0  0  0  0
   -5.3238   17.5067  -35.4179 H   0  0  0  0  0  0  0  0  0  0  0  0
   -7.0773   17.8963  -35.4179 H   0  0  0  0  0  0  0  0  0  0  0  0
   -4.3711   20.1276  -32.4432 H   0  0  0  0  0  0  0  0  0  0  0  0
  1  2  1  0
  2  3  1  0
  2  4  1  0
  4  5  1  0
  5  6  2  0
  5  7  1  0
  7  8  1  0
  8  9  1  0
  9 10  1  0
 10 11  2  0
 10 12  1  0
 12 13  1  0
 13 14  1  0
 14 15  1  0
 14 16  2  0
 13 17  2  0
 17 18  1  0
 18 19  2  0
 19 20  1  0
 20 21  2  0
 21 22  1  0
 22 23  1  0
 22 24  1  0
 22 25  1  0
 25 26  3  0
 21 27  1  0
 27 28  2  0
 28 12  1  0
 28 18  1  0
  1 29  1  0
  1 30  1  0
  1 31  1  0
  2 32  1  0
  3 33  1  0
  3 34  1  0
  3 35  1  0
  8 36  1  0
  8 37  1  0
 15 38  1  0
 15 39  1  0
 17 40  1  0
 19 41  1  0
 20 42  1  0
 23 43  1  0
 23 44  1  0
 23 45  1  0
 24 46  1  0
 24 47  1  0
 24 48  1  0
 27 49  1  0
M  END
>  <UniqueID>  (89) 
86

>  <SMILES>  (89) 
CC(C)OC(=O)OCOC(=O)n1c(C(N)=O)cc2ccc(C(C)(C)C#N)cc21

>  <Energy>  (89) 
82.54457743170147

>  <Genealogy>  (89) 
CC(C)OC(=O)OCOC(=O)n1c(C(N)=O)cc2ccc(C(C)(C)C#N)cc21 (3D coordinates assigned)
CC(C)OC(=O)OCOC(=O)n1c(C(N)=O)cc2ccc(C(C)(C)C#N)cc21 (optimized conformer: 82.54457743170147 kcal/mol)

>  <smiles>  (89) 
CC(C)OC(=O)OCOC(=O)n1c(C(N)=O)cc2ccc(C(C)(C)C#N)cc21

>  <score_type>  (89) 
oracle

>  <origin>  (89) 
adg

>  <m_score__min__energy>  (89) 
-9.9199999999999999

>  <m_primary>  (89) 
energy

$$$$
89:0
     RDKit          3D

 31 32  0  0  0  0  0  0  0  0999 V2000
   -3.4830   25.6390  -30.1980 H   0  0  0  0  0  0  0  0  0  0  0  0
   -4.2270   25.3890  -30.8880 N   0  0  0  0  0  0  0  0  0  0  0  0
   -5.5580   25.1120  -30.4600 C   0  0  0  0  0  0  0  0  0  0  0  0
   -6.1660   25.9540  -29.7490 O   0  0  0  0  0  0  0  0  0  0  0  0
   -6.1940   23.8280  -30.8220 C   0  0  0  0  0  0  0  0  0  0  0  0
   -7.5400   23.7060  -31.1680 C   0  0  0  0  0  0  0  0  0  0  0  0
   -8.3052   24.4963  -31.1619 H   0  0  0  0  0  0  0  0  0  0  0  0
   -7.7060   22.3840  -31.5190 C   0  0  0  0  0  0  0  0  0  0  0  0
   -8.8450   21.7060  -31.9430 C   0  0  0  0  0  0  0  0  0  0  0  0
   -9.8066   22.2280  -32.0569 H   0  0  0  0  0  0  0  0  0  0  0  0
   -8.7280   20.3340  -32.2210 C   0  0  0  0  0  0  0  0  0  0  0  0
   -9.6091   19.7704  -32.5615 H   0  0  0  0  0  0  0  0  0  0  0  0
   -7.4850   19.6680  -32.0670 C   0  0  0  0  0  0  0  0  0  0  0  0
   -7.3860   18.1970  -32.3580 C   0  0  0  0  0  0  0  0  0  0  0  0
   -6.6347   17.7482  -31.6916 H   0  0  0  0  0  0  0  0  0  0  0  0
   -7.0080   18.0060  -33.6750 F   0  0  0  0  0  0  0  0  0  0  0  0
   -8.6120   17.5960  -32.1430 F   0  0  0  0  0  0  0  0  0  0  0  0
   -6.3510   20.3900  -31.6330 C   0  0  0  0  0  0  0  0  0  0  0  0
   -5.3804   19.8899  -31.4998 H   0  0  0  0  0  0  0  0  0  0  0  0
   -6.4950   21.7580  -31.3770 C   0  0  0  0  0  0  0  0  0  0  0  0
   -5.5590   22.6280  -30.9440 N   0  0  0  0  0  0  0  0  0  0  0  0
   -4.1950   22.3130  -30.6280 C   0  0  0  0  0  0  0  0  0  0  0  0
   -3.6590   21.2930  -31.1420 O   0  0  0  0  0  0  0  0  0  0  0  0
   -3.4450   23.1480  -29.6710 C   0  0  0  0  0  0  0  0  0  0  0  0
   -3.9731   23.5550  -28.7961 H   0  0  0  0  0  0  0  0  0  0  0  0
   -2.1500   23.4280  -29.8270 C   0  0  0  0  0  0  0  0  0  0  0  0
   -1.6060   23.0258  -30.6943 H   0  0  0  0  0  0  0  0  0  0  0  0
   -1.2900   24.4520  -28.6380 P   0  0  0  0  0  0  0  0  0  0  0  0
   -1.7620   24.1130  -27.2430 O   0  0  0  0  0  0  0  0  0  0  0  0
   -1.6130   26.0800  -28.9600 O   0  0  0  0  0  0  0  0  0  0  0  0
    0.3740   24.1760  -28.7520 O   0  0  0  0  0  0  0  0  0  0  0  0
  1  2  1  0
  2  3  1  0
  3  4  2  0
  3  5  1  0
  5  6  2  0
  6  7  1  0
  6  8  1  0
  8  9  2  0
  9 10  1  0
  9 11  1  0
 11 12  1  0
 11 13  2  0
 13 14  1  0
 14 15  1  0
 14 16  1  0
 14 17  1  0
 13 18  1  0
 18 19  1  0
 18 20  2  0
 20 21  1  0
 21 22  1  0
 22 23  2  0
 22 24  1  0
 24 25  1  0
 24 26  2  0
 26 27  1  0
 26 28  1  0
 28 29  2  0
 28 30  1  0
 28 31  1  0
 21  5  1  0
 20  8  1  0
M  CHG  3   2  -1  30  -1  31  -1
M  END
>  <UniqueID>  (90) 
87

>  <SMILES>  (90) 
[NH-]C(=O)c1cc2ccc(C(F)F)cc2n1C(=O)/C=C/P(=O)([O-])[O-]

>  <Energy>  (90) 
66.0477090339818

>  <Genealogy>  (90) 
[NH-]C(=O)c1cc2ccc(C(F)F)cc2n1C(=O)C=CP(=O)([O-])[O-] (protonated)
[NH-]C(=O)c1cc2ccc(C(F)F)cc2n1C(=O)/C=C/P(=O)([O-])[O-] (cis-trans isomerization)
[NH-]C(=O)c1cc2ccc(C(F)F)cc2n1C(=O)/C=C/P(=O)([O-])[O-] (3D coordinates assigned)
[NH-]C(=O)c1cc2ccc(C(F)F)cc2n1C(=O)/C=C/P(=O)([O-])[O-] (optimized conformer: 66.0477090339818 kcal/mol)

>  <smiles>  (90) 
NC(=O)c1cc2ccc(C(F)F)cc2n1C(=O)C=CP(=O)(O)O

>  <score_type>  (90) 
oracle

>  <origin>  (90) 
adg

>  <m_score__min__energy>  (90) 
-13.609999999999999

>  <m_primary>  (90) 
energy

$$$$
90:0
     RDKit          3D

 44 47  0  0  0  0  0  0  0  0999 V2000
   -4.1750   25.5850  -30.8040 N   0  0  0  0  0  0  0  0  0  0  0  0
   -5.4980   25.1480  -30.4990 C   0  0  0  0  0  0  0  0  0  0  0  0
   -6.2570   25.8940  -29.8250 O   0  0  0  0  0  0  0  0  0  0  0  0
   -5.9670   23.8130  -30.9090 C   0  0  0  0  0  0  0  0  0  0  0  0
   -7.2870   23.5270  -31.2450 C   0  0  0  0  0  0  0  0  0  0  0  0
   -7.3060   22.1780  -31.5180 C   0  0  0  0  0  0  0  0  0  0  0  0
   -8.3580   21.3590  -31.9160 C   0  0  0  0  0  0  0  0  0  0  0  0
   -8.0840   20.0010  -32.1500 C   0  0  0  0  0  0  0  0  0  0  0  0
   -6.7740   19.4830  -31.9670 C   0  0  0  0  0  0  0  0  0  0  0  0
   -6.4800   18.0360  -32.2730 C   0  0  0  0  0  0  0  0  0  0  0  0
   -7.5890   17.4170  -32.8230 F   0  0  0  0  0  0  0  0  0  0  0  0
   -5.4330   17.9650  -33.1720 F   0  0  0  0  0  0  0  0  0  0  0  0
   -6.1310   17.3540  -31.1200 F   0  0  0  0  0  0  0  0  0  0  0  0
   -5.7280   20.3530  -31.5840 C   0  0  0  0  0  0  0  0  0  0  0  0
   -6.0330   21.6990  -31.3570 C   0  0  0  0  0  0  0  0  0  0  0  0
   -5.1940   22.6970  -31.0050 N   0  0  0  0  0  0  0  0  0  0  0  0
   -3.7710   22.5920  -30.8340 C   0  0  0  0  0  0  0  0  0  0  0  0
   -3.0130   22.8350  -31.8110 O   0  0  0  0  0  0  0  0  0  0  0  0
   -3.1910   22.2110  -29.5660 N   0  0  0  0  0  0  0  0  0  0  0  0
   -3.0280   20.7590  -29.3380 C   0  0  0  0  0  0  0  0  0  0  0  0
   -2.7430   20.3800  -27.8930 C   0  0  0  0  0  0  0  0  0  0  0  0
   -1.3950   19.9010  -28.2080 N   0  0  0  0  0  0  0  0  0  0  0  0
   -1.6300   20.2320  -29.6160 C   0  0  0  0  0  0  0  0  0  0  0  0
   -2.5180   23.1980  -28.6790 C   0  0  0  0  0  0  0  0  0  0  0  0
   -3.2970   24.4650  -28.4190 C   0  0  0  0  0  0  0  0  0  0  0  0
   -2.3670   25.2600  -29.1170 O   0  0  0  0  0  0  0  0  0  0  0  0
   -1.5560   24.1370  -29.3760 C   0  0  0  0  0  0  0  0  0  0  0  0
   -3.8700   26.5530  -30.5590 H   0  0  0  0  0  0  0  0  0  0  0  0
   -3.4700   24.9200  -31.1940 H   0  0  0  0  0  0  0  0  0  0  0  0
   -8.1334   24.2285  -31.2840 H   0  0  0  0  0  0  0  0  0  0  0  0
   -9.3734   21.7624  -32.0436 H   0  0  0  0  0  0  0  0  0  0  0  0
   -8.8927   19.3316  -32.4785 H   0  0  0  0  0  0  0  0  0  0  0  0
   -4.6995   19.9807  -31.4673 H   0  0  0  0  0  0  0  0  0  0  0  0
   -3.9179   20.4146  -29.8851 H   0  0  0  0  0  0  0  0  0  0  0  0
   -2.7530   21.2383  -27.2051 H   0  0  0  0  0  0  0  0  0  0  0  0
   -3.4389   19.7045  -27.3739 H   0  0  0  0  0  0  0  0  0  0  0  0
   -1.3810   18.8580  -28.1090 H   0  0  0  0  0  0  0  0  0  0  0  0
   -0.9432   20.9976  -30.0062 H   0  0  0  0  0  0  0  0  0  0  0  0
   -1.5000   19.4464  -30.3749 H   0  0  0  0  0  0  0  0  0  0  0  0
   -2.2215   22.4893  -27.8917 H   0  0  0  0  0  0  0  0  0  0  0  0
   -4.2995   24.4638  -28.8717 H   0  0  0  0  0  0  0  0  0  0  0  0
   -3.5514   24.7300  -27.3821 H   0  0  0  0  0  0  0  0  0  0  0  0
   -1.4321   23.9226  -30.4478 H   0  0  0  0  0  0  0  0  0  0  0  0
   -0.5027   24.1544  -29.0592 H   0  0  0  0  0  0  0  0  0  0  0  0
  1  2  1  0
  2  3  2  0
  2  4  1  0
  4  5  2  0
  5  6  1  0
  6  7  2  0
  7  8  1  0
  8  9  2  0
  9 10  1  0
 10 11  1  0
 10 12  1  0
 10 13  1  0
  9 14  1  0
 14 15  2  0
 15 16  1  0
 16 17  1  0
 17 18  2  0
 17 19  1  0
 19 20  1  0
 20 21  1  0
 21 22  1  0
 22 23  1  0
 19 24  1  0
 24 25  1  0
 25 26  1  0
 26 27  1  0
 16  4  1  0
 23 20  1  0
 27 24  1  0
 15  6  1  0
  1 28  1  0
  1 29  1  0
  5 30  1  0
  7 31  1  0
  8 32  1  0
 14 33  1  0
 20 34  1  0
 21 35  1  0
 21 36  1  0
 22 37  1  0
 23 38  1  0
 23 39  1  0
 24 40  1  0
 25 41  1  0
 25 42  1  0
 27 43  1  0
 27 44  1  0
M  END
>  <UniqueID>  (91) 
88

>  <SMILES>  (91) 
NC(=O)c1cc2ccc(C(F)(F)F)cc2n1C(=O)N(C1CNC1)C1COC1

>  <Energy>  (91) 
226.48838378326366

>  <Genealogy>  (91) 
NC(=O)c1cc2ccc(C(F)(F)F)cc2n1C(=O)N(C1CNC1)C1COC1 (3D coordinates assigned)
NC(=O)c1cc2ccc(C(F)(F)F)cc2n1C(=O)N(C1CNC1)C1COC1 (nonaromatic ring conformer: 226.48838378326366 kcal/mol)

>  <smiles>  (91) 
NC(=O)c1cc2ccc(C(F)(F)F)cc2n1C(=O)N(C1CNC1)C1COC1

>  <score_type>  (91) 
oracle

>  <origin>  (91) 
adg

>  <m_score__min__energy>  (91) 
-8.7599999999999998

>  <m_primary>  (91) 
energy

$$$$
91:0
     RDKit          3D

 57 58  0  0  0  0  0  0  0  0999 V2000
   -6.1170   17.3970  -31.1420 C   0  0  0  0  0  0  0  0  0  0  0  0
   -6.6610   18.2840  -32.1780 N   0  0  0  0  0  0  0  0  0  0  0  0
   -7.0900   17.6890  -33.4530 C   0  0  0  0  0  0  0  0  0  0  0  0
   -6.0480   17.8820  -34.5120 C   0  0  0  0  0  0  0  0  0  0  0  0
   -6.0720   18.9290  -35.2120 O   0  0  0  0  0  0  0  0  0  0  0  0
   -5.0540   16.9070  -34.6920 O   0  0  0  0  0  0  0  0  0  0  0  0
   -3.7410   16.9150  -34.1150 C   0  0  0  0  0  0  0  0  0  0  0  0
   -2.6710   16.6740  -35.1970 C   0  0  0  0  0  0  0  0  0  0  0  0
   -3.6350   15.8580  -33.0000 C   0  0  0  0  0  0  0  0  0  0  0  0
   -3.5240   18.3060  -33.5020 C   0  0  0  0  0  0  0  0  0  0  0  0
   -6.8460   19.6980  -31.9050 C   0  0  0  0  0  0  0  0  0  0  0  0
   -8.1450   20.2810  -31.9160 C   0  0  0  0  0  0  0  0  0  0  0  0
   -8.3330   21.6400  -31.6200 C   0  0  0  0  0  0  0  0  0  0  0  0
   -7.2120   22.4060  -31.3270 C   0  0  0  0  0  0  0  0  0  0  0  0
   -7.1150   23.7320  -30.9730 C   0  0  0  0  0  0  0  0  0  0  0  0
   -5.7550   23.9630  -30.7770 C   0  0  0  0  0  0  0  0  0  0  0  0
   -5.1940   25.2910  -30.4570 C   0  0  0  0  0  0  0  0  0  0  0  0
   -3.8740   25.6470  -30.8620 N   0  0  0  0  0  0  0  0  0  0  0  0
   -5.9070   26.1440  -29.8630 O   0  0  0  0  0  0  0  0  0  0  0  0
   -5.0410   22.8230  -30.9950 N   0  0  0  0  0  0  0  0  0  0  0  0
   -3.6330   22.6210  -30.8050 C   0  0  0  0  0  0  0  0  0  0  0  0
   -3.0100   21.8220  -31.5540 O   0  0  0  0  0  0  0  0  0  0  0  0
   -2.9730   23.3000  -29.7680 O   0  0  0  0  0  0  0  0  0  0  0  0
   -3.0050   22.9600  -28.3730 C   0  0  0  0  0  0  0  0  0  0  0  0
   -4.1780   23.6700  -27.6710 C   0  0  0  0  0  0  0  0  0  0  0  0
   -1.6860   23.4510  -27.7580 C   0  0  0  0  0  0  0  0  0  0  0  0
   -3.1030   21.4330  -28.1860 C   0  0  0  0  0  0  0  0  0  0  0  0
   -5.9490   21.8780  -31.3310 C   0  0  0  0  0  0  0  0  0  0  0  0
   -5.7310   20.5230  -31.6020 C   0  0  0  0  0  0  0  0  0  0  0  0
   -6.3637   17.7993  -30.1484 H   0  0  0  0  0  0  0  0  0  0  0  0
   -6.5555   16.3941  -31.2508 H   0  0  0  0  0  0  0  0  0  0  0  0
   -5.0243   17.3332  -31.2508 H   0  0  0  0  0  0  0  0  0  0  0  0
   -7.2608   16.6120  -33.3082 H   0  0  0  0  0  0  0  0  0  0  0  0
   -8.0164   18.1853  -33.7777 H   0  0  0  0  0  0  0  0  0  0  0  0
   -1.7058   16.4566  -34.7162 H   0  0  0  0  0  0  0  0  0  0  0  0
   -2.9690   15.8205  -35.8237 H   0  0  0  0  0  0  0  0  0  0  0  0
   -2.5743   17.5729  -35.8237 H   0  0  0  0  0  0  0  0  0  0  0  0
   -3.6847   16.3535  -32.0192 H   0  0  0  0  0  0  0  0  0  0  0  0
   -4.4660   15.1432  -33.0922 H   0  0  0  0  0  0  0  0  0  0  0  0
   -2.6786   15.3224  -33.0922 H   0  0  0  0  0  0  0  0  0  0  0  0
   -3.5360   18.2291  -32.4048 H   0  0  0  0  0  0  0  0  0  0  0  0
   -2.5529   18.7043  -33.8310 H   0  0  0  0  0  0  0  0  0  0  0  0
   -4.3277   18.9811  -33.8310 H   0  0  0  0  0  0  0  0  0  0  0  0
   -9.0162   19.6555  -32.1607 H   0  0  0  0  0  0  0  0  0  0  0  0
   -9.3388   22.0855  -31.6201 H   0  0  0  0  0  0  0  0  0  0  0  0
   -7.9365   24.4559  -30.8672 H   0  0  0  0  0  0  0  0  0  0  0  0
   -3.0390   25.2990  -30.3390 H   0  0  0  0  0  0  0  0  0  0  0  0
   -4.0529   23.5943  -26.5808 H   0  0  0  0  0  0  0  0  0  0  0  0
   -4.1943   24.7297  -27.9655 H   0  0  0  0  0  0  0  0  0  0  0  0
   -5.1245   23.1930  -27.9655 H   0  0  0  0  0  0  0  0  0  0  0  0
   -1.7603   23.4233  -26.6609 H   0  0  0  0  0  0  0  0  0  0  0  0
   -0.8632   22.7989  -28.0863 H   0  0  0  0  0  0  0  0  0  0  0  0
   -1.4899   24.4824  -28.0863 H   0  0  0  0  0  0  0  0  0  0  0  0
   -3.1183   21.1953  -27.1121 H   0  0  0  0  0  0  0  0  0  0  0  0
   -4.0266   21.0645  -28.6562 H   0  0  0  0  0  0  0  0  0  0  0  0
   -2.2340   20.9495  -28.6562 H   0  0  0  0  0  0  0  0  0  0  0  0
   -4.7140   20.1043  -31.5807 H   0  0  0  0  0  0  0  0  0  0  0  0
  1  2  1  0
  2  3  1  0
  3  4  1  0
  4  5  2  0
  4  6  1  0
  6  7  1  0
  7  8  1  0
  7  9  1  0
  7 10  1  0
  2 11  1  0
 11 12  2  0
 12 13  1  0
 13 14  2  0
 14 15  1  0
 15 16  2  0
 16 17  1  0
 17 18  1  0
 17 19  2  0
 16 20  1  0
 20 21  1  0
 21 22  2  0
 21 23  1  0
 23 24  1  0
 24 25  1  0
 24 26  1  0
 24 27  1  0
 20 28  1  0
 28 29  2  0
 29 11  1  0
 28 14  1  0
  1 30  1  0
  1 31  1  0
  1 32  1  0
  3 33  1  0
  3 34  1  0
  8 35  1  0
  8 36  1  0
  8 37  1  0
  9 38  1  0
  9 39  1  0
  9 40  1  0
 10 41  1  0
 10 42  1  0
 10 43  1  0
 12 44  1  0
 13 45  1  0
 15 46  1  0
 18 47  1  0
 25 48  1  0
 25 49  1  0
 25 50  1  0
 26 51  1  0
 26 52  1  0
 26 53  1  0
 27 54  1  0
 27 55  1  0
 27 56  1  0
 29 57  1  0
M  CHG  1  18  -1
M  END
>  <UniqueID>  (92) 
89

>  <SMILES>  (92) 
CN(CC(=O)OC(C)(C)C)c1ccc2cc(C([NH-])=O)n(C(=O)OC(C)(C)C)c2c1

>  <Energy>  (92) 
86.0529797369592

>  <Genealogy>  (92) 
CN(CC(=O)OC(C)(C)C)c1ccc2cc(C([NH-])=O)n(C(=O)OC(C)(C)C)c2c1 (protonated)
CN(CC(=O)OC(C)(C)C)c1ccc2cc(C([NH-])=O)n(C(=O)OC(C)(C)C)c2c1 (3D coordinates assigned)
CN(CC(=O)OC(C)(C)C)c1ccc2cc(C([NH-])=O)n(C(=O)OC(C)(C)C)c2c1 (optimized conformer: 86.0529797369592 kcal/mol)

>  <smiles>  (92) 
CN(CC(=O)OC(C)(C)C)c1ccc2cc(C(N)=O)n(C(=O)OC(C)(C)C)c2c1

>  <score_type>  (92) 
oracle

>  <origin>  (92) 
adg

>  <m_score__min__energy>  (92) 
-10.41

>  <m_primary>  (92) 
energy

$$$$
92:0
     RDKit          3D

 35 36  0  0  0  0  0  0  0  0999 V2000
   -5.7580   18.3050  -34.5040 C   0  0  0  0  0  0  0  0  0  0  0  0
   -6.5930   18.4770  -33.3070 N   0  0  0  0  0  0  0  0  0  0  0  0
   -7.2300   17.2970  -32.7110 C   0  0  0  0  0  0  0  0  0  0  0  0
   -6.7820   19.7930  -32.7240 C   0  0  0  0  0  0  0  0  0  0  0  0
   -8.0910   20.2890  -32.4560 C   0  0  0  0  0  0  0  0  0  0  0  0
   -8.2830   21.5640  -31.8990 C   0  0  0  0  0  0  0  0  0  0  0  0
   -7.1590   22.3270  -31.6080 C   0  0  0  0  0  0  0  0  0  0  0  0
   -7.0620   23.5960  -31.0880 C   0  0  0  0  0  0  0  0  0  0  0  0
   -5.6960   23.8630  -31.0160 C   0  0  0  0  0  0  0  0  0  0  0  0
   -5.1410   25.0980  -30.4250 C   0  0  0  0  0  0  0  0  0  0  0  0
   -3.8700   25.5990  -30.8310 N   0  0  0  0  0  0  0  0  0  0  0  0
   -5.7750   25.6940  -29.5130 O   0  0  0  0  0  0  0  0  0  0  0  0
   -4.9780   22.8020  -31.4830 N   0  0  0  0  0  0  0  0  0  0  0  0
   -3.5550   22.7030  -31.6470 C   0  0  0  0  0  0  0  0  0  0  0  0
   -3.0810   22.1550  -32.6800 O   0  0  0  0  0  0  0  0  0  0  0  0
   -2.7090   23.1910  -30.6420 O   0  0  0  0  0  0  0  0  0  0  0  0
   -2.9460   23.0840  -29.2650 C   0  0  0  0  0  0  0  0  0  0  0  0
   -3.0280   24.1090  -28.5360 O   0  0  0  0  0  0  0  0  0  0  0  0
   -3.0360   21.7280  -28.6440 C   0  0  0  0  0  0  0  0  0  0  0  0
   -3.9100   21.7730  -27.5730 F   0  0  0  0  0  0  0  0  0  0  0  0
   -1.7900   21.3290  -28.1980 F   0  0  0  0  0  0  0  0  0  0  0  0
   -3.4970   20.8110  -29.5720 F   0  0  0  0  0  0  0  0  0  0  0  0
   -5.8890   21.8690  -31.8370 C   0  0  0  0  0  0  0  0  0  0  0  0
   -5.6660   20.6120  -32.4110 C   0  0  0  0  0  0  0  0  0  0  0  0
   -4.7223   18.0917  -34.2010 H   0  0  0  0  0  0  0  0  0  0  0  0
   -6.1445   17.4676  -35.1035 H   0  0  0  0  0  0  0  0  0  0  0  0
   -5.7821   19.2270  -35.1035 H   0  0  0  0  0  0  0  0  0  0  0  0
   -7.1891   17.3728  -31.6144 H   0  0  0  0  0  0  0  0  0  0  0  0
   -8.2796   17.2435  -33.0359 H   0  0  0  0  0  0  0  0  0  0  0  0
   -6.6989   16.3902  -33.0359 H   0  0  0  0  0  0  0  0  0  0  0  0
   -8.9650   19.6631  -32.6892 H   0  0  0  0  0  0  0  0  0  0  0  0
   -9.2944   21.9475  -31.6989 H   0  0  0  0  0  0  0  0  0  0  0  0
   -7.8875   24.2598  -30.7916 H   0  0  0  0  0  0  0  0  0  0  0  0
   -2.9940   25.2910  -30.3550 H   0  0  0  0  0  0  0  0  0  0  0  0
   -4.6426   20.2647  -32.6161 H   0  0  0  0  0  0  0  0  0  0  0  0
  1  2  1  0
  2  3  1  0
  2  4  1  0
  4  5  2  0
  5  6  1  0
  6  7  2  0
  7  8  1  0
  8  9  2  0
  9 10  1  0
 10 11  1  0
 10 12  2  0
  9 13  1  0
 13 14  1  0
 14 15  2  0
 14 16  1  0
 16 17  1  0
 17 18  2  0
 17 19  1  0
 19 20  1  0
 19 21  1  0
 19 22  1  0
 13 23  1  0
 23 24  2  0
 24  4  1  0
 23  7  1  0
  1 25  1  0
  1 26  1  0
  1 27  1  0
  3 28  1  0
  3 29  1  0
  3 30  1  0
  5 31  1  0
  6 32  1  0
  8 33  1  0
 11 34  1  0
 24 35  1  0
M  CHG  1  11  -1
M  END
>  <UniqueID>  (93) 
90

>  <SMILES>  (93) 
CN(C)c1ccc2cc(C([NH-])=O)n(C(=O)OC(=O)C(F)(F)F)c2c1

>  <Energy>  (93) 
75.31278196450685

>  <Genealogy>  (93) 
CN(C)c1ccc2cc(C([NH-])=O)n(C(=O)OC(=O)C(F)(F)F)c2c1 (protonated)
CN(C)c1ccc2cc(C([NH-])=O)n(C(=O)OC(=O)C(F)(F)F)c2c1 (3D coordinates assigned)
CN(C)c1ccc2cc(C([NH-])=O)n(C(=O)OC(=O)C(F)(F)F)c2c1 (optimized conformer: 75.31278196450685 kcal/mol)

>  <smiles>  (93) 
CN(C)c1ccc2cc(C(N)=O)n(C(=O)OC(=O)C(F)(F)F)c2c1

>  <score_type>  (93) 
oracle

>  <origin>  (93) 
adg

>  <m_score__min__energy>  (93) 
-9.0999999999999996

>  <m_primary>  (93) 
energy

$$$$
93:0
     RDKit          3D

 40 41  0  0  0  0  0  0  0  0999 V2000
   -5.3980   17.5020  -34.8010 C   0  0  0  0  0  0  0  0  0  0  0  0
   -6.1230   16.5820  -34.0150 O   0  0  0  0  0  0  0  0  0  0  0  0
   -5.5470   16.4690  -32.7270 C   0  0  0  0  0  0  0  0  0  0  0  0
   -6.1600   17.4840  -31.7560 C   0  0  0  0  0  0  0  0  0  0  0  0
   -7.1440   18.3320  -32.4340 N   0  0  0  0  0  0  0  0  0  0  0  0
   -7.3880   19.7210  -32.1340 C   0  0  0  0  0  0  0  0  0  0  0  0
   -8.6820   20.2990  -32.2470 C   0  0  0  0  0  0  0  0  0  0  0  0
   -8.8880   21.6590  -31.9600 C   0  0  0  0  0  0  0  0  0  0  0  0
   -7.7920   22.4190  -31.5670 C   0  0  0  0  0  0  0  0  0  0  0  0
   -7.7040   23.7550  -31.2520 C   0  0  0  0  0  0  0  0  0  0  0  0
   -6.3640   23.9760  -30.9450 C   0  0  0  0  0  0  0  0  0  0  0  0
   -5.8350   25.2730  -30.4750 C   0  0  0  0  0  0  0  0  0  0  0  0
   -4.5160   25.6930  -30.8100 N   0  0  0  0  0  0  0  0  0  0  0  0
   -6.5450   26.0040  -29.7330 O   0  0  0  0  0  0  0  0  0  0  0  0
   -5.6490   22.8220  -31.0780 N   0  0  0  0  0  0  0  0  0  0  0  0
   -4.2330   22.6330  -30.9160 C   0  0  0  0  0  0  0  0  0  0  0  0
   -3.5670   22.1380  -31.8660 O   0  0  0  0  0  0  0  0  0  0  0  0
   -3.5690   23.0030  -29.6910 N   0  0  0  0  0  0  0  0  0  0  0  0
   -4.0410   22.4390  -28.4230 C   0  0  0  0  0  0  0  0  0  0  0  0
   -2.3460   23.7630  -29.7170 C   0  0  0  0  0  0  0  0  0  0  0  0
   -1.2640   23.2190  -30.0680 O   0  0  0  0  0  0  0  0  0  0  0  0
   -2.3400   25.1120  -29.3830 O   0  0  0  0  0  0  0  0  0  0  0  0
   -6.5390   21.8780  -31.4510 C   0  0  0  0  0  0  0  0  0  0  0  0
   -6.2990   20.5320  -31.7430 C   0  0  0  0  0  0  0  0  0  0  0  0
   -4.8519   18.1950  -34.1441 H   0  0  0  0  0  0  0  0  0  0  0  0
   -4.6830   16.9583  -35.4359 H   0  0  0  0  0  0  0  0  0  0  0  0
   -6.0938   18.0701  -35.4359 H   0  0  0  0  0  0  0  0  0  0  0  0
   -5.7228   15.4533  -32.3429 H   0  0  0  0  0  0  0  0  0  0  0  0
   -4.4688   16.6711  -32.8081 H   0  0  0  0  0  0  0  0  0  0  0  0
   -6.6554   16.9434  -30.9360 H   0  0  0  0  0  0  0  0  0  0  0  0
   -5.3557   18.1246  -31.3651 H   0  0  0  0  0  0  0  0  0  0  0  0
   -7.6700   17.8990  -33.2270 H   0  0  0  0  0  0  0  0  0  0  0  0
   -9.5310   19.6748  -32.5625 H   0  0  0  0  0  0  0  0  0  0  0  0
   -9.8880   22.1096  -32.0439 H   0  0  0  0  0  0  0  0  0  0  0  0
   -8.5198   24.4929  -31.2443 H   0  0  0  0  0  0  0  0  0  0  0  0
   -3.8620   26.0500  -30.0770 H   0  0  0  0  0  0  0  0  0  0  0  0
   -3.5833   22.9859  -27.5855 H   0  0  0  0  0  0  0  0  0  0  0  0
   -5.1357   22.5303  -28.3660 H   0  0  0  0  0  0  0  0  0  0  0  0
   -3.7582   21.3775  -28.3660 H   0  0  0  0  0  0  0  0  0  0  0  0
   -5.2844   20.1134  -31.6699 H   0  0  0  0  0  0  0  0  0  0  0  0
  1  2  1  0
  2  3  1  0
  3  4  1  0
  4  5  1  0
  5  6  1  0
  6  7  2  0
  7  8  1  0
  8  9  2  0
  9 10  1  0
 10 11  2  0
 11 12  1  0
 12 13  1  0
 12 14  2  0
 11 15  1  0
 15 16  1  0
 16 17  2  0
 16 18  1  0
 18 19  1  0
 18 20  1  0
 20 21  2  0
 20 22  1  0
 15 23  1  0
 23 24  2  0
 24  6  1  0
 23  9  1  0
  1 25  1  0
  1 26  1  0
  1 27  1  0
  3 28  1  0
  3 29  1  0
  4 30  1  0
  4 31  1  0
  5 32  1  0
  7 33  1  0
  8 34  1  0
 10 35  1  0
 13 36  1  0
 19 37  1  0
 19 38  1  0
 19 39  1  0
 24 40  1  0
M  CHG  2  13  -1  22  -1
M  END
>  <UniqueID>  (94) 
91

>  <SMILES>  (94) 
COCCNc1ccc2cc(C([NH-])=O)n(C(=O)N(C)C(=O)[O-])c2c1

>  <Energy>  (94) 
81.83195639511139

>  <Genealogy>  (94) 
COCCNc1ccc2cc(C([NH-])=O)n(C(=O)N(C)C(=O)[O-])c2c1 (protonated)
COCCNc1ccc2cc(C([NH-])=O)n(C(=O)N(C)C(=O)[O-])c2c1 (3D coordinates assigned)
COCCNc1ccc2cc(C([NH-])=O)n(C(=O)N(C)C(=O)[O-])c2c1 (optimized conformer: 81.83195639511139 kcal/mol)

>  <smiles>  (94) 
COCCNc1ccc2cc(C(N)=O)n(C(=O)N(C)C(=O)O)c2c1

>  <score_type>  (94) 
oracle

>  <origin>  (94) 
adg

>  <m_score__min__energy>  (94) 
-10.76

>  <m_primary>  (94) 
energy

$$$$
94:0
     RDKit          3D

 43 44  0  0  0  0  0  0  0  0999 V2000
   -6.3360   23.6840  -32.2140 C   0  0  0  0  0  0  0  0  0  0  0  0
   -7.0940   23.6930  -30.9580 N   0  0  0  0  0  0  0  0  0  0  0  0
   -6.9500   24.8160  -30.0270 C   0  0  0  0  0  0  0  0  0  0  0  0
   -7.8880   22.5530  -30.5590 C   0  0  0  0  0  0  0  0  0  0  0  0
   -8.1260   22.3650  -29.3340 O   0  0  0  0  0  0  0  0  0  0  0  0
   -8.4380   21.5920  -31.5400 C   0  0  0  0  0  0  0  0  0  0  0  0
   -9.1100   22.0110  -32.5210 O   0  0  0  0  0  0  0  0  0  0  0  0
   -8.2320   20.1810  -31.3640 N   0  0  0  0  0  0  0  0  0  0  0  0
   -8.6040   19.1960  -32.3820 C   0  0  0  0  0  0  0  0  0  0  0  0
   -7.3610   18.6400  -33.0840 C   0  0  0  0  0  0  0  0  0  0  0  0
   -6.1390   19.2650  -32.5640 C   0  0  0  0  0  0  0  0  0  0  0  0
   -5.1510   19.7840  -32.1110 C   0  0  0  0  0  0  0  0  0  0  0  0
   -3.9580   20.4070  -31.6030 C   0  0  0  0  0  0  0  0  0  0  0  0
   -2.7060   19.7730  -31.7810 C   0  0  0  0  0  0  0  0  0  0  0  0
   -1.5260   20.3920  -31.3370 C   0  0  0  0  0  0  0  0  0  0  0  0
   -1.6360   21.6340  -30.7150 C   0  0  0  0  0  0  0  0  0  0  0  0
   -0.6570   22.4630  -30.2200 C   0  0  0  0  0  0  0  0  0  0  0  0
   -1.3320   23.5790  -29.7280 C   0  0  0  0  0  0  0  0  0  0  0  0
   -0.6580   24.6910  -29.0250 C   0  0  0  0  0  0  0  0  0  0  0  0
   -1.2810   25.9720  -28.9630 N   0  0  0  0  0  0  0  0  0  0  0  0
    0.4800   24.5340  -28.5090 O   0  0  0  0  0  0  0  0  0  0  0  0
   -2.6760   23.4480  -29.9190 N   0  0  0  0  0  0  0  0  0  0  0  0
   -3.7070   24.4020  -29.6160 C   0  0  0  0  0  0  0  0  0  0  0  0
   -4.4460   24.2460  -28.6070 O   0  0  0  0  0  0  0  0  0  0  0  0
   -3.8840   25.5220  -30.4190 O   0  0  0  0  0  0  0  0  0  0  0  0
   -2.8460   22.2500  -30.5220 C   0  0  0  0  0  0  0  0  0  0  0  0
   -4.0360   21.6640  -30.9720 C   0  0  0  0  0  0  0  0  0  0  0  0
   -5.2587   23.6712  -31.9920 H   0  0  0  0  0  0  0  0  0  0  0  0
   -6.6011   22.7889  -32.7959 H   0  0  0  0  0  0  0  0  0  0  0  0
   -6.5798   24.5851  -32.7959 H   0  0  0  0  0  0  0  0  0  0  0  0
   -6.9978   24.4436  -28.9931 H   0  0  0  0  0  0  0  0  0  0  0  0
   -5.9812   25.3094  -30.1946 H   0  0  0  0  0  0  0  0  0  0  0  0
   -7.7629   25.5378  -30.1946 H   0  0  0  0  0  0  0  0  0  0  0  0
   -7.6700   19.8460  -30.5490 H   0  0  0  0  0  0  0  0  0  0  0  0
   -9.1467   18.3686  -31.9014 H   0  0  0  0  0  0  0  0  0  0  0  0
   -9.2406   19.6885  -33.1318 H   0  0  0  0  0  0  0  0  0  0  0  0
   -7.3089   17.5541  -32.9165 H   0  0  0  0  0  0  0  0  0  0  0  0
   -7.4374   18.8611  -34.1588 H   0  0  0  0  0  0  0  0  0  0  0  0
   -2.6563   18.7890  -32.2702 H   0  0  0  0  0  0  0  0  0  0  0  0
   -0.5462   19.9116  -31.4759 H   0  0  0  0  0  0  0  0  0  0  0  0
    0.4283   22.2836  -30.2136 H   0  0  0  0  0  0  0  0  0  0  0  0
   -2.3210   26.0630  -28.9450 H   0  0  0  0  0  0  0  0  0  0  0  0
   -5.0030   22.1705  -30.8366 H   0  0  0  0  0  0  0  0  0  0  0  0
  1  2  1  0
  2  3  1  0
  2  4  1  0
  4  5  2  0
  4  6  1  0
  6  7  2  0
  6  8  1  0
  8  9  1  0
  9 10  1  0
 10 11  1  0
 11 12  3  0
 12 13  1  0
 13 14  2  0
 14 15  1  0
 15 16  2  0
 16 17  1  0
 17 18  2  0
 18 19  1  0
 19 20  1  0
 19 21  2  0
 18 22  1  0
 22 23  1  0
 23 24  2  0
 23 25  1  0
 22 26  1  0
 26 27  2  0
 27 13  1  0
 26 16  1  0
  1 28  1  0
  1 29  1  0
  1 30  1  0
  3 31  1  0
  3 32  1  0
  3 33  1  0
  8 34  1  0
  9 35  1  0
  9 36  1  0
 10 37  1  0
 10 38  1  0
 14 39  1  0
 15 40  1  0
 17 41  1  0
 20 42  1  0
 27 43  1  0
M  CHG  2  20  -1  25  -1
M  END
>  <UniqueID>  (95) 
92

>  <SMILES>  (95) 
CN(C)C(=O)C(=O)NCCC#Cc1ccc2cc(C([NH-])=O)n(C(=O)[O-])c2c1

>  <Energy>  (95) 
72.41536413239854

>  <Genealogy>  (95) 
CN(C)C(=O)C(=O)NCCC#Cc1ccc2cc(C([NH-])=O)n(C(=O)[O-])c2c1 (protonated)
CN(C)C(=O)C(=O)NCCC#Cc1ccc2cc(C([NH-])=O)n(C(=O)[O-])c2c1 (3D coordinates assigned)
CN(C)C(=O)C(=O)NCCC#Cc1ccc2cc(C([NH-])=O)n(C(=O)[O-])c2c1 (optimized conformer: 72.41536413239854 kcal/mol)

>  <smiles>  (95) 
CN(C)C(=O)C(=O)NCCC#Cc1ccc2cc(C(N)=O)n(C(=O)O)c2c1

>  <score_type>  (95) 
oracle

>  <origin>  (95) 
adg

>  <m_score__min__energy>  (95) 
-12.470000000000001

>  <m_primary>  (95) 
energy

$$$$
95:0
     RDKit          3D

 33 35  0  0  0  0  0  0  0  0999 V2000
   -5.7650   18.6030  -34.7840 C   0  0  0  0  0  0  0  0  0  0  0  0
   -6.6840   18.4280  -33.5700 C   0  0  2  0  0  0  0  0  0  0  0  0
   -6.9300   19.7540  -32.8820 C   0  0  0  0  0  0  0  0  0  0  0  0
   -8.2570   20.1790  -32.6210 C   0  0  0  0  0  0  0  0  0  0  0  0
   -8.5050   21.4010  -31.9780 C   0  0  0  0  0  0  0  0  0  0  0  0
   -7.4130   22.1840  -31.6170 C   0  0  0  0  0  0  0  0  0  0  0  0
   -7.3760   23.3940  -30.9660 C   0  0  0  0  0  0  0  0  0  0  0  0
   -6.0240   23.7130  -30.8550 C   0  0  0  0  0  0  0  0  0  0  0  0
   -5.5200   24.9740  -30.2650 C   0  0  0  0  0  0  0  0  0  0  0  0
   -6.0720   25.4830  -29.0490 N   0  0  0  0  0  0  0  0  0  0  0  0
   -4.6170   25.6300  -30.8470 O   0  0  0  0  0  0  0  0  0  0  0  0
   -5.2540   22.7380  -31.4190 N   0  0  0  0  0  0  0  0  0  0  0  0
   -3.8160   22.6890  -31.4450 C   0  0  0  0  0  0  0  0  0  0  0  0
   -3.1240   23.5780  -30.8840 O   0  0  0  0  0  0  0  0  0  0  0  0
   -6.1220   21.8050  -31.8780 C   0  0  0  0  0  0  0  0  0  0  0  0
   -5.8460   20.5810  -32.5030 C   0  0  0  0  0  0  0  0  0  0  0  0
   -6.1330   17.4570  -32.6210 N   0  0  0  0  0  0  0  0  0  0  0  0
   -6.3460   17.4310  -31.3160 N   0  0  0  0  0  0  0  0  0  0  0  0
   -5.7550   16.3570  -30.8100 N   0  0  0  0  0  0  0  0  0  0  0  0
   -5.1630   15.6650  -31.7750 N   0  0  0  0  0  0  0  0  0  0  0  0
   -5.4130   16.3600  -32.8980 C   0  0  0  0  0  0  0  0  0  0  0  0
   -5.0130   15.9860  -34.1390 F   0  0  0  0  0  0  0  0  0  0  0  0
   -4.7382   18.7985  -34.4414 H   0  0  0  0  0  0  0  0  0  0  0  0
   -5.7806   17.6857  -35.3910 H   0  0  0  0  0  0  0  0  0  0  0  0
   -6.1166   19.4503  -35.3910 H   0  0  0  0  0  0  0  0  0  0  0  0
   -7.6460   18.0407  -33.9367 H   0  0  0  0  0  0  0  0  0  0  0  0
   -9.1016   19.5436  -32.9260 H   0  0  0  0  0  0  0  0  0  0  0  0
   -9.5328   21.7305  -31.7655 H   0  0  0  0  0  0  0  0  0  0  0  0
   -8.2320   23.9851  -30.6085 H   0  0  0  0  0  0  0  0  0  0  0  0
   -5.7370   26.3940  -28.6640 H   0  0  0  0  0  0  0  0  0  0  0  0
   -6.7790   24.9420  -28.5050 H   0  0  0  0  0  0  0  0  0  0  0  0
   -3.3129   21.8600  -31.9643 H   0  0  0  0  0  0  0  0  0  0  0  0
   -4.8085   20.2698  -32.6948 H   0  0  0  0  0  0  0  0  0  0  0  0
  1  2  1  0
  2  3  1  0
  3  4  2  0
  4  5  1  0
  5  6  2  0
  6  7  1  0
  7  8  2  0
  8  9  1  0
  9 10  1  0
  9 11  2  0
  8 12  1  0
 12 13  1  0
 13 14  2  0
 12 15  1  0
 15 16  2  0
  2 17  1  0
 17 18  1  0
 18 19  2  0
 19 20  1  0
 20 21  2  0
 21 22  1  0
 16  3  1  0
 21 17  1  0
 15  6  1  0
  1 23  1  0
  1 24  1  0
  1 25  1  0
  2 26  1  6
  4 27  1  0
  5 28  1  0
  7 29  1  0
 10 30  1  0
 10 31  1  0
 13 32  1  0
 16 33  1  0
M  END
>  <UniqueID>  (96) 
93

>  <SMILES>  (96) 
C[C@H](c1ccc2cc(C(N)=O)n(C=O)c2c1)n1nnnc1F

>  <Energy>  (96) 
111.72990292091704

>  <Genealogy>  (96) 
C[C@H](c1ccc2cc(C(N)=O)n(C=O)c2c1)n1nnnc1F (chirality)
C[C@H](c1ccc2cc(C(N)=O)n(C=O)c2c1)n1nnnc1F (3D coordinates assigned)
C[C@H](c1ccc2cc(C(N)=O)n(C=O)c2c1)n1nnnc1F (optimized conformer: 111.72990292091704 kcal/mol)

>  <smiles>  (96) 
CC(c1ccc2cc(C(N)=O)n(C=O)c2c1)n1nnnc1F

>  <score_type>  (96) 
oracle

>  <origin>  (96) 
adg

>  <m_score__min__energy>  (96) 
-9.1899999999999995

>  <m_primary>  (96) 
energy

$$$$
96:0
     RDKit          3D

 51 52  0  0  0  0  0  0  0  0999 V2000
   -5.3680   17.9120  -34.9790 C   0  0  0  0  0  0  0  0  0  0  0  0
   -5.3580   18.4760  -33.6210 N   0  0  0  0  0  0  0  0  0  0  0  0
   -4.1270   19.2440  -33.3690 C   0  0  0  0  0  0  0  0  0  0  0  0
   -5.6460   17.4740  -32.5670 C   0  0  0  0  0  0  0  0  0  0  0  0
   -6.8250   17.8370  -31.6300 C   0  0  0  0  0  0  0  0  0  0  0  0
   -7.9190   18.6350  -32.3530 C   0  0  0  0  0  0  0  0  0  0  0  0
   -7.8740   20.0850  -31.9500 C   0  0  0  0  0  0  0  0  0  0  0  0
   -9.0550   20.8670  -31.9330 C   0  0  0  0  0  0  0  0  0  0  0  0
   -9.0040   22.2290  -31.5900 C   0  0  0  0  0  0  0  0  0  0  0  0
   -7.7640   22.7780  -31.2740 C   0  0  0  0  0  0  0  0  0  0  0  0
   -7.4230   24.0700  -30.9420 C   0  0  0  0  0  0  0  0  0  0  0  0
   -6.0410   24.0530  -30.7590 C   0  0  0  0  0  0  0  0  0  0  0  0
   -5.2640   25.2280  -30.3120 C   0  0  0  0  0  0  0  0  0  0  0  0
   -3.8670   25.3010  -30.5870 N   0  0  0  0  0  0  0  0  0  0  0  0
   -5.8280   26.1870  -29.7210 O   0  0  0  0  0  0  0  0  0  0  0  0
   -5.5450   22.8010  -30.9760 N   0  0  0  0  0  0  0  0  0  0  0  0
   -4.1730   22.3750  -30.9780 C   0  0  0  0  0  0  0  0  0  0  0  0
   -3.4290   22.6660  -31.9520 O   0  0  0  0  0  0  0  0  0  0  0  0
   -3.6930   21.6030  -29.9090 O   0  0  0  0  0  0  0  0  0  0  0  0
   -3.0780   22.0960  -28.7110 C   0  0  0  0  0  0  0  0  0  0  0  0
   -2.6620   20.9260  -27.7980 C   0  0  0  0  0  0  0  0  0  0  0  0
   -1.8650   22.9830  -29.0470 C   0  0  0  0  0  0  0  0  0  0  0  0
   -4.1290   22.9440  -27.9790 C   0  0  0  0  0  0  0  0  0  0  0  0
   -6.6130   22.0330  -31.2840 C   0  0  0  0  0  0  0  0  0  0  0  0
   -6.6340   20.6790  -31.6360 C   0  0  0  0  0  0  0  0  0  0  0  0
   -5.3875   16.8138  -34.9198 H   0  0  0  0  0  0  0  0  0  0  0  0
   -6.2600   18.2661  -35.5165 H   0  0  0  0  0  0  0  0  0  0  0  0
   -4.4640   18.2342  -35.5165 H   0  0  0  0  0  0  0  0  0  0  0  0
   -3.9711   19.3413  -32.2845 H   0  0  0  0  0  0  0  0  0  0  0  0
   -3.2698   18.7202  -33.8172 H   0  0  0  0  0  0  0  0  0  0  0  0
   -4.2206   20.2442  -33.8172 H   0  0  0  0  0  0  0  0  0  0  0  0
   -5.8812   16.5184  -33.0585 H   0  0  0  0  0  0  0  0  0  0  0  0
   -4.7492   17.4263  -31.9319 H   0  0  0  0  0  0  0  0  0  0  0  0
   -7.2649   16.9078  -31.2387 H   0  0  0  0  0  0  0  0  0  0  0  0
   -6.4292   18.4665  -30.8193 H   0  0  0  0  0  0  0  0  0  0  0  0
   -7.7646   18.5571  -33.4393 H   0  0  0  0  0  0  0  0  0  0  0  0
   -8.9000   18.2212  -32.0764 H   0  0  0  0  0  0  0  0  0  0  0  0
  -10.0194   20.4047  -32.1902 H   0  0  0  0  0  0  0  0  0  0  0  0
   -9.9165   22.8430  -31.5717 H   0  0  0  0  0  0  0  0  0  0  0  0
   -8.0980   24.9328  -30.8423 H   0  0  0  0  0  0  0  0  0  0  0  0
   -3.4830   26.0330  -31.2250 H   0  0  0  0  0  0  0  0  0  0  0  0
   -2.7688   21.2265  -26.7452 H   0  0  0  0  0  0  0  0  0  0  0  0
   -3.3064   20.0574  -27.9986 H   0  0  0  0  0  0  0  0  0  0  0  0
   -1.6139   20.6591  -27.9986 H   0  0  0  0  0  0  0  0  0  0  0  0
   -1.3935   23.3278  -28.1149 H   0  0  0  0  0  0  0  0  0  0  0  0
   -1.1373   22.4024  -29.6331 H   0  0  0  0  0  0  0  0  0  0  0  0
   -2.1976   23.8524  -29.6331 H   0  0  0  0  0  0  0  0  0  0  0  0
   -3.9952   22.8361  -26.8925 H   0  0  0  0  0  0  0  0  0  0  0  0
   -4.0082   24.0006  -28.2601 H   0  0  0  0  0  0  0  0  0  0  0  0
   -5.1362   22.6026  -28.2601 H   0  0  0  0  0  0  0  0  0  0  0  0
   -5.7047   20.0913  -31.6671 H   0  0  0  0  0  0  0  0  0  0  0  0
  1  2  1  0
  2  3  1  0
  2  4  1  0
  4  5  1  0
  5  6  1  0
  6  7  1  0
  7  8  2  0
  8  9  1  0
  9 10  2  0
 10 11  1  0
 11 12  2  0
 12 13  1  0
 13 14  1  0
 13 15  2  0
 12 16  1  0
 16 17  1  0
 17 18  2  0
 17 19  1  0
 19 20  1  0
 20 21  1  0
 20 22  1  0
 20 23  1  0
 16 24  1  0
 24 25  2  0
 25  7  1  0
 24 10  1  0
  1 26  1  0
  1 27  1  0
  1 28  1  0
  3 29  1  0
  3 30  1  0
  3 31  1  0
  4 32  1  0
  4 33  1  0
  5 34  1  0
  5 35  1  0
  6 36  1  0
  6 37  1  0
  8 38  1  0
  9 39  1  0
 11 40  1  0
 14 41  1  0
 21 42  1  0
 21 43  1  0
 21 44  1  0
 22 45  1  0
 22 46  1  0
 22 47  1  0
 23 48  1  0
 23 49  1  0
 23 50  1  0
 25 51  1  0
M  CHG  1  14  -1
M  END
>  <UniqueID>  (97) 
94

>  <SMILES>  (97) 
CN(C)CCCc1ccc2cc(C([NH-])=O)n(C(=O)OC(C)(C)C)c2c1

>  <Energy>  (97) 
84.68732918330238

>  <Genealogy>  (97) 
CN(C)CCCc1ccc2cc(C([NH-])=O)n(C(=O)OC(C)(C)C)c2c1 (protonated)
CN(C)CCCc1ccc2cc(C([NH-])=O)n(C(=O)OC(C)(C)C)c2c1 (3D coordinates assigned)
CN(C)CCCc1ccc2cc(C([NH-])=O)n(C(=O)OC(C)(C)C)c2c1 (optimized conformer: 84.68732918330238 kcal/mol)

>  <smiles>  (97) 
CN(C)CCCc1ccc2cc(C(N)=O)n(C(=O)OC(C)(C)C)c2c1

>  <score_type>  (97) 
oracle

>  <origin>  (97) 
adg

>  <m_score__min__energy>  (97) 
-10.890000000000001

>  <m_primary>  (97) 
energy

$$$$
97:0
     RDKit          3D

 50 52  0  0  0  0  0  0  0  0999 V2000
   -2.6700   19.0720  -33.1620 C   0  0  0  0  0  0  0  0  0  0  0  0
   -3.6100   19.3390  -34.1810 O   0  0  0  0  0  0  0  0  0  0  0  0
   -4.2390   18.1410  -34.5970 C   0  0  0  0  0  0  0  0  0  0  0  0
   -5.7360   18.3890  -34.8520 C   0  0  0  0  0  0  0  0  0  0  0  0
   -6.4940   18.4560  -33.5860 N   0  0  0  0  0  0  0  0  0  0  0  0
   -6.7660   19.7600  -32.9860 C   0  0  0  0  0  0  0  0  0  0  0  0
   -8.0990   20.2610  -32.8980 C   0  0  0  0  0  0  0  0  0  0  0  0
   -8.3700   21.5170  -32.3330 C   0  0  0  0  0  0  0  0  0  0  0  0
   -7.3050   22.2570  -31.8410 C   0  0  0  0  0  0  0  0  0  0  0  0
   -7.2880   23.5100  -31.2730 C   0  0  0  0  0  0  0  0  0  0  0  0
   -5.9510   23.7580  -30.9730 C   0  0  0  0  0  0  0  0  0  0  0  0
   -5.4850   24.9810  -30.2920 C   0  0  0  0  0  0  0  0  0  0  0  0
   -4.1650   25.4880  -30.4990 N   0  0  0  0  0  0  0  0  0  0  0  0
   -6.2460   25.5610  -29.4730 O   0  0  0  0  0  0  0  0  0  0  0  0
   -5.1710   22.7060  -31.3510 N   0  0  0  0  0  0  0  0  0  0  0  0
   -3.7360   22.6350  -31.3160 C   0  0  0  0  0  0  0  0  0  0  0  0
   -3.0960   22.2390  -32.3280 O   0  0  0  0  0  0  0  0  0  0  0  0
   -3.0530   23.0030  -30.1520 O   0  0  0  0  0  0  0  0  0  0  0  0
   -1.6340   23.0630  -30.0790 C   0  0  0  0  0  0  0  0  0  0  0  0
   -1.2330   24.3050  -29.3570 C   0  0  0  0  0  0  0  0  0  0  0  0
   -2.0010   25.3030  -29.3420 O   0  0  0  0  0  0  0  0  0  0  0  0
    0.0110   24.3820  -28.7430 O   0  0  0  0  0  0  0  0  0  0  0  0
   -6.0180   21.7930  -31.8810 C   0  0  0  0  0  0  0  0  0  0  0  0
   -5.7130   20.5570  -32.4590 C   0  0  0  0  0  0  0  0  0  0  0  0
   -6.7890   17.2330  -32.7930 C   0  0  0  0  0  0  0  0  0  0  0  0
   -6.0880   17.2450  -31.4360 C   0  0  0  0  0  0  0  0  0  0  0  0
   -5.3480   15.9660  -31.8020 C   0  0  0  0  0  0  0  0  0  0  0  0
   -6.0400   15.9440  -33.1580 C   0  0  0  0  0  0  0  0  0  0  0  0
   -3.1459   19.2072  -32.1795 H   0  0  0  0  0  0  0  0  0  0  0  0
   -2.3113   18.0364  -33.2563 H   0  0  0  0  0  0  0  0  0  0  0  0
   -1.8204   19.7644  -33.2563 H   0  0  0  0  0  0  0  0  0  0  0  0
   -3.7663   17.7852  -35.5244 H   0  0  0  0  0  0  0  0  0  0  0  0
   -4.1297   17.3843  -33.8062 H   0  0  0  0  0  0  0  0  0  0  0  0
   -5.8545   19.3406  -35.3910 H   0  0  0  0  0  0  0  0  0  0  0  0
   -6.1293   17.5518  -35.4474 H   0  0  0  0  0  0  0  0  0  0  0  0
   -8.9307   19.6510  -33.2804 H   0  0  0  0  0  0  0  0  0  0  0  0
   -9.3985   21.9037  -32.2818 H   0  0  0  0  0  0  0  0  0  0  0  0
   -8.1467   24.1738  -31.0942 H   0  0  0  0  0  0  0  0  0  0  0  0
   -3.8710   26.3820  -30.0480 H   0  0  0  0  0  0  0  0  0  0  0  0
   -3.4560   24.9420  -31.0350 H   0  0  0  0  0  0  0  0  0  0  0  0
   -1.2558   22.1837  -29.5369 H   0  0  0  0  0  0  0  0  0  0  0  0
   -1.2114   23.0727  -31.0945 H   0  0  0  0  0  0  0  0  0  0  0  0
   -4.6717   20.2056  -32.5055 H   0  0  0  0  0  0  0  0  0  0  0  0
   -7.8832   17.2422  -32.9051 H   0  0  0  0  0  0  0  0  0  0  0  0
   -5.4315   18.1134  -31.2781 H   0  0  0  0  0  0  0  0  0  0  0  0
   -6.6758   17.3002  -30.5079 H   0  0  0  0  0  0  0  0  0  0  0  0
   -4.2555   16.0812  -31.8585 H   0  0  0  0  0  0  0  0  0  0  0  0
   -5.3976   15.0886  -31.1404 H   0  0  0  0  0  0  0  0  0  0  0  0
   -5.3563   16.0482  -34.0134 H   0  0  0  0  0  0  0  0  0  0  0  0
   -6.5928   15.0520  -33.4878 H   0  0  0  0  0  0  0  0  0  0  0  0
  1  2  1  0
  2  3  1  0
  3  4  1  0
  4  5  1  0
  5  6  1  0
  6  7  2  0
  7  8  1  0
  8  9  2  0
  9 10  1  0
 10 11  2  0
 11 12  1  0
 12 13  1  0
 12 14  2  0
 11 15  1  0
 15 16  1  0
 16 17  2  0
 16 18  1  0
 18 19  1  0
 19 20  1  0
 20 21  2  0
 20 22  1  0
 15 23  1  0
 23 24  2  0
  5 25  1  0
 25 26  1  0
 26 27  1  0
 27 28  1  0
 24  6  1  0
 28 25  1  0
 23  9  1  0
  1 29  1  0
  1 30  1  0
  1 31  1  0
  3 32  1  0
  3 33  1  0
  4 34  1  0
  4 35  1  0
  7 36  1  0
  8 37  1  0
 10 38  1  0
 13 39  1  0
 13 40  1  0
 19 41  1  0
 19 42  1  0
 24 43  1  0
 25 44  1  0
 26 45  1  0
 26 46  1  0
 27 47  1  0
 27 48  1  0
 28 49  1  0
 28 50  1  0
M  CHG  1  22  -1
M  END
>  <UniqueID>  (98) 
95

>  <SMILES>  (98) 
COCCN(c1ccc2cc(C(N)=O)n(C(=O)OCC(=O)[O-])c2c1)C1CCC1

>  <Energy>  (98) 
155.18527302191129

>  <Genealogy>  (98) 
COCCN(c1ccc2cc(C(N)=O)n(C(=O)OCC(=O)[O-])c2c1)C1CCC1 (protonated)
COCCN(c1ccc2cc(C(N)=O)n(C(=O)OCC(=O)[O-])c2c1)C1CCC1 (3D coordinates assigned)
COCCN(c1ccc2cc(C(N)=O)n(C(=O)OCC(=O)[O-])c2c1)C1CCC1 (nonaromatic ring conformer: 155.18527302191129 kcal/mol)

>  <smiles>  (98) 
COCCN(c1ccc2cc(C(N)=O)n(C(=O)OCC(=O)O)c2c1)C1CCC1

>  <score_type>  (98) 
oracle

>  <origin>  (98) 
adg

>  <m_score__min__energy>  (98) 
-11.300000000000001

>  <m_primary>  (98) 
energy

$$$$
98:0
     RDKit          3D

 32 33  0  0  0  0  0  0  0  0999 V2000
   -2.8340   24.8930  -29.7070 N   0  0  0  0  0  0  0  0  0  0  0  0
   -2.4850   23.5930  -29.1450 C   0  0  0  0  0  0  0  0  0  0  0  0
   -3.5170   22.5450  -29.5610 C   0  0  0  0  0  0  0  0  0  0  0  0
   -4.0610   22.8630  -30.9220 C   0  0  0  0  0  0  0  0  0  0  0  0
   -3.2740   22.9420  -31.9040 O   0  0  0  0  0  0  0  0  0  0  0  0
   -5.4760   22.9670  -31.1360 N   0  0  0  0  0  0  0  0  0  0  0  0
   -6.3010   23.9970  -30.8000 C   0  0  0  0  0  0  0  0  0  0  0  0
   -5.8560   25.3010  -30.2530 C   0  0  0  0  0  0  0  0  0  0  0  0
   -6.4810   25.8630  -29.0980 N   0  0  0  0  0  0  0  0  0  0  0  0
   -4.9280   25.9370  -30.8180 O   0  0  0  0  0  0  0  0  0  0  0  0
   -7.6220   23.6850  -31.1210 C   0  0  0  0  0  0  0  0  0  0  0  0
   -7.5750   22.4210  -31.6700 C   0  0  0  0  0  0  0  0  0  0  0  0
   -8.5990   21.6160  -32.1610 C   0  0  0  0  0  0  0  0  0  0  0  0
   -8.2570   20.3450  -32.6550 C   0  0  0  0  0  0  0  0  0  0  0  0
   -6.9100   19.9070  -32.6450 C   0  0  0  0  0  0  0  0  0  0  0  0
   -6.5760   18.6090  -33.1430 N   0  0  0  0  0  0  0  0  0  0  0  0
   -5.8980   20.7500  -32.1420 C   0  0  0  0  0  0  0  0  0  0  0  0
   -6.2670   22.0130  -31.6680 C   0  0  0  0  0  0  0  0  0  0  0  0
   -3.6810   25.2410  -29.2020 H   0  0  0  0  0  0  0  0  0  0  0  0
   -3.1220   24.7520  -30.7030 H   0  0  0  0  0  0  0  0  0  0  0  0
   -1.4929   23.2924  -29.5130 H   0  0  0  0  0  0  0  0  0  0  0  0
   -2.4711   23.6679  -28.0476 H   0  0  0  0  0  0  0  0  0  0  0  0
   -3.0396   21.5542  -29.5833 H   0  0  0  0  0  0  0  0  0  0  0  0
   -4.3435   22.5484  -28.8351 H   0  0  0  0  0  0  0  0  0  0  0  0
   -7.2080   25.3410  -28.5620 H   0  0  0  0  0  0  0  0  0  0  0  0
   -6.1820   26.8000  -28.7470 H   0  0  0  0  0  0  0  0  0  0  0  0
   -8.5118   24.3135  -30.9686 H   0  0  0  0  0  0  0  0  0  0  0  0
   -9.6427   21.9633  -32.1624 H   0  0  0  0  0  0  0  0  0  0  0  0
   -9.0421   19.6851  -33.0526 H   0  0  0  0  0  0  0  0  0  0  0  0
   -6.0410   17.9320  -32.5550 H   0  0  0  0  0  0  0  0  0  0  0  0
   -6.8600   18.3160  -34.1060 H   0  0  0  0  0  0  0  0  0  0  0  0
   -4.8477   20.4235  -32.1229 H   0  0  0  0  0  0  0  0  0  0  0  0
  1  2  1  0
  2  3  1  0
  3  4  1  0
  4  5  2  0
  4  6  1  0
  6  7  1  0
  7  8  1  0
  8  9  1  0
  8 10  2  0
  7 11  2  0
 11 12  1  0
 12 13  2  0
 13 14  1  0
 14 15  2  0
 15 16  1  0
 15 17  1  0
 17 18  2  0
 18  6  1  0
 18 12  1  0
  1 19  1  0
  1 20  1  0
  2 21  1  0
  2 22  1  0
  3 23  1  0
  3 24  1  0
  9 25  1  0
  9 26  1  0
 11 27  1  0
 13 28  1  0
 14 29  1  0
 16 30  1  0
 16 31  1  0
 17 32  1  0
M  END
>  <UniqueID>  (99) 
96

>  <SMILES>  (99) 
NCCC(=O)n1c(C(N)=O)cc2ccc(N)cc21

>  <Energy>  (99) 
66.19716773472825

>  <Genealogy>  (99) 
NCCC(=O)n1c(C(N)=O)cc2ccc(N)cc21 (3D coordinates assigned)
NCCC(=O)n1c(C(N)=O)cc2ccc(N)cc21 (optimized conformer: 66.19716773472825 kcal/mol)

>  <smiles>  (99) 
NCCC(=O)n1c(C(N)=O)cc2ccc(N)cc21

>  <score_type>  (99) 
oracle

>  <origin>  (99) 
adg

>  <m_score__min__energy>  (99) 
-7.0099999999999998

>  <m_primary>  (99) 
energy

$$$$
