0:0
     RDKit          3D

 49 50  0  0  0  0  0  0  0  0999 V2000
   -4.0980   24.9260  -26.4960 C   0  0  0  0  0  0  0  0  0  0  0  0
   -2.7970   24.7160  -26.9970 O   0  0  0  0  0  0  0  0  0  0  0  0
   -1.8880   25.5400  -26.3000 C   0  0  0  0  0  0  0  0  0  0  0  0
   -0.9580   26.2290  -27.2920 C   0  0  0  0  0  0  0  0  0  0  0  0
   -0.5240   25.2980  -28.2630 O   0  0  0  0  0  0  0  0  0  0  0  0
    0.4790   24.4700  -27.7070 C   0  0  0  0  0  0  0  0  0  0  0  0
    0.1380   23.0040  -27.9640 C   0  0  0  0  0  0  0  0  0  0  0  0
   -1.2730   22.8020  -27.9930 O   0  0  0  0  0  0  0  0  0  0  0  0
   -1.8760   21.5390  -28.0050 C   0  0  0  0  0  0  0  0  0  0  0  0
   -2.0460   20.8950  -26.9340 O   0  0  0  0  0  0  0  0  0  0  0  0
   -2.3440   20.9620  -29.3030 C   0  0  0  0  0  0  0  0  0  0  0  0
   -1.9390   21.8100  -30.4180 N   0  0  0  0  0  0  0  0  0  0  0  0
   -2.6800   21.9140  -31.6390 C   0  0  0  0  0  0  0  0  0  0  0  0
   -2.1150   21.6910  -32.7420 O   0  0  0  0  0  0  0  0  0  0  0  0
   -4.0780   22.2390  -31.6070 N   0  0  0  0  0  0  0  0  0  0  0  0
   -4.6810   23.3320  -31.0570 C   0  0  0  0  0  0  0  0  0  0  0  0
   -3.9770   24.5040  -30.4720 C   0  0  0  0  0  0  0  0  0  0  0  0
   -2.9730   24.3400  -29.4660 N   0  0  0  0  0  0  0  0  0  0  0  0
   -4.2820   25.6690  -30.8310 O   0  0  0  0  0  0  0  0  0  0  0  0
   -6.0670   23.2400  -31.2110 C   0  0  0  0  0  0  0  0  0  0  0  0
   -6.2860   22.0600  -31.8850 C   0  0  0  0  0  0  0  0  0  0  0  0
   -7.4760   21.4750  -32.3000 C   0  0  0  0  0  0  0  0  0  0  0  0
   -7.4050   20.2350  -32.9600 C   0  0  0  0  0  0  0  0  0  0  0  0
   -6.1550   19.6010  -33.1780 C   0  0  0  0  0  0  0  0  0  0  0  0
   -6.0970   18.2850  -33.9100 C   0  0  0  0  0  0  0  0  0  0  0  0
   -7.2000   17.5240  -33.5670 F   0  0  0  0  0  0  0  0  0  0  0  0
   -4.9490   17.5930  -33.5690 F   0  0  0  0  0  0  0  0  0  0  0  0
   -6.0950   18.4780  -35.2800 F   0  0  0  0  0  0  0  0  0  0  0  0
   -4.9670   20.2450  -32.7660 C   0  0  0  0  0  0  0  0  0  0  0  0
   -5.0700   21.4780  -32.1150 C   0  0  0  0  0  0  0  0  0  0  0  0
   -4.0725   24.9219  -25.3963 H   0  0  0  0  0  0  0  0  0  0  0  0
   -4.4751   25.8966  -26.8504 H   0  0  0  0  0  0  0  0  0  0  0  0
   -4.7614   24.1233  -26.8504 H   0  0  0  0  0  0  0  0  0  0  0  0
   -2.4444   26.2997  -25.7314 H   0  0  0  0  0  0  0  0  0  0  0  0
   -1.2934   24.9248  -25.6086 H   0  0  0  0  0  0  0  0  0  0  0  0
   -1.4959   27.0506  -27.7877 H   0  0  0  0  0  0  0  0  0  0  0  0
   -0.0853   26.6298  -26.7556 H   0  0  0  0  0  0  0  0  0  0  0  0
    1.4475   24.7069  -28.1716 H   0  0  0  0  0  0  0  0  0  0  0  0
    0.5362   24.6457  -26.6226 H   0  0  0  0  0  0  0  0  0  0  0  0
    0.5642   22.7004  -28.9316 H   0  0  0  0  0  0  0  0  0  0  0  0
    0.5605   22.3991  -27.1482 H   0  0  0  0  0  0  0  0  0  0  0  0
   -1.9061   19.9612  -29.4324 H   0  0  0  0  0  0  0  0  0  0  0  0
   -3.4420   20.8981  -29.2870 H   0  0  0  0  0  0  0  0  0  0  0  0
   -2.7090   23.4060  -29.0870 H   0  0  0  0  0  0  0  0  0  0  0  0
   -2.4900   25.1780  -29.0710 H   0  0  0  0  0  0  0  0  0  0  0  0
   -6.8240   23.9596  -30.8660 H   0  0  0  0  0  0  0  0  0  0  0  0
   -8.4433   21.9662  -32.1181 H   0  0  0  0  0  0  0  0  0  0  0  0
   -8.3287   19.7517  -33.3109 H   0  0  0  0  0  0  0  0  0  0  0  0
   -3.9844   19.7873  -32.9529 H   0  0  0  0  0  0  0  0  0  0  0  0
  1  2  1  0
  2  3  1  0
  3  4  1  0
  4  5  1  0
  5  6  1  0
  6  7  1  0
  7  8  1  0
  8  9  1  0
  9 10  2  0
  9 11  1  0
 11 12  1  0
 12 13  1  0
 13 14  2  0
 13 15  1  0
 15 16  1  0
 16 17  1  0
 17 18  1  0
 17 19  2  0
 16 20  2  0
 20 21  1  0
 21 22  2  0
 22 23  1  0
 23 24  2  0
 24 25  1  0
 25 26  1  0
 25 27  1  0
 25 28  1  0
 24 29  1  0
 29 30  2  0
 30 15  1  0
 30 21  1  0
  1 31  1  0
  1 32  1  0
  1 33  1  0
  3 34  1  0
  3 35  1  0
  4 36  1  0
  4 37  1  0
  6 38  1  0
  6 39  1  0
  7 40  1  0
  7 41  1  0
 11 42  1  0
 11 43  1  0
 18 44  1  0
 18 45  1  0
 20 46  1  0
 22 47  1  0
 23 48  1  0
 29 49  1  0
M  CHG  1  12  -1
M  END
>  <UniqueID>  (1) 
1

>  <SMILES>  (1) 
COCCOCCOC(=O)C[N-]C(=O)n1c(C(N)=O)cc2ccc(C(F)(F)F)cc21

>  <Energy>  (1) 
77.0354246011395

>  <Genealogy>  (1) 
COCCOCCOC(=O)C[N-]C(=O)n1c(C(N)=O)cc2ccc(C(F)(F)F)cc21 (protonated)
COCCOCCOC(=O)C[N-]C(=O)n1c(C(N)=O)cc2ccc(C(F)(F)F)cc21 (3D coordinates assigned)
COCCOCCOC(=O)C[N-]C(=O)n1c(C(N)=O)cc2ccc(C(F)(F)F)cc21 (optimized conformer: 77.0354246011395 kcal/mol)

>  <smiles>  (1) 
COCCOCCOC(=O)CNC(=O)n1c(C(N)=O)cc2ccc(C(F)(F)F)cc21

>  <score_type>  (1) 
oracle

>  <origin>  (1) 
adg

>  <m_score__min__energy>  (1) 
-9.2400000000000002

>  <m_primary>  (1) 
energy

$$$$
1:0
     RDKit          3D

 45 46  0  0  0  0  0  0  0  0999 V2000
   -3.8960   25.6520  -30.8380 N   0  0  0  0  0  0  0  0  0  0  0  0
   -5.2200   25.2110  -30.5480 C   0  0  0  0  0  0  0  0  0  0  0  0
   -5.9950   25.9600  -29.8960 O   0  0  0  0  0  0  0  0  0  0  0  0
   -5.6830   23.8990  -31.0450 C   0  0  0  0  0  0  0  0  0  0  0  0
   -6.9490   23.6850  -31.5850 C   0  0  0  0  0  0  0  0  0  0  0  0
   -7.0250   22.3260  -31.7990 C   0  0  0  0  0  0  0  0  0  0  0  0
   -8.0650   21.5580  -32.3130 C   0  0  0  0  0  0  0  0  0  0  0  0
   -7.8670   20.1710  -32.4230 C   0  0  0  0  0  0  0  0  0  0  0  0
   -6.6440   19.5770  -32.0170 C   0  0  0  0  0  0  0  0  0  0  0  0
   -6.4600   18.0900  -32.1780 C   0  0  0  0  0  0  0  0  0  0  0  0
   -7.6360   17.5320  -32.6460 F   0  0  0  0  0  0  0  0  0  0  0  0
   -6.1520   17.5260  -30.9530 F   0  0  0  0  0  0  0  0  0  0  0  0
   -5.4420   17.7940  -33.0670 F   0  0  0  0  0  0  0  0  0  0  0  0
   -5.6090   20.3940  -31.5030 C   0  0  0  0  0  0  0  0  0  0  0  0
   -5.8400   21.7710  -31.4010 C   0  0  0  0  0  0  0  0  0  0  0  0
   -4.9960   22.7260  -30.9550 N   0  0  0  0  0  0  0  0  0  0  0  0
   -3.6380   22.5240  -30.5310 C   0  0  0  0  0  0  0  0  0  0  0  0
   -2.6970   23.0040  -31.2190 O   0  0  0  0  0  0  0  0  0  0  0  0
   -3.3180   21.7840  -29.2510 C   0  0  0  0  0  0  0  0  0  0  0  0
   -2.1960   22.3710  -28.4760 N   0  0  1  0  0  0  0  0  0  0  0  0
   -2.3890   23.7980  -28.1220 C   0  0  0  0  0  0  0  0  0  0  0  0
   -1.3290   24.6740  -28.7240 C   0  0  0  0  0  0  0  0  0  0  0  0
   -0.1900   24.2040  -28.9900 O   0  0  0  0  0  0  0  0  0  0  0  0
   -1.5920   26.0160  -28.9690 O   0  0  0  0  0  0  0  0  0  0  0  0
   -1.9090   21.5690  -27.2980 C   0  0  0  0  0  0  0  0  0  0  0  0
   -1.4070   22.0790  -26.3050 O   0  0  0  0  0  0  0  0  0  0  0  0
   -2.2250   20.0940  -27.2700 C   0  0  0  0  0  0  0  0  0  0  0  0
   -1.0260   19.2710  -27.7510 C   0  0  0  0  0  0  0  0  0  0  0  0
   -0.0420   20.1450  -28.4640 C   0  0  0  0  0  0  0  0  0  0  0  0
    1.0830   20.3790  -27.9500 O   0  0  0  0  0  0  0  0  0  0  0  0
   -0.3860   20.7400  -29.6710 O   0  0  0  0  0  0  0  0  0  0  0  0
   -3.0670   25.1540  -30.4460 H   0  0  0  0  0  0  0  0  0  0  0  0
   -7.7219   24.4389  -31.7954 H   0  0  0  0  0  0  0  0  0  0  0  0
   -9.0128   22.0220  -32.6236 H   0  0  0  0  0  0  0  0  0  0  0  0
   -8.6700   19.5381  -32.8288 H   0  0  0  0  0  0  0  0  0  0  0  0
   -4.6481   19.9584  -31.1917 H   0  0  0  0  0  0  0  0  0  0  0  0
   -4.2161   21.7881  -28.6158 H   0  0  0  0  0  0  0  0  0  0  0  0
   -3.0071   20.7693  -29.5404 H   0  0  0  0  0  0  0  0  0  0  0  0
   -1.3500   22.3270  -29.0940 H   0  0  0  0  0  0  0  0  0  0  0  0
   -3.3723   24.1257  -28.4905 H   0  0  0  0  0  0  0  0  0  0  0  0
   -2.3243   23.8888  -27.0277 H   0  0  0  0  0  0  0  0  0  0  0  0
   -2.4754   19.7984  -26.2405 H   0  0  0  0  0  0  0  0  0  0  0  0
   -3.0754   19.9031  -27.9411 H   0  0  0  0  0  0  0  0  0  0  0  0
   -0.5349   18.8059  -26.8835 H   0  0  0  0  0  0  0  0  0  0  0  0
   -1.3822   18.4962  -28.4458 H   0  0  0  0  0  0  0  0  0  0  0  0
  1  2  1  0
  2  3  2  0
  2  4  1  0
  4  5  2  0
  5  6  1  0
  6  7  2  0
  7  8  1  0
  8  9  2  0
  9 10  1  0
 10 11  1  0
 10 12  1  0
 10 13  1  0
  9 14  1  0
 14 15  2  0
 15 16  1  0
 16 17  1  0
 17 18  2  0
 17 19  1  0
 19 20  1  0
 20 21  1  0
 21 22  1  0
 22 23  2  0
 22 24  1  0
 20 25  1  0
 25 26  2  0
 25 27  1  0
 27 28  1  0
 28 29  1  0
 29 30  2  0
 29 31  1  0
 16  4  1  0
 15  6  1  0
  1 32  1  0
  5 33  1  0
  7 34  1  0
  8 35  1  0
 14 36  1  0
 19 37  1  0
 19 38  1  0
 20 39  1  6
 21 40  1  0
 21 41  1  0
 27 42  1  0
 27 43  1  0
 28 44  1  0
 28 45  1  0
M  CHG  4   1  -1  20   1  24  -1  31  -1
M  END
>  <UniqueID>  (2) 
2

>  <SMILES>  (2) 
[NH-]C(=O)c1cc2ccc(C(F)(F)F)cc2n1C(=O)C[N@@H+](CC(=O)[O-])C(=O)CCC(=O)[O-]

>  <Energy>  (2) 
82.9486727829497

>  <Genealogy>  (2) 
[NH-]C(=O)c1cc2ccc(C(F)(F)F)cc2n1C(=O)C[NH+](CC(=O)[O-])C(=O)CCC(=O)[O-] (protonated)
[NH-]C(=O)c1cc2ccc(C(F)(F)F)cc2n1C(=O)C[N@@H+](CC(=O)[O-])C(=O)CCC(=O)[O-] (chirality)
[NH-]C(=O)c1cc2ccc(C(F)(F)F)cc2n1C(=O)C[N@@H+](CC(=O)[O-])C(=O)CCC(=O)[O-] (3D coordinates assigned)
[NH-]C(=O)c1cc2ccc(C(F)(F)F)cc2n1C(=O)C[N@@H+](CC(=O)[O-])C(=O)CCC(=O)[O-] (optimized conformer: 82.9486727829497 kcal/mol)

>  <smiles>  (2) 
NC(=O)c1cc2ccc(C(F)(F)F)cc2n1C(=O)CN(CC(=O)O)C(=O)CCC(=O)O

>  <score_type>  (2) 
oracle

>  <origin>  (2) 
adg

>  <m_score__min__energy>  (2) 
-11.48

>  <m_primary>  (2) 
energy

$$$$
2:0
     RDKit          3D

 39 40  0  0  0  0  0  0  0  0999 V2000
   -6.4620   18.2830  -33.6160 C   0  0  0  0  0  0  0  0  0  0  0  0
   -6.8640   19.5450  -32.9120 C   0  0  0  0  0  0  0  0  0  0  0  0
   -8.2350   19.8450  -32.7210 C   0  0  0  0  0  0  0  0  0  0  0  0
   -8.6240   21.0120  -32.0440 C   0  0  0  0  0  0  0  0  0  0  0  0
   -7.6230   21.8460  -31.5530 C   0  0  0  0  0  0  0  0  0  0  0  0
   -7.7200   23.0470  -30.8870 C   0  0  0  0  0  0  0  0  0  0  0  0
   -6.4070   23.4370  -30.6420 C   0  0  0  0  0  0  0  0  0  0  0  0
   -6.0480   24.6500  -29.8820 C   0  0  0  0  0  0  0  0  0  0  0  0
   -4.7610   24.7910  -29.2790 N   0  0  0  0  0  0  0  0  0  0  0  0
   -6.9100   25.5540  -29.7150 O   0  0  0  0  0  0  0  0  0  0  0  0
   -5.5300   22.5230  -31.1460 N   0  0  0  0  0  0  0  0  0  0  0  0
   -4.0980   22.6200  -31.1940 C   0  0  0  0  0  0  0  0  0  0  0  0
   -3.5470   23.7530  -31.2750 O   0  0  0  0  0  0  0  0  0  0  0  0
   -3.3190   21.4590  -31.1490 O   0  0  0  0  0  0  0  0  0  0  0  0
   -2.5540   21.0720  -30.0100 C   0  0  0  0  0  0  0  0  0  0  0  0
   -2.0120   22.2770  -29.3100 C   0  0  0  0  0  0  0  0  0  0  0  0
   -0.8240   22.6430  -29.5260 O   0  0  0  0  0  0  0  0  0  0  0  0
   -2.8280   22.9810  -28.4190 O   0  0  0  0  0  0  0  0  0  0  0  0
   -2.3210   23.8550  -27.4120 C   0  0  0  0  0  0  0  0  0  0  0  0
   -1.9250   25.2050  -28.0120 C   0  0  0  0  0  0  0  0  0  0  0  0
   -2.3520   25.2960  -29.3450 O   0  0  0  0  0  0  0  0  0  0  0  0
   -6.2920   21.5510  -31.6980 C   0  0  0  0  0  0  0  0  0  0  0  0
   -5.8760   20.4060  -32.3880 C   0  0  0  0  0  0  0  0  0  0  0  0
   -6.2160   17.5107  -32.8723 H   0  0  0  0  0  0  0  0  0  0  0  0
   -7.2934   17.9338  -34.2460 H   0  0  0  0  0  0  0  0  0  0  0  0
   -5.5818   18.4790  -34.2460 H   0  0  0  0  0  0  0  0  0  0  0  0
   -9.0021   19.1574  -33.1066 H   0  0  0  0  0  0  0  0  0  0  0  0
   -9.6868   21.2597  -31.9058 H   0  0  0  0  0  0  0  0  0  0  0  0
   -8.6389   23.5835  -30.6082 H   0  0  0  0  0  0  0  0  0  0  0  0
   -4.0870   23.9940  -29.2540 H   0  0  0  0  0  0  0  0  0  0  0  0
   -4.5130   25.6710  -28.7750 H   0  0  0  0  0  0  0  0  0  0  0  0
   -3.1961   20.5088  -29.3168 H   0  0  0  0  0  0  0  0  0  0  0  0
   -1.7134   20.4450  -30.3420 H   0  0  0  0  0  0  0  0  0  0  0  0
   -3.0968   24.0136  -26.6485 H   0  0  0  0  0  0  0  0  0  0  0  0
   -1.4290   23.3943  -26.9625 H   0  0  0  0  0  0  0  0  0  0  0  0
   -2.3911   26.0115  -27.4270 H   0  0  0  0  0  0  0  0  0  0  0  0
   -0.8294   25.2989  -27.9829 H   0  0  0  0  0  0  0  0  0  0  0  0
   -2.0900   24.4460  -29.7850 H   0  0  0  0  0  0  0  0  0  0  0  0
   -4.8067   20.1832  -32.5184 H   0  0  0  0  0  0  0  0  0  0  0  0
  1  2  1  0
  2  3  2  0
  3  4  1  0
  4  5  2  0
  5  6  1  0
  6  7  2  0
  7  8  1  0
  8  9  1  0
  8 10  2  0
  7 11  1  0
 11 12  1  0
 12 13  2  0
 12 14  1  0
 14 15  1  0
 15 16  1  0
 16 17  2  0
 16 18  1  0
 18 19  1  0
 19 20  1  0
 20 21  1  0
 11 22  1  0
 22 23  2  0
 23  2  1  0
 22  5  1  0
  1 24  1  0
  1 25  1  0
  1 26  1  0
  3 27  1  0
  4 28  1  0
  6 29  1  0
  9 30  1  0
  9 31  1  0
 15 32  1  0
 15 33  1  0
 19 34  1  0
 19 35  1  0
 20 36  1  0
 20 37  1  0
 21 38  1  0
 23 39  1  0
M  END
>  <UniqueID>  (3) 
3

>  <SMILES>  (3) 
Cc1ccc2cc(C(N)=O)n(C(=O)OCC(=O)OCCO)c2c1

>  <Energy>  (3) 
70.40096781921774

>  <Genealogy>  (3) 
Cc1ccc2cc(C(N)=O)n(C(=O)OCC(=O)OCCO)c2c1 (3D coordinates assigned)
Cc1ccc2cc(C(N)=O)n(C(=O)OCC(=O)OCCO)c2c1 (optimized conformer: 70.40096781921774 kcal/mol)

>  <smiles>  (3) 
Cc1ccc2cc(C(N)=O)n(C(=O)OCC(=O)OCCO)c2c1

>  <score_type>  (3) 
oracle

>  <origin>  (3) 
adg

>  <m_score__min__energy>  (3) 
-7.2400000000000002

>  <m_primary>  (3) 
energy

$$$$
3:0
     RDKit          3D

 42 43  0  0  0  0  0  0  0  0999 V2000
   -5.6780   18.8030  -34.5620 C   0  0  0  0  0  0  0  0  0  0  0  0
   -6.4600   17.9610  -33.8770 C   0  0  0  0  0  0  0  0  0  0  0  0
   -6.6790   18.1110  -32.3980 C   0  0  0  0  0  0  0  0  0  0  0  0
   -6.9540   19.5470  -32.0460 C   0  0  0  0  0  0  0  0  0  0  0  0
   -8.2740   20.0580  -32.1120 C   0  0  0  0  0  0  0  0  0  0  0  0
   -8.5360   21.4070  -31.8120 C   0  0  0  0  0  0  0  0  0  0  0  0
   -7.4590   22.2190  -31.4670 C   0  0  0  0  0  0  0  0  0  0  0  0
   -7.4290   23.5470  -31.1070 C   0  0  0  0  0  0  0  0  0  0  0  0
   -6.0880   23.8310  -30.8430 C   0  0  0  0  0  0  0  0  0  0  0  0
   -5.5780   25.1570  -30.4230 C   0  0  0  0  0  0  0  0  0  0  0  0
   -4.2220   25.5320  -30.6690 N   0  0  0  0  0  0  0  0  0  0  0  0
   -6.3380   25.9710  -29.8350 O   0  0  0  0  0  0  0  0  0  0  0  0
   -5.3210   22.7240  -31.0540 N   0  0  0  0  0  0  0  0  0  0  0  0
   -3.9110   22.5730  -30.8180 C   0  0  0  0  0  0  0  0  0  0  0  0
   -3.0990   22.8900  -31.7290 O   0  0  0  0  0  0  0  0  0  0  0  0
   -3.4140   22.1130  -29.5460 N   0  0  0  0  0  0  0  0  0  0  0  0
   -2.9540   20.7280  -29.4210 C   0  0  0  0  0  0  0  0  0  0  0  0
   -3.4360   22.9780  -28.3560 C   0  0  0  0  0  0  0  0  0  0  0  0
   -2.0170   23.2900  -27.8700 C   0  0  0  0  0  0  0  0  0  0  0  0
   -1.4200   24.4380  -28.6210 C   0  0  0  0  0  0  0  0  0  0  0  0
   -0.1780   24.6480  -28.5770 O   0  0  0  0  0  0  0  0  0  0  0  0
   -2.2330   25.2760  -29.3750 O   0  0  0  0  0  0  0  0  0  0  0  0
   -6.1760   21.7420  -31.4170 C   0  0  0  0  0  0  0  0  0  0  0  0
   -5.8870   20.4010  -31.6940 C   0  0  0  0  0  0  0  0  0  0  0  0
   -5.5379   18.6662  -35.6444 H   0  0  0  0  0  0  0  0  0  0  0  0
   -5.1751   19.6322  -34.0428 H   0  0  0  0  0  0  0  0  0  0  0  0
   -6.9559   17.1369  -34.4107 H   0  0  0  0  0  0  0  0  0  0  0  0
   -7.5378   17.4939  -32.0954 H   0  0  0  0  0  0  0  0  0  0  0  0
   -5.7707   17.7845  -31.8704 H   0  0  0  0  0  0  0  0  0  0  0  0
   -9.1017   19.3934  -32.4006 H   0  0  0  0  0  0  0  0  0  0  0  0
   -9.5597   21.8078  -31.8488 H   0  0  0  0  0  0  0  0  0  0  0  0
   -8.2818   24.2387  -31.0412 H   0  0  0  0  0  0  0  0  0  0  0  0
   -3.5800   24.9290  -31.2280 H   0  0  0  0  0  0  0  0  0  0  0  0
   -3.8640   26.4550  -30.3330 H   0  0  0  0  0  0  0  0  0  0  0  0
   -2.8667   20.4653  -28.3564 H   0  0  0  0  0  0  0  0  0  0  0  0
   -3.6773   20.0562  -29.9064 H   0  0  0  0  0  0  0  0  0  0  0  0
   -1.9725   20.6224  -29.9064 H   0  0  0  0  0  0  0  0  0  0  0  0
   -3.9443   23.9206  -28.6072 H   0  0  0  0  0  0  0  0  0  0  0  0
   -3.9707   22.4504  -27.5524 H   0  0  0  0  0  0  0  0  0  0  0  0
   -2.0532   23.5430  -26.8001 H   0  0  0  0  0  0  0  0  0  0  0  0
   -1.3905   22.4023  -28.0416 H   0  0  0  0  0  0  0  0  0  0  0  0
   -4.8556   20.0226  -31.6388 H   0  0  0  0  0  0  0  0  0  0  0  0
  1  2  2  0
  2  3  1  0
  3  4  1  0
  4  5  2  0
  5  6  1  0
  6  7  2  0
  7  8  1  0
  8  9  2  0
  9 10  1  0
 10 11  1  0
 10 12  2  0
  9 13  1  0
 13 14  1  0
 14 15  2  0
 14 16  1  0
 16 17  1  0
 16 18  1  0
 18 19  1  0
 19 20  1  0
 20 21  2  0
 20 22  1  0
 13 23  1  0
 23 24  2  0
 24  4  1  0
 23  7  1  0
  1 25  1  0
  1 26  1  0
  2 27  1  0
  3 28  1  0
  3 29  1  0
  5 30  1  0
  6 31  1  0
  8 32  1  0
 11 33  1  0
 11 34  1  0
 17 35  1  0
 17 36  1  0
 17 37  1  0
 18 38  1  0
 18 39  1  0
 19 40  1  0
 19 41  1  0
 24 42  1  0
M  CHG  1  22  -1
M  END
>  <UniqueID>  (4) 
4

>  <SMILES>  (4) 
C=CCc1ccc2cc(C(N)=O)n(C(=O)N(C)CCC(=O)[O-])c2c1

>  <Energy>  (4) 
72.29188816514879

>  <Genealogy>  (4) 
C=CCc1ccc2cc(C(N)=O)n(C(=O)N(C)CCC(=O)[O-])c2c1 (protonated)
C=CCc1ccc2cc(C(N)=O)n(C(=O)N(C)CCC(=O)[O-])c2c1 (3D coordinates assigned)
C=CCc1ccc2cc(C(N)=O)n(C(=O)N(C)CCC(=O)[O-])c2c1 (optimized conformer: 72.29188816514879 kcal/mol)

>  <smiles>  (4) 
C=CCc1ccc2cc(C(N)=O)n(C(=O)N(C)CCC(=O)O)c2c1

>  <score_type>  (4) 
oracle

>  <origin>  (4) 
adg

>  <m_score__min__energy>  (4) 
-11.68

>  <m_primary>  (4) 
energy

$$$$
4:0
     RDKit          3D

 40 41  0  0  0  0  0  0  0  0999 V2000
   -7.3370   18.3700  -32.5490 C   0  0  0  0  0  0  0  0  0  0  0  0
   -7.3950   19.8360  -32.2390 C   0  0  0  0  0  0  0  0  0  0  0  0
   -8.6320   20.5240  -32.2940 C   0  0  0  0  0  0  0  0  0  0  0  0
   -8.7050   21.8930  -31.9810 C   0  0  0  0  0  0  0  0  0  0  0  0
   -7.5310   22.5360  -31.5970 C   0  0  0  0  0  0  0  0  0  0  0  0
   -7.3110   23.8520  -31.2600 C   0  0  0  0  0  0  0  0  0  0  0  0
   -5.9490   23.9380  -30.9720 C   0  0  0  0  0  0  0  0  0  0  0  0
   -5.2840   25.1780  -30.5200 C   0  0  0  0  0  0  0  0  0  0  0  0
   -3.8980   25.4030  -30.7660 N   0  0  0  0  0  0  0  0  0  0  0  0
   -5.9430   26.0440  -29.8840 O   0  0  0  0  0  0  0  0  0  0  0  0
   -5.3540   22.7220  -31.1250 N   0  0  0  0  0  0  0  0  0  0  0  0
   -3.9630   22.4050  -30.9730 C   0  0  0  0  0  0  0  0  0  0  0  0
   -3.1040   23.0650  -31.6210 O   0  0  0  0  0  0  0  0  0  0  0  0
   -3.5310   21.3870  -29.9550 C   0  0  0  0  0  0  0  0  0  0  0  0
   -3.3360   21.9980  -28.5900 C   0  0  0  0  0  0  0  0  0  0  0  0
   -3.4100   21.2760  -27.6040 O   0  0  0  0  0  0  0  0  0  0  0  0
   -3.0990   23.4230  -28.4430 N   0  0  1  0  0  0  0  0  0  0  0  0
   -4.2210   24.0820  -27.7510 C   0  0  0  0  0  0  0  0  0  0  0  0
   -1.7910   23.6990  -27.8050 C   0  0  0  0  0  0  0  0  0  0  0  0
   -0.9900   24.7710  -28.4960 C   0  0  0  0  0  0  0  0  0  0  0  0
    0.2530   24.8500  -28.3150 O   0  0  0  0  0  0  0  0  0  0  0  0
   -1.6210   25.6780  -29.3390 O   0  0  0  0  0  0  0  0  0  0  0  0
   -6.3330   21.8760  -31.5110 C   0  0  0  0  0  0  0  0  0  0  0  0
   -6.2290   20.5190  -31.8340 C   0  0  0  0  0  0  0  0  0  0  0  0
   -7.3143   17.7973  -31.6101 H   0  0  0  0  0  0  0  0  0  0  0  0
   -8.2245   18.0831  -33.1321 H   0  0  0  0  0  0  0  0  0  0  0  0
   -6.4296   18.1542  -33.1321 H   0  0  0  0  0  0  0  0  0  0  0  0
   -9.5442   19.9822  -32.5843 H   0  0  0  0  0  0  0  0  0  0  0  0
   -9.6586   22.4383  -32.0377 H   0  0  0  0  0  0  0  0  0  0  0  0
   -8.0522   24.6640  -31.2251 H   0  0  0  0  0  0  0  0  0  0  0  0
   -3.1700   24.7910  -30.3360 H   0  0  0  0  0  0  0  0  0  0  0  0
   -4.3011   20.6045  -29.8868 H   0  0  0  0  0  0  0  0  0  0  0  0
   -2.5666   20.9700  -30.2807 H   0  0  0  0  0  0  0  0  0  0  0  0
   -3.0550   23.8470  -29.3990 H   0  0  0  0  0  0  0  0  0  0  0  0
   -4.0803   23.9993  -26.6632 H   0  0  0  0  0  0  0  0  0  0  0  0
   -4.2552   25.1437  -28.0367 H   0  0  0  0  0  0  0  0  0  0  0  0
   -5.1650   23.5948  -28.0367 H   0  0  0  0  0  0  0  0  0  0  0  0
   -1.9717   24.0161  -26.7673 H   0  0  0  0  0  0  0  0  0  0  0  0
   -1.2033   22.7712  -27.8664 H   0  0  0  0  0  0  0  0  0  0  0  0
   -5.2623   19.9975  -31.7737 H   0  0  0  0  0  0  0  0  0  0  0  0
  1  2  1  0
  2  3  2  0
  3  4  1  0
  4  5  2  0
  5  6  1  0
  6  7  2  0
  7  8  1  0
  8  9  1  0
  8 10  2  0
  7 11  1  0
 11 12  1  0
 12 13  2  0
 12 14  1  0
 14 15  1  0
 15 16  2  0
 15 17  1  0
 17 18  1  0
 17 19  1  0
 19 20  1  0
 20 21  2  0
 20 22  1  0
 11 23  1  0
 23 24  2  0
 24  2  1  0
 23  5  1  0
  1 25  1  0
  1 26  1  0
  1 27  1  0
  3 28  1  0
  4 29  1  0
  6 30  1  0
  9 31  1  0
 14 32  1  0
 14 33  1  0
 17 34  1  6
 18 35  1  0
 18 36  1  0
 18 37  1  0
 19 38  1  0
 19 39  1  0
 24 40  1  0
M  CHG  3   9  -1  17   1  22  -1
M  END
>  <UniqueID>  (5) 
5

>  <SMILES>  (5) 
Cc1ccc2cc(C([NH-])=O)n(C(=O)CC(=O)[N@@H+](C)CC(=O)[O-])c2c1

>  <Energy>  (5) 
81.29526535040888

>  <Genealogy>  (5) 
Cc1ccc2cc(C([NH-])=O)n(C(=O)CC(=O)[NH+](C)CC(=O)[O-])c2c1 (protonated)
Cc1ccc2cc(C([NH-])=O)n(C(=O)CC(=O)[N@@H+](C)CC(=O)[O-])c2c1 (chirality)
Cc1ccc2cc(C([NH-])=O)n(C(=O)CC(=O)[N@@H+](C)CC(=O)[O-])c2c1 (3D coordinates assigned)
Cc1ccc2cc(C([NH-])=O)n(C(=O)CC(=O)[N@@H+](C)CC(=O)[O-])c2c1 (optimized conformer: 81.29526535040888 kcal/mol)

>  <smiles>  (5) 
Cc1ccc2cc(C(N)=O)n(C(=O)CC(=O)N(C)CC(=O)O)c2c1

>  <score_type>  (5) 
oracle

>  <origin>  (5) 
adg

>  <m_score__min__energy>  (5) 
-11.699999999999999

>  <m_primary>  (5) 
energy

$$$$
5:0
     RDKit          3D

 41 42  0  0  0  0  0  0  0  0999 V2000
   -0.5740   20.6740  -30.0650 C   0  0  0  0  0  0  0  0  0  0  0  0
   -1.5440   21.7770  -29.6040 C   0  0  1  0  0  0  0  0  0  0  0  0
   -3.2720   21.1730  -29.8350 S   0  0  0  0  0  0  0  0  0  0  0  0
   -3.8700   22.5430  -30.8390 C   0  0  0  0  0  0  0  0  0  0  0  0
   -3.0320   23.2920  -31.4060 O   0  0  0  0  0  0  0  0  0  0  0  0
   -5.2790   22.7580  -31.0350 N   0  0  0  0  0  0  0  0  0  0  0  0
   -5.9790   23.9160  -30.8520 C   0  0  0  0  0  0  0  0  0  0  0  0
   -5.4350   25.1960  -30.3460 C   0  0  0  0  0  0  0  0  0  0  0  0
   -4.1860   25.6770  -30.8380 N   0  0  0  0  0  0  0  0  0  0  0  0
   -6.0660   25.8810  -29.5010 O   0  0  0  0  0  0  0  0  0  0  0  0
   -7.3260   23.7260  -31.1530 C   0  0  0  0  0  0  0  0  0  0  0  0
   -7.4320   22.4110  -31.5360 C   0  0  0  0  0  0  0  0  0  0  0  0
   -8.5450   21.6950  -31.9670 C   0  0  0  0  0  0  0  0  0  0  0  0
   -8.3610   20.3560  -32.3460 C   0  0  0  0  0  0  0  0  0  0  0  0
   -7.0760   19.7630  -32.2980 C   0  0  0  0  0  0  0  0  0  0  0  0
   -6.8930   18.3400  -32.7430 C   0  0  0  0  0  0  0  0  0  0  0  0
   -8.0670   17.6330  -32.5540 F   0  0  0  0  0  0  0  0  0  0  0  0
   -6.5570   18.3140  -34.0840 F   0  0  0  0  0  0  0  0  0  0  0  0
   -5.9670   20.5240  -31.8640 C   0  0  0  0  0  0  0  0  0  0  0  0
   -6.1840   21.8490  -31.4640 C   0  0  0  0  0  0  0  0  0  0  0  0
   -1.2750   22.2220  -28.2050 N   0  0  0  0  0  0  0  0  0  0  0  0
   -1.8290   21.2560  -27.2330 C   0  0  0  0  0  0  0  0  0  0  0  0
   -1.8450   23.5680  -27.9290 C   0  0  0  0  0  0  0  0  0  0  0  0
   -1.0040   24.6250  -28.5720 C   0  0  0  0  0  0  0  0  0  0  0  0
    0.2500   24.5770  -28.4750 O   0  0  0  0  0  0  0  0  0  0  0  0
   -1.6000   25.6720  -29.2630 O   0  0  0  0  0  0  0  0  0  0  0  0
   -0.1379   20.1781  -29.1853 H   0  0  0  0  0  0  0  0  0  0  0  0
   -1.1200   19.9348  -30.6696 H   0  0  0  0  0  0  0  0  0  0  0  0
    0.2289   21.1210  -30.6696 H   0  0  0  0  0  0  0  0  0  0  0  0
   -1.3920   22.6747  -30.2212 H   0  0  0  0  0  0  0  0  0  0  0  0
   -3.2860   25.2580  -30.5150 H   0  0  0  0  0  0  0  0  0  0  0  0
   -8.1334   24.4709  -31.0960 H   0  0  0  0  0  0  0  0  0  0  0  0
   -9.5390   22.1643  -32.0094 H   0  0  0  0  0  0  0  0  0  0  0  0
   -9.2230   19.7618  -32.6834 H   0  0  0  0  0  0  0  0  0  0  0  0
   -6.0895   17.8789  -32.1499 H   0  0  0  0  0  0  0  0  0  0  0  0
   -4.9580   20.0866  -31.8408 H   0  0  0  0  0  0  0  0  0  0  0  0
   -1.6271   21.6080  -26.2106 H   0  0  0  0  0  0  0  0  0  0  0  0
   -2.9152   21.1674  -27.3825 H   0  0  0  0  0  0  0  0  0  0  0  0
   -1.3570   20.2738  -27.3825 H   0  0  0  0  0  0  0  0  0  0  0  0
   -2.8667   23.6202  -28.3333 H   0  0  0  0  0  0  0  0  0  0  0  0
   -1.8633   23.7348  -26.8419 H   0  0  0  0  0  0  0  0  0  0  0  0
  1  2  1  0
  2  3  1  0
  3  4  1  0
  4  5  2  0
  4  6  1  0
  6  7  1  0
  7  8  1  0
  8  9  1  0
  8 10  2  0
  7 11  2  0
 11 12  1  0
 12 13  2  0
 13 14  1  0
 14 15  2  0
 15 16  1  0
 16 17  1  0
 16 18  1  0
 15 19  1  0
 19 20  2  0
  2 21  1  0
 21 22  1  0
 21 23  1  0
 23 24  1  0
 24 25  2  0
 24 26  1  0
 20  6  1  0
 20 12  1  0
  1 27  1  0
  1 28  1  0
  1 29  1  0
  2 30  1  6
  9 31  1  0
 11 32  1  0
 13 33  1  0
 14 34  1  0
 16 35  1  0
 19 36  1  0
 22 37  1  0
 22 38  1  0
 22 39  1  0
 23 40  1  0
 23 41  1  0
M  CHG  2   9  -1  26  -1
M  END
>  <UniqueID>  (6) 
6

>  <SMILES>  (6) 
C[C@@H](SC(=O)n1c(C([NH-])=O)cc2ccc(C(F)F)cc21)N(C)CC(=O)[O-]

>  <Energy>  (6) 
80.83884210225966

>  <Genealogy>  (6) 
CC(SC(=O)n1c(C([NH-])=O)cc2ccc(C(F)F)cc21)N(C)CC(=O)[O-] (protonated)
C[C@@H](SC(=O)n1c(C([NH-])=O)cc2ccc(C(F)F)cc21)N(C)CC(=O)[O-] (chirality)
C[C@@H](SC(=O)n1c(C([NH-])=O)cc2ccc(C(F)F)cc21)N(C)CC(=O)[O-] (3D coordinates assigned)
C[C@@H](SC(=O)n1c(C([NH-])=O)cc2ccc(C(F)F)cc21)N(C)CC(=O)[O-] (optimized conformer: 80.83884210225966 kcal/mol)

>  <smiles>  (6) 
CC(SC(=O)n1c(C(N)=O)cc2ccc(C(F)F)cc21)N(C)CC(=O)O

>  <score_type>  (6) 
oracle

>  <origin>  (6) 
adg

>  <m_score__min__energy>  (6) 
-12.58

>  <m_primary>  (6) 
energy

$$$$
6:0
     RDKit          3D

 46 49  0  0  0  0  0  0  0  0999 V2000
    1.6390   19.6310  -32.2680 C   0  0  0  0  0  0  0  0  0  0  0  0
    0.2770   20.2320  -32.1130 C   0  0  0  0  0  0  0  0  0  0  0  0
   -0.2470   20.5360  -30.9110 N   0  0  0  0  0  0  0  0  0  0  0  0
   -1.4800   21.0250  -31.1500 C   0  0  0  0  0  0  0  0  0  0  0  0
   -2.3890   21.4140  -30.0550 C   0  0  0  0  0  0  0  0  0  0  0  0
   -2.5320   20.6360  -29.0740 O   0  0  0  0  0  0  0  0  0  0  0  0
   -3.1650   22.6210  -30.1140 N   0  0  0  0  0  0  0  0  0  0  0  0
   -2.7860   23.8740  -29.7340 C   0  0  0  0  0  0  0  0  0  0  0  0
   -1.4270   24.2770  -29.3150 C   0  0  0  0  0  0  0  0  0  0  0  0
   -1.1300   25.6310  -28.9870 N   0  0  0  0  0  0  0  0  0  0  0  0
   -0.5210   23.4060  -29.2140 O   0  0  0  0  0  0  0  0  0  0  0  0
   -3.8510   24.7640  -29.8620 C   0  0  0  0  0  0  0  0  0  0  0  0
   -4.9030   24.0100  -30.3320 C   0  0  0  0  0  0  0  0  0  0  0  0
   -6.2080   24.3850  -30.6360 C   0  0  0  0  0  0  0  0  0  0  0  0
   -7.0900   23.3900  -31.0910 C   0  0  0  0  0  0  0  0  0  0  0  0
   -6.6600   22.0430  -31.2250 C   0  0  0  0  0  0  0  0  0  0  0  0
   -7.5990   20.9980  -31.7060 C   0  0  0  0  0  0  0  0  0  0  0  0
   -7.1470   19.6860  -31.9430 C   0  0  0  0  0  0  0  0  0  0  0  0
   -8.0350   18.7020  -32.3900 C   0  0  0  0  0  0  0  0  0  0  0  0
   -9.3790   19.0150  -32.6040 C   0  0  0  0  0  0  0  0  0  0  0  0
   -9.8390   20.3120  -32.3730 C   0  0  0  0  0  0  0  0  0  0  0  0
   -8.9560   21.3010  -31.9250 C   0  0  0  0  0  0  0  0  0  0  0  0
   -5.3260   21.7050  -30.8980 C   0  0  0  0  0  0  0  0  0  0  0  0
   -4.4650   22.7210  -30.4680 C   0  0  0  0  0  0  0  0  0  0  0  0
   -1.7390   21.0590  -32.5180 C   0  0  0  0  0  0  0  0  0  0  0  0
   -2.9670   21.5970  -33.1960 C   0  0  0  0  0  0  0  0  0  0  0  0
   -0.6170   20.5230  -33.1360 C   0  0  0  0  0  0  0  0  0  0  0  0
   -0.4220   20.2810  -34.5830 C   0  0  0  0  0  0  0  0  0  0  0  0
   -0.6100   19.1360  -35.0700 O   0  0  0  0  0  0  0  0  0  0  0  0
   -0.0520   21.3180  -35.4310 O   0  0  0  0  0  0  0  0  0  0  0  0
    2.0709   19.4404  -31.2745 H   0  0  0  0  0  0  0  0  0  0  0  0
    1.5609   18.6837  -32.8217 H   0  0  0  0  0  0  0  0  0  0  0  0
    2.2861   20.3272  -32.8217 H   0  0  0  0  0  0  0  0  0  0  0  0
   -1.2300   26.3900  -29.6960 H   0  0  0  0  0  0  0  0  0  0  0  0
   -3.8511   25.8404  -29.6356 H   0  0  0  0  0  0  0  0  0  0  0  0
   -6.5391   25.4280  -30.5237 H   0  0  0  0  0  0  0  0  0  0  0  0
   -8.1259   23.6576  -31.3464 H   0  0  0  0  0  0  0  0  0  0  0  0
   -6.0896   19.4332  -31.7757 H   0  0  0  0  0  0  0  0  0  0  0  0
   -7.6738   17.6793  -32.5734 H   0  0  0  0  0  0  0  0  0  0  0  0
  -10.0752   18.2389  -32.9547 H   0  0  0  0  0  0  0  0  0  0  0  0
  -10.8976   20.5575  -32.5434 H   0  0  0  0  0  0  0  0  0  0  0  0
   -9.3246   22.3213  -31.7429 H   0  0  0  0  0  0  0  0  0  0  0  0
   -4.9731   20.6664  -30.9799 H   0  0  0  0  0  0  0  0  0  0  0  0
   -3.6954   21.9161  -32.4360 H   0  0  0  0  0  0  0  0  0  0  0  0
   -2.6919   22.4571  -33.8242 H   0  0  0  0  0  0  0  0  0  0  0  0
   -3.4128   20.8117  -33.8242 H   0  0  0  0  0  0  0  0  0  0  0  0
  1  2  1  0
  2  3  1  0
  3  4  1  0
  4  5  1  0
  5  6  2  0
  5  7  1  0
  7  8  1  0
  8  9  1  0
  9 10  1  0
  9 11  2  0
  8 12  2  0
 12 13  1  0
 13 14  2  0
 14 15  1  0
 15 16  2  0
 16 17  1  0
 17 18  2  0
 18 19  1  0
 19 20  2  0
 20 21  1  0
 21 22  2  0
 16 23  1  0
 23 24  2  0
  4 25  2  0
 25 26  1  0
 25 27  1  0
 27 28  1  0
 28 29  2  0
 28 30  1  0
 27  2  2  0
 24  7  1  0
 24 13  1  0
 22 17  1  0
  1 31  1  0
  1 32  1  0
  1 33  1  0
 10 34  1  0
 12 35  1  0
 14 36  1  0
 15 37  1  0
 18 38  1  0
 19 39  1  0
 20 40  1  0
 21 41  1  0
 22 42  1  0
 23 43  1  0
 26 44  1  0
 26 45  1  0
 26 46  1  0
M  CHG  3   3  -1  10  -1  30  -1
M  END
>  <UniqueID>  (7) 
7

>  <SMILES>  (7) 
Cc1[n-]c(C(=O)n2c(C([NH-])=O)cc3ccc(-c4ccccc4)cc32)c(C)c1C(=O)[O-]

>  <Energy>  (7) 
121.00665467913943

>  <Genealogy>  (7) 
Cc1[n-]c(C(=O)n2c(C([NH-])=O)cc3ccc(-c4ccccc4)cc32)c(C)c1C(=O)[O-] (protonated)
Cc1[n-]c(C(=O)n2c(C([NH-])=O)cc3ccc(-c4ccccc4)cc32)c(C)c1C(=O)[O-] (3D coordinates assigned)
Cc1[n-]c(C(=O)n2c(C([NH-])=O)cc3ccc(-c4ccccc4)cc32)c(C)c1C(=O)[O-] (optimized conformer: 121.00665467913943 kcal/mol)

>  <smiles>  (7) 
Cc1[nH]c(C(=O)n2c(C(N)=O)cc3ccc(-c4ccccc4)cc32)c(C)c1C(=O)O

>  <score_type>  (7) 
oracle

>  <origin>  (7) 
adg

>  <m_score__min__energy>  (7) 
-13.039999999999999

>  <m_primary>  (7) 
energy

$$$$
7:0
     RDKit          3D

 31 32  0  0  0  0  0  0  0  0999 V2000
   -3.8900   25.3710  -30.8250 N   0  0  0  0  0  0  0  0  0  0  0  0
   -5.2750   25.1780  -30.5470 C   0  0  0  0  0  0  0  0  0  0  0  0
   -5.9110   26.0700  -29.9260 O   0  0  0  0  0  0  0  0  0  0  0  0
   -5.9610   23.9610  -31.0270 C   0  0  0  0  0  0  0  0  0  0  0  0
   -7.3420   23.8660  -31.1890 C   0  0  0  0  0  0  0  0  0  0  0  0
   -7.5750   22.5580  -31.5490 C   0  0  0  0  0  0  0  0  0  0  0  0
   -8.7720   21.9090  -31.8440 C   0  0  0  0  0  0  0  0  0  0  0  0
   -8.7120   20.5540  -32.2120 C   0  0  0  0  0  0  0  0  0  0  0  0
   -7.4690   19.8820  -32.2840 C   0  0  0  0  0  0  0  0  0  0  0  0
   -7.4200   18.5060  -32.6700 N   0  0  0  0  0  0  0  0  0  0  0  0
   -6.2760   20.5700  -31.9780 C   0  0  0  0  0  0  0  0  0  0  0  0
   -6.3650   21.9140  -31.5990 C   0  0  0  0  0  0  0  0  0  0  0  0
   -5.3650   22.7650  -31.2850 N   0  0  0  0  0  0  0  0  0  0  0  0
   -3.9590   22.4770  -31.3110 C   0  0  0  0  0  0  0  0  0  0  0  0
   -3.3000   22.6530  -32.3730 O   0  0  0  0  0  0  0  0  0  0  0  0
   -3.3210   22.0300  -30.1500 O   0  0  0  0  0  0  0  0  0  0  0  0
   -2.7440   22.9200  -29.1970 C   0  0  0  0  0  0  0  0  0  0  0  0
   -1.8580   23.8170  -29.8250 O   0  0  0  0  0  0  0  0  0  0  0  0
   -1.0620   24.7550  -28.6400 P   0  0  0  0  0  0  0  0  0  0  0  0
   -1.6860   24.5030  -27.2850 O   0  0  0  0  0  0  0  0  0  0  0  0
   -1.2440   26.3900  -29.0290 O   0  0  0  0  0  0  0  0  0  0  0  0
    0.5910   24.3920  -28.5770 O   0  0  0  0  0  0  0  0  0  0  0  0
   -3.3050   24.5910  -31.1980 H   0  0  0  0  0  0  0  0  0  0  0  0
   -8.0864   24.6651  -31.0574 H   0  0  0  0  0  0  0  0  0  0  0  0
   -9.7337   22.4404  -31.7906 H   0  0  0  0  0  0  0  0  0  0  0  0
   -9.6396   20.0111  -32.4461 H   0  0  0  0  0  0  0  0  0  0  0  0
   -6.8430   17.8210  -32.1310 H   0  0  0  0  0  0  0  0  0  0  0  0
   -7.9600   18.1620  -33.4950 H   0  0  0  0  0  0  0  0  0  0  0  0
   -5.3014   20.0632  -32.0358 H   0  0  0  0  0  0  0  0  0  0  0  0
   -3.5454   23.4899  -28.7040 H   0  0  0  0  0  0  0  0  0  0  0  0
   -2.1837   22.3301  -28.4567 H   0  0  0  0  0  0  0  0  0  0  0  0
  1  2  1  0
  2  3  2  0
  2  4  1  0
  4  5  2  0
  5  6  1  0
  6  7  2  0
  7  8  1  0
  8  9  2  0
  9 10  1  0
  9 11  1  0
 11 12  2  0
 12 13  1  0
 13 14  1  0
 14 15  2  0
 14 16  1  0
 16 17  1  0
 17 18  1  0
 18 19  1  0
 19 20  2  0
 19 21  1  0
 19 22  1  0
 13  4  1  0
 12  6  1  0
  1 23  1  0
  5 24  1  0
  7 25  1  0
  8 26  1  0
 10 27  1  0
 10 28  1  0
 11 29  1  0
 17 30  1  0
 17 31  1  0
M  CHG  3   1  -1  21  -1  22  -1
M  END
>  <UniqueID>  (8) 
8

>  <SMILES>  (8) 
[NH-]C(=O)c1cc2ccc(N)cc2n1C(=O)OCOP(=O)([O-])[O-]

>  <Energy>  (8) 
67.41590272823477

>  <Genealogy>  (8) 
[NH-]C(=O)c1cc2ccc(N)cc2n1C(=O)OCOP(=O)([O-])[O-] (protonated)
[NH-]C(=O)c1cc2ccc(N)cc2n1C(=O)OCOP(=O)([O-])[O-] (3D coordinates assigned)
[NH-]C(=O)c1cc2ccc(N)cc2n1C(=O)OCOP(=O)([O-])[O-] (optimized conformer: 67.41590272823477 kcal/mol)

>  <smiles>  (8) 
NC(=O)c1cc2ccc(N)cc2n1C(=O)OCOP(=O)(O)O

>  <score_type>  (8) 
oracle

>  <origin>  (8) 
adg

>  <m_score__min__energy>  (8) 
-12.99

>  <m_primary>  (8) 
energy

$$$$
8:0
     RDKit          3D

 48 50  0  0  0  0  0  0  0  0999 V2000
   -3.9260   25.6220  -30.8430 N   0  0  0  0  0  0  0  0  0  0  0  0
   -5.2420   25.2620  -30.4340 C   0  0  0  0  0  0  0  0  0  0  0  0
   -5.8970   26.0490  -29.6990 O   0  0  0  0  0  0  0  0  0  0  0  0
   -5.8620   23.9980  -30.8870 C   0  0  0  0  0  0  0  0  0  0  0  0
   -7.2170   23.8730  -31.1840 C   0  0  0  0  0  0  0  0  0  0  0  0
   -7.3820   22.5680  -31.5840 C   0  0  0  0  0  0  0  0  0  0  0  0
   -8.5370   21.8930  -31.9640 C   0  0  0  0  0  0  0  0  0  0  0  0
   -8.4280   20.5310  -32.2890 C   0  0  0  0  0  0  0  0  0  0  0  0
   -7.1760   19.8670  -32.2220 C   0  0  0  0  0  0  0  0  0  0  0  0
   -7.0650   18.3910  -32.5170 C   0  0  0  0  0  0  0  0  0  0  0  0
   -6.1610   17.7780  -31.6670 F   0  0  0  0  0  0  0  0  0  0  0  0
   -6.6400   18.2200  -33.8230 F   0  0  0  0  0  0  0  0  0  0  0  0
   -8.2990   17.7790  -32.3530 F   0  0  0  0  0  0  0  0  0  0  0  0
   -6.0290   20.5840  -31.8060 C   0  0  0  0  0  0  0  0  0  0  0  0
   -6.1590   21.9500  -31.5190 C   0  0  0  0  0  0  0  0  0  0  0  0
   -5.2120   22.8190  -31.0960 N   0  0  0  0  0  0  0  0  0  0  0  0
   -3.8350   22.5260  -30.8000 C   0  0  0  0  0  0  0  0  0  0  0  0
   -2.9360   23.2930  -31.2390 O   0  0  0  0  0  0  0  0  0  0  0  0
   -3.4520   21.2400  -30.0980 C   0  0  1  0  0  0  0  0  0  0  0  0
   -2.1650   20.8630  -30.5190 O   0  0  0  0  0  0  0  0  0  0  0  0
   -3.4500   21.3710  -28.5550 C   0  0  0  0  0  0  0  0  0  0  0  0
   -2.7100   22.5690  -28.0820 N   0  0  0  0  0  0  0  0  0  0  0  0
   -2.0130   22.3130  -26.8060 C   0  0  0  0  0  0  0  0  0  0  0  0
   -1.0400   23.4600  -26.4890 C   0  0  0  0  0  0  0  0  0  0  0  0
   -1.6140   24.8550  -26.8380 C   0  0  0  0  0  0  0  0  0  0  0  0
   -0.9380   25.4460  -28.0500 C   0  0  0  0  0  0  0  0  0  0  0  0
   -1.5990   26.0380  -28.9400 O   0  0  0  0  0  0  0  0  0  0  0  0
    0.4310   25.2930  -28.2120 O   0  0  0  0  0  0  0  0  0  0  0  0
   -3.1450   24.8260  -26.9810 C   0  0  0  0  0  0  0  0  0  0  0  0
   -3.6440   23.7200  -27.9420 C   0  0  0  0  0  0  0  0  0  0  0  0
   -3.0890   25.2750  -30.3250 H   0  0  0  0  0  0  0  0  0  0  0  0
   -7.9902   24.6522  -31.1136 H   0  0  0  0  0  0  0  0  0  0  0  0
   -9.5068   22.4103  -32.0087 H   0  0  0  0  0  0  0  0  0  0  0  0
   -9.3236   19.9727  -32.5991 H   0  0  0  0  0  0  0  0  0  0  0  0
   -5.0560   20.0801  -31.7099 H   0  0  0  0  0  0  0  0  0  0  0  0
   -4.2060   20.4842  -30.3630 H   0  0  0  0  0  0  0  0  0  0  0  0
   -1.6310   21.6950  -30.5800 H   0  0  0  0  0  0  0  0  0  0  0  0
   -4.4910   21.4401  -28.2064 H   0  0  0  0  0  0  0  0  0  0  0  0
   -2.9422   20.4845  -28.1471 H   0  0  0  0  0  0  0  0  0  0  0  0
   -2.7545   22.2325  -25.9975 H   0  0  0  0  0  0  0  0  0  0  0  0
   -1.4444   21.3752  -26.8912 H   0  0  0  0  0  0  0  0  0  0  0  0
   -0.8078   23.4355  -25.4141 H   0  0  0  0  0  0  0  0  0  0  0  0
   -0.1424   23.3099  -27.1069 H   0  0  0  0  0  0  0  0  0  0  0  0
   -1.3912   25.5211  -25.9914 H   0  0  0  0  0  0  0  0  0  0  0  0
   -3.5861   24.6525  -25.9884 H   0  0  0  0  0  0  0  0  0  0  0  0
   -3.4533   25.7929  -27.4053 H   0  0  0  0  0  0  0  0  0  0  0  0
   -4.6047   23.3411  -27.5633 H   0  0  0  0  0  0  0  0  0  0  0  0
   -3.7312   24.1804  -28.9372 H   0  0  0  0  0  0  0  0  0  0  0  0
  1  2  1  0
  2  3  2  0
  2  4  1  0
  4  5  2  0
  5  6  1  0
  6  7  2  0
  7  8  1  0
  8  9  2  0
  9 10  1  0
 10 11  1  0
 10 12  1  0
 10 13  1  0
  9 14  1  0
 14 15  2  0
 15 16  1  0
 16 17  1  0
 17 18  2  0
 17 19  1  0
 19 20  1  0
 19 21  1  0
 21 22  1  0
 22 23  1  0
 23 24  1  0
 24 25  1  0
 25 26  1  0
 26 27  2  0
 26 28  1  0
 25 29  1  0
 29 30  1  0
 16  4  1  0
 30 22  1  0
 15  6  1  0
  1 31  1  0
  5 32  1  0
  7 33  1  0
  8 34  1  0
 14 35  1  0
 19 36  1  1
 20 37  1  0
 21 38  1  0
 21 39  1  0
 23 40  1  0
 23 41  1  0
 24 42  1  0
 24 43  1  0
 25 44  1  0
 29 45  1  0
 29 46  1  0
 30 47  1  0
 30 48  1  0
M  CHG  2   1  -1  28  -1
M  END
>  <UniqueID>  (9) 
9

>  <SMILES>  (9) 
[NH-]C(=O)c1cc2ccc(C(F)(F)F)cc2n1C(=O)[C@@H](O)CN1CCC(C(=O)[O-])CC1

>  <Energy>  (9) 
98.13557375749978

>  <Genealogy>  (9) 
[NH-]C(=O)c1cc2ccc(C(F)(F)F)cc2n1C(=O)[C@@H](O)CN1CCC(C(=O)[O-])CC1 (protonated)
[NH-]C(=O)c1cc2ccc(C(F)(F)F)cc2n1C(=O)[C@@H](O)CN1CCC(C(=O)[O-])CC1 (3D coordinates assigned)
[NH-]C(=O)c1cc2ccc(C(F)(F)F)cc2n1C(=O)[C@@H](O)CN1CCC(C(=O)[O-])CC1 (nonaromatic ring conformer: 98.13557375749978 kcal/mol)

>  <smiles>  (9) 
NC(=O)c1cc2ccc(C(F)(F)F)cc2n1C(=O)[C@@H](O)CN1CCC(C(=O)O)CC1

>  <score_type>  (9) 
oracle

>  <origin>  (9) 
adg

>  <m_score__min__energy>  (9) 
-13.18

>  <m_primary>  (9) 
energy

$$$$
9:0
     RDKit          3D

 41 42  0  0  0  0  0  0  0  0999 V2000
   -3.9350   25.2810  -30.8770 N   0  0  0  0  0  0  0  0  0  0  0  0
   -5.1760   24.8860  -30.2910 C   0  0  0  0  0  0  0  0  0  0  0  0
   -5.6340   25.5380  -29.3150 O   0  0  0  0  0  0  0  0  0  0  0  0
   -5.8910   23.6980  -30.8080 C   0  0  0  0  0  0  0  0  0  0  0  0
   -7.2750   23.6290  -30.9470 C   0  0  0  0  0  0  0  0  0  0  0  0
   -7.5260   22.3900  -31.4940 C   0  0  0  0  0  0  0  0  0  0  0  0
   -8.7370   21.7820  -31.8190 C   0  0  0  0  0  0  0  0  0  0  0  0
   -8.7000   20.4770  -32.3380 C   0  0  0  0  0  0  0  0  0  0  0  0
   -7.4640   19.8040  -32.5110 C   0  0  0  0  0  0  0  0  0  0  0  0
   -7.4420   18.4140  -33.0920 C   0  0  0  0  0  0  0  0  0  0  0  0
   -6.1670   18.1720  -33.8380 C   0  0  0  0  0  0  0  0  0  0  0  0
   -5.3580   17.2870  -33.4430 O   0  0  0  0  0  0  0  0  0  0  0  0
   -5.8700   18.9230  -34.9690 O   0  0  0  0  0  0  0  0  0  0  0  0
   -6.2550   20.4510  -32.1730 C   0  0  0  0  0  0  0  0  0  0  0  0
   -6.3220   21.7580  -31.6700 C   0  0  0  0  0  0  0  0  0  0  0  0
   -5.3070   22.5510  -31.2600 N   0  0  0  0  0  0  0  0  0  0  0  0
   -3.9140   22.2010  -31.2060 C   0  0  0  0  0  0  0  0  0  0  0  0
   -3.3840   21.5920  -32.1750 O   0  0  0  0  0  0  0  0  0  0  0  0
   -3.0940   22.5470  -30.0380 C   0  0  0  0  0  0  0  0  0  0  0  0
   -2.1360   23.3610  -30.1600 O   0  0  0  0  0  0  0  0  0  0  0  0
   -3.3860   21.9660  -28.7940 O   0  0  0  0  0  0  0  0  0  0  0  0
   -2.4010   21.3270  -27.9810 C   0  0  0  0  0  0  0  0  0  0  0  0
   -1.4510   22.3420  -27.4190 C   0  0  0  0  0  0  0  0  0  0  0  0
   -0.5420   21.9690  -26.6260 O   0  0  0  0  0  0  0  0  0  0  0  0
   -1.5820   23.7270  -27.7720 N   0  0  0  0  0  0  0  0  0  0  0  0
   -0.8130   24.7820  -27.1140 C   0  0  0  0  0  0  0  0  0  0  0  0
   -0.8710   26.0440  -27.9180 C   0  0  0  0  0  0  0  0  0  0  0  0
   -1.5700   26.1000  -28.9700 O   0  0  0  0  0  0  0  0  0  0  0  0
   -0.2050   27.1800  -27.4760 O   0  0  0  0  0  0  0  0  0  0  0  0
   -3.0550   25.2920  -30.3120 H   0  0  0  0  0  0  0  0  0  0  0  0
   -8.0114   24.4003  -30.6772 H   0  0  0  0  0  0  0  0  0  0  0  0
   -9.6923   22.3076  -31.6737 H   0  0  0  0  0  0  0  0  0  0  0  0
   -9.6383   19.9728  -32.6126 H   0  0  0  0  0  0  0  0  0  0  0  0
   -7.5280   17.6806  -32.2767 H   0  0  0  0  0  0  0  0  0  0  0  0
   -8.2854   18.3094  -33.7903 H   0  0  0  0  0  0  0  0  0  0  0  0
   -5.2875   19.9435  -32.3008 H   0  0  0  0  0  0  0  0  0  0  0  0
   -2.8995   20.7998  -27.1542 H   0  0  0  0  0  0  0  0  0  0  0  0
   -1.8367   20.6124  -28.5982 H   0  0  0  0  0  0  0  0  0  0  0  0
   -2.3020   24.0060  -28.4750 H   0  0  0  0  0  0  0  0  0  0  0  0
   -1.2334   24.9684  -26.1147 H   0  0  0  0  0  0  0  0  0  0  0  0
    0.2353   24.4603  -27.0270 H   0  0  0  0  0  0  0  0  0  0  0  0
  1  2  1  0
  2  3  2  0
  2  4  1  0
  4  5  2  0
  5  6  1  0
  6  7  2  0
  7  8  1  0
  8  9  2  0
  9 10  1  0
 10 11  1  0
 11 12  2  0
 11 13  1  0
  9 14  1  0
 14 15  2  0
 15 16  1  0
 16 17  1  0
 17 18  2  0
 17 19  1  0
 19 20  2  0
 19 21  1  0
 21 22  1  0
 22 23  1  0
 23 24  2  0
 23 25  1  0
 25 26  1  0
 26 27  1  0
 27 28  2  0
 27 29  1  0
 16  4  1  0
 15  6  1  0
  1 30  1  0
  5 31  1  0
  7 32  1  0
  8 33  1  0
 10 34  1  0
 10 35  1  0
 14 36  1  0
 22 37  1  0
 22 38  1  0
 25 39  1  0
 26 40  1  0
 26 41  1  0
M  CHG  3   1  -1  13  -1  29  -1
M  END
>  <UniqueID>  (10) 
10

>  <SMILES>  (10) 
[NH-]C(=O)c1cc2ccc(CC(=O)[O-])cc2n1C(=O)C(=O)OCC(=O)NCC(=O)[O-]

>  <Energy>  (10) 
71.88525029942492

>  <Genealogy>  (10) 
[NH-]C(=O)c1cc2ccc(CC(=O)[O-])cc2n1C(=O)C(=O)OCC(=O)NCC(=O)[O-] (protonated)
[NH-]C(=O)c1cc2ccc(CC(=O)[O-])cc2n1C(=O)C(=O)OCC(=O)NCC(=O)[O-] (3D coordinates assigned)
[NH-]C(=O)c1cc2ccc(CC(=O)[O-])cc2n1C(=O)C(=O)OCC(=O)NCC(=O)[O-] (optimized conformer: 71.88525029942492 kcal/mol)

>  <smiles>  (10) 
NC(=O)c1cc2ccc(CC(=O)O)cc2n1C(=O)C(=O)OCC(=O)NCC(=O)O

>  <score_type>  (10) 
oracle

>  <origin>  (10) 
adg

>  <m_score__min__energy>  (10) 
-12.17

>  <m_primary>  (10) 
energy

$$$$
10:0
     RDKit          3D

 37 38  0  0  0  0  0  0  0  0999 V2000
   -4.2120   23.9400  -27.5360 C   0  0  0  0  0  0  0  0  0  0  0  0
   -3.2600   23.6230  -28.6160 N   0  0  1  0  0  0  0  0  0  0  0  0
   -1.8580   23.5950  -28.1380 C   0  0  0  0  0  0  0  0  0  0  0  0
   -1.0450   24.7790  -28.5940 C   0  0  0  0  0  0  0  0  0  0  0  0
   -1.5730   25.6760  -29.3030 O   0  0  0  0  0  0  0  0  0  0  0  0
    0.2890   24.8930  -28.2220 O   0  0  0  0  0  0  0  0  0  0  0  0
   -3.6100   22.3910  -29.2960 C   0  0  0  0  0  0  0  0  0  0  0  0
   -3.4460   21.2760  -28.7240 O   0  0  0  0  0  0  0  0  0  0  0  0
   -4.0930   22.4080  -30.6930 C   0  0  0  0  0  0  0  0  0  0  0  0
   -3.3150   22.0930  -31.6330 O   0  0  0  0  0  0  0  0  0  0  0  0
   -5.4620   22.7240  -30.9880 N   0  0  0  0  0  0  0  0  0  0  0  0
   -6.0940   23.9240  -30.8580 C   0  0  0  0  0  0  0  0  0  0  0  0
   -5.4540   25.1990  -30.4750 C   0  0  0  0  0  0  0  0  0  0  0  0
   -4.0360   25.3280  -30.5350 N   0  0  0  0  0  0  0  0  0  0  0  0
   -6.1450   26.1710  -30.0710 O   0  0  0  0  0  0  0  0  0  0  0  0
   -7.4390   23.8030  -31.2040 C   0  0  0  0  0  0  0  0  0  0  0  0
   -7.6070   22.4820  -31.5600 C   0  0  0  0  0  0  0  0  0  0  0  0
   -8.7480   21.8020  -31.9710 C   0  0  0  0  0  0  0  0  0  0  0  0
   -8.6320   20.4290  -32.2510 C   0  0  0  0  0  0  0  0  0  0  0  0
   -7.3830   19.7660  -32.1280 C   0  0  0  0  0  0  0  0  0  0  0  0
   -7.2840   18.2810  -32.3730 C   0  0  0  0  0  0  0  0  0  0  0  0
   -6.8800   18.0270  -33.6720 F   0  0  0  0  0  0  0  0  0  0  0  0
   -8.5110   17.6720  -32.1750 F   0  0  0  0  0  0  0  0  0  0  0  0
   -6.3630   17.7360  -31.4990 F   0  0  0  0  0  0  0  0  0  0  0  0
   -6.2510   20.4900  -31.6830 C   0  0  0  0  0  0  0  0  0  0  0  0
   -6.3970   21.8560  -31.4240 C   0  0  0  0  0  0  0  0  0  0  0  0
   -3.7279   23.7788  -26.5615 H   0  0  0  0  0  0  0  0  0  0  0  0
   -4.5255   24.9910  -27.6203 H   0  0  0  0  0  0  0  0  0  0  0  0
   -5.0930   23.2867  -27.6203 H   0  0  0  0  0  0  0  0  0  0  0  0
   -3.3340   24.4090  -29.3050 H   0  0  0  0  0  0  0  0  0  0  0  0
   -1.8651   23.5801  -27.0381 H   0  0  0  0  0  0  0  0  0  0  0  0
   -1.3883   22.6960  -28.5638 H   0  0  0  0  0  0  0  0  0  0  0  0
   -3.4930   25.6790  -29.7150 H   0  0  0  0  0  0  0  0  0  0  0  0
   -8.2037   24.5937  -31.1949 H   0  0  0  0  0  0  0  0  0  0  0  0
   -9.7118   22.3221  -32.0739 H   0  0  0  0  0  0  0  0  0  0  0  0
   -9.5194   19.8621  -32.5690 H   0  0  0  0  0  0  0  0  0  0  0  0
   -5.2809   19.9904  -31.5445 H   0  0  0  0  0  0  0  0  0  0  0  0
  1  2  1  0
  2  3  1  0
  3  4  1  0
  4  5  2  0
  4  6  1  0
  2  7  1  0
  7  8  2  0
  7  9  1  0
  9 10  2  0
  9 11  1  0
 11 12  1  0
 12 13  1  0
 13 14  1  0
 13 15  2  0
 12 16  2  0
 16 17  1  0
 17 18  2  0
 18 19  1  0
 19 20  2  0
 20 21  1  0
 21 22  1  0
 21 23  1  0
 21 24  1  0
 20 25  1  0
 25 26  2  0
 26 11  1  0
 26 17  1  0
  1 27  1  0
  1 28  1  0
  1 29  1  0
  2 30  1  6
  3 31  1  0
  3 32  1  0
 14 33  1  0
 16 34  1  0
 18 35  1  0
 19 36  1  0
 25 37  1  0
M  CHG  3   2   1   6  -1  14  -1
M  END
>  <UniqueID>  (11) 
11

>  <SMILES>  (11) 
C[N@@H+](CC(=O)[O-])C(=O)C(=O)n1c(C([NH-])=O)cc2ccc(C(F)(F)F)cc21

>  <Energy>  (11) 
80.8228301199822

>  <Genealogy>  (11) 
C[NH+](CC(=O)[O-])C(=O)C(=O)n1c(C([NH-])=O)cc2ccc(C(F)(F)F)cc21 (protonated)
C[N@@H+](CC(=O)[O-])C(=O)C(=O)n1c(C([NH-])=O)cc2ccc(C(F)(F)F)cc21 (chirality)
C[N@@H+](CC(=O)[O-])C(=O)C(=O)n1c(C([NH-])=O)cc2ccc(C(F)(F)F)cc21 (3D coordinates assigned)
C[N@@H+](CC(=O)[O-])C(=O)C(=O)n1c(C([NH-])=O)cc2ccc(C(F)(F)F)cc21 (optimized conformer: 80.8228301199822 kcal/mol)

>  <smiles>  (11) 
CN(CC(=O)O)C(=O)C(=O)n1c(C(N)=O)cc2ccc(C(F)(F)F)cc21

>  <score_type>  (11) 
oracle

>  <origin>  (11) 
adg

>  <m_score__min__energy>  (11) 
-11.25

>  <m_primary>  (11) 
energy

$$$$
11:0
     RDKit          3D

 57 58  0  0  0  0  0  0  0  0999 V2000
   -1.4270   26.3640  -26.2320 C   0  0  0  0  0  0  0  0  0  0  0  0
   -0.8630   26.8490  -27.5620 C   0  0  0  0  0  0  0  0  0  0  0  0
   -0.9730   25.8290  -28.5530 O   0  0  0  0  0  0  0  0  0  0  0  0
   -0.5470   24.5100  -28.3510 C   0  0  0  0  0  0  0  0  0  0  0  0
    0.6420   24.1740  -28.6070 O   0  0  0  0  0  0  0  0  0  0  0  0
   -1.4640   23.5730  -27.8680 O   0  0  0  0  0  0  0  0  0  0  0  0
   -1.2290   22.7590  -26.7200 C   0  0  0  0  0  0  0  0  0  0  0  0
   -0.3630   21.5480  -27.0930 C   0  0  0  0  0  0  0  0  0  0  0  0
   -1.1330   20.5110  -27.8060 N   0  0  0  0  0  0  0  0  0  0  0  0
   -2.4100   20.0510  -27.2560 C   0  0  0  0  0  0  0  0  0  0  0  0
   -0.7080   19.9620  -29.0710 C   0  0  0  0  0  0  0  0  0  0  0  0
   -0.2480   18.7890  -29.1040 O   0  0  0  0  0  0  0  0  0  0  0  0
   -0.8390   20.7000  -30.3000 N   0  0  0  0  0  0  0  0  0  0  0  0
   -0.2420   20.1630  -31.5260 C   0  0  0  0  0  0  0  0  0  0  0  0
   -1.6060   21.9450  -30.3630 C   0  0  0  0  0  0  0  0  0  0  0  0
   -2.9940   21.6500  -30.2640 O   0  0  0  0  0  0  0  0  0  0  0  0
   -3.8540   21.6360  -31.3660 C   0  0  0  0  0  0  0  0  0  0  0  0
   -3.5340   21.0240  -32.4200 O   0  0  0  0  0  0  0  0  0  0  0  0
   -5.1280   22.2870  -31.2740 N   0  0  0  0  0  0  0  0  0  0  0  0
   -5.3860   23.5330  -30.7890 C   0  0  0  0  0  0  0  0  0  0  0  0
   -4.3600   24.5210  -30.3790 C   0  0  0  0  0  0  0  0  0  0  0  0
   -3.3990   24.2060  -29.3710 N   0  0  0  0  0  0  0  0  0  0  0  0
   -4.3340   25.6600  -30.9100 O   0  0  0  0  0  0  0  0  0  0  0  0
   -6.7590   23.7760  -30.7770 C   0  0  0  0  0  0  0  0  0  0  0  0
   -7.3370   22.6240  -31.2590 C   0  0  0  0  0  0  0  0  0  0  0  0
   -8.6800   22.2950  -31.4120 C   0  0  0  0  0  0  0  0  0  0  0  0
   -8.9930   21.0060  -31.8750 C   0  0  0  0  0  0  0  0  0  0  0  0
   -7.9650   20.0810  -32.1820 C   0  0  0  0  0  0  0  0  0  0  0  0
   -8.3040   18.6950  -32.6260 C   0  0  0  0  0  0  0  0  0  0  0  0
   -6.6140   20.4440  -31.9940 C   0  0  0  0  0  0  0  0  0  0  0  0
   -6.3320   21.7390  -31.5490 C   0  0  0  0  0  0  0  0  0  0  0  0
   -0.8764   26.8375  -25.4058 H   0  0  0  0  0  0  0  0  0  0  0  0
   -2.4914   26.6332  -26.1651 H   0  0  0  0  0  0  0  0  0  0  0  0
   -1.3203   25.2712  -26.1651 H   0  0  0  0  0  0  0  0  0  0  0  0
   -1.4243   27.7358  -27.8914 H   0  0  0  0  0  0  0  0  0  0  0  0
    0.1992   27.1010  -27.4273 H   0  0  0  0  0  0  0  0  0  0  0  0
   -0.7102   23.3537  -25.9537 H   0  0  0  0  0  0  0  0  0  0  0  0
   -2.1941   22.4022  -26.3311 H   0  0  0  0  0  0  0  0  0  0  0  0
    0.4594   21.8865  -27.7403 H   0  0  0  0  0  0  0  0  0  0  0  0
    0.0177   21.1050  -26.1609 H   0  0  0  0  0  0  0  0  0  0  0  0
   -2.3633   20.0678  -26.1571 H   0  0  0  0  0  0  0  0  0  0  0  0
   -3.2173   20.7148  -27.5989 H   0  0  0  0  0  0  0  0  0  0  0  0
   -2.6086   19.0248  -27.5989 H   0  0  0  0  0  0  0  0  0  0  0  0
    0.5524   19.4485  -31.2645 H   0  0  0  0  0  0  0  0  0  0  0  0
   -1.0158   19.6510  -32.1168 H   0  0  0  0  0  0  0  0  0  0  0  0
    0.1855   20.9865  -32.1168 H   0  0  0  0  0  0  0  0  0  0  0  0
   -1.3099   22.6010  -29.5311 H   0  0  0  0  0  0  0  0  0  0  0  0
   -1.4053   22.4524  -31.3181 H   0  0  0  0  0  0  0  0  0  0  0  0
   -3.4010   23.2830  -28.8750 H   0  0  0  0  0  0  0  0  0  0  0  0
   -2.6540   24.8950  -29.1250 H   0  0  0  0  0  0  0  0  0  0  0  0
   -7.2711   24.6935  -30.4515 H   0  0  0  0  0  0  0  0  0  0  0  0
   -9.4721   23.0214  -31.1778 H   0  0  0  0  0  0  0  0  0  0  0  0
  -10.0457   20.7125  -32.0002 H   0  0  0  0  0  0  0  0  0  0  0  0
   -8.4604   18.0556  -31.7447 H   0  0  0  0  0  0  0  0  0  0  0  0
   -9.2230   18.7180  -33.2301 H   0  0  0  0  0  0  0  0  0  0  0  0
   -7.4781   18.2912  -33.2301 H   0  0  0  0  0  0  0  0  0  0  0  0
   -5.8041   19.7266  -32.1925 H   0  0  0  0  0  0  0  0  0  0  0  0
  1  2  1  0
  2  3  1  0
  3  4  1  0
  4  5  2  0
  4  6  1  0
  6  7  1  0
  7  8  1  0
  8  9  1  0
  9 10  1  0
  9 11  1  0
 11 12  2  0
 11 13  1  0
 13 14  1  0
 13 15  1  0
 15 16  1  0
 16 17  1  0
 17 18  2  0
 17 19  1  0
 19 20  1  0
 20 21  1  0
 21 22  1  0
 21 23  2  0
 20 24  2  0
 24 25  1  0
 25 26  2  0
 26 27  1  0
 27 28  2  0
 28 29  1  0
 28 30  1  0
 30 31  2  0
 31 19  1  0
 31 25  1  0
  1 32  1  0
  1 33  1  0
  1 34  1  0
  2 35  1  0
  2 36  1  0
  7 37  1  0
  7 38  1  0
  8 39  1  0
  8 40  1  0
 10 41  1  0
 10 42  1  0
 10 43  1  0
 14 44  1  0
 14 45  1  0
 14 46  1  0
 15 47  1  0
 15 48  1  0
 22 49  1  0
 22 50  1  0
 24 51  1  0
 26 52  1  0
 27 53  1  0
 29 54  1  0
 29 55  1  0
 29 56  1  0
 30 57  1  0
M  END
>  <UniqueID>  (12) 
12

>  <SMILES>  (12) 
CCOC(=O)OCCN(C)C(=O)N(C)COC(=O)n1c(C(N)=O)cc2ccc(C)cc21

>  <Energy>  (12) 
83.7681052892628

>  <Genealogy>  (12) 
CCOC(=O)OCCN(C)C(=O)N(C)COC(=O)n1c(C(N)=O)cc2ccc(C)cc21 (3D coordinates assigned)
CCOC(=O)OCCN(C)C(=O)N(C)COC(=O)n1c(C(N)=O)cc2ccc(C)cc21 (optimized conformer: 83.7681052892628 kcal/mol)

>  <smiles>  (12) 
CCOC(=O)OCCN(C)C(=O)N(C)COC(=O)n1c(C(N)=O)cc2ccc(C)cc21

>  <score_type>  (12) 
oracle

>  <origin>  (12) 
adg

>  <m_score__min__energy>  (12) 
-8.6400000000000006

>  <m_primary>  (12) 
energy

$$$$
12:0
     RDKit          3D

 52 53  0  0  0  0  0  0  0  0999 V2000
   -6.0290   17.0460  -31.5970 C   0  0  0  0  0  0  0  0  0  0  0  0
   -5.5290   16.7240  -32.9420 N   0  0  0  0  0  0  0  0  0  0  0  0
   -6.5970   16.1090  -33.7450 C   0  0  0  0  0  0  0  0  0  0  0  0
   -4.9640   17.9190  -33.6160 C   0  0  0  0  0  0  0  0  0  0  0  0
   -6.0930   18.7640  -34.2130 C   0  0  0  0  0  0  0  0  0  0  0  0
   -6.5840   19.7950  -33.2290 C   0  0  0  0  0  0  0  0  0  0  0  0
   -7.9370   19.7900  -32.8100 C   0  0  0  0  0  0  0  0  0  0  0  0
   -8.4150   20.7690  -31.9230 C   0  0  0  0  0  0  0  0  0  0  0  0
   -7.5260   21.7520  -31.4960 C   0  0  0  0  0  0  0  0  0  0  0  0
   -7.7110   22.7940  -30.6160 C   0  0  0  0  0  0  0  0  0  0  0  0
   -6.4800   23.4430  -30.5510 C   0  0  0  0  0  0  0  0  0  0  0  0
   -6.2270   24.6400  -29.7220 C   0  0  0  0  0  0  0  0  0  0  0  0
   -5.2700   24.6220  -28.6620 N   0  0  0  0  0  0  0  0  0  0  0  0
   -6.8390   25.7100  -29.9820 O   0  0  0  0  0  0  0  0  0  0  0  0
   -5.5700   22.8290  -31.3570 N   0  0  0  0  0  0  0  0  0  0  0  0
   -4.1670   23.1160  -31.4680 C   0  0  0  0  0  0  0  0  0  0  0  0
   -3.5040   22.6210  -32.4200 O   0  0  0  0  0  0  0  0  0  0  0  0
   -3.4890   23.9600  -30.4720 C   0  0  0  0  0  0  0  0  0  0  0  0
   -3.6240   25.2130  -30.5110 O   0  0  0  0  0  0  0  0  0  0  0  0
   -2.6850   23.3540  -29.4570 N   0  0  0  0  0  0  0  0  0  0  0  0
   -1.2530   23.1480  -29.6060 C   0  0  0  0  0  0  0  0  0  0  0  0
   -0.5250   24.3000  -29.0000 C   0  0  0  0  0  0  0  0  0  0  0  0
    0.6630   24.1510  -28.6040 O   0  0  0  0  0  0  0  0  0  0  0  0
   -1.1860   25.5230  -28.8420 O   0  0  0  0  0  0  0  0  0  0  0  0
   -1.2070   26.2530  -27.6170 C   0  0  0  0  0  0  0  0  0  0  0  0
   -2.2290   25.6560  -26.6470 C   0  0  0  0  0  0  0  0  0  0  0  0
   -3.1850   24.9020  -27.3400 O   0  0  0  0  0  0  0  0  0  0  0  0
   -6.2220   21.7880  -31.9200 C   0  0  0  0  0  0  0  0  0  0  0  0
   -5.7120   20.8050  -32.7720 C   0  0  0  0  0  0  0  0  0  0  0  0
   -5.3562   16.6127  -30.8423 H   0  0  0  0  0  0  0  0  0  0  0  0
   -6.0661   18.1382  -31.4713 H   0  0  0  0  0  0  0  0  0  0  0  0
   -7.0387   16.6280  -31.4713 H   0  0  0  0  0  0  0  0  0  0  0  0
   -7.3538   15.6732  -33.0762 H   0  0  0  0  0  0  0  0  0  0  0  0
   -7.0661   16.8753  -34.3796 H   0  0  0  0  0  0  0  0  0  0  0  0
   -6.1697   15.3186  -34.3796 H   0  0  0  0  0  0  0  0  0  0  0  0
   -4.4061   18.5210  -32.8836 H   0  0  0  0  0  0  0  0  0  0  0  0
   -4.2895   17.5947  -34.4222 H   0  0  0  0  0  0  0  0  0  0  0  0
   -5.7203   19.2759  -35.1125 H   0  0  0  0  0  0  0  0  0  0  0  0
   -6.9307   18.0968  -34.4641 H   0  0  0  0  0  0  0  0  0  0  0  0
   -8.6199   19.0123  -33.1826 H   0  0  0  0  0  0  0  0  0  0  0  0
   -9.4590   20.7593  -31.5766 H   0  0  0  0  0  0  0  0  0  0  0  0
   -8.6338   23.0580  -30.0787 H   0  0  0  0  0  0  0  0  0  0  0  0
   -5.1540   25.4610  -28.0500 H   0  0  0  0  0  0  0  0  0  0  0  0
   -4.6110   23.8230  -28.5390 H   0  0  0  0  0  0  0  0  0  0  0  0
   -0.9602   22.2185  -29.0958 H   0  0  0  0  0  0  0  0  0  0  0  0
   -1.0002   23.0722  -30.6739 H   0  0  0  0  0  0  0  0  0  0  0  0
   -0.2084   26.2151  -27.1573 H   0  0  0  0  0  0  0  0  0  0  0  0
   -1.4902   27.2941  -27.8314 H   0  0  0  0  0  0  0  0  0  0  0  0
   -1.7083   25.0065  -25.9279 H   0  0  0  0  0  0  0  0  0  0  0  0
   -2.7385   26.4761  -26.1198 H   0  0  0  0  0  0  0  0  0  0  0  0
   -3.1080   25.1540  -28.2990 H   0  0  0  0  0  0  0  0  0  0  0  0
   -4.6558   20.8185  -33.0790 H   0  0  0  0  0  0  0  0  0  0  0  0
  1  2  1  0
  2  3  1  0
  2  4  1  0
  4  5  1  0
  5  6  1  0
  6  7  2  0
  7  8  1  0
  8  9  2  0
  9 10  1  0
 10 11  2  0
 11 12  1  0
 12 13  1  0
 12 14  2  0
 11 15  1  0
 15 16  1  0
 16 17  2  0
 16 18  1  0
 18 19  2  0
 18 20  1  0
 20 21  1  0
 21 22  1  0
 22 23  2  0
 22 24  1  0
 24 25  1  0
 25 26  1  0
 26 27  1  0
 15 28  1  0
 28 29  2  0
 29  6  1  0
 28  9  1  0
  1 30  1  0
  1 31  1  0
  1 32  1  0
  3 33  1  0
  3 34  1  0
  3 35  1  0
  4 36  1  0
  4 37  1  0
  5 38  1  0
  5 39  1  0
  7 40  1  0
  8 41  1  0
 10 42  1  0
 13 43  1  0
 13 44  1  0
 21 45  1  0
 21 46  1  0
 25 47  1  0
 25 48  1  0
 26 49  1  0
 26 50  1  0
 27 51  1  0
 29 52  1  0
M  CHG  1  20  -1
M  END
>  <UniqueID>  (13) 
13

>  <SMILES>  (13) 
CN(C)CCc1ccc2cc(C(N)=O)n(C(=O)C(=O)[N-]CC(=O)OCCO)c2c1

>  <Energy>  (13) 
82.0291951089345

>  <Genealogy>  (13) 
CN(C)CCc1ccc2cc(C(N)=O)n(C(=O)C(=O)[N-]CC(=O)OCCO)c2c1 (protonated)
CN(C)CCc1ccc2cc(C(N)=O)n(C(=O)C(=O)[N-]CC(=O)OCCO)c2c1 (3D coordinates assigned)
CN(C)CCc1ccc2cc(C(N)=O)n(C(=O)C(=O)[N-]CC(=O)OCCO)c2c1 (optimized conformer: 82.0291951089345 kcal/mol)

>  <smiles>  (13) 
CN(C)CCc1ccc2cc(C(N)=O)n(C(=O)C(=O)NCC(=O)OCCO)c2c1

>  <score_type>  (13) 
oracle

>  <origin>  (13) 
adg

>  <m_score__min__energy>  (13) 
-9.5199999999999996

>  <m_primary>  (13) 
energy

$$$$
13:0
     RDKit          3D

 50 52  0  0  0  0  0  0  0  0999 V2000
   -0.7570   21.4300  -28.8110 C   0  0  0  0  0  0  0  0  0  0  0  0
   -1.8000   22.5680  -28.8480 C   0  0  1  0  0  0  0  0  0  0  0  0
   -1.3830   23.5580  -29.7610 O   0  0  0  0  0  0  0  0  0  0  0  0
   -3.1900   22.0450  -29.2870 C   0  0  0  0  0  0  0  0  0  0  0  0
   -3.2260   21.4330  -30.7060 C   0  0  0  0  0  0  0  0  0  0  0  0
   -4.0380   22.2720  -31.6570 C   0  0  0  0  0  0  0  0  0  0  0  0
   -3.5460   22.5900  -32.7730 O   0  0  0  0  0  0  0  0  0  0  0  0
   -5.3530   22.7260  -31.3040 N   0  0  0  0  0  0  0  0  0  0  0  0
   -5.7230   23.9660  -30.8740 C   0  0  0  0  0  0  0  0  0  0  0  0
   -4.8180   25.1080  -30.6080 C   0  0  0  0  0  0  0  0  0  0  0  0
   -3.4110   24.9230  -30.4720 N   0  0  0  0  0  0  0  0  0  0  0  0
   -5.2990   26.2680  -30.4840 O   0  0  0  0  0  0  0  0  0  0  0  0
   -7.1020   24.0200  -30.6720 C   0  0  0  0  0  0  0  0  0  0  0  0
   -7.5690   22.7700  -31.0100 C   0  0  0  0  0  0  0  0  0  0  0  0
   -8.8680   22.2720  -31.0170 C   0  0  0  0  0  0  0  0  0  0  0  0
   -9.0660   20.9520  -31.4540 C   0  0  0  0  0  0  0  0  0  0  0  0
   -7.9730   20.1650  -31.9030 C   0  0  0  0  0  0  0  0  0  0  0  0
   -8.1930   18.7400  -32.3460 C   0  0  0  0  0  0  0  0  0  0  0  0
   -7.3860   18.4350  -33.4280 F   0  0  0  0  0  0  0  0  0  0  0  0
   -9.5170   18.5750  -32.7100 F   0  0  0  0  0  0  0  0  0  0  0  0
   -7.8940   17.8580  -31.3210 F   0  0  0  0  0  0  0  0  0  0  0  0
   -6.6640   20.7010  -31.8590 C   0  0  0  0  0  0  0  0  0  0  0  0
   -6.4960   22.0100  -31.3950 C   0  0  0  0  0  0  0  0  0  0  0  0
   -1.9470   23.1710  -27.4660 C   0  0  0  0  0  0  0  0  0  0  0  0
   -1.8830   22.4310  -26.4450 O   0  0  0  0  0  0  0  0  0  0  0  0
   -2.0630   24.5900  -27.3180 N   0  0  0  0  0  0  0  0  0  0  0  0
   -0.8170   25.7130  -27.7610 S   0  0  0  0  0  0  0  0  0  0  0  0
   -1.2580   26.5260  -28.9470 O   0  0  0  0  0  0  0  0  0  0  0  0
    0.4100   24.9360  -28.1460 O   0  0  0  0  0  0  0  0  0  0  0  0
   -0.3990   26.8110  -26.4070 C   0  0  0  0  0  0  0  0  0  0  0  0
   -1.4090   26.8690  -25.2740 C   0  0  0  0  0  0  0  0  0  0  0  0
   -0.1030   26.1110  -25.0900 C   0  0  0  0  0  0  0  0  0  0  0  0
   -0.5261   21.1781  -27.7654 H   0  0  0  0  0  0  0  0  0  0  0  0
   -1.1631   20.5438  -29.3206 H   0  0  0  0  0  0  0  0  0  0  0  0
    0.1612   21.7575  -29.3206 H   0  0  0  0  0  0  0  0  0  0  0  0
   -1.5760   24.4460  -29.3580 H   0  0  0  0  0  0  0  0  0  0  0  0
   -3.5080   21.2724  -28.5715 H   0  0  0  0  0  0  0  0  0  0  0  0
   -3.8607   22.9167  -29.3053 H   0  0  0  0  0  0  0  0  0  0  0  0
   -2.1970   21.3577  -31.0874 H   0  0  0  0  0  0  0  0  0  0  0  0
   -3.6965   20.4410  -30.6384 H   0  0  0  0  0  0  0  0  0  0  0  0
   -2.8970   25.2860  -29.6390 H   0  0  0  0  0  0  0  0  0  0  0  0
   -7.6911   24.8788  -30.3179 H   0  0  0  0  0  0  0  0  0  0  0  0
   -9.7147   22.8935  -30.6901 H   0  0  0  0  0  0  0  0  0  0  0  0
  -10.0790   20.5233  -31.4483 H   0  0  0  0  0  0  0  0  0  0  0  0
   -5.7993   20.1026  -32.1819 H   0  0  0  0  0  0  0  0  0  0  0  0
    0.1113   27.5616  -27.0285 H   0  0  0  0  0  0  0  0  0  0  0  0
   -1.5775   27.8131  -24.7353 H   0  0  0  0  0  0  0  0  0  0  0  0
   -2.4750   26.6187  -25.1688 H   0  0  0  0  0  0  0  0  0  0  0  0
    0.6732   26.5070  -24.4187 H   0  0  0  0  0  0  0  0  0  0  0  0
    0.1672   25.0857  -24.7971 H   0  0  0  0  0  0  0  0  0  0  0  0
  1  2  1  0
  2  3  1  6
  2  4  1  0
  4  5  1  0
  5  6  1  0
  6  7  2  0
  6  8  1  0
  8  9  1  0
  9 10  1  0
 10 11  1  0
 10 12  2  0
  9 13  2  0
 13 14  1  0
 14 15  2  0
 15 16  1  0
 16 17  2  0
 17 18  1  0
 18 19  1  0
 18 20  1  0
 18 21  1  0
 17 22  1  0
 22 23  2  0
  2 24  1  0
 24 25  2  0
 24 26  1  0
 26 27  1  0
 27 28  2  0
 27 29  2  0
 27 30  1  0
 30 31  1  0
 31 32  1  0
 23  8  1  0
 32 30  1  0
 23 14  1  0
  1 33  1  0
  1 34  1  0
  1 35  1  0
  3 36  1  0
  4 37  1  0
  4 38  1  0
  5 39  1  0
  5 40  1  0
 11 41  1  0
 13 42  1  0
 15 43  1  0
 16 44  1  0
 22 45  1  0
 30 46  1  0
 31 47  1  0
 31 48  1  0
 32 49  1  0
 32 50  1  0
M  CHG  2  11  -1  26  -1
M  END
>  <UniqueID>  (14) 
14

>  <SMILES>  (14) 
C[C@@](O)(CCC(=O)n1c(C([NH-])=O)cc2ccc(C(F)(F)F)cc21)C(=O)[N-]S(=O)(=O)C1CC1

>  <Energy>  (14) 
351.5958666384355

>  <Genealogy>  (14) 
C[C@@](O)(CCC(=O)n1c(C([NH-])=O)cc2ccc(C(F)(F)F)cc21)C(=O)[N-]S(=O)(=O)C1CC1 (protonated)
C[C@@](O)(CCC(=O)n1c(C([NH-])=O)cc2ccc(C(F)(F)F)cc21)C(=O)[N-]S(=O)(=O)C1CC1 (3D coordinates assigned)
C[C@@](O)(CCC(=O)n1c(C([NH-])=O)cc2ccc(C(F)(F)F)cc21)C(=O)[N-]S(=O)(=O)C1CC1 (nonaromatic ring conformer: 351.5958666384355 kcal/mol)

>  <smiles>  (14) 
C[C@@](O)(CCC(=O)n1c(C(N)=O)cc2ccc(C(F)(F)F)cc21)C(=O)NS(=O)(=O)C1CC1

>  <score_type>  (14) 
oracle

>  <origin>  (14) 
adg

>  <m_score__min__energy>  (14) 
-12.83

>  <m_primary>  (14) 
energy

$$$$
14:0
     RDKit          3D

 43 46  0  0  0  0  0  0  0  0999 V2000
   -6.1290   12.0730  -33.9530 C   0  0  0  0  0  0  0  0  0  0  0  0
   -5.0830   13.1820  -33.8250 C   0  0  0  0  0  0  0  0  0  0  0  0
   -5.2180   14.3370  -34.6520 O   0  0  0  0  0  0  0  0  0  0  0  0
   -5.5570   15.6160  -34.1850 C   0  0  0  0  0  0  0  0  0  0  0  0
   -6.8490   15.9380  -33.7300 C   0  0  0  0  0  0  0  0  0  0  0  0
   -7.1340   17.2280  -33.2710 C   0  0  0  0  0  0  0  0  0  0  0  0
   -6.1370   18.2200  -33.2650 C   0  0  0  0  0  0  0  0  0  0  0  0
   -6.4360   19.5880  -32.7730 C   0  0  0  0  0  0  0  0  0  0  0  0
   -7.7670   20.0830  -32.7920 C   0  0  0  0  0  0  0  0  0  0  0  0
   -8.0620   21.3710  -32.3140 C   0  0  0  0  0  0  0  0  0  0  0  0
   -7.0130   22.1400  -31.8210 C   0  0  0  0  0  0  0  0  0  0  0  0
   -7.0190   23.4140  -31.3010 C   0  0  0  0  0  0  0  0  0  0  0  0
   -5.6910   23.6870  -30.9860 C   0  0  0  0  0  0  0  0  0  0  0  0
   -5.2540   24.9280  -30.3260 C   0  0  0  0  0  0  0  0  0  0  0  0
   -5.7700   25.3030  -29.0510 N   0  0  0  0  0  0  0  0  0  0  0  0
   -4.3660   25.6360  -30.8680 O   0  0  0  0  0  0  0  0  0  0  0  0
   -4.8950   22.6180  -31.2740 N   0  0  0  0  0  0  0  0  0  0  0  0
   -3.5030   22.4560  -30.9480 C   0  0  0  0  0  0  0  0  0  0  0  0
   -2.6440   22.3350  -31.8590 O   0  0  0  0  0  0  0  0  0  0  0  0
   -2.9620   22.4530  -29.2760 Cl  0  0  0  0  0  0  0  0  0  0  0  0
   -5.7220   21.6790  -31.7870 C   0  0  0  0  0  0  0  0  0  0  0  0
   -5.3980   20.4070  -32.2710 C   0  0  0  0  0  0  0  0  0  0  0  0
   -4.8520   17.8950  -33.7300 C   0  0  0  0  0  0  0  0  0  0  0  0
   -4.5680   16.6040  -34.1820 C   0  0  0  0  0  0  0  0  0  0  0  0
   -3.6730   12.8380  -33.3760 C   0  0  0  0  0  0  0  0  0  0  0  0
   -4.6390   13.5140  -32.4090 C   0  0  0  0  0  0  0  0  0  0  0  0
   -6.4392   11.7441  -32.9502 H   0  0  0  0  0  0  0  0  0  0  0  0
   -7.0033   12.4550  -34.5004 H   0  0  0  0  0  0  0  0  0  0  0  0
   -5.6966   11.2225  -34.5004 H   0  0  0  0  0  0  0  0  0  0  0  0
   -7.6383   15.1718  -33.7353 H   0  0  0  0  0  0  0  0  0  0  0  0
   -8.1455   17.4686  -32.9120 H   0  0  0  0  0  0  0  0  0  0  0  0
   -8.5765   19.4507  -33.1855 H   0  0  0  0  0  0  0  0  0  0  0  0
   -9.0911   21.7593  -32.3292 H   0  0  0  0  0  0  0  0  0  0  0  0
   -7.8874   24.0751  -31.1637 H   0  0  0  0  0  0  0  0  0  0  0  0
   -6.3460   24.6360  -28.4910 H   0  0  0  0  0  0  0  0  0  0  0  0
   -5.4920   26.2110  -28.6190 H   0  0  0  0  0  0  0  0  0  0  0  0
   -4.3572   20.0511  -32.2613 H   0  0  0  0  0  0  0  0  0  0  0  0
   -4.0639   18.6623  -33.7383 H   0  0  0  0  0  0  0  0  0  0  0  0
   -3.5560   16.3625  -34.5391 H   0  0  0  0  0  0  0  0  0  0  0  0
   -3.3856   11.7874  -33.2220 H   0  0  0  0  0  0  0  0  0  0  0  0
   -2.6619   13.0598  -33.7481 H   0  0  0  0  0  0  0  0  0  0  0  0
   -5.0491   12.9514  -31.5574 H   0  0  0  0  0  0  0  0  0  0  0  0
   -4.6147   14.4258  -31.7941 H   0  0  0  0  0  0  0  0  0  0  0  0
  1  2  1  0
  2  3  1  0
  3  4  1  0
  4  5  2  0
  5  6  1  0
  6  7  2  0
  7  8  1  0
  8  9  2  0
  9 10  1  0
 10 11  2  0
 11 12  1  0
 12 13  2  0
 13 14  1  0
 14 15  1  0
 14 16  2  0
 13 17  1  0
 17 18  1  0
 18 19  2  0
 18 20  1  0
 17 21  1  0
 21 22  2  0
  7 23  1  0
 23 24  2  0
  2 25  1  0
 25 26  1  0
 26  2  1  0
 24  4  1  0
 22  8  1  0
 21 11  1  0
  1 27  1  0
  1 28  1  0
  1 29  1  0
  5 30  1  0
  6 31  1  0
  9 32  1  0
 10 33  1  0
 12 34  1  0
 15 35  1  0
 15 36  1  0
 22 37  1  0
 23 38  1  0
 24 39  1  0
 25 40  1  0
 25 41  1  0
 26 42  1  0
 26 43  1  0
M  END
>  <UniqueID>  (15) 
15

>  <SMILES>  (15) 
CC1(Oc2ccc(-c3ccc4cc(C(N)=O)n(C(=O)Cl)c4c3)cc2)CC1

>  <Energy>  (15) 
361.8841146073289

>  <Genealogy>  (15) 
CC1(Oc2ccc(-c3ccc4cc(C(N)=O)n(C(=O)Cl)c4c3)cc2)CC1 (3D coordinates assigned)
CC1(Oc2ccc(-c3ccc4cc(C(N)=O)n(C(=O)Cl)c4c3)cc2)CC1 (nonaromatic ring conformer: 361.8841146073289 kcal/mol)

>  <smiles>  (15) 
CC1(Oc2ccc(-c3ccc4cc(C(N)=O)n(C(=O)Cl)c4c3)cc2)CC1

>  <score_type>  (15) 
oracle

>  <origin>  (15) 
adg

>  <m_score__min__energy>  (15) 
-9.7400000000000002

>  <m_primary>  (15) 
energy

$$$$
15:0
     RDKit          3D

 44 45  0  0  0  0  0  0  0  0999 V2000
   -0.4870   22.5700  -29.5180 C   0  0  0  0  0  0  0  0  0  0  0  0
   -0.3570   21.2810  -30.3210 C   0  0  0  0  0  0  0  0  0  0  0  0
   -1.0820   21.3750  -31.5450 O   0  0  0  0  0  0  0  0  0  0  0  0
   -2.3110   20.7410  -31.7690 C   0  0  0  0  0  0  0  0  0  0  0  0
   -2.3430   19.5990  -32.3090 O   0  0  0  0  0  0  0  0  0  0  0  0
   -3.5370   21.3890  -31.3800 N   0  0  0  0  0  0  0  0  0  0  0  0
   -3.7400   21.7710  -30.0070 C   0  0  0  0  0  0  0  0  0  0  0  0
   -3.1070   21.1830  -29.0870 O   0  0  0  0  0  0  0  0  0  0  0  0
   -4.6280   22.8080  -29.6950 O   0  0  0  0  0  0  0  0  0  0  0  0
   -4.2710   23.9310  -28.8920 C   0  0  0  0  0  0  0  0  0  0  0  0
   -3.4940   24.9230  -29.6980 C   0  0  0  0  0  0  0  0  0  0  0  0
   -2.3440   25.2750  -29.3240 O   0  0  0  0  0  0  0  0  0  0  0  0
   -4.0310   25.4460  -30.8670 O   0  0  0  0  0  0  0  0  0  0  0  0
   -4.5510   21.6780  -32.3660 C   0  0  0  0  0  0  0  0  0  0  0  0
   -4.2770   22.4160  -33.3510 O   0  0  0  0  0  0  0  0  0  0  0  0
   -5.8780   21.1390  -32.2370 N   0  0  0  0  0  0  0  0  0  0  0  0
   -7.0370   21.8290  -32.0530 C   0  0  0  0  0  0  0  0  0  0  0  0
   -7.1490   23.2800  -31.8000 C   0  0  0  0  0  0  0  0  0  0  0  0
   -5.9900   24.1100  -31.7000 N   0  0  0  0  0  0  0  0  0  0  0  0
   -8.2880   23.7900  -31.6190 O   0  0  0  0  0  0  0  0  0  0  0  0
   -8.1330   20.9700  -32.1030 C   0  0  0  0  0  0  0  0  0  0  0  0
   -7.6030   19.7180  -32.3200 C   0  0  0  0  0  0  0  0  0  0  0  0
   -8.2390   18.4880  -32.4620 C   0  0  0  0  0  0  0  0  0  0  0  0
   -7.4420   17.3590  -32.7120 C   0  0  0  0  0  0  0  0  0  0  0  0
   -6.0370   17.4840  -32.8400 C   0  0  0  0  0  0  0  0  0  0  0  0
   -5.1910   16.2680  -33.0800 C   0  0  0  0  0  0  0  0  0  0  0  0
   -5.4240   18.7460  -32.6810 C   0  0  0  0  0  0  0  0  0  0  0  0
   -6.2410   19.8480  -32.4040 C   0  0  0  0  0  0  0  0  0  0  0  0
   -0.4634   22.3365  -28.4433 H   0  0  0  0  0  0  0  0  0  0  0  0
    0.3479   23.2420  -29.7656 H   0  0  0  0  0  0  0  0  0  0  0  0
   -1.4393   23.0618  -29.7656 H   0  0  0  0  0  0  0  0  0  0  0  0
    0.7049   21.0995  -30.5432 H   0  0  0  0  0  0  0  0  0  0  0  0
   -0.7698   20.4516  -29.7280 H   0  0  0  0  0  0  0  0  0  0  0  0
   -5.1854   24.4098  -28.5117 H   0  0  0  0  0  0  0  0  0  0  0  0
   -3.6478   23.5863  -28.0537 H   0  0  0  0  0  0  0  0  0  0  0  0
   -6.0950   25.1390  -31.5680 H   0  0  0  0  0  0  0  0  0  0  0  0
   -5.0320   23.6990  -31.6590 H   0  0  0  0  0  0  0  0  0  0  0  0
   -9.1948   21.2355  -31.9927 H   0  0  0  0  0  0  0  0  0  0  0  0
   -9.3327   18.4029  -32.3809 H   0  0  0  0  0  0  0  0  0  0  0  0
   -7.9128   16.3696  -32.8092 H   0  0  0  0  0  0  0  0  0  0  0  0
   -4.8896   15.8347  -32.1149 H   0  0  0  0  0  0  0  0  0  0  0  0
   -5.7689   15.5260  -33.6505 H   0  0  0  0  0  0  0  0  0  0  0  0
   -4.2944   16.5519  -33.6505 H   0  0  0  0  0  0  0  0  0  0  0  0
   -4.3337   18.8599  -32.7724 H   0  0  0  0  0  0  0  0  0  0  0  0
  1  2  1  0
  2  3  1  0
  3  4  1  0
  4  5  2  0
  4  6  1  0
  6  7  1  0
  7  8  2  0
  7  9  1  0
  9 10  1  0
 10 11  1  0
 11 12  2  0
 11 13  1  0
  6 14  1  0
 14 15  2  0
 14 16  1  0
 16 17  1  0
 17 18  1  0
 18 19  1  0
 18 20  2  0
 17 21  2  0
 21 22  1  0
 22 23  2  0
 23 24  1  0
 24 25  2  0
 25 26  1  0
 25 27  1  0
 27 28  2  0
 28 16  1  0
 28 22  1  0
  1 29  1  0
  1 30  1  0
  1 31  1  0
  2 32  1  0
  2 33  1  0
 10 34  1  0
 10 35  1  0
 19 36  1  0
 19 37  1  0
 21 38  1  0
 23 39  1  0
 24 40  1  0
 26 41  1  0
 26 42  1  0
 26 43  1  0
 27 44  1  0
M  CHG  1  13  -1
M  END
>  <UniqueID>  (16) 
16

>  <SMILES>  (16) 
CCOC(=O)N(C(=O)OCC(=O)[O-])C(=O)n1c(C(N)=O)cc2ccc(C)cc21

>  <Energy>  (16) 
80.21628536246884

>  <Genealogy>  (16) 
CCOC(=O)N(C(=O)OCC(=O)[O-])C(=O)n1c(C(N)=O)cc2ccc(C)cc21 (protonated)
CCOC(=O)N(C(=O)OCC(=O)[O-])C(=O)n1c(C(N)=O)cc2ccc(C)cc21 (3D coordinates assigned)
CCOC(=O)N(C(=O)OCC(=O)[O-])C(=O)n1c(C(N)=O)cc2ccc(C)cc21 (optimized conformer: 80.21628536246884 kcal/mol)

>  <smiles>  (16) 
CCOC(=O)N(C(=O)OCC(=O)O)C(=O)n1c(C(N)=O)cc2ccc(C)cc21

>  <score_type>  (16) 
oracle

>  <origin>  (16) 
adg

>  <m_score__min__energy>  (16) 
-10.369999999999999

>  <m_primary>  (16) 
energy

$$$$
16:0
     RDKit          3D

 45 46  0  0  0  0  0  0  0  0999 V2000
   -0.4160   27.5150  -27.0340 C   0  0  0  0  0  0  0  0  0  0  0  0
   -0.2220   26.1650  -27.4350 O   0  0  0  0  0  0  0  0  0  0  0  0
   -1.2230   25.4110  -28.0530 C   0  0  0  0  0  0  0  0  0  0  0  0
   -1.3000   25.3490  -29.3110 O   0  0  0  0  0  0  0  0  0  0  0  0
   -2.1840   24.6330  -27.2110 C   0  0  0  0  0  0  0  0  0  0  0  0
   -2.1080   23.1400  -27.5490 C   0  0  0  0  0  0  0  0  0  0  0  0
   -1.9300   22.9440  -28.9970 N   0  0  0  0  0  0  0  0  0  0  0  0
   -2.1800   21.5530  -29.4240 C   0  0  0  0  0  0  0  0  0  0  0  0
   -3.5090   21.3510  -30.1830 C   0  0  0  0  0  0  0  0  0  0  0  0
   -3.9470   22.5360  -31.0080 C   0  0  0  0  0  0  0  0  0  0  0  0
   -3.0670   23.2220  -31.5940 O   0  0  0  0  0  0  0  0  0  0  0  0
   -5.3260   22.9340  -31.1040 N   0  0  0  0  0  0  0  0  0  0  0  0
   -5.8530   24.1600  -30.8190 C   0  0  0  0  0  0  0  0  0  0  0  0
   -5.0910   25.3730  -30.4420 C   0  0  0  0  0  0  0  0  0  0  0  0
   -3.7190   25.2990  -30.0660 N   0  0  0  0  0  0  0  0  0  0  0  0
   -5.6580   26.4990  -30.4770 O   0  0  0  0  0  0  0  0  0  0  0  0
   -7.2380   24.1440  -30.9750 C   0  0  0  0  0  0  0  0  0  0  0  0
   -7.5480   22.8580  -31.3530 C   0  0  0  0  0  0  0  0  0  0  0  0
   -8.7870   22.2770  -31.6090 C   0  0  0  0  0  0  0  0  0  0  0  0
   -8.8180   20.9110  -31.9340 C   0  0  0  0  0  0  0  0  0  0  0  0
   -7.6210   20.1570  -31.9950 C   0  0  0  0  0  0  0  0  0  0  0  0
   -7.6730   18.6870  -32.2850 C   0  0  0  0  0  0  0  0  0  0  0  0
   -6.3840   20.7760  -31.7090 C   0  0  0  0  0  0  0  0  0  0  0  0
   -6.3790   22.1440  -31.4150 C   0  0  0  0  0  0  0  0  0  0  0  0
   -0.4244   27.5736  -25.9356 H   0  0  0  0  0  0  0  0  0  0  0  0
    0.4022   28.1357  -27.4281 H   0  0  0  0  0  0  0  0  0  0  0  0
   -1.3759   27.8802  -27.4281 H   0  0  0  0  0  0  0  0  0  0  0  0
   -1.9338   24.7769  -26.1495 H   0  0  0  0  0  0  0  0  0  0  0  0
   -3.2042   24.9916  -27.4125 H   0  0  0  0  0  0  0  0  0  0  0  0
   -1.2563   22.6918  -27.0163 H   0  0  0  0  0  0  0  0  0  0  0  0
   -3.0472   22.6585  -27.2392 H   0  0  0  0  0  0  0  0  0  0  0  0
   -2.5490   23.5990  -29.5240 H   0  0  0  0  0  0  0  0  0  0  0  0
   -0.9410   23.1730  -29.2500 H   0  0  0  0  0  0  0  0  0  0  0  0
   -1.3561   21.2415  -30.0829 H   0  0  0  0  0  0  0  0  0  0  0  0
   -2.2457   20.9488  -28.5071 H   0  0  0  0  0  0  0  0  0  0  0  0
   -3.3923   20.4887  -30.8559 H   0  0  0  0  0  0  0  0  0  0  0  0
   -4.2850   21.1993  -29.4183 H   0  0  0  0  0  0  0  0  0  0  0  0
   -2.9620   25.2950  -30.7850 H   0  0  0  0  0  0  0  0  0  0  0  0
   -7.9353   24.9819  -30.8272 H   0  0  0  0  0  0  0  0  0  0  0  0
   -9.7126   22.8692  -31.5583 H   0  0  0  0  0  0  0  0  0  0  0  0
   -9.7811   20.4223  -32.1431 H   0  0  0  0  0  0  0  0  0  0  0  0
   -7.6928   18.1270  -31.3384 H   0  0  0  0  0  0  0  0  0  0  0  0
   -8.5798   18.4595  -32.8647 H   0  0  0  0  0  0  0  0  0  0  0  0
   -6.7846   18.3960  -32.8647 H   0  0  0  0  0  0  0  0  0  0  0  0
   -5.4485   20.1974  -31.7172 H   0  0  0  0  0  0  0  0  0  0  0  0
  1  2  1  0
  2  3  1  0
  3  4  2  0
  3  5  1  0
  5  6  1  0
  6  7  1  0
  7  8  1  0
  8  9  1  0
  9 10  1  0
 10 11  2  0
 10 12  1  0
 12 13  1  0
 13 14  1  0
 14 15  1  0
 14 16  2  0
 13 17  2  0
 17 18  1  0
 18 19  2  0
 19 20  1  0
 20 21  2  0
 21 22  1  0
 21 23  1  0
 23 24  2  0
 24 12  1  0
 24 18  1  0
  1 25  1  0
  1 26  1  0
  1 27  1  0
  5 28  1  0
  5 29  1  0
  6 30  1  0
  6 31  1  0
  7 32  1  0
  7 33  1  0
  8 34  1  0
  8 35  1  0
  9 36  1  0
  9 37  1  0
 15 38  1  0
 17 39  1  0
 19 40  1  0
 20 41  1  0
 22 42  1  0
 22 43  1  0
 22 44  1  0
 23 45  1  0
M  CHG  2   7   1  15  -1
M  END
>  <UniqueID>  (17) 
17

>  <SMILES>  (17) 
COC(=O)CC[NH2+]CCC(=O)n1c(C([NH-])=O)cc2ccc(C)cc21

>  <Energy>  (17) 
76.64009089752292

>  <Genealogy>  (17) 
COC(=O)CC[NH2+]CCC(=O)n1c(C([NH-])=O)cc2ccc(C)cc21 (protonated)
COC(=O)CC[NH2+]CCC(=O)n1c(C([NH-])=O)cc2ccc(C)cc21 (3D coordinates assigned)
COC(=O)CC[NH2+]CCC(=O)n1c(C([NH-])=O)cc2ccc(C)cc21 (optimized conformer: 76.64009089752292 kcal/mol)

>  <smiles>  (17) 
COC(=O)CCNCCC(=O)n1c(C(N)=O)cc2ccc(C)cc21

>  <score_type>  (17) 
oracle

>  <origin>  (17) 
adg

>  <m_score__min__energy>  (17) 
-9.0199999999999996

>  <m_primary>  (17) 
energy

$$$$
17:0
     RDKit          3D

 48 49  0  0  0  0  0  0  0  0999 V2000
   -1.1650   20.1700  -32.9270 C   0  0  0  0  0  0  0  0  0  0  0  0
   -2.5620   20.5720  -32.4200 C   0  0  0  0  0  0  0  0  0  0  0  0
   -3.1800   21.5710  -33.4100 C   0  0  0  0  0  0  0  0  0  0  0  0
   -2.4680   21.2370  -31.0340 C   0  0  0  0  0  0  0  0  0  0  0  0
   -3.4310   19.4310  -32.3750 O   0  0  0  0  0  0  0  0  0  0  0  0
   -4.3800   19.0680  -33.3410 C   0  0  0  0  0  0  0  0  0  0  0  0
   -4.0300   18.7750  -34.5160 O   0  0  0  0  0  0  0  0  0  0  0  0
   -5.7720   19.0470  -32.9880 N   0  0  0  0  0  0  0  0  0  0  0  0
   -6.6570   18.0210  -33.1360 C   0  0  0  0  0  0  0  0  0  0  0  0
   -6.3150   16.6490  -33.5750 C   0  0  0  0  0  0  0  0  0  0  0  0
   -4.9520   16.2500  -33.7320 N   0  0  0  0  0  0  0  0  0  0  0  0
   -7.2290   15.8250  -33.8450 O   0  0  0  0  0  0  0  0  0  0  0  0
   -7.9300   18.4120  -32.7240 C   0  0  0  0  0  0  0  0  0  0  0  0
   -7.7940   19.7170  -32.3120 C   0  0  0  0  0  0  0  0  0  0  0  0
   -8.7480   20.6030  -31.8190 C   0  0  0  0  0  0  0  0  0  0  0  0
   -8.3320   21.9070  -31.4970 C   0  0  0  0  0  0  0  0  0  0  0  0
   -6.9800   22.2990  -31.6660 C   0  0  0  0  0  0  0  0  0  0  0  0
   -6.5390   23.6390  -31.3760 N   0  0  0  0  0  0  0  0  0  0  0  0
   -5.7730   24.0720  -30.1950 C   0  0  0  0  0  0  0  0  0  0  0  0
   -6.2480   25.4120  -29.5920 C   0  0  0  0  0  0  0  0  0  0  0  0
   -5.7540   26.4970  -30.3320 O   0  0  0  0  0  0  0  0  0  0  0  0
   -4.2630   24.0610  -30.4830 C   0  0  0  0  0  0  0  0  0  0  0  0
   -3.7800   25.3470  -30.7590 O   0  0  0  0  0  0  0  0  0  0  0  0
   -6.0490   21.3770  -32.1910 C   0  0  0  0  0  0  0  0  0  0  0  0
   -6.4850   20.0790  -32.4830 C   0  0  0  0  0  0  0  0  0  0  0  0
   -0.5041   19.9798  -32.0685 H   0  0  0  0  0  0  0  0  0  0  0  0
   -1.2448   19.2584  -33.5374 H   0  0  0  0  0  0  0  0  0  0  0  0
   -0.7480   20.9846  -33.5374 H   0  0  0  0  0  0  0  0  0  0  0  0
   -3.6791   22.3778  -32.8533 H   0  0  0  0  0  0  0  0  0  0  0  0
   -2.3879   21.9978  -34.0428 H   0  0  0  0  0  0  0  0  0  0  0  0
   -3.9155   21.0527  -34.0428 H   0  0  0  0  0  0  0  0  0  0  0  0
   -2.5762   20.4712  -30.2518 H   0  0  0  0  0  0  0  0  0  0  0  0
   -1.4910   21.7317  -30.9302 H   0  0  0  0  0  0  0  0  0  0  0  0
   -3.2696   21.9831  -30.9302 H   0  0  0  0  0  0  0  0  0  0  0  0
   -4.7230   15.2930  -34.0800 H   0  0  0  0  0  0  0  0  0  0  0  0
   -4.1670   16.8850  -33.4650 H   0  0  0  0  0  0  0  0  0  0  0  0
   -8.8479   17.8058  -32.7276 H   0  0  0  0  0  0  0  0  0  0  0  0
   -9.7948   20.2926  -31.6855 H   0  0  0  0  0  0  0  0  0  0  0  0
   -9.0638   22.6312  -31.1096 H   0  0  0  0  0  0  0  0  0  0  0  0
   -6.5700   24.3210  -32.1690 H   0  0  0  0  0  0  0  0  0  0  0  0
   -5.9757   23.3289  -29.4097 H   0  0  0  0  0  0  0  0  0  0  0  0
   -7.3476   25.4411  -29.6004 H   0  0  0  0  0  0  0  0  0  0  0  0
   -5.8696   25.4877  -28.5619 H   0  0  0  0  0  0  0  0  0  0  0  0
   -4.9820   26.8600  -29.8240 H   0  0  0  0  0  0  0  0  0  0  0  0
   -3.7351   23.6627  -29.6040 H   0  0  0  0  0  0  0  0  0  0  0  0
   -4.0865   23.4307  -31.3671 H   0  0  0  0  0  0  0  0  0  0  0  0
   -4.2310   25.6500  -31.5900 H   0  0  0  0  0  0  0  0  0  0  0  0
   -5.0039   21.6718  -32.3668 H   0  0  0  0  0  0  0  0  0  0  0  0
  1  2  1  0
  2  3  1  0
  2  4  1  0
  2  5  1  0
  5  6  1  0
  6  7  2  0
  6  8  1  0
  8  9  1  0
  9 10  1  0
 10 11  1  0
 10 12  2  0
  9 13  2  0
 13 14  1  0
 14 15  2  0
 15 16  1  0
 16 17  2  0
 17 18  1  0
 18 19  1  0
 19 20  1  0
 20 21  1  0
 19 22  1  0
 22 23  1  0
 17 24  1  0
 24 25  2  0
 25  8  1  0
 25 14  1  0
  1 26  1  0
  1 27  1  0
  1 28  1  0
  3 29  1  0
  3 30  1  0
  3 31  1  0
  4 32  1  0
  4 33  1  0
  4 34  1  0
 11 35  1  0
 11 36  1  0
 13 37  1  0
 15 38  1  0
 16 39  1  0
 18 40  1  0
 19 41  1  0
 20 42  1  0
 20 43  1  0
 21 44  1  0
 22 45  1  0
 22 46  1  0
 23 47  1  0
 24 48  1  0
M  END
>  <UniqueID>  (18) 
18

>  <SMILES>  (18) 
CC(C)(C)OC(=O)n1c(C(N)=O)cc2ccc(NC(CO)CO)cc21

>  <Energy>  (18) 
85.60904024434667

>  <Genealogy>  (18) 
CC(C)(C)OC(=O)n1c(C(N)=O)cc2ccc(NC(CO)CO)cc21 (3D coordinates assigned)
CC(C)(C)OC(=O)n1c(C(N)=O)cc2ccc(NC(CO)CO)cc21 (optimized conformer: 85.60904024434667 kcal/mol)

>  <smiles>  (18) 
CC(C)(C)OC(=O)n1c(C(N)=O)cc2ccc(NC(CO)CO)cc21

>  <score_type>  (18) 
oracle

>  <origin>  (18) 
adg

>  <m_score__min__energy>  (18) 
-8.3100000000000005

>  <m_primary>  (18) 
energy

$$$$
18:0
     RDKit          3D

 47 48  0  0  0  0  0  0  0  0999 V2000
   -3.4730   24.7990  -30.0640 N   0  0  0  0  0  0  0  0  0  0  0  0
   -4.8200   24.8630  -30.5340 C   0  0  0  0  0  0  0  0  0  0  0  0
   -5.3330   25.9910  -30.7550 O   0  0  0  0  0  0  0  0  0  0  0  0
   -5.6390   23.6460  -30.7360 C   0  0  0  0  0  0  0  0  0  0  0  0
   -7.0330   23.6480  -30.6990 C   0  0  0  0  0  0  0  0  0  0  0  0
   -7.4090   22.3670  -31.0350 C   0  0  0  0  0  0  0  0  0  0  0  0
   -8.6770   21.8150  -31.1830 C   0  0  0  0  0  0  0  0  0  0  0  0
   -8.7680   20.4750  -31.6000 C   0  0  0  0  0  0  0  0  0  0  0  0
   -7.5990   19.7290  -31.9010 C   0  0  0  0  0  0  0  0  0  0  0  0
   -7.7040   18.2850  -32.3210 C   0  0  0  0  0  0  0  0  0  0  0  0
   -6.9660   17.4750  -31.4750 F   0  0  0  0  0  0  0  0  0  0  0  0
   -9.0300   17.8940  -32.2750 F   0  0  0  0  0  0  0  0  0  0  0  0
   -7.2270   18.1150  -33.6090 F   0  0  0  0  0  0  0  0  0  0  0  0
   -6.3290   20.3260  -31.7260 C   0  0  0  0  0  0  0  0  0  0  0  0
   -6.2700   21.6450  -31.2700 C   0  0  0  0  0  0  0  0  0  0  0  0
   -5.1760   22.4100  -31.0690 N   0  0  0  0  0  0  0  0  0  0  0  0
   -3.8170   22.0200  -31.3070 C   0  0  0  0  0  0  0  0  0  0  0  0
   -3.0600   22.7760  -31.9710 O   0  0  0  0  0  0  0  0  0  0  0  0
   -3.2940   20.7190  -30.7660 C   0  0  0  0  0  0  0  0  0  0  0  0
   -2.1990   20.9420  -29.8140 N   0  0  0  0  0  0  0  0  0  0  0  0
   -2.2480   20.3110  -28.4860 C   0  0  0  0  0  0  0  0  0  0  0  0
   -2.9310   21.2270  -27.4740 C   0  0  0  0  0  0  0  0  0  0  0  0
   -3.2580   22.4480  -28.0780 O   0  0  0  0  0  0  0  0  0  0  0  0
   -1.1040   21.8100  -30.1680 C   0  0  0  0  0  0  0  0  0  0  0  0
   -0.1810   21.3900  -30.9210 O   0  0  0  0  0  0  0  0  0  0  0  0
   -1.0650   23.1210  -29.6800 O   0  0  0  0  0  0  0  0  0  0  0  0
   -0.0030   23.6120  -28.8740 C   0  0  0  0  0  0  0  0  0  0  0  0
   -0.5200   23.9650  -27.6150 O   0  0  0  0  0  0  0  0  0  0  0  0
   -1.5080   25.3410  -27.8090 P   0  0  0  0  0  0  0  0  0  0  0  0
   -1.1730   26.3430  -26.7300 O   0  0  0  0  0  0  0  0  0  0  0  0
   -1.2320   26.0450  -29.3240 O   0  0  0  0  0  0  0  0  0  0  0  0
   -3.1400   24.9120  -27.6740 O   0  0  0  0  0  0  0  0  0  0  0  0
   -2.8970   25.6680  -30.0170 H   0  0  0  0  0  0  0  0  0  0  0  0
   -3.0830   23.9310  -29.6390 H   0  0  0  0  0  0  0  0  0  0  0  0
   -7.6922   24.4936  -30.4535 H   0  0  0  0  0  0  0  0  0  0  0  0
   -9.5808   22.4083  -30.9801 H   0  0  0  0  0  0  0  0  0  0  0  0
   -9.7558   20.0001  -31.6938 H   0  0  0  0  0  0  0  0  0  0  0  0
   -5.4086   19.7645  -31.9440 H   0  0  0  0  0  0  0  0  0  0  0  0
   -4.1111   20.1884  -30.2553 H   0  0  0  0  0  0  0  0  0  0  0  0
   -2.9092   20.1219  -31.6059 H   0  0  0  0  0  0  0  0  0  0  0  0
   -2.8103   19.3681  -28.5556 H   0  0  0  0  0  0  0  0  0  0  0  0
   -1.2185   20.1198  -28.1490 H   0  0  0  0  0  0  0  0  0  0  0  0
   -3.8490   20.7445  -27.1073 H   0  0  0  0  0  0  0  0  0  0  0  0
   -2.2456   21.4117  -26.6337 H   0  0  0  0  0  0  0  0  0  0  0  0
   -2.4420   23.0100  -28.0210 H   0  0  0  0  0  0  0  0  0  0  0  0
    0.7626   22.8313  -28.7543 H   0  0  0  0  0  0  0  0  0  0  0  0
    0.4550   24.4908  -29.3514 H   0  0  0  0  0  0  0  0  0  0  0  0
  1  2  1  0
  2  3  2  0
  2  4  1  0
  4  5  2  0
  5  6  1  0
  6  7  2  0
  7  8  1  0
  8  9  2  0
  9 10  1  0
 10 11  1  0
 10 12  1  0
 10 13  1  0
  9 14  1  0
 14 15  2  0
 15 16  1  0
 16 17  1  0
 17 18  2  0
 17 19  1  0
 19 20  1  0
 20 21  1  0
 21 22  1  0
 22 23  1  0
 20 24  1  0
 24 25  2  0
 24 26  1  0
 26 27  1  0
 27 28  1  0
 28 29  1  0
 29 30  2  0
 29 31  1  0
 29 32  1  0
 16  4  1  0
 15  6  1  0
  1 33  1  0
  1 34  1  0
  5 35  1  0
  7 36  1  0
  8 37  1  0
 14 38  1  0
 19 39  1  0
 19 40  1  0
 21 41  1  0
 21 42  1  0
 22 43  1  0
 22 44  1  0
 23 45  1  0
 27 46  1  0
 27 47  1  0
M  CHG  2  31  -1  32  -1
M  END
>  <UniqueID>  (19) 
19

>  <SMILES>  (19) 
NC(=O)c1cc2ccc(C(F)(F)F)cc2n1C(=O)CN(CCO)C(=O)OCOP(=O)([O-])[O-]

>  <Energy>  (19) 
79.73130948211356

>  <Genealogy>  (19) 
NC(=O)c1cc2ccc(C(F)(F)F)cc2n1C(=O)CN(CCO)C(=O)OCOP(=O)([O-])[O-] (protonated)
NC(=O)c1cc2ccc(C(F)(F)F)cc2n1C(=O)CN(CCO)C(=O)OCOP(=O)([O-])[O-] (3D coordinates assigned)
NC(=O)c1cc2ccc(C(F)(F)F)cc2n1C(=O)CN(CCO)C(=O)OCOP(=O)([O-])[O-] (optimized conformer: 79.73130948211356 kcal/mol)

>  <smiles>  (19) 
NC(=O)c1cc2ccc(C(F)(F)F)cc2n1C(=O)CN(CCO)C(=O)OCOP(=O)(O)O

>  <score_type>  (19) 
oracle

>  <origin>  (19) 
adg

>  <m_score__min__energy>  (19) 
-11.18

>  <m_primary>  (19) 
energy

$$$$
19:0
     RDKit          3D

 45 47  0  0  0  0  0  0  0  0999 V2000
   -0.1600   17.0620  -31.8040 C   0  0  0  0  0  0  0  0  0  0  0  0
   -0.4560   16.4260  -33.1010 N   0  0  0  0  0  0  0  0  0  0  0  0
   -0.3380   17.3780  -34.2240 C   0  0  0  0  0  0  0  0  0  0  0  0
   -1.3980   18.4880  -34.1420 C   0  0  0  0  0  0  0  0  0  0  0  0
   -2.6920   17.9470  -33.6970 N   0  0  0  0  0  0  0  0  0  0  0  0
   -3.7840   18.8400  -33.3920 C   0  0  0  0  0  0  0  0  0  0  0  0
   -4.9780   18.8060  -34.1600 C   0  0  0  0  0  0  0  0  0  0  0  0
   -6.0330   19.6930  -33.8890 C   0  0  0  0  0  0  0  0  0  0  0  0
   -5.8640   20.6150  -32.8630 C   0  0  0  0  0  0  0  0  0  0  0  0
   -6.7150   21.5930  -32.4070 C   0  0  0  0  0  0  0  0  0  0  0  0
   -6.0230   22.2410  -31.3840 C   0  0  0  0  0  0  0  0  0  0  0  0
   -6.5280   23.4370  -30.6740 C   0  0  0  0  0  0  0  0  0  0  0  0
   -6.0920   23.7390  -29.3440 N   0  0  0  0  0  0  0  0  0  0  0  0
   -7.3770   24.1890  -31.2220 O   0  0  0  0  0  0  0  0  0  0  0  0
   -4.7900   21.6820  -31.2140 N   0  0  0  0  0  0  0  0  0  0  0  0
   -3.7920   22.0560  -30.2440 C   0  0  0  0  0  0  0  0  0  0  0  0
   -3.8670   21.6020  -29.0680 O   0  0  0  0  0  0  0  0  0  0  0  0
   -2.7440   23.0830  -30.5690 C   0  0  0  0  0  0  0  0  0  0  0  0
   -3.0820   24.6590  -29.7170 P   0  0  0  0  0  0  0  0  0  0  0  0
   -3.8560   24.3900  -28.4460 O   0  0  0  0  0  0  0  0  0  0  0  0
   -4.0030   25.6560  -30.7270 O   0  0  0  0  0  0  0  0  0  0  0  0
   -1.6340   25.4420  -29.3300 O   0  0  0  0  0  0  0  0  0  0  0  0
   -4.7100   20.6840  -32.1250 C   0  0  0  0  0  0  0  0  0  0  0  0
   -3.6610   19.7860  -32.3480 C   0  0  0  0  0  0  0  0  0  0  0  0
   -2.9150   16.4960  -33.7580 C   0  0  0  0  0  0  0  0  0  0  0  0
   -1.7620   15.7210  -33.0840 C   0  0  0  0  0  0  0  0  0  0  0  0
   -0.4713   16.3931  -30.9881 H   0  0  0  0  0  0  0  0  0  0  0  0
    0.9203   17.2547  -31.7282 H   0  0  0  0  0  0  0  0  0  0  0  0
   -0.7082   18.0126  -31.7282 H   0  0  0  0  0  0  0  0  0  0  0  0
    0.6614   17.8369  -34.1988 H   0  0  0  0  0  0  0  0  0  0  0  0
   -0.4937   16.8237  -35.1613 H   0  0  0  0  0  0  0  0  0  0  0  0
   -1.0629   19.2538  -33.4270 H   0  0  0  0  0  0  0  0  0  0  0  0
   -1.5259   18.9262  -35.1428 H   0  0  0  0  0  0  0  0  0  0  0  0
   -5.0779   18.0762  -34.9770 H   0  0  0  0  0  0  0  0  0  0  0  0
   -6.9654   19.6588  -34.4717 H   0  0  0  0  0  0  0  0  0  0  0  0
   -7.7282   21.8174  -32.7719 H   0  0  0  0  0  0  0  0  0  0  0  0
   -6.5180   24.5400  -28.8270 H   0  0  0  0  0  0  0  0  0  0  0  0
   -5.3340   23.1940  -28.8800 H   0  0  0  0  0  0  0  0  0  0  0  0
   -1.7609   22.7062  -30.2505 H   0  0  0  0  0  0  0  0  0  0  0  0
   -2.7563   23.2631  -31.6541 H   0  0  0  0  0  0  0  0  0  0  0  0
   -2.7566   19.8151  -31.7225 H   0  0  0  0  0  0  0  0  0  0  0  0
   -3.8568   16.2565  -33.2426 H   0  0  0  0  0  0  0  0  0  0  0  0
   -2.9622   16.1967  -34.8154 H   0  0  0  0  0  0  0  0  0  0  0  0
   -2.0390   15.5354  -32.0357 H   0  0  0  0  0  0  0  0  0  0  0  0
   -1.6262   14.7953  -33.6624 H   0  0  0  0  0  0  0  0  0  0  0  0
  1  2  1  0
  2  3  1  0
  3  4  1  0
  4  5  1  0
  5  6  1  0
  6  7  2  0
  7  8  1  0
  8  9  2  0
  9 10  1  0
 10 11  2  0
 11 12  1  0
 12 13  1  0
 12 14  2  0
 11 15  1  0
 15 16  1  0
 16 17  2  0
 16 18  1  0
 18 19  1  0
 19 20  2  0
 19 21  1  0
 19 22  1  0
 15 23  1  0
 23 24  2  0
  5 25  1  0
 25 26  1  0
 26  2  1  0
 24  6  1  0
 23  9  1  0
  1 27  1  0
  1 28  1  0
  1 29  1  0
  3 30  1  0
  3 31  1  0
  4 32  1  0
  4 33  1  0
  7 34  1  0
  8 35  1  0
 10 36  1  0
 13 37  1  0
 13 38  1  0
 18 39  1  0
 18 40  1  0
 24 41  1  0
 25 42  1  0
 25 43  1  0
 26 44  1  0
 26 45  1  0
M  CHG  2  21  -1  22  -1
M  END
>  <UniqueID>  (20) 
20

>  <SMILES>  (20) 
CN1CCN(c2ccc3cc(C(N)=O)n(C(=O)CP(=O)([O-])[O-])c3c2)CC1

>  <Energy>  (20) 
92.97832560279006

>  <Genealogy>  (20) 
CN1CCN(c2ccc3cc(C(N)=O)n(C(=O)CP(=O)([O-])[O-])c3c2)CC1 (protonated)
CN1CCN(c2ccc3cc(C(N)=O)n(C(=O)CP(=O)([O-])[O-])c3c2)CC1 (3D coordinates assigned)
CN1CCN(c2ccc3cc(C(N)=O)n(C(=O)CP(=O)([O-])[O-])c3c2)CC1 (nonaromatic ring conformer: 92.97832560279006 kcal/mol)

>  <smiles>  (20) 
CN1CCN(c2ccc3cc(C(N)=O)n(C(=O)CP(=O)(O)O)c3c2)CC1

>  <score_type>  (20) 
oracle

>  <origin>  (20) 
adg

>  <m_score__min__energy>  (20) 
-12.800000000000001

>  <m_primary>  (20) 
energy

$$$$
20:0
     RDKit          3D

 53 54  0  0  0  0  0  0  0  0999 V2000
   -9.0770   18.9360  -32.6700 C   0  0  0  0  0  0  0  0  0  0  0  0
   -8.4330   20.1560  -32.0810 C   0  0  0  0  0  0  0  0  0  0  0  0
   -9.2340   21.1180  -31.4210 C   0  0  0  0  0  0  0  0  0  0  0  0
   -8.6610   22.2930  -30.9090 C   0  0  0  0  0  0  0  0  0  0  0  0
   -7.2900   22.4740  -31.0650 C   0  0  0  0  0  0  0  0  0  0  0  0
   -6.4960   23.5280  -30.6850 C   0  0  0  0  0  0  0  0  0  0  0  0
   -5.2100   23.1880  -31.0930 C   0  0  0  0  0  0  0  0  0  0  0  0
   -4.0190   24.0170  -30.8030 C   0  0  0  0  0  0  0  0  0  0  0  0
   -2.7260   23.4210  -30.7120 N   0  0  0  0  0  0  0  0  0  0  0  0
   -4.1300   25.2670  -30.6740 O   0  0  0  0  0  0  0  0  0  0  0  0
   -5.2050   21.9720  -31.7150 N   0  0  0  0  0  0  0  0  0  0  0  0
   -4.0900   21.3140  -32.3510 C   0  0  0  0  0  0  0  0  0  0  0  0
   -3.1540   21.9990  -32.8550 O   0  0  0  0  0  0  0  0  0  0  0  0
   -4.0610   19.9190  -32.4430 O   0  0  0  0  0  0  0  0  0  0  0  0
   -3.4740   19.2170  -33.5360 C   0  0  0  0  0  0  0  0  0  0  0  0
   -2.2990   18.5200  -33.1190 O   0  0  0  0  0  0  0  0  0  0  0  0
   -1.0020   18.9740  -33.3770 C   0  0  0  0  0  0  0  0  0  0  0  0
   -0.0460   18.1590  -33.5000 O   0  0  0  0  0  0  0  0  0  0  0  0
   -0.7700   20.3820  -33.4800 N   0  0  0  0  0  0  0  0  0  0  0  0
    0.0800   21.1360  -32.5650 C   0  0  0  0  0  0  0  0  0  0  0  0
   -0.6190   21.3820  -31.2650 C   0  0  0  0  0  0  0  0  0  0  0  0
   -0.3750   22.4310  -30.6080 O   0  0  0  0  0  0  0  0  0  0  0  0
   -1.6160   20.4920  -30.8450 O   0  0  0  0  0  0  0  0  0  0  0  0
   -1.9870   20.3250  -29.4780 C   0  0  0  0  0  0  0  0  0  0  0  0
   -3.1730   21.0620  -29.1870 O   0  0  0  0  0  0  0  0  0  0  0  0
   -3.2180   22.0810  -28.2260 C   0  0  0  0  0  0  0  0  0  0  0  0
   -4.3070   22.6600  -27.9590 O   0  0  0  0  0  0  0  0  0  0  0  0
   -1.9590   22.5300  -27.5380 C   0  0  0  0  0  0  0  0  0  0  0  0
   -1.8470   24.0560  -27.4030 C   0  0  0  0  0  0  0  0  0  0  0  0
   -1.0490   24.7090  -28.4970 C   0  0  0  0  0  0  0  0  0  0  0  0
    0.1590   24.3940  -28.6540 O   0  0  0  0  0  0  0  0  0  0  0  0
   -1.6150   25.6740  -29.3260 O   0  0  0  0  0  0  0  0  0  0  0  0
   -6.4930   21.5460  -31.6890 C   0  0  0  0  0  0  0  0  0  0  0  0
   -7.0460   20.3770  -32.2340 C   0  0  0  0  0  0  0  0  0  0  0  0
   -9.4245   18.2777  -31.8602 H   0  0  0  0  0  0  0  0  0  0  0  0
   -9.9336   19.2371  -33.2909 H   0  0  0  0  0  0  0  0  0  0  0  0
   -8.3451   18.3986  -33.2909 H   0  0  0  0  0  0  0  0  0  0  0  0
  -10.3142   20.9438  -31.3082 H   0  0  0  0  0  0  0  0  0  0  0  0
   -9.2775   23.0482  -30.3996 H   0  0  0  0  0  0  0  0  0  0  0  0
   -6.8101   24.4465  -30.1676 H   0  0  0  0  0  0  0  0  0  0  0  0
   -1.8840   24.0160  -30.5400 H   0  0  0  0  0  0  0  0  0  0  0  0
   -2.6040   22.3860  -30.7790 H   0  0  0  0  0  0  0  0  0  0  0  0
   -4.2014   18.4930  -33.9319 H   0  0  0  0  0  0  0  0  0  0  0  0
   -3.1955   19.9440  -34.3131 H   0  0  0  0  0  0  0  0  0  0  0  0
    1.0009   20.5649  -32.3760 H   0  0  0  0  0  0  0  0  0  0  0  0
    0.3167   22.1066  -33.0253 H   0  0  0  0  0  0  0  0  0  0  0  0
   -2.1664   19.2580  -29.2797 H   0  0  0  0  0  0  0  0  0  0  0  0
   -1.1718   20.6982  -28.8407 H   0  0  0  0  0  0  0  0  0  0  0  0
   -1.9359   22.0885  -26.5308 H   0  0  0  0  0  0  0  0  0  0  0  0
   -1.1140   22.1966  -28.1584 H   0  0  0  0  0  0  0  0  0  0  0  0
   -2.8620   24.4799  -27.4149 H   0  0  0  0  0  0  0  0  0  0  0  0
   -1.3166   24.2543  -26.4600 H   0  0  0  0  0  0  0  0  0  0  0  0
   -6.4151   19.6506  -32.7672 H   0  0  0  0  0  0  0  0  0  0  0  0
  1  2  1  0
  2  3  2  0
  3  4  1  0
  4  5  2  0
  5  6  1  0
  6  7  2  0
  7  8  1  0
  8  9  1  0
  8 10  2  0
  7 11  1  0
 11 12  1  0
 12 13  2  0
 12 14  1  0
 14 15  1  0
 15 16  1  0
 16 17  1  0
 17 18  2  0
 17 19  1  0
 19 20  1  0
 20 21  1  0
 21 22  2  0
 21 23  1  0
 23 24  1  0
 24 25  1  0
 25 26  1  0
 26 27  2  0
 26 28  1  0
 28 29  1  0
 29 30  1  0
 30 31  2  0
 30 32  1  0
 11 33  1  0
 33 34  2  0
 34  2  1  0
 33  5  1  0
  1 35  1  0
  1 36  1  0
  1 37  1  0
  3 38  1  0
  4 39  1  0
  6 40  1  0
  9 41  1  0
  9 42  1  0
 15 43  1  0
 15 44  1  0
 20 45  1  0
 20 46  1  0
 24 47  1  0
 24 48  1  0
 28 49  1  0
 28 50  1  0
 29 51  1  0
 29 52  1  0
 34 53  1  0
M  CHG  2  19  -1  32  -1
M  END
>  <UniqueID>  (21) 
21

>  <SMILES>  (21) 
Cc1ccc2cc(C(N)=O)n(C(=O)OCOC(=O)[N-]CC(=O)OCOC(=O)CCC(=O)[O-])c2c1

>  <Energy>  (21) 
73.06124876849717

>  <Genealogy>  (21) 
Cc1ccc2cc(C(N)=O)n(C(=O)OCOC(=O)[N-]CC(=O)OCOC(=O)CCC(=O)[O-])c2c1 (protonated)
Cc1ccc2cc(C(N)=O)n(C(=O)OCOC(=O)[N-]CC(=O)OCOC(=O)CCC(=O)[O-])c2c1 (3D coordinates assigned)
Cc1ccc2cc(C(N)=O)n(C(=O)OCOC(=O)[N-]CC(=O)OCOC(=O)CCC(=O)[O-])c2c1 (optimized conformer: 73.06124876849717 kcal/mol)

>  <smiles>  (21) 
Cc1ccc2cc(C(N)=O)n(C(=O)OCOC(=O)NCC(=O)OCOC(=O)CCC(=O)O)c2c1

>  <score_type>  (21) 
oracle

>  <origin>  (21) 
adg

>  <m_score__min__energy>  (21) 
-10.449999999999999

>  <m_primary>  (21) 
energy

$$$$
21:0
     RDKit          3D

 33 34  0  0  0  0  0  0  0  0999 V2000
   -0.9410   21.4500  -31.9610 N   0  0  0  0  0  0  0  0  0  0  0  0
   -1.7090   21.1050  -33.1140 C   0  0  0  0  0  0  0  0  0  0  0  0
   -1.1910   21.2170  -34.2570 O   0  0  0  0  0  0  0  0  0  0  0  0
   -3.1190   20.6830  -32.9960 C   0  0  0  0  0  0  0  0  0  0  0  0
   -3.5980   19.4710  -33.4860 C   0  0  0  0  0  0  0  0  0  0  0  0
   -4.9500   19.4870  -33.2330 C   0  0  0  0  0  0  0  0  0  0  0  0
   -5.9190   18.5230  -33.4980 C   0  0  0  0  0  0  0  0  0  0  0  0
   -7.2370   18.7860  -33.0920 C   0  0  0  0  0  0  0  0  0  0  0  0
   -7.5610   19.9950  -32.4260 C   0  0  0  0  0  0  0  0  0  0  0  0
   -8.9740   20.2460  -31.9830 C   0  0  0  0  0  0  0  0  0  0  0  0
   -9.8490   19.5660  -32.8110 F   0  0  0  0  0  0  0  0  0  0  0  0
   -9.2490   21.5990  -32.0410 F   0  0  0  0  0  0  0  0  0  0  0  0
   -6.5500   20.9480  -32.1700 C   0  0  0  0  0  0  0  0  0  0  0  0
   -5.2480   20.6710  -32.6050 C   0  0  0  0  0  0  0  0  0  0  0  0
   -4.1300   21.4160  -32.4490 N   0  0  0  0  0  0  0  0  0  0  0  0
   -4.0130   22.6600  -31.7370 C   0  0  0  0  0  0  0  0  0  0  0  0
   -3.0900   22.8210  -30.8930 O   0  0  0  0  0  0  0  0  0  0  0  0
   -4.9280   23.6880  -31.9840 O   0  0  0  0  0  0  0  0  0  0  0  0
   -5.7890   24.2110  -30.9780 C   0  0  0  0  0  0  0  0  0  0  0  0
   -4.9830   25.0650  -30.0050 C   0  0  0  0  0  0  0  0  0  0  0  0
   -3.8640   25.6170  -30.6440 O   0  0  0  0  0  0  0  0  0  0  0  0
    0.0680   21.7030  -32.0590 H   0  0  0  0  0  0  0  0  0  0  0  0
   -1.3850   21.5280  -31.0200 H   0  0  0  0  0  0  0  0  0  0  0  0
   -3.0191   18.6716  -33.9716 H   0  0  0  0  0  0  0  0  0  0  0  0
   -5.6599   17.5843  -34.0097 H   0  0  0  0  0  0  0  0  0  0  0  0
   -8.0263   18.0466  -33.2926 H   0  0  0  0  0  0  0  0  0  0  0  0
   -9.0948   19.8917  -30.9486 H   0  0  0  0  0  0  0  0  0  0  0  0
   -6.7800   21.8850  -31.6417 H   0  0  0  0  0  0  0  0  0  0  0  0
   -6.5679   24.8291  -31.4484 H   0  0  0  0  0  0  0  0  0  0  0  0
   -6.2576   23.3795  -30.4311 H   0  0  0  0  0  0  0  0  0  0  0  0
   -5.6193   25.8774  -29.6242 H   0  0  0  0  0  0  0  0  0  0  0  0
   -4.6402   24.4296  -29.1750 H   0  0  0  0  0  0  0  0  0  0  0  0
   -3.4870   24.9040  -31.2220 H   0  0  0  0  0  0  0  0  0  0  0  0
  1  2  1  0
  2  3  2  0
  2  4  1  0
  4  5  2  0
  5  6  1  0
  6  7  2  0
  7  8  1  0
  8  9  2  0
  9 10  1  0
 10 11  1  0
 10 12  1  0
  9 13  1  0
 13 14  2  0
 14 15  1  0
 15 16  1  0
 16 17  2  0
 16 18  1  0
 18 19  1  0
 19 20  1  0
 20 21  1  0
 15  4  1  0
 14  6  1  0
  1 22  1  0
  1 23  1  0
  5 24  1  0
  7 25  1  0
  8 26  1  0
 10 27  1  0
 13 28  1  0
 19 29  1  0
 19 30  1  0
 20 31  1  0
 20 32  1  0
 21 33  1  0
M  END
>  <UniqueID>  (22) 
22

>  <SMILES>  (22) 
NC(=O)c1cc2ccc(C(F)F)cc2n1C(=O)OCCO

>  <Energy>  (22) 
67.33809035751713

>  <Genealogy>  (22) 
NC(=O)c1cc2ccc(C(F)F)cc2n1C(=O)OCCO (3D coordinates assigned)
NC(=O)c1cc2ccc(C(F)F)cc2n1C(=O)OCCO (optimized conformer: 67.33809035751713 kcal/mol)

>  <smiles>  (22) 
NC(=O)c1cc2ccc(C(F)F)cc2n1C(=O)OCCO

>  <score_type>  (22) 
oracle

>  <origin>  (22) 
adg

>  <m_score__min__energy>  (22) 
-8.3100000000000005

>  <m_primary>  (22) 
energy

$$$$
22:0
     RDKit          3D

 38 39  0  0  0  0  0  0  0  0999 V2000
   -1.2380   25.7440  -26.9430 C   0  0  0  0  0  0  0  0  0  0  0  0
   -1.4910   24.5900  -28.2790 S   0  0  0  0  0  0  0  0  0  0  0  0
   -2.3330   25.2460  -29.3410 O   0  0  0  0  0  0  0  0  0  0  0  0
   -0.1520   24.2270  -28.8680 O   0  0  0  0  0  0  0  0  0  0  0  0
   -2.2930   23.0870  -27.7110 C   0  0  0  0  0  0  0  0  0  0  0  0
   -3.5770   22.7660  -28.4880 C   0  0  0  0  0  0  0  0  0  0  0  0
   -3.3050   22.1080  -29.7640 N   0  0  0  0  0  0  0  0  0  0  0  0
   -3.8610   22.5670  -31.0000 C   0  0  0  0  0  0  0  0  0  0  0  0
   -3.1050   22.7980  -31.9790 O   0  0  0  0  0  0  0  0  0  0  0  0
   -5.2830   22.7220  -31.1420 N   0  0  0  0  0  0  0  0  0  0  0  0
   -6.0460   23.8280  -30.9030 C   0  0  0  0  0  0  0  0  0  0  0  0
   -5.5360   25.1650  -30.5010 C   0  0  0  0  0  0  0  0  0  0  0  0
   -4.1900   25.5620  -30.7920 N   0  0  0  0  0  0  0  0  0  0  0  0
   -6.2840   25.9740  -29.8830 O   0  0  0  0  0  0  0  0  0  0  0  0
   -7.3920   23.5410  -31.1540 C   0  0  0  0  0  0  0  0  0  0  0  0
   -7.4230   22.2260  -31.5600 C   0  0  0  0  0  0  0  0  0  0  0  0
   -8.5020   21.4230  -31.9210 C   0  0  0  0  0  0  0  0  0  0  0  0
   -8.2410   20.0900  -32.2800 C   0  0  0  0  0  0  0  0  0  0  0  0
   -6.9130   19.5840  -32.2740 C   0  0  0  0  0  0  0  0  0  0  0  0
   -6.6210   18.1500  -32.6370 C   0  0  0  0  0  0  0  0  0  0  0  0
   -5.9980   18.1020  -33.8710 F   0  0  0  0  0  0  0  0  0  0  0  0
   -5.7810   17.5970  -31.6850 F   0  0  0  0  0  0  0  0  0  0  0  0
   -7.7800   17.3930  -32.7070 F   0  0  0  0  0  0  0  0  0  0  0  0
   -5.8480   20.4300  -31.8860 C   0  0  0  0  0  0  0  0  0  0  0  0
   -6.1380   21.7570  -31.5480 C   0  0  0  0  0  0  0  0  0  0  0  0
   -1.3524   25.2224  -25.9813 H   0  0  0  0  0  0  0  0  0  0  0  0
   -0.2255   26.1684  -27.0118 H   0  0  0  0  0  0  0  0  0  0  0  0
   -1.9801   26.5530  -27.0118 H   0  0  0  0  0  0  0  0  0  0  0  0
   -1.5915   22.2481  -27.8301 H   0  0  0  0  0  0  0  0  0  0  0  0
   -2.5732   23.2395  -26.6583 H   0  0  0  0  0  0  0  0  0  0  0  0
   -4.2046   22.1025  -27.8749 H   0  0  0  0  0  0  0  0  0  0  0  0
   -4.0864   23.7171  -28.7025 H   0  0  0  0  0  0  0  0  0  0  0  0
   -3.8710   26.5310  -30.5640 H   0  0  0  0  0  0  0  0  0  0  0  0
   -3.4920   24.9060  -31.2090 H   0  0  0  0  0  0  0  0  0  0  0  0
   -8.2477   24.2241  -31.0488 H   0  0  0  0  0  0  0  0  0  0  0  0
   -9.5277   21.8204  -31.9250 H   0  0  0  0  0  0  0  0  0  0  0  0
   -9.0732   19.4311  -32.5687 H   0  0  0  0  0  0  0  0  0  0  0  0
   -4.8150   20.0536  -31.8507 H   0  0  0  0  0  0  0  0  0  0  0  0
  1  2  1  0
  2  3  2  0
  2  4  2  0
  2  5  1  0
  5  6  1  0
  6  7  1  0
  7  8  1  0
  8  9  2  0
  8 10  1  0
 10 11  1  0
 11 12  1  0
 12 13  1  0
 12 14  2  0
 11 15  2  0
 15 16  1  0
 16 17  2  0
 17 18  1  0
 18 19  2  0
 19 20  1  0
 20 21  1  0
 20 22  1  0
 20 23  1  0
 19 24  1  0
 24 25  2  0
 25 10  1  0
 25 16  1  0
  1 26  1  0
  1 27  1  0
  1 28  1  0
  5 29  1  0
  5 30  1  0
  6 31  1  0
  6 32  1  0
 13 33  1  0
 13 34  1  0
 15 35  1  0
 17 36  1  0
 18 37  1  0
 24 38  1  0
M  CHG  1   7  -1
M  END
>  <UniqueID>  (23) 
23

>  <SMILES>  (23) 
CS(=O)(=O)CC[N-]C(=O)n1c(C(N)=O)cc2ccc(C(F)(F)F)cc21

>  <Energy>  (23) 
76.37675104783557

>  <Genealogy>  (23) 
CS(=O)(=O)CC[N-]C(=O)n1c(C(N)=O)cc2ccc(C(F)(F)F)cc21 (protonated)
CS(=O)(=O)CC[N-]C(=O)n1c(C(N)=O)cc2ccc(C(F)(F)F)cc21 (3D coordinates assigned)
CS(=O)(=O)CC[N-]C(=O)n1c(C(N)=O)cc2ccc(C(F)(F)F)cc21 (optimized conformer: 76.37675104783557 kcal/mol)

>  <smiles>  (23) 
CS(=O)(=O)CCNC(=O)n1c(C(N)=O)cc2ccc(C(F)(F)F)cc21

>  <score_type>  (23) 
oracle

>  <origin>  (23) 
adg

>  <m_score__min__energy>  (23) 
-9.6999999999999993

>  <m_primary>  (23) 
energy

$$$$
23:0
     RDKit          3D

 43 45  0  0  0  0  0  0  0  0999 V2000
   -8.2380   18.6040  -32.7560 C   0  0  0  0  0  0  0  0  0  0  0  0
   -7.9980   19.8840  -32.0140 C   0  0  0  0  0  0  0  0  0  0  0  0
   -9.0890   20.6010  -31.4630 C   0  0  0  0  0  0  0  0  0  0  0  0
   -8.8790   21.8150  -30.7880 C   0  0  0  0  0  0  0  0  0  0  0  0
   -7.5760   22.2940  -30.6980 C   0  0  0  0  0  0  0  0  0  0  0  0
   -7.0880   23.4270  -30.0860 C   0  0  0  0  0  0  0  0  0  0  0  0
   -5.7130   23.4020  -30.3060 C   0  0  0  0  0  0  0  0  0  0  0  0
   -4.8040   24.4920  -29.9020 C   0  0  0  0  0  0  0  0  0  0  0  0
   -3.9230   25.0940  -30.8450 N   0  0  0  0  0  0  0  0  0  0  0  0
   -4.8420   24.9330  -28.7220 O   0  0  0  0  0  0  0  0  0  0  0  0
   -5.3620   22.2960  -31.0200 N   0  0  0  0  0  0  0  0  0  0  0  0
   -4.0390   21.8530  -31.3560 C   0  0  0  0  0  0  0  0  0  0  0  0
   -3.3550   22.5040  -32.1910 O   0  0  0  0  0  0  0  0  0  0  0  0
   -3.5380   20.6750  -30.7900 O   0  0  0  0  0  0  0  0  0  0  0  0
   -2.1560   20.4720  -30.4910 C   0  0  0  0  0  0  0  0  0  0  0  0
   -1.7490   21.3290  -29.3590 N   0  0  0  0  0  0  0  0  0  0  0  0
   -1.4880   22.6630  -29.5460 C   0  0  0  0  0  0  0  0  0  0  0  0
   -1.5580   23.1630  -30.7030 O   0  0  0  0  0  0  0  0  0  0  0  0
   -1.1380   23.4790  -28.4540 C   0  0  0  0  0  0  0  0  0  0  0  0
   -0.8490   24.9310  -28.5980 C   0  0  0  0  0  0  0  0  0  0  0  0
   -1.5890   25.6750  -29.2950 O   0  0  0  0  0  0  0  0  0  0  0  0
    0.2490   25.4950  -27.9590 O   0  0  0  0  0  0  0  0  0  0  0  0
   -1.0660   22.8840  -27.1920 C   0  0  0  0  0  0  0  0  0  0  0  0
   -1.3220   21.5560  -27.0280 N   0  0  0  0  0  0  0  0  0  0  0  0
   -1.2400   20.9590  -25.6880 C   0  0  0  0  0  0  0  0  0  0  0  0
   -1.6620   20.7810  -28.1030 C   0  0  0  0  0  0  0  0  0  0  0  0
   -1.8990   19.5510  -27.9350 O   0  0  0  0  0  0  0  0  0  0  0  0
   -6.5130   21.6280  -31.2530 C   0  0  0  0  0  0  0  0  0  0  0  0
   -6.6900   20.4090  -31.9160 C   0  0  0  0  0  0  0  0  0  0  0  0
   -8.3913   17.7863  -32.0364 H   0  0  0  0  0  0  0  0  0  0  0  0
   -9.1322   18.7087  -33.3881 H   0  0  0  0  0  0  0  0  0  0  0  0
   -7.3666   18.3777  -33.3881 H   0  0  0  0  0  0  0  0  0  0  0  0
  -10.1096   20.2034  -31.5647 H   0  0  0  0  0  0  0  0  0  0  0  0
   -9.7189   22.3697  -30.3443 H   0  0  0  0  0  0  0  0  0  0  0  0
   -7.6622   24.1897  -29.5395 H   0  0  0  0  0  0  0  0  0  0  0  0
   -3.1210   24.5610  -31.2470 H   0  0  0  0  0  0  0  0  0  0  0  0
   -1.9926   19.4171  -30.2255 H   0  0  0  0  0  0  0  0  0  0  0  0
   -1.5549   20.7338  -31.3743 H   0  0  0  0  0  0  0  0  0  0  0  0
   -0.7988   23.4965  -26.3183 H   0  0  0  0  0  0  0  0  0  0  0  0
   -1.3482   21.7471  -24.9282 H   0  0  0  0  0  0  0  0  0  0  0  0
   -2.0450   20.2193  -25.5663 H   0  0  0  0  0  0  0  0  0  0  0  0
   -0.2654   20.4637  -25.5663 H   0  0  0  0  0  0  0  0  0  0  0  0
   -5.8329   19.8730  -32.3498 H   0  0  0  0  0  0  0  0  0  0  0  0
  1  2  1  0
  2  3  2  0
  3  4  1  0
  4  5  2  0
  5  6  1  0
  6  7  2  0
  7  8  1  0
  8  9  1  0
  8 10  2  0
  7 11  1  0
 11 12  1  0
 12 13  2  0
 12 14  1  0
 14 15  1  0
 15 16  1  0
 16 17  1  0
 17 18  2  0
 17 19  1  0
 19 20  1  0
 20 21  2  0
 20 22  1  0
 19 23  2  0
 23 24  1  0
 24 25  1  0
 24 26  1  0
 26 27  2  0
 11 28  1  0
 28 29  2  0
 29  2  1  0
 28  5  1  0
 26 16  1  0
  1 30  1  0
  1 31  1  0
  1 32  1  0
  3 33  1  0
  4 34  1  0
  6 35  1  0
  9 36  1  0
 15 37  1  0
 15 38  1  0
 23 39  1  0
 25 40  1  0
 25 41  1  0
 25 42  1  0
 29 43  1  0
M  CHG  2   9  -1  22  -1
M  END
>  <UniqueID>  (24) 
24

>  <SMILES>  (24) 
Cc1ccc2cc(C([NH-])=O)n(C(=O)OCn3c(=O)c(C(=O)[O-])cn(C)c3=O)c2c1

>  <Energy>  (24) 
90.68752457521057

>  <Genealogy>  (24) 
Cc1ccc2cc(C([NH-])=O)n(C(=O)OCn3c(=O)c(C(=O)[O-])cn(C)c3=O)c2c1 (protonated)
Cc1ccc2cc(C([NH-])=O)n(C(=O)OCn3c(=O)c(C(=O)[O-])cn(C)c3=O)c2c1 (3D coordinates assigned)
Cc1ccc2cc(C([NH-])=O)n(C(=O)OCn3c(=O)c(C(=O)[O-])cn(C)c3=O)c2c1 (optimized conformer: 90.68752457521057 kcal/mol)

>  <smiles>  (24) 
Cc1ccc2cc(C(N)=O)n(C(=O)OCn3c(=O)c(C(=O)O)cn(C)c3=O)c2c1

>  <score_type>  (24) 
oracle

>  <origin>  (24) 
adg

>  <m_score__min__energy>  (24) 
-12.41

>  <m_primary>  (24) 
energy

$$$$
24:0
     RDKit          3D

 61 62  0  0  0  0  0  0  0  0999 V2000
   -6.7540   17.3010  -32.9310 C   0  0  0  0  0  0  0  0  0  0  0  0
   -5.6510   16.6710  -34.2360 S   0  0  0  0  0  0  0  0  0  0  0  0
   -4.6630   18.2000  -34.3410 C   0  0  0  0  0  0  0  0  0  0  0  0
   -5.1150   19.1880  -33.2630 C   0  0  0  0  0  0  0  0  0  0  0  0
   -4.0530   20.2660  -32.9700 C   0  0  2  0  0  0  0  0  0  0  0  0
   -2.7160   19.6610  -32.9950 N   0  0  0  0  0  0  0  0  0  0  0  0
   -1.5150   20.4470  -33.0660 C   0  0  0  0  0  0  0  0  0  0  0  0
   -1.5760   21.7010  -32.9360 O   0  0  0  0  0  0  0  0  0  0  0  0
   -0.1740   19.7630  -33.2150 C   0  0  2  0  0  0  0  0  0  0  0  0
    0.9160   20.4030  -32.3430 C   0  0  0  0  0  0  0  0  0  0  0  0
    0.2570   19.7520  -34.6270 N   0  0  0  0  0  0  0  0  0  0  0  0
    0.3160   18.4920  -35.3800 C   0  0  0  0  0  0  0  0  0  0  0  0
    0.6010   20.9820  -35.2970 C   0  0  0  0  0  0  0  0  0  0  0  0
    0.2020   22.0850  -34.8320 O   0  0  0  0  0  0  0  0  0  0  0  0
    1.3840   20.9520  -36.4590 O   0  0  0  0  0  0  0  0  0  0  0  0
    2.7910   20.7170  -36.4630 C   0  0  0  0  0  0  0  0  0  0  0  0
    3.6970   22.2520  -36.8300 P   0  0  0  0  0  0  0  0  0  0  0  0
    4.6700   22.5530  -35.7120 O   0  0  0  0  0  0  0  0  0  0  0  0
    2.5990   23.5300  -36.9730 O   0  0  0  0  0  0  0  0  0  0  0  0
    4.5450   22.0780  -38.2840 O   0  0  0  0  0  0  0  0  0  0  0  0
   -4.2970   20.9240  -31.6310 C   0  0  0  0  0  0  0  0  0  0  0  0
   -3.6620   20.5300  -30.6150 O   0  0  0  0  0  0  0  0  0  0  0  0
   -5.3040   21.9400  -31.4860 N   0  0  0  0  0  0  0  0  0  0  0  0
   -5.1340   23.2620  -31.1960 C   0  0  0  0  0  0  0  0  0  0  0  0
   -3.8660   23.9030  -30.7960 C   0  0  0  0  0  0  0  0  0  0  0  0
   -3.8330   25.3010  -30.5150 N   0  0  0  0  0  0  0  0  0  0  0  0
   -2.8180   23.2200  -30.6530 O   0  0  0  0  0  0  0  0  0  0  0  0
   -6.3580   23.9280  -31.2190 C   0  0  0  0  0  0  0  0  0  0  0  0
   -7.2920   22.9610  -31.5200 C   0  0  0  0  0  0  0  0  0  0  0  0
   -8.6740   23.0630  -31.6600 C   0  0  0  0  0  0  0  0  0  0  0  0
   -9.3920   21.8950  -31.9730 C   0  0  0  0  0  0  0  0  0  0  0  0
   -8.7200   20.6610  -32.1480 C   0  0  0  0  0  0  0  0  0  0  0  0
   -9.4980   19.4170  -32.4540 C   0  0  0  0  0  0  0  0  0  0  0  0
   -7.3200   20.5920  -31.9740 C   0  0  0  0  0  0  0  0  0  0  0  0
   -6.6310   21.7700  -31.6650 C   0  0  0  0  0  0  0  0  0  0  0  0
   -6.3308   17.0593  -31.9449 H   0  0  0  0  0  0  0  0  0  0  0  0
   -6.8533   18.3920  -33.0299 H   0  0  0  0  0  0  0  0  0  0  0  0
   -7.7442   16.8322  -33.0299 H   0  0  0  0  0  0  0  0  0  0  0  0
   -3.6003   17.9584  -34.1917 H   0  0  0  0  0  0  0  0  0  0  0  0
   -4.8054   18.6556  -35.3321 H   0  0  0  0  0  0  0  0  0  0  0  0
   -6.0367   19.6834  -33.6022 H   0  0  0  0  0  0  0  0  0  0  0  0
   -5.2800   18.6197  -32.3358 H   0  0  0  0  0  0  0  0  0  0  0  0
   -4.1224   21.0410  -33.7476 H   0  0  0  0  0  0  0  0  0  0  0  0
   -2.6240   18.6200  -32.9800 H   0  0  0  0  0  0  0  0  0  0  0  0
   -0.3124   18.7288  -32.8668 H   0  0  0  0  0  0  0  0  0  0  0  0
    0.6684   20.2576  -31.2811 H   0  0  0  0  0  0  0  0  0  0  0  0
    1.8849   19.9304  -32.5616 H   0  0  0  0  0  0  0  0  0  0  0  0
    0.9754   21.4794  -32.5616 H   0  0  0  0  0  0  0  0  0  0  0  0
    0.3556   17.6465  -34.6775 H   0  0  0  0  0  0  0  0  0  0  0  0
   -0.5789   18.4010  -36.0132 H   0  0  0  0  0  0  0  0  0  0  0  0
    1.2155   18.4850  -36.0132 H   0  0  0  0  0  0  0  0  0  0  0  0
    3.0978   20.3438  -35.4748 H   0  0  0  0  0  0  0  0  0  0  0  0
    3.0238   19.9740  -37.2400 H   0  0  0  0  0  0  0  0  0  0  0  0
   -3.5110   25.9880  -31.2330 H   0  0  0  0  0  0  0  0  0  0  0  0
   -6.5396   24.9974  -31.0359 H   0  0  0  0  0  0  0  0  0  0  0  0
   -9.1877   24.0269  -31.5298 H   0  0  0  0  0  0  0  0  0  0  0  0
  -10.4856   21.9405  -32.0829 H   0  0  0  0  0  0  0  0  0  0  0  0
   -9.8006   18.9332  -31.5136 H   0  0  0  0  0  0  0  0  0  0  0  0
  -10.3937   19.6787  -33.0365 H   0  0  0  0  0  0  0  0  0  0  0  0
   -8.8707   18.7262  -33.0365 H   0  0  0  0  0  0  0  0  0  0  0  0
   -6.7850   19.6366  -32.0787 H   0  0  0  0  0  0  0  0  0  0  0  0
  1  2  1  0
  2  3  1  0
  3  4  1  0
  4  5  1  0
  5  6  1  0
  6  7  1  0
  7  8  2  0
  7  9  1  0
  9 10  1  0
  9 11  1  0
 11 12  1  0
 11 13  1  0
 13 14  2  0
 13 15  1  0
 15 16  1  0
 16 17  1  0
 17 18  2  0
 17 19  1  0
 17 20  1  0
  5 21  1  0
 21 22  2  0
 21 23  1  0
 23 24  1  0
 24 25  1  0
 25 26  1  0
 25 27  2  0
 24 28  2  0
 28 29  1  0
 29 30  2  0
 30 31  1  0
 31 32  2  0
 32 33  1  0
 32 34  1  0
 34 35  2  0
 35 23  1  0
 35 29  1  0
  1 36  1  0
  1 37  1  0
  1 38  1  0
  3 39  1  0
  3 40  1  0
  4 41  1  0
  4 42  1  0
  5 43  1  6
  6 44  1  0
  9 45  1  1
 10 46  1  0
 10 47  1  0
 10 48  1  0
 12 49  1  0
 12 50  1  0
 12 51  1  0
 16 52  1  0
 16 53  1  0
 26 54  1  0
 28 55  1  0
 30 56  1  0
 31 57  1  0
 33 58  1  0
 33 59  1  0
 33 60  1  0
 34 61  1  0
M  CHG  3  19  -1  20  -1  26  -1
M  END
>  <UniqueID>  (25) 
25

>  <SMILES>  (25) 
CSCC[C@H](NC(=O)[C@H](C)N(C)C(=O)OCP(=O)([O-])[O-])C(=O)n1c(C([NH-])=O)cc2ccc(C)cc21

>  <Energy>  (25) 
81.09420322681379

>  <Genealogy>  (25) 
CSCC[C@H](NC(=O)C(C)N(C)C(=O)OCP(=O)([O-])[O-])C(=O)n1c(C([NH-])=O)cc2ccc(C)cc21 (protonated)
CSCC[C@H](NC(=O)[C@H](C)N(C)C(=O)OCP(=O)([O-])[O-])C(=O)n1c(C([NH-])=O)cc2ccc(C)cc21 (chirality)
CSCC[C@H](NC(=O)[C@H](C)N(C)C(=O)OCP(=O)([O-])[O-])C(=O)n1c(C([NH-])=O)cc2ccc(C)cc21 (3D coordinates assigned)
CSCC[C@H](NC(=O)[C@H](C)N(C)C(=O)OCP(=O)([O-])[O-])C(=O)n1c(C([NH-])=O)cc2ccc(C)cc21 (optimized conformer: 81.09420322681379 kcal/mol)

>  <smiles>  (25) 
CSCC[C@H](NC(=O)C(C)N(C)C(=O)OCP(=O)(O)O)C(=O)n1c(C(N)=O)cc2ccc(C)cc21

>  <score_type>  (25) 
oracle

>  <origin>  (25) 
adg

>  <m_score__min__energy>  (25) 
-13.81

>  <m_primary>  (25) 
energy

$$$$
25:0
     RDKit          3D

 52 54  0  0  0  0  0  0  0  0999 V2000
    2.3340   22.5410  -35.3800 C   0  0  0  0  0  0  0  0  0  0  0  0
    0.9800   22.3260  -34.9950 O   0  0  0  0  0  0  0  0  0  0  0  0
    0.2580   21.1930  -35.3830 C   0  0  0  0  0  0  0  0  0  0  0  0
   -0.1140   21.0590  -36.5810 O   0  0  0  0  0  0  0  0  0  0  0  0
   -0.0550   20.1810  -34.4110 N   0  0  0  0  0  0  0  0  0  0  0  0
    0.0450   18.8300  -34.5690 C   0  0  0  0  0  0  0  0  0  0  0  0
    0.3100   18.1260  -35.8400 C   0  0  0  0  0  0  0  0  0  0  0  0
    1.1410   18.7070  -36.8470 N   0  0  0  0  0  0  0  0  0  0  0  0
   -0.2640   17.0270  -36.0690 O   0  0  0  0  0  0  0  0  0  0  0  0
   -0.2250   18.1710  -33.3750 C   0  0  0  0  0  0  0  0  0  0  0  0
   -0.5180   19.1650  -32.4700 C   0  0  0  0  0  0  0  0  0  0  0  0
   -0.8670   19.0730  -31.1280 C   0  0  0  0  0  0  0  0  0  0  0  0
   -1.1110   20.2650  -30.4280 C   0  0  0  0  0  0  0  0  0  0  0  0
   -0.9910   21.5240  -31.0700 C   0  0  0  0  0  0  0  0  0  0  0  0
   -1.2680   22.7210  -30.3160 N   0  0  0  0  0  0  0  0  0  0  0  0
   -0.4840   23.1370  -29.1510 C   0  0  0  0  0  0  0  0  0  0  0  0
   -0.7590   24.5690  -28.8120 C   0  0  0  0  0  0  0  0  0  0  0  0
    0.1040   25.2390  -28.1810 O   0  0  0  0  0  0  0  0  0  0  0  0
   -1.9780   25.1830  -29.2490 N   0  0  0  0  0  0  0  0  0  0  0  0
   -3.2850   24.5500  -29.1170 C   0  0  0  0  0  0  0  0  0  0  0  0
   -4.0160   24.5760  -30.4290 C   0  0  0  0  0  0  0  0  0  0  0  0
   -4.5180   25.6600  -30.8270 O   0  0  0  0  0  0  0  0  0  0  0  0
   -4.1350   23.4140  -31.2600 N   0  0  0  0  0  0  0  0  0  0  0  0
   -5.3200   23.0360  -32.0260 C   0  0  0  0  0  0  0  0  0  0  0  0
   -5.1790   21.6430  -32.5820 C   0  0  0  0  0  0  0  0  0  0  0  0
   -3.9190   21.1560  -32.9700 C   0  0  0  0  0  0  0  0  0  0  0  0
   -3.8080   19.8600  -33.4760 C   0  0  0  0  0  0  0  0  0  0  0  0
   -4.9100   19.0690  -33.5730 N   0  0  0  0  0  0  0  0  0  0  0  0
   -6.1390   19.5080  -33.1870 C   0  0  0  0  0  0  0  0  0  0  0  0
   -6.2960   20.8000  -32.6790 C   0  0  0  0  0  0  0  0  0  0  0  0
   -0.6140   21.5780  -32.4350 C   0  0  0  0  0  0  0  0  0  0  0  0
   -0.4070   20.3710  -33.1170 C   0  0  0  0  0  0  0  0  0  0  0  0
    2.9596   22.6403  -34.4807 H   0  0  0  0  0  0  0  0  0  0  0  0
    2.6850   21.6873  -35.9784 H   0  0  0  0  0  0  0  0  0  0  0  0
    2.4033   23.4614  -35.9784 H   0  0  0  0  0  0  0  0  0  0  0  0
    1.2630   18.2240  -37.7620 H   0  0  0  0  0  0  0  0  0  0  0  0
    1.5300   19.6700  -36.7380 H   0  0  0  0  0  0  0  0  0  0  0  0
   -0.2080   17.0863  -33.1927 H   0  0  0  0  0  0  0  0  0  0  0  0
   -0.9495   18.0959  -30.6295 H   0  0  0  0  0  0  0  0  0  0  0  0
   -1.3991   20.2221  -29.3673 H   0  0  0  0  0  0  0  0  0  0  0  0
   -2.0630   23.3250  -30.6310 H   0  0  0  0  0  0  0  0  0  0  0  0
   -0.7512   22.5047  -28.2915 H   0  0  0  0  0  0  0  0  0  0  0  0
    0.5849   23.0284  -29.3870 H   0  0  0  0  0  0  0  0  0  0  0  0
   -3.1511   23.5059  -28.7976 H   0  0  0  0  0  0  0  0  0  0  0  0
   -3.8743   25.1020  -28.3700 H   0  0  0  0  0  0  0  0  0  0  0  0
   -6.2010   23.0738  -31.3685 H   0  0  0  0  0  0  0  0  0  0  0  0
   -5.4356   23.7389  -32.8642 H   0  0  0  0  0  0  0  0  0  0  0  0
   -3.0264   21.7919  -32.8755 H   0  0  0  0  0  0  0  0  0  0  0  0
   -2.8277   19.4778  -33.7968 H   0  0  0  0  0  0  0  0  0  0  0  0
   -7.0113   18.8437  -33.2752 H   0  0  0  0  0  0  0  0  0  0  0  0
   -7.2870   21.1531  -32.3579 H   0  0  0  0  0  0  0  0  0  0  0  0
   -0.4869   22.5434  -32.9468 H   0  0  0  0  0  0  0  0  0  0  0  0
  1  2  1  0
  2  3  1  0
  3  4  2  0
  3  5  1  0
  5  6  1  0
  6  7  1  0
  7  8  1  0
  7  9  2  0
  6 10  2  0
 10 11  1  0
 11 12  2  0
 12 13  1  0
 13 14  2  0
 14 15  1  0
 15 16  1  0
 16 17  1  0
 17 18  2  0
 17 19  1  0
 19 20  1  0
 20 21  1  0
 21 22  2  0
 21 23  1  0
 23 24  1  0
 24 25  1  0
 25 26  2  0
 26 27  1  0
 27 28  2  0
 28 29  1  0
 29 30  2  0
 14 31  1  0
 31 32  2  0
 32  5  1  0
 32 11  1  0
 30 25  1  0
  1 33  1  0
  1 34  1  0
  1 35  1  0
  8 36  1  0
  8 37  1  0
 10 38  1  0
 12 39  1  0
 13 40  1  0
 15 41  1  0
 16 42  1  0
 16 43  1  0
 20 44  1  0
 20 45  1  0
 24 46  1  0
 24 47  1  0
 26 48  1  0
 27 49  1  0
 29 50  1  0
 30 51  1  0
 31 52  1  0
M  CHG  2  19  -1  23  -1
M  END
>  <UniqueID>  (26) 
26

>  <SMILES>  (26) 
COC(=O)n1c(C(N)=O)cc2ccc(NCC(=O)[N-]CC(=O)[N-]Cc3ccncc3)cc21

>  <Energy>  (26) 
86.56363152683828

>  <Genealogy>  (26) 
COC(=O)n1c(C(N)=O)cc2ccc(NCC(=O)[N-]CC(=O)[N-]Cc3ccncc3)cc21 (protonated)
COC(=O)n1c(C(N)=O)cc2ccc(NCC(=O)[N-]CC(=O)[N-]Cc3ccncc3)cc21 (3D coordinates assigned)
COC(=O)n1c(C(N)=O)cc2ccc(NCC(=O)[N-]CC(=O)[N-]Cc3ccncc3)cc21 (optimized conformer: 86.56363152683828 kcal/mol)

>  <smiles>  (26) 
COC(=O)n1c(C(N)=O)cc2ccc(NCC(=O)NCC(=O)NCc3ccncc3)cc21

>  <score_type>  (26) 
oracle

>  <origin>  (26) 
adg

>  <m_score__min__energy>  (26) 
-11.59

>  <m_primary>  (26) 
energy

$$$$
26:0
     RDKit          3D

 49 50  0  0  0  0  0  0  0  0999 V2000
   -2.6350   20.2810  -28.0150 C   0  0  0  0  0  0  0  0  0  0  0  0
   -3.1290   20.3600  -29.3340 O   0  0  0  0  0  0  0  0  0  0  0  0
   -2.0840   20.6400  -30.2530 C   0  0  2  0  0  0  0  0  0  0  0  0
   -0.9540   21.3800  -29.5210 C   0  0  0  0  0  0  0  0  0  0  0  0
   -1.3440   22.7530  -29.2060 N   0  0  0  0  0  0  0  0  0  0  0  0
   -0.8690   23.4430  -28.0370 C   0  0  0  0  0  0  0  0  0  0  0  0
   -0.0510   22.8700  -27.2640 O   0  0  0  0  0  0  0  0  0  0  0  0
   -1.2770   24.8820  -27.7780 C   0  0  0  0  0  0  0  0  0  0  0  0
   -0.0060   25.7090  -27.5240 C   0  0  0  0  0  0  0  0  0  0  0  0
   -2.2090   24.9780  -26.5490 C   0  0  0  0  0  0  0  0  0  0  0  0
   -1.9680   25.4160  -28.9610 N   0  0  0  0  0  0  0  0  0  0  0  0
   -2.6160   21.5140  -31.3590 C   0  0  0  0  0  0  0  0  0  0  0  0
   -1.8130   22.0780  -32.1500 O   0  0  0  0  0  0  0  0  0  0  0  0
   -4.0180   21.7950  -31.4610 N   0  0  0  0  0  0  0  0  0  0  0  0
   -4.6910   22.8680  -30.9610 C   0  0  0  0  0  0  0  0  0  0  0  0
   -4.1090   23.9210  -30.1050 C   0  0  0  0  0  0  0  0  0  0  0  0
   -3.8890   25.2260  -30.6330 N   0  0  0  0  0  0  0  0  0  0  0  0
   -3.8220   23.6830  -28.9020 O   0  0  0  0  0  0  0  0  0  0  0  0
   -6.0330   22.8180  -31.3390 C   0  0  0  0  0  0  0  0  0  0  0  0
   -6.1590   21.6640  -32.0800 C   0  0  0  0  0  0  0  0  0  0  0  0
   -7.2710   21.1230  -32.7200 C   0  0  0  0  0  0  0  0  0  0  0  0
   -7.1020   19.9200  -33.4280 C   0  0  0  0  0  0  0  0  0  0  0  0
   -5.8410   19.2700  -33.4680 C   0  0  0  0  0  0  0  0  0  0  0  0
   -5.6550   18.0080  -34.2700 C   0  0  0  0  0  0  0  0  0  0  0  0
   -4.4180   17.4630  -33.9810 F   0  0  0  0  0  0  0  0  0  0  0  0
   -6.6390   17.0860  -33.9550 F   0  0  0  0  0  0  0  0  0  0  0  0
   -5.7250   18.2690  -35.6270 F   0  0  0  0  0  0  0  0  0  0  0  0
   -4.7320   19.8640  -32.8220 C   0  0  0  0  0  0  0  0  0  0  0  0
   -4.9300   21.0630  -32.1320 C   0  0  0  0  0  0  0  0  0  0  0  0
   -3.4641   20.4136  -27.3044 H   0  0  0  0  0  0  0  0  0  0  0  0
   -2.1697   19.2970  -27.8561 H   0  0  0  0  0  0  0  0  0  0  0  0
   -1.8860   21.0708  -27.8561 H   0  0  0  0  0  0  0  0  0  0  0  0
   -1.6995   19.7005  -30.6767 H   0  0  0  0  0  0  0  0  0  0  0  0
   -0.7226   20.8485  -28.5862 H   0  0  0  0  0  0  0  0  0  0  0  0
   -0.0716   21.4085  -30.1771 H   0  0  0  0  0  0  0  0  0  0  0  0
   -1.9290   23.2690  -29.9000 H   0  0  0  0  0  0  0  0  0  0  0  0
    0.1535   25.8128  -26.4406 H   0  0  0  0  0  0  0  0  0  0  0  0
    0.8588   25.2001  -27.9748 H   0  0  0  0  0  0  0  0  0  0  0  0
   -0.1209   26.7058  -27.9748 H   0  0  0  0  0  0  0  0  0  0  0  0
   -1.6097   24.9163  -25.6287 H   0  0  0  0  0  0  0  0  0  0  0  0
   -2.7483   25.9364  -26.5718 H   0  0  0  0  0  0  0  0  0  0  0  0
   -2.9324   24.1496  -26.5718 H   0  0  0  0  0  0  0  0  0  0  0  0
   -2.9570   25.6500  -28.7140 H   0  0  0  0  0  0  0  0  0  0  0  0
   -2.0050   24.6770  -29.7020 H   0  0  0  0  0  0  0  0  0  0  0  0
   -3.8590   26.0610  -30.0060 H   0  0  0  0  0  0  0  0  0  0  0  0
   -6.8221   23.5451  -31.0969 H   0  0  0  0  0  0  0  0  0  0  0  0
   -8.2507   21.6210  -32.6732 H   0  0  0  0  0  0  0  0  0  0  0  0
   -7.9582   19.4769  -33.9577 H   0  0  0  0  0  0  0  0  0  0  0  0
   -3.7383   19.3939  -32.8617 H   0  0  0  0  0  0  0  0  0  0  0  0
  1  2  1  0
  2  3  1  0
  3  4  1  0
  4  5  1  0
  5  6  1  0
  6  7  2  0
  6  8  1  0
  8  9  1  0
  8 10  1  0
  8 11  1  0
  3 12  1  0
 12 13  2  0
 12 14  1  0
 14 15  1  0
 15 16  1  0
 16 17  1  0
 16 18  2  0
 15 19  2  0
 19 20  1  0
 20 21  2  0
 21 22  1  0
 22 23  2  0
 23 24  1  0
 24 25  1  0
 24 26  1  0
 24 27  1  0
 23 28  1  0
 28 29  2  0
 29 14  1  0
 29 20  1  0
  1 30  1  0
  1 31  1  0
  1 32  1  0
  3 33  1  6
  4 34  1  0
  4 35  1  0
  5 36  1  0
  9 37  1  0
  9 38  1  0
  9 39  1  0
 10 40  1  0
 10 41  1  0
 10 42  1  0
 11 43  1  0
 11 44  1  0
 17 45  1  0
 19 46  1  0
 21 47  1  0
 22 48  1  0
 28 49  1  0
M  CHG  1  17  -1
M  END
>  <UniqueID>  (27) 
27

>  <SMILES>  (27) 
CO[C@H](CNC(=O)C(C)(C)N)C(=O)n1c(C([NH-])=O)cc2ccc(C(F)(F)F)cc21

>  <Energy>  (27) 
83.86367153515668

>  <Genealogy>  (27) 
CO[C@H](CNC(=O)C(C)(C)N)C(=O)n1c(C([NH-])=O)cc2ccc(C(F)(F)F)cc21 (protonated)
CO[C@H](CNC(=O)C(C)(C)N)C(=O)n1c(C([NH-])=O)cc2ccc(C(F)(F)F)cc21 (3D coordinates assigned)
CO[C@H](CNC(=O)C(C)(C)N)C(=O)n1c(C([NH-])=O)cc2ccc(C(F)(F)F)cc21 (optimized conformer: 83.86367153515668 kcal/mol)

>  <smiles>  (27) 
CO[C@H](CNC(=O)C(C)(C)N)C(=O)n1c(C(N)=O)cc2ccc(C(F)(F)F)cc21

>  <score_type>  (27) 
oracle

>  <origin>  (27) 
adg

>  <m_score__min__energy>  (27) 
-10.050000000000001

>  <m_primary>  (27) 
energy

$$$$
27:0
     RDKit          3D

 41 42  0  0  0  0  0  0  0  0999 V2000
   -6.5390   18.0080  -33.5050 C   0  0  0  0  0  0  0  0  0  0  0  0
   -6.9890   19.2750  -32.8420 C   0  0  0  0  0  0  0  0  0  0  0  0
   -8.3720   19.5440  -32.6900 C   0  0  0  0  0  0  0  0  0  0  0  0
   -8.8060   20.7030  -32.0270 C   0  0  0  0  0  0  0  0  0  0  0  0
   -7.8390   21.5680  -31.5230 C   0  0  0  0  0  0  0  0  0  0  0  0
   -7.9830   22.7430  -30.8210 C   0  0  0  0  0  0  0  0  0  0  0  0
   -6.6850   23.1780  -30.5570 C   0  0  0  0  0  0  0  0  0  0  0  0
   -6.3660   24.4630  -29.8950 C   0  0  0  0  0  0  0  0  0  0  0  0
   -5.0810   24.6820  -29.3100 N   0  0  0  0  0  0  0  0  0  0  0  0
   -7.2360   25.3700  -29.8180 O   0  0  0  0  0  0  0  0  0  0  0  0
   -5.7750   22.3030  -31.0740 N   0  0  0  0  0  0  0  0  0  0  0  0
   -4.3420   22.3710  -30.9840 C   0  0  0  0  0  0  0  0  0  0  0  0
   -3.7300   23.3870  -31.4140 O   0  0  0  0  0  0  0  0  0  0  0  0
   -3.6320   21.3100  -30.4090 O   0  0  0  0  0  0  0  0  0  0  0  0
   -2.5410   21.4930  -29.5110 C   0  0  0  0  0  0  0  0  0  0  0  0
   -3.0050   22.1860  -28.2600 C   0  0  0  0  0  0  0  0  0  0  0  0
   -4.2450   22.2820  -28.0520 O   0  0  0  0  0  0  0  0  0  0  0  0
   -2.0700   22.7700  -27.3230 N   0  0  0  0  0  0  0  0  0  0  0  0
   -1.2170   21.9150  -26.4880 C   0  0  0  0  0  0  0  0  0  0  0  0
   -1.9680   24.2310  -27.2110 C   0  0  0  0  0  0  0  0  0  0  0  0
   -1.6620   24.8280  -28.5480 C   0  0  0  0  0  0  0  0  0  0  0  0
   -0.4720   24.8890  -28.9550 O   0  0  0  0  0  0  0  0  0  0  0  0
   -2.6920   25.2910  -29.3570 O   0  0  0  0  0  0  0  0  0  0  0  0
   -6.4970   21.3250  -31.6630 C   0  0  0  0  0  0  0  0  0  0  0  0
   -6.0360   20.1680  -32.3040 C   0  0  0  0  0  0  0  0  0  0  0  0
   -6.2754   17.2659  -32.7370 H   0  0  0  0  0  0  0  0  0  0  0  0
   -7.3520   17.6136  -34.1322 H   0  0  0  0  0  0  0  0  0  0  0  0
   -5.6593   18.2148  -34.1322 H   0  0  0  0  0  0  0  0  0  0  0  0
   -9.1122   18.8384  -33.0951 H   0  0  0  0  0  0  0  0  0  0  0  0
   -9.8778   20.9208  -31.9094 H   0  0  0  0  0  0  0  0  0  0  0  0
   -8.9230   23.2347  -30.5299 H   0  0  0  0  0  0  0  0  0  0  0  0
   -4.8740   25.5810  -28.8210 H   0  0  0  0  0  0  0  0  0  0  0  0
   -4.3150   23.9780  -29.4010 H   0  0  0  0  0  0  0  0  0  0  0  0
   -2.1197   20.5117  -29.2472 H   0  0  0  0  0  0  0  0  0  0  0  0
   -1.7752   22.1129  -30.0002 H   0  0  0  0  0  0  0  0  0  0  0  0
   -1.4205   22.1190  -25.4264 H   0  0  0  0  0  0  0  0  0  0  0  0
   -1.4315   20.8584  -26.7060 H   0  0  0  0  0  0  0  0  0  0  0  0
   -0.1599   22.1271  -26.7060 H   0  0  0  0  0  0  0  0  0  0  0  0
   -2.9220   24.6352  -26.8416 H   0  0  0  0  0  0  0  0  0  0  0  0
   -1.1587   24.4831  -26.5099 H   0  0  0  0  0  0  0  0  0  0  0  0
   -4.9590   19.9601  -32.3863 H   0  0  0  0  0  0  0  0  0  0  0  0
  1  2  1  0
  2  3  2  0
  3  4  1  0
  4  5  2  0
  5  6  1  0
  6  7  2  0
  7  8  1  0
  8  9  1  0
  8 10  2  0
  7 11  1  0
 11 12  1  0
 12 13  2  0
 12 14  1  0
 14 15  1  0
 15 16  1  0
 16 17  2  0
 16 18  1  0
 18 19  1  0
 18 20  1  0
 20 21  1  0
 21 22  2  0
 21 23  1  0
 11 24  1  0
 24 25  2  0
 25  2  1  0
 24  5  1  0
  1 26  1  0
  1 27  1  0
  1 28  1  0
  3 29  1  0
  4 30  1  0
  6 31  1  0
  9 32  1  0
  9 33  1  0
 15 34  1  0
 15 35  1  0
 19 36  1  0
 19 37  1  0
 19 38  1  0
 20 39  1  0
 20 40  1  0
 25 41  1  0
M  CHG  1  23  -1
M  END
>  <UniqueID>  (28) 
28

>  <SMILES>  (28) 
Cc1ccc2cc(C(N)=O)n(C(=O)OCC(=O)N(C)CC(=O)[O-])c2c1

>  <Energy>  (28) 
73.1375639358283

>  <Genealogy>  (28) 
Cc1ccc2cc(C(N)=O)n(C(=O)OCC(=O)N(C)CC(=O)[O-])c2c1 (protonated)
Cc1ccc2cc(C(N)=O)n(C(=O)OCC(=O)N(C)CC(=O)[O-])c2c1 (3D coordinates assigned)
Cc1ccc2cc(C(N)=O)n(C(=O)OCC(=O)N(C)CC(=O)[O-])c2c1 (optimized conformer: 73.1375639358283 kcal/mol)

>  <smiles>  (28) 
Cc1ccc2cc(C(N)=O)n(C(=O)OCC(=O)N(C)CC(=O)O)c2c1

>  <score_type>  (28) 
oracle

>  <origin>  (28) 
adg

>  <m_score__min__energy>  (28) 
-10.81

>  <m_primary>  (28) 
energy

$$$$
28:0
     RDKit          3D

 61 62  0  0  0  0  0  0  0  0999 V2000
   -4.4610   23.0890  -30.4300 H   0  0  0  0  0  0  0  0  0  0  0  0
   -4.7750   22.3490  -29.8470 O   0  0  0  0  0  0  0  0  0  0  0  0
   -3.9680   22.3730  -28.7000 C   0  0  0  0  0  0  0  0  0  0  0  0
   -3.0338   21.8299  -28.9055 H   0  0  0  0  0  0  0  0  0  0  0  0
   -4.5163   21.8956  -27.8745 H   0  0  0  0  0  0  0  0  0  0  0  0
   -3.6320   23.8170  -28.2960 C   0  0  1  0  0  0  0  0  0  0  0  0
   -3.0293   23.7949  -27.3761 H   0  0  0  0  0  0  0  0  0  0  0  0
   -2.8370   24.4890  -29.3800 C   0  0  0  0  0  0  0  0  0  0  0  0
   -1.5810   24.3660  -29.4160 O   0  0  0  0  0  0  0  0  0  0  0  0
   -3.4920   25.2820  -30.3200 O   0  0  0  0  0  0  0  0  0  0  0  0
   -4.4860   24.7610  -31.1170 N   0  0  0  0  0  0  0  0  0  0  0  0
   -5.8640   24.8680  -30.7590 C   0  0  0  0  0  0  0  0  0  0  0  0
   -6.2090   25.7460  -29.9230 O   0  0  0  0  0  0  0  0  0  0  0  0
   -6.8670   23.9580  -31.3440 C   0  0  0  0  0  0  0  0  0  0  0  0
   -7.1165   24.0546  -32.4110 H   0  0  0  0  0  0  0  0  0  0  0  0
   -7.4830   23.0180  -30.6160 C   0  0  0  0  0  0  0  0  0  0  0  0
   -7.2602   22.9480  -29.5411 H   0  0  0  0  0  0  0  0  0  0  0  0
   -8.4470   22.0760  -31.2040 C   0  0  0  0  0  0  0  0  0  0  0  0
   -9.6000   21.9420  -30.7070 O   0  0  0  0  0  0  0  0  0  0  0  0
   -8.0710   21.3430  -32.3350 O   0  0  0  0  0  0  0  0  0  0  0  0
   -8.6950   20.1210  -32.7280 C   0  0  0  0  0  0  0  0  0  0  0  0
   -8.1771   19.7272  -33.6149 H   0  0  0  0  0  0  0  0  0  0  0  0
   -9.7519   20.3345  -32.9458 H   0  0  0  0  0  0  0  0  0  0  0  0
   -8.6450   19.0680  -31.6190 C   0  0  0  0  0  0  0  0  0  0  0  0
   -9.0961   18.1351  -31.9880 H   0  0  0  0  0  0  0  0  0  0  0  0
   -9.2020   19.4475  -30.7497 H   0  0  0  0  0  0  0  0  0  0  0  0
   -7.3000   18.8100  -31.2200 O   0  0  0  0  0  0  0  0  0  0  0  0
   -6.5330   17.7460  -31.7140 C   0  0  0  0  0  0  0  0  0  0  0  0
   -6.0990   16.8620  -30.9260 O   0  0  0  0  0  0  0  0  0  0  0  0
   -6.2800   17.6460  -33.1290 N   0  0  0  0  0  0  0  0  0  0  0  0
   -5.6350   18.7200  -33.8430 C   0  0  0  0  0  0  0  0  0  0  0  0
   -6.3290   19.5300  -34.5160 O   0  0  0  0  0  0  0  0  0  0  0  0
   -4.2110   18.9040  -33.7700 N   0  0  0  0  0  0  0  0  0  0  0  0
   -3.5310   19.8630  -33.0810 C   0  0  0  0  0  0  0  0  0  0  0  0
   -4.1510   21.0190  -32.3920 C   0  0  0  0  0  0  0  0  0  0  0  0
   -3.4410   21.9980  -32.0390 O   0  0  0  0  0  0  0  0  0  0  0  0
   -5.5490   21.0350  -32.0930 N   0  0  0  0  0  0  0  0  0  0  0  0
   -5.9660   21.8550  -31.5990 H   0  0  0  0  0  0  0  0  0  0  0  0
   -6.1830   20.2650  -32.3980 H   0  0  0  0  0  0  0  0  0  0  0  0
   -2.1560   19.6440  -33.1750 C   0  0  0  0  0  0  0  0  0  0  0  0
   -1.3527   20.2493  -32.7297 H   0  0  0  0  0  0  0  0  0  0  0  0
   -2.0180   18.5100  -33.9430 C   0  0  0  0  0  0  0  0  0  0  0  0
   -0.8710   17.8210  -34.3250 C   0  0  0  0  0  0  0  0  0  0  0  0
    0.1278   18.1743  -34.0289 H   0  0  0  0  0  0  0  0  0  0  0  0
   -1.0280   16.6610  -35.1000 C   0  0  0  0  0  0  0  0  0  0  0  0
   -0.1412   16.0891  -35.4105 H   0  0  0  0  0  0  0  0  0  0  0  0
   -2.3180   16.2200  -35.4860 C   0  0  0  0  0  0  0  0  0  0  0  0
   -2.4720   14.9690  -36.2990 C   0  0  0  0  0  0  0  0  0  0  0  0
   -2.5783   14.1053  -35.6262 H   0  0  0  0  0  0  0  0  0  0  0  0
   -3.3667   15.0519  -36.9335 H   0  0  0  0  0  0  0  0  0  0  0  0
   -1.5839   14.8324  -36.9335 H   0  0  0  0  0  0  0  0  0  0  0  0
   -3.4600   16.9270  -35.0540 C   0  0  0  0  0  0  0  0  0  0  0  0
   -4.4709   16.5767  -35.3097 H   0  0  0  0  0  0  0  0  0  0  0  0
   -3.2730   18.0850  -34.2920 C   0  0  0  0  0  0  0  0  0  0  0  0
   -6.5070   16.3670  -33.8080 C   0  0  0  0  0  0  0  0  0  0  0  0
   -6.6477   15.5740  -33.0588 H   0  0  0  0  0  0  0  0  0  0  0  0
   -7.4061   16.4405  -34.4374 H   0  0  0  0  0  0  0  0  0  0  0  0
   -5.6375   16.1266  -34.4374 H   0  0  0  0  0  0  0  0  0  0  0  0
   -4.8640   24.5670  -28.0410 N   0  0  0  0  0  0  0  0  0  0  0  0
   -5.6470   24.0970  -28.5500 H   0  0  0  0  0  0  0  0  0  0  0  0
   -4.7660   25.5140  -28.4750 H   0  0  0  0  0  0  0  0  0  0  0  0
  1  2  1  0
  2  3  1  0
  3  4  1  0
  3  5  1  0
  3  6  1  0
  6  7  1  1
  6  8  1  0
  8  9  2  0
  8 10  1  0
 10 11  1  0
 11 12  1  0
 12 13  2  0
 12 14  1  0
 14 15  1  0
 14 16  2  0
 16 17  1  0
 16 18  1  0
 18 19  2  0
 18 20  1  0
 20 21  1  0
 21 22  1  0
 21 23  1  0
 21 24  1  0
 24 25  1  0
 24 26  1  0
 24 27  1  0
 27 28  1  0
 28 29  2  0
 28 30  1  0
 30 31  1  0
 31 32  2  0
 31 33  1  0
 33 34  1  0
 34 35  1  0
 35 36  2  0
 35 37  1  0
 37 38  1  0
 37 39  1  0
 34 40  2  0
 40 41  1  0
 40 42  1  0
 42 43  2  0
 43 44  1  0
 43 45  1  0
 45 46  1  0
 45 47  2  0
 47 48  1  0
 48 49  1  0
 48 50  1  0
 48 51  1  0
 47 52  1  0
 52 53  1  0
 52 54  2  0
 30 55  1  0
 55 56  1  0
 55 57  1  0
 55 58  1  0
  6 59  1  0
 59 60  1  0
 59 61  1  0
 54 33  1  0
 54 42  1  0
M  CHG  1  11  -1
M  END
>  <UniqueID>  (29) 
29

>  <SMILES>  (29) 
Cc1ccc2cc(C(N)=O)n(C(=O)N(C)C(=O)OCCOC(=O)/C=C/C(=O)[N-]OC(=O)[C@@H](N)CO)c2c1

>  <Energy>  (29) 
83.70916094240886

>  <Genealogy>  (29) 
Cc1ccc2cc(C(N)=O)n(C(=O)N(C)C(=O)OCCOC(=O)/C=C/C(=O)[N-]OC(=O)[C@@H](N)CO)c2c1 (protonated)
Cc1ccc2cc(C(N)=O)n(C(=O)N(C)C(=O)OCCOC(=O)/C=C/C(=O)[N-]OC(=O)[C@@H](N)CO)c2c1 (cis-trans isomerization)
Cc1ccc2cc(C(N)=O)n(C(=O)N(C)C(=O)OCCOC(=O)/C=C/C(=O)[N-]OC(=O)[C@@H](N)CO)c2c1 (3D coordinates assigned)
Cc1ccc2cc(C(N)=O)n(C(=O)N(C)C(=O)OCCOC(=O)/C=C/C(=O)[N-]OC(=O)[C@@H](N)CO)c2c1 (optimized conformer: 83.70916094240886 kcal/mol)

>  <smiles>  (29) 
Cc1ccc2cc(C(N)=O)n(C(=O)N(C)C(=O)OCCOC(=O)/C=C/C(=O)NOC(=O)[C@@H](N)CO)c2c1

>  <score_type>  (29) 
oracle

>  <origin>  (29) 
adg

>  <m_score__min__energy>  (29) 
-9.7599999999999998

>  <m_primary>  (29) 
energy

$$$$
29:0
     RDKit          3D

 47 49  0  0  0  0  0  0  0  0999 V2000
   -4.0070   25.6230  -30.8610 N   0  0  0  0  0  0  0  0  0  0  0  0
   -5.2720   25.1840  -30.3750 C   0  0  0  0  0  0  0  0  0  0  0  0
   -5.8540   25.8510  -29.4760 O   0  0  0  0  0  0  0  0  0  0  0  0
   -5.8830   23.9310  -30.8650 C   0  0  0  0  0  0  0  0  0  0  0  0
   -7.2360   23.8080  -31.1760 C   0  0  0  0  0  0  0  0  0  0  0  0
   -7.4150   22.4850  -31.5050 C   0  0  0  0  0  0  0  0  0  0  0  0
   -8.5610   21.8150  -31.9210 C   0  0  0  0  0  0  0  0  0  0  0  0
   -8.4500   20.4510  -32.2350 C   0  0  0  0  0  0  0  0  0  0  0  0
   -7.2040   19.7780  -32.1230 C   0  0  0  0  0  0  0  0  0  0  0  0
   -7.0860   18.3310  -32.5250 C   0  0  0  0  0  0  0  0  0  0  0  0
   -8.2860   17.6700  -32.3330 F   0  0  0  0  0  0  0  0  0  0  0  0
   -6.7380   18.2570  -33.8610 F   0  0  0  0  0  0  0  0  0  0  0  0
   -6.1150   17.6930  -31.7710 F   0  0  0  0  0  0  0  0  0  0  0  0
   -6.0570   20.5020  -31.7230 C   0  0  0  0  0  0  0  0  0  0  0  0
   -6.2030   21.8560  -31.3950 C   0  0  0  0  0  0  0  0  0  0  0  0
   -5.2490   22.7320  -31.0060 N   0  0  0  0  0  0  0  0  0  0  0  0
   -3.8440   22.4650  -30.8780 C   0  0  0  0  0  0  0  0  0  0  0  0
   -3.0020   23.3040  -31.2990 O   0  0  0  0  0  0  0  0  0  0  0  0
   -3.4160   21.2820  -30.2690 O   0  0  0  0  0  0  0  0  0  0  0  0
   -2.9410   21.2320  -28.9280 C   0  0  0  0  0  0  0  0  0  0  0  0
   -3.4730   22.4020  -28.1480 C   0  0  0  0  0  0  0  0  0  0  0  0
   -4.6530   22.3510  -27.7020 O   0  0  0  0  0  0  0  0  0  0  0  0
   -2.6810   23.5900  -27.9400 N   0  0  0  0  0  0  0  0  0  0  0  0
   -3.0880   24.5600  -26.9120 C   0  0  0  0  0  0  0  0  0  0  0  0
   -1.8600   25.2820  -26.3470 C   0  0  0  0  0  0  0  0  0  0  0  0
   -1.0670   26.0190  -27.4510 C   0  0  0  0  0  0  0  0  0  0  0  0
    0.3790   26.1720  -27.0500 C   0  0  0  0  0  0  0  0  0  0  0  0
    1.2510   25.5080  -27.5870 O   0  0  0  0  0  0  0  0  0  0  0  0
   -1.1930   25.3530  -28.8440 C   0  0  0  0  0  0  0  0  0  0  0  0
   -1.4840   23.8500  -28.7590 C   0  0  0  0  0  0  0  0  0  0  0  0
   -3.1190   25.2750  -30.4370 H   0  0  0  0  0  0  0  0  0  0  0  0
   -7.9985   24.6007  -31.1614 H   0  0  0  0  0  0  0  0  0  0  0  0
   -9.5253   22.3382  -32.0015 H   0  0  0  0  0  0  0  0  0  0  0  0
   -9.3385   19.8969  -32.5718 H   0  0  0  0  0  0  0  0  0  0  0  0
   -5.0729   20.0132  -31.6706 H   0  0  0  0  0  0  0  0  0  0  0  0
   -3.2785   20.2970  -28.4570 H   0  0  0  0  0  0  0  0  0  0  0  0
   -1.8418   21.2726  -28.9335 H   0  0  0  0  0  0  0  0  0  0  0  0
   -3.7694   25.2986  -27.3594 H   0  0  0  0  0  0  0  0  0  0  0  0
   -3.5958   24.0250  -26.0959 H   0  0  0  0  0  0  0  0  0  0  0  0
   -2.1921   26.0155  -25.5975 H   0  0  0  0  0  0  0  0  0  0  0  0
   -1.1978   24.5278  -25.8968 H   0  0  0  0  0  0  0  0  0  0  0  0
   -1.5188   27.0170  -27.5510 H   0  0  0  0  0  0  0  0  0  0  0  0
    0.6511   26.8913  -26.2635 H   0  0  0  0  0  0  0  0  0  0  0  0
   -2.0126   25.8393  -29.3934 H   0  0  0  0  0  0  0  0  0  0  0  0
   -0.2284   25.4754  -29.3584 H   0  0  0  0  0  0  0  0  0  0  0  0
   -1.6498   23.4577  -29.7732 H   0  0  0  0  0  0  0  0  0  0  0  0
   -0.6229   23.3520  -28.2895 H   0  0  0  0  0  0  0  0  0  0  0  0
  1  2  1  0
  2  3  2  0
  2  4  1  0
  4  5  2  0
  5  6  1  0
  6  7  2  0
  7  8  1  0
  8  9  2  0
  9 10  1  0
 10 11  1  0
 10 12  1  0
 10 13  1  0
  9 14  1  0
 14 15  2  0
 15 16  1  0
 16 17  1  0
 17 18  2  0
 17 19  1  0
 19 20  1  0
 20 21  1  0
 21 22  2  0
 21 23  1  0
 23 24  1  0
 24 25  1  0
 25 26  1  0
 26 27  1  0
 27 28  2  0
 26 29  1  0
 29 30  1  0
 16  4  1  0
 30 23  1  0
 15  6  1  0
  1 31  1  0
  5 32  1  0
  7 33  1  0
  8 34  1  0
 14 35  1  0
 20 36  1  0
 20 37  1  0
 24 38  1  0
 24 39  1  0
 25 40  1  0
 25 41  1  0
 26 42  1  0
 27 43  1  0
 29 44  1  0
 29 45  1  0
 30 46  1  0
 30 47  1  0
M  CHG  1   1  -1
M  END
>  <UniqueID>  (30) 
30

>  <SMILES>  (30) 
[NH-]C(=O)c1cc2ccc(C(F)(F)F)cc2n1C(=O)OCC(=O)N1CCC(C=O)CC1

>  <Energy>  (30) 
87.20710672473915

>  <Genealogy>  (30) 
[NH-]C(=O)c1cc2ccc(C(F)(F)F)cc2n1C(=O)OCC(=O)N1CCC(C=O)CC1 (protonated)
[NH-]C(=O)c1cc2ccc(C(F)(F)F)cc2n1C(=O)OCC(=O)N1CCC(C=O)CC1 (3D coordinates assigned)
[NH-]C(=O)c1cc2ccc(C(F)(F)F)cc2n1C(=O)OCC(=O)N1CCC(C=O)CC1 (nonaromatic ring conformer: 87.20710672473915 kcal/mol)

>  <smiles>  (30) 
NC(=O)c1cc2ccc(C(F)(F)F)cc2n1C(=O)OCC(=O)N1CCC(C=O)CC1

>  <score_type>  (30) 
oracle

>  <origin>  (30) 
adg

>  <m_score__min__energy>  (30) 
-11.4

>  <m_primary>  (30) 
energy

$$$$
30:0
     RDKit          3D

 53 54  0  0  0  0  0  0  0  0999 V2000
   -5.3530   16.7120  -32.2370 C   0  0  0  0  0  0  0  0  0  0  0  0
   -5.6200   17.8870  -32.1750 C   0  0  0  0  0  0  0  0  0  0  0  0
   -5.9400   19.2870  -32.0930 C   0  0  0  0  0  0  0  0  0  0  0  0
   -7.0840   19.7890  -32.7530 C   0  0  0  0  0  0  0  0  0  0  0  0
   -7.4040   21.1560  -32.6820 C   0  0  0  0  0  0  0  0  0  0  0  0
   -6.5700   21.9820  -31.9340 C   0  0  0  0  0  0  0  0  0  0  0  0
   -6.6310   23.3410  -31.7230 C   0  0  0  0  0  0  0  0  0  0  0  0
   -5.5360   23.6380  -30.9130 C   0  0  0  0  0  0  0  0  0  0  0  0
   -5.2390   24.9910  -30.3990 C   0  0  0  0  0  0  0  0  0  0  0  0
   -4.0560   25.6670  -30.8200 N   0  0  0  0  0  0  0  0  0  0  0  0
   -6.0300   25.5690  -29.6070 O   0  0  0  0  0  0  0  0  0  0  0  0
   -4.8350   22.5060  -30.6220 N   0  0  0  0  0  0  0  0  0  0  0  0
   -3.6080   22.4220  -29.8750 C   0  0  0  0  0  0  0  0  0  0  0  0
   -3.6490   21.9620  -28.7010 O   0  0  0  0  0  0  0  0  0  0  0  0
   -2.2930   22.9570  -30.4210 C   0  0  1  0  0  0  0  0  0  0  0  0
   -1.6200   23.8590  -29.4130 C   0  0  0  0  0  0  0  0  0  0  0  0
   -0.7080   23.4190  -28.6620 O   0  0  0  0  0  0  0  0  0  0  0  0
   -1.9910   25.1960  -29.3230 O   0  0  0  0  0  0  0  0  0  0  0  0
   -1.3200   21.8390  -30.9060 C   0  0  1  0  0  0  0  0  0  0  0  0
   -1.8520   20.4540  -30.4620 C   0  0  0  0  0  0  0  0  0  0  0  0
   -1.1480   19.8540  -29.2230 C   0  0  0  0  0  0  0  0  0  0  0  0
   -1.1090   20.7610  -28.0500 N   0  0  2  0  0  0  0  0  0  0  0  0
    0.2850   21.0320  -27.6650 C   0  0  0  0  0  0  0  0  0  0  0  0
   -1.8080   20.2030  -26.9180 C   0  0  0  0  0  0  0  0  0  0  0  0
   -1.5710   20.6420  -25.7590 O   0  0  0  0  0  0  0  0  0  0  0  0
   -2.7300   19.1660  -27.1020 O   0  0  0  0  0  0  0  0  0  0  0  0
   -3.4950   18.6250  -26.0310 C   0  0  0  0  0  0  0  0  0  0  0  0
   -1.2190   21.8820  -32.3250 O   0  0  0  0  0  0  0  0  0  0  0  0
   -2.3260   21.2670  -32.9470 C   0  0  0  0  0  0  0  0  0  0  0  0
   -5.4680   21.5030  -31.2710 C   0  0  0  0  0  0  0  0  0  0  0  0
   -5.1130   20.1520  -31.3490 C   0  0  0  0  0  0  0  0  0  0  0  0
   -5.1096   15.6408  -32.2935 H   0  0  0  0  0  0  0  0  0  0  0  0
   -7.7283   19.1059  -33.3260 H   0  0  0  0  0  0  0  0  0  0  0  0
   -8.2856   21.5601  -33.2011 H   0  0  0  0  0  0  0  0  0  0  0  0
   -7.3836   24.0431  -32.1110 H   0  0  0  0  0  0  0  0  0  0  0  0
   -3.1100   25.2670  -30.6230 H   0  0  0  0  0  0  0  0  0  0  0  0
   -2.5488   23.5460  -31.3141 H   0  0  0  0  0  0  0  0  0  0  0  0
   -0.3263   22.0021  -30.4634 H   0  0  0  0  0  0  0  0  0  0  0  0
   -2.9224   20.5571  -30.2305 H   0  0  0  0  0  0  0  0  0  0  0  0
   -1.6517   19.7644  -31.2953 H   0  0  0  0  0  0  0  0  0  0  0  0
   -1.6816   18.9369  -28.9329 H   0  0  0  0  0  0  0  0  0  0  0  0
   -0.1038   19.6646  -29.5123 H   0  0  0  0  0  0  0  0  0  0  0  0
   -1.5380   21.6800  -28.3030 H   0  0  0  0  0  0  0  0  0  0  0  0
    0.3660   21.0477  -26.5681 H   0  0  0  0  0  0  0  0  0  0  0  0
    0.9370   20.2438  -28.0695 H   0  0  0  0  0  0  0  0  0  0  0  0
    0.5942   22.0071  -28.0695 H   0  0  0  0  0  0  0  0  0  0  0  0
   -3.0548   18.9363  -25.0722 H   0  0  0  0  0  0  0  0  0  0  0  0
   -4.5293   18.9936  -26.0965 H   0  0  0  0  0  0  0  0  0  0  0  0
   -3.4922   17.5270  -26.0965 H   0  0  0  0  0  0  0  0  0  0  0  0
   -3.0134   20.8851  -32.1778 H   0  0  0  0  0  0  0  0  0  0  0  0
   -2.8500   22.0033  -33.5741 H   0  0  0  0  0  0  0  0  0  0  0  0
   -1.9777   20.4331  -33.5741 H   0  0  0  0  0  0  0  0  0  0  0  0
   -4.2121   19.7749  -30.8429 H   0  0  0  0  0  0  0  0  0  0  0  0
  1  2  3  0
  2  3  1  0
  3  4  2  0
  4  5  1  0
  5  6  2  0
  6  7  1  0
  7  8  2  0
  8  9  1  0
  9 10  1  0
  9 11  2  0
  8 12  1  0
 12 13  1  0
 13 14  2  0
 13 15  1  0
 15 16  1  0
 16 17  2  0
 16 18  1  0
 15 19  1  0
 19 20  1  0
 20 21  1  0
 21 22  1  0
 22 23  1  0
 22 24  1  0
 24 25  2  0
 24 26  1  0
 26 27  1  0
 19 28  1  0
 28 29  1  0
 12 30  1  0
 30 31  2  0
 31  3  1  0
 30  6  1  0
  1 32  1  0
  4 33  1  0
  5 34  1  0
  7 35  1  0
 10 36  1  0
 15 37  1  6
 19 38  1  1
 20 39  1  0
 20 40  1  0
 21 41  1  0
 21 42  1  0
 22 43  1  6
 23 44  1  0
 23 45  1  0
 23 46  1  0
 27 47  1  0
 27 48  1  0
 27 49  1  0
 29 50  1  0
 29 51  1  0
 29 52  1  0
 31 53  1  0
M  CHG  3  10  -1  18  -1  22   1
M  END
>  <UniqueID>  (31) 
31

>  <SMILES>  (31) 
C#Cc1ccc2cc(C([NH-])=O)n(C(=O)[C@@H](C(=O)[O-])[C@@H](CC[NH+](C)C(=O)OC)OC)c2c1

>  <Energy>  (31) 
89.78694750862883

>  <Genealogy>  (31) 
C#Cc1ccc2cc(C([NH-])=O)n(C(=O)C(C(=O)[O-])C(CC[NH+](C)C(=O)OC)OC)c2c1 (protonated)
C#Cc1ccc2cc(C([NH-])=O)n(C(=O)[C@@H](C(=O)[O-])[C@@H](CC[NH+](C)C(=O)OC)OC)c2c1 (chirality)
C#Cc1ccc2cc(C([NH-])=O)n(C(=O)[C@@H](C(=O)[O-])[C@@H](CC[NH+](C)C(=O)OC)OC)c2c1 (3D coordinates assigned)
C#Cc1ccc2cc(C([NH-])=O)n(C(=O)[C@@H](C(=O)[O-])[C@@H](CC[NH+](C)C(=O)OC)OC)c2c1 (optimized conformer: 89.78694750862883 kcal/mol)

>  <smiles>  (31) 
C#Cc1ccc2cc(C(N)=O)n(C(=O)C(C(=O)O)C(CCN(C)C(=O)OC)OC)c2c1

>  <score_type>  (31) 
oracle

>  <origin>  (31) 
adg

>  <m_score__min__energy>  (31) 
-10.73

>  <m_primary>  (31) 
energy

$$$$
31:0
     RDKit          3D

 34 35  0  0  0  0  0  0  0  0999 V2000
   -2.9210   21.4690  -28.9180 C   0  0  0  0  0  0  0  0  0  0  0  0
   -3.2310   22.6470  -29.4670 C   0  0  0  0  0  0  0  0  0  0  0  0
   -3.7830   22.7150  -30.8410 C   0  0  0  0  0  0  0  0  0  0  0  0
   -3.0050   22.7830  -31.8330 O   0  0  0  0  0  0  0  0  0  0  0  0
   -5.2000   22.6930  -31.0690 N   0  0  0  0  0  0  0  0  0  0  0  0
   -6.0720   23.7350  -30.9910 C   0  0  0  0  0  0  0  0  0  0  0  0
   -5.7480   25.1030  -30.5330 C   0  0  0  0  0  0  0  0  0  0  0  0
   -4.4760   25.6860  -30.8020 N   0  0  0  0  0  0  0  0  0  0  0  0
   -6.5990   25.7590  -29.8750 O   0  0  0  0  0  0  0  0  0  0  0  0
   -7.3520   23.3240  -31.3640 C   0  0  0  0  0  0  0  0  0  0  0  0
   -7.2290   21.9890  -31.6790 C   0  0  0  0  0  0  0  0  0  0  0  0
   -8.1840   21.0800  -32.1260 C   0  0  0  0  0  0  0  0  0  0  0  0
   -7.7650   19.7670  -32.3980 C   0  0  0  0  0  0  0  0  0  0  0  0
   -6.4090   19.3860  -32.2300 C   0  0  0  0  0  0  0  0  0  0  0  0
   -6.0210   18.0300  -32.5200 N   0  0  0  0  0  0  0  0  0  0  0  0
   -6.7490   17.1640  -33.4400 C   0  0  0  0  0  0  0  0  0  0  0  0
   -5.4670   20.3440  -31.7820 C   0  0  0  0  0  0  0  0  0  0  0  0
   -5.9190   21.6370  -31.4990 C   0  0  0  0  0  0  0  0  0  0  0  0
   -3.0120   24.1490  -28.4960 P   0  0  1  0  0  0  0  0  0  0  0  0
   -2.2530   23.8340  -27.2270 O   0  0  0  0  0  0  0  0  0  0  0  0
   -2.1360   25.2920  -29.3830 O   0  0  0  0  0  0  0  0  0  0  0  0
   -4.5230   24.7960  -28.0940 O   0  0  0  0  0  0  0  0  0  0  0  0
   -2.5119   21.4283  -27.8977 H   0  0  0  0  0  0  0  0  0  0  0  0
   -3.0749   20.5398  -29.4863 H   0  0  0  0  0  0  0  0  0  0  0  0
   -3.8800   26.0560  -30.0290 H   0  0  0  0  0  0  0  0  0  0  0  0
   -8.2653   23.9361  -31.3990 H   0  0  0  0  0  0  0  0  0  0  0  0
   -9.2334   21.3804  -32.2619 H   0  0  0  0  0  0  0  0  0  0  0  0
   -8.4982   19.0245  -32.7459 H   0  0  0  0  0  0  0  0  0  0  0  0
   -5.1650   17.6410  -32.0620 H   0  0  0  0  0  0  0  0  0  0  0  0
   -7.3531   16.4454  -32.8667 H   0  0  0  0  0  0  0  0  0  0  0  0
   -7.4090   17.7746  -34.0737 H   0  0  0  0  0  0  0  0  0  0  0  0
   -6.0340   16.6187  -34.0737 H   0  0  0  0  0  0  0  0  0  0  0  0
   -4.4067   20.0779  -31.6597 H   0  0  0  0  0  0  0  0  0  0  0  0
   -4.6840   25.5040  -28.7670 H   0  0  0  0  0  0  0  0  0  0  0  0
  1  2  2  0
  2  3  1  0
  3  4  2  0
  3  5  1  0
  5  6  1  0
  6  7  1  0
  7  8  1  0
  7  9  2  0
  6 10  2  0
 10 11  1  0
 11 12  2  0
 12 13  1  0
 13 14  2  0
 14 15  1  0
 15 16  1  0
 14 17  1  0
 17 18  2  0
  2 19  1  0
 19 20  2  0
 19 21  1  6
 19 22  1  0
 18  5  1  0
 18 11  1  0
  1 23  1  0
  1 24  1  0
  8 25  1  0
 10 26  1  0
 12 27  1  0
 13 28  1  0
 15 29  1  0
 16 30  1  0
 16 31  1  0
 16 32  1  0
 17 33  1  0
 22 34  1  0
M  CHG  2   8  -1  21  -1
M  END
>  <UniqueID>  (32) 
32

>  <SMILES>  (32) 
C=C(C(=O)n1c(C([NH-])=O)cc2ccc(NC)cc21)[P@@](=O)([O-])O

>  <Energy>  (32) 
68.11897825094854

>  <Genealogy>  (32) 
C=C(C(=O)n1c(C([NH-])=O)cc2ccc(NC)cc21)P(=O)([O-])O (protonated)
C=C(C(=O)n1c(C([NH-])=O)cc2ccc(NC)cc21)[P@@](=O)([O-])O (chirality)
C=C(C(=O)n1c(C([NH-])=O)cc2ccc(NC)cc21)[P@@](=O)([O-])O (3D coordinates assigned)
C=C(C(=O)n1c(C([NH-])=O)cc2ccc(NC)cc21)[P@@](=O)([O-])O (optimized conformer: 68.11897825094854 kcal/mol)

>  <smiles>  (32) 
C=C(C(=O)n1c(C(N)=O)cc2ccc(NC)cc21)P(=O)(O)O

>  <score_type>  (32) 
oracle

>  <origin>  (32) 
adg

>  <m_score__min__energy>  (32) 
-11.76

>  <m_primary>  (32) 
energy

$$$$
33:0
     RDKit          3D

 49 50  0  0  0  0  0  0  0  0999 V2000
   -3.4340   19.0880  -26.8860 C   0  0  0  0  0  0  0  0  0  0  0  0
   -2.3440   20.1150  -27.2400 C   0  0  0  0  0  0  0  0  0  0  0  0
   -1.3570   19.4780  -28.2320 C   0  0  0  0  0  0  0  0  0  0  0  0
   -2.9670   21.4150  -27.8200 C   0  0  2  0  0  0  0  0  0  0  0  0
   -3.2550   21.3100  -29.2540 N   0  0  0  0  0  0  0  0  0  0  0  0
   -3.4810   22.3840  -30.1730 C   0  0  0  0  0  0  0  0  0  0  0  0
   -2.5380   23.1550  -30.4940 O   0  0  0  0  0  0  0  0  0  0  0  0
   -4.7760   22.5540  -30.7730 N   0  0  0  0  0  0  0  0  0  0  0  0
   -5.5390   23.6850  -30.8270 C   0  0  0  0  0  0  0  0  0  0  0  0
   -5.1350   25.0380  -30.3910 C   0  0  0  0  0  0  0  0  0  0  0  0
   -3.9240   25.6290  -30.8470 N   0  0  0  0  0  0  0  0  0  0  0  0
   -5.8970   25.7010  -29.6370 O   0  0  0  0  0  0  0  0  0  0  0  0
   -6.7680   23.4160  -31.4250 C   0  0  0  0  0  0  0  0  0  0  0  0
   -6.7340   22.0800  -31.7460 C   0  0  0  0  0  0  0  0  0  0  0  0
   -7.6940   21.2860  -32.3650 C   0  0  0  0  0  0  0  0  0  0  0  0
   -7.4020   19.9240  -32.5510 C   0  0  0  0  0  0  0  0  0  0  0  0
   -6.1770   19.3760  -32.0960 C   0  0  0  0  0  0  0  0  0  0  0  0
   -5.8650   17.9200  -32.3360 C   0  0  0  0  0  0  0  0  0  0  0  0
   -6.6720   17.4450  -33.3530 F   0  0  0  0  0  0  0  0  0  0  0  0
   -4.5390   17.7550  -32.6970 F   0  0  0  0  0  0  0  0  0  0  0  0
   -6.0970   17.1780  -31.1900 F   0  0  0  0  0  0  0  0  0  0  0  0
   -5.2190   20.2220  -31.4920 C   0  0  0  0  0  0  0  0  0  0  0  0
   -5.5260   21.5810  -31.3380 C   0  0  0  0  0  0  0  0  0  0  0  0
   -2.1720   22.6730  -27.5200 C   0  0  0  0  0  0  0  0  0  0  0  0
   -0.9140   22.6200  -27.5770 O   0  0  0  0  0  0  0  0  0  0  0  0
   -2.7970   23.9130  -27.1430 N   0  0  0  0  0  0  0  0  0  0  0  0
   -4.2430   24.0670  -27.3340 C   0  0  0  0  0  0  0  0  0  0  0  0
   -1.9580   25.1130  -27.0200 C   0  0  0  0  0  0  0  0  0  0  0  0
   -1.0880   25.2810  -28.2270 C   0  0  0  0  0  0  0  0  0  0  0  0
   -1.5790   25.6800  -29.3160 O   0  0  0  0  0  0  0  0  0  0  0  0
    0.2730   25.0140  -28.1480 O   0  0  0  0  0  0  0  0  0  0  0  0
   -3.5201   19.0069  -25.7924 H   0  0  0  0  0  0  0  0  0  0  0  0
   -4.3964   19.4152  -27.3063 H   0  0  0  0  0  0  0  0  0  0  0  0
   -3.1646   18.1078  -27.3063 H   0  0  0  0  0  0  0  0  0  0  0  0
   -1.8022   20.3991  -26.3258 H   0  0  0  0  0  0  0  0  0  0  0  0
   -0.5594   18.9633  -27.6762 H   0  0  0  0  0  0  0  0  0  0  0  0
   -1.8898   18.7529  -28.8648 H   0  0  0  0  0  0  0  0  0  0  0  0
   -0.9157   20.2621  -28.8648 H   0  0  0  0  0  0  0  0  0  0  0  0
   -3.9229   21.5194  -27.2857 H   0  0  0  0  0  0  0  0  0  0  0  0
   -2.9970   25.2730  -30.5270 H   0  0  0  0  0  0  0  0  0  0  0  0
   -7.5915   24.1232  -31.6027 H   0  0  0  0  0  0  0  0  0  0  0  0
   -8.6521   21.7111  -32.6986 H   0  0  0  0  0  0  0  0  0  0  0  0
   -8.1332   19.2755  -33.0559 H   0  0  0  0  0  0  0  0  0  0  0  0
   -4.2529   19.8223  -31.1500 H   0  0  0  0  0  0  0  0  0  0  0  0
   -4.7388   24.1198  -26.3535 H   0  0  0  0  0  0  0  0  0  0  0  0
   -4.4422   24.9914  -27.8959 H   0  0  0  0  0  0  0  0  0  0  0  0
   -4.6325   23.2053  -27.8959 H   0  0  0  0  0  0  0  0  0  0  0  0
   -2.6054   25.9963  -26.9166 H   0  0  0  0  0  0  0  0  0  0  0  0
   -1.3144   25.0034  -26.1347 H   0  0  0  0  0  0  0  0  0  0  0  0
  1  2  1  0
  2  3  1  0
  2  4  1  0
  4  5  1  0
  5  6  1  0
  6  7  2  0
  6  8  1  0
  8  9  1  0
  9 10  1  0
 10 11  1  0
 10 12  2  0
  9 13  2  0
 13 14  1  0
 14 15  2  0
 15 16  1  0
 16 17  2  0
 17 18  1  0
 18 19  1  0
 18 20  1  0
 18 21  1  0
 17 22  1  0
 22 23  2  0
  4 24  1  0
 24 25  2  0
 24 26  1  0
 26 27  1  0
 26 28  1  0
 28 29  1  0
 29 30  2  0
 29 31  1  0
 23  8  1  0
 23 14  1  0
  1 32  1  0
  1 33  1  0
  1 34  1  0
  2 35  1  0
  3 36  1  0
  3 37  1  0
  3 38  1  0
  4 39  1  1
 11 40  1  0
 13 41  1  0
 15 42  1  0
 16 43  1  0
 22 44  1  0
 27 45  1  0
 27 46  1  0
 27 47  1  0
 28 48  1  0
 28 49  1  0
M  CHG  3   5  -1  11  -1  31  -1
M  END
>  <UniqueID>  (33) 
33

>  <SMILES>  (33) 
CC(C)[C@H]([N-]C(=O)n1c(C([NH-])=O)cc2ccc(C(F)(F)F)cc21)C(=O)N(C)CC(=O)[O-]

>  <Energy>  (33) 
88.36156726547476

>  <Genealogy>  (33) 
CC(C)[C@H]([N-]C(=O)n1c(C([NH-])=O)cc2ccc(C(F)(F)F)cc21)C(=O)N(C)CC(=O)[O-] (protonated)
CC(C)[C@H]([N-]C(=O)n1c(C([NH-])=O)cc2ccc(C(F)(F)F)cc21)C(=O)N(C)CC(=O)[O-] (3D coordinates assigned)
CC(C)[C@H]([N-]C(=O)n1c(C([NH-])=O)cc2ccc(C(F)(F)F)cc21)C(=O)N(C)CC(=O)[O-] (optimized conformer: 88.36156726547476 kcal/mol)

>  <smiles>  (33) 
CC(C)[C@H](NC(=O)n1c(C(N)=O)cc2ccc(C(F)(F)F)cc21)C(=O)N(C)CC(=O)O

>  <score_type>  (33) 
oracle

>  <origin>  (33) 
adg

>  <m_score__min__energy>  (33) 
-13.48

>  <m_primary>  (33) 
energy

$$$$
34:0
     RDKit          3D

 67 68  0  0  0  0  0  0  0  0999 V2000
   -7.2300   18.5550  -32.8680 C   0  0  0  0  0  0  0  0  0  0  0  0
   -7.3110   19.9420  -32.3040 C   0  0  0  0  0  0  0  0  0  0  0  0
   -8.5730   20.5180  -32.0110 C   0  0  0  0  0  0  0  0  0  0  0  0
   -8.6640   21.8330  -31.5230 C   0  0  0  0  0  0  0  0  0  0  0  0
   -7.4820   22.5460  -31.3450 C   0  0  0  0  0  0  0  0  0  0  0  0
   -7.2840   23.8350  -30.9100 C   0  0  0  0  0  0  0  0  0  0  0  0
   -5.9050   24.0250  -30.9370 C   0  0  0  0  0  0  0  0  0  0  0  0
   -5.2450   25.2510  -30.4460 C   0  0  0  0  0  0  0  0  0  0  0  0
   -3.9340   25.5990  -30.8850 N   0  0  0  0  0  0  0  0  0  0  0  0
   -5.8220   25.9690  -29.5870 O   0  0  0  0  0  0  0  0  0  0  0  0
   -5.2740   22.9030  -31.3840 N   0  0  0  0  0  0  0  0  0  0  0  0
   -3.8720   22.7380  -31.6510 C   0  0  0  0  0  0  0  0  0  0  0  0
   -3.0200   23.0720  -30.7810 O   0  0  0  0  0  0  0  0  0  0  0  0
   -3.4610   22.2000  -32.8760 O   0  0  0  0  0  0  0  0  0  0  0  0
   -3.0710   20.8380  -33.0510 C   0  0  0  0  0  0  0  0  0  0  0  0
   -2.4060   20.2770  -31.7900 C   0  0  0  0  0  0  0  0  0  0  0  0
   -0.9220   19.9590  -32.0140 C   0  0  0  0  0  0  0  0  0  0  0  0
   -0.1820   20.0410  -30.7470 N   0  0  0  0  0  0  0  0  0  0  0  0
    1.2190   19.6220  -30.7000 C   0  0  0  0  0  0  0  0  0  0  0  0
   -0.8060   20.5040  -29.5310 C   0  0  0  0  0  0  0  0  0  0  0  0
   -1.5930   19.7370  -28.9100 O   0  0  0  0  0  0  0  0  0  0  0  0
   -0.5410   21.8780  -28.9650 C   0  0  0  0  0  0  0  0  0  0  0  0
   -1.5540   22.2580  -27.8770 C   0  0  0  0  0  0  0  0  0  0  0  0
   -2.0000   23.6500  -28.0290 N   0  0  0  0  0  0  0  0  0  0  0  0
   -3.3770   24.0120  -27.6810 C   0  0  0  0  0  0  0  0  0  0  0  0
   -1.0910   24.6740  -28.4830 C   0  0  0  0  0  0  0  0  0  0  0  0
   -1.5390   25.6700  -29.1140 O   0  0  0  0  0  0  0  0  0  0  0  0
    0.2830   24.5520  -28.2210 O   0  0  0  0  0  0  0  0  0  0  0  0
    0.9710   25.0090  -27.0470 C   0  0  0  0  0  0  0  0  0  0  0  0
    0.6820   23.9960  -25.9300 C   0  0  0  0  0  0  0  0  0  0  0  0
    0.4480   26.3920  -26.6120 C   0  0  0  0  0  0  0  0  0  0  0  0
    2.4920   25.0540  -27.2930 C   0  0  0  0  0  0  0  0  0  0  0  0
   -6.2530   22.0030  -31.6250 C   0  0  0  0  0  0  0  0  0  0  0  0
   -6.1340   20.7010  -32.1270 C   0  0  0  0  0  0  0  0  0  0  0  0
   -7.1875   17.8264  -32.0450 H   0  0  0  0  0  0  0  0  0  0  0  0
   -8.1182   18.3582  -33.4864 H   0  0  0  0  0  0  0  0  0  0  0  0
   -6.3249   18.4629  -33.4864 H   0  0  0  0  0  0  0  0  0  0  0  0
   -9.4896   19.9302  -32.1671 H   0  0  0  0  0  0  0  0  0  0  0  0
   -9.6393   22.2847  -31.2890 H   0  0  0  0  0  0  0  0  0  0  0  0
   -8.0517   24.5616  -30.6054 H   0  0  0  0  0  0  0  0  0  0  0  0
   -3.0880   25.2250  -30.4020 H   0  0  0  0  0  0  0  0  0  0  0  0
   -3.9634   20.2376  -33.2815 H   0  0  0  0  0  0  0  0  0  0  0  0
   -2.3433   20.7909  -33.8746 H   0  0  0  0  0  0  0  0  0  0  0  0
   -2.4919   21.0197  -30.9832 H   0  0  0  0  0  0  0  0  0  0  0  0
   -2.9174   19.3398  -31.5253 H   0  0  0  0  0  0  0  0  0  0  0  0
   -0.8273   18.9425  -32.4236 H   0  0  0  0  0  0  0  0  0  0  0  0
   -0.5032   20.6921  -32.7191 H   0  0  0  0  0  0  0  0  0  0  0  0
    1.5382   19.5265  -29.6517 H   0  0  0  0  0  0  0  0  0  0  0  0
    1.3287   18.6517  -31.2065 H   0  0  0  0  0  0  0  0  0  0  0  0
    1.8434   20.3727  -31.2065 H   0  0  0  0  0  0  0  0  0  0  0  0
    0.4694   21.8940  -28.5304 H   0  0  0  0  0  0  0  0  0  0  0  0
   -0.6340   22.6061  -29.7843 H   0  0  0  0  0  0  0  0  0  0  0  0
   -2.4262   21.5917  -27.9503 H   0  0  0  0  0  0  0  0  0  0  0  0
   -1.0673   22.1533  -26.8961 H   0  0  0  0  0  0  0  0  0  0  0  0
   -3.4833   24.0400  -26.5865 H   0  0  0  0  0  0  0  0  0  0  0  0
   -3.6122   25.0025  -28.0977 H   0  0  0  0  0  0  0  0  0  0  0  0
   -4.0689   23.2652  -28.0977 H   0  0  0  0  0  0  0  0  0  0  0  0
    0.8200   24.4796  -24.9517 H   0  0  0  0  0  0  0  0  0  0  0  0
   -0.3542   23.6377  -26.0190 H   0  0  0  0  0  0  0  0  0  0  0  0
    1.3732   23.1449  -26.0190 H   0  0  0  0  0  0  0  0  0  0  0  0
    0.4271   26.4472  -25.5136 H   0  0  0  0  0  0  0  0  0  0  0  0
    1.1119   27.1756  -27.0060 H   0  0  0  0  0  0  0  0  0  0  0  0
   -0.5683   26.5402  -27.0060 H   0  0  0  0  0  0  0  0  0  0  0  0
    3.0192   25.0696  -26.3277 H   0  0  0  0  0  0  0  0  0  0  0  0
    2.7977   24.1645  -27.8634 H   0  0  0  0  0  0  0  0  0  0  0  0
    2.7445   25.9600  -27.8634 H   0  0  0  0  0  0  0  0  0  0  0  0
   -5.1487   20.2806  -32.3769 H   0  0  0  0  0  0  0  0  0  0  0  0
  1  2  1  0
  2  3  2  0
  3  4  1  0
  4  5  2  0
  5  6  1  0
  6  7  2  0
  7  8  1  0
  8  9  1  0
  8 10  2  0
  7 11  1  0
 11 12  1  0
 12 13  2  0
 12 14  1  0
 14 15  1  0
 15 16  1  0
 16 17  1  0
 17 18  1  0
 18 19  1  0
 18 20  1  0
 20 21  2  0
 20 22  1  0
 22 23  1  0
 23 24  1  0
 24 25  1  0
 24 26  1  0
 26 27  2  0
 26 28  1  0
 28 29  1  0
 29 30  1  0
 29 31  1  0
 29 32  1  0
 11 33  1  0
 33 34  2  0
 34  2  1  0
 33  5  1  0
  1 35  1  0
  1 36  1  0
  1 37  1  0
  3 38  1  0
  4 39  1  0
  6 40  1  0
  9 41  1  0
 15 42  1  0
 15 43  1  0
 16 44  1  0
 16 45  1  0
 17 46  1  0
 17 47  1  0
 19 48  1  0
 19 49  1  0
 19 50  1  0
 22 51  1  0
 22 52  1  0
 23 53  1  0
 23 54  1  0
 25 55  1  0
 25 56  1  0
 25 57  1  0
 30 58  1  0
 30 59  1  0
 30 60  1  0
 31 61  1  0
 31 62  1  0
 31 63  1  0
 32 64  1  0
 32 65  1  0
 32 66  1  0
 34 67  1  0
M  CHG  1   9  -1
M  END
>  <UniqueID>  (34) 
34

>  <SMILES>  (34) 
Cc1ccc2cc(C([NH-])=O)n(C(=O)OCCCN(C)C(=O)CCN(C)C(=O)OC(C)(C)C)c2c1

>  <Energy>  (34) 
87.29768341194337

>  <Genealogy>  (34) 
Cc1ccc2cc(C([NH-])=O)n(C(=O)OCCCN(C)C(=O)CCN(C)C(=O)OC(C)(C)C)c2c1 (protonated)
Cc1ccc2cc(C([NH-])=O)n(C(=O)OCCCN(C)C(=O)CCN(C)C(=O)OC(C)(C)C)c2c1 (3D coordinates assigned)
Cc1ccc2cc(C([NH-])=O)n(C(=O)OCCCN(C)C(=O)CCN(C)C(=O)OC(C)(C)C)c2c1 (optimized conformer: 87.29768341194337 kcal/mol)

>  <smiles>  (34) 
Cc1ccc2cc(C(N)=O)n(C(=O)OCCCN(C)C(=O)CCN(C)C(=O)OC(C)(C)C)c2c1

>  <score_type>  (34) 
oracle

>  <origin>  (34) 
adg

>  <m_score__min__energy>  (34) 
-10.800000000000001

>  <m_primary>  (34) 
energy

$$$$
35:0
     RDKit          3D

 46 48  0  0  0  0  0  0  0  0999 V2000
   -8.0160   22.2750  -30.2930 C   0  0  0  0  0  0  0  0  0  0  0  0
   -6.7980   23.1750  -30.5770 C   0  0  0  0  0  0  0  0  0  0  0  0
   -7.2250   24.6450  -30.4470 C   0  0  0  0  0  0  0  0  0  0  0  0
   -6.2670   22.9360  -32.0040 C   0  0  0  0  0  0  0  0  0  0  0  0
   -5.7650   22.9470  -29.6080 O   0  0  0  0  0  0  0  0  0  0  0  0
   -4.8290   23.8900  -29.1570 C   0  0  0  0  0  0  0  0  0  0  0  0
   -4.9360   24.4260  -28.0210 O   0  0  0  0  0  0  0  0  0  0  0  0
   -3.6980   24.2500  -30.0260 C   0  0  0  0  0  0  0  0  0  0  0  0
   -3.7640   25.2940  -30.7270 O   0  0  0  0  0  0  0  0  0  0  0  0
   -2.5420   23.4050  -30.1170 N   0  0  0  0  0  0  0  0  0  0  0  0
   -1.3120   23.5990  -29.5620 C   0  0  0  0  0  0  0  0  0  0  0  0
   -0.8790   24.8040  -28.8260 C   0  0  0  0  0  0  0  0  0  0  0  0
   -1.6070   26.0220  -28.9690 N   0  0  0  0  0  0  0  0  0  0  0  0
    0.1120   24.7650  -28.0500 O   0  0  0  0  0  0  0  0  0  0  0  0
   -0.4750   22.5220  -29.8490 C   0  0  0  0  0  0  0  0  0  0  0  0
   -1.2340   21.6620  -30.6110 C   0  0  0  0  0  0  0  0  0  0  0  0
   -0.9060   20.4330  -31.1730 C   0  0  0  0  0  0  0  0  0  0  0  0
   -1.8960   19.7570  -31.9050 C   0  0  0  0  0  0  0  0  0  0  0  0
   -3.1940   20.3140  -32.0620 C   0  0  0  0  0  0  0  0  0  0  0  0
   -4.2350   19.5880  -32.8320 C   0  0  0  0  0  0  0  0  0  0  0  0
   -3.9030   18.8620  -33.9890 C   0  0  0  0  0  0  0  0  0  0  0  0
   -4.8650   18.2020  -34.6870 N   0  0  0  0  0  0  0  0  0  0  0  0
   -6.1660   18.2120  -34.2980 C   0  0  0  0  0  0  0  0  0  0  0  0
   -6.5500   18.9180  -33.1550 C   0  0  0  0  0  0  0  0  0  0  0  0
   -7.9260   18.9310  -32.7350 C   0  0  0  0  0  0  0  0  0  0  0  0
   -9.0330   18.9410  -32.3980 N   0  0  0  0  0  0  0  0  0  0  0  0
   -5.5790   19.6080  -32.4200 C   0  0  0  0  0  0  0  0  0  0  0  0
   -3.4860   21.5680  -31.4740 C   0  0  0  0  0  0  0  0  0  0  0  0
   -2.4760   22.2200  -30.7590 C   0  0  0  0  0  0  0  0  0  0  0  0
   -8.1521   22.1744  -29.2061 H   0  0  0  0  0  0  0  0  0  0  0  0
   -8.9165   22.7264  -30.7351 H   0  0  0  0  0  0  0  0  0  0  0  0
   -7.8490   21.2817  -30.7351 H   0  0  0  0  0  0  0  0  0  0  0  0
   -7.3024   24.9116  -29.3826 H   0  0  0  0  0  0  0  0  0  0  0  0
   -6.4767   25.2885  -30.9327 H   0  0  0  0  0  0  0  0  0  0  0  0
   -8.2016   24.7875  -30.9327 H   0  0  0  0  0  0  0  0  0  0  0  0
   -5.2651   22.4850  -31.9517 H   0  0  0  0  0  0  0  0  0  0  0  0
   -6.9471   22.2572  -32.5394 H   0  0  0  0  0  0  0  0  0  0  0  0
   -6.2099   23.8952  -32.5394 H   0  0  0  0  0  0  0  0  0  0  0  0
   -2.6520   26.0230  -28.9930 H   0  0  0  0  0  0  0  0  0  0  0  0
    0.5702   22.3875  -29.5337 H   0  0  0  0  0  0  0  0  0  0  0  0
    0.0988   20.0031  -31.0480 H   0  0  0  0  0  0  0  0  0  0  0  0
   -1.6637   18.7840  -32.3626 H   0  0  0  0  0  0  0  0  0  0  0  0
   -2.8583   18.8277  -34.3318 H   0  0  0  0  0  0  0  0  0  0  0  0
   -6.9186   17.6636  -34.8835 H   0  0  0  0  0  0  0  0  0  0  0  0
   -5.8682   20.1672  -31.5179 H   0  0  0  0  0  0  0  0  0  0  0  0
   -4.4839   22.0192  -31.5769 H   0  0  0  0  0  0  0  0  0  0  0  0
  1  2  1  0
  2  3  1  0
  2  4  1  0
  2  5  1  0
  5  6  1  0
  6  7  2  0
  6  8  1  0
  8  9  2  0
  8 10  1  0
 10 11  1  0
 11 12  1  0
 12 13  1  0
 12 14  2  0
 11 15  2  0
 15 16  1  0
 16 17  2  0
 17 18  1  0
 18 19  2  0
 19 20  1  0
 20 21  2  0
 21 22  1  0
 22 23  2  0
 23 24  1  0
 24 25  1  0
 25 26  3  0
 24 27  2  0
 19 28  1  0
 28 29  2  0
 29 10  1  0
 29 16  1  0
 27 20  1  0
  1 30  1  0
  1 31  1  0
  1 32  1  0
  3 33  1  0
  3 34  1  0
  3 35  1  0
  4 36  1  0
  4 37  1  0
  4 38  1  0
 13 39  1  0
 15 40  1  0
 17 41  1  0
 18 42  1  0
 21 43  1  0
 23 44  1  0
 27 45  1  0
 28 46  1  0
M  CHG  1  13  -1
M  END
>  <UniqueID>  (35) 
35

>  <SMILES>  (35) 
CC(C)(C)OC(=O)C(=O)n1c(C([NH-])=O)cc2ccc(-c3cncc(C#N)c3)cc21

>  <Energy>  (35) 
87.85856925292477

>  <Genealogy>  (35) 
CC(C)(C)OC(=O)C(=O)n1c(C([NH-])=O)cc2ccc(-c3cncc(C#N)c3)cc21 (protonated)
CC(C)(C)OC(=O)C(=O)n1c(C([NH-])=O)cc2ccc(-c3cncc(C#N)c3)cc21 (3D coordinates assigned)
CC(C)(C)OC(=O)C(=O)n1c(C([NH-])=O)cc2ccc(-c3cncc(C#N)c3)cc21 (optimized conformer: 87.85856925292477 kcal/mol)

>  <smiles>  (35) 
CC(C)(C)OC(=O)C(=O)n1c(C(N)=O)cc2ccc(-c3cncc(C#N)c3)cc21

>  <score_type>  (35) 
oracle

>  <origin>  (35) 
adg

>  <m_score__min__energy>  (35) 
-11.720000000000001

>  <m_primary>  (35) 
energy

$$$$
36:0
     RDKit          3D

 47 48  0  0  0  0  0  0  0  0999 V2000
   -5.6950   17.6400  -32.4740 C   0  0  0  0  0  0  0  0  0  0  0  0
   -5.8890   19.1180  -32.3210 C   0  0  0  0  0  0  0  0  0  0  0  0
   -7.0040   19.7580  -32.9170 C   0  0  0  0  0  0  0  0  0  0  0  0
   -7.2180   21.1360  -32.7410 C   0  0  0  0  0  0  0  0  0  0  0  0
   -6.3040   21.8440  -31.9630 C   0  0  0  0  0  0  0  0  0  0  0  0
   -6.2840   23.1720  -31.6040 C   0  0  0  0  0  0  0  0  0  0  0  0
   -5.1620   23.3220  -30.7900 C   0  0  0  0  0  0  0  0  0  0  0  0
   -4.7750   24.6090  -30.1730 C   0  0  0  0  0  0  0  0  0  0  0  0
   -4.1770   25.6510  -30.9380 N   0  0  0  0  0  0  0  0  0  0  0  0
   -4.9720   24.7920  -28.9420 O   0  0  0  0  0  0  0  0  0  0  0  0
   -4.5010   22.1340  -30.6720 N   0  0  0  0  0  0  0  0  0  0  0  0
   -3.3230   21.8420  -29.9010 C   0  0  0  0  0  0  0  0  0  0  0  0
   -3.4540   21.4670  -28.7040 O   0  0  0  0  0  0  0  0  0  0  0  0
   -2.0030   21.9020  -30.4950 N   0  0  0  0  0  0  0  0  0  0  0  0
   -1.1190   23.0310  -30.1720 C   0  0  0  0  0  0  0  0  0  0  0  0
   -1.7270   23.8790  -29.0990 C   0  0  0  0  0  0  0  0  0  0  0  0
   -1.9860   25.2590  -29.3450 N   0  0  0  0  0  0  0  0  0  0  0  0
   -1.9880   23.3830  -27.9710 O   0  0  0  0  0  0  0  0  0  0  0  0
   -1.5310   20.8670  -31.4340 C   0  0  0  0  0  0  0  0  0  0  0  0
   -1.0300   21.4580  -32.7650 C   0  0  2  0  0  0  0  0  0  0  0  0
   -2.0170   21.3150  -33.7540 O   0  0  0  0  0  0  0  0  0  0  0  0
    0.2780   20.8090  -33.2300 C   0  0  0  0  0  0  0  0  0  0  0  0
    0.0650   20.1760  -34.4700 O   0  0  0  0  0  0  0  0  0  0  0  0
    0.5090   21.2550  -35.7140 P   0  0  2  0  0  0  0  0  0  0  0  0
   -0.0750   20.8030  -37.0360 O   0  0  0  0  0  0  0  0  0  0  0  0
    2.1960   21.2790  -35.8390 O   0  0  0  0  0  0  0  0  0  0  0  0
   -0.0400   22.8140  -35.3480 O   0  0  0  0  0  0  0  0  0  0  0  0
   -5.2230   21.2380  -31.3800 C   0  0  0  0  0  0  0  0  0  0  0  0
   -4.9950   19.8660  -31.5240 C   0  0  0  0  0  0  0  0  0  0  0  0
   -5.6338   17.1734  -31.4798 H   0  0  0  0  0  0  0  0  0  0  0  0
   -6.5449   17.2140  -33.0273 H   0  0  0  0  0  0  0  0  0  0  0  0
   -4.7639   17.4477  -33.0273 H   0  0  0  0  0  0  0  0  0  0  0  0
   -7.7091   19.1705  -33.5234 H   0  0  0  0  0  0  0  0  0  0  0  0
   -8.0799   21.6397  -33.2029 H   0  0  0  0  0  0  0  0  0  0  0  0
   -7.0023   23.9517  -31.8975 H   0  0  0  0  0  0  0  0  0  0  0  0
   -3.1710   25.6060  -31.2140 H   0  0  0  0  0  0  0  0  0  0  0  0
   -0.1501   22.6444  -29.8231 H   0  0  0  0  0  0  0  0  0  0  0  0
   -0.9785   23.6439  -31.0746 H   0  0  0  0  0  0  0  0  0  0  0  0
   -2.9610   25.6340  -29.3260 H   0  0  0  0  0  0  0  0  0  0  0  0
   -0.7062   20.3130  -30.9620 H   0  0  0  0  0  0  0  0  0  0  0  0
   -2.3835   20.2101  -31.6614 H   0  0  0  0  0  0  0  0  0  0  0  0
   -0.8251   22.5256  -32.5967 H   0  0  0  0  0  0  0  0  0  0  0  0
   -1.5760   21.4800  -34.6290 H   0  0  0  0  0  0  0  0  0  0  0  0
    1.0535   21.5814  -33.3395 H   0  0  0  0  0  0  0  0  0  0  0  0
    0.6070   20.0669  -32.4876 H   0  0  0  0  0  0  0  0  0  0  0  0
   -0.9880   22.6980  -35.0860 H   0  0  0  0  0  0  0  0  0  0  0  0
   -4.1406   19.3815  -31.0288 H   0  0  0  0  0  0  0  0  0  0  0  0
  1  2  1  0
  2  3  2  0
  3  4  1  0
  4  5  2  0
  5  6  1  0
  6  7  2  0
  7  8  1  0
  8  9  1  0
  8 10  2  0
  7 11  1  0
 11 12  1  0
 12 13  2  0
 12 14  1  0
 14 15  1  0
 15 16  1  0
 16 17  1  0
 16 18  2  0
 14 19  1  0
 19 20  1  0
 20 21  1  0
 20 22  1  0
 22 23  1  0
 23 24  1  0
 24 25  2  0
 24 26  1  6
 24 27  1  0
 11 28  1  0
 28 29  2  0
 29  2  1  0
 28  5  1  0
  1 30  1  0
  1 31  1  0
  1 32  1  0
  3 33  1  0
  4 34  1  0
  6 35  1  0
  9 36  1  0
 15 37  1  0
 15 38  1  0
 17 39  1  0
 19 40  1  0
 19 41  1  0
 20 42  1  1
 21 43  1  0
 22 44  1  0
 22 45  1  0
 27 46  1  0
 29 47  1  0
M  CHG  3   9  -1  17  -1  26  -1
M  END
>  <UniqueID>  (36) 
36

>  <SMILES>  (36) 
Cc1ccc2cc(C([NH-])=O)n(C(=O)N(CC([NH-])=O)C[C@H](O)CO[P@](=O)([O-])O)c2c1

>  <Energy>  (36) 
76.17032077255746

>  <Genealogy>  (36) 
Cc1ccc2cc(C([NH-])=O)n(C(=O)N(CC([NH-])=O)CC(O)COP(=O)([O-])O)c2c1 (protonated)
Cc1ccc2cc(C([NH-])=O)n(C(=O)N(CC([NH-])=O)C[C@H](O)CO[P@](=O)([O-])O)c2c1 (chirality)
Cc1ccc2cc(C([NH-])=O)n(C(=O)N(CC([NH-])=O)C[C@H](O)CO[P@](=O)([O-])O)c2c1 (3D coordinates assigned)
Cc1ccc2cc(C([NH-])=O)n(C(=O)N(CC([NH-])=O)C[C@H](O)CO[P@](=O)([O-])O)c2c1 (optimized conformer: 76.17032077255746 kcal/mol)

>  <smiles>  (36) 
Cc1ccc2cc(C(N)=O)n(C(=O)N(CC(N)=O)CC(O)COP(=O)(O)O)c2c1

>  <score_type>  (36) 
oracle

>  <origin>  (36) 
adg

>  <m_score__min__energy>  (36) 
-12.44

>  <m_primary>  (36) 
energy

$$$$
37:0
     RDKit          3D

 34 35  0  0  0  0  0  0  0  0999 V2000
   -8.1140   18.4210  -32.4200 C   0  0  0  0  0  0  0  0  0  0  0  0
   -7.9700   19.8710  -32.0650 C   0  0  0  0  0  0  0  0  0  0  0  0
   -9.1180   20.6960  -31.9720 C   0  0  0  0  0  0  0  0  0  0  0  0
   -8.9960   22.0610  -31.6630 C   0  0  0  0  0  0  0  0  0  0  0  0
   -7.7150   22.5750  -31.4770 C   0  0  0  0  0  0  0  0  0  0  0  0
   -7.3140   23.8470  -31.1420 C   0  0  0  0  0  0  0  0  0  0  0  0
   -5.9250   23.7900  -31.0820 C   0  0  0  0  0  0  0  0  0  0  0  0
   -5.0760   24.9680  -30.8120 C   0  0  0  0  0  0  0  0  0  0  0  0
   -3.6760   24.8310  -30.5630 N   0  0  0  0  0  0  0  0  0  0  0  0
   -5.5850   26.1200  -30.8540 O   0  0  0  0  0  0  0  0  0  0  0  0
   -5.4810   22.5310  -31.3540 N   0  0  0  0  0  0  0  0  0  0  0  0
   -4.1300   22.0450  -31.2730 C   0  0  0  0  0  0  0  0  0  0  0  0
   -3.4720   21.8260  -32.3250 O   0  0  0  0  0  0  0  0  0  0  0  0
   -3.5370   21.8020  -29.9960 N   0  0  0  0  0  0  0  0  0  0  0  0
   -1.9190   22.2820  -29.6100 S   0  0  0  0  0  0  0  0  0  0  0  0
   -1.2620   22.8690  -30.8270 O   0  0  0  0  0  0  0  0  0  0  0  0
   -1.1360   21.0900  -29.1350 O   0  0  0  0  0  0  0  0  0  0  0  0
   -1.9670   23.5190  -28.3290 C   0  0  0  0  0  0  0  0  0  0  0  0
   -1.1240   24.6910  -28.7130 C   0  0  0  0  0  0  0  0  0  0  0  0
   -1.6320   25.6600  -29.3360 O   0  0  0  0  0  0  0  0  0  0  0  0
    0.2360   24.6940  -28.4260 O   0  0  0  0  0  0  0  0  0  0  0  0
   -6.5910   21.7970  -31.5970 C   0  0  0  0  0  0  0  0  0  0  0  0
   -6.6870   20.4290  -31.8830 C   0  0  0  0  0  0  0  0  0  0  0  0
   -8.1735   17.8222  -31.4992 H   0  0  0  0  0  0  0  0  0  0  0  0
   -9.0308   18.2774  -33.0106 H   0  0  0  0  0  0  0  0  0  0  0  0
   -7.2433   18.0999  -33.0106 H   0  0  0  0  0  0  0  0  0  0  0  0
  -10.1148   20.2635  -32.1434 H   0  0  0  0  0  0  0  0  0  0  0  0
   -9.8841   22.7035  -31.5709 H   0  0  0  0  0  0  0  0  0  0  0  0
   -7.9545   24.7226  -30.9603 H   0  0  0  0  0  0  0  0  0  0  0  0
   -3.1000   25.6710  -30.3310 H   0  0  0  0  0  0  0  0  0  0  0  0
   -3.1950   23.9130  -30.6820 H   0  0  0  0  0  0  0  0  0  0  0  0
   -3.0056   23.8506  -28.1826 H   0  0  0  0  0  0  0  0  0  0  0  0
   -1.5766   23.0858  -27.3963 H   0  0  0  0  0  0  0  0  0  0  0  0
   -5.7845   19.8053  -31.9637 H   0  0  0  0  0  0  0  0  0  0  0  0
  1  2  1  0
  2  3  2  0
  3  4  1  0
  4  5  2  0
  5  6  1  0
  6  7  2  0
  7  8  1  0
  8  9  1  0
  8 10  2  0
  7 11  1  0
 11 12  1  0
 12 13  2  0
 12 14  1  0
 14 15  1  0
 15 16  2  0
 15 17  2  0
 15 18  1  0
 18 19  1  0
 19 20  2  0
 19 21  1  0
 11 22  1  0
 22 23  2  0
 23  2  1  0
 22  5  1  0
  1 24  1  0
  1 25  1  0
  1 26  1  0
  3 27  1  0
  4 28  1  0
  6 29  1  0
  9 30  1  0
  9 31  1  0
 18 32  1  0
 18 33  1  0
 23 34  1  0
M  CHG  2  14  -1  21  -1
M  END
>  <UniqueID>  (37) 
37

>  <SMILES>  (37) 
Cc1ccc2cc(C(N)=O)n(C(=O)[N-]S(=O)(=O)CC(=O)[O-])c2c1

>  <Energy>  (37) 
69.28732677091311

>  <Genealogy>  (37) 
Cc1ccc2cc(C(N)=O)n(C(=O)[N-]S(=O)(=O)CC(=O)[O-])c2c1 (protonated)
Cc1ccc2cc(C(N)=O)n(C(=O)[N-]S(=O)(=O)CC(=O)[O-])c2c1 (3D coordinates assigned)
Cc1ccc2cc(C(N)=O)n(C(=O)[N-]S(=O)(=O)CC(=O)[O-])c2c1 (optimized conformer: 69.28732677091311 kcal/mol)

>  <smiles>  (37) 
Cc1ccc2cc(C(N)=O)n(C(=O)NS(=O)(=O)CC(=O)O)c2c1

>  <score_type>  (37) 
oracle

>  <origin>  (37) 
adg

>  <m_score__min__energy>  (37) 
-11.31

>  <m_primary>  (37) 
energy

$$$$
38:0
     RDKit          3D

 49 50  0  0  0  0  0  0  0  0999 V2000
   -1.0250   18.4510  -27.2560 C   0  0  0  0  0  0  0  0  0  0  0  0
   -1.8840   19.3010  -26.4090 N   0  0  0  0  0  0  0  0  0  0  0  0
   -3.0840   18.5490  -26.0080 C   0  0  0  0  0  0  0  0  0  0  0  0
   -2.2620   20.5430  -27.1230 C   0  0  0  0  0  0  0  0  0  0  0  0
   -1.9080   20.4430  -28.6130 C   0  0  0  0  0  0  0  0  0  0  0  0
   -3.1120   20.7310  -29.5350 C   0  0  0  0  0  0  0  0  0  0  0  0
   -3.2740   22.1730  -29.7890 N   0  0  0  0  0  0  0  0  0  0  0  0
   -2.9910   23.1340  -28.7100 C   0  0  0  0  0  0  0  0  0  0  0  0
   -1.9050   24.0930  -29.0950 C   0  0  0  0  0  0  0  0  0  0  0  0
   -2.1800   25.2850  -29.3890 O   0  0  0  0  0  0  0  0  0  0  0  0
   -0.5850   23.6640  -29.1440 O   0  0  0  0  0  0  0  0  0  0  0  0
   -3.8980   22.6000  -31.0210 C   0  0  0  0  0  0  0  0  0  0  0  0
   -3.1920   22.8390  -32.0410 O   0  0  0  0  0  0  0  0  0  0  0  0
   -5.3240   22.7190  -31.1250 N   0  0  0  0  0  0  0  0  0  0  0  0
   -6.0880   23.8250  -30.9000 C   0  0  0  0  0  0  0  0  0  0  0  0
   -5.5740   25.1330  -30.4280 C   0  0  0  0  0  0  0  0  0  0  0  0
   -4.2110   25.5130  -30.6380 N   0  0  0  0  0  0  0  0  0  0  0  0
   -6.3430   25.9350  -29.8350 O   0  0  0  0  0  0  0  0  0  0  0  0
   -7.4320   23.5340  -31.1490 C   0  0  0  0  0  0  0  0  0  0  0  0
   -7.4560   22.2160  -31.5470 C   0  0  0  0  0  0  0  0  0  0  0  0
   -8.5250   21.4140  -31.9370 C   0  0  0  0  0  0  0  0  0  0  0  0
   -8.2480   20.0920  -32.3240 C   0  0  0  0  0  0  0  0  0  0  0  0
   -6.9160   19.5990  -32.3300 C   0  0  0  0  0  0  0  0  0  0  0  0
   -6.6370   18.1650  -32.6990 C   0  0  0  0  0  0  0  0  0  0  0  0
   -7.7220   17.3620  -32.3950 F   0  0  0  0  0  0  0  0  0  0  0  0
   -5.5350   17.7190  -31.9930 F   0  0  0  0  0  0  0  0  0  0  0  0
   -6.3810   18.0520  -34.0550 F   0  0  0  0  0  0  0  0  0  0  0  0
   -5.8620   20.4420  -31.9090 C   0  0  0  0  0  0  0  0  0  0  0  0
   -6.1710   21.7510  -31.5260 C   0  0  0  0  0  0  0  0  0  0  0  0
   -0.3885   17.8211  -26.6172 H   0  0  0  0  0  0  0  0  0  0  0  0
   -1.6549   17.8107  -27.8911 H   0  0  0  0  0  0  0  0  0  0  0  0
   -0.3914   19.0876  -27.8911 H   0  0  0  0  0  0  0  0  0  0  0  0
   -3.1435   18.5117  -24.9102 H   0  0  0  0  0  0  0  0  0  0  0  0
   -3.9796   19.0477  -26.4070 H   0  0  0  0  0  0  0  0  0  0  0  0
   -3.0257   17.5256  -26.4070 H   0  0  0  0  0  0  0  0  0  0  0  0
   -3.3453   20.7033  -27.0195 H   0  0  0  0  0  0  0  0  0  0  0  0
   -1.7072   21.3853  -26.6841 H   0  0  0  0  0  0  0  0  0  0  0  0
   -1.1135   21.1707  -28.8350 H   0  0  0  0  0  0  0  0  0  0  0  0
   -1.5820   19.4105  -28.8072 H   0  0  0  0  0  0  0  0  0  0  0  0
   -2.9570   20.2157  -30.4944 H   0  0  0  0  0  0  0  0  0  0  0  0
   -4.0212   20.3679  -29.0335 H   0  0  0  0  0  0  0  0  0  0  0  0
   -3.9067   23.7020  -28.4887 H   0  0  0  0  0  0  0  0  0  0  0  0
   -2.6549   22.5704  -27.8272 H   0  0  0  0  0  0  0  0  0  0  0  0
   -3.8600   26.4230  -30.2680 H   0  0  0  0  0  0  0  0  0  0  0  0
   -3.5600   24.9350  -31.2120 H   0  0  0  0  0  0  0  0  0  0  0  0
   -8.2902   24.2147  -31.0482 H   0  0  0  0  0  0  0  0  0  0  0  0
   -9.5539   21.8030  -31.9420 H   0  0  0  0  0  0  0  0  0  0  0  0
   -9.0732   19.4304  -32.6262 H   0  0  0  0  0  0  0  0  0  0  0  0
   -4.8245   20.0773  -31.8833 H   0  0  0  0  0  0  0  0  0  0  0  0
  1  2  1  0
  2  3  1  0
  2  4  1  0
  4  5  1  0
  5  6  1  0
  6  7  1  0
  7  8  1  0
  8  9  1  0
  9 10  2  0
  9 11  1  0
  7 12  1  0
 12 13  2  0
 12 14  1  0
 14 15  1  0
 15 16  1  0
 16 17  1  0
 16 18  2  0
 15 19  2  0
 19 20  1  0
 20 21  2  0
 21 22  1  0
 22 23  2  0
 23 24  1  0
 24 25  1  0
 24 26  1  0
 24 27  1  0
 23 28  1  0
 28 29  2  0
 29 14  1  0
 29 20  1  0
  1 30  1  0
  1 31  1  0
  1 32  1  0
  3 33  1  0
  3 34  1  0
  3 35  1  0
  4 36  1  0
  4 37  1  0
  5 38  1  0
  5 39  1  0
  6 40  1  0
  6 41  1  0
  8 42  1  0
  8 43  1  0
 17 44  1  0
 17 45  1  0
 19 46  1  0
 21 47  1  0
 22 48  1  0
 28 49  1  0
M  CHG  1  11  -1
M  END
>  <UniqueID>  (38) 
38

>  <SMILES>  (38) 
CN(C)CCCN(CC(=O)[O-])C(=O)n1c(C(N)=O)cc2ccc(C(F)(F)F)cc21

>  <Energy>  (38) 
85.33527645023071

>  <Genealogy>  (38) 
CN(C)CCCN(CC(=O)[O-])C(=O)n1c(C(N)=O)cc2ccc(C(F)(F)F)cc21 (protonated)
CN(C)CCCN(CC(=O)[O-])C(=O)n1c(C(N)=O)cc2ccc(C(F)(F)F)cc21 (3D coordinates assigned)
CN(C)CCCN(CC(=O)[O-])C(=O)n1c(C(N)=O)cc2ccc(C(F)(F)F)cc21 (optimized conformer: 85.33527645023071 kcal/mol)

>  <smiles>  (38) 
CN(C)CCCN(CC(=O)O)C(=O)n1c(C(N)=O)cc2ccc(C(F)(F)F)cc21

>  <score_type>  (38) 
oracle

>  <origin>  (38) 
adg

>  <m_score__min__energy>  (38) 
-11.050000000000001

>  <m_primary>  (38) 
energy

$$$$
39:0
     RDKit          3D

 42 43  0  0  0  0  0  0  0  0999 V2000
   -1.4890   21.4690  -33.7410 N   0  0  0  0  0  0  0  0  0  0  0  0
   -1.7840   20.1500  -33.2840 C   0  0  0  0  0  0  0  0  0  0  0  0
   -0.8330   19.3690  -33.0140 O   0  0  0  0  0  0  0  0  0  0  0  0
   -3.1740   19.6650  -33.1500 C   0  0  0  0  0  0  0  0  0  0  0  0
   -3.5290   18.3190  -33.2200 C   0  0  0  0  0  0  0  0  0  0  0  0
   -4.8800   18.2830  -32.9570 C   0  0  0  0  0  0  0  0  0  0  0  0
   -5.7520   17.2020  -32.8790 C   0  0  0  0  0  0  0  0  0  0  0  0
   -7.0950   17.4610  -32.5530 C   0  0  0  0  0  0  0  0  0  0  0  0
   -7.5360   18.7850  -32.2920 C   0  0  0  0  0  0  0  0  0  0  0  0
   -8.9870   19.0490  -31.9780 C   0  0  0  0  0  0  0  0  0  0  0  0
   -9.5890   17.8700  -31.5830 F   0  0  0  0  0  0  0  0  0  0  0  0
   -9.0980   19.9770  -30.9570 F   0  0  0  0  0  0  0  0  0  0  0  0
   -9.6490   19.5440  -33.0870 F   0  0  0  0  0  0  0  0  0  0  0  0
   -6.6220   19.8570  -32.4050 C   0  0  0  0  0  0  0  0  0  0  0  0
   -5.2950   19.5670  -32.7320 C   0  0  0  0  0  0  0  0  0  0  0  0
   -4.2630   20.4260  -32.8470 N   0  0  0  0  0  0  0  0  0  0  0  0
   -4.3100   21.8260  -32.5340 C   0  0  0  0  0  0  0  0  0  0  0  0
   -4.1910   22.6610  -33.4700 O   0  0  0  0  0  0  0  0  0  0  0  0
   -4.5860   22.2800  -31.1890 N   0  0  0  0  0  0  0  0  0  0  0  0
   -5.9620   22.1630  -30.6790 C   0  0  0  0  0  0  0  0  0  0  0  0
   -7.3050   23.3600  -31.8390 I   0  0  0  0  0  0  0  0  0  0  0  0
   -3.5130   22.8510  -30.3420 C   0  0  1  0  0  0  0  0  0  0  0  0
   -2.1160   22.3170  -30.7320 C   0  0  0  0  0  0  0  0  0  0  0  0
   -1.0980   22.4890  -29.6010 C   0  0  0  0  0  0  0  0  0  0  0  0
   -0.4630   23.7340  -29.7060 O   0  0  0  0  0  0  0  0  0  0  0  0
   -3.5610   24.3540  -30.3810 C   0  0  0  0  0  0  0  0  0  0  0  0
   -2.7400   25.0440  -29.7200 O   0  0  0  0  0  0  0  0  0  0  0  0
   -4.4990   24.9950  -31.1810 O   0  0  0  0  0  0  0  0  0  0  0  0
   -2.2060   22.0460  -34.2290 H   0  0  0  0  0  0  0  0  0  0  0  0
   -0.5060   21.8210  -33.7190 H   0  0  0  0  0  0  0  0  0  0  0  0
   -2.8696   17.4662  -33.4390 H   0  0  0  0  0  0  0  0  0  0  0  0
   -5.4017   16.1763  -33.0666 H   0  0  0  0  0  0  0  0  0  0  0  0
   -7.8120   16.6285  -32.4996 H   0  0  0  0  0  0  0  0  0  0  0  0
   -6.9475   20.8946  -32.2395 H   0  0  0  0  0  0  0  0  0  0  0  0
   -6.2784   21.1109  -30.7324 H   0  0  0  0  0  0  0  0  0  0  0  0
   -5.9838   22.5163  -29.6375 H   0  0  0  0  0  0  0  0  0  0  0  0
   -3.6928   22.5244  -29.3071 H   0  0  0  0  0  0  0  0  0  0  0  0
   -2.1999   21.2473  -30.9742 H   0  0  0  0  0  0  0  0  0  0  0  0
   -1.7616   22.8953  -31.5980 H   0  0  0  0  0  0  0  0  0  0  0  0
   -1.6165   22.4262  -28.6329 H   0  0  0  0  0  0  0  0  0  0  0  0
   -0.3420   21.6934  -29.6747 H   0  0  0  0  0  0  0  0  0  0  0  0
   -1.1230   24.3580  -30.1080 H   0  0  0  0  0  0  0  0  0  0  0  0
  1  2  1  0
  2  3  2  0
  2  4  1  0
  4  5  2  0
  5  6  1  0
  6  7  2  0
  7  8  1  0
  8  9  2  0
  9 10  1  0
 10 11  1  0
 10 12  1  0
 10 13  1  0
  9 14  1  0
 14 15  2  0
 15 16  1  0
 16 17  1  0
 17 18  2  0
 17 19  1  0
 19 20  1  0
 20 21  1  0
 19 22  1  0
 22 23  1  0
 23 24  1  0
 24 25  1  0
 22 26  1  0
 26 27  2  0
 26 28  1  0
 16  4  1  0
 15  6  1  0
  1 29  1  0
  1 30  1  0
  5 31  1  0
  7 32  1  0
  8 33  1  0
 14 34  1  0
 20 35  1  0
 20 36  1  0
 22 37  1  1
 23 38  1  0
 23 39  1  0
 24 40  1  0
 24 41  1  0
 25 42  1  0
M  CHG  1  28  -1
M  END
>  <UniqueID>  (39) 
39

>  <SMILES>  (39) 
NC(=O)c1cc2ccc(C(F)(F)F)cc2n1C(=O)N(CI)[C@@H](CCO)C(=O)[O-]

>  <Energy>  (39) 
79.39204054661013

>  <Genealogy>  (39) 
NC(=O)c1cc2ccc(C(F)(F)F)cc2n1C(=O)N(CI)[C@@H](CCO)C(=O)[O-] (protonated)
NC(=O)c1cc2ccc(C(F)(F)F)cc2n1C(=O)N(CI)[C@@H](CCO)C(=O)[O-] (3D coordinates assigned)
NC(=O)c1cc2ccc(C(F)(F)F)cc2n1C(=O)N(CI)[C@@H](CCO)C(=O)[O-] (optimized conformer: 79.39204054661013 kcal/mol)

>  <smiles>  (39) 
NC(=O)c1cc2ccc(C(F)(F)F)cc2n1C(=O)N(CI)[C@@H](CCO)C(=O)O

>  <score_type>  (39) 
oracle

>  <origin>  (39) 
adg

>  <m_score__min__energy>  (39) 
-11.18

>  <m_primary>  (39) 
energy

$$$$
40:0
     RDKit          3D

 53 54  0  0  0  0  0  0  0  0999 V2000
   -0.3790   22.6500  -24.1000 C   0  0  0  0  0  0  0  0  0  0  0  0
   -0.0400   22.5750  -25.5250 N   0  0  0  0  0  0  0  0  0  0  0  0
    0.8070   23.6080  -26.1310 C   0  0  0  0  0  0  0  0  0  0  0  0
   -0.5960   21.5050  -26.3190 C   0  0  0  0  0  0  0  0  0  0  0  0
   -1.5710   20.8410  -25.8700 O   0  0  0  0  0  0  0  0  0  0  0  0
   -0.0730   21.1760  -27.6970 C   0  0  0  0  0  0  0  0  0  0  0  0
   -0.7450   22.0080  -28.8040 C   0  0  0  0  0  0  0  0  0  0  0  0
   -1.6780   23.1210  -28.2630 C   0  0  1  0  0  0  0  0  0  0  0  0
   -1.3350   24.4760  -28.8320 C   0  0  0  0  0  0  0  0  0  0  0  0
   -0.1350   24.8550  -28.8670 O   0  0  0  0  0  0  0  0  0  0  0  0
   -2.3200   25.2880  -29.3840 O   0  0  0  0  0  0  0  0  0  0  0  0
   -3.1010   22.8060  -28.5080 N   0  0  0  0  0  0  0  0  0  0  0  0
   -4.1220   23.4020  -27.6390 C   0  0  0  0  0  0  0  0  0  0  0  0
   -3.4900   22.0040  -29.6480 C   0  0  0  0  0  0  0  0  0  0  0  0
   -3.4460   20.7470  -29.5640 O   0  0  0  0  0  0  0  0  0  0  0  0
   -3.9700   22.6080  -30.9140 C   0  0  0  0  0  0  0  0  0  0  0  0
   -3.1570   22.9960  -31.7920 O   0  0  0  0  0  0  0  0  0  0  0  0
   -5.3790   22.7740  -31.1440 N   0  0  0  0  0  0  0  0  0  0  0  0
   -6.1320   23.8830  -30.9010 C   0  0  0  0  0  0  0  0  0  0  0  0
   -5.6000   25.1910  -30.4500 C   0  0  0  0  0  0  0  0  0  0  0  0
   -4.2360   25.5500  -30.6840 N   0  0  0  0  0  0  0  0  0  0  0  0
   -6.3480   25.9990  -29.8400 O   0  0  0  0  0  0  0  0  0  0  0  0
   -7.4740   23.6280  -31.1840 C   0  0  0  0  0  0  0  0  0  0  0  0
   -7.5160   22.3150  -31.6000 C   0  0  0  0  0  0  0  0  0  0  0  0
   -8.6000   21.5260  -31.9740 C   0  0  0  0  0  0  0  0  0  0  0  0
   -8.3530   20.1840  -32.3140 C   0  0  0  0  0  0  0  0  0  0  0  0
   -7.0350   19.6580  -32.2820 C   0  0  0  0  0  0  0  0  0  0  0  0
   -6.7920   18.2020  -32.5870 C   0  0  0  0  0  0  0  0  0  0  0  0
   -6.4080   18.0380  -33.9070 F   0  0  0  0  0  0  0  0  0  0  0  0
   -7.9560   17.4900  -32.3630 F   0  0  0  0  0  0  0  0  0  0  0  0
   -5.7900   17.6920  -31.7780 F   0  0  0  0  0  0  0  0  0  0  0  0
   -5.9660   20.4860  -31.8720 C   0  0  0  0  0  0  0  0  0  0  0  0
   -6.2390   21.8220  -31.5610 C   0  0  0  0  0  0  0  0  0  0  0  0
    0.5201   22.4511  -23.4983 H   0  0  0  0  0  0  0  0  0  0  0  0
   -0.7617   23.6545  -23.8665 H   0  0  0  0  0  0  0  0  0  0  0  0
   -1.1497   21.9006  -23.8665 H   0  0  0  0  0  0  0  0  0  0  0  0
    1.2904   24.1975  -25.3380 H   0  0  0  0  0  0  0  0  0  0  0  0
    1.5774   23.1311  -26.7547 H   0  0  0  0  0  0  0  0  0  0  0  0
    0.1884   24.2700  -26.7547 H   0  0  0  0  0  0  0  0  0  0  0  0
    1.0093   21.3716  -27.7182 H   0  0  0  0  0  0  0  0  0  0  0  0
   -0.3002   20.1178  -27.8937 H   0  0  0  0  0  0  0  0  0  0  0  0
    0.0419   22.4786  -29.4117 H   0  0  0  0  0  0  0  0  0  0  0  0
   -1.3706   21.3193  -29.3908 H   0  0  0  0  0  0  0  0  0  0  0  0
   -1.5152   23.1617  -27.1759 H   0  0  0  0  0  0  0  0  0  0  0  0
   -3.8467   23.2413  -26.5862 H   0  0  0  0  0  0  0  0  0  0  0  0
   -4.1896   24.4814  -27.8396 H   0  0  0  0  0  0  0  0  0  0  0  0
   -5.0952   22.9301  -27.8396 H   0  0  0  0  0  0  0  0  0  0  0  0
   -3.8690   26.4620  -30.3310 H   0  0  0  0  0  0  0  0  0  0  0  0
   -3.6000   24.9440  -31.2460 H   0  0  0  0  0  0  0  0  0  0  0  0
   -8.3190   24.3265  -31.0942 H   0  0  0  0  0  0  0  0  0  0  0  0
   -9.6189   21.9396  -32.0027 H   0  0  0  0  0  0  0  0  0  0  0  0
   -9.1907   19.5345  -32.6081 H   0  0  0  0  0  0  0  0  0  0  0  0
   -4.9427   20.0890  -31.7991 H   0  0  0  0  0  0  0  0  0  0  0  0
  1  2  1  0
  2  3  1  0
  2  4  1  0
  4  5  2  0
  4  6  1  0
  6  7  1  0
  7  8  1  0
  8  9  1  0
  9 10  2  0
  9 11  1  0
  8 12  1  0
 12 13  1  0
 12 14  1  0
 14 15  2  0
 14 16  1  0
 16 17  2  0
 16 18  1  0
 18 19  1  0
 19 20  1  0
 20 21  1  0
 20 22  2  0
 19 23  2  0
 23 24  1  0
 24 25  2  0
 25 26  1  0
 26 27  2  0
 27 28  1  0
 28 29  1  0
 28 30  1  0
 28 31  1  0
 27 32  1  0
 32 33  2  0
 33 18  1  0
 33 24  1  0
  1 34  1  0
  1 35  1  0
  1 36  1  0
  3 37  1  0
  3 38  1  0
  3 39  1  0
  6 40  1  0
  6 41  1  0
  7 42  1  0
  7 43  1  0
  8 44  1  1
 13 45  1  0
 13 46  1  0
 13 47  1  0
 21 48  1  0
 21 49  1  0
 23 50  1  0
 25 51  1  0
 26 52  1  0
 32 53  1  0
M  CHG  1  11  -1
M  END
>  <UniqueID>  (40) 
40

>  <SMILES>  (40) 
CN(C)C(=O)CC[C@@H](C(=O)[O-])N(C)C(=O)C(=O)n1c(C(N)=O)cc2ccc(C(F)(F)F)cc21

>  <Energy>  (40) 
88.67685443414251

>  <Genealogy>  (40) 
CN(C)C(=O)CC[C@@H](C(=O)[O-])N(C)C(=O)C(=O)n1c(C(N)=O)cc2ccc(C(F)(F)F)cc21 (protonated)
CN(C)C(=O)CC[C@@H](C(=O)[O-])N(C)C(=O)C(=O)n1c(C(N)=O)cc2ccc(C(F)(F)F)cc21 (3D coordinates assigned)
CN(C)C(=O)CC[C@@H](C(=O)[O-])N(C)C(=O)C(=O)n1c(C(N)=O)cc2ccc(C(F)(F)F)cc21 (optimized conformer: 88.67685443414251 kcal/mol)

>  <smiles>  (40) 
CN(C)C(=O)CC[C@@H](C(=O)O)N(C)C(=O)C(=O)n1c(C(N)=O)cc2ccc(C(F)(F)F)cc21

>  <score_type>  (40) 
oracle

>  <origin>  (40) 
adg

>  <m_score__min__energy>  (40) 
-11.99

>  <m_primary>  (40) 
energy

$$$$
41:0
     RDKit          3D

 47 48  0  0  0  0  0  0  0  0999 V2000
   -1.2270   26.2080  -27.3320 C   0  0  0  0  0  0  0  0  0  0  0  0
   -1.8630   25.2350  -27.9800 C   0  0  0  0  0  0  0  0  0  0  0  0
   -2.1310   25.2880  -29.3410 O   0  0  0  0  0  0  0  0  0  0  0  0
   -2.3190   24.0310  -27.2470 C   0  0  0  0  0  0  0  0  0  0  0  0
   -1.4530   22.8850  -27.5460 N   0  0  0  0  0  0  0  0  0  0  0  0
   -1.0220   22.0760  -26.4430 C   0  0  0  0  0  0  0  0  0  0  0  0
   -1.1290   22.6800  -28.9010 C   0  0  0  0  0  0  0  0  0  0  0  0
   -0.1590   23.3870  -29.3550 O   0  0  0  0  0  0  0  0  0  0  0  0
   -1.7660   21.7610  -29.8400 C   0  0  0  0  0  0  0  0  0  0  0  0
   -1.7700   22.2630  -31.1330 O   0  0  0  0  0  0  0  0  0  0  0  0
   -3.0350   22.0300  -31.6440 C   0  0  0  0  0  0  0  0  0  0  0  0
   -4.0800   22.9830  -31.2630 C   0  0  0  0  0  0  0  0  0  0  0  0
   -3.6220   24.1420  -30.9250 O   0  0  0  0  0  0  0  0  0  0  0  0
   -5.4690   22.8310  -31.2160 N   0  0  0  0  0  0  0  0  0  0  0  0
   -6.4130   23.4460  -30.4890 C   0  0  0  0  0  0  0  0  0  0  0  0
   -6.3390   24.6870  -29.7280 C   0  0  0  0  0  0  0  0  0  0  0  0
   -5.2020   24.9070  -28.8590 N   0  0  0  0  0  0  0  0  0  0  0  0
   -7.1760   25.6040  -29.7470 O   0  0  0  0  0  0  0  0  0  0  0  0
   -7.6530   22.8120  -30.6620 C   0  0  0  0  0  0  0  0  0  0  0  0
   -7.4410   21.7820  -31.5330 C   0  0  0  0  0  0  0  0  0  0  0  0
   -8.3430   20.8620  -32.0250 C   0  0  0  0  0  0  0  0  0  0  0  0
   -7.9240   19.8910  -32.9040 C   0  0  0  0  0  0  0  0  0  0  0  0
   -6.5920   19.8860  -33.2540 C   0  0  0  0  0  0  0  0  0  0  0  0
   -6.1100   18.8330  -34.2150 C   0  0  0  0  0  0  0  0  0  0  0  0
   -5.6880   20.8230  -32.7500 C   0  0  0  0  0  0  0  0  0  0  0  0
   -6.1110   21.8060  -31.8620 C   0  0  0  0  0  0  0  0  0  0  0  0
   -1.0388   26.1180  -26.2520 H   0  0  0  0  0  0  0  0  0  0  0  0
   -0.8895   27.1023  -27.8764 H   0  0  0  0  0  0  0  0  0  0  0  0
   -1.8400   24.5920  -29.9940 H   0  0  0  0  0  0  0  0  0  0  0  0
   -2.2903   24.2334  -26.1662 H   0  0  0  0  0  0  0  0  0  0  0  0
   -3.3452   23.7915  -27.5624 H   0  0  0  0  0  0  0  0  0  0  0  0
   -1.2868   22.5731  -25.4982 H   0  0  0  0  0  0  0  0  0  0  0  0
   -1.5170   21.0949  -26.4924 H   0  0  0  0  0  0  0  0  0  0  0  0
    0.0684   21.9395  -26.4924 H   0  0  0  0  0  0  0  0  0  0  0  0
   -1.2185   20.8070  -29.8306 H   0  0  0  0  0  0  0  0  0  0  0  0
   -2.8107   21.6219  -29.5251 H   0  0  0  0  0  0  0  0  0  0  0  0
   -2.9589   22.0387  -32.7413 H   0  0  0  0  0  0  0  0  0  0  0  0
   -3.3491   21.0670  -31.2151 H   0  0  0  0  0  0  0  0  0  0  0  0
   -5.3680   24.6050  -27.8600 H   0  0  0  0  0  0  0  0  0  0  0  0
   -4.3210   25.3150  -29.1790 H   0  0  0  0  0  0  0  0  0  0  0  0
   -8.6067   23.0898  -30.1895 H   0  0  0  0  0  0  0  0  0  0  0  0
   -9.3974   20.9049  -31.7144 H   0  0  0  0  0  0  0  0  0  0  0  0
   -8.6250   19.1477  -33.3115 H   0  0  0  0  0  0  0  0  0  0  0  0
   -5.7169   17.9742  -33.6511 H   0  0  0  0  0  0  0  0  0  0  0  0
   -6.9470   18.5037  -34.8482 H   0  0  0  0  0  0  0  0  0  0  0  0
   -5.3137   19.2513  -34.8482 H   0  0  0  0  0  0  0  0  0  0  0  0
   -4.6327   20.7834  -33.0578 H   0  0  0  0  0  0  0  0  0  0  0  0
  1  2  2  0
  2  3  1  0
  2  4  1  0
  4  5  1  0
  5  6  1  0
  5  7  1  0
  7  8  2  0
  7  9  1  0
  9 10  1  0
 10 11  1  0
 11 12  1  0
 12 13  2  0
 12 14  1  0
 14 15  1  0
 15 16  1  0
 16 17  1  0
 16 18  2  0
 15 19  2  0
 19 20  1  0
 20 21  2  0
 21 22  1  0
 22 23  2  0
 23 24  1  0
 23 25  1  0
 25 26  2  0
 26 14  1  0
 26 20  1  0
  1 27  1  0
  1 28  1  0
  3 29  1  0
  4 30  1  0
  4 31  1  0
  6 32  1  0
  6 33  1  0
  6 34  1  0
  9 35  1  0
  9 36  1  0
 11 37  1  0
 11 38  1  0
 17 39  1  0
 17 40  1  0
 19 41  1  0
 21 42  1  0
 22 43  1  0
 24 44  1  0
 24 45  1  0
 24 46  1  0
 25 47  1  0
M  END
>  <smiles>  (41) 
C=C(O)CN(C)C(=O)COCC(=O)n1c(C(N)=O)cc2ccc(C)cc21

>  <score_type>  (41) 
oracle

>  <origin>  (41) 
adg

>  <m_score__min__energy>  (41) 
-9.6099999999999994

>  <m_primary>  (41) 
energy

$$$$
42:0
     RDKit          3D

 38 39  0  0  0  0  0  0  0  0999 V2000
   -3.1880   25.3010  -29.9990 H   0  0  0  0  0  0  0  0  0  0  0  0
   -3.8710   25.3670  -30.7850 N   0  0  0  0  0  0  0  0  0  0  0  0
   -5.2720   25.2430  -30.5510 C   0  0  0  0  0  0  0  0  0  0  0  0
   -5.9100   26.2270  -30.0920 O   0  0  0  0  0  0  0  0  0  0  0  0
   -5.9510   23.9570  -30.8140 C   0  0  0  0  0  0  0  0  0  0  0  0
   -7.3310   23.7800  -30.7280 C   0  0  0  0  0  0  0  0  0  0  0  0
   -8.0795   24.5195  -30.4071 H   0  0  0  0  0  0  0  0  0  0  0  0
   -7.5580   22.4830  -31.1300 C   0  0  0  0  0  0  0  0  0  0  0  0
   -8.7480   21.7670  -31.2190 C   0  0  0  0  0  0  0  0  0  0  0  0
   -9.7114   22.2352  -30.9689 H   0  0  0  0  0  0  0  0  0  0  0  0
   -8.6810   20.4280  -31.6380 C   0  0  0  0  0  0  0  0  0  0  0  0
   -9.6044   19.8346  -31.7097 H   0  0  0  0  0  0  0  0  0  0  0  0
   -7.4370   19.8310  -31.9700 C   0  0  0  0  0  0  0  0  0  0  0  0
   -7.3740   18.3760  -32.3570 C   0  0  0  0  0  0  0  0  0  0  0  0
   -6.5460   17.6740  -31.4970 F   0  0  0  0  0  0  0  0  0  0  0  0
   -6.8790   18.2360  -33.6430 F   0  0  0  0  0  0  0  0  0  0  0  0
   -8.6450   17.8340  -32.3020 F   0  0  0  0  0  0  0  0  0  0  0  0
   -6.2470   20.5860  -31.8420 C   0  0  0  0  0  0  0  0  0  0  0  0
   -5.2674   20.1336  -32.0557 H   0  0  0  0  0  0  0  0  0  0  0  0
   -6.3460   21.9220  -31.4370 C   0  0  0  0  0  0  0  0  0  0  0  0
   -5.3490   22.8110  -31.2420 N   0  0  0  0  0  0  0  0  0  0  0  0
   -3.9450   22.5600  -31.4040 C   0  0  0  0  0  0  0  0  0  0  0  0
   -3.4920   22.2890  -32.5490 O   0  0  0  0  0  0  0  0  0  0  0  0
   -3.0760   22.5830  -30.2590 N   0  0  0  0  0  0  0  0  0  0  0  0
   -3.5290   22.7090  -29.3270 H   0  0  0  0  0  0  0  0  0  0  0  0
   -1.7830   22.4470  -30.3550 C   0  0  0  0  0  0  0  0  0  0  0  0
   -1.3360   22.3015  -31.3495 H   0  0  0  0  0  0  0  0  0  0  0  0
   -0.9180   22.4810  -29.1990 N   0  0  0  0  0  0  0  0  0  0  0  0
   -0.5440   21.2580  -28.4810 C   0  0  0  0  0  0  0  0  0  0  0  0
   -0.5990   21.4378  -27.3972 H   0  0  0  0  0  0  0  0  0  0  0  0
   -1.2351   20.4468  -28.7537 H   0  0  0  0  0  0  0  0  0  0  0  0
    0.4826   20.9721  -28.7537 H   0  0  0  0  0  0  0  0  0  0  0  0
   -0.4950   23.7850  -28.6800 C   0  0  0  0  0  0  0  0  0  0  0  0
   -0.0164   23.6486  -27.6990 H   0  0  0  0  0  0  0  0  0  0  0  0
    0.2182   24.2392  -29.3836 H   0  0  0  0  0  0  0  0  0  0  0  0
   -1.6790   24.6860  -28.5320 C   0  0  0  0  0  0  0  0  0  0  0  0
   -2.7570   24.2410  -28.0600 O   0  0  0  0  0  0  0  0  0  0  0  0
   -1.6070   26.0040  -28.9640 O   0  0  0  0  0  0  0  0  0  0  0  0
  1  2  1  0
  2  3  1  0
  3  4  2  0
  3  5  1  0
  5  6  2  0
  6  7  1  0
  6  8  1  0
  8  9  2  0
  9 10  1  0
  9 11  1  0
 11 12  1  0
 11 13  2  0
 13 14  1  0
 14 15  1  0
 14 16  1  0
 14 17  1  0
 13 18  1  0
 18 19  1  0
 18 20  2  0
 20 21  1  0
 21 22  1  0
 22 23  2  0
 22 24  1  0
 24 25  1  0
 24 26  2  0
 26 27  1  0
 26 28  1  0
 28 29  1  0
 29 30  1  0
 29 31  1  0
 29 32  1  0
 28 33  1  0
 33 34  1  0
 33 35  1  0
 33 36  1  0
 36 37  2  0
 36 38  1  0
 21  5  1  0
 20  8  1  0
M  CHG  3   2  -1  24   1  38  -1
M  END
>  <UniqueID>  (42) 
41

>  <SMILES>  (42) 
CN(/C=[NH+]/C(=O)n1c(C([NH-])=O)cc2ccc(C(F)(F)F)cc21)CC(=O)[O-]

>  <Energy>  (42) 
74.77378515237838

>  <Genealogy>  (42) 
CN(/C=[NH+]/C(=O)n1c(C([NH-])=O)cc2ccc(C(F)(F)F)cc21)CC(=O)[O-] (protonated)
CN(/C=[NH+]/C(=O)n1c(C([NH-])=O)cc2ccc(C(F)(F)F)cc21)CC(=O)[O-] (cis-trans isomerization)
CN(/C=[NH+]/C(=O)n1c(C([NH-])=O)cc2ccc(C(F)(F)F)cc21)CC(=O)[O-] (3D coordinates assigned)
CN(/C=[NH+]/C(=O)n1c(C([NH-])=O)cc2ccc(C(F)(F)F)cc21)CC(=O)[O-] (optimized conformer: 74.77378515237838 kcal/mol)

>  <smiles>  (42) 
CN(/C=N/C(=O)n1c(C(N)=O)cc2ccc(C(F)(F)F)cc21)CC(=O)O

>  <score_type>  (42) 
oracle

>  <origin>  (42) 
adg

>  <m_score__min__energy>  (42) 
-11.26

>  <m_primary>  (42) 
energy

$$$$
43:0
     RDKit          3D

 33 34  0  0  0  0  0  0  0  0999 V2000
   -5.4065   24.4138  -32.3933 H   0  0  0  0  0  0  0  0  0  0  0  0
   -5.7360   23.6660  -31.6570 C   0  0  0  0  0  0  0  0  0  0  0  0
   -6.8140   22.7410  -32.0650 C   0  0  0  0  0  0  0  0  0  0  0  0
   -7.9880   23.1870  -32.1550 O   0  0  0  0  0  0  0  0  0  0  0  0
   -6.5510   21.3760  -32.4370 N   0  0  0  0  0  0  0  0  0  0  0  0
   -7.4510   20.3570  -32.5280 C   0  0  0  0  0  0  0  0  0  0  0  0
   -8.8710   20.4330  -32.1130 C   0  0  0  0  0  0  0  0  0  0  0  0
   -9.7370   19.7200  -32.6890 O   0  0  0  0  0  0  0  0  0  0  0  0
   -9.2860   21.3210  -31.0740 N   0  0  0  0  0  0  0  0  0  0  0  0
   -8.5970   21.8810  -30.5260 H   0  0  0  0  0  0  0  0  0  0  0  0
  -10.2970   21.3910  -30.8180 H   0  0  0  0  0  0  0  0  0  0  0  0
   -6.8300   19.2010  -33.0010 C   0  0  0  0  0  0  0  0  0  0  0  0
   -7.2921   18.2170  -33.1690 H   0  0  0  0  0  0  0  0  0  0  0  0
   -5.5160   19.5530  -33.2130 C   0  0  0  0  0  0  0  0  0  0  0  0
   -4.4520   18.7940  -33.6930 C   0  0  0  0  0  0  0  0  0  0  0  0
   -4.5837   17.7338  -33.9551 H   0  0  0  0  0  0  0  0  0  0  0  0
   -3.2040   19.4260  -33.8320 C   0  0  0  0  0  0  0  0  0  0  0  0
   -2.3409   18.8527  -34.2014 H   0  0  0  0  0  0  0  0  0  0  0  0
   -3.0480   20.7930  -33.5010 C   0  0  0  0  0  0  0  0  0  0  0  0
   -1.7760   21.4270  -33.6570 N   0  0  0  0  0  0  0  0  0  0  0  0
   -1.5270   21.9100  -34.5490 H   0  0  0  0  0  0  0  0  0  0  0  0
   -1.0750   21.4180  -32.8840 H   0  0  0  0  0  0  0  0  0  0  0  0
   -4.1500   21.5320  -33.0190 C   0  0  0  0  0  0  0  0  0  0  0  0
   -4.0481   22.5976  -32.7658 H   0  0  0  0  0  0  0  0  0  0  0  0
   -5.3750   20.8730  -32.8720 C   0  0  0  0  0  0  0  0  0  0  0  0
   -5.1220   23.6680  -30.4530 C   0  0  0  0  0  0  0  0  0  0  0  0
   -3.9790   24.5830  -30.2110 C   0  0  0  0  0  0  0  0  0  0  0  0
   -3.8600   25.6560  -30.8610 O   0  0  0  0  0  0  0  0  0  0  0  0
   -3.0120   24.2640  -29.2650 O   0  0  0  0  0  0  0  0  0  0  0  0
   -5.5520   22.7500  -29.3340 C   0  0  0  0  0  0  0  0  0  0  0  0
   -5.3304   23.2231  -28.3660 H   0  0  0  0  0  0  0  0  0  0  0  0
   -6.6328   22.5600  -29.4104 H   0  0  0  0  0  0  0  0  0  0  0  0
   -5.0061   21.7981  -29.4104 H   0  0  0  0  0  0  0  0  0  0  0  0
  1  2  1  0
  2  3  1  0
  3  4  2  0
  3  5  1  0
  5  6  1  0
  6  7  1  0
  7  8  2  0
  7  9  1  0
  9 10  1  0
  9 11  1  0
  6 12  2  0
 12 13  1  0
 12 14  1  0
 14 15  2  0
 15 16  1  0
 15 17  1  0
 17 18  1  0
 17 19  2  0
 19 20  1  0
 20 21  1  0
 20 22  1  0
 19 23  1  0
 23 24  1  0
 23 25  2  0
  2 26  2  0
 26 27  1  0
 27 28  2  0
 27 29  1  0
 26 30  1  0
 30 31  1  0
 30 32  1  0
 30 33  1  0
 25  5  1  0
 25 14  1  0
M  CHG  1  29  -1
M  END
>  <UniqueID>  (43) 
42

>  <SMILES>  (43) 
C/C(=C\C(=O)n1c(C(N)=O)cc2ccc(N)cc21)C(=O)[O-]

>  <Energy>  (43) 
74.75526062253164

>  <Genealogy>  (43) 
C/C(=C\C(=O)n1c(C(N)=O)cc2ccc(N)cc21)C(=O)[O-] (protonated)
C/C(=C\C(=O)n1c(C(N)=O)cc2ccc(N)cc21)C(=O)[O-] (cis-trans isomerization)
C/C(=C\C(=O)n1c(C(N)=O)cc2ccc(N)cc21)C(=O)[O-] (3D coordinates assigned)
C/C(=C\C(=O)n1c(C(N)=O)cc2ccc(N)cc21)C(=O)[O-] (optimized conformer: 74.75526062253164 kcal/mol)

>  <smiles>  (43) 
C/C(=C\C(=O)n1c(C(N)=O)cc2ccc(N)cc21)C(=O)O

>  <score_type>  (43) 
oracle

>  <origin>  (43) 
adg

>  <m_score__min__energy>  (43) 
-10.32

>  <m_primary>  (43) 
energy

$$$$
44:0
     RDKit          3D

 46 47  0  0  0  0  0  0  0  0999 V2000
   -1.8220   16.7690  -35.6950 N   0  0  0  0  0  0  0  0  0  0  0  0
   -3.1990   16.6680  -35.3400 C   0  0  0  0  0  0  0  0  0  0  0  0
   -3.8630   15.6690  -35.7240 O   0  0  0  0  0  0  0  0  0  0  0  0
   -3.8190   17.7080  -34.4950 C   0  0  0  0  0  0  0  0  0  0  0  0
   -5.1960   17.9040  -34.4070 C   0  0  0  0  0  0  0  0  0  0  0  0
   -5.3570   19.0060  -33.5990 C   0  0  0  0  0  0  0  0  0  0  0  0
   -6.5180   19.6360  -33.1660 C   0  0  0  0  0  0  0  0  0  0  0  0
   -6.3900   20.7410  -32.3080 C   0  0  0  0  0  0  0  0  0  0  0  0
   -5.1100   21.1920  -31.8880 C   0  0  0  0  0  0  0  0  0  0  0  0
   -4.9840   22.3160  -30.9850 N   0  0  0  0  0  0  0  0  0  0  0  0
   -5.7750   23.5430  -31.1880 C   0  0  0  0  0  0  0  0  0  0  0  0
   -6.3690   24.0520  -29.8720 C   0  0  0  0  0  0  0  0  0  0  0  0
   -6.2560   25.4450  -29.7990 O   0  0  0  0  0  0  0  0  0  0  0  0
   -4.0390   22.2560  -29.8590 C   0  0  0  0  0  0  0  0  0  0  0  0
   -2.7960   23.1050  -30.1410 C   0  0  0  0  0  0  0  0  0  0  0  0
   -3.0630   24.8280  -29.6250 P   0  0  0  0  0  0  0  0  0  0  0  0
   -3.9030   24.8510  -28.3690 O   0  0  0  0  0  0  0  0  0  0  0  0
   -3.8660   25.6720  -30.8520 O   0  0  0  0  0  0  0  0  0  0  0  0
   -1.5730   25.5660  -29.3160 O   0  0  0  0  0  0  0  0  0  0  0  0
   -3.9540   20.5220  -32.3560 C   0  0  0  0  0  0  0  0  0  0  0  0
   -4.1120   19.4380  -33.2250 C   0  0  0  0  0  0  0  0  0  0  0  0
   -3.1550   18.6500  -33.7670 N   0  0  0  0  0  0  0  0  0  0  0  0
   -1.7390   18.7520  -33.5420 C   0  0  0  0  0  0  0  0  0  0  0  0
   -1.1090   17.7740  -33.0550 O   0  0  0  0  0  0  0  0  0  0  0  0
   -1.0610   19.9260  -33.8900 O   0  0  0  0  0  0  0  0  0  0  0  0
    0.2300   19.9370  -34.5010 C   0  0  1  0  0  0  0  0  0  0  0  0
    0.4290   18.7460  -35.2160 O   0  0  0  0  0  0  0  0  0  0  0  0
    0.3670   21.1130  -35.4230 C   0  0  0  0  0  0  0  0  0  0  0  0
    0.5910   22.2610  -34.9580 O   0  0  0  0  0  0  0  0  0  0  0  0
    0.2480   20.9410  -36.7970 O   0  0  0  0  0  0  0  0  0  0  0  0
   -1.1350   17.2270  -35.0570 H   0  0  0  0  0  0  0  0  0  0  0  0
   -5.9864   17.3048  -34.8826 H   0  0  0  0  0  0  0  0  0  0  0  0
   -7.5083   19.2796  -33.4859 H   0  0  0  0  0  0  0  0  0  0  0  0
   -7.2921   21.2635  -31.9570 H   0  0  0  0  0  0  0  0  0  0  0  0
   -5.1239   24.3221  -31.6112 H   0  0  0  0  0  0  0  0  0  0  0  0
   -6.6034   23.3101  -31.8732 H   0  0  0  0  0  0  0  0  0  0  0  0
   -7.4310   23.7701  -29.8193 H   0  0  0  0  0  0  0  0  0  0  0  0
   -5.8196   23.6022  -29.0318 H   0  0  0  0  0  0  0  0  0  0  0  0
   -5.3610   25.6300  -29.4120 H   0  0  0  0  0  0  0  0  0  0  0  0
   -4.5347   22.6337  -28.9526 H   0  0  0  0  0  0  0  0  0  0  0  0
   -3.7257   21.2109  -29.7193 H   0  0  0  0  0  0  0  0  0  0  0  0
   -1.9419   22.6901  -29.5857 H   0  0  0  0  0  0  0  0  0  0  0  0
   -2.5937   23.0872  -31.2221 H   0  0  0  0  0  0  0  0  0  0  0  0
   -2.9513   20.8477  -32.0422 H   0  0  0  0  0  0  0  0  0  0  0  0
    0.9911   20.0195  -33.7111 H   0  0  0  0  0  0  0  0  0  0  0  0
   -0.3700   18.1750  -35.0640 H   0  0  0  0  0  0  0  0  0  0  0  0
  1  2  1  0
  2  3  2  0
  2  4  1  0
  4  5  2  0
  5  6  1  0
  6  7  2  0
  7  8  1  0
  8  9  2  0
  9 10  1  0
 10 11  1  0
 11 12  1  0
 12 13  1  0
 10 14  1  0
 14 15  1  0
 15 16  1  0
 16 17  2  0
 16 18  1  0
 16 19  1  0
  9 20  1  0
 20 21  2  0
 21 22  1  0
 22 23  1  0
 23 24  2  0
 23 25  1  0
 25 26  1  0
 26 27  1  0
 26 28  1  0
 28 29  2  0
 28 30  1  0
 22  4  1  0
 21  6  1  0
  1 31  1  0
  5 32  1  0
  7 33  1  0
  8 34  1  0
 11 35  1  0
 11 36  1  0
 12 37  1  0
 12 38  1  0
 13 39  1  0
 14 40  1  0
 14 41  1  0
 15 42  1  0
 15 43  1  0
 20 44  1  0
 26 45  1  1
 27 46  1  0
M  CHG  4   1  -1  18  -1  19  -1  30  -1
M  END
>  <UniqueID>  (44) 
43

>  <SMILES>  (44) 
[NH-]C(=O)c1cc2ccc(N(CCO)CCP(=O)([O-])[O-])cc2n1C(=O)O[C@@H](O)C(=O)[O-]

>  <Energy>  (44) 
76.57906951277398

>  <Genealogy>  (44) 
[NH-]C(=O)c1cc2ccc(N(CCO)CCP(=O)([O-])[O-])cc2n1C(=O)OC(O)C(=O)[O-] (protonated)
[NH-]C(=O)c1cc2ccc(N(CCO)CCP(=O)([O-])[O-])cc2n1C(=O)O[C@@H](O)C(=O)[O-] (chirality)
[NH-]C(=O)c1cc2ccc(N(CCO)CCP(=O)([O-])[O-])cc2n1C(=O)O[C@@H](O)C(=O)[O-] (3D coordinates assigned)
[NH-]C(=O)c1cc2ccc(N(CCO)CCP(=O)([O-])[O-])cc2n1C(=O)O[C@@H](O)C(=O)[O-] (optimized conformer: 76.57906951277398 kcal/mol)

>  <smiles>  (44) 
NC(=O)c1cc2ccc(N(CCO)CCP(=O)(O)O)cc2n1C(=O)OC(O)C(=O)O

>  <score_type>  (44) 
oracle

>  <origin>  (44) 
adg

>  <m_score__min__energy>  (44) 
-11.59

>  <m_primary>  (44) 
energy

$$$$
45:0
     RDKit          3D

 62 63  0  0  0  0  0  0  0  0999 V2000
   -1.1700   27.9990  -35.0330 C   0  0  0  0  0  0  0  0  0  0  0  0
   -0.8120   26.8810  -36.4280 S   0  0  0  0  0  0  0  0  0  0  0  0
    0.7880   26.2800  -35.7750 C   0  0  0  0  0  0  0  0  0  0  0  0
    1.0880   24.9110  -36.2910 C   0  0  0  0  0  0  0  0  0  0  0  0
    1.3840   24.7550  -37.5070 O   0  0  0  0  0  0  0  0  0  0  0  0
    1.0090   23.8150  -35.4260 O   0  0  0  0  0  0  0  0  0  0  0  0
    0.2930   22.6200  -35.7260 C   0  0  0  0  0  0  0  0  0  0  0  0
    0.2840   21.7560  -34.5900 O   0  0  0  0  0  0  0  0  0  0  0  0
    1.1560   20.6710  -34.4260 C   0  0  0  0  0  0  0  0  0  0  0  0
    2.3560   20.8650  -34.0840 O   0  0  0  0  0  0  0  0  0  0  0  0
    0.6910   19.3300  -34.6720 N   0  0  0  0  0  0  0  0  0  0  0  0
    0.3450   18.9230  -36.0370 C   0  0  0  0  0  0  0  0  0  0  0  0
    0.5070   18.3920  -33.5570 C   0  0  0  0  0  0  0  0  0  0  0  0
   -0.9650   17.9900  -33.4500 C   0  0  0  0  0  0  0  0  0  0  0  0
   -1.8030   19.1520  -33.1290 N   0  0  0  0  0  0  0  0  0  0  0  0
   -3.0760   19.3500  -33.8290 C   0  0  0  0  0  0  0  0  0  0  0  0
   -1.3420   20.1310  -32.1760 C   0  0  0  0  0  0  0  0  0  0  0  0
   -0.6080   19.7720  -31.2150 O   0  0  0  0  0  0  0  0  0  0  0  0
   -1.7010   21.5850  -32.3300 C   0  0  0  0  0  0  0  0  0  0  0  0
   -3.1080   21.7910  -32.2070 O   0  0  0  0  0  0  0  0  0  0  0  0
   -3.6840   22.5890  -31.2110 C   0  0  0  0  0  0  0  0  0  0  0  0
   -2.9560   23.1610  -30.3560 O   0  0  0  0  0  0  0  0  0  0  0  0
   -5.1070   22.7970  -31.1910 N   0  0  0  0  0  0  0  0  0  0  0  0
   -5.7790   23.9570  -30.9380 C   0  0  0  0  0  0  0  0  0  0  0  0
   -5.1830   25.2150  -30.4430 C   0  0  0  0  0  0  0  0  0  0  0  0
   -3.8780   25.6160  -30.8460 N   0  0  0  0  0  0  0  0  0  0  0  0
   -5.8230   25.9290  -29.6230 O   0  0  0  0  0  0  0  0  0  0  0  0
   -7.1450   23.7880  -31.1420 C   0  0  0  0  0  0  0  0  0  0  0  0
   -7.2980   22.4760  -31.5180 C   0  0  0  0  0  0  0  0  0  0  0  0
   -8.4490   21.7720  -31.8560 C   0  0  0  0  0  0  0  0  0  0  0  0
   -8.3120   20.4210  -32.2240 C   0  0  0  0  0  0  0  0  0  0  0  0
   -7.0370   19.7980  -32.2390 C   0  0  0  0  0  0  0  0  0  0  0  0
   -6.8940   18.3570  -32.6630 C   0  0  0  0  0  0  0  0  0  0  0  0
   -6.5020   18.2700  -33.9890 F   0  0  0  0  0  0  0  0  0  0  0  0
   -5.9430   17.7360  -31.8710 F   0  0  0  0  0  0  0  0  0  0  0  0
   -8.1010   17.6920  -32.5270 F   0  0  0  0  0  0  0  0  0  0  0  0
   -5.8870   20.5590  -31.9230 C   0  0  0  0  0  0  0  0  0  0  0  0
   -6.0550   21.8970  -31.5400 C   0  0  0  0  0  0  0  0  0  0  0  0
   -1.0000   27.4681  -34.0847 H   0  0  0  0  0  0  0  0  0  0  0  0
   -0.5076   28.8756  -35.0863 H   0  0  0  0  0  0  0  0  0  0  0  0
   -2.2184   28.3278  -35.0863 H   0  0  0  0  0  0  0  0  0  0  0  0
    1.5873   26.9674  -36.0890 H   0  0  0  0  0  0  0  0  0  0  0  0
    0.7291   26.2392  -34.6773 H   0  0  0  0  0  0  0  0  0  0  0  0
   -0.7420   22.8744  -35.9979 H   0  0  0  0  0  0  0  0  0  0  0  0
    0.7847   22.1065  -36.5653 H   0  0  0  0  0  0  0  0  0  0  0  0
   -0.3671   18.0854  -36.0005 H   0  0  0  0  0  0  0  0  0  0  0  0
   -0.1131   19.7708  -36.5674 H   0  0  0  0  0  0  0  0  0  0  0  0
    1.2555   18.6074  -36.5674 H   0  0  0  0  0  0  0  0  0  0  0  0
    1.1182   17.4942  -33.7314 H   0  0  0  0  0  0  0  0  0  0  0  0
    0.8178   18.8783  -32.6206 H   0  0  0  0  0  0  0  0  0  0  0  0
   -1.2927   17.5637  -34.4096 H   0  0  0  0  0  0  0  0  0  0  0  0
   -1.0692   17.2481  -32.6446 H   0  0  0  0  0  0  0  0  0  0  0  0
   -3.8836   19.4756  -33.0928 H   0  0  0  0  0  0  0  0  0  0  0  0
   -3.0117   20.2489  -34.4597 H   0  0  0  0  0  0  0  0  0  0  0  0
   -3.2878   18.4740  -34.4597 H   0  0  0  0  0  0  0  0  0  0  0  0
   -1.1851   22.1653  -31.5508 H   0  0  0  0  0  0  0  0  0  0  0  0
   -1.3899   21.9136  -33.3326 H   0  0  0  0  0  0  0  0  0  0  0  0
   -3.0330   25.2960  -30.3220 H   0  0  0  0  0  0  0  0  0  0  0  0
   -7.9349   24.5448  -31.0266 H   0  0  0  0  0  0  0  0  0  0  0  0
   -9.4362   22.2567  -31.8362 H   0  0  0  0  0  0  0  0  0  0  0  0
   -9.2037   19.8407  -32.5034 H   0  0  0  0  0  0  0  0  0  0  0  0
   -4.8838   20.1110  -31.9766 H   0  0  0  0  0  0  0  0  0  0  0  0
  1  2  1  0
  2  3  1  0
  3  4  1  0
  4  5  2  0
  4  6  1  0
  6  7  1  0
  7  8  1  0
  8  9  1  0
  9 10  2  0
  9 11  1  0
 11 12  1  0
 11 13  1  0
 13 14  1  0
 14 15  1  0
 15 16  1  0
 15 17  1  0
 17 18  2  0
 17 19  1  0
 19 20  1  0
 20 21  1  0
 21 22  2  0
 21 23  1  0
 23 24  1  0
 24 25  1  0
 25 26  1  0
 25 27  2  0
 24 28  2  0
 28 29  1  0
 29 30  2  0
 30 31  1  0
 31 32  2  0
 32 33  1  0
 33 34  1  0
 33 35  1  0
 33 36  1  0
 32 37  1  0
 37 38  2  0
 38 23  1  0
 38 29  1  0
  1 39  1  0
  1 40  1  0
  1 41  1  0
  3 42  1  0
  3 43  1  0
  7 44  1  0
  7 45  1  0
 12 46  1  0
 12 47  1  0
 12 48  1  0
 13 49  1  0
 13 50  1  0
 14 51  1  0
 14 52  1  0
 16 53  1  0
 16 54  1  0
 16 55  1  0
 19 56  1  0
 19 57  1  0
 26 58  1  0
 28 59  1  0
 30 60  1  0
 31 61  1  0
 37 62  1  0
M  CHG  1  26  -1
M  END
>  <UniqueID>  (45) 
44

>  <SMILES>  (45) 
CSCC(=O)OCOC(=O)N(C)CCN(C)C(=O)COC(=O)n1c(C([NH-])=O)cc2ccc(C(F)(F)F)cc21

>  <Energy>  (45) 
88.19630200157775

>  <Genealogy>  (45) 
CSCC(=O)OCOC(=O)N(C)CCN(C)C(=O)COC(=O)n1c(C([NH-])=O)cc2ccc(C(F)(F)F)cc21 (protonated)
CSCC(=O)OCOC(=O)N(C)CCN(C)C(=O)COC(=O)n1c(C([NH-])=O)cc2ccc(C(F)(F)F)cc21 (3D coordinates assigned)
CSCC(=O)OCOC(=O)N(C)CCN(C)C(=O)COC(=O)n1c(C([NH-])=O)cc2ccc(C(F)(F)F)cc21 (optimized conformer: 88.19630200157775 kcal/mol)

>  <smiles>  (45) 
CSCC(=O)OCOC(=O)N(C)CCN(C)C(=O)COC(=O)n1c(C(N)=O)cc2ccc(C(F)(F)F)cc21

>  <score_type>  (45) 
oracle

>  <origin>  (45) 
adg

>  <m_score__min__energy>  (45) 
-10.779999999999999

>  <m_primary>  (45) 
energy

$$$$
46:0
     RDKit          3D

 50 51  0  0  0  0  0  0  0  0999 V2000
   -3.4840   24.9350  -31.3160 H   0  0  0  0  0  0  0  0  0  0  0  0
   -3.9100   25.6150  -30.7310 O   0  0  0  0  0  0  0  0  0  0  0  0
   -4.5160   24.9060  -29.6830 C   0  0  0  0  0  0  0  0  0  0  0  0
   -5.4753   24.4986  -30.0347 H   0  0  0  0  0  0  0  0  0  0  0  0
   -4.6695   25.5977  -28.8416 H   0  0  0  0  0  0  0  0  0  0  0  0
   -3.6140   23.7290  -29.1920 C   0  0  0  0  0  0  0  0  0  0  0  0
   -3.8390   22.5030  -30.0400 N   0  0  0  0  0  0  0  0  0  0  0  0
   -5.2360   22.2990  -30.4790 C   0  0  0  0  0  0  0  0  0  0  0  0
   -5.8872   22.2039  -29.5976 H   0  0  0  0  0  0  0  0  0  0  0  0
   -5.5599   23.1594  -31.0830 H   0  0  0  0  0  0  0  0  0  0  0  0
   -5.3003   21.3819  -31.0830 H   0  0  0  0  0  0  0  0  0  0  0  0
   -2.9140   22.3400  -31.1920 C   0  0  0  0  0  0  0  0  0  0  0  0
   -2.6175   23.3317  -31.5644 H   0  0  0  0  0  0  0  0  0  0  0  0
   -2.0237   21.7832  -30.8644 H   0  0  0  0  0  0  0  0  0  0  0  0
   -3.5940   21.5790  -32.2920 C   0  0  0  0  0  0  0  0  0  0  0  0
   -4.1786   22.1233  -33.0483 H   0  0  0  0  0  0  0  0  0  0  0  0
   -3.4980   20.2480  -32.3640 C   0  0  0  0  0  0  0  0  0  0  0  0
   -2.8872   19.7195  -31.6172 H   0  0  0  0  0  0  0  0  0  0  0  0
   -4.1810   19.4620  -33.4080 C   0  0  0  0  0  0  0  0  0  0  0  0
   -3.6380   19.2860  -34.5320 O   0  0  0  0  0  0  0  0  0  0  0  0
   -5.4690   18.8850  -33.1450 N   0  0  0  0  0  0  0  0  0  0  0  0
   -5.8380   17.5800  -33.2830 C   0  0  0  0  0  0  0  0  0  0  0  0
   -4.9230   16.4660  -33.6240 C   0  0  0  0  0  0  0  0  0  0  0  0
   -4.8650   15.4480  -32.8840 O   0  0  0  0  0  0  0  0  0  0  0  0
   -4.1130   16.5150  -34.8010 N   0  0  0  0  0  0  0  0  0  0  0  0
   -4.0810   17.3640  -35.4050 H   0  0  0  0  0  0  0  0  0  0  0  0
   -3.5010   15.7060  -35.0470 H   0  0  0  0  0  0  0  0  0  0  0  0
   -7.1920   17.4240  -32.9880 C   0  0  0  0  0  0  0  0  0  0  0  0
   -7.7748   16.4912  -33.0056 H   0  0  0  0  0  0  0  0  0  0  0  0
   -7.6450   18.6850  -32.6700 C   0  0  0  0  0  0  0  0  0  0  0  0
   -8.9220   19.1170  -32.3250 C   0  0  0  0  0  0  0  0  0  0  0  0
   -9.7575   18.4065  -32.2405 H   0  0  0  0  0  0  0  0  0  0  0  0
   -9.1110   20.4890  -32.0880 C   0  0  0  0  0  0  0  0  0  0  0  0
  -10.1108   20.8619  -31.8211 H   0  0  0  0  0  0  0  0  0  0  0  0
   -8.0270   21.3990  -32.1890 C   0  0  0  0  0  0  0  0  0  0  0  0
   -8.2570   22.8770  -31.9950 C   0  0  0  0  0  0  0  0  0  0  0  0
   -7.4140   23.6130  -32.8100 F   0  0  0  0  0  0  0  0  0  0  0  0
   -8.0080   23.2070  -30.6750 F   0  0  0  0  0  0  0  0  0  0  0  0
   -9.5620   23.2140  -32.3050 F   0  0  0  0  0  0  0  0  0  0  0  0
   -6.7510   20.9230  -32.5660 C   0  0  0  0  0  0  0  0  0  0  0  0
   -5.9065   21.6163  -32.6931 H   0  0  0  0  0  0  0  0  0  0  0  0
   -6.5870   19.5480  -32.7740 C   0  0  0  0  0  0  0  0  0  0  0  0
   -3.8960   23.4630  -27.6900 C   0  0  0  0  0  0  0  0  0  0  0  0
   -3.2322   24.0892  -27.0758 H   0  0  0  0  0  0  0  0  0  0  0  0
   -4.9442   23.7090  -27.4646 H   0  0  0  0  0  0  0  0  0  0  0  0
   -3.7116   22.4023  -27.4646 H   0  0  0  0  0  0  0  0  0  0  0  0
   -2.1400   24.1930  -29.3430 C   0  0  0  0  0  0  0  0  0  0  0  0
   -1.6957   24.3329  -28.3465 H   0  0  0  0  0  0  0  0  0  0  0  0
   -1.5703   23.4307  -29.8947 H   0  0  0  0  0  0  0  0  0  0  0  0
   -2.1097   25.1441  -29.8947 H   0  0  0  0  0  0  0  0  0  0  0  0
  1  2  1  0
  2  3  1  0
  3  4  1  0
  3  5  1  0
  3  6  1  0
  6  7  1  0
  7  8  1  0
  8  9  1  0
  8 10  1  0
  8 11  1  0
  7 12  1  0
 12 13  1  0
 12 14  1  0
 12 15  1  0
 15 16  1  0
 15 17  2  0
 17 18  1  0
 17 19  1  0
 19 20  2  0
 19 21  1  0
 21 22  1  0
 22 23  1  0
 23 24  2  0
 23 25  1  0
 25 26  1  0
 25 27  1  0
 22 28  2  0
 28 29  1  0
 28 30  1  0
 30 31  2  0
 31 32  1  0
 31 33  1  0
 33 34  1  0
 33 35  2  0
 35 36  1  0
 36 37  1  0
 36 38  1  0
 36 39  1  0
 35 40  1  0
 40 41  1  0
 40 42  2  0
  6 43  1  0
 43 44  1  0
 43 45  1  0
 43 46  1  0
  6 47  1  0
 47 48  1  0
 47 49  1  0
 47 50  1  0
 42 21  1  0
 42 30  1  0
M  END
>  <UniqueID>  (46) 
45

>  <SMILES>  (46) 
CN(C/C=C/C(=O)n1c(C(N)=O)cc2ccc(C(F)(F)F)cc21)C(C)(C)CO

>  <Energy>  (46) 
96.42747889694662

>  <Genealogy>  (46) 
CN(C/C=C/C(=O)n1c(C(N)=O)cc2ccc(C(F)(F)F)cc21)C(C)(C)CO (cis-trans isomerization)
CN(C/C=C/C(=O)n1c(C(N)=O)cc2ccc(C(F)(F)F)cc21)C(C)(C)CO (3D coordinates assigned)
CN(C/C=C/C(=O)n1c(C(N)=O)cc2ccc(C(F)(F)F)cc21)C(C)(C)CO (optimized conformer: 96.42747889694662 kcal/mol)

>  <smiles>  (46) 
CN(CC=CC(=O)n1c(C(N)=O)cc2ccc(C(F)(F)F)cc21)C(C)(C)CO

>  <score_type>  (46) 
oracle

>  <origin>  (46) 
adg

>  <m_score__min__energy>  (46) 
-9.5600000000000005

>  <m_primary>  (46) 
energy

$$$$
47:0
     RDKit          3D

 50 51  0  0  0  0  0  0  0  0999 V2000
   -0.6190   18.2320  -33.6170 C   0  0  0  0  0  0  0  0  0  0  0  0
   -1.3980   19.4900  -33.3710 C   0  0  0  0  0  0  0  0  0  0  0  0
   -2.7040   19.5320  -33.6790 C   0  0  0  0  0  0  0  0  0  0  0  0
   -3.5720   20.6950  -33.4060 C   0  0  0  0  0  0  0  0  0  0  0  0
   -3.1720   21.8420  -33.7390 O   0  0  0  0  0  0  0  0  0  0  0  0
   -4.8780   20.5410  -32.8230 N   0  0  0  0  0  0  0  0  0  0  0  0
   -5.6340   21.4880  -32.1960 C   0  0  0  0  0  0  0  0  0  0  0  0
   -5.2120   22.8690  -31.8910 C   0  0  0  0  0  0  0  0  0  0  0  0
   -3.8350   23.2030  -31.7120 N   0  0  0  0  0  0  0  0  0  0  0  0
   -6.0870   23.7630  -31.7430 O   0  0  0  0  0  0  0  0  0  0  0  0
   -6.8830   20.9750  -31.8580 C   0  0  0  0  0  0  0  0  0  0  0  0
   -6.8650   19.6670  -32.2860 C   0  0  0  0  0  0  0  0  0  0  0  0
   -7.8580   18.6940  -32.2310 C   0  0  0  0  0  0  0  0  0  0  0  0
   -7.5800   17.4380  -32.7970 C   0  0  0  0  0  0  0  0  0  0  0  0
   -6.3330   17.1840  -33.4260 C   0  0  0  0  0  0  0  0  0  0  0  0
   -6.0350   15.8230  -34.0010 C   0  0  0  0  0  0  0  0  0  0  0  0
   -5.0480   15.9410  -34.9600 F   0  0  0  0  0  0  0  0  0  0  0  0
   -7.1680   15.2800  -34.5830 F   0  0  0  0  0  0  0  0  0  0  0  0
   -5.6020   14.9580  -33.0100 F   0  0  0  0  0  0  0  0  0  0  0  0
   -5.3430   18.1930  -33.4400 C   0  0  0  0  0  0  0  0  0  0  0  0
   -5.6440   19.4290  -32.8600 C   0  0  0  0  0  0  0  0  0  0  0  0
   -0.6990   20.6630  -32.9330 N   0  0  0  0  0  0  0  0  0  0  0  0
    0.6050   20.9650  -33.5430 C   0  0  0  0  0  0  0  0  0  0  0  0
    0.4190   21.4950  -34.9290 C   0  0  0  0  0  0  0  0  0  0  0  0
    0.7150   22.6880  -35.1980 O   0  0  0  0  0  0  0  0  0  0  0  0
   -0.0680   20.6640  -35.9300 O   0  0  0  0  0  0  0  0  0  0  0  0
   -1.1180   21.2390  -31.7430 O   0  0  0  0  0  0  0  0  0  0  0  0
   -0.7210   20.8180  -30.4670 C   0  0  0  0  0  0  0  0  0  0  0  0
   -0.1500   19.7070  -30.2940 O   0  0  0  0  0  0  0  0  0  0  0  0
   -0.9130   21.6820  -29.3860 O   0  0  0  0  0  0  0  0  0  0  0  0
   -2.0940   22.4620  -29.2310 C   0  0  0  0  0  0  0  0  0  0  0  0
   -2.0400   23.5580  -30.1150 O   0  0  0  0  0  0  0  0  0  0  0  0
   -2.7690   24.9000  -29.3600 P   0  0  0  0  0  0  0  0  0  0  0  0
   -3.5090   24.4630  -28.1170 O   0  0  0  0  0  0  0  0  0  0  0  0
   -3.8670   25.6030  -30.4370 O   0  0  0  0  0  0  0  0  0  0  0  0
   -1.5940   26.0470  -28.9480 O   0  0  0  0  0  0  0  0  0  0  0  0
   -0.3390   17.7799  -32.6541 H   0  0  0  0  0  0  0  0  0  0  0  0
   -1.2369   17.5239  -34.1887 H   0  0  0  0  0  0  0  0  0  0  0  0
    0.2903   18.4696  -34.1887 H   0  0  0  0  0  0  0  0  0  0  0  0
   -3.1524   18.6511  -34.1616 H   0  0  0  0  0  0  0  0  0  0  0  0
   -3.1030   22.4610  -31.6530 H   0  0  0  0  0  0  0  0  0  0  0  0
   -3.5540   24.1950  -31.5490 H   0  0  0  0  0  0  0  0  0  0  0  0
   -7.7079   21.5021  -31.3562 H   0  0  0  0  0  0  0  0  0  0  0  0
   -8.8299   18.9012  -31.7594 H   0  0  0  0  0  0  0  0  0  0  0  0
   -8.3379   16.6421  -32.7521 H   0  0  0  0  0  0  0  0  0  0  0  0
   -4.3590   18.0100  -33.8965 H   0  0  0  0  0  0  0  0  0  0  0  0
    1.1252   21.7183  -32.9332 H   0  0  0  0  0  0  0  0  0  0  0  0
    1.2007   20.0415  -33.5899 H   0  0  0  0  0  0  0  0  0  0  0  0
   -2.9757   21.8458  -29.4612 H   0  0  0  0  0  0  0  0  0  0  0  0
   -2.1667   22.8239  -28.1948 H   0  0  0  0  0  0  0  0  0  0  0  0
  1  2  1  0
  2  3  2  3
  3  4  1  0
  4  5  2  0
  4  6  1  0
  6  7  1  0
  7  8  1  0
  8  9  1  0
  8 10  2  0
  7 11  2  0
 11 12  1  0
 12 13  2  0
 13 14  1  0
 14 15  2  0
 15 16  1  0
 16 17  1  0
 16 18  1  0
 16 19  1  0
 15 20  1  0
 20 21  2  0
  2 22  1  0
 22 23  1  0
 23 24  1  0
 24 25  2  0
 24 26  1  0
 22 27  1  0
 27 28  1  0
 28 29  2  0
 28 30  1  0
 30 31  1  0
 31 32  1  0
 32 33  1  0
 33 34  2  0
 33 35  1  0
 33 36  1  0
 21  6  1  0
 21 12  1  0
  1 37  1  0
  1 38  1  0
  1 39  1  0
  3 40  1  0
  9 41  1  0
  9 42  1  0
 11 43  1  0
 13 44  1  0
 14 45  1  0
 20 46  1  0
 23 47  1  0
 23 48  1  0
 31 49  1  0
 31 50  1  0
M  CHG  3  26  -1  35  -1  36  -1
M  END
>  <UniqueID>  (47) 
46

>  <SMILES>  (47) 
CC(=CC(=O)n1c(C(N)=O)cc2ccc(C(F)(F)F)cc21)N(CC(=O)[O-])OC(=O)OCOP(=O)([O-])[O-]

>  <Energy>  (47) 
91.83331041913529

>  <Genealogy>  (47) 
CC(=CC(=O)n1c(C(N)=O)cc2ccc(C(F)(F)F)cc21)N(CC(=O)[O-])OC(=O)OCOP(=O)([O-])[O-] (protonated)
CC(=CC(=O)n1c(C(N)=O)cc2ccc(C(F)(F)F)cc21)N(CC(=O)[O-])OC(=O)OCOP(=O)([O-])[O-] (3D coordinates assigned)
CC(=CC(=O)n1c(C(N)=O)cc2ccc(C(F)(F)F)cc21)N(CC(=O)[O-])OC(=O)OCOP(=O)([O-])[O-] (optimized conformer: 91.83331041913529 kcal/mol)

>  <smiles>  (47) 
CC(=CC(=O)n1c(C(N)=O)cc2ccc(C(F)(F)F)cc21)N(CC(=O)O)OC(=O)OCOP(=O)(O)O

>  <score_type>  (47) 
oracle

>  <origin>  (47) 
adg

>  <m_score__min__energy>  (47) 
-13.51

>  <m_primary>  (47) 
energy

$$$$
48:0
     RDKit          3D

 49 50  0  0  0  0  0  0  0  0999 V2000
   -2.8610   25.2690  -30.3560 H   0  0  0  0  0  0  0  0  0  0  0  0
   -3.7830   25.3100  -30.8450 N   0  0  0  0  0  0  0  0  0  0  0  0
   -4.9170   24.6150  -30.3300 C   0  0  0  0  0  0  0  0  0  0  0  0
   -5.4950   25.0590  -29.3020 O   0  0  0  0  0  0  0  0  0  0  0  0
   -5.4340   23.3990  -30.9960 C   0  0  0  0  0  0  0  0  0  0  0  0
   -6.7910   23.0970  -31.1160 C   0  0  0  0  0  0  0  0  0  0  0  0
   -7.6407   23.6787  -30.7291 H   0  0  0  0  0  0  0  0  0  0  0  0
   -6.8400   21.9140  -31.8230 C   0  0  0  0  0  0  0  0  0  0  0  0
   -7.9330   21.1550  -32.2320 C   0  0  0  0  0  0  0  0  0  0  0  0
   -8.9611   21.4737  -32.0049 H   0  0  0  0  0  0  0  0  0  0  0  0
   -7.6830   19.9690  -32.9440 C   0  0  0  0  0  0  0  0  0  0  0  0
   -8.5275   19.3563  -33.2925 H   0  0  0  0  0  0  0  0  0  0  0  0
   -6.3530   19.5520  -33.2190 C   0  0  0  0  0  0  0  0  0  0  0  0
   -6.1120   18.2970  -34.0180 C   0  0  0  0  0  0  0  0  0  0  0  0
   -4.9220   17.7050  -33.6310 F   0  0  0  0  0  0  0  0  0  0  0  0
   -6.0380   18.5720  -35.3710 F   0  0  0  0  0  0  0  0  0  0  0  0
   -7.1490   17.4100  -33.7950 F   0  0  0  0  0  0  0  0  0  0  0  0
   -5.2700   20.3650  -32.8040 C   0  0  0  0  0  0  0  0  0  0  0  0
   -4.2319   20.0782  -33.0277 H   0  0  0  0  0  0  0  0  0  0  0  0
   -5.5530   21.5410  -32.1030 C   0  0  0  0  0  0  0  0  0  0  0  0
   -4.6810   22.4380  -31.6000 N   0  0  0  0  0  0  0  0  0  0  0  0
   -3.2500   22.3540  -31.6790 C   0  0  0  0  0  0  0  0  0  0  0  0
   -2.7160   21.9180  -32.7330 O   0  0  0  0  0  0  0  0  0  0  0  0
   -2.3900   22.7370  -30.5430 C   0  0  0  0  0  0  0  0  0  0  0  0
   -1.9204   23.7317  -30.5460 H   0  0  0  0  0  0  0  0  0  0  0  0
   -2.1600   21.9190  -29.5090 C   0  0  0  0  0  0  0  0  0  0  0  0
   -2.6327   20.9257  -29.5052 H   0  0  0  0  0  0  0  0  0  0  0  0
   -1.2970   22.2980  -28.3740 C   0  0  0  0  0  0  0  0  0  0  0  0
   -0.0820   21.9660  -28.4020 O   0  0  0  0  0  0  0  0  0  0  0  0
   -1.8000   23.0540  -27.2590 N   0  0  0  0  0  0  0  0  0  0  0  0
   -3.1690   23.5750  -27.2900 C   0  0  0  0  0  0  0  0  0  0  0  0
   -3.5321   23.7132  -26.2609 H   0  0  0  0  0  0  0  0  0  0  0  0
   -3.1819   24.5409  -27.8162 H   0  0  0  0  0  0  0  0  0  0  0  0
   -3.8208   22.8621  -27.8162 H   0  0  0  0  0  0  0  0  0  0  0  0
   -1.0160   23.1480  -26.0200 C   0  0  0  0  0  0  0  0  0  0  0  0
   -1.7078   23.2335  -25.1690 H   0  0  0  0  0  0  0  0  0  0  0  0
   -0.3963   22.2424  -25.9438 H   0  0  0  0  0  0  0  0  0  0  0  0
   -0.0730   24.3670  -26.0170 C   0  0  0  0  0  0  0  0  0  0  0  0
   -0.5530   25.1807  -25.4536 H   0  0  0  0  0  0  0  0  0  0  0  0
    0.8734   24.0511  -25.5537 H   0  0  0  0  0  0  0  0  0  0  0  0
    0.2410   24.8570  -27.3810 N   0  0  1  0  0  0  0  0  0  0  0  0
    0.2530   24.0480  -28.0460 H   0  0  0  0  0  0  0  0  0  0  0  0
   -0.7430   25.8140  -27.8390 C   0  0  0  0  0  0  0  0  0  0  0  0
   -1.0456   26.6382  -27.1764 H   0  0  0  0  0  0  0  0  0  0  0  0
   -1.2440   25.7210  -28.9520 O   0  0  0  0  0  0  0  0  0  0  0  0
    1.5780   25.4720  -27.4130 C   0  0  0  0  0  0  0  0  0  0  0  0
    1.9315   25.6346  -26.3841 H   0  0  0  0  0  0  0  0  0  0  0  0
    2.2761   24.8045  -27.9394 H   0  0  0  0  0  0  0  0  0  0  0  0
    1.5255   26.4364  -27.9394 H   0  0  0  0  0  0  0  0  0  0  0  0
  1  2  1  0
  2  3  1  0
  3  4  2  0
  3  5  1  0
  5  6  2  0
  6  7  1  0
  6  8  1  0
  8  9  2  0
  9 10  1  0
  9 11  1  0
 11 12  1  0
 11 13  2  0
 13 14  1  0
 14 15  1  0
 14 16  1  0
 14 17  1  0
 13 18  1  0
 18 19  1  0
 18 20  2  0
 20 21  1  0
 21 22  1  0
 22 23  2  0
 22 24  1  0
 24 25  1  0
 24 26  2  0
 26 27  1  0
 26 28  1  0
 28 29  2  0
 28 30  1  0
 30 31  1  0
 31 32  1  0
 31 33  1  0
 31 34  1  0
 30 35  1  0
 35 36  1  0
 35 37  1  0
 35 38  1  0
 38 39  1  0
 38 40  1  0
 38 41  1  0
 41 42  1  6
 41 43  1  0
 43 44  1  0
 43 45  2  0
 41 46  1  0
 46 47  1  0
 46 48  1  0
 46 49  1  0
 21  5  1  0
 20  8  1  0
M  CHG  2   2  -1  41   1
M  END
>  <UniqueID>  (48) 
47

>  <SMILES>  (48) 
CN(CC[N@H+](C)C=O)C(=O)/C=C/C(=O)n1c(C([NH-])=O)cc2ccc(C(F)(F)F)cc21

>  <Energy>  (48) 
91.30590435889167

>  <Genealogy>  (48) 
CN(CC[NH+](C)C=O)C(=O)/C=C/C(=O)n1c(C([NH-])=O)cc2ccc(C(F)(F)F)cc21 (protonated)
CN(CC[N@H+](C)C=O)C(=O)/C=C/C(=O)n1c(C([NH-])=O)cc2ccc(C(F)(F)F)cc21 (chirality)
CN(CC[N@H+](C)C=O)C(=O)/C=C/C(=O)n1c(C([NH-])=O)cc2ccc(C(F)(F)F)cc21 (cis-trans isomerization)
CN(CC[N@H+](C)C=O)C(=O)/C=C/C(=O)n1c(C([NH-])=O)cc2ccc(C(F)(F)F)cc21 (3D coordinates assigned)
CN(CC[N@H+](C)C=O)C(=O)/C=C/C(=O)n1c(C([NH-])=O)cc2ccc(C(F)(F)F)cc21 (optimized conformer: 91.30590435889167 kcal/mol)

>  <smiles>  (48) 
CN(C=O)CCN(C)C(=O)/C=C/C(=O)n1c(C(N)=O)cc2ccc(C(F)(F)F)cc21

>  <score_type>  (48) 
oracle

>  <origin>  (48) 
adg

>  <m_score__min__energy>  (48) 
-10.74

>  <m_primary>  (48) 
energy

$$$$
49:0
     RDKit          3D

 37 38  0  0  0  0  0  0  0  0999 V2000
   -3.2740   25.3150  -30.4420 H   0  0  0  0  0  0  0  0  0  0  0  0
   -4.1680   25.6720  -30.8430 N   0  0  0  0  0  0  0  0  0  0  0  0
   -5.4260   25.2190  -30.3480 C   0  0  0  0  0  0  0  0  0  0  0  0
   -6.0490   25.9270  -29.5130 O   0  0  0  0  0  0  0  0  0  0  0  0
   -6.0250   23.9560  -30.8280 C   0  0  0  0  0  0  0  0  0  0  0  0
   -7.3880   23.7930  -31.0740 C   0  0  0  0  0  0  0  0  0  0  0  0
   -8.1871   24.5323  -30.9162 H   0  0  0  0  0  0  0  0  0  0  0  0
   -7.5210   22.5110  -31.5560 C   0  0  0  0  0  0  0  0  0  0  0  0
   -8.6620   21.8110  -31.9370 C   0  0  0  0  0  0  0  0  0  0  0  0
   -9.6540   22.2855  -31.9086 H   0  0  0  0  0  0  0  0  0  0  0  0
   -8.5080   20.4800  -32.3590 C   0  0  0  0  0  0  0  0  0  0  0  0
   -9.3911   19.9011  -32.6671 H   0  0  0  0  0  0  0  0  0  0  0  0
   -7.2260   19.8750  -32.3920 C   0  0  0  0  0  0  0  0  0  0  0  0
   -7.0850   18.4300  -32.8010 C   0  0  1  0  0  0  0  0  0  0  0  0
   -8.0884   18.0333  -33.0151 H   0  0  0  0  0  0  0  0  0  0  0  0
   -6.2980   18.3310  -33.9370 F   0  0  0  0  0  0  0  0  0  0  0  0
   -6.4600   17.6110  -31.6760 C   0  0  0  0  0  0  0  0  0  0  0  0
   -6.7738   18.0222  -30.7052 H   0  0  0  0  0  0  0  0  0  0  0  0
   -6.7918   16.5653  -31.7558 H   0  0  0  0  0  0  0  0  0  0  0  0
   -5.3638   17.6550  -31.7558 H   0  0  0  0  0  0  0  0  0  0  0  0
   -6.0930   20.6130  -31.9820 C   0  0  0  0  0  0  0  0  0  0  0  0
   -5.0936   20.1536  -31.9743 H   0  0  0  0  0  0  0  0  0  0  0  0
   -6.2740   21.9430  -31.5860 C   0  0  0  0  0  0  0  0  0  0  0  0
   -5.3450   22.8180  -31.1460 N   0  0  0  0  0  0  0  0  0  0  0  0
   -3.9450   22.5550  -30.9670 C   0  0  0  0  0  0  0  0  0  0  0  0
   -3.1010   23.4050  -31.3600 O   0  0  0  0  0  0  0  0  0  0  0  0
   -3.5110   21.2920  -30.3300 C   0  0  0  0  0  0  0  0  0  0  0  0
   -4.1491   20.4052  -30.4576 H   0  0  0  0  0  0  0  0  0  0  0  0
   -2.3940   21.1600  -29.6100 C   0  0  0  0  0  0  0  0  0  0  0  0
   -2.1495   20.1793  -29.1758 H   0  0  0  0  0  0  0  0  0  0  0  0
   -1.5290   22.2330  -29.3940 O   0  0  0  0  0  0  0  0  0  0  0  0
   -1.8760   23.3050  -28.5290 C   0  0  0  0  0  0  0  0  0  0  0  0
   -2.9345   23.5667  -28.6739 H   0  0  0  0  0  0  0  0  0  0  0  0
   -1.7161   23.0027  -27.4835 H   0  0  0  0  0  0  0  0  0  0  0  0
   -1.0220   24.4870  -28.8450 C   0  0  0  0  0  0  0  0  0  0  0  0
    0.2260   24.4260  -28.6890 O   0  0  0  0  0  0  0  0  0  0  0  0
   -1.6080   25.6770  -29.2600 O   0  0  0  0  0  0  0  0  0  0  0  0
  1  2  1  0
  2  3  1  0
  3  4  2  0
  3  5  1  0
  5  6  2  0
  6  7  1  0
  6  8  1  0
  8  9  2  0
  9 10  1  0
  9 11  1  0
 11 12  1  0
 11 13  2  0
 13 14  1  0
 14 15  1  6
 14 16  1  0
 14 17  1  0
 17 18  1  0
 17 19  1  0
 17 20  1  0
 13 21  1  0
 21 22  1  0
 21 23  2  0
 23 24  1  0
 24 25  1  0
 25 26  2  0
 25 27  1  0
 27 28  1  0
 27 29  2  0
 29 30  1  0
 29 31  1  0
 31 32  1  0
 32 33  1  0
 32 34  1  0
 32 35  1  0
 35 36  2  0
 35 37  1  0
 24  5  1  0
 23  8  1  0
M  CHG  2   2  -1  37  -1
M  END
>  <UniqueID>  (49) 
48

>  <SMILES>  (49) 
C[C@H](F)c1ccc2cc(C([NH-])=O)n(C(=O)/C=C\OCC(=O)[O-])c2c1

>  <Energy>  (49) 
69.64831090506345

>  <Genealogy>  (49) 
CC(F)c1ccc2cc(C([NH-])=O)n(C(=O)/C=C\OCC(=O)[O-])c2c1 (protonated)
C[C@H](F)c1ccc2cc(C([NH-])=O)n(C(=O)/C=C\OCC(=O)[O-])c2c1 (chirality)
C[C@H](F)c1ccc2cc(C([NH-])=O)n(C(=O)/C=C\OCC(=O)[O-])c2c1 (cis-trans isomerization)
C[C@H](F)c1ccc2cc(C([NH-])=O)n(C(=O)/C=C\OCC(=O)[O-])c2c1 (3D coordinates assigned)
C[C@H](F)c1ccc2cc(C([NH-])=O)n(C(=O)/C=C\OCC(=O)[O-])c2c1 (optimized conformer: 69.64831090506345 kcal/mol)

>  <smiles>  (49) 
CC(F)c1ccc2cc(C(N)=O)n(C(=O)/C=C\OCC(=O)O)c2c1

>  <score_type>  (49) 
oracle

>  <origin>  (49) 
adg

>  <m_score__min__energy>  (49) 
-12.49

>  <m_primary>  (49) 
energy

$$$$
50:0
     RDKit          3D

 50 52  0  0  0  0  0  0  0  0999 V2000
   -3.0710   25.2870  -30.4820 H   0  0  0  0  0  0  0  0  0  0  0  0
   -3.8970   25.5650  -31.0570 N   0  0  0  0  0  0  0  0  0  0  0  0
   -5.2260   25.3210  -30.6020 C   0  0  0  0  0  0  0  0  0  0  0  0
   -5.8460   26.2360  -29.9990 O   0  0  0  0  0  0  0  0  0  0  0  0
   -5.8970   24.0270  -30.8530 C   0  0  0  0  0  0  0  0  0  0  0  0
   -7.2570   23.8100  -30.6430 C   0  0  0  0  0  0  0  0  0  0  0  0
   -7.9933   24.5260  -30.2492 H   0  0  0  0  0  0  0  0  0  0  0  0
   -7.4840   22.5090  -31.0330 C   0  0  0  0  0  0  0  0  0  0  0  0
   -8.6630   21.7710  -31.0450 C   0  0  0  0  0  0  0  0  0  0  0  0
   -9.6130   22.2147  -30.7125 H   0  0  0  0  0  0  0  0  0  0  0  0
   -8.6030   20.4410  -31.4950 C   0  0  0  0  0  0  0  0  0  0  0  0
   -9.5226   19.8388  -31.5362 H   0  0  0  0  0  0  0  0  0  0  0  0
   -7.3690   19.8660  -31.8970 C   0  0  0  0  0  0  0  0  0  0  0  0
   -7.3230   18.4530  -32.4180 C   0  0  0  0  0  0  0  0  0  0  0  0
   -6.9240   18.4670  -33.7410 F   0  0  0  0  0  0  0  0  0  0  0  0
   -8.5690   17.8570  -32.3300 F   0  0  0  0  0  0  0  0  0  0  0  0
   -6.4290   17.6910  -31.6860 F   0  0  0  0  0  0  0  0  0  0  0  0
   -6.1970   20.6590  -31.8910 C   0  0  0  0  0  0  0  0  0  0  0  0
   -5.2337   20.2422  -32.2202 H   0  0  0  0  0  0  0  0  0  0  0  0
   -6.2920   21.9840  -31.4570 C   0  0  0  0  0  0  0  0  0  0  0  0
   -5.3100   22.9070  -31.3630 N   0  0  0  0  0  0  0  0  0  0  0  0
   -3.9160   22.7020  -31.6380 C   0  0  0  0  0  0  0  0  0  0  0  0
   -3.0590   23.1350  -30.8220 O   0  0  0  0  0  0  0  0  0  0  0  0
   -3.4680   21.9360  -32.8560 C   0  0  0  0  0  0  0  0  0  0  0  0
   -4.3463   21.4943  -33.3495 H   0  0  0  0  0  0  0  0  0  0  0  0
   -2.9553   22.6260  -33.5423 H   0  0  0  0  0  0  0  0  0  0  0  0
   -2.5350   20.8620  -32.4740 N   0  0  0  0  0  0  0  0  0  0  0  0
   -1.1820   21.1350  -31.9900 C   0  0  0  0  0  0  0  0  0  0  0  0
   -0.2350   21.2570  -32.8130 O   0  0  0  0  0  0  0  0  0  0  0  0
   -0.8330   21.3930  -30.5750 C   0  0  0  0  0  0  0  0  0  0  0  0
   -0.8615   20.5427  -29.8777 H   0  0  0  0  0  0  0  0  0  0  0  0
   -0.4860   22.5860  -30.0860 C   0  0  0  0  0  0  0  0  0  0  0  0
   -0.2801   23.4197  -30.7734 H   0  0  0  0  0  0  0  0  0  0  0  0
   -0.3770   22.7930  -28.6280 C   0  0  0  0  0  0  0  0  0  0  0  0
    0.3393   22.1711  -28.0711 H   0  0  0  0  0  0  0  0  0  0  0  0
   -1.0960   23.6910  -27.9410 C   0  0  0  0  0  0  0  0  0  0  0  0
   -1.0912   23.6181  -26.8434 H   0  0  0  0  0  0  0  0  0  0  0  0
   -1.8910   24.7670  -28.5510 C   0  0  0  0  0  0  0  0  0  0  0  0
   -3.1430   24.7930  -28.4300 O   0  0  0  0  0  0  0  0  0  0  0  0
   -1.2640   25.7180  -29.3420 O   0  0  0  0  0  0  0  0  0  0  0  0
   -3.0730   19.4810  -32.5930 C   0  0  0  0  0  0  0  0  0  0  0  0
   -3.4325   19.3836  -31.5580 H   0  0  0  0  0  0  0  0  0  0  0  0
   -3.9630   19.2350  -33.8000 C   0  0  0  0  0  0  0  0  0  0  0  0
   -4.9316   18.7804  -33.5449 H   0  0  0  0  0  0  0  0  0  0  0  0
   -4.3020   20.0956  -34.3954 H   0  0  0  0  0  0  0  0  0  0  0  0
   -3.0130   18.2900  -34.3960 N   0  0  0  0  0  0  0  0  0  0  0  0
   -3.4260   17.3270  -34.3460 H   0  0  0  0  0  0  0  0  0  0  0  0
   -2.1320   18.4790  -33.2390 C   0  0  0  0  0  0  0  0  0  0  0  0
   -1.9890   17.5653  -32.6434 H   0  0  0  0  0  0  0  0  0  0  0  0
   -1.0842   18.7671  -33.4099 H   0  0  0  0  0  0  0  0  0  0  0  0
  1  2  1  0
  2  3  1  0
  3  4  2  0
  3  5  1  0
  5  6  2  0
  6  7  1  0
  6  8  1  0
  8  9  2  0
  9 10  1  0
  9 11  1  0
 11 12  1  0
 11 13  2  0
 13 14  1  0
 14 15  1  0
 14 16  1  0
 14 17  1  0
 13 18  1  0
 18 19  1  0
 18 20  2  0
 20 21  1  0
 21 22  1  0
 22 23  2  0
 22 24  1  0
 24 25  1  0
 24 26  1  0
 24 27  1  0
 27 28  1  0
 28 29  2  0
 28 30  1  0
 30 31  1  0
 30 32  2  0
 32 33  1  0
 32 34  1  0
 34 35  1  0
 34 36  2  3
 36 37  1  0
 36 38  1  0
 38 39  2  0
 38 40  1  0
 27 41  1  0
 41 42  1  0
 41 43  1  0
 43 44  1  0
 43 45  1  0
 43 46  1  0
 46 47  1  0
 46 48  1  0
 48 49  1  0
 48 50  1  0
 21  5  1  0
 48 41  1  0
 20  8  1  0
M  CHG  2   2  -1  40  -1
M  END
>  <UniqueID>  (50) 
49

>  <SMILES>  (50) 
[NH-]C(=O)c1cc2ccc(C(F)(F)F)cc2n1C(=O)CN(C(=O)/C=C/C=CC(=O)[O-])C1CNC1

>  <Energy>  (50) 
169.8696744225139

>  <Genealogy>  (50) 
[NH-]C(=O)c1cc2ccc(C(F)(F)F)cc2n1C(=O)CN(C(=O)C=CC=CC(=O)[O-])C1CNC1 (protonated)
[NH-]C(=O)c1cc2ccc(C(F)(F)F)cc2n1C(=O)CN(C(=O)/C=C/C=CC(=O)[O-])C1CNC1 (cis-trans isomerization)
[NH-]C(=O)c1cc2ccc(C(F)(F)F)cc2n1C(=O)CN(C(=O)/C=C/C=CC(=O)[O-])C1CNC1 (3D coordinates assigned)
[NH-]C(=O)c1cc2ccc(C(F)(F)F)cc2n1C(=O)CN(C(=O)/C=C/C=CC(=O)[O-])C1CNC1 (nonaromatic ring conformer: 169.8696744225139 kcal/mol)

>  <smiles>  (50) 
NC(=O)c1cc2ccc(C(F)(F)F)cc2n1C(=O)CN(C(=O)C=CC=CC(=O)O)C1CNC1

>  <score_type>  (50) 
oracle

>  <origin>  (50) 
adg

>  <m_score__min__energy>  (50) 
-13.74

>  <m_primary>  (50) 
energy

$$$$
51:0
     RDKit          3D

 54 55  0  0  0  0  0  0  0  0999 V2000
   -0.5010   27.2760  -27.0430 C   0  0  0  0  0  0  0  0  0  0  0  0
   -0.3630   27.2490  -25.5750 N   0  0  0  0  0  0  0  0  0  0  0  0
   -0.0970   28.6100  -25.0840 C   0  0  0  0  0  0  0  0  0  0  0  0
   -1.5840   26.7160  -24.9370 C   0  0  0  0  0  0  0  0  0  0  0  0
   -1.9730   25.3980  -25.5370 C   0  0  0  0  0  0  0  0  0  0  0  0
   -2.9520   25.3360  -26.3290 O   0  0  0  0  0  0  0  0  0  0  0  0
   -1.2670   24.2440  -25.1850 O   0  0  0  0  0  0  0  0  0  0  0  0
    0.1560   24.1750  -25.2080 C   0  0  0  0  0  0  0  0  0  0  0  0
    0.5730   23.2930  -26.2430 O   0  0  0  0  0  0  0  0  0  0  0  0
    1.3340   23.7190  -27.3360 C   0  0  0  0  0  0  0  0  0  0  0  0
    2.5550   23.4140  -27.4180 O   0  0  0  0  0  0  0  0  0  0  0  0
    0.7190   24.4860  -28.3290 O   0  0  0  0  0  0  0  0  0  0  0  0
   -0.8930   24.2100  -28.8760 P   0  0  2  0  0  0  0  0  0  0  0  0
   -0.8250   23.3200  -30.0950 O   0  0  0  0  0  0  0  0  0  0  0  0
   -1.6140   25.6710  -29.3300 O   0  0  0  0  0  0  0  0  0  0  0  0
   -1.8660   23.4250  -27.7090 O   0  0  0  0  0  0  0  0  0  0  0  0
   -1.9190   22.0420  -27.9660 C   0  0  0  0  0  0  0  0  0  0  0  0
   -3.1620   21.6890  -28.5700 O   0  0  0  0  0  0  0  0  0  0  0  0
   -3.3060   21.5630  -29.9580 C   0  0  0  0  0  0  0  0  0  0  0  0
   -2.3630   21.0810  -30.6450 O   0  0  0  0  0  0  0  0  0  0  0  0
   -4.5180   21.9880  -30.6090 N   0  0  0  0  0  0  0  0  0  0  0  0
   -4.9500   23.2700  -30.7870 C   0  0  0  0  0  0  0  0  0  0  0  0
   -4.3720   24.4760  -30.1610 C   0  0  0  0  0  0  0  0  0  0  0  0
   -3.8800   24.4520  -28.8200 N   0  0  0  0  0  0  0  0  0  0  0  0
   -4.3700   25.5640  -30.7990 O   0  0  0  0  0  0  0  0  0  0  0  0
   -6.0750   23.3030  -31.6050 C   0  0  0  0  0  0  0  0  0  0  0  0
   -6.3390   21.9900  -31.9100 C   0  0  0  0  0  0  0  0  0  0  0  0
   -7.3400   21.4450  -32.7100 C   0  0  0  0  0  0  0  0  0  0  0  0
   -7.3600   20.0510  -32.8820 C   0  0  0  0  0  0  0  0  0  0  0  0
   -6.3910   19.2290  -32.2500 C   0  0  0  0  0  0  0  0  0  0  0  0
   -6.3800   17.7360  -32.4560 C   0  0  0  0  0  0  0  0  0  0  0  0
   -5.4060   17.3550  -33.3640 F   0  0  0  0  0  0  0  0  0  0  0  0
   -6.1340   17.1110  -31.2480 F   0  0  0  0  0  0  0  0  0  0  0  0
   -7.6090   17.3200  -32.9370 F   0  0  0  0  0  0  0  0  0  0  0  0
   -5.3820   19.8250  -31.4590 C   0  0  0  0  0  0  0  0  0  0  0  0
   -5.3900   21.2140  -31.2960 C   0  0  0  0  0  0  0  0  0  0  0  0
   -1.5485   27.4809  -27.3091 H   0  0  0  0  0  0  0  0  0  0  0  0
    0.1437   28.0650  -27.4574 H   0  0  0  0  0  0  0  0  0  0  0  0
   -0.2012   26.3022  -27.4574 H   0  0  0  0  0  0  0  0  0  0  0  0
   -0.0971   28.6095  -23.9840 H   0  0  0  0  0  0  0  0  0  0  0  0
    0.8840   28.9468  -25.4504 H   0  0  0  0  0  0  0  0  0  0  0  0
   -0.8790   29.2914  -25.4504 H   0  0  0  0  0  0  0  0  0  0  0  0
   -1.3979   26.5805  -23.8614 H   0  0  0  0  0  0  0  0  0  0  0  0
   -2.4044   27.4305  -25.0994 H   0  0  0  0  0  0  0  0  0  0  0  0
    0.5684   25.1778  -25.3930 H   0  0  0  0  0  0  0  0  0  0  0  0
    0.5199   23.8008  -24.2397 H   0  0  0  0  0  0  0  0  0  0  0  0
   -1.0974   21.7690  -28.6445 H   0  0  0  0  0  0  0  0  0  0  0  0
   -1.8225   21.5011  -27.0130 H   0  0  0  0  0  0  0  0  0  0  0  0
   -3.4410   25.3060  -28.4090 H   0  0  0  0  0  0  0  0  0  0  0  0
   -4.0240   23.6210  -28.2070 H   0  0  0  0  0  0  0  0  0  0  0  0
   -6.6336   24.1907  -31.9366 H   0  0  0  0  0  0  0  0  0  0  0  0
   -8.0921   22.0865  -33.1925 H   0  0  0  0  0  0  0  0  0  0  0  0
   -8.1349   19.5917  -33.5132 H   0  0  0  0  0  0  0  0  0  0  0  0
   -4.6062   19.2086  -30.9814 H   0  0  0  0  0  0  0  0  0  0  0  0
  1  2  1  0
  2  3  1  0
  2  4  1  0
  4  5  1  0
  5  6  2  0
  5  7  1  0
  7  8  1  0
  8  9  1  0
  9 10  1  0
 10 11  2  0
 10 12  1  0
 12 13  1  0
 13 14  2  0
 13 15  1  6
 13 16  1  0
 16 17  1  0
 17 18  1  0
 18 19  1  0
 19 20  2  0
 19 21  1  0
 21 22  1  0
 22 23  1  0
 23 24  1  0
 23 25  2  0
 22 26  2  0
 26 27  1  0
 27 28  2  0
 28 29  1  0
 29 30  2  0
 30 31  1  0
 31 32  1  0
 31 33  1  0
 31 34  1  0
 30 35  1  0
 35 36  2  0
 36 21  1  0
 36 27  1  0
  1 37  1  0
  1 38  1  0
  1 39  1  0
  3 40  1  0
  3 41  1  0
  3 42  1  0
  4 43  1  0
  4 44  1  0
  8 45  1  0
  8 46  1  0
 17 47  1  0
 17 48  1  0
 24 49  1  0
 24 50  1  0
 26 51  1  0
 28 52  1  0
 29 53  1  0
 35 54  1  0
M  CHG  1  15  -1
M  END
>  <UniqueID>  (51) 
50

>  <SMILES>  (51) 
CN(C)CC(=O)OCOC(=O)O[P@](=O)([O-])OCOC(=O)n1c(C(N)=O)cc2ccc(C(F)(F)F)cc21

>  <Energy>  (51) 
83.86642131083198

>  <Genealogy>  (51) 
CN(C)CC(=O)OCOC(=O)OP(=O)([O-])OCOC(=O)n1c(C(N)=O)cc2ccc(C(F)(F)F)cc21 (protonated)
CN(C)CC(=O)OCOC(=O)O[P@](=O)([O-])OCOC(=O)n1c(C(N)=O)cc2ccc(C(F)(F)F)cc21 (chirality)
CN(C)CC(=O)OCOC(=O)O[P@](=O)([O-])OCOC(=O)n1c(C(N)=O)cc2ccc(C(F)(F)F)cc21 (3D coordinates assigned)
CN(C)CC(=O)OCOC(=O)O[P@](=O)([O-])OCOC(=O)n1c(C(N)=O)cc2ccc(C(F)(F)F)cc21 (optimized conformer: 83.86642131083198 kcal/mol)

>  <smiles>  (51) 
CN(C)CC(=O)OCOC(=O)OP(=O)(O)OCOC(=O)n1c(C(N)=O)cc2ccc(C(F)(F)F)cc21

>  <score_type>  (51) 
oracle

>  <origin>  (51) 
adg

>  <m_score__min__energy>  (51) 
-10.24

>  <m_primary>  (51) 
energy

$$$$
52:0
     RDKit          3D

 30 31  0  0  0  0  0  0  0  0999 V2000
   -0.7210   21.6690  -33.9350 N   0  0  0  0  0  0  0  0  0  0  0  0
   -1.3790   21.2640  -32.7370 C   0  0  0  0  0  0  0  0  0  0  0  0
   -0.7410   21.2720  -31.6500 O   0  0  0  0  0  0  0  0  0  0  0  0
   -2.7840   20.8150  -32.7820 C   0  0  0  0  0  0  0  0  0  0  0  0
   -3.2060   19.6420  -33.4060 C   0  0  0  0  0  0  0  0  0  0  0  0
   -4.5580   19.5600  -33.1520 C   0  0  0  0  0  0  0  0  0  0  0  0
   -5.4910   18.6070  -33.5500 C   0  0  0  0  0  0  0  0  0  0  0  0
   -6.8290   18.7940  -33.1630 C   0  0  0  0  0  0  0  0  0  0  0  0
   -7.2090   19.9130  -32.3760 C   0  0  0  0  0  0  0  0  0  0  0  0
   -8.6560   20.1330  -32.0170 C   0  0  0  0  0  0  0  0  0  0  0  0
   -9.4510   19.7490  -33.0800 F   0  0  0  0  0  0  0  0  0  0  0  0
   -9.0020   19.3890  -30.9030 F   0  0  0  0  0  0  0  0  0  0  0  0
   -8.8920   21.4680  -31.7370 F   0  0  0  0  0  0  0  0  0  0  0  0
   -6.2330   20.8690  -32.0090 C   0  0  0  0  0  0  0  0  0  0  0  0
   -4.9100   20.6510  -32.4030 C   0  0  0  0  0  0  0  0  0  0  0  0
   -3.8350   21.4340  -32.1750 N   0  0  0  0  0  0  0  0  0  0  0  0
   -3.8410   22.6890  -31.4830 C   0  0  0  0  0  0  0  0  0  0  0  0
   -4.7510   23.5280  -31.7200 O   0  0  0  0  0  0  0  0  0  0  0  0
   -2.7110   23.0590  -30.5720 C   0  0  0  0  0  0  0  0  0  0  0  0
   -3.0700   24.6390  -29.7480 P   0  0  0  0  0  0  0  0  0  0  0  0
   -3.9440   24.3990  -28.5380 O   0  0  0  0  0  0  0  0  0  0  0  0
   -1.6190   25.3550  -29.2580 O   0  0  0  0  0  0  0  0  0  0  0  0
   -3.8670   25.6730  -30.8220 O   0  0  0  0  0  0  0  0  0  0  0  0
   -1.2670   21.9900  -34.7650 H   0  0  0  0  0  0  0  0  0  0  0  0
   -2.5907   18.9328  -33.9791 H   0  0  0  0  0  0  0  0  0  0  0  0
   -5.1905   17.7346  -34.1488 H   0  0  0  0  0  0  0  0  0  0  0  0
   -7.5913   18.0644  -33.4737 H   0  0  0  0  0  0  0  0  0  0  0  0
   -6.5085   21.7615  -31.4281 H   0  0  0  0  0  0  0  0  0  0  0  0
   -2.5824   22.2732  -29.8131 H   0  0  0  0  0  0  0  0  0  0  0  0
   -1.7888   23.1608  -31.1629 H   0  0  0  0  0  0  0  0  0  0  0  0
  1  2  1  0
  2  3  2  0
  2  4  1  0
  4  5  2  0
  5  6  1  0
  6  7  2  0
  7  8  1  0
  8  9  2  0
  9 10  1  0
 10 11  1  0
 10 12  1  0
 10 13  1  0
  9 14  1  0
 14 15  2  0
 15 16  1  0
 16 17  1  0
 17 18  2  0
 17 19  1  0
 19 20  1  0
 20 21  2  0
 20 22  1  0
 20 23  1  0
 16  4  1  0
 15  6  1  0
  1 24  1  0
  5 25  1  0
  7 26  1  0
  8 27  1  0
 14 28  1  0
 19 29  1  0
 19 30  1  0
M  CHG  3   1  -1  22  -1  23  -1
M  END
>  <UniqueID>  (52) 
51

>  <SMILES>  (52) 
[NH-]C(=O)c1cc2ccc(C(F)(F)F)cc2n1C(=O)CP(=O)([O-])[O-]

>  <Energy>  (52) 
64.99508284454954

>  <Genealogy>  (52) 
[NH-]C(=O)c1cc2ccc(C(F)(F)F)cc2n1C(=O)CP(=O)([O-])[O-] (protonated)
[NH-]C(=O)c1cc2ccc(C(F)(F)F)cc2n1C(=O)CP(=O)([O-])[O-] (3D coordinates assigned)
[NH-]C(=O)c1cc2ccc(C(F)(F)F)cc2n1C(=O)CP(=O)([O-])[O-] (optimized conformer: 64.99508284454954 kcal/mol)

>  <smiles>  (52) 
NC(=O)c1cc2ccc(C(F)(F)F)cc2n1C(=O)CP(=O)(O)O

>  <score_type>  (52) 
oracle

>  <origin>  (52) 
adg

>  <m_score__min__energy>  (52) 
-12.49

>  <m_primary>  (52) 
energy

$$$$
53:0
     RDKit          3D

 43 44  0  0  0  0  0  0  0  0999 V2000
   -6.7220   17.9990  -33.4590 C   0  0  0  0  0  0  0  0  0  0  0  0
   -7.0840   19.2590  -32.7280 C   0  0  0  0  0  0  0  0  0  0  0  0
   -8.4230   19.4870  -32.3260 C   0  0  0  0  0  0  0  0  0  0  0  0
   -8.7650   20.6390  -31.5970 C   0  0  0  0  0  0  0  0  0  0  0  0
   -7.7480   21.5370  -31.2830 C   0  0  0  0  0  0  0  0  0  0  0  0
   -7.7890   22.7060  -30.5550 C   0  0  0  0  0  0  0  0  0  0  0  0
   -6.4760   23.1710  -30.5320 C   0  0  0  0  0  0  0  0  0  0  0  0
   -6.0700   24.4370  -29.8860 C   0  0  0  0  0  0  0  0  0  0  0  0
   -4.7730   24.5980  -29.3120 N   0  0  0  0  0  0  0  0  0  0  0  0
   -6.8710   25.4100  -29.8780 O   0  0  0  0  0  0  0  0  0  0  0  0
   -5.6550   22.3180  -31.2060 N   0  0  0  0  0  0  0  0  0  0  0  0
   -4.2230   22.3590  -31.3040 C   0  0  0  0  0  0  0  0  0  0  0  0
   -3.6460   23.4530  -31.5510 O   0  0  0  0  0  0  0  0  0  0  0  0
   -3.4120   21.1000  -31.2260 C   0  0  0  0  0  0  0  0  0  0  0  0
   -2.0540   21.3940  -30.6500 C   0  0  0  0  0  0  0  0  0  0  0  0
   -1.1900   21.9550  -31.3790 O   0  0  0  0  0  0  0  0  0  0  0  0
   -1.7170   21.0260  -29.2970 N   0  0  0  0  0  0  0  0  0  0  0  0
   -0.5330   20.2060  -29.0290 C   0  0  0  0  0  0  0  0  0  0  0  0
   -2.5850   21.3910  -28.2060 C   0  0  0  0  0  0  0  0  0  0  0  0
   -3.0360   20.5050  -27.4270 O   0  0  0  0  0  0  0  0  0  0  0  0
   -2.9140   22.7350  -27.9970 O   0  0  0  0  0  0  0  0  0  0  0  0
   -1.9840   23.6840  -27.4840 C   0  0  0  0  0  0  0  0  0  0  0  0
   -1.4860   24.5390  -28.5990 C   0  0  0  0  0  0  0  0  0  0  0  0
   -0.2580   24.5570  -28.8820 O   0  0  0  0  0  0  0  0  0  0  0  0
   -2.3760   25.3020  -29.3450 O   0  0  0  0  0  0  0  0  0  0  0  0
   -6.4480   21.3270  -31.6630 C   0  0  0  0  0  0  0  0  0  0  0  0
   -6.0760   20.1820  -32.3750 C   0  0  0  0  0  0  0  0  0  0  0  0
   -6.4941   17.2058  -32.7318 H   0  0  0  0  0  0  0  0  0  0  0  0
   -7.5665   17.6859  -34.0905 H   0  0  0  0  0  0  0  0  0  0  0  0
   -5.8401   18.1819  -34.0905 H   0  0  0  0  0  0  0  0  0  0  0  0
   -9.2023   18.7558  -32.5867 H   0  0  0  0  0  0  0  0  0  0  0  0
   -9.8031   20.8253  -31.2844 H   0  0  0  0  0  0  0  0  0  0  0  0
   -8.6704   23.1726  -30.0909 H   0  0  0  0  0  0  0  0  0  0  0  0
   -4.5330   25.4760  -28.8000 H   0  0  0  0  0  0  0  0  0  0  0  0
   -4.0190   23.8930  -29.4620 H   0  0  0  0  0  0  0  0  0  0  0  0
   -3.9300   20.3729  -30.5833 H   0  0  0  0  0  0  0  0  0  0  0  0
   -3.2916   20.6864  -32.2381 H   0  0  0  0  0  0  0  0  0  0  0  0
   -0.3926   20.1088  -27.9423 H   0  0  0  0  0  0  0  0  0  0  0  0
   -0.6700   19.2084  -29.4717 H   0  0  0  0  0  0  0  0  0  0  0  0
    0.3527   20.6851  -29.4717 H   0  0  0  0  0  0  0  0  0  0  0  0
   -2.4799   24.3142  -26.7311 H   0  0  0  0  0  0  0  0  0  0  0  0
   -1.1384   23.1564  -27.0186 H   0  0  0  0  0  0  0  0  0  0  0  0
   -5.0263   20.0055  -32.6524 H   0  0  0  0  0  0  0  0  0  0  0  0
  1  2  1  0
  2  3  2  0
  3  4  1  0
  4  5  2  0
  5  6  1  0
  6  7  2  0
  7  8  1  0
  8  9  1  0
  8 10  2  0
  7 11  1  0
 11 12  1  0
 12 13  2  0
 12 14  1  0
 14 15  1  0
 15 16  2  0
 15 17  1  0
 17 18  1  0
 17 19  1  0
 19 20  2  0
 19 21  1  0
 21 22  1  0
 22 23  1  0
 23 24  2  0
 23 25  1  0
 11 26  1  0
 26 27  2  0
 27  2  1  0
 26  5  1  0
  1 28  1  0
  1 29  1  0
  1 30  1  0
  3 31  1  0
  4 32  1  0
  6 33  1  0
  9 34  1  0
  9 35  1  0
 14 36  1  0
 14 37  1  0
 18 38  1  0
 18 39  1  0
 18 40  1  0
 22 41  1  0
 22 42  1  0
 27 43  1  0
M  CHG  1  25  -1
M  END
>  <UniqueID>  (53) 
52

>  <SMILES>  (53) 
Cc1ccc2cc(C(N)=O)n(C(=O)CC(=O)N(C)C(=O)OCC(=O)[O-])c2c1

>  <Energy>  (53) 
80.5423355304625

>  <Genealogy>  (53) 
Cc1ccc2cc(C(N)=O)n(C(=O)CC(=O)N(C)C(=O)OCC(=O)[O-])c2c1 (protonated)
Cc1ccc2cc(C(N)=O)n(C(=O)CC(=O)N(C)C(=O)OCC(=O)[O-])c2c1 (3D coordinates assigned)
Cc1ccc2cc(C(N)=O)n(C(=O)CC(=O)N(C)C(=O)OCC(=O)[O-])c2c1 (optimized conformer: 80.5423355304625 kcal/mol)

>  <smiles>  (53) 
Cc1ccc2cc(C(N)=O)n(C(=O)CC(=O)N(C)C(=O)OCC(=O)O)c2c1

>  <score_type>  (53) 
oracle

>  <origin>  (53) 
adg

>  <m_score__min__energy>  (53) 
-11.380000000000001

>  <m_primary>  (53) 
energy

$$$$
54:0
     RDKit          3D

 32 33  0  0  0  0  0  0  0  0999 V2000
   -5.5460   24.1000  -29.3450 N   0  0  0  0  0  0  0  0  0  0  0  0
   -6.5160   23.9100  -30.3760 C   0  0  0  0  0  0  0  0  0  0  0  0
   -7.1560   24.9050  -30.8080 O   0  0  0  0  0  0  0  0  0  0  0  0
   -6.7460   22.5700  -30.9600 C   0  0  0  0  0  0  0  0  0  0  0  0
   -8.0040   21.9840  -31.0940 C   0  0  0  0  0  0  0  0  0  0  0  0
   -7.7690   20.7210  -31.5840 C   0  0  0  0  0  0  0  0  0  0  0  0
   -8.6640   19.7120  -31.9270 C   0  0  0  0  0  0  0  0  0  0  0  0
   -8.1420   18.5160  -32.4460 C   0  0  0  0  0  0  0  0  0  0  0  0
   -6.7420   18.3420  -32.6030 C   0  0  0  0  0  0  0  0  0  0  0  0
   -6.1990   17.0780  -33.2200 C   0  0  0  0  0  0  0  0  0  0  0  0
   -5.5230   17.3580  -34.3940 F   0  0  0  0  0  0  0  0  0  0  0  0
   -5.3190   16.4510  -32.3540 F   0  0  0  0  0  0  0  0  0  0  0  0
   -7.2460   16.2200  -33.4960 F   0  0  0  0  0  0  0  0  0  0  0  0
   -5.8680   19.4000  -32.2640 C   0  0  0  0  0  0  0  0  0  0  0  0
   -6.4140   20.5740  -31.7330 C   0  0  0  0  0  0  0  0  0  0  0  0
   -5.7720   21.7010  -31.3540 N   0  0  0  0  0  0  0  0  0  0  0  0
   -4.3600   21.9470  -31.4380 C   0  0  0  0  0  0  0  0  0  0  0  0
   -3.7650   21.8260  -32.5440 O   0  0  0  0  0  0  0  0  0  0  0  0
   -3.6330   22.3460  -30.2720 N   0  0  0  0  0  0  0  0  0  0  0  0
   -2.4470   23.1920  -30.3070 C   0  0  0  0  0  0  0  0  0  0  0  0
   -2.7910   24.7910  -29.5100 P   0  0  0  0  0  0  0  0  0  0  0  0
   -3.4100   24.5490  -28.1530 O   0  0  0  0  0  0  0  0  0  0  0  0
   -3.8670   25.6770  -30.4670 O   0  0  0  0  0  0  0  0  0  0  0  0
   -1.3560   25.6670  -29.3200 O   0  0  0  0  0  0  0  0  0  0  0  0
   -5.3660   25.0570  -28.9670 H   0  0  0  0  0  0  0  0  0  0  0  0
   -5.0360   23.2930  -28.9230 H   0  0  0  0  0  0  0  0  0  0  0  0
   -8.9784   22.4364  -30.8577 H   0  0  0  0  0  0  0  0  0  0  0  0
   -9.7477   19.8472  -31.7955 H   0  0  0  0  0  0  0  0  0  0  0  0
   -8.8262   17.7044  -32.7343 H   0  0  0  0  0  0  0  0  0  0  0  0
   -4.7827   19.3026  -32.4143 H   0  0  0  0  0  0  0  0  0  0  0  0
   -1.6265   22.6895  -29.7738 H   0  0  0  0  0  0  0  0  0  0  0  0
   -2.1625   23.3675  -31.3550 H   0  0  0  0  0  0  0  0  0  0  0  0
  1  2  1  0
  2  3  2  0
  2  4  1  0
  4  5  2  0
  5  6  1  0
  6  7  2  0
  7  8  1  0
  8  9  2  0
  9 10  1  0
 10 11  1  0
 10 12  1  0
 10 13  1  0
  9 14  1  0
 14 15  2  0
 15 16  1  0
 16 17  1  0
 17 18  2  0
 17 19  1  0
 19 20  1  0
 20 21  1  0
 21 22  2  0
 21 23  1  0
 21 24  1  0
 16  4  1  0
 15  6  1  0
  1 25  1  0
  1 26  1  0
  5 27  1  0
  7 28  1  0
  8 29  1  0
 14 30  1  0
 20 31  1  0
 20 32  1  0
M  CHG  3  19  -1  23  -1  24  -1
M  END
>  <UniqueID>  (54) 
53

>  <SMILES>  (54) 
NC(=O)c1cc2ccc(C(F)(F)F)cc2n1C(=O)[N-]CP(=O)([O-])[O-]

>  <Energy>  (54) 
66.30749044166788

>  <Genealogy>  (54) 
NC(=O)c1cc2ccc(C(F)(F)F)cc2n1C(=O)[N-]CP(=O)([O-])[O-] (protonated)
NC(=O)c1cc2ccc(C(F)(F)F)cc2n1C(=O)[N-]CP(=O)([O-])[O-] (3D coordinates assigned)
NC(=O)c1cc2ccc(C(F)(F)F)cc2n1C(=O)[N-]CP(=O)([O-])[O-] (optimized conformer: 66.30749044166788 kcal/mol)

>  <smiles>  (54) 
NC(=O)c1cc2ccc(C(F)(F)F)cc2n1C(=O)NCP(=O)(O)O

>  <score_type>  (54) 
oracle

>  <origin>  (54) 
adg

>  <m_score__min__energy>  (54) 
-12.609999999999999

>  <m_primary>  (54) 
energy

$$$$
55:0
     RDKit          3D

 83 85  0  0  0  0  0  0  0  0999 V2000
   -8.0650   18.6930  -32.3990 C   0  0  0  0  0  0  0  0  0  0  0  0
   -7.9030   20.0120  -31.7090 C   0  0  0  0  0  0  0  0  0  0  0  0
   -9.0370   20.6860  -31.1840 C   0  0  0  0  0  0  0  0  0  0  0  0
   -8.9040   21.9630  -30.6170 C   0  0  0  0  0  0  0  0  0  0  0  0
   -7.6390   22.5430  -30.5930 C   0  0  0  0  0  0  0  0  0  0  0  0
   -7.2570   23.7980  -30.1960 C   0  0  0  0  0  0  0  0  0  0  0  0
   -5.9030   23.8860  -30.4980 C   0  0  0  0  0  0  0  0  0  0  0  0
   -5.1720   25.1680  -30.4210 C   0  0  0  0  0  0  0  0  0  0  0  0
   -3.7990   25.2590  -30.8030 N   0  0  0  0  0  0  0  0  0  0  0  0
   -5.7930   26.2190  -30.0980 O   0  0  0  0  0  0  0  0  0  0  0  0
   -5.4350   22.7000  -30.9940 N   0  0  0  0  0  0  0  0  0  0  0  0
   -4.1150   22.4050  -31.5020 C   0  0  0  0  0  0  0  0  0  0  0  0
   -3.7400   22.9940  -32.5500 O   0  0  0  0  0  0  0  0  0  0  0  0
   -3.2590   21.3980  -30.8560 N   0  0  1  0  0  0  0  0  0  0  0  0
   -2.3190   20.7120  -31.8210 C   0  0  0  0  0  0  0  0  0  0  0  0
   -2.6590   19.2510  -32.2150 C   0  0  0  0  0  0  0  0  0  0  0  0
   -4.0600   19.0490  -32.1810 O   0  0  0  0  0  0  0  0  0  0  0  0
   -4.5880   18.0380  -33.5000 Si  0  0  0  0  0  4  0  0  0  0  0  0
   -5.8560   18.9210  -34.5660 C   0  0  0  0  0  0  0  0  0  0  0  0
   -3.0910   17.5900  -34.5400 C   0  0  0  0  0  0  0  0  0  0  0  0
   -5.3450   16.4320  -32.8150 C   0  0  0  0  0  0  0  0  0  0  0  0
   -4.2910   15.3090  -32.8020 C   0  0  0  0  0  0  0  0  0  0  0  0
   -5.8370   16.6840  -31.3820 C   0  0  0  0  0  0  0  0  0  0  0  0
   -6.5340   16.0150  -33.7000 C   0  0  0  0  0  0  0  0  0  0  0  0
   -1.5780   21.5460  -32.8860 C   0  0  0  0  0  0  0  0  0  0  0  0
   -0.8120   20.9980  -31.7040 C   0  0  0  0  0  0  0  0  0  0  0  0
   -2.7130   21.7790  -29.4790 C   0  0  0  0  0  0  0  0  0  0  0  0
   -3.8260   21.9300  -28.3920 C   0  0  0  0  0  0  0  0  0  0  0  0
   -1.7500   20.6750  -28.9680 C   0  0  0  0  0  0  0  0  0  0  0  0
   -1.8750   23.0650  -29.5020 C   0  0  0  0  0  0  0  0  0  0  0  0
   -0.7520   23.0720  -30.0920 O   0  0  0  0  0  0  0  0  0  0  0  0
   -2.3660   24.2420  -28.9180 O   0  0  0  0  0  0  0  0  0  0  0  0
   -2.0250   24.7240  -27.6060 C   0  0  0  0  0  0  0  0  0  0  0  0
   -3.3050   24.9270  -26.7710 C   0  0  0  0  0  0  0  0  0  0  0  0
   -1.2150   26.0360  -27.6910 C   0  0  0  0  0  0  0  0  0  0  0  0
   -1.1540   23.6520  -26.9200 C   0  0  0  0  0  0  0  0  0  0  0  0
   -6.5280   21.9040  -31.0850 C   0  0  0  0  0  0  0  0  0  0  0  0
   -6.6390   20.6400  -31.6770 C   0  0  0  0  0  0  0  0  0  0  0  0
   -8.1629   17.8957  -31.6475 H   0  0  0  0  0  0  0  0  0  0  0  0
   -8.9670   18.7167  -33.0282 H   0  0  0  0  0  0  0  0  0  0  0  0
   -7.1841   18.4977  -33.0282 H   0  0  0  0  0  0  0  0  0  0  0  0
  -10.0254   20.2046  -31.2218 H   0  0  0  0  0  0  0  0  0  0  0  0
   -9.7757   22.4910  -30.2029 H   0  0  0  0  0  0  0  0  0  0  0  0
   -7.8885   24.5721  -29.7356 H   0  0  0  0  0  0  0  0  0  0  0  0
   -3.2250   24.3960  -30.9350 H   0  0  0  0  0  0  0  0  0  0  0  0
   -3.9450   20.6390  -30.6370 H   0  0  0  0  0  0  0  0  0  0  0  0
   -2.2879   19.0530  -33.2314 H   0  0  0  0  0  0  0  0  0  0  0  0
   -2.1800   18.5657  -31.5002 H   0  0  0  0  0  0  0  0  0  0  0  0
   -6.5870   19.4300  -33.9206 H   0  0  0  0  0  0  0  0  0  0  0  0
   -5.3488   19.6622  -35.2010 H   0  0  0  0  0  0  0  0  0  0  0  0
   -6.3753   18.1882  -35.2010 H   0  0  0  0  0  0  0  0  0  0  0  0
   -2.2481   17.3377  -33.8798 H   0  0  0  0  0  0  0  0  0  0  0  0
   -3.3313   16.7244  -35.1748 H   0  0  0  0  0  0  0  0  0  0  0  0
   -2.8163   18.4453  -35.1748 H   0  0  0  0  0  0  0  0  0  0  0  0
   -4.0461   15.0480  -31.7618 H   0  0  0  0  0  0  0  0  0  0  0  0
   -4.6920   14.4238  -33.3174 H   0  0  0  0  0  0  0  0  0  0  0  0
   -3.3822   15.6531  -33.3174 H   0  0  0  0  0  0  0  0  0  0  0  0
   -5.0933   16.3031  -30.6667 H   0  0  0  0  0  0  0  0  0  0  0  0
   -5.9756   17.7641  -31.2265 H   0  0  0  0  0  0  0  0  0  0  0  0
   -6.7945   16.1653  -31.2265 H   0  0  0  0  0  0  0  0  0  0  0  0
   -7.3796   15.7184  -33.0621 H   0  0  0  0  0  0  0  0  0  0  0  0
   -6.8331   16.8619  -34.3351 H   0  0  0  0  0  0  0  0  0  0  0  0
   -6.2387   15.1668  -34.3351 H   0  0  0  0  0  0  0  0  0  0  0  0
   -1.4096   21.1291  -33.8899 H   0  0  0  0  0  0  0  0  0  0  0  0
   -1.7179   22.5459  -33.3226 H   0  0  0  0  0  0  0  0  0  0  0  0
   -0.0868   20.1840  -31.8508 H   0  0  0  0  0  0  0  0  0  0  0  0
   -0.1661   21.4378  -30.9298 H   0  0  0  0  0  0  0  0  0  0  0  0
   -3.3724   21.8685  -27.3918 H   0  0  0  0  0  0  0  0  0  0  0  0
   -4.3237   22.9039  -28.5096 H   0  0  0  0  0  0  0  0  0  0  0  0
   -4.5652   21.1239  -28.5096 H   0  0  0  0  0  0  0  0  0  0  0  0
   -1.7469   20.6715  -27.8680 H   0  0  0  0  0  0  0  0  0  0  0  0
   -2.0870   19.6950  -29.3369 H   0  0  0  0  0  0  0  0  0  0  0  0
   -0.7333   20.8758  -29.3369 H   0  0  0  0  0  0  0  0  0  0  0  0
   -3.0547   24.8873  -25.7006 H   0  0  0  0  0  0  0  0  0  0  0  0
   -3.7461   25.9063  -27.0083 H   0  0  0  0  0  0  0  0  0  0  0  0
   -4.0275   24.1322  -27.0083 H   0  0  0  0  0  0  0  0  0  0  0  0
   -0.9927   26.3961  -26.6757 H   0  0  0  0  0  0  0  0  0  0  0  0
   -0.2734   25.8514  -28.2289 H   0  0  0  0  0  0  0  0  0  0  0  0
   -1.8019   26.7951  -28.2289 H   0  0  0  0  0  0  0  0  0  0  0  0
   -1.2378   23.7552  -25.8281 H   0  0  0  0  0  0  0  0  0  0  0  0
   -1.4985   22.6517  -27.2213 H   0  0  0  0  0  0  0  0  0  0  0  0
   -0.1044   23.7845  -27.2213 H   0  0  0  0  0  0  0  0  0  0  0  0
   -5.7570   20.1451  -32.1095 H   0  0  0  0  0  0  0  0  0  0  0  0
  1  2  1  0
  2  3  2  0
  3  4  1  0
  4  5  2  0
  5  6  1  0
  6  7  2  0
  7  8  1  0
  8  9  1  0
  8 10  2  0
  7 11  1  0
 11 12  1  0
 12 13  2  0
 12 14  1  0
 14 15  1  0
 15 16  1  0
 16 17  1  0
 17 18  1  0
 18 19  1  0
 18 20  1  0
 18 21  1  0
 21 22  1  0
 21 23  1  0
 21 24  1  0
 15 25  1  0
 25 26  1  0
 14 27  1  0
 27 28  1  0
 27 29  1  0
 27 30  1  0
 30 31  2  0
 30 32  1  0
 32 33  1  0
 33 34  1  0
 33 35  1  0
 33 36  1  0
 11 37  1  0
 37 38  2  0
 38  2  1  0
 37  5  1  0
 26 15  1  0
  1 39  1  0
  1 40  1  0
  1 41  1  0
  3 42  1  0
  4 43  1  0
  6 44  1  0
  9 45  1  0
 14 46  1  1
 16 47  1  0
 16 48  1  0
 19 49  1  0
 19 50  1  0
 19 51  1  0
 20 52  1  0
 20 53  1  0
 20 54  1  0
 22 55  1  0
 22 56  1  0
 22 57  1  0
 23 58  1  0
 23 59  1  0
 23 60  1  0
 24 61  1  0
 24 62  1  0
 24 63  1  0
 25 64  1  0
 25 65  1  0
 26 66  1  0
 26 67  1  0
 28 68  1  0
 28 69  1  0
 28 70  1  0
 29 71  1  0
 29 72  1  0
 29 73  1  0
 34 74  1  0
 34 75  1  0
 34 76  1  0
 35 77  1  0
 35 78  1  0
 35 79  1  0
 36 80  1  0
 36 81  1  0
 36 82  1  0
 38 83  1  0
M  CHG  2   9  -1  14   1
M  END
>  <UniqueID>  (55) 
54

>  <SMILES>  (55) 
Cc1ccc2cc(C([NH-])=O)n(C(=O)[N@@H+](C3(CO[Si](C)(C)C(C)(C)C)CC3)C(C)(C)C(=O)OC(C)(C)C)c2c1

>  <Energy>  (55) 
397.0766428498102

>  <Genealogy>  (55) 
Cc1ccc2cc(C([NH-])=O)n(C(=O)[NH+](C3(CO[Si](C)(C)C(C)(C)C)CC3)C(C)(C)C(=O)OC(C)(C)C)c2c1 (protonated)
Cc1ccc2cc(C([NH-])=O)n(C(=O)[N@@H+](C3(CO[Si](C)(C)C(C)(C)C)CC3)C(C)(C)C(=O)OC(C)(C)C)c2c1 (chirality)
Cc1ccc2cc(C([NH-])=O)n(C(=O)[N@@H+](C3(CO[Si](C)(C)C(C)(C)C)CC3)C(C)(C)C(=O)OC(C)(C)C)c2c1 (3D coordinates assigned)
Cc1ccc2cc(C([NH-])=O)n(C(=O)[N@@H+](C3(CO[Si](C)(C)C(C)(C)C)CC3)C(C)(C)C(=O)OC(C)(C)C)c2c1 (nonaromatic ring conformer: 397.0766428498102 kcal/mol)

>  <smiles>  (55) 
Cc1ccc2cc(C(N)=O)n(C(=O)N(C3(CO[Si](C)(C)C(C)(C)C)CC3)C(C)(C)C(=O)OC(C)(C)C)c2c1

>  <score_type>  (55) 
oracle

>  <origin>  (55) 
adg

>  <m_score__min__energy>  (55) 
-11.77

>  <m_primary>  (55) 
energy

$$$$
56:0
     RDKit          3D

 44 45  0  0  0  0  0  0  0  0999 V2000
   -3.0000   19.0760  -26.6800 C   0  0  0  0  0  0  0  0  0  0  0  0
   -1.8200   19.8720  -27.2240 C   0  0  0  0  0  0  0  0  0  0  0  0
   -2.2670   20.8810  -28.1300 O   0  0  0  0  0  0  0  0  0  0  0  0
   -1.6400   21.1510  -29.3520 C   0  0  0  0  0  0  0  0  0  0  0  0
   -1.0990   20.2230  -30.0140 O   0  0  0  0  0  0  0  0  0  0  0  0
   -1.6460   22.5550  -29.8870 C   0  0  1  0  0  0  0  0  0  0  0  0
   -3.0250   22.9740  -30.1650 N   0  0  0  0  0  0  0  0  0  0  0  0
   -3.7930   22.4490  -31.2600 C   0  0  0  0  0  0  0  0  0  0  0  0
   -3.2490   21.7050  -32.1210 O   0  0  0  0  0  0  0  0  0  0  0  0
   -5.1980   22.7290  -31.3540 N   0  0  0  0  0  0  0  0  0  0  0  0
   -5.8550   23.8630  -30.9750 C   0  0  0  0  0  0  0  0  0  0  0  0
   -5.2230   25.1280  -30.5470 C   0  0  0  0  0  0  0  0  0  0  0  0
   -3.8610   25.4090  -30.8560 N   0  0  0  0  0  0  0  0  0  0  0  0
   -5.9070   25.9920  -29.9370 O   0  0  0  0  0  0  0  0  0  0  0  0
   -7.2310   23.7030  -31.1290 C   0  0  0  0  0  0  0  0  0  0  0  0
   -7.3970   22.4300  -31.6240 C   0  0  0  0  0  0  0  0  0  0  0  0
   -8.5610   21.7430  -31.9620 C   0  0  0  0  0  0  0  0  0  0  0  0
   -8.4340   20.4260  -32.4390 C   0  0  0  0  0  0  0  0  0  0  0  0
   -7.1570   19.8230  -32.5610 C   0  0  0  0  0  0  0  0  0  0  0  0
   -7.0250   18.4180  -33.0790 C   0  0  0  0  0  0  0  0  0  0  0  0
   -6.5550   17.5890  -32.0760 F   0  0  0  0  0  0  0  0  0  0  0  0
   -6.1410   18.3950  -34.1400 F   0  0  0  0  0  0  0  0  0  0  0  0
   -5.9990   20.5530  -32.2130 C   0  0  0  0  0  0  0  0  0  0  0  0
   -6.1550   21.8640  -31.7530 C   0  0  0  0  0  0  0  0  0  0  0  0
   -0.9410   23.5260  -28.9060 C   0  0  2  0  0  0  0  0  0  0  0  0
   -0.6930   22.9120  -27.6620 O   0  0  0  0  0  0  0  0  0  0  0  0
   -1.6980   24.8240  -28.7390 C   0  0  0  0  0  0  0  0  0  0  0  0
   -2.7160   24.8740  -27.9990 O   0  0  0  0  0  0  0  0  0  0  0  0
   -1.2330   25.9930  -29.3290 O   0  0  0  0  0  0  0  0  0  0  0  0
   -2.9770   19.0915  -25.5804 H   0  0  0  0  0  0  0  0  0  0  0  0
   -3.9397   19.5255  -27.0335 H   0  0  0  0  0  0  0  0  0  0  0  0
   -2.9351   18.0364  -27.0335 H   0  0  0  0  0  0  0  0  0  0  0  0
   -1.2888   20.3481  -26.3867 H   0  0  0  0  0  0  0  0  0  0  0  0
   -1.1484   19.1864  -27.7614 H   0  0  0  0  0  0  0  0  0  0  0  0
   -1.0795   22.5815  -30.8295 H   0  0  0  0  0  0  0  0  0  0  0  0
   -3.5360   23.5290  -29.4410 H   0  0  0  0  0  0  0  0  0  0  0  0
   -3.1120   25.2960  -30.1350 H   0  0  0  0  0  0  0  0  0  0  0  0
   -8.0173   24.4383  -30.9028 H   0  0  0  0  0  0  0  0  0  0  0  0
   -9.5488   22.2160  -31.8590 H   0  0  0  0  0  0  0  0  0  0  0  0
   -9.3337   19.8589  -32.7199 H   0  0  0  0  0  0  0  0  0  0  0  0
   -8.0121   18.0652  -33.4125 H   0  0  0  0  0  0  0  0  0  0  0  0
   -4.9998   20.1015  -32.3016 H   0  0  0  0  0  0  0  0  0  0  0  0
    0.0306   23.7798  -29.3550 H   0  0  0  0  0  0  0  0  0  0  0  0
   -1.5680   22.7360  -27.2260 H   0  0  0  0  0  0  0  0  0  0  0  0
  1  2  1  0
  2  3  1  0
  3  4  1  0
  4  5  2  0
  4  6  1  0
  6  7  1  0
  7  8  1  0
  8  9  2  0
  8 10  1  0
 10 11  1  0
 11 12  1  0
 12 13  1  0
 12 14  2  0
 11 15  2  0
 15 16  1  0
 16 17  2  0
 17 18  1  0
 18 19  2  0
 19 20  1  0
 20 21  1  0
 20 22  1  0
 19 23  1  0
 23 24  2  0
  6 25  1  0
 25 26  1  0
 25 27  1  0
 27 28  2  0
 27 29  1  0
 24 10  1  0
 24 16  1  0
  1 30  1  0
  1 31  1  0
  1 32  1  0
  2 33  1  0
  2 34  1  0
  6 35  1  6
  7 36  1  0
 13 37  1  0
 15 38  1  0
 17 39  1  0
 18 40  1  0
 20 41  1  0
 23 42  1  0
 25 43  1  6
 26 44  1  0
M  CHG  2  13  -1  29  -1
M  END
>  <UniqueID>  (56) 
55

>  <SMILES>  (56) 
CCOC(=O)[C@@H](NC(=O)n1c(C([NH-])=O)cc2ccc(C(F)F)cc21)[C@H](O)C(=O)[O-]

>  <Energy>  (56) 
78.06996128462322

>  <Genealogy>  (56) 
CCOC(=O)C(NC(=O)n1c(C([NH-])=O)cc2ccc(C(F)F)cc21)C(O)C(=O)[O-] (protonated)
CCOC(=O)[C@@H](NC(=O)n1c(C([NH-])=O)cc2ccc(C(F)F)cc21)[C@H](O)C(=O)[O-] (chirality)
CCOC(=O)[C@@H](NC(=O)n1c(C([NH-])=O)cc2ccc(C(F)F)cc21)[C@H](O)C(=O)[O-] (3D coordinates assigned)
CCOC(=O)[C@@H](NC(=O)n1c(C([NH-])=O)cc2ccc(C(F)F)cc21)[C@H](O)C(=O)[O-] (optimized conformer: 78.06996128462322 kcal/mol)

>  <smiles>  (56) 
CCOC(=O)C(NC(=O)n1c(C(N)=O)cc2ccc(C(F)F)cc21)C(O)C(=O)O

>  <score_type>  (56) 
oracle

>  <origin>  (56) 
adg

>  <m_score__min__energy>  (56) 
-11.92

>  <m_primary>  (56) 
energy

$$$$
57:0
     RDKit          3D

 38 39  0  0  0  0  0  0  0  0999 V2000
   -7.2230   17.2620  -32.9920 C   0  0  0  0  0  0  0  0  0  0  0  0
   -7.4670   18.6280  -32.4230 C   0  0  0  0  0  0  0  0  0  0  0  0
   -8.7760   19.0200  -32.0510 C   0  0  0  0  0  0  0  0  0  0  0  0
   -9.0230   20.3130  -31.5580 C   0  0  0  0  0  0  0  0  0  0  0  0
   -7.9470   21.1910  -31.4600 C   0  0  0  0  0  0  0  0  0  0  0  0
   -7.9030   22.4990  -31.0340 C   0  0  0  0  0  0  0  0  0  0  0  0
   -6.5690   22.8850  -31.1580 C   0  0  0  0  0  0  0  0  0  0  0  0
   -6.0350   24.1910  -30.7120 C   0  0  0  0  0  0  0  0  0  0  0  0
   -5.5790   24.3760  -29.3700 N   0  0  0  0  0  0  0  0  0  0  0  0
   -5.9560   25.1510  -31.5230 O   0  0  0  0  0  0  0  0  0  0  0  0
   -5.8220   21.8560  -31.6490 N   0  0  0  0  0  0  0  0  0  0  0  0
   -4.4240   21.8580  -31.9790 C   0  0  0  0  0  0  0  0  0  0  0  0
   -3.9850   21.0480  -32.8390 O   0  0  0  0  0  0  0  0  0  0  0  0
   -3.4930   22.8730  -31.3790 C   0  0  0  0  0  0  0  0  0  0  0  0
   -2.5720   22.2290  -30.3290 C   0  0  1  0  0  0  0  0  0  0  0  0
   -1.8150   21.2080  -30.9290 O   0  0  0  0  0  0  0  0  0  0  0  0
   -1.6250   23.2830  -29.7390 C   0  0  0  0  0  0  0  0  0  0  0  0
   -2.5200   24.8010  -29.2750 P   0  0  0  0  0  0  0  0  0  0  0  0
   -3.3860   24.5190  -28.0690 O   0  0  0  0  0  0  0  0  0  0  0  0
   -3.4990   25.3100  -30.5580 O   0  0  0  0  0  0  0  0  0  0  0  0
   -1.4130   26.0210  -28.8940 O   0  0  0  0  0  0  0  0  0  0  0  0
   -6.6760   20.8260  -31.8220 C   0  0  0  0  0  0  0  0  0  0  0  0
   -6.4010   19.5500  -32.3210 C   0  0  0  0  0  0  0  0  0  0  0  0
   -7.0942   16.5407  -32.1716 H   0  0  0  0  0  0  0  0  0  0  0  0
   -8.0821   16.9638  -33.6109 H   0  0  0  0  0  0  0  0  0  0  0  0
   -6.3138   17.2796  -33.6109 H   0  0  0  0  0  0  0  0  0  0  0  0
   -9.6071   18.3061  -32.1487 H   0  0  0  0  0  0  0  0  0  0  0  0
  -10.0355   20.6217  -31.2588 H   0  0  0  0  0  0  0  0  0  0  0  0
   -8.7427   23.1105  -30.6722 H   0  0  0  0  0  0  0  0  0  0  0  0
   -5.6840   23.6280  -28.6510 H   0  0  0  0  0  0  0  0  0  0  0  0
   -5.1700   25.2920  -29.0790 H   0  0  0  0  0  0  0  0  0  0  0  0
   -2.8760   23.3106  -32.1777 H   0  0  0  0  0  0  0  0  0  0  0  0
   -4.0953   23.6498  -30.8852 H   0  0  0  0  0  0  0  0  0  0  0  0
   -3.1908   21.8078  -29.5230 H   0  0  0  0  0  0  0  0  0  0  0  0
   -2.0660   21.1830  -31.8890 H   0  0  0  0  0  0  0  0  0  0  0  0
   -1.1399   22.8665  -28.8439 H   0  0  0  0  0  0  0  0  0  0  0  0
   -0.8787   23.5429  -30.5041 H   0  0  0  0  0  0  0  0  0  0  0  0
   -5.3818   19.2707  -32.6263 H   0  0  0  0  0  0  0  0  0  0  0  0
  1  2  1  0
  2  3  2  0
  3  4  1  0
  4  5  2  0
  5  6  1  0
  6  7  2  0
  7  8  1  0
  8  9  1  0
  8 10  2  0
  7 11  1  0
 11 12  1  0
 12 13  2  0
 12 14  1  0
 14 15  1  0
 15 16  1  0
 15 17  1  0
 17 18  1  0
 18 19  2  0
 18 20  1  0
 18 21  1  0
 11 22  1  0
 22 23  2  0
 23  2  1  0
 22  5  1  0
  1 24  1  0
  1 25  1  0
  1 26  1  0
  3 27  1  0
  4 28  1  0
  6 29  1  0
  9 30  1  0
  9 31  1  0
 14 32  1  0
 14 33  1  0
 15 34  1  1
 16 35  1  0
 17 36  1  0
 17 37  1  0
 23 38  1  0
M  CHG  2  20  -1  21  -1
M  END
>  <UniqueID>  (57) 
56

>  <SMILES>  (57) 
Cc1ccc2cc(C(N)=O)n(C(=O)C[C@@H](O)CP(=O)([O-])[O-])c2c1

>  <Energy>  (57) 
68.58242368183623

>  <Genealogy>  (57) 
Cc1ccc2cc(C(N)=O)n(C(=O)CC(O)CP(=O)([O-])[O-])c2c1 (protonated)
Cc1ccc2cc(C(N)=O)n(C(=O)C[C@@H](O)CP(=O)([O-])[O-])c2c1 (chirality)
Cc1ccc2cc(C(N)=O)n(C(=O)C[C@@H](O)CP(=O)([O-])[O-])c2c1 (3D coordinates assigned)
Cc1ccc2cc(C(N)=O)n(C(=O)C[C@@H](O)CP(=O)([O-])[O-])c2c1 (optimized conformer: 68.58242368183623 kcal/mol)

>  <smiles>  (57) 
Cc1ccc2cc(C(N)=O)n(C(=O)CC(O)CP(=O)(O)O)c2c1

>  <score_type>  (57) 
oracle

>  <origin>  (57) 
adg

>  <m_score__min__energy>  (57) 
-12.9

>  <m_primary>  (57) 
energy

$$$$
58:0
     RDKit          3D

 37 38  0  0  0  0  0  0  0  0999 V2000
   -6.9270   18.4770  -32.8970 C   0  0  0  0  0  0  0  0  0  0  0  0
   -7.0680   19.9040  -32.4610 C   0  0  0  0  0  0  0  0  0  0  0  0
   -8.3550   20.4860  -32.3430 C   0  0  0  0  0  0  0  0  0  0  0  0
   -8.5040   21.8080  -31.8880 C   0  0  0  0  0  0  0  0  0  0  0  0
   -7.3530   22.5170  -31.5600 C   0  0  0  0  0  0  0  0  0  0  0  0
   -7.2090   23.7940  -31.0650 C   0  0  0  0  0  0  0  0  0  0  0  0
   -5.8360   23.9720  -30.8940 C   0  0  0  0  0  0  0  0  0  0  0  0
   -5.2270   25.2320  -30.4180 C   0  0  0  0  0  0  0  0  0  0  0  0
   -3.9220   25.6220  -30.8390 N   0  0  0  0  0  0  0  0  0  0  0  0
   -5.8790   25.9900  -29.6510 O   0  0  0  0  0  0  0  0  0  0  0  0
   -5.1610   22.8500  -31.2700 N   0  0  0  0  0  0  0  0  0  0  0  0
   -3.7500   22.6010  -31.1770 C   0  0  0  0  0  0  0  0  0  0  0  0
   -3.0690   22.4680  -32.2300 O   0  0  0  0  0  0  0  0  0  0  0  0
   -3.0870   22.5040  -29.8700 C   0  0  0  0  0  0  0  0  0  0  0  0
   -3.2110   21.4570  -29.1780 O   0  0  0  0  0  0  0  0  0  0  0  0
   -2.3100   23.5730  -29.4120 O   0  0  0  0  0  0  0  0  0  0  0  0
   -2.3120   24.0270  -28.0570 C   0  0  2  0  0  0  0  0  0  0  0  0
   -3.7520   24.2400  -27.5770 C   0  0  0  0  0  0  0  0  0  0  0  0
   -1.5200   25.3310  -27.9640 C   0  0  0  0  0  0  0  0  0  0  0  0
   -1.2440   25.8060  -29.2530 O   0  0  0  0  0  0  0  0  0  0  0  0
   -6.1020   21.9680  -31.6710 C   0  0  0  0  0  0  0  0  0  0  0  0
   -5.9240   20.6490  -32.1000 C   0  0  0  0  0  0  0  0  0  0  0  0
   -6.8628   17.8277  -32.0114 H   0  0  0  0  0  0  0  0  0  0  0  0
   -7.8011   18.1897  -33.4998 H   0  0  0  0  0  0  0  0  0  0  0  0
   -6.0135   18.3663  -33.4998 H   0  0  0  0  0  0  0  0  0  0  0  0
   -9.2455   19.8980  -32.6099 H   0  0  0  0  0  0  0  0  0  0  0  0
   -9.4992   22.2671  -31.7944 H   0  0  0  0  0  0  0  0  0  0  0  0
   -8.0072   24.5197  -30.8501 H   0  0  0  0  0  0  0  0  0  0  0  0
   -3.0710   25.2760  -30.3400 H   0  0  0  0  0  0  0  0  0  0  0  0
   -1.8408   23.2702  -27.4126 H   0  0  0  0  0  0  0  0  0  0  0  0
   -3.7752   24.2434  -26.4772 H   0  0  0  0  0  0  0  0  0  0  0  0
   -4.1257   25.2032  -27.9546 H   0  0  0  0  0  0  0  0  0  0  0  0
   -4.3885   23.4262  -27.9546 H   0  0  0  0  0  0  0  0  0  0  0  0
   -2.1109   26.0800  -27.4165 H   0  0  0  0  0  0  0  0  0  0  0  0
   -0.5748   25.1473  -27.4321 H   0  0  0  0  0  0  0  0  0  0  0  0
   -2.0740   25.6690  -29.7800 H   0  0  0  0  0  0  0  0  0  0  0  0
   -4.9197   20.2037  -32.1548 H   0  0  0  0  0  0  0  0  0  0  0  0
  1  2  1  0
  2  3  2  0
  3  4  1  0
  4  5  2  0
  5  6  1  0
  6  7  2  0
  7  8  1  0
  8  9  1  0
  8 10  2  0
  7 11  1  0
 11 12  1  0
 12 13  2  0
 12 14  1  0
 14 15  2  0
 14 16  1  0
 16 17  1  0
 17 18  1  0
 17 19  1  0
 19 20  1  0
 11 21  1  0
 21 22  2  0
 22  2  1  0
 21  5  1  0
  1 23  1  0
  1 24  1  0
  1 25  1  0
  3 26  1  0
  4 27  1  0
  6 28  1  0
  9 29  1  0
 17 30  1  1
 18 31  1  0
 18 32  1  0
 18 33  1  0
 19 34  1  0
 19 35  1  0
 20 36  1  0
 22 37  1  0
M  CHG  1   9  -1
M  END
>  <UniqueID>  (58) 
57

>  <SMILES>  (58) 
Cc1ccc2cc(C([NH-])=O)n(C(=O)C(=O)O[C@H](C)CO)c2c1

>  <Energy>  (58) 
69.28955871287438

>  <Genealogy>  (58) 
Cc1ccc2cc(C([NH-])=O)n(C(=O)C(=O)OC(C)CO)c2c1 (protonated)
Cc1ccc2cc(C([NH-])=O)n(C(=O)C(=O)O[C@H](C)CO)c2c1 (chirality)
Cc1ccc2cc(C([NH-])=O)n(C(=O)C(=O)O[C@H](C)CO)c2c1 (3D coordinates assigned)
Cc1ccc2cc(C([NH-])=O)n(C(=O)C(=O)O[C@H](C)CO)c2c1 (optimized conformer: 69.28955871287438 kcal/mol)

>  <smiles>  (58) 
Cc1ccc2cc(C(N)=O)n(C(=O)C(=O)OC(C)CO)c2c1

>  <score_type>  (58) 
oracle

>  <origin>  (58) 
adg

>  <m_score__min__energy>  (58) 
-10.56

>  <m_primary>  (58) 
energy

$$$$
59:0
     RDKit          3D

 37 39  0  0  0  0  0  0  0  0999 V2000
   -4.3490   25.8910  -30.5360 N   0  0  0  0  0  0  0  0  0  0  0  0
   -5.6680   25.3280  -30.3540 C   0  0  0  0  0  0  0  0  0  0  0  0
   -6.4580   26.0570  -29.7110 O   0  0  0  0  0  0  0  0  0  0  0  0
   -5.9740   24.0230  -30.8990 C   0  0  0  0  0  0  0  0  0  0  0  0
   -7.2960   23.5770  -31.0420 C   0  0  0  0  0  0  0  0  0  0  0  0
   -7.2920   22.3140  -31.5820 C   0  0  0  0  0  0  0  0  0  0  0  0
   -8.3170   21.4520  -31.9130 C   0  0  0  0  0  0  0  0  0  0  0  0
   -8.0370   20.2150  -32.4500 C   0  0  0  0  0  0  0  0  0  0  0  0
   -6.7230   19.8720  -32.6430 C   0  0  0  0  0  0  0  0  0  0  0  0
   -6.4550   18.5540  -33.2170 C   0  0  0  0  0  0  0  0  0  0  0  0
   -6.9000   17.3170  -32.7930 C   0  0  0  0  0  0  0  0  0  0  0  0
   -6.4020   16.3760  -33.6280 N   0  0  0  0  0  0  0  0  0  0  0  0
   -5.6630   16.9520  -34.5650 N   0  0  0  0  0  0  0  0  0  0  0  0
   -5.6780   18.2910  -34.3360 C   0  0  0  0  0  0  0  0  0  0  0  0
   -5.7040   20.7520  -32.3040 C   0  0  0  0  0  0  0  0  0  0  0  0
   -5.9560   22.0000  -31.7620 C   0  0  0  0  0  0  0  0  0  0  0  0
   -5.1950   23.0400  -31.3450 N   0  0  0  0  0  0  0  0  0  0  0  0
   -3.7890   23.0290  -31.4000 C   0  0  0  0  0  0  0  0  0  0  0  0
   -3.2290   22.2620  -32.2470 O   0  0  0  0  0  0  0  0  0  0  0  0
   -2.9330   23.7740  -30.6190 O   0  0  0  0  0  0  0  0  0  0  0  0
   -2.3740   23.2190  -29.4580 C   0  0  0  0  0  0  0  0  0  0  0  0
   -1.6560   24.2780  -28.6610 C   0  0  0  0  0  0  0  0  0  0  0  0
   -2.0350   25.5520  -29.0370 O   0  0  0  0  0  0  0  0  0  0  0  0
   -3.8710   26.4250  -29.7790 H   0  0  0  0  0  0  0  0  0  0  0  0
   -3.9260   25.7170  -31.4780 H   0  0  0  0  0  0  0  0  0  0  0  0
   -8.1943   24.1484  -30.7654 H   0  0  0  0  0  0  0  0  0  0  0  0
   -9.3618   21.7538  -31.7474 H   0  0  0  0  0  0  0  0  0  0  0  0
   -8.8465   19.5198  -32.7173 H   0  0  0  0  0  0  0  0  0  0  0  0
   -7.5486   17.1290  -31.9247 H   0  0  0  0  0  0  0  0  0  0  0  0
   -5.1570   16.4610  -35.3430 H   0  0  0  0  0  0  0  0  0  0  0  0
   -5.1567   19.0469  -34.9417 H   0  0  0  0  0  0  0  0  0  0  0  0
   -4.6607   20.4467  -32.4720 H   0  0  0  0  0  0  0  0  0  0  0  0
   -3.1751   22.7835  -28.8427 H   0  0  0  0  0  0  0  0  0  0  0  0
   -1.6528   22.4403  -29.7469 H   0  0  0  0  0  0  0  0  0  0  0  0
   -1.8874   24.1384  -27.5947 H   0  0  0  0  0  0  0  0  0  0  0  0
   -0.5774   24.1738  -28.8500 H   0  0  0  0  0  0  0  0  0  0  0  0
   -2.0400   25.6710  -30.0370 H   0  0  0  0  0  0  0  0  0  0  0  0
  1  2  1  0
  2  3  2  0
  2  4  1  0
  4  5  2  0
  5  6  1  0
  6  7  2  0
  7  8  1  0
  8  9  2  0
  9 10  1  0
 10 11  1  0
 11 12  2  0
 12 13  1  0
 13 14  1  0
  9 15  1  0
 15 16  2  0
 16 17  1  0
 17 18  1  0
 18 19  2  0
 18 20  1  0
 20 21  1  0
 21 22  1  0
 22 23  1  0
 17  4  1  0
 16  6  1  0
 14 10  2  0
  1 24  1  0
  1 25  1  0
  5 26  1  0
  7 27  1  0
  8 28  1  0
 11 29  1  0
 13 30  1  0
 14 31  1  0
 15 32  1  0
 21 33  1  0
 21 34  1  0
 22 35  1  0
 22 36  1  0
 23 37  1  0
M  END
>  <smiles>  (59) 
NC(=O)c1cc2ccc(-c3cn[nH]c3)cc2n1C(=O)OCCO

>  <score_type>  (59) 
oracle

>  <origin>  (59) 
adg

>  <m_score__min__energy>  (59) 
-9.3800000000000008

>  <m_primary>  (59) 
energy

$$$$
60:0
     RDKit          3D

 38 39  0  0  0  0  0  0  0  0999 V2000
   -7.5700   20.0510  -33.4960 N   0  0  0  0  0  0  0  0  0  0  0  0
   -6.2480   19.7010  -33.9150 C   0  0  0  0  0  0  0  0  0  0  0  0
   -6.1090   18.9500  -34.9160 O   0  0  0  0  0  0  0  0  0  0  0  0
   -5.0520   20.2030  -33.1910 C   0  0  0  0  0  0  0  0  0  0  0  0
   -3.7720   19.6520  -33.2790 C   0  0  0  0  0  0  0  0  0  0  0  0
   -2.9790   20.4360  -32.4700 C   0  0  0  0  0  0  0  0  0  0  0  0
   -1.6160   20.3570  -32.1970 C   0  0  0  0  0  0  0  0  0  0  0  0
   -1.0610   21.3200  -31.3350 C   0  0  0  0  0  0  0  0  0  0  0  0
   -1.8760   22.3250  -30.7550 C   0  0  0  0  0  0  0  0  0  0  0  0
   -1.2650   23.3810  -29.8790 C   0  0  0  0  0  0  0  0  0  0  0  0
   -2.5170   24.6210  -29.4270 P   0  0  0  0  0  0  0  0  0  0  0  0
   -3.3810   24.0860  -28.3080 O   0  0  0  0  0  0  0  0  0  0  0  0
   -3.4870   24.9570  -30.7700 O   0  0  0  0  0  0  0  0  0  0  0  0
   -1.7540   26.0420  -28.9190 O   0  0  0  0  0  0  0  0  0  0  0  0
   -3.2540   22.3720  -31.0560 C   0  0  0  0  0  0  0  0  0  0  0  0
   -3.7730   21.4100  -31.9250 C   0  0  0  0  0  0  0  0  0  0  0  0
   -5.0400   21.2830  -32.3620 N   0  0  0  0  0  0  0  0  0  0  0  0
   -6.1440   22.1350  -32.0220 C   0  0  0  0  0  0  0  0  0  0  0  0
   -6.8830   22.5770  -32.9420 O   0  0  0  0  0  0  0  0  0  0  0  0
   -6.4300   22.5340  -30.5940 C   0  0  1  0  0  0  0  0  0  0  0  0
   -5.8370   23.8500  -30.3350 N   0  0  0  0  0  0  0  0  0  0  0  0
   -7.9410   22.5120  -30.2600 C   0  0  0  0  0  0  0  0  0  0  0  0
   -8.6710   21.4910  -31.0780 C   0  0  0  0  0  0  0  0  0  0  0  0
   -9.4500   21.8560  -31.9980 O   0  0  0  0  0  0  0  0  0  0  0  0
   -8.4530   20.1370  -30.8570 O   0  0  0  0  0  0  0  0  0  0  0  0
   -7.7470   20.6490  -32.6610 H   0  0  0  0  0  0  0  0  0  0  0  0
   -8.3940   19.6870  -34.0230 H   0  0  0  0  0  0  0  0  0  0  0  0
   -3.4623   18.7770  -33.8694 H   0  0  0  0  0  0  0  0  0  0  0  0
   -0.9931   19.5667  -32.6413 H   0  0  0  0  0  0  0  0  0  0  0  0
    0.0151   21.2932  -31.1087 H   0  0  0  0  0  0  0  0  0  0  0  0
   -0.8710   22.9122  -28.9652 H   0  0  0  0  0  0  0  0  0  0  0  0
   -0.4501   23.8761  -30.4275 H   0  0  0  0  0  0  0  0  0  0  0  0
   -3.9018   23.1456  -30.6179 H   0  0  0  0  0  0  0  0  0  0  0  0
   -5.9696   21.7892  -29.9282 H   0  0  0  0  0  0  0  0  0  0  0  0
   -5.5050   24.2580  -31.2390 H   0  0  0  0  0  0  0  0  0  0  0  0
   -5.0030   23.7470  -29.7100 H   0  0  0  0  0  0  0  0  0  0  0  0
   -8.0676   22.2724  -29.1939 H   0  0  0  0  0  0  0  0  0  0  0  0
   -8.3595   23.5025  -30.4921 H   0  0  0  0  0  0  0  0  0  0  0  0
  1  2  1  0
  2  3  2  0
  2  4  1  0
  4  5  2  0
  5  6  1  0
  6  7  2  0
  7  8  1  0
  8  9  2  0
  9 10  1  0
 10 11  1  0
 11 12  2  0
 11 13  1  0
 11 14  1  0
  9 15  1  0
 15 16  2  0
 16 17  1  0
 17 18  1  0
 18 19  2  0
 18 20  1  0
 20 21  1  0
 20 22  1  0
 22 23  1  0
 23 24  2  0
 23 25  1  0
 17  4  1  0
 16  6  1  0
  1 26  1  0
  1 27  1  0
  5 28  1  0
  7 29  1  0
  8 30  1  0
 10 31  1  0
 10 32  1  0
 15 33  1  0
 20 34  1  1
 21 35  1  0
 21 36  1  0
 22 37  1  0
 22 38  1  0
M  CHG  3  13  -1  14  -1  25  -1
M  END
>  <UniqueID>  (60) 
58

>  <SMILES>  (60) 
NC(=O)c1cc2ccc(CP(=O)([O-])[O-])cc2n1C(=O)[C@@H](N)CC(=O)[O-]

>  <Energy>  (60) 
70.97497886806146

>  <Genealogy>  (60) 
NC(=O)c1cc2ccc(CP(=O)([O-])[O-])cc2n1C(=O)[C@@H](N)CC(=O)[O-] (protonated)
NC(=O)c1cc2ccc(CP(=O)([O-])[O-])cc2n1C(=O)[C@@H](N)CC(=O)[O-] (3D coordinates assigned)
NC(=O)c1cc2ccc(CP(=O)([O-])[O-])cc2n1C(=O)[C@@H](N)CC(=O)[O-] (optimized conformer: 70.97497886806146 kcal/mol)

>  <smiles>  (60) 
NC(=O)c1cc2ccc(CP(=O)(O)O)cc2n1C(=O)[C@@H](N)CC(=O)O

>  <score_type>  (60) 
oracle

>  <origin>  (60) 
adg

>  <m_score__min__energy>  (60) 
-12.1

>  <m_primary>  (60) 
energy

$$$$
61:0
     RDKit          3D

 35 36  0  0  0  0  0  0  0  0999 V2000
   -3.9850   25.6520  -30.7820 N   0  0  0  0  0  0  0  0  0  0  0  0
   -5.2420   25.1430  -30.3450 C   0  0  0  0  0  0  0  0  0  0  0  0
   -5.9420   25.8270  -29.5530 O   0  0  0  0  0  0  0  0  0  0  0  0
   -5.7260   23.8420  -30.8520 C   0  0  0  0  0  0  0  0  0  0  0  0
   -7.0310   23.6260  -31.2930 C   0  0  0  0  0  0  0  0  0  0  0  0
   -7.0930   22.2860  -31.6040 C   0  0  0  0  0  0  0  0  0  0  0  0
   -8.1540   21.5290  -32.0890 C   0  0  0  0  0  0  0  0  0  0  0  0
   -7.9290   20.1650  -32.3430 C   0  0  0  0  0  0  0  0  0  0  0  0
   -6.6490   19.5900  -32.1340 C   0  0  0  0  0  0  0  0  0  0  0  0
   -6.4300   18.1180  -32.3750 C   0  0  0  0  0  0  0  0  0  0  0  0
   -5.7770   17.5710  -31.2860 F   0  0  0  0  0  0  0  0  0  0  0  0
   -7.6370   17.4660  -32.5510 F   0  0  0  0  0  0  0  0  0  0  0  0
   -5.6610   17.9170  -33.5090 F   0  0  0  0  0  0  0  0  0  0  0  0
   -5.6020   20.3890  -31.6160 C   0  0  0  0  0  0  0  0  0  0  0  0
   -5.8610   21.7400  -31.3540 C   0  0  0  0  0  0  0  0  0  0  0  0
   -5.0100   22.6820  -30.8920 N   0  0  0  0  0  0  0  0  0  0  0  0
   -3.6240   22.4910  -30.5750 C   0  0  0  0  0  0  0  0  0  0  0  0
   -2.7340   23.0100  -31.3030 O   0  0  0  0  0  0  0  0  0  0  0  0
   -3.2530   21.7000  -29.4410 N   0  0  0  0  0  0  0  0  0  0  0  0
   -2.7720   22.2640  -28.1850 C   0  0  0  0  0  0  0  0  0  0  0  0
   -1.2790   22.5810  -28.2830 C   0  0  0  0  0  0  0  0  0  0  0  0
   -1.0710   23.9850  -28.7660 C   0  0  0  0  0  0  0  0  0  0  0  0
   -2.1370   24.6960  -29.3940 N   0  0  0  0  0  0  0  0  0  0  0  0
    0.0380   24.5530  -28.5830 O   0  0  0  0  0  0  0  0  0  0  0  0
   -3.1900   25.0080  -30.9920 H   0  0  0  0  0  0  0  0  0  0  0  0
   -7.8389   24.3680  -31.3750 H   0  0  0  0  0  0  0  0  0  0  0  0
   -9.1394   21.9839  -32.2684 H   0  0  0  0  0  0  0  0  0  0  0  0
   -8.7546   19.5363  -32.7079 H   0  0  0  0  0  0  0  0  0  0  0  0
   -4.6080   19.9588  -31.4237 H   0  0  0  0  0  0  0  0  0  0  0  0
   -3.3259   23.1890  -27.9669 H   0  0  0  0  0  0  0  0  0  0  0  0
   -2.9302   21.5314  -27.3799 H   0  0  0  0  0  0  0  0  0  0  0  0
   -0.8190   22.4678  -27.2903 H   0  0  0  0  0  0  0  0  0  0  0  0
   -0.8139   21.8862  -28.9979 H   0  0  0  0  0  0  0  0  0  0  0  0
   -3.0690   24.2470  -29.5310 H   0  0  0  0  0  0  0  0  0  0  0  0
   -1.9960   25.6790  -29.7180 H   0  0  0  0  0  0  0  0  0  0  0  0
  1  2  1  0
  2  3  2  0
  2  4  1  0
  4  5  2  0
  5  6  1  0
  6  7  2  0
  7  8  1  0
  8  9  2  0
  9 10  1  0
 10 11  1  0
 10 12  1  0
 10 13  1  0
  9 14  1  0
 14 15  2  0
 15 16  1  0
 16 17  1  0
 17 18  2  0
 17 19  1  0
 19 20  1  0
 20 21  1  0
 21 22  1  0
 22 23  1  0
 22 24  2  0
 16  4  1  0
 15  6  1  0
  1 25  1  0
  5 26  1  0
  7 27  1  0
  8 28  1  0
 14 29  1  0
 20 30  1  0
 20 31  1  0
 21 32  1  0
 21 33  1  0
 23 34  1  0
 23 35  1  0
M  CHG  2   1  -1  19  -1
M  END
>  <UniqueID>  (61) 
59

>  <SMILES>  (61) 
[NH-]C(=O)c1cc2ccc(C(F)(F)F)cc2n1C(=O)[N-]CCC(N)=O

>  <Energy>  (61) 
68.0795118636695

>  <Genealogy>  (61) 
[NH-]C(=O)c1cc2ccc(C(F)(F)F)cc2n1C(=O)[N-]CCC(N)=O (protonated)
[NH-]C(=O)c1cc2ccc(C(F)(F)F)cc2n1C(=O)[N-]CCC(N)=O (3D coordinates assigned)
[NH-]C(=O)c1cc2ccc(C(F)(F)F)cc2n1C(=O)[N-]CCC(N)=O (optimized conformer: 68.0795118636695 kcal/mol)

>  <smiles>  (61) 
NC(=O)CCNC(=O)n1c(C(N)=O)cc2ccc(C(F)(F)F)cc21

>  <score_type>  (61) 
oracle

>  <origin>  (61) 
adg

>  <m_score__min__energy>  (61) 
-10.33

>  <m_primary>  (61) 
energy

$$$$
62:0
     RDKit          3D

 47 48  0  0  0  0  0  0  0  0999 V2000
   -3.8860   25.6710  -30.8440 N   0  0  0  0  0  0  0  0  0  0  0  0
   -5.2350   25.3780  -30.5000 C   0  0  0  0  0  0  0  0  0  0  0  0
   -5.9030   26.2280  -29.8530 O   0  0  0  0  0  0  0  0  0  0  0  0
   -5.8670   24.1000  -30.8970 C   0  0  0  0  0  0  0  0  0  0  0  0
   -7.2460   23.9010  -30.9510 C   0  0  0  0  0  0  0  0  0  0  0  0
   -7.4140   22.5840  -31.3210 C   0  0  0  0  0  0  0  0  0  0  0  0
   -8.5760   21.8530  -31.5400 C   0  0  0  0  0  0  0  0  0  0  0  0
   -8.4440   20.5130  -31.9360 C   0  0  0  0  0  0  0  0  0  0  0  0
   -7.1620   19.9310  -32.1160 C   0  0  0  0  0  0  0  0  0  0  0  0
   -7.0320   18.4830  -32.5130 C   0  0  0  0  0  0  0  0  0  0  0  0
   -6.6660   18.3710  -33.8430 F   0  0  0  0  0  0  0  0  0  0  0  0
   -6.0670   17.8810  -31.7280 F   0  0  0  0  0  0  0  0  0  0  0  0
   -8.2330   17.8180  -32.3370 F   0  0  0  0  0  0  0  0  0  0  0  0
   -6.0040   20.7000  -31.8500 C   0  0  0  0  0  0  0  0  0  0  0  0
   -6.1690   22.0320  -31.4660 C   0  0  0  0  0  0  0  0  0  0  0  0
   -5.2120   22.9480  -31.2120 N   0  0  0  0  0  0  0  0  0  0  0  0
   -3.8020   22.7330  -31.3040 C   0  0  0  0  0  0  0  0  0  0  0  0
   -3.2720   22.5520  -32.4310 O   0  0  0  0  0  0  0  0  0  0  0  0
   -3.0040   22.7510  -30.1120 N   0  0  0  0  0  0  0  0  0  0  0  0
   -1.7060   23.4080  -29.9600 C   0  0  1  0  0  0  0  0  0  0  0  0
   -1.7530   24.3990  -28.8290 C   0  0  0  0  0  0  0  0  0  0  0  0
   -1.6050   25.5860  -29.0510 O   0  0  0  0  0  0  0  0  0  0  0  0
   -0.5660   22.3790  -29.7670 C   0  0  0  0  0  0  0  0  0  0  0  0
   -1.0660   20.9560  -29.4630 C   0  0  0  0  0  0  0  0  0  0  0  0
   -1.0320   20.0260  -30.6860 C   0  0  0  0  0  0  0  0  0  0  0  0
   -1.5120   20.7270  -31.8810 N   0  0  0  0  0  0  0  0  0  0  0  0
   -1.2490   20.3740  -33.1120 C   0  0  0  0  0  0  0  0  0  0  0  0
   -0.4340   19.2320  -33.4160 N   0  0  0  0  0  0  0  0  0  0  0  0
   -1.7900   21.1400  -34.1930 N   0  0  0  0  0  0  0  0  0  0  0  0
   -3.1050   25.0620  -30.5200 H   0  0  0  0  0  0  0  0  0  0  0  0
   -8.0339   24.6396  -30.7422 H   0  0  0  0  0  0  0  0  0  0  0  0
   -9.5676   22.3103  -31.4071 H   0  0  0  0  0  0  0  0  0  0  0  0
   -9.3451   19.9064  -32.1090 H   0  0  0  0  0  0  0  0  0  0  0  0
   -5.0003   20.2597  -31.9434 H   0  0  0  0  0  0  0  0  0  0  0  0
   -1.4871   23.9553  -30.8887 H   0  0  0  0  0  0  0  0  0  0  0  0
   -1.9215   24.0498  -27.7996 H   0  0  0  0  0  0  0  0  0  0  0  0
    0.0338   22.3474  -30.6886 H   0  0  0  0  0  0  0  0  0  0  0  0
    0.0213   22.7075  -28.8968 H   0  0  0  0  0  0  0  0  0  0  0  0
   -0.4299   20.5228  -28.6771 H   0  0  0  0  0  0  0  0  0  0  0  0
   -2.1161   21.0401  -29.1465 H   0  0  0  0  0  0  0  0  0  0  0  0
    0.0013   19.6890  -30.8552 H   0  0  0  0  0  0  0  0  0  0  0  0
   -1.6870   19.1634  -30.4938 H   0  0  0  0  0  0  0  0  0  0  0  0
   -2.1310   21.5540  -31.7200 H   0  0  0  0  0  0  0  0  0  0  0  0
   -0.2520   18.9750  -34.4090 H   0  0  0  0  0  0  0  0  0  0  0  0
   -0.0000   18.6290  -32.6860 H   0  0  0  0  0  0  0  0  0  0  0  0
   -2.3920   21.9740  -34.0140 H   0  0  0  0  0  0  0  0  0  0  0  0
   -1.5880   20.8740  -35.1810 H   0  0  0  0  0  0  0  0  0  0  0  0
  1  2  1  0
  2  3  2  0
  2  4  1  0
  4  5  2  0
  5  6  1  0
  6  7  2  0
  7  8  1  0
  8  9  2  0
  9 10  1  0
 10 11  1  0
 10 12  1  0
 10 13  1  0
  9 14  1  0
 14 15  2  0
 15 16  1  0
 16 17  1  0
 17 18  2  0
 17 19  1  0
 19 20  1  0
 20 21  1  0
 21 22  2  0
 20 23  1  0
 23 24  1  0
 24 25  1  0
 25 26  1  0
 26 27  2  3
 27 28  1  0
 27 29  1  0
 16  4  1  0
 15  6  1  0
  1 30  1  0
  5 31  1  0
  7 32  1  0
  8 33  1  0
 14 34  1  0
 20 35  1  6
 21 36  1  0
 23 37  1  0
 23 38  1  0
 24 39  1  0
 24 40  1  0
 25 41  1  0
 25 42  1  0
 26 43  1  0
 28 44  1  0
 28 45  1  0
 29 46  1  0
 29 47  1  0
M  CHG  3   1  -1  19  -1  26   1
M  END
>  <UniqueID>  (62) 
60

>  <SMILES>  (62) 
[NH-]C(=O)c1cc2ccc(C(F)(F)F)cc2n1C(=O)[N-][C@@H](C=O)CCC[NH+]=C(N)N

>  <Energy>  (62) 
80.1364998696048

>  <Genealogy>  (62) 
[NH-]C(=O)c1cc2ccc(C(F)(F)F)cc2n1C(=O)[N-]C(C=O)CCC[NH+]=C(N)N (protonated)
[NH-]C(=O)c1cc2ccc(C(F)(F)F)cc2n1C(=O)[N-][C@@H](C=O)CCC[NH+]=C(N)N (chirality)
[NH-]C(=O)c1cc2ccc(C(F)(F)F)cc2n1C(=O)[N-][C@@H](C=O)CCC[NH+]=C(N)N (3D coordinates assigned)
[NH-]C(=O)c1cc2ccc(C(F)(F)F)cc2n1C(=O)[N-][C@@H](C=O)CCC[NH+]=C(N)N (optimized conformer: 80.1364998696048 kcal/mol)

>  <smiles>  (62) 
NC(=O)c1cc2ccc(C(F)(F)F)cc2n1C(=O)NC(C=O)CCCN=C(N)N

>  <score_type>  (62) 
oracle

>  <origin>  (62) 
adg

>  <m_score__min__energy>  (62) 
-10.59

>  <m_primary>  (62) 
energy

$$$$
63:0
     RDKit          3D

 68 69  0  0  0  0  0  0  0  0999 V2000
   -2.3950   20.9960  -28.4310 C   0  0  0  0  0  0  0  0  0  0  0  0
   -1.0650   21.3190  -28.9570 N   0  0  0  0  0  0  0  0  0  0  0  0
   -0.9230   21.8240  -30.3270 C   0  0  0  0  0  0  0  0  0  0  0  0
   -2.1520   22.6480  -30.7120 C   0  0  0  0  0  0  0  0  0  0  0  0
   -3.0720   21.8550  -31.5360 N   0  0  0  0  0  0  0  0  0  0  0  0
   -2.7130   21.5340  -32.8960 C   0  0  0  0  0  0  0  0  0  0  0  0
   -3.4420   21.9200  -33.8510 O   0  0  0  0  0  0  0  0  0  0  0  0
   -1.5560   20.7910  -33.1600 O   0  0  0  0  0  0  0  0  0  0  0  0
   -1.5870   19.3880  -33.3990 C   0  0  0  0  0  0  0  0  0  0  0  0
   -2.8500   18.8630  -33.0020 O   0  0  0  0  0  0  0  0  0  0  0  0
   -3.5920   18.0010  -33.8160 C   0  0  0  0  0  0  0  0  0  0  0  0
   -2.9980   17.1670  -34.5550 O   0  0  0  0  0  0  0  0  0  0  0  0
   -5.1070   17.9910  -33.7320 C   0  0  0  0  0  0  0  0  0  0  0  0
   -5.5620   17.7960  -32.2730 C   0  0  0  0  0  0  0  0  0  0  0  0
   -5.6820   19.3250  -34.2550 C   0  0  0  0  0  0  0  0  0  0  0  0
   -5.6400   16.8310  -34.5910 C   0  0  0  0  0  0  0  0  0  0  0  0
   -4.3070   21.3680  -30.9710 C   0  0  0  0  0  0  0  0  0  0  0  0
   -4.3660   20.2110  -30.4730 O   0  0  0  0  0  0  0  0  0  0  0  0
   -5.4870   22.1840  -30.9730 N   0  0  0  0  0  0  0  0  0  0  0  0
   -5.6090   23.4700  -30.5430 C   0  0  0  0  0  0  0  0  0  0  0  0
   -4.5190   24.3040  -29.9920 C   0  0  0  0  0  0  0  0  0  0  0  0
   -3.8320   25.2470  -30.8120 N   0  0  0  0  0  0  0  0  0  0  0  0
   -4.1840   24.1790  -28.7820 O   0  0  0  0  0  0  0  0  0  0  0  0
   -6.9330   23.8960  -30.6600 C   0  0  0  0  0  0  0  0  0  0  0  0
   -7.6190   22.8160  -31.1700 C   0  0  0  0  0  0  0  0  0  0  0  0
   -8.9680   22.6740  -31.4830 C   0  0  0  0  0  0  0  0  0  0  0  0
   -9.3990   21.4350  -31.9870 C   0  0  0  0  0  0  0  0  0  0  0  0
   -8.4830   20.3670  -32.1640 C   0  0  0  0  0  0  0  0  0  0  0  0
   -8.9610   19.0570  -32.7240 C   0  0  0  0  0  0  0  0  0  0  0  0
  -10.1630   19.2460  -33.3830 F   0  0  0  0  0  0  0  0  0  0  0  0
   -9.1400   18.1460  -31.7000 F   0  0  0  0  0  0  0  0  0  0  0  0
   -7.1200   20.5500  -31.8410 C   0  0  0  0  0  0  0  0  0  0  0  0
   -6.7220   21.7940  -31.3420 C   0  0  0  0  0  0  0  0  0  0  0  0
    0.0850   21.2270  -28.0970 C   0  0  0  0  0  0  0  0  0  0  0  0
    0.8380   20.2150  -28.1520 O   0  0  0  0  0  0  0  0  0  0  0  0
    0.3650   22.2620  -27.1980 O   0  0  0  0  0  0  0  0  0  0  0  0
   -0.6450   23.1230  -26.6750 C   0  0  0  0  0  0  0  0  0  0  0  0
   -1.3240   23.7800  -27.7200 O   0  0  0  0  0  0  0  0  0  0  0  0
   -0.7380   25.3790  -27.8630 P   0  0  0  0  0  0  0  0  0  0  0  0
   -1.2630   26.2450  -26.7360 O   0  0  0  0  0  0  0  0  0  0  0  0
    0.9540   25.3770  -27.8310 O   0  0  0  0  0  0  0  0  0  0  0  0
   -1.2590   26.0220  -29.3390 O   0  0  0  0  0  0  0  0  0  0  0  0
   -2.3661   21.0030  -27.3314 H   0  0  0  0  0  0  0  0  0  0  0  0
   -3.1203   21.7441  -28.7835 H   0  0  0  0  0  0  0  0  0  0  0  0
   -2.6964   19.9986  -28.7835 H   0  0  0  0  0  0  0  0  0  0  0  0
   -0.0257   22.4572  -30.3904 H   0  0  0  0  0  0  0  0  0  0  0  0
   -0.8291   20.9726  -31.0172 H   0  0  0  0  0  0  0  0  0  0  0  0
   -2.6721   22.9692  -29.7975 H   0  0  0  0  0  0  0  0  0  0  0  0
   -1.8232   23.5230  -31.2919 H   0  0  0  0  0  0  0  0  0  0  0  0
   -1.4313   19.1958  -34.4708 H   0  0  0  0  0  0  0  0  0  0  0  0
   -0.7902   18.9010  -32.8177 H   0  0  0  0  0  0  0  0  0  0  0  0
   -4.7676   18.1365  -31.5926 H   0  0  0  0  0  0  0  0  0  0  0  0
   -6.4754   18.3817  -32.0924 H   0  0  0  0  0  0  0  0  0  0  0  0
   -5.7678   16.7306  -32.0924 H   0  0  0  0  0  0  0  0  0  0  0  0
   -5.9576   19.9644  -33.4034 H   0  0  0  0  0  0  0  0  0  0  0  0
   -4.9242   19.8360  -34.8671 H   0  0  0  0  0  0  0  0  0  0  0  0
   -6.5738   19.1250  -34.8671 H   0  0  0  0  0  0  0  0  0  0  0  0
   -6.0087   16.0285  -33.9353 H   0  0  0  0  0  0  0  0  0  0  0  0
   -6.4623   17.1926  -35.2259 H   0  0  0  0  0  0  0  0  0  0  0  0
   -4.8300   16.4426  -35.2259 H   0  0  0  0  0  0  0  0  0  0  0  0
   -2.7890   25.3060  -30.8020 H   0  0  0  0  0  0  0  0  0  0  0  0
   -7.3415   24.8837  -30.4003 H   0  0  0  0  0  0  0  0  0  0  0  0
   -9.6742   23.5052  -31.3403 H   0  0  0  0  0  0  0  0  0  0  0  0
  -10.4582   21.2921  -32.2470 H   0  0  0  0  0  0  0  0  0  0  0  0
   -8.2094   18.6710  -33.4283 H   0  0  0  0  0  0  0  0  0  0  0  0
   -6.3922   19.7367  -31.9782 H   0  0  0  0  0  0  0  0  0  0  0  0
   -1.3644   22.5263  -26.0949 H   0  0  0  0  0  0  0  0  0  0  0  0
   -0.1702   23.8772  -26.0302 H   0  0  0  0  0  0  0  0  0  0  0  0
  1  2  1  0
  2  3  1  0
  3  4  1  0
  4  5  1  0
  5  6  1  0
  6  7  2  0
  6  8  1  0
  8  9  1  0
  9 10  1  0
 10 11  1  0
 11 12  2  0
 11 13  1  0
 13 14  1  0
 13 15  1  0
 13 16  1  0
  5 17  1  0
 17 18  2  0
 17 19  1  0
 19 20  1  0
 20 21  1  0
 21 22  1  0
 21 23  2  0
 20 24  2  0
 24 25  1  0
 25 26  2  0
 26 27  1  0
 27 28  2  0
 28 29  1  0
 29 30  1  0
 29 31  1  0
 28 32  1  0
 32 33  2  0
  2 34  1  0
 34 35  2  0
 34 36  1  0
 36 37  1  0
 37 38  1  0
 38 39  1  0
 39 40  2  0
 39 41  1  0
 39 42  1  0
 33 19  1  0
 33 25  1  0
  1 43  1  0
  1 44  1  0
  1 45  1  0
  3 46  1  0
  3 47  1  0
  4 48  1  0
  4 49  1  0
  9 50  1  0
  9 51  1  0
 14 52  1  0
 14 53  1  0
 14 54  1  0
 15 55  1  0
 15 56  1  0
 15 57  1  0
 16 58  1  0
 16 59  1  0
 16 60  1  0
 22 61  1  0
 24 62  1  0
 26 63  1  0
 27 64  1  0
 29 65  1  0
 32 66  1  0
 37 67  1  0
 37 68  1  0
M  CHG  3  22  -1  41  -1  42  -1
M  END
>  <UniqueID>  (63) 
61

>  <SMILES>  (63) 
CN(CCN(C(=O)OCOC(=O)C(C)(C)C)C(=O)n1c(C([NH-])=O)cc2ccc(C(F)F)cc21)C(=O)OCOP(=O)([O-])[O-]

>  <Energy>  (63) 
89.51504309819035

>  <Genealogy>  (63) 
CN(CCN(C(=O)OCOC(=O)C(C)(C)C)C(=O)n1c(C([NH-])=O)cc2ccc(C(F)F)cc21)C(=O)OCOP(=O)([O-])[O-] (protonated)
CN(CCN(C(=O)OCOC(=O)C(C)(C)C)C(=O)n1c(C([NH-])=O)cc2ccc(C(F)F)cc21)C(=O)OCOP(=O)([O-])[O-] (3D coordinates assigned)
CN(CCN(C(=O)OCOC(=O)C(C)(C)C)C(=O)n1c(C([NH-])=O)cc2ccc(C(F)F)cc21)C(=O)OCOP(=O)([O-])[O-] (optimized conformer: 89.51504309819035 kcal/mol)

>  <smiles>  (63) 
CN(CCN(C(=O)OCOC(=O)C(C)(C)C)C(=O)n1c(C(N)=O)cc2ccc(C(F)F)cc21)C(=O)OCOP(=O)(O)O

>  <score_type>  (63) 
oracle

>  <origin>  (63) 
adg

>  <m_score__min__energy>  (63) 
-14.029999999999999

>  <m_primary>  (63) 
energy

$$$$
64:0
     RDKit          3D

 33 34  0  0  0  0  0  0  0  0999 V2000
   -3.8800   25.3080  -30.7380 N   0  0  0  0  0  0  0  0  0  0  0  0
   -5.2200   24.9040  -30.4610 C   0  0  0  0  0  0  0  0  0  0  0  0
   -5.9390   25.6260  -29.7210 O   0  0  0  0  0  0  0  0  0  0  0  0
   -5.7380   23.6400  -31.0280 C   0  0  0  0  0  0  0  0  0  0  0  0
   -7.0790   23.4270  -31.3370 C   0  0  0  0  0  0  0  0  0  0  0  0
   -7.1390   22.1520  -31.8500 C   0  0  0  0  0  0  0  0  0  0  0  0
   -8.2330   21.4180  -32.2970 C   0  0  0  0  0  0  0  0  0  0  0  0
   -8.0100   20.1010  -32.7330 C   0  0  0  0  0  0  0  0  0  0  0  0
   -6.7110   19.5300  -32.6810 C   0  0  0  0  0  0  0  0  0  0  0  0
   -6.4790   18.1260  -33.1760 C   0  0  0  0  0  0  0  0  0  0  0  0
   -6.1470   18.1650  -34.5170 F   0  0  0  0  0  0  0  0  0  0  0  0
   -5.4480   17.5240  -32.4740 F   0  0  0  0  0  0  0  0  0  0  0  0
   -7.6180   17.3540  -33.0170 F   0  0  0  0  0  0  0  0  0  0  0  0
   -5.6220   20.3170  -32.2380 C   0  0  0  0  0  0  0  0  0  0  0  0
   -5.8700   21.6370  -31.8420 C   0  0  0  0  0  0  0  0  0  0  0  0
   -4.9940   22.5440  -31.3550 N   0  0  0  0  0  0  0  0  0  0  0  0
   -3.5830   22.3540  -31.1610 C   0  0  0  0  0  0  0  0  0  0  0  0
   -2.8560   22.0380  -32.1410 O   0  0  0  0  0  0  0  0  0  0  0  0
   -2.9550   22.5150  -29.8030 C   0  0  0  0  0  0  0  0  0  0  0  0
   -1.4720   22.8950  -29.8990 C   0  0  0  0  0  0  0  0  0  0  0  0
   -1.0300   24.2300  -28.7360 P   0  0  0  0  0  0  0  0  0  0  0  0
   -1.6370   23.9710  -27.3780 O   0  0  0  0  0  0  0  0  0  0  0  0
    0.6530   24.2980  -28.5890 O   0  0  0  0  0  0  0  0  0  0  0  0
   -1.5950   25.7090  -29.3300 O   0  0  0  0  0  0  0  0  0  0  0  0
   -3.6770   26.0230  -31.4700 H   0  0  0  0  0  0  0  0  0  0  0  0
   -7.9140   24.1298  -31.1998 H   0  0  0  0  0  0  0  0  0  0  0  0
   -9.2422   21.8555  -32.3088 H   0  0  0  0  0  0  0  0  0  0  0  0
   -8.8508   19.5059  -33.1188 H   0  0  0  0  0  0  0  0  0  0  0  0
   -4.6040   19.9016  -32.2054 H   0  0  0  0  0  0  0  0  0  0  0  0
   -3.4897   23.3052  -29.2555 H   0  0  0  0  0  0  0  0  0  0  0  0
   -3.0262   21.5507  -29.2785 H   0  0  0  0  0  0  0  0  0  0  0  0
   -0.8629   22.0083  -29.6695 H   0  0  0  0  0  0  0  0  0  0  0  0
   -1.2801   23.2571  -30.9198 H   0  0  0  0  0  0  0  0  0  0  0  0
  1  2  1  0
  2  3  2  0
  2  4  1  0
  4  5  2  0
  5  6  1  0
  6  7  2  0
  7  8  1  0
  8  9  2  0
  9 10  1  0
 10 11  1  0
 10 12  1  0
 10 13  1  0
  9 14  1  0
 14 15  2  0
 15 16  1  0
 16 17  1  0
 17 18  2  0
 17 19  1  0
 19 20  1  0
 20 21  1  0
 21 22  2  0
 21 23  1  0
 21 24  1  0
 16  4  1  0
 15  6  1  0
  1 25  1  0
  5 26  1  0
  7 27  1  0
  8 28  1  0
 14 29  1  0
 19 30  1  0
 19 31  1  0
 20 32  1  0
 20 33  1  0
M  CHG  3   1  -1  23  -1  24  -1
M  END
>  <UniqueID>  (64) 
62

>  <SMILES>  (64) 
[NH-]C(=O)c1cc2ccc(C(F)(F)F)cc2n1C(=O)CCP(=O)([O-])[O-]

>  <Energy>  (64) 
67.30473260657611

>  <Genealogy>  (64) 
[NH-]C(=O)c1cc2ccc(C(F)(F)F)cc2n1C(=O)CCP(=O)([O-])[O-] (protonated)
[NH-]C(=O)c1cc2ccc(C(F)(F)F)cc2n1C(=O)CCP(=O)([O-])[O-] (3D coordinates assigned)
[NH-]C(=O)c1cc2ccc(C(F)(F)F)cc2n1C(=O)CCP(=O)([O-])[O-] (optimized conformer: 67.30473260657611 kcal/mol)

>  <smiles>  (64) 
NC(=O)c1cc2ccc(C(F)(F)F)cc2n1C(=O)CCP(=O)(O)O

>  <score_type>  (64) 
oracle

>  <origin>  (64) 
adg

>  <m_score__min__energy>  (64) 
-14.17

>  <m_primary>  (64) 
energy

$$$$
65:0
     RDKit          3D

 40 41  0  0  0  0  0  0  0  0999 V2000
   -6.1340   17.2740  -31.2070 C   0  0  0  0  0  0  0  0  0  0  0  0
   -6.4330   18.1970  -32.3090 N   0  0  0  0  0  0  0  0  0  0  0  0
   -6.4920   17.6710  -33.6790 C   0  0  0  0  0  0  0  0  0  0  0  0
   -6.6730   19.6060  -32.0470 C   0  0  0  0  0  0  0  0  0  0  0  0
   -7.9750   20.1640  -32.1910 C   0  0  0  0  0  0  0  0  0  0  0  0
   -8.2120   21.5290  -31.9550 C   0  0  0  0  0  0  0  0  0  0  0  0
   -7.1390   22.3200  -31.5640 C   0  0  0  0  0  0  0  0  0  0  0  0
   -7.0820   23.6700  -31.3030 C   0  0  0  0  0  0  0  0  0  0  0  0
   -5.7510   23.9270  -30.9760 C   0  0  0  0  0  0  0  0  0  0  0  0
   -5.2560   25.2540  -30.5540 C   0  0  0  0  0  0  0  0  0  0  0  0
   -3.9260   25.6700  -30.8500 N   0  0  0  0  0  0  0  0  0  0  0  0
   -6.0060   26.0160  -29.8860 O   0  0  0  0  0  0  0  0  0  0  0  0
   -5.0180   22.7800  -31.0380 N   0  0  0  0  0  0  0  0  0  0  0  0
   -3.6040   22.6260  -30.8510 C   0  0  0  0  0  0  0  0  0  0  0  0
   -2.8060   23.0510  -31.7300 O   0  0  0  0  0  0  0  0  0  0  0  0
   -3.1110   21.9740  -29.6720 N   0  0  0  0  0  0  0  0  0  0  0  0
   -1.8150   22.1980  -29.0240 C   0  0  1  0  0  0  0  0  0  0  0  0
   -1.8430   23.4640  -28.1420 C   0  0  0  0  0  0  0  0  0  0  0  0
   -0.9930   24.5850  -28.6610 C   0  0  0  0  0  0  0  0  0  0  0  0
    0.2570   24.5560  -28.5040 O   0  0  0  0  0  0  0  0  0  0  0  0
   -1.5750   25.6540  -29.3280 O   0  0  0  0  0  0  0  0  0  0  0  0
   -1.3140   20.9630  -28.3110 C   0  0  0  0  0  0  0  0  0  0  0  0
   -1.7150   20.7020  -27.1460 O   0  0  0  0  0  0  0  0  0  0  0  0
   -0.5010   20.0480  -28.9690 O   0  0  0  0  0  0  0  0  0  0  0  0
   -5.8820   21.8070  -31.3980 C   0  0  0  0  0  0  0  0  0  0  0  0
   -5.6110   20.4580  -31.6460 C   0  0  0  0  0  0  0  0  0  0  0  0
   -6.2992   17.7840  -30.2465 H   0  0  0  0  0  0  0  0  0  0  0  0
   -6.7938   16.3965  -31.2745 H   0  0  0  0  0  0  0  0  0  0  0  0
   -5.0850   16.9500  -31.2745 H   0  0  0  0  0  0  0  0  0  0  0  0
   -6.6146   16.5783  -33.6473 H   0  0  0  0  0  0  0  0  0  0  0  0
   -7.3454   18.1205  -34.2079 H   0  0  0  0  0  0  0  0  0  0  0  0
   -5.5603   17.9203  -34.2079 H   0  0  0  0  0  0  0  0  0  0  0  0
   -8.8104   19.5150  -32.4924 H   0  0  0  0  0  0  0  0  0  0  0  0
   -9.2174   21.9584  -32.0763 H   0  0  0  0  0  0  0  0  0  0  0  0
   -7.9103   24.3927  -31.3437 H   0  0  0  0  0  0  0  0  0  0  0  0
   -3.1200   25.0140  -30.7470 H   0  0  0  0  0  0  0  0  0  0  0  0
   -1.0698   22.3932  -29.8092 H   0  0  0  0  0  0  0  0  0  0  0  0
   -2.8823   23.8185  -28.0778 H   0  0  0  0  0  0  0  0  0  0  0  0
   -1.4326   23.1795  -27.1619 H   0  0  0  0  0  0  0  0  0  0  0  0
   -4.5907   20.0631  -31.5321 H   0  0  0  0  0  0  0  0  0  0  0  0
  1  2  1  0
  2  3  1  0
  2  4  1  0
  4  5  2  0
  5  6  1  0
  6  7  2  0
  7  8  1  0
  8  9  2  0
  9 10  1  0
 10 11  1  0
 10 12  2  0
  9 13  1  0
 13 14  1  0
 14 15  2  0
 14 16  1  0
 16 17  1  0
 17 18  1  0
 18 19  1  0
 19 20  2  0
 19 21  1  0
 17 22  1  0
 22 23  2  0
 22 24  1  0
 13 25  1  0
 25 26  2  0
 26  4  1  0
 25  7  1  0
  1 27  1  0
  1 28  1  0
  1 29  1  0
  3 30  1  0
  3 31  1  0
  3 32  1  0
  5 33  1  0
  6 34  1  0
  8 35  1  0
 11 36  1  0
 17 37  1  6
 18 38  1  0
 18 39  1  0
 26 40  1  0
M  CHG  4  11  -1  16  -1  21  -1  24  -1
M  END
>  <UniqueID>  (65) 
63

>  <SMILES>  (65) 
CN(C)c1ccc2cc(C([NH-])=O)n(C(=O)[N-][C@@H](CC(=O)[O-])C(=O)[O-])c2c1

>  <Energy>  (65) 
80.37470061655456

>  <Genealogy>  (65) 
CN(C)c1ccc2cc(C([NH-])=O)n(C(=O)[N-]C(CC(=O)[O-])C(=O)[O-])c2c1 (protonated)
CN(C)c1ccc2cc(C([NH-])=O)n(C(=O)[N-][C@@H](CC(=O)[O-])C(=O)[O-])c2c1 (chirality)
CN(C)c1ccc2cc(C([NH-])=O)n(C(=O)[N-][C@@H](CC(=O)[O-])C(=O)[O-])c2c1 (3D coordinates assigned)
CN(C)c1ccc2cc(C([NH-])=O)n(C(=O)[N-][C@@H](CC(=O)[O-])C(=O)[O-])c2c1 (optimized conformer: 80.37470061655456 kcal/mol)

>  <smiles>  (65) 
CN(C)c1ccc2cc(C(N)=O)n(C(=O)NC(CC(=O)O)C(=O)O)c2c1

>  <score_type>  (65) 
oracle

>  <origin>  (65) 
adg

>  <m_score__min__energy>  (65) 
-12.949999999999999

>  <m_primary>  (65) 
energy

$$$$
66:0
     RDKit          3D

 34 35  0  0  0  0  0  0  0  0999 V2000
   -2.5230   21.9510  -28.3480 C   0  0  0  0  0  0  0  0  0  0  0  0
   -2.4050   22.4720  -29.7110 N   0  0  0  0  0  0  0  0  0  0  0  0
   -2.4320   21.5240  -30.7910 C   0  0  0  0  0  0  0  0  0  0  0  0
   -1.2260   21.1270  -31.4160 C   0  0  0  0  0  0  0  0  0  0  0  0
   -1.2380   20.1840  -32.4560 C   0  0  0  0  0  0  0  0  0  0  0  0
   -2.4670   19.6570  -32.8430 C   0  0  0  0  0  0  0  0  0  0  0  0
   -2.7630   18.7210  -33.8070 C   0  0  0  0  0  0  0  0  0  0  0  0
   -4.1480   18.5700  -33.7630 C   0  0  0  0  0  0  0  0  0  0  0  0
   -4.8980   17.7190  -34.7120 C   0  0  0  0  0  0  0  0  0  0  0  0
   -6.0860   18.1880  -35.3420 N   0  0  0  0  0  0  0  0  0  0  0  0
   -4.4590   16.5750  -35.0030 O   0  0  0  0  0  0  0  0  0  0  0  0
   -4.6860   19.3710  -32.7980 N   0  0  0  0  0  0  0  0  0  0  0  0
   -6.0600   19.4630  -32.3870 C   0  0  0  0  0  0  0  0  0  0  0  0
   -6.4460   18.9060  -31.3260 O   0  0  0  0  0  0  0  0  0  0  0  0
   -6.9700   20.1930  -33.1430 O   0  0  0  0  0  0  0  0  0  0  0  0
   -3.6430   20.0320  -32.2470 C   0  0  0  0  0  0  0  0  0  0  0  0
   -3.6560   20.9510  -31.1920 C   0  0  0  0  0  0  0  0  0  0  0  0
   -2.3400   23.9230  -29.9620 C   0  0  1  0  0  0  0  0  0  0  0  0
   -3.7150   24.5230  -30.0680 C   0  0  0  0  0  0  0  0  0  0  0  0
   -3.9160   25.5740  -30.7310 O   0  0  0  0  0  0  0  0  0  0  0  0
   -4.7710   23.9430  -29.3750 O   0  0  0  0  0  0  0  0  0  0  0  0
   -1.3290   24.7610  -28.6870 P   0  0  0  0  0  0  0  0  0  0  0  0
   -1.9390   24.5780  -27.3160 O   0  0  0  0  0  0  0  0  0  0  0  0
    0.2300   24.1050  -28.6990 O   0  0  0  0  0  0  0  0  0  0  0  0
   -1.2400   26.4130  -29.0380 O   0  0  0  0  0  0  0  0  0  0  0  0
   -2.3393   22.7622  -27.6282 H   0  0  0  0  0  0  0  0  0  0  0  0
   -3.5352   21.5480  -28.1958 H   0  0  0  0  0  0  0  0  0  0  0  0
   -1.7832   21.1512  -28.1958 H   0  0  0  0  0  0  0  0  0  0  0  0
   -0.2712   21.5609  -31.0842 H   0  0  0  0  0  0  0  0  0  0  0  0
   -0.3059   19.8715  -32.9494 H   0  0  0  0  0  0  0  0  0  0  0  0
   -2.0566   18.2020  -34.4715 H   0  0  0  0  0  0  0  0  0  0  0  0
   -6.6630   18.9420  -34.9070 H   0  0  0  0  0  0  0  0  0  0  0  0
   -4.5966   21.2193  -30.6887 H   0  0  0  0  0  0  0  0  0  0  0  0
   -1.8454   24.0785  -30.9322 H   0  0  0  0  0  0  0  0  0  0  0  0
  1  2  1  0
  2  3  1  0
  3  4  2  0
  4  5  1  0
  5  6  2  0
  6  7  1  0
  7  8  2  0
  8  9  1  0
  9 10  1  0
  9 11  2  0
  8 12  1  0
 12 13  1  0
 13 14  2  0
 13 15  1  0
 12 16  1  0
 16 17  2  0
  2 18  1  0
 18 19  1  0
 19 20  2  0
 19 21  1  0
 18 22  1  0
 22 23  2  0
 22 24  1  0
 22 25  1  0
 17  3  1  0
 16  6  1  0
  1 26  1  0
  1 27  1  0
  1 28  1  0
  4 29  1  0
  5 30  1  0
  7 31  1  0
 10 32  1  0
 17 33  1  0
 18 34  1  6
M  CHG  5  10  -1  15  -1  21  -1  24  -1  25  -1
M  END
>  <UniqueID>  (66) 
64

>  <SMILES>  (66) 
CN(c1ccc2cc(C([NH-])=O)n(C(=O)[O-])c2c1)[C@@H](C(=O)[O-])P(=O)([O-])[O-]

>  <Energy>  (66) 
75.9969838954259

>  <Genealogy>  (66) 
CN(c1ccc2cc(C([NH-])=O)n(C(=O)[O-])c2c1)C(C(=O)[O-])P(=O)([O-])[O-] (protonated)
CN(c1ccc2cc(C([NH-])=O)n(C(=O)[O-])c2c1)[C@@H](C(=O)[O-])P(=O)([O-])[O-] (chirality)
CN(c1ccc2cc(C([NH-])=O)n(C(=O)[O-])c2c1)[C@@H](C(=O)[O-])P(=O)([O-])[O-] (3D coordinates assigned)
CN(c1ccc2cc(C([NH-])=O)n(C(=O)[O-])c2c1)[C@@H](C(=O)[O-])P(=O)([O-])[O-] (optimized conformer: 75.9969838954259 kcal/mol)

>  <smiles>  (66) 
CN(c1ccc2cc(C(N)=O)n(C(=O)O)c2c1)C(C(=O)O)P(=O)(O)O

>  <score_type>  (66) 
oracle

>  <origin>  (66) 
adg

>  <m_score__min__energy>  (66) 
-11.17

>  <m_primary>  (66) 
energy

$$$$
67:0
     RDKit          3D

 28 29  0  0  0  0  0  0  0  0999 V2000
   -6.5360   17.9780  -33.1000 C   0  0  0  0  0  0  0  0  0  0  0  0
   -6.6900   19.3790  -32.5890 C   0  0  0  0  0  0  0  0  0  0  0  0
   -7.9160   20.0660  -32.7620 C   0  0  0  0  0  0  0  0  0  0  0  0
   -8.0660   21.3880  -32.3100 C   0  0  0  0  0  0  0  0  0  0  0  0
   -6.9680   22.0000  -31.7100 C   0  0  0  0  0  0  0  0  0  0  0  0
   -6.8420   23.2590  -31.1690 C   0  0  0  0  0  0  0  0  0  0  0  0
   -5.5270   23.3330  -30.7090 C   0  0  0  0  0  0  0  0  0  0  0  0
   -4.9350   24.5580  -30.1340 C   0  0  0  0  0  0  0  0  0  0  0  0
   -3.9460   25.2970  -30.8450 N   0  0  0  0  0  0  0  0  0  0  0  0
   -5.3430   24.9850  -29.0200 O   0  0  0  0  0  0  0  0  0  0  0  0
   -4.8720   22.1600  -30.9450 N   0  0  0  0  0  0  0  0  0  0  0  0
   -3.5420   21.7920  -30.5450 C   0  0  0  0  0  0  0  0  0  0  0  0
   -3.1880   20.5840  -30.5630 O   0  0  0  0  0  0  0  0  0  0  0  0
   -2.6210   22.7880  -30.0660 C   0  0  0  0  0  0  0  0  0  0  0  0
   -1.8510   23.6260  -29.6660 C   0  0  0  0  0  0  0  0  0  0  0  0
   -0.9340   24.6190  -29.1890 C   0  0  0  0  0  0  0  0  0  0  0  0
    0.1510   24.2700  -28.6550 O   0  0  0  0  0  0  0  0  0  0  0  0
   -1.2420   25.9680  -29.3180 O   0  0  0  0  0  0  0  0  0  0  0  0
   -5.7660   21.3580  -31.5630 C   0  0  0  0  0  0  0  0  0  0  0  0
   -5.5940   20.0360  -31.9870 C   0  0  0  0  0  0  0  0  0  0  0  0
   -6.4597   17.2840  -32.2500 H   0  0  0  0  0  0  0  0  0  0  0  0
   -7.4104   17.7129  -33.7125 H   0  0  0  0  0  0  0  0  0  0  0  0
   -5.6249   17.9092  -33.7125 H   0  0  0  0  0  0  0  0  0  0  0  0
   -8.7591   19.5599  -33.2550 H   0  0  0  0  0  0  0  0  0  0  0  0
   -9.0203   21.9226  -32.4263 H   0  0  0  0  0  0  0  0  0  0  0  0
   -7.6138   24.0407  -31.1115 H   0  0  0  0  0  0  0  0  0  0  0  0
   -2.9460   25.2820  -30.5450 H   0  0  0  0  0  0  0  0  0  0  0  0
   -4.6306   19.5217  -31.8551 H   0  0  0  0  0  0  0  0  0  0  0  0
  1  2  1  0
  2  3  2  0
  3  4  1  0
  4  5  2  0
  5  6  1  0
  6  7  2  0
  7  8  1  0
  8  9  1  0
  8 10  2  0
  7 11  1  0
 11 12  1  0
 12 13  2  0
 12 14  1  0
 14 15  3  0
 15 16  1  0
 16 17  2  0
 16 18  1  0
 11 19  1  0
 19 20  2  0
 20  2  1  0
 19  5  1  0
  1 21  1  0
  1 22  1  0
  1 23  1  0
  3 24  1  0
  4 25  1  0
  6 26  1  0
  9 27  1  0
 20 28  1  0
M  CHG  2   9  -1  18  -1
M  END
>  <UniqueID>  (67) 
65

>  <SMILES>  (67) 
Cc1ccc2cc(C([NH-])=O)n(C(=O)C#CC(=O)[O-])c2c1

>  <Energy>  (67) 
63.611907146245464

>  <Genealogy>  (67) 
Cc1ccc2cc(C([NH-])=O)n(C(=O)C#CC(=O)[O-])c2c1 (protonated)
Cc1ccc2cc(C([NH-])=O)n(C(=O)C#CC(=O)[O-])c2c1 (3D coordinates assigned)
Cc1ccc2cc(C([NH-])=O)n(C(=O)C#CC(=O)[O-])c2c1 (optimized conformer: 63.611907146245464 kcal/mol)

>  <smiles>  (67) 
Cc1ccc2cc(C(N)=O)n(C(=O)C#CC(=O)O)c2c1

>  <score_type>  (67) 
oracle

>  <origin>  (67) 
adg

>  <m_score__min__energy>  (67) 
-11.970000000000001

>  <m_primary>  (67) 
energy

$$$$
68:0
     RDKit          3D

 56 57  0  0  0  0  0  0  0  0999 V2000
   -6.4670   19.0500  -33.9110 C   0  0  0  0  0  0  0  0  0  0  0  0
   -7.0480   18.0990  -32.9100 C   0  0  0  0  0  0  0  0  0  0  0  0
   -6.7090   16.9270  -32.9320 O   0  0  0  0  0  0  0  0  0  0  0  0
   -8.0040   18.5720  -31.8500 C   0  0  0  0  0  0  0  0  0  0  0  0
   -7.8920   20.0630  -31.6860 C   0  0  0  0  0  0  0  0  0  0  0  0
   -8.9800   20.8980  -32.0430 C   0  0  0  0  0  0  0  0  0  0  0  0
   -8.8790   22.2940  -31.9330 C   0  0  0  0  0  0  0  0  0  0  0  0
   -7.6770   22.8270  -31.4740 C   0  0  0  0  0  0  0  0  0  0  0  0
   -7.3110   24.1360  -31.2520 C   0  0  0  0  0  0  0  0  0  0  0  0
   -6.0010   24.0780  -30.7770 C   0  0  0  0  0  0  0  0  0  0  0  0
   -5.1950   25.2740  -30.4490 C   0  0  0  0  0  0  0  0  0  0  0  0
   -3.7770   25.2600  -30.5840 N   0  0  0  0  0  0  0  0  0  0  0  0
   -5.7700   26.3320  -30.0730 O   0  0  0  0  0  0  0  0  0  0  0  0
   -5.5800   22.7840  -30.7060 N   0  0  0  0  0  0  0  0  0  0  0  0
   -4.3410   22.2810  -30.1820 C   0  0  0  0  0  0  0  0  0  0  0  0
   -4.2380   22.0470  -28.9470 O   0  0  0  0  0  0  0  0  0  0  0  0
   -3.1480   22.0840  -31.0680 C   0  0  0  0  0  0  0  0  0  0  0  0
   -3.3760   22.6840  -32.3260 O   0  0  0  0  0  0  0  0  0  0  0  0
   -3.9980   21.7700  -33.2050 C   0  0  0  0  0  0  0  0  0  0  0  0
   -3.3750   20.4060  -33.0610 C   0  0  0  0  0  0  0  0  0  0  0  0
   -3.9370   19.5600  -32.3160 O   0  0  0  0  0  0  0  0  0  0  0  0
   -2.1940   20.0120  -33.7710 N   0  0  0  0  0  0  0  0  0  0  0  0
   -0.8560   19.8510  -33.2090 C   0  0  0  0  0  0  0  0  0  0  0  0
    0.0030   21.1020  -33.4380 C   0  0  0  0  0  0  0  0  0  0  0  0
    0.0590   21.5000  -34.9190 C   0  0  0  0  0  0  0  0  0  0  0  0
    0.9970   22.6270  -35.1130 N   0  0  0  0  0  0  0  0  0  0  0  0
    0.4750   23.5840  -36.1070 C   0  0  0  0  0  0  0  0  0  0  0  0
    2.3120   22.1360  -35.5540 C   0  0  0  0  0  0  0  0  0  0  0  0
   -6.6120   22.0330  -31.1380 C   0  0  0  0  0  0  0  0  0  0  0  0
   -6.6850   20.6390  -31.2300 C   0  0  0  0  0  0  0  0  0  0  0  0
   -5.9635   19.8742  -33.3845 H   0  0  0  0  0  0  0  0  0  0  0  0
   -5.7390   18.5188  -34.5418 H   0  0  0  0  0  0  0  0  0  0  0  0
   -7.2719   19.4553  -34.5418 H   0  0  0  0  0  0  0  0  0  0  0  0
   -9.0319   18.3140  -32.1448 H   0  0  0  0  0  0  0  0  0  0  0  0
   -7.7564   18.0837  -30.8959 H   0  0  0  0  0  0  0  0  0  0  0  0
   -9.9138   20.4474  -32.4103 H   0  0  0  0  0  0  0  0  0  0  0  0
   -9.7230   22.9465  -32.2010 H   0  0  0  0  0  0  0  0  0  0  0  0
   -7.9221   25.0361  -31.4148 H   0  0  0  0  0  0  0  0  0  0  0  0
   -3.3010   24.5620  -31.1910 H   0  0  0  0  0  0  0  0  0  0  0  0
   -2.2661   22.5448  -30.5992 H   0  0  0  0  0  0  0  0  0  0  0  0
   -2.9762   21.0065  -31.2078 H   0  0  0  0  0  0  0  0  0  0  0  0
   -5.0698   21.7073  -32.9657 H   0  0  0  0  0  0  0  0  0  0  0  0
   -3.8648   22.1188  -34.2397 H   0  0  0  0  0  0  0  0  0  0  0  0
   -0.9418   19.6691  -32.1275 H   0  0  0  0  0  0  0  0  0  0  0  0
   -0.3701   19.0013  -33.7110 H   0  0  0  0  0  0  0  0  0  0  0  0
   -0.4245   21.9362  -32.8624 H   0  0  0  0  0  0  0  0  0  0  0  0
    1.0277   20.8744  -33.1092 H   0  0  0  0  0  0  0  0  0  0  0  0
    0.3985   20.6390  -35.5135 H   0  0  0  0  0  0  0  0  0  0  0  0
   -0.9450   21.8103  -35.2441 H   0  0  0  0  0  0  0  0  0  0  0  0
    0.0107   24.4353  -35.5877 H   0  0  0  0  0  0  0  0  0  0  0  0
    1.3010   23.9452  -36.7372 H   0  0  0  0  0  0  0  0  0  0  0  0
   -0.2759   23.0851  -36.7372 H   0  0  0  0  0  0  0  0  0  0  0  0
    2.9309   21.9049  -34.6745 H   0  0  0  0  0  0  0  0  0  0  0  0
    2.1799   21.2266  -36.1586 H   0  0  0  0  0  0  0  0  0  0  0  0
    2.8083   22.9094  -36.1586 H   0  0  0  0  0  0  0  0  0  0  0  0
   -5.8265   20.0087  -30.9549 H   0  0  0  0  0  0  0  0  0  0  0  0
  1  2  1  0
  2  3  2  0
  2  4  1  0
  4  5  1  0
  5  6  2  0
  6  7  1  0
  7  8  2  0
  8  9  1  0
  9 10  2  0
 10 11  1  0
 11 12  1  0
 11 13  2  0
 10 14  1  0
 14 15  1  0
 15 16  2  0
 15 17  1  0
 17 18  1  0
 18 19  1  0
 19 20  1  0
 20 21  2  0
 20 22  1  0
 22 23  1  0
 23 24  1  0
 24 25  1  0
 25 26  1  0
 26 27  1  0
 26 28  1  0
 14 29  1  0
 29 30  2  0
 30  5  1  0
 29  8  1  0
  1 31  1  0
  1 32  1  0
  1 33  1  0
  4 34  1  0
  4 35  1  0
  6 36  1  0
  7 37  1  0
  9 38  1  0
 12 39  1  0
 17 40  1  0
 17 41  1  0
 19 42  1  0
 19 43  1  0
 23 44  1  0
 23 45  1  0
 24 46  1  0
 24 47  1  0
 25 48  1  0
 25 49  1  0
 27 50  1  0
 27 51  1  0
 27 52  1  0
 28 53  1  0
 28 54  1  0
 28 55  1  0
 30 56  1  0
M  CHG  2  12  -1  22  -1
M  END
>  <UniqueID>  (68) 
66

>  <SMILES>  (68) 
CC(=O)Cc1ccc2cc(C([NH-])=O)n(C(=O)COCC(=O)[N-]CCCN(C)C)c2c1

>  <Energy>  (68) 
89.0644266108467

>  <Genealogy>  (68) 
CC(=O)Cc1ccc2cc(C([NH-])=O)n(C(=O)COCC(=O)[N-]CCCN(C)C)c2c1 (protonated)
CC(=O)Cc1ccc2cc(C([NH-])=O)n(C(=O)COCC(=O)[N-]CCCN(C)C)c2c1 (3D coordinates assigned)
CC(=O)Cc1ccc2cc(C([NH-])=O)n(C(=O)COCC(=O)[N-]CCCN(C)C)c2c1 (optimized conformer: 89.0644266108467 kcal/mol)

>  <smiles>  (68) 
CC(=O)Cc1ccc2cc(C(N)=O)n(C(=O)COCC(=O)NCCCN(C)C)c2c1

>  <score_type>  (68) 
oracle

>  <origin>  (68) 
adg

>  <m_score__min__energy>  (68) 
-12.4

>  <m_primary>  (68) 
energy

$$$$
69:0
     RDKit          3D

 40 41  0  0  0  0  0  0  0  0999 V2000
   -9.1060   19.1850  -32.2280 C   0  0  0  0  0  0  0  0  0  0  0  0
   -7.6390   19.1190  -32.1020 N   0  0  1  0  0  0  0  0  0  0  0  0
   -7.0500   17.9730  -32.8320 C   0  0  0  0  0  0  0  0  0  0  0  0
   -6.1420   17.1150  -31.9920 C   0  0  0  0  0  0  0  0  0  0  0  0
   -6.1260   17.2440  -30.7390 O   0  0  0  0  0  0  0  0  0  0  0  0
   -5.3180   16.1730  -32.5960 O   0  0  0  0  0  0  0  0  0  0  0  0
   -7.0270   20.3790  -32.4840 C   0  0  0  0  0  0  0  0  0  0  0  0
   -7.4530   21.4370  -32.0380 O   0  0  0  0  0  0  0  0  0  0  0  0
   -5.8260   20.4080  -33.3920 C   0  0  0  0  0  0  0  0  0  0  0  0
   -4.6030   20.8080  -32.6140 C   0  0  0  0  0  0  0  0  0  0  0  0
   -3.4390   19.9990  -32.6400 C   0  0  0  0  0  0  0  0  0  0  0  0
   -2.2870   20.3830  -31.9330 C   0  0  0  0  0  0  0  0  0  0  0  0
   -2.3220   21.5840  -31.2310 C   0  0  0  0  0  0  0  0  0  0  0  0
   -1.3580   22.1890  -30.4560 C   0  0  0  0  0  0  0  0  0  0  0  0
   -1.9360   23.3760  -30.0030 C   0  0  0  0  0  0  0  0  0  0  0  0
   -1.2190   24.3700  -29.1770 C   0  0  0  0  0  0  0  0  0  0  0  0
   -1.7590   25.6710  -28.9590 N   0  0  0  0  0  0  0  0  0  0  0  0
   -0.1000   24.0780  -28.6790 O   0  0  0  0  0  0  0  0  0  0  0  0
   -3.2080   23.4950  -30.4780 N   0  0  0  0  0  0  0  0  0  0  0  0
   -4.1460   24.5500  -30.2160 C   0  0  0  0  0  0  0  0  0  0  0  0
   -4.0030   25.6690  -30.7770 O   0  0  0  0  0  0  0  0  0  0  0  0
   -5.3230   24.3180  -29.3190 C   0  0  0  0  0  0  0  0  0  0  0  0
   -6.8190   24.1670  -30.2740 Cl  0  0  0  0  0  0  0  0  0  0  0  0
   -3.4310   22.3910  -31.2220 C   0  0  0  0  0  0  0  0  0  0  0  0
   -4.5990   22.0220  -31.8940 C   0  0  0  0  0  0  0  0  0  0  0  0
   -9.5595   19.2054  -31.2261 H   0  0  0  0  0  0  0  0  0  0  0  0
   -9.3863   20.0967  -32.7760 H   0  0  0  0  0  0  0  0  0  0  0  0
   -9.4670   18.3022  -32.7760 H   0  0  0  0  0  0  0  0  0  0  0  0
   -7.4430   18.9510  -31.0860 H   0  0  0  0  0  0  0  0  0  0  0  0
   -7.8701   17.3439  -33.2084 H   0  0  0  0  0  0  0  0  0  0  0  0
   -6.4337   18.3929  -33.6407 H   0  0  0  0  0  0  0  0  0  0  0  0
   -5.6719   19.4083  -33.8244 H   0  0  0  0  0  0  0  0  0  0  0  0
   -5.9982   21.1393  -34.1954 H   0  0  0  0  0  0  0  0  0  0  0  0
   -3.4377   19.0633  -33.2183 H   0  0  0  0  0  0  0  0  0  0  0  0
   -1.3850   19.7534  -31.9344 H   0  0  0  0  0  0  0  0  0  0  0  0
   -0.3462   21.8157  -30.2396 H   0  0  0  0  0  0  0  0  0  0  0  0
   -2.7900   25.8360  -28.9730 H   0  0  0  0  0  0  0  0  0  0  0  0
   -5.1644   23.3921  -28.7467 H   0  0  0  0  0  0  0  0  0  0  0  0
   -5.4230   25.1748  -28.6364 H   0  0  0  0  0  0  0  0  0  0  0  0
   -5.4933   22.6617  -31.8627 H   0  0  0  0  0  0  0  0  0  0  0  0
  1  2  1  0
  2  3  1  0
  3  4  1  0
  4  5  2  0
  4  6  1  0
  2  7  1  0
  7  8  2  0
  7  9  1  0
  9 10  1  0
 10 11  2  0
 11 12  1  0
 12 13  2  0
 13 14  1  0
 14 15  2  0
 15 16  1  0
 16 17  1  0
 16 18  2  0
 15 19  1  0
 19 20  1  0
 20 21  2  0
 20 22  1  0
 22 23  1  0
 19 24  1  0
 24 25  2  0
 25 10  1  0
 24 13  1  0
  1 26  1  0
  1 27  1  0
  1 28  1  0
  2 29  1  1
  3 30  1  0
  3 31  1  0
  9 32  1  0
  9 33  1  0
 11 34  1  0
 12 35  1  0
 14 36  1  0
 17 37  1  0
 22 38  1  0
 22 39  1  0
 25 40  1  0
M  CHG  3   2   1   6  -1  17  -1
M  END
>  <UniqueID>  (69) 
67

>  <SMILES>  (69) 
C[N@@H+](CC(=O)[O-])C(=O)Cc1ccc2cc(C([NH-])=O)n(C(=O)CCl)c2c1

>  <Energy>  (69) 
78.62191309846173

>  <Genealogy>  (69) 
C[NH+](CC(=O)[O-])C(=O)Cc1ccc2cc(C([NH-])=O)n(C(=O)CCl)c2c1 (protonated)
C[N@@H+](CC(=O)[O-])C(=O)Cc1ccc2cc(C([NH-])=O)n(C(=O)CCl)c2c1 (chirality)
C[N@@H+](CC(=O)[O-])C(=O)Cc1ccc2cc(C([NH-])=O)n(C(=O)CCl)c2c1 (3D coordinates assigned)
C[N@@H+](CC(=O)[O-])C(=O)Cc1ccc2cc(C([NH-])=O)n(C(=O)CCl)c2c1 (optimized conformer: 78.62191309846173 kcal/mol)

>  <smiles>  (69) 
CN(CC(=O)O)C(=O)Cc1ccc2cc(C(N)=O)n(C(=O)CCl)c2c1

>  <score_type>  (69) 
oracle

>  <origin>  (69) 
adg

>  <m_score__min__energy>  (69) 
-9.7899999999999991

>  <m_primary>  (69) 
energy

$$$$
70:0
     RDKit          3D

 68 71  0  0  0  0  0  0  0  0999 V2000
   -8.0330   18.5840  -32.5740 C   0  0  0  0  0  0  0  0  0  0  0  0
   -7.9160   20.0040  -32.1090 C   0  0  0  0  0  0  0  0  0  0  0  0
   -9.0560   20.6880  -31.6200 C   0  0  0  0  0  0  0  0  0  0  0  0
   -8.9460   22.0020  -31.1330 C   0  0  0  0  0  0  0  0  0  0  0  0
   -7.6890   22.6000  -31.1430 C   0  0  0  0  0  0  0  0  0  0  0  0
   -7.2930   23.8420  -30.6990 C   0  0  0  0  0  0  0  0  0  0  0  0
   -5.9210   23.9020  -30.9440 C   0  0  0  0  0  0  0  0  0  0  0  0
   -5.0990   25.1030  -30.6970 C   0  0  0  0  0  0  0  0  0  0  0  0
   -3.6840   25.0020  -30.5700 N   0  0  0  0  0  0  0  0  0  0  0  0
   -5.6450   26.2380  -30.6600 O   0  0  0  0  0  0  0  0  0  0  0  0
   -5.4880   22.7440  -31.5150 N   0  0  0  0  0  0  0  0  0  0  0  0
   -4.1430   22.3830  -31.8550 C   0  0  0  0  0  0  0  0  0  0  0  0
   -3.8030   22.2980  -33.0670 O   0  0  0  0  0  0  0  0  0  0  0  0
   -3.2220   22.1110  -30.8380 O   0  0  0  0  0  0  0  0  0  0  0  0
   -2.2490   21.0720  -30.9170 C   0  0  0  0  0  0  0  0  0  0  0  0
   -0.8650   21.5760  -30.4880 C   0  0  0  0  0  0  0  0  0  0  0  0
   -0.3490   20.8920  -29.2110 C   0  0  0  0  0  0  0  0  0  0  0  0
   -0.8700   21.5440  -27.9870 N   0  0  0  0  0  0  0  0  0  0  0  0
    0.1330   22.2030  -27.1190 C   0  0  0  0  0  0  0  0  0  0  0  0
    0.8660   23.4020  -27.7500 C   0  0  0  0  0  0  0  0  0  0  0  0
    0.0660   24.7140  -27.7150 C   0  0  0  0  0  0  0  0  0  0  0  0
   -1.3820   24.5140  -27.5120 N   0  0  0  0  0  0  0  0  0  0  0  0
   -1.9840   25.0710  -26.3200 C   0  0  0  0  0  0  0  0  0  0  0  0
   -3.1580   25.5260  -26.3760 O   0  0  0  0  0  0  0  0  0  0  0  0
   -1.2290   25.1260  -25.0150 C   0  0  0  0  0  0  0  0  0  0  0  0
   -0.3130   26.2870  -24.9770 N   0  0  0  0  0  0  0  0  0  0  0  0
    0.3980   26.4260  -23.6900 C   0  0  0  0  0  0  0  0  0  0  0  0
    0.5050   27.9170  -23.3770 C   0  0  0  0  0  0  0  0  0  0  0  0
   -0.1960   28.6250  -24.5210 C   0  0  0  0  0  0  0  0  0  0  0  0
   -1.0370   27.5470  -25.1680 C   0  0  0  0  0  0  0  0  0  0  0  0
   -2.1750   23.7020  -28.4490 C   0  0  0  0  0  0  0  0  0  0  0  0
   -2.1960   22.1970  -28.0900 C   0  0  0  0  0  0  0  0  0  0  0  0
   -6.5790   21.9540  -31.6250 C   0  0  0  0  0  0  0  0  0  0  0  0
   -6.6530   20.6390  -32.0940 C   0  0  0  0  0  0  0  0  0  0  0  0
   -8.0880   17.9159  -31.7018 H   0  0  0  0  0  0  0  0  0  0  0  0
   -8.9435   18.4707  -33.1807 H   0  0  0  0  0  0  0  0  0  0  0  0
   -7.1533   18.3232  -33.1807 H   0  0  0  0  0  0  0  0  0  0  0  0
  -10.0352   20.1869  -31.6214 H   0  0  0  0  0  0  0  0  0  0  0  0
   -9.8270   22.5416  -30.7553 H   0  0  0  0  0  0  0  0  0  0  0  0
   -7.9244   24.6212  -30.2472 H   0  0  0  0  0  0  0  0  0  0  0  0
   -3.1450   24.2930  -31.1180 H   0  0  0  0  0  0  0  0  0  0  0  0
   -2.5511   20.2462  -30.2561 H   0  0  0  0  0  0  0  0  0  0  0  0
   -2.1877   20.7301  -31.9607 H   0  0  0  0  0  0  0  0  0  0  0  0
   -0.1523   21.3814  -31.3030 H   0  0  0  0  0  0  0  0  0  0  0  0
   -0.9569   22.6508  -30.2729 H   0  0  0  0  0  0  0  0  0  0  0  0
   -0.6688   19.8395  -29.2171 H   0  0  0  0  0  0  0  0  0  0  0  0
    0.7480   20.9727  -29.2001 H   0  0  0  0  0  0  0  0  0  0  0  0
   -0.3820   22.5579  -26.2141 H   0  0  0  0  0  0  0  0  0  0  0  0
    0.9056   21.4459  -26.9193 H   0  0  0  0  0  0  0  0  0  0  0  0
    1.8085   23.5571  -27.2044 H   0  0  0  0  0  0  0  0  0  0  0  0
    1.0253   23.1551  -28.8100 H   0  0  0  0  0  0  0  0  0  0  0  0
    0.4507   25.3348  -26.8924 H   0  0  0  0  0  0  0  0  0  0  0  0
    0.1922   25.1967  -28.6953 H   0  0  0  0  0  0  0  0  0  0  0  0
   -1.9485   25.2091  -24.1871 H   0  0  0  0  0  0  0  0  0  0  0  0
   -0.6320   24.2072  -24.9183 H   0  0  0  0  0  0  0  0  0  0  0  0
   -0.1645   25.9156  -22.8943 H   0  0  0  0  0  0  0  0  0  0  0  0
    1.3983   25.9726  -23.7517 H   0  0  0  0  0  0  0  0  0  0  0  0
    0.0088   28.1455  -22.4222 H   0  0  0  0  0  0  0  0  0  0  0  0
    1.5525   28.2385  -23.2800 H   0  0  0  0  0  0  0  0  0  0  0  0
   -0.8305   29.4407  -24.1442 H   0  0  0  0  0  0  0  0  0  0  0  0
    0.5110   29.0865  -25.2261 H   0  0  0  0  0  0  0  0  0  0  0  0
   -2.0248   27.4949  -24.6867 H   0  0  0  0  0  0  0  0  0  0  0  0
   -1.2000   27.7554  -26.2357 H   0  0  0  0  0  0  0  0  0  0  0  0
   -3.2095   24.0760  -28.4457 H   0  0  0  0  0  0  0  0  0  0  0  0
   -1.7036   23.7939  -29.4386 H   0  0  0  0  0  0  0  0  0  0  0  0
   -2.7031   22.0877  -27.1200 H   0  0  0  0  0  0  0  0  0  0  0  0
   -2.7135   21.6968  -28.9219 H   0  0  0  0  0  0  0  0  0  0  0  0
   -5.7522   20.1123  -32.4422 H   0  0  0  0  0  0  0  0  0  0  0  0
  1  2  1  0
  2  3  2  0
  3  4  1  0
  4  5  2  0
  5  6  1  0
  6  7  2  0
  7  8  1  0
  8  9  1  0
  8 10  2  0
  7 11  1  0
 11 12  1  0
 12 13  2  0
 12 14  1  0
 14 15  1  0
 15 16  1  0
 16 17  1  0
 17 18  1  0
 18 19  1  0
 19 20  1  0
 20 21  1  0
 21 22  1  0
 22 23  1  0
 23 24  2  0
 23 25  1  0
 25 26  1  0
 26 27  1  0
 27 28  1  0
 28 29  1  0
 29 30  1  0
 22 31  1  0
 31 32  1  0
 11 33  1  0
 33 34  2  0
 34  2  1  0
 33  5  1  0
 32 18  1  0
 30 26  1  0
  1 35  1  0
  1 36  1  0
  1 37  1  0
  3 38  1  0
  4 39  1  0
  6 40  1  0
  9 41  1  0
 15 42  1  0
 15 43  1  0
 16 44  1  0
 16 45  1  0
 17 46  1  0
 17 47  1  0
 19 48  1  0
 19 49  1  0
 20 50  1  0
 20 51  1  0
 21 52  1  0
 21 53  1  0
 25 54  1  0
 25 55  1  0
 27 56  1  0
 27 57  1  0
 28 58  1  0
 28 59  1  0
 29 60  1  0
 29 61  1  0
 30 62  1  0
 30 63  1  0
 31 64  1  0
 31 65  1  0
 32 66  1  0
 32 67  1  0
 34 68  1  0
M  CHG  1   9  -1
M  END
>  <UniqueID>  (70) 
68

>  <SMILES>  (70) 
Cc1ccc2cc(C([NH-])=O)n(C(=O)OCCCN3CCCN(C(=O)CN4CCCC4)CC3)c2c1

>  <Energy>  (70) 
124.95973230642917

>  <Genealogy>  (70) 
Cc1ccc2cc(C([NH-])=O)n(C(=O)OCCCN3CCCN(C(=O)CN4CCCC4)CC3)c2c1 (protonated)
Cc1ccc2cc(C([NH-])=O)n(C(=O)OCCCN3CCCN(C(=O)CN4CCCC4)CC3)c2c1 (3D coordinates assigned)
Cc1ccc2cc(C([NH-])=O)n(C(=O)OCCCN3CCCN(C(=O)CN4CCCC4)CC3)c2c1 (nonaromatic ring conformer: 124.95973230642917 kcal/mol)

>  <smiles>  (70) 
Cc1ccc2cc(C(N)=O)n(C(=O)OCCCN3CCCN(C(=O)CN4CCCC4)CC3)c2c1

>  <score_type>  (70) 
oracle

>  <origin>  (70) 
adg

>  <m_score__min__energy>  (70) 
-9.6999999999999993

>  <m_primary>  (70) 
energy

$$$$
71:0
     RDKit          3D

 44 45  0  0  0  0  0  0  0  0999 V2000
   -1.9170   21.0210  -28.6080 C   0  0  0  0  0  0  0  0  0  0  0  0
   -2.1510   22.2790  -29.3230 N   0  0  0  0  0  0  0  0  0  0  0  0
   -2.2750   23.5110  -28.5330 C   0  0  0  0  0  0  0  0  0  0  0  0
   -1.2530   24.5100  -28.9680 C   0  0  0  0  0  0  0  0  0  0  0  0
   -1.6080   25.6630  -29.3260 O   0  0  0  0  0  0  0  0  0  0  0  0
    0.0960   24.1820  -28.9430 O   0  0  0  0  0  0  0  0  0  0  0  0
   -2.4430   22.2920  -30.7370 C   0  0  0  0  0  0  0  0  0  0  0  0
   -1.5000   22.2920  -31.5730 O   0  0  0  0  0  0  0  0  0  0  0  0
   -3.7980   22.3430  -31.2170 N   0  0  0  0  0  0  0  0  0  0  0  0
   -4.8070   23.0420  -30.4150 C   0  0  0  0  0  0  0  0  0  0  0  0
   -4.9270   24.4680  -30.8510 C   0  0  0  0  0  0  0  0  0  0  0  0
   -5.9710   24.8690  -31.4300 O   0  0  0  0  0  0  0  0  0  0  0  0
   -3.9020   25.3650  -30.5790 O   0  0  0  0  0  0  0  0  0  0  0  0
   -4.1570   21.7380  -32.4780 C   0  0  0  0  0  0  0  0  0  0  0  0
   -3.8880   22.3300  -33.5590 O   0  0  0  0  0  0  0  0  0  0  0  0
   -4.8420   20.4770  -32.5250 N   0  0  0  0  0  0  0  0  0  0  0  0
   -4.3130   19.2430  -32.7540 C   0  0  0  0  0  0  0  0  0  0  0  0
   -2.8980   18.9700  -33.0960 C   0  0  0  0  0  0  0  0  0  0  0  0
   -1.9540   20.0360  -33.2260 N   0  0  0  0  0  0  0  0  0  0  0  0
   -2.5060   17.7850  -33.2570 O   0  0  0  0  0  0  0  0  0  0  0  0
   -5.3150   18.2720  -32.7100 C   0  0  0  0  0  0  0  0  0  0  0  0
   -6.4800   18.9600  -32.4540 C   0  0  0  0  0  0  0  0  0  0  0  0
   -7.7860   18.4970  -32.3080 C   0  0  0  0  0  0  0  0  0  0  0  0
   -8.7940   19.4400  -32.0450 C   0  0  0  0  0  0  0  0  0  0  0  0
   -8.4810   20.8180  -31.9280 C   0  0  0  0  0  0  0  0  0  0  0  0
   -9.5730   21.8130  -31.6600 C   0  0  0  0  0  0  0  0  0  0  0  0
   -9.1820   23.0690  -32.0900 F   0  0  0  0  0  0  0  0  0  0  0  0
   -9.8370   21.8580  -30.3050 F   0  0  0  0  0  0  0  0  0  0  0  0
   -7.1470   21.2510  -32.0930 C   0  0  0  0  0  0  0  0  0  0  0  0
   -6.1660   20.2890  -32.3550 C   0  0  0  0  0  0  0  0  0  0  0  0
   -1.9510   21.2037  -27.5238 H   0  0  0  0  0  0  0  0  0  0  0  0
   -2.6952   20.2934  -28.8818 H   0  0  0  0  0  0  0  0  0  0  0  0
   -0.9292   20.6219  -28.8818 H   0  0  0  0  0  0  0  0  0  0  0  0
   -3.2802   23.9343  -28.6759 H   0  0  0  0  0  0  0  0  0  0  0  0
   -2.1141   23.2733  -27.4711 H   0  0  0  0  0  0  0  0  0  0  0  0
   -5.7788   22.5422  -30.5402 H   0  0  0  0  0  0  0  0  0  0  0  0
   -4.5013   23.0175  -29.3586 H   0  0  0  0  0  0  0  0  0  0  0  0
   -2.2430   21.0350  -33.1560 H   0  0  0  0  0  0  0  0  0  0  0  0
   -0.9470   19.8260  -33.4130 H   0  0  0  0  0  0  0  0  0  0  0  0
   -5.1986   17.1872  -32.8501 H   0  0  0  0  0  0  0  0  0  0  0  0
   -8.0208   17.4260  -32.3959 H   0  0  0  0  0  0  0  0  0  0  0  0
   -9.8356   19.1061  -31.9288 H   0  0  0  0  0  0  0  0  0  0  0  0
  -10.4785   21.5062  -32.2040 H   0  0  0  0  0  0  0  0  0  0  0  0
   -6.8862   22.3170  -32.0175 H   0  0  0  0  0  0  0  0  0  0  0  0
  1  2  1  0
  2  3  1  0
  3  4  1  0
  4  5  2  0
  4  6  1  0
  2  7  1  0
  7  8  2  0
  7  9  1  0
  9 10  1  0
 10 11  1  0
 11 12  2  0
 11 13  1  0
  9 14  1  0
 14 15  2  0
 14 16  1  0
 16 17  1  0
 17 18  1  0
 18 19  1  0
 18 20  2  0
 17 21  2  0
 21 22  1  0
 22 23  2  0
 23 24  1  0
 24 25  2  0
 25 26  1  0
 26 27  1  0
 26 28  1  0
 25 29  1  0
 29 30  2  0
 30 16  1  0
 30 22  1  0
  1 31  1  0
  1 32  1  0
  1 33  1  0
  3 34  1  0
  3 35  1  0
 10 36  1  0
 10 37  1  0
 19 38  1  0
 19 39  1  0
 21 40  1  0
 23 41  1  0
 24 42  1  0
 26 43  1  0
 29 44  1  0
M  CHG  2   6  -1  13  -1
M  END
>  <UniqueID>  (71) 
69

>  <SMILES>  (71) 
CN(CC(=O)[O-])C(=O)N(CC(=O)[O-])C(=O)n1c(C(N)=O)cc2ccc(C(F)F)cc21

>  <Energy>  (71) 
81.10795940704577

>  <Genealogy>  (71) 
CN(CC(=O)[O-])C(=O)N(CC(=O)[O-])C(=O)n1c(C(N)=O)cc2ccc(C(F)F)cc21 (protonated)
CN(CC(=O)[O-])C(=O)N(CC(=O)[O-])C(=O)n1c(C(N)=O)cc2ccc(C(F)F)cc21 (3D coordinates assigned)
CN(CC(=O)[O-])C(=O)N(CC(=O)[O-])C(=O)n1c(C(N)=O)cc2ccc(C(F)F)cc21 (optimized conformer: 81.10795940704577 kcal/mol)

>  <smiles>  (71) 
CN(CC(=O)O)C(=O)N(CC(=O)O)C(=O)n1c(C(N)=O)cc2ccc(C(F)F)cc21

>  <score_type>  (71) 
oracle

>  <origin>  (71) 
adg

>  <m_score__min__energy>  (71) 
-11.470000000000001

>  <m_primary>  (71) 
energy

$$$$
72:0
     RDKit          3D

 47 48  0  0  0  0  0  0  0  0999 V2000
   -0.4860   26.6750  -26.9880 C   0  0  0  0  0  0  0  0  0  0  0  0
   -0.9710   25.2230  -27.8980 S   0  0  0  0  0  0  0  0  0  0  0  0
   -1.9810   25.6060  -28.9430 O   0  0  0  0  0  0  0  0  0  0  0  0
    0.2430   24.6580  -28.5820 O   0  0  0  0  0  0  0  0  0  0  0  0
   -1.6270   23.9840  -26.7710 C   0  0  0  0  0  0  0  0  0  0  0  0
   -3.0790   23.5460  -27.0600 C   0  0  1  0  0  0  0  0  0  0  0  0
   -4.0950   24.6600  -26.7540 C   0  0  0  0  0  0  0  0  0  0  0  0
   -4.8500   24.9350  -27.9010 O   0  0  0  0  0  0  0  0  0  0  0  0
   -3.2240   23.0710  -28.4410 N   0  0  0  0  0  0  0  0  0  0  0  0
   -3.2260   21.6750  -28.7790 C   0  0  0  0  0  0  0  0  0  0  0  0
   -3.0450   20.8030  -27.8860 O   0  0  0  0  0  0  0  0  0  0  0  0
   -3.4600   21.2370  -30.1950 C   0  0  0  0  0  0  0  0  0  0  0  0
   -3.9170   22.3800  -31.0580 C   0  0  0  0  0  0  0  0  0  0  0  0
   -3.0700   23.1410  -31.5970 O   0  0  0  0  0  0  0  0  0  0  0  0
   -5.3120   22.6940  -31.1580 N   0  0  0  0  0  0  0  0  0  0  0  0
   -5.9130   23.9020  -30.9830 C   0  0  0  0  0  0  0  0  0  0  0  0
   -5.2450   25.1290  -30.5110 C   0  0  0  0  0  0  0  0  0  0  0  0
   -3.8540   25.3270  -30.7680 N   0  0  0  0  0  0  0  0  0  0  0  0
   -5.8960   26.0210  -29.9070 O   0  0  0  0  0  0  0  0  0  0  0  0
   -7.2780   23.8100  -31.2470 C   0  0  0  0  0  0  0  0  0  0  0  0
   -7.4950   22.4920  -31.5860 C   0  0  0  0  0  0  0  0  0  0  0  0
   -8.6700   21.8360  -31.9370 C   0  0  0  0  0  0  0  0  0  0  0  0
   -8.5940   20.4670  -32.2460 C   0  0  0  0  0  0  0  0  0  0  0  0
   -7.3490   19.7830  -32.2190 C   0  0  0  0  0  0  0  0  0  0  0  0
   -7.2820   18.3050  -32.5060 C   0  0  0  0  0  0  0  0  0  0  0  0
   -6.8960   18.0720  -33.8160 F   0  0  0  0  0  0  0  0  0  0  0  0
   -8.5290   17.7440  -32.2970 F   0  0  0  0  0  0  0  0  0  0  0  0
   -6.3630   17.6910  -31.6720 F   0  0  0  0  0  0  0  0  0  0  0  0
   -6.1810   20.4830  -31.8360 C   0  0  0  0  0  0  0  0  0  0  0  0
   -6.2910   21.8410  -31.5250 C   0  0  0  0  0  0  0  0  0  0  0  0
   -0.5540   26.4713  -25.9092 H   0  0  0  0  0  0  0  0  0  0  0  0
    0.5497   26.9407  -27.2464 H   0  0  0  0  0  0  0  0  0  0  0  0
   -1.1541   27.5098  -27.2464 H   0  0  0  0  0  0  0  0  0  0  0  0
   -0.9835   23.0938  -26.8297 H   0  0  0  0  0  0  0  0  0  0  0  0
   -1.6376   24.4487  -25.7740 H   0  0  0  0  0  0  0  0  0  0  0  0
   -3.3007   22.7092  -26.3813 H   0  0  0  0  0  0  0  0  0  0  0  0
   -4.7644   24.3328  -25.9448 H   0  0  0  0  0  0  0  0  0  0  0  0
   -3.5585   25.5686  -26.4432 H   0  0  0  0  0  0  0  0  0  0  0  0
   -4.2140   25.3070  -28.5660 H   0  0  0  0  0  0  0  0  0  0  0  0
   -3.3980   23.7650  -29.2040 H   0  0  0  0  0  0  0  0  0  0  0  0
   -2.5219   20.8336  -30.6038 H   0  0  0  0  0  0  0  0  0  0  0  0
   -4.2486   20.4701  -30.1927 H   0  0  0  0  0  0  0  0  0  0  0  0
   -3.1280   24.8000  -30.2330 H   0  0  0  0  0  0  0  0  0  0  0  0
   -8.0235   24.6173  -31.1958 H   0  0  0  0  0  0  0  0  0  0  0  0
   -9.6298   22.3723  -31.9717 H   0  0  0  0  0  0  0  0  0  0  0  0
   -9.5096   19.9184  -32.5120 H   0  0  0  0  0  0  0  0  0  0  0  0
   -5.2091   19.9705  -31.7842 H   0  0  0  0  0  0  0  0  0  0  0  0
  1  2  1  0
  2  3  2  0
  2  4  2  0
  2  5  1  0
  5  6  1  0
  6  7  1  0
  7  8  1  0
  6  9  1  0
  9 10  1  0
 10 11  2  0
 10 12  1  0
 12 13  1  0
 13 14  2  0
 13 15  1  0
 15 16  1  0
 16 17  1  0
 17 18  1  0
 17 19  2  0
 16 20  2  0
 20 21  1  0
 21 22  2  0
 22 23  1  0
 23 24  2  0
 24 25  1  0
 25 26  1  0
 25 27  1  0
 25 28  1  0
 24 29  1  0
 29 30  2  0
 30 15  1  0
 30 21  1  0
  1 31  1  0
  1 32  1  0
  1 33  1  0
  5 34  1  0
  5 35  1  0
  6 36  1  1
  7 37  1  0
  7 38  1  0
  8 39  1  0
  9 40  1  0
 12 41  1  0
 12 42  1  0
 18 43  1  0
 20 44  1  0
 22 45  1  0
 23 46  1  0
 29 47  1  0
M  CHG  1  18  -1
M  END
>  <UniqueID>  (72) 
70

>  <SMILES>  (72) 
CS(=O)(=O)C[C@@H](CO)NC(=O)CC(=O)n1c(C([NH-])=O)cc2ccc(C(F)(F)F)cc21

>  <Energy>  (72) 
75.84776147192258

>  <Genealogy>  (72) 
CS(=O)(=O)CC(CO)NC(=O)CC(=O)n1c(C([NH-])=O)cc2ccc(C(F)(F)F)cc21 (protonated)
CS(=O)(=O)C[C@@H](CO)NC(=O)CC(=O)n1c(C([NH-])=O)cc2ccc(C(F)(F)F)cc21 (chirality)
CS(=O)(=O)C[C@@H](CO)NC(=O)CC(=O)n1c(C([NH-])=O)cc2ccc(C(F)(F)F)cc21 (3D coordinates assigned)
CS(=O)(=O)C[C@@H](CO)NC(=O)CC(=O)n1c(C([NH-])=O)cc2ccc(C(F)(F)F)cc21 (optimized conformer: 75.84776147192258 kcal/mol)

>  <smiles>  (72) 
CS(=O)(=O)CC(CO)NC(=O)CC(=O)n1c(C(N)=O)cc2ccc(C(F)(F)F)cc21

>  <score_type>  (72) 
oracle

>  <origin>  (72) 
adg

>  <m_score__min__energy>  (72) 
-11.109999999999999

>  <m_primary>  (72) 
energy

$$$$
73:0
     RDKit          3D

 36 37  0  0  0  0  0  0  0  0999 V2000
   -6.5680   18.2960  -32.3210 C   0  0  0  0  0  0  0  0  0  0  0  0
   -6.7850   19.7540  -32.0480 C   0  0  0  0  0  0  0  0  0  0  0  0
   -8.0520   20.3400  -32.2870 C   0  0  0  0  0  0  0  0  0  0  0  0
   -8.2610   21.7110  -32.0580 C   0  0  0  0  0  0  0  0  0  0  0  0
   -7.1820   22.4700  -31.6130 C   0  0  0  0  0  0  0  0  0  0  0  0
   -7.1120   23.8060  -31.2940 C   0  0  0  0  0  0  0  0  0  0  0  0
   -5.7930   24.0240  -30.9020 C   0  0  0  0  0  0  0  0  0  0  0  0
   -5.2570   25.3560  -30.5510 C   0  0  0  0  0  0  0  0  0  0  0  0
   -3.8990   25.6740  -30.8430 N   0  0  0  0  0  0  0  0  0  0  0  0
   -5.9760   26.2050  -29.9610 O   0  0  0  0  0  0  0  0  0  0  0  0
   -5.0760   22.8660  -30.9720 N   0  0  0  0  0  0  0  0  0  0  0  0
   -3.7100   22.6540  -30.5810 C   0  0  0  0  0  0  0  0  0  0  0  0
   -2.7810   23.2370  -31.2040 O   0  0  0  0  0  0  0  0  0  0  0  0
   -3.4170   21.7870  -29.5210 O   0  0  0  0  0  0  0  0  0  0  0  0
   -2.3360   21.9920  -28.6140 C   0  0  0  0  0  0  0  0  0  0  0  0
   -2.3710   23.4190  -28.0400 C   0  0  2  0  0  0  0  0  0  0  0  0
   -3.5230   24.1060  -28.4640 O   0  0  0  0  0  0  0  0  0  0  0  0
   -1.1000   24.2160  -28.3860 C   0  0  0  0  0  0  0  0  0  0  0  0
   -1.3680   25.2200  -29.3290 O   0  0  0  0  0  0  0  0  0  0  0  0
   -5.9400   21.9240  -31.4100 C   0  0  0  0  0  0  0  0  0  0  0  0
   -5.7090   20.5580  -31.6120 C   0  0  0  0  0  0  0  0  0  0  0  0
   -6.4871   17.7526  -31.3680 H   0  0  0  0  0  0  0  0  0  0  0  0
   -7.4172   17.9006  -32.8976 H   0  0  0  0  0  0  0  0  0  0  0  0
   -5.6405   18.1650  -32.8976 H   0  0  0  0  0  0  0  0  0  0  0  0
   -8.8801   19.7165  -32.6552 H   0  0  0  0  0  0  0  0  0  0  0  0
   -9.2466   22.1700  -32.2252 H   0  0  0  0  0  0  0  0  0  0  0  0
   -7.9250   24.5456  -31.3389 H   0  0  0  0  0  0  0  0  0  0  0  0
   -3.1160   25.2020  -30.3390 H   0  0  0  0  0  0  0  0  0  0  0  0
   -2.4149   21.2688  -27.7889 H   0  0  0  0  0  0  0  0  0  0  0  0
   -1.3887   21.8516  -29.1552 H   0  0  0  0  0  0  0  0  0  0  0  0
   -2.4068   23.3234  -26.9447 H   0  0  0  0  0  0  0  0  0  0  0  0
   -3.3930   24.3580  -29.4150 H   0  0  0  0  0  0  0  0  0  0  0  0
   -0.7081   24.6809  -27.4693 H   0  0  0  0  0  0  0  0  0  0  0  0
   -0.3626   23.5230  -28.8172 H   0  0  0  0  0  0  0  0  0  0  0  0
   -2.0430   24.8530  -29.9580 H   0  0  0  0  0  0  0  0  0  0  0  0
   -4.7146   20.1221  -31.4356 H   0  0  0  0  0  0  0  0  0  0  0  0
  1  2  1  0
  2  3  2  0
  3  4  1  0
  4  5  2  0
  5  6  1  0
  6  7  2  0
  7  8  1  0
  8  9  1  0
  8 10  2  0
  7 11  1  0
 11 12  1  0
 12 13  2  0
 12 14  1  0
 14 15  1  0
 15 16  1  0
 16 17  1  0
 16 18  1  0
 18 19  1  0
 11 20  1  0
 20 21  2  0
 21  2  1  0
 20  5  1  0
  1 22  1  0
  1 23  1  0
  1 24  1  0
  3 25  1  0
  4 26  1  0
  6 27  1  0
  9 28  1  0
 15 29  1  0
 15 30  1  0
 16 31  1  1
 17 32  1  0
 18 33  1  0
 18 34  1  0
 19 35  1  0
 21 36  1  0
M  CHG  1   9  -1
M  END
>  <UniqueID>  (73) 
71

>  <SMILES>  (73) 
Cc1ccc2cc(C([NH-])=O)n(C(=O)OC[C@H](O)CO)c2c1

>  <Energy>  (73) 
69.05580534006188

>  <Genealogy>  (73) 
Cc1ccc2cc(C([NH-])=O)n(C(=O)OC[C@H](O)CO)c2c1 (protonated)
Cc1ccc2cc(C([NH-])=O)n(C(=O)OC[C@H](O)CO)c2c1 (3D coordinates assigned)
Cc1ccc2cc(C([NH-])=O)n(C(=O)OC[C@H](O)CO)c2c1 (optimized conformer: 69.05580534006188 kcal/mol)

>  <smiles>  (73) 
Cc1ccc2cc(C(N)=O)n(C(=O)OC[C@H](O)CO)c2c1

>  <score_type>  (73) 
oracle

>  <origin>  (73) 
adg

>  <m_score__min__energy>  (73) 
-10.09

>  <m_primary>  (73) 
energy

$$$$
74:0
     RDKit          3D

 46 47  0  0  0  0  0  0  0  0999 V2000
   -6.8220   18.4130  -33.2700 C   0  0  0  0  0  0  0  0  0  0  0  0
   -6.9900   19.7540  -32.6240 C   0  0  0  0  0  0  0  0  0  0  0  0
   -8.2850   20.3120  -32.4750 C   0  0  0  0  0  0  0  0  0  0  0  0
   -8.4570   21.5820  -31.8990 C   0  0  0  0  0  0  0  0  0  0  0  0
   -7.3190   22.2740  -31.4960 C   0  0  0  0  0  0  0  0  0  0  0  0
   -7.1920   23.5080  -30.8980 C   0  0  0  0  0  0  0  0  0  0  0  0
   -5.8220   23.6930  -30.7190 C   0  0  0  0  0  0  0  0  0  0  0  0
   -5.2270   24.9280  -30.1660 C   0  0  0  0  0  0  0  0  0  0  0  0
   -4.1080   25.5480  -30.7920 N   0  0  0  0  0  0  0  0  0  0  0  0
   -5.7360   25.4630  -29.1450 O   0  0  0  0  0  0  0  0  0  0  0  0
   -5.1310   22.6130  -31.1820 N   0  0  0  0  0  0  0  0  0  0  0  0
   -3.7190   22.3700  -31.1210 C   0  0  0  0  0  0  0  0  0  0  0  0
   -2.9130   23.3270  -31.2810 O   0  0  0  0  0  0  0  0  0  0  0  0
   -3.1900   20.9750  -30.9830 C   0  0  0  0  0  0  0  0  0  0  0  0
   -2.5620   20.8550  -29.7240 O   0  0  0  0  0  0  0  0  0  0  0  0
   -2.9650   21.9160  -28.8890 C   0  0  0  0  0  0  0  0  0  0  0  0
   -2.2820   21.7910  -27.5590 C   0  0  0  0  0  0  0  0  0  0  0  0
   -2.3920   20.7010  -26.9310 O   0  0  0  0  0  0  0  0  0  0  0  0
   -1.5390   22.8790  -26.9630 N   0  0  0  0  0  0  0  0  0  0  0  0
   -0.3670   22.5290  -26.1520 C   0  0  0  0  0  0  0  0  0  0  0  0
   -1.8420   24.3080  -27.2170 C   0  0  2  0  0  0  0  0  0  0  0  0
   -3.3570   24.5580  -27.2790 C   0  0  0  0  0  0  0  0  0  0  0  0
   -1.1070   24.8190  -28.4330 C   0  0  0  0  0  0  0  0  0  0  0  0
   -1.6360   25.6710  -29.1960 O   0  0  0  0  0  0  0  0  0  0  0  0
    0.2050   24.4180  -28.6670 O   0  0  0  0  0  0  0  0  0  0  0  0
   -6.0590   21.7560  -31.6560 C   0  0  0  0  0  0  0  0  0  0  0  0
   -5.8570   20.4920  -32.2150 C   0  0  0  0  0  0  0  0  0  0  0  0
   -6.7253   17.6410  -32.4924 H   0  0  0  0  0  0  0  0  0  0  0  0
   -7.6999   18.1950  -33.8960 H   0  0  0  0  0  0  0  0  0  0  0  0
   -5.9175   18.4183  -33.8960 H   0  0  0  0  0  0  0  0  0  0  0  0
   -9.1643   19.7446  -32.8139 H   0  0  0  0  0  0  0  0  0  0  0  0
   -9.4598   22.0156  -31.7707 H   0  0  0  0  0  0  0  0  0  0  0  0
   -8.0002   24.2007  -30.6205 H   0  0  0  0  0  0  0  0  0  0  0  0
   -3.1320   25.3040  -30.5130 H   0  0  0  0  0  0  0  0  0  0  0  0
   -4.0189   20.2554  -31.0540 H   0  0  0  0  0  0  0  0  0  0  0  0
   -2.4674   20.7655  -31.7854 H   0  0  0  0  0  0  0  0  0  0  0  0
   -2.6897   22.8740  -29.3543 H   0  0  0  0  0  0  0  0  0  0  0  0
   -4.0551   21.8780  -28.7471 H   0  0  0  0  0  0  0  0  0  0  0  0
   -0.6233   22.6055  -25.0850 H   0  0  0  0  0  0  0  0  0  0  0  0
   -0.0566   21.4990  -26.3816 H   0  0  0  0  0  0  0  0  0  0  0  0
    0.4574   23.2201  -26.3816 H   0  0  0  0  0  0  0  0  0  0  0  0
   -1.4691   24.8935  -26.3637 H   0  0  0  0  0  0  0  0  0  0  0  0
   -3.7598   24.6245  -26.2575 H   0  0  0  0  0  0  0  0  0  0  0  0
   -3.5516   25.5004  -27.8119 H   0  0  0  0  0  0  0  0  0  0  0  0
   -3.8441   23.7281  -27.8119 H   0  0  0  0  0  0  0  0  0  0  0  0
   -4.8431   20.0823  -32.3336 H   0  0  0  0  0  0  0  0  0  0  0  0
  1  2  1  0
  2  3  2  0
  3  4  1  0
  4  5  2  0
  5  6  1  0
  6  7  2  0
  7  8  1  0
  8  9  1  0
  8 10  2  0
  7 11  1  0
 11 12  1  0
 12 13  2  0
 12 14  1  0
 14 15  1  0
 15 16  1  0
 16 17  1  0
 17 18  2  0
 17 19  1  0
 19 20  1  0
 19 21  1  0
 21 22  1  0
 21 23  1  0
 23 24  2  0
 23 25  1  0
 11 26  1  0
 26 27  2  0
 27  2  1  0
 26  5  1  0
  1 28  1  0
  1 29  1  0
  1 30  1  0
  3 31  1  0
  4 32  1  0
  6 33  1  0
  9 34  1  0
 14 35  1  0
 14 36  1  0
 16 37  1  0
 16 38  1  0
 20 39  1  0
 20 40  1  0
 20 41  1  0
 21 42  1  1
 22 43  1  0
 22 44  1  0
 22 45  1  0
 27 46  1  0
M  CHG  2   9  -1  25  -1
M  END
>  <UniqueID>  (74) 
72

>  <SMILES>  (74) 
Cc1ccc2cc(C([NH-])=O)n(C(=O)COCC(=O)N(C)[C@H](C)C(=O)[O-])c2c1

>  <Energy>  (74) 
86.02624799694334

>  <Genealogy>  (74) 
Cc1ccc2cc(C([NH-])=O)n(C(=O)COCC(=O)N(C)[C@H](C)C(=O)[O-])c2c1 (protonated)
Cc1ccc2cc(C([NH-])=O)n(C(=O)COCC(=O)N(C)[C@H](C)C(=O)[O-])c2c1 (3D coordinates assigned)
Cc1ccc2cc(C([NH-])=O)n(C(=O)COCC(=O)N(C)[C@H](C)C(=O)[O-])c2c1 (optimized conformer: 86.02624799694334 kcal/mol)

>  <smiles>  (74) 
Cc1ccc2cc(C(N)=O)n(C(=O)COCC(=O)N(C)[C@H](C)C(=O)O)c2c1

>  <score_type>  (74) 
oracle

>  <origin>  (74) 
adg

>  <m_score__min__energy>  (74) 
-12.93

>  <m_primary>  (74) 
energy

$$$$
75:0
     RDKit          3D

 56 57  0  0  0  0  0  0  0  0999 V2000
   -8.5410   18.7420  -32.1690 C   0  0  0  0  0  0  0  0  0  0  0  0
   -8.2510   20.1900  -31.9040 C   0  0  0  0  0  0  0  0  0  0  0  0
   -9.2840   21.1550  -31.9990 C   0  0  0  0  0  0  0  0  0  0  0  0
   -9.0190   22.5130  -31.7590 C   0  0  0  0  0  0  0  0  0  0  0  0
   -7.7120   22.8770  -31.4450 C   0  0  0  0  0  0  0  0  0  0  0  0
   -7.1890   24.1110  -31.1340 C   0  0  0  0  0  0  0  0  0  0  0  0
   -5.8370   23.8880  -30.8860 C   0  0  0  0  0  0  0  0  0  0  0  0
   -4.8790   24.9710  -30.5820 C   0  0  0  0  0  0  0  0  0  0  0  0
   -3.4730   24.7500  -30.6510 N   0  0  0  0  0  0  0  0  0  0  0  0
   -5.3060   26.1210  -30.3000 O   0  0  0  0  0  0  0  0  0  0  0  0
   -5.5370   22.5650  -31.0280 N   0  0  0  0  0  0  0  0  0  0  0  0
   -4.2870   21.9130  -30.7540 C   0  0  0  0  0  0  0  0  0  0  0  0
   -3.7810   21.9750  -29.5980 O   0  0  0  0  0  0  0  0  0  0  0  0
   -3.6420   21.1950  -31.7650 O   0  0  0  0  0  0  0  0  0  0  0  0
   -2.3450   21.5320  -32.2400 C   0  0  0  0  0  0  0  0  0  0  0  0
   -1.3670   21.4760  -31.1080 C   0  0  0  0  0  0  0  0  0  0  0  0
   -0.5870   20.4890  -31.0070 O   0  0  0  0  0  0  0  0  0  0  0  0
   -1.3560   22.5110  -30.1150 N   0  0  0  0  0  0  0  0  0  0  0  0
   -0.2740   22.6510  -29.1450 C   0  0  0  0  0  0  0  0  0  0  0  0
   -0.2390   24.0480  -28.6120 C   0  0  0  0  0  0  0  0  0  0  0  0
    0.8420   24.5210  -28.1680 O   0  0  0  0  0  0  0  0  0  0  0  0
   -1.4010   24.8290  -28.6470 O   0  0  0  0  0  0  0  0  0  0  0  0
   -2.0880   25.2670  -27.4760 C   0  0  0  0  0  0  0  0  0  0  0  0
   -1.3060   24.9310  -26.1840 C   0  0  0  0  0  0  0  0  0  0  0  0
   -0.5180   26.0520  -25.5830 N   0  0  0  0  0  0  0  0  0  0  0  0
    0.8280   25.6010  -25.1520 C   0  0  0  0  0  0  0  0  0  0  0  0
   -1.2480   26.5300  -24.3840 C   0  0  0  0  0  0  0  0  0  0  0  0
   -0.3850   27.1850  -26.5250 C   0  0  0  0  0  0  0  0  0  0  0  0
   -6.6940   21.9610  -31.3760 C   0  0  0  0  0  0  0  0  0  0  0  0
   -6.9350   20.5960  -31.5990 C   0  0  0  0  0  0  0  0  0  0  0  0
   -8.6478   18.2085  -31.2130 H   0  0  0  0  0  0  0  0  0  0  0  0
   -9.4745   18.6543  -32.7442 H   0  0  0  0  0  0  0  0  0  0  0  0
   -7.7132   18.3016  -32.7442 H   0  0  0  0  0  0  0  0  0  0  0  0
  -10.3034   20.8374  -32.2633 H   0  0  0  0  0  0  0  0  0  0  0  0
   -9.8189   23.2658  -31.8172 H   0  0  0  0  0  0  0  0  0  0  0  0
   -7.7252   25.0705  -31.0905 H   0  0  0  0  0  0  0  0  0  0  0  0
   -2.8110   25.3190  -30.0770 H   0  0  0  0  0  0  0  0  0  0  0  0
   -2.0435   20.8176  -33.0203 H   0  0  0  0  0  0  0  0  0  0  0  0
   -2.3616   22.5488  -32.6593 H   0  0  0  0  0  0  0  0  0  0  0  0
   -2.0860   23.2560  -30.1540 H   0  0  0  0  0  0  0  0  0  0  0  0
   -0.4370   21.9486  -28.3143 H   0  0  0  0  0  0  0  0  0  0  0  0
    0.6835   22.4302  -29.6394 H   0  0  0  0  0  0  0  0  0  0  0  0
   -2.2276   26.3566  -27.5331 H   0  0  0  0  0  0  0  0  0  0  0  0
   -3.0543   24.7431  -27.4336 H   0  0  0  0  0  0  0  0  0  0  0  0
   -2.0313   24.5883  -25.4313 H   0  0  0  0  0  0  0  0  0  0  0  0
   -0.5656   24.1713  -26.4750 H   0  0  0  0  0  0  0  0  0  0  0  0
    0.8750   25.5853  -24.0531 H   0  0  0  0  0  0  0  0  0  0  0  0
    1.0182   24.5901  -25.5417 H   0  0  0  0  0  0  0  0  0  0  0  0
    1.5889   26.2933  -25.5417 H   0  0  0  0  0  0  0  0  0  0  0  0
   -0.7270   26.1888  -23.4773 H   0  0  0  0  0  0  0  0  0  0  0  0
   -1.2873   27.6293  -24.3927 H   0  0  0  0  0  0  0  0  0  0  0  0
   -2.2713   26.1265  -24.3927 H   0  0  0  0  0  0  0  0  0  0  0  0
   -0.2750   28.1216  -25.9588 H   0  0  0  0  0  0  0  0  0  0  0  0
    0.5015   27.0332  -27.1583 H   0  0  0  0  0  0  0  0  0  0  0  0
   -1.2826   27.2426  -27.1583 H   0  0  0  0  0  0  0  0  0  0  0  0
   -6.1183   19.8617  -31.5374 H   0  0  0  0  0  0  0  0  0  0  0  0
  1  2  1  0
  2  3  2  0
  3  4  1  0
  4  5  2  0
  5  6  1  0
  6  7  2  0
  7  8  1  0
  8  9  1  0
  8 10  2  0
  7 11  1  0
 11 12  1  0
 12 13  2  0
 12 14  1  0
 14 15  1  0
 15 16  1  0
 16 17  2  0
 16 18  1  0
 18 19  1  0
 19 20  1  0
 20 21  2  0
 20 22  1  0
 22 23  1  0
 23 24  1  0
 24 25  1  0
 25 26  1  0
 25 27  1  0
 25 28  1  0
 11 29  1  0
 29 30  2  0
 30  2  1  0
 29  5  1  0
  1 31  1  0
  1 32  1  0
  1 33  1  0
  3 34  1  0
  4 35  1  0
  6 36  1  0
  9 37  1  0
 15 38  1  0
 15 39  1  0
 18 40  1  0
 19 41  1  0
 19 42  1  0
 23 43  1  0
 23 44  1  0
 24 45  1  0
 24 46  1  0
 26 47  1  0
 26 48  1  0
 26 49  1  0
 27 50  1  0
 27 51  1  0
 27 52  1  0
 28 53  1  0
 28 54  1  0
 28 55  1  0
 30 56  1  0
M  CHG  2   9  -1  25   1
M  END
>  <UniqueID>  (75) 
73

>  <SMILES>  (75) 
Cc1ccc2cc(C([NH-])=O)n(C(=O)OCC(=O)NCC(=O)OCC[N+](C)(C)C)c2c1

>  <Energy>  (75) 
89.91441258022834

>  <Genealogy>  (75) 
Cc1ccc2cc(C([NH-])=O)n(C(=O)OCC(=O)NCC(=O)OCC[N+](C)(C)C)c2c1 (protonated)
Cc1ccc2cc(C([NH-])=O)n(C(=O)OCC(=O)NCC(=O)OCC[N+](C)(C)C)c2c1 (3D coordinates assigned)
Cc1ccc2cc(C([NH-])=O)n(C(=O)OCC(=O)NCC(=O)OCC[N+](C)(C)C)c2c1 (optimized conformer: 89.91441258022834 kcal/mol)

>  <smiles>  (75) 
Cc1ccc2cc(C(N)=O)n(C(=O)OCC(=O)NCC(=O)OCC[N+](C)(C)C)c2c1

>  <score_type>  (75) 
oracle

>  <origin>  (75) 
adg

>  <m_score__min__energy>  (75) 
-10.380000000000001

>  <m_primary>  (75) 
energy

$$$$
76:0
     RDKit          3D

 44 45  0  0  0  0  0  0  0  0999 V2000
   -0.3580   23.7910  -28.6570 C   0  0  0  0  0  0  0  0  0  0  0  0
   -1.1000   22.5810  -29.0670 N   0  0  2  0  0  0  0  0  0  0  0  0
   -1.0750   21.5310  -28.0150 C   0  0  0  0  0  0  0  0  0  0  0  0
   -2.4730   21.1430  -27.5020 C   0  0  0  0  0  0  0  0  0  0  0  0
   -3.4940   22.1110  -27.9240 C   0  0  0  0  0  0  0  0  0  0  0  0
   -4.2990   22.8740  -28.2560 N   0  0  0  0  0  0  0  0  0  0  0  0
   -0.6040   22.0590  -30.3650 C   0  0  0  0  0  0  0  0  0  0  0  0
   -1.6810   21.9280  -31.4140 C   0  0  0  0  0  0  0  0  0  0  0  0
   -1.3710   21.5260  -32.5680 O   0  0  0  0  0  0  0  0  0  0  0  0
   -3.0400   22.2680  -31.0950 N   0  0  0  0  0  0  0  0  0  0  0  0
   -4.1310   22.1870  -32.0270 C   0  0  0  0  0  0  0  0  0  0  0  0
   -3.9460   21.7440  -33.1930 O   0  0  0  0  0  0  0  0  0  0  0  0
   -5.4440   22.6150  -31.6320 N   0  0  0  0  0  0  0  0  0  0  0  0
   -5.7970   23.7940  -31.0480 C   0  0  0  0  0  0  0  0  0  0  0  0
   -4.8950   24.9370  -30.7890 C   0  0  0  0  0  0  0  0  0  0  0  0
   -3.5350   24.7000  -30.4360 N   0  0  0  0  0  0  0  0  0  0  0  0
   -5.3190   26.1200  -30.8500 O   0  0  0  0  0  0  0  0  0  0  0  0
   -7.1650   23.8130  -30.7780 C   0  0  0  0  0  0  0  0  0  0  0  0
   -7.6420   22.6000  -31.2220 C   0  0  0  0  0  0  0  0  0  0  0  0
   -8.9310   22.0770  -31.1910 C   0  0  0  0  0  0  0  0  0  0  0  0
   -9.1280   20.7800  -31.6950 C   0  0  0  0  0  0  0  0  0  0  0  0
   -8.0380   20.0320  -32.2090 C   0  0  0  0  0  0  0  0  0  0  0  0
   -8.2470   18.6390  -32.7310 C   0  0  0  0  0  0  0  0  0  0  0  0
   -9.1960   17.9920  -31.9610 F   0  0  0  0  0  0  0  0  0  0  0  0
   -7.0570   17.9370  -32.6750 F   0  0  0  0  0  0  0  0  0  0  0  0
   -6.7450   20.5950  -32.2170 C   0  0  0  0  0  0  0  0  0  0  0  0
   -6.5820   21.8950  -31.7290 C   0  0  0  0  0  0  0  0  0  0  0  0
   -0.3243   23.8459  -27.5589 H   0  0  0  0  0  0  0  0  0  0  0  0
    0.6670   23.7445  -29.0534 H   0  0  0  0  0  0  0  0  0  0  0  0
   -0.8643   24.6835  -29.0534 H   0  0  0  0  0  0  0  0  0  0  0  0
   -2.0940   22.8680  -29.2340 H   0  0  0  0  0  0  0  0  0  0  0  0
   -0.5950   20.6328  -28.4308 H   0  0  0  0  0  0  0  0  0  0  0  0
   -0.5192   21.9429  -27.1598 H   0  0  0  0  0  0  0  0  0  0  0  0
   -2.7360   20.1514  -27.8990 H   0  0  0  0  0  0  0  0  0  0  0  0
   -2.4442   21.1321  -26.4024 H   0  0  0  0  0  0  0  0  0  0  0  0
    0.1686   22.7446  -30.7433 H   0  0  0  0  0  0  0  0  0  0  0  0
   -0.2110   21.0488  -30.1778 H   0  0  0  0  0  0  0  0  0  0  0  0
   -3.2560   22.5750  -30.1210 H   0  0  0  0  0  0  0  0  0  0  0  0
   -2.7740   25.3270  -30.7800 H   0  0  0  0  0  0  0  0  0  0  0  0
   -7.7409   24.6248  -30.3097 H   0  0  0  0  0  0  0  0  0  0  0  0
   -9.7700   22.6608  -30.7845 H   0  0  0  0  0  0  0  0  0  0  0  0
  -10.1366   20.3410  -31.6908 H   0  0  0  0  0  0  0  0  0  0  0  0
   -8.5929   18.6923  -33.7738 H   0  0  0  0  0  0  0  0  0  0  0  0
   -5.8850   20.0248  -32.5982 H   0  0  0  0  0  0  0  0  0  0  0  0
  1  2  1  0
  2  3  1  0
  3  4  1  0
  4  5  1  0
  5  6  3  0
  2  7  1  0
  7  8  1  0
  8  9  2  0
  8 10  1  0
 10 11  1  0
 11 12  2  0
 11 13  1  0
 13 14  1  0
 14 15  1  0
 15 16  1  0
 15 17  2  0
 14 18  2  0
 18 19  1  0
 19 20  2  0
 20 21  1  0
 21 22  2  0
 22 23  1  0
 23 24  1  0
 23 25  1  0
 22 26  1  0
 26 27  2  0
 27 13  1  0
 27 19  1  0
  1 28  1  0
  1 29  1  0
  1 30  1  0
  2 31  1  6
  3 32  1  0
  3 33  1  0
  4 34  1  0
  4 35  1  0
  7 36  1  0
  7 37  1  0
 10 38  1  0
 16 39  1  0
 18 40  1  0
 20 41  1  0
 21 42  1  0
 23 43  1  0
 26 44  1  0
M  CHG  2   2   1  16  -1
M  END
>  <UniqueID>  (76) 
74

>  <SMILES>  (76) 
C[N@H+](CCC#N)CC(=O)NC(=O)n1c(C([NH-])=O)cc2ccc(C(F)F)cc21

>  <Energy>  (76) 
82.51757882731789

>  <Genealogy>  (76) 
C[NH+](CCC#N)CC(=O)NC(=O)n1c(C([NH-])=O)cc2ccc(C(F)F)cc21 (protonated)
C[N@H+](CCC#N)CC(=O)NC(=O)n1c(C([NH-])=O)cc2ccc(C(F)F)cc21 (chirality)
C[N@H+](CCC#N)CC(=O)NC(=O)n1c(C([NH-])=O)cc2ccc(C(F)F)cc21 (3D coordinates assigned)
C[N@H+](CCC#N)CC(=O)NC(=O)n1c(C([NH-])=O)cc2ccc(C(F)F)cc21 (optimized conformer: 82.51757882731789 kcal/mol)

>  <smiles>  (76) 
CN(CCC#N)CC(=O)NC(=O)n1c(C(N)=O)cc2ccc(C(F)F)cc21

>  <score_type>  (76) 
oracle

>  <origin>  (76) 
adg

>  <m_score__min__energy>  (76) 
-9.5199999999999996

>  <m_primary>  (76) 
energy

$$$$
77:0
     RDKit          3D

 34 35  0  0  0  0  0  0  0  0999 V2000
   -3.4720   25.6770  -30.1900 H   0  0  0  0  0  0  0  0  0  0  0  0
   -4.2990   25.5170  -30.8070 N   0  0  0  0  0  0  0  0  0  0  0  0
   -5.5380   25.0600  -30.2700 C   0  0  0  0  0  0  0  0  0  0  0  0
   -6.1190   25.7500  -29.3910 O   0  0  0  0  0  0  0  0  0  0  0  0
   -6.1100   23.7770  -30.7250 C   0  0  0  0  0  0  0  0  0  0  0  0
   -7.4210   23.6320  -31.1790 C   0  0  0  0  0  0  0  0  0  0  0  0
   -8.2023   24.4053  -31.2194 H   0  0  0  0  0  0  0  0  0  0  0  0
   -7.5290   22.3140  -31.5660 C   0  0  0  0  0  0  0  0  0  0  0  0
   -8.6150   21.6170  -32.0870 C   0  0  0  0  0  0  0  0  0  0  0  0
   -9.5782   22.1179  -32.2641 H   0  0  0  0  0  0  0  0  0  0  0  0
   -8.4430   20.2530  -32.3800 C   0  0  0  0  0  0  0  0  0  0  0  0
   -9.2842   19.6725  -32.7867 H   0  0  0  0  0  0  0  0  0  0  0  0
   -7.1950   19.6190  -32.1560 C   0  0  0  0  0  0  0  0  0  0  0  0
   -7.0380   18.1520  -32.4280 C   0  0  0  0  0  0  0  0  0  0  0  0
   -6.6750   18.0065  -33.4562 H   0  0  0  0  0  0  0  0  0  0  0  0
   -6.3141   17.7232  -31.7194 H   0  0  0  0  0  0  0  0  0  0  0  0
   -8.2590   17.5220  -32.2770 F   0  0  0  0  0  0  0  0  0  0  0  0
   -6.1200   20.3550  -31.6130 C   0  0  0  0  0  0  0  0  0  0  0  0
   -5.1519   19.8741  -31.4093 H   0  0  0  0  0  0  0  0  0  0  0  0
   -6.3190   21.7120  -31.3410 C   0  0  0  0  0  0  0  0  0  0  0  0
   -5.4440   22.5910  -30.8110 N   0  0  0  0  0  0  0  0  0  0  0  0
   -4.0840   22.3100  -30.4440 C   0  0  0  0  0  0  0  0  0  0  0  0
   -3.5420   21.2520  -30.8600 O   0  0  0  0  0  0  0  0  0  0  0  0
   -3.2790   23.2410  -29.6250 C   0  0  0  0  0  0  0  0  0  0  0  0
   -3.8251   23.9656  -29.0031 H   0  0  0  0  0  0  0  0  0  0  0  0
   -1.9360   23.2770  -29.5760 C   0  0  0  0  0  0  0  0  0  0  0  0
   -1.0640   22.4030  -30.4380 C   0  0  0  0  0  0  0  0  0  0  0  0
   -0.4323   21.7699  -29.7976 H   0  0  0  0  0  0  0  0  0  0  0  0
   -1.6971   21.7660  -31.0731 H   0  0  0  0  0  0  0  0  0  0  0  0
   -0.4255   23.0347  -31.0731 H   0  0  0  0  0  0  0  0  0  0  0  0
   -1.1630   24.4950  -28.4990 P   0  0  0  0  0  0  0  0  0  0  0  0
   -1.6180   24.3170  -27.0680 O   0  0  0  0  0  0  0  0  0  0  0  0
   -1.5880   26.0450  -29.0230 O   0  0  0  0  0  0  0  0  0  0  0  0
    0.5170   24.3220  -28.5760 O   0  0  0  0  0  0  0  0  0  0  0  0
  1  2  1  0
  2  3  1  0
  3  4  2  0
  3  5  1  0
  5  6  2  0
  6  7  1  0
  6  8  1  0
  8  9  2  0
  9 10  1  0
  9 11  1  0
 11 12  1  0
 11 13  2  0
 13 14  1  0
 14 15  1  0
 14 16  1  0
 14 17  1  0
 13 18  1  0
 18 19  1  0
 18 20  2  0
 20 21  1  0
 21 22  1  0
 22 23  2  0
 22 24  1  0
 24 25  1  0
 24 26  2  0
 26 27  1  0
 27 28  1  0
 27 29  1  0
 27 30  1  0
 26 31  1  0
 31 32  2  0
 31 33  1  0
 31 34  1  0
 21  5  1  0
 20  8  1  0
M  CHG  3   2  -1  33  -1  34  -1
M  END
>  <UniqueID>  (77) 
75

>  <SMILES>  (77) 
C/C(=C\C(=O)n1c(C([NH-])=O)cc2ccc(CF)cc21)P(=O)([O-])[O-]

>  <Energy>  (77) 
71.33508466160218

>  <Genealogy>  (77) 
CC(=CC(=O)n1c(C([NH-])=O)cc2ccc(CF)cc21)P(=O)([O-])[O-] (protonated)
C/C(=C\C(=O)n1c(C([NH-])=O)cc2ccc(CF)cc21)P(=O)([O-])[O-] (cis-trans isomerization)
C/C(=C\C(=O)n1c(C([NH-])=O)cc2ccc(CF)cc21)P(=O)([O-])[O-] (3D coordinates assigned)
C/C(=C\C(=O)n1c(C([NH-])=O)cc2ccc(CF)cc21)P(=O)([O-])[O-] (optimized conformer: 71.33508466160218 kcal/mol)

>  <smiles>  (77) 
CC(=CC(=O)n1c(C(N)=O)cc2ccc(CF)cc21)P(=O)(O)O

>  <score_type>  (77) 
oracle

>  <origin>  (77) 
adg

>  <m_score__min__energy>  (77) 
-13.82

>  <m_primary>  (77) 
energy

$$$$
78:0
     RDKit          3D

 38 39  0  0  0  0  0  0  0  0999 V2000
   -1.5760   23.0200  -26.7860 C   0  0  0  0  0  0  0  0  0  0  0  0
   -2.0090   23.6980  -28.0880 C   0  0  1  0  0  0  0  0  0  0  0  0
   -1.0680   24.8120  -28.4440 C   0  0  0  0  0  0  0  0  0  0  0  0
    0.1700   24.6750  -28.2640 O   0  0  0  0  0  0  0  0  0  0  0  0
   -1.5560   26.0080  -28.9600 O   0  0  0  0  0  0  0  0  0  0  0  0
   -2.0970   22.5190  -29.4390 S   0  0  0  0  0  0  0  0  0  0  0  0
   -2.0290   23.2620  -30.7440 O   0  0  0  0  0  0  0  0  0  0  0  0
   -0.9290   21.5760  -29.3540 O   0  0  0  0  0  0  0  0  0  0  0  0
   -3.6030   21.5610  -29.3890 C   0  0  0  0  0  0  0  0  0  0  0  0
   -4.3530   21.6790  -30.6840 C   0  0  0  0  0  0  0  0  0  0  0  0
   -3.8490   21.1990  -31.7340 O   0  0  0  0  0  0  0  0  0  0  0  0
   -5.5900   22.4050  -30.7560 N   0  0  0  0  0  0  0  0  0  0  0  0
   -5.8030   23.7300  -30.5190 C   0  0  0  0  0  0  0  0  0  0  0  0
   -4.8260   24.6720  -29.9360 C   0  0  0  0  0  0  0  0  0  0  0  0
   -3.8740   25.3400  -30.7590 N   0  0  0  0  0  0  0  0  0  0  0  0
   -4.8000   24.8520  -28.6880 O   0  0  0  0  0  0  0  0  0  0  0  0
   -7.1240   24.0700  -30.8080 C   0  0  0  0  0  0  0  0  0  0  0  0
   -7.7220   22.8990  -31.2160 C   0  0  0  0  0  0  0  0  0  0  0  0
   -9.0290   22.6520  -31.6200 C   0  0  0  0  0  0  0  0  0  0  0  0
   -9.3650   21.3420  -32.0010 C   0  0  0  0  0  0  0  0  0  0  0  0
   -8.3900   20.3100  -31.9920 C   0  0  0  0  0  0  0  0  0  0  0  0
   -8.7710   18.9020  -32.3690 C   0  0  0  0  0  0  0  0  0  0  0  0
   -8.9970   18.1360  -31.2380 F   0  0  0  0  0  0  0  0  0  0  0  0
   -7.7450   18.3340  -33.1000 F   0  0  0  0  0  0  0  0  0  0  0  0
   -9.9260   18.8950  -33.1320 F   0  0  0  0  0  0  0  0  0  0  0  0
   -7.0790   20.5960  -31.5460 C   0  0  0  0  0  0  0  0  0  0  0  0
   -6.7760   21.9090  -31.1690 C   0  0  0  0  0  0  0  0  0  0  0  0
   -1.9471   23.6011  -25.9289 H   0  0  0  0  0  0  0  0  0  0  0  0
   -1.9918   22.0024  -26.7466 H   0  0  0  0  0  0  0  0  0  0  0  0
   -0.4779   22.9692  -26.7466 H   0  0  0  0  0  0  0  0  0  0  0  0
   -3.0137   24.1154  -27.9258 H   0  0  0  0  0  0  0  0  0  0  0  0
   -3.3527   20.5046  -29.2122 H   0  0  0  0  0  0  0  0  0  0  0  0
   -4.2384   21.9450  -28.5773 H   0  0  0  0  0  0  0  0  0  0  0  0
   -2.8520   25.2750  -30.5580 H   0  0  0  0  0  0  0  0  0  0  0  0
   -7.5896   25.0633  -30.7271 H   0  0  0  0  0  0  0  0  0  0  0  0
   -9.7775   23.4578  -31.6408 H   0  0  0  0  0  0  0  0  0  0  0  0
  -10.3957   21.1133  -32.3099 H   0  0  0  0  0  0  0  0  0  0  0  0
   -6.3158   19.8054  -31.4966 H   0  0  0  0  0  0  0  0  0  0  0  0
  1  2  1  0
  2  3  1  0
  3  4  2  0
  3  5  1  0
  2  6  1  0
  6  7  2  0
  6  8  2  0
  6  9  1  0
  9 10  1  0
 10 11  2  0
 10 12  1  0
 12 13  1  0
 13 14  1  0
 14 15  1  0
 14 16  2  0
 13 17  2  0
 17 18  1  0
 18 19  2  0
 19 20  1  0
 20 21  2  0
 21 22  1  0
 22 23  1  0
 22 24  1  0
 22 25  1  0
 21 26  1  0
 26 27  2  0
 27 12  1  0
 27 18  1  0
  1 28  1  0
  1 29  1  0
  1 30  1  0
  2 31  1  1
  9 32  1  0
  9 33  1  0
 15 34  1  0
 17 35  1  0
 19 36  1  0
 20 37  1  0
 26 38  1  0
M  CHG  2   5  -1  15  -1
M  END
>  <UniqueID>  (78) 
76

>  <SMILES>  (78) 
C[C@@H](C(=O)[O-])S(=O)(=O)CC(=O)n1c(C([NH-])=O)cc2ccc(C(F)(F)F)cc21

>  <Energy>  (78) 
65.96574044277605

>  <Genealogy>  (78) 
CC(C(=O)[O-])S(=O)(=O)CC(=O)n1c(C([NH-])=O)cc2ccc(C(F)(F)F)cc21 (protonated)
C[C@@H](C(=O)[O-])S(=O)(=O)CC(=O)n1c(C([NH-])=O)cc2ccc(C(F)(F)F)cc21 (chirality)
C[C@@H](C(=O)[O-])S(=O)(=O)CC(=O)n1c(C([NH-])=O)cc2ccc(C(F)(F)F)cc21 (3D coordinates assigned)
C[C@@H](C(=O)[O-])S(=O)(=O)CC(=O)n1c(C([NH-])=O)cc2ccc(C(F)(F)F)cc21 (optimized conformer: 65.96574044277605 kcal/mol)

>  <smiles>  (78) 
CC(C(=O)O)S(=O)(=O)CC(=O)n1c(C(N)=O)cc2ccc(C(F)(F)F)cc21

>  <score_type>  (78) 
oracle

>  <origin>  (78) 
adg

>  <m_score__min__energy>  (78) 
-12.619999999999999

>  <m_primary>  (78) 
energy

$$$$
79:0
     RDKit          3D

 43 44  0  0  0  0  0  0  0  0999 V2000
   -3.9660   22.3370  -27.7440 C   0  0  0  0  0  0  0  0  0  0  0  0
   -3.0550   21.8260  -28.7730 N   0  0  0  0  0  0  0  0  0  0  0  0
   -1.6170   21.7140  -28.4680 C   0  0  0  0  0  0  0  0  0  0  0  0
   -0.8380   22.9540  -28.9450 C   0  0  0  0  0  0  0  0  0  0  0  0
   -1.1310   24.2150  -28.1190 C   0  0  0  0  0  0  0  0  0  0  0  0
   -1.7390   25.2990  -28.9550 C   0  0  0  0  0  0  0  0  0  0  0  0
   -1.2330   26.4530  -28.9650 O   0  0  0  0  0  0  0  0  0  0  0  0
   -2.8710   25.0390  -29.7170 O   0  0  0  0  0  0  0  0  0  0  0  0
   -3.5360   21.4400  -30.0840 C   0  0  0  0  0  0  0  0  0  0  0  0
   -3.5650   20.2180  -30.3960 O   0  0  0  0  0  0  0  0  0  0  0  0
   -4.0420   22.4120  -31.0790 C   0  0  0  0  0  0  0  0  0  0  0  0
   -3.2450   23.0790  -31.7910 O   0  0  0  0  0  0  0  0  0  0  0  0
   -5.4570   22.5700  -31.2760 N   0  0  0  0  0  0  0  0  0  0  0  0
   -6.2270   23.6390  -30.9340 C   0  0  0  0  0  0  0  0  0  0  0  0
   -5.7300   24.9330  -30.4210 C   0  0  0  0  0  0  0  0  0  0  0  0
   -6.0010   25.3550  -29.0830 N   0  0  0  0  0  0  0  0  0  0  0  0
   -5.0140   25.6580  -31.1630 O   0  0  0  0  0  0  0  0  0  0  0  0
   -7.5760   23.3630  -31.1490 C   0  0  0  0  0  0  0  0  0  0  0  0
   -7.6080   22.0790  -31.6450 C   0  0  0  0  0  0  0  0  0  0  0  0
   -8.6940   21.2840  -31.9980 C   0  0  0  0  0  0  0  0  0  0  0  0
   -8.4370   19.9700  -32.4260 C   0  0  0  0  0  0  0  0  0  0  0  0
   -7.1080   19.4760  -32.4970 C   0  0  0  0  0  0  0  0  0  0  0  0
   -6.8390   18.0480  -32.8980 C   0  0  0  0  0  0  0  0  0  0  0  0
   -6.4760   17.9830  -34.2310 F   0  0  0  0  0  0  0  0  0  0  0  0
   -5.8100   17.5450  -32.1240 F   0  0  0  0  0  0  0  0  0  0  0  0
   -7.9640   17.2630  -32.7160 F   0  0  0  0  0  0  0  0  0  0  0  0
   -6.0350   20.3080  -32.1010 C   0  0  0  0  0  0  0  0  0  0  0  0
   -6.3180   21.6200  -31.7060 C   0  0  0  0  0  0  0  0  0  0  0  0
   -3.5590   22.1087  -26.7479 H   0  0  0  0  0  0  0  0  0  0  0  0
   -4.0718   23.4261  -27.8561 H   0  0  0  0  0  0  0  0  0  0  0  0
   -4.9506   21.8595  -27.8561 H   0  0  0  0  0  0  0  0  0  0  0  0
   -1.4899   21.6091  -27.3804 H   0  0  0  0  0  0  0  0  0  0  0  0
   -1.2207   20.8344  -28.9965 H   0  0  0  0  0  0  0  0  0  0  0  0
    0.2382   22.7362  -28.8786 H   0  0  0  0  0  0  0  0  0  0  0  0
   -1.1582   23.1608  -29.9769 H   0  0  0  0  0  0  0  0  0  0  0  0
   -1.8291   23.9560  -27.3093 H   0  0  0  0  0  0  0  0  0  0  0  0
   -0.1782   24.5883  -27.7154 H   0  0  0  0  0  0  0  0  0  0  0  0
   -6.4250   24.7060  -28.3860 H   0  0  0  0  0  0  0  0  0  0  0  0
   -5.6850   26.2970  -28.7600 H   0  0  0  0  0  0  0  0  0  0  0  0
   -8.4318   24.0284  -30.9624 H   0  0  0  0  0  0  0  0  0  0  0  0
   -9.7219   21.6718  -31.9438 H   0  0  0  0  0  0  0  0  0  0  0  0
   -9.2755   19.3168  -32.7092 H   0  0  0  0  0  0  0  0  0  0  0  0
   -5.0013   19.9320  -32.1035 H   0  0  0  0  0  0  0  0  0  0  0  0
  1  2  1  0
  2  3  1  0
  3  4  1  0
  4  5  1  0
  5  6  1  0
  6  7  2  0
  6  8  1  0
  2  9  1  0
  9 10  2  0
  9 11  1  0
 11 12  2  0
 11 13  1  0
 13 14  1  0
 14 15  1  0
 15 16  1  0
 15 17  2  0
 14 18  2  0
 18 19  1  0
 19 20  2  0
 20 21  1  0
 21 22  2  0
 22 23  1  0
 23 24  1  0
 23 25  1  0
 23 26  1  0
 22 27  1  0
 27 28  2  0
 28 13  1  0
 28 19  1  0
  1 29  1  0
  1 30  1  0
  1 31  1  0
  3 32  1  0
  3 33  1  0
  4 34  1  0
  4 35  1  0
  5 36  1  0
  5 37  1  0
 16 38  1  0
 16 39  1  0
 18 40  1  0
 20 41  1  0
 21 42  1  0
 27 43  1  0
M  CHG  1   8  -1
M  END
>  <UniqueID>  (79) 
77

>  <SMILES>  (79) 
CN(CCCC(=O)[O-])C(=O)C(=O)n1c(C(N)=O)cc2ccc(C(F)(F)F)cc21

>  <Energy>  (79) 
79.16605838950912

>  <Genealogy>  (79) 
CN(CCCC(=O)[O-])C(=O)C(=O)n1c(C(N)=O)cc2ccc(C(F)(F)F)cc21 (protonated)
CN(CCCC(=O)[O-])C(=O)C(=O)n1c(C(N)=O)cc2ccc(C(F)(F)F)cc21 (3D coordinates assigned)
CN(CCCC(=O)[O-])C(=O)C(=O)n1c(C(N)=O)cc2ccc(C(F)(F)F)cc21 (optimized conformer: 79.16605838950912 kcal/mol)

>  <smiles>  (79) 
CN(CCCC(=O)O)C(=O)C(=O)n1c(C(N)=O)cc2ccc(C(F)(F)F)cc21

>  <score_type>  (79) 
oracle

>  <origin>  (79) 
adg

>  <m_score__min__energy>  (79) 
-11.09

>  <m_primary>  (79) 
energy

$$$$
80:0
     RDKit          3D

 36 37  0  0  0  0  0  0  0  0999 V2000
   -6.5680   18.2960  -32.3210 C   0  0  0  0  0  0  0  0  0  0  0  0
   -6.7850   19.7540  -32.0480 C   0  0  0  0  0  0  0  0  0  0  0  0
   -8.0520   20.3400  -32.2870 C   0  0  0  0  0  0  0  0  0  0  0  0
   -8.2610   21.7110  -32.0580 C   0  0  0  0  0  0  0  0  0  0  0  0
   -7.1820   22.4700  -31.6130 C   0  0  0  0  0  0  0  0  0  0  0  0
   -7.1120   23.8060  -31.2940 C   0  0  0  0  0  0  0  0  0  0  0  0
   -5.7930   24.0240  -30.9020 C   0  0  0  0  0  0  0  0  0  0  0  0
   -5.2570   25.3560  -30.5510 C   0  0  0  0  0  0  0  0  0  0  0  0
   -3.8990   25.6740  -30.8430 N   0  0  0  0  0  0  0  0  0  0  0  0
   -5.9760   26.2050  -29.9610 O   0  0  0  0  0  0  0  0  0  0  0  0
   -5.0760   22.8660  -30.9720 N   0  0  0  0  0  0  0  0  0  0  0  0
   -3.7100   22.6540  -30.5810 C   0  0  0  0  0  0  0  0  0  0  0  0
   -2.7810   23.2370  -31.2040 O   0  0  0  0  0  0  0  0  0  0  0  0
   -3.4170   21.7870  -29.5210 O   0  0  0  0  0  0  0  0  0  0  0  0
   -2.3360   21.9920  -28.6140 C   0  0  0  0  0  0  0  0  0  0  0  0
   -2.3710   23.4190  -28.0400 C   0  0  2  0  0  0  0  0  0  0  0  0
   -3.5230   24.1060  -28.4640 O   0  0  0  0  0  0  0  0  0  0  0  0
   -1.1000   24.2160  -28.3860 C   0  0  0  0  0  0  0  0  0  0  0  0
   -1.3680   25.2200  -29.3290 O   0  0  0  0  0  0  0  0  0  0  0  0
   -5.9400   21.9240  -31.4100 C   0  0  0  0  0  0  0  0  0  0  0  0
   -5.7090   20.5580  -31.6120 C   0  0  0  0  0  0  0  0  0  0  0  0
   -6.4871   17.7526  -31.3680 H   0  0  0  0  0  0  0  0  0  0  0  0
   -7.4172   17.9006  -32.8976 H   0  0  0  0  0  0  0  0  0  0  0  0
   -5.6405   18.1650  -32.8976 H   0  0  0  0  0  0  0  0  0  0  0  0
   -8.8801   19.7165  -32.6552 H   0  0  0  0  0  0  0  0  0  0  0  0
   -9.2466   22.1700  -32.2252 H   0  0  0  0  0  0  0  0  0  0  0  0
   -7.9250   24.5456  -31.3389 H   0  0  0  0  0  0  0  0  0  0  0  0
   -3.1160   25.2020  -30.3390 H   0  0  0  0  0  0  0  0  0  0  0  0
   -2.4149   21.2688  -27.7889 H   0  0  0  0  0  0  0  0  0  0  0  0
   -1.3887   21.8516  -29.1552 H   0  0  0  0  0  0  0  0  0  0  0  0
   -2.4068   23.3234  -26.9447 H   0  0  0  0  0  0  0  0  0  0  0  0
   -3.3930   24.3580  -29.4150 H   0  0  0  0  0  0  0  0  0  0  0  0
   -0.7081   24.6809  -27.4693 H   0  0  0  0  0  0  0  0  0  0  0  0
   -0.3626   23.5230  -28.8172 H   0  0  0  0  0  0  0  0  0  0  0  0
   -2.0430   24.8530  -29.9580 H   0  0  0  0  0  0  0  0  0  0  0  0
   -4.7146   20.1221  -31.4356 H   0  0  0  0  0  0  0  0  0  0  0  0
  1  2  1  0
  2  3  2  0
  3  4  1  0
  4  5  2  0
  5  6  1  0
  6  7  2  0
  7  8  1  0
  8  9  1  0
  8 10  2  0
  7 11  1  0
 11 12  1  0
 12 13  2  0
 12 14  1  0
 14 15  1  0
 15 16  1  0
 16 17  1  0
 16 18  1  0
 18 19  1  0
 11 20  1  0
 20 21  2  0
 21  2  1  0
 20  5  1  0
  1 22  1  0
  1 23  1  0
  1 24  1  0
  3 25  1  0
  4 26  1  0
  6 27  1  0
  9 28  1  0
 15 29  1  0
 15 30  1  0
 16 31  1  1
 17 32  1  0
 18 33  1  0
 18 34  1  0
 19 35  1  0
 21 36  1  0
M  CHG  1   9  -1
M  END
>  <UniqueID>  (80) 
78

>  <SMILES>  (80) 
Cc1ccc2cc(C([NH-])=O)n(C(=O)OC[C@H](O)CO)c2c1

>  <Energy>  (80) 
70.77857555130996

>  <Genealogy>  (80) 
Cc1ccc2cc(C([NH-])=O)n(C(=O)OCC(O)CO)c2c1 (protonated)
Cc1ccc2cc(C([NH-])=O)n(C(=O)OC[C@H](O)CO)c2c1 (chirality)
Cc1ccc2cc(C([NH-])=O)n(C(=O)OC[C@H](O)CO)c2c1 (3D coordinates assigned)
Cc1ccc2cc(C([NH-])=O)n(C(=O)OC[C@H](O)CO)c2c1 (optimized conformer: 70.77857555130996 kcal/mol)

>  <smiles>  (80) 
Cc1ccc2cc(C(N)=O)n(C(=O)OCC(O)CO)c2c1

>  <score_type>  (80) 
oracle

>  <origin>  (80) 
adg

>  <m_score__min__energy>  (80) 
-10.09

>  <m_primary>  (80) 
energy

$$$$
81:0
     RDKit          3D

 40 41  0  0  0  0  0  0  0  0999 V2000
   -9.7820   21.0430  -31.6550 C   0  0  0  0  0  0  0  0  0  0  0  0
   -8.6020   20.2800  -32.1570 C   0  0  0  0  0  0  0  0  0  0  0  0
   -8.7300   18.9040  -32.4730 C   0  0  0  0  0  0  0  0  0  0  0  0
   -7.6180   18.1660  -32.9140 C   0  0  0  0  0  0  0  0  0  0  0  0
   -6.3980   18.8200  -33.0240 C   0  0  0  0  0  0  0  0  0  0  0  0
   -5.1840   18.3230  -33.3950 C   0  0  0  0  0  0  0  0  0  0  0  0
   -4.3040   19.3900  -33.2820 C   0  0  0  0  0  0  0  0  0  0  0  0
   -2.8370   19.1690  -33.4600 C   0  0  0  0  0  0  0  0  0  0  0  0
   -2.0570   20.0530  -34.2650 N   0  0  0  0  0  0  0  0  0  0  0  0
   -2.2930   18.1720  -32.8920 O   0  0  0  0  0  0  0  0  0  0  0  0
   -4.9570   20.5540  -32.9200 N   0  0  0  0  0  0  0  0  0  0  0  0
   -4.4780   21.9100  -32.7010 C   0  0  0  0  0  0  0  0  0  0  0  0
   -3.4600   22.2870  -33.3350 O   0  0  0  0  0  0  0  0  0  0  0  0
   -5.0290   22.7860  -31.6490 N   0  0  0  0  0  0  0  0  0  0  0  0
   -6.3740   23.9250  -32.1170 P   0  0  0  0  0  0  0  0  0  0  0  0
   -4.9060   22.6420  -30.1970 C   0  0  0  0  0  0  0  0  0  0  0  0
   -6.0000   22.7170  -29.5390 O   0  0  0  0  0  0  0  0  0  0  0  0
   -3.6620   22.5970  -29.3760 N   0  0  0  0  0  0  0  0  0  0  0  0
   -2.6670   21.5740  -29.7150 C   0  0  0  0  0  0  0  0  0  0  0  0
   -3.0720   23.6790  -28.5270 C   0  0  0  0  0  0  0  0  0  0  0  0
   -2.7360   24.8930  -29.3500 C   0  0  0  0  0  0  0  0  0  0  0  0
   -3.4840   25.2610  -30.2820 O   0  0  0  0  0  0  0  0  0  0  0  0
   -1.6210   25.6700  -29.0370 O   0  0  0  0  0  0  0  0  0  0  0  0
   -6.2540   20.1510  -32.7260 C   0  0  0  0  0  0  0  0  0  0  0  0
   -7.3460   20.9110  -32.2730 C   0  0  0  0  0  0  0  0  0  0  0  0
   -9.7790   21.0410  -30.5550 H   0  0  0  0  0  0  0  0  0  0  0  0
   -9.7308   22.0794  -32.0200 H   0  0  0  0  0  0  0  0  0  0  0  0
  -10.7061   20.5710  -32.0200 H   0  0  0  0  0  0  0  0  0  0  0  0
   -9.7076   18.4098  -32.3723 H   0  0  0  0  0  0  0  0  0  0  0  0
   -7.7117   17.0992  -33.1652 H   0  0  0  0  0  0  0  0  0  0  0  0
   -4.9518   17.2966  -33.7152 H   0  0  0  0  0  0  0  0  0  0  0  0
   -2.5180   20.8960  -34.6830 H   0  0  0  0  0  0  0  0  0  0  0  0
   -6.5540   23.6690  -33.5310 H   0  0  0  0  0  0  0  0  0  0  0  0
   -7.2950   23.7220  -30.9770 H   0  0  0  0  0  0  0  0  0  0  0  0
   -2.2512   21.1465  -28.7907 H   0  0  0  0  0  0  0  0  0  0  0  0
   -3.1457   20.7780  -30.3043 H   0  0  0  0  0  0  0  0  0  0  0  0
   -1.8580   22.0304  -30.3043 H   0  0  0  0  0  0  0  0  0  0  0  0
   -3.7977   23.9616  -27.7501 H   0  0  0  0  0  0  0  0  0  0  0  0
   -2.1455   23.2989  -28.0719 H   0  0  0  0  0  0  0  0  0  0  0  0
   -7.2239   21.9733  -32.0149 H   0  0  0  0  0  0  0  0  0  0  0  0
  1  2  1  0
  2  3  2  0
  3  4  1  0
  4  5  2  0
  5  6  1  0
  6  7  2  0
  7  8  1  0
  8  9  1  0
  8 10  2  0
  7 11  1  0
 11 12  1  0
 12 13  2  0
 12 14  1  0
 14 15  1  0
 14 16  1  0
 16 17  2  0
 16 18  1  0
 18 19  1  0
 18 20  1  0
 20 21  1  0
 21 22  2  0
 21 23  1  0
 11 24  1  0
 24 25  2  0
 25  2  1  0
 24  5  1  0
  1 26  1  0
  1 27  1  0
  1 28  1  0
  3 29  1  0
  4 30  1  0
  6 31  1  0
  9 32  1  0
 15 33  1  0
 15 34  1  0
 19 35  1  0
 19 36  1  0
 19 37  1  0
 20 38  1  0
 20 39  1  0
 25 40  1  0
M  CHG  2   9  -1  23  -1
M  END
>  <UniqueID>  (81) 
79

>  <SMILES>  (81) 
Cc1ccc2cc(C([NH-])=O)n(C(=O)N([P@@H2])C(=O)N(C)CC(=O)[O-])c2c1

>  <Energy>  (81) 
140.8109542004493

>  <Genealogy>  (81) 
Cc1ccc2cc(C([NH-])=O)n(C(=O)N(P)C(=O)N(C)CC(=O)[O-])c2c1 (protonated)
Cc1ccc2cc(C([NH-])=O)n(C(=O)N([P@@H2])C(=O)N(C)CC(=O)[O-])c2c1 (chirality)
Cc1ccc2cc(C([NH-])=O)n(C(=O)N([P@@H2])C(=O)N(C)CC(=O)[O-])c2c1 (3D coordinates assigned)
Cc1ccc2cc(C([NH-])=O)n(C(=O)N([P@@H2])C(=O)N(C)CC(=O)[O-])c2c1 (optimized conformer: 140.8109542004493 kcal/mol)

>  <smiles>  (81) 
Cc1ccc2cc(C(N)=O)n(C(=O)N(P)C(=O)N(C)CC(=O)O)c2c1

>  <score_type>  (81) 
oracle

>  <origin>  (81) 
adg

>  <m_score__min__energy>  (81) 
-13

>  <m_primary>  (81) 
energy

$$$$
82:0
     RDKit          3D

 43 45  0  0  0  0  0  0  0  0999 V2000
   -3.1400   25.2010  -30.5300 H   0  0  0  0  0  0  0  0  0  0  0  0
   -4.0160   25.6690  -30.8530 N   0  0  0  0  0  0  0  0  0  0  0  0
   -5.2920   25.2460  -30.3810 C   0  0  0  0  0  0  0  0  0  0  0  0
   -5.8790   25.9260  -29.4980 O   0  0  0  0  0  0  0  0  0  0  0  0
   -5.9120   23.9990  -30.8780 C   0  0  0  0  0  0  0  0  0  0  0  0
   -7.2580   23.8930  -31.2250 C   0  0  0  0  0  0  0  0  0  0  0  0
   -8.0083   24.6972  -31.2405 H   0  0  0  0  0  0  0  0  0  0  0  0
   -7.4480   22.5680  -31.5440 C   0  0  0  0  0  0  0  0  0  0  0  0
   -8.5940   21.9030  -31.9650 C   0  0  0  0  0  0  0  0  0  0  0  0
   -9.5500   22.4362  -32.0733 H   0  0  0  0  0  0  0  0  0  0  0  0
   -8.4960   20.5310  -32.2480 C   0  0  0  0  0  0  0  0  0  0  0  0
   -9.3882   19.9795  -32.5794 H   0  0  0  0  0  0  0  0  0  0  0  0
   -7.2540   19.8440  -32.1110 C   0  0  0  0  0  0  0  0  0  0  0  0
   -7.0750   18.3650  -32.4080 C   0  0  0  0  0  0  0  0  0  0  0  0
   -8.1200   18.2400  -32.7281 H   0  0  0  0  0  0  0  0  0  0  0  0
   -5.7230   17.9190  -32.9470 C   0  0  0  0  0  0  0  0  0  0  0  0
   -5.6681   17.1227  -33.7039 H   0  0  0  0  0  0  0  0  0  0  0  0
   -4.8679   18.4257  -33.4182 H   0  0  0  0  0  0  0  0  0  0  0  0
   -6.1210   17.5830  -31.5150 C   0  0  0  0  0  0  0  0  0  0  0  0
   -6.3536   16.5442  -31.2380 H   0  0  0  0  0  0  0  0  0  0  0  0
   -5.6725   17.7466  -30.5240 H   0  0  0  0  0  0  0  0  0  0  0  0
   -6.1160   20.5620  -31.6800 C   0  0  0  0  0  0  0  0  0  0  0  0
   -5.1437   20.0592  -31.5714 H   0  0  0  0  0  0  0  0  0  0  0  0
   -6.2500   21.9250  -31.3940 C   0  0  0  0  0  0  0  0  0  0  0  0
   -5.2950   22.7890  -30.9900 N   0  0  0  0  0  0  0  0  0  0  0  0
   -3.9050   22.4820  -30.8040 C   0  0  0  0  0  0  0  0  0  0  0  0
   -3.0350   23.2000  -31.3680 O   0  0  0  0  0  0  0  0  0  0  0  0
   -3.5120   21.3690  -29.9110 C   0  0  0  0  0  0  0  0  0  0  0  0
   -3.9388   20.3748  -30.1094 H   0  0  0  0  0  0  0  0  0  0  0  0
   -2.6670   21.4950  -28.8730 C   0  0  0  0  0  0  0  0  0  0  0  0
   -2.0760   22.7400  -28.6030 O   0  0  0  0  0  0  0  0  0  0  0  0
   -2.5410   23.6770  -27.6330 C   0  0  0  0  0  0  0  0  0  0  0  0
   -3.6405   23.7048  -27.6537 H   0  0  0  0  0  0  0  0  0  0  0  0
   -2.1898   23.3653  -26.6383 H   0  0  0  0  0  0  0  0  0  0  0  0
   -1.9960   25.0720  -27.9370 C   0  0  0  0  0  0  0  0  0  0  0  0
   -2.6680   25.8268  -27.5026 H   0  0  0  0  0  0  0  0  0  0  0  0
   -0.9908   25.1666  -27.5003 H   0  0  0  0  0  0  0  0  0  0  0  0
   -1.9120   25.2700  -29.3220 O   0  0  0  0  0  0  0  0  0  0  0  0
   -2.4400   24.5430  -29.7440 H   0  0  0  0  0  0  0  0  0  0  0  0
   -2.3350   20.2840  -28.0370 C   0  0  0  0  0  0  0  0  0  0  0  0
   -2.4063   20.5439  -26.9705 H   0  0  0  0  0  0  0  0  0  0  0  0
   -3.0445   19.4750  -28.2654 H   0  0  0  0  0  0  0  0  0  0  0  0
   -1.3121   19.9500  -28.2654 H   0  0  0  0  0  0  0  0  0  0  0  0
  1  2  1  0
  2  3  1  0
  3  4  2  0
  3  5  1  0
  5  6  2  0
  6  7  1  0
  6  8  1  0
  8  9  2  0
  9 10  1  0
  9 11  1  0
 11 12  1  0
 11 13  2  0
 13 14  1  0
 14 15  1  0
 14 16  1  0
 16 17  1  0
 16 18  1  0
 16 19  1  0
 19 20  1  0
 19 21  1  0
 13 22  1  0
 22 23  1  0
 22 24  2  0
 24 25  1  0
 25 26  1  0
 26 27  2  0
 26 28  1  0
 28 29  1  0
 28 30  2  0
 30 31  1  0
 31 32  1  0
 32 33  1  0
 32 34  1  0
 32 35  1  0
 35 36  1  0
 35 37  1  0
 35 38  1  0
 38 39  1  0
 30 40  1  0
 40 41  1  0
 40 42  1  0
 40 43  1  0
 25  5  1  0
 24  8  1  0
 19 14  1  0
M  CHG  1   2  -1
M  END
>  <UniqueID>  (82) 
80

>  <SMILES>  (82) 
C/C(=C/C(=O)n1c(C([NH-])=O)cc2ccc(C3CC3)cc21)OCCO

>  <Energy>  (82) 
348.7703163218263

>  <Genealogy>  (82) 
CC(=CC(=O)n1c(C([NH-])=O)cc2ccc(C3CC3)cc21)OCCO (protonated)
C/C(=C/C(=O)n1c(C([NH-])=O)cc2ccc(C3CC3)cc21)OCCO (cis-trans isomerization)
C/C(=C/C(=O)n1c(C([NH-])=O)cc2ccc(C3CC3)cc21)OCCO (3D coordinates assigned)
C/C(=C/C(=O)n1c(C([NH-])=O)cc2ccc(C3CC3)cc21)OCCO (nonaromatic ring conformer: 348.7703163218263 kcal/mol)

>  <smiles>  (82) 
CC(=CC(=O)n1c(C(N)=O)cc2ccc(C3CC3)cc21)OCCO

>  <score_type>  (82) 
oracle

>  <origin>  (82) 
adg

>  <m_score__min__energy>  (82) 
-11.779999999999999

>  <m_primary>  (82) 
energy

$$$$
83:0
     RDKit          3D

 33 34  0  0  0  0  0  0  0  0999 V2000
   -6.8390   17.1260  -33.3400 C   0  0  0  0  0  0  0  0  0  0  0  0
   -7.1770   18.4490  -32.7210 C   0  0  0  0  0  0  0  0  0  0  0  0
   -8.4710   18.6770  -32.1910 C   0  0  0  0  0  0  0  0  0  0  0  0
   -8.7920   19.9070  -31.5920 C   0  0  0  0  0  0  0  0  0  0  0  0
   -7.7940   20.8750  -31.5150 C   0  0  0  0  0  0  0  0  0  0  0  0
   -7.8410   22.1590  -31.0210 C   0  0  0  0  0  0  0  0  0  0  0  0
   -6.5610   22.6730  -31.2110 C   0  0  0  0  0  0  0  0  0  0  0  0
   -6.1520   24.0250  -30.7790 C   0  0  0  0  0  0  0  0  0  0  0  0
   -5.8500   24.3070  -29.4120 N   0  0  0  0  0  0  0  0  0  0  0  0
   -6.1170   24.9590  -31.6240 O   0  0  0  0  0  0  0  0  0  0  0  0
   -5.7550   21.7480  -31.8050 N   0  0  0  0  0  0  0  0  0  0  0  0
   -4.4040   21.9190  -32.2550 C   0  0  0  0  0  0  0  0  0  0  0  0
   -4.1760   22.2470  -33.4510 O   0  0  0  0  0  0  0  0  0  0  0  0
   -3.3450   21.7260  -31.3610 O   0  0  0  0  0  0  0  0  0  0  0  0
   -3.2620   22.4060  -30.1100 C   0  0  0  0  0  0  0  0  0  0  0  0
   -2.2870   23.4230  -30.1520 O   0  0  0  0  0  0  0  0  0  0  0  0
   -2.8970   24.8420  -29.4190 P   0  0  0  0  0  0  0  0  0  0  0  0
   -3.6990   24.5230  -28.1760 O   0  0  0  0  0  0  0  0  0  0  0  0
   -3.8730   25.6740  -30.5230 O   0  0  0  0  0  0  0  0  0  0  0  0
   -1.5960   25.8330  -28.9910 O   0  0  0  0  0  0  0  0  0  0  0  0
   -6.5260   20.6540  -31.9860 C   0  0  0  0  0  0  0  0  0  0  0  0
   -6.1880   19.4510  -32.6160 C   0  0  0  0  0  0  0  0  0  0  0  0
   -6.6503   16.3876  -32.5468 H   0  0  0  0  0  0  0  0  0  0  0  0
   -7.6795   16.7875  -33.9637 H   0  0  0  0  0  0  0  0  0  0  0  0
   -5.9391   17.2322  -33.9637 H   0  0  0  0  0  0  0  0  0  0  0  0
   -9.2312   17.8841  -32.2489 H   0  0  0  0  0  0  0  0  0  0  0  0
   -9.8002   20.0991  -31.1963 H   0  0  0  0  0  0  0  0  0  0  0  0
   -8.7054   22.6700  -30.5719 H   0  0  0  0  0  0  0  0  0  0  0  0
   -5.5170   25.2580  -29.1350 H   0  0  0  0  0  0  0  0  0  0  0  0
   -6.0430   23.6100  -28.6600 H   0  0  0  0  0  0  0  0  0  0  0  0
   -4.2396   22.8541  -29.8785 H   0  0  0  0  0  0  0  0  0  0  0  0
   -2.9778   21.6797  -29.3343 H   0  0  0  0  0  0  0  0  0  0  0  0
   -5.1773   19.2902  -33.0192 H   0  0  0  0  0  0  0  0  0  0  0  0
  1  2  1  0
  2  3  2  0
  3  4  1  0
  4  5  2  0
  5  6  1  0
  6  7  2  0
  7  8  1  0
  8  9  1  0
  8 10  2  0
  7 11  1  0
 11 12  1  0
 12 13  2  0
 12 14  1  0
 14 15  1  0
 15 16  1  0
 16 17  1  0
 17 18  2  0
 17 19  1  0
 17 20  1  0
 11 21  1  0
 21 22  2  0
 22  2  1  0
 21  5  1  0
  1 23  1  0
  1 24  1  0
  1 25  1  0
  3 26  1  0
  4 27  1  0
  6 28  1  0
  9 29  1  0
  9 30  1  0
 15 31  1  0
 15 32  1  0
 22 33  1  0
M  CHG  2  19  -1  20  -1
M  END
>  <UniqueID>  (83) 
81

>  <SMILES>  (83) 
Cc1ccc2cc(C(N)=O)n(C(=O)OCOP(=O)([O-])[O-])c2c1

>  <Energy>  (83) 
70.19325281084473

>  <Genealogy>  (83) 
Cc1ccc2cc(C(N)=O)n(C(=O)OCOP(=O)([O-])[O-])c2c1 (protonated)
Cc1ccc2cc(C(N)=O)n(C(=O)OCOP(=O)([O-])[O-])c2c1 (3D coordinates assigned)
Cc1ccc2cc(C(N)=O)n(C(=O)OCOP(=O)([O-])[O-])c2c1 (optimized conformer: 70.19325281084473 kcal/mol)

>  <smiles>  (83) 
Cc1ccc2cc(C(N)=O)n(C(=O)OCOP(=O)(O)O)c2c1

>  <score_type>  (83) 
oracle

>  <origin>  (83) 
adg

>  <m_score__min__energy>  (83) 
-12.49

>  <m_primary>  (83) 
energy

$$$$
84:0
     RDKit          3D

 43 45  0  0  0  0  0  0  0  0999 V2000
   -3.7180   20.0280  -31.0100 C   0  0  0  0  0  0  0  0  0  0  0  0
   -3.6970   21.4130  -30.5230 N   0  0  0  0  0  0  0  0  0  0  0  0
   -4.2440   22.4510  -31.3680 C   0  0  0  0  0  0  0  0  0  0  0  0
   -3.5160   23.0420  -32.2110 O   0  0  0  0  0  0  0  0  0  0  0  0
   -5.6240   22.8260  -31.2640 N   0  0  0  0  0  0  0  0  0  0  0  0
   -6.1350   24.0180  -30.8510 C   0  0  0  0  0  0  0  0  0  0  0  0
   -5.3480   25.2230  -30.5090 C   0  0  0  0  0  0  0  0  0  0  0  0
   -3.9390   25.2650  -30.7230 N   0  0  0  0  0  0  0  0  0  0  0  0
   -5.9290   26.2350  -30.0370 O   0  0  0  0  0  0  0  0  0  0  0  0
   -7.5280   23.9640  -30.8230 C   0  0  0  0  0  0  0  0  0  0  0  0
   -7.8530   22.6880  -31.2290 C   0  0  0  0  0  0  0  0  0  0  0  0
   -9.0950   22.0780  -31.3730 C   0  0  0  0  0  0  0  0  0  0  0  0
   -9.1250   20.7350  -31.7930 C   0  0  0  0  0  0  0  0  0  0  0  0
   -7.9210   20.0330  -32.0540 C   0  0  0  0  0  0  0  0  0  0  0  0
   -7.9560   18.5970  -32.4950 C   0  0  0  0  0  0  0  0  0  0  0  0
   -9.0670   17.9730  -31.9590 F   0  0  0  0  0  0  0  0  0  0  0  0
   -6.8140   17.9490  -32.0600 F   0  0  0  0  0  0  0  0  0  0  0  0
   -6.6790   20.6860  -31.8920 C   0  0  0  0  0  0  0  0  0  0  0  0
   -6.6830   22.0220  -31.4860 C   0  0  0  0  0  0  0  0  0  0  0  0
   -3.0750   21.7140  -29.2150 C   0  0  2  0  0  0  0  0  0  0  0  0
   -3.9860   22.5910  -28.3350 C   0  0  0  0  0  0  0  0  0  0  0  0
   -3.2580   23.9160  -28.1310 C   0  0  0  0  0  0  0  0  0  0  0  0
   -1.9520   23.7590  -28.7450 N   0  0  0  0  0  0  0  0  0  0  0  0
   -0.9510   24.7850  -28.7370 C   0  0  0  0  0  0  0  0  0  0  0  0
    0.1880   24.5600  -28.2500 O   0  0  0  0  0  0  0  0  0  0  0  0
   -1.2310   26.0390  -29.2660 O   0  0  0  0  0  0  0  0  0  0  0  0
   -1.7510   22.4690  -29.3740 C   0  0  0  0  0  0  0  0  0  0  0  0
   -3.7285   19.3382  -30.1532 H   0  0  0  0  0  0  0  0  0  0  0  0
   -4.6187   19.8677  -31.6208 H   0  0  0  0  0  0  0  0  0  0  0  0
   -2.8226   19.8405  -31.6208 H   0  0  0  0  0  0  0  0  0  0  0  0
   -3.5020   26.0370  -31.2720 H   0  0  0  0  0  0  0  0  0  0  0  0
   -8.2207   24.7693  -30.5373 H   0  0  0  0  0  0  0  0  0  0  0  0
  -10.0246   22.6281  -31.1651 H   0  0  0  0  0  0  0  0  0  0  0  0
  -10.0915   20.2252  -31.9199 H   0  0  0  0  0  0  0  0  0  0  0  0
   -8.0059   18.5575  -33.5932 H   0  0  0  0  0  0  0  0  0  0  0  0
   -5.7337   20.1561  -32.0807 H   0  0  0  0  0  0  0  0  0  0  0  0
   -2.9066   20.7361  -28.7403 H   0  0  0  0  0  0  0  0  0  0  0  0
   -4.9489   22.7615  -28.8387 H   0  0  0  0  0  0  0  0  0  0  0  0
   -4.1938   22.1022  -27.3717 H   0  0  0  0  0  0  0  0  0  0  0  0
   -3.8115   24.7338  -28.6157 H   0  0  0  0  0  0  0  0  0  0  0  0
   -3.1716   24.1657  -27.0632 H   0  0  0  0  0  0  0  0  0  0  0  0
   -1.5086   22.5963  -30.4394 H   0  0  0  0  0  0  0  0  0  0  0  0
   -0.9155   21.9209  -28.9140 H   0  0  0  0  0  0  0  0  0  0  0  0
  1  2  1  0
  2  3  1  0
  3  4  2  0
  3  5  1  0
  5  6  1  0
  6  7  1  0
  7  8  1  0
  7  9  2  0
  6 10  2  0
 10 11  1  0
 11 12  2  0
 12 13  1  0
 13 14  2  0
 14 15  1  0
 15 16  1  0
 15 17  1  0
 14 18  1  0
 18 19  2  0
  2 20  1  0
 20 21  1  0
 21 22  1  0
 22 23  1  0
 23 24  1  0
 24 25  2  0
 24 26  1  0
 23 27  1  0
 19  5  1  0
 27 20  1  0
 19 11  1  0
  1 28  1  0
  1 29  1  0
  1 30  1  0
  8 31  1  0
 10 32  1  0
 12 33  1  0
 13 34  1  0
 15 35  1  0
 18 36  1  0
 20 37  1  1
 21 38  1  0
 21 39  1  0
 22 40  1  0
 22 41  1  0
 27 42  1  0
 27 43  1  0
M  CHG  2   8  -1  26  -1
M  END
>  <UniqueID>  (84) 
82

>  <SMILES>  (84) 
CN(C(=O)n1c(C([NH-])=O)cc2ccc(C(F)F)cc21)[C@@H]1CCN(C(=O)[O-])C1

>  <Energy>  (84) 
82.39697711812387

>  <Genealogy>  (84) 
CN(C(=O)n1c(C([NH-])=O)cc2ccc(C(F)F)cc21)[C@@H]1CCN(C(=O)[O-])C1 (protonated)
CN(C(=O)n1c(C([NH-])=O)cc2ccc(C(F)F)cc21)[C@@H]1CCN(C(=O)[O-])C1 (3D coordinates assigned)
CN(C(=O)n1c(C([NH-])=O)cc2ccc(C(F)F)cc21)[C@@H]1CCN(C(=O)[O-])C1 (nonaromatic ring conformer: 82.39697711812387 kcal/mol)

>  <smiles>  (84) 
CN(C(=O)n1c(C(N)=O)cc2ccc(C(F)F)cc21)[C@@H]1CCN(C(=O)O)C1

>  <score_type>  (84) 
oracle

>  <origin>  (84) 
adg

>  <m_score__min__energy>  (84) 
-12.93

>  <m_primary>  (84) 
energy

$$$$
85:0
     RDKit          3D

 48 49  0  0  0  0  0  0  0  0999 V2000
   -2.1920   24.7640  -28.2760 C   0  0  0  0  0  0  0  0  0  0  0  0
   -3.0250   24.2250  -27.1170 C   0  0  0  0  0  0  0  0  0  0  0  0
   -3.8760   23.0310  -27.5510 C   0  0  0  0  0  0  0  0  0  0  0  0
   -3.0140   21.9130  -27.9620 N   0  0  0  0  0  0  0  0  0  0  0  0
   -1.9840   21.4270  -27.0340 C   0  0  0  0  0  0  0  0  0  0  0  0
   -2.1380   19.9290  -26.7990 C   0  0  0  0  0  0  0  0  0  0  0  0
   -3.0550   21.4690  -29.3370 C   0  0  0  0  0  0  0  0  0  0  0  0
   -3.4660   20.3010  -29.5880 O   0  0  0  0  0  0  0  0  0  0  0  0
   -2.5970   22.3210  -30.5040 C   0  0  1  0  0  0  0  0  0  0  0  0
   -0.8380   21.9720  -30.9050 S   0  0  0  0  0  0  0  0  0  0  0  0
   -0.1540   22.9830  -29.7100 F   0  0  0  0  0  0  0  0  0  0  0  0
   -3.5450   22.3120  -31.6900 C   0  0  0  0  0  0  0  0  0  0  0  0
   -3.0710   22.1460  -32.8460 O   0  0  0  0  0  0  0  0  0  0  0  0
   -4.9750   22.3500  -31.5220 N   0  0  0  0  0  0  0  0  0  0  0  0
   -5.7130   23.3180  -30.9040 C   0  0  0  0  0  0  0  0  0  0  0  0
   -5.1830   24.5650  -30.3050 C   0  0  0  0  0  0  0  0  0  0  0  0
   -5.7420   25.0930  -29.1010 N   0  0  0  0  0  0  0  0  0  0  0  0
   -4.2420   25.1910  -30.8620 O   0  0  0  0  0  0  0  0  0  0  0  0
   -7.0650   22.9750  -30.9130 C   0  0  0  0  0  0  0  0  0  0  0  0
   -7.1380   21.7760  -31.5800 C   0  0  0  0  0  0  0  0  0  0  0  0
   -8.2460   20.9990  -31.9020 C   0  0  0  0  0  0  0  0  0  0  0  0
   -8.0330   19.8210  -32.6380 C   0  0  0  0  0  0  0  0  0  0  0  0
   -6.7290   19.4600  -33.0570 C   0  0  0  0  0  0  0  0  0  0  0  0
   -6.5110   18.1940  -33.8310 C   0  0  0  0  0  0  0  0  0  0  0  0
   -7.2550   17.1750  -33.2660 F   0  0  0  0  0  0  0  0  0  0  0  0
   -5.6270   20.2680  -32.7020 C   0  0  0  0  0  0  0  0  0  0  0  0
   -5.8650   21.4230  -31.9460 C   0  0  0  0  0  0  0  0  0  0  0  0
   -1.3304   25.3215  -27.8801 H   0  0  0  0  0  0  0  0  0  0  0  0
   -1.8346   23.9255  -28.8918 H   0  0  0  0  0  0  0  0  0  0  0  0
   -2.8104   25.4336  -28.8918 H   0  0  0  0  0  0  0  0  0  0  0  0
   -2.3503   23.9086  -26.3078 H   0  0  0  0  0  0  0  0  0  0  0  0
   -3.6984   25.0239  -26.7731 H   0  0  0  0  0  0  0  0  0  0  0  0
   -4.5086   22.7113  -26.7098 H   0  0  0  0  0  0  0  0  0  0  0  0
   -4.5047   23.3302  -28.4026 H   0  0  0  0  0  0  0  0  0  0  0  0
   -0.9899   21.6257  -27.4609 H   0  0  0  0  0  0  0  0  0  0  0  0
   -2.0968   21.9503  -26.0731 H   0  0  0  0  0  0  0  0  0  0  0  0
   -2.1587   19.7277  -25.7178 H   0  0  0  0  0  0  0  0  0  0  0  0
   -3.0767   19.5809  -27.2548 H   0  0  0  0  0  0  0  0  0  0  0  0
   -1.2898   19.3972  -27.2548 H   0  0  0  0  0  0  0  0  0  0  0  0
   -2.6396   23.3730  -30.1855 H   0  0  0  0  0  0  0  0  0  0  0  0
   -5.3820   25.9900  -28.7050 H   0  0  0  0  0  0  0  0  0  0  0  0
   -6.4650   24.5690  -28.5580 H   0  0  0  0  0  0  0  0  0  0  0  0
   -7.8986   23.5453  -30.4772 H   0  0  0  0  0  0  0  0  0  0  0  0
   -9.2577   21.2975  -31.5901 H   0  0  0  0  0  0  0  0  0  0  0  0
   -8.8859   19.1740  -32.8908 H   0  0  0  0  0  0  0  0  0  0  0  0
   -6.8261   18.3431  -34.8743 H   0  0  0  0  0  0  0  0  0  0  0  0
   -5.4442   17.9272  -33.8050 H   0  0  0  0  0  0  0  0  0  0  0  0
   -4.6067   19.9972  -33.0114 H   0  0  0  0  0  0  0  0  0  0  0  0
  1  2  1  0
  2  3  1  0
  3  4  1  0
  4  5  1  0
  5  6  1  0
  4  7  1  0
  7  8  2  0
  7  9  1  0
  9 10  1  0
 10 11  1  0
  9 12  1  0
 12 13  2  0
 12 14  1  0
 14 15  1  0
 15 16  1  0
 16 17  1  0
 16 18  2  0
 15 19  2  0
 19 20  1  0
 20 21  2  0
 21 22  1  0
 22 23  2  0
 23 24  1  0
 24 25  1  0
 23 26  1  0
 26 27  2  0
 27 14  1  0
 27 20  1  0
  1 28  1  0
  1 29  1  0
  1 30  1  0
  2 31  1  0
  2 32  1  0
  3 33  1  0
  3 34  1  0
  5 35  1  0
  5 36  1  0
  6 37  1  0
  6 38  1  0
  6 39  1  0
  9 40  1  1
 17 41  1  0
 17 42  1  0
 19 43  1  0
 21 44  1  0
 22 45  1  0
 24 46  1  0
 24 47  1  0
 26 48  1  0
M  END
>  <UniqueID>  (85) 
83

>  <SMILES>  (85) 
CCCN(CC)C(=O)[C@@H](SF)C(=O)n1c(C(N)=O)cc2ccc(CF)cc21

>  <Energy>  (85) 
83.8983424426905

>  <Genealogy>  (85) 
CCCN(CC)C(=O)[C@@H](SF)C(=O)n1c(C(N)=O)cc2ccc(CF)cc21 (chirality)
CCCN(CC)C(=O)[C@@H](SF)C(=O)n1c(C(N)=O)cc2ccc(CF)cc21 (3D coordinates assigned)
CCCN(CC)C(=O)[C@@H](SF)C(=O)n1c(C(N)=O)cc2ccc(CF)cc21 (optimized conformer: 83.8983424426905 kcal/mol)

>  <smiles>  (85) 
CCCN(CC)C(=O)C(SF)C(=O)n1c(C(N)=O)cc2ccc(CF)cc21

>  <score_type>  (85) 
oracle

>  <origin>  (85) 
adg

>  <m_score__min__energy>  (85) 
-8.8200000000000003

>  <m_primary>  (85) 
energy

$$$$
86:0
     RDKit          3D

 37 38  0  0  0  0  0  0  0  0999 V2000
   -6.0850   17.0240  -31.9840 C   0  0  0  0  0  0  0  0  0  0  0  0
   -5.3940   18.1690  -32.5900 N   0  0  0  0  0  0  0  0  0  0  0  0
   -4.2440   17.9280  -33.4760 C   0  0  0  0  0  0  0  0  0  0  0  0
   -4.7030   17.7300  -34.8870 C   0  0  0  0  0  0  0  0  0  0  0  0
   -5.7340   18.3170  -35.3080 O   0  0  0  0  0  0  0  0  0  0  0  0
   -4.0020   16.8780  -35.7300 O   0  0  0  0  0  0  0  0  0  0  0  0
   -5.8660   19.5130  -32.3220 C   0  0  0  0  0  0  0  0  0  0  0  0
   -7.2070   19.8860  -32.6180 C   0  0  0  0  0  0  0  0  0  0  0  0
   -7.6730   21.1810  -32.3450 C   0  0  0  0  0  0  0  0  0  0  0  0
   -6.7830   22.0930  -31.7890 C   0  0  0  0  0  0  0  0  0  0  0  0
   -6.9810   23.3970  -31.3940 C   0  0  0  0  0  0  0  0  0  0  0  0
   -5.7540   23.8180  -30.8810 C   0  0  0  0  0  0  0  0  0  0  0  0
   -5.5140   25.1830  -30.3620 C   0  0  0  0  0  0  0  0  0  0  0  0
   -4.2460   25.8160  -30.5040 N   0  0  0  0  0  0  0  0  0  0  0  0
   -6.4510   25.8080  -29.7970 O   0  0  0  0  0  0  0  0  0  0  0  0
   -4.8350   22.8140  -30.9650 N   0  0  0  0  0  0  0  0  0  0  0  0
   -3.4710   22.8260  -30.5170 C   0  0  0  0  0  0  0  0  0  0  0  0
   -2.5430   22.5780  -31.3330 O   0  0  0  0  0  0  0  0  0  0  0  0
   -3.1400   23.1040  -29.0820 C   0  0  0  0  0  0  0  0  0  0  0  0
   -1.5370   23.9510  -28.9570 P   0  0  0  0  0  0  0  0  0  0  0  0
   -0.5510   23.3190  -29.9130 O   0  0  0  0  0  0  0  0  0  0  0  0
   -1.7230   25.5880  -29.3350 O   0  0  0  0  0  0  0  0  0  0  0  0
   -0.9530   23.8060  -27.3760 O   0  0  0  0  0  0  0  0  0  0  0  0
   -5.4830   21.7640  -31.5160 C   0  0  0  0  0  0  0  0  0  0  0  0
   -4.9960   20.4750  -31.7530 C   0  0  0  0  0  0  0  0  0  0  0  0
   -6.0364   17.1045  -30.8880 H   0  0  0  0  0  0  0  0  0  0  0  0
   -7.1371   17.0189  -32.3050 H   0  0  0  0  0  0  0  0  0  0  0  0
   -5.5992   16.0908  -32.3050 H   0  0  0  0  0  0  0  0  0  0  0  0
   -3.5665   18.7936  -33.4336 H   0  0  0  0  0  0  0  0  0  0  0  0
   -3.7204   17.0204  -33.1411 H   0  0  0  0  0  0  0  0  0  0  0  0
   -7.8882   19.1484  -33.0674 H   0  0  0  0  0  0  0  0  0  0  0  0
   -8.7124   21.4664  -32.5645 H   0  0  0  0  0  0  0  0  0  0  0  0
   -7.9094   23.9824  -31.4673 H   0  0  0  0  0  0  0  0  0  0  0  0
   -3.4910   25.6730  -29.7970 H   0  0  0  0  0  0  0  0  0  0  0  0
   -3.9227   23.7424  -28.6462 H   0  0  0  0  0  0  0  0  0  0  0  0
   -3.0843   22.1504  -28.5365 H   0  0  0  0  0  0  0  0  0  0  0  0
   -3.9574   20.2131  -31.5024 H   0  0  0  0  0  0  0  0  0  0  0  0
  1  2  1  0
  2  3  1  0
  3  4  1  0
  4  5  2  0
  4  6  1  0
  2  7  1  0
  7  8  2  0
  8  9  1  0
  9 10  2  0
 10 11  1  0
 11 12  2  0
 12 13  1  0
 13 14  1  0
 13 15  2  0
 12 16  1  0
 16 17  1  0
 17 18  2  0
 17 19  1  0
 19 20  1  0
 20 21  2  0
 20 22  1  0
 20 23  1  0
 16 24  1  0
 24 25  2  0
 25  7  1  0
 24 10  1  0
  1 26  1  0
  1 27  1  0
  1 28  1  0
  3 29  1  0
  3 30  1  0
  8 31  1  0
  9 32  1  0
 11 33  1  0
 14 34  1  0
 19 35  1  0
 19 36  1  0
 25 37  1  0
M  CHG  4   6  -1  14  -1  22  -1  23  -1
M  END
>  <UniqueID>  (86) 
84

>  <SMILES>  (86) 
CN(CC(=O)[O-])c1ccc2cc(C([NH-])=O)n(C(=O)CP(=O)([O-])[O-])c2c1

>  <Energy>  (86) 
73.34122931019701

>  <Genealogy>  (86) 
CN(CC(=O)[O-])c1ccc2cc(C([NH-])=O)n(C(=O)CP(=O)([O-])[O-])c2c1 (protonated)
CN(CC(=O)[O-])c1ccc2cc(C([NH-])=O)n(C(=O)CP(=O)([O-])[O-])c2c1 (3D coordinates assigned)
CN(CC(=O)[O-])c1ccc2cc(C([NH-])=O)n(C(=O)CP(=O)([O-])[O-])c2c1 (optimized conformer: 73.34122931019701 kcal/mol)

>  <smiles>  (86) 
CN(CC(=O)O)c1ccc2cc(C(N)=O)n(C(=O)CP(=O)(O)O)c2c1

>  <score_type>  (86) 
oracle

>  <origin>  (86) 
adg

>  <m_score__min__energy>  (86) 
-12.67

>  <m_primary>  (86) 
energy

$$$$
87:0
     RDKit          3D

 39 40  0  0  0  0  0  0  0  0999 V2000
    3.0850   22.2900  -36.2070 C   0  0  0  0  0  0  0  0  0  0  0  0
    2.0020   22.9450  -35.3470 C   0  0  2  0  0  0  0  0  0  0  0  0
    1.2430   21.9610  -34.5720 N   0  0  0  0  0  0  0  0  0  0  0  0
    0.0610   21.2280  -34.9370 C   0  0  0  0  0  0  0  0  0  0  0  0
   -0.2120   21.1050  -36.1590 O   0  0  0  0  0  0  0  0  0  0  0  0
   -0.8940   20.6610  -33.9320 C   0  0  0  0  0  0  0  0  0  0  0  0
   -1.5200   21.7510  -33.1970 N   0  0  0  0  0  0  0  0  0  0  0  0
   -2.1840   21.5630  -31.9460 C   0  0  0  0  0  0  0  0  0  0  0  0
   -1.5490   21.1140  -30.9520 O   0  0  0  0  0  0  0  0  0  0  0  0
   -3.5780   21.8830  -31.8210 N   0  0  0  0  0  0  0  0  0  0  0  0
   -4.1390   22.9090  -31.1200 C   0  0  0  0  0  0  0  0  0  0  0  0
   -3.4080   24.0080  -30.4560 C   0  0  0  0  0  0  0  0  0  0  0  0
   -3.8810   25.3510  -30.5250 N   0  0  0  0  0  0  0  0  0  0  0  0
   -2.3750   23.7520  -29.7830 O   0  0  0  0  0  0  0  0  0  0  0  0
   -5.5300   22.8380  -31.1820 C   0  0  0  0  0  0  0  0  0  0  0  0
   -5.8040   21.7330  -31.9560 C   0  0  0  0  0  0  0  0  0  0  0  0
   -7.0260   21.1960  -32.3470 C   0  0  0  0  0  0  0  0  0  0  0  0
   -7.0130   20.0350  -33.1380 C   0  0  0  0  0  0  0  0  0  0  0  0
   -5.7880   19.4170  -33.4990 C   0  0  0  0  0  0  0  0  0  0  0  0
   -5.7850   18.1930  -34.3800 C   0  0  0  0  0  0  0  0  0  0  0  0
   -5.9050   18.5500  -35.7120 F   0  0  0  0  0  0  0  0  0  0  0  0
   -4.6080   17.4830  -34.2270 F   0  0  0  0  0  0  0  0  0  0  0  0
   -6.8490   17.3820  -34.0340 F   0  0  0  0  0  0  0  0  0  0  0  0
   -4.5660   20.0070  -33.1000 C   0  0  0  0  0  0  0  0  0  0  0  0
   -4.6100   21.1750  -32.3280 C   0  0  0  0  0  0  0  0  0  0  0  0
    0.9000   23.9810  -36.3420 S   0  0  0  0  0  0  0  0  0  0  0  0
    0.6890   25.2150  -35.4760 O   0  0  0  0  0  0  0  0  0  0  0  0
    1.9040   24.5500  -37.5920 O   0  0  0  0  0  0  0  0  0  0  0  0
    3.8432   21.8314  -35.5553 H   0  0  0  0  0  0  0  0  0  0  0  0
    2.6303   21.5153  -36.8420 H   0  0  0  0  0  0  0  0  0  0  0  0
    3.5599   23.0524  -36.8420 H   0  0  0  0  0  0  0  0  0  0  0  0
    2.5197   23.5967  -34.6277 H   0  0  0  0  0  0  0  0  0  0  0  0
   -1.6674   20.0746  -34.4497 H   0  0  0  0  0  0  0  0  0  0  0  0
   -0.3501   20.0088  -33.2329 H   0  0  0  0  0  0  0  0  0  0  0  0
   -3.4910   26.0220  -31.2240 H   0  0  0  0  0  0  0  0  0  0  0  0
   -6.2543   23.5198  -30.7124 H   0  0  0  0  0  0  0  0  0  0  0  0
   -7.9739   21.6661  -32.0460 H   0  0  0  0  0  0  0  0  0  0  0  0
   -7.9633   19.6002  -33.4813 H   0  0  0  0  0  0  0  0  0  0  0  0
   -3.6038   19.5592  -33.3891 H   0  0  0  0  0  0  0  0  0  0  0  0
  1  2  1  0
  2  3  1  0
  3  4  1  0
  4  5  2  0
  4  6  1  0
  6  7  1  0
  7  8  1  0
  8  9  2  0
  8 10  1  0
 10 11  1  0
 11 12  1  0
 12 13  1  0
 12 14  2  0
 11 15  2  0
 15 16  1  0
 16 17  2  0
 17 18  1  0
 18 19  2  0
 19 20  1  0
 20 21  1  0
 20 22  1  0
 20 23  1  0
 19 24  1  0
 24 25  2  0
  2 26  1  0
 26 27  2  0
 26 28  1  6
 25 10  1  0
 25 16  1  0
  1 29  1  0
  1 30  1  0
  1 31  1  0
  2 32  1  1
  6 33  1  0
  6 34  1  0
 13 35  1  0
 15 36  1  0
 17 37  1  0
 18 38  1  0
 24 39  1  0
M  CHG  4   3  -1   7  -1  13  -1  28  -1
M  END
>  <UniqueID>  (87) 
85

>  <SMILES>  (87) 
C[C@H]([N-]C(=O)C[N-]C(=O)n1c(C([NH-])=O)cc2ccc(C(F)(F)F)cc21)[S@@](=O)[O-]

>  <Energy>  (87) 
72.28970900572199

>  <Genealogy>  (87) 
CC([N-]C(=O)C[N-]C(=O)n1c(C([NH-])=O)cc2ccc(C(F)(F)F)cc21)S(=O)[O-] (protonated)
C[C@H]([N-]C(=O)C[N-]C(=O)n1c(C([NH-])=O)cc2ccc(C(F)(F)F)cc21)[S@@](=O)[O-] (chirality)
C[C@H]([N-]C(=O)C[N-]C(=O)n1c(C([NH-])=O)cc2ccc(C(F)(F)F)cc21)[S@@](=O)[O-] (3D coordinates assigned)
C[C@H]([N-]C(=O)C[N-]C(=O)n1c(C([NH-])=O)cc2ccc(C(F)(F)F)cc21)[S@@](=O)[O-] (optimized conformer: 72.28970900572199 kcal/mol)

>  <smiles>  (87) 
CC(NC(=O)CNC(=O)n1c(C(N)=O)cc2ccc(C(F)(F)F)cc21)S(=O)O

>  <score_type>  (87) 
oracle

>  <origin>  (87) 
adg

>  <m_score__min__energy>  (87) 
-14.220000000000001

>  <m_primary>  (87) 
energy

$$$$
88:0
     RDKit          3D

 54 56  0  0  0  0  0  0  0  0999 V2000
   -4.1290   16.1530  -34.1140 C   0  0  0  0  0  0  0  0  0  0  0  0
   -5.0580   17.2180  -33.6140 C   0  0  0  0  0  0  0  0  0  0  0  0
   -6.4390   16.9400  -33.4590 C   0  0  0  0  0  0  0  0  0  0  0  0
   -7.3270   17.9430  -33.0330 C   0  0  0  0  0  0  0  0  0  0  0  0
   -6.8080   19.2100  -32.7810 C   0  0  0  0  0  0  0  0  0  0  0  0
   -7.4410   20.3640  -32.3800 C   0  0  0  0  0  0  0  0  0  0  0  0
   -6.4370   21.3270  -32.3020 C   0  0  0  0  0  0  0  0  0  0  0  0
   -6.6480   22.6970  -31.7930 C   0  0  0  0  0  0  0  0  0  0  0  0
   -5.9280   23.8010  -32.3450 N   0  0  0  0  0  0  0  0  0  0  0  0
   -7.4930   22.9070  -30.8840 O   0  0  0  0  0  0  0  0  0  0  0  0
   -5.2330   20.7920  -32.6480 N   0  0  0  0  0  0  0  0  0  0  0  0
   -3.9780   21.4710  -32.8270 C   0  0  0  0  0  0  0  0  0  0  0  0
   -3.8390   22.2660  -33.7960 O   0  0  0  0  0  0  0  0  0  0  0  0
   -2.8800   21.3330  -31.7930 C   0  0  1  0  0  0  0  0  0  0  0  0
   -1.5710   21.1600  -32.4270 N   0  0  0  0  0  0  0  0  0  0  0  0
   -1.2690   20.1300  -33.3710 C   0  0  0  0  0  0  0  0  0  0  0  0
   -1.5810   18.9320  -33.1280 O   0  0  0  0  0  0  0  0  0  0  0  0
   -0.6190   20.4690  -34.5610 O   0  0  0  0  0  0  0  0  0  0  0  0
    0.7860   20.7020  -34.6470 C   0  0  0  0  0  0  0  0  0  0  0  0
    1.0640   21.9930  -35.3520 C   0  0  0  0  0  0  0  0  0  0  0  0
    0.2490   23.0220  -35.3750 O   0  0  0  0  0  0  0  0  0  0  0  0
    0.8520   23.9410  -36.0920 C   0  0  0  0  0  0  0  0  0  0  0  0
    0.3600   25.0750  -36.3320 O   0  0  0  0  0  0  0  0  0  0  0  0
    2.0260   23.5490  -36.5350 O   0  0  0  0  0  0  0  0  0  0  0  0
    2.1900   22.3290  -36.0820 C   0  0  0  0  0  0  0  0  0  0  0  0
    3.3810   21.4720  -36.3570 C   0  0  0  0  0  0  0  0  0  0  0  0
   -2.8540   22.5520  -30.8410 C   0  0  2  0  0  0  0  0  0  0  0  0
   -3.1620   22.1630  -29.3900 C   0  0  0  0  0  0  0  0  0  0  0  0
   -3.8310   23.4890  -31.2580 O   0  0  0  0  0  0  0  0  0  0  0  0
   -3.9400   24.7710  -30.1330 P   0  0  0  0  0  0  0  0  0  0  0  0
   -4.6510   24.2810  -28.8940 O   0  0  0  0  0  0  0  0  0  0  0  0
   -4.8050   26.0660  -30.7930 O   0  0  0  0  0  0  0  0  0  0  0  0
   -2.3860   25.2900  -29.7120 O   0  0  0  0  0  0  0  0  0  0  0  0
   -5.4750   19.4940  -32.9310 C   0  0  0  0  0  0  0  0  0  0  0  0
   -4.5700   18.5180  -33.3600 C   0  0  0  0  0  0  0  0  0  0  0  0
   -3.6744   15.6318  -33.2586 H   0  0  0  0  0  0  0  0  0  0  0  0
   -4.6923   15.4324  -34.7251 H   0  0  0  0  0  0  0  0  0  0  0  0
   -3.3386   16.6132  -34.7251 H   0  0  0  0  0  0  0  0  0  0  0  0
   -6.8194   15.9305  -33.6739 H   0  0  0  0  0  0  0  0  0  0  0  0
   -8.3989   17.7332  -32.9028 H   0  0  0  0  0  0  0  0  0  0  0  0
   -8.5117   20.4978  -32.1665 H   0  0  0  0  0  0  0  0  0  0  0  0
   -5.1830   23.6560  -33.0620 H   0  0  0  0  0  0  0  0  0  0  0  0
   -6.1100   24.7690  -32.0020 H   0  0  0  0  0  0  0  0  0  0  0  0
   -3.0996   20.4323  -31.2010 H   0  0  0  0  0  0  0  0  0  0  0  0
    1.2079   20.7462  -33.6321 H   0  0  0  0  0  0  0  0  0  0  0  0
    1.2474   19.8811  -35.2155 H   0  0  0  0  0  0  0  0  0  0  0  0
    3.8286   21.1499  -35.4052 H   0  0  0  0  0  0  0  0  0  0  0  0
    3.0714   20.5883  -36.9342 H   0  0  0  0  0  0  0  0  0  0  0  0
    4.1206   22.0463  -36.9342 H   0  0  0  0  0  0  0  0  0  0  0  0
   -1.8401   22.9768  -30.8817 H   0  0  0  0  0  0  0  0  0  0  0  0
   -2.6265   22.8393  -28.7075 H   0  0  0  0  0  0  0  0  0  0  0  0
   -4.2444   22.2428  -29.2108 H   0  0  0  0  0  0  0  0  0  0  0  0
   -2.8361   21.1278  -29.2108 H   0  0  0  0  0  0  0  0  0  0  0  0
   -3.5050   18.7572  -33.4961 H   0  0  0  0  0  0  0  0  0  0  0  0
  1  2  1  0
  2  3  2  0
  3  4  1  0
  4  5  2  0
  5  6  1  0
  6  7  2  0
  7  8  1  0
  8  9  1  0
  8 10  2  0
  7 11  1  0
 11 12  1  0
 12 13  2  0
 12 14  1  0
 14 15  1  0
 15 16  1  0
 16 17  2  0
 16 18  1  0
 18 19  1  0
 19 20  1  0
 20 21  1  0
 21 22  1  0
 22 23  2  0
 22 24  1  0
 24 25  1  0
 25 26  1  0
 14 27  1  0
 27 28  1  0
 27 29  1  0
 29 30  1  0
 30 31  2  0
 30 32  1  0
 30 33  1  0
 11 34  1  0
 34 35  2  0
 35  2  1  0
 34  5  1  0
 25 20  2  0
  1 36  1  0
  1 37  1  0
  1 38  1  0
  3 39  1  0
  4 40  1  0
  6 41  1  0
  9 42  1  0
  9 43  1  0
 14 44  1  1
 19 45  1  0
 19 46  1  0
 26 47  1  0
 26 48  1  0
 26 49  1  0
 27 50  1  1
 28 51  1  0
 28 52  1  0
 28 53  1  0
 35 54  1  0
M  CHG  3  15  -1  32  -1  33  -1
M  END
>  <UniqueID>  (88) 
86

>  <SMILES>  (88) 
Cc1ccc2cc(C(N)=O)n(C(=O)[C@@H]([N-]C(=O)OCc3oc(=O)oc3C)[C@H](C)OP(=O)([O-])[O-])c2c1

>  <Energy>  (88) 
119.85733878160534

>  <Genealogy>  (88) 
Cc1ccc2cc(C(N)=O)n(C(=O)[C@@H]([N-]C(=O)OCc3oc(=O)oc3C)C(C)OP(=O)([O-])[O-])c2c1 (protonated)
Cc1ccc2cc(C(N)=O)n(C(=O)[C@@H]([N-]C(=O)OCc3oc(=O)oc3C)[C@H](C)OP(=O)([O-])[O-])c2c1 (chirality)
Cc1ccc2cc(C(N)=O)n(C(=O)[C@@H]([N-]C(=O)OCc3oc(=O)oc3C)[C@H](C)OP(=O)([O-])[O-])c2c1 (3D coordinates assigned)
Cc1ccc2cc(C(N)=O)n(C(=O)[C@@H]([N-]C(=O)OCc3oc(=O)oc3C)[C@H](C)OP(=O)([O-])[O-])c2c1 (optimized conformer: 119.85733878160534 kcal/mol)

>  <smiles>  (88) 
Cc1ccc2cc(C(N)=O)n(C(=O)[C@@H](NC(=O)OCc3oc(=O)oc3C)C(C)OP(=O)(O)O)c2c1

>  <score_type>  (88) 
oracle

>  <origin>  (88) 
adg

>  <m_score__min__energy>  (88) 
-14.050000000000001

>  <m_primary>  (88) 
energy

$$$$
89:0
     RDKit          3D

 47 48  0  0  0  0  0  0  0  0999 V2000
   -6.8720   24.1990  -30.8370 C   0  0  0  0  0  0  0  0  0  0  0  0
   -7.3160   22.8660  -31.3640 C   0  0  0  0  0  0  0  0  0  0  0  0
   -8.6900   22.5190  -31.3200 C   0  0  0  0  0  0  0  0  0  0  0  0
   -9.1240   21.2600  -31.7690 C   0  0  0  0  0  0  0  0  0  0  0  0
   -8.1650   20.3750  -32.2580 C   0  0  0  0  0  0  0  0  0  0  0  0
   -8.3010   19.0860  -32.7240 C   0  0  0  0  0  0  0  0  0  0  0  0
   -7.0120   18.6800  -33.0720 C   0  0  0  0  0  0  0  0  0  0  0  0
   -6.7020   17.3550  -33.6550 C   0  0  0  0  0  0  0  0  0  0  0  0
   -5.8670   17.2330  -34.8040 N   0  0  0  0  0  0  0  0  0  0  0  0
   -7.2020   16.3150  -33.1460 O   0  0  0  0  0  0  0  0  0  0  0  0
   -6.1170   19.6790  -32.8310 N   0  0  0  0  0  0  0  0  0  0  0  0
   -4.6980   19.6510  -33.0400 C   0  0  0  0  0  0  0  0  0  0  0  0
   -4.2420   19.4820  -34.2050 O   0  0  0  0  0  0  0  0  0  0  0  0
   -3.7640   19.9310  -31.8930 C   0  0  0  0  0  0  0  0  0  0  0  0
   -2.5240   20.7240  -32.3360 C   0  0  0  0  0  0  0  0  0  0  0  0
   -1.6160   21.1370  -31.1640 C   0  0  0  0  0  0  0  0  0  0  0  0
   -1.6730   22.6380  -30.8410 C   0  0  0  0  0  0  0  0  0  0  0  0
   -3.0510   23.1170  -30.8130 N   0  0  0  0  0  0  0  0  0  0  0  0
   -3.4850   24.2460  -30.0480 C   0  0  0  0  0  0  0  0  0  0  0  0
   -3.8740   25.2980  -30.6250 O   0  0  0  0  0  0  0  0  0  0  0  0
   -3.5180   24.1620  -28.5530 C   0  0  0  0  0  0  0  0  0  0  0  0
   -2.1280   23.8800  -27.9730 C   0  0  0  0  0  0  0  0  0  0  0  0
   -1.1350   24.9240  -28.3840 C   0  0  0  0  0  0  0  0  0  0  0  0
    0.1000   24.7160  -28.2400 O   0  0  0  0  0  0  0  0  0  0  0  0
   -1.5720   26.1170  -28.9500 O   0  0  0  0  0  0  0  0  0  0  0  0
   -6.8360   20.7080  -32.3280 C   0  0  0  0  0  0  0  0  0  0  0  0
   -6.3710   21.9440  -31.8630 C   0  0  0  0  0  0  0  0  0  0  0  0
   -6.8786   24.1792  -29.7372 H   0  0  0  0  0  0  0  0  0  0  0  0
   -5.8538   24.4137  -31.1937 H   0  0  0  0  0  0  0  0  0  0  0  0
   -7.5581   24.9813  -31.1937 H   0  0  0  0  0  0  0  0  0  0  0  0
   -9.4226   23.2415  -30.9311 H   0  0  0  0  0  0  0  0  0  0  0  0
  -10.1877   20.9818  -31.7355 H   0  0  0  0  0  0  0  0  0  0  0  0
   -9.2289   18.5007  -32.8047 H   0  0  0  0  0  0  0  0  0  0  0  0
   -5.4840   18.0810  -35.2820 H   0  0  0  0  0  0  0  0  0  0  0  0
   -4.3031   20.5127  -31.1307 H   0  0  0  0  0  0  0  0  0  0  0  0
   -3.4224   18.9655  -31.4915 H   0  0  0  0  0  0  0  0  0  0  0  0
   -1.9392   20.1001  -33.0279 H   0  0  0  0  0  0  0  0  0  0  0  0
   -2.8813   21.6484  -32.8133 H   0  0  0  0  0  0  0  0  0  0  0  0
   -1.9262   20.5768  -30.2696 H   0  0  0  0  0  0  0  0  0  0  0  0
   -0.5817   20.9102  -31.4619 H   0  0  0  0  0  0  0  0  0  0  0  0
   -1.2122   22.8116  -29.8574 H   0  0  0  0  0  0  0  0  0  0  0  0
   -1.1286   23.1851  -31.6248 H   0  0  0  0  0  0  0  0  0  0  0  0
   -3.8860   25.1170  -28.1498 H   0  0  0  0  0  0  0  0  0  0  0  0
   -4.1836   23.3334  -28.2696 H   0  0  0  0  0  0  0  0  0  0  0  0
   -2.1959   23.8649  -26.8752 H   0  0  0  0  0  0  0  0  0  0  0  0
   -1.7852   22.9089  -28.3596 H   0  0  0  0  0  0  0  0  0  0  0  0
   -5.2990   22.1897  -31.8859 H   0  0  0  0  0  0  0  0  0  0  0  0
  1  2  1  0
  2  3  2  0
  3  4  1  0
  4  5  2  0
  5  6  1  0
  6  7  2  0
  7  8  1  0
  8  9  1  0
  8 10  2  0
  7 11  1  0
 11 12  1  0
 12 13  2  0
 12 14  1  0
 14 15  1  0
 15 16  1  0
 16 17  1  0
 17 18  1  0
 18 19  1  0
 19 20  2  0
 19 21  1  0
 21 22  1  0
 22 23  1  0
 23 24  2  0
 23 25  1  0
 11 26  1  0
 26 27  2  0
 27  2  1  0
 26  5  1  0
  1 28  1  0
  1 29  1  0
  1 30  1  0
  3 31  1  0
  4 32  1  0
  6 33  1  0
  9 34  1  0
 14 35  1  0
 14 36  1  0
 15 37  1  0
 15 38  1  0
 16 39  1  0
 16 40  1  0
 17 41  1  0
 17 42  1  0
 21 43  1  0
 21 44  1  0
 22 45  1  0
 22 46  1  0
 27 47  1  0
M  CHG  3   9  -1  18  -1  25  -1
M  END
>  <UniqueID>  (89) 
87

>  <SMILES>  (89) 
Cc1ccc2cc(C([NH-])=O)n(C(=O)CCCC[N-]C(=O)CCC(=O)[O-])c2c1

>  <Energy>  (89) 
76.02460436603916

>  <Genealogy>  (89) 
Cc1ccc2cc(C([NH-])=O)n(C(=O)CCCC[N-]C(=O)CCC(=O)[O-])c2c1 (protonated)
Cc1ccc2cc(C([NH-])=O)n(C(=O)CCCC[N-]C(=O)CCC(=O)[O-])c2c1 (3D coordinates assigned)
Cc1ccc2cc(C([NH-])=O)n(C(=O)CCCC[N-]C(=O)CCC(=O)[O-])c2c1 (optimized conformer: 76.02460436603916 kcal/mol)

>  <smiles>  (89) 
Cc1ccc2cc(C(N)=O)n(C(=O)CCCCNC(=O)CCC(=O)O)c2c1

>  <score_type>  (89) 
oracle

>  <origin>  (89) 
adg

>  <m_score__min__energy>  (89) 
-12.4

>  <m_primary>  (89) 
energy

$$$$
90:0
     RDKit          3D

 39 40  0  0  0  0  0  0  0  0999 V2000
   -3.8610   24.5910  -29.2320 N   0  0  0  0  0  0  0  0  0  0  0  0
   -4.8190   24.8530  -30.2590 C   0  0  0  0  0  0  0  0  0  0  0  0
   -4.8480   25.9940  -30.7900 O   0  0  0  0  0  0  0  0  0  0  0  0
   -5.7520   23.7970  -30.7190 C   0  0  0  0  0  0  0  0  0  0  0  0
   -7.0930   24.0170  -31.0360 C   0  0  0  0  0  0  0  0  0  0  0  0
   -7.6040   22.7760  -31.3400 C   0  0  0  0  0  0  0  0  0  0  0  0
   -8.8860   22.4100  -31.7450 C   0  0  0  0  0  0  0  0  0  0  0  0
   -9.1260   21.0540  -32.0240 C   0  0  0  0  0  0  0  0  0  0  0  0
   -8.0930   20.0900  -31.8830 C   0  0  0  0  0  0  0  0  0  0  0  0
   -8.3620   18.6480  -32.2320 C   0  0  0  0  0  0  0  0  0  0  0  0
   -7.8560   17.8350  -31.2340 F   0  0  0  0  0  0  0  0  0  0  0  0
   -9.7210   18.4140  -32.3560 F   0  0  0  0  0  0  0  0  0  0  0  0
   -7.7520   18.3200  -33.4290 F   0  0  0  0  0  0  0  0  0  0  0  0
   -6.7990   20.5080  -31.4930 C   0  0  0  0  0  0  0  0  0  0  0  0
   -6.5950   21.8610  -31.2020 C   0  0  0  0  0  0  0  0  0  0  0  0
   -5.4550   22.4720  -30.8190 N   0  0  0  0  0  0  0  0  0  0  0  0
   -4.1710   21.8460  -30.6830 C   0  0  0  0  0  0  0  0  0  0  0  0
   -3.6650   21.6930  -29.5380 O   0  0  0  0  0  0  0  0  0  0  0  0
   -3.5100   21.3170  -31.8370 N   0  0  0  0  0  0  0  0  0  0  0  0
   -2.1220   21.6210  -32.1700 C   0  0  0  0  0  0  0  0  0  0  0  0
   -1.1850   20.7200  -31.4230 C   0  0  0  0  0  0  0  0  0  0  0  0
   -1.3000   19.4680  -31.5430 O   0  0  0  0  0  0  0  0  0  0  0  0
   -0.1870   21.2690  -30.6090 O   0  0  0  0  0  0  0  0  0  0  0  0
   -0.4570   22.1610  -29.5330 C   0  0  0  0  0  0  0  0  0  0  0  0
   -0.7700   23.4400  -30.0350 O   0  0  0  0  0  0  0  0  0  0  0  0
   -0.8360   24.5500  -28.7390 P   0  0  0  0  0  0  0  0  0  0  0  0
   -1.8870   24.1300  -27.7360 O   0  0  0  0  0  0  0  0  0  0  0  0
    0.6700   24.6490  -27.9730 O   0  0  0  0  0  0  0  0  0  0  0  0
   -1.2400   26.0750  -29.3440 O   0  0  0  0  0  0  0  0  0  0  0  0
   -3.1830   25.3330  -28.9490 H   0  0  0  0  0  0  0  0  0  0  0  0
   -3.8340   23.6750  -28.7270 H   0  0  0  0  0  0  0  0  0  0  0  0
   -7.6279   24.9782  -31.0417 H   0  0  0  0  0  0  0  0  0  0  0  0
   -9.6853   23.1593  -31.8432 H   0  0  0  0  0  0  0  0  0  0  0  0
  -10.1254   20.7356  -32.3554 H   0  0  0  0  0  0  0  0  0  0  0  0
   -5.9724   19.7859  -31.4203 H   0  0  0  0  0  0  0  0  0  0  0  0
   -1.9716   21.4813  -33.2507 H   0  0  0  0  0  0  0  0  0  0  0  0
   -1.9113   22.6624  -31.8852 H   0  0  0  0  0  0  0  0  0  0  0  0
   -1.3080   21.7805  -28.9490 H   0  0  0  0  0  0  0  0  0  0  0  0
    0.4333   22.2327  -28.8910 H   0  0  0  0  0  0  0  0  0  0  0  0
  1  2  1  0
  2  3  2  0
  2  4  1  0
  4  5  2  0
  5  6  1  0
  6  7  2  0
  7  8  1  0
  8  9  2  0
  9 10  1  0
 10 11  1  0
 10 12  1  0
 10 13  1  0
  9 14  1  0
 14 15  2  0
 15 16  1  0
 16 17  1  0
 17 18  2  0
 17 19  1  0
 19 20  1  0
 20 21  1  0
 21 22  2  0
 21 23  1  0
 23 24  1  0
 24 25  1  0
 25 26  1  0
 26 27  2  0
 26 28  1  0
 26 29  1  0
 16  4  1  0
 15  6  1  0
  1 30  1  0
  1 31  1  0
  5 32  1  0
  7 33  1  0
  8 34  1  0
 14 35  1  0
 20 36  1  0
 20 37  1  0
 24 38  1  0
 24 39  1  0
M  CHG  3  19  -1  28  -1  29  -1
M  END
>  <UniqueID>  (90) 
88

>  <SMILES>  (90) 
NC(=O)c1cc2ccc(C(F)(F)F)cc2n1C(=O)[N-]CC(=O)OCOP(=O)([O-])[O-]

>  <Energy>  (90) 
71.67716126547735

>  <Genealogy>  (90) 
NC(=O)c1cc2ccc(C(F)(F)F)cc2n1C(=O)[N-]CC(=O)OCOP(=O)([O-])[O-] (protonated)
NC(=O)c1cc2ccc(C(F)(F)F)cc2n1C(=O)[N-]CC(=O)OCOP(=O)([O-])[O-] (3D coordinates assigned)
NC(=O)c1cc2ccc(C(F)(F)F)cc2n1C(=O)[N-]CC(=O)OCOP(=O)([O-])[O-] (optimized conformer: 71.67716126547735 kcal/mol)

>  <smiles>  (90) 
NC(=O)c1cc2ccc(C(F)(F)F)cc2n1C(=O)NCC(=O)OCOP(=O)(O)O

>  <score_type>  (90) 
oracle

>  <origin>  (90) 
adg

>  <m_score__min__energy>  (90) 
-12.16

>  <m_primary>  (90) 
energy

$$$$
91:0
     RDKit          3D

 80 83  0  0  0  0  0  0  0  0999 V2000
   -1.7120   28.1890  -38.7770 C   0  0  0  0  0  0  0  0  0  0  0  0
   -1.2170   27.7190  -37.4530 N   0  0  0  0  0  0  0  0  0  0  0  0
   -1.8980   28.5750  -36.4490 C   0  0  0  0  0  0  0  0  0  0  0  0
   -1.4910   28.2310  -35.0310 C   0  0  0  0  0  0  0  0  0  0  0  0
    0.0040   28.4690  -34.8780 C   0  0  0  0  0  0  0  0  0  0  0  0
    0.8220   27.5900  -35.8520 C   0  0  1  0  0  0  0  0  0  0  0  0
    2.2940   28.0930  -35.7930 C   0  0  0  0  0  0  0  0  0  0  0  0
    0.7880   26.0990  -35.3380 C   0  0  0  0  0  0  0  0  0  0  0  0
    0.3270   25.0890  -36.3960 C   0  0  2  0  0  0  0  0  0  0  0  0
    0.4410   23.7180  -35.8910 N   0  0  0  0  0  0  0  0  0  0  0  0
    1.6280   22.9160  -35.8480 C   0  0  0  0  0  0  0  0  0  0  0  0
    2.6010   23.1540  -36.6110 O   0  0  0  0  0  0  0  0  0  0  0  0
    1.7090   21.7840  -34.8650 C   0  0  0  0  0  0  0  0  0  0  0  0
    0.6380   21.8590  -33.9220 O   0  0  0  0  0  0  0  0  0  0  0  0
   -0.0310   20.7470  -33.4050 C   0  0  0  0  0  0  0  0  0  0  0  0
   -1.2530   20.5700  -33.6490 O   0  0  0  0  0  0  0  0  0  0  0  0
    0.7070   19.8150  -32.4830 C   0  0  0  0  0  0  0  0  0  0  0  0
    0.2690   19.9970  -31.0590 C   0  0  0  0  0  0  0  0  0  0  0  0
    1.0670   19.7040  -30.1290 O   0  0  0  0  0  0  0  0  0  0  0  0
   -1.0520   20.4700  -30.7550 N   0  0  0  0  0  0  0  0  0  0  0  0
   -1.5640   20.4960  -29.3830 C   0  0  0  0  0  0  0  0  0  0  0  0
   -2.8410   21.3400  -29.2780 C   0  0  0  0  0  0  0  0  0  0  0  0
   -2.7560   22.6170  -30.1350 C   0  0  0  0  0  0  0  0  0  0  0  0
   -3.5040   22.5220  -31.4380 C   0  0  0  0  0  0  0  0  0  0  0  0
   -2.8650   22.2770  -32.5030 O   0  0  0  0  0  0  0  0  0  0  0  0
   -4.9420   22.6640  -31.4890 N   0  0  0  0  0  0  0  0  0  0  0  0
   -5.7080   23.7040  -31.0420 C   0  0  0  0  0  0  0  0  0  0  0  0
   -5.2260   24.9660  -30.4680 C   0  0  0  0  0  0  0  0  0  0  0  0
   -3.8480   25.3150  -30.5500 N   0  0  0  0  0  0  0  0  0  0  0  0
   -6.0500   25.7980  -30.0140 O   0  0  0  0  0  0  0  0  0  0  0  0
   -7.0600   23.4060  -31.1440 C   0  0  0  0  0  0  0  0  0  0  0  0
   -7.1160   22.1530  -31.6990 C   0  0  0  0  0  0  0  0  0  0  0  0
   -8.2180   21.3910  -32.0680 C   0  0  0  0  0  0  0  0  0  0  0  0
   -7.9900   20.1310  -32.6420 C   0  0  0  0  0  0  0  0  0  0  0  0
   -6.6710   19.6490  -32.8320 C   0  0  0  0  0  0  0  0  0  0  0  0
   -6.4460   18.3030  -33.4770 C   0  0  0  0  0  0  0  0  0  0  0  0
   -6.1290   18.4780  -34.8130 F   0  0  0  0  0  0  0  0  0  0  0  0
   -7.5920   17.5300  -33.3770 F   0  0  0  0  0  0  0  0  0  0  0  0
   -5.4100   17.6210  -32.8640 F   0  0  0  0  0  0  0  0  0  0  0  0
   -5.5720   20.4660  -32.4770 C   0  0  0  0  0  0  0  0  0  0  0  0
   -5.8270   21.7170  -31.8920 C   0  0  0  0  0  0  0  0  0  0  0  0
    1.1120   25.2810  -37.6940 C   0  0  0  0  0  0  0  0  0  0  0  0
    0.9670   26.7060  -38.2740 C   0  0  0  0  0  0  0  0  0  0  0  0
    0.2810   27.7620  -37.3400 C   0  0  1  0  0  0  0  0  0  0  0  0
   -2.5023   28.9394  -38.6277 H   0  0  0  0  0  0  0  0  0  0  0  0
   -0.8812   28.6387  -39.3405 H   0  0  0  0  0  0  0  0  0  0  0  0
   -2.1180   27.3360  -39.3405 H   0  0  0  0  0  0  0  0  0  0  0  0
   -1.6397   29.6259  -36.6463 H   0  0  0  0  0  0  0  0  0  0  0  0
   -2.9809   28.4042  -36.5396 H   0  0  0  0  0  0  0  0  0  0  0  0
   -2.0411   28.8688  -34.3235 H   0  0  0  0  0  0  0  0  0  0  0  0
   -1.7249   27.1770  -34.8205 H   0  0  0  0  0  0  0  0  0  0  0  0
    0.2201   29.5275  -35.0849 H   0  0  0  0  0  0  0  0  0  0  0  0
    0.2916   28.2034  -33.8500 H   0  0  0  0  0  0  0  0  0  0  0  0
    2.6035   28.1988  -34.7428 H   0  0  0  0  0  0  0  0  0  0  0  0
    2.9497   27.3679  -36.2973 H   0  0  0  0  0  0  0  0  0  0  0  0
    2.3689   29.0677  -36.2973 H   0  0  0  0  0  0  0  0  0  0  0  0
    1.8013   25.8215  -35.0121 H   0  0  0  0  0  0  0  0  0  0  0  0
    0.0560   26.0599  -34.5179 H   0  0  0  0  0  0  0  0  0  0  0  0
   -0.7354   25.2693  -36.6170 H   0  0  0  0  0  0  0  0  0  0  0  0
    1.6468   20.8291  -35.4074 H   0  0  0  0  0  0  0  0  0  0  0  0
    2.6639   21.8525  -34.3232 H   0  0  0  0  0  0  0  0  0  0  0  0
    0.5091   18.7771  -32.7890 H   0  0  0  0  0  0  0  0  0  0  0  0
    1.7815   20.0414  -32.5475 H   0  0  0  0  0  0  0  0  0  0  0  0
   -1.6770   20.7450  -31.5440 H   0  0  0  0  0  0  0  0  0  0  0  0
   -1.7879   19.4671  -29.0650 H   0  0  0  0  0  0  0  0  0  0  0  0
   -0.7971   20.9464  -28.7357 H   0  0  0  0  0  0  0  0  0  0  0  0
   -3.6950   20.7375  -29.6210 H   0  0  0  0  0  0  0  0  0  0  0  0
   -2.9656   21.6415  -28.2275 H   0  0  0  0  0  0  0  0  0  0  0  0
   -3.1737   23.4530  -29.5549 H   0  0  0  0  0  0  0  0  0  0  0  0
   -1.6951   22.7675  -30.3835 H   0  0  0  0  0  0  0  0  0  0  0  0
   -3.5250   26.0460  -31.2210 H   0  0  0  0  0  0  0  0  0  0  0  0
   -7.9069   24.0403  -30.8434 H   0  0  0  0  0  0  0  0  0  0  0  0
   -9.2409   21.7653  -31.9143 H   0  0  0  0  0  0  0  0  0  0  0  0
   -8.8450   19.5102  -32.9480 H   0  0  0  0  0  0  0  0  0  0  0  0
   -4.5403   20.1288  -32.6553 H   0  0  0  0  0  0  0  0  0  0  0  0
    2.1764   25.0896  -37.4930 H   0  0  0  0  0  0  0  0  0  0  0  0
    0.7049   24.5777  -38.4354 H   0  0  0  0  0  0  0  0  0  0  0  0
    1.9746   27.0750  -38.5159 H   0  0  0  0  0  0  0  0  0  0  0  0
    0.3031   26.6053  -39.1453 H   0  0  0  0  0  0  0  0  0  0  0  0
    0.5555   28.7750  -37.6694 H   0  0  0  0  0  0  0  0  0  0  0  0
  1  2  1  0
  2  3  1  0
  3  4  1  0
  4  5  1  0
  5  6  1  0
  6  7  1  6
  6  8  1  0
  8  9  1  0
  9 10  1  0
 10 11  1  0
 11 12  2  0
 11 13  1  0
 13 14  1  0
 14 15  1  0
 15 16  2  0
 15 17  1  0
 17 18  1  0
 18 19  2  0
 18 20  1  0
 20 21  1  0
 21 22  1  0
 22 23  1  0
 23 24  1  0
 24 25  2  0
 24 26  1  0
 26 27  1  0
 27 28  1  0
 28 29  1  0
 28 30  2  0
 27 31  2  0
 31 32  1  0
 32 33  2  0
 33 34  1  0
 34 35  2  0
 35 36  1  0
 36 37  1  0
 36 38  1  0
 36 39  1  0
 35 40  1  0
 40 41  2  0
  9 42  1  0
 42 43  1  0
 43 44  1  0
 44  2  1  0
 44  6  1  0
 41 26  1  0
 41 32  1  0
  1 45  1  0
  1 46  1  0
  1 47  1  0
  3 48  1  0
  3 49  1  0
  4 50  1  0
  4 51  1  0
  5 52  1  0
  5 53  1  0
  7 54  1  0
  7 55  1  0
  7 56  1  0
  8 57  1  0
  8 58  1  0
  9 59  1  6
 13 60  1  0
 13 61  1  0
 17 62  1  0
 17 63  1  0
 20 64  1  0
 21 65  1  0
 21 66  1  0
 22 67  1  0
 22 68  1  0
 23 69  1  0
 23 70  1  0
 29 71  1  0
 31 72  1  0
 33 73  1  0
 34 74  1  0
 40 75  1  0
 42 76  1  0
 42 77  1  0
 43 78  1  0
 43 79  1  0
 44 80  1  6
M  CHG  2  10  -1  29  -1
M  END
>  <UniqueID>  (91) 
89

>  <SMILES>  (91) 
CN1CCC[C@@]2(C)C[C@H]([N-]C(=O)COC(=O)CC(=O)NCCCC(=O)n3c(C([NH-])=O)cc4ccc(C(F)(F)F)cc43)CCC12

>  <Energy>  (91) 
139.0001403094036

>  <Genealogy>  (91) 
CN1CCCC2(C)CC([N-]C(=O)COC(=O)CC(=O)NCCCC(=O)n3c(C([NH-])=O)cc4ccc(C(F)(F)F)cc43)CCC12 (protonated)
CN1CCC[C@@]2(C)C[C@H]([N-]C(=O)COC(=O)CC(=O)NCCCC(=O)n3c(C([NH-])=O)cc4ccc(C(F)(F)F)cc43)CCC12 (chirality)
CN1CCC[C@@]2(C)C[C@H]([N-]C(=O)COC(=O)CC(=O)NCCCC(=O)n3c(C([NH-])=O)cc4ccc(C(F)(F)F)cc43)CCC12 (3D coordinates assigned)
CN1CCC[C@@]2(C)C[C@H]([N-]C(=O)COC(=O)CC(=O)NCCCC(=O)n3c(C([NH-])=O)cc4ccc(C(F)(F)F)cc43)CCC12 (nonaromatic ring conformer: 139.0001403094036 kcal/mol)

>  <smiles>  (91) 
CN1CCCC2(C)CC(NC(=O)COC(=O)CC(=O)NCCCC(=O)n3c(C(N)=O)cc4ccc(C(F)(F)F)cc43)CCC12

>  <score_type>  (91) 
oracle

>  <origin>  (91) 
adg

>  <m_score__min__energy>  (91) 
-15

>  <m_primary>  (91) 
energy

$$$$
92:0
     RDKit          3D

 50 52  0  0  0  0  0  0  0  0999 V2000
   -7.2550   17.9150  -33.0970 C   0  0  0  0  0  0  0  0  0  0  0  0
   -7.3480   19.3030  -32.5400 C   0  0  0  0  0  0  0  0  0  0  0  0
   -8.6010   19.8180  -32.1300 C   0  0  0  0  0  0  0  0  0  0  0  0
   -8.6940   21.0950  -31.5510 C   0  0  0  0  0  0  0  0  0  0  0  0
   -7.5210   21.8330  -31.4070 C   0  0  0  0  0  0  0  0  0  0  0  0
   -7.3180   23.0590  -30.8190 C   0  0  0  0  0  0  0  0  0  0  0  0
   -5.9490   23.2930  -30.9110 C   0  0  0  0  0  0  0  0  0  0  0  0
   -5.2990   24.5020  -30.3590 C   0  0  0  0  0  0  0  0  0  0  0  0
   -5.2540   24.7610  -28.9540 N   0  0  0  0  0  0  0  0  0  0  0  0
   -4.7370   25.3090  -31.1460 O   0  0  0  0  0  0  0  0  0  0  0  0
   -5.3280   22.2530  -31.5380 N   0  0  0  0  0  0  0  0  0  0  0  0
   -3.9240   22.1180  -31.8190 C   0  0  0  0  0  0  0  0  0  0  0  0
   -3.1490   23.0870  -31.5990 O   0  0  0  0  0  0  0  0  0  0  0  0
   -3.3780   20.8710  -32.4650 C   0  0  0  0  0  0  0  0  0  0  0  0
   -2.1730   21.1350  -33.1640 O   0  0  0  0  0  0  0  0  0  0  0  0
   -1.0830   21.2920  -32.2720 C   0  0  0  0  0  0  0  0  0  0  0  0
   -1.2390   20.4280  -31.0490 C   0  0  0  0  0  0  0  0  0  0  0  0
   -1.2430   19.1750  -31.1880 O   0  0  0  0  0  0  0  0  0  0  0  0
   -1.2900   21.0070  -29.6870 C   0  0  0  0  0  0  0  0  0  0  0  0
   -1.4880   22.3890  -29.5370 C   0  0  0  0  0  0  0  0  0  0  0  0
   -1.5660   22.9680  -28.2640 C   0  0  0  0  0  0  0  0  0  0  0  0
   -1.7860   24.7080  -28.1040 S   0  0  0  0  0  0  0  0  0  0  0  0
   -2.4550   25.0690  -26.4980 C   0  0  0  0  0  0  0  0  0  0  0  0
   -0.4610   25.3990  -28.2680 O   0  0  0  0  0  0  0  0  0  0  0  0
   -2.7290   25.2120  -29.1610 O   0  0  0  0  0  0  0  0  0  0  0  0
   -1.4330   22.1610  -27.1260 C   0  0  0  0  0  0  0  0  0  0  0  0
   -1.2230   20.7870  -27.2640 C   0  0  0  0  0  0  0  0  0  0  0  0
   -1.1430   20.2090  -28.5340 C   0  0  0  0  0  0  0  0  0  0  0  0
   -0.8730   18.8820  -28.6280 F   0  0  0  0  0  0  0  0  0  0  0  0
   -6.3030   21.3570  -31.8190 C   0  0  0  0  0  0  0  0  0  0  0  0
   -6.1780   20.0700  -32.3570 C   0  0  0  0  0  0  0  0  0  0  0  0
   -7.2065   17.1907  -32.2705 H   0  0  0  0  0  0  0  0  0  0  0  0
   -8.1413   17.7076  -33.7147 H   0  0  0  0  0  0  0  0  0  0  0  0
   -6.3490   17.8277  -33.7147 H   0  0  0  0  0  0  0  0  0  0  0  0
   -9.5098   19.2134  -32.2658 H   0  0  0  0  0  0  0  0  0  0  0  0
   -9.6626   21.4993  -31.2217 H   0  0  0  0  0  0  0  0  0  0  0  0
   -8.0773   23.7164  -30.3704 H   0  0  0  0  0  0  0  0  0  0  0  0
   -5.5200   24.0360  -28.2560 H   0  0  0  0  0  0  0  0  0  0  0  0
   -4.8570   25.6600  -28.6050 H   0  0  0  0  0  0  0  0  0  0  0  0
   -3.1821   20.1204  -31.6851 H   0  0  0  0  0  0  0  0  0  0  0  0
   -4.1219   20.5006  -33.1856 H   0  0  0  0  0  0  0  0  0  0  0  0
   -0.1541   21.0123  -32.7906 H   0  0  0  0  0  0  0  0  0  0  0  0
   -1.0513   22.3430  -31.9490 H   0  0  0  0  0  0  0  0  0  0  0  0
   -1.5830   23.0245  -30.4298 H   0  0  0  0  0  0  0  0  0  0  0  0
   -1.7681   24.6983  -25.7229 H   0  0  0  0  0  0  0  0  0  0  0  0
   -2.5790   26.1565  -26.3884 H   0  0  0  0  0  0  0  0  0  0  0  0
   -3.4320   24.5757  -26.3884 H   0  0  0  0  0  0  0  0  0  0  0  0
   -1.4940   22.6098  -26.1236 H   0  0  0  0  0  0  0  0  0  0  0  0
   -1.1200   20.1566  -26.3685 H   0  0  0  0  0  0  0  0  0  0  0  0
   -5.1916   19.6669  -32.6302 H   0  0  0  0  0  0  0  0  0  0  0  0
  1  2  1  0
  2  3  2  0
  3  4  1  0
  4  5  2  0
  5  6  1  0
  6  7  2  0
  7  8  1  0
  8  9  1  0
  8 10  2  0
  7 11  1  0
 11 12  1  0
 12 13  2  0
 12 14  1  0
 14 15  1  0
 15 16  1  0
 16 17  1  0
 17 18  2  0
 17 19  1  0
 19 20  2  0
 20 21  1  0
 21 22  1  0
 22 23  1  0
 22 24  2  0
 22 25  2  0
 21 26  2  0
 26 27  1  0
 27 28  2  0
 28 29  1  0
 11 30  1  0
 30 31  2  0
 31  2  1  0
 30  5  1  0
 28 19  1  0
  1 32  1  0
  1 33  1  0
  1 34  1  0
  3 35  1  0
  4 36  1  0
  6 37  1  0
  9 38  1  0
  9 39  1  0
 14 40  1  0
 14 41  1  0
 16 42  1  0
 16 43  1  0
 20 44  1  0
 23 45  1  0
 23 46  1  0
 23 47  1  0
 26 48  1  0
 27 49  1  0
 31 50  1  0
M  END
>  <UniqueID>  (92) 
90

>  <SMILES>  (92) 
Cc1ccc2cc(C(N)=O)n(C(=O)COCC(=O)c3cc(S(C)(=O)=O)ccc3F)c2c1

>  <Energy>  (92) 
90.1139614521178

>  <Genealogy>  (92) 
Cc1ccc2cc(C(N)=O)n(C(=O)COCC(=O)c3cc(S(C)(=O)=O)ccc3F)c2c1 (3D coordinates assigned)
Cc1ccc2cc(C(N)=O)n(C(=O)COCC(=O)c3cc(S(C)(=O)=O)ccc3F)c2c1 (optimized conformer: 90.1139614521178 kcal/mol)

>  <smiles>  (92) 
Cc1ccc2cc(C(N)=O)n(C(=O)COCC(=O)c3cc(S(C)(=O)=O)ccc3F)c2c1

>  <score_type>  (92) 
oracle

>  <origin>  (92) 
adg

>  <m_score__min__energy>  (92) 
-10.67

>  <m_primary>  (92) 
energy

$$$$
93:0
     RDKit          3D

 53 55  0  0  0  0  0  0  0  0999 V2000
   -3.6290   24.8260  -29.9680 N   0  0  0  0  0  0  0  0  0  0  0  0
   -4.9080   24.9660  -30.5890 C   0  0  0  0  0  0  0  0  0  0  0  0
   -5.3250   26.1160  -30.8830 O   0  0  0  0  0  0  0  0  0  0  0  0
   -5.7150   23.7740  -30.9290 C   0  0  0  0  0  0  0  0  0  0  0  0
   -7.1020   23.7240  -30.8230 C   0  0  0  0  0  0  0  0  0  0  0  0
   -7.4440   22.4250  -31.1240 C   0  0  0  0  0  0  0  0  0  0  0  0
   -8.6940   21.8170  -31.1640 C   0  0  0  0  0  0  0  0  0  0  0  0
   -8.7550   20.4590  -31.5220 C   0  0  0  0  0  0  0  0  0  0  0  0
   -7.5770   19.7430  -31.8570 C   0  0  0  0  0  0  0  0  0  0  0  0
   -7.6530   18.2780  -32.2010 C   0  0  0  0  0  0  0  0  0  0  0  0
   -8.9570   17.8430  -32.0550 F   0  0  0  0  0  0  0  0  0  0  0  0
   -7.2470   18.0590  -33.5060 F   0  0  0  0  0  0  0  0  0  0  0  0
   -6.8350   17.5360  -31.3650 F   0  0  0  0  0  0  0  0  0  0  0  0
   -6.3220   20.3930  -31.7810 C   0  0  0  0  0  0  0  0  0  0  0  0
   -6.2890   21.7410  -31.4030 C   0  0  0  0  0  0  0  0  0  0  0  0
   -5.2160   22.5570  -31.2870 N   0  0  0  0  0  0  0  0  0  0  0  0
   -3.8460   22.2240  -31.5710 C   0  0  0  0  0  0  0  0  0  0  0  0
   -3.4400   22.1740  -32.7640 O   0  0  0  0  0  0  0  0  0  0  0  0
   -2.9390   21.9660  -30.4960 N   0  0  0  0  0  0  0  0  0  0  0  0
   -1.5250   22.3070  -30.5470 C   0  0  0  0  0  0  0  0  0  0  0  0
   -1.2170   23.2770  -29.4550 C   0  0  0  0  0  0  0  0  0  0  0  0
   -1.1180   24.5060  -29.7150 O   0  0  0  0  0  0  0  0  0  0  0  0
   -1.0150   22.8010  -28.1530 O   0  0  0  0  0  0  0  0  0  0  0  0
   -2.0720   22.3550  -27.3070 C   0  0  0  0  0  0  0  0  0  0  0  0
   -3.1200   23.4510  -27.1360 C   0  0  0  0  0  0  0  0  0  0  0  0
   -2.6300   24.6520  -27.6950 O   0  0  0  0  0  0  0  0  0  0  0  0
   -1.7210   25.2720  -26.8070 C   0  0  1  0  0  0  0  0  0  0  0  0
   -0.9960   26.4100  -27.5570 C   0  0  0  0  0  0  0  0  0  0  0  0
   -0.6610   27.5850  -26.6240 C   0  0  0  0  0  0  0  0  0  0  0  0
   -0.3730   27.0900  -25.2060 C   0  0  0  0  0  0  0  0  0  0  0  0
   -1.5330   26.2120  -24.6830 C   0  0  0  0  0  0  0  0  0  0  0  0
   -2.4330   25.8040  -25.7020 O   0  0  0  0  0  0  0  0  0  0  0  0
   -3.2740   23.8930  -29.6650 H   0  0  0  0  0  0  0  0  0  0  0  0
   -3.0460   25.6700  -29.7710 H   0  0  0  0  0  0  0  0  0  0  0  0
   -7.7806   24.5474  -30.5556 H   0  0  0  0  0  0  0  0  0  0  0  0
   -9.6069   22.3813  -30.9229 H   0  0  0  0  0  0  0  0  0  0  0  0
   -9.7276   19.9455  -31.5426 H   0  0  0  0  0  0  0  0  0  0  0  0
   -5.3933   19.8514  -32.0137 H   0  0  0  0  0  0  0  0  0  0  0  0
   -0.9216   21.3972  -30.4126 H   0  0  0  0  0  0  0  0  0  0  0  0
   -1.2875   22.7583  -31.5216 H   0  0  0  0  0  0  0  0  0  0  0  0
   -2.5450   21.4690  -27.7556 H   0  0  0  0  0  0  0  0  0  0  0  0
   -1.6556   22.1046  -26.3201 H   0  0  0  0  0  0  0  0  0  0  0  0
   -4.0471   23.1572  -27.6499 H   0  0  0  0  0  0  0  0  0  0  0  0
   -3.3293   23.5991  -26.0663 H   0  0  0  0  0  0  0  0  0  0  0  0
   -0.9862   24.5388  -26.4429 H   0  0  0  0  0  0  0  0  0  0  0  0
   -0.0617   26.0166  -27.9839 H   0  0  0  0  0  0  0  0  0  0  0  0
   -1.6660   26.7805  -28.3469 H   0  0  0  0  0  0  0  0  0  0  0  0
    0.2256   28.1097  -27.0095 H   0  0  0  0  0  0  0  0  0  0  0  0
   -1.5250   28.2650  -26.5905 H   0  0  0  0  0  0  0  0  0  0  0  0
    0.5533   26.4967  -25.2126 H   0  0  0  0  0  0  0  0  0  0  0  0
   -0.2655   27.9619  -24.5440 H   0  0  0  0  0  0  0  0  0  0  0  0
   -1.1063   25.3132  -24.2139 H   0  0  0  0  0  0  0  0  0  0  0  0
   -2.1054   26.8212  -23.9680 H   0  0  0  0  0  0  0  0  0  0  0  0
  1  2  1  0
  2  3  2  0
  2  4  1  0
  4  5  2  0
  5  6  1  0
  6  7  2  0
  7  8  1  0
  8  9  2  0
  9 10  1  0
 10 11  1  0
 10 12  1  0
 10 13  1  0
  9 14  1  0
 14 15  2  0
 15 16  1  0
 16 17  1  0
 17 18  2  0
 17 19  1  0
 19 20  1  0
 20 21  1  0
 21 22  2  0
 21 23  1  0
 23 24  1  0
 24 25  1  0
 25 26  1  0
 26 27  1  0
 27 28  1  0
 28 29  1  0
 29 30  1  0
 30 31  1  0
 31 32  1  0
 16  4  1  0
 32 27  1  0
 15  6  1  0
  1 33  1  0
  1 34  1  0
  5 35  1  0
  7 36  1  0
  8 37  1  0
 14 38  1  0
 20 39  1  0
 20 40  1  0
 24 41  1  0
 24 42  1  0
 25 43  1  0
 25 44  1  0
 27 45  1  1
 28 46  1  0
 28 47  1  0
 29 48  1  0
 29 49  1  0
 30 50  1  0
 30 51  1  0
 31 52  1  0
 31 53  1  0
M  CHG  1  19  -1
M  END
>  <UniqueID>  (93) 
91

>  <SMILES>  (93) 
NC(=O)c1cc2ccc(C(F)(F)F)cc2n1C(=O)[N-]CC(=O)OCCO[C@H]1CCCCO1

>  <Energy>  (93) 
93.81421218349652

>  <Genealogy>  (93) 
NC(=O)c1cc2ccc(C(F)(F)F)cc2n1C(=O)[N-]CC(=O)OCCOC1CCCCO1 (protonated)
NC(=O)c1cc2ccc(C(F)(F)F)cc2n1C(=O)[N-]CC(=O)OCCO[C@H]1CCCCO1 (chirality)
NC(=O)c1cc2ccc(C(F)(F)F)cc2n1C(=O)[N-]CC(=O)OCCO[C@H]1CCCCO1 (3D coordinates assigned)
NC(=O)c1cc2ccc(C(F)(F)F)cc2n1C(=O)[N-]CC(=O)OCCO[C@H]1CCCCO1 (nonaromatic ring conformer: 93.81421218349652 kcal/mol)

>  <smiles>  (93) 
NC(=O)c1cc2ccc(C(F)(F)F)cc2n1C(=O)NCC(=O)OCCOC1CCCCO1

>  <score_type>  (93) 
oracle

>  <origin>  (93) 
adg

>  <m_score__min__energy>  (93) 
-10.42

>  <m_primary>  (93) 
energy

$$$$
94:0
     RDKit          3D

 55 56  0  0  0  0  0  0  0  0999 V2000
   -3.3630   18.9890  -26.5590 C   0  0  0  0  0  0  0  0  0  0  0  0
   -2.8350   19.7060  -27.7300 N   0  0  0  0  0  0  0  0  0  0  0  0
   -3.1550   21.1410  -27.6120 C   0  0  0  0  0  0  0  0  0  0  0  0
   -1.3740   19.4940  -27.8380 C   0  0  0  0  0  0  0  0  0  0  0  0
   -0.5880   20.3560  -26.8370 C   0  0  0  0  0  0  0  0  0  0  0  0
    0.4850   21.2300  -27.5010 C   0  0  0  0  0  0  0  0  0  0  0  0
    0.0760   22.6420  -27.5320 N   0  0  0  0  0  0  0  0  0  0  0  0
    0.0800   23.4060  -26.2800 C   0  0  0  0  0  0  0  0  0  0  0  0
   -0.2920   23.2550  -28.7880 C   0  0  0  0  0  0  0  0  0  0  0  0
   -0.1230   24.4960  -28.9380 O   0  0  0  0  0  0  0  0  0  0  0  0
   -0.9020   22.4910  -29.9010 C   0  0  0  0  0  0  0  0  0  0  0  0
   -0.4310   21.3720  -30.2370 O   0  0  0  0  0  0  0  0  0  0  0  0
   -2.0570   23.0050  -30.5830 N   0  0  0  0  0  0  0  0  0  0  0  0
   -2.7320   22.2620  -31.6430 C   0  0  0  0  0  0  0  0  0  0  0  0
   -3.9260   21.5410  -31.0910 C   0  0  0  0  0  0  0  0  0  0  0  0
   -3.8290   20.3210  -30.7890 O   0  0  0  0  0  0  0  0  0  0  0  0
   -5.1960   22.2050  -30.9780 N   0  0  0  0  0  0  0  0  0  0  0  0
   -5.4400   23.4930  -30.6040 C   0  0  0  0  0  0  0  0  0  0  0  0
   -4.4480   24.4310  -30.0390 C   0  0  0  0  0  0  0  0  0  0  0  0
   -3.8900   25.4730  -30.8350 N   0  0  0  0  0  0  0  0  0  0  0  0
   -4.0540   24.2850  -28.8510 O   0  0  0  0  0  0  0  0  0  0  0  0
   -6.7950   23.7900  -30.7380 C   0  0  0  0  0  0  0  0  0  0  0  0
   -7.3790   22.6310  -31.2000 C   0  0  0  0  0  0  0  0  0  0  0  0
   -8.7070   22.3590  -31.5160 C   0  0  0  0  0  0  0  0  0  0  0  0
   -9.0230   21.0690  -31.9840 C   0  0  0  0  0  0  0  0  0  0  0  0
   -8.0130   20.0830  -32.1180 C   0  0  0  0  0  0  0  0  0  0  0  0
   -8.3650   18.7130  -32.6290 C   0  0  0  0  0  0  0  0  0  0  0  0
   -7.2880   17.8590  -32.4690 F   0  0  0  0  0  0  0  0  0  0  0  0
   -9.4530   18.2200  -31.9290 F   0  0  0  0  0  0  0  0  0  0  0  0
   -6.6740   20.4020  -31.8000 C   0  0  0  0  0  0  0  0  0  0  0  0
   -6.3920   21.6890  -31.3300 C   0  0  0  0  0  0  0  0  0  0  0  0
   -3.0051   19.4750  -25.6394 H   0  0  0  0  0  0  0  0  0  0  0  0
   -4.4626   19.0105  -26.5810 H   0  0  0  0  0  0  0  0  0  0  0  0
   -3.0162   17.9453  -26.5810 H   0  0  0  0  0  0  0  0  0  0  0  0
   -3.2165   21.4167  -26.5489 H   0  0  0  0  0  0  0  0  0  0  0  0
   -2.3670   21.7337  -28.0995 H   0  0  0  0  0  0  0  0  0  0  0  0
   -4.1202   21.3427  -28.0995 H   0  0  0  0  0  0  0  0  0  0  0  0
   -1.1542   18.4341  -27.6423 H   0  0  0  0  0  0  0  0  0  0  0  0
   -1.0639   19.7858  -28.8522 H   0  0  0  0  0  0  0  0  0  0  0  0
   -1.2961   21.0123  -26.3099 H   0  0  0  0  0  0  0  0  0  0  0  0
   -0.0706   19.6692  -26.1510 H   0  0  0  0  0  0  0  0  0  0  0  0
    1.4228   21.1404  -26.9331 H   0  0  0  0  0  0  0  0  0  0  0  0
    0.6241   20.8847  -28.5361 H   0  0  0  0  0  0  0  0  0  0  0  0
    0.0764   22.7117  -25.4268 H   0  0  0  0  0  0  0  0  0  0  0  0
    0.9815   24.0349  -26.2371 H   0  0  0  0  0  0  0  0  0  0  0  0
   -0.8148   24.0443  -26.2371 H   0  0  0  0  0  0  0  0  0  0  0  0
   -2.4340   23.9470  -30.3260 H   0  0  0  0  0  0  0  0  0  0  0  0
   -3.0601   22.9623  -32.4253 H   0  0  0  0  0  0  0  0  0  0  0  0
   -2.0327   21.5262  -32.0667 H   0  0  0  0  0  0  0  0  0  0  0  0
   -4.2380   26.4530  -30.7660 H   0  0  0  0  0  0  0  0  0  0  0  0
   -7.2925   24.7467  -30.5210 H   0  0  0  0  0  0  0  0  0  0  0  0
   -9.4855   23.1279  -31.4036 H   0  0  0  0  0  0  0  0  0  0  0  0
  -10.0624   20.8242  -32.2479 H   0  0  0  0  0  0  0  0  0  0  0  0
   -8.6168   18.7823  -33.6975 H   0  0  0  0  0  0  0  0  0  0  0  0
   -5.8734   19.6571  -31.9190 H   0  0  0  0  0  0  0  0  0  0  0  0
  1  2  1  0
  2  3  1  0
  2  4  1  0
  4  5  1  0
  5  6  1  0
  6  7  1  0
  7  8  1  0
  7  9  1  0
  9 10  2  0
  9 11  1  0
 11 12  2  0
 11 13  1  0
 13 14  1  0
 14 15  1  0
 15 16  2  0
 15 17  1  0
 17 18  1  0
 18 19  1  0
 19 20  1  0
 19 21  2  0
 18 22  2  0
 22 23  1  0
 23 24  2  0
 24 25  1  0
 25 26  2  0
 26 27  1  0
 27 28  1  0
 27 29  1  0
 26 30  1  0
 30 31  2  0
 31 17  1  0
 31 23  1  0
  1 32  1  0
  1 33  1  0
  1 34  1  0
  3 35  1  0
  3 36  1  0
  3 37  1  0
  4 38  1  0
  4 39  1  0
  5 40  1  0
  5 41  1  0
  6 42  1  0
  6 43  1  0
  8 44  1  0
  8 45  1  0
  8 46  1  0
 13 47  1  0
 14 48  1  0
 14 49  1  0
 20 50  1  0
 22 51  1  0
 24 52  1  0
 25 53  1  0
 27 54  1  0
 30 55  1  0
M  CHG  1  20  -1
M  END
>  <UniqueID>  (94) 
92

>  <SMILES>  (94) 
CN(C)CCCN(C)C(=O)C(=O)NCC(=O)n1c(C([NH-])=O)cc2ccc(C(F)F)cc21

>  <Energy>  (94) 
84.68819555071273

>  <Genealogy>  (94) 
CN(C)CCCN(C)C(=O)C(=O)NCC(=O)n1c(C([NH-])=O)cc2ccc(C(F)F)cc21 (protonated)
CN(C)CCCN(C)C(=O)C(=O)NCC(=O)n1c(C([NH-])=O)cc2ccc(C(F)F)cc21 (3D coordinates assigned)
CN(C)CCCN(C)C(=O)C(=O)NCC(=O)n1c(C([NH-])=O)cc2ccc(C(F)F)cc21 (optimized conformer: 84.68819555071273 kcal/mol)

>  <smiles>  (94) 
CN(C)CCCN(C)C(=O)C(=O)NCC(=O)n1c(C(N)=O)cc2ccc(C(F)F)cc21

>  <score_type>  (94) 
oracle

>  <origin>  (94) 
adg

>  <m_score__min__energy>  (94) 
-10.710000000000001

>  <m_primary>  (94) 
energy

$$$$
95:0
     RDKit          3D

 48 50  0  0  0  0  0  0  0  0999 V2000
   -0.8430   25.9410  -27.7450 C   0  0  0  0  0  0  0  0  0  0  0  0
   -1.5470   25.8280  -28.9600 O   0  0  0  0  0  0  0  0  0  0  0  0
   -2.1310   24.5440  -29.0380 C   0  0  0  0  0  0  0  0  0  0  0  0
   -2.6720   24.0610  -27.7020 C   0  0  0  0  0  0  0  0  0  0  0  0
   -1.6470   23.0140  -27.5730 N   0  0  0  0  0  0  0  0  0  0  0  0
   -2.2470   21.6660  -27.6470 C   0  0  0  0  0  0  0  0  0  0  0  0
   -1.6240   20.8710  -28.7980 C   0  0  0  0  0  0  0  0  0  0  0  0
   -2.4150   20.9960  -29.9650 O   0  0  0  0  0  0  0  0  0  0  0  0
   -3.6530   21.6240  -29.6830 C   0  0  0  0  0  0  0  0  0  0  0  0
   -4.0640   22.5010  -30.8320 C   0  0  0  0  0  0  0  0  0  0  0  0
   -3.1740   23.0120  -31.5630 O   0  0  0  0  0  0  0  0  0  0  0  0
   -5.4520   22.7470  -31.1200 N   0  0  0  0  0  0  0  0  0  0  0  0
   -6.1540   23.8930  -30.8850 C   0  0  0  0  0  0  0  0  0  0  0  0
   -5.6050   25.1610  -30.3570 C   0  0  0  0  0  0  0  0  0  0  0  0
   -4.2410   25.5310  -30.5640 N   0  0  0  0  0  0  0  0  0  0  0  0
   -6.3680   25.9540  -29.7460 O   0  0  0  0  0  0  0  0  0  0  0  0
   -7.5010   23.7130  -31.1840 C   0  0  0  0  0  0  0  0  0  0  0  0
   -7.6110   22.4100  -31.6080 C   0  0  0  0  0  0  0  0  0  0  0  0
   -8.7400   21.6850  -31.9800 C   0  0  0  0  0  0  0  0  0  0  0  0
   -8.5750   20.3260  -32.2960 C   0  0  0  0  0  0  0  0  0  0  0  0
   -7.2980   19.7200  -32.2240 C   0  0  0  0  0  0  0  0  0  0  0  0
   -7.1470   18.2530  -32.4960 C   0  0  0  0  0  0  0  0  0  0  0  0
   -6.1790   20.4800  -31.8190 C   0  0  0  0  0  0  0  0  0  0  0  0
   -6.3630   21.8430  -31.5500 C   0  0  0  0  0  0  0  0  0  0  0  0
   -1.0920   23.4520  -28.8640 C   0  0  0  0  0  0  0  0  0  0  0  0
   -1.5429   25.8287  -26.9039 H   0  0  0  0  0  0  0  0  0  0  0  0
   -0.0759   25.1545  -27.6912 H   0  0  0  0  0  0  0  0  0  0  0  0
   -0.3605   26.9281  -27.6912 H   0  0  0  0  0  0  0  0  0  0  0  0
   -2.7633   24.6535  -29.9314 H   0  0  0  0  0  0  0  0  0  0  0  0
   -2.6207   24.8221  -26.9094 H   0  0  0  0  0  0  0  0  0  0  0  0
   -3.7317   23.7740  -27.6339 H   0  0  0  0  0  0  0  0  0  0  0  0
   -2.0668   21.1358  -26.7002 H   0  0  0  0  0  0  0  0  0  0  0  0
   -3.3283   21.7642  -27.8232 H   0  0  0  0  0  0  0  0  0  0  0  0
   -0.6141   21.2569  -29.0009 H   0  0  0  0  0  0  0  0  0  0  0  0
   -1.5713   19.8099  -28.5130 H   0  0  0  0  0  0  0  0  0  0  0  0
   -4.4220   20.8545  -29.5202 H   0  0  0  0  0  0  0  0  0  0  0  0
   -3.5439   22.2430  -28.7803 H   0  0  0  0  0  0  0  0  0  0  0  0
   -3.8670   26.4050  -30.1330 H   0  0  0  0  0  0  0  0  0  0  0  0
   -3.6290   25.0010  -31.2200 H   0  0  0  0  0  0  0  0  0  0  0  0
   -8.3074   24.4563  -31.0990 H   0  0  0  0  0  0  0  0  0  0  0  0
   -9.7304   22.1615  -32.0251 H   0  0  0  0  0  0  0  0  0  0  0  0
   -9.4459   19.7278  -32.6020 H   0  0  0  0  0  0  0  0  0  0  0  0
   -7.0908   17.7072  -31.5426 H   0  0  0  0  0  0  0  0  0  0  0  0
   -8.0131   17.8959  -33.0724 H   0  0  0  0  0  0  0  0  0  0  0  0
   -6.2263   18.0798  -33.0724 H   0  0  0  0  0  0  0  0  0  0  0  0
   -5.1878   20.0140  -31.7172 H   0  0  0  0  0  0  0  0  0  0  0  0
   -0.0639   23.8360  -28.7891 H   0  0  0  0  0  0  0  0  0  0  0  0
   -0.9693   22.7082  -29.6650 H   0  0  0  0  0  0  0  0  0  0  0  0
  1  2  1  0
  2  3  1  0
  3  4  1  0
  4  5  1  0
  5  6  1  0
  6  7  1  0
  7  8  1  0
  8  9  1  0
  9 10  1  0
 10 11  2  0
 10 12  1  0
 12 13  1  0
 13 14  1  0
 14 15  1  0
 14 16  2  0
 13 17  2  0
 17 18  1  0
 18 19  2  0
 19 20  1  0
 20 21  2  0
 21 22  1  0
 21 23  1  0
 23 24  2  0
  5 25  1  0
 25  3  1  0
 24 12  1  0
 24 18  1  0
  1 26  1  0
  1 27  1  0
  1 28  1  0
  3 29  1  0
  4 30  1  0
  4 31  1  0
  6 32  1  0
  6 33  1  0
  7 34  1  0
  7 35  1  0
  9 36  1  0
  9 37  1  0
 15 38  1  0
 15 39  1  0
 17 40  1  0
 19 41  1  0
 20 42  1  0
 22 43  1  0
 22 44  1  0
 22 45  1  0
 23 46  1  0
 25 47  1  0
 25 48  1  0
M  END
>  <UniqueID>  (95) 
93

>  <SMILES>  (95) 
COC1CN(CCOCC(=O)n2c(C(N)=O)cc3ccc(C)cc32)C1

>  <Energy>  (95) 
159.28940488761006

>  <Genealogy>  (95) 
COC1CN(CCOCC(=O)n2c(C(N)=O)cc3ccc(C)cc32)C1 (3D coordinates assigned)
COC1CN(CCOCC(=O)n2c(C(N)=O)cc3ccc(C)cc32)C1 (nonaromatic ring conformer: 159.28940488761006 kcal/mol)

>  <smiles>  (95) 
COC1CN(CCOCC(=O)n2c(C(N)=O)cc3ccc(C)cc32)C1

>  <score_type>  (95) 
oracle

>  <origin>  (95) 
adg

>  <m_score__min__energy>  (95) 
-8.8000000000000007

>  <m_primary>  (95) 
energy

$$$$
96:0
     RDKit          3D

 49 50  0  0  0  0  0  0  0  0999 V2000
   -5.7100   18.3120  -34.7110 C   0  0  0  0  0  0  0  0  0  0  0  0
   -6.7930   17.8880  -33.7240 C   0  0  0  0  0  0  0  0  0  0  0  0
   -7.1500   19.0250  -32.8050 C   0  0  0  0  0  0  0  0  0  0  0  0
   -8.4380   19.0830  -32.2190 C   0  0  0  0  0  0  0  0  0  0  0  0
   -8.8000   20.1640  -31.4000 C   0  0  0  0  0  0  0  0  0  0  0  0
   -7.8580   21.1650  -31.1840 C   0  0  0  0  0  0  0  0  0  0  0  0
   -7.9650   22.3200  -30.4520 C   0  0  0  0  0  0  0  0  0  0  0  0
   -6.7420   22.9620  -30.6030 C   0  0  0  0  0  0  0  0  0  0  0  0
   -6.4510   24.2720  -29.9990 C   0  0  0  0  0  0  0  0  0  0  0  0
   -5.2290   24.4950  -29.2940 N   0  0  0  0  0  0  0  0  0  0  0  0
   -7.2520   25.2280  -30.1720 O   0  0  0  0  0  0  0  0  0  0  0  0
   -5.8890   22.2250  -31.3760 N   0  0  0  0  0  0  0  0  0  0  0  0
   -4.4870   22.4840  -31.6170 C   0  0  0  0  0  0  0  0  0  0  0  0
   -3.9920   23.6100  -31.3440 O   0  0  0  0  0  0  0  0  0  0  0  0
   -3.6570   21.4690  -32.1060 O   0  0  0  0  0  0  0  0  0  0  0  0
   -2.2370   21.5690  -32.1180 C   0  0  0  0  0  0  0  0  0  0  0  0
   -1.7810   22.0580  -30.8620 O   0  0  0  0  0  0  0  0  0  0  0  0
   -0.7370   21.4580  -30.1480 C   0  0  0  0  0  0  0  0  0  0  0  0
    0.0530   20.6670  -30.7330 O   0  0  0  0  0  0  0  0  0  0  0  0
   -0.5720   21.7470  -28.7470 N   0  0  0  0  0  0  0  0  0  0  0  0
   -0.3800   20.6330  -27.8140 C   0  0  0  0  0  0  0  0  0  0  0  0
   -0.5330   23.1350  -28.2580 C   0  0  0  0  0  0  0  0  0  0  0  0
   -1.9340   23.7760  -28.1930 C   0  0  2  0  0  0  0  0  0  0  0  0
   -2.9350   22.8700  -28.5870 O   0  0  0  0  0  0  0  0  0  0  0  0
   -2.0150   25.0620  -28.9730 C   0  0  0  0  0  0  0  0  0  0  0  0
   -3.0030   25.2810  -29.7210 O   0  0  0  0  0  0  0  0  0  0  0  0
   -1.0260   26.0330  -28.8470 O   0  0  0  0  0  0  0  0  0  0  0  0
   -6.6010   21.1270  -31.7370 C   0  0  0  0  0  0  0  0  0  0  0  0
   -6.2230   20.0650  -32.5750 C   0  0  0  0  0  0  0  0  0  0  0  0
   -4.8248   18.6586  -34.1575 H   0  0  0  0  0  0  0  0  0  0  0  0
   -5.4347   17.4553  -35.3436 H   0  0  0  0  0  0  0  0  0  0  0  0
   -6.0895   19.1279  -35.3436 H   0  0  0  0  0  0  0  0  0  0  0  0
   -7.6894   17.5797  -34.2820 H   0  0  0  0  0  0  0  0  0  0  0  0
   -6.4128   17.0511  -33.1199 H   0  0  0  0  0  0  0  0  0  0  0  0
   -9.1602   18.2748  -32.4071 H   0  0  0  0  0  0  0  0  0  0  0  0
   -9.7989   20.2182  -30.9425 H   0  0  0  0  0  0  0  0  0  0  0  0
   -8.8328   22.6642  -29.8702 H   0  0  0  0  0  0  0  0  0  0  0  0
   -5.0340   25.4250  -28.8590 H   0  0  0  0  0  0  0  0  0  0  0  0
   -4.5060   23.7430  -29.2310 H   0  0  0  0  0  0  0  0  0  0  0  0
   -1.8019   20.5759  -32.3038 H   0  0  0  0  0  0  0  0  0  0  0  0
   -1.9269   22.2623  -32.9137 H   0  0  0  0  0  0  0  0  0  0  0  0
   -0.4441   21.0049  -26.7808 H   0  0  0  0  0  0  0  0  0  0  0  0
   -1.1610   19.8765  -27.9805 H   0  0  0  0  0  0  0  0  0  0  0  0
    0.6092   20.1816  -27.9805 H   0  0  0  0  0  0  0  0  0  0  0  0
   -0.0945   23.1417  -27.2492 H   0  0  0  0  0  0  0  0  0  0  0  0
    0.0716   23.7223  -28.9648 H   0  0  0  0  0  0  0  0  0  0  0  0
   -2.1134   24.0345  -27.1390 H   0  0  0  0  0  0  0  0  0  0  0  0
   -3.1690   23.0590  -29.5320 H   0  0  0  0  0  0  0  0  0  0  0  0
   -5.2271   20.0440  -33.0416 H   0  0  0  0  0  0  0  0  0  0  0  0
  1  2  1  0
  2  3  1  0
  3  4  2  0
  4  5  1  0
  5  6  2  0
  6  7  1  0
  7  8  2  0
  8  9  1  0
  9 10  1  0
  9 11  2  0
  8 12  1  0
 12 13  1  0
 13 14  2  0
 13 15  1  0
 15 16  1  0
 16 17  1  0
 17 18  1  0
 18 19  2  0
 18 20  1  0
 20 21  1  0
 20 22  1  0
 22 23  1  0
 23 24  1  0
 23 25  1  0
 25 26  2  0
 25 27  1  0
 12 28  1  0
 28 29  2  0
 29  3  1  0
 28  6  1  0
  1 30  1  0
  1 31  1  0
  1 32  1  0
  2 33  1  0
  2 34  1  0
  4 35  1  0
  5 36  1  0
  7 37  1  0
 10 38  1  0
 10 39  1  0
 16 40  1  0
 16 41  1  0
 21 42  1  0
 21 43  1  0
 21 44  1  0
 22 45  1  0
 22 46  1  0
 23 47  1  1
 24 48  1  0
 29 49  1  0
M  CHG  1  27  -1
M  END
>  <UniqueID>  (96) 
94

>  <SMILES>  (96) 
CCc1ccc2cc(C(N)=O)n(C(=O)OCOC(=O)N(C)C[C@H](O)C(=O)[O-])c2c1

>  <Energy>  (96) 
81.4236024736404

>  <Genealogy>  (96) 
CCc1ccc2cc(C(N)=O)n(C(=O)OCOC(=O)N(C)C[C@H](O)C(=O)[O-])c2c1 (protonated)
CCc1ccc2cc(C(N)=O)n(C(=O)OCOC(=O)N(C)C[C@H](O)C(=O)[O-])c2c1 (3D coordinates assigned)
CCc1ccc2cc(C(N)=O)n(C(=O)OCOC(=O)N(C)C[C@H](O)C(=O)[O-])c2c1 (optimized conformer: 81.4236024736404 kcal/mol)

>  <smiles>  (96) 
CCc1ccc2cc(C(N)=O)n(C(=O)OCOC(=O)N(C)C[C@H](O)C(=O)O)c2c1

>  <score_type>  (96) 
oracle

>  <origin>  (96) 
adg

>  <m_score__min__energy>  (96) 
-10.35

>  <m_primary>  (96) 
energy

$$$$
97:0
     RDKit          3D

 45 46  0  0  0  0  0  0  0  0999 V2000
   -1.1810   26.1480  -27.6880 C   0  0  0  0  0  0  0  0  0  0  0  0
   -1.4840   25.7000  -28.9880 O   0  0  0  0  0  0  0  0  0  0  0  0
   -0.8980   24.4320  -29.2260 C   0  0  0  0  0  0  0  0  0  0  0  0
   -0.7090   23.6840  -27.9020 C   0  0  0  0  0  0  0  0  0  0  0  0
   -1.9290   23.1030  -27.4860 O   0  0  0  0  0  0  0  0  0  0  0  0
   -2.0130   21.7520  -27.8990 C   0  0  0  0  0  0  0  0  0  0  0  0
   -3.1950   21.5910  -28.6740 O   0  0  0  0  0  0  0  0  0  0  0  0
   -3.2030   21.6770  -30.0750 C   0  0  0  0  0  0  0  0  0  0  0  0
   -2.1620   21.3880  -30.7320 O   0  0  0  0  0  0  0  0  0  0  0  0
   -4.3970   22.0980  -30.7660 N   0  0  0  0  0  0  0  0  0  0  0  0
   -4.9560   23.3460  -30.7600 C   0  0  0  0  0  0  0  0  0  0  0  0
   -4.3710   24.5540  -30.1470 C   0  0  0  0  0  0  0  0  0  0  0  0
   -3.8980   24.5370  -28.7960 N   0  0  0  0  0  0  0  0  0  0  0  0
   -4.2470   25.6050  -30.8390 O   0  0  0  0  0  0  0  0  0  0  0  0
   -6.1530   23.3620  -31.4670 C   0  0  0  0  0  0  0  0  0  0  0  0
   -6.3090   22.0760  -31.9340 C   0  0  0  0  0  0  0  0  0  0  0  0
   -7.3220   21.5360  -32.7170 C   0  0  0  0  0  0  0  0  0  0  0  0
   -7.2360   20.1770  -33.0620 C   0  0  0  0  0  0  0  0  0  0  0  0
   -6.1530   19.3680  -32.6050 C   0  0  0  0  0  0  0  0  0  0  0  0
   -6.0600   17.9740  -32.9920 N   0  0  0  0  0  0  0  0  0  0  0  0
   -6.1160   16.9100  -31.9820 C   0  0  0  0  0  0  0  0  0  0  0  0
   -5.8190   17.6140  -34.3920 C   0  0  0  0  0  0  0  0  0  0  0  0
   -5.1530   19.9560  -31.7870 C   0  0  0  0  0  0  0  0  0  0  0  0
   -5.2430   21.3290  -31.4920 C   0  0  0  0  0  0  0  0  0  0  0  0
   -1.6385   25.4715  -26.9511 H   0  0  0  0  0  0  0  0  0  0  0  0
   -0.0899   26.1581  -27.5486 H   0  0  0  0  0  0  0  0  0  0  0  0
   -1.5778   27.1644  -27.5486 H   0  0  0  0  0  0  0  0  0  0  0  0
   -1.5548   23.8453  -29.8851 H   0  0  0  0  0  0  0  0  0  0  0  0
    0.0826   24.5720  -29.7043 H   0  0  0  0  0  0  0  0  0  0  0  0
    0.0422   22.8919  -28.0372 H   0  0  0  0  0  0  0  0  0  0  0  0
   -0.3729   24.3965  -27.1343 H   0  0  0  0  0  0  0  0  0  0  0  0
   -1.1328   21.4939  -28.5062 H   0  0  0  0  0  0  0  0  0  0  0  0
   -2.0442   21.0901  -27.0210 H   0  0  0  0  0  0  0  0  0  0  0  0
   -3.8640   23.6390  -28.2510 H   0  0  0  0  0  0  0  0  0  0  0  0
   -3.4960   25.4010  -28.3750 H   0  0  0  0  0  0  0  0  0  0  0  0
   -6.8287   24.2164  -31.6201 H   0  0  0  0  0  0  0  0  0  0  0  0
   -8.1661   22.1543  -33.0566 H   0  0  0  0  0  0  0  0  0  0  0  0
   -8.0163   19.7291  -33.6948 H   0  0  0  0  0  0  0  0  0  0  0  0
   -6.0925   17.3568  -30.9771 H   0  0  0  0  0  0  0  0  0  0  0  0
   -7.0456   16.3352  -32.1061 H   0  0  0  0  0  0  0  0  0  0  0  0
   -5.2518   16.2408  -32.1061 H   0  0  0  0  0  0  0  0  0  0  0  0
   -5.2076   16.7006  -34.4357 H   0  0  0  0  0  0  0  0  0  0  0  0
   -6.7806   17.4359  -34.8956 H   0  0  0  0  0  0  0  0  0  0  0  0
   -5.2879   18.4352  -34.8956 H   0  0  0  0  0  0  0  0  0  0  0  0
   -4.3242   19.3505  -31.3916 H   0  0  0  0  0  0  0  0  0  0  0  0
  1  2  1  0
  2  3  1  0
  3  4  1  0
  4  5  1  0
  5  6  1  0
  6  7  1  0
  7  8  1  0
  8  9  2  0
  8 10  1  0
 10 11  1  0
 11 12  1  0
 12 13  1  0
 12 14  2  0
 11 15  2  0
 15 16  1  0
 16 17  2  0
 17 18  1  0
 18 19  2  0
 19 20  1  0
 20 21  1  0
 20 22  1  0
 19 23  1  0
 23 24  2  0
 24 10  1  0
 24 16  1  0
  1 25  1  0
  1 26  1  0
  1 27  1  0
  3 28  1  0
  3 29  1  0
  4 30  1  0
  4 31  1  0
  6 32  1  0
  6 33  1  0
 13 34  1  0
 13 35  1  0
 15 36  1  0
 17 37  1  0
 18 38  1  0
 21 39  1  0
 21 40  1  0
 21 41  1  0
 22 42  1  0
 22 43  1  0
 22 44  1  0
 23 45  1  0
M  END
>  <UniqueID>  (97) 
95

>  <SMILES>  (97) 
COCCOCOC(=O)n1c(C(N)=O)cc2ccc(N(C)C)cc21

>  <Energy>  (97) 
87.36853638029027

>  <Genealogy>  (97) 
COCCOCOC(=O)n1c(C(N)=O)cc2ccc(N(C)C)cc21 (3D coordinates assigned)
COCCOCOC(=O)n1c(C(N)=O)cc2ccc(N(C)C)cc21 (optimized conformer: 87.36853638029027 kcal/mol)

>  <smiles>  (97) 
COCCOCOC(=O)n1c(C(N)=O)cc2ccc(N(C)C)cc21

>  <score_type>  (97) 
oracle

>  <origin>  (97) 
adg

>  <m_score__min__energy>  (97) 
-8.6699999999999999

>  <m_primary>  (97) 
energy

$$$$
98:0
     RDKit          3D

 43 44  0  0  0  0  0  0  0  0999 V2000
   -3.0950   25.2920  -26.2500 C   0  0  0  0  0  0  0  0  0  0  0  0
   -3.7830   24.3580  -27.0480 O   0  0  0  0  0  0  0  0  0  0  0  0
   -2.8400   23.6200  -27.6990 N   0  0  0  0  0  0  0  0  0  0  0  0
   -2.4230   22.3370  -27.1360 C   0  0  0  0  0  0  0  0  0  0  0  0
   -2.1600   24.1630  -28.8460 C   0  0  0  0  0  0  0  0  0  0  0  0
   -2.5190   25.2730  -29.3230 O   0  0  0  0  0  0  0  0  0  0  0  0
   -1.0470   23.4050  -29.5170 C   0  0  0  0  0  0  0  0  0  0  0  0
   -1.5760   22.4190  -30.5630 C   0  0  0  0  0  0  0  0  0  0  0  0
   -3.0060   22.1900  -30.3860 N   0  0  0  0  0  0  0  0  0  0  0  0
   -3.9160   21.9470  -31.4650 C   0  0  0  0  0  0  0  0  0  0  0  0
   -3.4850   21.5220  -32.5720 O   0  0  0  0  0  0  0  0  0  0  0  0
   -5.3200   22.1960  -31.2920 N   0  0  0  0  0  0  0  0  0  0  0  0
   -5.9100   23.3570  -30.8910 C   0  0  0  0  0  0  0  0  0  0  0  0
   -5.2080   24.5560  -30.3900 C   0  0  0  0  0  0  0  0  0  0  0  0
   -5.1220   24.8320  -28.9910 N   0  0  0  0  0  0  0  0  0  0  0  0
   -4.7230   25.3780  -31.2110 O   0  0  0  0  0  0  0  0  0  0  0  0
   -7.2960   23.2610  -30.9770 C   0  0  0  0  0  0  0  0  0  0  0  0
   -7.5430   21.9870  -31.4380 C   0  0  0  0  0  0  0  0  0  0  0  0
   -8.7510   21.3620  -31.7330 C   0  0  0  0  0  0  0  0  0  0  0  0
   -8.7080   20.0550  -32.2460 C   0  0  0  0  0  0  0  0  0  0  0  0
   -7.4680   19.4020  -32.4520 C   0  0  0  0  0  0  0  0  0  0  0  0
   -7.4310   18.0280  -33.0530 C   0  0  0  0  0  0  0  0  0  0  0  0
   -6.2610   20.0730  -32.1580 C   0  0  0  0  0  0  0  0  0  0  0  0
   -6.3340   21.3660  -31.6230 C   0  0  0  0  0  0  0  0  0  0  0  0
   -3.2644   25.0620  -25.1877 H   0  0  0  0  0  0  0  0  0  0  0  0
   -2.0184   25.2392  -26.4694 H   0  0  0  0  0  0  0  0  0  0  0  0
   -3.4647   26.3045  -26.4694 H   0  0  0  0  0  0  0  0  0  0  0  0
   -2.4419   22.3951  -26.0377 H   0  0  0  0  0  0  0  0  0  0  0  0
   -3.1108   21.5476  -27.4733 H   0  0  0  0  0  0  0  0  0  0  0  0
   -1.4025   22.1029  -27.4733 H   0  0  0  0  0  0  0  0  0  0  0  0
   -0.3762   24.1226  -30.0121 H   0  0  0  0  0  0  0  0  0  0  0  0
   -0.5135   22.8298  -28.7459 H   0  0  0  0  0  0  0  0  0  0  0  0
   -1.3987   22.8302  -31.5677 H   0  0  0  0  0  0  0  0  0  0  0  0
   -1.0489   21.4612  -30.4415 H   0  0  0  0  0  0  0  0  0  0  0  0
   -4.5970   25.6700  -28.6540 H   0  0  0  0  0  0  0  0  0  0  0  0
   -5.6550   24.2660  -28.2950 H   0  0  0  0  0  0  0  0  0  0  0  0
   -8.0357   24.0367  -30.7297 H   0  0  0  0  0  0  0  0  0  0  0  0
   -9.7099   21.8756  -31.5695 H   0  0  0  0  0  0  0  0  0  0  0  0
   -9.6456   19.5340  -32.4899 H   0  0  0  0  0  0  0  0  0  0  0  0
   -7.4108   17.2768  -32.2497 H   0  0  0  0  0  0  0  0  0  0  0  0
   -8.3254   17.8757  -33.6750 H   0  0  0  0  0  0  0  0  0  0  0  0
   -6.5297   17.9240  -33.6750 H   0  0  0  0  0  0  0  0  0  0  0  0
   -5.2888   19.5933  -32.3441 H   0  0  0  0  0  0  0  0  0  0  0  0
  1  2  1  0
  2  3  1  0
  3  4  1  0
  3  5  1  0
  5  6  2  0
  5  7  1  0
  7  8  1  0
  8  9  1  0
  9 10  1  0
 10 11  2  0
 10 12  1  0
 12 13  1  0
 13 14  1  0
 14 15  1  0
 14 16  2  0
 13 17  2  0
 17 18  1  0
 18 19  2  0
 19 20  1  0
 20 21  2  0
 21 22  1  0
 21 23  1  0
 23 24  2  0
 24 12  1  0
 24 18  1  0
  1 25  1  0
  1 26  1  0
  1 27  1  0
  4 28  1  0
  4 29  1  0
  4 30  1  0
  7 31  1  0
  7 32  1  0
  8 33  1  0
  8 34  1  0
 15 35  1  0
 15 36  1  0
 17 37  1  0
 19 38  1  0
 20 39  1  0
 22 40  1  0
 22 41  1  0
 22 42  1  0
 23 43  1  0
M  CHG  1   9  -1
M  END
>  <UniqueID>  (98) 
96

>  <SMILES>  (98) 
CON(C)C(=O)CC[N-]C(=O)n1c(C(N)=O)cc2ccc(C)cc21

>  <Energy>  (98) 
73.11889188629259

>  <Genealogy>  (98) 
CON(C)C(=O)CC[N-]C(=O)n1c(C(N)=O)cc2ccc(C)cc21 (protonated)
CON(C)C(=O)CC[N-]C(=O)n1c(C(N)=O)cc2ccc(C)cc21 (3D coordinates assigned)
CON(C)C(=O)CC[N-]C(=O)n1c(C(N)=O)cc2ccc(C)cc21 (optimized conformer: 73.11889188629259 kcal/mol)

>  <smiles>  (98) 
CON(C)C(=O)CCNC(=O)n1c(C(N)=O)cc2ccc(C)cc21

>  <score_type>  (98) 
oracle

>  <origin>  (98) 
adg

>  <m_score__min__energy>  (98) 
-9.4499999999999993

>  <m_primary>  (98) 
energy

$$$$
