0:0
     RDKit          3D

 38 39  0  0  0  0  0  0  0  0999 V2000
   -6.8900   17.1440  -32.4290 C   0  0  0  0  0  0  0  0  0  0  0  0
   -6.5740   18.3300  -33.2350 N   0  0  0  0  0  0  0  0  0  0  0  0
   -6.0370   18.1440  -34.5890 C   0  0  0  0  0  0  0  0  0  0  0  0
   -6.7890   19.6630  -32.7020 C   0  0  0  0  0  0  0  0  0  0  0  0
   -8.1090   20.1590  -32.4990 C   0  0  0  0  0  0  0  0  0  0  0  0
   -8.3300   21.4430  -31.9740 C   0  0  0  0  0  0  0  0  0  0  0  0
   -7.2210   22.2210  -31.6650 C   0  0  0  0  0  0  0  0  0  0  0  0
   -7.1510   23.4840  -31.1220 C   0  0  0  0  0  0  0  0  0  0  0  0
   -5.7900   23.7640  -31.0180 C   0  0  0  0  0  0  0  0  0  0  0  0
   -5.2600   25.0650  -30.5600 C   0  0  0  0  0  0  0  0  0  0  0  0
   -3.9080   25.4360  -30.8200 N   0  0  0  0  0  0  0  0  0  0  0  0
   -6.0210   25.8800  -29.9750 O   0  0  0  0  0  0  0  0  0  0  0  0
   -5.0500   22.7150  -31.4720 N   0  0  0  0  0  0  0  0  0  0  0  0
   -3.6220   22.5740  -31.4370 C   0  0  0  0  0  0  0  0  0  0  0  0
   -2.9780   22.3960  -32.5070 O   0  0  0  0  0  0  0  0  0  0  0  0
   -2.9530   22.6140  -30.2090 O   0  0  0  0  0  0  0  0  0  0  0  0
   -1.5580   22.8860  -30.1010 C   0  0  0  0  0  0  0  0  0  0  0  0
   -1.2320   23.3830  -28.6940 C   0  0  0  0  0  0  0  0  0  0  0  0
   -0.8750   24.8370  -28.7040 C   0  0  0  0  0  0  0  0  0  0  0  0
   -1.5990   25.6640  -29.3170 O   0  0  0  0  0  0  0  0  0  0  0  0
    0.2350   25.2850  -27.9960 O   0  0  0  0  0  0  0  0  0  0  0  0
   -5.9420   21.7780  -31.8660 C   0  0  0  0  0  0  0  0  0  0  0  0
   -5.6890   20.4970  -32.3700 C   0  0  0  0  0  0  0  0  0  0  0  0
   -6.8223   17.3979  -31.3609 H   0  0  0  0  0  0  0  0  0  0  0  0
   -7.9101   16.8040  -32.6612 H   0  0  0  0  0  0  0  0  0  0  0  0
   -6.1743   16.3416  -32.6612 H   0  0  0  0  0  0  0  0  0  0  0  0
   -4.9993   17.7846  -34.5257 H   0  0  0  0  0  0  0  0  0  0  0  0
   -6.6487   17.4054  -35.1278 H   0  0  0  0  0  0  0  0  0  0  0  0
   -6.0608   19.1027  -35.1278 H   0  0  0  0  0  0  0  0  0  0  0  0
   -8.9701   19.5254  -32.7579 H   0  0  0  0  0  0  0  0  0  0  0  0
   -9.3502   21.8212  -31.8124 H   0  0  0  0  0  0  0  0  0  0  0  0
   -7.9902   24.1334  -30.8321 H   0  0  0  0  0  0  0  0  0  0  0  0
   -3.1190   24.7960  -30.5770 H   0  0  0  0  0  0  0  0  0  0  0  0
   -0.9904   21.9657  -30.3033 H   0  0  0  0  0  0  0  0  0  0  0  0
   -1.2828   23.6611  -30.8314 H   0  0  0  0  0  0  0  0  0  0  0  0
   -2.1096   23.2332  -28.0480 H   0  0  0  0  0  0  0  0  0  0  0  0
   -0.3701   22.8147  -28.3142 H   0  0  0  0  0  0  0  0  0  0  0  0
   -4.6566   20.1428  -32.5064 H   0  0  0  0  0  0  0  0  0  0  0  0
  1  2  1  0
  2  3  1  0
  2  4  1  0
  4  5  2  0
  5  6  1  0
  6  7  2  0
  7  8  1  0
  8  9  2  0
  9 10  1  0
 10 11  1  0
 10 12  2  0
  9 13  1  0
 13 14  1  0
 14 15  2  0
 14 16  1  0
 16 17  1  0
 17 18  1  0
 18 19  1  0
 19 20  2  0
 19 21  1  0
 13 22  1  0
 22 23  2  0
 23  4  1  0
 22  7  1  0
  1 24  1  0
  1 25  1  0
  1 26  1  0
  3 27  1  0
  3 28  1  0
  3 29  1  0
  5 30  1  0
  6 31  1  0
  8 32  1  0
 11 33  1  0
 17 34  1  0
 17 35  1  0
 18 36  1  0
 18 37  1  0
 23 38  1  0
M  CHG  2  11  -1  21  -1
M  END
>  <UniqueID>  (1) 
1

>  <SMILES>  (1) 
CN(C)c1ccc2cc(C([NH-])=O)n(C(=O)OCCC(=O)[O-])c2c1

>  <Energy>  (1) 
72.8673987930998

>  <Genealogy>  (1) 
CN(C)c1ccc2cc(C([NH-])=O)n(C(=O)OCCC(=O)[O-])c2c1 (protonated)
CN(C)c1ccc2cc(C([NH-])=O)n(C(=O)OCCC(=O)[O-])c2c1 (3D coordinates assigned)
CN(C)c1ccc2cc(C([NH-])=O)n(C(=O)OCCC(=O)[O-])c2c1 (optimized conformer: 72.8673987930998 kcal/mol)

>  <smiles>  (1) 
CN(C)c1ccc2cc(C(N)=O)n(C(=O)OCCC(=O)O)c2c1

>  <score_type>  (1) 
oracle

>  <origin>  (1) 
adg

>  <m_score__min__energy>  (1) 
-12.42

>  <m_primary>  (1) 
energy

$$$$
1:0
     RDKit          3D

 31 32  0  0  0  0  0  0  0  0999 V2000
   -2.0870   22.7430  -30.8220 N   0  0  0  0  0  0  0  0  0  0  0  0
   -2.1850   21.8670  -31.9460 C   0  0  0  0  0  0  0  0  0  0  0  0
   -1.1630   21.6500  -32.6490 O   0  0  0  0  0  0  0  0  0  0  0  0
   -3.4450   21.1640  -32.2600 C   0  0  0  0  0  0  0  0  0  0  0  0
   -3.4970   19.9620  -32.9600 C   0  0  0  0  0  0  0  0  0  0  0  0
   -4.8290   19.6130  -32.9830 C   0  0  0  0  0  0  0  0  0  0  0  0
   -5.4540   18.5130  -33.5620 C   0  0  0  0  0  0  0  0  0  0  0  0
   -6.8530   18.4240  -33.4650 C   0  0  0  0  0  0  0  0  0  0  0  0
   -7.5960   19.4340  -32.8040 C   0  0  0  0  0  0  0  0  0  0  0  0
   -9.0940   19.3450  -32.7220 C   0  0  0  0  0  0  0  0  0  0  0  0
   -9.4550   18.3190  -31.8680 F   0  0  0  0  0  0  0  0  0  0  0  0
   -9.6040   20.5380  -32.2440 F   0  0  0  0  0  0  0  0  0  0  0  0
   -6.9270   20.5390  -32.2320 C   0  0  0  0  0  0  0  0  0  0  0  0
   -5.5310   20.5910  -32.3240 C   0  0  0  0  0  0  0  0  0  0  0  0
   -4.6940   21.5540  -31.8770 N   0  0  0  0  0  0  0  0  0  0  0  0
   -5.0670   22.7830  -31.2360 C   0  0  0  0  0  0  0  0  0  0  0  0
   -5.5050   23.7450  -31.9260 O   0  0  0  0  0  0  0  0  0  0  0  0
   -4.9450   22.9090  -29.8470 O   0  0  0  0  0  0  0  0  0  0  0  0
   -4.7220   24.1550  -29.1910 C   0  0  0  0  0  0  0  0  0  0  0  0
   -3.6250   24.9110  -29.8710 C   0  0  0  0  0  0  0  0  0  0  0  0
   -3.8880   25.6650  -30.8450 O   0  0  0  0  0  0  0  0  0  0  0  0
   -2.3180   24.8090  -29.4120 O   0  0  0  0  0  0  0  0  0  0  0  0
   -1.2010   23.2640  -30.6400 H   0  0  0  0  0  0  0  0  0  0  0  0
   -2.8580   22.8120  -30.1220 H   0  0  0  0  0  0  0  0  0  0  0  0
   -2.6543   19.4091  -33.4006 H   0  0  0  0  0  0  0  0  0  0  0  0
   -4.8710   17.7370  -34.0797 H   0  0  0  0  0  0  0  0  0  0  0  0
   -7.3763   17.5628  -33.9060 H   0  0  0  0  0  0  0  0  0  0  0  0
   -9.4990   19.1462  -33.7252 H   0  0  0  0  0  0  0  0  0  0  0  0
   -7.4889   21.3385  -31.7270 H   0  0  0  0  0  0  0  0  0  0  0  0
   -5.6460   24.7512  -29.2207 H   0  0  0  0  0  0  0  0  0  0  0  0
   -4.4307   23.9629  -28.1478 H   0  0  0  0  0  0  0  0  0  0  0  0
  1  2  1  0
  2  3  2  0
  2  4  1  0
  4  5  2  0
  5  6  1  0
  6  7  2  0
  7  8  1  0
  8  9  2  0
  9 10  1  0
 10 11  1  0
 10 12  1  0
  9 13  1  0
 13 14  2  0
 14 15  1  0
 15 16  1  0
 16 17  2  0
 16 18  1  0
 18 19  1  0
 19 20  1  0
 20 21  2  0
 20 22  1  0
 15  4  1  0
 14  6  1  0
  1 23  1  0
  1 24  1  0
  5 25  1  0
  7 26  1  0
  8 27  1  0
 10 28  1  0
 13 29  1  0
 19 30  1  0
 19 31  1  0
M  CHG  1  22  -1
M  END
>  <UniqueID>  (2) 
2

>  <SMILES>  (2) 
NC(=O)c1cc2ccc(C(F)F)cc2n1C(=O)OCC(=O)[O-]

>  <Energy>  (2) 
68.04776862369779

>  <Genealogy>  (2) 
NC(=O)c1cc2ccc(C(F)F)cc2n1C(=O)OCC(=O)[O-] (protonated)
NC(=O)c1cc2ccc(C(F)F)cc2n1C(=O)OCC(=O)[O-] (3D coordinates assigned)
NC(=O)c1cc2ccc(C(F)F)cc2n1C(=O)OCC(=O)[O-] (optimized conformer: 68.04776862369779 kcal/mol)

>  <smiles>  (2) 
NC(=O)c1cc2ccc(C(F)F)cc2n1C(=O)OCC(=O)O

>  <score_type>  (2) 
oracle

>  <origin>  (2) 
adg

>  <m_score__min__energy>  (2) 
-9.8399999999999999

>  <m_primary>  (2) 
energy

$$$$
2:0
     RDKit          3D

 33 34  0  0  0  0  0  0  0  0999 V2000
   -3.3140   21.9310  -29.0610 C   0  0  0  0  0  0  0  0  0  0  0  0
   -2.9060   22.6070  -30.3040 N   0  0  0  0  0  0  0  0  0  0  0  0
   -1.6130   22.0870  -30.7720 C   0  0  0  0  0  0  0  0  0  0  0  0
   -3.8940   22.4430  -31.3480 C   0  0  0  0  0  0  0  0  0  0  0  0
   -3.5500   22.0630  -32.5020 O   0  0  0  0  0  0  0  0  0  0  0  0
   -5.2470   22.8730  -31.1290 N   0  0  0  0  0  0  0  0  0  0  0  0
   -5.6960   24.1210  -30.8200 C   0  0  0  0  0  0  0  0  0  0  0  0
   -4.8530   25.2840  -30.4790 C   0  0  0  0  0  0  0  0  0  0  0  0
   -3.4880   25.1140  -30.1120 N   0  0  0  0  0  0  0  0  0  0  0  0
   -5.3550   26.4410  -30.4750 O   0  0  0  0  0  0  0  0  0  0  0  0
   -7.0900   24.1460  -30.8030 C   0  0  0  0  0  0  0  0  0  0  0  0
   -7.4810   22.8610  -31.1090 C   0  0  0  0  0  0  0  0  0  0  0  0
   -8.7550   22.3220  -31.2530 C   0  0  0  0  0  0  0  0  0  0  0  0
   -8.8600   20.9660  -31.6100 C   0  0  0  0  0  0  0  0  0  0  0  0
   -7.6980   20.1730  -31.8010 C   0  0  0  0  0  0  0  0  0  0  0  0
   -7.8230   18.7380  -32.2420 C   0  0  0  0  0  0  0  0  0  0  0  0
   -7.0070   18.5250  -33.3360 F   0  0  0  0  0  0  0  0  0  0  0  0
   -7.4460   17.8800  -31.2240 F   0  0  0  0  0  0  0  0  0  0  0  0
   -9.1320   18.4460  -32.5910 F   0  0  0  0  0  0  0  0  0  0  0  0
   -6.4220   20.7670  -31.6670 C   0  0  0  0  0  0  0  0  0  0  0  0
   -6.3500   22.1140  -31.2990 C   0  0  0  0  0  0  0  0  0  0  0  0
   -2.9632   22.5122  -28.1954 H   0  0  0  0  0  0  0  0  0  0  0  0
   -4.4107   21.8520  -29.0295 H   0  0  0  0  0  0  0  0  0  0  0  0
   -2.8728   20.9238  -29.0295 H   0  0  0  0  0  0  0  0  0  0  0  0
   -2.7910   23.6270  -30.0990 H   0  0  0  0  0  0  0  0  0  0  0  0
   -0.9842   21.8341  -29.9056 H   0  0  0  0  0  0  0  0  0  0  0  0
   -1.7788   21.1856  -31.3803 H   0  0  0  0  0  0  0  0  0  0  0  0
   -1.1085   22.8522  -31.3803 H   0  0  0  0  0  0  0  0  0  0  0  0
   -3.0670   25.6700  -29.3330 H   0  0  0  0  0  0  0  0  0  0  0  0
   -7.7392   25.0082  -30.5905 H   0  0  0  0  0  0  0  0  0  0  0  0
   -9.6526   22.9373  -31.0926 H   0  0  0  0  0  0  0  0  0  0  0  0
   -9.8542   20.5143  -31.7429 H   0  0  0  0  0  0  0  0  0  0  0  0
   -5.5074   20.1832  -31.8480 H   0  0  0  0  0  0  0  0  0  0  0  0
  1  2  1  0
  2  3  1  0
  2  4  1  0
  4  5  2  0
  4  6  1  0
  6  7  1  0
  7  8  1  0
  8  9  1  0
  8 10  2  0
  7 11  2  0
 11 12  1  0
 12 13  2  0
 13 14  1  0
 14 15  2  0
 15 16  1  0
 16 17  1  0
 16 18  1  0
 16 19  1  0
 15 20  1  0
 20 21  2  0
 21  6  1  0
 21 12  1  0
  1 22  1  0
  1 23  1  0
  1 24  1  0
  2 25  1  0
  3 26  1  0
  3 27  1  0
  3 28  1  0
  9 29  1  0
 11 30  1  0
 13 31  1  0
 14 32  1  0
 20 33  1  0
M  CHG  2   2   1   9  -1
M  END
>  <UniqueID>  (3) 
3

>  <SMILES>  (3) 
C[NH+](C)C(=O)n1c(C([NH-])=O)cc2ccc(C(F)(F)F)cc21

>  <Energy>  (3) 
74.56216675233267

>  <Genealogy>  (3) 
C[NH+](C)C(=O)n1c(C([NH-])=O)cc2ccc(C(F)(F)F)cc21 (protonated)
C[NH+](C)C(=O)n1c(C([NH-])=O)cc2ccc(C(F)(F)F)cc21 (3D coordinates assigned)
C[NH+](C)C(=O)n1c(C([NH-])=O)cc2ccc(C(F)(F)F)cc21 (optimized conformer: 74.56216675233267 kcal/mol)

>  <smiles>  (3) 
CN(C)C(=O)n1c(C(N)=O)cc2ccc(C(F)(F)F)cc21

>  <score_type>  (3) 
oracle

>  <origin>  (3) 
adg

>  <m_score__min__energy>  (3) 
-8.4000000000000004

>  <m_primary>  (3) 
energy

$$$$
3:0
     RDKit          3D

 43 44  0  0  0  0  0  0  0  0999 V2000
   -3.4230   20.7630  -33.1300 C   0  0  0  0  0  0  0  0  0  0  0  0
   -3.7790   22.0380  -33.0050 C   0  0  0  0  0  0  0  0  0  0  0  0
   -4.2810   22.6050  -31.7390 C   0  0  0  0  0  0  0  0  0  0  0  0
   -3.4850   22.7330  -30.7730 O   0  0  0  0  0  0  0  0  0  0  0  0
   -5.6530   23.0020  -31.5810 N   0  0  0  0  0  0  0  0  0  0  0  0
   -6.1240   24.1240  -30.9650 C   0  0  0  0  0  0  0  0  0  0  0  0
   -5.2950   25.2420  -30.4680 C   0  0  0  0  0  0  0  0  0  0  0  0
   -3.9050   25.2950  -30.7810 N   0  0  0  0  0  0  0  0  0  0  0  0
   -5.8000   26.1480  -29.7530 O   0  0  0  0  0  0  0  0  0  0  0  0
   -7.5130   24.0810  -30.8740 C   0  0  0  0  0  0  0  0  0  0  0  0
   -7.8800   22.8830  -31.4450 C   0  0  0  0  0  0  0  0  0  0  0  0
   -9.1360   22.2940  -31.5680 C   0  0  0  0  0  0  0  0  0  0  0  0
   -9.2090   21.0090  -32.1330 C   0  0  0  0  0  0  0  0  0  0  0  0
   -8.0370   20.3350  -32.5580 C   0  0  0  0  0  0  0  0  0  0  0  0
   -8.1190   18.9900  -33.0810 N   0  0  0  0  0  0  0  0  0  0  0  0
   -7.9530   17.9810  -32.0170 C   0  0  0  0  0  0  0  0  0  0  0  0
   -6.5240   17.4180  -31.9440 C   0  0  0  0  0  0  0  0  0  0  0  0
   -5.6490   18.1920  -32.7580 O   0  0  0  0  0  0  0  0  0  0  0  0
   -5.4300   17.9150  -34.1100 C   0  0  0  0  0  0  0  0  0  0  0  0
   -6.0460   18.5540  -35.0080 O   0  0  0  0  0  0  0  0  0  0  0  0
   -4.4380   16.8620  -34.4920 C   0  0  0  0  0  0  0  0  0  0  0  0
   -3.0350   17.4550  -34.5770 C   0  0  0  0  0  0  0  0  0  0  0  0
   -6.7800   20.9680  -32.4170 C   0  0  0  0  0  0  0  0  0  0  0  0
   -6.7390   22.2510  -31.8610 C   0  0  0  0  0  0  0  0  0  0  0  0
   -3.0543   20.3871  -34.0958 H   0  0  0  0  0  0  0  0  0  0  0  0
   -3.4972   20.0842  -32.2676 H   0  0  0  0  0  0  0  0  0  0  0  0
   -3.6958   22.6971  -33.8817 H   0  0  0  0  0  0  0  0  0  0  0  0
   -3.5100   26.0720  -31.3570 H   0  0  0  0  0  0  0  0  0  0  0  0
   -8.1763   24.8427  -30.4383 H   0  0  0  0  0  0  0  0  0  0  0  0
  -10.0432   22.8184  -31.2332 H   0  0  0  0  0  0  0  0  0  0  0  0
  -10.1880   20.5205  -32.2467 H   0  0  0  0  0  0  0  0  0  0  0  0
   -9.0610   18.8560  -33.5230 H   0  0  0  0  0  0  0  0  0  0  0  0
   -7.4060   18.8430  -33.8340 H   0  0  0  0  0  0  0  0  0  0  0  0
   -8.1966   18.4466  -31.0506 H   0  0  0  0  0  0  0  0  0  0  0  0
   -8.6266   17.1428  -32.2489 H   0  0  0  0  0  0  0  0  0  0  0  0
   -6.1737   17.4495  -30.9017 H   0  0  0  0  0  0  0  0  0  0  0  0
   -6.5280   16.3797  -32.3073 H   0  0  0  0  0  0  0  0  0  0  0  0
   -4.4483   16.0636  -33.7354 H   0  0  0  0  0  0  0  0  0  0  0  0
   -4.7124   16.4553  -35.4765 H   0  0  0  0  0  0  0  0  0  0  0  0
   -2.6446   17.6200  -33.5619 H   0  0  0  0  0  0  0  0  0  0  0  0
   -2.3747   16.7590  -35.1152 H   0  0  0  0  0  0  0  0  0  0  0  0
   -3.0741   18.4136  -35.1152 H   0  0  0  0  0  0  0  0  0  0  0  0
   -5.8565   20.4633  -32.7370 H   0  0  0  0  0  0  0  0  0  0  0  0
  1  2  2  0
  2  3  1  0
  3  4  2  0
  3  5  1  0
  5  6  1  0
  6  7  1  0
  7  8  1  0
  7  9  2  0
  6 10  2  0
 10 11  1  0
 11 12  2  0
 12 13  1  0
 13 14  2  0
 14 15  1  0
 15 16  1  0
 16 17  1  0
 17 18  1  0
 18 19  1  0
 19 20  2  0
 19 21  1  0
 21 22  1  0
 14 23  1  0
 23 24  2  0
 24  5  1  0
 24 11  1  0
  1 25  1  0
  1 26  1  0
  2 27  1  0
  8 28  1  0
 10 29  1  0
 12 30  1  0
 13 31  1  0
 15 32  1  0
 15 33  1  0
 16 34  1  0
 16 35  1  0
 17 36  1  0
 17 37  1  0
 21 38  1  0
 21 39  1  0
 22 40  1  0
 22 41  1  0
 22 42  1  0
 23 43  1  0
M  CHG  2   8  -1  15   1
M  END
>  <UniqueID>  (4) 
4

>  <SMILES>  (4) 
C=CC(=O)n1c(C([NH-])=O)cc2ccc([NH2+]CCOC(=O)CC)cc21

>  <Energy>  (4) 
73.83838125945279

>  <Genealogy>  (4) 
C=CC(=O)n1c(C([NH-])=O)cc2ccc([NH2+]CCOC(=O)CC)cc21 (protonated)
C=CC(=O)n1c(C([NH-])=O)cc2ccc([NH2+]CCOC(=O)CC)cc21 (3D coordinates assigned)
C=CC(=O)n1c(C([NH-])=O)cc2ccc([NH2+]CCOC(=O)CC)cc21 (optimized conformer: 73.83838125945279 kcal/mol)

>  <smiles>  (4) 
C=CC(=O)n1c(C(N)=O)cc2ccc(NCCOC(=O)CC)cc21

>  <score_type>  (4) 
oracle

>  <origin>  (4) 
adg

>  <m_score__min__energy>  (4) 
-9.9900000000000002

>  <m_primary>  (4) 
energy

$$$$
4:0
     RDKit          3D

 31 33  0  0  0  0  0  0  0  0999 V2000
   -1.2970   25.2560  -29.2080 N   0  0  0  0  0  0  0  0  0  0  0  0
   -0.9810   23.8650  -29.2930 C   0  0  0  0  0  0  0  0  0  0  0  0
   -0.0040   23.4180  -28.6360 O   0  0  0  0  0  0  0  0  0  0  0  0
   -1.8080   22.9510  -30.1120 C   0  0  0  0  0  0  0  0  0  0  0  0
   -1.3420   21.7490  -30.6430 C   0  0  0  0  0  0  0  0  0  0  0  0
   -2.3790   21.2620  -31.4050 C   0  0  0  0  0  0  0  0  0  0  0  0
   -2.4630   20.0920  -32.1520 C   0  0  0  0  0  0  0  0  0  0  0  0
   -3.6680   19.8240  -32.8210 C   0  0  0  0  0  0  0  0  0  0  0  0
   -4.7680   20.7210  -32.7300 C   0  0  0  0  0  0  0  0  0  0  0  0
   -6.0860   20.4490  -33.4310 C   0  0  0  0  0  0  0  0  0  0  0  0
   -6.3200   18.9960  -33.8180 C   0  0  0  0  0  0  0  0  0  0  0  0
   -7.4590   18.8550  -32.9080 N   0  0  0  0  0  0  0  0  0  0  0  0
   -7.2780   20.2510  -32.5060 C   0  0  0  0  0  0  0  0  0  0  0  0
   -4.6380   21.8990  -31.9600 C   0  0  0  0  0  0  0  0  0  0  0  0
   -3.4180   22.1500  -31.3190 C   0  0  0  0  0  0  0  0  0  0  0  0
   -3.0840   23.1940  -30.5270 N   0  0  0  0  0  0  0  0  0  0  0  0
   -3.9340   24.2930  -30.1550 C   0  0  0  0  0  0  0  0  0  0  0  0
   -4.7580   24.1680  -29.2110 O   0  0  0  0  0  0  0  0  0  0  0  0
   -3.8650   25.4980  -30.8420 O   0  0  0  0  0  0  0  0  0  0  0  0
   -2.0640   25.6750  -29.7790 H   0  0  0  0  0  0  0  0  0  0  0  0
   -0.7320   25.8850  -28.5960 H   0  0  0  0  0  0  0  0  0  0  0  0
   -0.3555   21.2882  -30.4862 H   0  0  0  0  0  0  0  0  0  0  0  0
   -1.6119   19.3981  -32.2167 H   0  0  0  0  0  0  0  0  0  0  0  0
   -3.7625   18.9084  -33.4233 H   0  0  0  0  0  0  0  0  0  0  0  0
   -6.0243   21.2652  -34.1659 H   0  0  0  0  0  0  0  0  0  0  0  0
   -6.5876   18.8635  -34.8767 H   0  0  0  0  0  0  0  0  0  0  0  0
   -5.4848   18.2851  -33.7344 H   0  0  0  0  0  0  0  0  0  0  0  0
   -8.3340   18.7830  -33.4790 H   0  0  0  0  0  0  0  0  0  0  0  0
   -8.1361   20.8923  -32.7559 H   0  0  0  0  0  0  0  0  0  0  0  0
   -7.1620   20.4827  -31.4370 H   0  0  0  0  0  0  0  0  0  0  0  0
   -5.4772   22.6039  -31.8660 H   0  0  0  0  0  0  0  0  0  0  0  0
  1  2  1  0
  2  3  2  0
  2  4  1  0
  4  5  2  0
  5  6  1  0
  6  7  2  0
  7  8  1  0
  8  9  2  0
  9 10  1  0
 10 11  1  0
 11 12  1  0
 12 13  1  0
  9 14  1  0
 14 15  2  0
 15 16  1  0
 16 17  1  0
 17 18  2  0
 17 19  1  0
 16  4  1  0
 15  6  1  0
 13 10  1  0
  1 20  1  0
  1 21  1  0
  5 22  1  0
  7 23  1  0
  8 24  1  0
 10 25  1  0
 11 26  1  0
 11 27  1  0
 12 28  1  0
 13 29  1  0
 13 30  1  0
 14 31  1  0
M  CHG  1  19  -1
M  END
>  <UniqueID>  (5) 
5

>  <SMILES>  (5) 
NC(=O)c1cc2ccc(C3CNC3)cc2n1C(=O)[O-]

>  <Energy>  (5) 
140.29946815971238

>  <Genealogy>  (5) 
NC(=O)c1cc2ccc(C3CNC3)cc2n1C(=O)[O-] (protonated)
NC(=O)c1cc2ccc(C3CNC3)cc2n1C(=O)[O-] (3D coordinates assigned)
NC(=O)c1cc2ccc(C3CNC3)cc2n1C(=O)[O-] (nonaromatic ring conformer: 140.29946815971238 kcal/mol)

>  <smiles>  (5) 
NC(=O)c1cc2ccc(C3CNC3)cc2n1C(=O)O

>  <score_type>  (5) 
oracle

>  <origin>  (5) 
adg

>  <m_score__min__energy>  (5) 
-8.5999999999999996

>  <m_primary>  (5) 
energy

$$$$
5:0
     RDKit          3D

 45 47  0  0  0  0  0  0  0  0999 V2000
   -6.1740   25.9760  -28.9940 N   0  0  0  0  0  0  0  0  0  0  0  0
   -5.4260   25.3220  -30.0220 C   0  0  0  0  0  0  0  0  0  0  0  0
   -4.3930   25.8800  -30.4770 O   0  0  0  0  0  0  0  0  0  0  0  0
   -5.8740   24.0230  -30.5720 C   0  0  0  0  0  0  0  0  0  0  0  0
   -7.2110   23.6500  -30.6960 C   0  0  0  0  0  0  0  0  0  0  0  0
   -7.1930   22.4320  -31.3340 C   0  0  0  0  0  0  0  0  0  0  0  0
   -8.2440   21.6010  -31.7050 C   0  0  0  0  0  0  0  0  0  0  0  0
   -7.9340   20.3840  -32.3320 C   0  0  0  0  0  0  0  0  0  0  0  0
   -6.5850   20.0110  -32.5720 C   0  0  0  0  0  0  0  0  0  0  0  0
   -6.2770   18.7500  -33.2070 N   0  0  0  0  0  0  0  0  0  0  0  0
   -6.5240   17.4840  -32.4970 C   0  0  0  0  0  0  0  0  0  0  0  0
   -6.7830   16.3470  -33.4900 C   0  0  0  0  0  0  0  0  0  0  0  0
   -5.6290   16.1760  -34.4960 C   0  0  0  0  0  0  0  0  0  0  0  0
   -4.8510   17.4760  -34.7730 C   0  0  0  0  0  0  0  0  0  0  0  0
   -5.7140   18.7250  -34.5680 C   0  0  0  0  0  0  0  0  0  0  0  0
   -5.5450   20.8870  -32.1790 C   0  0  0  0  0  0  0  0  0  0  0  0
   -5.8850   22.1020  -31.5740 C   0  0  0  0  0  0  0  0  0  0  0  0
   -5.0620   23.0690  -31.1120 N   0  0  0  0  0  0  0  0  0  0  0  0
   -3.6250   23.0520  -31.1350 C   0  0  0  0  0  0  0  0  0  0  0  0
   -3.0180   22.2990  -31.9440 O   0  0  0  0  0  0  0  0  0  0  0  0
   -2.9070   23.8850  -30.2700 O   0  0  0  0  0  0  0  0  0  0  0  0
   -2.0150   23.3980  -29.2680 C   0  0  0  0  0  0  0  0  0  0  0  0
   -1.5340   24.5410  -28.3750 C   0  0  0  0  0  0  0  0  0  0  0  0
   -1.6110   25.7600  -29.0620 O   0  0  0  0  0  0  0  0  0  0  0  0
   -5.8710   26.9110  -28.6410 H   0  0  0  0  0  0  0  0  0  0  0  0
   -7.0020   25.5210  -28.5530 H   0  0  0  0  0  0  0  0  0  0  0  0
   -8.0938   24.2111  -30.3556 H   0  0  0  0  0  0  0  0  0  0  0  0
   -9.2881   21.8888  -31.5128 H   0  0  0  0  0  0  0  0  0  0  0  0
   -8.7467   19.7104  -32.6415 H   0  0  0  0  0  0  0  0  0  0  0  0
   -5.6441   17.2356  -31.8854 H   0  0  0  0  0  0  0  0  0  0  0  0
   -7.4116   17.6044  -31.8585 H   0  0  0  0  0  0  0  0  0  0  0  0
   -6.9056   15.4086  -32.9293 H   0  0  0  0  0  0  0  0  0  0  0  0
   -7.6911   16.5966  -34.0584 H   0  0  0  0  0  0  0  0  0  0  0  0
   -4.9270   15.4298  -34.0955 H   0  0  0  0  0  0  0  0  0  0  0  0
   -6.0780   15.8608  -35.4495 H   0  0  0  0  0  0  0  0  0  0  0  0
   -3.9898   17.5251  -34.0904 H   0  0  0  0  0  0  0  0  0  0  0  0
   -4.5294   17.4581  -35.8248 H   0  0  0  0  0  0  0  0  0  0  0  0
   -5.0942   19.6211  -34.7191 H   0  0  0  0  0  0  0  0  0  0  0  0
   -6.5410   18.7069  -35.2930 H   0  0  0  0  0  0  0  0  0  0  0  0
   -4.4915   20.6182  -32.3457 H   0  0  0  0  0  0  0  0  0  0  0  0
   -2.5371   22.6521  -28.6508 H   0  0  0  0  0  0  0  0  0  0  0  0
   -1.1436   22.9416  -29.7603 H   0  0  0  0  0  0  0  0  0  0  0  0
   -2.1665   24.5903  -27.4763 H   0  0  0  0  0  0  0  0  0  0  0  0
   -0.4878   24.3564  -28.0897 H   0  0  0  0  0  0  0  0  0  0  0  0
   -2.3500   25.6690  -29.7180 H   0  0  0  0  0  0  0  0  0  0  0  0
  1  2  1  0
  2  3  2  0
  2  4  1  0
  4  5  2  0
  5  6  1  0
  6  7  2  0
  7  8  1  0
  8  9  2  0
  9 10  1  0
 10 11  1  0
 11 12  1  0
 12 13  1  0
 13 14  1  0
 14 15  1  0
  9 16  1  0
 16 17  2  0
 17 18  1  0
 18 19  1  0
 19 20  2  0
 19 21  1  0
 21 22  1  0
 22 23  1  0
 23 24  1  0
 18  4  1  0
 17  6  1  0
 15 10  1  0
  1 25  1  0
  1 26  1  0
  5 27  1  0
  7 28  1  0
  8 29  1  0
 11 30  1  0
 11 31  1  0
 12 32  1  0
 12 33  1  0
 13 34  1  0
 13 35  1  0
 14 36  1  0
 14 37  1  0
 15 38  1  0
 15 39  1  0
 16 40  1  0
 22 41  1  0
 22 42  1  0
 23 43  1  0
 23 44  1  0
 24 45  1  0
M  END
>  <UniqueID>  (6) 
6

>  <SMILES>  (6) 
NC(=O)c1cc2ccc(N3CCCCC3)cc2n1C(=O)OCCO

>  <Energy>  (6) 
84.73047508567343

>  <Genealogy>  (6) 
NC(=O)c1cc2ccc(N3CCCCC3)cc2n1C(=O)OCCO (3D coordinates assigned)
NC(=O)c1cc2ccc(N3CCCCC3)cc2n1C(=O)OCCO (nonaromatic ring conformer: 84.73047508567343 kcal/mol)

>  <smiles>  (6) 
NC(=O)c1cc2ccc(N3CCCCC3)cc2n1C(=O)OCCO

>  <score_type>  (6) 
oracle

>  <origin>  (6) 
adg

>  <m_score__min__energy>  (6) 
-9.8499999999999996

>  <m_primary>  (6) 
energy

$$$$
6:0
     RDKit          3D

 44 45  0  0  0  0  0  0  0  0999 V2000
   -1.9930   25.8160  -25.7950 C   0  0  0  0  0  0  0  0  0  0  0  0
   -1.2010   25.3950  -26.7860 C   0  0  0  0  0  0  0  0  0  0  0  0
   -1.2070   26.0720  -28.1250 C   0  0  0  0  0  0  0  0  0  0  0  0
   -1.9180   25.2690  -29.0630 O   0  0  0  0  0  0  0  0  0  0  0  0
   -1.7060   23.8930  -29.1960 C   0  0  0  0  0  0  0  0  0  0  0  0
   -0.6290   23.4620  -29.6940 O   0  0  0  0  0  0  0  0  0  0  0  0
   -2.7360   22.9230  -28.6580 C   0  0  0  0  0  0  0  0  0  0  0  0
   -2.0430   21.9750  -27.6700 C   0  0  0  0  0  0  0  0  0  0  0  0
   -3.8640   23.6800  -27.9320 C   0  0  0  0  0  0  0  0  0  0  0  0
   -3.3070   22.1130  -29.7400 N   0  0  0  0  0  0  0  0  0  0  0  0
   -3.8490   22.6110  -30.9710 C   0  0  0  0  0  0  0  0  0  0  0  0
   -3.0940   22.8270  -31.9570 O   0  0  0  0  0  0  0  0  0  0  0  0
   -5.2530   22.8900  -31.0740 N   0  0  0  0  0  0  0  0  0  0  0  0
   -5.8780   24.0980  -30.9660 C   0  0  0  0  0  0  0  0  0  0  0  0
   -5.2490   25.3680  -30.5460 C   0  0  0  0  0  0  0  0  0  0  0  0
   -3.8830   25.6420  -30.8420 N   0  0  0  0  0  0  0  0  0  0  0  0
   -5.9160   26.2030  -29.8760 O   0  0  0  0  0  0  0  0  0  0  0  0
   -7.2410   23.9690  -31.2240 C   0  0  0  0  0  0  0  0  0  0  0  0
   -7.4350   22.6320  -31.4880 C   0  0  0  0  0  0  0  0  0  0  0  0
   -8.6030   21.9440  -31.8050 C   0  0  0  0  0  0  0  0  0  0  0  0
   -8.5070   20.5630  -32.0500 C   0  0  0  0  0  0  0  0  0  0  0  0
   -7.2530   19.9020  -32.0020 C   0  0  0  0  0  0  0  0  0  0  0  0
   -7.1760   18.4140  -32.2400 C   0  0  0  0  0  0  0  0  0  0  0  0
   -6.2560   17.8630  -31.3690 F   0  0  0  0  0  0  0  0  0  0  0  0
   -8.4120   17.8270  -32.0250 F   0  0  0  0  0  0  0  0  0  0  0  0
   -6.7880   18.1400  -33.5410 F   0  0  0  0  0  0  0  0  0  0  0  0
   -6.0940   20.6330  -31.6520 C   0  0  0  0  0  0  0  0  0  0  0  0
   -6.2230   22.0030  -31.3930 C   0  0  0  0  0  0  0  0  0  0  0  0
   -1.9734   25.3057  -24.8207 H   0  0  0  0  0  0  0  0  0  0  0  0
   -2.6644   26.6727  -25.9537 H   0  0  0  0  0  0  0  0  0  0  0  0
   -0.5333   24.5374  -26.6170 H   0  0  0  0  0  0  0  0  0  0  0  0
   -1.6970   27.0529  -28.0371 H   0  0  0  0  0  0  0  0  0  0  0  0
   -0.1716   26.2075  -28.4707 H   0  0  0  0  0  0  0  0  0  0  0  0
   -2.2715   22.2875  -26.6404 H   0  0  0  0  0  0  0  0  0  0  0  0
   -2.4055   20.9490  -27.8307 H   0  0  0  0  0  0  0  0  0  0  0  0
   -0.9553   22.0090  -27.8307 H   0  0  0  0  0  0  0  0  0  0  0  0
   -3.7266   23.5878  -26.8445 H   0  0  0  0  0  0  0  0  0  0  0  0
   -3.8350   24.7422  -28.2165 H   0  0  0  0  0  0  0  0  0  0  0  0
   -4.8360   23.2506  -28.2165 H   0  0  0  0  0  0  0  0  0  0  0  0
   -3.1650   24.8840  -30.8250 H   0  0  0  0  0  0  0  0  0  0  0  0
   -7.9999   24.7653  -31.2180 H   0  0  0  0  0  0  0  0  0  0  0  0
   -9.5704   22.4645  -31.8620 H   0  0  0  0  0  0  0  0  0  0  0  0
   -9.4156   19.9880  -32.2818 H   0  0  0  0  0  0  0  0  0  0  0  0
   -5.1144   20.1371  -31.5848 H   0  0  0  0  0  0  0  0  0  0  0  0
  1  2  2  0
  2  3  1  0
  3  4  1  0
  4  5  1  0
  5  6  2  0
  5  7  1  0
  7  8  1  0
  7  9  1  0
  7 10  1  0
 10 11  1  0
 11 12  2  0
 11 13  1  0
 13 14  1  0
 14 15  1  0
 15 16  1  0
 15 17  2  0
 14 18  2  0
 18 19  1  0
 19 20  2  0
 20 21  1  0
 21 22  2  0
 22 23  1  0
 23 24  1  0
 23 25  1  0
 23 26  1  0
 22 27  1  0
 27 28  2  0
 28 13  1  0
 28 19  1  0
  1 29  1  0
  1 30  1  0
  2 31  1  0
  3 32  1  0
  3 33  1  0
  8 34  1  0
  8 35  1  0
  8 36  1  0
  9 37  1  0
  9 38  1  0
  9 39  1  0
 16 40  1  0
 18 41  1  0
 20 42  1  0
 21 43  1  0
 27 44  1  0
M  CHG  2  10  -1  16  -1
M  END
>  <UniqueID>  (7) 
7

>  <SMILES>  (7) 
C=CCOC(=O)C(C)(C)[N-]C(=O)n1c(C([NH-])=O)cc2ccc(C(F)(F)F)cc21

>  <Energy>  (7) 
74.89164211586703

>  <Genealogy>  (7) 
C=CCOC(=O)C(C)(C)[N-]C(=O)n1c(C([NH-])=O)cc2ccc(C(F)(F)F)cc21 (protonated)
C=CCOC(=O)C(C)(C)[N-]C(=O)n1c(C([NH-])=O)cc2ccc(C(F)(F)F)cc21 (3D coordinates assigned)
C=CCOC(=O)C(C)(C)[N-]C(=O)n1c(C([NH-])=O)cc2ccc(C(F)(F)F)cc21 (optimized conformer: 74.89164211586703 kcal/mol)

>  <smiles>  (7) 
C=CCOC(=O)C(C)(C)NC(=O)n1c(C(N)=O)cc2ccc(C(F)(F)F)cc21

>  <score_type>  (7) 
oracle

>  <origin>  (7) 
adg

>  <m_score__min__energy>  (7) 
-11.5

>  <m_primary>  (7) 
energy

$$$$
7:0
     RDKit          3D

 55 57  0  0  0  0  0  0  0  0999 V2000
   -1.4260   19.2410  -31.6990 C   0  0  0  0  0  0  0  0  0  0  0  0
   -2.7730   19.4790  -32.0860 O   0  0  0  0  0  0  0  0  0  0  0  0
   -3.1800   20.6630  -32.7060 C   0  0  0  0  0  0  0  0  0  0  0  0
   -4.1990   20.6840  -33.4490 O   0  0  0  0  0  0  0  0  0  0  0  0
   -2.3770   21.9120  -32.5140 C   0  0  0  0  0  0  0  0  0  0  0  0
   -2.9950   22.7620  -31.5510 O   0  0  0  0  0  0  0  0  0  0  0  0
   -4.0620   22.3540  -30.7410 C   0  0  0  0  0  0  0  0  0  0  0  0
   -3.8630   21.5900  -29.7580 O   0  0  0  0  0  0  0  0  0  0  0  0
   -5.3850   22.8360  -31.0140 N   0  0  0  0  0  0  0  0  0  0  0  0
   -5.8710   24.0950  -30.8290 C   0  0  0  0  0  0  0  0  0  0  0  0
   -5.0790   25.2830  -30.4470 C   0  0  0  0  0  0  0  0  0  0  0  0
   -3.6560   25.2300  -30.3930 N   0  0  0  0  0  0  0  0  0  0  0  0
   -5.6650   26.3730  -30.2060 O   0  0  0  0  0  0  0  0  0  0  0  0
   -7.2330   24.1420  -31.1250 C   0  0  0  0  0  0  0  0  0  0  0  0
   -7.5670   22.8620  -31.5050 C   0  0  0  0  0  0  0  0  0  0  0  0
   -8.7950   22.3330  -31.8880 C   0  0  0  0  0  0  0  0  0  0  0  0
   -8.8550   20.9630  -32.1960 C   0  0  0  0  0  0  0  0  0  0  0  0
   -7.6940   20.1520  -32.1190 C   0  0  0  0  0  0  0  0  0  0  0  0
   -7.7760   18.6770  -32.4280 C   0  0  0  0  0  0  0  0  0  0  0  0
   -6.5090   17.8780  -32.0160 C   0  0  0  0  0  0  0  0  0  0  0  0
   -5.3050   18.0830  -32.8630 N   0  0  0  0  0  0  0  0  0  0  0  0
   -4.3360   16.9670  -32.7590 C   0  0  0  0  0  0  0  0  0  0  0  0
   -3.2290   17.1100  -33.8140 C   0  0  0  0  0  0  0  0  0  0  0  0
   -3.7620   17.1020  -35.2000 N   0  0  0  0  0  0  0  0  0  0  0  0
   -3.4730   15.8280  -35.8770 C   0  0  0  0  0  0  0  0  0  0  0  0
   -5.2080   17.4100  -35.2890 C   0  0  0  0  0  0  0  0  0  0  0  0
   -5.6170   18.4820  -34.2650 C   0  0  0  0  0  0  0  0  0  0  0  0
   -6.4700   20.7230  -31.7010 C   0  0  0  0  0  0  0  0  0  0  0  0
   -6.4350   22.0930  -31.4270 C   0  0  0  0  0  0  0  0  0  0  0  0
   -1.3566   19.2287  -30.6013 H   0  0  0  0  0  0  0  0  0  0  0  0
   -1.0958   18.2706  -32.0981 H   0  0  0  0  0  0  0  0  0  0  0  0
   -0.7833   20.0395  -32.0981 H   0  0  0  0  0  0  0  0  0  0  0  0
   -1.3688   21.6437  -32.1654 H   0  0  0  0  0  0  0  0  0  0  0  0
   -2.3178   22.4468  -33.4734 H   0  0  0  0  0  0  0  0  0  0  0  0
   -3.0990   24.8890  -31.2070 H   0  0  0  0  0  0  0  0  0  0  0  0
   -7.8986   25.0159  -31.0671 H   0  0  0  0  0  0  0  0  0  0  0  0
   -9.6917   22.9674  -31.9480 H   0  0  0  0  0  0  0  0  0  0  0  0
   -9.8125   20.5150  -32.5000 H   0  0  0  0  0  0  0  0  0  0  0  0
   -8.6399   18.2579  -31.8913 H   0  0  0  0  0  0  0  0  0  0  0  0
   -7.8724   18.5836  -33.5198 H   0  0  0  0  0  0  0  0  0  0  0  0
   -6.2493   18.1663  -30.9867 H   0  0  0  0  0  0  0  0  0  0  0  0
   -6.7764   16.8174  -32.1328 H   0  0  0  0  0  0  0  0  0  0  0  0
   -4.8190   18.9080  -32.4330 H   0  0  0  0  0  0  0  0  0  0  0  0
   -3.8829   16.9743  -31.7567 H   0  0  0  0  0  0  0  0  0  0  0  0
   -4.8678   16.0194  -32.9302 H   0  0  0  0  0  0  0  0  0  0  0  0
   -2.7003   18.0596  -33.6445 H   0  0  0  0  0  0  0  0  0  0  0  0
   -2.5537   16.2479  -33.7099 H   0  0  0  0  0  0  0  0  0  0  0  0
   -3.2954   15.0452  -35.1249 H   0  0  0  0  0  0  0  0  0  0  0  0
   -4.3297   15.5445  -36.5061 H   0  0  0  0  0  0  0  0  0  0  0  0
   -2.5779   15.9419  -36.5061 H   0  0  0  0  0  0  0  0  0  0  0  0
   -5.4342   17.7769  -36.3010 H   0  0  0  0  0  0  0  0  0  0  0  0
   -5.7719   16.4908  -35.0721 H   0  0  0  0  0  0  0  0  0  0  0  0
   -5.0779   19.4129  -34.4948 H   0  0  0  0  0  0  0  0  0  0  0  0
   -6.7063   18.6157  -34.3392 H   0  0  0  0  0  0  0  0  0  0  0  0
   -5.5671   20.1039  -31.5940 H   0  0  0  0  0  0  0  0  0  0  0  0
  1  2  1  0
  2  3  1  0
  3  4  2  0
  3  5  1  0
  5  6  1  0
  6  7  1  0
  7  8  2  0
  7  9  1  0
  9 10  1  0
 10 11  1  0
 11 12  1  0
 11 13  2  0
 10 14  2  0
 14 15  1  0
 15 16  2  0
 16 17  1  0
 17 18  2  0
 18 19  1  0
 19 20  1  0
 20 21  1  0
 21 22  1  0
 22 23  1  0
 23 24  1  0
 24 25  1  0
 24 26  1  0
 26 27  1  0
 18 28  1  0
 28 29  2  0
 29  9  1  0
 29 15  1  0
 27 21  1  0
  1 30  1  0
  1 31  1  0
  1 32  1  0
  5 33  1  0
  5 34  1  0
 12 35  1  0
 14 36  1  0
 16 37  1  0
 17 38  1  0
 19 39  1  0
 19 40  1  0
 20 41  1  0
 20 42  1  0
 21 43  1  0
 22 44  1  0
 22 45  1  0
 23 46  1  0
 23 47  1  0
 25 48  1  0
 25 49  1  0
 25 50  1  0
 26 51  1  0
 26 52  1  0
 27 53  1  0
 27 54  1  0
 28 55  1  0
M  CHG  2  12  -1  21   1
M  END
>  <UniqueID>  (8) 
8

>  <SMILES>  (8) 
COC(=O)COC(=O)n1c(C([NH-])=O)cc2ccc(CC[NH+]3CCN(C)CC3)cc21

>  <Energy>  (8) 
105.35776171765022

>  <Genealogy>  (8) 
COC(=O)COC(=O)n1c(C([NH-])=O)cc2ccc(CC[NH+]3CCN(C)CC3)cc21 (protonated)
COC(=O)COC(=O)n1c(C([NH-])=O)cc2ccc(CC[NH+]3CCN(C)CC3)cc21 (3D coordinates assigned)
COC(=O)COC(=O)n1c(C([NH-])=O)cc2ccc(CC[NH+]3CCN(C)CC3)cc21 (nonaromatic ring conformer: 105.35776171765022 kcal/mol)

>  <smiles>  (8) 
COC(=O)COC(=O)n1c(C(N)=O)cc2ccc(CCN3CCN(C)CC3)cc21

>  <score_type>  (8) 
oracle

>  <origin>  (8) 
adg

>  <m_score__min__energy>  (8) 
-10.43

>  <m_primary>  (8) 
energy

$$$$
8:0
     RDKit          3D

 47 50  0  0  0  0  0  0  0  0999 V2000
   -4.0260   25.6690  -30.8410 N   0  0  0  0  0  0  0  0  0  0  0  0
   -5.3040   25.1580  -30.4640 C   0  0  0  0  0  0  0  0  0  0  0  0
   -6.0340   25.8320  -29.6910 O   0  0  0  0  0  0  0  0  0  0  0  0
   -5.7700   23.8680  -31.0140 C   0  0  0  0  0  0  0  0  0  0  0  0
   -7.0830   23.6370  -31.4230 C   0  0  0  0  0  0  0  0  0  0  0  0
   -7.1260   22.3070  -31.7760 C   0  0  0  0  0  0  0  0  0  0  0  0
   -8.1840   21.5410  -32.2570 C   0  0  0  0  0  0  0  0  0  0  0  0
   -7.9360   20.1920  -32.5590 C   0  0  0  0  0  0  0  0  0  0  0  0
   -6.6420   19.6360  -32.3890 C   0  0  0  0  0  0  0  0  0  0  0  0
   -6.4030   18.2500  -32.7010 N   0  0  0  0  0  0  0  0  0  0  0  0
   -6.2970   17.8250  -34.1030 C   0  0  0  0  0  0  0  0  0  0  0  0
   -5.7580   16.3950  -34.1860 C   0  0  0  0  0  0  0  0  0  0  0  0
   -4.7700   16.2090  -33.1950 O   0  0  0  0  0  0  0  0  0  0  0  0
   -5.3740   16.1240  -31.9150 C   0  0  0  0  0  0  0  0  0  0  0  0
   -6.4150   17.2340  -31.6410 C   0  0  0  0  0  0  0  0  0  0  0  0
   -5.5950   20.4460  -31.8920 C   0  0  0  0  0  0  0  0  0  0  0  0
   -5.8760   21.7810  -31.5810 C   0  0  0  0  0  0  0  0  0  0  0  0
   -5.0310   22.7270  -31.1170 N   0  0  0  0  0  0  0  0  0  0  0  0
   -3.6340   22.5480  -30.8390 C   0  0  0  0  0  0  0  0  0  0  0  0
   -2.7690   23.0850  -31.5820 O   0  0  0  0  0  0  0  0  0  0  0  0
   -3.2440   21.7460  -29.7630 O   0  0  0  0  0  0  0  0  0  0  0  0
   -2.3150   22.1750  -28.7700 C   0  0  0  0  0  0  0  0  0  0  0  0
   -2.4400   23.5990  -28.2130 C   0  0  0  0  0  0  0  0  0  0  0  0
   -1.3410   24.4600  -28.7440 C   0  0  0  0  0  0  0  0  0  0  0  0
   -0.1390   24.1090  -28.6100 O   0  0  0  0  0  0  0  0  0  0  0  0
   -1.6390   25.6770  -29.3440 O   0  0  0  0  0  0  0  0  0  0  0  0
   -0.9330   21.5560  -28.8670 C   0  0  0  0  0  0  0  0  0  0  0  0
   -1.9130   21.0800  -27.7970 C   0  0  0  0  0  0  0  0  0  0  0  0
   -3.1680   25.0810  -30.7550 H   0  0  0  0  0  0  0  0  0  0  0  0
   -7.9087   24.3630  -31.4565 H   0  0  0  0  0  0  0  0  0  0  0  0
   -9.1835   21.9787  -32.3963 H   0  0  0  0  0  0  0  0  0  0  0  0
   -8.7548   19.5591  -32.9318 H   0  0  0  0  0  0  0  0  0  0  0  0
   -7.2919   17.8654  -34.5705 H   0  0  0  0  0  0  0  0  0  0  0  0
   -5.6052   18.4989  -34.6295 H   0  0  0  0  0  0  0  0  0  0  0  0
   -6.5802   15.6827  -34.0230 H   0  0  0  0  0  0  0  0  0  0  0  0
   -5.3187   16.2246  -35.1800 H   0  0  0  0  0  0  0  0  0  0  0  0
   -5.8768   15.1491  -31.8329 H   0  0  0  0  0  0  0  0  0  0  0  0
   -4.5712   16.2476  -31.1732 H   0  0  0  0  0  0  0  0  0  0  0  0
   -7.4163   16.7815  -31.5897 H   0  0  0  0  0  0  0  0  0  0  0  0
   -6.1595   17.7224  -30.6890 H   0  0  0  0  0  0  0  0  0  0  0  0
   -4.5836   20.0364  -31.7531 H   0  0  0  0  0  0  0  0  0  0  0  0
   -3.4100   24.0223  -28.5127 H   0  0  0  0  0  0  0  0  0  0  0  0
   -2.3685   23.5624  -27.1159 H   0  0  0  0  0  0  0  0  0  0  0  0
   -0.6817   20.9006  -29.7139 H   0  0  0  0  0  0  0  0  0  0  0  0
    0.0962   21.9443  -28.8629 H   0  0  0  0  0  0  0  0  0  0  0  0
   -2.3687   20.0817  -27.8726 H   0  0  0  0  0  0  0  0  0  0  0  0
   -1.8842   20.9829  -26.7017 H   0  0  0  0  0  0  0  0  0  0  0  0
  1  2  1  0
  2  3  2  0
  2  4  1  0
  4  5  2  0
  5  6  1  0
  6  7  2  0
  7  8  1  0
  8  9  2  0
  9 10  1  0
 10 11  1  0
 11 12  1  0
 12 13  1  0
 13 14  1  0
 14 15  1  0
  9 16  1  0
 16 17  2  0
 17 18  1  0
 18 19  1  0
 19 20  2  0
 19 21  1  0
 21 22  1  0
 22 23  1  0
 23 24  1  0
 24 25  2  0
 24 26  1  0
 22 27  1  0
 27 28  1  0
 18  4  1  0
 28 22  1  0
 17  6  1  0
 15 10  1  0
  1 29  1  0
  5 30  1  0
  7 31  1  0
  8 32  1  0
 11 33  1  0
 11 34  1  0
 12 35  1  0
 12 36  1  0
 14 37  1  0
 14 38  1  0
 15 39  1  0
 15 40  1  0
 16 41  1  0
 23 42  1  0
 23 43  1  0
 27 44  1  0
 27 45  1  0
 28 46  1  0
 28 47  1  0
M  CHG  2   1  -1  26  -1
M  END
>  <UniqueID>  (9) 
9

>  <SMILES>  (9) 
[NH-]C(=O)c1cc2ccc(N3CCOCC3)cc2n1C(=O)OC1(CC(=O)[O-])CC1

>  <Energy>  (9) 
361.7103990258289

>  <Genealogy>  (9) 
[NH-]C(=O)c1cc2ccc(N3CCOCC3)cc2n1C(=O)OC1(CC(=O)[O-])CC1 (protonated)
[NH-]C(=O)c1cc2ccc(N3CCOCC3)cc2n1C(=O)OC1(CC(=O)[O-])CC1 (3D coordinates assigned)
[NH-]C(=O)c1cc2ccc(N3CCOCC3)cc2n1C(=O)OC1(CC(=O)[O-])CC1 (nonaromatic ring conformer: 361.7103990258289 kcal/mol)

>  <smiles>  (9) 
NC(=O)c1cc2ccc(N3CCOCC3)cc2n1C(=O)OC1(CC(=O)O)CC1

>  <score_type>  (9) 
oracle

>  <origin>  (9) 
adg

>  <m_score__min__energy>  (9) 
-13.57

>  <m_primary>  (9) 
energy

$$$$
9:0
     RDKit          3D

 37 38  0  0  0  0  0  0  0  0999 V2000
   -0.7630   19.2290  -34.3420 C   0  0  0  0  0  0  0  0  0  0  0  0
   -0.9940   20.5050  -34.0410 C   0  0  0  0  0  0  0  0  0  0  0  0
   -0.1560   21.5390  -34.5910 C   0  0  0  0  0  0  0  0  0  0  0  0
    0.5160   22.3710  -35.0320 N   0  0  0  0  0  0  0  0  0  0  0  0
   -2.3310   20.9390  -32.9860 S   0  0  0  0  0  0  0  0  0  0  0  0
   -1.7880   21.5080  -31.7060 O   0  0  0  0  0  0  0  0  0  0  0  0
   -3.2070   21.9690  -33.6440 O   0  0  0  0  0  0  0  0  0  0  0  0
   -3.2700   19.5290  -32.6360 N   0  0  0  0  0  0  0  0  0  0  0  0
   -4.3820   19.1300  -33.4400 C   0  0  0  0  0  0  0  0  0  0  0  0
   -4.1920   18.6480  -34.5890 O   0  0  0  0  0  0  0  0  0  0  0  0
   -5.7170   19.2460  -32.9230 N   0  0  0  0  0  0  0  0  0  0  0  0
   -6.6030   18.2430  -32.6600 C   0  0  0  0  0  0  0  0  0  0  0  0
   -6.4370   16.8210  -33.0250 C   0  0  0  0  0  0  0  0  0  0  0  0
   -7.1330   16.2610  -34.1360 N   0  0  0  0  0  0  0  0  0  0  0  0
   -5.7010   16.0780  -32.3220 O   0  0  0  0  0  0  0  0  0  0  0  0
   -7.7450   18.7510  -32.0450 C   0  0  0  0  0  0  0  0  0  0  0  0
   -7.5330   20.1060  -31.9410 C   0  0  0  0  0  0  0  0  0  0  0  0
   -8.3300   21.0980  -31.3770 C   0  0  0  0  0  0  0  0  0  0  0  0
   -7.8350   22.4130  -31.3610 C   0  0  0  0  0  0  0  0  0  0  0  0
   -6.5630   22.7100  -31.9090 C   0  0  0  0  0  0  0  0  0  0  0  0
   -6.0200   24.1110  -31.8460 C   0  0  0  0  0  0  0  0  0  0  0  0
   -4.7240   24.2340  -30.5750 P   0  0  2  0  0  0  0  0  0  0  0  0
   -5.3540   24.2530  -29.2000 O   0  0  0  0  0  0  0  0  0  0  0  0
   -3.8580   25.6680  -30.8090 O   0  0  0  0  0  0  0  0  0  0  0  0
   -3.6630   22.9200  -30.7000 O   0  0  0  0  0  0  0  0  0  0  0  0
   -5.7790   21.6770  -32.4660 C   0  0  0  0  0  0  0  0  0  0  0  0
   -6.3020   20.3800  -32.4800 C   0  0  0  0  0  0  0  0  0  0  0  0
   -1.4037   18.4400  -33.9213 H   0  0  0  0  0  0  0  0  0  0  0  0
    0.0686   18.9636  -35.0114 H   0  0  0  0  0  0  0  0  0  0  0  0
   -7.4650   15.2730  -34.1200 H   0  0  0  0  0  0  0  0  0  0  0  0
   -8.6294   18.1876  -31.7128 H   0  0  0  0  0  0  0  0  0  0  0  0
   -9.3180   20.8596  -30.9563 H   0  0  0  0  0  0  0  0  0  0  0  0
   -8.4402   23.2184  -30.9193 H   0  0  0  0  0  0  0  0  0  0  0  0
   -5.5944   24.3789  -32.8243 H   0  0  0  0  0  0  0  0  0  0  0  0
   -6.8385   24.7991  -31.5879 H   0  0  0  0  0  0  0  0  0  0  0  0
   -3.5780   22.7500  -31.6710 H   0  0  0  0  0  0  0  0  0  0  0  0
   -4.7813   21.8868  -32.8789 H   0  0  0  0  0  0  0  0  0  0  0  0
  1  2  2  0
  2  3  1  0
  3  4  3  0
  2  5  1  0
  5  6  2  0
  5  7  2  0
  5  8  1  0
  8  9  1  0
  9 10  2  0
  9 11  1  0
 11 12  1  0
 12 13  1  0
 13 14  1  0
 13 15  2  0
 12 16  2  0
 16 17  1  0
 17 18  2  0
 18 19  1  0
 19 20  2  0
 20 21  1  0
 21 22  1  0
 22 23  2  0
 22 24  1  6
 22 25  1  0
 20 26  1  0
 26 27  2  0
 27 11  1  0
 27 17  1  0
  1 28  1  0
  1 29  1  0
 14 30  1  0
 16 31  1  0
 18 32  1  0
 19 33  1  0
 21 34  1  0
 21 35  1  0
 25 36  1  0
 26 37  1  0
M  CHG  3   8  -1  14  -1  24  -1
M  END
>  <UniqueID>  (10) 
10

>  <SMILES>  (10) 
C=C(C#N)S(=O)(=O)[N-]C(=O)n1c(C([NH-])=O)cc2ccc(C[P@](=O)([O-])O)cc21

>  <Energy>  (10) 
69.4900621749415

>  <Genealogy>  (10) 
C=C(C#N)S(=O)(=O)[N-]C(=O)n1c(C([NH-])=O)cc2ccc(CP(=O)([O-])O)cc21 (protonated)
C=C(C#N)S(=O)(=O)[N-]C(=O)n1c(C([NH-])=O)cc2ccc(C[P@](=O)([O-])O)cc21 (chirality)
C=C(C#N)S(=O)(=O)[N-]C(=O)n1c(C([NH-])=O)cc2ccc(C[P@](=O)([O-])O)cc21 (3D coordinates assigned)
C=C(C#N)S(=O)(=O)[N-]C(=O)n1c(C([NH-])=O)cc2ccc(C[P@](=O)([O-])O)cc21 (optimized conformer: 69.4900621749415 kcal/mol)

>  <smiles>  (10) 
C=C(C#N)S(=O)(=O)NC(=O)n1c(C(N)=O)cc2ccc(CP(=O)(O)O)cc21

>  <score_type>  (10) 
oracle

>  <origin>  (10) 
adg

>  <m_score__min__energy>  (10) 
-11.48

>  <m_primary>  (10) 
energy

$$$$
10:0
     RDKit          3D

 31 32  0  0  0  0  0  0  0  0999 V2000
   -3.0550   20.9610  -33.2910 C   0  0  0  0  0  0  0  0  0  0  0  0
   -3.5000   22.2740  -32.9700 O   0  0  0  0  0  0  0  0  0  0  0  0
   -3.8530   22.6550  -31.6720 C   0  0  0  0  0  0  0  0  0  0  0  0
   -2.9670   22.7760  -30.7820 O   0  0  0  0  0  0  0  0  0  0  0  0
   -5.2280   22.9290  -31.3590 N   0  0  0  0  0  0  0  0  0  0  0  0
   -5.7760   24.1110  -30.9530 C   0  0  0  0  0  0  0  0  0  0  0  0
   -5.0320   25.3430  -30.6140 C   0  0  0  0  0  0  0  0  0  0  0  0
   -3.6150   25.2950  -30.4630 N   0  0  0  0  0  0  0  0  0  0  0  0
   -5.6280   26.4440  -30.4920 O   0  0  0  0  0  0  0  0  0  0  0  0
   -7.1560   23.9850  -30.8120 C   0  0  0  0  0  0  0  0  0  0  0  0
   -7.4390   22.6800  -31.1410 C   0  0  0  0  0  0  0  0  0  0  0  0
   -8.6580   22.0090  -31.1710 C   0  0  0  0  0  0  0  0  0  0  0  0
   -8.6600   20.6630  -31.5680 C   0  0  0  0  0  0  0  0  0  0  0  0
   -7.4550   20.0150  -31.9480 C   0  0  0  0  0  0  0  0  0  0  0  0
   -7.4630   18.5550  -32.3410 C   0  0  0  0  0  0  0  0  0  0  0  0
   -6.5010   18.3150  -33.5020 C   0  0  0  0  0  0  0  0  0  0  0  0
   -7.0820   17.7660  -31.2670 F   0  0  0  0  0  0  0  0  0  0  0  0
   -8.7380   18.1680  -32.7210 F   0  0  0  0  0  0  0  0  0  0  0  0
   -6.2330   20.7280  -31.8850 C   0  0  0  0  0  0  0  0  0  0  0  0
   -6.2610   22.0640  -31.4680 C   0  0  0  0  0  0  0  0  0  0  0  0
   -2.8652   20.4011  -32.3633 H   0  0  0  0  0  0  0  0  0  0  0  0
   -3.8285   20.4452  -33.8789 H   0  0  0  0  0  0  0  0  0  0  0  0
   -2.1273   21.0218  -33.8789 H   0  0  0  0  0  0  0  0  0  0  0  0
   -3.0080   24.9000  -31.2150 H   0  0  0  0  0  0  0  0  0  0  0  0
   -7.8684   24.7641  -30.5030 H   0  0  0  0  0  0  0  0  0  0  0  0
   -9.5920   22.5186  -30.8918 H   0  0  0  0  0  0  0  0  0  0  0  0
   -9.6067   20.1030  -31.5850 H   0  0  0  0  0  0  0  0  0  0  0  0
   -5.5048   18.0665  -33.1073 H   0  0  0  0  0  0  0  0  0  0  0  0
   -6.8700   17.4814  -34.1176 H   0  0  0  0  0  0  0  0  0  0  0  0
   -6.4352   19.2242  -34.1176 H   0  0  0  0  0  0  0  0  0  0  0  0
   -5.2839   20.2432  -32.1574 H   0  0  0  0  0  0  0  0  0  0  0  0
  1  2  1  0
  2  3  1  0
  3  4  2  0
  3  5  1  0
  5  6  1  0
  6  7  1  0
  7  8  1  0
  7  9  2  0
  6 10  2  0
 10 11  1  0
 11 12  2  0
 12 13  1  0
 13 14  2  0
 14 15  1  0
 15 16  1  0
 15 17  1  0
 15 18  1  0
 14 19  1  0
 19 20  2  0
 20  5  1  0
 20 11  1  0
  1 21  1  0
  1 22  1  0
  1 23  1  0
  8 24  1  0
 10 25  1  0
 12 26  1  0
 13 27  1  0
 16 28  1  0
 16 29  1  0
 16 30  1  0
 19 31  1  0
M  CHG  1   8  -1
M  END
>  <UniqueID>  (11) 
11

>  <SMILES>  (11) 
COC(=O)n1c(C([NH-])=O)cc2ccc(C(C)(F)F)cc21

>  <Energy>  (11) 
66.20753885062537

>  <Genealogy>  (11) 
COC(=O)n1c(C([NH-])=O)cc2ccc(C(C)(F)F)cc21 (protonated)
COC(=O)n1c(C([NH-])=O)cc2ccc(C(C)(F)F)cc21 (3D coordinates assigned)
COC(=O)n1c(C([NH-])=O)cc2ccc(C(C)(F)F)cc21 (optimized conformer: 66.20753885062537 kcal/mol)

>  <smiles>  (11) 
COC(=O)n1c(C(N)=O)cc2ccc(C(C)(F)F)cc21

>  <score_type>  (11) 
oracle

>  <origin>  (11) 
adg

>  <m_score__min__energy>  (11) 
-9.2100000000000009

>  <m_primary>  (11) 
energy

$$$$
11:0
     RDKit          3D

 40 41  0  0  0  0  0  0  0  0999 V2000
   -7.1760   17.1630  -33.0430 C   0  0  0  0  0  0  0  0  0  0  0  0
   -7.2170   18.2880  -32.6120 C   0  0  0  0  0  0  0  0  0  0  0  0
   -7.2680   19.6310  -32.0970 C   0  0  0  0  0  0  0  0  0  0  0  0
   -8.4790   20.1400  -31.5760 C   0  0  0  0  0  0  0  0  0  0  0  0
   -8.5380   21.4450  -31.0580 C   0  0  0  0  0  0  0  0  0  0  0  0
   -7.3750   22.2100  -31.0840 C   0  0  0  0  0  0  0  0  0  0  0  0
   -7.1480   23.4880  -30.6270 C   0  0  0  0  0  0  0  0  0  0  0  0
   -5.8050   23.7450  -30.9000 C   0  0  0  0  0  0  0  0  0  0  0  0
   -5.1490   25.0480  -30.6550 C   0  0  0  0  0  0  0  0  0  0  0  0
   -3.9240   25.1220  -29.9250 N   0  0  0  0  0  0  0  0  0  0  0  0
   -5.6860   26.1130  -31.0620 O   0  0  0  0  0  0  0  0  0  0  0  0
   -5.2240   22.6660  -31.4980 N   0  0  0  0  0  0  0  0  0  0  0  0
   -3.8430   22.5120  -31.8640 C   0  0  0  0  0  0  0  0  0  0  0  0
   -3.5220   21.7240  -32.7950 O   0  0  0  0  0  0  0  0  0  0  0  0
   -2.8590   23.2290  -31.1780 O   0  0  0  0  0  0  0  0  0  0  0  0
   -1.9770   22.6220  -30.2410 C   0  0  0  0  0  0  0  0  0  0  0  0
   -2.7140   22.2470  -29.0860 O   0  0  0  0  0  0  0  0  0  0  0  0
   -2.8560   23.0860  -27.9770 C   0  0  0  0  0  0  0  0  0  0  0  0
   -3.9890   23.5340  -27.6480 O   0  0  0  0  0  0  0  0  0  0  0  0
   -1.6570   23.4210  -27.1530 C   0  0  0  0  0  0  0  0  0  0  0  0
   -0.8630   24.8880  -27.7840 S   0  0  0  0  0  0  0  0  0  0  0  0
   -0.8370   26.1580  -26.5370 C   0  0  0  0  0  0  0  0  0  0  0  0
    0.5450   24.5650  -28.1970 O   0  0  0  0  0  0  0  0  0  0  0  0
   -1.6270   25.3850  -28.9790 O   0  0  0  0  0  0  0  0  0  0  0  0
   -6.1980   21.7340  -31.6040 C   0  0  0  0  0  0  0  0  0  0  0  0
   -6.1080   20.4310  -32.1090 C   0  0  0  0  0  0  0  0  0  0  0  0
   -7.1386   16.1364  -33.4363 H   0  0  0  0  0  0  0  0  0  0  0  0
   -9.3812   19.5107  -31.5759 H   0  0  0  0  0  0  0  0  0  0  0  0
   -9.4738   21.8495  -30.6449 H   0  0  0  0  0  0  0  0  0  0  0  0
   -7.8722   24.1634  -30.1481 H   0  0  0  0  0  0  0  0  0  0  0  0
   -3.4880   26.0500  -29.7240 H   0  0  0  0  0  0  0  0  0  0  0  0
   -3.4230   24.2600  -29.6160 H   0  0  0  0  0  0  0  0  0  0  0  0
   -1.5183   21.7294  -30.6914 H   0  0  0  0  0  0  0  0  0  0  0  0
   -1.1858   23.3333  -29.9616 H   0  0  0  0  0  0  0  0  0  0  0  0
   -1.9689   23.5960  -26.1128 H   0  0  0  0  0  0  0  0  0  0  0  0
   -0.9466   22.5823  -27.1972 H   0  0  0  0  0  0  0  0  0  0  0  0
   -0.8465   25.6932  -25.5401 H   0  0  0  0  0  0  0  0  0  0  0  0
    0.0737   26.7644  -26.6502 H   0  0  0  0  0  0  0  0  0  0  0  0
   -1.7222   26.8012  -26.6502 H   0  0  0  0  0  0  0  0  0  0  0  0
   -5.1578   20.0426  -32.5043 H   0  0  0  0  0  0  0  0  0  0  0  0
  1  2  3  0
  2  3  1  0
  3  4  2  0
  4  5  1  0
  5  6  2  0
  6  7  1  0
  7  8  2  0
  8  9  1  0
  9 10  1  0
  9 11  2  0
  8 12  1  0
 12 13  1  0
 13 14  2  0
 13 15  1  0
 15 16  1  0
 16 17  1  0
 17 18  1  0
 18 19  2  0
 18 20  1  0
 20 21  1  0
 21 22  1  0
 21 23  2  0
 21 24  2  0
 12 25  1  0
 25 26  2  0
 26  3  1  0
 25  6  1  0
  1 27  1  0
  4 28  1  0
  5 29  1  0
  7 30  1  0
 10 31  1  0
 10 32  1  0
 16 33  1  0
 16 34  1  0
 20 35  1  0
 20 36  1  0
 22 37  1  0
 22 38  1  0
 22 39  1  0
 26 40  1  0
M  END
>  <UniqueID>  (12) 
12

>  <SMILES>  (12) 
C#Cc1ccc2cc(C(N)=O)n(C(=O)OCOC(=O)CS(C)(=O)=O)c2c1

>  <Energy>  (12) 
64.25396708148452

>  <Genealogy>  (12) 
C#Cc1ccc2cc(C(N)=O)n(C(=O)OCOC(=O)CS(C)(=O)=O)c2c1 (3D coordinates assigned)
C#Cc1ccc2cc(C(N)=O)n(C(=O)OCOC(=O)CS(C)(=O)=O)c2c1 (optimized conformer: 64.25396708148452 kcal/mol)

>  <smiles>  (12) 
C#Cc1ccc2cc(C(N)=O)n(C(=O)OCOC(=O)CS(C)(=O)=O)c2c1

>  <score_type>  (12) 
oracle

>  <origin>  (12) 
adg

>  <m_score__min__energy>  (12) 
-9.8300000000000001

>  <m_primary>  (12) 
energy

$$$$
12:0
     RDKit          3D

 39 40  0  0  0  0  0  0  0  0999 V2000
   -0.9620   22.6820  -30.4720 N   0  0  0  0  0  0  0  0  0  0  0  0
   -1.4350   21.8150  -31.5050 C   0  0  0  0  0  0  0  0  0  0  0  0
   -0.5990   21.1880  -32.2070 O   0  0  0  0  0  0  0  0  0  0  0  0
   -2.8860   21.6270  -31.7320 C   0  0  0  0  0  0  0  0  0  0  0  0
   -3.4210   20.8350  -32.7460 C   0  0  0  0  0  0  0  0  0  0  0  0
   -4.7840   20.9940  -32.6530 C   0  0  0  0  0  0  0  0  0  0  0  0
   -5.8050   20.4160  -33.3990 C   0  0  0  0  0  0  0  0  0  0  0  0
   -7.1310   20.7310  -33.0590 C   0  0  0  0  0  0  0  0  0  0  0  0
   -7.4140   21.6230  -31.9930 C   0  0  0  0  0  0  0  0  0  0  0  0
   -8.8410   21.9060  -31.5970 C   0  0  0  0  0  0  0  0  0  0  0  0
   -8.9790   21.8890  -30.2200 F   0  0  0  0  0  0  0  0  0  0  0  0
   -9.6940   20.9530  -32.1280 F   0  0  0  0  0  0  0  0  0  0  0  0
   -9.2060   23.1520  -32.0710 F   0  0  0  0  0  0  0  0  0  0  0  0
   -6.3480   22.1720  -31.2440 C   0  0  0  0  0  0  0  0  0  0  0  0
   -5.0370   21.8530  -31.6150 C   0  0  0  0  0  0  0  0  0  0  0  0
   -3.8800   22.2530  -31.0400 N   0  0  0  0  0  0  0  0  0  0  0  0
   -3.7390   23.0860  -29.8740 C   0  0  0  0  0  0  0  0  0  0  0  0
   -3.7370   22.5540  -28.7360 O   0  0  0  0  0  0  0  0  0  0  0  0
   -3.4970   24.5340  -30.0190 C   0  0  0  0  0  0  0  0  0  0  0  0
   -4.2390   25.1810  -30.8040 O   0  0  0  0  0  0  0  0  0  0  0  0
   -2.4550   25.2530  -29.3350 N   0  0  0  0  0  0  0  0  0  0  0  0
   -2.0040   25.2420  -27.9350 C   0  0  0  0  0  0  0  0  0  0  0  0
   -0.5710   24.7020  -27.8070 C   0  0  0  0  0  0  0  0  0  0  0  0
    0.0210   24.5130  -29.0590 O   0  0  0  0  0  0  0  0  0  0  0  0
   -3.0070   24.5890  -26.9690 C   0  0  0  0  0  0  0  0  0  0  0  0
   -4.3140   24.9010  -27.3630 O   0  0  0  0  0  0  0  0  0  0  0  0
   -1.6190   23.2660  -29.9090 H   0  0  0  0  0  0  0  0  0  0  0  0
    0.0620   22.7760  -30.2960 H   0  0  0  0  0  0  0  0  0  0  0  0
   -2.8700   20.2142  -33.4678 H   0  0  0  0  0  0  0  0  0  0  0  0
   -5.5810   19.7322  -34.2310 H   0  0  0  0  0  0  0  0  0  0  0  0
   -7.9593   20.2809  -33.6258 H   0  0  0  0  0  0  0  0  0  0  0  0
   -6.5448   22.8351  -30.3887 H   0  0  0  0  0  0  0  0  0  0  0  0
   -1.9682   26.2913  -27.6067 H   0  0  0  0  0  0  0  0  0  0  0  0
    0.0314   25.4207  -27.2321 H   0  0  0  0  0  0  0  0  0  0  0  0
   -0.6142   23.7287  -27.2962 H   0  0  0  0  0  0  0  0  0  0  0  0
   -0.6090   24.8960  -29.7240 H   0  0  0  0  0  0  0  0  0  0  0  0
   -2.8714   23.4975  -26.9840 H   0  0  0  0  0  0  0  0  0  0  0  0
   -2.8329   24.9692  -25.9516 H   0  0  0  0  0  0  0  0  0  0  0  0
   -4.2420   25.3000  -28.2690 H   0  0  0  0  0  0  0  0  0  0  0  0
  1  2  1  0
  2  3  2  0
  2  4  1  0
  4  5  2  0
  5  6  1  0
  6  7  2  0
  7  8  1  0
  8  9  2  0
  9 10  1  0
 10 11  1  0
 10 12  1  0
 10 13  1  0
  9 14  1  0
 14 15  2  0
 15 16  1  0
 16 17  1  0
 17 18  2  0
 17 19  1  0
 19 20  2  0
 19 21  1  0
 21 22  1  0
 22 23  1  0
 23 24  1  0
 22 25  1  0
 25 26  1  0
 16  4  1  0
 15  6  1  0
  1 27  1  0
  1 28  1  0
  5 29  1  0
  7 30  1  0
  8 31  1  0
 14 32  1  0
 22 33  1  0
 23 34  1  0
 23 35  1  0
 24 36  1  0
 25 37  1  0
 25 38  1  0
 26 39  1  0
M  CHG  1  21  -1
M  END
>  <UniqueID>  (13) 
13

>  <SMILES>  (13) 
NC(=O)c1cc2ccc(C(F)(F)F)cc2n1C(=O)C(=O)[N-]C(CO)CO

>  <Energy>  (13) 
84.74787430531016

>  <Genealogy>  (13) 
NC(=O)c1cc2ccc(C(F)(F)F)cc2n1C(=O)C(=O)[N-]C(CO)CO (protonated)
NC(=O)c1cc2ccc(C(F)(F)F)cc2n1C(=O)C(=O)[N-]C(CO)CO (3D coordinates assigned)
NC(=O)c1cc2ccc(C(F)(F)F)cc2n1C(=O)C(=O)[N-]C(CO)CO (optimized conformer: 84.74787430531016 kcal/mol)

>  <smiles>  (13) 
NC(=O)c1cc2ccc(C(F)(F)F)cc2n1C(=O)C(=O)NC(CO)CO

>  <score_type>  (13) 
oracle

>  <origin>  (13) 
adg

>  <m_score__min__energy>  (13) 
-8.9199999999999999

>  <m_primary>  (13) 
energy

$$$$
13:0
     RDKit          3D

 42 43  0  0  0  0  0  0  0  0999 V2000
   -4.6840   15.8940  -32.6870 C   0  0  0  0  0  0  0  0  0  0  0  0
   -5.2780   15.7110  -33.9550 O   0  0  0  0  0  0  0  0  0  0  0  0
   -6.6570   16.0200  -33.8990 C   0  0  0  0  0  0  0  0  0  0  0  0
   -6.8530   17.3660  -33.3470 C   0  0  0  0  0  0  0  0  0  0  0  0
   -7.0120   18.4710  -32.8940 C   0  0  0  0  0  0  0  0  0  0  0  0
   -7.1980   19.7930  -32.3570 C   0  0  0  0  0  0  0  0  0  0  0  0
   -8.5000   20.2520  -32.0530 C   0  0  0  0  0  0  0  0  0  0  0  0
   -8.6980   21.5450  -31.5420 C   0  0  0  0  0  0  0  0  0  0  0  0
   -7.5750   22.3460  -31.3400 C   0  0  0  0  0  0  0  0  0  0  0  0
   -7.4850   23.6430  -30.8930 C   0  0  0  0  0  0  0  0  0  0  0  0
   -6.1270   23.9410  -30.9040 C   0  0  0  0  0  0  0  0  0  0  0  0
   -5.5760   25.2250  -30.4320 C   0  0  0  0  0  0  0  0  0  0  0  0
   -4.2400   25.6150  -30.7500 N   0  0  0  0  0  0  0  0  0  0  0  0
   -6.2750   25.9630  -29.6870 O   0  0  0  0  0  0  0  0  0  0  0  0
   -5.4000   22.8790  -31.3500 N   0  0  0  0  0  0  0  0  0  0  0  0
   -3.9890   22.8430  -31.6260 C   0  0  0  0  0  0  0  0  0  0  0  0
   -3.5780   22.5500  -32.7810 O   0  0  0  0  0  0  0  0  0  0  0  0
   -3.0750   23.1590  -30.6120 O   0  0  0  0  0  0  0  0  0  0  0  0
   -3.3780   23.0750  -29.2190 C   0  0  1  0  0  0  0  0  0  0  0  0
   -2.7760   21.7880  -28.6560 C   0  0  0  0  0  0  0  0  0  0  0  0
   -2.8540   24.3120  -28.4690 C   0  0  0  0  0  0  0  0  0  0  0  0
   -2.2930   25.2420  -29.3580 O   0  0  0  0  0  0  0  0  0  0  0  0
   -6.3030   21.9050  -31.6120 C   0  0  0  0  0  0  0  0  0  0  0  0
   -6.0820   20.6270  -32.1430 C   0  0  0  0  0  0  0  0  0  0  0  0
   -5.4197   15.6673  -31.9013 H   0  0  0  0  0  0  0  0  0  0  0  0
   -3.8204   15.2203  -32.5860 H   0  0  0  0  0  0  0  0  0  0  0  0
   -4.3492   16.9369  -32.5860 H   0  0  0  0  0  0  0  0  0  0  0  0
   -7.0802   15.9782  -34.9135 H   0  0  0  0  0  0  0  0  0  0  0  0
   -7.1625   15.2891  -33.2507 H   0  0  0  0  0  0  0  0  0  0  0  0
   -9.3642   19.5917  -32.2179 H   0  0  0  0  0  0  0  0  0  0  0  0
   -9.7075   21.9142  -31.3084 H   0  0  0  0  0  0  0  0  0  0  0  0
   -8.3110   24.3038  -30.5911 H   0  0  0  0  0  0  0  0  0  0  0  0
   -3.8750   26.5430  -30.4400 H   0  0  0  0  0  0  0  0  0  0  0  0
   -3.5880   24.9540  -31.2280 H   0  0  0  0  0  0  0  0  0  0  0  0
   -4.4691   23.0511  -29.0811 H   0  0  0  0  0  0  0  0  0  0  0  0
   -2.7934   21.8253  -27.5568 H   0  0  0  0  0  0  0  0  0  0  0  0
   -3.3642   20.9257  -29.0030 H   0  0  0  0  0  0  0  0  0  0  0  0
   -1.7371   21.6867  -29.0030 H   0  0  0  0  0  0  0  0  0  0  0  0
   -3.6884   24.7866  -27.9319 H   0  0  0  0  0  0  0  0  0  0  0  0
   -2.0742   23.9886  -27.7638 H   0  0  0  0  0  0  0  0  0  0  0  0
   -1.7260   24.7300  -29.9920 H   0  0  0  0  0  0  0  0  0  0  0  0
   -5.0655   20.2841  -32.3861 H   0  0  0  0  0  0  0  0  0  0  0  0
  1  2  1  0
  2  3  1  0
  3  4  1  0
  4  5  3  0
  5  6  1  0
  6  7  2  0
  7  8  1  0
  8  9  2  0
  9 10  1  0
 10 11  2  0
 11 12  1  0
 12 13  1  0
 12 14  2  0
 11 15  1  0
 15 16  1  0
 16 17  2  0
 16 18  1  0
 18 19  1  0
 19 20  1  0
 19 21  1  0
 21 22  1  0
 15 23  1  0
 23 24  2  0
 24  6  1  0
 23  9  1  0
  1 25  1  0
  1 26  1  0
  1 27  1  0
  3 28  1  0
  3 29  1  0
  7 30  1  0
  8 31  1  0
 10 32  1  0
 13 33  1  0
 13 34  1  0
 19 35  1  6
 20 36  1  0
 20 37  1  0
 20 38  1  0
 21 39  1  0
 21 40  1  0
 22 41  1  0
 24 42  1  0
M  END
>  <UniqueID>  (14) 
14

>  <SMILES>  (14) 
COCC#Cc1ccc2cc(C(N)=O)n(C(=O)O[C@@H](C)CO)c2c1

>  <Energy>  (14) 
73.32823890487774

>  <Genealogy>  (14) 
COCC#Cc1ccc2cc(C(N)=O)n(C(=O)O[C@@H](C)CO)c2c1 (chirality)
COCC#Cc1ccc2cc(C(N)=O)n(C(=O)O[C@@H](C)CO)c2c1 (3D coordinates assigned)
COCC#Cc1ccc2cc(C(N)=O)n(C(=O)O[C@@H](C)CO)c2c1 (optimized conformer: 73.32823890487774 kcal/mol)

>  <smiles>  (14) 
COCC#Cc1ccc2cc(C(N)=O)n(C(=O)OC(C)CO)c2c1

>  <score_type>  (14) 
oracle

>  <origin>  (14) 
adg

>  <m_score__min__energy>  (14) 
-8.9299999999999997

>  <m_primary>  (14) 
energy

$$$$
14:0
     RDKit          3D

 48 49  0  0  0  0  0  0  0  0999 V2000
   -5.1850   24.8640  -29.0050 N   0  0  0  0  0  0  0  0  0  0  0  0
   -5.1870   24.5790  -30.4060 C   0  0  0  0  0  0  0  0  0  0  0  0
   -4.4520   25.2610  -31.1610 O   0  0  0  0  0  0  0  0  0  0  0  0
   -6.0340   23.4960  -30.9600 C   0  0  0  0  0  0  0  0  0  0  0  0
   -7.4030   23.6220  -31.2020 C   0  0  0  0  0  0  0  0  0  0  0  0
   -7.8290   22.3670  -31.5710 C   0  0  0  0  0  0  0  0  0  0  0  0
   -9.1040   21.9100  -31.8870 C   0  0  0  0  0  0  0  0  0  0  0  0
   -9.2570   20.5430  -32.1790 C   0  0  0  0  0  0  0  0  0  0  0  0
   -8.1450   19.6640  -32.1420 C   0  0  0  0  0  0  0  0  0  0  0  0
   -8.3290   18.2040  -32.4410 C   0  0  0  0  0  0  0  0  0  0  0  0
   -7.0120   17.5000  -32.4440 C   0  0  0  0  0  0  0  0  0  0  0  0
   -6.4870   17.1430  -31.3550 O   0  0  0  0  0  0  0  0  0  0  0  0
   -6.3710   17.2500  -33.6610 O   0  0  0  0  0  0  0  0  0  0  0  0
   -5.9260   18.2800  -34.5380 C   0  0  0  0  0  0  0  0  0  0  0  0
   -4.5070   18.7100  -34.1850 C   0  0  0  0  0  0  0  0  0  0  0  0
   -4.1890   18.2860  -32.8850 O   0  0  0  0  0  0  0  0  0  0  0  0
   -6.8620   20.1710  -31.8410 C   0  0  0  0  0  0  0  0  0  0  0  0
   -6.7410   21.5350  -31.5510 C   0  0  0  0  0  0  0  0  0  0  0  0
   -5.6280   22.2150  -31.2010 N   0  0  0  0  0  0  0  0  0  0  0  0
   -4.3350   21.6380  -30.9700 C   0  0  0  0  0  0  0  0  0  0  0  0
   -4.0600   20.5140  -31.4720 O   0  0  0  0  0  0  0  0  0  0  0  0
   -3.3040   22.3590  -30.2120 C   0  0  0  0  0  0  0  0  0  0  0  0
   -2.1990   22.6310  -30.7560 O   0  0  0  0  0  0  0  0  0  0  0  0
   -3.5660   22.7410  -28.8940 O   0  0  0  0  0  0  0  0  0  0  0  0
   -2.6150   22.5940  -27.8440 C   0  0  0  0  0  0  0  0  0  0  0  0
   -2.1540   23.9700  -27.3590 C   0  0  0  0  0  0  0  0  0  0  0  0
   -1.5400   24.8170  -28.4800 C   0  0  0  0  0  0  0  0  0  0  0  0
   -2.5340   25.2860  -29.3490 O   0  0  0  0  0  0  0  0  0  0  0  0
   -4.6000   25.6430  -28.6300 H   0  0  0  0  0  0  0  0  0  0  0  0
   -5.7230   24.2840  -28.3250 H   0  0  0  0  0  0  0  0  0  0  0  0
   -8.0130   24.5333  -31.1158 H   0  0  0  0  0  0  0  0  0  0  0  0
   -9.9643   22.5952  -31.9078 H   0  0  0  0  0  0  0  0  0  0  0  0
  -10.2512   20.1509  -32.4392 H   0  0  0  0  0  0  0  0  0  0  0  0
   -8.9769   17.7562  -31.6731 H   0  0  0  0  0  0  0  0  0  0  0  0
   -8.7899   18.0999  -33.4343 H   0  0  0  0  0  0  0  0  0  0  0  0
   -5.9437   17.9065  -35.5725 H   0  0  0  0  0  0  0  0  0  0  0  0
   -6.5951   19.1470  -34.4347 H   0  0  0  0  0  0  0  0  0  0  0  0
   -3.8012   18.2596  -34.8985 H   0  0  0  0  0  0  0  0  0  0  0  0
   -4.4376   19.8066  -34.2355 H   0  0  0  0  0  0  0  0  0  0  0  0
   -5.0100   18.4120  -32.3420 H   0  0  0  0  0  0  0  0  0  0  0  0
   -5.9814   19.5119  -31.8346 H   0  0  0  0  0  0  0  0  0  0  0  0
   -3.0771   22.0490  -27.0077 H   0  0  0  0  0  0  0  0  0  0  0  0
   -1.7461   22.0338  -28.2197 H   0  0  0  0  0  0  0  0  0  0  0  0
   -3.0213   24.5068  -26.9470 H   0  0  0  0  0  0  0  0  0  0  0  0
   -1.3756   23.8107  -26.5983 H   0  0  0  0  0  0  0  0  0  0  0  0
   -1.0138   25.6753  -28.0368 H   0  0  0  0  0  0  0  0  0  0  0  0
   -0.8380   24.1916  -29.0511 H   0  0  0  0  0  0  0  0  0  0  0  0
   -2.8350   24.5160  -29.8930 H   0  0  0  0  0  0  0  0  0  0  0  0
  1  2  1  0
  2  3  2  0
  2  4  1  0
  4  5  2  0
  5  6  1  0
  6  7  2  0
  7  8  1  0
  8  9  2  0
  9 10  1  0
 10 11  1  0
 11 12  2  0
 11 13  1  0
 13 14  1  0
 14 15  1  0
 15 16  1  0
  9 17  1  0
 17 18  2  0
 18 19  1  0
 19 20  1  0
 20 21  2  0
 20 22  1  0
 22 23  2  0
 22 24  1  0
 24 25  1  0
 25 26  1  0
 26 27  1  0
 27 28  1  0
 19  4  1  0
 18  6  1  0
  1 29  1  0
  1 30  1  0
  5 31  1  0
  7 32  1  0
  8 33  1  0
 10 34  1  0
 10 35  1  0
 14 36  1  0
 14 37  1  0
 15 38  1  0
 15 39  1  0
 16 40  1  0
 17 41  1  0
 25 42  1  0
 25 43  1  0
 26 44  1  0
 26 45  1  0
 27 46  1  0
 27 47  1  0
 28 48  1  0
M  END
>  <UniqueID>  (15) 
15

>  <SMILES>  (15) 
NC(=O)c1cc2ccc(CC(=O)OCCO)cc2n1C(=O)C(=O)OCCCO

>  <Energy>  (15) 
77.15167379969829

>  <Genealogy>  (15) 
NC(=O)c1cc2ccc(CC(=O)OCCO)cc2n1C(=O)C(=O)OCCCO (3D coordinates assigned)
NC(=O)c1cc2ccc(CC(=O)OCCO)cc2n1C(=O)C(=O)OCCCO (optimized conformer: 77.15167379969829 kcal/mol)

>  <smiles>  (15) 
NC(=O)c1cc2ccc(CC(=O)OCCO)cc2n1C(=O)C(=O)OCCCO

>  <score_type>  (15) 
oracle

>  <origin>  (15) 
adg

>  <m_score__min__energy>  (15) 
-8.1400000000000006

>  <m_primary>  (15) 
energy

$$$$
15:0
     RDKit          3D

 33 35  0  0  0  0  0  0  0  0999 V2000
   -3.9060   25.5150  -30.8090 N   0  0  0  0  0  0  0  0  0  0  0  0
   -5.0150   24.8010  -30.2710 C   0  0  0  0  0  0  0  0  0  0  0  0
   -5.6600   25.2960  -29.3080 O   0  0  0  0  0  0  0  0  0  0  0  0
   -5.4530   23.5190  -30.8620 C   0  0  0  0  0  0  0  0  0  0  0  0
   -6.6890   23.3440  -31.4820 C   0  0  0  0  0  0  0  0  0  0  0  0
   -6.6740   22.0570  -31.9680 C   0  0  0  0  0  0  0  0  0  0  0  0
   -7.6500   21.3530  -32.6620 C   0  0  0  0  0  0  0  0  0  0  0  0
   -7.3760   20.0220  -33.0180 C   0  0  0  0  0  0  0  0  0  0  0  0
   -6.1410   19.4130  -32.6700 C   0  0  0  0  0  0  0  0  0  0  0  0
   -5.8680   18.0000  -33.0400 C   0  0  0  0  0  0  0  0  0  0  0  0
   -6.7790   17.0210  -33.3970 C   0  0  0  0  0  0  0  0  0  0  0  0
   -6.1170   15.8790  -33.6580 N   0  0  0  0  0  0  0  0  0  0  0  0
   -4.8500   16.1170  -33.4770 O   0  0  0  0  0  0  0  0  0  0  0  0
   -4.6430   17.3590  -33.1100 C   0  0  0  0  0  0  0  0  0  0  0  0
   -5.1750   20.1680  -31.9610 C   0  0  0  0  0  0  0  0  0  0  0  0
   -5.4670   21.4970  -31.6380 C   0  0  0  0  0  0  0  0  0  0  0  0
   -4.7070   22.3830  -30.9570 N   0  0  0  0  0  0  0  0  0  0  0  0
   -3.4220   22.1280  -30.3650 C   0  0  0  0  0  0  0  0  0  0  0  0
   -3.1010   20.9540  -30.0390 O   0  0  0  0  0  0  0  0  0  0  0  0
   -2.5410   23.1890  -30.1370 O   0  0  0  0  0  0  0  0  0  0  0  0
   -2.2140   23.6500  -28.8320 C   0  0  0  0  0  0  0  0  0  0  0  0
   -1.2020   24.7400  -28.9360 C   0  0  0  0  0  0  0  0  0  0  0  0
    0.0260   24.4640  -28.9570 O   0  0  0  0  0  0  0  0  0  0  0  0
   -1.6110   26.0680  -28.9530 O   0  0  0  0  0  0  0  0  0  0  0  0
   -2.9310   25.3050  -30.5010 H   0  0  0  0  0  0  0  0  0  0  0  0
   -7.5034   24.0788  -31.5651 H   0  0  0  0  0  0  0  0  0  0  0  0
   -8.6088   21.8237  -32.9249 H   0  0  0  0  0  0  0  0  0  0  0  0
   -8.1284   19.4434  -33.5740 H   0  0  0  0  0  0  0  0  0  0  0  0
   -7.8691   17.1550  -33.4576 H   0  0  0  0  0  0  0  0  0  0  0  0
   -3.6645   17.8131  -32.8949 H   0  0  0  0  0  0  0  0  0  0  0  0
   -4.2143   19.7181  -31.6702 H   0  0  0  0  0  0  0  0  0  0  0  0
   -3.1196   24.0346  -28.3401 H   0  0  0  0  0  0  0  0  0  0  0  0
   -1.8030   22.8196  -28.2391 H   0  0  0  0  0  0  0  0  0  0  0  0
  1  2  1  0
  2  3  2  0
  2  4  1  0
  4  5  2  0
  5  6  1  0
  6  7  2  0
  7  8  1  0
  8  9  2  0
  9 10  1  0
 10 11  1  0
 11 12  2  0
 12 13  1  0
 13 14  1  0
  9 15  1  0
 15 16  2  0
 16 17  1  0
 17 18  1  0
 18 19  2  0
 18 20  1  0
 20 21  1  0
 21 22  1  0
 22 23  2  0
 22 24  1  0
 17  4  1  0
 16  6  1  0
 14 10  2  0
  1 25  1  0
  5 26  1  0
  7 27  1  0
  8 28  1  0
 11 29  1  0
 14 30  1  0
 15 31  1  0
 21 32  1  0
 21 33  1  0
M  CHG  2   1  -1  24  -1
M  END
>  <UniqueID>  (16) 
16

>  <SMILES>  (16) 
[NH-]C(=O)c1cc2ccc(-c3cnoc3)cc2n1C(=O)OCC(=O)[O-]

>  <Energy>  (16) 
104.20155247386502

>  <Genealogy>  (16) 
[NH-]C(=O)c1cc2ccc(-c3cnoc3)cc2n1C(=O)OCC(=O)[O-] (protonated)
[NH-]C(=O)c1cc2ccc(-c3cnoc3)cc2n1C(=O)OCC(=O)[O-] (3D coordinates assigned)
[NH-]C(=O)c1cc2ccc(-c3cnoc3)cc2n1C(=O)OCC(=O)[O-] (optimized conformer: 104.20155247386502 kcal/mol)

>  <smiles>  (16) 
NC(=O)c1cc2ccc(-c3cnoc3)cc2n1C(=O)OCC(=O)O

>  <score_type>  (16) 
oracle

>  <origin>  (16) 
adg

>  <m_score__min__energy>  (16) 
-12.890000000000001

>  <m_primary>  (16) 
energy

$$$$
16:0
     RDKit          3D

 39 40  0  0  0  0  0  0  0  0999 V2000
   -1.6140   25.6740  -29.0470 N   0  0  0  0  0  0  0  0  0  0  0  0
   -1.0560   24.3690  -29.1760 C   0  0  0  0  0  0  0  0  0  0  0  0
    0.0390   24.1080  -28.6110 O   0  0  0  0  0  0  0  0  0  0  0  0
   -1.7150   23.3420  -30.0090 C   0  0  0  0  0  0  0  0  0  0  0  0
   -1.0770   22.1820  -30.4430 C   0  0  0  0  0  0  0  0  0  0  0  0
   -1.9880   21.5430  -31.2520 C   0  0  0  0  0  0  0  0  0  0  0  0
   -1.8860   20.3350  -31.9350 C   0  0  0  0  0  0  0  0  0  0  0  0
   -3.0030   19.8970  -32.6650 C   0  0  0  0  0  0  0  0  0  0  0  0
   -4.1930   20.6650  -32.6970 C   0  0  0  0  0  0  0  0  0  0  0  0
   -5.4040   20.1460  -33.4300 C   0  0  0  0  0  0  0  0  0  0  0  0
   -6.6700   20.2270  -32.5640 C   0  0  0  0  0  0  0  0  0  0  0  0
   -6.8920   18.9540  -31.7370 C   0  0  0  0  0  0  0  0  0  0  0  0
   -5.9370   17.9210  -32.1220 N   0  0  0  0  0  0  0  0  0  0  0  0
   -6.1140   17.1010  -33.2790 C   0  0  0  0  0  0  0  0  0  0  0  0
   -7.2100   16.5050  -33.4510 O   0  0  0  0  0  0  0  0  0  0  0  0
   -5.0720   16.9590  -34.2020 O   0  0  0  0  0  0  0  0  0  0  0  0
   -3.7710   16.5160  -33.8360 C   0  0  0  0  0  0  0  0  0  0  0  0
   -2.8250   16.7750  -34.9620 C   0  0  0  0  0  0  0  0  0  0  0  0
   -2.0400   17.7600  -34.9180 O   0  0  0  0  0  0  0  0  0  0  0  0
   -2.7830   15.9080  -36.0480 O   0  0  0  0  0  0  0  0  0  0  0  0
   -4.2580   21.8860  -31.9910 C   0  0  0  0  0  0  0  0  0  0  0  0
   -3.1260   22.3070  -31.2840 C   0  0  0  0  0  0  0  0  0  0  0  0
   -2.9760   23.4130  -30.5220 N   0  0  0  0  0  0  0  0  0  0  0  0
   -3.9860   24.3980  -30.2490 C   0  0  0  0  0  0  0  0  0  0  0  0
   -4.9620   24.1200  -29.5060 O   0  0  0  0  0  0  0  0  0  0  0  0
   -3.9030   25.6640  -30.8160 O   0  0  0  0  0  0  0  0  0  0  0  0
   -2.6470   25.8190  -29.0270 H   0  0  0  0  0  0  0  0  0  0  0  0
   -0.0596   21.8476  -30.1918 H   0  0  0  0  0  0  0  0  0  0  0  0
   -0.9600   19.7420  -31.9042 H   0  0  0  0  0  0  0  0  0  0  0  0
   -2.9533   18.9473  -33.2179 H   0  0  0  0  0  0  0  0  0  0  0  0
   -5.5549   20.7465  -34.3392 H   0  0  0  0  0  0  0  0  0  0  0  0
   -5.2267   19.0896  -33.6804 H   0  0  0  0  0  0  0  0  0  0  0  0
   -6.5756   21.0822  -31.8786 H   0  0  0  0  0  0  0  0  0  0  0  0
   -7.5316   20.3453  -33.2376 H   0  0  0  0  0  0  0  0  0  0  0  0
   -6.7613   19.1881  -30.6702 H   0  0  0  0  0  0  0  0  0  0  0  0
   -7.9109   18.5830  -31.9221 H   0  0  0  0  0  0  0  0  0  0  0  0
   -3.4354   17.0615  -32.9417 H   0  0  0  0  0  0  0  0  0  0  0  0
   -3.7972   15.4381  -33.6180 H   0  0  0  0  0  0  0  0  0  0  0  0
   -5.1762   22.4917  -31.9965 H   0  0  0  0  0  0  0  0  0  0  0  0
  1  2  1  0
  2  3  2  0
  2  4  1  0
  4  5  2  0
  5  6  1  0
  6  7  2  0
  7  8  1  0
  8  9  2  0
  9 10  1  0
 10 11  1  0
 11 12  1  0
 12 13  1  0
 13 14  1  0
 14 15  2  0
 14 16  1  0
 16 17  1  0
 17 18  1  0
 18 19  2  0
 18 20  1  0
  9 21  1  0
 21 22  2  0
 22 23  1  0
 23 24  1  0
 24 25  2  0
 24 26  1  0
 23  4  1  0
 22  6  1  0
  1 27  1  0
  5 28  1  0
  7 29  1  0
  8 30  1  0
 10 31  1  0
 10 32  1  0
 11 33  1  0
 11 34  1  0
 12 35  1  0
 12 36  1  0
 17 37  1  0
 17 38  1  0
 21 39  1  0
M  CHG  4   1  -1  13  -1  20  -1  26  -1
M  END
>  <UniqueID>  (17) 
17

>  <SMILES>  (17) 
[NH-]C(=O)c1cc2ccc(CCC[N-]C(=O)OCC(=O)[O-])cc2n1C(=O)[O-]

>  <Energy>  (17) 
67.881787706639

>  <Genealogy>  (17) 
[NH-]C(=O)c1cc2ccc(CCC[N-]C(=O)OCC(=O)[O-])cc2n1C(=O)[O-] (protonated)
[NH-]C(=O)c1cc2ccc(CCC[N-]C(=O)OCC(=O)[O-])cc2n1C(=O)[O-] (3D coordinates assigned)
[NH-]C(=O)c1cc2ccc(CCC[N-]C(=O)OCC(=O)[O-])cc2n1C(=O)[O-] (optimized conformer: 67.881787706639 kcal/mol)

>  <smiles>  (17) 
NC(=O)c1cc2ccc(CCCNC(=O)OCC(=O)O)cc2n1C(=O)O

>  <score_type>  (17) 
oracle

>  <origin>  (17) 
adg

>  <m_score__min__energy>  (17) 
-11.029999999999999

>  <m_primary>  (17) 
energy

$$$$
17:0
     RDKit          3D

 37 38  0  0  0  0  0  0  0  0999 V2000
   -9.1590   22.1410  -31.7570 C   0  0  0  0  0  0  0  0  0  0  0  0
   -9.4570   20.9080  -31.1150 O   0  0  0  0  0  0  0  0  0  0  0  0
   -9.0670   19.6720  -31.6400 C   0  0  0  0  0  0  0  0  0  0  0  0
   -9.0900   18.6320  -30.9250 O   0  0  0  0  0  0  0  0  0  0  0  0
   -8.5700   19.5960  -33.0470 C   0  0  0  0  0  0  0  0  0  0  0  0
   -7.0680   19.6360  -33.0640 C   0  0  0  0  0  0  0  0  0  0  0  0
   -6.3360   18.5980  -33.6930 C   0  0  0  0  0  0  0  0  0  0  0  0
   -4.9310   18.6000  -33.6730 C   0  0  0  0  0  0  0  0  0  0  0  0
   -4.2900   19.6480  -33.0200 C   0  0  0  0  0  0  0  0  0  0  0  0
   -2.9470   19.8780  -32.8260 C   0  0  0  0  0  0  0  0  0  0  0  0
   -2.8770   21.0600  -32.0900 C   0  0  0  0  0  0  0  0  0  0  0  0
   -1.6100   21.7360  -31.7320 C   0  0  0  0  0  0  0  0  0  0  0  0
   -1.5810   22.7430  -30.7190 N   0  0  0  0  0  0  0  0  0  0  0  0
   -0.5350   21.4070  -32.2990 O   0  0  0  0  0  0  0  0  0  0  0  0
   -4.1280   21.5390  -31.8360 N   0  0  0  0  0  0  0  0  0  0  0  0
   -4.4850   22.6960  -31.0640 C   0  0  0  0  0  0  0  0  0  0  0  0
   -4.9770   23.7070  -31.6350 O   0  0  0  0  0  0  0  0  0  0  0  0
   -4.2690   22.7040  -29.6800 O   0  0  0  0  0  0  0  0  0  0  0  0
   -4.1700   23.8970  -28.9080 C   0  0  0  0  0  0  0  0  0  0  0  0
   -3.3480   24.9170  -29.6300 C   0  0  0  0  0  0  0  0  0  0  0  0
   -3.8800   25.6740  -30.4840 O   0  0  0  0  0  0  0  0  0  0  0  0
   -1.9960   25.0460  -29.3410 O   0  0  0  0  0  0  0  0  0  0  0  0
   -4.9820   20.6630  -32.4130 C   0  0  0  0  0  0  0  0  0  0  0  0
   -6.3820   20.6770  -32.4000 C   0  0  0  0  0  0  0  0  0  0  0  0
   -8.9721   22.9142  -30.9972 H   0  0  0  0  0  0  0  0  0  0  0  0
   -8.2641   22.0204  -32.3852 H   0  0  0  0  0  0  0  0  0  0  0  0
  -10.0102   22.4424  -32.3852 H   0  0  0  0  0  0  0  0  0  0  0  0
   -8.9147   18.6571  -33.5049 H   0  0  0  0  0  0  0  0  0  0  0  0
   -8.9606   20.4533  -33.6149 H   0  0  0  0  0  0  0  0  0  0  0  0
   -6.8727   17.7835  -34.2014 H   0  0  0  0  0  0  0  0  0  0  0  0
   -4.3558   17.7979  -34.1585 H   0  0  0  0  0  0  0  0  0  0  0  0
   -2.1072   19.2604  -33.1771 H   0  0  0  0  0  0  0  0  0  0  0  0
   -0.6760   23.1860  -30.4470 H   0  0  0  0  0  0  0  0  0  0  0  0
   -2.4580   23.0810  -30.2640 H   0  0  0  0  0  0  0  0  0  0  0  0
   -5.1782   24.3010  -28.7337 H   0  0  0  0  0  0  0  0  0  0  0  0
   -3.6864   23.6625  -27.9482 H   0  0  0  0  0  0  0  0  0  0  0  0
   -6.9335   21.4780  -31.8860 H   0  0  0  0  0  0  0  0  0  0  0  0
  1  2  1  0
  2  3  1  0
  3  4  2  0
  3  5  1  0
  5  6  1  0
  6  7  2  0
  7  8  1  0
  8  9  2  0
  9 10  1  0
 10 11  2  0
 11 12  1  0
 12 13  1  0
 12 14  2  0
 11 15  1  0
 15 16  1  0
 16 17  2  0
 16 18  1  0
 18 19  1  0
 19 20  1  0
 20 21  2  0
 20 22  1  0
 15 23  1  0
 23 24  2  0
 24  6  1  0
 23  9  1  0
  1 25  1  0
  1 26  1  0
  1 27  1  0
  5 28  1  0
  5 29  1  0
  7 30  1  0
  8 31  1  0
 10 32  1  0
 13 33  1  0
 13 34  1  0
 19 35  1  0
 19 36  1  0
 24 37  1  0
M  CHG  1  22  -1
M  END
>  <UniqueID>  (18) 
18

>  <SMILES>  (18) 
COC(=O)Cc1ccc2cc(C(N)=O)n(C(=O)OCC(=O)[O-])c2c1

>  <Energy>  (18) 
69.17878360737909

>  <Genealogy>  (18) 
COC(=O)Cc1ccc2cc(C(N)=O)n(C(=O)OCC(=O)[O-])c2c1 (protonated)
COC(=O)Cc1ccc2cc(C(N)=O)n(C(=O)OCC(=O)[O-])c2c1 (3D coordinates assigned)
COC(=O)Cc1ccc2cc(C(N)=O)n(C(=O)OCC(=O)[O-])c2c1 (optimized conformer: 69.17878360737909 kcal/mol)

>  <smiles>  (18) 
COC(=O)Cc1ccc2cc(C(N)=O)n(C(=O)OCC(=O)O)c2c1

>  <score_type>  (18) 
oracle

>  <origin>  (18) 
adg

>  <m_score__min__energy>  (18) 
-10.17

>  <m_primary>  (18) 
energy

$$$$
18:0
     RDKit          3D

 34 35  0  0  0  0  0  0  0  0999 V2000
   -4.4270   25.3870  -30.8230 N   0  0  0  0  0  0  0  0  0  0  0  0
   -5.5020   24.9900  -30.6640 C   0  0  0  0  0  0  0  0  0  0  0  0
   -6.8650   24.4870  -30.4630 C   0  0  0  0  0  0  0  0  0  0  0  0
   -7.0220   23.1510  -31.1290 C   0  0  0  0  0  0  0  0  0  0  0  0
   -8.2990   22.5410  -31.2080 C   0  0  0  0  0  0  0  0  0  0  0  0
   -8.4660   21.3120  -31.8670 C   0  0  0  0  0  0  0  0  0  0  0  0
   -7.3420   20.7170  -32.4330 C   0  0  0  0  0  0  0  0  0  0  0  0
   -7.2290   19.5520  -33.1560 C   0  0  0  0  0  0  0  0  0  0  0  0
   -5.8820   19.4580  -33.4920 C   0  0  0  0  0  0  0  0  0  0  0  0
   -5.3050   18.3130  -34.2260 C   0  0  0  0  0  0  0  0  0  0  0  0
   -3.9530   18.3340  -34.6860 N   0  0  0  0  0  0  0  0  0  0  0  0
   -6.0000   17.2760  -34.4010 O   0  0  0  0  0  0  0  0  0  0  0  0
   -5.1890   20.5270  -33.0100 N   0  0  0  0  0  0  0  0  0  0  0  0
   -3.8070   20.8480  -33.2370 C   0  0  0  0  0  0  0  0  0  0  0  0
   -3.5010   21.9260  -33.8170 O   0  0  0  0  0  0  0  0  0  0  0  0
   -2.8070   19.9660  -32.8110 O   0  0  0  0  0  0  0  0  0  0  0  0
   -1.4630   20.3670  -32.5580 C   0  0  0  0  0  0  0  0  0  0  0  0
   -0.6530   20.3810  -33.8550 C   0  0  0  0  0  0  0  0  0  0  0  0
   -1.5000   20.2130  -34.9590 O   0  0  0  0  0  0  0  0  0  0  0  0
   -6.0970   21.2880  -32.3590 C   0  0  0  0  0  0  0  0  0  0  0  0
   -5.9060   22.5230  -31.7270 C   0  0  0  0  0  0  0  0  0  0  0  0
   -7.0595   24.3821  -29.3854 H   0  0  0  0  0  0  0  0  0  0  0  0
   -7.5807   25.1967  -30.9036 H   0  0  0  0  0  0  0  0  0  0  0  0
   -9.1678   23.0351  -30.7486 H   0  0  0  0  0  0  0  0  0  0  0  0
   -9.4546   20.8343  -31.9338 H   0  0  0  0  0  0  0  0  0  0  0  0
   -8.0320   18.8457  -33.4135 H   0  0  0  0  0  0  0  0  0  0  0  0
   -3.5760   17.5330  -35.2400 H   0  0  0  0  0  0  0  0  0  0  0  0
   -3.3000   19.0990  -34.4080 H   0  0  0  0  0  0  0  0  0  0  0  0
   -1.4630   21.3764  -32.1207 H   0  0  0  0  0  0  0  0  0  0  0  0
   -1.0042   19.6506  -31.8607 H   0  0  0  0  0  0  0  0  0  0  0  0
   -0.1271   21.3430  -33.9441 H   0  0  0  0  0  0  0  0  0  0  0  0
    0.0734   19.5553  -33.8323 H   0  0  0  0  0  0  0  0  0  0  0  0
   -2.2890   20.7940  -34.8030 H   0  0  0  0  0  0  0  0  0  0  0  0
   -4.9118   22.9928  -31.6967 H   0  0  0  0  0  0  0  0  0  0  0  0
  1  2  3  0
  2  3  1  0
  3  4  1  0
  4  5  2  0
  5  6  1  0
  6  7  2  0
  7  8  1  0
  8  9  2  0
  9 10  1  0
 10 11  1  0
 10 12  2  0
  9 13  1  0
 13 14  1  0
 14 15  2  0
 14 16  1  0
 16 17  1  0
 17 18  1  0
 18 19  1  0
 13 20  1  0
 20 21  2  0
 21  4  1  0
 20  7  1  0
  3 22  1  0
  3 23  1  0
  5 24  1  0
  6 25  1  0
  8 26  1  0
 11 27  1  0
 11 28  1  0
 17 29  1  0
 17 30  1  0
 18 31  1  0
 18 32  1  0
 19 33  1  0
 21 34  1  0
M  END
>  <UniqueID>  (19) 
19

>  <SMILES>  (19) 
N#CCc1ccc2cc(C(N)=O)n(C(=O)OCCO)c2c1

>  <Energy>  (19) 
67.86063765258096

>  <Genealogy>  (19) 
N#CCc1ccc2cc(C(N)=O)n(C(=O)OCCO)c2c1 (3D coordinates assigned)
N#CCc1ccc2cc(C(N)=O)n(C(=O)OCCO)c2c1 (optimized conformer: 67.86063765258096 kcal/mol)

>  <smiles>  (19) 
N#CCc1ccc2cc(C(N)=O)n(C(=O)OCCO)c2c1

>  <score_type>  (19) 
oracle

>  <origin>  (19) 
adg

>  <m_score__min__energy>  (19) 
-9.0299999999999994

>  <m_primary>  (19) 
energy

$$$$
19:0
     RDKit          3D

 38 39  0  0  0  0  0  0  0  0999 V2000
   -9.0500   20.2070  -32.7270 C   0  0  0  0  0  0  0  0  0  0  0  0
   -7.6060   20.4880  -32.7550 N   0  0  0  0  0  0  0  0  0  0  0  0
   -7.2870   21.5360  -31.7690 C   0  0  0  0  0  0  0  0  0  0  0  0
   -6.8290   19.2580  -32.4940 C   0  0  0  0  0  0  0  0  0  0  0  0
   -5.5790   19.1960  -33.3820 C   0  0  0  0  0  0  0  0  0  0  0  0
   -4.9340   20.5090  -33.4710 N   0  0  0  0  0  0  0  0  0  0  0  0
   -3.8550   20.9510  -32.6270 C   0  0  0  0  0  0  0  0  0  0  0  0
   -2.6740   20.1700  -32.5580 C   0  0  0  0  0  0  0  0  0  0  0  0
   -1.5980   20.5610  -31.7460 C   0  0  0  0  0  0  0  0  0  0  0  0
   -1.7280   21.7340  -31.0110 C   0  0  0  0  0  0  0  0  0  0  0  0
   -0.8510   22.3270  -30.1310 C   0  0  0  0  0  0  0  0  0  0  0  0
   -1.5040   23.4710  -29.6750 C   0  0  0  0  0  0  0  0  0  0  0  0
   -0.8850   24.4670  -28.7730 C   0  0  0  0  0  0  0  0  0  0  0  0
   -1.6870   25.4400  -28.1010 N   0  0  0  0  0  0  0  0  0  0  0  0
    0.3570   24.4450  -28.5640 O   0  0  0  0  0  0  0  0  0  0  0  0
   -2.7370   23.5780  -30.2460 N   0  0  0  0  0  0  0  0  0  0  0  0
   -3.7380   24.5770  -29.9830 C   0  0  0  0  0  0  0  0  0  0  0  0
   -4.4950   24.4720  -28.9840 O   0  0  0  0  0  0  0  0  0  0  0  0
   -3.8690   25.6770  -30.8220 O   0  0  0  0  0  0  0  0  0  0  0  0
   -2.8580   22.5070  -31.0630 C   0  0  0  0  0  0  0  0  0  0  0  0
   -3.9540   22.1300  -31.8480 C   0  0  0  0  0  0  0  0  0  0  0  0
   -9.3905   20.1407  -31.6831 H   0  0  0  0  0  0  0  0  0  0  0  0
   -9.5911   21.0167  -33.2385 H   0  0  0  0  0  0  0  0  0  0  0  0
   -9.2480   19.2535  -33.2385 H   0  0  0  0  0  0  0  0  0  0  0  0
   -7.4097   21.1330  -30.7529 H   0  0  0  0  0  0  0  0  0  0  0  0
   -6.2474   21.8671  -31.9091 H   0  0  0  0  0  0  0  0  0  0  0  0
   -7.9658   22.3901  -31.9091 H   0  0  0  0  0  0  0  0  0  0  0  0
   -6.5207   19.2449  -31.4382 H   0  0  0  0  0  0  0  0  0  0  0  0
   -7.4633   18.3887  -32.7221 H   0  0  0  0  0  0  0  0  0  0  0  0
   -4.8683   18.4741  -32.9533 H   0  0  0  0  0  0  0  0  0  0  0  0
   -5.8814   18.8842  -34.3926 H   0  0  0  0  0  0  0  0  0  0  0  0
   -5.3550   21.1990  -34.1350 H   0  0  0  0  0  0  0  0  0  0  0  0
   -2.5999   19.2451  -33.1488 H   0  0  0  0  0  0  0  0  0  0  0  0
   -0.6797   19.9577  -31.6928 H   0  0  0  0  0  0  0  0  0  0  0  0
    0.1514   21.9734  -29.8480 H   0  0  0  0  0  0  0  0  0  0  0  0
   -2.7090   25.5240  -28.2890 H   0  0  0  0  0  0  0  0  0  0  0  0
   -1.2450   26.1130  -27.4360 H   0  0  0  0  0  0  0  0  0  0  0  0
   -4.8720   22.7360  -31.8597 H   0  0  0  0  0  0  0  0  0  0  0  0
  1  2  1  0
  2  3  1  0
  2  4  1  0
  4  5  1  0
  5  6  1  0
  6  7  1  0
  7  8  2  0
  8  9  1  0
  9 10  2  0
 10 11  1  0
 11 12  2  0
 12 13  1  0
 13 14  1  0
 13 15  2  0
 12 16  1  0
 16 17  1  0
 17 18  2  0
 17 19  1  0
 16 20  1  0
 20 21  2  0
 21  7  1  0
 20 10  1  0
  1 22  1  0
  1 23  1  0
  1 24  1  0
  3 25  1  0
  3 26  1  0
  3 27  1  0
  4 28  1  0
  4 29  1  0
  5 30  1  0
  5 31  1  0
  6 32  1  0
  8 33  1  0
  9 34  1  0
 11 35  1  0
 14 36  1  0
 14 37  1  0
 21 38  1  0
M  CHG  1  19  -1
M  END
>  <UniqueID>  (20) 
20

>  <SMILES>  (20) 
CN(C)CCNc1ccc2cc(C(N)=O)n(C(=O)[O-])c2c1

>  <Energy>  (20) 
75.61954077466628

>  <Genealogy>  (20) 
CN(C)CCNc1ccc2cc(C(N)=O)n(C(=O)[O-])c2c1 (protonated)
CN(C)CCNc1ccc2cc(C(N)=O)n(C(=O)[O-])c2c1 (3D coordinates assigned)
CN(C)CCNc1ccc2cc(C(N)=O)n(C(=O)[O-])c2c1 (optimized conformer: 75.61954077466628 kcal/mol)

>  <smiles>  (20) 
CN(C)CCNc1ccc2cc(C(N)=O)n(C(=O)O)c2c1

>  <score_type>  (20) 
oracle

>  <origin>  (20) 
adg

>  <m_score__min__energy>  (20) 
-8.25

>  <m_primary>  (20) 
energy

$$$$
20:0
     RDKit          3D

 44 46  0  0  0  0  0  0  0  0999 V2000
   -1.8930   25.3280  -28.9680 N   0  0  0  0  0  0  0  0  0  0  0  0
   -1.8990   24.1730  -28.8660 C   0  0  0  0  0  0  0  0  0  0  0  0
   -1.9080   22.7110  -28.7280 C   0  0  0  0  0  0  0  0  0  0  0  0
   -3.0180   22.1520  -29.4250 O   0  0  0  0  0  0  0  0  0  0  0  0
   -3.4830   22.6410  -30.6550 C   0  0  0  0  0  0  0  0  0  0  0  0
   -2.6500   23.0530  -31.5130 O   0  0  0  0  0  0  0  0  0  0  0  0
   -4.8980   22.6500  -30.9580 N   0  0  0  0  0  0  0  0  0  0  0  0
   -5.7420   23.7230  -30.8970 C   0  0  0  0  0  0  0  0  0  0  0  0
   -5.4230   25.0470  -30.3330 C   0  0  0  0  0  0  0  0  0  0  0  0
   -4.0820   25.5360  -30.3340 N   0  0  0  0  0  0  0  0  0  0  0  0
   -6.3340   25.7270  -29.7900 O   0  0  0  0  0  0  0  0  0  0  0  0
   -6.9920   23.4120  -31.4120 C   0  0  0  0  0  0  0  0  0  0  0  0
   -6.9130   22.0920  -31.7730 C   0  0  0  0  0  0  0  0  0  0  0  0
   -7.8910   21.2690  -32.3230 C   0  0  0  0  0  0  0  0  0  0  0  0
   -7.5580   19.9330  -32.5850 C   0  0  0  0  0  0  0  0  0  0  0  0
   -6.2630   19.4400  -32.2900 C   0  0  0  0  0  0  0  0  0  0  0  0
   -5.9480   18.0510  -32.5120 N   0  0  0  0  0  0  0  0  0  0  0  0
   -4.5570   17.5840  -32.3790 C   0  0  0  0  0  0  0  0  0  0  0  0
   -4.1780   16.5270  -33.4400 C   0  0  0  0  0  0  0  0  0  0  0  0
   -4.4260   16.9630  -34.8960 C   0  0  0  0  0  0  0  0  0  0  0  0
   -5.8230   17.3390  -35.1630 N   0  0  0  0  0  0  0  0  0  0  0  0
   -6.8420   16.6130  -34.3840 C   0  0  0  0  0  0  0  0  0  0  0  0
   -7.0240   17.1400  -32.9450 C   0  0  0  0  0  0  0  0  0  0  0  0
   -5.2930   20.3090  -31.7380 C   0  0  0  0  0  0  0  0  0  0  0  0
   -5.6460   21.6460  -31.4890 C   0  0  0  0  0  0  0  0  0  0  0  0
   -0.9756   22.3021  -29.1444 H   0  0  0  0  0  0  0  0  0  0  0  0
   -1.9909   22.4543  -27.6616 H   0  0  0  0  0  0  0  0  0  0  0  0
   -3.2930   24.9340  -30.6610 H   0  0  0  0  0  0  0  0  0  0  0  0
   -3.8750   26.4980  -29.9850 H   0  0  0  0  0  0  0  0  0  0  0  0
   -7.8599   24.0808  -31.5097 H   0  0  0  0  0  0  0  0  0  0  0  0
   -8.8964   21.6558  -32.5457 H   0  0  0  0  0  0  0  0  0  0  0  0
   -8.3097   19.2605  -33.0241 H   0  0  0  0  0  0  0  0  0  0  0  0
   -3.8842   18.4476  -32.4868 H   0  0  0  0  0  0  0  0  0  0  0  0
   -4.4585   17.1119  -31.3903 H   0  0  0  0  0  0  0  0  0  0  0  0
   -3.1082   16.2969  -33.3282 H   0  0  0  0  0  0  0  0  0  0  0  0
   -4.8274   15.6576  -33.2599 H   0  0  0  0  0  0  0  0  0  0  0  0
   -3.7838   17.8288  -35.1150 H   0  0  0  0  0  0  0  0  0  0  0  0
   -4.1934   16.1003  -35.5376 H   0  0  0  0  0  0  0  0  0  0  0  0
   -5.9260   18.3650  -34.9690 H   0  0  0  0  0  0  0  0  0  0  0  0
   -7.8050   16.6993  -34.9085 H   0  0  0  0  0  0  0  0  0  0  0  0
   -6.4974   15.5717  -34.3008 H   0  0  0  0  0  0  0  0  0  0  0  0
   -7.9807   17.6802  -32.8904 H   0  0  0  0  0  0  0  0  0  0  0  0
   -6.9988   16.2678  -32.2752 H   0  0  0  0  0  0  0  0  0  0  0  0
   -4.2809   19.9448  -31.5079 H   0  0  0  0  0  0  0  0  0  0  0  0
  1  2  3  0
  2  3  1  0
  3  4  1  0
  4  5  1  0
  5  6  2  0
  5  7  1  0
  7  8  1  0
  8  9  1  0
  9 10  1  0
  9 11  2  0
  8 12  2  0
 12 13  1  0
 13 14  2  0
 14 15  1  0
 15 16  2  0
 16 17  1  0
 17 18  1  0
 18 19  1  0
 19 20  1  0
 20 21  1  0
 21 22  1  0
 22 23  1  0
 16 24  1  0
 24 25  2  0
 25  7  1  0
 25 13  1  0
 23 17  1  0
  3 26  1  0
  3 27  1  0
 10 28  1  0
 10 29  1  0
 12 30  1  0
 14 31  1  0
 15 32  1  0
 18 33  1  0
 18 34  1  0
 19 35  1  0
 19 36  1  0
 20 37  1  0
 20 38  1  0
 21 39  1  0
 22 40  1  0
 22 41  1  0
 23 42  1  0
 23 43  1  0
 24 44  1  0
M  END
>  <UniqueID>  (21) 
21

>  <SMILES>  (21) 
N#CCOC(=O)n1c(C(N)=O)cc2ccc(N3CCCNCC3)cc21

>  <Energy>  (21) 
97.44964559237641

>  <Genealogy>  (21) 
N#CCOC(=O)n1c(C(N)=O)cc2ccc(N3CCCNCC3)cc21 (3D coordinates assigned)
N#CCOC(=O)n1c(C(N)=O)cc2ccc(N3CCCNCC3)cc21 (nonaromatic ring conformer: 97.44964559237641 kcal/mol)

>  <smiles>  (21) 
N#CCOC(=O)n1c(C(N)=O)cc2ccc(N3CCCNCC3)cc21

>  <score_type>  (21) 
oracle

>  <origin>  (21) 
adg

>  <m_score__min__energy>  (21) 
-6.5499999999999998

>  <m_primary>  (21) 
energy

$$$$
21:0
     RDKit          3D

 48 49  0  0  0  0  0  0  0  0999 V2000
   -5.6610   15.1420  -34.1760 C   0  0  0  0  0  0  0  0  0  0  0  0
   -5.5940   16.5460  -33.7390 N   0  0  0  0  0  0  0  0  0  0  0  0
   -4.3920   17.2200  -34.2590 C   0  0  0  0  0  0  0  0  0  0  0  0
   -5.7670   16.7100  -32.2800 C   0  0  0  0  0  0  0  0  0  0  0  0
   -6.8470   17.7360  -31.8700 C   0  0  0  0  0  0  0  0  0  0  0  0
   -7.1800   18.6080  -33.0050 N   0  0  0  0  0  0  0  0  0  0  0  0
   -7.2710   19.9850  -32.5860 C   0  0  0  0  0  0  0  0  0  0  0  0
   -8.5390   20.6100  -32.4580 C   0  0  0  0  0  0  0  0  0  0  0  0
   -8.6460   21.9250  -31.9760 C   0  0  0  0  0  0  0  0  0  0  0  0
   -7.4750   22.5870  -31.6240 C   0  0  0  0  0  0  0  0  0  0  0  0
   -7.2990   23.8360  -31.0710 C   0  0  0  0  0  0  0  0  0  0  0  0
   -5.9240   23.9620  -30.8840 C   0  0  0  0  0  0  0  0  0  0  0  0
   -5.2800   25.1490  -30.2810 C   0  0  0  0  0  0  0  0  0  0  0  0
   -4.0810   25.6730  -30.8470 N   0  0  0  0  0  0  0  0  0  0  0  0
   -5.7770   25.7070  -29.2650 O   0  0  0  0  0  0  0  0  0  0  0  0
   -5.2760   22.8490  -31.3210 N   0  0  0  0  0  0  0  0  0  0  0  0
   -3.8610   22.6090  -31.2710 C   0  0  0  0  0  0  0  0  0  0  0  0
   -3.2350   22.3790  -32.3420 O   0  0  0  0  0  0  0  0  0  0  0  0
   -3.1290   22.7830  -30.0440 N   0  0  0  0  0  0  0  0  0  0  0  0
   -3.8300   22.8400  -28.7570 C   0  0  0  0  0  0  0  0  0  0  0  0
   -1.6780   23.0030  -30.1040 C   0  0  0  0  0  0  0  0  0  0  0  0
   -1.2810   24.2260  -29.3370 C   0  0  0  0  0  0  0  0  0  0  0  0
   -2.0230   25.2440  -29.3330 O   0  0  0  0  0  0  0  0  0  0  0  0
   -0.0450   24.2650  -28.6970 O   0  0  0  0  0  0  0  0  0  0  0  0
   -6.2370   22.0090  -31.7640 C   0  0  0  0  0  0  0  0  0  0  0  0
   -6.0990   20.7130  -32.2730 C   0  0  0  0  0  0  0  0  0  0  0  0
   -5.6924   14.4847  -33.2945 H   0  0  0  0  0  0  0  0  0  0  0  0
   -6.5675   14.9888  -34.7800 H   0  0  0  0  0  0  0  0  0  0  0  0
   -4.7732   14.9032  -34.7800 H   0  0  0  0  0  0  0  0  0  0  0  0
   -3.7734   17.5669  -33.4181 H   0  0  0  0  0  0  0  0  0  0  0  0
   -3.8132   16.5149  -34.8736 H   0  0  0  0  0  0  0  0  0  0  0  0
   -4.6917   18.0816  -34.8736 H   0  0  0  0  0  0  0  0  0  0  0  0
   -6.0432   15.7335  -31.8557 H   0  0  0  0  0  0  0  0  0  0  0  0
   -4.8109   17.0940  -31.8947 H   0  0  0  0  0  0  0  0  0  0  0  0
   -7.7517   17.2006  -31.5463 H   0  0  0  0  0  0  0  0  0  0  0  0
   -6.4592   18.3535  -31.0464 H   0  0  0  0  0  0  0  0  0  0  0  0
   -6.4490   18.5160  -33.7510 H   0  0  0  0  0  0  0  0  0  0  0  0
   -8.0940   18.3060  -33.4180 H   0  0  0  0  0  0  0  0  0  0  0  0
   -9.4481   20.0583  -32.7394 H   0  0  0  0  0  0  0  0  0  0  0  0
   -9.6257   22.4158  -31.8800 H   0  0  0  0  0  0  0  0  0  0  0  0
   -8.0768   24.5752  -30.8290 H   0  0  0  0  0  0  0  0  0  0  0  0
   -3.1460   25.2860  -30.5770 H   0  0  0  0  0  0  0  0  0  0  0  0
   -3.0982   22.7805  -27.9379 H   0  0  0  0  0  0  0  0  0  0  0  0
   -4.3860   23.7863  -28.6839 H   0  0  0  0  0  0  0  0  0  0  0  0
   -4.5316   21.9959  -28.6839 H   0  0  0  0  0  0  0  0  0  0  0  0
   -1.1651   22.1292  -29.6757 H   0  0  0  0  0  0  0  0  0  0  0  0
   -1.3916   23.1451  -31.1565 H   0  0  0  0  0  0  0  0  0  0  0  0
   -5.1035   20.2709  -32.4261 H   0  0  0  0  0  0  0  0  0  0  0  0
  1  2  1  0
  2  3  1  0
  2  4  1  0
  4  5  1  0
  5  6  1  0
  6  7  1  0
  7  8  2  0
  8  9  1  0
  9 10  2  0
 10 11  1  0
 11 12  2  0
 12 13  1  0
 13 14  1  0
 13 15  2  0
 12 16  1  0
 16 17  1  0
 17 18  2  0
 17 19  1  0
 19 20  1  0
 19 21  1  0
 21 22  1  0
 22 23  2  0
 22 24  1  0
 16 25  1  0
 25 26  2  0
 26  7  1  0
 25 10  1  0
  1 27  1  0
  1 28  1  0
  1 29  1  0
  3 30  1  0
  3 31  1  0
  3 32  1  0
  4 33  1  0
  4 34  1  0
  5 35  1  0
  5 36  1  0
  6 37  1  0
  6 38  1  0
  8 39  1  0
  9 40  1  0
 11 41  1  0
 14 42  1  0
 20 43  1  0
 20 44  1  0
 20 45  1  0
 21 46  1  0
 21 47  1  0
 26 48  1  0
M  CHG  3   6   1  14  -1  24  -1
M  END
>  <UniqueID>  (22) 
22

>  <SMILES>  (22) 
CN(C)CC[NH2+]c1ccc2cc(C([NH-])=O)n(C(=O)N(C)CC(=O)[O-])c2c1

>  <Energy>  (22) 
90.73798938924119

>  <Genealogy>  (22) 
CN(C)CC[NH2+]c1ccc2cc(C([NH-])=O)n(C(=O)N(C)CC(=O)[O-])c2c1 (protonated)
CN(C)CC[NH2+]c1ccc2cc(C([NH-])=O)n(C(=O)N(C)CC(=O)[O-])c2c1 (3D coordinates assigned)
CN(C)CC[NH2+]c1ccc2cc(C([NH-])=O)n(C(=O)N(C)CC(=O)[O-])c2c1 (optimized conformer: 90.73798938924119 kcal/mol)

>  <smiles>  (22) 
CN(C)CCNc1ccc2cc(C(N)=O)n(C(=O)N(C)CC(=O)O)c2c1

>  <score_type>  (22) 
oracle

>  <origin>  (22) 
adg

>  <m_score__min__energy>  (22) 
-11.550000000000001

>  <m_primary>  (22) 
energy

$$$$
22:0
     RDKit          3D

 35 36  0  0  0  0  0  0  0  0999 V2000
   -3.8920   25.6640  -30.8560 N   0  0  0  0  0  0  0  0  0  0  0  0
   -5.2200   25.3060  -30.4820 C   0  0  0  0  0  0  0  0  0  0  0  0
   -5.9230   26.1290  -29.8370 O   0  0  0  0  0  0  0  0  0  0  0  0
   -5.8000   24.0080  -30.8870 C   0  0  0  0  0  0  0  0  0  0  0  0
   -7.1720   23.7750  -30.9700 C   0  0  0  0  0  0  0  0  0  0  0  0
   -7.2940   22.4980  -31.4690 C   0  0  0  0  0  0  0  0  0  0  0  0
   -8.4350   21.7480  -31.7360 C   0  0  0  0  0  0  0  0  0  0  0  0
   -8.2650   20.4390  -32.2180 C   0  0  0  0  0  0  0  0  0  0  0  0
   -6.9670   19.9080  -32.4350 C   0  0  0  0  0  0  0  0  0  0  0  0
   -6.7970   18.4820  -32.8940 C   0  0  0  0  0  0  0  0  0  0  0  0
   -6.4690   18.4370  -34.2380 F   0  0  0  0  0  0  0  0  0  0  0  0
   -7.9810   17.7960  -32.6950 F   0  0  0  0  0  0  0  0  0  0  0  0
   -5.7880   17.8570  -32.1810 F   0  0  0  0  0  0  0  0  0  0  0  0
   -5.8330   20.6960  -32.1280 C   0  0  0  0  0  0  0  0  0  0  0  0
   -6.0330   22.0020  -31.6660 C   0  0  0  0  0  0  0  0  0  0  0  0
   -5.1040   22.9150  -31.3070 N   0  0  0  0  0  0  0  0  0  0  0  0
   -3.6810   22.7230  -31.3100 C   0  0  0  0  0  0  0  0  0  0  0  0
   -3.1120   22.2540  -32.3330 O   0  0  0  0  0  0  0  0  0  0  0  0
   -2.9330   23.0800  -30.1820 O   0  0  0  0  0  0  0  0  0  0  0  0
   -3.3680   22.8470  -28.8440 C   0  0  0  0  0  0  0  0  0  0  0  0
   -3.3930   24.1480  -28.0300 C   0  0  0  0  0  0  0  0  0  0  0  0
   -2.0350   24.8620  -28.0210 C   0  0  0  0  0  0  0  0  0  0  0  0
   -1.6870   25.3010  -29.3070 O   0  0  0  0  0  0  0  0  0  0  0  0
   -3.0660   25.2580  -30.3620 H   0  0  0  0  0  0  0  0  0  0  0  0
   -7.9838   24.4646  -30.6953 H   0  0  0  0  0  0  0  0  0  0  0  0
   -9.4393   22.1668  -31.5748 H   0  0  0  0  0  0  0  0  0  0  0  0
   -9.1484   19.8187  -32.4296 H   0  0  0  0  0  0  0  0  0  0  0  0
   -4.8173   20.2916  -32.2496 H   0  0  0  0  0  0  0  0  0  0  0  0
   -4.3810   22.4189  -28.8662 H   0  0  0  0  0  0  0  0  0  0  0  0
   -2.6618   22.1523  -28.3658 H   0  0  0  0  0  0  0  0  0  0  0  0
   -4.1435   24.8231  -28.4670 H   0  0  0  0  0  0  0  0  0  0  0  0
   -3.6401   23.8870  -26.9904 H   0  0  0  0  0  0  0  0  0  0  0  0
   -2.0899   25.7301  -27.3476 H   0  0  0  0  0  0  0  0  0  0  0  0
   -1.2692   24.1522  -27.6749 H   0  0  0  0  0  0  0  0  0  0  0  0
   -2.1000   24.6640  -29.9470 H   0  0  0  0  0  0  0  0  0  0  0  0
  1  2  1  0
  2  3  2  0
  2  4  1  0
  4  5  2  0
  5  6  1  0
  6  7  2  0
  7  8  1  0
  8  9  2  0
  9 10  1  0
 10 11  1  0
 10 12  1  0
 10 13  1  0
  9 14  1  0
 14 15  2  0
 15 16  1  0
 16 17  1  0
 17 18  2  0
 17 19  1  0
 19 20  1  0
 20 21  1  0
 21 22  1  0
 22 23  1  0
 16  4  1  0
 15  6  1  0
  1 24  1  0
  5 25  1  0
  7 26  1  0
  8 27  1  0
 14 28  1  0
 20 29  1  0
 20 30  1  0
 21 31  1  0
 21 32  1  0
 22 33  1  0
 22 34  1  0
 23 35  1  0
M  CHG  1   1  -1
M  END
>  <UniqueID>  (23) 
23

>  <SMILES>  (23) 
[NH-]C(=O)c1cc2ccc(C(F)(F)F)cc2n1C(=O)OCCCO

>  <Energy>  (23) 
69.41088316603265

>  <Genealogy>  (23) 
[NH-]C(=O)c1cc2ccc(C(F)(F)F)cc2n1C(=O)OCCCO (protonated)
[NH-]C(=O)c1cc2ccc(C(F)(F)F)cc2n1C(=O)OCCCO (3D coordinates assigned)
[NH-]C(=O)c1cc2ccc(C(F)(F)F)cc2n1C(=O)OCCCO (optimized conformer: 69.41088316603265 kcal/mol)

>  <smiles>  (23) 
NC(=O)c1cc2ccc(C(F)(F)F)cc2n1C(=O)OCCCO

>  <score_type>  (23) 
oracle

>  <origin>  (23) 
adg

>  <m_score__min__energy>  (23) 
-9.9800000000000004

>  <m_primary>  (23) 
energy

$$$$
23:0
     RDKit          3D

 39 40  0  0  0  0  0  0  0  0999 V2000
   -6.8900   25.4120  -29.7300 C   0  0  0  0  0  0  0  0  0  0  0  0
   -6.5550   24.2440  -30.2870 C   0  0  0  0  0  0  0  0  0  0  0  0
   -5.2850   23.5200  -29.8970 C   0  0  2  0  0  0  0  0  0  0  0  0
   -4.1250   24.4650  -29.7370 C   0  0  0  0  0  0  0  0  0  0  0  0
   -3.8540   25.3050  -30.6400 O   0  0  0  0  0  0  0  0  0  0  0  0
   -3.3130   24.3530  -28.6040 O   0  0  0  0  0  0  0  0  0  0  0  0
   -2.0360   23.7160  -28.6130 C   0  0  0  0  0  0  0  0  0  0  0  0
   -0.9130   24.7520  -28.5210 C   0  0  0  0  0  0  0  0  0  0  0  0
   -1.2410   25.8980  -29.2570 O   0  0  0  0  0  0  0  0  0  0  0  0
   -4.9400   22.4460  -30.9070 C   0  0  0  0  0  0  0  0  0  0  0  0
   -3.6250   22.3660  -31.4360 C   0  0  0  0  0  0  0  0  0  0  0  0
   -3.2880   21.3800  -32.3770 C   0  0  0  0  0  0  0  0  0  0  0  0
   -4.2800   20.4890  -32.7740 C   0  0  0  0  0  0  0  0  0  0  0  0
   -4.2230   19.4390  -33.6600 C   0  0  0  0  0  0  0  0  0  0  0  0
   -5.5070   18.8980  -33.6760 C   0  0  0  0  0  0  0  0  0  0  0  0
   -5.9200   17.8050  -34.5810 C   0  0  0  0  0  0  0  0  0  0  0  0
   -6.8340   16.8000  -34.1370 N   0  0  0  0  0  0  0  0  0  0  0  0
   -5.4340   17.7240  -35.7410 O   0  0  0  0  0  0  0  0  0  0  0  0
   -6.3230   19.5800  -32.8210 N   0  0  0  0  0  0  0  0  0  0  0  0
   -7.6920   19.3050  -32.4790 C   0  0  0  0  0  0  0  0  0  0  0  0
   -8.0200   18.2170  -31.9360 O   0  0  0  0  0  0  0  0  0  0  0  0
   -5.5570   20.5540  -32.2830 C   0  0  0  0  0  0  0  0  0  0  0  0
   -5.9210   21.5190  -31.3360 C   0  0  0  0  0  0  0  0  0  0  0  0
   -7.8190   25.9185  -30.0309 H   0  0  0  0  0  0  0  0  0  0  0  0
   -6.2367   25.8667  -28.9707 H   0  0  0  0  0  0  0  0  0  0  0  0
   -7.2168   23.7997  -31.0451 H   0  0  0  0  0  0  0  0  0  0  0  0
   -5.4748   23.0469  -28.9222 H   0  0  0  0  0  0  0  0  0  0  0  0
   -1.9676   23.0323  -27.7540 H   0  0  0  0  0  0  0  0  0  0  0  0
   -1.9260   23.1584  -29.5548 H   0  0  0  0  0  0  0  0  0  0  0  0
   -0.7619   25.0295  -27.4673 H   0  0  0  0  0  0  0  0  0  0  0  0
    0.0083   24.3155  -28.9341 H   0  0  0  0  0  0  0  0  0  0  0  0
   -2.0540   25.6780  -29.7820 H   0  0  0  0  0  0  0  0  0  0  0  0
   -2.8612   23.0849  -31.1048 H   0  0  0  0  0  0  0  0  0  0  0  0
   -2.2699   21.3139  -32.7881 H   0  0  0  0  0  0  0  0  0  0  0  0
   -3.3490   19.0983  -34.2344 H   0  0  0  0  0  0  0  0  0  0  0  0
   -7.0900   16.0070  -34.7680 H   0  0  0  0  0  0  0  0  0  0  0  0
   -7.2860   16.8580  -33.1980 H   0  0  0  0  0  0  0  0  0  0  0  0
   -8.4654   20.0568  -32.6950 H   0  0  0  0  0  0  0  0  0  0  0  0
   -6.9445   21.5562  -30.9348 H   0  0  0  0  0  0  0  0  0  0  0  0
  1  2  2  0
  2  3  1  0
  3  4  1  0
  4  5  2  0
  4  6  1  0
  6  7  1  0
  7  8  1  0
  8  9  1  0
  3 10  1  0
 10 11  2  0
 11 12  1  0
 12 13  2  0
 13 14  1  0
 14 15  2  0
 15 16  1  0
 16 17  1  0
 16 18  2  0
 15 19  1  0
 19 20  1  0
 20 21  2  0
 19 22  1  0
 22 23  2  0
 23 10  1  0
 22 13  1  0
  1 24  1  0
  1 25  1  0
  2 26  1  0
  3 27  1  1
  7 28  1  0
  7 29  1  0
  8 30  1  0
  8 31  1  0
  9 32  1  0
 11 33  1  0
 12 34  1  0
 14 35  1  0
 17 36  1  0
 17 37  1  0
 20 38  1  0
 23 39  1  0
M  END
>  <UniqueID>  (24) 
24

>  <SMILES>  (24) 
C=C[C@H](C(=O)OCCO)c1ccc2cc(C(N)=O)n(C=O)c2c1

>  <Energy>  (24) 
71.44141007378323

>  <Genealogy>  (24) 
C=C[C@H](C(=O)OCCO)c1ccc2cc(C(N)=O)n(C=O)c2c1 (chirality)
C=C[C@H](C(=O)OCCO)c1ccc2cc(C(N)=O)n(C=O)c2c1 (3D coordinates assigned)
C=C[C@H](C(=O)OCCO)c1ccc2cc(C(N)=O)n(C=O)c2c1 (optimized conformer: 71.44141007378323 kcal/mol)

>  <smiles>  (24) 
C=CC(C(=O)OCCO)c1ccc2cc(C(N)=O)n(C=O)c2c1

>  <score_type>  (24) 
oracle

>  <origin>  (24) 
adg

>  <m_score__min__energy>  (24) 
-7.8300000000000001

>  <m_primary>  (24) 
energy

$$$$
24:0
     RDKit          3D

 43 45  0  0  0  0  0  0  0  0999 V2000
   -3.9640   25.6210  -30.8520 N   0  0  0  0  0  0  0  0  0  0  0  0
   -5.2400   25.1110  -30.4730 C   0  0  0  0  0  0  0  0  0  0  0  0
   -5.9450   25.7600  -29.6550 O   0  0  0  0  0  0  0  0  0  0  0  0
   -5.7010   23.8130  -31.0060 C   0  0  0  0  0  0  0  0  0  0  0  0
   -7.0440   23.4780  -31.1580 C   0  0  0  0  0  0  0  0  0  0  0  0
   -7.0450   22.2380  -31.7560 C   0  0  0  0  0  0  0  0  0  0  0  0
   -8.1090   21.4320  -32.1310 C   0  0  0  0  0  0  0  0  0  0  0  0
   -7.8220   20.1840  -32.7080 C   0  0  0  0  0  0  0  0  0  0  0  0
   -6.4760   19.7390  -32.8960 C   0  0  0  0  0  0  0  0  0  0  0  0
   -6.1870   18.4310  -33.4860 N   0  0  0  0  0  0  0  0  0  0  0  0
   -4.9530   18.2790  -34.3010 C   0  0  0  0  0  0  0  0  0  0  0  0
   -4.7660   16.9030  -34.9430 C   0  0  0  0  0  0  0  0  0  0  0  0
   -5.2930   15.8770  -34.0580 N   0  0  0  0  0  0  0  0  0  0  0  0
   -4.4400   15.1190  -33.1800 C   0  0  0  0  0  0  0  0  0  0  0  0
   -3.1860   15.1850  -33.2910 O   0  0  0  0  0  0  0  0  0  0  0  0
   -4.9860   14.3010  -32.1980 O   0  0  0  0  0  0  0  0  0  0  0  0
   -6.7260   15.9680  -33.8320 C   0  0  0  0  0  0  0  0  0  0  0  0
   -7.0470   17.2780  -33.1100 C   0  0  0  0  0  0  0  0  0  0  0  0
   -5.4250   20.6160  -32.4960 C   0  0  0  0  0  0  0  0  0  0  0  0
   -5.7440   21.8600  -31.9420 C   0  0  0  0  0  0  0  0  0  0  0  0
   -4.9050   22.8160  -31.4860 N   0  0  0  0  0  0  0  0  0  0  0  0
   -3.4690   22.7480  -31.4470 C   0  0  0  0  0  0  0  0  0  0  0  0
   -2.8400   22.2810  -32.4350 O   0  0  0  0  0  0  0  0  0  0  0  0
   -2.7890   23.1830  -30.3010 O   0  0  0  0  0  0  0  0  0  0  0  0
   -3.2450   23.0220  -28.9850 C   0  0  0  0  0  0  0  0  0  0  0  0
   -3.8360   21.9690  -28.6230 O   0  0  0  0  0  0  0  0  0  0  0  0
   -2.9690   24.0930  -27.9810 C   0  0  0  0  0  0  0  0  0  0  0  0
   -2.3050   25.1380  -28.5960 F   0  0  0  0  0  0  0  0  0  0  0  0
   -4.1570   24.5610  -27.4490 F   0  0  0  0  0  0  0  0  0  0  0  0
   -2.1840   23.5920  -26.9580 F   0  0  0  0  0  0  0  0  0  0  0  0
   -3.0930   25.2990  -30.3750 H   0  0  0  0  0  0  0  0  0  0  0  0
   -7.9183   24.0769  -30.8630 H   0  0  0  0  0  0  0  0  0  0  0  0
   -9.1480   21.7605  -31.9809 H   0  0  0  0  0  0  0  0  0  0  0  0
   -8.6517   19.5339  -33.0225 H   0  0  0  0  0  0  0  0  0  0  0  0
   -4.9807   19.0294  -35.1048 H   0  0  0  0  0  0  0  0  0  0  0  0
   -4.1092   18.4114  -33.6078 H   0  0  0  0  0  0  0  0  0  0  0  0
   -5.3033   16.8704  -35.9023 H   0  0  0  0  0  0  0  0  0  0  0  0
   -3.6947   16.7224  -35.1150 H   0  0  0  0  0  0  0  0  0  0  0  0
   -7.2517   15.9435  -34.7980 H   0  0  0  0  0  0  0  0  0  0  0  0
   -7.0540   15.1192  -33.2140 H   0  0  0  0  0  0  0  0  0  0  0  0
   -8.0907   17.5438  -33.3337 H   0  0  0  0  0  0  0  0  0  0  0  0
   -6.8622   17.0928  -32.0416 H   0  0  0  0  0  0  0  0  0  0  0  0
   -4.3739   20.3171  -32.6219 H   0  0  0  0  0  0  0  0  0  0  0  0
  1  2  1  0
  2  3  2  0
  2  4  1  0
  4  5  2  0
  5  6  1  0
  6  7  2  0
  7  8  1  0
  8  9  2  0
  9 10  1  0
 10 11  1  0
 11 12  1  0
 12 13  1  0
 13 14  1  0
 14 15  2  0
 14 16  1  0
 13 17  1  0
 17 18  1  0
  9 19  1  0
 19 20  2  0
 20 21  1  0
 21 22  1  0
 22 23  2  0
 22 24  1  0
 24 25  1  0
 25 26  2  0
 25 27  1  0
 27 28  1  0
 27 29  1  0
 27 30  1  0
 21  4  1  0
 20  6  1  0
 18 10  1  0
  1 31  1  0
  5 32  1  0
  7 33  1  0
  8 34  1  0
 11 35  1  0
 11 36  1  0
 12 37  1  0
 12 38  1  0
 17 39  1  0
 17 40  1  0
 18 41  1  0
 18 42  1  0
 19 43  1  0
M  CHG  2   1  -1  16  -1
M  END
>  <UniqueID>  (25) 
25

>  <SMILES>  (25) 
[NH-]C(=O)c1cc2ccc(N3CCN(C(=O)[O-])CC3)cc2n1C(=O)OC(=O)C(F)(F)F

>  <Energy>  (25) 
92.44030710150837

>  <Genealogy>  (25) 
[NH-]C(=O)c1cc2ccc(N3CCN(C(=O)[O-])CC3)cc2n1C(=O)OC(=O)C(F)(F)F (protonated)
[NH-]C(=O)c1cc2ccc(N3CCN(C(=O)[O-])CC3)cc2n1C(=O)OC(=O)C(F)(F)F (3D coordinates assigned)
[NH-]C(=O)c1cc2ccc(N3CCN(C(=O)[O-])CC3)cc2n1C(=O)OC(=O)C(F)(F)F (nonaromatic ring conformer: 92.44030710150837 kcal/mol)

>  <smiles>  (25) 
NC(=O)c1cc2ccc(N3CCN(C(=O)O)CC3)cc2n1C(=O)OC(=O)C(F)(F)F

>  <score_type>  (25) 
oracle

>  <origin>  (25) 
adg

>  <m_score__min__energy>  (25) 
-10.07

>  <m_primary>  (25) 
energy

$$$$
25:0
     RDKit          3D

 27 28  0  0  0  0  0  0  0  0999 V2000
   -0.9450   23.3680  -28.9170 N   0  0  0  0  0  0  0  0  0  0  0  0
   -1.2460   22.6920  -30.1390 C   0  0  0  0  0  0  0  0  0  0  0  0
   -0.3060   22.2120  -30.8250 O   0  0  0  0  0  0  0  0  0  0  0  0
   -2.6420   22.4910  -30.5770 C   0  0  0  0  0  0  0  0  0  0  0  0
   -3.1320   21.2690  -31.0270 C   0  0  0  0  0  0  0  0  0  0  0  0
   -4.4680   21.4830  -31.2730 C   0  0  0  0  0  0  0  0  0  0  0  0
   -5.4380   20.6100  -31.7590 C   0  0  0  0  0  0  0  0  0  0  0  0
   -6.7340   21.1110  -31.9610 C   0  0  0  0  0  0  0  0  0  0  0  0
   -7.0360   22.4660  -31.6770 C   0  0  0  0  0  0  0  0  0  0  0  0
   -8.4160   23.0040  -31.9420 C   0  0  0  0  0  0  0  0  0  0  0  0
   -9.4540   21.9990  -31.5480 C   0  0  0  0  0  0  0  0  0  0  0  0
   -9.7930   21.1210  -32.3250 O   0  0  0  0  0  0  0  0  0  0  0  0
   -6.0240   23.3270  -31.1970 C   0  0  0  0  0  0  0  0  0  0  0  0
   -4.7450   22.7960  -30.9830 C   0  0  0  0  0  0  0  0  0  0  0  0
   -3.6300   23.4300  -30.5560 N   0  0  0  0  0  0  0  0  0  0  0  0
   -3.4970   24.8330  -30.2650 C   0  0  0  0  0  0  0  0  0  0  0  0
   -4.2280   25.6750  -30.8490 O   0  0  0  0  0  0  0  0  0  0  0  0
   -2.5620   25.2730  -29.3370 O   0  0  0  0  0  0  0  0  0  0  0  0
   -1.6990   23.6270  -28.2430 H   0  0  0  0  0  0  0  0  0  0  0  0
    0.0480   23.5350  -28.6410 H   0  0  0  0  0  0  0  0  0  0  0  0
   -2.5708   20.3321  -31.1580 H   0  0  0  0  0  0  0  0  0  0  0  0
   -5.1962   19.5595  -31.9781 H   0  0  0  0  0  0  0  0  0  0  0  0
   -7.5221   20.4456  -32.3432 H   0  0  0  0  0  0  0  0  0  0  0  0
   -8.5638   23.9250  -31.3590 H   0  0  0  0  0  0  0  0  0  0  0  0
   -8.5154   23.2162  -33.0168 H   0  0  0  0  0  0  0  0  0  0  0  0
   -9.9145   22.0526  -30.5505 H   0  0  0  0  0  0  0  0  0  0  0  0
   -6.2348   24.3878  -30.9963 H   0  0  0  0  0  0  0  0  0  0  0  0
  1  2  1  0
  2  3  2  0
  2  4  1  0
  4  5  2  0
  5  6  1  0
  6  7  2  0
  7  8  1  0
  8  9  2  0
  9 10  1  0
 10 11  1  0
 11 12  2  0
  9 13  1  0
 13 14  2  0
 14 15  1  0
 15 16  1  0
 16 17  2  0
 16 18  1  0
 15  4  1  0
 14  6  1  0
  1 19  1  0
  1 20  1  0
  5 21  1  0
  7 22  1  0
  8 23  1  0
 10 24  1  0
 10 25  1  0
 11 26  1  0
 13 27  1  0
M  CHG  1  18  -1
M  END
>  <UniqueID>  (26) 
26

>  <SMILES>  (26) 
NC(=O)c1cc2ccc(CC=O)cc2n1C(=O)[O-]

>  <Energy>  (26) 
65.59524697547195

>  <Genealogy>  (26) 
NC(=O)c1cc2ccc(CC=O)cc2n1C(=O)[O-] (protonated)
NC(=O)c1cc2ccc(CC=O)cc2n1C(=O)[O-] (3D coordinates assigned)
NC(=O)c1cc2ccc(CC=O)cc2n1C(=O)[O-] (optimized conformer: 65.59524697547195 kcal/mol)

>  <smiles>  (26) 
NC(=O)c1cc2ccc(CC=O)cc2n1C(=O)O

>  <score_type>  (26) 
oracle

>  <origin>  (26) 
adg

>  <m_score__min__energy>  (26) 
-8.3499999999999996

>  <m_primary>  (26) 
energy

$$$$
26:0
     RDKit          3D

 42 43  0  0  0  0  0  0  0  0999 V2000
   -2.2900   19.9080  -33.8250 C   0  0  0  0  0  0  0  0  0  0  0  0
   -3.6800   19.6140  -33.8990 O   0  0  0  0  0  0  0  0  0  0  0  0
   -4.1640   18.3470  -34.2390 C   0  0  0  0  0  0  0  0  0  0  0  0
   -3.4700   17.3160  -34.0300 O   0  0  0  0  0  0  0  0  0  0  0  0
   -5.5400   18.2140  -34.8110 C   0  0  0  0  0  0  0  0  0  0  0  0
   -6.5000   17.6350  -33.7640 C   0  0  0  0  0  0  0  0  0  0  0  0
   -6.1090   18.0300  -32.3330 C   0  0  0  0  0  0  0  0  0  0  0  0
   -6.4150   19.4780  -32.0440 C   0  0  0  0  0  0  0  0  0  0  0  0
   -7.7170   19.9860  -32.2760 C   0  0  0  0  0  0  0  0  0  0  0  0
   -8.0060   21.3420  -32.0520 C   0  0  0  0  0  0  0  0  0  0  0  0
   -6.9770   22.1620  -31.5970 C   0  0  0  0  0  0  0  0  0  0  0  0
   -6.9710   23.5140  -31.3370 C   0  0  0  0  0  0  0  0  0  0  0  0
   -5.6690   23.8070  -30.9370 C   0  0  0  0  0  0  0  0  0  0  0  0
   -5.2400   25.1460  -30.4830 C   0  0  0  0  0  0  0  0  0  0  0  0
   -3.9670   25.6720  -30.8500 N   0  0  0  0  0  0  0  0  0  0  0  0
   -5.9880   25.8160  -29.7220 O   0  0  0  0  0  0  0  0  0  0  0  0
   -4.9000   22.6830  -30.9540 N   0  0  0  0  0  0  0  0  0  0  0  0
   -3.4870   22.5830  -30.7130 C   0  0  0  0  0  0  0  0  0  0  0  0
   -2.7770   21.8350  -31.4380 O   0  0  0  0  0  0  0  0  0  0  0  0
   -2.9030   23.3380  -29.6890 O   0  0  0  0  0  0  0  0  0  0  0  0
   -1.5560   23.1600  -29.2580 C   0  0  0  0  0  0  0  0  0  0  0  0
   -0.9070   24.4860  -29.0180 C   0  0  0  0  0  0  0  0  0  0  0  0
    0.2690   24.5460  -28.5730 O   0  0  0  0  0  0  0  0  0  0  0  0
   -1.6030   25.6570  -29.2890 O   0  0  0  0  0  0  0  0  0  0  0  0
   -5.7140   21.6840  -31.3570 C   0  0  0  0  0  0  0  0  0  0  0  0
   -5.3940   20.3400  -31.5870 C   0  0  0  0  0  0  0  0  0  0  0  0
   -1.9845   19.9726  -32.7702 H   0  0  0  0  0  0  0  0  0  0  0  0
   -1.7195   19.1107  -34.3238 H   0  0  0  0  0  0  0  0  0  0  0  0
   -2.0912   20.8681  -34.3238 H   0  0  0  0  0  0  0  0  0  0  0  0
   -5.8999   19.2052  -35.1240 H   0  0  0  0  0  0  0  0  0  0  0  0
   -5.5031   17.5352  -35.6758 H   0  0  0  0  0  0  0  0  0  0  0  0
   -7.5142   18.0082  -33.9693 H   0  0  0  0  0  0  0  0  0  0  0  0
   -6.4533   16.5383  -33.8349 H   0  0  0  0  0  0  0  0  0  0  0  0
   -6.6684   17.4005  -31.6253 H   0  0  0  0  0  0  0  0  0  0  0  0
   -5.0243   17.8832  -32.2240 H   0  0  0  0  0  0  0  0  0  0  0  0
   -8.5089   19.3121  -32.6349 H   0  0  0  0  0  0  0  0  0  0  0  0
   -9.0143   21.7438  -32.2305 H   0  0  0  0  0  0  0  0  0  0  0  0
   -7.8148   24.2140  -31.4261 H   0  0  0  0  0  0  0  0  0  0  0  0
   -3.0890   25.2850  -30.4390 H   0  0  0  0  0  0  0  0  0  0  0  0
   -1.5478   22.5780  -28.3246 H   0  0  0  0  0  0  0  0  0  0  0  0
   -0.9980   22.6256  -30.0410 H   0  0  0  0  0  0  0  0  0  0  0  0
   -4.3739   19.9656  -31.4161 H   0  0  0  0  0  0  0  0  0  0  0  0
  1  2  1  0
  2  3  1  0
  3  4  2  0
  3  5  1  0
  5  6  1  0
  6  7  1  0
  7  8  1  0
  8  9  2  0
  9 10  1  0
 10 11  2  0
 11 12  1  0
 12 13  2  0
 13 14  1  0
 14 15  1  0
 14 16  2  0
 13 17  1  0
 17 18  1  0
 18 19  2  0
 18 20  1  0
 20 21  1  0
 21 22  1  0
 22 23  2  0
 22 24  1  0
 17 25  1  0
 25 26  2  0
 26  8  1  0
 25 11  1  0
  1 27  1  0
  1 28  1  0
  1 29  1  0
  5 30  1  0
  5 31  1  0
  6 32  1  0
  6 33  1  0
  7 34  1  0
  7 35  1  0
  9 36  1  0
 10 37  1  0
 12 38  1  0
 15 39  1  0
 21 40  1  0
 21 41  1  0
 26 42  1  0
M  CHG  2  15  -1  24  -1
M  END
>  <UniqueID>  (27) 
27

>  <SMILES>  (27) 
COC(=O)CCCc1ccc2cc(C([NH-])=O)n(C(=O)OCC(=O)[O-])c2c1

>  <Energy>  (27) 
70.76574683722052

>  <Genealogy>  (27) 
COC(=O)CCCc1ccc2cc(C([NH-])=O)n(C(=O)OCC(=O)[O-])c2c1 (protonated)
COC(=O)CCCc1ccc2cc(C([NH-])=O)n(C(=O)OCC(=O)[O-])c2c1 (3D coordinates assigned)
COC(=O)CCCc1ccc2cc(C([NH-])=O)n(C(=O)OCC(=O)[O-])c2c1 (optimized conformer: 70.76574683722052 kcal/mol)

>  <smiles>  (27) 
COC(=O)CCCc1ccc2cc(C(N)=O)n(C(=O)OCC(=O)O)c2c1

>  <score_type>  (27) 
oracle

>  <origin>  (27) 
adg

>  <m_score__min__energy>  (27) 
-12.18

>  <m_primary>  (27) 
energy

$$$$
27:0
     RDKit          3D

 42 45  0  0  0  0  0  0  0  0999 V2000
   -5.8680   25.2830  -29.1280 N   0  0  0  0  0  0  0  0  0  0  0  0
   -5.5920   24.6930  -30.4000 C   0  0  0  0  0  0  0  0  0  0  0  0
   -4.8210   25.2880  -31.1990 O   0  0  0  0  0  0  0  0  0  0  0  0
   -6.2350   23.4300  -30.8190 C   0  0  0  0  0  0  0  0  0  0  0  0
   -7.5760   23.1340  -30.5890 C   0  0  0  0  0  0  0  0  0  0  0  0
   -7.7660   21.8750  -31.1150 C   0  0  0  0  0  0  0  0  0  0  0  0
   -8.9170   21.0930  -31.1780 C   0  0  0  0  0  0  0  0  0  0  0  0
   -8.8310   19.8470  -31.8200 C   0  0  0  0  0  0  0  0  0  0  0  0
   -7.6140   19.4200  -32.4070 C   0  0  0  0  0  0  0  0  0  0  0  0
   -7.5210   18.0700  -33.0620 C   0  0  0  0  0  0  0  0  0  0  0  0
   -6.1750   17.8660  -33.5880 N   0  0  0  0  0  0  0  0  0  0  0  0
   -5.1760   17.1850  -33.0040 C   0  0  0  0  0  0  0  0  0  0  0  0
   -4.1160   17.1590  -33.8820 C   0  0  0  0  0  0  0  0  0  0  0  0
   -4.4510   17.8070  -35.0170 N   0  0  0  0  0  0  0  0  0  0  0  0
   -5.7190   18.2210  -34.8030 C   0  0  0  0  0  0  0  0  0  0  0  0
   -6.4660   20.2360  -32.3170 C   0  0  0  0  0  0  0  0  0  0  0  0
   -6.5730   21.4580  -31.6450 C   0  0  0  0  0  0  0  0  0  0  0  0
   -5.6200   22.3990  -31.4630 N   0  0  0  0  0  0  0  0  0  0  0  0
   -4.2830   22.3740  -31.9860 C   0  0  0  0  0  0  0  0  0  0  0  0
   -4.1130   22.3440  -33.2340 O   0  0  0  0  0  0  0  0  0  0  0  0
   -3.1190   22.4310  -31.0710 C   0  0  0  0  0  0  0  0  0  0  0  0
   -2.4520   21.3830  -30.8700 O   0  0  0  0  0  0  0  0  0  0  0  0
   -2.7250   23.6290  -30.3880 N   0  0  0  0  0  0  0  0  0  0  0  0
   -2.0390   23.6750  -29.1030 C   0  0  0  0  0  0  0  0  0  0  0  0
   -2.9320   24.1750  -27.9820 C   0  0  0  0  0  0  0  0  0  0  0  0
   -1.8540   25.0800  -28.5600 C   0  0  0  0  0  0  0  0  0  0  0  0
   -6.6410   24.9310  -28.5230 H   0  0  0  0  0  0  0  0  0  0  0  0
   -5.3630   26.1470  -28.8330 H   0  0  0  0  0  0  0  0  0  0  0  0
   -8.3241   23.7699  -30.0931 H   0  0  0  0  0  0  0  0  0  0  0  0
   -9.8637   21.4406  -30.7386 H   0  0  0  0  0  0  0  0  0  0  0  0
   -9.7167   19.1964  -31.8677 H   0  0  0  0  0  0  0  0  0  0  0  0
   -7.7456   17.2886  -32.3210 H   0  0  0  0  0  0  0  0  0  0  0  0
   -8.2451   18.0172  -33.8883 H   0  0  0  0  0  0  0  0  0  0  0  0
   -5.2002   16.7294  -32.0031 H   0  0  0  0  0  0  0  0  0  0  0  0
   -3.1438   16.6824  -33.6878 H   0  0  0  0  0  0  0  0  0  0  0  0
   -6.3115   18.7845  -35.5388 H   0  0  0  0  0  0  0  0  0  0  0  0
   -5.5120   19.9192  -32.7637 H   0  0  0  0  0  0  0  0  0  0  0  0
   -1.3766   22.8100  -29.2547 H   0  0  0  0  0  0  0  0  0  0  0  0
   -3.9931   24.3889  -28.1776 H   0  0  0  0  0  0  0  0  0  0  0  0
   -3.1902   23.8175  -26.9743 H   0  0  0  0  0  0  0  0  0  0  0  0
   -2.1355   25.9485  -29.1736 H   0  0  0  0  0  0  0  0  0  0  0  0
   -1.0094   25.6484  -28.1435 H   0  0  0  0  0  0  0  0  0  0  0  0
  1  2  1  0
  2  3  2  0
  2  4  1  0
  4  5  2  0
  5  6  1  0
  6  7  2  0
  7  8  1  0
  8  9  2  0
  9 10  1  0
 10 11  1  0
 11 12  1  0
 12 13  2  0
 13 14  1  0
 14 15  2  0
  9 16  1  0
 16 17  2  0
 17 18  1  0
 18 19  1  0
 19 20  2  0
 19 21  1  0
 21 22  2  0
 21 23  1  0
 23 24  1  0
 24 25  1  0
 25 26  1  0
 18  4  1  0
 26 24  1  0
 17  6  1  0
 15 11  1  0
  1 27  1  0
  1 28  1  0
  5 29  1  0
  7 30  1  0
  8 31  1  0
 10 32  1  0
 10 33  1  0
 12 34  1  0
 13 35  1  0
 15 36  1  0
 16 37  1  0
 24 38  1  0
 25 39  1  0
 25 40  1  0
 26 41  1  0
 26 42  1  0
M  CHG  1  23  -1
M  END
>  <UniqueID>  (28) 
28

>  <SMILES>  (28) 
NC(=O)c1cc2ccc(Cn3ccnc3)cc2n1C(=O)C(=O)[N-]C1CC1

>  <Energy>  (28) 
377.02656154072474

>  <Genealogy>  (28) 
NC(=O)c1cc2ccc(Cn3ccnc3)cc2n1C(=O)C(=O)[N-]C1CC1 (protonated)
NC(=O)c1cc2ccc(Cn3ccnc3)cc2n1C(=O)C(=O)[N-]C1CC1 (3D coordinates assigned)
NC(=O)c1cc2ccc(Cn3ccnc3)cc2n1C(=O)C(=O)[N-]C1CC1 (nonaromatic ring conformer: 377.02656154072474 kcal/mol)

>  <smiles>  (28) 
NC(=O)c1cc2ccc(Cn3ccnc3)cc2n1C(=O)C(=O)NC1CC1

>  <score_type>  (28) 
oracle

>  <origin>  (28) 
adg

>  <m_score__min__energy>  (28) 
-9.6099999999999994

>  <m_primary>  (28) 
energy

$$$$
28:0
     RDKit          3D

 34 35  0  0  0  0  0  0  0  0999 V2000
   -6.9890   18.0610  -31.6600 C   0  0  0  0  0  0  0  0  0  0  0  0
   -6.5130   17.8110  -33.0250 N   0  0  0  0  0  0  0  0  0  0  0  0
   -6.4810   16.4400  -33.5470 C   0  0  0  0  0  0  0  0  0  0  0  0
   -6.0730   18.8920  -33.8770 C   0  0  0  0  0  0  0  0  0  0  0  0
   -5.6720   18.6400  -35.0460 O   0  0  0  0  0  0  0  0  0  0  0  0
   -6.1000   20.3320  -33.4320 C   0  0  0  0  0  0  0  0  0  0  0  0
   -4.8320   20.7000  -32.7060 C   0  0  0  0  0  0  0  0  0  0  0  0
   -3.7270   19.8110  -32.7120 C   0  0  0  0  0  0  0  0  0  0  0  0
   -2.5440   20.1340  -32.0280 C   0  0  0  0  0  0  0  0  0  0  0  0
   -2.4920   21.3480  -31.3500 C   0  0  0  0  0  0  0  0  0  0  0  0
   -1.4830   21.8960  -30.5930 C   0  0  0  0  0  0  0  0  0  0  0  0
   -1.9790   23.1190  -30.1460 C   0  0  0  0  0  0  0  0  0  0  0  0
   -1.1770   24.0820  -29.3630 C   0  0  0  0  0  0  0  0  0  0  0  0
   -1.6140   25.4340  -29.2400 N   0  0  0  0  0  0  0  0  0  0  0  0
   -0.1290   23.7170  -28.7700 O   0  0  0  0  0  0  0  0  0  0  0  0
   -3.2480   23.3160  -30.6020 N   0  0  0  0  0  0  0  0  0  0  0  0
   -4.1270   24.4160  -30.3090 C   0  0  0  0  0  0  0  0  0  0  0  0
   -5.1120   24.2560  -29.5420 O   0  0  0  0  0  0  0  0  0  0  0  0
   -3.8820   25.6730  -30.8490 O   0  0  0  0  0  0  0  0  0  0  0  0
   -3.5470   22.2240  -31.3400 C   0  0  0  0  0  0  0  0  0  0  0  0
   -4.7450   21.9190  -31.9970 C   0  0  0  0  0  0  0  0  0  0  0  0
   -6.2537   17.6748  -30.9388 H   0  0  0  0  0  0  0  0  0  0  0  0
   -7.1175   19.1430  -31.5089 H   0  0  0  0  0  0  0  0  0  0  0  0
   -7.9527   17.5527  -31.5089 H   0  0  0  0  0  0  0  0  0  0  0  0
   -6.4644   15.7286  -32.7082 H   0  0  0  0  0  0  0  0  0  0  0  0
   -7.3752   16.2609  -34.1621 H   0  0  0  0  0  0  0  0  0  0  0  0
   -5.5794   16.3028  -34.1621 H   0  0  0  0  0  0  0  0  0  0  0  0
   -6.2089   20.9788  -34.3151 H   0  0  0  0  0  0  0  0  0  0  0  0
   -6.9480   20.4692  -32.7449 H   0  0  0  0  0  0  0  0  0  0  0  0
   -3.7974   18.8587  -33.2581 H   0  0  0  0  0  0  0  0  0  0  0  0
   -1.6842   19.4479  -32.0281 H   0  0  0  0  0  0  0  0  0  0  0  0
   -0.4943   21.4611  -30.3846 H   0  0  0  0  0  0  0  0  0  0  0  0
   -2.6270   25.6790  -29.3080 H   0  0  0  0  0  0  0  0  0  0  0  0
   -5.5985   22.6121  -31.9621 H   0  0  0  0  0  0  0  0  0  0  0  0
  1  2  1  0
  2  3  1  0
  2  4  1  0
  4  5  2  0
  4  6  1  0
  6  7  1  0
  7  8  2  0
  8  9  1  0
  9 10  2  0
 10 11  1  0
 11 12  2  0
 12 13  1  0
 13 14  1  0
 13 15  2  0
 12 16  1  0
 16 17  1  0
 17 18  2  0
 17 19  1  0
 16 20  1  0
 20 21  2  0
 21  7  1  0
 20 10  1  0
  1 22  1  0
  1 23  1  0
  1 24  1  0
  3 25  1  0
  3 26  1  0
  3 27  1  0
  6 28  1  0
  6 29  1  0
  8 30  1  0
  9 31  1  0
 11 32  1  0
 14 33  1  0
 21 34  1  0
M  CHG  2  14  -1  19  -1
M  END
>  <UniqueID>  (29) 
29

>  <SMILES>  (29) 
CN(C)C(=O)Cc1ccc2cc(C([NH-])=O)n(C(=O)[O-])c2c1

>  <Energy>  (29) 
69.92127553909522

>  <Genealogy>  (29) 
CN(C)C(=O)Cc1ccc2cc(C([NH-])=O)n(C(=O)[O-])c2c1 (protonated)
CN(C)C(=O)Cc1ccc2cc(C([NH-])=O)n(C(=O)[O-])c2c1 (3D coordinates assigned)
CN(C)C(=O)Cc1ccc2cc(C([NH-])=O)n(C(=O)[O-])c2c1 (optimized conformer: 69.92127553909522 kcal/mol)

>  <smiles>  (29) 
CN(C)C(=O)Cc1ccc2cc(C(N)=O)n(C(=O)O)c2c1

>  <score_type>  (29) 
oracle

>  <origin>  (29) 
adg

>  <m_score__min__energy>  (29) 
-11.109999999999999

>  <m_primary>  (29) 
energy

$$$$
29:0
     RDKit          3D

 31 33  0  0  0  0  0  0  0  0999 V2000
   -1.3290   25.8350  -29.0100 N   0  0  0  0  0  0  0  0  0  0  0  0
   -0.8220   24.5090  -29.1340 C   0  0  0  0  0  0  0  0  0  0  0  0
    0.2730   24.2140  -28.5860 O   0  0  0  0  0  0  0  0  0  0  0  0
   -1.5900   23.4640  -29.8430 C   0  0  0  0  0  0  0  0  0  0  0  0
   -1.0170   22.2970  -30.3390 C   0  0  0  0  0  0  0  0  0  0  0  0
   -2.0650   21.5570  -30.8360 C   0  0  0  0  0  0  0  0  0  0  0  0
   -2.0660   20.3140  -31.4580 C   0  0  0  0  0  0  0  0  0  0  0  0
   -3.2950   19.7990  -31.9020 C   0  0  0  0  0  0  0  0  0  0  0  0
   -4.4980   20.5350  -31.7260 C   0  0  0  0  0  0  0  0  0  0  0  0
   -5.7900   19.9860  -32.2100 C   0  0  0  0  0  0  0  0  0  0  0  0
   -6.9420   20.7890  -32.2470 C   0  0  0  0  0  0  0  0  0  0  0  0
   -8.1480   20.2510  -32.7040 C   0  0  0  0  0  0  0  0  0  0  0  0
   -8.2090   18.9550  -33.1110 N   0  0  0  0  0  0  0  0  0  0  0  0
   -7.1110   18.1520  -33.0850 C   0  0  0  0  0  0  0  0  0  0  0  0
   -5.8860   18.6500  -32.6360 C   0  0  0  0  0  0  0  0  0  0  0  0
   -4.4520   21.7970  -31.0890 C   0  0  0  0  0  0  0  0  0  0  0  0
   -3.2150   22.2760  -30.6400 C   0  0  0  0  0  0  0  0  0  0  0  0
   -2.9400   23.4530  -30.0340 N   0  0  0  0  0  0  0  0  0  0  0  0
   -3.8760   24.5050  -29.7500 C   0  0  0  0  0  0  0  0  0  0  0  0
   -4.7030   24.3850  -28.8080 O   0  0  0  0  0  0  0  0  0  0  0  0
   -3.8960   25.6560  -30.5290 O   0  0  0  0  0  0  0  0  0  0  0  0
   -2.3560   26.0150  -28.9580 H   0  0  0  0  0  0  0  0  0  0  0  0
    0.0485   22.0239  -30.3347 H   0  0  0  0  0  0  0  0  0  0  0  0
   -1.1319   19.7503  -31.5984 H   0  0  0  0  0  0  0  0  0  0  0  0
   -3.3268   18.8145  -32.3917 H   0  0  0  0  0  0  0  0  0  0  0  0
   -6.8949   21.8374  -31.9175 H   0  0  0  0  0  0  0  0  0  0  0  0
   -9.0512   20.8781  -32.7346 H   0  0  0  0  0  0  0  0  0  0  0  0
   -9.1180   18.5670  -33.4500 H   0  0  0  0  0  0  0  0  0  0  0  0
   -7.1885   17.1068  -33.4188 H   0  0  0  0  0  0  0  0  0  0  0  0
   -4.9995   17.9991  -32.6158 H   0  0  0  0  0  0  0  0  0  0  0  0
   -5.3682   22.3895  -30.9493 H   0  0  0  0  0  0  0  0  0  0  0  0
  1  2  1  0
  2  3  2  0
  2  4  1  0
  4  5  2  0
  5  6  1  0
  6  7  2  0
  7  8  1  0
  8  9  2  0
  9 10  1  0
 10 11  2  0
 11 12  1  0
 12 13  2  0
 13 14  1  0
 14 15  2  0
  9 16  1  0
 16 17  2  0
 17 18  1  0
 18 19  1  0
 19 20  2  0
 19 21  1  0
 18  4  1  0
 17  6  1  0
 15 10  1  0
  1 22  1  0
  5 23  1  0
  7 24  1  0
  8 25  1  0
 11 26  1  0
 12 27  1  0
 13 28  1  0
 14 29  1  0
 15 30  1  0
 16 31  1  0
M  CHG  3   1  -1  13   1  21  -1
M  END
>  <UniqueID>  (30) 
30

>  <SMILES>  (30) 
[NH-]C(=O)c1cc2ccc(-c3cc[nH+]cc3)cc2n1C(=O)[O-]

>  <Energy>  (30) 
79.05513643161724

>  <Genealogy>  (30) 
[NH-]C(=O)c1cc2ccc(-c3cc[nH+]cc3)cc2n1C(=O)[O-] (protonated)
[NH-]C(=O)c1cc2ccc(-c3cc[nH+]cc3)cc2n1C(=O)[O-] (3D coordinates assigned)
[NH-]C(=O)c1cc2ccc(-c3cc[nH+]cc3)cc2n1C(=O)[O-] (optimized conformer: 79.05513643161724 kcal/mol)

>  <smiles>  (30) 
NC(=O)c1cc2ccc(-c3ccncc3)cc2n1C(=O)O

>  <score_type>  (30) 
oracle

>  <origin>  (30) 
adg

>  <m_score__min__energy>  (30) 
-10.779999999999999

>  <m_primary>  (30) 
energy

$$$$
30:0
     RDKit          3D

 39 41  0  0  0  0  0  0  0  0999 V2000
   -2.3900   20.7610  -32.7040 C   0  0  0  0  0  0  0  0  0  0  0  0
   -3.1880   21.9280  -32.8570 O   0  0  0  0  0  0  0  0  0  0  0  0
   -3.7130   22.6310  -31.7680 C   0  0  0  0  0  0  0  0  0  0  0  0
   -2.9440   23.2560  -30.9870 O   0  0  0  0  0  0  0  0  0  0  0  0
   -5.1320   22.6420  -31.5400 N   0  0  0  0  0  0  0  0  0  0  0  0
   -5.8680   23.6230  -30.9450 C   0  0  0  0  0  0  0  0  0  0  0  0
   -5.3300   24.8150  -30.2610 C   0  0  0  0  0  0  0  0  0  0  0  0
   -5.8270   25.2240  -28.9850 N   0  0  0  0  0  0  0  0  0  0  0  0
   -4.4560   25.5160  -30.8360 O   0  0  0  0  0  0  0  0  0  0  0  0
   -7.2270   23.3310  -31.0170 C   0  0  0  0  0  0  0  0  0  0  0  0
   -7.3030   22.1220  -31.6710 C   0  0  0  0  0  0  0  0  0  0  0  0
   -8.4150   21.3660  -32.0210 C   0  0  0  0  0  0  0  0  0  0  0  0
   -8.2050   20.1690  -32.7250 C   0  0  0  0  0  0  0  0  0  0  0  0
   -6.8930   19.7600  -33.0900 C   0  0  0  0  0  0  0  0  0  0  0  0
   -6.6400   18.5290  -33.7990 N   0  0  0  0  0  0  0  0  0  0  0  0
   -6.1370   17.2550  -33.2420 C   0  0  0  0  0  0  0  0  0  0  0  0
   -6.1460   17.2370  -31.7050 C   0  0  0  0  0  0  0  0  0  0  0  0
   -4.8590   16.7140  -33.8580 C   0  0  0  0  0  0  0  0  0  0  0  0
   -5.5320   15.6150  -34.4320 O   0  0  0  0  0  0  0  0  0  0  0  0
   -6.7600   16.0280  -33.8720 C   0  0  0  0  0  0  0  0  0  0  0  0
   -5.7900   20.5520  -32.6980 C   0  0  0  0  0  0  0  0  0  0  0  0
   -6.0270   21.7280  -31.9780 C   0  0  0  0  0  0  0  0  0  0  0  0
   -2.2472   20.5522  -31.6335 H   0  0  0  0  0  0  0  0  0  0  0  0
   -2.8941   19.9071  -33.1801 H   0  0  0  0  0  0  0  0  0  0  0  0
   -1.4114   20.9210  -33.1801 H   0  0  0  0  0  0  0  0  0  0  0  0
   -5.4060   26.0470  -28.4990 H   0  0  0  0  0  0  0  0  0  0  0  0
   -6.6650   24.7690  -28.5620 H   0  0  0  0  0  0  0  0  0  0  0  0
   -8.0615   23.9365  -30.6335 H   0  0  0  0  0  0  0  0  0  0  0  0
   -9.4301   21.6954  -31.7545 H   0  0  0  0  0  0  0  0  0  0  0  0
   -9.0657   19.5404  -32.9972 H   0  0  0  0  0  0  0  0  0  0  0  0
   -7.0260   18.4820  -34.7710 H   0  0  0  0  0  0  0  0  0  0  0  0
   -5.6844   18.1602  -31.3248 H   0  0  0  0  0  0  0  0  0  0  0  0
   -7.1834   17.1706  -31.3452 H   0  0  0  0  0  0  0  0  0  0  0  0
   -5.5767   16.3673  -31.3452 H   0  0  0  0  0  0  0  0  0  0  0  0
   -4.4080   17.3897  -34.5997 H   0  0  0  0  0  0  0  0  0  0  0  0
   -3.9885   16.5305  -33.2110 H   0  0  0  0  0  0  0  0  0  0  0  0
   -7.5284   16.2624  -34.6234 H   0  0  0  0  0  0  0  0  0  0  0  0
   -7.3193   15.3266  -33.2355 H   0  0  0  0  0  0  0  0  0  0  0  0
   -4.7640   20.2494  -32.9543 H   0  0  0  0  0  0  0  0  0  0  0  0
  1  2  1  0
  2  3  1  0
  3  4  2  0
  3  5  1  0
  5  6  1  0
  6  7  1  0
  7  8  1  0
  7  9  2  0
  6 10  2  0
 10 11  1  0
 11 12  2  0
 12 13  1  0
 13 14  2  0
 14 15  1  0
 15 16  1  0
 16 17  1  0
 16 18  1  0
 18 19  1  0
 19 20  1  0
 14 21  1  0
 21 22  2  0
 22  5  1  0
 22 11  1  0
 20 16  1  0
  1 23  1  0
  1 24  1  0
  1 25  1  0
  8 26  1  0
  8 27  1  0
 10 28  1  0
 12 29  1  0
 13 30  1  0
 15 31  1  0
 17 32  1  0
 17 33  1  0
 17 34  1  0
 18 35  1  0
 18 36  1  0
 20 37  1  0
 20 38  1  0
 21 39  1  0
M  END
>  <UniqueID>  (31) 
31

>  <SMILES>  (31) 
COC(=O)n1c(C(N)=O)cc2ccc(NC3(C)COC3)cc21

>  <Energy>  (31) 
149.0685717305781

>  <Genealogy>  (31) 
COC(=O)n1c(C(N)=O)cc2ccc(NC3(C)COC3)cc21 (3D coordinates assigned)
COC(=O)n1c(C(N)=O)cc2ccc(NC3(C)COC3)cc21 (nonaromatic ring conformer: 149.0685717305781 kcal/mol)

>  <smiles>  (31) 
COC(=O)n1c(C(N)=O)cc2ccc(NC3(C)COC3)cc21

>  <score_type>  (31) 
oracle

>  <origin>  (31) 
adg

>  <m_score__min__energy>  (31) 
-8.7400000000000002

>  <m_primary>  (31) 
energy

$$$$
31:0
     RDKit          3D

 30 31  0  0  0  0  0  0  0  0999 V2000
   -4.2390   25.6880  -30.6720 N   0  0  0  0  0  0  0  0  0  0  0  0
   -5.5320   25.1120  -30.5060 C   0  0  0  0  0  0  0  0  0  0  0  0
   -6.3860   25.7080  -29.7970 O   0  0  0  0  0  0  0  0  0  0  0  0
   -5.8630   23.8020  -31.1050 C   0  0  0  0  0  0  0  0  0  0  0  0
   -7.1600   23.4210  -31.4440 C   0  0  0  0  0  0  0  0  0  0  0  0
   -7.0550   22.1200  -31.8800 C   0  0  0  0  0  0  0  0  0  0  0  0
   -8.0380   21.2490  -32.3390 C   0  0  0  0  0  0  0  0  0  0  0  0
   -7.6400   19.9650  -32.7480 C   0  0  0  0  0  0  0  0  0  0  0  0
   -6.2740   19.5840  -32.7170 C   0  0  0  0  0  0  0  0  0  0  0  0
   -5.8650   18.1900  -33.1240 C   0  0  0  0  0  0  0  0  0  0  0  0
   -4.5730   17.9180  -32.7080 F   0  0  0  0  0  0  0  0  0  0  0  0
   -5.9150   18.0480  -34.5000 F   0  0  0  0  0  0  0  0  0  0  0  0
   -6.7260   17.2760  -32.5450 F   0  0  0  0  0  0  0  0  0  0  0  0
   -5.3090   20.4910  -32.2200 C   0  0  0  0  0  0  0  0  0  0  0  0
   -5.7370   21.7560  -31.8020 C   0  0  0  0  0  0  0  0  0  0  0  0
   -4.9910   22.7800  -31.3290 N   0  0  0  0  0  0  0  0  0  0  0  0
   -3.5610   22.8040  -31.2000 C   0  0  0  0  0  0  0  0  0  0  0  0
   -2.8430   22.1880  -32.0340 O   0  0  0  0  0  0  0  0  0  0  0  0
   -2.9700   23.5290  -30.1580 O   0  0  0  0  0  0  0  0  0  0  0  0
   -1.7110   23.1880  -29.5810 C   0  0  0  0  0  0  0  0  0  0  0  0
   -0.9580   24.4230  -29.2060 C   0  0  0  0  0  0  0  0  0  0  0  0
    0.2080   24.3350  -28.7410 O   0  0  0  0  0  0  0  0  0  0  0  0
   -1.5530   25.6710  -29.3420 O   0  0  0  0  0  0  0  0  0  0  0  0
   -3.5360   25.6630  -29.9000 H   0  0  0  0  0  0  0  0  0  0  0  0
   -8.0733   24.0305  -31.3773 H   0  0  0  0  0  0  0  0  0  0  0  0
   -9.0935   21.5559  -32.3804 H   0  0  0  0  0  0  0  0  0  0  0  0
   -8.3968   19.2467  -33.0964 H   0  0  0  0  0  0  0  0  0  0  0  0
   -4.2474   20.2086  -32.1634 H   0  0  0  0  0  0  0  0  0  0  0  0
   -1.8781   22.5781  -28.6809 H   0  0  0  0  0  0  0  0  0  0  0  0
   -1.1227   22.6214  -30.3178 H   0  0  0  0  0  0  0  0  0  0  0  0
  1  2  1  0
  2  3  2  0
  2  4  1  0
  4  5  2  0
  5  6  1  0
  6  7  2  0
  7  8  1  0
  8  9  2  0
  9 10  1  0
 10 11  1  0
 10 12  1  0
 10 13  1  0
  9 14  1  0
 14 15  2  0
 15 16  1  0
 16 17  1  0
 17 18  2  0
 17 19  1  0
 19 20  1  0
 20 21  1  0
 21 22  2  0
 21 23  1  0
 16  4  1  0
 15  6  1  0
  1 24  1  0
  5 25  1  0
  7 26  1  0
  8 27  1  0
 14 28  1  0
 20 29  1  0
 20 30  1  0
M  CHG  2   1  -1  23  -1
M  END
>  <UniqueID>  (32) 
32

>  <SMILES>  (32) 
[NH-]C(=O)c1cc2ccc(C(F)(F)F)cc2n1C(=O)OCC(=O)[O-]

>  <Energy>  (32) 
68.10729317433642

>  <Genealogy>  (32) 
[NH-]C(=O)c1cc2ccc(C(F)(F)F)cc2n1C(=O)OCC(=O)[O-] (protonated)
[NH-]C(=O)c1cc2ccc(C(F)(F)F)cc2n1C(=O)OCC(=O)[O-] (3D coordinates assigned)
[NH-]C(=O)c1cc2ccc(C(F)(F)F)cc2n1C(=O)OCC(=O)[O-] (optimized conformer: 68.10729317433642 kcal/mol)

>  <smiles>  (32) 
NC(=O)c1cc2ccc(C(F)(F)F)cc2n1C(=O)OCC(=O)O

>  <score_type>  (32) 
oracle

>  <origin>  (32) 
adg

>  <m_score__min__energy>  (32) 
-11.76

>  <m_primary>  (32) 
energy

$$$$
32:0
     RDKit          3D

 41 42  0  0  0  0  0  0  0  0999 V2000
   -3.4920   26.0350  -31.2190 H   0  0  0  0  0  0  0  0  0  0  0  0
   -3.8960   25.3190  -30.5750 N   0  0  0  0  0  0  0  0  0  0  0  0
   -5.3070   25.1660  -30.4390 C   0  0  0  0  0  0  0  0  0  0  0  0
   -5.9770   26.0850  -29.8980 O   0  0  0  0  0  0  0  0  0  0  0  0
   -5.9850   23.9300  -30.8810 C   0  0  0  0  0  0  0  0  0  0  0  0
   -7.3670   23.8260  -31.0430 C   0  0  0  0  0  0  0  0  0  0  0  0
   -8.1134   24.6262  -30.9314 H   0  0  0  0  0  0  0  0  0  0  0  0
   -7.5980   22.5100  -31.3720 C   0  0  0  0  0  0  0  0  0  0  0  0
   -8.7920   21.8500  -31.6450 C   0  0  0  0  0  0  0  0  0  0  0  0
   -9.7548   22.3805  -31.6060 H   0  0  0  0  0  0  0  0  0  0  0  0
   -8.7300   20.4850  -31.9720 C   0  0  0  0  0  0  0  0  0  0  0  0
   -9.6592   19.9319  -32.1739 H   0  0  0  0  0  0  0  0  0  0  0  0
   -7.4830   19.8110  -32.0450 C   0  0  0  0  0  0  0  0  0  0  0  0
   -7.4340   18.3370  -32.3560 C   0  0  0  0  0  0  0  0  0  0  0  0
   -8.7050   17.7890  -32.3280 F   0  0  0  0  0  0  0  0  0  0  0  0
   -6.8990   18.1200  -33.6140 F   0  0  0  0  0  0  0  0  0  0  0  0
   -6.6480   17.7000  -31.4150 F   0  0  0  0  0  0  0  0  0  0  0  0
   -6.2940   20.5140  -31.7420 C   0  0  0  0  0  0  0  0  0  0  0  0
   -5.3179   20.0078  -31.7714 H   0  0  0  0  0  0  0  0  0  0  0  0
   -6.3880   21.8680  -31.4040 C   0  0  0  0  0  0  0  0  0  0  0  0
   -5.3880   22.7260  -31.1110 N   0  0  0  0  0  0  0  0  0  0  0  0
   -3.9850   22.4200  -31.1260 C   0  0  0  0  0  0  0  0  0  0  0  0
   -3.3330   22.4430  -30.0470 O   0  0  0  0  0  0  0  0  0  0  0  0
   -3.3260   22.0340  -32.3900 C   0  0  0  0  0  0  0  0  0  0  0  0
   -3.3278   22.7465  -33.2281 H   0  0  0  0  0  0  0  0  0  0  0  0
   -2.7280   20.8510  -32.5520 C   0  0  0  0  0  0  0  0  0  0  0  0
   -2.7298   20.1217  -31.7286 H   0  0  0  0  0  0  0  0  0  0  0  0
   -2.0510   20.5070  -33.8530 C   0  0  0  0  0  0  0  0  0  0  0  0
   -1.8236   19.4308  -33.8603 H   0  0  0  0  0  0  0  0  0  0  0  0
   -2.7347   20.7773  -34.6712 H   0  0  0  0  0  0  0  0  0  0  0  0
   -0.7980   21.2580  -34.0440 N   0  0  0  0  0  0  0  0  0  0  0  0
   -0.8570   21.7990  -34.9390 H   0  0  0  0  0  0  0  0  0  0  0  0
    0.3860   20.3850  -34.0840 C   0  0  0  0  0  0  0  0  0  0  0  0
    0.5721   19.9803  -33.0782 H   0  0  0  0  0  0  0  0  0  0  0  0
    0.2007   19.5648  -34.7932 H   0  0  0  0  0  0  0  0  0  0  0  0
    1.6120   21.1710  -34.5450 C   0  0  0  0  0  0  0  0  0  0  0  0
    1.8775   21.9121  -33.7767 H   0  0  0  0  0  0  0  0  0  0  0  0
    2.4469   20.4718  -34.6999 H   0  0  0  0  0  0  0  0  0  0  0  0
    1.2650   22.0230  -36.0990 S   0  0  0  0  0  4  0  0  0  0  0  0
    0.1710   21.1790  -36.7360 O   0  0  0  0  0  0  0  0  0  0  0  0
    0.4360   23.4240  -35.6030 O   0  0  0  0  0  0  0  0  0  0  0  0
  1  2  1  0
  2  3  1  0
  3  4  2  0
  3  5  1  0
  5  6  2  0
  6  7  1  0
  6  8  1  0
  8  9  2  0
  9 10  1  0
  9 11  1  0
 11 12  1  0
 11 13  2  0
 13 14  1  0
 14 15  1  0
 14 16  1  0
 14 17  1  0
 13 18  1  0
 18 19  1  0
 18 20  2  0
 20 21  1  0
 21 22  1  0
 22 23  2  0
 22 24  1  0
 24 25  1  0
 24 26  2  0
 26 27  1  0
 26 28  1  0
 28 29  1  0
 28 30  1  0
 28 31  1  0
 31 32  1  0
 31 33  1  0
 33 34  1  0
 33 35  1  0
 33 36  1  0
 36 37  1  0
 36 38  1  0
 36 39  1  0
 39 40  2  0
 39 41  1  1
 21  5  1  0
 20  8  1  0
M  CHG  2   2  -1  41  -1
M  END
>  <UniqueID>  (33) 
33

>  <SMILES>  (33) 
[NH-]C(=O)c1cc2ccc(C(F)(F)F)cc2n1C(=O)/C=C/CNCC[S@@](=O)[O-]

>  <Energy>  (33) 
75.11648763405528

>  <Genealogy>  (33) 
[NH-]C(=O)c1cc2ccc(C(F)(F)F)cc2n1C(=O)C=CCNCCS(=O)[O-] (protonated)
[NH-]C(=O)c1cc2ccc(C(F)(F)F)cc2n1C(=O)C=CCNCC[S@@](=O)[O-] (chirality)
[NH-]C(=O)c1cc2ccc(C(F)(F)F)cc2n1C(=O)/C=C/CNCC[S@@](=O)[O-] (cis-trans isomerization)
[NH-]C(=O)c1cc2ccc(C(F)(F)F)cc2n1C(=O)/C=C/CNCC[S@@](=O)[O-] (3D coordinates assigned)
[NH-]C(=O)c1cc2ccc(C(F)(F)F)cc2n1C(=O)/C=C/CNCC[S@@](=O)[O-] (optimized conformer: 75.11648763405528 kcal/mol)

>  <smiles>  (33) 
NC(=O)c1cc2ccc(C(F)(F)F)cc2n1C(=O)C=CCNCCS(=O)O

>  <score_type>  (33) 
oracle

>  <origin>  (33) 
adg

>  <m_score__min__energy>  (33) 
-13.390000000000001

>  <m_primary>  (33) 
energy

$$$$
34:0
     RDKit          3D

 33 34  0  0  0  0  0  0  0  0999 V2000
   -3.1960   18.9780  -33.6310 C   0  0  0  0  0  0  0  0  0  0  0  0
   -3.8650   17.7880  -34.0290 O   0  0  0  0  0  0  0  0  0  0  0  0
   -5.2510   17.7230  -34.1940 C   0  0  0  0  0  0  0  0  0  0  0  0
   -5.7610   17.6850  -35.3470 O   0  0  0  0  0  0  0  0  0  0  0  0
   -6.1390   17.7320  -32.9890 C   0  0  0  0  0  0  0  0  0  0  0  0
   -7.2720   18.6360  -33.1940 N   0  0  0  0  0  0  0  0  0  0  0  0
   -7.3880   19.9440  -32.6030 C   0  0  0  0  0  0  0  0  0  0  0  0
   -8.6760   20.4400  -32.2820 C   0  0  0  0  0  0  0  0  0  0  0  0
   -8.8370   21.7170  -31.7190 C   0  0  0  0  0  0  0  0  0  0  0  0
   -7.6960   22.4730  -31.4780 C   0  0  0  0  0  0  0  0  0  0  0  0
   -7.5710   23.7450  -30.9680 C   0  0  0  0  0  0  0  0  0  0  0  0
   -6.2020   24.0050  -30.9570 C   0  0  0  0  0  0  0  0  0  0  0  0
   -5.6020   25.2380  -30.3980 C   0  0  0  0  0  0  0  0  0  0  0  0
   -4.2650   25.6140  -30.7310 N   0  0  0  0  0  0  0  0  0  0  0  0
   -6.2800   25.9850  -29.6440 O   0  0  0  0  0  0  0  0  0  0  0  0
   -5.5090   22.9360  -31.4450 N   0  0  0  0  0  0  0  0  0  0  0  0
   -4.0890   22.8310  -31.6520 C   0  0  0  0  0  0  0  0  0  0  0  0
   -3.2860   23.2780  -30.7920 O   0  0  0  0  0  0  0  0  0  0  0  0
   -3.5890   22.2490  -32.8100 O   0  0  0  0  0  0  0  0  0  0  0  0
   -6.4390   22.0070  -31.7600 C   0  0  0  0  0  0  0  0  0  0  0  0
   -6.2490   20.7460  -32.3370 C   0  0  0  0  0  0  0  0  0  0  0  0
   -3.1657   19.0318  -32.5327 H   0  0  0  0  0  0  0  0  0  0  0  0
   -2.1695   18.9712  -34.0262 H   0  0  0  0  0  0  0  0  0  0  0  0
   -3.7353   19.8515  -34.0262 H   0  0  0  0  0  0  0  0  0  0  0  0
   -6.5158   16.7143  -32.8093 H   0  0  0  0  0  0  0  0  0  0  0  0
   -5.5585   18.0800  -32.1218 H   0  0  0  0  0  0  0  0  0  0  0  0
   -8.0420   18.3000  -33.8170 H   0  0  0  0  0  0  0  0  0  0  0  0
   -9.5615   19.8169  -32.4762 H   0  0  0  0  0  0  0  0  0  0  0  0
   -9.8365   22.1069  -31.4761 H   0  0  0  0  0  0  0  0  0  0  0  0
   -8.3797   24.4142  -30.6390 H   0  0  0  0  0  0  0  0  0  0  0  0
   -3.8650   26.5060  -30.3640 H   0  0  0  0  0  0  0  0  0  0  0  0
   -3.6540   24.9950  -31.3080 H   0  0  0  0  0  0  0  0  0  0  0  0
   -5.2385   20.3850  -32.5788 H   0  0  0  0  0  0  0  0  0  0  0  0
  1  2  1  0
  2  3  1  0
  3  4  2  0
  3  5  1  0
  5  6  1  0
  6  7  1  0
  7  8  2  0
  8  9  1  0
  9 10  2  0
 10 11  1  0
 11 12  2  0
 12 13  1  0
 13 14  1  0
 13 15  2  0
 12 16  1  0
 16 17  1  0
 17 18  2  0
 17 19  1  0
 16 20  1  0
 20 21  2  0
 21  7  1  0
 20 10  1  0
  1 22  1  0
  1 23  1  0
  1 24  1  0
  5 25  1  0
  5 26  1  0
  6 27  1  0
  8 28  1  0
  9 29  1  0
 11 30  1  0
 14 31  1  0
 14 32  1  0
 21 33  1  0
M  CHG  1  19  -1
M  END
>  <UniqueID>  (34) 
34

>  <SMILES>  (34) 
COC(=O)CNc1ccc2cc(C(N)=O)n(C(=O)[O-])c2c1

>  <Energy>  (34) 
68.67116365207852

>  <Genealogy>  (34) 
COC(=O)CNc1ccc2cc(C(N)=O)n(C(=O)[O-])c2c1 (protonated)
COC(=O)CNc1ccc2cc(C(N)=O)n(C(=O)[O-])c2c1 (3D coordinates assigned)
COC(=O)CNc1ccc2cc(C(N)=O)n(C(=O)[O-])c2c1 (optimized conformer: 68.67116365207852 kcal/mol)

>  <smiles>  (34) 
COC(=O)CNc1ccc2cc(C(N)=O)n(C(=O)O)c2c1

>  <score_type>  (34) 
oracle

>  <origin>  (34) 
adg

>  <m_score__min__energy>  (34) 
-8.0099999999999998

>  <m_primary>  (34) 
energy

$$$$
35:0
     RDKit          3D

 59 62  0  0  0  0  0  0  0  0999 V2000
   -4.0950   16.3170  -32.9760 C   0  0  0  0  0  0  0  0  0  0  0  0
   -4.2070   17.0940  -34.3010 C   0  0  0  0  0  0  0  0  0  0  0  0
   -3.4850   16.3470  -35.4330 C   0  0  0  0  0  0  0  0  0  0  0  0
   -3.5540   18.4730  -34.1240 C   0  0  0  0  0  0  0  0  0  0  0  0
   -5.5810   17.3170  -34.6380 O   0  0  0  0  0  0  0  0  0  0  0  0
   -6.6780   17.2660  -33.7610 C   0  0  0  0  0  0  0  0  0  0  0  0
   -7.2200   16.1610  -33.4810 O   0  0  0  0  0  0  0  0  0  0  0  0
   -7.1890   18.4870  -33.1780 N   0  0  0  0  0  0  0  0  0  0  0  0
   -8.5480   18.4990  -32.5870 C   0  0  0  0  0  0  0  0  0  0  0  0
   -8.6070   19.3870  -31.3270 C   0  0  0  0  0  0  0  0  0  0  0  0
   -7.9030   20.6780  -31.5800 C   0  0  0  0  0  0  0  0  0  0  0  0
   -8.0270   21.8090  -30.8590 N   0  0  0  0  0  0  0  0  0  0  0  0
   -7.1620   22.6800  -31.3670 N   0  0  0  0  0  0  0  0  0  0  0  0
   -6.9690   24.0320  -30.8480 C   0  0  0  0  0  0  0  0  0  0  0  0
   -5.5190   24.4890  -31.0400 C   0  0  0  0  0  0  0  0  0  0  0  0
   -4.6010   23.8760  -30.0110 C   0  0  0  0  0  0  0  0  0  0  0  0
   -4.7290   22.5090  -29.6710 C   0  0  0  0  0  0  0  0  0  0  0  0
   -3.8640   21.9250  -28.7340 C   0  0  0  0  0  0  0  0  0  0  0  0
   -2.8750   22.7250  -28.1670 C   0  0  0  0  0  0  0  0  0  0  0  0
   -1.9270   22.4080  -27.2250 C   0  0  0  0  0  0  0  0  0  0  0  0
   -1.1990   23.5730  -27.0320 C   0  0  0  0  0  0  0  0  0  0  0  0
   -0.0710   23.6660  -26.0900 C   0  0  0  0  0  0  0  0  0  0  0  0
   -0.0980   24.5970  -25.0030 N   0  0  0  0  0  0  0  0  0  0  0  0
    0.9590   22.9570  -26.2850 O   0  0  0  0  0  0  0  0  0  0  0  0
   -1.6790   24.5870  -27.8080 N   0  0  0  0  0  0  0  0  0  0  0  0
   -1.2460   25.9670  -27.8010 C   0  0  0  0  0  0  0  0  0  0  0  0
   -0.8410   26.5090  -26.7420 O   0  0  0  0  0  0  0  0  0  0  0  0
   -1.2380   26.7190  -28.9700 O   0  0  0  0  0  0  0  0  0  0  0  0
   -2.7140   24.0450  -28.5010 C   0  0  0  0  0  0  0  0  0  0  0  0
   -3.5790   24.6560  -29.4240 C   0  0  0  0  0  0  0  0  0  0  0  0
   -6.4690   22.1160  -32.3820 C   0  0  0  0  0  0  0  0  0  0  0  0
   -6.9210   20.8240  -32.5230 C   0  0  0  0  0  0  0  0  0  0  0  0
   -6.5240   19.7670  -33.5000 C   0  0  0  0  0  0  0  0  0  0  0  0
   -4.1956   17.0151  -32.1319 H   0  0  0  0  0  0  0  0  0  0  0  0
   -4.8936   15.5623  -32.9249 H   0  0  0  0  0  0  0  0  0  0  0  0
   -3.1157   15.8186  -32.9249 H   0  0  0  0  0  0  0  0  0  0  0  0
   -2.7817   15.6193  -35.0019 H   0  0  0  0  0  0  0  0  0  0  0  0
   -4.2240   15.8192  -36.0538 H   0  0  0  0  0  0  0  0  0  0  0  0
   -2.9324   17.0676  -36.0538 H   0  0  0  0  0  0  0  0  0  0  0  0
   -3.4493   18.6942  -33.0516 H   0  0  0  0  0  0  0  0  0  0  0  0
   -2.5608   18.4718  -34.5968 H   0  0  0  0  0  0  0  0  0  0  0  0
   -4.1843   19.2406  -34.5968 H   0  0  0  0  0  0  0  0  0  0  0  0
   -9.2585   18.8870  -33.3317 H   0  0  0  0  0  0  0  0  0  0  0  0
   -8.8083   17.4702  -32.2975 H   0  0  0  0  0  0  0  0  0  0  0  0
   -9.6579   19.5888  -31.0723 H   0  0  0  0  0  0  0  0  0  0  0  0
   -8.1152   18.8645  -30.4933 H   0  0  0  0  0  0  0  0  0  0  0  0
   -7.6381   24.7221  -31.3829 H   0  0  0  0  0  0  0  0  0  0  0  0
   -7.1981   24.0318  -29.7721 H   0  0  0  0  0  0  0  0  0  0  0  0
   -5.1806   24.1901  -32.0431 H   0  0  0  0  0  0  0  0  0  0  0  0
   -5.4851   25.5822  -30.9227 H   0  0  0  0  0  0  0  0  0  0  0  0
   -5.5126   21.8995  -30.1449 H   0  0  0  0  0  0  0  0  0  0  0  0
   -3.9639   20.8657  -28.4550 H   0  0  0  0  0  0  0  0  0  0  0  0
   -1.7770   21.4375  -26.7294 H   0  0  0  0  0  0  0  0  0  0  0  0
    0.6810   24.6090  -24.3070 H   0  0  0  0  0  0  0  0  0  0  0  0
   -0.8560   25.3200  -24.9280 H   0  0  0  0  0  0  0  0  0  0  0  0
   -3.4634   25.7185  -29.6842 H   0  0  0  0  0  0  0  0  0  0  0  0
   -5.6871   22.6012  -32.9846 H   0  0  0  0  0  0  0  0  0  0  0  0
   -6.8165   20.0820  -34.5125 H   0  0  0  0  0  0  0  0  0  0  0  0
   -5.4346   19.6247  -33.4464 H   0  0  0  0  0  0  0  0  0  0  0  0
  1  2  1  0
  2  3  1  0
  2  4  1  0
  2  5  1  0
  5  6  1  0
  6  7  2  0
  6  8  1  0
  8  9  1  0
  9 10  1  0
 10 11  1  0
 11 12  2  0
 12 13  1  0
 13 14  1  0
 14 15  1  0
 15 16  1  0
 16 17  2  0
 17 18  1  0
 18 19  2  0
 19 20  1  0
 20 21  2  0
 21 22  1  0
 22 23  1  0
 22 24  2  0
 21 25  1  0
 25 26  1  0
 26 27  2  0
 26 28  1  0
 25 29  1  0
 29 30  2  0
 13 31  1  0
 31 32  2  0
 32 33  1  0
 33  8  1  0
 32 11  1  0
 30 16  1  0
 29 19  1  0
  1 34  1  0
  1 35  1  0
  1 36  1  0
  3 37  1  0
  3 38  1  0
  3 39  1  0
  4 40  1  0
  4 41  1  0
  4 42  1  0
  9 43  1  0
  9 44  1  0
 10 45  1  0
 10 46  1  0
 14 47  1  0
 14 48  1  0
 15 49  1  0
 15 50  1  0
 17 51  1  0
 18 52  1  0
 20 53  1  0
 23 54  1  0
 23 55  1  0
 30 56  1  0
 31 57  1  0
 33 58  1  0
 33 59  1  0
M  CHG  1  28  -1
M  END
>  <UniqueID>  (35) 
35

>  <SMILES>  (35) 
CC(C)(C)OC(=O)N1CCc2nn(CCc3ccc4cc(C(N)=O)n(C(=O)[O-])c4c3)cc2C1

>  <Energy>  (35) 
127.07532838282228

>  <Genealogy>  (35) 
CC(C)(C)OC(=O)N1CCc2nn(CCc3ccc4cc(C(N)=O)n(C(=O)[O-])c4c3)cc2C1 (protonated)
CC(C)(C)OC(=O)N1CCc2nn(CCc3ccc4cc(C(N)=O)n(C(=O)[O-])c4c3)cc2C1 (3D coordinates assigned)
CC(C)(C)OC(=O)N1CCc2nn(CCc3ccc4cc(C(N)=O)n(C(=O)[O-])c4c3)cc2C1 (nonaromatic ring conformer: 127.07532838282228 kcal/mol)

>  <smiles>  (35) 
CC(C)(C)OC(=O)N1CCc2nn(CCc3ccc4cc(C(N)=O)n(C(=O)O)c4c3)cc2C1

>  <score_type>  (35) 
oracle

>  <origin>  (35) 
adg

>  <m_score__min__energy>  (35) 
-10.779999999999999

>  <m_primary>  (35) 
energy

$$$$
36:0
     RDKit          3D

 43 44  0  0  0  0  0  0  0  0999 V2000
   -6.2940   17.6610  -33.8160 C   0  0  0  0  0  0  0  0  0  0  0  0
   -6.3590   18.1510  -32.4330 N   0  0  0  0  0  0  0  0  0  0  0  0
   -6.1600   17.1920  -31.3360 C   0  0  0  0  0  0  0  0  0  0  0  0
   -6.6020   19.5600  -32.1530 C   0  0  0  0  0  0  0  0  0  0  0  0
   -7.8850   20.1400  -32.3810 C   0  0  0  0  0  0  0  0  0  0  0  0
   -8.1240   21.5030  -32.1260 C   0  0  0  0  0  0  0  0  0  0  0  0
   -7.0760   22.2700  -31.6410 C   0  0  0  0  0  0  0  0  0  0  0  0
   -7.0240   23.6130  -31.3440 C   0  0  0  0  0  0  0  0  0  0  0  0
   -5.7200   23.8430  -30.9110 C   0  0  0  0  0  0  0  0  0  0  0  0
   -5.2440   25.1550  -30.4210 C   0  0  0  0  0  0  0  0  0  0  0  0
   -3.9740   25.6690  -30.8170 N   0  0  0  0  0  0  0  0  0  0  0  0
   -5.9580   25.8230  -29.6220 O   0  0  0  0  0  0  0  0  0  0  0  0
   -4.9970   22.6890  -30.9410 N   0  0  0  0  0  0  0  0  0  0  0  0
   -3.6020   22.5220  -30.6520 C   0  0  0  0  0  0  0  0  0  0  0  0
   -2.7500   23.2470  -31.2350 O   0  0  0  0  0  0  0  0  0  0  0  0
   -3.2030   21.5720  -29.7040 O   0  0  0  0  0  0  0  0  0  0  0  0
   -1.8790   21.1780  -29.4770 C   0  0  0  0  0  0  0  0  0  0  0  0
   -1.5150   19.9840  -29.6460 O   0  0  0  0  0  0  0  0  0  0  0  0
   -0.8980   22.1780  -28.9500 C   0  0  0  0  0  0  0  0  0  0  0  0
   -1.2760   22.6230  -27.5280 C   0  0  0  0  0  0  0  0  0  0  0  0
   -1.9440   24.0040  -27.4960 C   0  0  0  0  0  0  0  0  0  0  0  0
   -0.8030   25.3820  -27.8210 S   0  0  0  0  0  0  0  0  0  0  0  0
    0.5260   24.7060  -28.1340 O   0  0  0  0  0  0  0  0  0  0  0  0
   -1.2810   26.0390  -29.3170 O   0  0  0  0  0  0  0  0  0  0  0  0
   -5.8410   21.7370  -31.3920 C   0  0  0  0  0  0  0  0  0  0  0  0
   -5.5650   20.3910  -31.6530 C   0  0  0  0  0  0  0  0  0  0  0  0
   -6.1493   16.5706  -33.8122 H   0  0  0  0  0  0  0  0  0  0  0  0
   -7.2323   17.9046  -34.3358 H   0  0  0  0  0  0  0  0  0  0  0  0
   -5.4516   18.1408  -34.3358 H   0  0  0  0  0  0  0  0  0  0  0  0
   -6.2676   17.7104  -30.3718 H   0  0  0  0  0  0  0  0  0  0  0  0
   -6.9112   16.3917  -31.4078 H   0  0  0  0  0  0  0  0  0  0  0  0
   -5.1524   16.7566  -31.4078 H   0  0  0  0  0  0  0  0  0  0  0  0
   -8.7022   19.5105  -32.7630 H   0  0  0  0  0  0  0  0  0  0  0  0
   -9.1140   21.9472  -32.3063 H   0  0  0  0  0  0  0  0  0  0  0  0
   -7.8381   24.3477  -31.4301 H   0  0  0  0  0  0  0  0  0  0  0  0
   -3.0900   25.2740  -30.4290 H   0  0  0  0  0  0  0  0  0  0  0  0
    0.1036   21.7237  -28.9306 H   0  0  0  0  0  0  0  0  0  0  0  0
   -0.9083   23.0596  -29.6078 H   0  0  0  0  0  0  0  0  0  0  0  0
   -1.9724   21.8856  -27.1022 H   0  0  0  0  0  0  0  0  0  0  0  0
   -0.3465   22.6906  -26.9436 H   0  0  0  0  0  0  0  0  0  0  0  0
   -2.7364   24.0232  -28.2587 H   0  0  0  0  0  0  0  0  0  0  0  0
   -2.3346   24.1463  -26.4776 H   0  0  0  0  0  0  0  0  0  0  0  0
   -4.5596   19.9823  -31.4736 H   0  0  0  0  0  0  0  0  0  0  0  0
  1  2  1  0
  2  3  1  0
  2  4  1  0
  4  5  2  0
  5  6  1  0
  6  7  2  0
  7  8  1  0
  8  9  2  0
  9 10  1  0
 10 11  1  0
 10 12  2  0
  9 13  1  0
 13 14  1  0
 14 15  2  0
 14 16  1  0
 16 17  1  0
 17 18  2  0
 17 19  1  0
 19 20  1  0
 20 21  1  0
 21 22  1  0
 22 23  2  0
 22 24  1  6
 13 25  1  0
 25 26  2  0
 26  4  1  0
 25  7  1  0
  1 27  1  0
  1 28  1  0
  1 29  1  0
  3 30  1  0
  3 31  1  0
  3 32  1  0
  5 33  1  0
  6 34  1  0
  8 35  1  0
 11 36  1  0
 19 37  1  0
 19 38  1  0
 20 39  1  0
 20 40  1  0
 21 41  1  0
 21 42  1  0
 26 43  1  0
M  CHG  2  11  -1  24  -1
M  END
>  <UniqueID>  (36) 
36

>  <SMILES>  (36) 
CN(C)c1ccc2cc(C([NH-])=O)n(C(=O)OC(=O)CCC[S@@](=O)[O-])c2c1

>  <Energy>  (36) 
79.35264140825026

>  <Genealogy>  (36) 
CN(C)c1ccc2cc(C([NH-])=O)n(C(=O)OC(=O)CCCS(=O)[O-])c2c1 (protonated)
CN(C)c1ccc2cc(C([NH-])=O)n(C(=O)OC(=O)CCC[S@@](=O)[O-])c2c1 (chirality)
CN(C)c1ccc2cc(C([NH-])=O)n(C(=O)OC(=O)CCC[S@@](=O)[O-])c2c1 (3D coordinates assigned)
CN(C)c1ccc2cc(C([NH-])=O)n(C(=O)OC(=O)CCC[S@@](=O)[O-])c2c1 (optimized conformer: 79.35264140825026 kcal/mol)

>  <smiles>  (36) 
CN(C)c1ccc2cc(C(N)=O)n(C(=O)OC(=O)CCCS(=O)O)c2c1

>  <score_type>  (36) 
oracle

>  <origin>  (36) 
adg

>  <m_score__min__energy>  (36) 
-13.67

>  <m_primary>  (36) 
energy

$$$$
37:0
     RDKit          3D

 29 30  0  0  0  0  0  0  0  0999 V2000
   -4.5020   25.6900  -30.8290 N   0  0  0  0  0  0  0  0  0  0  0  0
   -5.7640   25.1020  -30.5290 C   0  0  0  0  0  0  0  0  0  0  0  0
   -6.5700   25.7200  -29.7840 O   0  0  0  0  0  0  0  0  0  0  0  0
   -6.1310   23.7680  -31.0550 C   0  0  0  0  0  0  0  0  0  0  0  0
   -7.4240   23.4200  -31.4420 C   0  0  0  0  0  0  0  0  0  0  0  0
   -7.3490   22.1000  -31.8240 C   0  0  0  0  0  0  0  0  0  0  0  0
   -8.3380   21.2460  -32.3040 C   0  0  0  0  0  0  0  0  0  0  0  0
   -7.9670   19.9340  -32.6450 C   0  0  0  0  0  0  0  0  0  0  0  0
   -6.6180   19.5070  -32.5280 C   0  0  0  0  0  0  0  0  0  0  0  0
   -6.2410   18.0860  -32.8610 C   0  0  0  0  0  0  0  0  0  0  0  0
   -5.6810   18.0120  -34.1250 F   0  0  0  0  0  0  0  0  0  0  0  0
   -5.3230   17.6300  -31.9350 F   0  0  0  0  0  0  0  0  0  0  0  0
   -7.3550   17.2660  -32.8360 F   0  0  0  0  0  0  0  0  0  0  0  0
   -5.6470   20.3990  -32.0170 C   0  0  0  0  0  0  0  0  0  0  0  0
   -6.0510   21.6930  -31.6670 C   0  0  0  0  0  0  0  0  0  0  0  0
   -5.2920   22.7040  -31.1920 N   0  0  0  0  0  0  0  0  0  0  0  0
   -3.8780   22.6630  -30.9520 C   0  0  0  0  0  0  0  0  0  0  0  0
   -3.0890   22.4250  -31.9050 O   0  0  0  0  0  0  0  0  0  0  0  0
   -3.3290   22.9410  -29.5850 C   0  0  0  0  0  0  0  0  0  0  0  0
   -2.1490   23.8510  -29.6870 C   0  0  0  0  0  0  0  0  0  0  0  0
   -1.0250   23.3950  -30.0260 O   0  0  0  0  0  0  0  0  0  0  0  0
   -2.2750   25.1940  -29.3580 O   0  0  0  0  0  0  0  0  0  0  0  0
   -3.8790   26.0410  -30.0690 H   0  0  0  0  0  0  0  0  0  0  0  0
   -8.3157   24.0641  -31.4421 H   0  0  0  0  0  0  0  0  0  0  0  0
   -9.3779   21.5875  -32.4131 H   0  0  0  0  0  0  0  0  0  0  0  0
   -8.7307   19.2298  -33.0067 H   0  0  0  0  0  0  0  0  0  0  0  0
   -4.5999   20.0839  -31.8974 H   0  0  0  0  0  0  0  0  0  0  0  0
   -4.1060   23.4186  -28.9700 H   0  0  0  0  0  0  0  0  0  0  0  0
   -3.0172   21.9940  -29.1203 H   0  0  0  0  0  0  0  0  0  0  0  0
  1  2  1  0
  2  3  2  0
  2  4  1  0
  4  5  2  0
  5  6  1  0
  6  7  2  0
  7  8  1  0
  8  9  2  0
  9 10  1  0
 10 11  1  0
 10 12  1  0
 10 13  1  0
  9 14  1  0
 14 15  2  0
 15 16  1  0
 16 17  1  0
 17 18  2  0
 17 19  1  0
 19 20  1  0
 20 21  2  0
 20 22  1  0
 16  4  1  0
 15  6  1  0
  1 23  1  0
  5 24  1  0
  7 25  1  0
  8 26  1  0
 14 27  1  0
 19 28  1  0
 19 29  1  0
M  CHG  2   1  -1  22  -1
M  END
>  <UniqueID>  (37) 
37

>  <SMILES>  (37) 
[NH-]C(=O)c1cc2ccc(C(F)(F)F)cc2n1C(=O)CC(=O)[O-]

>  <Energy>  (37) 
67.88307803636722

>  <Genealogy>  (37) 
[NH-]C(=O)c1cc2ccc(C(F)(F)F)cc2n1C(=O)CC(=O)[O-] (protonated)
[NH-]C(=O)c1cc2ccc(C(F)(F)F)cc2n1C(=O)CC(=O)[O-] (3D coordinates assigned)
[NH-]C(=O)c1cc2ccc(C(F)(F)F)cc2n1C(=O)CC(=O)[O-] (optimized conformer: 67.88307803636722 kcal/mol)

>  <smiles>  (37) 
NC(=O)c1cc2ccc(C(F)(F)F)cc2n1C(=O)CC(=O)O

>  <score_type>  (37) 
oracle

>  <origin>  (37) 
adg

>  <m_score__min__energy>  (37) 
-10.970000000000001

>  <m_primary>  (37) 
energy

$$$$
38:0
     RDKit          3D

 41 42  0  0  0  0  0  0  0  0999 V2000
   -0.4590   22.0650  -30.1530 C   0  0  0  0  0  0  0  0  0  0  0  0
   -0.7090   23.3980  -29.7260 O   0  0  0  0  0  0  0  0  0  0  0  0
   -1.9670   23.8270  -29.2960 C   0  0  0  0  0  0  0  0  0  0  0  0
   -2.2860   25.0470  -29.3590 O   0  0  0  0  0  0  0  0  0  0  0  0
   -2.9310   22.8300  -28.7230 C   0  0  1  0  0  0  0  0  0  0  0  0
   -4.0470   23.5490  -27.9730 C   0  0  0  0  0  0  0  0  0  0  0  0
   -3.5000   22.0350  -29.7630 O   0  0  0  0  0  0  0  0  0  0  0  0
   -3.9580   22.5630  -30.9750 C   0  0  0  0  0  0  0  0  0  0  0  0
   -3.1370   22.8860  -31.8780 O   0  0  0  0  0  0  0  0  0  0  0  0
   -5.3670   22.7410  -31.1910 N   0  0  0  0  0  0  0  0  0  0  0  0
   -6.1200   23.8390  -30.9020 C   0  0  0  0  0  0  0  0  0  0  0  0
   -5.6040   25.1480  -30.4520 C   0  0  0  0  0  0  0  0  0  0  0  0
   -4.2370   25.5110  -30.6450 N   0  0  0  0  0  0  0  0  0  0  0  0
   -6.3970   25.9820  -29.9380 O   0  0  0  0  0  0  0  0  0  0  0  0
   -7.4690   23.5870  -31.1350 C   0  0  0  0  0  0  0  0  0  0  0  0
   -7.5210   22.2900  -31.5930 C   0  0  0  0  0  0  0  0  0  0  0  0
   -8.6180   21.5170  -31.9640 C   0  0  0  0  0  0  0  0  0  0  0  0
   -8.3830   20.1890  -32.3610 C   0  0  0  0  0  0  0  0  0  0  0  0
   -7.0700   19.6660  -32.3680 C   0  0  0  0  0  0  0  0  0  0  0  0
   -6.8440   18.3000  -32.7610 C   0  0  0  0  0  0  0  0  0  0  0  0
   -6.6540   17.1560  -33.0900 C   0  0  0  0  0  0  0  0  0  0  0  0
   -6.4240   15.7640  -33.4880 C   0  0  0  0  0  0  0  0  0  0  0  0
   -7.2280   15.4410  -34.5880 O   0  0  0  0  0  0  0  0  0  0  0  0
   -5.9810   20.4740  -31.9860 C   0  0  0  0  0  0  0  0  0  0  0  0
   -6.2400   21.8000  -31.6150 C   0  0  0  0  0  0  0  0  0  0  0  0
   -0.3371   21.4151  -29.2739 H   0  0  0  0  0  0  0  0  0  0  0  0
   -1.3060   21.7087  -30.7577 H   0  0  0  0  0  0  0  0  0  0  0  0
    0.4595   22.0399  -30.7577 H   0  0  0  0  0  0  0  0  0  0  0  0
   -2.3819   22.1787  -28.0271 H   0  0  0  0  0  0  0  0  0  0  0  0
   -3.8865   23.4456  -26.8897 H   0  0  0  0  0  0  0  0  0  0  0  0
   -4.0434   24.6151  -28.2441 H   0  0  0  0  0  0  0  0  0  0  0  0
   -5.0162   23.1050  -28.2441 H   0  0  0  0  0  0  0  0  0  0  0  0
   -3.5970   24.9180  -31.2190 H   0  0  0  0  0  0  0  0  0  0  0  0
   -3.8820   26.4240  -30.2850 H   0  0  0  0  0  0  0  0  0  0  0  0
   -8.3128   24.2766  -30.9852 H   0  0  0  0  0  0  0  0  0  0  0  0
   -9.6365   21.9323  -31.9470 H   0  0  0  0  0  0  0  0  0  0  0  0
   -9.2263   19.5530  -32.6681 H   0  0  0  0  0  0  0  0  0  0  0  0
   -5.3660   15.6328  -33.7591 H   0  0  0  0  0  0  0  0  0  0  0  0
   -6.6789   15.1015  -32.6477 H   0  0  0  0  0  0  0  0  0  0  0  0
   -7.2900   14.4500  -34.6150 H   0  0  0  0  0  0  0  0  0  0  0  0
   -4.9560   20.0750  -31.9792 H   0  0  0  0  0  0  0  0  0  0  0  0
  1  2  1  0
  2  3  1  0
  3  4  2  0
  3  5  1  0
  5  6  1  0
  5  7  1  0
  7  8  1  0
  8  9  2  0
  8 10  1  0
 10 11  1  0
 11 12  1  0
 12 13  1  0
 12 14  2  0
 11 15  2  0
 15 16  1  0
 16 17  2  0
 17 18  1  0
 18 19  2  0
 19 20  1  0
 20 21  3  0
 21 22  1  0
 22 23  1  0
 19 24  1  0
 24 25  2  0
 25 10  1  0
 25 16  1  0
  1 26  1  0
  1 27  1  0
  1 28  1  0
  5 29  1  1
  6 30  1  0
  6 31  1  0
  6 32  1  0
 13 33  1  0
 13 34  1  0
 15 35  1  0
 17 36  1  0
 18 37  1  0
 22 38  1  0
 22 39  1  0
 23 40  1  0
 24 41  1  0
M  END
>  <UniqueID>  (38) 
38

>  <SMILES>  (38) 
COC(=O)[C@@H](C)OC(=O)n1c(C(N)=O)cc2ccc(C#CCO)cc21

>  <Energy>  (38) 
68.30763401335928

>  <Genealogy>  (38) 
COC(=O)[C@@H](C)OC(=O)n1c(C(N)=O)cc2ccc(C#CCO)cc21 (chirality)
COC(=O)[C@@H](C)OC(=O)n1c(C(N)=O)cc2ccc(C#CCO)cc21 (3D coordinates assigned)
COC(=O)[C@@H](C)OC(=O)n1c(C(N)=O)cc2ccc(C#CCO)cc21 (optimized conformer: 68.30763401335928 kcal/mol)

>  <smiles>  (38) 
COC(=O)C(C)OC(=O)n1c(C(N)=O)cc2ccc(C#CCO)cc21

>  <score_type>  (38) 
oracle

>  <origin>  (38) 
adg

>  <m_score__min__energy>  (38) 
-8.8599999999999994

>  <m_primary>  (38) 
energy

$$$$
39:0
     RDKit          3D

 24 25  0  0  0  0  0  0  0  0999 V2000
   -1.5990   25.6790  -28.9870 N   0  0  0  0  0  0  0  0  0  0  0  0
   -0.9770   24.4120  -29.1890 C   0  0  0  0  0  0  0  0  0  0  0  0
    0.1680   24.2040  -28.7090 O   0  0  0  0  0  0  0  0  0  0  0  0
   -1.6970   23.3470  -29.9170 C   0  0  0  0  0  0  0  0  0  0  0  0
   -1.1090   22.1420  -30.2940 C   0  0  0  0  0  0  0  0  0  0  0  0
   -2.0710   21.4780  -31.0200 C   0  0  0  0  0  0  0  0  0  0  0  0
   -2.0310   20.2220  -31.6160 C   0  0  0  0  0  0  0  0  0  0  0  0
   -3.1870   19.7680  -32.2740 C   0  0  0  0  0  0  0  0  0  0  0  0
   -4.3520   20.5750  -32.3330 C   0  0  0  0  0  0  0  0  0  0  0  0
   -5.6040   20.0500  -32.9880 C   0  0  0  0  0  0  0  0  0  0  0  0
   -5.2830   19.5160  -34.2220 F   0  0  0  0  0  0  0  0  0  0  0  0
   -6.1870   19.0630  -32.2090 F   0  0  0  0  0  0  0  0  0  0  0  0
   -6.5290   21.0650  -33.1610 F   0  0  0  0  0  0  0  0  0  0  0  0
   -4.3600   21.8360  -31.6920 C   0  0  0  0  0  0  0  0  0  0  0  0
   -3.1890   22.2700  -31.0600 C   0  0  0  0  0  0  0  0  0  0  0  0
   -2.9770   23.4220  -30.3840 N   0  0  0  0  0  0  0  0  0  0  0  0
   -3.9380   24.4640  -30.1490 C   0  0  0  0  0  0  0  0  0  0  0  0
   -4.8460   24.3100  -29.2890 O   0  0  0  0  0  0  0  0  0  0  0  0
   -3.8600   25.6630  -30.8470 O   0  0  0  0  0  0  0  0  0  0  0  0
   -2.6370   25.7830  -29.0510 H   0  0  0  0  0  0  0  0  0  0  0  0
   -0.0916   21.7948  -30.0609 H   0  0  0  0  0  0  0  0  0  0  0  0
   -1.1227   19.6030  -31.5737 H   0  0  0  0  0  0  0  0  0  0  0  0
   -3.1883   18.7756  -32.7486 H   0  0  0  0  0  0  0  0  0  0  0  0
   -5.2653   22.4608  -31.6903 H   0  0  0  0  0  0  0  0  0  0  0  0
  1  2  1  0
  2  3  2  0
  2  4  1  0
  4  5  2  0
  5  6  1  0
  6  7  2  0
  7  8  1  0
  8  9  2  0
  9 10  1  0
 10 11  1  0
 10 12  1  0
 10 13  1  0
  9 14  1  0
 14 15  2  0
 15 16  1  0
 16 17  1  0
 17 18  2  0
 17 19  1  0
 16  4  1  0
 15  6  1  0
  1 20  1  0
  5 21  1  0
  7 22  1  0
  8 23  1  0
 14 24  1  0
M  CHG  2   1  -1  19  -1
M  END
>  <UniqueID>  (39) 
39

>  <SMILES>  (39) 
[NH-]C(=O)c1cc2ccc(C(F)(F)F)cc2n1C(=O)[O-]

>  <Energy>  (39) 
64.66960724498672

>  <Genealogy>  (39) 
[NH-]C(=O)c1cc2ccc(C(F)(F)F)cc2n1C(=O)[O-] (protonated)
[NH-]C(=O)c1cc2ccc(C(F)(F)F)cc2n1C(=O)[O-] (3D coordinates assigned)
[NH-]C(=O)c1cc2ccc(C(F)(F)F)cc2n1C(=O)[O-] (optimized conformer: 64.66960724498672 kcal/mol)

>  <smiles>  (39) 
NC(=O)c1cc2ccc(C(F)(F)F)cc2n1C(=O)O

>  <score_type>  (39) 
oracle

>  <origin>  (39) 
adg

>  <m_score__min__energy>  (39) 
-9.5800000000000001

>  <m_primary>  (39) 
energy

$$$$
40:0
     RDKit          3D

 39 40  0  0  0  0  0  0  0  0999 V2000
   -3.7690   21.8360  -33.4120 C   0  0  0  0  0  0  0  0  0  0  0  0
   -3.4100   21.7690  -32.1320 C   0  0  0  0  0  0  0  0  0  0  0  0
   -4.0700   22.5670  -31.0800 C   0  0  0  0  0  0  0  0  0  0  0  0
   -3.3920   23.0620  -30.1370 O   0  0  0  0  0  0  0  0  0  0  0  0
   -5.4910   22.7640  -31.1080 N   0  0  0  0  0  0  0  0  0  0  0  0
   -6.1690   23.9220  -30.8710 C   0  0  0  0  0  0  0  0  0  0  0  0
   -5.5770   25.1810  -30.3700 C   0  0  0  0  0  0  0  0  0  0  0  0
   -4.2510   25.5760  -30.7330 N   0  0  0  0  0  0  0  0  0  0  0  0
   -6.2390   25.8990  -29.5730 O   0  0  0  0  0  0  0  0  0  0  0  0
   -7.5260   23.7640  -31.1430 C   0  0  0  0  0  0  0  0  0  0  0  0
   -7.6640   22.4570  -31.5520 C   0  0  0  0  0  0  0  0  0  0  0  0
   -8.7970   21.7650  -31.9740 C   0  0  0  0  0  0  0  0  0  0  0  0
   -8.6390   20.4310  -32.3850 C   0  0  0  0  0  0  0  0  0  0  0  0
   -7.3600   19.8210  -32.3830 C   0  0  0  0  0  0  0  0  0  0  0  0
   -7.1960   18.3840  -32.8020 C   0  0  0  0  0  0  0  0  0  0  0  0
   -6.0670   18.2590  -33.7920 C   0  0  0  0  0  0  0  0  0  0  0  0
   -6.0750   19.0200  -34.8000 O   0  0  0  0  0  0  0  0  0  0  0  0
   -4.9580   17.3520  -33.5910 N   0  0  0  0  0  0  0  0  0  0  0  0
   -3.7610   17.5030  -34.4260 C   0  0  0  0  0  0  0  0  0  0  0  0
   -5.0260   16.2730  -32.5990 C   0  0  0  0  0  0  0  0  0  0  0  0
   -6.2310   20.5590  -31.9600 C   0  0  0  0  0  0  0  0  0  0  0  0
   -6.4210   21.8760  -31.5270 C   0  0  0  0  0  0  0  0  0  0  0  0
   -3.2485   21.2224  -34.1621 H   0  0  0  0  0  0  0  0  0  0  0  0
   -4.5862   22.5049  -33.7197 H   0  0  0  0  0  0  0  0  0  0  0  0
   -2.5902   21.0931  -31.8472 H   0  0  0  0  0  0  0  0  0  0  0  0
   -3.6080   24.9220  -31.2290 H   0  0  0  0  0  0  0  0  0  0  0  0
   -3.8680   26.4880  -30.3990 H   0  0  0  0  0  0  0  0  0  0  0  0
   -8.3180   24.5218  -31.0507 H   0  0  0  0  0  0  0  0  0  0  0  0
   -9.7851   22.2483  -31.9851 H   0  0  0  0  0  0  0  0  0  0  0  0
   -9.5169   19.8542  -32.7116 H   0  0  0  0  0  0  0  0  0  0  0  0
   -6.9734   17.7701  -31.9168 H   0  0  0  0  0  0  0  0  0  0  0  0
   -8.1278   18.0377  -33.2729 H   0  0  0  0  0  0  0  0  0  0  0  0
   -2.8763   17.6146  -33.7819 H   0  0  0  0  0  0  0  0  0  0  0  0
   -3.6422   16.6127  -35.0611 H   0  0  0  0  0  0  0  0  0  0  0  0
   -3.8671   18.3949  -35.0611 H   0  0  0  0  0  0  0  0  0  0  0  0
   -4.9989   16.7031  -31.5869 H   0  0  0  0  0  0  0  0  0  0  0  0
   -5.9614   15.7100  -32.7332 H   0  0  0  0  0  0  0  0  0  0  0  0
   -4.1687   15.5970  -32.7332 H   0  0  0  0  0  0  0  0  0  0  0  0
   -5.2274   20.1089  -31.9710 H   0  0  0  0  0  0  0  0  0  0  0  0
  1  2  2  0
  2  3  1  0
  3  4  2  0
  3  5  1  0
  5  6  1  0
  6  7  1  0
  7  8  1  0
  7  9  2  0
  6 10  2  0
 10 11  1  0
 11 12  2  0
 12 13  1  0
 13 14  2  0
 14 15  1  0
 15 16  1  0
 16 17  2  0
 16 18  1  0
 18 19  1  0
 18 20  1  0
 14 21  1  0
 21 22  2  0
 22  5  1  0
 22 11  1  0
  1 23  1  0
  1 24  1  0
  2 25  1  0
  8 26  1  0
  8 27  1  0
 10 28  1  0
 12 29  1  0
 13 30  1  0
 15 31  1  0
 15 32  1  0
 19 33  1  0
 19 34  1  0
 19 35  1  0
 20 36  1  0
 20 37  1  0
 20 38  1  0
 21 39  1  0
M  END
>  <UniqueID>  (40) 
40

>  <SMILES>  (40) 
C=CC(=O)n1c(C(N)=O)cc2ccc(CC(=O)N(C)C)cc21

>  <Energy>  (40) 
74.54986913519042

>  <Genealogy>  (40) 
C=CC(=O)n1c(C(N)=O)cc2ccc(CC(=O)N(C)C)cc21 (3D coordinates assigned)
C=CC(=O)n1c(C(N)=O)cc2ccc(CC(=O)N(C)C)cc21 (optimized conformer: 74.54986913519042 kcal/mol)

>  <smiles>  (40) 
C=CC(=O)n1c(C(N)=O)cc2ccc(CC(=O)N(C)C)cc21

>  <score_type>  (40) 
oracle

>  <origin>  (40) 
adg

>  <m_score__min__energy>  (40) 
-9.0199999999999996

>  <m_primary>  (40) 
energy

$$$$
41:0
     RDKit          3D

 45 46  0  0  0  0  0  0  0  0999 V2000
   -3.8470   23.0290  -27.8480 C   0  0  0  0  0  0  0  0  0  0  0  0
   -3.2880   22.3470  -28.8450 C   0  0  0  0  0  0  0  0  0  0  0  0
   -3.5050   22.6830  -30.2660 C   0  0  0  0  0  0  0  0  0  0  0  0
   -2.5050   22.8810  -31.0040 O   0  0  0  0  0  0  0  0  0  0  0  0
   -4.8240   22.7570  -30.8320 N   0  0  0  0  0  0  0  0  0  0  0  0
   -5.6090   23.8580  -30.9960 C   0  0  0  0  0  0  0  0  0  0  0  0
   -5.2200   25.2490  -30.6800 C   0  0  0  0  0  0  0  0  0  0  0  0
   -3.8660   25.6630  -30.8420 N   0  0  0  0  0  0  0  0  0  0  0  0
   -6.0710   26.0720  -30.2500 O   0  0  0  0  0  0  0  0  0  0  0  0
   -6.8300   23.5040  -31.5670 C   0  0  0  0  0  0  0  0  0  0  0  0
   -6.7600   22.1430  -31.7620 C   0  0  0  0  0  0  0  0  0  0  0  0
   -7.6970   21.2610  -32.2930 C   0  0  0  0  0  0  0  0  0  0  0  0
   -7.3590   19.8980  -32.3510 C   0  0  0  0  0  0  0  0  0  0  0  0
   -6.0990   19.4450  -31.8870 C   0  0  0  0  0  0  0  0  0  0  0  0
   -5.7830   17.9730  -31.8800 C   0  0  0  0  0  0  0  0  0  0  0  0
   -6.2580   17.2820  -33.1650 C   0  0  0  0  0  0  0  0  0  0  0  0
   -5.0960   16.8660  -33.9870 N   0  0  0  0  0  0  0  0  0  0  0  0
   -5.3130   15.5300  -34.5690 C   0  0  0  0  0  0  0  0  0  0  0  0
   -3.8400   16.8930  -33.2040 C   0  0  0  0  0  0  0  0  0  0  0  0
   -2.9630   18.0230  -33.6470 C   0  0  0  0  0  0  0  0  0  0  0  0
   -1.7140   17.8670  -33.6980 O   0  0  0  0  0  0  0  0  0  0  0  0
   -3.5530   19.2620  -34.0520 N   0  0  0  0  0  0  0  0  0  0  0  0
   -2.9300   20.5500  -33.7850 C   0  0  0  0  0  0  0  0  0  0  0  0
   -5.1720   20.3700  -31.3580 C   0  0  0  0  0  0  0  0  0  0  0  0
   -5.5360   21.7190  -31.3150 C   0  0  0  0  0  0  0  0  0  0  0  0
   -3.6528   22.7373  -26.8053 H   0  0  0  0  0  0  0  0  0  0  0  0
   -4.5032   23.8843  -28.0667 H   0  0  0  0  0  0  0  0  0  0  0  0
   -2.6359   21.4959  -28.5994 H   0  0  0  0  0  0  0  0  0  0  0  0
   -3.1000   24.9630  -30.9580 H   0  0  0  0  0  0  0  0  0  0  0  0
   -7.6708   24.1703  -31.8102 H   0  0  0  0  0  0  0  0  0  0  0  0
   -8.6715   21.6196  -32.6559 H   0  0  0  0  0  0  0  0  0  0  0  0
   -8.0800   19.1754  -32.7608 H   0  0  0  0  0  0  0  0  0  0  0  0
   -4.6947   17.8429  -31.7872 H   0  0  0  0  0  0  0  0  0  0  0  0
   -6.3099   17.5143  -31.0303 H   0  0  0  0  0  0  0  0  0  0  0  0
   -6.8519   16.3945  -32.9012 H   0  0  0  0  0  0  0  0  0  0  0  0
   -6.8711   17.9879  -33.7445 H   0  0  0  0  0  0  0  0  0  0  0  0
   -5.4327   14.7931  -33.7611 H   0  0  0  0  0  0  0  0  0  0  0  0
   -6.2207   15.5437  -35.1902 H   0  0  0  0  0  0  0  0  0  0  0  0
   -4.4476   15.2557  -35.1902 H   0  0  0  0  0  0  0  0  0  0  0  0
   -4.0817   17.0201  -32.1384 H   0  0  0  0  0  0  0  0  0  0  0  0
   -3.3037   15.9460  -33.3640 H   0  0  0  0  0  0  0  0  0  0  0  0
   -2.8559   20.7032  -32.6982 H   0  0  0  0  0  0  0  0  0  0  0  0
   -1.9231   20.5690  -34.2275 H   0  0  0  0  0  0  0  0  0  0  0  0
   -3.5402   21.3512  -34.2275 H   0  0  0  0  0  0  0  0  0  0  0  0
   -4.1901   20.0379  -30.9898 H   0  0  0  0  0  0  0  0  0  0  0  0
  1  2  2  0
  2  3  1  0
  3  4  2  0
  3  5  1  0
  5  6  1  0
  6  7  1  0
  7  8  1  0
  7  9  2  0
  6 10  2  0
 10 11  1  0
 11 12  2  0
 12 13  1  0
 13 14  2  0
 14 15  1  0
 15 16  1  0
 16 17  1  0
 17 18  1  0
 17 19  1  0
 19 20  1  0
 20 21  2  0
 20 22  1  0
 22 23  1  0
 14 24  1  0
 24 25  2  0
 25  5  1  0
 25 11  1  0
  1 26  1  0
  1 27  1  0
  2 28  1  0
  8 29  1  0
 10 30  1  0
 12 31  1  0
 13 32  1  0
 15 33  1  0
 15 34  1  0
 16 35  1  0
 16 36  1  0
 18 37  1  0
 18 38  1  0
 18 39  1  0
 19 40  1  0
 19 41  1  0
 23 42  1  0
 23 43  1  0
 23 44  1  0
 24 45  1  0
M  CHG  2   8  -1  22  -1
M  END
>  <UniqueID>  (41) 
41

>  <SMILES>  (41) 
C=CC(=O)n1c(C([NH-])=O)cc2ccc(CCN(C)CC(=O)[N-]C)cc21

>  <Energy>  (41) 
77.56410174186472

>  <Genealogy>  (41) 
C=CC(=O)n1c(C([NH-])=O)cc2ccc(CCN(C)CC(=O)[N-]C)cc21 (protonated)
C=CC(=O)n1c(C([NH-])=O)cc2ccc(CCN(C)CC(=O)[N-]C)cc21 (3D coordinates assigned)
C=CC(=O)n1c(C([NH-])=O)cc2ccc(CCN(C)CC(=O)[N-]C)cc21 (optimized conformer: 77.56410174186472 kcal/mol)

>  <smiles>  (41) 
C=CC(=O)n1c(C(N)=O)cc2ccc(CCN(C)CC(=O)NC)cc21

>  <score_type>  (41) 
oracle

>  <origin>  (41) 
adg

>  <m_score__min__energy>  (41) 
-10.17

>  <m_primary>  (41) 
energy

$$$$
42:0
     RDKit          3D

 33 34  0  0  0  0  0  0  0  0999 V2000
   -3.0720   20.1830  -33.2520 C   0  0  0  0  0  0  0  0  0  0  0  0
   -3.5480   21.6210  -33.3700 C   0  0  0  0  0  0  0  0  0  0  0  0
   -3.1700   22.3430  -32.2020 O   0  0  0  0  0  0  0  0  0  0  0  0
   -3.9510   22.3710  -31.0430 C   0  0  0  0  0  0  0  0  0  0  0  0
   -3.4450   22.0710  -29.9270 O   0  0  0  0  0  0  0  0  0  0  0  0
   -5.3420   22.7150  -31.1300 N   0  0  0  0  0  0  0  0  0  0  0  0
   -5.9390   23.8920  -30.7840 C   0  0  0  0  0  0  0  0  0  0  0  0
   -5.2460   25.1350  -30.3870 C   0  0  0  0  0  0  0  0  0  0  0  0
   -3.8470   25.2990  -30.6070 N   0  0  0  0  0  0  0  0  0  0  0  0
   -5.9070   26.0860  -29.8910 O   0  0  0  0  0  0  0  0  0  0  0  0
   -7.3200   23.8030  -30.9380 C   0  0  0  0  0  0  0  0  0  0  0  0
   -7.5550   22.5280  -31.4020 C   0  0  0  0  0  0  0  0  0  0  0  0
   -8.7540   21.9000  -31.7260 C   0  0  0  0  0  0  0  0  0  0  0  0
   -8.7020   20.5650  -32.1620 C   0  0  0  0  0  0  0  0  0  0  0  0
   -7.4620   19.8830  -32.2480 C   0  0  0  0  0  0  0  0  0  0  0  0
   -7.4150   18.4620  -32.7350 C   0  0  0  0  0  0  0  0  0  0  0  0
   -6.3690   18.3170  -33.7940 C   0  0  0  0  0  0  0  0  0  0  0  0
   -6.0820   19.2920  -34.5380 O   0  0  0  0  0  0  0  0  0  0  0  0
   -5.7480   17.0910  -33.9950 O   0  0  0  0  0  0  0  0  0  0  0  0
   -6.2650   20.5570  -31.9200 C   0  0  0  0  0  0  0  0  0  0  0  0
   -6.3450   21.8920  -31.5080 C   0  0  0  0  0  0  0  0  0  0  0  0
   -2.9824   19.9124  -32.1896 H   0  0  0  0  0  0  0  0  0  0  0  0
   -3.7971   19.5155  -33.7405 H   0  0  0  0  0  0  0  0  0  0  0  0
   -2.0918   20.0800  -33.7405 H   0  0  0  0  0  0  0  0  0  0  0  0
   -3.0894   22.0878  -34.2542 H   0  0  0  0  0  0  0  0  0  0  0  0
   -4.6430   21.6377  -33.4733 H   0  0  0  0  0  0  0  0  0  0  0  0
   -3.4870   26.0440  -31.2430 H   0  0  0  0  0  0  0  0  0  0  0  0
   -8.0654   24.5854  -30.7325 H   0  0  0  0  0  0  0  0  0  0  0  0
   -9.7131   22.4323  -31.6433 H   0  0  0  0  0  0  0  0  0  0  0  0
   -9.6309   20.0450  -32.4388 H   0  0  0  0  0  0  0  0  0  0  0  0
   -7.1750   17.7963  -31.8928 H   0  0  0  0  0  0  0  0  0  0  0  0
   -8.3947   18.1929  -33.1568 H   0  0  0  0  0  0  0  0  0  0  0  0
   -5.2936   20.0451  -31.9867 H   0  0  0  0  0  0  0  0  0  0  0  0
  1  2  1  0
  2  3  1  0
  3  4  1  0
  4  5  2  0
  4  6  1  0
  6  7  1  0
  7  8  1  0
  8  9  1  0
  8 10  2  0
  7 11  2  0
 11 12  1  0
 12 13  2  0
 13 14  1  0
 14 15  2  0
 15 16  1  0
 16 17  1  0
 17 18  2  0
 17 19  1  0
 15 20  1  0
 20 21  2  0
 21  6  1  0
 21 12  1  0
  1 22  1  0
  1 23  1  0
  1 24  1  0
  2 25  1  0
  2 26  1  0
  9 27  1  0
 11 28  1  0
 13 29  1  0
 14 30  1  0
 16 31  1  0
 16 32  1  0
 20 33  1  0
M  CHG  2   9  -1  19  -1
M  END
>  <UniqueID>  (42) 
42

>  <SMILES>  (42) 
CCOC(=O)n1c(C([NH-])=O)cc2ccc(CC(=O)[O-])cc21

>  <Energy>  (42) 
65.6814333767295

>  <Genealogy>  (42) 
CCOC(=O)n1c(C([NH-])=O)cc2ccc(CC(=O)[O-])cc21 (protonated)
CCOC(=O)n1c(C([NH-])=O)cc2ccc(CC(=O)[O-])cc21 (3D coordinates assigned)
CCOC(=O)n1c(C([NH-])=O)cc2ccc(CC(=O)[O-])cc21 (optimized conformer: 65.6814333767295 kcal/mol)

>  <smiles>  (42) 
CCOC(=O)n1c(C(N)=O)cc2ccc(CC(=O)O)cc21

>  <score_type>  (42) 
oracle

>  <origin>  (42) 
adg

>  <m_score__min__energy>  (42) 
-9.6500000000000004

>  <m_primary>  (42) 
energy

$$$$
43:0
     RDKit          3D

 37 39  0  0  0  0  0  0  0  0999 V2000
   -5.0120   14.9270  -33.1180 C   0  0  0  0  0  0  0  0  0  0  0  0
   -5.4240   16.2870  -33.4370 N   0  0  0  0  0  0  0  0  0  0  0  0
   -5.5630   17.3050  -32.5680 C   0  0  0  0  0  0  0  0  0  0  0  0
   -6.0490   18.3780  -33.2970 C   0  0  0  0  0  0  0  0  0  0  0  0
   -6.3720   19.7350  -32.7940 C   0  0  0  0  0  0  0  0  0  0  0  0
   -7.7170   20.1950  -32.7710 C   0  0  0  0  0  0  0  0  0  0  0  0
   -8.0320   21.4750  -32.2870 C   0  0  0  0  0  0  0  0  0  0  0  0
   -6.9900   22.2800  -31.8400 C   0  0  0  0  0  0  0  0  0  0  0  0
   -7.0180   23.5460  -31.3030 C   0  0  0  0  0  0  0  0  0  0  0  0
   -5.6900   23.8590  -31.0240 C   0  0  0  0  0  0  0  0  0  0  0  0
   -5.2530   25.1750  -30.5110 C   0  0  0  0  0  0  0  0  0  0  0  0
   -3.9600   25.6730  -30.8440 N   0  0  0  0  0  0  0  0  0  0  0  0
   -5.9970   25.8510  -29.7530 O   0  0  0  0  0  0  0  0  0  0  0  0
   -4.8730   22.8220  -31.3690 N   0  0  0  0  0  0  0  0  0  0  0  0
   -3.4510   22.7230  -31.1940 C   0  0  0  0  0  0  0  0  0  0  0  0
   -2.7310   22.2740  -32.1270 O   0  0  0  0  0  0  0  0  0  0  0  0
   -2.8680   23.1510  -29.9950 O   0  0  0  0  0  0  0  0  0  0  0  0
   -1.4830   22.9990  -29.7000 C   0  0  0  0  0  0  0  0  0  0  0  0
   -0.9070   24.2980  -29.2320 C   0  0  0  0  0  0  0  0  0  0  0  0
    0.2660   24.3450  -28.7780 O   0  0  0  0  0  0  0  0  0  0  0  0
   -1.6780   25.4520  -29.2710 O   0  0  0  0  0  0  0  0  0  0  0  0
   -5.6860   21.8650  -31.8700 C   0  0  0  0  0  0  0  0  0  0  0  0
   -5.3420   20.5880  -32.3300 C   0  0  0  0  0  0  0  0  0  0  0  0
   -6.1960   17.9560  -34.5720 N   0  0  0  0  0  0  0  0  0  0  0  0
   -5.8220   16.6880  -34.6320 N   0  0  0  0  0  0  0  0  0  0  0  0
   -4.9741   14.8020  -32.0258 H   0  0  0  0  0  0  0  0  0  0  0  0
   -5.7349   14.2155  -33.5436 H   0  0  0  0  0  0  0  0  0  0  0  0
   -4.0158   14.7363  -33.5436 H   0  0  0  0  0  0  0  0  0  0  0  0
   -5.3357   17.2884  -31.4919 H   0  0  0  0  0  0  0  0  0  0  0  0
   -8.5212   19.5398  -33.1370 H   0  0  0  0  0  0  0  0  0  0  0  0
   -9.0727   21.8305  -32.2622 H   0  0  0  0  0  0  0  0  0  0  0  0
   -7.9020   24.1774  -31.1305 H   0  0  0  0  0  0  0  0  0  0  0  0
   -3.1010   25.2630  -30.4160 H   0  0  0  0  0  0  0  0  0  0  0  0
   -1.3608   22.2424  -28.9109 H   0  0  0  0  0  0  0  0  0  0  0  0
   -0.9555   22.6810  -30.6114 H   0  0  0  0  0  0  0  0  0  0  0  0
   -4.2937   20.2548  -32.3308 H   0  0  0  0  0  0  0  0  0  0  0  0
   -6.5630   18.4950  -35.3860 H   0  0  0  0  0  0  0  0  0  0  0  0
  1  2  1  0
  2  3  1  0
  3  4  2  0
  4  5  1  0
  5  6  2  0
  6  7  1  0
  7  8  2  0
  8  9  1  0
  9 10  2  0
 10 11  1  0
 11 12  1  0
 11 13  2  0
 10 14  1  0
 14 15  1  0
 15 16  2  0
 15 17  1  0
 17 18  1  0
 18 19  1  0
 19 20  2  0
 19 21  1  0
 14 22  1  0
 22 23  2  0
  4 24  1  0
 24 25  2  0
 25  2  1  0
 23  5  1  0
 22  8  1  0
  1 26  1  0
  1 27  1  0
  1 28  1  0
  3 29  1  0
  6 30  1  0
  7 31  1  0
  9 32  1  0
 12 33  1  0
 18 34  1  0
 18 35  1  0
 23 36  1  0
 24 37  1  0
M  CHG  3  12  -1  21  -1  24   1
M  END
>  <UniqueID>  (43) 
43

>  <SMILES>  (43) 
Cn1cc(-c2ccc3cc(C([NH-])=O)n(C(=O)OCC(=O)[O-])c3c2)[nH+]n1

>  <Energy>  (43) 
112.42241033170278

>  <Genealogy>  (43) 
Cn1cc(-c2ccc3cc(C([NH-])=O)n(C(=O)OCC(=O)[O-])c3c2)[nH+]n1 (protonated)
Cn1cc(-c2ccc3cc(C([NH-])=O)n(C(=O)OCC(=O)[O-])c3c2)[nH+]n1 (3D coordinates assigned)
Cn1cc(-c2ccc3cc(C([NH-])=O)n(C(=O)OCC(=O)[O-])c3c2)[nH+]n1 (optimized conformer: 112.42241033170278 kcal/mol)

>  <smiles>  (43) 
Cn1cc(-c2ccc3cc(C(N)=O)n(C(=O)OCC(=O)O)c3c2)nn1

>  <score_type>  (43) 
oracle

>  <origin>  (43) 
adg

>  <m_score__min__energy>  (43) 
-12.949999999999999

>  <m_primary>  (43) 
energy

$$$$
44:0
     RDKit          3D

 40 41  0  0  0  0  0  0  0  0999 V2000
   -6.6730   17.1240  -33.0610 C   0  0  0  0  0  0  0  0  0  0  0  0
   -6.8490   18.2670  -32.7230 C   0  0  0  0  0  0  0  0  0  0  0  0
   -7.0590   19.6330  -32.3190 C   0  0  0  0  0  0  0  0  0  0  0  0
   -8.3630   20.1790  -32.3330 C   0  0  0  0  0  0  0  0  0  0  0  0
   -8.5790   21.5150  -31.9550 C   0  0  0  0  0  0  0  0  0  0  0  0
   -7.4750   22.2680  -31.5610 C   0  0  0  0  0  0  0  0  0  0  0  0
   -7.3970   23.5880  -31.1800 C   0  0  0  0  0  0  0  0  0  0  0  0
   -6.0500   23.8120  -30.9110 C   0  0  0  0  0  0  0  0  0  0  0  0
   -5.5260   25.0960  -30.4040 C   0  0  0  0  0  0  0  0  0  0  0  0
   -4.2060   25.5340  -30.7230 N   0  0  0  0  0  0  0  0  0  0  0  0
   -6.2370   25.7920  -29.6290 O   0  0  0  0  0  0  0  0  0  0  0  0
   -5.3190   22.6830  -31.1300 N   0  0  0  0  0  0  0  0  0  0  0  0
   -3.8900   22.5410  -31.0710 C   0  0  0  0  0  0  0  0  0  0  0  0
   -3.1760   22.9710  -32.0200 O   0  0  0  0  0  0  0  0  0  0  0  0
   -3.2950   21.9250  -29.9650 O   0  0  0  0  0  0  0  0  0  0  0  0
   -1.9010   21.9970  -29.6850 C   0  0  0  0  0  0  0  0  0  0  0  0
   -1.4970   23.4120  -29.4170 C   0  0  0  0  0  0  0  0  0  0  0  0
   -0.2760   23.7240  -29.3980 O   0  0  0  0  0  0  0  0  0  0  0  0
   -2.4870   24.3760  -29.1960 O   0  0  0  0  0  0  0  0  0  0  0  0
   -3.1320   24.5700  -27.9370 C   0  0  0  0  0  0  0  0  0  0  0  0
   -4.1250   23.4350  -27.6690 C   0  0  0  0  0  0  0  0  0  0  0  0
   -2.0720   24.6220  -26.8400 C   0  0  0  0  0  0  0  0  0  0  0  0
   -6.2070   21.7430  -31.5240 C   0  0  0  0  0  0  0  0  0  0  0  0
   -5.9610   20.4220  -31.9170 C   0  0  0  0  0  0  0  0  0  0  0  0
   -6.5123   16.0805  -33.3696 H   0  0  0  0  0  0  0  0  0  0  0  0
   -9.2139   19.5540  -32.6418 H   0  0  0  0  0  0  0  0  0  0  0  0
   -9.5881   21.9526  -31.9697 H   0  0  0  0  0  0  0  0  0  0  0  0
   -8.2224   24.3112  -31.1043 H   0  0  0  0  0  0  0  0  0  0  0  0
   -3.5370   24.9050  -31.2180 H   0  0  0  0  0  0  0  0  0  0  0  0
   -3.8640   26.4630  -30.3900 H   0  0  0  0  0  0  0  0  0  0  0  0
   -1.6763   21.3820  -28.8011 H   0  0  0  0  0  0  0  0  0  0  0  0
   -1.3417   21.6244  -30.5558 H   0  0  0  0  0  0  0  0  0  0  0  0
   -3.6915   25.5170  -27.9504 H   0  0  0  0  0  0  0  0  0  0  0  0
   -4.2432   23.2999  -26.5838 H   0  0  0  0  0  0  0  0  0  0  0  0
   -5.0984   23.6864  -28.1154 H   0  0  0  0  0  0  0  0  0  0  0  0
   -3.7465   22.5036  -28.1154 H   0  0  0  0  0  0  0  0  0  0  0  0
   -2.5618   24.5980  -25.8554 H   0  0  0  0  0  0  0  0  0  0  0  0
   -1.4011   23.7557  -26.9370 H   0  0  0  0  0  0  0  0  0  0  0  0
   -1.4891   25.5498  -26.9370 H   0  0  0  0  0  0  0  0  0  0  0  0
   -4.9406   20.0111  -31.9124 H   0  0  0  0  0  0  0  0  0  0  0  0
  1  2  3  0
  2  3  1  0
  3  4  2  0
  4  5  1  0
  5  6  2  0
  6  7  1  0
  7  8  2  0
  8  9  1  0
  9 10  1  0
  9 11  2  0
  8 12  1  0
 12 13  1  0
 13 14  2  0
 13 15  1  0
 15 16  1  0
 16 17  1  0
 17 18  2  0
 17 19  1  0
 19 20  1  0
 20 21  1  0
 20 22  1  0
 12 23  1  0
 23 24  2  0
 24  3  1  0
 23  6  1  0
  1 25  1  0
  4 26  1  0
  5 27  1  0
  7 28  1  0
 10 29  1  0
 10 30  1  0
 16 31  1  0
 16 32  1  0
 20 33  1  0
 21 34  1  0
 21 35  1  0
 21 36  1  0
 22 37  1  0
 22 38  1  0
 22 39  1  0
 24 40  1  0
M  END
>  <UniqueID>  (44) 
44

>  <SMILES>  (44) 
C#Cc1ccc2cc(C(N)=O)n(C(=O)OCC(=O)OC(C)C)c2c1

>  <Energy>  (44) 
68.18238774364919

>  <Genealogy>  (44) 
C#Cc1ccc2cc(C(N)=O)n(C(=O)OCC(=O)OC(C)C)c2c1 (3D coordinates assigned)
C#Cc1ccc2cc(C(N)=O)n(C(=O)OCC(=O)OC(C)C)c2c1 (optimized conformer: 68.18238774364919 kcal/mol)

>  <smiles>  (44) 
C#Cc1ccc2cc(C(N)=O)n(C(=O)OCC(=O)OC(C)C)c2c1

>  <score_type>  (44) 
oracle

>  <origin>  (44) 
adg

>  <m_score__min__energy>  (44) 
-9.6500000000000004

>  <m_primary>  (44) 
energy

$$$$
45:0
     RDKit          3D

 37 39  0  0  0  0  0  0  0  0999 V2000
   -4.2520   25.5870  -30.6860 N   0  0  0  0  0  0  0  0  0  0  0  0
   -5.6230   25.2530  -30.4610 C   0  0  0  0  0  0  0  0  0  0  0  0
   -6.3540   26.0620  -29.8290 O   0  0  0  0  0  0  0  0  0  0  0  0
   -6.1920   23.9970  -30.9940 C   0  0  0  0  0  0  0  0  0  0  0  0
   -7.5570   23.7790  -31.1740 C   0  0  0  0  0  0  0  0  0  0  0  0
   -7.6670   22.4710  -31.5880 C   0  0  0  0  0  0  0  0  0  0  0  0
   -8.7970   21.7270  -31.9130 C   0  0  0  0  0  0  0  0  0  0  0  0
   -8.6140   20.3980  -32.3290 C   0  0  0  0  0  0  0  0  0  0  0  0
   -7.3140   19.8470  -32.4300 C   0  0  0  0  0  0  0  0  0  0  0  0
   -7.1310   18.4150  -32.8470 C   0  0  0  0  0  0  0  0  0  0  0  0
   -5.7820   18.2200  -33.3650 N   0  0  0  0  0  0  0  0  0  0  0  0
   -4.7310   17.7120  -32.7030 C   0  0  0  0  0  0  0  0  0  0  0  0
   -3.6180   17.7460  -33.4610 N   0  0  0  0  0  0  0  0  0  0  0  0
   -4.0620   18.3090  -34.6070 C   0  0  0  0  0  0  0  0  0  0  0  0
   -5.3750   18.6100  -34.5590 N   0  0  0  0  0  0  0  0  0  0  0  0
   -6.1900   20.6280  -32.0790 C   0  0  0  0  0  0  0  0  0  0  0  0
   -6.4020   21.9430  -31.6490 C   0  0  0  0  0  0  0  0  0  0  0  0
   -5.4860   22.8680  -31.2860 N   0  0  0  0  0  0  0  0  0  0  0  0
   -4.0570   22.7100  -31.2890 C   0  0  0  0  0  0  0  0  0  0  0  0
   -3.4560   22.4280  -32.3610 O   0  0  0  0  0  0  0  0  0  0  0  0
   -3.3370   22.8810  -30.1030 O   0  0  0  0  0  0  0  0  0  0  0  0
   -1.9150   22.9000  -30.0620 C   0  0  0  0  0  0  0  0  0  0  0  0
   -1.4600   24.1670  -29.4220 C   0  0  0  0  0  0  0  0  0  0  0  0
   -0.2930   24.2590  -28.9570 O   0  0  0  0  0  0  0  0  0  0  0  0
   -2.3030   25.2710  -29.3870 O   0  0  0  0  0  0  0  0  0  0  0  0
   -3.6030   24.9210  -31.1610 H   0  0  0  0  0  0  0  0  0  0  0  0
   -3.8700   26.4940  -30.3400 H   0  0  0  0  0  0  0  0  0  0  0  0
   -8.3733   24.4997  -31.0182 H   0  0  0  0  0  0  0  0  0  0  0  0
   -9.8032   22.1664  -31.8462 H   0  0  0  0  0  0  0  0  0  0  0  0
   -9.4889   19.7797  -32.5786 H   0  0  0  0  0  0  0  0  0  0  0  0
   -7.2869   17.7588  -31.9780 H   0  0  0  0  0  0  0  0  0  0  0  0
   -7.8608   18.1694  -33.6326 H   0  0  0  0  0  0  0  0  0  0  0  0
   -4.7729   17.3194  -31.6763 H   0  0  0  0  0  0  0  0  0  0  0  0
   -3.4228   18.5002  -35.4815 H   0  0  0  0  0  0  0  0  0  0  0  0
   -5.1733   20.2127  -32.1421 H   0  0  0  0  0  0  0  0  0  0  0  0
   -1.5523   22.0416  -29.4775 H   0  0  0  0  0  0  0  0  0  0  0  0
   -1.5149   22.8382  -31.0848 H   0  0  0  0  0  0  0  0  0  0  0  0
  1  2  1  0
  2  3  2  0
  2  4  1  0
  4  5  2  0
  5  6  1  0
  6  7  2  0
  7  8  1  0
  8  9  2  0
  9 10  1  0
 10 11  1  0
 11 12  1  0
 12 13  2  0
 13 14  1  0
 14 15  2  0
  9 16  1  0
 16 17  2  0
 17 18  1  0
 18 19  1  0
 19 20  2  0
 19 21  1  0
 21 22  1  0
 22 23  1  0
 23 24  2  0
 23 25  1  0
 18  4  1  0
 17  6  1  0
 15 11  1  0
  1 26  1  0
  1 27  1  0
  5 28  1  0
  7 29  1  0
  8 30  1  0
 10 31  1  0
 10 32  1  0
 12 33  1  0
 14 34  1  0
 16 35  1  0
 22 36  1  0
 22 37  1  0
M  CHG  1  25  -1
M  END
>  <UniqueID>  (45) 
45

>  <SMILES>  (45) 
NC(=O)c1cc2ccc(Cn3cncn3)cc2n1C(=O)OCC(=O)[O-]

>  <Energy>  (45) 
105.6173055805902

>  <Genealogy>  (45) 
NC(=O)c1cc2ccc(Cn3cncn3)cc2n1C(=O)OCC(=O)[O-] (protonated)
NC(=O)c1cc2ccc(Cn3cncn3)cc2n1C(=O)OCC(=O)[O-] (3D coordinates assigned)
NC(=O)c1cc2ccc(Cn3cncn3)cc2n1C(=O)OCC(=O)[O-] (optimized conformer: 105.6173055805902 kcal/mol)

>  <smiles>  (45) 
NC(=O)c1cc2ccc(Cn3cncn3)cc2n1C(=O)OCC(=O)O

>  <score_type>  (45) 
oracle

>  <origin>  (45) 
adg

>  <m_score__min__energy>  (45) 
-10.75

>  <m_primary>  (45) 
energy

$$$$
46:0
     RDKit          3D

 37 39  0  0  0  0  0  0  0  0999 V2000
   -4.2520   15.7190  -34.4220 C   0  0  0  0  0  0  0  0  0  0  0  0
   -5.2460   16.5760  -33.7900 N   0  0  0  0  0  0  0  0  0  0  0  0
   -5.1150   17.8940  -33.5560 C   0  0  0  0  0  0  0  0  0  0  0  0
   -6.2990   18.3550  -33.0060 C   0  0  0  0  0  0  0  0  0  0  0  0
   -6.6240   19.7410  -32.5820 C   0  0  0  0  0  0  0  0  0  0  0  0
   -7.9500   20.2370  -32.6960 C   0  0  0  0  0  0  0  0  0  0  0  0
   -8.2700   21.5420  -32.2860 C   0  0  0  0  0  0  0  0  0  0  0  0
   -7.2510   22.3340  -31.7730 C   0  0  0  0  0  0  0  0  0  0  0  0
   -7.2910   23.6190  -31.2820 C   0  0  0  0  0  0  0  0  0  0  0  0
   -5.9840   23.9060  -30.8920 C   0  0  0  0  0  0  0  0  0  0  0  0
   -5.5580   25.2240  -30.3780 C   0  0  0  0  0  0  0  0  0  0  0  0
   -4.2290   25.6830  -30.6200 N   0  0  0  0  0  0  0  0  0  0  0  0
   -6.3420   25.9340  -29.6950 O   0  0  0  0  0  0  0  0  0  0  0  0
   -5.1700   22.8380  -31.1280 N   0  0  0  0  0  0  0  0  0  0  0  0
   -3.7780   22.7060  -30.8000 C   0  0  0  0  0  0  0  0  0  0  0  0
   -2.9020   22.9160  -31.6820 O   0  0  0  0  0  0  0  0  0  0  0  0
   -3.4030   22.3250  -29.5060 O   0  0  0  0  0  0  0  0  0  0  0  0
   -2.9090   23.2410  -28.5330 C   0  0  0  0  0  0  0  0  0  0  0  0
   -1.8070   24.0700  -29.1100 C   0  0  0  0  0  0  0  0  0  0  0  0
   -1.9810   25.2970  -29.3290 O   0  0  0  0  0  0  0  0  0  0  0  0
   -0.5920   23.4780  -29.4340 O   0  0  0  0  0  0  0  0  0  0  0  0
   -5.9620   21.8840  -31.6690 C   0  0  0  0  0  0  0  0  0  0  0  0
   -5.6160   20.5840  -32.0520 C   0  0  0  0  0  0  0  0  0  0  0  0
   -7.1180   17.2360  -32.9500 C   0  0  0  0  0  0  0  0  0  0  0  0
   -6.4560   16.1700  -33.4410 N   0  0  0  0  0  0  0  0  0  0  0  0
   -3.6610   15.2095  -33.6467 H   0  0  0  0  0  0  0  0  0  0  0  0
   -4.7587   14.9700  -35.0483 H   0  0  0  0  0  0  0  0  0  0  0  0
   -3.5857   16.3304  -35.0483 H   0  0  0  0  0  0  0  0  0  0  0  0
   -4.2217   18.5007  -33.7654 H   0  0  0  0  0  0  0  0  0  0  0  0
   -8.7372   19.5904  -33.1110 H   0  0  0  0  0  0  0  0  0  0  0  0
   -9.2977   21.9254  -32.3689 H   0  0  0  0  0  0  0  0  0  0  0  0
   -8.1680   24.2793  -31.2122 H   0  0  0  0  0  0  0  0  0  0  0  0
   -3.4670   25.0150  -30.8690 H   0  0  0  0  0  0  0  0  0  0  0  0
   -3.7270   23.9008  -28.2082 H   0  0  0  0  0  0  0  0  0  0  0  0
   -2.5176   22.6740  -27.6755 H   0  0  0  0  0  0  0  0  0  0  0  0
   -4.5824   20.2234  -31.9439 H   0  0  0  0  0  0  0  0  0  0  0  0
   -8.1481   17.2215  -32.5645 H   0  0  0  0  0  0  0  0  0  0  0  0
  1  2  1  0
  2  3  1  0
  3  4  2  0
  4  5  1  0
  5  6  2  0
  6  7  1  0
  7  8  2  0
  8  9  1  0
  9 10  2  0
 10 11  1  0
 11 12  1  0
 11 13  2  0
 10 14  1  0
 14 15  1  0
 15 16  2  0
 15 17  1  0
 17 18  1  0
 18 19  1  0
 19 20  2  0
 19 21  1  0
 14 22  1  0
 22 23  2  0
  4 24  1  0
 24 25  2  0
 25  2  1  0
 23  5  1  0
 22  8  1  0
  1 26  1  0
  1 27  1  0
  1 28  1  0
  3 29  1  0
  6 30  1  0
  7 31  1  0
  9 32  1  0
 12 33  1  0
 18 34  1  0
 18 35  1  0
 23 36  1  0
 24 37  1  0
M  CHG  2  12  -1  21  -1
M  END
>  <UniqueID>  (46) 
46

>  <SMILES>  (46) 
Cn1cc(-c2ccc3cc(C([NH-])=O)n(C(=O)OCC(=O)[O-])c3c2)cn1

>  <Energy>  (46) 
106.94095744412701

>  <Genealogy>  (46) 
Cn1cc(-c2ccc3cc(C([NH-])=O)n(C(=O)OCC(=O)[O-])c3c2)cn1 (protonated)
Cn1cc(-c2ccc3cc(C([NH-])=O)n(C(=O)OCC(=O)[O-])c3c2)cn1 (3D coordinates assigned)
Cn1cc(-c2ccc3cc(C([NH-])=O)n(C(=O)OCC(=O)[O-])c3c2)cn1 (optimized conformer: 106.94095744412701 kcal/mol)

>  <smiles>  (46) 
Cn1cc(-c2ccc3cc(C(N)=O)n(C(=O)OCC(=O)O)c3c2)cn1

>  <score_type>  (46) 
oracle

>  <origin>  (46) 
adg

>  <m_score__min__energy>  (46) 
-13.050000000000001

>  <m_primary>  (46) 
energy

$$$$
47:0
     RDKit          3D

 33 34  0  0  0  0  0  0  0  0999 V2000
   -3.3400   23.8960  -27.0930 C   0  0  0  0  0  0  0  0  0  0  0  0
   -3.0450   23.8930  -28.5940 C   0  0  2  0  0  0  0  0  0  0  0  0
   -3.0680   22.1830  -29.2470 S   0  0  0  0  0  0  0  0  0  0  0  0
   -3.7540   22.6280  -30.8470 C   0  0  0  0  0  0  0  0  0  0  0  0
   -2.9750   22.8090  -31.8200 O   0  0  0  0  0  0  0  0  0  0  0  0
   -5.1630   22.8340  -31.0080 N   0  0  0  0  0  0  0  0  0  0  0  0
   -5.8550   24.0060  -30.9400 C   0  0  0  0  0  0  0  0  0  0  0  0
   -5.3070   25.3080  -30.5070 C   0  0  0  0  0  0  0  0  0  0  0  0
   -3.9640   25.6580  -30.8340 N   0  0  0  0  0  0  0  0  0  0  0  0
   -6.0250   26.1300  -29.8790 O   0  0  0  0  0  0  0  0  0  0  0  0
   -7.1950   23.8020  -31.2630 C   0  0  0  0  0  0  0  0  0  0  0  0
   -7.3050   22.4540  -31.5250 C   0  0  0  0  0  0  0  0  0  0  0  0
   -8.4060   21.7060  -31.9290 C   0  0  0  0  0  0  0  0  0  0  0  0
   -8.2170   20.3350  -32.1730 C   0  0  0  0  0  0  0  0  0  0  0  0
   -6.9410   19.7360  -32.0020 C   0  0  0  0  0  0  0  0  0  0  0  0
   -6.7370   18.2790  -32.3310 C   0  0  0  0  0  0  0  0  0  0  0  0
   -7.9280   17.6940  -32.7250 F   0  0  0  0  0  0  0  0  0  0  0  0
   -6.2610   17.5910  -31.2290 F   0  0  0  0  0  0  0  0  0  0  0  0
   -5.8190   18.1700  -33.3600 F   0  0  0  0  0  0  0  0  0  0  0  0
   -5.8420   20.5370  -31.6140 C   0  0  0  0  0  0  0  0  0  0  0  0
   -6.0650   21.8940  -31.3620 C   0  0  0  0  0  0  0  0  0  0  0  0
   -1.7010   24.5040  -28.8610 C   0  0  0  0  0  0  0  0  0  0  0  0
   -1.6100   25.6720  -29.3250 O   0  0  0  0  0  0  0  0  0  0  0  0
   -0.5460   23.7790  -28.6020 O   0  0  0  0  0  0  0  0  0  0  0  0
   -2.3931   23.8864  -26.5332 H   0  0  0  0  0  0  0  0  0  0  0  0
   -3.9104   24.8000  -26.8332 H   0  0  0  0  0  0  0  0  0  0  0  0
   -3.9286   23.0038  -26.8332 H   0  0  0  0  0  0  0  0  0  0  0  0
   -3.8235   24.4849  -29.0975 H   0  0  0  0  0  0  0  0  0  0  0  0
   -3.1830   24.9800  -30.6960 H   0  0  0  0  0  0  0  0  0  0  0  0
   -7.9946   24.5565  -31.3007 H   0  0  0  0  0  0  0  0  0  0  0  0
   -9.3940   22.1732  -32.0536 H   0  0  0  0  0  0  0  0  0  0  0  0
   -9.0674   19.7188  -32.5002 H   0  0  0  0  0  0  0  0  0  0  0  0
   -4.8363   20.1030  -31.5129 H   0  0  0  0  0  0  0  0  0  0  0  0
  1  2  1  0
  2  3  1  0
  3  4  1  0
  4  5  2  0
  4  6  1  0
  6  7  1  0
  7  8  1  0
  8  9  1  0
  8 10  2  0
  7 11  2  0
 11 12  1  0
 12 13  2  0
 13 14  1  0
 14 15  2  0
 15 16  1  0
 16 17  1  0
 16 18  1  0
 16 19  1  0
 15 20  1  0
 20 21  2  0
  2 22  1  0
 22 23  2  0
 22 24  1  0
 21  6  1  0
 21 12  1  0
  1 25  1  0
  1 26  1  0
  1 27  1  0
  2 28  1  6
  9 29  1  0
 11 30  1  0
 13 31  1  0
 14 32  1  0
 20 33  1  0
M  CHG  2   9  -1  24  -1
M  END
>  <UniqueID>  (47) 
47

>  <SMILES>  (47) 
C[C@H](SC(=O)n1c(C([NH-])=O)cc2ccc(C(F)(F)F)cc21)C(=O)[O-]

>  <Energy>  (47) 
66.85085181323609

>  <Genealogy>  (47) 
CC(SC(=O)n1c(C([NH-])=O)cc2ccc(C(F)(F)F)cc21)C(=O)[O-] (protonated)
C[C@H](SC(=O)n1c(C([NH-])=O)cc2ccc(C(F)(F)F)cc21)C(=O)[O-] (chirality)
C[C@H](SC(=O)n1c(C([NH-])=O)cc2ccc(C(F)(F)F)cc21)C(=O)[O-] (3D coordinates assigned)
C[C@H](SC(=O)n1c(C([NH-])=O)cc2ccc(C(F)(F)F)cc21)C(=O)[O-] (optimized conformer: 66.85085181323609 kcal/mol)

>  <smiles>  (47) 
CC(SC(=O)n1c(C(N)=O)cc2ccc(C(F)(F)F)cc21)C(=O)O

>  <score_type>  (47) 
oracle

>  <origin>  (47) 
adg

>  <m_score__min__energy>  (47) 
-12.26

>  <m_primary>  (47) 
energy

$$$$
48:0
     RDKit          3D

 40 41  0  0  0  0  0  0  0  0999 V2000
   -1.2680   21.3280  -27.1820 C   0  0  0  0  0  0  0  0  0  0  0  0
   -1.9440   22.4240  -27.9030 N   0  0  2  0  0  0  0  0  0  0  0  0
   -1.9590   23.6950  -27.1370 C   0  0  0  0  0  0  0  0  0  0  0  0
   -2.0460   24.9730  -27.9950 C   0  0  0  0  0  0  0  0  0  0  0  0
   -1.7460   24.6870  -29.3340 O   0  0  0  0  0  0  0  0  0  0  0  0
   -3.2650   22.0540  -28.3560 C   0  0  0  0  0  0  0  0  0  0  0  0
   -4.2560   22.1160  -27.5730 O   0  0  0  0  0  0  0  0  0  0  0  0
   -3.4390   21.6790  -29.6970 O   0  0  0  0  0  0  0  0  0  0  0  0
   -3.8080   22.5420  -30.7360 C   0  0  0  0  0  0  0  0  0  0  0  0
   -2.9380   23.0560  -31.4910 O   0  0  0  0  0  0  0  0  0  0  0  0
   -5.1990   22.8180  -30.9590 N   0  0  0  0  0  0  0  0  0  0  0  0
   -5.8380   24.0220  -30.9030 C   0  0  0  0  0  0  0  0  0  0  0  0
   -5.2470   25.3020  -30.4580 C   0  0  0  0  0  0  0  0  0  0  0  0
   -3.9190   25.6630  -30.8230 N   0  0  0  0  0  0  0  0  0  0  0  0
   -5.9090   26.0680  -29.7070 O   0  0  0  0  0  0  0  0  0  0  0  0
   -7.1790   23.8790  -31.2580 C   0  0  0  0  0  0  0  0  0  0  0  0
   -7.3450   22.5390  -31.5250 C   0  0  0  0  0  0  0  0  0  0  0  0
   -8.4750   21.8450  -31.9470 C   0  0  0  0  0  0  0  0  0  0  0  0
   -8.3480   20.4660  -32.1900 C   0  0  0  0  0  0  0  0  0  0  0  0
   -7.1060   19.8060  -31.9990 C   0  0  0  0  0  0  0  0  0  0  0  0
   -6.9690   18.3410  -32.3280 C   0  0  0  0  0  0  0  0  0  0  0  0
   -8.2170   17.7480  -32.2880 F   0  0  0  0  0  0  0  0  0  0  0  0
   -6.4290   18.1710  -33.5920 F   0  0  0  0  0  0  0  0  0  0  0  0
   -6.1410   17.7130  -31.4160 F   0  0  0  0  0  0  0  0  0  0  0  0
   -5.9760   20.5530  -31.5910 C   0  0  0  0  0  0  0  0  0  0  0  0
   -6.1360   21.9210  -31.3370 C   0  0  0  0  0  0  0  0  0  0  0  0
   -1.3660   21.4869  -26.0980 H   0  0  0  0  0  0  0  0  0  0  0  0
   -1.7315   20.3686  -27.4553 H   0  0  0  0  0  0  0  0  0  0  0  0
   -0.2026   21.3116  -27.4553 H   0  0  0  0  0  0  0  0  0  0  0  0
   -1.3740   22.6010  -28.7640 H   0  0  0  0  0  0  0  0  0  0  0  0
   -2.8282   23.6768  -26.4631 H   0  0  0  0  0  0  0  0  0  0  0  0
   -0.9962   23.7457  -26.6075 H   0  0  0  0  0  0  0  0  0  0  0  0
   -3.0649   25.3826  -27.9319 H   0  0  0  0  0  0  0  0  0  0  0  0
   -1.3184   25.7059  -27.6162 H   0  0  0  0  0  0  0  0  0  0  0  0
   -2.5740   24.3130  -29.7310 H   0  0  0  0  0  0  0  0  0  0  0  0
   -3.1140   25.0300  -30.6150 H   0  0  0  0  0  0  0  0  0  0  0  0
   -7.9421   24.6693  -31.3130 H   0  0  0  0  0  0  0  0  0  0  0  0
   -9.4374   22.3592  -32.0861 H   0  0  0  0  0  0  0  0  0  0  0  0
   -9.2216   19.8918  -32.5322 H   0  0  0  0  0  0  0  0  0  0  0  0
   -4.9942   20.0705  -31.4759 H   0  0  0  0  0  0  0  0  0  0  0  0
  1  2  1  0
  2  3  1  0
  3  4  1  0
  4  5  1  0
  2  6  1  0
  6  7  2  0
  6  8  1  0
  8  9  1  0
  9 10  2  0
  9 11  1  0
 11 12  1  0
 12 13  1  0
 13 14  1  0
 13 15  2  0
 12 16  2  0
 16 17  1  0
 17 18  2  0
 18 19  1  0
 19 20  2  0
 20 21  1  0
 21 22  1  0
 21 23  1  0
 21 24  1  0
 20 25  1  0
 25 26  2  0
 26 11  1  0
 26 17  1  0
  1 27  1  0
  1 28  1  0
  1 29  1  0
  2 30  1  6
  3 31  1  0
  3 32  1  0
  4 33  1  0
  4 34  1  0
  5 35  1  0
 14 36  1  0
 16 37  1  0
 18 38  1  0
 19 39  1  0
 25 40  1  0
M  CHG  2   2   1  14  -1
M  END
>  <UniqueID>  (48) 
48

>  <SMILES>  (48) 
C[N@H+](CCO)C(=O)OC(=O)n1c(C([NH-])=O)cc2ccc(C(F)(F)F)cc21

>  <Energy>  (48) 
84.20614695815587

>  <Genealogy>  (48) 
C[NH+](CCO)C(=O)OC(=O)n1c(C([NH-])=O)cc2ccc(C(F)(F)F)cc21 (protonated)
C[N@H+](CCO)C(=O)OC(=O)n1c(C([NH-])=O)cc2ccc(C(F)(F)F)cc21 (chirality)
C[N@H+](CCO)C(=O)OC(=O)n1c(C([NH-])=O)cc2ccc(C(F)(F)F)cc21 (3D coordinates assigned)
C[N@H+](CCO)C(=O)OC(=O)n1c(C([NH-])=O)cc2ccc(C(F)(F)F)cc21 (optimized conformer: 84.20614695815587 kcal/mol)

>  <smiles>  (48) 
CN(CCO)C(=O)OC(=O)n1c(C(N)=O)cc2ccc(C(F)(F)F)cc21

>  <score_type>  (48) 
oracle

>  <origin>  (48) 
adg

>  <m_score__min__energy>  (48) 
-9.0999999999999996

>  <m_primary>  (48) 
energy

$$$$
49:0
     RDKit          3D

 43 44  0  0  0  0  0  0  0  0999 V2000
   -5.1930   17.0320  -34.6130 C   0  0  0  0  0  0  0  0  0  0  0  0
   -6.1230   16.3390  -33.7100 N   0  0  0  0  0  0  0  0  0  0  0  0
   -6.3860   14.9810  -34.2160 C   0  0  0  0  0  0  0  0  0  0  0  0
   -5.5850   16.3000  -32.3320 C   0  0  0  0  0  0  0  0  0  0  0  0
   -6.1430   17.4530  -31.4860 C   0  0  0  0  0  0  0  0  0  0  0  0
   -6.8720   18.4140  -32.3200 N   0  0  0  0  0  0  0  0  0  0  0  0
   -6.9950   19.8210  -32.0390 C   0  0  0  0  0  0  0  0  0  0  0  0
   -8.2760   20.4230  -32.0950 C   0  0  0  0  0  0  0  0  0  0  0  0
   -8.4470   21.7850  -31.7950 C   0  0  0  0  0  0  0  0  0  0  0  0
   -7.3190   22.5240  -31.4530 C   0  0  0  0  0  0  0  0  0  0  0  0
   -7.2050   23.8410  -31.0710 C   0  0  0  0  0  0  0  0  0  0  0  0
   -5.8490   24.0340  -30.8160 C   0  0  0  0  0  0  0  0  0  0  0  0
   -5.2660   25.3380  -30.4350 C   0  0  0  0  0  0  0  0  0  0  0  0
   -3.9460   25.6750  -30.8580 N   0  0  0  0  0  0  0  0  0  0  0  0
   -5.9060   26.1450  -29.7110 O   0  0  0  0  0  0  0  0  0  0  0  0
   -5.1520   22.8820  -31.0320 N   0  0  0  0  0  0  0  0  0  0  0  0
   -3.7590   22.6390  -30.7840 C   0  0  0  0  0  0  0  0  0  0  0  0
   -3.1360   21.7840  -31.4710 O   0  0  0  0  0  0  0  0  0  0  0  0
   -3.1070   23.3300  -29.7600 O   0  0  0  0  0  0  0  0  0  0  0  0
   -1.7160   23.1850  -29.5000 C   0  0  0  0  0  0  0  0  0  0  0  0
   -1.1700   24.4820  -29.0090 C   0  0  0  0  0  0  0  0  0  0  0  0
    0.0130   24.5520  -28.5820 O   0  0  0  0  0  0  0  0  0  0  0  0
   -1.9850   25.6060  -28.9670 O   0  0  0  0  0  0  0  0  0  0  0  0
   -6.0670   21.9680  -31.4240 C   0  0  0  0  0  0  0  0  0  0  0  0
   -5.8680   20.6150  -31.7150 C   0  0  0  0  0  0  0  0  0  0  0  0
   -4.4501   17.5856  -34.0199 H   0  0  0  0  0  0  0  0  0  0  0  0
   -4.6798   16.2943  -35.2474 H   0  0  0  0  0  0  0  0  0  0  0  0
   -5.7531   17.7347  -35.2474 H   0  0  0  0  0  0  0  0  0  0  0  0
   -6.5192   14.2931  -33.3680 H   0  0  0  0  0  0  0  0  0  0  0  0
   -7.2994   14.9886  -34.8290 H   0  0  0  0  0  0  0  0  0  0  0  0
   -5.5358   14.6471  -34.8290 H   0  0  0  0  0  0  0  0  0  0  0  0
   -5.8641   15.3441  -31.8646 H   0  0  0  0  0  0  0  0  0  0  0  0
   -4.4909   16.4021  -32.3820 H   0  0  0  0  0  0  0  0  0  0  0  0
   -6.8268   17.0441  -30.7275 H   0  0  0  0  0  0  0  0  0  0  0  0
   -5.3013   17.9741  -31.0064 H   0  0  0  0  0  0  0  0  0  0  0  0
   -7.3980   18.0280  -33.1380 H   0  0  0  0  0  0  0  0  0  0  0  0
   -9.1488   19.8159  -32.3772 H   0  0  0  0  0  0  0  0  0  0  0  0
   -9.4421   22.2525  -31.8295 H   0  0  0  0  0  0  0  0  0  0  0  0
   -8.0123   24.5832  -30.9852 H   0  0  0  0  0  0  0  0  0  0  0  0
   -3.1100   25.2950  -30.3610 H   0  0  0  0  0  0  0  0  0  0  0  0
   -1.5638   22.4090  -28.7354 H   0  0  0  0  0  0  0  0  0  0  0  0
   -1.1964   22.8922  -30.4243 H   0  0  0  0  0  0  0  0  0  0  0  0
   -4.8591   20.1773  -31.6928 H   0  0  0  0  0  0  0  0  0  0  0  0
  1  2  1  0
  2  3  1  0
  2  4  1  0
  4  5  1  0
  5  6  1  0
  6  7  1  0
  7  8  2  0
  8  9  1  0
  9 10  2  0
 10 11  1  0
 11 12  2  0
 12 13  1  0
 13 14  1  0
 13 15  2  0
 12 16  1  0
 16 17  1  0
 17 18  2  0
 17 19  1  0
 19 20  1  0
 20 21  1  0
 21 22  2  0
 21 23  1  0
 16 24  1  0
 24 25  2  0
 25  7  1  0
 24 10  1  0
  1 26  1  0
  1 27  1  0
  1 28  1  0
  3 29  1  0
  3 30  1  0
  3 31  1  0
  4 32  1  0
  4 33  1  0
  5 34  1  0
  5 35  1  0
  6 36  1  0
  8 37  1  0
  9 38  1  0
 11 39  1  0
 14 40  1  0
 20 41  1  0
 20 42  1  0
 25 43  1  0
M  CHG  2  14  -1  23  -1
M  END
>  <UniqueID>  (49) 
49

>  <SMILES>  (49) 
CN(C)CCNc1ccc2cc(C([NH-])=O)n(C(=O)OCC(=O)[O-])c2c1

>  <Energy>  (49) 
76.61453362681192

>  <Genealogy>  (49) 
CN(C)CCNc1ccc2cc(C([NH-])=O)n(C(=O)OCC(=O)[O-])c2c1 (protonated)
CN(C)CCNc1ccc2cc(C([NH-])=O)n(C(=O)OCC(=O)[O-])c2c1 (3D coordinates assigned)
CN(C)CCNc1ccc2cc(C([NH-])=O)n(C(=O)OCC(=O)[O-])c2c1 (optimized conformer: 76.61453362681192 kcal/mol)

>  <smiles>  (49) 
CN(C)CCNc1ccc2cc(C(N)=O)n(C(=O)OCC(=O)O)c2c1

>  <score_type>  (49) 
oracle

>  <origin>  (49) 
adg

>  <m_score__min__energy>  (49) 
-11.720000000000001

>  <m_primary>  (49) 
energy

$$$$
50:0
     RDKit          3D

 29 30  0  0  0  0  0  0  0  0999 V2000
   -3.2930   21.8900  -28.5030 C   0  0  0  0  0  0  0  0  0  0  0  0
   -3.5300   21.5670  -29.7720 C   0  0  0  0  0  0  0  0  0  0  0  0
   -3.9700   22.5570  -30.7750 C   0  0  0  0  0  0  0  0  0  0  0  0
   -3.1230   23.2470  -31.4030 O   0  0  0  0  0  0  0  0  0  0  0  0
   -5.3700   22.7290  -31.0520 N   0  0  0  0  0  0  0  0  0  0  0  0
   -6.1190   23.8510  -30.8560 C   0  0  0  0  0  0  0  0  0  0  0  0
   -5.5920   25.1650  -30.4220 C   0  0  0  0  0  0  0  0  0  0  0  0
   -4.2300   25.5250  -30.6670 N   0  0  0  0  0  0  0  0  0  0  0  0
   -6.3370   25.9750  -29.8110 O   0  0  0  0  0  0  0  0  0  0  0  0
   -7.4520   23.6080  -31.1870 C   0  0  0  0  0  0  0  0  0  0  0  0
   -7.4950   22.2930  -31.5890 C   0  0  0  0  0  0  0  0  0  0  0  0
   -8.5740   21.5170  -32.0000 C   0  0  0  0  0  0  0  0  0  0  0  0
   -8.3360   20.1690  -32.3180 C   0  0  0  0  0  0  0  0  0  0  0  0
   -7.0290   19.6240  -32.2300 C   0  0  0  0  0  0  0  0  0  0  0  0
   -6.7970   18.1620  -32.5120 C   0  0  0  0  0  0  0  0  0  0  0  0
   -5.8530   17.6400  -31.6430 F   0  0  0  0  0  0  0  0  0  0  0  0
   -6.3400   17.9800  -33.8060 F   0  0  0  0  0  0  0  0  0  0  0  0
   -7.9840   17.4730  -32.3510 F   0  0  0  0  0  0  0  0  0  0  0  0
   -5.9620   20.4400  -31.7850 C   0  0  0  0  0  0  0  0  0  0  0  0
   -6.2260   21.7830  -31.4970 C   0  0  0  0  0  0  0  0  0  0  0  0
   -2.9665   21.1180  -27.7907 H   0  0  0  0  0  0  0  0  0  0  0  0
   -3.4236   22.9290  -28.1663 H   0  0  0  0  0  0  0  0  0  0  0  0
   -3.3927   20.5217  -30.0859 H   0  0  0  0  0  0  0  0  0  0  0  0
   -3.8630   26.4400  -30.3220 H   0  0  0  0  0  0  0  0  0  0  0  0
   -3.5960   24.9140  -31.2260 H   0  0  0  0  0  0  0  0  0  0  0  0
   -8.2911   24.3175  -31.1372 H   0  0  0  0  0  0  0  0  0  0  0  0
   -9.5842   21.9461  -32.0739 H   0  0  0  0  0  0  0  0  0  0  0  0
   -9.1718   19.5297  -32.6385 H   0  0  0  0  0  0  0  0  0  0  0  0
   -4.9488   20.0278  -31.6683 H   0  0  0  0  0  0  0  0  0  0  0  0
  1  2  2  0
  2  3  1  0
  3  4  2  0
  3  5  1  0
  5  6  1  0
  6  7  1  0
  7  8  1  0
  7  9  2  0
  6 10  2  0
 10 11  1  0
 11 12  2  0
 12 13  1  0
 13 14  2  0
 14 15  1  0
 15 16  1  0
 15 17  1  0
 15 18  1  0
 14 19  1  0
 19 20  2  0
 20  5  1  0
 20 11  1  0
  1 21  1  0
  1 22  1  0
  2 23  1  0
  8 24  1  0
  8 25  1  0
 10 26  1  0
 12 27  1  0
 13 28  1  0
 19 29  1  0
M  END
>  <UniqueID>  (50) 
50

>  <SMILES>  (50) 
C=CC(=O)n1c(C(N)=O)cc2ccc(C(F)(F)F)cc21

>  <Energy>  (50) 
67.91954332691624

>  <Genealogy>  (50) 
C=CC(=O)n1c(C(N)=O)cc2ccc(C(F)(F)F)cc21 (3D coordinates assigned)
C=CC(=O)n1c(C(N)=O)cc2ccc(C(F)(F)F)cc21 (optimized conformer: 67.91954332691624 kcal/mol)

>  <smiles>  (50) 
C=CC(=O)n1c(C(N)=O)cc2ccc(C(F)(F)F)cc21

>  <score_type>  (50) 
oracle

>  <origin>  (50) 
adg

>  <m_score__min__energy>  (50) 
-7.4199999999999999

>  <m_primary>  (50) 
energy

$$$$
51:0
     RDKit          3D

 39 40  0  0  0  0  0  0  0  0999 V2000
   -4.0010   25.6390  -30.8440 N   0  0  0  0  0  0  0  0  0  0  0  0
   -5.2780   25.2310  -30.3600 C   0  0  0  0  0  0  0  0  0  0  0  0
   -5.9300   26.0060  -29.6120 O   0  0  0  0  0  0  0  0  0  0  0  0
   -5.8710   23.9430  -30.7720 C   0  0  0  0  0  0  0  0  0  0  0  0
   -7.2250   23.7840  -31.0650 C   0  0  0  0  0  0  0  0  0  0  0  0
   -7.3530   22.4820  -31.4890 C   0  0  0  0  0  0  0  0  0  0  0  0
   -8.4790   21.7890  -31.9200 C   0  0  0  0  0  0  0  0  0  0  0  0
   -8.3230   20.4420  -32.2890 C   0  0  0  0  0  0  0  0  0  0  0  0
   -7.0560   19.8070  -32.1970 C   0  0  0  0  0  0  0  0  0  0  0  0
   -6.8870   18.3740  -32.6310 C   0  0  0  0  0  0  0  0  0  0  0  0
   -5.9110   17.7510  -31.8730 F   0  0  0  0  0  0  0  0  0  0  0  0
   -6.5100   18.3460  -33.9600 F   0  0  0  0  0  0  0  0  0  0  0  0
   -8.0680   17.6690  -32.4830 F   0  0  0  0  0  0  0  0  0  0  0  0
   -5.9330   20.5530  -31.7750 C   0  0  0  0  0  0  0  0  0  0  0  0
   -6.1130   21.8990  -31.4370 C   0  0  0  0  0  0  0  0  0  0  0  0
   -5.1930   22.7820  -30.9970 N   0  0  0  0  0  0  0  0  0  0  0  0
   -3.8050   22.5070  -30.7550 C   0  0  0  0  0  0  0  0  0  0  0  0
   -2.9220   23.2920  -31.1940 O   0  0  0  0  0  0  0  0  0  0  0  0
   -3.4430   21.3790  -30.0130 O   0  0  0  0  0  0  0  0  0  0  0  0
   -2.1430   20.8030  -30.0640 C   0  0  0  0  0  0  0  0  0  0  0  0
   -1.6930   20.5200  -28.7430 O   0  0  0  0  0  0  0  0  0  0  0  0
   -0.8200   21.3600  -28.0480 C   0  0  0  0  0  0  0  0  0  0  0  0
    0.4250   21.1580  -28.0770 O   0  0  0  0  0  0  0  0  0  0  0  0
   -1.3750   22.4870  -27.2380 C   0  0  0  0  0  0  0  0  0  0  0  0
   -2.0800   23.4980  -28.1390 C   0  0  0  0  0  0  0  0  0  0  0  0
   -1.1010   24.4990  -28.6670 C   0  0  0  0  0  0  0  0  0  0  0  0
    0.1360   24.2660  -28.6180 O   0  0  0  0  0  0  0  0  0  0  0  0
   -1.5580   25.6740  -29.2510 O   0  0  0  0  0  0  0  0  0  0  0  0
   -3.1220   25.2750  -30.4140 H   0  0  0  0  0  0  0  0  0  0  0  0
   -8.0205   24.5385  -30.9760 H   0  0  0  0  0  0  0  0  0  0  0  0
   -9.4619   22.2803  -31.9706 H   0  0  0  0  0  0  0  0  0  0  0  0
   -9.1915   19.8734  -32.6530 H   0  0  0  0  0  0  0  0  0  0  0  0
   -4.9389   20.0861  -31.7134 H   0  0  0  0  0  0  0  0  0  0  0  0
   -2.1786   19.8704  -30.6462 H   0  0  0  0  0  0  0  0  0  0  0  0
   -1.4491   21.5099  -30.5424 H   0  0  0  0  0  0  0  0  0  0  0  0
   -2.0955   22.0880  -26.5089 H   0  0  0  0  0  0  0  0  0  0  0  0
   -0.5477   22.9914  -26.7173 H   0  0  0  0  0  0  0  0  0  0  0  0
   -2.5468   22.9680  -28.9824 H   0  0  0  0  0  0  0  0  0  0  0  0
   -2.8469   24.0247  -27.5520 H   0  0  0  0  0  0  0  0  0  0  0  0
  1  2  1  0
  2  3  2  0
  2  4  1  0
  4  5  2  0
  5  6  1  0
  6  7  2  0
  7  8  1  0
  8  9  2  0
  9 10  1  0
 10 11  1  0
 10 12  1  0
 10 13  1  0
  9 14  1  0
 14 15  2  0
 15 16  1  0
 16 17  1  0
 17 18  2  0
 17 19  1  0
 19 20  1  0
 20 21  1  0
 21 22  1  0
 22 23  2  0
 22 24  1  0
 24 25  1  0
 25 26  1  0
 26 27  2  0
 26 28  1  0
 16  4  1  0
 15  6  1  0
  1 29  1  0
  5 30  1  0
  7 31  1  0
  8 32  1  0
 14 33  1  0
 20 34  1  0
 20 35  1  0
 24 36  1  0
 24 37  1  0
 25 38  1  0
 25 39  1  0
M  CHG  2   1  -1  28  -1
M  END
>  <UniqueID>  (51) 
51

>  <SMILES>  (51) 
[NH-]C(=O)c1cc2ccc(C(F)(F)F)cc2n1C(=O)OCOC(=O)CCC(=O)[O-]

>  <Energy>  (51) 
71.10187708999364

>  <Genealogy>  (51) 
[NH-]C(=O)c1cc2ccc(C(F)(F)F)cc2n1C(=O)OCOC(=O)CCC(=O)[O-] (protonated)
[NH-]C(=O)c1cc2ccc(C(F)(F)F)cc2n1C(=O)OCOC(=O)CCC(=O)[O-] (3D coordinates assigned)
[NH-]C(=O)c1cc2ccc(C(F)(F)F)cc2n1C(=O)OCOC(=O)CCC(=O)[O-] (optimized conformer: 71.10187708999364 kcal/mol)

>  <smiles>  (51) 
NC(=O)c1cc2ccc(C(F)(F)F)cc2n1C(=O)OCOC(=O)CCC(=O)O

>  <score_type>  (51) 
oracle

>  <origin>  (51) 
adg

>  <m_score__min__energy>  (51) 
-11.98

>  <m_primary>  (51) 
energy

$$$$
52:0
     RDKit          3D

 41 42  0  0  0  0  0  0  0  0999 V2000
   -6.1810   17.6540  -31.0520 C   0  0  0  0  0  0  0  0  0  0  0  0
   -7.0590   18.3650  -32.1060 C   0  0  0  0  0  0  0  0  0  0  0  0
   -8.5120   17.8830  -31.9520 C   0  0  0  0  0  0  0  0  0  0  0  0
   -6.5590   17.9540  -33.4350 C   0  0  0  0  0  0  0  0  0  0  0  0
   -6.1670   17.6310  -34.4750 N   0  0  0  0  0  0  0  0  0  0  0  0
   -7.0220   19.8980  -31.9980 C   0  0  0  0  0  0  0  0  0  0  0  0
   -8.1460   20.6580  -32.4360 C   0  0  0  0  0  0  0  0  0  0  0  0
   -8.1750   22.0560  -32.3140 C   0  0  0  0  0  0  0  0  0  0  0  0
   -7.0750   22.6840  -31.7460 C   0  0  0  0  0  0  0  0  0  0  0  0
   -6.8530   24.0170  -31.4780 C   0  0  0  0  0  0  0  0  0  0  0  0
   -5.5980   24.0680  -30.8750 C   0  0  0  0  0  0  0  0  0  0  0  0
   -4.9390   25.3230  -30.4540 C   0  0  0  0  0  0  0  0  0  0  0  0
   -3.5810   25.3010  -30.0210 N   0  0  0  0  0  0  0  0  0  0  0  0
   -5.5690   26.4130  -30.4540 O   0  0  0  0  0  0  0  0  0  0  0  0
   -5.0670   22.8190  -30.7780 N   0  0  0  0  0  0  0  0  0  0  0  0
   -3.8190   22.4420  -30.1730 C   0  0  0  0  0  0  0  0  0  0  0  0
   -3.8200   21.8260  -29.0740 O   0  0  0  0  0  0  0  0  0  0  0  0
   -2.5390   22.7680  -30.8180 C   0  0  0  0  0  0  0  0  0  0  0  0
   -2.2890   22.3350  -31.9770 O   0  0  0  0  0  0  0  0  0  0  0  0
   -1.6110   23.5670  -30.1430 O   0  0  0  0  0  0  0  0  0  0  0  0
   -1.5210   23.6050  -28.7230 C   0  0  0  0  0  0  0  0  0  0  0  0
   -1.0240   24.9750  -28.2720 C   0  0  0  0  0  0  0  0  0  0  0  0
   -1.1900   25.9190  -29.2960 O   0  0  0  0  0  0  0  0  0  0  0  0
   -5.9840   21.9820  -31.3110 C   0  0  0  0  0  0  0  0  0  0  0  0
   -5.9340   20.5880  -31.3980 C   0  0  0  0  0  0  0  0  0  0  0  0
   -6.5224   17.9305  -30.0436 H   0  0  0  0  0  0  0  0  0  0  0  0
   -6.2630   16.5647  -31.1810 H   0  0  0  0  0  0  0  0  0  0  0  0
   -5.1325   17.9606  -31.1810 H   0  0  0  0  0  0  0  0  0  0  0  0
   -8.7597   17.8008  -30.8834 H   0  0  0  0  0  0  0  0  0  0  0  0
   -9.1903   18.6043  -32.4312 H   0  0  0  0  0  0  0  0  0  0  0  0
   -8.6247   16.8993  -32.4312 H   0  0  0  0  0  0  0  0  0  0  0  0
   -9.0083   20.1380  -32.8787 H   0  0  0  0  0  0  0  0  0  0  0  0
   -9.0435   22.6367  -32.6582 H   0  0  0  0  0  0  0  0  0  0  0  0
   -7.5239   24.8615  -31.6941 H   0  0  0  0  0  0  0  0  0  0  0  0
   -2.7970   25.3000  -30.7110 H   0  0  0  0  0  0  0  0  0  0  0  0
   -2.5140   23.4160  -28.2892 H   0  0  0  0  0  0  0  0  0  0  0  0
   -0.8146   22.8331  -28.3836 H   0  0  0  0  0  0  0  0  0  0  0  0
   -1.5960   25.2948  -27.3885 H   0  0  0  0  0  0  0  0  0  0  0  0
    0.0455   24.9021  -28.0251 H   0  0  0  0  0  0  0  0  0  0  0  0
   -2.0250   25.6770  -29.7750 H   0  0  0  0  0  0  0  0  0  0  0  0
   -5.0670   20.0341  -31.0086 H   0  0  0  0  0  0  0  0  0  0  0  0
  1  2  1  0
  2  3  1  0
  2  4  1  0
  4  5  3  0
  2  6  1  0
  6  7  2  0
  7  8  1  0
  8  9  2  0
  9 10  1  0
 10 11  2  0
 11 12  1  0
 12 13  1  0
 12 14  2  0
 11 15  1  0
 15 16  1  0
 16 17  2  0
 16 18  1  0
 18 19  2  0
 18 20  1  0
 20 21  1  0
 21 22  1  0
 22 23  1  0
 15 24  1  0
 24 25  2  0
 25  6  1  0
 24  9  1  0
  1 26  1  0
  1 27  1  0
  1 28  1  0
  3 29  1  0
  3 30  1  0
  3 31  1  0
  7 32  1  0
  8 33  1  0
 10 34  1  0
 13 35  1  0
 21 36  1  0
 21 37  1  0
 22 38  1  0
 22 39  1  0
 23 40  1  0
 25 41  1  0
M  CHG  1  13  -1
M  END
>  <UniqueID>  (52) 
52

>  <SMILES>  (52) 
CC(C)(C#N)c1ccc2cc(C([NH-])=O)n(C(=O)C(=O)OCCO)c2c1

>  <Energy>  (52) 
75.93538746382899

>  <Genealogy>  (52) 
CC(C)(C#N)c1ccc2cc(C([NH-])=O)n(C(=O)C(=O)OCCO)c2c1 (protonated)
CC(C)(C#N)c1ccc2cc(C([NH-])=O)n(C(=O)C(=O)OCCO)c2c1 (3D coordinates assigned)
CC(C)(C#N)c1ccc2cc(C([NH-])=O)n(C(=O)C(=O)OCCO)c2c1 (optimized conformer: 75.93538746382899 kcal/mol)

>  <smiles>  (52) 
CC(C)(C#N)c1ccc2cc(C(N)=O)n(C(=O)C(=O)OCCO)c2c1

>  <score_type>  (52) 
oracle

>  <origin>  (52) 
adg

>  <m_score__min__energy>  (52) 
-11.369999999999999

>  <m_primary>  (52) 
energy

$$$$
53:0
     RDKit          3D

 30 31  0  0  0  0  0  0  0  0999 V2000
   -3.6370   23.1090  -28.1140 C   0  0  0  0  0  0  0  0  0  0  0  0
   -4.4290   23.8810  -29.1780 C   0  0  1  0  0  0  0  0  0  0  0  0
   -3.5840   24.9240  -29.8580 C   0  0  0  0  0  0  0  0  0  0  0  0
   -4.0090   25.5420  -30.8700 O   0  0  0  0  0  0  0  0  0  0  0  0
   -2.3390   25.2500  -29.3340 O   0  0  0  0  0  0  0  0  0  0  0  0
   -5.0430   22.9420  -30.1960 C   0  0  0  0  0  0  0  0  0  0  0  0
   -6.4500   22.9210  -30.3780 C   0  0  0  0  0  0  0  0  0  0  0  0
   -7.0400   22.0690  -31.3260 C   0  0  0  0  0  0  0  0  0  0  0  0
   -6.2060   21.2420  -32.0690 C   0  0  0  0  0  0  0  0  0  0  0  0
   -6.5120   20.3520  -33.0720 C   0  0  0  0  0  0  0  0  0  0  0  0
   -5.2920   19.8140  -33.4710 C   0  0  0  0  0  0  0  0  0  0  0  0
   -5.1670   18.7600  -34.4970 C   0  0  0  0  0  0  0  0  0  0  0  0
   -4.0280   17.8990  -34.5390 N   0  0  0  0  0  0  0  0  0  0  0  0
   -6.1060   18.5800  -35.3170 O   0  0  0  0  0  0  0  0  0  0  0  0
   -4.2670   20.3570  -32.7540 N   0  0  0  0  0  0  0  0  0  0  0  0
   -2.8580   20.1470  -32.9470 C   0  0  0  0  0  0  0  0  0  0  0  0
   -2.1320   21.0730  -33.3940 O   0  0  0  0  0  0  0  0  0  0  0  0
   -2.2800   18.9210  -32.6410 O   0  0  0  0  0  0  0  0  0  0  0  0
   -4.8450   21.2300  -31.8970 C   0  0  0  0  0  0  0  0  0  0  0  0
   -4.2280   22.0850  -30.9770 C   0  0  0  0  0  0  0  0  0  0  0  0
   -3.9627   23.4264  -27.1124 H   0  0  0  0  0  0  0  0  0  0  0  0
   -3.8173   22.0305  -28.2335 H   0  0  0  0  0  0  0  0  0  0  0  0
   -2.5634   23.3168  -28.2335 H   0  0  0  0  0  0  0  0  0  0  0  0
   -5.2447   24.4023  -28.6556 H   0  0  0  0  0  0  0  0  0  0  0  0
   -7.0865   23.5800  -29.7692 H   0  0  0  0  0  0  0  0  0  0  0  0
   -8.1297   22.0567  -31.4759 H   0  0  0  0  0  0  0  0  0  0  0  0
   -7.5086   20.1158  -33.4733 H   0  0  0  0  0  0  0  0  0  0  0  0
   -3.9380   17.1840  -35.2950 H   0  0  0  0  0  0  0  0  0  0  0  0
   -3.3170   17.9080  -33.7750 H   0  0  0  0  0  0  0  0  0  0  0  0
   -3.1340   22.0918  -30.8624 H   0  0  0  0  0  0  0  0  0  0  0  0
  1  2  1  0
  2  3  1  0
  3  4  2  0
  3  5  1  0
  2  6  1  0
  6  7  2  0
  7  8  1  0
  8  9  2  0
  9 10  1  0
 10 11  2  0
 11 12  1  0
 12 13  1  0
 12 14  2  0
 11 15  1  0
 15 16  1  0
 16 17  2  0
 16 18  1  0
 15 19  1  0
 19 20  2  0
 20  6  1  0
 19  9  1  0
  1 21  1  0
  1 22  1  0
  1 23  1  0
  2 24  1  1
  7 25  1  0
  8 26  1  0
 10 27  1  0
 13 28  1  0
 13 29  1  0
 20 30  1  0
M  CHG  2   5  -1  18  -1
M  END
>  <UniqueID>  (53) 
53

>  <SMILES>  (53) 
C[C@@H](C(=O)[O-])c1ccc2cc(C(N)=O)n(C(=O)[O-])c2c1

>  <Energy>  (53) 
69.20073697457282

>  <Genealogy>  (53) 
CC(C(=O)[O-])c1ccc2cc(C(N)=O)n(C(=O)[O-])c2c1 (protonated)
C[C@@H](C(=O)[O-])c1ccc2cc(C(N)=O)n(C(=O)[O-])c2c1 (chirality)
C[C@@H](C(=O)[O-])c1ccc2cc(C(N)=O)n(C(=O)[O-])c2c1 (3D coordinates assigned)
C[C@@H](C(=O)[O-])c1ccc2cc(C(N)=O)n(C(=O)[O-])c2c1 (optimized conformer: 69.20073697457282 kcal/mol)

>  <smiles>  (53) 
CC(C(=O)O)c1ccc2cc(C(N)=O)n(C(=O)O)c2c1

>  <score_type>  (53) 
oracle

>  <origin>  (53) 
adg

>  <m_score__min__energy>  (53) 
-9.2300000000000004

>  <m_primary>  (53) 
energy

$$$$
54:0
     RDKit          3D

 42 43  0  0  0  0  0  0  0  0999 V2000
   -3.8800   23.3430  -27.4970 C   0  0  0  0  0  0  0  0  0  0  0  0
   -2.4080   23.3000  -27.9560 C   0  0  0  0  0  0  0  0  0  0  0  0
   -1.5210   22.7340  -26.8300 C   0  0  0  0  0  0  0  0  0  0  0  0
   -1.9270   24.7270  -28.2970 C   0  0  0  0  0  0  0  0  0  0  0  0
   -2.0910   25.0020  -29.6660 O   0  0  0  0  0  0  0  0  0  0  0  0
   -2.2730   22.4730  -29.1610 N   0  0  0  0  0  0  0  0  0  0  0  0
   -3.3370   21.8880  -29.9250 C   0  0  0  0  0  0  0  0  0  0  0  0
   -3.8030   20.7570  -29.6190 O   0  0  0  0  0  0  0  0  0  0  0  0
   -3.8800   22.6100  -31.0840 C   0  0  0  0  0  0  0  0  0  0  0  0
   -3.0920   23.0790  -31.9500 O   0  0  0  0  0  0  0  0  0  0  0  0
   -5.2970   22.7690  -31.2560 N   0  0  0  0  0  0  0  0  0  0  0  0
   -6.0630   23.8230  -30.8630 C   0  0  0  0  0  0  0  0  0  0  0  0
   -5.5590   25.1010  -30.3190 C   0  0  0  0  0  0  0  0  0  0  0  0
   -4.2180   25.5310  -30.5550 N   0  0  0  0  0  0  0  0  0  0  0  0
   -6.3410   25.8470  -29.6720 O   0  0  0  0  0  0  0  0  0  0  0  0
   -7.4150   23.5480  -31.0580 C   0  0  0  0  0  0  0  0  0  0  0  0
   -7.4540   22.2780  -31.5910 C   0  0  0  0  0  0  0  0  0  0  0  0
   -8.5440   21.4890  -31.9550 C   0  0  0  0  0  0  0  0  0  0  0  0
   -8.2890   20.1930  -32.4290 C   0  0  0  0  0  0  0  0  0  0  0  0
   -6.9630   19.7070  -32.5150 C   0  0  0  0  0  0  0  0  0  0  0  0
   -6.7150   18.3690  -32.9780 C   0  0  0  0  0  0  0  0  0  0  0  0
   -6.5050   17.2440  -33.3630 C   0  0  0  0  0  0  0  0  0  0  0  0
   -6.2570   15.9080  -33.8230 C   0  0  0  0  0  0  0  0  0  0  0  0
   -7.1890   15.2330  -34.3300 O   0  0  0  0  0  0  0  0  0  0  0  0
   -4.9860   15.3630  -33.7130 O   0  0  0  0  0  0  0  0  0  0  0  0
   -5.8820   20.5280  -32.1350 C   0  0  0  0  0  0  0  0  0  0  0  0
   -6.1630   21.8270  -31.6930 C   0  0  0  0  0  0  0  0  0  0  0  0
   -3.9214   23.3442  -26.3978 H   0  0  0  0  0  0  0  0  0  0  0  0
   -4.3579   24.2555  -27.8829 H   0  0  0  0  0  0  0  0  0  0  0  0
   -4.4104   22.4600  -27.8829 H   0  0  0  0  0  0  0  0  0  0  0  0
   -1.9487   23.0069  -25.8540 H   0  0  0  0  0  0  0  0  0  0  0  0
   -1.4737   21.6384  -26.9161 H   0  0  0  0  0  0  0  0  0  0  0  0
   -0.5074   23.1527  -26.9161 H   0  0  0  0  0  0  0  0  0  0  0  0
   -2.5113   25.4526  -27.7121 H   0  0  0  0  0  0  0  0  0  0  0  0
   -0.8577   24.8039  -28.0505 H   0  0  0  0  0  0  0  0  0  0  0  0
   -2.2090   24.1310  -30.1270 H   0  0  0  0  0  0  0  0  0  0  0  0
   -3.5970   25.0290  -31.2270 H   0  0  0  0  0  0  0  0  0  0  0  0
   -3.8660   26.4080  -30.1130 H   0  0  0  0  0  0  0  0  0  0  0  0
   -8.2688   24.2045  -30.8342 H   0  0  0  0  0  0  0  0  0  0  0  0
   -9.5725   21.8705  -31.8732 H   0  0  0  0  0  0  0  0  0  0  0  0
   -9.1268   19.5498  -32.7362 H   0  0  0  0  0  0  0  0  0  0  0  0
   -4.8469   20.1589  -32.1842 H   0  0  0  0  0  0  0  0  0  0  0  0
  1  2  1  0
  2  3  1  0
  2  4  1  0
  4  5  1  0
  2  6  1  0
  6  7  1  0
  7  8  2  0
  7  9  1  0
  9 10  2  0
  9 11  1  0
 11 12  1  0
 12 13  1  0
 13 14  1  0
 13 15  2  0
 12 16  2  0
 16 17  1  0
 17 18  2  0
 18 19  1  0
 19 20  2  0
 20 21  1  0
 21 22  3  0
 22 23  1  0
 23 24  2  0
 23 25  1  0
 20 26  1  0
 26 27  2  0
 27 11  1  0
 27 17  1  0
  1 28  1  0
  1 29  1  0
  1 30  1  0
  3 31  1  0
  3 32  1  0
  3 33  1  0
  4 34  1  0
  4 35  1  0
  5 36  1  0
 14 37  1  0
 14 38  1  0
 16 39  1  0
 18 40  1  0
 19 41  1  0
 26 42  1  0
M  CHG  2   6  -1  25  -1
M  END
>  <UniqueID>  (54) 
54

>  <SMILES>  (54) 
CC(C)(CO)[N-]C(=O)C(=O)n1c(C(N)=O)cc2ccc(C#CC(=O)[O-])cc21

>  <Energy>  (54) 
73.32681754000201

>  <Genealogy>  (54) 
CC(C)(CO)[N-]C(=O)C(=O)n1c(C(N)=O)cc2ccc(C#CC(=O)[O-])cc21 (protonated)
CC(C)(CO)[N-]C(=O)C(=O)n1c(C(N)=O)cc2ccc(C#CC(=O)[O-])cc21 (3D coordinates assigned)
CC(C)(CO)[N-]C(=O)C(=O)n1c(C(N)=O)cc2ccc(C#CC(=O)[O-])cc21 (optimized conformer: 73.32681754000201 kcal/mol)

>  <smiles>  (54) 
CC(C)(CO)NC(=O)C(=O)n1c(C(N)=O)cc2ccc(C#CC(=O)O)cc21

>  <score_type>  (54) 
oracle

>  <origin>  (54) 
adg

>  <m_score__min__energy>  (54) 
-10.44

>  <m_primary>  (54) 
energy

$$$$
55:0
     RDKit          3D

 42 43  0  0  0  0  0  0  0  0999 V2000
   -1.2830   22.2590  -27.2840 C   0  0  0  0  0  0  0  0  0  0  0  0
   -2.0800   23.0840  -28.3160 C   0  0  0  0  0  0  0  0  0  0  0  0
   -3.5630   23.1070  -27.8900 C   0  0  0  0  0  0  0  0  0  0  0  0
   -1.5430   24.5390  -28.3490 C   0  0  0  0  0  0  0  0  0  0  0  0
   -2.1890   25.3020  -29.3360 O   0  0  0  0  0  0  0  0  0  0  0  0
   -1.9490   22.4170  -29.7060 C   0  0  0  0  0  0  0  0  0  0  0  0
   -2.6840   23.1460  -30.6870 O   0  0  0  0  0  0  0  0  0  0  0  0
   -3.5000   22.5240  -31.6370 C   0  0  0  0  0  0  0  0  0  0  0  0
   -2.9900   21.9710  -32.6490 O   0  0  0  0  0  0  0  0  0  0  0  0
   -4.9250   22.5230  -31.4610 N   0  0  0  0  0  0  0  0  0  0  0  0
   -5.6980   23.5100  -30.9270 C   0  0  0  0  0  0  0  0  0  0  0  0
   -5.2020   24.7400  -30.2780 C   0  0  0  0  0  0  0  0  0  0  0  0
   -5.7450   25.1910  -29.0360 N   0  0  0  0  0  0  0  0  0  0  0  0
   -4.3230   25.4330  -30.8550 O   0  0  0  0  0  0  0  0  0  0  0  0
   -7.0490   23.1850  -31.0260 C   0  0  0  0  0  0  0  0  0  0  0  0
   -7.0800   21.9480  -31.6300 C   0  0  0  0  0  0  0  0  0  0  0  0
   -8.1660   21.1590  -31.9940 C   0  0  0  0  0  0  0  0  0  0  0  0
   -7.9080   19.9430  -32.6470 C   0  0  0  0  0  0  0  0  0  0  0  0
   -6.5760   19.5340  -32.9190 C   0  0  0  0  0  0  0  0  0  0  0  0
   -6.3140   18.2610  -33.6830 C   0  0  0  0  0  0  0  0  0  0  0  0
   -5.1840   17.6240  -33.1960 F   0  0  0  0  0  0  0  0  0  0  0  0
   -6.1210   18.5610  -35.0180 F   0  0  0  0  0  0  0  0  0  0  0  0
   -7.3840   17.3910  -33.5650 F   0  0  0  0  0  0  0  0  0  0  0  0
   -5.5020   20.3780  -32.5570 C   0  0  0  0  0  0  0  0  0  0  0  0
   -5.7870   21.5710  -31.8840 C   0  0  0  0  0  0  0  0  0  0  0  0
   -1.5755   22.5618  -26.2678 H   0  0  0  0  0  0  0  0  0  0  0  0
   -1.4986   21.1895  -27.4243 H   0  0  0  0  0  0  0  0  0  0  0  0
   -0.2067   22.4375  -27.4243 H   0  0  0  0  0  0  0  0  0  0  0  0
   -3.6291   23.1080  -26.7920 H   0  0  0  0  0  0  0  0  0  0  0  0
   -4.0446   24.0127  -28.2872 H   0  0  0  0  0  0  0  0  0  0  0  0
   -4.0724   22.2166  -28.2872 H   0  0  0  0  0  0  0  0  0  0  0  0
   -1.7133   25.0056  -27.3675 H   0  0  0  0  0  0  0  0  0  0  0  0
   -0.4691   24.5062  -28.5848 H   0  0  0  0  0  0  0  0  0  0  0  0
   -2.4620   24.6740  -30.0550 H   0  0  0  0  0  0  0  0  0  0  0  0
   -0.8881   22.3911  -29.9954 H   0  0  0  0  0  0  0  0  0  0  0  0
   -2.3541   21.3960  -29.6476 H   0  0  0  0  0  0  0  0  0  0  0  0
   -6.5880   24.7390  -28.6200 H   0  0  0  0  0  0  0  0  0  0  0  0
   -5.3540   26.0410  -28.5720 H   0  0  0  0  0  0  0  0  0  0  0  0
   -7.9070   23.7874  -30.6930 H   0  0  0  0  0  0  0  0  0  0  0  0
   -9.1961   21.4780  -31.7769 H   0  0  0  0  0  0  0  0  0  0  0  0
   -8.7472   19.3002  -32.9512 H   0  0  0  0  0  0  0  0  0  0  0  0
   -4.4648   20.1031  -32.7990 H   0  0  0  0  0  0  0  0  0  0  0  0
  1  2  1  0
  2  3  1  0
  2  4  1  0
  4  5  1  0
  2  6  1  0
  6  7  1  0
  7  8  1  0
  8  9  2  0
  8 10  1  0
 10 11  1  0
 11 12  1  0
 12 13  1  0
 12 14  2  0
 11 15  2  0
 15 16  1  0
 16 17  2  0
 17 18  1  0
 18 19  2  0
 19 20  1  0
 20 21  1  0
 20 22  1  0
 20 23  1  0
 19 24  1  0
 24 25  2  0
 25 10  1  0
 25 16  1  0
  1 26  1  0
  1 27  1  0
  1 28  1  0
  3 29  1  0
  3 30  1  0
  3 31  1  0
  4 32  1  0
  4 33  1  0
  5 34  1  0
  6 35  1  0
  6 36  1  0
 13 37  1  0
 13 38  1  0
 15 39  1  0
 17 40  1  0
 18 41  1  0
 24 42  1  0
M  END
>  <UniqueID>  (55) 
55

>  <SMILES>  (55) 
CC(C)(CO)COC(=O)n1c(C(N)=O)cc2ccc(C(F)(F)F)cc21

>  <Energy>  (55) 
74.45132867936047

>  <Genealogy>  (55) 
CC(C)(CO)COC(=O)n1c(C(N)=O)cc2ccc(C(F)(F)F)cc21 (3D coordinates assigned)
CC(C)(CO)COC(=O)n1c(C(N)=O)cc2ccc(C(F)(F)F)cc21 (optimized conformer: 74.45132867936047 kcal/mol)

>  <smiles>  (55) 
CC(C)(CO)COC(=O)n1c(C(N)=O)cc2ccc(C(F)(F)F)cc21

>  <score_type>  (55) 
oracle

>  <origin>  (55) 
adg

>  <m_score__min__energy>  (55) 
-8.7200000000000006

>  <m_primary>  (55) 
energy

$$$$
56:0
     RDKit          3D

 36 39  0  0  0  0  0  0  0  0999 V2000
   -6.8240   12.6420  -35.0480 C   0  0  0  0  0  0  0  0  0  0  0  0
   -6.4020   13.9950  -34.5830 C   0  0  0  0  0  0  0  0  0  0  0  0
   -5.1030   14.3970  -34.5780 N   0  0  0  0  0  0  0  0  0  0  0  0
   -5.1960   15.6630  -34.1470 C   0  0  0  0  0  0  0  0  0  0  0  0
   -4.1620   16.5700  -33.9440 C   0  0  0  0  0  0  0  0  0  0  0  0
   -4.4990   17.8570  -33.4870 C   0  0  0  0  0  0  0  0  0  0  0  0
   -5.8560   18.2130  -33.2470 C   0  0  0  0  0  0  0  0  0  0  0  0
   -6.2020   19.5740  -32.7670 C   0  0  0  0  0  0  0  0  0  0  0  0
   -7.5530   20.0110  -32.7710 C   0  0  0  0  0  0  0  0  0  0  0  0
   -7.8930   21.3010  -32.3310 C   0  0  0  0  0  0  0  0  0  0  0  0
   -6.8680   22.1300  -31.8860 C   0  0  0  0  0  0  0  0  0  0  0  0
   -6.9140   23.4270  -31.4320 C   0  0  0  0  0  0  0  0  0  0  0  0
   -5.5960   23.7610  -31.1310 C   0  0  0  0  0  0  0  0  0  0  0  0
   -5.2040   25.0520  -30.5280 C   0  0  0  0  0  0  0  0  0  0  0  0
   -3.9550   25.6610  -30.8440 N   0  0  0  0  0  0  0  0  0  0  0  0
   -5.9610   25.6010  -29.6840 O   0  0  0  0  0  0  0  0  0  0  0  0
   -4.7650   22.7130  -31.3960 N   0  0  0  0  0  0  0  0  0  0  0  0
   -3.3310   22.6790  -31.3030 C   0  0  0  0  0  0  0  0  0  0  0  0
   -2.7470   23.1540  -30.2940 O   0  0  0  0  0  0  0  0  0  0  0  0
   -2.5740   22.1440  -32.3380 O   0  0  0  0  0  0  0  0  0  0  0  0
   -5.5600   21.7210  -31.8550 C   0  0  0  0  0  0  0  0  0  0  0  0
   -5.1910   20.4490  -32.3060 C   0  0  0  0  0  0  0  0  0  0  0  0
   -6.8730   17.2530  -33.4720 C   0  0  0  0  0  0  0  0  0  0  0  0
   -6.4960   15.9900  -33.9220 C   0  0  0  0  0  0  0  0  0  0  0  0
   -7.2920   14.9470  -34.1970 N   0  0  0  0  0  0  0  0  0  0  0  0
   -7.0240   12.0008  -34.1769 H   0  0  0  0  0  0  0  0  0  0  0  0
   -7.7370   12.7312  -35.6550 H   0  0  0  0  0  0  0  0  0  0  0  0
   -6.0222   12.1963  -35.6550 H   0  0  0  0  0  0  0  0  0  0  0  0
   -3.1153   16.2905  -34.1344 H   0  0  0  0  0  0  0  0  0  0  0  0
   -3.7041   18.5972  -33.3130 H   0  0  0  0  0  0  0  0  0  0  0  0
   -8.3429   19.3312  -33.1229 H   0  0  0  0  0  0  0  0  0  0  0  0
   -8.9377   21.6452  -32.3381 H   0  0  0  0  0  0  0  0  0  0  0  0
   -7.8036   24.0657  -31.3285 H   0  0  0  0  0  0  0  0  0  0  0  0
   -3.0600   25.2820  -30.4620 H   0  0  0  0  0  0  0  0  0  0  0  0
   -4.1365   20.1360  -32.3021 H   0  0  0  0  0  0  0  0  0  0  0  0
   -7.9308   17.4981  -33.2962 H   0  0  0  0  0  0  0  0  0  0  0  0
  1  2  1  0
  2  3  2  0
  3  4  1  0
  4  5  2  0
  5  6  1  0
  6  7  2  0
  7  8  1  0
  8  9  2  0
  9 10  1  0
 10 11  2  0
 11 12  1  0
 12 13  2  0
 13 14  1  0
 14 15  1  0
 14 16  2  0
 13 17  1  0
 17 18  1  0
 18 19  2  0
 18 20  1  0
 17 21  1  0
 21 22  2  0
  7 23  1  0
 23 24  2  0
 24 25  1  0
 25  2  1  0
 24  4  1  0
 22  8  1  0
 21 11  1  0
  1 26  1  0
  1 27  1  0
  1 28  1  0
  5 29  1  0
  6 30  1  0
  9 31  1  0
 10 32  1  0
 12 33  1  0
 15 34  1  0
 22 35  1  0
 23 36  1  0
M  CHG  3  15  -1  20  -1  25  -1
M  END
>  <UniqueID>  (56) 
56

>  <SMILES>  (56) 
Cc1nc2ccc(-c3ccc4cc(C([NH-])=O)n(C(=O)[O-])c4c3)cc2[n-]1

>  <Energy>  (56) 
119.00620358607118

>  <Genealogy>  (56) 
Cc1nc2ccc(-c3ccc4cc(C([NH-])=O)n(C(=O)[O-])c4c3)cc2[n-]1 (protonated)
Cc1nc2ccc(-c3ccc4cc(C([NH-])=O)n(C(=O)[O-])c4c3)cc2[n-]1 (3D coordinates assigned)
Cc1nc2ccc(-c3ccc4cc(C([NH-])=O)n(C(=O)[O-])c4c3)cc2[n-]1 (optimized conformer: 119.00620358607118 kcal/mol)

>  <smiles>  (56) 
Cc1nc2ccc(-c3ccc4cc(C(N)=O)n(C(=O)O)c4c3)cc2[nH]1

>  <score_type>  (56) 
oracle

>  <origin>  (56) 
adg

>  <m_score__min__energy>  (56) 
-11.210000000000001

>  <m_primary>  (56) 
energy

$$$$
57:0
     RDKit          3D

 49 50  0  0  0  0  0  0  0  0999 V2000
   -6.5650   23.3120  -32.2870 C   0  0  0  0  0  0  0  0  0  0  0  0
   -7.6570   22.4020  -31.6980 C   0  0  0  0  0  0  0  0  0  0  0  0
   -7.4760   22.3270  -30.1670 C   0  0  0  0  0  0  0  0  0  0  0  0
   -9.0400   22.9890  -32.0170 C   0  0  0  0  0  0  0  0  0  0  0  0
   -7.5640   21.0220  -32.3170 C   0  0  0  0  0  0  0  0  0  0  0  0
   -6.9900   20.8620  -33.4340 O   0  0  0  0  0  0  0  0  0  0  0  0
   -8.0320   19.9110  -31.6060 O   0  0  0  0  0  0  0  0  0  0  0  0
   -8.3310   18.6710  -32.2380 C   0  0  0  0  0  0  0  0  0  0  0  0
   -7.1580   17.8640  -32.3090 O   0  0  0  0  0  0  0  0  0  0  0  0
   -6.1770   18.0420  -33.2900 C   0  0  0  0  0  0  0  0  0  0  0  0
   -6.4900   18.0240  -34.5070 O   0  0  0  0  0  0  0  0  0  0  0  0
   -4.7580   18.3230  -32.8760 C   0  0  0  0  0  0  0  0  0  0  0  0
   -4.2440   19.6690  -33.4050 C   0  0  0  0  0  0  0  0  0  0  0  0
   -3.2570   20.3180  -32.4630 C   0  0  0  0  0  0  0  0  0  0  0  0
   -1.9990   19.7130  -32.2180 C   0  0  0  0  0  0  0  0  0  0  0  0
   -1.0650   20.3200  -31.3630 C   0  0  0  0  0  0  0  0  0  0  0  0
   -1.4130   21.5300  -30.7710 C   0  0  0  0  0  0  0  0  0  0  0  0
   -0.6970   22.3260  -29.9070 C   0  0  0  0  0  0  0  0  0  0  0  0
   -1.5200   23.4160  -29.6450 C   0  0  0  0  0  0  0  0  0  0  0  0
   -1.0820   24.5770  -28.8410 C   0  0  0  0  0  0  0  0  0  0  0  0
   -1.9940   25.6140  -28.4720 N   0  0  0  0  0  0  0  0  0  0  0  0
    0.1380   24.6960  -28.5460 O   0  0  0  0  0  0  0  0  0  0  0  0
   -2.7110   23.2930  -30.3000 N   0  0  0  0  0  0  0  0  0  0  0  0
   -3.8610   24.1500  -30.1870 C   0  0  0  0  0  0  0  0  0  0  0  0
   -4.8780   23.7820  -29.5320 O   0  0  0  0  0  0  0  0  0  0  0  0
   -3.8610   25.3990  -30.7900 O   0  0  0  0  0  0  0  0  0  0  0  0
   -2.6260   22.1340  -30.9950 C   0  0  0  0  0  0  0  0  0  0  0  0
   -3.5840   21.5370  -31.8250 C   0  0  0  0  0  0  0  0  0  0  0  0
   -5.9998   23.7830  -31.4693 H   0  0  0  0  0  0  0  0  0  0  0  0
   -5.8823   22.7118  -32.9064 H   0  0  0  0  0  0  0  0  0  0  0  0
   -7.0322   24.0918  -32.9064 H   0  0  0  0  0  0  0  0  0  0  0  0
   -8.3833   22.7030  -29.6717 H   0  0  0  0  0  0  0  0  0  0  0  0
   -7.3016   21.2826  -29.8691 H   0  0  0  0  0  0  0  0  0  0  0  0
   -6.6140   22.9420  -29.8691 H   0  0  0  0  0  0  0  0  0  0  0  0
   -9.5684   23.2133  -31.0787 H   0  0  0  0  0  0  0  0  0  0  0  0
   -8.9201   23.9138  -32.6004 H   0  0  0  0  0  0  0  0  0  0  0  0
   -9.6219   22.2603  -32.6004 H   0  0  0  0  0  0  0  0  0  0  0  0
   -9.1018   18.1429  -31.6575 H   0  0  0  0  0  0  0  0  0  0  0  0
   -8.6981   18.8645  -33.2567 H   0  0  0  0  0  0  0  0  0  0  0  0
   -4.7072   18.3338  -31.7772 H   0  0  0  0  0  0  0  0  0  0  0  0
   -4.1236   17.5328  -33.3039 H   0  0  0  0  0  0  0  0  0  0  0  0
   -3.7508   19.5028  -34.3741 H   0  0  0  0  0  0  0  0  0  0  0  0
   -5.1077   20.3431  -33.5031 H   0  0  0  0  0  0  0  0  0  0  0  0
   -1.7515   18.7572  -32.7030 H   0  0  0  0  0  0  0  0  0  0  0  0
   -0.0884   19.8532  -31.1673 H   0  0  0  0  0  0  0  0  0  0  0  0
    0.3113   22.1400  -29.5085 H   0  0  0  0  0  0  0  0  0  0  0  0
   -2.9800   25.6210  -28.8170 H   0  0  0  0  0  0  0  0  0  0  0  0
   -1.6640   26.4200  -27.8950 H   0  0  0  0  0  0  0  0  0  0  0  0
   -4.5676   22.0056  -31.9768 H   0  0  0  0  0  0  0  0  0  0  0  0
  1  2  1  0
  2  3  1  0
  2  4  1  0
  2  5  1  0
  5  6  2  0
  5  7  1  0
  7  8  1  0
  8  9  1  0
  9 10  1  0
 10 11  2  0
 10 12  1  0
 12 13  1  0
 13 14  1  0
 14 15  2  0
 15 16  1  0
 16 17  2  0
 17 18  1  0
 18 19  2  0
 19 20  1  0
 20 21  1  0
 20 22  2  0
 19 23  1  0
 23 24  1  0
 24 25  2  0
 24 26  1  0
 23 27  1  0
 27 28  2  0
 28 14  1  0
 27 17  1  0
  1 29  1  0
  1 30  1  0
  1 31  1  0
  3 32  1  0
  3 33  1  0
  3 34  1  0
  4 35  1  0
  4 36  1  0
  4 37  1  0
  8 38  1  0
  8 39  1  0
 12 40  1  0
 12 41  1  0
 13 42  1  0
 13 43  1  0
 15 44  1  0
 16 45  1  0
 18 46  1  0
 21 47  1  0
 21 48  1  0
 28 49  1  0
M  CHG  1  26  -1
M  END
>  <UniqueID>  (57) 
57

>  <SMILES>  (57) 
CC(C)(C)C(=O)OCOC(=O)CCc1ccc2cc(C(N)=O)n(C(=O)[O-])c2c1

>  <Energy>  (57) 
77.83631204717558

>  <Genealogy>  (57) 
CC(C)(C)C(=O)OCOC(=O)CCc1ccc2cc(C(N)=O)n(C(=O)[O-])c2c1 (protonated)
CC(C)(C)C(=O)OCOC(=O)CCc1ccc2cc(C(N)=O)n(C(=O)[O-])c2c1 (3D coordinates assigned)
CC(C)(C)C(=O)OCOC(=O)CCc1ccc2cc(C(N)=O)n(C(=O)[O-])c2c1 (optimized conformer: 77.83631204717558 kcal/mol)

>  <smiles>  (57) 
CC(C)(C)C(=O)OCOC(=O)CCc1ccc2cc(C(N)=O)n(C(=O)O)c2c1

>  <score_type>  (57) 
oracle

>  <origin>  (57) 
adg

>  <m_score__min__energy>  (57) 
-9.5700000000000003

>  <m_primary>  (57) 
energy

$$$$
58:0
     RDKit          3D

 33 34  0  0  0  0  0  0  0  0999 V2000
   -1.6120   25.6530  -28.9560 N   0  0  0  0  0  0  0  0  0  0  0  0
   -1.0750   24.3520  -29.1800 C   0  0  0  0  0  0  0  0  0  0  0  0
    0.0710   24.0740  -28.7350 O   0  0  0  0  0  0  0  0  0  0  0  0
   -1.8150   23.3490  -29.9740 C   0  0  0  0  0  0  0  0  0  0  0  0
   -1.2630   22.1330  -30.3740 C   0  0  0  0  0  0  0  0  0  0  0  0
   -2.2230   21.5370  -31.1570 C   0  0  0  0  0  0  0  0  0  0  0  0
   -2.2070   20.3100  -31.8140 C   0  0  0  0  0  0  0  0  0  0  0  0
   -3.3530   19.9340  -32.5350 C   0  0  0  0  0  0  0  0  0  0  0  0
   -4.4910   20.7780  -32.5740 C   0  0  0  0  0  0  0  0  0  0  0  0
   -5.7080   20.3750  -33.3670 C   0  0  0  0  0  0  0  0  0  0  0  0
   -6.7420   19.6400  -32.4920 C   0  0  2  0  0  0  0  0  0  0  0  0
   -7.2170   18.4310  -33.1730 N   0  0  0  0  0  0  0  0  0  0  0  0
   -6.3620   17.3120  -33.4300 C   0  0  0  0  0  0  0  0  0  0  0  0
   -5.1520   17.3330  -33.0810 O   0  0  0  0  0  0  0  0  0  0  0  0
   -6.8700   16.1900  -34.0710 O   0  0  0  0  0  0  0  0  0  0  0  0
   -7.9070   20.5350  -32.1730 C   0  0  0  0  0  0  0  0  0  0  0  0
   -7.7340   21.6000  -31.5220 O   0  0  0  0  0  0  0  0  0  0  0  0
   -9.1890   20.1740  -32.5680 O   0  0  0  0  0  0  0  0  0  0  0  0
   -4.4680   22.0190  -31.9000 C   0  0  0  0  0  0  0  0  0  0  0  0
   -3.3070   22.3780  -31.2060 C   0  0  0  0  0  0  0  0  0  0  0  0
   -3.0720   23.4940  -30.4820 N   0  0  0  0  0  0  0  0  0  0  0  0
   -4.0040   24.5600  -30.2370 C   0  0  0  0  0  0  0  0  0  0  0  0
   -3.8650   25.6720  -30.8100 O   0  0  0  0  0  0  0  0  0  0  0  0
   -5.0530   24.3820  -29.3440 O   0  0  0  0  0  0  0  0  0  0  0  0
   -2.6410   25.8260  -29.0060 H   0  0  0  0  0  0  0  0  0  0  0  0
   -0.2701   21.7349  -30.1176 H   0  0  0  0  0  0  0  0  0  0  0  0
   -1.3245   19.6549  -31.7702 H   0  0  0  0  0  0  0  0  0  0  0  0
   -3.3671   18.9754  -33.0743 H   0  0  0  0  0  0  0  0  0  0  0  0
   -6.1746   21.2782  -33.7872 H   0  0  0  0  0  0  0  0  0  0  0  0
   -5.3855   19.6897  -34.1647 H   0  0  0  0  0  0  0  0  0  0  0  0
   -6.2505   19.3551  -31.5501 H   0  0  0  0  0  0  0  0  0  0  0  0
   -8.2130   18.3670  -33.4830 H   0  0  0  0  0  0  0  0  0  0  0  0
   -5.3416   22.6872  -31.9201 H   0  0  0  0  0  0  0  0  0  0  0  0
  1  2  1  0
  2  3  2  0
  2  4  1  0
  4  5  2  0
  5  6  1  0
  6  7  2  0
  7  8  1  0
  8  9  2  0
  9 10  1  0
 10 11  1  0
 11 12  1  0
 12 13  1  0
 13 14  2  0
 13 15  1  0
 11 16  1  0
 16 17  2  0
 16 18  1  0
  9 19  1  0
 19 20  2  0
 20 21  1  0
 21 22  1  0
 22 23  2  0
 22 24  1  0
 21  4  1  0
 20  6  1  0
  1 25  1  0
  5 26  1  0
  7 27  1  0
  8 28  1  0
 10 29  1  0
 10 30  1  0
 11 31  1  1
 12 32  1  0
 19 33  1  0
M  CHG  4   1  -1  15  -1  18  -1  24  -1
M  END
>  <UniqueID>  (58) 
58

>  <SMILES>  (58) 
[NH-]C(=O)c1cc2ccc(C[C@H](NC(=O)[O-])C(=O)[O-])cc2n1C(=O)[O-]

>  <Energy>  (58) 
69.36111543824714

>  <Genealogy>  (58) 
[NH-]C(=O)c1cc2ccc(C[C@H](NC(=O)[O-])C(=O)[O-])cc2n1C(=O)[O-] (protonated)
[NH-]C(=O)c1cc2ccc(C[C@H](NC(=O)[O-])C(=O)[O-])cc2n1C(=O)[O-] (3D coordinates assigned)
[NH-]C(=O)c1cc2ccc(C[C@H](NC(=O)[O-])C(=O)[O-])cc2n1C(=O)[O-] (optimized conformer: 69.36111543824714 kcal/mol)

>  <smiles>  (58) 
NC(=O)c1cc2ccc(C[C@H](NC(=O)O)C(=O)O)cc2n1C(=O)O

>  <score_type>  (58) 
oracle

>  <origin>  (58) 
adg

>  <m_score__min__energy>  (58) 
-10.93

>  <m_primary>  (58) 
energy

$$$$
59:0
     RDKit          3D

 36 37  0  0  0  0  0  0  0  0999 V2000
   -1.1450   22.2110  -30.7450 N   0  0  0  0  0  0  0  0  0  0  0  0
   -1.7920   21.8000  -31.9510 C   0  0  0  0  0  0  0  0  0  0  0  0
   -1.1190   21.7040  -33.0120 O   0  0  0  0  0  0  0  0  0  0  0  0
   -3.2480   21.5570  -31.9910 C   0  0  0  0  0  0  0  0  0  0  0  0
   -3.8190   20.4010  -32.5150 C   0  0  0  0  0  0  0  0  0  0  0  0
   -5.1780   20.6000  -32.4340 C   0  0  0  0  0  0  0  0  0  0  0  0
   -6.2260   19.7580  -32.7910 C   0  0  0  0  0  0  0  0  0  0  0  0
   -7.5370   20.2010  -32.5550 C   0  0  0  0  0  0  0  0  0  0  0  0
   -7.7810   21.4740  -31.9790 C   0  0  0  0  0  0  0  0  0  0  0  0
   -9.1920   21.9120  -31.6740 C   0  0  0  0  0  0  0  0  0  0  0  0
  -10.0780   21.0850  -32.3370 F   0  0  0  0  0  0  0  0  0  0  0  0
   -9.4420   21.8440  -30.3140 F   0  0  0  0  0  0  0  0  0  0  0  0
   -9.3970   23.2170  -32.0870 F   0  0  0  0  0  0  0  0  0  0  0  0
   -6.6870   22.2900  -31.6050 C   0  0  0  0  0  0  0  0  0  0  0  0
   -5.3900   21.8320  -31.8720 C   0  0  0  0  0  0  0  0  0  0  0  0
   -4.2120   22.4320  -31.5900 N   0  0  0  0  0  0  0  0  0  0  0  0
   -4.0230   23.6690  -30.8850 C   0  0  0  0  0  0  0  0  0  0  0  0
   -4.7750   24.6510  -31.1290 O   0  0  0  0  0  0  0  0  0  0  0  0
   -3.0150   23.7620  -29.9150 O   0  0  0  0  0  0  0  0  0  0  0  0
   -3.2280   23.7250  -28.5310 C   0  0  0  0  0  0  0  0  0  0  0  0
   -4.3590   23.4420  -28.0510 O   0  0  0  0  0  0  0  0  0  0  0  0
   -2.0970   24.0630  -27.6070 C   0  0  0  0  0  0  0  0  0  0  0  0
   -0.9920   24.8590  -28.3190 C   0  0  0  0  0  0  0  0  0  0  0  0
   -1.5300   25.9940  -28.9450 O   0  0  0  0  0  0  0  0  0  0  0  0
   -0.3640   24.0640  -29.2890 O   0  0  0  0  0  0  0  0  0  0  0  0
   -0.1150   22.3780  -30.7370 H   0  0  0  0  0  0  0  0  0  0  0  0
   -1.6940   22.4370  -29.8870 H   0  0  0  0  0  0  0  0  0  0  0  0
   -3.2958   19.5174  -32.9095 H   0  0  0  0  0  0  0  0  0  0  0  0
   -6.0333   18.7746  -33.2446 H   0  0  0  0  0  0  0  0  0  0  0  0
   -8.3854   19.5530  -32.8200 H   0  0  0  0  0  0  0  0  0  0  0  0
   -6.8511   23.2615  -31.1159 H   0  0  0  0  0  0  0  0  0  0  0  0
   -2.4872   24.6647  -26.7729 H   0  0  0  0  0  0  0  0  0  0  0  0
   -1.6590   23.1207  -27.2462 H   0  0  0  0  0  0  0  0  0  0  0  0
   -0.2568   25.1690  -27.5618 H   0  0  0  0  0  0  0  0  0  0  0  0
   -2.0030   25.6760  -29.7600 H   0  0  0  0  0  0  0  0  0  0  0  0
   -0.8840   24.1680  -30.1290 H   0  0  0  0  0  0  0  0  0  0  0  0
  1  2  1  0
  2  3  2  0
  2  4  1  0
  4  5  2  0
  5  6  1  0
  6  7  2  0
  7  8  1  0
  8  9  2  0
  9 10  1  0
 10 11  1  0
 10 12  1  0
 10 13  1  0
  9 14  1  0
 14 15  2  0
 15 16  1  0
 16 17  1  0
 17 18  2  0
 17 19  1  0
 19 20  1  0
 20 21  2  0
 20 22  1  0
 22 23  1  0
 23 24  1  0
 23 25  1  0
 16  4  1  0
 15  6  1  0
  1 26  1  0
  1 27  1  0
  5 28  1  0
  7 29  1  0
  8 30  1  0
 14 31  1  0
 22 32  1  0
 22 33  1  0
 23 34  1  0
 24 35  1  0
 25 36  1  0
M  END
>  <UniqueID>  (59) 
59

>  <SMILES>  (59) 
NC(=O)c1cc2ccc(C(F)(F)F)cc2n1C(=O)OC(=O)CC(O)O

>  <Energy>  (59) 
74.08310228618348

>  <Genealogy>  (59) 
NC(=O)c1cc2ccc(C(F)(F)F)cc2n1C(=O)OC(=O)CC(O)O (3D coordinates assigned)
NC(=O)c1cc2ccc(C(F)(F)F)cc2n1C(=O)OC(=O)CC(O)O (optimized conformer: 74.08310228618348 kcal/mol)

>  <smiles>  (59) 
NC(=O)c1cc2ccc(C(F)(F)F)cc2n1C(=O)OC(=O)CC(O)O

>  <score_type>  (59) 
oracle

>  <origin>  (59) 
adg

>  <m_score__min__energy>  (59) 
-7.8499999999999996

>  <m_primary>  (59) 
energy

$$$$
60:0
     RDKit          3D

 28 29  0  0  0  0  0  0  0  0999 V2000
   -5.5340   18.4110  -34.5910 C   0  0  0  0  0  0  0  0  0  0  0  0
   -4.7020   19.1620  -33.5560 C   0  0  1  0  0  0  0  0  0  0  0  0
   -3.5560   19.6600  -34.1550 F   0  0  0  0  0  0  0  0  0  0  0  0
   -5.4990   20.2850  -32.9450 C   0  0  0  0  0  0  0  0  0  0  0  0
   -6.9170   20.2370  -32.9400 C   0  0  0  0  0  0  0  0  0  0  0  0
   -7.6660   21.2570  -32.3300 C   0  0  0  0  0  0  0  0  0  0  0  0
   -6.9750   22.3080  -31.7350 C   0  0  0  0  0  0  0  0  0  0  0  0
   -7.4520   23.3970  -31.0440 C   0  0  0  0  0  0  0  0  0  0  0  0
   -6.3210   24.1070  -30.6510 C   0  0  0  0  0  0  0  0  0  0  0  0
   -6.3800   25.3910  -29.9250 C   0  0  0  0  0  0  0  0  0  0  0  0
   -5.5600   26.4960  -30.3080 N   0  0  0  0  0  0  0  0  0  0  0  0
   -7.2090   25.5340  -28.9880 O   0  0  0  0  0  0  0  0  0  0  0  0
   -5.1860   23.4760  -31.0690 N   0  0  0  0  0  0  0  0  0  0  0  0
   -3.8260   23.8310  -30.7630 C   0  0  0  0  0  0  0  0  0  0  0  0
   -2.9250   22.9520  -30.7610 O   0  0  0  0  0  0  0  0  0  0  0  0
   -3.4900   25.1470  -30.4710 O   0  0  0  0  0  0  0  0  0  0  0  0
   -5.6040   22.3760  -31.7360 C   0  0  0  0  0  0  0  0  0  0  0  0
   -4.8330   21.3610  -32.3160 C   0  0  0  0  0  0  0  0  0  0  0  0
   -6.2562   17.7591  -34.0778 H   0  0  0  0  0  0  0  0  0  0  0  0
   -6.0746   19.1329  -35.2207 H   0  0  0  0  0  0  0  0  0  0  0  0
   -4.8710   17.7995  -35.2207 H   0  0  0  0  0  0  0  0  0  0  0  0
   -4.4204   18.4647  -32.7532 H   0  0  0  0  0  0  0  0  0  0  0  0
   -7.4350   19.3928  -33.4185 H   0  0  0  0  0  0  0  0  0  0  0  0
   -8.7655   21.2258  -32.3230 H   0  0  0  0  0  0  0  0  0  0  0  0
   -8.5031   23.6526  -30.8444 H   0  0  0  0  0  0  0  0  0  0  0  0
   -5.5880   27.3840  -29.7600 H   0  0  0  0  0  0  0  0  0  0  0  0
   -4.9890   26.4670  -31.1810 H   0  0  0  0  0  0  0  0  0  0  0  0
   -3.7342   21.4004  -32.2827 H   0  0  0  0  0  0  0  0  0  0  0  0
  1  2  1  0
  2  3  1  0
  2  4  1  0
  4  5  2  0
  5  6  1  0
  6  7  2  0
  7  8  1  0
  8  9  2  0
  9 10  1  0
 10 11  1  0
 10 12  2  0
  9 13  1  0
 13 14  1  0
 14 15  2  0
 14 16  1  0
 13 17  1  0
 17 18  2  0
 18  4  1  0
 17  7  1  0
  1 19  1  0
  1 20  1  0
  1 21  1  0
  2 22  1  1
  5 23  1  0
  6 24  1  0
  8 25  1  0
 11 26  1  0
 11 27  1  0
 18 28  1  0
M  CHG  1  16  -1
M  END
>  <UniqueID>  (60) 
60

>  <SMILES>  (60) 
C[C@@H](F)c1ccc2cc(C(N)=O)n(C(=O)[O-])c2c1

>  <Energy>  (60) 
65.78229173745275

>  <Genealogy>  (60) 
CC(F)c1ccc2cc(C(N)=O)n(C(=O)[O-])c2c1 (protonated)
C[C@@H](F)c1ccc2cc(C(N)=O)n(C(=O)[O-])c2c1 (chirality)
C[C@@H](F)c1ccc2cc(C(N)=O)n(C(=O)[O-])c2c1 (3D coordinates assigned)
C[C@@H](F)c1ccc2cc(C(N)=O)n(C(=O)[O-])c2c1 (optimized conformer: 65.78229173745275 kcal/mol)

>  <smiles>  (60) 
CC(F)c1ccc2cc(C(N)=O)n(C(=O)O)c2c1

>  <score_type>  (60) 
oracle

>  <origin>  (60) 
adg

>  <m_score__min__energy>  (60) 
-8.4000000000000004

>  <m_primary>  (60) 
energy

$$$$
61:0
     RDKit          3D

 43 44  0  0  0  0  0  0  0  0999 V2000
   -4.1180   24.5730  -27.0420 C   0  0  0  0  0  0  0  0  0  0  0  0
   -3.4420   23.8290  -28.1210 N   0  0  0  0  0  0  0  0  0  0  0  0
   -3.8570   22.4140  -28.1240 C   0  0  0  0  0  0  0  0  0  0  0  0
   -1.9670   23.9870  -28.0910 C   0  0  0  0  0  0  0  0  0  0  0  0
   -1.1830   22.7820  -28.6590 C   0  0  0  0  0  0  0  0  0  0  0  0
   -1.3120   22.6940  -30.1790 C   0  0  0  0  0  0  0  0  0  0  0  0
   -2.5980   23.1590  -30.5780 O   0  0  0  0  0  0  0  0  0  0  0  0
   -3.3480   22.5610  -31.5940 C   0  0  0  0  0  0  0  0  0  0  0  0
   -2.7720   21.9330  -32.5230 O   0  0  0  0  0  0  0  0  0  0  0  0
   -4.7840   22.6380  -31.5580 N   0  0  0  0  0  0  0  0  0  0  0  0
   -5.5550   23.6760  -31.1230 C   0  0  0  0  0  0  0  0  0  0  0  0
   -5.0730   24.8870  -30.4270 C   0  0  0  0  0  0  0  0  0  0  0  0
   -3.8760   25.5430  -30.8410 N   0  0  0  0  0  0  0  0  0  0  0  0
   -5.6920   25.3130  -29.4160 O   0  0  0  0  0  0  0  0  0  0  0  0
   -6.9060   23.4040  -31.3340 C   0  0  0  0  0  0  0  0  0  0  0  0
   -6.9420   22.1510  -31.9020 C   0  0  0  0  0  0  0  0  0  0  0  0
   -8.0310   21.3840  -32.3020 C   0  0  0  0  0  0  0  0  0  0  0  0
   -7.7770   20.1220  -32.8650 C   0  0  0  0  0  0  0  0  0  0  0  0
   -6.4460   19.6610  -33.0430 C   0  0  0  0  0  0  0  0  0  0  0  0
   -6.1870   18.2860  -33.6060 C   0  0  0  0  0  0  0  0  0  0  0  0
   -7.2400   17.4340  -33.3230 F   0  0  0  0  0  0  0  0  0  0  0  0
   -6.0350   18.3430  -34.9820 F   0  0  0  0  0  0  0  0  0  0  0  0
   -5.0300   17.7770  -33.0460 F   0  0  0  0  0  0  0  0  0  0  0  0
   -5.3660   20.4630  -32.6050 C   0  0  0  0  0  0  0  0  0  0  0  0
   -5.6500   21.7090  -32.0270 C   0  0  0  0  0  0  0  0  0  0  0  0
   -3.7758   24.1964  -26.0668 H   0  0  0  0  0  0  0  0  0  0  0  0
   -3.8765   25.6428  -27.1272 H   0  0  0  0  0  0  0  0  0  0  0  0
   -5.2060   24.4348  -27.1272 H   0  0  0  0  0  0  0  0  0  0  0  0
   -3.7690   24.2430  -29.0270 H   0  0  0  0  0  0  0  0  0  0  0  0
   -3.9608   22.0601  -27.0877 H   0  0  0  0  0  0  0  0  0  0  0  0
   -4.8217   22.3159  -28.6433 H   0  0  0  0  0  0  0  0  0  0  0  0
   -3.0981   21.8104  -28.6433 H   0  0  0  0  0  0  0  0  0  0  0  0
   -1.7045   24.8772  -28.6815 H   0  0  0  0  0  0  0  0  0  0  0  0
   -1.6826   24.0750  -27.0320 H   0  0  0  0  0  0  0  0  0  0  0  0
   -0.1204   22.8915  -28.3965 H   0  0  0  0  0  0  0  0  0  0  0  0
   -1.6020   21.8626  -28.2240 H   0  0  0  0  0  0  0  0  0  0  0  0
   -0.5360   23.3162  -30.6487 H   0  0  0  0  0  0  0  0  0  0  0  0
   -1.1877   21.6480  -30.4958 H   0  0  0  0  0  0  0  0  0  0  0  0
   -2.9540   25.2920  -30.4200 H   0  0  0  0  0  0  0  0  0  0  0  0
   -7.7617   24.0532  -31.0968 H   0  0  0  0  0  0  0  0  0  0  0  0
   -9.0598   21.7541  -32.1813 H   0  0  0  0  0  0  0  0  0  0  0  0
   -8.6190   19.4839  -33.1714 H   0  0  0  0  0  0  0  0  0  0  0  0
   -4.3275   20.1174  -32.7152 H   0  0  0  0  0  0  0  0  0  0  0  0
  1  2  1  0
  2  3  1  0
  2  4  1  0
  4  5  1  0
  5  6  1  0
  6  7  1  0
  7  8  1  0
  8  9  2  0
  8 10  1  0
 10 11  1  0
 11 12  1  0
 12 13  1  0
 12 14  2  0
 11 15  2  0
 15 16  1  0
 16 17  2  0
 17 18  1  0
 18 19  2  0
 19 20  1  0
 20 21  1  0
 20 22  1  0
 20 23  1  0
 19 24  1  0
 24 25  2  0
 25 10  1  0
 25 16  1  0
  1 26  1  0
  1 27  1  0
  1 28  1  0
  2 29  1  0
  3 30  1  0
  3 31  1  0
  3 32  1  0
  4 33  1  0
  4 34  1  0
  5 35  1  0
  5 36  1  0
  6 37  1  0
  6 38  1  0
 13 39  1  0
 15 40  1  0
 17 41  1  0
 18 42  1  0
 24 43  1  0
M  CHG  2   2   1  13  -1
M  END
>  <UniqueID>  (61) 
61

>  <SMILES>  (61) 
C[NH+](C)CCCOC(=O)n1c(C([NH-])=O)cc2ccc(C(F)(F)F)cc21

>  <Energy>  (61) 
79.50950299092023

>  <Genealogy>  (61) 
C[NH+](C)CCCOC(=O)n1c(C([NH-])=O)cc2ccc(C(F)(F)F)cc21 (protonated)
C[NH+](C)CCCOC(=O)n1c(C([NH-])=O)cc2ccc(C(F)(F)F)cc21 (3D coordinates assigned)
C[NH+](C)CCCOC(=O)n1c(C([NH-])=O)cc2ccc(C(F)(F)F)cc21 (optimized conformer: 79.50950299092023 kcal/mol)

>  <smiles>  (61) 
CN(C)CCCOC(=O)n1c(C(N)=O)cc2ccc(C(F)(F)F)cc21

>  <score_type>  (61) 
oracle

>  <origin>  (61) 
adg

>  <m_score__min__energy>  (61) 
-8.5

>  <m_primary>  (61) 
energy

$$$$
62:0
     RDKit          3D

 39 40  0  0  0  0  0  0  0  0999 V2000
   -7.2540   17.4390  -33.0860 C   0  0  0  0  0  0  0  0  0  0  0  0
   -7.2820   18.5760  -32.6900 C   0  0  0  0  0  0  0  0  0  0  0  0
   -7.3160   19.9360  -32.2170 C   0  0  0  0  0  0  0  0  0  0  0  0
   -8.5540   20.5370  -31.8910 C   0  0  0  0  0  0  0  0  0  0  0  0
   -8.6000   21.8590  -31.4160 C   0  0  0  0  0  0  0  0  0  0  0  0
   -7.3960   22.5470  -31.2870 C   0  0  0  0  0  0  0  0  0  0  0  0
   -7.1490   23.8200  -30.8260 C   0  0  0  0  0  0  0  0  0  0  0  0
   -5.7670   23.9790  -30.9010 C   0  0  0  0  0  0  0  0  0  0  0  0
   -5.0760   25.2440  -30.5770 C   0  0  0  0  0  0  0  0  0  0  0  0
   -3.6570   25.2930  -30.4510 N   0  0  0  0  0  0  0  0  0  0  0  0
   -5.7430   26.3060  -30.4570 O   0  0  0  0  0  0  0  0  0  0  0  0
   -5.1810   22.8470  -31.3820 N   0  0  0  0  0  0  0  0  0  0  0  0
   -3.7780   22.5740  -31.5150 C   0  0  0  0  0  0  0  0  0  0  0  0
   -3.2940   22.3060  -32.6490 O   0  0  0  0  0  0  0  0  0  0  0  0
   -2.9570   22.5890  -30.3810 O   0  0  0  0  0  0  0  0  0  0  0  0
   -3.0790   21.6560  -29.3090 C   0  0  0  0  0  0  0  0  0  0  0  0
   -3.4770   22.3880  -28.0120 C   0  0  0  0  0  0  0  0  0  0  0  0
   -3.3200   23.8620  -28.0620 N   0  0  0  0  0  0  0  0  0  0  0  0
   -1.9280   24.2930  -27.8430 C   0  0  0  0  0  0  0  0  0  0  0  0
   -4.2360   24.5590  -27.1410 C   0  0  0  0  0  0  0  0  0  0  0  0
   -6.1910   21.9800  -31.6150 C   0  0  0  0  0  0  0  0  0  0  0  0
   -6.1160   20.6580  -32.0730 C   0  0  0  0  0  0  0  0  0  0  0  0
   -7.2284   16.4005  -33.4477 H   0  0  0  0  0  0  0  0  0  0  0  0
   -9.4868   19.9662  -32.0099 H   0  0  0  0  0  0  0  0  0  0  0  0
   -9.5565   22.3351  -31.1545 H   0  0  0  0  0  0  0  0  0  0  0  0
   -7.8865   24.5559  -30.4731 H   0  0  0  0  0  0  0  0  0  0  0  0
   -3.0470   24.6630  -31.0170 H   0  0  0  0  0  0  0  0  0  0  0  0
   -3.8510   20.9134  -29.5591 H   0  0  0  0  0  0  0  0  0  0  0  0
   -2.1121   21.1541  -29.1568 H   0  0  0  0  0  0  0  0  0  0  0  0
   -4.5327   22.1624  -27.8008 H   0  0  0  0  0  0  0  0  0  0  0  0
   -2.7938   22.0281  -27.2286 H   0  0  0  0  0  0  0  0  0  0  0  0
   -3.5810   24.1570  -29.0320 H   0  0  0  0  0  0  0  0  0  0  0  0
   -1.7289   24.3547  -26.7629 H   0  0  0  0  0  0  0  0  0  0  0  0
   -1.2424   23.5651  -28.3013 H   0  0  0  0  0  0  0  0  0  0  0  0
   -1.7737   25.2810  -28.3013 H   0  0  0  0  0  0  0  0  0  0  0  0
   -3.9482   24.3400  -26.1021 H   0  0  0  0  0  0  0  0  0  0  0  0
   -4.1778   25.6433  -27.3168 H   0  0  0  0  0  0  0  0  0  0  0  0
   -5.2655   24.2138  -27.3168 H   0  0  0  0  0  0  0  0  0  0  0  0
   -5.1466   20.1971  -32.3134 H   0  0  0  0  0  0  0  0  0  0  0  0
  1  2  3  0
  2  3  1  0
  3  4  2  0
  4  5  1  0
  5  6  2  0
  6  7  1  0
  7  8  2  0
  8  9  1  0
  9 10  1  0
  9 11  2  0
  8 12  1  0
 12 13  1  0
 13 14  2  0
 13 15  1  0
 15 16  1  0
 16 17  1  0
 17 18  1  0
 18 19  1  0
 18 20  1  0
 12 21  1  0
 21 22  2  0
 22  3  1  0
 21  6  1  0
  1 23  1  0
  4 24  1  0
  5 25  1  0
  7 26  1  0
 10 27  1  0
 16 28  1  0
 16 29  1  0
 17 30  1  0
 17 31  1  0
 18 32  1  0
 19 33  1  0
 19 34  1  0
 19 35  1  0
 20 36  1  0
 20 37  1  0
 20 38  1  0
 22 39  1  0
M  CHG  2  10  -1  18   1
M  END
>  <UniqueID>  (62) 
62

>  <SMILES>  (62) 
C#Cc1ccc2cc(C([NH-])=O)n(C(=O)OCC[NH+](C)C)c2c1

>  <Energy>  (62) 
76.42434199093599

>  <Genealogy>  (62) 
C#Cc1ccc2cc(C([NH-])=O)n(C(=O)OCC[NH+](C)C)c2c1 (protonated)
C#Cc1ccc2cc(C([NH-])=O)n(C(=O)OCC[NH+](C)C)c2c1 (3D coordinates assigned)
C#Cc1ccc2cc(C([NH-])=O)n(C(=O)OCC[NH+](C)C)c2c1 (optimized conformer: 76.42434199093599 kcal/mol)

>  <smiles>  (62) 
C#Cc1ccc2cc(C(N)=O)n(C(=O)OCCN(C)C)c2c1

>  <score_type>  (62) 
oracle

>  <origin>  (62) 
adg

>  <m_score__min__energy>  (62) 
-9.4000000000000004

>  <m_primary>  (62) 
energy

$$$$
63:0
     RDKit          3D

 36 37  0  0  0  0  0  0  0  0999 V2000
   -6.1450   17.9760  -35.0450 N   0  0  0  0  0  0  0  0  0  0  0  0
   -4.8100   18.0750  -34.5460 C   0  0  0  0  0  0  0  0  0  0  0  0
   -3.9760   17.1760  -34.8350 O   0  0  0  0  0  0  0  0  0  0  0  0
   -4.4070   19.1760  -33.6500 C   0  0  0  0  0  0  0  0  0  0  0  0
   -3.0920   19.6160  -33.5190 C   0  0  0  0  0  0  0  0  0  0  0  0
   -3.1320   20.6010  -32.5590 C   0  0  0  0  0  0  0  0  0  0  0  0
   -2.1090   21.3910  -32.0430 C   0  0  0  0  0  0  0  0  0  0  0  0
   -2.4450   22.3610  -31.0840 C   0  0  0  0  0  0  0  0  0  0  0  0
   -3.7910   22.5360  -30.6770 C   0  0  0  0  0  0  0  0  0  0  0  0
   -4.1350   23.5670  -29.6380 C   0  0  0  0  0  0  0  0  0  0  0  0
   -3.4940   24.8740  -29.9810 C   0  0  0  0  0  0  0  0  0  0  0  0
   -4.0260   25.6360  -30.8310 O   0  0  0  0  0  0  0  0  0  0  0  0
   -2.3360   25.2740  -29.3270 O   0  0  0  0  0  0  0  0  0  0  0  0
   -4.8020   21.7120  -31.2170 C   0  0  0  0  0  0  0  0  0  0  0  0
   -4.4360   20.7370  -32.1510 C   0  0  0  0  0  0  0  0  0  0  0  0
   -5.2310   19.8670  -32.8130 N   0  0  0  0  0  0  0  0  0  0  0  0
   -6.6620   19.7820  -32.7290 C   0  0  0  0  0  0  0  0  0  0  0  0
   -7.2150   18.6640  -32.5400 O   0  0  0  0  0  0  0  0  0  0  0  0
   -7.4390   20.9390  -32.8450 O   0  0  0  0  0  0  0  0  0  0  0  0
   -8.5740   21.1860  -32.0190 C   0  0  0  0  0  0  0  0  0  0  0  0
   -8.8040   22.6890  -31.8640 C   0  0  0  0  0  0  0  0  0  0  0  0
   -7.5200   23.4270  -31.6330 C   0  0  0  0  0  0  0  0  0  0  0  0
   -6.8300   23.7840  -32.5740 O   0  0  0  0  0  0  0  0  0  0  0  0
   -6.9020   18.5980  -34.6860 H   0  0  0  0  0  0  0  0  0  0  0  0
   -6.4000   17.2140  -35.7120 H   0  0  0  0  0  0  0  0  0  0  0  0
   -2.2095   19.2533  -34.0664 H   0  0  0  0  0  0  0  0  0  0  0  0
   -1.0688   21.2598  -32.3760 H   0  0  0  0  0  0  0  0  0  0  0  0
   -1.6565   22.9901  -30.6453 H   0  0  0  0  0  0  0  0  0  0  0  0
   -5.2268   23.6957  -29.6003 H   0  0  0  0  0  0  0  0  0  0  0  0
   -3.7646   23.2297  -28.6587 H   0  0  0  0  0  0  0  0  0  0  0  0
   -5.8516   21.8336  -30.9110 H   0  0  0  0  0  0  0  0  0  0  0  0
   -9.4628   20.7289  -32.4784 H   0  0  0  0  0  0  0  0  0  0  0  0
   -8.3942   20.7485  -31.0259 H   0  0  0  0  0  0  0  0  0  0  0  0
   -9.2759   23.0735  -32.7802 H   0  0  0  0  0  0  0  0  0  0  0  0
   -9.4520   22.8476  -30.9894 H   0  0  0  0  0  0  0  0  0  0  0  0
   -7.1966   23.6489  -30.6053 H   0  0  0  0  0  0  0  0  0  0  0  0
  1  2  1  0
  2  3  2  0
  2  4  1  0
  4  5  2  0
  5  6  1  0
  6  7  2  0
  7  8  1  0
  8  9  2  0
  9 10  1  0
 10 11  1  0
 11 12  2  0
 11 13  1  0
  9 14  1  0
 14 15  2  0
 15 16  1  0
 16 17  1  0
 17 18  2  0
 17 19  1  0
 19 20  1  0
 20 21  1  0
 21 22  1  0
 22 23  2  0
 16  4  1  0
 15  6  1  0
  1 24  1  0
  1 25  1  0
  5 26  1  0
  7 27  1  0
  8 28  1  0
 10 29  1  0
 10 30  1  0
 14 31  1  0
 20 32  1  0
 20 33  1  0
 21 34  1  0
 21 35  1  0
 22 36  1  0
M  CHG  1  13  -1
M  END
>  <UniqueID>  (63) 
63

>  <SMILES>  (63) 
NC(=O)c1cc2ccc(CC(=O)[O-])cc2n1C(=O)OCCC=O

>  <Energy>  (63) 
67.71895804884267

>  <Genealogy>  (63) 
NC(=O)c1cc2ccc(CC(=O)[O-])cc2n1C(=O)OCCC=O (protonated)
NC(=O)c1cc2ccc(CC(=O)[O-])cc2n1C(=O)OCCC=O (3D coordinates assigned)
NC(=O)c1cc2ccc(CC(=O)[O-])cc2n1C(=O)OCCC=O (optimized conformer: 67.71895804884267 kcal/mol)

>  <smiles>  (63) 
NC(=O)c1cc2ccc(CC(=O)O)cc2n1C(=O)OCCC=O

>  <score_type>  (63) 
oracle

>  <origin>  (63) 
adg

>  <m_score__min__energy>  (63) 
-9.2300000000000004

>  <m_primary>  (63) 
energy

$$$$
64:0
     RDKit          3D

 40 42  0  0  0  0  0  0  0  0999 V2000
   -2.1240   25.3280  -28.5210 N   0  0  0  0  0  0  0  0  0  0  0  0
   -1.2530   24.3060  -29.0060 C   0  0  0  0  0  0  0  0  0  0  0  0
   -0.0320   24.3470  -28.7000 O   0  0  0  0  0  0  0  0  0  0  0  0
   -1.7640   23.2190  -29.8750 C   0  0  0  0  0  0  0  0  0  0  0  0
   -1.0340   22.0840  -30.2250 C   0  0  0  0  0  0  0  0  0  0  0  0
   -1.8930   21.3180  -30.9820 C   0  0  0  0  0  0  0  0  0  0  0  0
   -1.6860   20.0880  -31.5990 C   0  0  0  0  0  0  0  0  0  0  0  0
   -2.7450   19.5390  -32.3430 C   0  0  0  0  0  0  0  0  0  0  0  0
   -3.9770   20.2300  -32.4700 C   0  0  0  0  0  0  0  0  0  0  0  0
   -5.0550   19.6570  -33.2350 N   0  0  0  0  0  0  0  0  0  0  0  0
   -4.7920   18.5620  -34.1750 C   0  0  0  0  0  0  0  0  0  0  0  0
   -6.0960   17.8360  -34.5390 C   0  0  0  0  0  0  0  0  0  0  0  0
   -6.9520   17.6950  -33.3540 N   0  0  0  0  0  0  0  0  0  0  0  0
   -7.4020   18.9970  -32.8190 C   0  0  0  0  0  0  0  0  0  0  0  0
   -6.4280   20.1580  -33.1040 C   0  0  0  0  0  0  0  0  0  0  0  0
   -4.1470   21.4740  -31.8220 C   0  0  0  0  0  0  0  0  0  0  0  0
   -3.0850   21.9860  -31.0700 C   0  0  0  0  0  0  0  0  0  0  0  0
   -3.0250   23.1510  -30.3890 N   0  0  0  0  0  0  0  0  0  0  0  0
   -4.0570   24.1460  -30.2950 C   0  0  0  0  0  0  0  0  0  0  0  0
   -3.8600   25.2970  -30.7700 O   0  0  0  0  0  0  0  0  0  0  0  0
   -5.3650   23.8370  -29.6360 C   0  0  0  0  0  0  0  0  0  0  0  0
   -5.8430   24.9830  -28.9890 O   0  0  0  0  0  0  0  0  0  0  0  0
   -1.7420   26.1070  -27.9400 H   0  0  0  0  0  0  0  0  0  0  0  0
   -3.1530   25.2980  -28.6940 H   0  0  0  0  0  0  0  0  0  0  0  0
    0.0062   21.8500  -29.9544 H   0  0  0  0  0  0  0  0  0  0  0  0
   -0.7243   19.5620  -31.5075 H   0  0  0  0  0  0  0  0  0  0  0  0
   -2.6166   18.5622  -32.8323 H   0  0  0  0  0  0  0  0  0  0  0  0
   -4.3391   18.9720  -35.0898 H   0  0  0  0  0  0  0  0  0  0  0  0
   -4.1074   17.8439  -33.6999 H   0  0  0  0  0  0  0  0  0  0  0  0
   -6.6313   18.4152  -35.3058 H   0  0  0  0  0  0  0  0  0  0  0  0
   -5.8514   16.8348  -34.9234 H   0  0  0  0  0  0  0  0  0  0  0  0
   -6.4100   17.1940  -32.6110 H   0  0  0  0  0  0  0  0  0  0  0  0
   -8.3741   19.2408  -33.2724 H   0  0  0  0  0  0  0  0  0  0  0  0
   -7.4617   18.8904  -31.7258 H   0  0  0  0  0  0  0  0  0  0  0  0
   -6.7224   20.6560  -34.0396 H   0  0  0  0  0  0  0  0  0  0  0  0
   -6.4684   20.8698  -32.2664 H   0  0  0  0  0  0  0  0  0  0  0  0
   -5.0938   22.0275  -31.9072 H   0  0  0  0  0  0  0  0  0  0  0  0
   -6.0918   23.5150  -30.3963 H   0  0  0  0  0  0  0  0  0  0  0  0
   -5.2239   23.0319  -28.8999 H   0  0  0  0  0  0  0  0  0  0  0  0
   -5.1060   25.6470  -29.0260 H   0  0  0  0  0  0  0  0  0  0  0  0
  1  2  1  0
  2  3  2  0
  2  4  1  0
  4  5  2  0
  5  6  1  0
  6  7  2  0
  7  8  1  0
  8  9  2  0
  9 10  1  0
 10 11  1  0
 11 12  1  0
 12 13  1  0
 13 14  1  0
 14 15  1  0
  9 16  1  0
 16 17  2  0
 17 18  1  0
 18 19  1  0
 19 20  2  0
 19 21  1  0
 21 22  1  0
 18  4  1  0
 17  6  1  0
 15 10  1  0
  1 23  1  0
  1 24  1  0
  5 25  1  0
  7 26  1  0
  8 27  1  0
 11 28  1  0
 11 29  1  0
 12 30  1  0
 12 31  1  0
 13 32  1  0
 14 33  1  0
 14 34  1  0
 15 35  1  0
 15 36  1  0
 16 37  1  0
 21 38  1  0
 21 39  1  0
 22 40  1  0
M  END
>  <UniqueID>  (64) 
64

>  <SMILES>  (64) 
NC(=O)c1cc2ccc(N3CCNCC3)cc2n1C(=O)CO

>  <Energy>  (64) 
87.5387648988975

>  <Genealogy>  (64) 
NC(=O)c1cc2ccc(N3CCNCC3)cc2n1C(=O)CO (3D coordinates assigned)
NC(=O)c1cc2ccc(N3CCNCC3)cc2n1C(=O)CO (nonaromatic ring conformer: 87.5387648988975 kcal/mol)

>  <smiles>  (64) 
NC(=O)c1cc2ccc(N3CCNCC3)cc2n1C(=O)CO

>  <score_type>  (64) 
oracle

>  <origin>  (64) 
adg

>  <m_score__min__energy>  (64) 
-9.0099999999999998

>  <m_primary>  (64) 
energy

$$$$
65:0
     RDKit          3D

 35 36  0  0  0  0  0  0  0  0999 V2000
   -5.6240   18.1130  -34.5820 C   0  0  0  0  0  0  0  0  0  0  0  0
   -5.9790   18.3210  -33.1730 N   0  0  0  0  0  0  0  0  0  0  0  0
   -5.9430   17.1750  -32.2560 C   0  0  0  0  0  0  0  0  0  0  0  0
   -6.3600   19.6380  -32.6940 C   0  0  0  0  0  0  0  0  0  0  0  0
   -7.7280   20.0370  -32.6800 C   0  0  0  0  0  0  0  0  0  0  0  0
   -8.1070   21.3120  -32.2290 C   0  0  0  0  0  0  0  0  0  0  0  0
   -7.1090   22.1730  -31.7880 C   0  0  0  0  0  0  0  0  0  0  0  0
   -7.1970   23.4660  -31.3280 C   0  0  0  0  0  0  0  0  0  0  0  0
   -5.8880   23.8450  -31.0390 C   0  0  0  0  0  0  0  0  0  0  0  0
   -5.5280   25.1450  -30.4370 C   0  0  0  0  0  0  0  0  0  0  0  0
   -4.2350   25.7000  -30.6670 N   0  0  0  0  0  0  0  0  0  0  0  0
   -6.3620   25.7900  -29.7480 O   0  0  0  0  0  0  0  0  0  0  0  0
   -5.0240   22.8270  -31.3160 N   0  0  0  0  0  0  0  0  0  0  0  0
   -3.5920   22.8430  -31.2270 C   0  0  0  0  0  0  0  0  0  0  0  0
   -2.9010   22.2310  -32.0880 O   0  0  0  0  0  0  0  0  0  0  0  0
   -2.9660   23.5570  -30.1980 O   0  0  0  0  0  0  0  0  0  0  0  0
   -1.6400   23.2870  -29.7500 C   0  0  0  0  0  0  0  0  0  0  0  0
   -1.0130   24.5280  -29.2000 C   0  0  0  0  0  0  0  0  0  0  0  0
   -1.5860   25.6400  -29.3440 O   0  0  0  0  0  0  0  0  0  0  0  0
    0.2150   24.4640  -28.5560 O   0  0  0  0  0  0  0  0  0  0  0  0
   -5.7890   21.8090  -31.7730 C   0  0  0  0  0  0  0  0  0  0  0  0
   -5.3790   20.5530  -32.2330 C   0  0  0  0  0  0  0  0  0  0  0  0
   -4.6764   17.5578  -34.6433 H   0  0  0  0  0  0  0  0  0  0  0  0
   -6.4188   17.5377  -35.0793 H   0  0  0  0  0  0  0  0  0  0  0  0
   -5.5108   19.0876  -35.0793 H   0  0  0  0  0  0  0  0  0  0  0  0
   -5.9543   17.5362  -31.2171 H   0  0  0  0  0  0  0  0  0  0  0  0
   -6.8215   16.5369  -32.4319 H   0  0  0  0  0  0  0  0  0  0  0  0
   -5.0261   16.5933  -32.4319 H   0  0  0  0  0  0  0  0  0  0  0  0
   -8.4999   19.3348  -33.0282 H   0  0  0  0  0  0  0  0  0  0  0  0
   -9.1629   21.6202  -32.2249 H   0  0  0  0  0  0  0  0  0  0  0  0
   -8.1076   24.0722  -31.2127 H   0  0  0  0  0  0  0  0  0  0  0  0
   -3.4980   25.6700  -29.9280 H   0  0  0  0  0  0  0  0  0  0  0  0
   -1.6725   22.5183  -28.9639 H   0  0  0  0  0  0  0  0  0  0  0  0
   -1.0410   22.9317  -30.6015 H   0  0  0  0  0  0  0  0  0  0  0  0
   -4.3135   20.2795  -32.2371 H   0  0  0  0  0  0  0  0  0  0  0  0
  1  2  1  0
  2  3  1  0
  2  4  1  0
  4  5  2  0
  5  6  1  0
  6  7  2  0
  7  8  1  0
  8  9  2  0
  9 10  1  0
 10 11  1  0
 10 12  2  0
  9 13  1  0
 13 14  1  0
 14 15  2  0
 14 16  1  0
 16 17  1  0
 17 18  1  0
 18 19  2  0
 18 20  1  0
 13 21  1  0
 21 22  2  0
 22  4  1  0
 21  7  1  0
  1 23  1  0
  1 24  1  0
  1 25  1  0
  3 26  1  0
  3 27  1  0
  3 28  1  0
  5 29  1  0
  6 30  1  0
  8 31  1  0
 11 32  1  0
 17 33  1  0
 17 34  1  0
 22 35  1  0
M  CHG  2  11  -1  20  -1
M  END
>  <UniqueID>  (65) 
65

>  <SMILES>  (65) 
CN(C)c1ccc2cc(C([NH-])=O)n(C(=O)OCC(=O)[O-])c2c1

>  <Energy>  (65) 
73.0703823304306

>  <Genealogy>  (65) 
CN(C)c1ccc2cc(C([NH-])=O)n(C(=O)OCC(=O)[O-])c2c1 (protonated)
CN(C)c1ccc2cc(C([NH-])=O)n(C(=O)OCC(=O)[O-])c2c1 (3D coordinates assigned)
CN(C)c1ccc2cc(C([NH-])=O)n(C(=O)OCC(=O)[O-])c2c1 (optimized conformer: 73.0703823304306 kcal/mol)

>  <smiles>  (65) 
CN(C)c1ccc2cc(C(N)=O)n(C(=O)OCC(=O)O)c2c1

>  <score_type>  (65) 
oracle

>  <origin>  (65) 
adg

>  <m_score__min__energy>  (65) 
-11.960000000000001

>  <m_primary>  (65) 
energy

$$$$
66:0
     RDKit          3D

 42 43  0  0  0  0  0  0  0  0999 V2000
   -2.9370   21.9850  -28.8280 C   0  0  0  0  0  0  0  0  0  0  0  0
   -2.5860   23.2610  -29.5130 C   0  0  0  0  0  0  0  0  0  0  0  0
   -2.2640   24.2680  -28.8240 O   0  0  0  0  0  0  0  0  0  0  0  0
   -2.6640   23.3280  -30.9090 O   0  0  0  0  0  0  0  0  0  0  0  0
   -3.4700   22.5090  -31.7130 C   0  0  0  0  0  0  0  0  0  0  0  0
   -2.9550   21.6620  -32.4940 O   0  0  0  0  0  0  0  0  0  0  0  0
   -4.8990   22.6160  -31.6180 N   0  0  0  0  0  0  0  0  0  0  0  0
   -5.6310   23.6250  -31.0670 C   0  0  0  0  0  0  0  0  0  0  0  0
   -5.0970   24.7770  -30.3110 C   0  0  0  0  0  0  0  0  0  0  0  0
   -4.0050   25.5420  -30.8150 N   0  0  0  0  0  0  0  0  0  0  0  0
   -5.5800   25.0610  -29.1830 O   0  0  0  0  0  0  0  0  0  0  0  0
   -6.9940   23.3830  -31.2320 C   0  0  0  0  0  0  0  0  0  0  0  0
   -7.0740   22.1810  -31.8960 C   0  0  0  0  0  0  0  0  0  0  0  0
   -8.1880   21.4590  -32.3050 C   0  0  0  0  0  0  0  0  0  0  0  0
   -7.9770   20.2470  -32.9820 C   0  0  0  0  0  0  0  0  0  0  0  0
   -6.6620   19.7800  -33.2620 C   0  0  0  0  0  0  0  0  0  0  0  0
   -6.4870   18.5060  -33.9490 N   0  0  1  0  0  0  0  0  0  0  0  0
   -5.1480   18.3720  -34.5650 C   0  0  0  0  0  0  0  0  0  0  0  0
   -6.8950   17.3560  -33.0870 C   0  0  0  0  0  0  0  0  0  0  0  0
   -6.4120   17.4550  -31.6230 C   0  0  0  0  0  0  0  0  0  0  0  0
   -6.4640   16.0070  -33.6890 C   0  0  0  0  0  0  0  0  0  0  0  0
   -5.5540   20.5510  -32.8150 C   0  0  0  0  0  0  0  0  0  0  0  0
   -5.7970   21.7410  -32.1200 C   0  0  0  0  0  0  0  0  0  0  0  0
   -2.8969   22.1307  -27.7384 H   0  0  0  0  0  0  0  0  0  0  0  0
   -3.9526   21.6794  -29.1200 H   0  0  0  0  0  0  0  0  0  0  0  0
   -2.2206   21.2030  -29.1200 H   0  0  0  0  0  0  0  0  0  0  0  0
   -3.0190   25.2780  -30.5960 H   0  0  0  0  0  0  0  0  0  0  0  0
   -7.8286   24.0186  -30.9013 H   0  0  0  0  0  0  0  0  0  0  0  0
   -9.2054   21.8259  -32.1045 H   0  0  0  0  0  0  0  0  0  0  0  0
   -8.8428   19.6483  -33.3014 H   0  0  0  0  0  0  0  0  0  0  0  0
   -7.1490   18.5160  -34.7630 H   0  0  0  0  0  0  0  0  0  0  0  0
   -4.3868   18.2958  -33.7746 H   0  0  0  0  0  0  0  0  0  0  0  0
   -5.1205   17.4666  -35.1891 H   0  0  0  0  0  0  0  0  0  0  0  0
   -4.9416   19.2540  -35.1891 H   0  0  0  0  0  0  0  0  0  0  0  0
   -7.9934   17.4103  -33.0610 H   0  0  0  0  0  0  0  0  0  0  0  0
   -7.2602   17.2811  -30.9445 H   0  0  0  0  0  0  0  0  0  0  0  0
   -5.6356   16.6973  -31.4410 H   0  0  0  0  0  0  0  0  0  0  0  0
   -5.9963   18.4570  -31.4410 H   0  0  0  0  0  0  0  0  0  0  0  0
   -6.2378   15.2991  -32.8780 H   0  0  0  0  0  0  0  0  0  0  0  0
   -7.2786   15.6055  -34.3097 H   0  0  0  0  0  0  0  0  0  0  0  0
   -5.5675   16.1521  -34.3097 H   0  0  0  0  0  0  0  0  0  0  0  0
   -4.5243   20.2180  -33.0120 H   0  0  0  0  0  0  0  0  0  0  0  0
  1  2  1  0
  2  3  2  0
  2  4  1  0
  4  5  1  0
  5  6  2  0
  5  7  1  0
  7  8  1  0
  8  9  1  0
  9 10  1  0
  9 11  2  0
  8 12  2  0
 12 13  1  0
 13 14  2  0
 14 15  1  0
 15 16  2  0
 16 17  1  0
 17 18  1  0
 17 19  1  0
 19 20  1  0
 19 21  1  0
 16 22  1  0
 22 23  2  0
 23  7  1  0
 23 13  1  0
  1 24  1  0
  1 25  1  0
  1 26  1  0
 10 27  1  0
 12 28  1  0
 14 29  1  0
 15 30  1  0
 17 31  1  6
 18 32  1  0
 18 33  1  0
 18 34  1  0
 19 35  1  0
 20 36  1  0
 20 37  1  0
 20 38  1  0
 21 39  1  0
 21 40  1  0
 21 41  1  0
 22 42  1  0
M  CHG  2  10  -1  17   1
M  END
>  <UniqueID>  (66) 
66

>  <SMILES>  (66) 
CC(=O)OC(=O)n1c(C([NH-])=O)cc2ccc([N@@H+](C)C(C)C)cc21

>  <Energy>  (66) 
86.79912628667907

>  <Genealogy>  (66) 
CC(=O)OC(=O)n1c(C([NH-])=O)cc2ccc([NH+](C)C(C)C)cc21 (protonated)
CC(=O)OC(=O)n1c(C([NH-])=O)cc2ccc([N@@H+](C)C(C)C)cc21 (chirality)
CC(=O)OC(=O)n1c(C([NH-])=O)cc2ccc([N@@H+](C)C(C)C)cc21 (3D coordinates assigned)
CC(=O)OC(=O)n1c(C([NH-])=O)cc2ccc([N@@H+](C)C(C)C)cc21 (optimized conformer: 86.79912628667907 kcal/mol)

>  <smiles>  (66) 
CC(=O)OC(=O)n1c(C(N)=O)cc2ccc(N(C)C(C)C)cc21

>  <score_type>  (66) 
oracle

>  <origin>  (66) 
adg

>  <m_score__min__energy>  (66) 
-9.8699999999999992

>  <m_primary>  (66) 
energy

$$$$
67:0
     RDKit          3D

 45 46  0  0  0  0  0  0  0  0999 V2000
   -4.7470   24.7650  -29.3060 N   0  0  0  0  0  0  0  0  0  0  0  0
   -6.0400   24.6040  -29.8930 C   0  0  0  0  0  0  0  0  0  0  0  0
   -6.8940   25.5230  -29.7680 O   0  0  0  0  0  0  0  0  0  0  0  0
   -6.4160   23.3550  -30.5850 C   0  0  0  0  0  0  0  0  0  0  0  0
   -7.7290   23.0310  -30.9130 C   0  0  0  0  0  0  0  0  0  0  0  0
   -7.6640   21.7770  -31.4730 C   0  0  0  0  0  0  0  0  0  0  0  0
   -8.6810   20.9730  -31.9830 C   0  0  0  0  0  0  0  0  0  0  0  0
   -8.3250   19.7280  -32.5290 C   0  0  0  0  0  0  0  0  0  0  0  0
   -6.9730   19.3220  -32.5640 C   0  0  0  0  0  0  0  0  0  0  0  0
   -6.6220   18.0490  -33.1330 C   0  0  0  0  0  0  0  0  0  0  0  0
   -6.3340   16.9800  -33.6070 C   0  0  0  0  0  0  0  0  0  0  0  0
   -5.9770   15.6780  -34.1810 C   0  0  0  0  0  0  0  0  0  0  0  0
   -5.1520   14.8650  -33.1880 C   0  0  0  0  0  0  0  0  0  0  0  0
   -5.0130   15.5900  -31.9970 O   0  0  0  0  0  0  0  0  0  0  0  0
   -5.9640   20.1610  -32.0450 C   0  0  0  0  0  0  0  0  0  0  0  0
   -6.3480   21.3870  -31.4840 C   0  0  0  0  0  0  0  0  0  0  0  0
   -5.5650   22.3520  -30.9430 N   0  0  0  0  0  0  0  0  0  0  0  0
   -4.1290   22.3630  -30.8670 C   0  0  0  0  0  0  0  0  0  0  0  0
   -3.4820   23.3830  -31.2330 O   0  0  0  0  0  0  0  0  0  0  0  0
   -3.4500   21.2340  -30.3970 O   0  0  0  0  0  0  0  0  0  0  0  0
   -2.0360   21.1900  -30.2440 C   0  0  0  0  0  0  0  0  0  0  0  0
   -1.5770   22.3890  -29.4830 C   0  0  0  0  0  0  0  0  0  0  0  0
   -0.4890   22.9440  -29.7950 O   0  0  0  0  0  0  0  0  0  0  0  0
   -2.3740   22.9040  -28.4530 O   0  0  0  0  0  0  0  0  0  0  0  0
   -1.8920   23.8210  -27.4720 C   0  0  0  0  0  0  0  0  0  0  0  0
   -1.7340   25.2200  -28.0620 C   0  0  0  0  0  0  0  0  0  0  0  0
   -2.3550   25.2800  -29.3170 O   0  0  0  0  0  0  0  0  0  0  0  0
   -4.4900   25.6650  -28.8430 H   0  0  0  0  0  0  0  0  0  0  0  0
   -4.0790   23.9650  -29.2450 H   0  0  0  0  0  0  0  0  0  0  0  0
   -8.6272   23.6467  -30.7574 H   0  0  0  0  0  0  0  0  0  0  0  0
   -9.7302   21.3025  -31.9591 H   0  0  0  0  0  0  0  0  0  0  0  0
   -9.1049   19.0652  -32.9319 H   0  0  0  0  0  0  0  0  0  0  0  0
   -6.8964   15.1258  -34.4256 H   0  0  0  0  0  0  0  0  0  0  0  0
   -5.3799   15.8415  -35.0902 H   0  0  0  0  0  0  0  0  0  0  0  0
   -5.6612   13.9123  -32.9807 H   0  0  0  0  0  0  0  0  0  0  0  0
   -4.1582   14.6626  -33.6139 H   0  0  0  0  0  0  0  0  0  0  0  0
   -4.7640   14.9260  -31.3020 H   0  0  0  0  0  0  0  0  0  0  0  0
   -4.9061   19.8615  -32.0796 H   0  0  0  0  0  0  0  0  0  0  0  0
   -1.7554   20.2788  -29.6955 H   0  0  0  0  0  0  0  0  0  0  0  0
   -1.5613   21.1835  -31.2363 H   0  0  0  0  0  0  0  0  0  0  0  0
   -2.6058   23.8616  -26.6360 H   0  0  0  0  0  0  0  0  0  0  0  0
   -0.9082   23.4750  -27.1221 H   0  0  0  0  0  0  0  0  0  0  0  0
   -2.1998   25.9548  -27.3888 H   0  0  0  0  0  0  0  0  0  0  0  0
   -0.6637   25.4470  -28.1757 H   0  0  0  0  0  0  0  0  0  0  0  0
   -2.1080   24.4400  -29.7860 H   0  0  0  0  0  0  0  0  0  0  0  0
  1  2  1  0
  2  3  2  0
  2  4  1  0
  4  5  2  0
  5  6  1  0
  6  7  2  0
  7  8  1  0
  8  9  2  0
  9 10  1  0
 10 11  3  0
 11 12  1  0
 12 13  1  0
 13 14  1  0
  9 15  1  0
 15 16  2  0
 16 17  1  0
 17 18  1  0
 18 19  2  0
 18 20  1  0
 20 21  1  0
 21 22  1  0
 22 23  2  0
 22 24  1  0
 24 25  1  0
 25 26  1  0
 26 27  1  0
 17  4  1  0
 16  6  1  0
  1 28  1  0
  1 29  1  0
  5 30  1  0
  7 31  1  0
  8 32  1  0
 12 33  1  0
 12 34  1  0
 13 35  1  0
 13 36  1  0
 14 37  1  0
 15 38  1  0
 21 39  1  0
 21 40  1  0
 25 41  1  0
 25 42  1  0
 26 43  1  0
 26 44  1  0
 27 45  1  0
M  END
>  <UniqueID>  (67) 
67

>  <SMILES>  (67) 
NC(=O)c1cc2ccc(C#CCCO)cc2n1C(=O)OCC(=O)OCCO

>  <Energy>  (67) 
69.33689914457426

>  <Genealogy>  (67) 
NC(=O)c1cc2ccc(C#CCCO)cc2n1C(=O)OCC(=O)OCCO (3D coordinates assigned)
NC(=O)c1cc2ccc(C#CCCO)cc2n1C(=O)OCC(=O)OCCO (optimized conformer: 69.33689914457426 kcal/mol)

>  <smiles>  (67) 
NC(=O)c1cc2ccc(C#CCCO)cc2n1C(=O)OCC(=O)OCCO

>  <score_type>  (67) 
oracle

>  <origin>  (67) 
adg

>  <m_score__min__energy>  (67) 
-8.4100000000000001

>  <m_primary>  (67) 
energy

$$$$
68:0
     RDKit          3D

 37 38  0  0  0  0  0  0  0  0999 V2000
   -1.2890   22.6820  -30.7010 N   0  0  0  0  0  0  0  0  0  0  0  0
   -1.7800   21.6590  -31.5690 C   0  0  0  0  0  0  0  0  0  0  0  0
   -0.9640   20.8600  -32.0970 O   0  0  0  0  0  0  0  0  0  0  0  0
   -3.2280   21.4830  -31.8060 C   0  0  0  0  0  0  0  0  0  0  0  0
   -3.7550   20.5180  -32.6620 C   0  0  0  0  0  0  0  0  0  0  0  0
   -5.1220   20.6580  -32.5680 C   0  0  0  0  0  0  0  0  0  0  0  0
   -6.1380   19.9710  -33.2260 C   0  0  0  0  0  0  0  0  0  0  0  0
   -7.4650   20.3540  -32.9690 C   0  0  0  0  0  0  0  0  0  0  0  0
   -7.7530   21.4260  -32.0860 C   0  0  0  0  0  0  0  0  0  0  0  0
   -9.1850   21.7950  -31.7980 C   0  0  0  0  0  0  0  0  0  0  0  0
  -10.0580   20.8780  -32.3580 F   0  0  0  0  0  0  0  0  0  0  0  0
   -9.4470   23.0460  -32.3250 F   0  0  0  0  0  0  0  0  0  0  0  0
   -9.4050   21.8270  -30.4320 F   0  0  0  0  0  0  0  0  0  0  0  0
   -6.6910   22.0880  -31.4250 C   0  0  0  0  0  0  0  0  0  0  0  0
   -5.3810   21.6730  -31.6860 C   0  0  0  0  0  0  0  0  0  0  0  0
   -4.2280   22.1950  -31.2130 N   0  0  0  0  0  0  0  0  0  0  0  0
   -4.0940   23.3630  -30.3870 C   0  0  0  0  0  0  0  0  0  0  0  0
   -4.2960   24.5050  -30.8830 O   0  0  0  0  0  0  0  0  0  0  0  0
   -3.7240   23.2300  -29.0430 O   0  0  0  0  0  0  0  0  0  0  0  0
   -4.3110   24.0020  -27.9950 C   0  0  0  0  0  0  0  0  0  0  0  0
   -3.2300   24.5420  -27.0500 C   0  0  0  0  0  0  0  0  0  0  0  0
   -1.8390   23.9650  -27.3530 C   0  0  0  0  0  0  0  0  0  0  0  0
   -1.2630   24.5520  -28.6060 C   0  0  0  0  0  0  0  0  0  0  0  0
   -1.9710   25.2910  -29.3400 O   0  0  0  0  0  0  0  0  0  0  0  0
    0.0440   24.2660  -28.9760 O   0  0  0  0  0  0  0  0  0  0  0  0
   -1.9420   23.2550  -30.1210 H   0  0  0  0  0  0  0  0  0  0  0  0
   -0.2620   22.7980  -30.5560 H   0  0  0  0  0  0  0  0  0  0  0  0
   -3.1984   19.7984  -33.2804 H   0  0  0  0  0  0  0  0  0  0  0  0
   -5.9091   19.1535  -33.9255 H   0  0  0  0  0  0  0  0  0  0  0  0
   -8.2904   19.8162  -33.4583 H   0  0  0  0  0  0  0  0  0  0  0  0
   -6.8912   22.9101  -30.7221 H   0  0  0  0  0  0  0  0  0  0  0  0
   -4.8621   24.8468  -28.4338 H   0  0  0  0  0  0  0  0  0  0  0  0
   -4.9939   23.3584  -27.4209 H   0  0  0  0  0  0  0  0  0  0  0  0
   -3.1874   25.6364  -27.1522 H   0  0  0  0  0  0  0  0  0  0  0  0
   -3.5004   24.2403  -26.0273 H   0  0  0  0  0  0  0  0  0  0  0  0
   -1.1675   24.1897  -26.5112 H   0  0  0  0  0  0  0  0  0  0  0  0
   -1.9388   22.8787  -27.4944 H   0  0  0  0  0  0  0  0  0  0  0  0
  1  2  1  0
  2  3  2  0
  2  4  1  0
  4  5  2  0
  5  6  1  0
  6  7  2  0
  7  8  1  0
  8  9  2  0
  9 10  1  0
 10 11  1  0
 10 12  1  0
 10 13  1  0
  9 14  1  0
 14 15  2  0
 15 16  1  0
 16 17  1  0
 17 18  2  0
 17 19  1  0
 19 20  1  0
 20 21  1  0
 21 22  1  0
 22 23  1  0
 23 24  2  0
 23 25  1  0
 16  4  1  0
 15  6  1  0
  1 26  1  0
  1 27  1  0
  5 28  1  0
  7 29  1  0
  8 30  1  0
 14 31  1  0
 20 32  1  0
 20 33  1  0
 21 34  1  0
 21 35  1  0
 22 36  1  0
 22 37  1  0
M  CHG  1  25  -1
M  END
>  <UniqueID>  (68) 
68

>  <SMILES>  (68) 
NC(=O)c1cc2ccc(C(F)(F)F)cc2n1C(=O)OCCCC(=O)[O-]

>  <Energy>  (68) 
72.2611147947

>  <Genealogy>  (68) 
NC(=O)c1cc2ccc(C(F)(F)F)cc2n1C(=O)OCCCC(=O)[O-] (protonated)
NC(=O)c1cc2ccc(C(F)(F)F)cc2n1C(=O)OCCCC(=O)[O-] (3D coordinates assigned)
NC(=O)c1cc2ccc(C(F)(F)F)cc2n1C(=O)OCCCC(=O)[O-] (optimized conformer: 72.2611147947 kcal/mol)

>  <smiles>  (68) 
NC(=O)c1cc2ccc(C(F)(F)F)cc2n1C(=O)OCCCC(=O)O

>  <score_type>  (68) 
oracle

>  <origin>  (68) 
adg

>  <m_score__min__energy>  (68) 
-10.56

>  <m_primary>  (68) 
energy

$$$$
69:0
     RDKit          3D

 33 34  0  0  0  0  0  0  0  0999 V2000
   -0.9750   22.0740  -30.1950 C   0  0  0  0  0  0  0  0  0  0  0  0
   -1.9060   23.1820  -29.7110 C   0  0  2  0  0  0  0  0  0  0  0  0
   -2.7630   23.5730  -30.7830 O   0  0  0  0  0  0  0  0  0  0  0  0
   -3.5120   22.6660  -31.5410 C   0  0  0  0  0  0  0  0  0  0  0  0
   -2.9350   21.8630  -32.3250 O   0  0  0  0  0  0  0  0  0  0  0  0
   -4.9470   22.6710  -31.4490 N   0  0  0  0  0  0  0  0  0  0  0  0
   -5.7490   23.6680  -30.9790 C   0  0  0  0  0  0  0  0  0  0  0  0
   -5.2960   24.9050  -30.3090 C   0  0  0  0  0  0  0  0  0  0  0  0
   -4.2010   25.6430  -30.8470 N   0  0  0  0  0  0  0  0  0  0  0  0
   -5.8890   25.3390  -29.2870 O   0  0  0  0  0  0  0  0  0  0  0  0
   -7.0920   23.3330  -31.1390 C   0  0  0  0  0  0  0  0  0  0  0  0
   -7.0900   22.0880  -31.7220 C   0  0  0  0  0  0  0  0  0  0  0  0
   -8.1540   21.2890  -32.1270 C   0  0  0  0  0  0  0  0  0  0  0  0
   -7.8610   20.0600  -32.7400 C   0  0  0  0  0  0  0  0  0  0  0  0
   -6.5160   19.6460  -32.9290 C   0  0  0  0  0  0  0  0  0  0  0  0
   -6.2140   18.3540  -33.6450 C   0  0  0  0  0  0  0  0  0  0  0  0
   -6.1220   18.5630  -35.0100 F   0  0  0  0  0  0  0  0  0  0  0  0
   -5.0150   17.8200  -33.2070 F   0  0  0  0  0  0  0  0  0  0  0  0
   -7.2280   17.4480  -33.3960 F   0  0  0  0  0  0  0  0  0  0  0  0
   -5.4630   20.4980  -32.5260 C   0  0  0  0  0  0  0  0  0  0  0  0
   -5.7840   21.7090  -31.9000 C   0  0  0  0  0  0  0  0  0  0  0  0
   -1.1000   24.3540  -29.2290 C   0  0  0  0  0  0  0  0  0  0  0  0
    0.0470   24.1760  -28.7420 O   0  0  0  0  0  0  0  0  0  0  0  0
   -1.6030   25.6450  -29.3440 O   0  0  0  0  0  0  0  0  0  0  0  0
   -0.5397   21.5559  -29.3277 H   0  0  0  0  0  0  0  0  0  0  0  0
   -1.5447   21.3559  -30.8031 H   0  0  0  0  0  0  0  0  0  0  0  0
   -0.1695   22.5115  -30.8031 H   0  0  0  0  0  0  0  0  0  0  0  0
   -2.5177   22.8144  -28.8740 H   0  0  0  0  0  0  0  0  0  0  0  0
   -3.2200   25.3010  -30.7420 H   0  0  0  0  0  0  0  0  0  0  0  0
   -7.9678   23.9365  -30.8584 H   0  0  0  0  0  0  0  0  0  0  0  0
   -9.1945   21.6104  -31.9717 H   0  0  0  0  0  0  0  0  0  0  0  0
   -8.6825   19.4109  -33.0775 H   0  0  0  0  0  0  0  0  0  0  0  0
   -4.4141   20.2162  -32.7002 H   0  0  0  0  0  0  0  0  0  0  0  0
  1  2  1  0
  2  3  1  0
  3  4  1  0
  4  5  2  0
  4  6  1  0
  6  7  1  0
  7  8  1  0
  8  9  1  0
  8 10  2  0
  7 11  2  0
 11 12  1  0
 12 13  2  0
 13 14  1  0
 14 15  2  0
 15 16  1  0
 16 17  1  0
 16 18  1  0
 16 19  1  0
 15 20  1  0
 20 21  2  0
  2 22  1  0
 22 23  2  0
 22 24  1  0
 21  6  1  0
 21 12  1  0
  1 25  1  0
  1 26  1  0
  1 27  1  0
  2 28  1  1
  9 29  1  0
 11 30  1  0
 13 31  1  0
 14 32  1  0
 20 33  1  0
M  CHG  2   9  -1  24  -1
M  END
>  <UniqueID>  (69) 
69

>  <SMILES>  (69) 
C[C@H](OC(=O)n1c(C([NH-])=O)cc2ccc(C(F)(F)F)cc21)C(=O)[O-]

>  <Energy>  (69) 
68.18599395537662

>  <Genealogy>  (69) 
CC(OC(=O)n1c(C([NH-])=O)cc2ccc(C(F)(F)F)cc21)C(=O)[O-] (protonated)
C[C@H](OC(=O)n1c(C([NH-])=O)cc2ccc(C(F)(F)F)cc21)C(=O)[O-] (chirality)
C[C@H](OC(=O)n1c(C([NH-])=O)cc2ccc(C(F)(F)F)cc21)C(=O)[O-] (3D coordinates assigned)
C[C@H](OC(=O)n1c(C([NH-])=O)cc2ccc(C(F)(F)F)cc21)C(=O)[O-] (optimized conformer: 68.18599395537662 kcal/mol)

>  <smiles>  (69) 
CC(OC(=O)n1c(C(N)=O)cc2ccc(C(F)(F)F)cc21)C(=O)O

>  <score_type>  (69) 
oracle

>  <origin>  (69) 
adg

>  <m_score__min__energy>  (69) 
-12.039999999999999

>  <m_primary>  (69) 
energy

$$$$
70:0
     RDKit          3D

 36 38  0  0  0  0  0  0  0  0999 V2000
   -4.2770   25.7770  -30.4930 N   0  0  0  0  0  0  0  0  0  0  0  0
   -5.5620   25.1880  -30.3110 C   0  0  0  0  0  0  0  0  0  0  0  0
   -6.3970   25.7490  -29.5530 O   0  0  0  0  0  0  0  0  0  0  0  0
   -5.9080   23.9030  -30.9540 C   0  0  0  0  0  0  0  0  0  0  0  0
   -7.2150   23.5200  -31.2480 C   0  0  0  0  0  0  0  0  0  0  0  0
   -7.1180   22.2410  -31.7450 C   0  0  0  0  0  0  0  0  0  0  0  0
   -8.1110   21.3810  -32.2020 C   0  0  0  0  0  0  0  0  0  0  0  0
   -7.7210   20.1220  -32.6880 C   0  0  0  0  0  0  0  0  0  0  0  0
   -6.3510   19.7450  -32.7170 C   0  0  0  0  0  0  0  0  0  0  0  0
   -5.9500   18.4160  -33.2430 C   0  0  0  0  0  0  0  0  0  0  0  0
   -6.1530   17.2460  -32.4960 C   0  0  0  0  0  0  0  0  0  0  0  0
   -5.7780   16.0420  -32.9970 N   0  0  0  0  0  0  0  0  0  0  0  0
   -5.2030   15.9420  -34.2230 C   0  0  0  0  0  0  0  0  0  0  0  0
   -4.9930   17.0580  -34.9690 N   0  0  0  0  0  0  0  0  0  0  0  0
   -5.3520   18.2840  -34.5060 C   0  0  0  0  0  0  0  0  0  0  0  0
   -5.3730   20.6510  -32.2420 C   0  0  0  0  0  0  0  0  0  0  0  0
   -5.7930   21.8920  -31.7470 C   0  0  0  0  0  0  0  0  0  0  0  0
   -5.0360   22.9030  -31.2680 N   0  0  0  0  0  0  0  0  0  0  0  0
   -3.6030   22.9270  -31.1930 C   0  0  0  0  0  0  0  0  0  0  0  0
   -2.9170   22.3520  -32.0820 O   0  0  0  0  0  0  0  0  0  0  0  0
   -2.9740   23.5690  -30.1210 O   0  0  0  0  0  0  0  0  0  0  0  0
   -1.6210   23.3230  -29.7440 C   0  0  0  0  0  0  0  0  0  0  0  0
   -1.0040   24.5640  -29.1830 C   0  0  0  0  0  0  0  0  0  0  0  0
   -1.5910   25.6710  -29.3030 O   0  0  0  0  0  0  0  0  0  0  0  0
    0.2330   24.5060  -28.5530 O   0  0  0  0  0  0  0  0  0  0  0  0
   -3.5290   25.6650  -29.7740 H   0  0  0  0  0  0  0  0  0  0  0  0
   -8.1304   24.1144  -31.1116 H   0  0  0  0  0  0  0  0  0  0  0  0
   -9.1700   21.6778  -32.1834 H   0  0  0  0  0  0  0  0  0  0  0  0
   -8.4855   19.4192  -33.0506 H   0  0  0  0  0  0  0  0  0  0  0  0
   -6.6178   17.3048  -31.5007 H   0  0  0  0  0  0  0  0  0  0  0  0
   -4.9070   14.9568  -34.6125 H   0  0  0  0  0  0  0  0  0  0  0  0
   -4.5530   16.9720  -35.9120 H   0  0  0  0  0  0  0  0  0  0  0  0
   -5.1733   19.1766  -35.1235 H   0  0  0  0  0  0  0  0  0  0  0  0
   -4.3055   20.3861  -32.2612 H   0  0  0  0  0  0  0  0  0  0  0  0
   -1.5951   22.5291  -28.9830 H   0  0  0  0  0  0  0  0  0  0  0  0
   -1.0531   23.0119  -30.6332 H   0  0  0  0  0  0  0  0  0  0  0  0
  1  2  1  0
  2  3  2  0
  2  4  1  0
  4  5  2  0
  5  6  1  0
  6  7  2  0
  7  8  1  0
  8  9  2  0
  9 10  1  0
 10 11  2  0
 11 12  1  0
 12 13  2  0
 13 14  1  0
 14 15  2  0
  9 16  1  0
 16 17  2  0
 17 18  1  0
 18 19  1  0
 19 20  2  0
 19 21  1  0
 21 22  1  0
 22 23  1  0
 23 24  2  0
 23 25  1  0
 18  4  1  0
 17  6  1  0
 15 10  1  0
  1 26  1  0
  5 27  1  0
  7 28  1  0
  8 29  1  0
 11 30  1  0
 13 31  1  0
 14 32  1  0
 15 33  1  0
 16 34  1  0
 22 35  1  0
 22 36  1  0
M  CHG  3   1  -1  14   1  25  -1
M  END
>  <UniqueID>  (70) 
70

>  <SMILES>  (70) 
[NH-]C(=O)c1cc2ccc(-c3cnc[nH+]c3)cc2n1C(=O)OCC(=O)[O-]

>  <Energy>  (70) 
81.30771352509518

>  <Genealogy>  (70) 
[NH-]C(=O)c1cc2ccc(-c3cnc[nH+]c3)cc2n1C(=O)OCC(=O)[O-] (protonated)
[NH-]C(=O)c1cc2ccc(-c3cnc[nH+]c3)cc2n1C(=O)OCC(=O)[O-] (3D coordinates assigned)
[NH-]C(=O)c1cc2ccc(-c3cnc[nH+]c3)cc2n1C(=O)OCC(=O)[O-] (optimized conformer: 81.30771352509518 kcal/mol)

>  <smiles>  (70) 
NC(=O)c1cc2ccc(-c3cncnc3)cc2n1C(=O)OCC(=O)O

>  <score_type>  (70) 
oracle

>  <origin>  (70) 
adg

>  <m_score__min__energy>  (70) 
-12.449999999999999

>  <m_primary>  (70) 
energy

$$$$
71:0
     RDKit          3D

 53 56  0  0  0  0  0  0  0  0999 V2000
   -4.0050   25.6740  -30.8140 N   0  0  0  0  0  0  0  0  0  0  0  0
   -5.2680   25.1480  -30.4190 C   0  0  0  0  0  0  0  0  0  0  0  0
   -6.0270   25.8480  -29.6970 O   0  0  0  0  0  0  0  0  0  0  0  0
   -5.7250   23.8220  -30.8890 C   0  0  0  0  0  0  0  0  0  0  0  0
   -7.0260   23.5730  -31.3200 C   0  0  0  0  0  0  0  0  0  0  0  0
   -7.0240   22.2660  -31.7510 C   0  0  0  0  0  0  0  0  0  0  0  0
   -8.0570   21.4970  -32.2760 C   0  0  0  0  0  0  0  0  0  0  0  0
   -7.7800   20.1620  -32.6110 C   0  0  0  0  0  0  0  0  0  0  0  0
   -6.4860   19.6120  -32.4060 C   0  0  0  0  0  0  0  0  0  0  0  0
   -6.1850   18.1990  -32.7510 C   0  0  0  0  0  0  0  0  0  0  0  0
   -6.4300   17.6840  -34.0380 C   0  0  0  0  0  0  0  0  0  0  0  0
   -6.1360   16.3470  -34.3100 C   0  0  0  0  0  0  0  0  0  0  0  0
   -5.6080   15.5310  -33.3100 C   0  0  0  0  0  0  0  0  0  0  0  0
   -5.3850   16.0680  -32.0420 C   0  0  0  0  0  0  0  0  0  0  0  0
   -5.6770   17.3720  -31.7930 N   0  0  0  0  0  0  0  0  0  0  0  0
   -5.4610   20.4340  -31.8790 C   0  0  0  0  0  0  0  0  0  0  0  0
   -5.7620   21.7670  -31.5710 C   0  0  0  0  0  0  0  0  0  0  0  0
   -4.9510   22.7090  -31.0390 N   0  0  0  0  0  0  0  0  0  0  0  0
   -3.5790   22.5280  -30.6540 C   0  0  0  0  0  0  0  0  0  0  0  0
   -2.6750   23.2190  -31.1990 O   0  0  0  0  0  0  0  0  0  0  0  0
   -3.2550   21.6060  -29.6520 O   0  0  0  0  0  0  0  0  0  0  0  0
   -3.2860   21.9160  -28.2590 C   0  0  0  0  0  0  0  0  0  0  0  0
   -4.0330   23.2300  -28.0080 C   0  0  0  0  0  0  0  0  0  0  0  0
   -3.2430   24.3850  -28.4780 N   0  0  0  0  0  0  0  0  0  0  0  0
   -2.2030   24.8380  -27.5300 C   0  0  2  0  0  0  0  0  0  0  0  0
   -2.7830   25.4960  -26.2640 C   0  0  0  0  0  0  0  0  0  0  0  0
   -1.6470   25.9250  -25.3250 C   0  0  0  0  0  0  0  0  0  0  0  0
   -0.4460   26.4940  -26.1080 C   0  0  0  0  0  0  0  0  0  0  0  0
   -0.8220   26.8900  -27.4140 O   0  0  0  0  0  0  0  0  0  0  0  0
   -1.1300   25.7490  -28.1970 C   0  0  0  0  0  0  0  0  0  0  0  0
   -3.1140   25.2560  -30.4660 H   0  0  0  0  0  0  0  0  0  0  0  0
   -7.8749   24.2726  -31.3166 H   0  0  0  0  0  0  0  0  0  0  0  0
   -9.0607   21.9219  -32.4243 H   0  0  0  0  0  0  0  0  0  0  0  0
   -8.5754   19.5334  -33.0379 H   0  0  0  0  0  0  0  0  0  0  0  0
   -6.8498   18.3301  -34.8230 H   0  0  0  0  0  0  0  0  0  0  0  0
   -6.3209   15.9367  -35.3137 H   0  0  0  0  0  0  0  0  0  0  0  0
   -5.3704   14.4774  -33.5184 H   0  0  0  0  0  0  0  0  0  0  0  0
   -4.9722   15.4353  -31.2424 H   0  0  0  0  0  0  0  0  0  0  0  0
   -4.4494   20.0344  -31.7148 H   0  0  0  0  0  0  0  0  0  0  0  0
   -3.7956   21.1034  -27.7204 H   0  0  0  0  0  0  0  0  0  0  0  0
   -2.2520   22.0254  -27.9001 H   0  0  0  0  0  0  0  0  0  0  0  0
   -4.9921   23.2071  -28.5461 H   0  0  0  0  0  0  0  0  0  0  0  0
   -4.2009   23.3368  -26.9262 H   0  0  0  0  0  0  0  0  0  0  0  0
   -3.8780   25.1960  -28.6680 H   0  0  0  0  0  0  0  0  0  0  0  0
   -1.6931   23.9182  -27.2074 H   0  0  0  0  0  0  0  0  0  0  0  0
   -3.3717   26.3800  -26.5505 H   0  0  0  0  0  0  0  0  0  0  0  0
   -3.4259   24.7709  -25.7436 H   0  0  0  0  0  0  0  0  0  0  0  0
   -2.0239   26.6977  -24.6388 H   0  0  0  0  0  0  0  0  0  0  0  0
   -1.3065   25.0383  -24.7702 H   0  0  0  0  0  0  0  0  0  0  0  0
   -0.0490   27.3672  -25.5696 H   0  0  0  0  0  0  0  0  0  0  0  0
    0.3175   25.7066  -26.1912 H   0  0  0  0  0  0  0  0  0  0  0  0
   -1.5096   26.0837  -29.1737 H   0  0  0  0  0  0  0  0  0  0  0  0
   -0.2085   25.1575  -28.3015 H   0  0  0  0  0  0  0  0  0  0  0  0
  1  2  1  0
  2  3  2  0
  2  4  1  0
  4  5  2  0
  5  6  1  0
  6  7  2  0
  7  8  1  0
  8  9  2  0
  9 10  1  0
 10 11  2  0
 11 12  1  0
 12 13  2  0
 13 14  1  0
 14 15  2  0
  9 16  1  0
 16 17  2  0
 17 18  1  0
 18 19  1  0
 19 20  2  0
 19 21  1  0
 21 22  1  0
 22 23  1  0
 23 24  1  0
 24 25  1  0
 25 26  1  0
 26 27  1  0
 27 28  1  0
 28 29  1  0
 29 30  1  0
 18  4  1  0
 30 25  1  0
 17  6  1  0
 15 10  1  0
  1 31  1  0
  5 32  1  0
  7 33  1  0
  8 34  1  0
 11 35  1  0
 12 36  1  0
 13 37  1  0
 14 38  1  0
 16 39  1  0
 22 40  1  0
 22 41  1  0
 23 42  1  0
 23 43  1  0
 24 44  1  0
 25 45  1  1
 26 46  1  0
 26 47  1  0
 27 48  1  0
 27 49  1  0
 28 50  1  0
 28 51  1  0
 30 52  1  0
 30 53  1  0
M  CHG  1   1  -1
M  END
>  <UniqueID>  (71) 
71

>  <SMILES>  (71) 
[NH-]C(=O)c1cc2ccc(-c3ccccn3)cc2n1C(=O)OCCN[C@@H]1CCCOC1

>  <Energy>  (71) 
107.07397768052141

>  <Genealogy>  (71) 
[NH-]C(=O)c1cc2ccc(-c3ccccn3)cc2n1C(=O)OCCN[C@@H]1CCCOC1 (protonated)
[NH-]C(=O)c1cc2ccc(-c3ccccn3)cc2n1C(=O)OCCN[C@@H]1CCCOC1 (3D coordinates assigned)
[NH-]C(=O)c1cc2ccc(-c3ccccn3)cc2n1C(=O)OCCN[C@@H]1CCCOC1 (nonaromatic ring conformer: 107.07397768052141 kcal/mol)

>  <smiles>  (71) 
NC(=O)c1cc2ccc(-c3ccccn3)cc2n1C(=O)OCCN[C@@H]1CCCOC1

>  <score_type>  (71) 
oracle

>  <origin>  (71) 
adg

>  <m_score__min__energy>  (71) 
-11.630000000000001

>  <m_primary>  (71) 
energy

$$$$
72:0
     RDKit          3D

 44 46  0  0  0  0  0  0  0  0999 V2000
   -1.3030   21.7890  -28.6990 C   0  0  0  0  0  0  0  0  0  0  0  0
   -1.7970   22.8610  -29.6800 C   0  0  2  0  0  0  0  0  0  0  0  0
   -1.3820   24.2550  -29.2840 C   0  0  0  0  0  0  0  0  0  0  0  0
   -2.1890   25.2200  -29.3480 O   0  0  0  0  0  0  0  0  0  0  0  0
   -0.0720   24.4890  -28.8820 O   0  0  0  0  0  0  0  0  0  0  0  0
   -3.2610   22.7770  -29.8550 N   0  0  0  0  0  0  0  0  0  0  0  0
   -4.1360   22.8670  -28.6810 C   0  0  0  0  0  0  0  0  0  0  0  0
   -3.8670   22.6760  -31.1630 C   0  0  0  0  0  0  0  0  0  0  0  0
   -3.1510   22.5410  -32.1920 O   0  0  0  0  0  0  0  0  0  0  0  0
   -5.2920   22.7170  -31.3110 N   0  0  0  0  0  0  0  0  0  0  0  0
   -6.1280   23.7690  -31.0890 C   0  0  0  0  0  0  0  0  0  0  0  0
   -5.7310   25.0860  -30.5490 C   0  0  0  0  0  0  0  0  0  0  0  0
   -4.4550   25.6480  -30.8450 N   0  0  0  0  0  0  0  0  0  0  0  0
   -6.5230   25.7190  -29.8020 O   0  0  0  0  0  0  0  0  0  0  0  0
   -7.4390   23.4220  -31.4140 C   0  0  0  0  0  0  0  0  0  0  0  0
   -7.3750   22.1170  -31.8500 C   0  0  0  0  0  0  0  0  0  0  0  0
   -8.3800   21.2700  -32.3120 C   0  0  0  0  0  0  0  0  0  0  0  0
   -8.0130   19.9750  -32.7180 C   0  0  0  0  0  0  0  0  0  0  0  0
   -6.6610   19.5590  -32.6600 C   0  0  0  0  0  0  0  0  0  0  0  0
   -6.3000   18.2410  -33.0780 N   0  0  0  0  0  0  0  0  0  0  0  0
   -6.1680   16.9050  -32.4680 C   0  0  0  0  0  0  0  0  0  0  0  0
   -5.7440   16.2040  -33.7190 C   0  0  0  0  0  0  0  0  0  0  0  0
   -6.7200   15.3180  -34.1950 O   0  0  0  0  0  0  0  0  0  0  0  0
   -5.8820   17.5650  -34.3200 C   0  0  0  0  0  0  0  0  0  0  0  0
   -5.6700   20.4420  -32.1900 C   0  0  0  0  0  0  0  0  0  0  0  0
   -6.0660   21.7180  -31.7820 C   0  0  0  0  0  0  0  0  0  0  0  0
   -1.4624   22.1349  -27.6671 H   0  0  0  0  0  0  0  0  0  0  0  0
   -1.8620   20.8560  -28.8634 H   0  0  0  0  0  0  0  0  0  0  0  0
   -0.2306   21.6078  -28.8634 H   0  0  0  0  0  0  0  0  0  0  0  0
   -1.3116   22.6523  -30.6448 H   0  0  0  0  0  0  0  0  0  0  0  0
   -3.5291   22.8046  -27.7657 H   0  0  0  0  0  0  0  0  0  0  0  0
   -4.6756   23.8254  -28.6985 H   0  0  0  0  0  0  0  0  0  0  0  0
   -4.8594   22.0385  -28.6985 H   0  0  0  0  0  0  0  0  0  0  0  0
   -3.8620   26.0640  -30.0930 H   0  0  0  0  0  0  0  0  0  0  0  0
   -8.3346   24.0562  -31.3382 H   0  0  0  0  0  0  0  0  0  0  0  0
   -9.4271   21.6038  -32.3577 H   0  0  0  0  0  0  0  0  0  0  0  0
   -8.7826   19.2793  -33.0837 H   0  0  0  0  0  0  0  0  0  0  0  0
   -5.4005   16.8711  -31.6808 H   0  0  0  0  0  0  0  0  0  0  0  0
   -7.0467   16.5045  -31.9412 H   0  0  0  0  0  0  0  0  0  0  0  0
   -4.8440   15.5766  -33.7985 H   0  0  0  0  0  0  0  0  0  0  0  0
   -7.5670   15.8330  -34.2080 H   0  0  0  0  0  0  0  0  0  0  0  0
   -4.9318   17.9530  -34.7158 H   0  0  0  0  0  0  0  0  0  0  0  0
   -6.5451   17.6633  -35.1921 H   0  0  0  0  0  0  0  0  0  0  0  0
   -4.6144   20.1359  -32.1454 H   0  0  0  0  0  0  0  0  0  0  0  0
  1  2  1  0
  2  3  1  0
  3  4  2  0
  3  5  1  0
  2  6  1  0
  6  7  1  0
  6  8  1  0
  8  9  2  0
  8 10  1  0
 10 11  1  0
 11 12  1  0
 12 13  1  0
 12 14  2  0
 11 15  2  0
 15 16  1  0
 16 17  2  0
 17 18  1  0
 18 19  2  0
 19 20  1  0
 20 21  1  0
 21 22  1  0
 22 23  1  0
 22 24  1  0
 19 25  1  0
 25 26  2  0
 26 10  1  0
 26 16  1  0
 24 20  1  0
  1 27  1  0
  1 28  1  0
  1 29  1  0
  2 30  1  6
  7 31  1  0
  7 32  1  0
  7 33  1  0
 13 34  1  0
 15 35  1  0
 17 36  1  0
 18 37  1  0
 21 38  1  0
 21 39  1  0
 22 40  1  0
 23 41  1  0
 24 42  1  0
 24 43  1  0
 25 44  1  0
M  CHG  2   5  -1  13  -1
M  END
>  <UniqueID>  (72) 
72

>  <SMILES>  (72) 
C[C@H](C(=O)[O-])N(C)C(=O)n1c(C([NH-])=O)cc2ccc(N3CC(O)C3)cc21

>  <Energy>  (72) 
126.01794782184564

>  <Genealogy>  (72) 
CC(C(=O)[O-])N(C)C(=O)n1c(C([NH-])=O)cc2ccc(N3CC(O)C3)cc21 (protonated)
C[C@H](C(=O)[O-])N(C)C(=O)n1c(C([NH-])=O)cc2ccc(N3CC(O)C3)cc21 (chirality)
C[C@H](C(=O)[O-])N(C)C(=O)n1c(C([NH-])=O)cc2ccc(N3CC(O)C3)cc21 (3D coordinates assigned)
C[C@H](C(=O)[O-])N(C)C(=O)n1c(C([NH-])=O)cc2ccc(N3CC(O)C3)cc21 (nonaromatic ring conformer: 126.01794782184564 kcal/mol)

>  <smiles>  (72) 
CC(C(=O)O)N(C)C(=O)n1c(C(N)=O)cc2ccc(N3CC(O)C3)cc21

>  <score_type>  (72) 
oracle

>  <origin>  (72) 
adg

>  <m_score__min__energy>  (72) 
-12.789999999999999

>  <m_primary>  (72) 
energy

$$$$
73:0
     RDKit          3D

 47 50  0  0  0  0  0  0  0  0999 V2000
   -4.6030   13.9040  -34.2060 C   0  0  0  0  0  0  0  0  0  0  0  0
   -4.2530   15.1720  -34.8890 N   0  0  0  0  0  0  0  0  0  0  0  0
   -2.8610   15.0810  -35.3700 C   0  0  0  0  0  0  0  0  0  0  0  0
   -4.5300   16.4410  -34.1300 C   0  0  2  0  0  0  0  0  0  0  0  0
   -5.5720   16.2870  -32.9770 C   0  0  0  0  0  0  0  0  0  0  0  0
   -5.8850   17.5950  -32.2260 C   0  0  0  0  0  0  0  0  0  0  0  0
   -6.0400   18.7410  -33.1380 N   0  0  0  0  0  0  0  0  0  0  0  0
   -6.5070   19.9970  -32.6060 C   0  0  0  0  0  0  0  0  0  0  0  0
   -7.8970   20.2730  -32.5360 C   0  0  0  0  0  0  0  0  0  0  0  0
   -8.3650   21.4880  -32.0100 C   0  0  0  0  0  0  0  0  0  0  0  0
   -7.4240   22.4120  -31.5700 C   0  0  0  0  0  0  0  0  0  0  0  0
   -7.6040   23.6490  -30.9960 C   0  0  0  0  0  0  0  0  0  0  0  0
   -6.3220   24.1290  -30.7460 C   0  0  0  0  0  0  0  0  0  0  0  0
   -6.0520   25.4690  -30.1880 C   0  0  0  0  0  0  0  0  0  0  0  0
   -6.4890   25.8280  -28.8770 N   0  0  0  0  0  0  0  0  0  0  0  0
   -5.3720   26.2910  -30.8570 O   0  0  0  0  0  0  0  0  0  0  0  0
   -5.3830   23.2200  -31.1360 N   0  0  0  0  0  0  0  0  0  0  0  0
   -3.9600   23.2970  -30.9460 C   0  0  0  0  0  0  0  0  0  0  0  0
   -3.4210   24.3850  -30.6130 O   0  0  0  0  0  0  0  0  0  0  0  0
   -3.1650   22.1720  -31.1180 O   0  0  0  0  0  0  0  0  0  0  0  0
   -6.0760   22.1750  -31.6420 C   0  0  0  0  0  0  0  0  0  0  0  0
   -5.5830   20.9620  -32.1410 C   0  0  0  0  0  0  0  0  0  0  0  0
   -5.9280   18.5650  -34.5930 C   0  0  0  0  0  0  0  0  0  0  0  0
   -4.7100   17.7080  -34.9680 C   0  0  1  0  0  0  0  0  0  0  0  0
   -3.5100   18.2760  -34.4880 O   0  0  0  0  0  0  0  0  0  0  0  0
   -3.2500   17.1480  -33.6810 C   0  0  0  0  0  0  0  0  0  0  0  0
   -4.5624   14.0510  -33.1166 H   0  0  0  0  0  0  0  0  0  0  0  0
   -5.6189   13.5989  -34.4972 H   0  0  0  0  0  0  0  0  0  0  0  0
   -3.8874   13.1210  -34.4972 H   0  0  0  0  0  0  0  0  0  0  0  0
   -2.1778   15.0363  -34.5091 H   0  0  0  0  0  0  0  0  0  0  0  0
   -2.7424   14.1732  -35.9797 H   0  0  0  0  0  0  0  0  0  0  0  0
   -2.6252   15.9656  -35.9797 H   0  0  0  0  0  0  0  0  0  0  0  0
   -6.5090   15.9048  -33.4083 H   0  0  0  0  0  0  0  0  0  0  0  0
   -5.1283   15.6000  -32.2413 H   0  0  0  0  0  0  0  0  0  0  0  0
   -6.8199   17.4635  -31.6614 H   0  0  0  0  0  0  0  0  0  0  0  0
   -5.0382   17.8096  -31.5576 H   0  0  0  0  0  0  0  0  0  0  0  0
   -8.6177   19.5252  -32.8986 H   0  0  0  0  0  0  0  0  0  0  0  0
   -9.4422   21.7019  -31.9480 H   0  0  0  0  0  0  0  0  0  0  0  0
   -8.5583   24.1518  -30.7805 H   0  0  0  0  0  0  0  0  0  0  0  0
   -6.8990   25.1170  -28.2310 H   0  0  0  0  0  0  0  0  0  0  0  0
   -6.3150   26.7900  -28.5110 H   0  0  0  0  0  0  0  0  0  0  0  0
   -4.5013   20.7645  -32.1705 H   0  0  0  0  0  0  0  0  0  0  0  0
   -6.8388   18.0721  -34.9639 H   0  0  0  0  0  0  0  0  0  0  0  0
   -5.8036   19.5576  -35.0505 H   0  0  0  0  0  0  0  0  0  0  0  0
   -4.8766   17.5820  -36.0480 H   0  0  0  0  0  0  0  0  0  0  0  0
   -2.3316   16.6112  -33.9608 H   0  0  0  0  0  0  0  0  0  0  0  0
   -3.0712   17.2929  -32.6053 H   0  0  0  0  0  0  0  0  0  0  0  0
  1  2  1  0
  2  3  1  0
  4  2  1  6
  4  5  1  0
  5  6  1  0
  6  7  1  0
  7  8  1  0
  8  9  2  0
  9 10  1  0
 10 11  2  0
 11 12  1  0
 12 13  2  0
 13 14  1  0
 14 15  1  0
 14 16  2  0
 13 17  1  0
 17 18  1  0
 18 19  2  0
 18 20  1  0
 17 21  1  0
 21 22  2  0
  7 23  1  0
 23 24  1  0
 24 25  1  0
 25 26  1  0
 24  4  1  0
 26  4  1  0
 22  8  1  0
 21 11  1  0
  1 27  1  0
  1 28  1  0
  1 29  1  0
  3 30  1  0
  3 31  1  0
  3 32  1  0
  5 33  1  0
  5 34  1  0
  6 35  1  0
  6 36  1  0
  9 37  1  0
 10 38  1  0
 12 39  1  0
 15 40  1  0
 15 41  1  0
 22 42  1  0
 23 43  1  0
 23 44  1  0
 24 45  1  6
 26 46  1  0
 26 47  1  0
M  CHG  1  20  -1
M  END
>  <UniqueID>  (73) 
73

>  <SMILES>  (73) 
CN(C)[C@]12CCN(c3ccc4cc(C(N)=O)n(C(=O)[O-])c4c3)C[C@H]1OC2

>  <Energy>  (73) 
173.973931833144

>  <Genealogy>  (73) 
CN(C)C12CCN(c3ccc4cc(C(N)=O)n(C(=O)[O-])c4c3)CC1OC2 (protonated)
CN(C)[C@]12CCN(c3ccc4cc(C(N)=O)n(C(=O)[O-])c4c3)C[C@H]1OC2 (chirality)
CN(C)[C@]12CCN(c3ccc4cc(C(N)=O)n(C(=O)[O-])c4c3)C[C@H]1OC2 (3D coordinates assigned)
CN(C)[C@]12CCN(c3ccc4cc(C(N)=O)n(C(=O)[O-])c4c3)C[C@H]1OC2 (nonaromatic ring conformer: 173.973931833144 kcal/mol)

>  <smiles>  (73) 
CN(C)C12CCN(c3ccc4cc(C(N)=O)n(C(=O)O)c4c3)CC1OC2

>  <score_type>  (73) 
oracle

>  <origin>  (73) 
adg

>  <m_score__min__energy>  (73) 
-10

>  <m_primary>  (73) 
energy

$$$$
74:0
     RDKit          3D

 34 35  0  0  0  0  0  0  0  0999 V2000
   -7.1890   23.6850  -30.8970 C   0  0  0  0  0  0  0  0  0  0  0  0
   -6.5860   24.6050  -30.0120 O   0  0  0  0  0  0  0  0  0  0  0  0
   -5.4290   24.0370  -29.4310 C   0  0  0  0  0  0  0  0  0  0  0  0
   -4.2280   24.3120  -30.2890 C   0  0  0  0  0  0  0  0  0  0  0  0
   -4.1200   25.4260  -30.8670 O   0  0  0  0  0  0  0  0  0  0  0  0
   -3.2500   23.2890  -30.5260 N   0  0  0  0  0  0  0  0  0  0  0  0
   -1.9670   23.2320  -30.0720 C   0  0  0  0  0  0  0  0  0  0  0  0
   -1.2670   24.3000  -29.3290 C   0  0  0  0  0  0  0  0  0  0  0  0
   -1.9600   25.4990  -28.9860 N   0  0  0  0  0  0  0  0  0  0  0  0
   -0.0690   24.1550  -28.9700 O   0  0  0  0  0  0  0  0  0  0  0  0
   -1.3640   22.0400  -30.4690 C   0  0  0  0  0  0  0  0  0  0  0  0
   -2.3250   21.3690  -31.1920 C   0  0  0  0  0  0  0  0  0  0  0  0
   -2.2750   20.1290  -31.8160 C   0  0  0  0  0  0  0  0  0  0  0  0
   -3.4290   19.6730  -32.4740 C   0  0  0  0  0  0  0  0  0  0  0  0
   -4.6210   20.4560  -32.5010 C   0  0  0  0  0  0  0  0  0  0  0  0
   -5.8120   19.9700  -33.1740 N   0  0  0  0  0  0  0  0  0  0  0  0
   -5.7370   19.0080  -34.2770 C   0  0  0  0  0  0  0  0  0  0  0  0
   -7.0910   20.4180  -32.7880 C   0  0  0  0  0  0  0  0  0  0  0  0
   -8.1420   20.7850  -32.4720 N   0  0  0  0  0  0  0  0  0  0  0  0
   -4.6190   21.7170  -31.8500 C   0  0  0  0  0  0  0  0  0  0  0  0
   -3.4510   22.1460  -31.2130 C   0  0  0  0  0  0  0  0  0  0  0  0
   -7.7020   22.9023  -30.3188 H   0  0  0  0  0  0  0  0  0  0  0  0
   -7.9186   24.2103  -31.5309 H   0  0  0  0  0  0  0  0  0  0  0  0
   -6.4162   23.2256  -31.5309 H   0  0  0  0  0  0  0  0  0  0  0  0
   -5.2710   24.4746  -28.4342 H   0  0  0  0  0  0  0  0  0  0  0  0
   -5.5676   22.9490  -29.3466 H   0  0  0  0  0  0  0  0  0  0  0  0
   -2.9300   25.6730  -29.3280 H   0  0  0  0  0  0  0  0  0  0  0  0
   -0.3387   21.7062  -30.2512 H   0  0  0  0  0  0  0  0  0  0  0  0
   -1.3581   19.5217  -31.7954 H   0  0  0  0  0  0  0  0  0  0  0  0
   -3.4133   18.6950  -32.9773 H   0  0  0  0  0  0  0  0  0  0  0  0
   -5.6576   17.9891  -33.8701 H   0  0  0  0  0  0  0  0  0  0  0  0
   -6.6440   19.0866  -34.8944 H   0  0  0  0  0  0  0  0  0  0  0  0
   -4.8531   19.2262  -34.8944 H   0  0  0  0  0  0  0  0  0  0  0  0
   -5.5213   22.3462  -31.8467 H   0  0  0  0  0  0  0  0  0  0  0  0
  1  2  1  0
  2  3  1  0
  3  4  1  0
  4  5  2  0
  4  6  1  0
  6  7  1  0
  7  8  1  0
  8  9  1  0
  8 10  2  0
  7 11  2  0
 11 12  1  0
 12 13  2  0
 13 14  1  0
 14 15  2  0
 15 16  1  0
 16 17  1  0
 16 18  1  0
 18 19  3  0
 15 20  1  0
 20 21  2  0
 21  6  1  0
 21 12  1  0
  1 22  1  0
  1 23  1  0
  1 24  1  0
  3 25  1  0
  3 26  1  0
  9 27  1  0
 11 28  1  0
 13 29  1  0
 14 30  1  0
 17 31  1  0
 17 32  1  0
 17 33  1  0
 20 34  1  0
M  CHG  1   9  -1
M  END
>  <UniqueID>  (74) 
74

>  <SMILES>  (74) 
COCC(=O)n1c(C([NH-])=O)cc2ccc(N(C)C#N)cc21

>  <Energy>  (74) 
75.58754761264146

>  <Genealogy>  (74) 
COCC(=O)n1c(C([NH-])=O)cc2ccc(N(C)C#N)cc21 (protonated)
COCC(=O)n1c(C([NH-])=O)cc2ccc(N(C)C#N)cc21 (3D coordinates assigned)
COCC(=O)n1c(C([NH-])=O)cc2ccc(N(C)C#N)cc21 (optimized conformer: 75.58754761264146 kcal/mol)

>  <smiles>  (74) 
COCC(=O)n1c(C(N)=O)cc2ccc(N(C)C#N)cc21

>  <score_type>  (74) 
oracle

>  <origin>  (74) 
adg

>  <m_score__min__energy>  (74) 
-9.6099999999999994

>  <m_primary>  (74) 
energy

$$$$
75:0
     RDKit          3D

 36 37  0  0  0  0  0  0  0  0999 V2000
   -5.6650   18.5150  -34.5890 C   0  0  0  0  0  0  0  0  0  0  0  0
   -5.4210   17.9870  -33.2920 O   0  0  0  0  0  0  0  0  0  0  0  0
   -6.4080   17.9260  -32.3050 C   0  0  0  0  0  0  0  0  0  0  0  0
   -6.1610   17.4230  -31.1750 O   0  0  0  0  0  0  0  0  0  0  0  0
   -7.7480   18.5320  -32.5720 C   0  0  0  0  0  0  0  0  0  0  0  0
   -7.7300   19.9920  -32.2140 C   0  0  0  0  0  0  0  0  0  0  0  0
   -8.9390   20.7270  -32.1270 C   0  0  0  0  0  0  0  0  0  0  0  0
   -8.9270   22.0830  -31.7590 C   0  0  0  0  0  0  0  0  0  0  0  0
   -7.6990   22.6680  -31.4630 C   0  0  0  0  0  0  0  0  0  0  0  0
   -7.3970   23.9550  -31.0780 C   0  0  0  0  0  0  0  0  0  0  0  0
   -6.0140   23.9750  -30.9040 C   0  0  0  0  0  0  0  0  0  0  0  0
   -5.2620   25.1560  -30.4320 C   0  0  0  0  0  0  0  0  0  0  0  0
   -3.8620   25.2570  -30.6870 N   0  0  0  0  0  0  0  0  0  0  0  0
   -5.8450   26.0890  -29.8210 O   0  0  0  0  0  0  0  0  0  0  0  0
   -5.4840   22.7470  -31.1690 N   0  0  0  0  0  0  0  0  0  0  0  0
   -4.1030   22.3590  -31.1200 C   0  0  0  0  0  0  0  0  0  0  0  0
   -3.4890   22.3730  -30.0190 O   0  0  0  0  0  0  0  0  0  0  0  0
   -3.3920   21.9400  -32.3380 C   0  0  0  0  0  0  0  0  0  0  0  0
   -4.0440   21.6420  -33.3770 O   0  0  0  0  0  0  0  0  0  0  0  0
   -1.9960   21.8640  -32.3320 O   0  0  0  0  0  0  0  0  0  0  0  0
   -1.2900   20.8560  -31.6210 C   0  0  0  0  0  0  0  0  0  0  0  0
   -6.5260   21.9630  -31.5170 C   0  0  0  0  0  0  0  0  0  0  0  0
   -6.5030   20.6230  -31.9120 C   0  0  0  0  0  0  0  0  0  0  0  0
   -6.1249   19.5102  -34.4992 H   0  0  0  0  0  0  0  0  0  0  0  0
   -4.7142   18.5985  -35.1358 H   0  0  0  0  0  0  0  0  0  0  0  0
   -6.3448   17.8449  -35.1358 H   0  0  0  0  0  0  0  0  0  0  0  0
   -7.9924   18.4211  -33.6387 H   0  0  0  0  0  0  0  0  0  0  0  0
   -8.5056   18.0188  -31.9615 H   0  0  0  0  0  0  0  0  0  0  0  0
   -9.8954   20.2312  -32.3496 H   0  0  0  0  0  0  0  0  0  0  0  0
   -9.8593   22.6644  -31.7064 H   0  0  0  0  0  0  0  0  0  0  0  0
   -8.0985   24.7905  -30.9375 H   0  0  0  0  0  0  0  0  0  0  0  0
   -3.4770   26.0450  -31.2530 H   0  0  0  0  0  0  0  0  0  0  0  0
   -1.4055   21.0209  -30.5396 H   0  0  0  0  0  0  0  0  0  0  0  0
   -1.6947   19.8682  -31.8866 H   0  0  0  0  0  0  0  0  0  0  0  0
   -0.2234   20.8987  -31.8866 H   0  0  0  0  0  0  0  0  0  0  0  0
   -5.5531   20.0732  -31.9859 H   0  0  0  0  0  0  0  0  0  0  0  0
  1  2  1  0
  2  3  1  0
  3  4  2  0
  3  5  1  0
  5  6  1  0
  6  7  2  0
  7  8  1  0
  8  9  2  0
  9 10  1  0
 10 11  2  0
 11 12  1  0
 12 13  1  0
 12 14  2  0
 11 15  1  0
 15 16  1  0
 16 17  2  0
 16 18  1  0
 18 19  2  0
 18 20  1  0
 20 21  1  0
 15 22  1  0
 22 23  2  0
 23  6  1  0
 22  9  1  0
  1 24  1  0
  1 25  1  0
  1 26  1  0
  5 27  1  0
  5 28  1  0
  7 29  1  0
  8 30  1  0
 10 31  1  0
 13 32  1  0
 21 33  1  0
 21 34  1  0
 21 35  1  0
 23 36  1  0
M  CHG  1  13  -1
M  END
>  <UniqueID>  (75) 
75

>  <SMILES>  (75) 
COC(=O)Cc1ccc2cc(C([NH-])=O)n(C(=O)C(=O)OC)c2c1

>  <Energy>  (75) 
68.27614015825642

>  <Genealogy>  (75) 
COC(=O)Cc1ccc2cc(C([NH-])=O)n(C(=O)C(=O)OC)c2c1 (protonated)
COC(=O)Cc1ccc2cc(C([NH-])=O)n(C(=O)C(=O)OC)c2c1 (3D coordinates assigned)
COC(=O)Cc1ccc2cc(C([NH-])=O)n(C(=O)C(=O)OC)c2c1 (optimized conformer: 68.27614015825642 kcal/mol)

>  <smiles>  (75) 
COC(=O)Cc1ccc2cc(C(N)=O)n(C(=O)C(=O)OC)c2c1

>  <score_type>  (75) 
oracle

>  <origin>  (75) 
adg

>  <m_score__min__energy>  (75) 
-9.6600000000000001

>  <m_primary>  (75) 
energy

$$$$
76:0
     RDKit          3D

 36 38  0  0  0  0  0  0  0  0999 V2000
   -2.7030   20.7350  -32.4500 C   0  0  0  0  0  0  0  0  0  0  0  0
   -3.2390   22.0500  -32.5460 O   0  0  0  0  0  0  0  0  0  0  0  0
   -3.7770   22.7270  -31.4490 C   0  0  0  0  0  0  0  0  0  0  0  0
   -3.0260   23.1260  -30.5160 O   0  0  0  0  0  0  0  0  0  0  0  0
   -5.1940   22.9470  -31.3720 N   0  0  0  0  0  0  0  0  0  0  0  0
   -5.8470   24.0320  -30.8670 C   0  0  0  0  0  0  0  0  0  0  0  0
   -5.2220   25.2980  -30.4290 C   0  0  0  0  0  0  0  0  0  0  0  0
   -3.9060   25.6510  -30.8470 N   0  0  0  0  0  0  0  0  0  0  0  0
   -5.8780   26.1030  -29.7140 O   0  0  0  0  0  0  0  0  0  0  0  0
   -7.2250   23.8270  -30.8890 C   0  0  0  0  0  0  0  0  0  0  0  0
   -7.3980   22.5770  -31.4370 C   0  0  0  0  0  0  0  0  0  0  0  0
   -8.5660   21.8630  -31.6840 C   0  0  0  0  0  0  0  0  0  0  0  0
   -8.4480   20.5760  -32.2320 C   0  0  0  0  0  0  0  0  0  0  0  0
   -7.1710   20.0200  -32.5160 C   0  0  0  0  0  0  0  0  0  0  0  0
   -7.0110   18.6250  -33.0960 C   0  0  0  0  0  0  0  0  0  0  0  0
   -6.1150   18.5330  -34.2970 C   0  0  0  0  0  0  0  0  0  0  0  0
   -5.0700   17.7210  -33.6460 N   0  0  0  0  0  0  0  0  0  0  0  0
   -3.8180   17.1430  -34.0010 C   0  0  0  0  0  0  0  0  0  0  0  0
   -3.1670   16.4790  -33.1530 O   0  0  0  0  0  0  0  0  0  0  0  0
   -3.3130   17.3120  -35.2830 O   0  0  0  0  0  0  0  0  0  0  0  0
   -5.9420   17.7880  -32.4580 C   0  0  0  0  0  0  0  0  0  0  0  0
   -6.0100   20.7790  -32.2470 C   0  0  0  0  0  0  0  0  0  0  0  0
   -6.1590   22.0660  -31.7190 C   0  0  0  0  0  0  0  0  0  0  0  0
   -2.5913   20.4610  -31.3905 H   0  0  0  0  0  0  0  0  0  0  0  0
   -3.3834   20.0248  -32.9426 H   0  0  0  0  0  0  0  0  0  0  0  0
   -1.7200   20.7028  -32.9426 H   0  0  0  0  0  0  0  0  0  0  0  0
   -3.0680   25.2890  -30.3420 H   0  0  0  0  0  0  0  0  0  0  0  0
   -8.0078   24.5175  -30.5421 H   0  0  0  0  0  0  0  0  0  0  0  0
   -9.5523   22.2939  -31.4568 H   0  0  0  0  0  0  0  0  0  0  0  0
   -9.3548   19.9906  -32.4442 H   0  0  0  0  0  0  0  0  0  0  0  0
   -8.0786   18.3599  -33.1023 H   0  0  0  0  0  0  0  0  0  0  0  0
   -6.5901   18.0153  -35.1433 H   0  0  0  0  0  0  0  0  0  0  0  0
   -5.7995   19.4786  -34.7620 H   0  0  0  0  0  0  0  0  0  0  0  0
   -6.3076   16.7996  -32.1428 H   0  0  0  0  0  0  0  0  0  0  0  0
   -5.4948   18.1684  -31.5278 H   0  0  0  0  0  0  0  0  0  0  0  0
   -5.0103   20.3668  -32.4484 H   0  0  0  0  0  0  0  0  0  0  0  0
  1  2  1  0
  2  3  1  0
  3  4  2  0
  3  5  1  0
  5  6  1  0
  6  7  1  0
  7  8  1  0
  7  9  2  0
  6 10  2  0
 10 11  1  0
 11 12  2  0
 12 13  1  0
 13 14  2  0
 14 15  1  0
 15 16  1  0
 16 17  1  0
 17 18  1  0
 18 19  2  0
 18 20  1  0
 17 21  1  0
 14 22  1  0
 22 23  2  0
 23  5  1  0
 23 11  1  0
 21 15  1  0
  1 24  1  0
  1 25  1  0
  1 26  1  0
  8 27  1  0
 10 28  1  0
 12 29  1  0
 13 30  1  0
 15 31  1  0
 16 32  1  0
 16 33  1  0
 21 34  1  0
 21 35  1  0
 22 36  1  0
M  CHG  2   8  -1  20  -1
M  END
>  <UniqueID>  (76) 
76

>  <SMILES>  (76) 
COC(=O)n1c(C([NH-])=O)cc2ccc(C3CN(C(=O)[O-])C3)cc21

>  <Energy>  (76) 
121.1840184918387

>  <Genealogy>  (76) 
COC(=O)n1c(C([NH-])=O)cc2ccc(C3CN(C(=O)[O-])C3)cc21 (protonated)
COC(=O)n1c(C([NH-])=O)cc2ccc(C3CN(C(=O)[O-])C3)cc21 (3D coordinates assigned)
COC(=O)n1c(C([NH-])=O)cc2ccc(C3CN(C(=O)[O-])C3)cc21 (nonaromatic ring conformer: 121.1840184918387 kcal/mol)

>  <smiles>  (76) 
COC(=O)n1c(C(N)=O)cc2ccc(C3CN(C(=O)O)C3)cc21

>  <score_type>  (76) 
oracle

>  <origin>  (76) 
adg

>  <m_score__min__energy>  (76) 
-10.640000000000001

>  <m_primary>  (76) 
energy

$$$$
77:0
     RDKit          3D

 41 42  0  0  0  0  0  0  0  0999 V2000
   -5.7800   18.7240  -34.5650 C   0  0  0  0  0  0  0  0  0  0  0  0
   -5.8170   19.6400  -33.3340 C   0  0  2  0  0  0  0  0  0  0  0  0
   -4.8280   19.2040  -32.3390 N   0  0  0  0  0  0  0  0  0  0  0  0
   -3.6630   19.9290  -31.8850 C   0  0  0  0  0  0  0  0  0  0  0  0
   -2.3350   19.4950  -32.1590 C   0  0  0  0  0  0  0  0  0  0  0  0
   -1.2280   20.2200  -31.6860 C   0  0  0  0  0  0  0  0  0  0  0  0
   -1.4680   21.3730  -30.9480 C   0  0  0  0  0  0  0  0  0  0  0  0
   -0.5860   22.2530  -30.3610 C   0  0  0  0  0  0  0  0  0  0  0  0
   -1.3830   23.2200  -29.7490 C   0  0  0  0  0  0  0  0  0  0  0  0
   -0.8410   24.4130  -29.0640 C   0  0  0  0  0  0  0  0  0  0  0  0
   -1.5630   25.6410  -29.0470 N   0  0  0  0  0  0  0  0  0  0  0  0
    0.2920   24.3560  -28.5150 O   0  0  0  0  0  0  0  0  0  0  0  0
   -2.7030   22.9400  -29.9430 N   0  0  0  0  0  0  0  0  0  0  0  0
   -3.8440   23.6440  -29.4310 C   0  0  0  0  0  0  0  0  0  0  0  0
   -4.1770   23.4960  -28.2250 O   0  0  0  0  0  0  0  0  0  0  0  0
   -4.6000   24.5760  -30.2800 C   0  0  0  0  0  0  0  0  0  0  0  0
   -5.8250   24.3840  -30.5020 O   0  0  0  0  0  0  0  0  0  0  0  0
   -3.9640   25.6680  -30.8560 O   0  0  0  0  0  0  0  0  0  0  0  0
   -2.7360   21.8120  -30.6830 C   0  0  0  0  0  0  0  0  0  0  0  0
   -3.8570   21.1090  -31.1310 C   0  0  0  0  0  0  0  0  0  0  0  0
   -7.2010   19.7970  -32.7280 C   0  0  0  0  0  0  0  0  0  0  0  0
   -8.0020   18.8210  -32.7610 O   0  0  0  0  0  0  0  0  0  0  0  0
   -7.6330   21.0420  -32.1350 N   0  0  0  0  0  0  0  0  0  0  0  0
   -6.8630   22.2780  -32.3110 C   0  0  0  0  0  0  0  0  0  0  0  0
   -8.8870   21.0660  -31.3750 C   0  0  0  0  0  0  0  0  0  0  0  0
   -5.7376   17.6741  -34.2396 H   0  0  0  0  0  0  0  0  0  0  0  0
   -6.6854   18.8845  -35.1688 H   0  0  0  0  0  0  0  0  0  0  0  0
   -4.8905   18.9570  -35.1688 H   0  0  0  0  0  0  0  0  0  0  0  0
   -5.5446   20.6468  -33.6834 H   0  0  0  0  0  0  0  0  0  0  0  0
   -4.9890   18.2550  -31.9290 H   0  0  0  0  0  0  0  0  0  0  0  0
   -2.1734   18.5805  -32.7485 H   0  0  0  0  0  0  0  0  0  0  0  0
   -0.2012   19.8846  -31.8938 H   0  0  0  0  0  0  0  0  0  0  0  0
    0.5128   22.2036  -30.3725 H   0  0  0  0  0  0  0  0  0  0  0  0
   -2.5870   25.6650  -29.2520 H   0  0  0  0  0  0  0  0  0  0  0  0
   -4.8715   21.4669  -30.9014 H   0  0  0  0  0  0  0  0  0  0  0  0
   -6.6047   22.6926  -31.3254 H   0  0  0  0  0  0  0  0  0  0  0  0
   -5.9411   22.0593  -32.8698 H   0  0  0  0  0  0  0  0  0  0  0  0
   -7.4657   23.0091  -32.8698 H   0  0  0  0  0  0  0  0  0  0  0  0
   -8.6632   21.0617  -30.2980 H   0  0  0  0  0  0  0  0  0  0  0  0
   -9.4520   21.9751  -31.6285 H   0  0  0  0  0  0  0  0  0  0  0  0
   -9.4864   20.1792  -31.6285 H   0  0  0  0  0  0  0  0  0  0  0  0
  1  2  1  0
  2  3  1  0
  3  4  1  0
  4  5  2  0
  5  6  1  0
  6  7  2  0
  7  8  1  0
  8  9  2  0
  9 10  1  0
 10 11  1  0
 10 12  2  0
  9 13  1  0
 13 14  1  0
 14 15  2  0
 14 16  1  0
 16 17  2  0
 16 18  1  0
 13 19  1  0
 19 20  2  0
  2 21  1  0
 21 22  2  0
 21 23  1  0
 23 24  1  0
 23 25  1  0
 20  4  1  0
 19  7  1  0
  1 26  1  0
  1 27  1  0
  1 28  1  0
  2 29  1  6
  3 30  1  0
  5 31  1  0
  6 32  1  0
  8 33  1  0
 11 34  1  0
 20 35  1  0
 24 36  1  0
 24 37  1  0
 24 38  1  0
 25 39  1  0
 25 40  1  0
 25 41  1  0
M  CHG  2  11  -1  18  -1
M  END
>  <UniqueID>  (77) 
77

>  <SMILES>  (77) 
C[C@H](Nc1ccc2cc(C([NH-])=O)n(C(=O)C(=O)[O-])c2c1)C(=O)N(C)C

>  <Energy>  (77) 
79.78156415460799

>  <Genealogy>  (77) 
CC(Nc1ccc2cc(C([NH-])=O)n(C(=O)C(=O)[O-])c2c1)C(=O)N(C)C (protonated)
C[C@H](Nc1ccc2cc(C([NH-])=O)n(C(=O)C(=O)[O-])c2c1)C(=O)N(C)C (chirality)
C[C@H](Nc1ccc2cc(C([NH-])=O)n(C(=O)C(=O)[O-])c2c1)C(=O)N(C)C (3D coordinates assigned)
C[C@H](Nc1ccc2cc(C([NH-])=O)n(C(=O)C(=O)[O-])c2c1)C(=O)N(C)C (optimized conformer: 79.78156415460799 kcal/mol)

>  <smiles>  (77) 
CC(Nc1ccc2cc(C(N)=O)n(C(=O)C(=O)O)c2c1)C(=O)N(C)C

>  <score_type>  (77) 
oracle

>  <origin>  (77) 
adg

>  <m_score__min__energy>  (77) 
-11.68

>  <m_primary>  (77) 
energy

$$$$
78:0
     RDKit          3D

 33 34  0  0  0  0  0  0  0  0999 V2000
   -3.3140   25.0370  -30.9270 H   0  0  0  0  0  0  0  0  0  0  0  0
   -4.1360   25.6740  -30.8310 N   0  0  0  0  0  0  0  0  0  0  0  0
   -5.4070   25.1740  -30.4250 C   0  0  0  0  0  0  0  0  0  0  0  0
   -6.1580   25.8980  -29.7190 O   0  0  0  0  0  0  0  0  0  0  0  0
   -5.8180   23.8080  -30.8070 C   0  0  0  0  0  0  0  0  0  0  0  0
   -7.1240   23.4560  -31.1430 C   0  0  0  0  0  0  0  0  0  0  0  0
   -8.0160   24.0992  -31.1169 H   0  0  0  0  0  0  0  0  0  0  0  0
   -7.0600   22.1300  -31.5150 C   0  0  0  0  0  0  0  0  0  0  0  0
   -8.0630   21.2720  -31.9560 C   0  0  0  0  0  0  0  0  0  0  0  0
   -9.1025   21.6177  -32.0557 H   0  0  0  0  0  0  0  0  0  0  0  0
   -7.7050   19.9490  -32.2700 C   0  0  0  0  0  0  0  0  0  0  0  0
   -8.4722   19.2509  -32.6363 H   0  0  0  0  0  0  0  0  0  0  0  0
   -6.3650   19.5030  -32.1200 C   0  0  0  0  0  0  0  0  0  0  0  0
   -5.9870   18.0950  -32.5030 C   0  0  0  0  0  0  0  0  0  0  0  0
   -6.9760   17.5190  -33.2820 F   0  0  0  0  0  0  0  0  0  0  0  0
   -4.8050   18.1200  -33.2190 F   0  0  0  0  0  0  0  0  0  0  0  0
   -5.8140   17.3120  -31.3750 F   0  0  0  0  0  0  0  0  0  0  0  0
   -5.3720   20.4150  -31.6930 C   0  0  0  0  0  0  0  0  0  0  0  0
   -4.3221   20.1011  -31.5970 H   0  0  0  0  0  0  0  0  0  0  0  0
   -5.7580   21.7250  -31.3960 C   0  0  0  0  0  0  0  0  0  0  0  0
   -4.9850   22.7400  -30.9580 N   0  0  0  0  0  0  0  0  0  0  0  0
   -3.5810   22.6640  -30.6760 C   0  0  0  0  0  0  0  0  0  0  0  0
   -2.7560   22.9250  -31.5910 O   0  0  0  0  0  0  0  0  0  0  0  0
   -3.1250   22.3100  -29.3110 C   0  0  0  0  0  0  0  0  0  0  0  0
   -3.5251   21.3832  -28.8741 H   0  0  0  0  0  0  0  0  0  0  0  0
   -2.2640   23.0220  -28.5570 C   0  0  0  0  0  0  0  0  0  0  0  0
   -1.5030   24.1840  -29.0680 C   0  0  0  0  0  0  0  0  0  0  0  0
   -2.0990   25.2650  -29.3200 O   0  0  0  0  0  0  0  0  0  0  0  0
   -0.1210   24.1260  -29.1990 O   0  0  0  0  0  0  0  0  0  0  0  0
   -2.0650   22.6170  -27.1210 C   0  0  0  0  0  0  0  0  0  0  0  0
   -2.4528   23.4063  -26.4603 H   0  0  0  0  0  0  0  0  0  0  0  0
   -2.6045   21.6783  -26.9266 H   0  0  0  0  0  0  0  0  0  0  0  0
   -0.9923   22.4704  -26.9266 H   0  0  0  0  0  0  0  0  0  0  0  0
  1  2  1  0
  2  3  1  0
  3  4  2  0
  3  5  1  0
  5  6  2  0
  6  7  1  0
  6  8  1  0
  8  9  2  0
  9 10  1  0
  9 11  1  0
 11 12  1  0
 11 13  2  0
 13 14  1  0
 14 15  1  0
 14 16  1  0
 14 17  1  0
 13 18  1  0
 18 19  1  0
 18 20  2  0
 20 21  1  0
 21 22  1  0
 22 23  2  0
 22 24  1  0
 24 25  1  0
 24 26  2  0
 26 27  1  0
 27 28  2  0
 27 29  1  0
 26 30  1  0
 30 31  1  0
 30 32  1  0
 30 33  1  0
 21  5  1  0
 20  8  1  0
M  CHG  2   2  -1  29  -1
M  END
>  <UniqueID>  (78) 
78

>  <SMILES>  (78) 
C/C(=C/C(=O)n1c(C([NH-])=O)cc2ccc(C(F)(F)F)cc21)C(=O)[O-]

>  <Energy>  (78) 
80.25236478658007

>  <Genealogy>  (78) 
CC(=CC(=O)n1c(C([NH-])=O)cc2ccc(C(F)(F)F)cc21)C(=O)[O-] (protonated)
C/C(=C/C(=O)n1c(C([NH-])=O)cc2ccc(C(F)(F)F)cc21)C(=O)[O-] (cis-trans isomerization)
C/C(=C/C(=O)n1c(C([NH-])=O)cc2ccc(C(F)(F)F)cc21)C(=O)[O-] (3D coordinates assigned)
C/C(=C/C(=O)n1c(C([NH-])=O)cc2ccc(C(F)(F)F)cc21)C(=O)[O-] (optimized conformer: 80.25236478658007 kcal/mol)

>  <smiles>  (78) 
CC(=CC(=O)n1c(C(N)=O)cc2ccc(C(F)(F)F)cc21)C(=O)O

>  <score_type>  (78) 
oracle

>  <origin>  (78) 
adg

>  <m_score__min__energy>  (78) 
-11.800000000000001

>  <m_primary>  (78) 
energy

$$$$
79:0
     RDKit          3D

 37 38  0  0  0  0  0  0  0  0999 V2000
   -1.2570   26.0730  -28.0770 C   0  0  0  0  0  0  0  0  0  0  0  0
   -1.8220   24.9730  -28.8460 N   0  0  0  0  0  0  0  0  0  0  0  0
   -1.0170   23.8820  -29.3080 C   0  0  0  0  0  0  0  0  0  0  0  0
    0.2180   23.8510  -29.0580 O   0  0  0  0  0  0  0  0  0  0  0  0
   -1.6300   22.7960  -30.1330 C   0  0  0  0  0  0  0  0  0  0  0  0
   -3.0400   22.9820  -30.1750 O   0  0  0  0  0  0  0  0  0  0  0  0
   -3.8110   22.6740  -31.3000 C   0  0  0  0  0  0  0  0  0  0  0  0
   -3.2660   22.1980  -32.3320 O   0  0  0  0  0  0  0  0  0  0  0  0
   -5.2260   22.9220  -31.2840 N   0  0  0  0  0  0  0  0  0  0  0  0
   -5.8590   24.0970  -31.0060 C   0  0  0  0  0  0  0  0  0  0  0  0
   -5.2250   25.3240  -30.4820 C   0  0  0  0  0  0  0  0  0  0  0  0
   -3.8900   25.6690  -30.8430 N   0  0  0  0  0  0  0  0  0  0  0  0
   -5.8520   26.0510  -29.6660 O   0  0  0  0  0  0  0  0  0  0  0  0
   -7.2330   23.9700  -31.2040 C   0  0  0  0  0  0  0  0  0  0  0  0
   -7.4240   22.6690  -31.6090 C   0  0  0  0  0  0  0  0  0  0  0  0
   -8.5940   22.0030  -31.9550 C   0  0  0  0  0  0  0  0  0  0  0  0
   -8.4960   20.6640  -32.3690 C   0  0  0  0  0  0  0  0  0  0  0  0
   -7.2320   20.0170  -32.4360 C   0  0  0  0  0  0  0  0  0  0  0  0
   -7.1080   18.6500  -32.8690 N   0  0  0  0  0  0  0  0  0  0  0  0
   -6.4540   17.6110  -32.0790 C   0  0  0  0  0  0  0  0  0  0  0  0
   -6.0660   20.7300  -32.0760 C   0  0  0  0  0  0  0  0  0  0  0  0
   -6.1980   22.0570  -31.6490 C   0  0  0  0  0  0  0  0  0  0  0  0
   -1.3650   25.8628  -27.0027 H   0  0  0  0  0  0  0  0  0  0  0  0
   -0.1907   26.1832  -28.3237 H   0  0  0  0  0  0  0  0  0  0  0  0
   -1.7885   27.0039  -28.3237 H   0  0  0  0  0  0  0  0  0  0  0  0
   -2.8430   24.9870  -29.0710 H   0  0  0  0  0  0  0  0  0  0  0  0
   -1.2229   22.8349  -31.1541 H   0  0  0  0  0  0  0  0  0  0  0  0
   -1.3987   21.8172  -29.6876 H   0  0  0  0  0  0  0  0  0  0  0  0
   -3.0770   25.1280  -30.4720 H   0  0  0  0  0  0  0  0  0  0  0  0
   -8.0012   24.7451  -31.0658 H   0  0  0  0  0  0  0  0  0  0  0  0
   -9.5690   22.5100  -31.9061 H   0  0  0  0  0  0  0  0  0  0  0  0
   -9.4062   20.1109  -32.6440 H   0  0  0  0  0  0  0  0  0  0  0  0
   -7.5030   18.3750  -33.7960 H   0  0  0  0  0  0  0  0  0  0  0  0
   -6.5887   17.8250  -31.0085 H   0  0  0  0  0  0  0  0  0  0  0  0
   -6.9004   16.6341  -32.3166 H   0  0  0  0  0  0  0  0  0  0  0  0
   -5.3802   17.5910  -32.3166 H   0  0  0  0  0  0  0  0  0  0  0  0
   -5.0764   20.2529  -32.1301 H   0  0  0  0  0  0  0  0  0  0  0  0
  1  2  1  0
  2  3  1  0
  3  4  2  0
  3  5  1  0
  5  6  1  0
  6  7  1  0
  7  8  2  0
  7  9  1  0
  9 10  1  0
 10 11  1  0
 11 12  1  0
 11 13  2  0
 10 14  2  0
 14 15  1  0
 15 16  2  0
 16 17  1  0
 17 18  2  0
 18 19  1  0
 19 20  1  0
 18 21  1  0
 21 22  2  0
 22  9  1  0
 22 15  1  0
  1 23  1  0
  1 24  1  0
  1 25  1  0
  2 26  1  0
  5 27  1  0
  5 28  1  0
 12 29  1  0
 14 30  1  0
 16 31  1  0
 17 32  1  0
 19 33  1  0
 20 34  1  0
 20 35  1  0
 20 36  1  0
 21 37  1  0
M  CHG  1  12  -1
M  END
>  <UniqueID>  (79) 
79

>  <SMILES>  (79) 
CNC(=O)COC(=O)n1c(C([NH-])=O)cc2ccc(NC)cc21

>  <Energy>  (79) 
68.04008243420087

>  <Genealogy>  (79) 
CNC(=O)COC(=O)n1c(C([NH-])=O)cc2ccc(NC)cc21 (protonated)
CNC(=O)COC(=O)n1c(C([NH-])=O)cc2ccc(NC)cc21 (3D coordinates assigned)
CNC(=O)COC(=O)n1c(C([NH-])=O)cc2ccc(NC)cc21 (optimized conformer: 68.04008243420087 kcal/mol)

>  <smiles>  (79) 
CNC(=O)COC(=O)n1c(C(N)=O)cc2ccc(NC)cc21

>  <score_type>  (79) 
oracle

>  <origin>  (79) 
adg

>  <m_score__min__energy>  (79) 
-9.5399999999999991

>  <m_primary>  (79) 
energy

$$$$
80:0
     RDKit          3D

 30 31  0  0  0  0  0  0  0  0999 V2000
   -6.2180   17.0880  -34.2210 C   0  0  0  0  0  0  0  0  0  0  0  0
   -6.4890   18.0820  -33.5960 C   0  0  0  0  0  0  0  0  0  0  0  0
   -6.8130   19.2690  -32.8500 C   0  0  0  0  0  0  0  0  0  0  0  0
   -8.1200   19.4440  -32.3390 C   0  0  0  0  0  0  0  0  0  0  0  0
   -8.4460   20.5930  -31.5980 C   0  0  0  0  0  0  0  0  0  0  0  0
   -7.4480   21.5430  -31.3940 C   0  0  0  0  0  0  0  0  0  0  0  0
   -7.4860   22.7280  -30.6970 C   0  0  0  0  0  0  0  0  0  0  0  0
   -6.2060   23.2660  -30.8130 C   0  0  0  0  0  0  0  0  0  0  0  0
   -5.8190   24.5930  -30.2860 C   0  0  0  0  0  0  0  0  0  0  0  0
   -4.7180   24.7270  -29.3840 N   0  0  0  0  0  0  0  0  0  0  0  0
   -6.4780   25.6180  -30.6040 O   0  0  0  0  0  0  0  0  0  0  0  0
   -5.4060   22.4450  -31.5510 N   0  0  0  0  0  0  0  0  0  0  0  0
   -4.0070   22.6110  -31.8330 C   0  0  0  0  0  0  0  0  0  0  0  0
   -3.4670   21.9530  -32.7640 O   0  0  0  0  0  0  0  0  0  0  0  0
   -3.2450   23.4960  -31.0640 O   0  0  0  0  0  0  0  0  0  0  0  0
   -2.2430   23.0570  -30.1540 C   0  0  0  0  0  0  0  0  0  0  0  0
   -1.6720   24.2400  -29.4470 C   0  0  0  0  0  0  0  0  0  0  0  0
   -2.3450   25.2980  -29.3370 O   0  0  0  0  0  0  0  0  0  0  0  0
   -0.3730   24.1960  -28.9570 O   0  0  0  0  0  0  0  0  0  0  0  0
   -6.1830   21.3930  -31.9000 C   0  0  0  0  0  0  0  0  0  0  0  0
   -5.8260   20.2500  -32.6260 C   0  0  0  0  0  0  0  0  0  0  0  0
   -5.9706   16.1806  -34.7915 H   0  0  0  0  0  0  0  0  0  0  0  0
   -8.8861   18.6763  -32.5226 H   0  0  0  0  0  0  0  0  0  0  0  0
   -9.4580   20.7375  -31.1918 H   0  0  0  0  0  0  0  0  0  0  0  0
   -8.3446   23.1594  -30.1616 H   0  0  0  0  0  0  0  0  0  0  0  0
   -4.1160   23.9110  -29.1380 H   0  0  0  0  0  0  0  0  0  0  0  0
   -4.4770   25.6630  -28.9880 H   0  0  0  0  0  0  0  0  0  0  0  0
   -2.6881   22.3690  -29.4201 H   0  0  0  0  0  0  0  0  0  0  0  0
   -1.4465   22.5347  -30.7043 H   0  0  0  0  0  0  0  0  0  0  0  0
   -4.8036   20.1213  -33.0108 H   0  0  0  0  0  0  0  0  0  0  0  0
  1  2  3  0
  2  3  1  0
  3  4  2  0
  4  5  1  0
  5  6  2  0
  6  7  1  0
  7  8  2  0
  8  9  1  0
  9 10  1  0
  9 11  2  0
  8 12  1  0
 12 13  1  0
 13 14  2  0
 13 15  1  0
 15 16  1  0
 16 17  1  0
 17 18  2  0
 17 19  1  0
 12 20  1  0
 20 21  2  0
 21  3  1  0
 20  6  1  0
  1 22  1  0
  4 23  1  0
  5 24  1  0
  7 25  1  0
 10 26  1  0
 10 27  1  0
 16 28  1  0
 16 29  1  0
 21 30  1  0
M  CHG  1  19  -1
M  END
>  <UniqueID>  (80) 
80

>  <SMILES>  (80) 
C#Cc1ccc2cc(C(N)=O)n(C(=O)OCC(=O)[O-])c2c1

>  <Energy>  (80) 
64.04989627995266

>  <Genealogy>  (80) 
C#Cc1ccc2cc(C(N)=O)n(C(=O)OCC(=O)[O-])c2c1 (protonated)
C#Cc1ccc2cc(C(N)=O)n(C(=O)OCC(=O)[O-])c2c1 (3D coordinates assigned)
C#Cc1ccc2cc(C(N)=O)n(C(=O)OCC(=O)[O-])c2c1 (optimized conformer: 64.04989627995266 kcal/mol)

>  <smiles>  (80) 
C#Cc1ccc2cc(C(N)=O)n(C(=O)OCC(=O)O)c2c1

>  <score_type>  (80) 
oracle

>  <origin>  (80) 
adg

>  <m_score__min__energy>  (80) 
-10.470000000000001

>  <m_primary>  (80) 
energy

$$$$
81:0
     RDKit          3D

 30 31  0  0  0  0  0  0  0  0999 V2000
   -3.9410   25.6710  -30.8940 N   0  0  0  0  0  0  0  0  0  0  0  0
   -5.2500   25.3060  -30.4620 C   0  0  0  0  0  0  0  0  0  0  0  0
   -5.9010   26.0970  -29.7320 O   0  0  0  0  0  0  0  0  0  0  0  0
   -5.8430   24.0290  -30.9110 C   0  0  0  0  0  0  0  0  0  0  0  0
   -7.2160   23.8020  -30.9820 C   0  0  0  0  0  0  0  0  0  0  0  0
   -7.3500   22.4840  -31.3520 C   0  0  0  0  0  0  0  0  0  0  0  0
   -8.4970   21.7280  -31.5710 C   0  0  0  0  0  0  0  0  0  0  0  0
   -8.3390   20.3900  -31.9670 C   0  0  0  0  0  0  0  0  0  0  0  0
   -7.0460   19.8380  -32.1620 C   0  0  0  0  0  0  0  0  0  0  0  0
   -6.8890   18.3900  -32.5500 C   0  0  0  0  0  0  0  0  0  0  0  0
   -6.5200   18.2780  -33.8790 F   0  0  0  0  0  0  0  0  0  0  0  0
   -8.0800   17.7050  -32.3730 F   0  0  0  0  0  0  0  0  0  0  0  0
   -5.9140   17.8100  -31.7610 F   0  0  0  0  0  0  0  0  0  0  0  0
   -5.9040   20.6330  -31.9070 C   0  0  0  0  0  0  0  0  0  0  0  0
   -6.0920   21.9580  -31.4950 C   0  0  0  0  0  0  0  0  0  0  0  0
   -5.1550   22.8950  -31.2290 N   0  0  0  0  0  0  0  0  0  0  0  0
   -3.7320   22.7370  -31.3440 C   0  0  0  0  0  0  0  0  0  0  0  0
   -3.2380   22.2350  -32.3900 O   0  0  0  0  0  0  0  0  0  0  0  0
   -2.8990   23.1600  -30.3010 O   0  0  0  0  0  0  0  0  0  0  0  0
   -3.3370   23.2840  -28.9510 C   0  0  0  0  0  0  0  0  0  0  0  0
   -2.6470   24.4310  -28.2790 C   0  0  0  0  0  0  0  0  0  0  0  0
   -2.0750   25.2800  -28.9420 O   0  0  0  0  0  0  0  0  0  0  0  0
   -3.0940   25.2990  -30.4110 H   0  0  0  0  0  0  0  0  0  0  0  0
   -8.0220   24.5239  -30.7841 H   0  0  0  0  0  0  0  0  0  0  0  0
   -9.4976   22.1651  -31.4380 H   0  0  0  0  0  0  0  0  0  0  0  0
   -9.2278   19.7623  -32.1280 H   0  0  0  0  0  0  0  0  0  0  0  0
   -4.8919   20.2199  -32.0295 H   0  0  0  0  0  0  0  0  0  0  0  0
   -4.4233   23.4567  -28.9373 H   0  0  0  0  0  0  0  0  0  0  0  0
   -3.0936   22.3569  -28.4114 H   0  0  0  0  0  0  0  0  0  0  0  0
   -2.6562   24.5081  -27.1817 H   0  0  0  0  0  0  0  0  0  0  0  0
  1  2  1  0
  2  3  2  0
  2  4  1  0
  4  5  2  0
  5  6  1  0
  6  7  2  0
  7  8  1  0
  8  9  2  0
  9 10  1  0
 10 11  1  0
 10 12  1  0
 10 13  1  0
  9 14  1  0
 14 15  2  0
 15 16  1  0
 16 17  1  0
 17 18  2  0
 17 19  1  0
 19 20  1  0
 20 21  1  0
 21 22  2  0
 16  4  1  0
 15  6  1  0
  1 23  1  0
  5 24  1  0
  7 25  1  0
  8 26  1  0
 14 27  1  0
 20 28  1  0
 20 29  1  0
 21 30  1  0
M  CHG  1   1  -1
M  END
>  <UniqueID>  (81) 
81

>  <SMILES>  (81) 
[NH-]C(=O)c1cc2ccc(C(F)(F)F)cc2n1C(=O)OCC=O

>  <Energy>  (81) 
66.97347128873365

>  <Genealogy>  (81) 
[NH-]C(=O)c1cc2ccc(C(F)(F)F)cc2n1C(=O)OCC=O (protonated)
[NH-]C(=O)c1cc2ccc(C(F)(F)F)cc2n1C(=O)OCC=O (3D coordinates assigned)
[NH-]C(=O)c1cc2ccc(C(F)(F)F)cc2n1C(=O)OCC=O (optimized conformer: 66.97347128873365 kcal/mol)

>  <smiles>  (81) 
NC(=O)c1cc2ccc(C(F)(F)F)cc2n1C(=O)OCC=O

>  <score_type>  (81) 
oracle

>  <origin>  (81) 
adg

>  <m_score__min__energy>  (81) 
-9.4399999999999995

>  <m_primary>  (81) 
energy

$$$$
82:0
     RDKit          3D

 34 35  0  0  0  0  0  0  0  0999 V2000
   -4.0830   24.3090  -27.3840 C   0  0  0  0  0  0  0  0  0  0  0  0
   -3.0350   24.5680  -28.3100 O   0  0  0  0  0  0  0  0  0  0  0  0
   -2.3310   23.5470  -28.9560 C   0  0  0  0  0  0  0  0  0  0  0  0
   -1.3470   23.8140  -29.6980 O   0  0  0  0  0  0  0  0  0  0  0  0
   -2.7760   22.1270  -28.7950 C   0  0  0  0  0  0  0  0  0  0  0  0
   -3.4400   21.6730  -29.9730 O   0  0  0  0  0  0  0  0  0  0  0  0
   -3.8960   22.5360  -30.9750 C   0  0  0  0  0  0  0  0  0  0  0  0
   -3.0840   23.0560  -31.7900 O   0  0  0  0  0  0  0  0  0  0  0  0
   -5.2950   22.8420  -31.0670 N   0  0  0  0  0  0  0  0  0  0  0  0
   -5.9110   24.0280  -30.7970 C   0  0  0  0  0  0  0  0  0  0  0  0
   -5.2360   25.3090  -30.5020 C   0  0  0  0  0  0  0  0  0  0  0  0
   -3.8620   25.5070  -30.8280 N   0  0  0  0  0  0  0  0  0  0  0  0
   -5.8920   26.2580  -29.9960 O   0  0  0  0  0  0  0  0  0  0  0  0
   -7.2920   23.8990  -30.9250 C   0  0  0  0  0  0  0  0  0  0  0  0
   -7.5050   22.5910  -31.2960 C   0  0  0  0  0  0  0  0  0  0  0  0
   -8.6930   21.9140  -31.5520 C   0  0  0  0  0  0  0  0  0  0  0  0
   -8.6150   20.5530  -31.8920 C   0  0  0  0  0  0  0  0  0  0  0  0
   -7.3610   19.8960  -31.9650 C   0  0  0  0  0  0  0  0  0  0  0  0
   -7.3020   18.4370  -32.3150 C   0  0  0  0  0  0  0  0  0  0  0  0
   -6.8530   18.2870  -33.6150 F   0  0  0  0  0  0  0  0  0  0  0  0
   -8.5620   17.8800  -32.2010 F   0  0  0  0  0  0  0  0  0  0  0  0
   -6.1750   20.6160  -31.6960 C   0  0  0  0  0  0  0  0  0  0  0  0
   -6.2830   21.9740  -31.3750 C   0  0  0  0  0  0  0  0  0  0  0  0
   -3.6977   24.4042  -26.3581 H   0  0  0  0  0  0  0  0  0  0  0  0
   -4.8964   25.0331  -27.5389 H   0  0  0  0  0  0  0  0  0  0  0  0
   -4.4654   23.2893  -27.5389 H   0  0  0  0  0  0  0  0  0  0  0  0
   -1.8977   21.4919  -28.6074 H   0  0  0  0  0  0  0  0  0  0  0  0
   -3.4756   22.0681  -27.9482 H   0  0  0  0  0  0  0  0  0  0  0  0
   -3.1300   24.8400  -30.4990 H   0  0  0  0  0  0  0  0  0  0  0  0
   -8.0517   24.6780  -30.7636 H   0  0  0  0  0  0  0  0  0  0  0  0
   -9.6634   22.4283  -31.4901 H   0  0  0  0  0  0  0  0  0  0  0  0
   -9.5368   19.9913  -32.1038 H   0  0  0  0  0  0  0  0  0  0  0  0
   -6.6109   17.9290  -31.6263 H   0  0  0  0  0  0  0  0  0  0  0  0
   -5.1930   20.1221  -31.7378 H   0  0  0  0  0  0  0  0  0  0  0  0
  1  2  1  0
  2  3  1  0
  3  4  2  0
  3  5  1  0
  5  6  1  0
  6  7  1  0
  7  8  2  0
  7  9  1  0
  9 10  1  0
 10 11  1  0
 11 12  1  0
 11 13  2  0
 10 14  2  0
 14 15  1  0
 15 16  2  0
 16 17  1  0
 17 18  2  0
 18 19  1  0
 19 20  1  0
 19 21  1  0
 18 22  1  0
 22 23  2  0
 23  9  1  0
 23 15  1  0
  1 24  1  0
  1 25  1  0
  1 26  1  0
  5 27  1  0
  5 28  1  0
 12 29  1  0
 14 30  1  0
 16 31  1  0
 17 32  1  0
 19 33  1  0
 22 34  1  0
M  CHG  1  12  -1
M  END
>  <UniqueID>  (82) 
82

>  <SMILES>  (82) 
COC(=O)COC(=O)n1c(C([NH-])=O)cc2ccc(C(F)F)cc21

>  <Energy>  (82) 
68.19144722034187

>  <Genealogy>  (82) 
COC(=O)COC(=O)n1c(C([NH-])=O)cc2ccc(C(F)F)cc21 (protonated)
COC(=O)COC(=O)n1c(C([NH-])=O)cc2ccc(C(F)F)cc21 (3D coordinates assigned)
COC(=O)COC(=O)n1c(C([NH-])=O)cc2ccc(C(F)F)cc21 (optimized conformer: 68.19144722034187 kcal/mol)

>  <smiles>  (82) 
COC(=O)COC(=O)n1c(C(N)=O)cc2ccc(C(F)F)cc21

>  <score_type>  (82) 
oracle

>  <origin>  (82) 
adg

>  <m_score__min__energy>  (82) 
-9.5700000000000003

>  <m_primary>  (82) 
energy

$$$$
83:0
     RDKit          3D

 36 37  0  0  0  0  0  0  0  0999 V2000
   -0.6270   26.6000  -26.6720 C   0  0  0  0  0  0  0  0  0  0  0  0
   -0.4220   26.3180  -28.0510 O   0  0  0  0  0  0  0  0  0  0  0  0
   -0.9250   25.1700  -28.6680 C   0  0  0  0  0  0  0  0  0  0  0  0
   -0.1690   24.1880  -28.9060 O   0  0  0  0  0  0  0  0  0  0  0  0
   -2.2770   25.1250  -29.0130 O   0  0  0  0  0  0  0  0  0  0  0  0
   -3.2450   24.3880  -28.2700 C   0  0  0  0  0  0  0  0  0  0  0  0
   -3.8460   23.3900  -29.0900 O   0  0  0  0  0  0  0  0  0  0  0  0
   -4.1260   23.5920  -30.4470 C   0  0  0  0  0  0  0  0  0  0  0  0
   -4.2720   24.7620  -30.8970 O   0  0  0  0  0  0  0  0  0  0  0  0
   -4.2690   22.4630  -31.3250 N   0  0  0  0  0  0  0  0  0  0  0  0
   -3.2800   21.6520  -31.7950 C   0  0  0  0  0  0  0  0  0  0  0  0
   -1.8300   21.8880  -31.6560 C   0  0  0  0  0  0  0  0  0  0  0  0
   -1.3120   22.6830  -30.5880 N   0  0  0  0  0  0  0  0  0  0  0  0
   -1.0410   21.4350  -32.5270 O   0  0  0  0  0  0  0  0  0  0  0  0
   -3.8140   20.5740  -32.4940 C   0  0  0  0  0  0  0  0  0  0  0  0
   -5.1780   20.7540  -32.4480 C   0  0  0  0  0  0  0  0  0  0  0  0
   -6.1990   19.9590  -32.9590 C   0  0  0  0  0  0  0  0  0  0  0  0
   -7.5250   20.3550  -32.7160 C   0  0  0  0  0  0  0  0  0  0  0  0
   -7.8080   21.5360  -31.9810 C   0  0  0  0  0  0  0  0  0  0  0  0
   -9.2310   21.9160  -31.6610 C   0  0  0  0  0  0  0  0  0  0  0  0
   -9.4840   23.2160  -32.0640 F   0  0  0  0  0  0  0  0  0  0  0  0
  -10.1250   21.0800  -32.3050 F   0  0  0  0  0  0  0  0  0  0  0  0
   -9.4300   21.8210  -30.2970 F   0  0  0  0  0  0  0  0  0  0  0  0
   -6.7400   22.3050  -31.4620 C   0  0  0  0  0  0  0  0  0  0  0  0
   -5.4280   21.8980  -31.7350 C   0  0  0  0  0  0  0  0  0  0  0  0
   -0.0886   25.8594  -26.0623 H   0  0  0  0  0  0  0  0  0  0  0  0
   -0.2490   27.6074  -26.4436 H   0  0  0  0  0  0  0  0  0  0  0  0
   -1.7019   26.5512  -26.4436 H   0  0  0  0  0  0  0  0  0  0  0  0
   -2.7531   23.9049  -27.4129 H   0  0  0  0  0  0  0  0  0  0  0  0
   -4.0258   25.0783  -27.9180 H   0  0  0  0  0  0  0  0  0  0  0  0
   -0.2820   22.8310  -30.4970 H   0  0  0  0  0  0  0  0  0  0  0  0
   -1.9490   23.1840  -29.9310 H   0  0  0  0  0  0  0  0  0  0  0  0
   -3.2643   19.7540  -32.9792 H   0  0  0  0  0  0  0  0  0  0  0  0
   -5.9752   19.0491  -33.5351 H   0  0  0  0  0  0  0  0  0  0  0  0
   -8.3540   19.7424  -33.1000 H   0  0  0  0  0  0  0  0  0  0  0  0
   -6.9357   23.2028  -30.8573 H   0  0  0  0  0  0  0  0  0  0  0  0
  1  2  1  0
  2  3  1  0
  3  4  2  0
  3  5  1  0
  5  6  1  0
  6  7  1  0
  7  8  1  0
  8  9  2  0
  8 10  1  0
 10 11  1  0
 11 12  1  0
 12 13  1  0
 12 14  2  0
 11 15  2  0
 15 16  1  0
 16 17  2  0
 17 18  1  0
 18 19  2  0
 19 20  1  0
 20 21  1  0
 20 22  1  0
 20 23  1  0
 19 24  1  0
 24 25  2  0
 25 10  1  0
 25 16  1  0
  1 26  1  0
  1 27  1  0
  1 28  1  0
  6 29  1  0
  6 30  1  0
 13 31  1  0
 13 32  1  0
 15 33  1  0
 17 34  1  0
 18 35  1  0
 24 36  1  0
M  END
>  <UniqueID>  (83) 
83

>  <SMILES>  (83) 
COC(=O)OCOC(=O)n1c(C(N)=O)cc2ccc(C(F)(F)F)cc21

>  <Energy>  (83) 
70.53955285939784

>  <Genealogy>  (83) 
COC(=O)OCOC(=O)n1c(C(N)=O)cc2ccc(C(F)(F)F)cc21 (3D coordinates assigned)
COC(=O)OCOC(=O)n1c(C(N)=O)cc2ccc(C(F)(F)F)cc21 (optimized conformer: 70.53955285939784 kcal/mol)

>  <smiles>  (83) 
COC(=O)OCOC(=O)n1c(C(N)=O)cc2ccc(C(F)(F)F)cc21

>  <score_type>  (83) 
oracle

>  <origin>  (83) 
adg

>  <m_score__min__energy>  (83) 
-7.8099999999999996

>  <m_primary>  (83) 
energy

$$$$
84:0
     RDKit          3D

 37 38  0  0  0  0  0  0  0  0999 V2000
    0.3860   23.5200  -27.9770 C   0  0  0  0  0  0  0  0  0  0  0  0
   -0.3620   24.2100  -28.9700 O   0  0  0  0  0  0  0  0  0  0  0  0
   -1.7600   24.2100  -28.9970 C   0  0  0  0  0  0  0  0  0  0  0  0
   -2.4030   25.2950  -29.0240 O   0  0  0  0  0  0  0  0  0  0  0  0
   -2.4840   22.9370  -28.9780 C   0  0  0  0  0  0  0  0  0  0  0  0
   -3.3430   22.7220  -28.0800 O   0  0  0  0  0  0  0  0  0  0  0  0
   -2.2250   21.9770  -29.9640 O   0  0  0  0  0  0  0  0  0  0  0  0
   -2.9680   21.8850  -31.1760 C   0  0  0  0  0  0  0  0  0  0  0  0
   -3.9990   22.9710  -31.2220 C   0  0  0  0  0  0  0  0  0  0  0  0
   -3.6360   24.1770  -31.1740 O   0  0  0  0  0  0  0  0  0  0  0  0
   -5.3940   22.6480  -31.1840 N   0  0  0  0  0  0  0  0  0  0  0  0
   -6.3990   23.3550  -30.5990 C   0  0  0  0  0  0  0  0  0  0  0  0
   -6.2130   24.5600  -29.7580 C   0  0  0  0  0  0  0  0  0  0  0  0
   -4.9800   24.7990  -29.0760 N   0  0  0  0  0  0  0  0  0  0  0  0
   -7.1450   25.4000  -29.6460 O   0  0  0  0  0  0  0  0  0  0  0  0
   -7.6300   22.7530  -30.8650 C   0  0  0  0  0  0  0  0  0  0  0  0
   -7.3390   21.6550  -31.6460 C   0  0  0  0  0  0  0  0  0  0  0  0
   -8.1840   20.7120  -32.2220 C   0  0  0  0  0  0  0  0  0  0  0  0
   -7.6050   19.7100  -33.0210 C   0  0  0  0  0  0  0  0  0  0  0  0
   -6.2030   19.6810  -33.2480 C   0  0  0  0  0  0  0  0  0  0  0  0
   -5.5850   18.5930  -34.0890 C   0  0  0  0  0  0  0  0  0  0  0  0
   -4.2200   18.7950  -34.1640 F   0  0  0  0  0  0  0  0  0  0  0  0
   -6.1160   18.6130  -35.3680 F   0  0  0  0  0  0  0  0  0  0  0  0
   -5.8270   17.3470  -33.5400 F   0  0  0  0  0  0  0  0  0  0  0  0
   -5.3780   20.6380  -32.6160 C   0  0  0  0  0  0  0  0  0  0  0  0
   -5.9830   21.6160  -31.8210 C   0  0  0  0  0  0  0  0  0  0  0  0
    0.0465   23.8332  -26.9787 H   0  0  0  0  0  0  0  0  0  0  0  0
    0.2361   22.4364  -28.0921 H   0  0  0  0  0  0  0  0  0  0  0  0
    1.4541   23.7567  -28.0921 H   0  0  0  0  0  0  0  0  0  0  0  0
   -2.2855   21.9927  -32.0319 H   0  0  0  0  0  0  0  0  0  0  0  0
   -3.4684   20.9065  -31.2222 H   0  0  0  0  0  0  0  0  0  0  0  0
   -4.8550   25.6710  -28.5140 H   0  0  0  0  0  0  0  0  0  0  0  0
   -4.2040   24.1020  -29.0870 H   0  0  0  0  0  0  0  0  0  0  0  0
   -8.6218   23.0845  -30.5238 H   0  0  0  0  0  0  0  0  0  0  0  0
   -9.2710   20.7489  -32.0577 H   0  0  0  0  0  0  0  0  0  0  0  0
   -8.2453   18.9396  -33.4755 H   0  0  0  0  0  0  0  0  0  0  0  0
   -4.2860   20.6142  -32.7463 H   0  0  0  0  0  0  0  0  0  0  0  0
  1  2  1  0
  2  3  1  0
  3  4  2  0
  3  5  1  0
  5  6  2  0
  5  7  1  0
  7  8  1  0
  8  9  1  0
  9 10  2  0
  9 11  1  0
 11 12  1  0
 12 13  1  0
 13 14  1  0
 13 15  2  0
 12 16  2  0
 16 17  1  0
 17 18  2  0
 18 19  1  0
 19 20  2  0
 20 21  1  0
 21 22  1  0
 21 23  1  0
 21 24  1  0
 20 25  1  0
 25 26  2  0
 26 11  1  0
 26 17  1  0
  1 27  1  0
  1 28  1  0
  1 29  1  0
  8 30  1  0
  8 31  1  0
 14 32  1  0
 14 33  1  0
 16 34  1  0
 18 35  1  0
 19 36  1  0
 25 37  1  0
M  END
>  <UniqueID>  (84) 
84

>  <SMILES>  (84) 
COC(=O)C(=O)OCC(=O)n1c(C(N)=O)cc2ccc(C(F)(F)F)cc21

>  <Energy>  (84) 
70.3914815481617

>  <Genealogy>  (84) 
COC(=O)C(=O)OCC(=O)n1c(C(N)=O)cc2ccc(C(F)(F)F)cc21 (3D coordinates assigned)
COC(=O)C(=O)OCC(=O)n1c(C(N)=O)cc2ccc(C(F)(F)F)cc21 (optimized conformer: 70.3914815481617 kcal/mol)

>  <smiles>  (84) 
COC(=O)C(=O)OCC(=O)n1c(C(N)=O)cc2ccc(C(F)(F)F)cc21

>  <score_type>  (84) 
oracle

>  <origin>  (84) 
adg

>  <m_score__min__energy>  (84) 
-7.8799999999999999

>  <m_primary>  (84) 
energy

$$$$
85:0
     RDKit          3D

 46 48  0  0  0  0  0  0  0  0999 V2000
   -3.8220   25.2410  -30.4770 N   0  0  0  0  0  0  0  0  0  0  0  0
   -5.2400   25.1620  -30.5940 C   0  0  0  0  0  0  0  0  0  0  0  0
   -5.9390   26.1660  -30.2930 O   0  0  0  0  0  0  0  0  0  0  0  0
   -5.9000   23.9120  -31.0280 C   0  0  0  0  0  0  0  0  0  0  0  0
   -7.2720   23.8000  -31.2510 C   0  0  0  0  0  0  0  0  0  0  0  0
   -7.4830   22.4740  -31.5610 C   0  0  0  0  0  0  0  0  0  0  0  0
   -8.6580   21.8040  -31.8870 C   0  0  0  0  0  0  0  0  0  0  0  0
   -8.5740   20.4340  -32.1870 C   0  0  0  0  0  0  0  0  0  0  0  0
   -7.3270   19.7550  -32.1410 C   0  0  0  0  0  0  0  0  0  0  0  0
   -7.2430   18.3000  -32.5230 C   0  0  0  0  0  0  0  0  0  0  0  0
   -8.4820   17.7100  -32.3470 F   0  0  0  0  0  0  0  0  0  0  0  0
   -6.3150   17.6420  -31.7350 F   0  0  0  0  0  0  0  0  0  0  0  0
   -6.8630   18.1610  -33.8470 F   0  0  0  0  0  0  0  0  0  0  0  0
   -6.1530   20.4780  -31.8270 C   0  0  0  0  0  0  0  0  0  0  0  0
   -6.2710   21.8380  -31.5240 C   0  0  0  0  0  0  0  0  0  0  0  0
   -5.2890   22.7080  -31.2070 N   0  0  0  0  0  0  0  0  0  0  0  0
   -3.8890   22.4010  -31.1270 C   0  0  0  0  0  0  0  0  0  0  0  0
   -3.1270   22.7530  -32.0670 O   0  0  0  0  0  0  0  0  0  0  0  0
   -3.3380   21.7210  -29.9340 C   0  0  0  0  0  0  0  0  0  0  0  0
   -3.7750   20.5740  -29.6340 O   0  0  0  0  0  0  0  0  0  0  0  0
   -2.2870   22.3260  -29.1400 N   0  0  1  0  0  0  0  0  0  0  0  0
   -2.4720   22.0070  -27.7100 C   0  0  0  0  0  0  0  0  0  0  0  0
   -1.4960   22.8160  -26.8310 C   0  0  0  0  0  0  0  0  0  0  0  0
   -0.1420   23.1000  -27.5270 C   0  0  2  0  0  0  0  0  0  0  0  0
   -0.1270   24.4430  -28.1220 N   0  0  0  0  0  0  0  0  0  0  0  0
   -1.3280   25.1610  -28.4260 C   0  0  0  0  0  0  0  0  0  0  0  0
   -2.4580   24.6450  -28.2150 O   0  0  0  0  0  0  0  0  0  0  0  0
   -1.2510   26.4430  -28.9530 O   0  0  0  0  0  0  0  0  0  0  0  0
    0.1680   22.0310  -28.5900 C   0  0  0  0  0  0  0  0  0  0  0  0
   -0.9620   21.8770  -29.6350 C   0  0  0  0  0  0  0  0  0  0  0  0
   -3.3740   25.6690  -29.6380 H   0  0  0  0  0  0  0  0  0  0  0  0
   -8.0251   24.5996  -31.1920 H   0  0  0  0  0  0  0  0  0  0  0  0
   -9.6234   22.3309  -31.9092 H   0  0  0  0  0  0  0  0  0  0  0  0
   -9.4844   19.8807  -32.4607 H   0  0  0  0  0  0  0  0  0  0  0  0
   -5.1709   19.9826  -31.8212 H   0  0  0  0  0  0  0  0  0  0  0  0
   -2.3450   23.3660  -29.2390 H   0  0  0  0  0  0  0  0  0  0  0  0
   -2.2900   20.9333  -27.5547 H   0  0  0  0  0  0  0  0  0  0  0  0
   -3.5010   22.2696  -27.4232 H   0  0  0  0  0  0  0  0  0  0  0  0
   -1.3030   22.2482  -25.9088 H   0  0  0  0  0  0  0  0  0  0  0  0
   -1.9688   23.7878  -26.6259 H   0  0  0  0  0  0  0  0  0  0  0  0
    0.6449   23.0569  -26.7596 H   0  0  0  0  0  0  0  0  0  0  0  0
    0.7800   24.9410  -28.2680 H   0  0  0  0  0  0  0  0  0  0  0  0
    0.3129   21.0648  -28.0845 H   0  0  0  0  0  0  0  0  0  0  0  0
    1.0731   22.3515  -29.1268 H   0  0  0  0  0  0  0  0  0  0  0  0
   -1.0357   20.8159  -29.9152 H   0  0  0  0  0  0  0  0  0  0  0  0
   -0.7016   22.5159  -30.4917 H   0  0  0  0  0  0  0  0  0  0  0  0
  1  2  1  0
  2  3  2  0
  2  4  1  0
  4  5  2  0
  5  6  1  0
  6  7  2  0
  7  8  1  0
  8  9  2  0
  9 10  1  0
 10 11  1  0
 10 12  1  0
 10 13  1  0
  9 14  1  0
 14 15  2  0
 15 16  1  0
 16 17  1  0
 17 18  2  0
 17 19  1  0
 19 20  2  0
 19 21  1  0
 21 22  1  0
 22 23  1  0
 23 24  1  0
 24 25  1  0
 25 26  1  0
 26 27  2  0
 26 28  1  0
 24 29  1  0
 29 30  1  0
 16  4  1  0
 30 21  1  0
 15  6  1  0
  1 31  1  0
  5 32  1  0
  7 33  1  0
  8 34  1  0
 14 35  1  0
 21 36  1  1
 22 37  1  0
 22 38  1  0
 23 39  1  0
 23 40  1  0
 24 41  1  1
 25 42  1  0
 29 43  1  0
 29 44  1  0
 30 45  1  0
 30 46  1  0
M  CHG  3   1  -1  21   1  28  -1
M  END
>  <UniqueID>  (85) 
85

>  <SMILES>  (85) 
[NH-]C(=O)c1cc2ccc(C(F)(F)F)cc2n1C(=O)C(=O)[NH+]1CCC(NC(=O)[O-])CC1

>  <Energy>  (85) 
94.48143729374222

>  <Genealogy>  (85) 
[NH-]C(=O)c1cc2ccc(C(F)(F)F)cc2n1C(=O)C(=O)[NH+]1CCC(NC(=O)[O-])CC1 (protonated)
[NH-]C(=O)c1cc2ccc(C(F)(F)F)cc2n1C(=O)C(=O)[NH+]1CCC(NC(=O)[O-])CC1 (3D coordinates assigned)
[NH-]C(=O)c1cc2ccc(C(F)(F)F)cc2n1C(=O)C(=O)[NH+]1CCC(NC(=O)[O-])CC1 (nonaromatic ring conformer: 94.48143729374222 kcal/mol)

>  <smiles>  (85) 
NC(=O)c1cc2ccc(C(F)(F)F)cc2n1C(=O)C(=O)N1CCC(NC(=O)O)CC1

>  <score_type>  (85) 
oracle

>  <origin>  (85) 
adg

>  <m_score__min__energy>  (85) 
-11.58

>  <m_primary>  (85) 
energy

$$$$
86:0
     RDKit          3D

 32 34  0  0  0  0  0  0  0  0999 V2000
   -8.8350   18.9730  -32.7170 C   0  0  0  0  0  0  0  0  0  0  0  0
   -7.4430   19.3480  -32.9320 N   0  0  0  0  0  0  0  0  0  0  0  0
   -6.6240   19.9050  -32.0210 C   0  0  0  0  0  0  0  0  0  0  0  0
   -5.3630   20.0310  -32.5880 C   0  0  0  0  0  0  0  0  0  0  0  0
   -4.1390   20.5890  -31.9600 C   0  0  0  0  0  0  0  0  0  0  0  0
   -2.9240   19.8520  -31.9710 C   0  0  0  0  0  0  0  0  0  0  0  0
   -1.7630   20.3650  -31.3700 C   0  0  0  0  0  0  0  0  0  0  0  0
   -1.8360   21.6190  -30.7740 C   0  0  0  0  0  0  0  0  0  0  0  0
   -0.8730   22.3350  -30.1010 C   0  0  0  0  0  0  0  0  0  0  0  0
   -1.4990   23.5150  -29.7060 C   0  0  0  0  0  0  0  0  0  0  0  0
   -0.7930   24.6190  -29.0240 C   0  0  0  0  0  0  0  0  0  0  0  0
   -1.3630   25.9230  -28.9580 N   0  0  0  0  0  0  0  0  0  0  0  0
    0.3510   24.4190  -28.5350 O   0  0  0  0  0  0  0  0  0  0  0  0
   -2.8010   23.5240  -30.1100 N   0  0  0  0  0  0  0  0  0  0  0  0
   -3.8030   24.5130  -29.8210 C   0  0  0  0  0  0  0  0  0  0  0  0
   -3.8640   25.5730  -30.4980 O   0  0  0  0  0  0  0  0  0  0  0  0
   -4.7300   24.2950  -28.8120 O   0  0  0  0  0  0  0  0  0  0  0  0
   -2.9900   22.3560  -30.7670 C   0  0  0  0  0  0  0  0  0  0  0  0
   -4.1670   21.8630  -31.3400 C   0  0  0  0  0  0  0  0  0  0  0  0
   -5.4940   19.5060  -33.8680 C   0  0  0  0  0  0  0  0  0  0  0  0
   -6.7630   19.0950  -34.0380 N   0  0  0  0  0  0  0  0  0  0  0  0
   -9.0375   18.9185  -31.6372 H   0  0  0  0  0  0  0  0  0  0  0  0
   -9.4927   19.7260  -33.1758 H   0  0  0  0  0  0  0  0  0  0  0  0
   -9.0254   17.9915  -33.1758 H   0  0  0  0  0  0  0  0  0  0  0  0
   -6.9054   20.2084  -31.0018 H   0  0  0  0  0  0  0  0  0  0  0  0
   -2.8925   18.8658  -32.4571 H   0  0  0  0  0  0  0  0  0  0  0  0
   -0.8241   19.7919  -31.3708 H   0  0  0  0  0  0  0  0  0  0  0  0
    0.1698   22.0386  -29.9145 H   0  0  0  0  0  0  0  0  0  0  0  0
   -2.3990   26.0570  -28.9560 H   0  0  0  0  0  0  0  0  0  0  0  0
   -5.0954   22.4522  -31.3100 H   0  0  0  0  0  0  0  0  0  0  0  0
   -4.6922   19.4379  -34.6180 H   0  0  0  0  0  0  0  0  0  0  0  0
   -7.1550   18.6380  -34.8920 H   0  0  0  0  0  0  0  0  0  0  0  0
  1  2  1  0
  2  3  1  0
  3  4  2  0
  4  5  1  0
  5  6  2  0
  6  7  1  0
  7  8  2  0
  8  9  1  0
  9 10  2  0
 10 11  1  0
 11 12  1  0
 11 13  2  0
 10 14  1  0
 14 15  1  0
 15 16  2  0
 15 17  1  0
 14 18  1  0
 18 19  2  0
  4 20  1  0
 20 21  2  0
 21  2  1  0
 19  5  1  0
 18  8  1  0
  1 22  1  0
  1 23  1  0
  1 24  1  0
  3 25  1  0
  6 26  1  0
  7 27  1  0
  9 28  1  0
 12 29  1  0
 19 30  1  0
 20 31  1  0
 21 32  1  0
M  CHG  3  12  -1  17  -1  21   1
M  END
>  <UniqueID>  (86) 
86

>  <SMILES>  (86) 
Cn1cc(-c2ccc3cc(C([NH-])=O)n(C(=O)[O-])c3c2)c[nH+]1

>  <Energy>  (86) 
106.04973892357508

>  <Genealogy>  (86) 
Cn1cc(-c2ccc3cc(C([NH-])=O)n(C(=O)[O-])c3c2)c[nH+]1 (protonated)
Cn1cc(-c2ccc3cc(C([NH-])=O)n(C(=O)[O-])c3c2)c[nH+]1 (3D coordinates assigned)
Cn1cc(-c2ccc3cc(C([NH-])=O)n(C(=O)[O-])c3c2)c[nH+]1 (optimized conformer: 106.04973892357508 kcal/mol)

>  <smiles>  (86) 
Cn1cc(-c2ccc3cc(C(N)=O)n(C(=O)O)c3c2)cn1

>  <score_type>  (86) 
oracle

>  <origin>  (86) 
adg

>  <m_score__min__energy>  (86) 
-11.06

>  <m_primary>  (86) 
energy

$$$$
87:0
     RDKit          3D

 32 33  0  0  0  0  0  0  0  0999 V2000
   -2.9140   21.7320  -28.8530 C   0  0  0  0  0  0  0  0  0  0  0  0
   -3.1990   23.1470  -29.3610 C   0  0  2  0  0  0  0  0  0  0  0  0
   -3.0000   23.2220  -30.7720 O   0  0  0  0  0  0  0  0  0  0  0  0
   -3.9290   22.7620  -31.7140 C   0  0  0  0  0  0  0  0  0  0  0  0
   -3.5410   22.1450  -32.7430 O   0  0  0  0  0  0  0  0  0  0  0  0
   -5.3330   22.9670  -31.4870 N   0  0  0  0  0  0  0  0  0  0  0  0
   -5.9310   24.0300  -30.8790 C   0  0  0  0  0  0  0  0  0  0  0  0
   -5.2690   25.2900  -30.4850 C   0  0  0  0  0  0  0  0  0  0  0  0
   -3.9850   25.6330  -30.9980 N   0  0  0  0  0  0  0  0  0  0  0  0
   -5.8660   26.0980  -29.7260 O   0  0  0  0  0  0  0  0  0  0  0  0
   -7.3000   23.8090  -30.7420 C   0  0  0  0  0  0  0  0  0  0  0  0
   -7.5270   22.5720  -31.2980 C   0  0  0  0  0  0  0  0  0  0  0  0
   -8.7120   21.8500  -31.4200 C   0  0  0  0  0  0  0  0  0  0  0  0
   -8.6480   20.5760  -32.0100 C   0  0  0  0  0  0  0  0  0  0  0  0
   -7.4120   20.0500  -32.4540 C   0  0  0  0  0  0  0  0  0  0  0  0
   -7.3590   18.7460  -33.0400 N   0  0  0  0  0  0  0  0  0  0  0  0
   -6.2300   20.8080  -32.3130 C   0  0  0  0  0  0  0  0  0  0  0  0
   -6.3250   22.0830  -31.7390 C   0  0  0  0  0  0  0  0  0  0  0  0
   -2.2890   24.1240  -28.6830 C   0  0  0  0  0  0  0  0  0  0  0  0
   -1.8780   23.9040  -27.5120 O   0  0  0  0  0  0  0  0  0  0  0  0
   -1.9290   25.3010  -29.3260 O   0  0  0  0  0  0  0  0  0  0  0  0
   -2.9137   21.7305  -27.7530 H   0  0  0  0  0  0  0  0  0  0  0  0
   -3.6922   21.0468  -29.2204 H   0  0  0  0  0  0  0  0  0  0  0  0
   -1.9313   21.4015  -29.2204 H   0  0  0  0  0  0  0  0  0  0  0  0
   -4.2463   23.3935  -29.1320 H   0  0  0  0  0  0  0  0  0  0  0  0
   -3.1130   25.2930  -30.5370 H   0  0  0  0  0  0  0  0  0  0  0  0
   -8.0416   24.4813  -30.2859 H   0  0  0  0  0  0  0  0  0  0  0  0
   -9.6676   22.2639  -31.0658 H   0  0  0  0  0  0  0  0  0  0  0  0
   -9.5668   19.9828  -32.1276 H   0  0  0  0  0  0  0  0  0  0  0  0
   -8.0050   18.4840  -33.8170 H   0  0  0  0  0  0  0  0  0  0  0  0
   -6.6730   18.0360  -32.7010 H   0  0  0  0  0  0  0  0  0  0  0  0
   -5.2601   20.4088  -32.6447 H   0  0  0  0  0  0  0  0  0  0  0  0
  1  2  1  0
  2  3  1  0
  3  4  1  0
  4  5  2  0
  4  6  1  0
  6  7  1  0
  7  8  1  0
  8  9  1  0
  8 10  2  0
  7 11  2  0
 11 12  1  0
 12 13  2  0
 13 14  1  0
 14 15  2  0
 15 16  1  0
 15 17  1  0
 17 18  2  0
  2 19  1  0
 19 20  2  0
 19 21  1  0
 18  6  1  0
 18 12  1  0
  1 22  1  0
  1 23  1  0
  1 24  1  0
  2 25  1  6
  9 26  1  0
 11 27  1  0
 13 28  1  0
 14 29  1  0
 16 30  1  0
 16 31  1  0
 17 32  1  0
M  CHG  2   9  -1  21  -1
M  END
>  <UniqueID>  (87) 
87

>  <SMILES>  (87) 
C[C@H](OC(=O)n1c(C([NH-])=O)cc2ccc(N)cc21)C(=O)[O-]

>  <Energy>  (87) 
66.33551441844328

>  <Genealogy>  (87) 
CC(OC(=O)n1c(C([NH-])=O)cc2ccc(N)cc21)C(=O)[O-] (protonated)
C[C@H](OC(=O)n1c(C([NH-])=O)cc2ccc(N)cc21)C(=O)[O-] (chirality)
C[C@H](OC(=O)n1c(C([NH-])=O)cc2ccc(N)cc21)C(=O)[O-] (3D coordinates assigned)
C[C@H](OC(=O)n1c(C([NH-])=O)cc2ccc(N)cc21)C(=O)[O-] (optimized conformer: 66.33551441844328 kcal/mol)

>  <smiles>  (87) 
CC(OC(=O)n1c(C(N)=O)cc2ccc(N)cc21)C(=O)O

>  <score_type>  (87) 
oracle

>  <origin>  (87) 
adg

>  <m_score__min__energy>  (87) 
-11.5

>  <m_primary>  (87) 
energy

$$$$
88:0
     RDKit          3D

 26 28  0  0  0  0  0  0  0  0999 V2000
   -1.5030   25.9440  -28.8380 N   0  0  0  0  0  0  0  0  0  0  0  0
   -0.8820   24.6700  -28.9870 C   0  0  0  0  0  0  0  0  0  0  0  0
    0.2000   24.4360  -28.3840 O   0  0  0  0  0  0  0  0  0  0  0  0
   -1.5180   23.6040  -29.7890 C   0  0  0  0  0  0  0  0  0  0  0  0
   -0.8420   22.4630  -30.2170 C   0  0  0  0  0  0  0  0  0  0  0  0
   -1.7930   21.6890  -30.8410 C   0  0  0  0  0  0  0  0  0  0  0  0
   -1.6690   20.4510  -31.4630 C   0  0  0  0  0  0  0  0  0  0  0  0
   -2.8150   19.8940  -32.0550 C   0  0  0  0  0  0  0  0  0  0  0  0
   -4.0560   20.5810  -32.0230 C   0  0  0  0  0  0  0  0  0  0  0  0
   -5.2520   19.9900  -32.6590 C   0  0  0  0  0  0  0  0  0  0  0  0
   -6.5130   20.1970  -32.2290 N   0  0  0  0  0  0  0  0  0  0  0  0
   -7.2330   19.4700  -33.1040 C   0  0  0  0  0  0  0  0  0  0  0  0
   -6.4570   18.8550  -34.0150 N   0  0  0  0  0  0  0  0  0  0  0  0
   -5.2080   19.1830  -33.7360 N   0  0  0  0  0  0  0  0  0  0  0  0
   -4.1390   21.8400  -31.3810 C   0  0  0  0  0  0  0  0  0  0  0  0
   -2.9850   22.3620  -30.7850 C   0  0  0  0  0  0  0  0  0  0  0  0
   -2.8330   23.5430  -30.1430 N   0  0  0  0  0  0  0  0  0  0  0  0
   -3.8360   24.5560  -29.9710 C   0  0  0  0  0  0  0  0  0  0  0  0
   -4.7070   24.4430  -29.0700 O   0  0  0  0  0  0  0  0  0  0  0  0
   -3.8710   25.6590  -30.8170 O   0  0  0  0  0  0  0  0  0  0  0  0
   -2.5350   26.0550  -28.9550 H   0  0  0  0  0  0  0  0  0  0  0  0
    0.2249   22.2306  -30.0842 H   0  0  0  0  0  0  0  0  0  0  0  0
   -0.7036   19.9244  -31.4905 H   0  0  0  0  0  0  0  0  0  0  0  0
   -2.7493   18.9135  -32.5492 H   0  0  0  0  0  0  0  0  0  0  0  0
   -8.3296   19.3882  -33.0772 H   0  0  0  0  0  0  0  0  0  0  0  0
   -5.0882   22.3951  -31.3512 H   0  0  0  0  0  0  0  0  0  0  0  0
  1  2  1  0
  2  3  2  0
  2  4  1  0
  4  5  2  0
  5  6  1  0
  6  7  2  0
  7  8  1  0
  8  9  2  0
  9 10  1  0
 10 11  2  0
 11 12  1  0
 12 13  2  0
 13 14  1  0
  9 15  1  0
 15 16  2  0
 16 17  1  0
 17 18  1  0
 18 19  2  0
 18 20  1  0
 17  4  1  0
 16  6  1  0
 14 10  1  0
  1 21  1  0
  5 22  1  0
  7 23  1  0
  8 24  1  0
 12 25  1  0
 15 26  1  0
M  CHG  3   1  -1  14  -1  20  -1
M  END
>  <UniqueID>  (88) 
88

>  <SMILES>  (88) 
[NH-]C(=O)c1cc2ccc(-c3ncn[n-]3)cc2n1C(=O)[O-]

>  <Energy>  (88) 
101.02959972210074

>  <Genealogy>  (88) 
[NH-]C(=O)c1cc2ccc(-c3ncn[n-]3)cc2n1C(=O)[O-] (protonated)
[NH-]C(=O)c1cc2ccc(-c3ncn[n-]3)cc2n1C(=O)[O-] (3D coordinates assigned)
[NH-]C(=O)c1cc2ccc(-c3ncn[n-]3)cc2n1C(=O)[O-] (optimized conformer: 101.02959972210074 kcal/mol)

>  <smiles>  (88) 
NC(=O)c1cc2ccc(-c3ncn[nH]3)cc2n1C(=O)O

>  <score_type>  (88) 
oracle

>  <origin>  (88) 
adg

>  <m_score__min__energy>  (88) 
-10.18

>  <m_primary>  (88) 
energy

$$$$
89:0
     RDKit          3D

 40 41  0  0  0  0  0  0  0  0999 V2000
   -1.1560   22.9310  -27.3300 C   0  0  0  0  0  0  0  0  0  0  0  0
   -1.9580   23.9690  -28.1410 C   0  0  0  0  0  0  0  0  0  0  0  0
   -3.3790   24.0270  -27.5510 C   0  0  0  0  0  0  0  0  0  0  0  0
   -1.3140   25.3710  -28.0350 C   0  0  0  0  0  0  0  0  0  0  0  0
   -1.2270   25.9680  -29.3010 O   0  0  0  0  0  0  0  0  0  0  0  0
   -2.0970   23.5400  -29.5420 N   0  0  0  0  0  0  0  0  0  0  0  0
   -2.7770   22.4250  -30.1490 C   0  0  0  0  0  0  0  0  0  0  0  0
   -2.6510   21.2970  -29.6040 O   0  0  0  0  0  0  0  0  0  0  0  0
   -3.5850   22.5110  -31.3850 C   0  0  0  0  0  0  0  0  0  0  0  0
   -3.0490   22.3810  -32.5150 O   0  0  0  0  0  0  0  0  0  0  0  0
   -5.0100   22.6810  -31.3050 N   0  0  0  0  0  0  0  0  0  0  0  0
   -5.6980   23.7450  -30.8030 C   0  0  0  0  0  0  0  0  0  0  0  0
   -5.1130   25.0290  -30.3570 C   0  0  0  0  0  0  0  0  0  0  0  0
   -3.8810   25.5050  -30.8950 N   0  0  0  0  0  0  0  0  0  0  0  0
   -5.7260   25.7310  -29.5080 O   0  0  0  0  0  0  0  0  0  0  0  0
   -7.0700   23.4960  -30.8370 C   0  0  0  0  0  0  0  0  0  0  0  0
   -7.2010   22.2410  -31.3840 C   0  0  0  0  0  0  0  0  0  0  0  0
   -8.3430   21.4900  -31.6450 C   0  0  0  0  0  0  0  0  0  0  0  0
   -8.1780   20.2080  -32.1970 C   0  0  0  0  0  0  0  0  0  0  0  0
   -6.8840   19.7030  -32.4820 C   0  0  0  0  0  0  0  0  0  0  0  0
   -6.7330   18.3060  -33.0140 C   0  0  0  0  0  0  0  0  0  0  0  0
   -6.4830   18.3570  -34.3710 F   0  0  0  0  0  0  0  0  0  0  0  0
   -7.8770   17.5600  -32.7920 F   0  0  0  0  0  0  0  0  0  0  0  0
   -5.7470   20.4890  -32.1860 C   0  0  0  0  0  0  0  0  0  0  0  0
   -5.9440   21.7700  -31.6560 C   0  0  0  0  0  0  0  0  0  0  0  0
   -1.2988   23.1158  -26.2551 H   0  0  0  0  0  0  0  0  0  0  0  0
   -1.5093   21.9193  -27.5782 H   0  0  0  0  0  0  0  0  0  0  0  0
   -0.0879   23.0176  -27.5782 H   0  0  0  0  0  0  0  0  0  0  0  0
   -3.3203   24.0246  -26.4526 H   0  0  0  0  0  0  0  0  0  0  0  0
   -3.8793   24.9463  -27.8895 H   0  0  0  0  0  0  0  0  0  0  0  0
   -3.9526   23.1515  -27.8895 H   0  0  0  0  0  0  0  0  0  0  0  0
   -1.9292   26.0033  -27.3780 H   0  0  0  0  0  0  0  0  0  0  0  0
   -0.3006   25.2668  -27.6202 H   0  0  0  0  0  0  0  0  0  0  0  0
   -2.0310   25.6750  -29.8020 H   0  0  0  0  0  0  0  0  0  0  0  0
   -2.9690   25.2880  -30.4320 H   0  0  0  0  0  0  0  0  0  0  0  0
   -7.8767   24.1625  -30.4980 H   0  0  0  0  0  0  0  0  0  0  0  0
   -9.3449   21.8878  -31.4259 H   0  0  0  0  0  0  0  0  0  0  0  0
   -9.0624   19.5896  -32.4103 H   0  0  0  0  0  0  0  0  0  0  0  0
   -5.8948   17.8257  -32.4880 H   0  0  0  0  0  0  0  0  0  0  0  0
   -4.7327   20.1039  -32.3675 H   0  0  0  0  0  0  0  0  0  0  0  0
  1  2  1  0
  2  3  1  0
  2  4  1  0
  4  5  1  0
  2  6  1  0
  6  7  1  0
  7  8  2  0
  7  9  1  0
  9 10  2  0
  9 11  1  0
 11 12  1  0
 12 13  1  0
 13 14  1  0
 13 15  2  0
 12 16  2  0
 16 17  1  0
 17 18  2  0
 18 19  1  0
 19 20  2  0
 20 21  1  0
 21 22  1  0
 21 23  1  0
 20 24  1  0
 24 25  2  0
 25 11  1  0
 25 17  1  0
  1 26  1  0
  1 27  1  0
  1 28  1  0
  3 29  1  0
  3 30  1  0
  3 31  1  0
  4 32  1  0
  4 33  1  0
  5 34  1  0
 14 35  1  0
 16 36  1  0
 18 37  1  0
 19 38  1  0
 21 39  1  0
 24 40  1  0
M  CHG  2   6  -1  14  -1
M  END
>  <UniqueID>  (89) 
89

>  <SMILES>  (89) 
CC(C)(CO)[N-]C(=O)C(=O)n1c(C([NH-])=O)cc2ccc(C(F)F)cc21

>  <Energy>  (89) 
82.76687167291837

>  <Genealogy>  (89) 
CC(C)(CO)[N-]C(=O)C(=O)n1c(C([NH-])=O)cc2ccc(C(F)F)cc21 (protonated)
CC(C)(CO)[N-]C(=O)C(=O)n1c(C([NH-])=O)cc2ccc(C(F)F)cc21 (3D coordinates assigned)
CC(C)(CO)[N-]C(=O)C(=O)n1c(C([NH-])=O)cc2ccc(C(F)F)cc21 (optimized conformer: 82.76687167291837 kcal/mol)

>  <smiles>  (89) 
CC(C)(CO)NC(=O)C(=O)n1c(C(N)=O)cc2ccc(C(F)F)cc21

>  <score_type>  (89) 
oracle

>  <origin>  (89) 
adg

>  <m_score__min__energy>  (89) 
-11.539999999999999

>  <m_primary>  (89) 
energy

$$$$
90:0
     RDKit          3D

 45 46  0  0  0  0  0  0  0  0999 V2000
   -3.4280   19.0230  -33.8410 C   0  0  0  0  0  0  0  0  0  0  0  0
   -4.4150   18.1790  -34.1590 C   0  0  0  0  0  0  0  0  0  0  0  0
   -5.7750   18.6690  -34.5800 C   0  0  0  0  0  0  0  0  0  0  0  0
   -6.8140   18.5250  -33.4580 C   0  0  0  0  0  0  0  0  0  0  0  0
   -7.0530   19.8250  -32.7330 C   0  0  0  0  0  0  0  0  0  0  0  0
   -8.3660   20.2030  -32.3570 C   0  0  0  0  0  0  0  0  0  0  0  0
   -8.5990   21.4200  -31.6970 C   0  0  0  0  0  0  0  0  0  0  0  0
   -7.5060   22.2430  -31.4400 C   0  0  0  0  0  0  0  0  0  0  0  0
   -7.4440   23.4580  -30.7970 C   0  0  0  0  0  0  0  0  0  0  0  0
   -6.1010   23.8200  -30.8240 C   0  0  0  0  0  0  0  0  0  0  0  0
   -5.5920   25.1010  -30.2920 C   0  0  0  0  0  0  0  0  0  0  0  0
   -6.1460   25.6840  -29.1110 N   0  0  0  0  0  0  0  0  0  0  0  0
   -4.6170   25.6620  -30.8570 O   0  0  0  0  0  0  0  0  0  0  0  0
   -5.3560   22.8630  -31.4460 N   0  0  0  0  0  0  0  0  0  0  0  0
   -3.9290   22.8180  -31.5890 C   0  0  0  0  0  0  0  0  0  0  0  0
   -3.4110   22.0630  -32.4560 O   0  0  0  0  0  0  0  0  0  0  0  0
   -3.1280   23.6200  -30.7620 O   0  0  0  0  0  0  0  0  0  0  0  0
   -2.5860   23.2520  -29.4850 C   0  0  0  0  0  0  0  0  0  0  0  0
   -1.5230   22.1490  -29.6460 C   0  0  0  0  0  0  0  0  0  0  0  0
   -1.9180   24.5060  -28.9010 C   0  0  0  0  0  0  0  0  0  0  0  0
   -3.7070   22.7950  -28.5330 C   0  0  0  0  0  0  0  0  0  0  0  0
   -6.2320   21.9040  -31.8200 C   0  0  0  0  0  0  0  0  0  0  0  0
   -5.9680   20.6850  -32.4560 C   0  0  0  0  0  0  0  0  0  0  0  0
   -2.4459   18.6314  -33.5374 H   0  0  0  0  0  0  0  0  0  0  0  0
   -3.5980   20.1090  -33.8830 H   0  0  0  0  0  0  0  0  0  0  0  0
   -4.2281   17.0960  -34.1117 H   0  0  0  0  0  0  0  0  0  0  0  0
   -5.6989   19.7303  -34.8589 H   0  0  0  0  0  0  0  0  0  0  0  0
   -6.1077   18.0557  -35.4304 H   0  0  0  0  0  0  0  0  0  0  0  0
   -7.7636   18.1840  -33.8962 H   0  0  0  0  0  0  0  0  0  0  0  0
   -6.4256   17.7983  -32.7292 H   0  0  0  0  0  0  0  0  0  0  0  0
   -9.2109   19.5363  -32.5845 H   0  0  0  0  0  0  0  0  0  0  0  0
   -9.6142   21.7143  -31.3923 H   0  0  0  0  0  0  0  0  0  0  0  0
   -8.2785   24.0227  -30.3557 H   0  0  0  0  0  0  0  0  0  0  0  0
   -5.8030   26.6100  -28.7740 H   0  0  0  0  0  0  0  0  0  0  0  0
   -6.8300   25.1620  -28.5200 H   0  0  0  0  0  0  0  0  0  0  0  0
   -1.1947   21.8084  -28.6529 H   0  0  0  0  0  0  0  0  0  0  0  0
   -1.9543   21.3022  -30.2000 H   0  0  0  0  0  0  0  0  0  0  0  0
   -0.6609   22.5487  -30.2000 H   0  0  0  0  0  0  0  0  0  0  0  0
   -1.9439   24.4573  -27.8024 H   0  0  0  0  0  0  0  0  0  0  0  0
   -0.8732   24.5570  -29.2412 H   0  0  0  0  0  0  0  0  0  0  0  0
   -2.4586   25.4016  -29.2412 H   0  0  0  0  0  0  0  0  0  0  0  0
   -3.3802   22.9282  -27.4911 H   0  0  0  0  0  0  0  0  0  0  0  0
   -4.6098   23.3969  -28.7139 H   0  0  0  0  0  0  0  0  0  0  0  0
   -3.9317   21.7335  -28.7139 H   0  0  0  0  0  0  0  0  0  0  0  0
   -4.9411   20.4043  -32.7329 H   0  0  0  0  0  0  0  0  0  0  0  0
  1  2  2  0
  2  3  1  0
  3  4  1  0
  4  5  1  0
  5  6  2  0
  6  7  1  0
  7  8  2  0
  8  9  1  0
  9 10  2  0
 10 11  1  0
 11 12  1  0
 11 13  2  0
 10 14  1  0
 14 15  1  0
 15 16  2  0
 15 17  1  0
 17 18  1  0
 18 19  1  0
 18 20  1  0
 18 21  1  0
 14 22  1  0
 22 23  2  0
 23  5  1  0
 22  8  1  0
  1 24  1  0
  1 25  1  0
  2 26  1  0
  3 27  1  0
  3 28  1  0
  4 29  1  0
  4 30  1  0
  6 31  1  0
  7 32  1  0
  9 33  1  0
 12 34  1  0
 12 35  1  0
 19 36  1  0
 19 37  1  0
 19 38  1  0
 20 39  1  0
 20 40  1  0
 20 41  1  0
 21 42  1  0
 21 43  1  0
 21 44  1  0
 23 45  1  0
M  END
>  <UniqueID>  (90) 
90

>  <SMILES>  (90) 
C=CCCc1ccc2cc(C(N)=O)n(C(=O)OC(C)(C)C)c2c1

>  <Energy>  (90) 
73.54670352224373

>  <Genealogy>  (90) 
C=CCCc1ccc2cc(C(N)=O)n(C(=O)OC(C)(C)C)c2c1 (3D coordinates assigned)
C=CCCc1ccc2cc(C(N)=O)n(C(=O)OC(C)(C)C)c2c1 (optimized conformer: 73.54670352224373 kcal/mol)

>  <smiles>  (90) 
C=CCCc1ccc2cc(C(N)=O)n(C(=O)OC(C)(C)C)c2c1

>  <score_type>  (90) 
oracle

>  <origin>  (90) 
adg

>  <m_score__min__energy>  (90) 
-9.1099999999999994

>  <m_primary>  (90) 
energy

$$$$
91:0
     RDKit          3D

 48 49  0  0  0  0  0  0  0  0999 V2000
   -3.3670   18.5710  -26.0020 C   0  0  0  0  0  0  0  0  0  0  0  0
   -2.7660   19.4190  -27.1170 C   0  0  0  0  0  0  0  0  0  0  0  0
   -1.6790   20.2000  -26.6260 O   0  0  0  0  0  0  0  0  0  0  0  0
   -1.5820   21.5850  -26.8070 C   0  0  0  0  0  0  0  0  0  0  0  0
   -0.7540   22.2620  -26.1400 O   0  0  0  0  0  0  0  0  0  0  0  0
   -2.4480   22.2460  -27.7970 C   0  0  0  0  0  0  0  0  0  0  0  0
   -3.5980   22.6250  -27.4460 O   0  0  0  0  0  0  0  0  0  0  0  0
   -1.9910   22.4150  -29.2290 C   0  0  2  0  0  0  0  0  0  0  0  0
   -0.5990   23.0680  -29.3410 C   0  0  0  0  0  0  0  0  0  0  0  0
   -0.6270   24.4850  -28.8560 C   0  0  0  0  0  0  0  0  0  0  0  0
   -1.5120   25.2760  -29.2840 O   0  0  0  0  0  0  0  0  0  0  0  0
    0.3540   24.9270  -27.9650 O   0  0  0  0  0  0  0  0  0  0  0  0
    1.3700   24.0720  -27.4580 C   0  0  0  0  0  0  0  0  0  0  0  0
   -2.9950   23.1620  -29.9890 N   0  0  0  0  0  0  0  0  0  0  0  0
   -3.7000   22.6810  -31.1400 C   0  0  0  0  0  0  0  0  0  0  0  0
   -3.0810   22.1010  -32.0730 O   0  0  0  0  0  0  0  0  0  0  0  0
   -5.1160   22.8870  -31.2430 N   0  0  0  0  0  0  0  0  0  0  0  0
   -5.8270   23.9980  -30.9030 C   0  0  0  0  0  0  0  0  0  0  0  0
   -5.2570   25.2880  -30.4590 C   0  0  0  0  0  0  0  0  0  0  0  0
   -3.9350   25.6520  -30.8480 N   0  0  0  0  0  0  0  0  0  0  0  0
   -5.9160   26.0620  -29.7160 O   0  0  0  0  0  0  0  0  0  0  0  0
   -7.1900   23.7820  -31.1030 C   0  0  0  0  0  0  0  0  0  0  0  0
   -7.2900   22.4950  -31.5790 C   0  0  0  0  0  0  0  0  0  0  0  0
   -8.4130   21.7570  -31.9420 C   0  0  0  0  0  0  0  0  0  0  0  0
   -8.2210   20.4360  -32.3780 C   0  0  0  0  0  0  0  0  0  0  0  0
   -6.9210   19.8670  -32.4210 C   0  0  0  0  0  0  0  0  0  0  0  0
   -6.7210   18.4590  -32.9240 C   0  0  0  0  0  0  0  0  0  0  0  0
   -6.3470   18.5000  -34.2530 F   0  0  0  0  0  0  0  0  0  0  0  0
   -7.8910   17.7290  -32.8060 F   0  0  0  0  0  0  0  0  0  0  0  0
   -5.7350   17.8160  -32.1960 F   0  0  0  0  0  0  0  0  0  0  0  0
   -5.8030   20.6580  -32.0690 C   0  0  0  0  0  0  0  0  0  0  0  0
   -6.0250   21.9770  -31.6540 C   0  0  0  0  0  0  0  0  0  0  0  0
   -3.0729   18.9859  -25.0266 H   0  0  0  0  0  0  0  0  0  0  0  0
   -4.4637   18.5769  -26.0874 H   0  0  0  0  0  0  0  0  0  0  0  0
   -2.9981   17.5382  -26.0874 H   0  0  0  0  0  0  0  0  0  0  0  0
   -2.4029   18.7579  -27.9177 H   0  0  0  0  0  0  0  0  0  0  0  0
   -3.5418   20.0962  -27.5036 H   0  0  0  0  0  0  0  0  0  0  0  0
   -1.8871   21.4096  -29.6631 H   0  0  0  0  0  0  0  0  0  0  0  0
    0.1167   22.4945  -28.7336 H   0  0  0  0  0  0  0  0  0  0  0  0
   -0.2968   23.0668  -30.3987 H   0  0  0  0  0  0  0  0  0  0  0  0
    1.3490   24.0896  -26.3583 H   0  0  0  0  0  0  0  0  0  0  0  0
    1.1953   23.0452  -27.8116 H   0  0  0  0  0  0  0  0  0  0  0  0
    2.3519   24.4195  -27.8116 H   0  0  0  0  0  0  0  0  0  0  0  0
   -3.1040   25.2720  -30.3420 H   0  0  0  0  0  0  0  0  0  0  0  0
   -8.0112   24.4904  -30.9192 H   0  0  0  0  0  0  0  0  0  0  0  0
   -9.4205   22.1953  -31.8889 H   0  0  0  0  0  0  0  0  0  0  0  0
   -9.0880   19.8351  -32.6898 H   0  0  0  0  0  0  0  0  0  0  0  0
   -4.7838   20.2473  -32.1199 H   0  0  0  0  0  0  0  0  0  0  0  0
  1  2  1  0
  2  3  1  0
  3  4  1  0
  4  5  2  0
  4  6  1  0
  6  7  2  0
  6  8  1  0
  8  9  1  0
  9 10  1  0
 10 11  2  0
 10 12  1  0
 12 13  1  0
  8 14  1  0
 14 15  1  0
 15 16  2  0
 15 17  1  0
 17 18  1  0
 18 19  1  0
 19 20  1  0
 19 21  2  0
 18 22  2  0
 22 23  1  0
 23 24  2  0
 24 25  1  0
 25 26  2  0
 26 27  1  0
 27 28  1  0
 27 29  1  0
 27 30  1  0
 26 31  1  0
 31 32  2  0
 32 17  1  0
 32 23  1  0
  1 33  1  0
  1 34  1  0
  1 35  1  0
  2 36  1  0
  2 37  1  0
  8 38  1  6
  9 39  1  0
  9 40  1  0
 13 41  1  0
 13 42  1  0
 13 43  1  0
 20 44  1  0
 22 45  1  0
 24 46  1  0
 25 47  1  0
 31 48  1  0
M  CHG  2  14  -1  20  -1
M  END
>  <UniqueID>  (91) 
91

>  <SMILES>  (91) 
CCOC(=O)C(=O)[C@H](CC(=O)OC)[N-]C(=O)n1c(C([NH-])=O)cc2ccc(C(F)(F)F)cc21

>  <Energy>  (91) 
76.1626934347359

>  <Genealogy>  (91) 
CCOC(=O)C(=O)C(CC(=O)OC)[N-]C(=O)n1c(C([NH-])=O)cc2ccc(C(F)(F)F)cc21 (protonated)
CCOC(=O)C(=O)[C@H](CC(=O)OC)[N-]C(=O)n1c(C([NH-])=O)cc2ccc(C(F)(F)F)cc21 (chirality)
CCOC(=O)C(=O)[C@H](CC(=O)OC)[N-]C(=O)n1c(C([NH-])=O)cc2ccc(C(F)(F)F)cc21 (3D coordinates assigned)
CCOC(=O)C(=O)[C@H](CC(=O)OC)[N-]C(=O)n1c(C([NH-])=O)cc2ccc(C(F)(F)F)cc21 (optimized conformer: 76.1626934347359 kcal/mol)

>  <smiles>  (91) 
CCOC(=O)C(=O)C(CC(=O)OC)NC(=O)n1c(C(N)=O)cc2ccc(C(F)(F)F)cc21

>  <score_type>  (91) 
oracle

>  <origin>  (91) 
adg

>  <m_score__min__energy>  (91) 
-11.42

>  <m_primary>  (91) 
energy

$$$$
92:0
     RDKit          3D

 45 48  0  0  0  0  0  0  0  0999 V2000
   -5.1790   24.8640  -28.8870 N   0  0  0  0  0  0  0  0  0  0  0  0
   -5.1450   24.4490  -30.2540 C   0  0  0  0  0  0  0  0  0  0  0  0
   -4.3270   24.9960  -31.0420 O   0  0  0  0  0  0  0  0  0  0  0  0
   -6.0120   23.3620  -30.7510 C   0  0  0  0  0  0  0  0  0  0  0  0
   -7.4040   23.3910  -30.6810 C   0  0  0  0  0  0  0  0  0  0  0  0
   -7.8210   22.2090  -31.2520 C   0  0  0  0  0  0  0  0  0  0  0  0
   -9.1030   21.6940  -31.4120 C   0  0  0  0  0  0  0  0  0  0  0  0
   -9.2330   20.4150  -31.9790 C   0  0  0  0  0  0  0  0  0  0  0  0
   -8.0900   19.6740  -32.3720 C   0  0  0  0  0  0  0  0  0  0  0  0
   -8.2710   18.3470  -32.9010 N   0  0  0  0  0  0  0  0  0  0  0  0
   -7.2360   17.3080  -33.0620 C   0  0  0  0  0  0  0  0  0  0  0  0
   -6.0660   17.6450  -33.9730 C   0  0  0  0  0  0  0  0  0  0  0  0
   -5.0990   17.5870  -32.8740 N   0  0  0  0  0  0  0  0  0  0  0  0
   -6.2010   17.2880  -31.9550 C   0  0  0  0  0  0  0  0  0  0  0  0
   -6.8040   20.2220  -32.1660 C   0  0  0  0  0  0  0  0  0  0  0  0
   -6.7050   21.5100  -31.6310 C   0  0  0  0  0  0  0  0  0  0  0  0
   -5.5880   22.2090  -31.3380 N   0  0  0  0  0  0  0  0  0  0  0  0
   -4.2350   21.7520  -31.4900 C   0  0  0  0  0  0  0  0  0  0  0  0
   -3.4090   21.9310  -30.5550 O   0  0  0  0  0  0  0  0  0  0  0  0
   -3.8040   21.0970  -32.7360 C   0  0  0  0  0  0  0  0  0  0  0  0
   -4.6570   20.5370  -33.4760 O   0  0  0  0  0  0  0  0  0  0  0  0
   -2.4300   21.0860  -33.1220 N   0  0  0  0  0  0  0  0  0  0  0  0
   -1.1340   21.5640  -32.6050 C   0  0  0  0  0  0  0  0  0  0  0  0
   -0.3070   21.0080  -33.7190 C   0  0  0  0  0  0  0  0  0  0  0  0
    0.2410   22.0090  -34.5340 O   0  0  0  0  0  0  0  0  0  0  0  0
   -1.6280   20.5320  -34.2280 C   0  0  0  0  0  0  0  0  0  0  0  0
   -5.6910   24.3090  -28.1650 H   0  0  0  0  0  0  0  0  0  0  0  0
   -4.6010   25.6740  -28.5720 H   0  0  0  0  0  0  0  0  0  0  0  0
   -8.0347   24.1877  -30.2597 H   0  0  0  0  0  0  0  0  0  0  0  0
   -9.9879   22.2703  -31.1041 H   0  0  0  0  0  0  0  0  0  0  0  0
  -10.2348   19.9830  -32.1198 H   0  0  0  0  0  0  0  0  0  0  0  0
   -9.1380   18.1880  -33.4620 H   0  0  0  0  0  0  0  0  0  0  0  0
   -7.9208   16.4756  -33.2813 H   0  0  0  0  0  0  0  0  0  0  0  0
   -5.8875   16.8907  -34.7535 H   0  0  0  0  0  0  0  0  0  0  0  0
   -6.1169   18.5555  -34.5881 H   0  0  0  0  0  0  0  0  0  0  0  0
   -4.7450   18.5520  -32.6790 H   0  0  0  0  0  0  0  0  0  0  0  0
   -6.1062   16.3088  -31.4629 H   0  0  0  0  0  0  0  0  0  0  0  0
   -6.3503   17.9360  -31.0788 H   0  0  0  0  0  0  0  0  0  0  0  0
   -5.9009   19.6481  -32.4209 H   0  0  0  0  0  0  0  0  0  0  0  0
   -1.0800   22.6609  -32.5421 H   0  0  0  0  0  0  0  0  0  0  0  0
   -0.8617   21.2673  -31.5814 H   0  0  0  0  0  0  0  0  0  0  0  0
    0.5722   20.3638  -33.5706 H   0  0  0  0  0  0  0  0  0  0  0  0
   -0.4920   22.2910  -35.1410 H   0  0  0  0  0  0  0  0  0  0  0  0
   -1.8900   20.9690  -35.2029 H   0  0  0  0  0  0  0  0  0  0  0  0
   -1.7289   19.4554  -34.4299 H   0  0  0  0  0  0  0  0  0  0  0  0
  1  2  1  0
  2  3  2  0
  2  4  1  0
  4  5  2  0
  5  6  1  0
  6  7  2  0
  7  8  1  0
  8  9  2  0
  9 10  1  0
 10 11  1  0
 11 12  1  0
 12 13  1  0
 13 14  1  0
  9 15  1  0
 15 16  2  0
 16 17  1  0
 17 18  1  0
 18 19  2  0
 18 20  1  0
 20 21  2  0
 20 22  1  0
 22 23  1  0
 23 24  1  0
 24 25  1  0
 24 26  1  0
 17  4  1  0
 26 22  1  0
 16  6  1  0
 14 11  1  0
  1 27  1  0
  1 28  1  0
  5 29  1  0
  7 30  1  0
  8 31  1  0
 10 32  1  0
 11 33  1  0
 12 34  1  0
 12 35  1  0
 13 36  1  0
 14 37  1  0
 14 38  1  0
 15 39  1  0
 23 40  1  0
 23 41  1  0
 24 42  1  0
 25 43  1  0
 26 44  1  0
 26 45  1  0
M  END
>  <UniqueID>  (92) 
92

>  <SMILES>  (92) 
NC(=O)c1cc2ccc(NC3CNC3)cc2n1C(=O)C(=O)N1CC(O)C1

>  <Energy>  (92) 
204.43663328406615

>  <Genealogy>  (92) 
NC(=O)c1cc2ccc(NC3CNC3)cc2n1C(=O)C(=O)N1CC(O)C1 (3D coordinates assigned)
NC(=O)c1cc2ccc(NC3CNC3)cc2n1C(=O)C(=O)N1CC(O)C1 (nonaromatic ring conformer: 204.43663328406615 kcal/mol)

>  <smiles>  (92) 
NC(=O)c1cc2ccc(NC3CNC3)cc2n1C(=O)C(=O)N1CC(O)C1

>  <score_type>  (92) 
oracle

>  <origin>  (92) 
adg

>  <m_score__min__energy>  (92) 
-9.8599999999999994

>  <m_primary>  (92) 
energy

$$$$
