0:0
     RDKit          3D

 52 56  0  0  0  0  0  0  0  0999 V2000
   -2.1290   21.1470  -32.2670 C   0  0  0  0  0  0  0  0  0  0  0  0
   -3.6150   21.8930  -33.0020 S   0  0  0  0  0  0  0  0  0  0  0  0
   -4.2270   22.5040  -31.4290 C   0  0  0  0  0  0  0  0  0  0  0  0
   -3.4400   22.5780  -30.4490 O   0  0  0  0  0  0  0  0  0  0  0  0
   -5.5980   22.9020  -31.2850 N   0  0  0  0  0  0  0  0  0  0  0  0
   -6.0780   24.1140  -30.8820 C   0  0  0  0  0  0  0  0  0  0  0  0
   -5.2700   25.2610  -30.4140 C   0  0  0  0  0  0  0  0  0  0  0  0
   -3.8680   25.3240  -30.6590 N   0  0  0  0  0  0  0  0  0  0  0  0
   -5.8210   26.1850  -29.7580 O   0  0  0  0  0  0  0  0  0  0  0  0
   -7.4720   24.1160  -30.9030 C   0  0  0  0  0  0  0  0  0  0  0  0
   -7.8340   22.8590  -31.3300 C   0  0  0  0  0  0  0  0  0  0  0  0
   -9.0970   22.3140  -31.5400 C   0  0  0  0  0  0  0  0  0  0  0  0
   -9.1730   20.9910  -32.0050 C   0  0  0  0  0  0  0  0  0  0  0  0
   -7.9940   20.2380  -32.2540 C   0  0  0  0  0  0  0  0  0  0  0  0
   -8.0830   18.8800  -32.7450 N   0  0  0  0  0  0  0  0  0  0  0  0
   -6.7790   18.2800  -33.1430 C   0  0  1  0  0  0  0  0  0  0  0  0
   -7.0540   16.8850  -33.7820 C   0  0  0  0  0  0  0  0  0  0  0  0
   -5.7350   16.2120  -34.2160 C   0  0  2  0  0  0  0  0  0  0  0  0
   -4.8270   16.0230  -32.9820 C   0  0  0  0  0  0  0  0  0  0  0  0
   -4.5220   17.3990  -32.3540 C   0  0  1  0  0  0  0  0  0  0  0  0
   -3.8080   18.2920  -33.3920 C   0  0  0  0  0  0  0  0  0  0  0  0
   -4.7160   18.4790  -34.6260 C   0  0  1  0  0  0  0  0  0  0  0  0
   -5.0220   17.1020  -35.2540 C   0  0  0  0  0  0  0  0  0  0  0  0
   -6.0350   19.1590  -34.1960 C   0  0  0  0  0  0  0  0  0  0  0  0
   -5.8410   18.0730  -31.9140 C   0  0  0  0  0  0  0  0  0  0  0  0
   -6.7300   20.8420  -32.0530 C   0  0  0  0  0  0  0  0  0  0  0  0
   -6.6850   22.1490  -31.5590 C   0  0  0  0  0  0  0  0  0  0  0  0
   -2.2040   21.1847  -31.1702 H   0  0  0  0  0  0  0  0  0  0  0  0
   -2.0449   20.0998  -32.5930 H   0  0  0  0  0  0  0  0  0  0  0  0
   -1.2390   21.7052  -32.5930 H   0  0  0  0  0  0  0  0  0  0  0  0
   -3.4650   26.0480  -31.2940 H   0  0  0  0  0  0  0  0  0  0  0  0
   -8.1411   24.9469  -30.6349 H   0  0  0  0  0  0  0  0  0  0  0  0
  -10.0073   22.9010  -31.3478 H   0  0  0  0  0  0  0  0  0  0  0  0
  -10.1575   20.5320  -32.1786 H   0  0  0  0  0  0  0  0  0  0  0  0
   -8.5270   18.2840  -32.0050 H   0  0  0  0  0  0  0  0  0  0  0  0
   -8.7370   18.8600  -33.5620 H   0  0  0  0  0  0  0  0  0  0  0  0
   -7.7006   17.0128  -34.6627 H   0  0  0  0  0  0  0  0  0  0  0  0
   -7.5470   16.2457  -33.0348 H   0  0  0  0  0  0  0  0  0  0  0  0
   -5.9506   15.2311  -34.6647 H   0  0  0  0  0  0  0  0  0  0  0  0
   -3.8860   15.5431  -33.2889 H   0  0  0  0  0  0  0  0  0  0  0  0
   -5.3382   15.3876  -32.2438 H   0  0  0  0  0  0  0  0  0  0  0  0
   -3.8719   17.2636  -31.4771 H   0  0  0  0  0  0  0  0  0  0  0  0
   -2.8661   17.8144  -33.6996 H   0  0  0  0  0  0  0  0  0  0  0  0
   -3.5940   19.2735  -32.9438 H   0  0  0  0  0  0  0  0  0  0  0  0
   -4.2044   19.1112  -35.3667 H   0  0  0  0  0  0  0  0  0  0  0  0
   -4.0815   16.6229  -35.5638 H   0  0  0  0  0  0  0  0  0  0  0  0
   -5.6716   17.2349  -36.1317 H   0  0  0  0  0  0  0  0  0  0  0  0
   -6.6790   19.2920  -35.0778 H   0  0  0  0  0  0  0  0  0  0  0  0
   -5.8041   20.1364  -33.7473 H   0  0  0  0  0  0  0  0  0  0  0  0
   -6.3465   17.4336  -31.1753 H   0  0  0  0  0  0  0  0  0  0  0  0
   -5.6115   19.0528  -31.4698 H   0  0  0  0  0  0  0  0  0  0  0  0
   -5.8032   20.2950  -32.2805 H   0  0  0  0  0  0  0  0  0  0  0  0
  1  2  1  0
  2  3  1  0
  3  4  2  0
  3  5  1  0
  5  6  1  0
  6  7  1  0
  7  8  1  0
  7  9  2  0
  6 10  2  0
 10 11  1  0
 11 12  2  0
 12 13  1  0
 13 14  2  0
 14 15  1  0
 16 15  1  1
 16 17  1  0
 17 18  1  0
 18 19  1  0
 19 20  1  0
 20 21  1  0
 21 22  1  0
 22 23  1  0
 22 24  1  0
 20 25  1  0
 14 26  1  0
 26 27  2  0
 27  5  1  0
 27 11  1  0
 24 16  1  0
 25 16  1  0
 23 18  1  0
  1 28  1  0
  1 29  1  0
  1 30  1  0
  8 31  1  0
 10 32  1  0
 12 33  1  0
 13 34  1  0
 15 35  1  0
 15 36  1  0
 17 37  1  0
 17 38  1  0
 18 39  1  6
 19 40  1  0
 19 41  1  0
 20 42  1  1
 21 43  1  0
 21 44  1  0
 22 45  1  6
 23 46  1  0
 23 47  1  0
 24 48  1  0
 24 49  1  0
 25 50  1  0
 25 51  1  0
 26 52  1  0
M  CHG  2   8  -1  15   1
M  END
>  <UniqueID>  (1) 
1

>  <SMILES>  (1) 
CSC(=O)n1c(C([NH-])=O)cc2ccc([NH2+]C34CC5CC(CC(C5)C3)C4)cc21

>  <Energy>  (1) 
93.37223365848604

>  <Genealogy>  (1) 
CSC(=O)n1c(C([NH-])=O)cc2ccc([NH2+]C34CC5CC(CC(C5)C3)C4)cc21 (protonated)
CSC(=O)n1c(C([NH-])=O)cc2ccc([NH2+]C34CC5CC(CC(C5)C3)C4)cc21 (3D coordinates assigned)
CSC(=O)n1c(C([NH-])=O)cc2ccc([NH2+]C34CC5CC(CC(C5)C3)C4)cc21 (nonaromatic ring conformer: 93.37223365848604 kcal/mol)

>  <smiles>  (1) 
CSC(=O)n1c(C(N)=O)cc2ccc(NC34CC5CC(CC(C5)C3)C4)cc21

>  <score_type>  (1) 
oracle

>  <origin>  (1) 
adg

>  <m_score__min__energy>  (1) 
-12.18

>  <m_primary>  (1) 
energy

$$$$
1:0
     RDKit          3D

 42 43  0  0  0  0  0  0  0  0999 V2000
   -3.8290   24.5260  -27.1260 C   0  0  0  0  0  0  0  0  0  0  0  0
   -2.3680   24.9620  -27.1560 C   0  0  0  0  0  0  0  0  0  0  0  0
   -1.8980   25.0470  -28.5000 O   0  0  0  0  0  0  0  0  0  0  0  0
   -0.9820   24.1460  -29.0520 C   0  0  0  0  0  0  0  0  0  0  0  0
    0.2460   24.2210  -28.7750 O   0  0  0  0  0  0  0  0  0  0  0  0
   -1.4700   23.0870  -29.9880 C   0  0  0  0  0  0  0  0  0  0  0  0
   -2.9230   23.1570  -30.1080 N   0  0  0  0  0  0  0  0  0  0  0  0
   -3.6300   22.6040  -31.2270 C   0  0  0  0  0  0  0  0  0  0  0  0
   -3.0000   22.0270  -32.1540 O   0  0  0  0  0  0  0  0  0  0  0  0
   -5.0610   22.7030  -31.2930 N   0  0  0  0  0  0  0  0  0  0  0  0
   -5.8320   23.8070  -31.0800 C   0  0  0  0  0  0  0  0  0  0  0  0
   -5.3450   25.1280  -30.6300 C   0  0  0  0  0  0  0  0  0  0  0  0
   -3.9450   25.3960  -30.6000 N   0  0  0  0  0  0  0  0  0  0  0  0
   -6.1520   26.0330  -30.2910 O   0  0  0  0  0  0  0  0  0  0  0  0
   -7.1770   23.5070  -31.2850 C   0  0  0  0  0  0  0  0  0  0  0  0
   -7.2060   22.1750  -31.6330 C   0  0  0  0  0  0  0  0  0  0  0  0
   -8.2830   21.3590  -31.9680 C   0  0  0  0  0  0  0  0  0  0  0  0
   -8.0140   20.0260  -32.3210 C   0  0  0  0  0  0  0  0  0  0  0  0
   -6.6840   19.5360  -32.3330 C   0  0  0  0  0  0  0  0  0  0  0  0
   -6.4010   18.1190  -32.7550 C   0  0  0  0  0  0  0  0  0  0  0  0
   -6.1270   18.0270  -34.2580 C   0  0  0  0  0  0  0  0  0  0  0  0
   -6.1230   19.3030  -34.8420 O   0  0  0  0  0  0  0  0  0  0  0  0
   -5.6160   20.3980  -31.9960 C   0  0  0  0  0  0  0  0  0  0  0  0
   -5.9150   21.7140  -31.6310 C   0  0  0  0  0  0  0  0  0  0  0  0
   -4.1607   24.4270  -26.0819 H   0  0  0  0  0  0  0  0  0  0  0  0
   -4.4469   25.2789  -27.6372 H   0  0  0  0  0  0  0  0  0  0  0  0
   -3.9332   23.5576  -27.6372 H   0  0  0  0  0  0  0  0  0  0  0  0
   -2.2749   25.9479  -26.6772 H   0  0  0  0  0  0  0  0  0  0  0  0
   -1.7643   24.2183  -26.6151 H   0  0  0  0  0  0  0  0  0  0  0  0
   -1.0151   23.2383  -30.9781 H   0  0  0  0  0  0  0  0  0  0  0  0
   -1.1876   22.0994  -29.5943 H   0  0  0  0  0  0  0  0  0  0  0  0
   -3.4620   23.6580  -29.3660 H   0  0  0  0  0  0  0  0  0  0  0  0
   -3.4720   25.6820  -29.7150 H   0  0  0  0  0  0  0  0  0  0  0  0
   -8.0342   24.1896  -31.1892 H   0  0  0  0  0  0  0  0  0  0  0  0
   -9.3127   21.7459  -31.9567 H   0  0  0  0  0  0  0  0  0  0  0  0
   -8.8437   19.3560  -32.5907 H   0  0  0  0  0  0  0  0  0  0  0  0
   -5.5203   17.7519  -32.2077 H   0  0  0  0  0  0  0  0  0  0  0  0
   -7.2861   17.5070  -32.5268 H   0  0  0  0  0  0  0  0  0  0  0  0
   -5.1468   17.5540  -34.4178 H   0  0  0  0  0  0  0  0  0  0  0  0
   -6.9218   17.4273  -34.7256 H   0  0  0  0  0  0  0  0  0  0  0  0
   -6.9660   19.3830  -35.3600 H   0  0  0  0  0  0  0  0  0  0  0  0
   -4.5754   20.0423  -32.0203 H   0  0  0  0  0  0  0  0  0  0  0  0
  1  2  1  0
  2  3  1  0
  3  4  1  0
  4  5  2  0
  4  6  1  0
  6  7  1  0
  7  8  1  0
  8  9  2  0
  8 10  1  0
 10 11  1  0
 11 12  1  0
 12 13  1  0
 12 14  2  0
 11 15  2  0
 15 16  1  0
 16 17  2  0
 17 18  1  0
 18 19  2  0
 19 20  1  0
 20 21  1  0
 21 22  1  0
 19 23  1  0
 23 24  2  0
 24 10  1  0
 24 16  1  0
  1 25  1  0
  1 26  1  0
  1 27  1  0
  2 28  1  0
  2 29  1  0
  6 30  1  0
  6 31  1  0
  7 32  1  0
 13 33  1  0
 15 34  1  0
 17 35  1  0
 18 36  1  0
 20 37  1  0
 20 38  1  0
 21 39  1  0
 21 40  1  0
 22 41  1  0
 23 42  1  0
M  CHG  1  13  -1
M  END
>  <UniqueID>  (2) 
2

>  <SMILES>  (2) 
CCOC(=O)CNC(=O)n1c(C([NH-])=O)cc2ccc(CCO)cc21

>  <Energy>  (2) 
70.02219245558372

>  <Genealogy>  (2) 
CCOC(=O)CNC(=O)n1c(C([NH-])=O)cc2ccc(CCO)cc21 (protonated)
CCOC(=O)CNC(=O)n1c(C([NH-])=O)cc2ccc(CCO)cc21 (3D coordinates assigned)
CCOC(=O)CNC(=O)n1c(C([NH-])=O)cc2ccc(CCO)cc21 (optimized conformer: 70.02219245558372 kcal/mol)

>  <smiles>  (2) 
CCOC(=O)CNC(=O)n1c(C(N)=O)cc2ccc(CCO)cc21

>  <score_type>  (2) 
oracle

>  <origin>  (2) 
adg

>  <m_score__min__energy>  (2) 
-10.57

>  <m_primary>  (2) 
energy

$$$$
2:0
     RDKit          3D

 47 48  0  0  0  0  0  0  0  0999 V2000
   -2.6490   21.2200  -28.9480 C   0  0  0  0  0  0  0  0  0  0  0  0
   -2.4850   22.6730  -29.0830 N   0  0  0  0  0  0  0  0  0  0  0  0
   -1.2560   23.2030  -29.6980 C   0  0  0  0  0  0  0  0  0  0  0  0
   -0.8680   24.5130  -29.0760 C   0  0  0  0  0  0  0  0  0  0  0  0
    0.1050   24.5690  -28.2720 O   0  0  0  0  0  0  0  0  0  0  0  0
   -1.6190   25.6560  -29.3190 O   0  0  0  0  0  0  0  0  0  0  0  0
   -3.6170   23.5220  -28.7830 C   0  0  0  0  0  0  0  0  0  0  0  0
   -3.9890   23.6370  -27.5810 O   0  0  0  0  0  0  0  0  0  0  0  0
   -4.3550   24.2560  -29.8460 C   0  0  0  0  0  0  0  0  0  0  0  0
   -3.7130   24.9780  -30.6570 O   0  0  0  0  0  0  0  0  0  0  0  0
   -5.7850   24.1480  -29.9980 N   0  0  0  0  0  0  0  0  0  0  0  0
   -6.6060   25.3370  -29.7530 C   0  0  0  0  0  0  0  0  0  0  0  0
   -6.4480   22.8580  -30.2390 C   0  0  0  0  0  0  0  0  0  0  0  0
   -6.6050   22.6220  -31.7160 C   0  0  0  0  0  0  0  0  0  0  0  0
   -6.9520   23.5700  -32.4690 O   0  0  0  0  0  0  0  0  0  0  0  0
   -6.4390   21.3050  -32.2660 N   0  0  0  0  0  0  0  0  0  0  0  0
   -7.4080   20.4090  -32.6090 C   0  0  0  0  0  0  0  0  0  0  0  0
   -8.8560   20.5560  -32.3490 C   0  0  0  0  0  0  0  0  0  0  0  0
   -9.4530   21.8410  -32.1570 N   0  0  0  0  0  0  0  0  0  0  0  0
   -9.5760   19.5250  -32.2630 O   0  0  0  0  0  0  0  0  0  0  0  0
   -6.8480   19.3050  -33.2470 C   0  0  0  0  0  0  0  0  0  0  0  0
   -5.4920   19.5500  -33.2760 C   0  0  0  0  0  0  0  0  0  0  0  0
   -4.4530   18.7860  -33.7970 C   0  0  0  0  0  0  0  0  0  0  0  0
   -3.1500   19.3080  -33.7190 C   0  0  0  0  0  0  0  0  0  0  0  0
   -2.9120   20.5890  -33.1520 C   0  0  0  0  0  0  0  0  0  0  0  0
   -1.5110   21.1370  -33.0560 C   0  0  0  0  0  0  0  0  0  0  0  0
   -1.0480   21.5010  -34.3090 F   0  0  0  0  0  0  0  0  0  0  0  0
   -0.6470   20.1890  -32.5360 F   0  0  0  0  0  0  0  0  0  0  0  0
   -1.5110   22.2500  -32.2350 F   0  0  0  0  0  0  0  0  0  0  0  0
   -3.9920   21.3200  -32.6080 C   0  0  0  0  0  0  0  0  0  0  0  0
   -5.2740   20.7650  -32.6800 C   0  0  0  0  0  0  0  0  0  0  0  0
   -2.6793   20.9519  -27.8816 H   0  0  0  0  0  0  0  0  0  0  0  0
   -3.5878   20.9105  -29.4306 H   0  0  0  0  0  0  0  0  0  0  0  0
   -1.8028   20.7091  -29.4306 H   0  0  0  0  0  0  0  0  0  0  0  0
   -0.4399   22.4798  -29.5532 H   0  0  0  0  0  0  0  0  0  0  0  0
   -1.4407   23.3640  -30.7704 H   0  0  0  0  0  0  0  0  0  0  0  0
   -6.7129   25.4918  -28.6692 H   0  0  0  0  0  0  0  0  0  0  0  0
   -6.1216   26.2161  -30.2030 H   0  0  0  0  0  0  0  0  0  0  0  0
   -7.5997   25.1955  -30.2030 H   0  0  0  0  0  0  0  0  0  0  0  0
   -5.8403   22.0505  -29.8047 H   0  0  0  0  0  0  0  0  0  0  0  0
   -7.4431   22.8731  -29.7704 H   0  0  0  0  0  0  0  0  0  0  0  0
   -8.8700   22.7000  -32.0460 H   0  0  0  0  0  0  0  0  0  0  0  0
  -10.4860   21.9230  -32.0200 H   0  0  0  0  0  0  0  0  0  0  0  0
   -7.3756   18.4249  -33.6434 H   0  0  0  0  0  0  0  0  0  0  0  0
   -4.6447   17.8046  -34.2554 H   0  0  0  0  0  0  0  0  0  0  0  0
   -2.3044   18.7176  -34.1016 H   0  0  0  0  0  0  0  0  0  0  0  0
   -3.8286   22.3016  -32.1393 H   0  0  0  0  0  0  0  0  0  0  0  0
  1  2  1  0
  2  3  1  0
  3  4  1  0
  4  5  2  0
  4  6  1  0
  2  7  1  0
  7  8  2  0
  7  9  1  0
  9 10  2  0
  9 11  1  0
 11 12  1  0
 11 13  1  0
 13 14  1  0
 14 15  2  0
 14 16  1  0
 16 17  1  0
 17 18  1  0
 18 19  1  0
 18 20  2  0
 17 21  2  0
 21 22  1  0
 22 23  2  0
 23 24  1  0
 24 25  2  0
 25 26  1  0
 26 27  1  0
 26 28  1  0
 26 29  1  0
 25 30  1  0
 30 31  2  0
 31 16  1  0
 31 22  1  0
  1 32  1  0
  1 33  1  0
  1 34  1  0
  3 35  1  0
  3 36  1  0
 12 37  1  0
 12 38  1  0
 12 39  1  0
 13 40  1  0
 13 41  1  0
 19 42  1  0
 19 43  1  0
 21 44  1  0
 23 45  1  0
 24 46  1  0
 30 47  1  0
M  CHG  1   6  -1
M  END
>  <UniqueID>  (3) 
3

>  <SMILES>  (3) 
CN(CC(=O)[O-])C(=O)C(=O)N(C)CC(=O)n1c(C(N)=O)cc2ccc(C(F)(F)F)cc21

>  <Energy>  (3) 
89.99423526281088

>  <Genealogy>  (3) 
CN(CC(=O)[O-])C(=O)C(=O)N(C)CC(=O)n1c(C(N)=O)cc2ccc(C(F)(F)F)cc21 (protonated)
CN(CC(=O)[O-])C(=O)C(=O)N(C)CC(=O)n1c(C(N)=O)cc2ccc(C(F)(F)F)cc21 (3D coordinates assigned)
CN(CC(=O)[O-])C(=O)C(=O)N(C)CC(=O)n1c(C(N)=O)cc2ccc(C(F)(F)F)cc21 (optimized conformer: 89.99423526281088 kcal/mol)

>  <smiles>  (3) 
CN(CC(=O)O)C(=O)C(=O)N(C)CC(=O)n1c(C(N)=O)cc2ccc(C(F)(F)F)cc21

>  <score_type>  (3) 
oracle

>  <origin>  (3) 
adg

>  <m_score__min__energy>  (3) 
-10.66

>  <m_primary>  (3) 
energy

$$$$
3:0
     RDKit          3D

 48 50  0  0  0  0  0  0  0  0999 V2000
   -7.0330   18.4710  -32.7120 C   0  0  0  0  0  0  0  0  0  0  0  0
   -7.1680   19.9080  -32.3070 C   0  0  0  0  0  0  0  0  0  0  0  0
   -8.4430   20.5270  -32.3030 C   0  0  0  0  0  0  0  0  0  0  0  0
   -8.5810   21.8760  -31.9360 C   0  0  0  0  0  0  0  0  0  0  0  0
   -7.4320   22.5770  -31.5860 C   0  0  0  0  0  0  0  0  0  0  0  0
   -7.2830   23.8710  -31.1370 C   0  0  0  0  0  0  0  0  0  0  0  0
   -5.9210   24.0160  -30.8820 C   0  0  0  0  0  0  0  0  0  0  0  0
   -5.3070   25.2730  -30.4120 C   0  0  0  0  0  0  0  0  0  0  0  0
   -3.9960   25.6450  -30.8290 N   0  0  0  0  0  0  0  0  0  0  0  0
   -5.9550   26.0410  -29.6530 O   0  0  0  0  0  0  0  0  0  0  0  0
   -5.2580   22.8560  -31.1500 N   0  0  0  0  0  0  0  0  0  0  0  0
   -3.8810   22.5450  -30.8740 C   0  0  0  0  0  0  0  0  0  0  0  0
   -2.9800   23.3420  -31.2450 O   0  0  0  0  0  0  0  0  0  0  0  0
   -3.4910   21.3200  -30.1460 C   0  0  0  0  0  0  0  0  0  0  0  0
   -3.0920   21.2990  -28.8680 C   0  0  0  0  0  0  0  0  0  0  0  0
   -3.1500   22.4520  -28.0210 N   0  0  0  0  0  0  0  0  0  0  0  0
   -4.1980   23.2900  -27.9100 C   0  0  0  0  0  0  0  0  0  0  0  0
   -3.8640   24.2880  -27.0180 C   0  0  0  0  0  0  0  0  0  0  0  0
   -2.5960   24.0850  -26.6010 N   0  0  0  0  0  0  0  0  0  0  0  0
   -1.8620   24.9270  -25.6500 C   0  0  0  0  0  0  0  0  0  0  0  0
   -1.7120   26.3640  -26.1610 C   0  0  0  0  0  0  0  0  0  0  0  0
   -0.7070   26.4590  -27.6370 S   0  0  0  0  0  0  0  0  0  0  0  0
   -0.1990   27.8650  -27.7960 O   0  0  0  0  0  0  0  0  0  0  0  0
    0.4640   25.5230  -27.5230 O   0  0  0  0  0  0  0  0  0  0  0  0
   -1.6250   26.0500  -28.9840 O   0  0  0  0  0  0  0  0  0  0  0  0
   -2.1750   22.9640  -27.2320 C   0  0  0  0  0  0  0  0  0  0  0  0
   -0.7700   22.4290  -27.1610 C   0  0  0  0  0  0  0  0  0  0  0  0
   -6.1920   21.9940  -31.6000 C   0  0  0  0  0  0  0  0  0  0  0  0
   -6.0230   20.6570  -31.9680 C   0  0  0  0  0  0  0  0  0  0  0  0
   -6.9738   17.8406  -31.8125 H   0  0  0  0  0  0  0  0  0  0  0  0
   -7.9073   18.1750  -33.3103 H   0  0  0  0  0  0  0  0  0  0  0  0
   -6.1189   18.3430  -33.3103 H   0  0  0  0  0  0  0  0  0  0  0  0
   -9.3321   19.9462  -32.5897 H   0  0  0  0  0  0  0  0  0  0  0  0
   -9.5674   22.3628  -31.9258 H   0  0  0  0  0  0  0  0  0  0  0  0
   -8.0708   24.6277  -31.0075 H   0  0  0  0  0  0  0  0  0  0  0  0
   -3.1520   25.2970  -30.3230 H   0  0  0  0  0  0  0  0  0  0  0  0
   -3.5310   20.3640  -30.6886 H   0  0  0  0  0  0  0  0  0  0  0  0
   -2.7039   20.3576  -28.4519 H   0  0  0  0  0  0  0  0  0  0  0  0
   -5.1571   23.1951  -28.4402 H   0  0  0  0  0  0  0  0  0  0  0  0
   -4.5207   25.1111  -26.6998 H   0  0  0  0  0  0  0  0  0  0  0  0
   -2.4071   24.9438  -24.6947 H   0  0  0  0  0  0  0  0  0  0  0  0
   -0.8553   24.5022  -25.5230 H   0  0  0  0  0  0  0  0  0  0  0  0
   -2.7111   26.7650  -26.3871 H   0  0  0  0  0  0  0  0  0  0  0  0
   -1.2119   26.9496  -25.3755 H   0  0  0  0  0  0  0  0  0  0  0  0
   -0.4734   22.3161  -26.1078 H   0  0  0  0  0  0  0  0  0  0  0  0
   -0.7245   21.4506  -27.6617 H   0  0  0  0  0  0  0  0  0  0  0  0
   -0.0852   23.1293  -27.6617 H   0  0  0  0  0  0  0  0  0  0  0  0
   -5.0225   20.2006  -31.9926 H   0  0  0  0  0  0  0  0  0  0  0  0
  1  2  1  0
  2  3  2  0
  3  4  1  0
  4  5  2  0
  5  6  1  0
  6  7  2  0
  7  8  1  0
  8  9  1  0
  8 10  2  0
  7 11  1  0
 11 12  1  0
 12 13  2  0
 12 14  1  0
 14 15  2  3
 15 16  1  0
 16 17  1  0
 17 18  2  0
 18 19  1  0
 19 20  1  0
 20 21  1  0
 21 22  1  0
 22 23  2  0
 22 24  2  0
 22 25  1  0
 19 26  1  0
 26 27  1  0
 11 28  1  0
 28 29  2  0
 29  2  1  0
 28  5  1  0
 26 16  2  0
  1 30  1  0
  1 31  1  0
  1 32  1  0
  3 33  1  0
  4 34  1  0
  6 35  1  0
  9 36  1  0
 14 37  1  0
 15 38  1  0
 17 39  1  0
 18 40  1  0
 20 41  1  0
 20 42  1  0
 21 43  1  0
 21 44  1  0
 27 45  1  0
 27 46  1  0
 27 47  1  0
 29 48  1  0
M  CHG  3   9  -1  16   1  25  -1
M  END
>  <UniqueID>  (4) 
4

>  <SMILES>  (4) 
Cc1ccc2cc(C([NH-])=O)n(C(=O)C=C[n+]3ccn(CCS(=O)(=O)[O-])c3C)c2c1

>  <Energy>  (4) 
116.52441134393716

>  <Genealogy>  (4) 
Cc1ccc2cc(C([NH-])=O)n(C(=O)C=C[n+]3ccn(CCS(=O)(=O)[O-])c3C)c2c1 (protonated)
Cc1ccc2cc(C([NH-])=O)n(C(=O)C=C[n+]3ccn(CCS(=O)(=O)[O-])c3C)c2c1 (3D coordinates assigned)
Cc1ccc2cc(C([NH-])=O)n(C(=O)C=C[n+]3ccn(CCS(=O)(=O)[O-])c3C)c2c1 (optimized conformer: 116.52441134393716 kcal/mol)

>  <smiles>  (4) 
Cc1ccc2cc(C(N)=O)n(C(=O)C=C[n+]3ccn(CCS(=O)(=O)O)c3C)c2c1

>  <score_type>  (4) 
oracle

>  <origin>  (4) 
adg

>  <m_score__min__energy>  (4) 
-13.93

>  <m_primary>  (4) 
energy

$$$$
4:0
     RDKit          3D

 42 43  0  0  0  0  0  0  0  0999 V2000
   -3.4840   25.6760  -29.7030 H   0  0  0  0  0  0  0  0  0  0  0  0
   -3.8130   25.0520  -30.4770 N   0  0  0  0  0  0  0  0  0  0  0  0
   -5.1750   25.0760  -30.9020 C   0  0  0  0  0  0  0  0  0  0  0  0
   -5.7270   26.1820  -31.1540 O   0  0  0  0  0  0  0  0  0  0  0  0
   -5.9380   23.8150  -30.9890 C   0  0  0  0  0  0  0  0  0  0  0  0
   -7.2920   23.7120  -30.6740 C   0  0  0  0  0  0  0  0  0  0  0  0
   -7.9453   24.5022  -30.2755 H   0  0  0  0  0  0  0  0  0  0  0  0
   -7.6390   22.4120  -30.9670 C   0  0  0  0  0  0  0  0  0  0  0  0
   -8.8610   21.7610  -30.8440 C   0  0  0  0  0  0  0  0  0  0  0  0
   -9.7498   22.2912  -30.4712 H   0  0  0  0  0  0  0  0  0  0  0  0
   -8.9280   20.4050  -31.2100 C   0  0  0  0  0  0  0  0  0  0  0  0
   -9.8849   19.8676  -31.1356 H   0  0  0  0  0  0  0  0  0  0  0  0
   -7.7720   19.7220  -31.6750 C   0  0  0  0  0  0  0  0  0  0  0  0
   -7.8560   18.2830  -32.1180 C   0  0  0  0  0  0  0  0  0  0  0  0
   -7.5160   18.1520  -33.4540 F   0  0  0  0  0  0  0  0  0  0  0  0
   -6.9870   17.5200  -31.3570 F   0  0  0  0  0  0  0  0  0  0  0  0
   -9.1440   17.8010  -31.9500 F   0  0  0  0  0  0  0  0  0  0  0  0
   -6.5520   20.4270  -31.7990 C   0  0  0  0  0  0  0  0  0  0  0  0
   -5.6478   19.9239  -32.1722 H   0  0  0  0  0  0  0  0  0  0  0  0
   -6.5200   21.7770  -31.4370 C   0  0  0  0  0  0  0  0  0  0  0  0
   -5.4650   22.6210  -31.4490 N   0  0  0  0  0  0  0  0  0  0  0  0
   -4.1140   22.2770  -31.7930 C   0  0  0  0  0  0  0  0  0  0  0  0
   -3.7810   22.2090  -33.0070 O   0  0  0  0  0  0  0  0  0  0  0  0
   -3.1430   21.9560  -30.7330 C   0  0  0  0  0  0  0  0  0  0  0  0
   -3.4824   21.9609  -29.6867 H   0  0  0  0  0  0  0  0  0  0  0  0
   -1.8660   21.6590  -30.9920 C   0  0  0  0  0  0  0  0  0  0  0  0
   -1.5319   21.5877  -32.0376 H   0  0  0  0  0  0  0  0  0  0  0  0
   -0.8750   21.4200  -29.8850 C   0  0  0  0  0  0  0  0  0  0  0  0
   -1.2274   20.5899  -29.2551 H   0  0  0  0  0  0  0  0  0  0  0  0
    0.1012   21.1696  -30.3258 H   0  0  0  0  0  0  0  0  0  0  0  0
   -0.7320   22.6300  -29.0590 N   0  0  0  0  0  0  0  0  0  0  0  0
   -0.7610   23.4720  -29.6790 H   0  0  0  0  0  0  0  0  0  0  0  0
    0.1970   22.6180  -28.5700 H   0  0  0  0  0  0  0  0  0  0  0  0
   -1.8130   22.7730  -28.0690 C   0  0  0  0  0  0  0  0  0  0  0  0
   -2.7150   22.2785  -28.4587 H   0  0  0  0  0  0  0  0  0  0  0  0
   -1.4690   22.3110  -27.1318 H   0  0  0  0  0  0  0  0  0  0  0  0
   -2.1490   24.2420  -27.7670 C   0  0  0  0  0  0  0  0  0  0  0  0
   -3.1471   24.4749  -28.1664 H   0  0  0  0  0  0  0  0  0  0  0  0
   -2.1323   24.3950  -26.6778 H   0  0  0  0  0  0  0  0  0  0  0  0
   -1.1420   25.1480  -28.3990 C   0  0  0  0  0  0  0  0  0  0  0  0
   -1.5130   26.2070  -28.9700 O   0  0  0  0  0  0  0  0  0  0  0  0
    0.2100   24.8460  -28.3240 O   0  0  0  0  0  0  0  0  0  0  0  0
  1  2  1  0
  2  3  1  0
  3  4  2  0
  3  5  1  0
  5  6  2  0
  6  7  1  0
  6  8  1  0
  8  9  2  0
  9 10  1  0
  9 11  1  0
 11 12  1  0
 11 13  2  0
 13 14  1  0
 14 15  1  0
 14 16  1  0
 14 17  1  0
 13 18  1  0
 18 19  1  0
 18 20  2  0
 20 21  1  0
 21 22  1  0
 22 23  2  0
 22 24  1  0
 24 25  1  0
 24 26  2  0
 26 27  1  0
 26 28  1  0
 28 29  1  0
 28 30  1  0
 28 31  1  0
 31 32  1  0
 31 33  1  0
 31 34  1  0
 34 35  1  0
 34 36  1  0
 34 37  1  0
 37 38  1  0
 37 39  1  0
 37 40  1  0
 40 41  2  0
 40 42  1  0
 21  5  1  0
 20  8  1  0
M  CHG  3   2  -1  31   1  42  -1
M  END
>  <UniqueID>  (5) 
5

>  <SMILES>  (5) 
[NH-]C(=O)c1cc2ccc(C(F)(F)F)cc2n1C(=O)/C=C/C[NH2+]CCC(=O)[O-]

>  <Energy>  (5) 
78.2195152966368

>  <Genealogy>  (5) 
[NH-]C(=O)c1cc2ccc(C(F)(F)F)cc2n1C(=O)/C=C/C[NH2+]CCC(=O)[O-] (protonated)
[NH-]C(=O)c1cc2ccc(C(F)(F)F)cc2n1C(=O)/C=C/C[NH2+]CCC(=O)[O-] (cis-trans isomerization)
[NH-]C(=O)c1cc2ccc(C(F)(F)F)cc2n1C(=O)/C=C/C[NH2+]CCC(=O)[O-] (3D coordinates assigned)
[NH-]C(=O)c1cc2ccc(C(F)(F)F)cc2n1C(=O)/C=C/C[NH2+]CCC(=O)[O-] (optimized conformer: 78.2195152966368 kcal/mol)

>  <smiles>  (5) 
NC(=O)c1cc2ccc(C(F)(F)F)cc2n1C(=O)/C=C/CNCCC(=O)O

>  <score_type>  (5) 
oracle

>  <origin>  (5) 
adg

>  <m_score__min__energy>  (5) 
-12.57

>  <m_primary>  (5) 
energy

$$$$
5:0
     RDKit          3D

 42 43  0  0  0  0  0  0  0  0999 V2000
   -5.0380   18.1000  -33.8700 C   0  0  0  0  0  0  0  0  0  0  0  0
   -5.4860   19.4010  -33.2690 C   0  0  0  0  0  0  0  0  0  0  0  0
   -6.8490   19.7810  -33.3270 C   0  0  0  0  0  0  0  0  0  0  0  0
   -7.2870   20.9750  -32.7230 C   0  0  0  0  0  0  0  0  0  0  0  0
   -6.3420   21.7590  -32.0690 C   0  0  0  0  0  0  0  0  0  0  0  0
   -6.4870   22.9610  -31.4190 C   0  0  0  0  0  0  0  0  0  0  0  0
   -5.2080   23.3040  -30.9790 C   0  0  0  0  0  0  0  0  0  0  0  0
   -4.8900   24.5760  -30.2950 C   0  0  0  0  0  0  0  0  0  0  0  0
   -3.9040   25.4510  -30.8460 N   0  0  0  0  0  0  0  0  0  0  0  0
   -5.4630   24.8920  -29.2190 O   0  0  0  0  0  0  0  0  0  0  0  0
   -4.3090   22.3450  -31.3450 N   0  0  0  0  0  0  0  0  0  0  0  0
   -2.8980   22.3200  -31.0810 C   0  0  0  0  0  0  0  0  0  0  0  0
   -2.0910   22.0900  -32.0230 O   0  0  0  0  0  0  0  0  0  0  0  0
   -2.4020   22.5020  -29.7420 N   0  0  0  0  0  0  0  0  0  0  0  0
   -1.2680   23.4280  -29.5710 C   0  0  0  0  0  0  0  0  0  0  0  0
   -1.6890   24.7150  -28.9260 C   0  0  0  0  0  0  0  0  0  0  0  0
   -1.2450   25.8170  -29.3480 O   0  0  0  0  0  0  0  0  0  0  0  0
   -2.6160   24.7070  -27.8890 O   0  0  0  0  0  0  0  0  0  0  0  0
   -3.0430   21.8430  -28.6080 C   0  0  0  0  0  0  0  0  0  0  0  0
   -3.9810   22.4410  -27.9270 N   0  0  0  0  0  0  0  0  0  0  0  0
   -2.6530   20.4320  -28.2030 C   0  0  0  0  0  0  0  0  0  0  0  0
   -3.4360   19.9790  -27.1080 O   0  0  0  0  0  0  0  0  0  0  0  0
   -2.6970   19.0810  -26.3020 C   0  0  0  0  0  0  0  0  0  0  0  0
   -1.8210   18.3450  -27.0850 F   0  0  0  0  0  0  0  0  0  0  0  0
   -1.9600   19.8130  -25.3870 F   0  0  0  0  0  0  0  0  0  0  0  0
   -5.0190   21.4070  -32.0060 C   0  0  0  0  0  0  0  0  0  0  0  0
   -4.5590   20.2170  -32.5810 C   0  0  0  0  0  0  0  0  0  0  0  0
   -4.7934   17.3898  -33.0664 H   0  0  0  0  0  0  0  0  0  0  0  0
   -5.8454   17.6861  -34.4920 H   0  0  0  0  0  0  0  0  0  0  0  0
   -4.1470   18.2710  -34.4920 H   0  0  0  0  0  0  0  0  0  0  0  0
   -7.5723   19.1372  -33.8489 H   0  0  0  0  0  0  0  0  0  0  0  0
   -8.3434   21.2785  -32.7668 H   0  0  0  0  0  0  0  0  0  0  0  0
   -7.4159   23.5325  -31.2757 H   0  0  0  0  0  0  0  0  0  0  0  0
   -2.8880   25.3060  -30.6500 H   0  0  0  0  0  0  0  0  0  0  0  0
   -0.5073   22.9459  -28.9394 H   0  0  0  0  0  0  0  0  0  0  0  0
   -0.8657   23.6619  -30.5677 H   0  0  0  0  0  0  0  0  0  0  0  0
   -4.4450   21.9650  -27.1160 H   0  0  0  0  0  0  0  0  0  0  0  0
   -4.3180   23.4060  -28.1490 H   0  0  0  0  0  0  0  0  0  0  0  0
   -2.8070   19.7574  -29.0581 H   0  0  0  0  0  0  0  0  0  0  0  0
   -1.5960   20.4357  -27.8986 H   0  0  0  0  0  0  0  0  0  0  0  0
   -3.3907   18.3975  -25.7905 H   0  0  0  0  0  0  0  0  0  0  0  0
   -3.5019   19.9237  -32.4996 H   0  0  0  0  0  0  0  0  0  0  0  0
  1  2  1  0
  2  3  2  0
  3  4  1  0
  4  5  2  0
  5  6  1  0
  6  7  2  0
  7  8  1  0
  8  9  1  0
  8 10  2  0
  7 11  1  0
 11 12  1  0
 12 13  2  0
 12 14  1  0
 14 15  1  0
 15 16  1  0
 16 17  2  0
 16 18  1  0
 14 19  1  0
 19 20  2  0
 19 21  1  0
 21 22  1  0
 22 23  1  0
 23 24  1  0
 23 25  1  0
 11 26  1  0
 26 27  2  0
 27  2  1  0
 26  5  1  0
  1 28  1  0
  1 29  1  0
  1 30  1  0
  3 31  1  0
  4 32  1  0
  6 33  1  0
  9 34  1  0
 15 35  1  0
 15 36  1  0
 20 37  1  0
 20 38  1  0
 21 39  1  0
 21 40  1  0
 23 41  1  0
 27 42  1  0
M  CHG  3   9  -1  18  -1  20   1
M  END
>  <UniqueID>  (6) 
6

>  <SMILES>  (6) 
Cc1ccc2cc(C([NH-])=O)n(C(=O)N(CC(=O)[O-])C(=[NH2+])COC(F)F)c2c1

>  <Energy>  (6) 
89.46757705397445

>  <Genealogy>  (6) 
Cc1ccc2cc(C([NH-])=O)n(C(=O)N(CC(=O)[O-])C(=[NH2+])COC(F)F)c2c1 (protonated)
Cc1ccc2cc(C([NH-])=O)n(C(=O)N(CC(=O)[O-])C(=[NH2+])COC(F)F)c2c1 (3D coordinates assigned)
Cc1ccc2cc(C([NH-])=O)n(C(=O)N(CC(=O)[O-])C(=[NH2+])COC(F)F)c2c1 (optimized conformer: 89.46757705397445 kcal/mol)

>  <smiles>  (6) 
Cc1ccc2cc(C(N)=O)n(C(=O)N(CC(=O)O)C(=N)COC(F)F)c2c1

>  <score_type>  (6) 
oracle

>  <origin>  (6) 
adg

>  <m_score__min__energy>  (6) 
-11.369999999999999

>  <m_primary>  (6) 
energy

$$$$
6:0
     RDKit          3D

 40 42  0  0  0  0  0  0  0  0999 V2000
   -4.3160   26.0290  -30.4740 N   0  0  0  0  0  0  0  0  0  0  0  0
   -5.5660   25.4310  -30.1350 C   0  0  0  0  0  0  0  0  0  0  0  0
   -6.3490   26.0390  -29.3590 O   0  0  0  0  0  0  0  0  0  0  0  0
   -5.9310   24.1170  -30.7050 C   0  0  0  0  0  0  0  0  0  0  0  0
   -7.2200   23.7850  -31.1230 C   0  0  0  0  0  0  0  0  0  0  0  0
   -7.1390   22.4790  -31.5530 C   0  0  0  0  0  0  0  0  0  0  0  0
   -8.1200   21.6490  -32.0860 C   0  0  0  0  0  0  0  0  0  0  0  0
   -7.7440   20.3510  -32.4740 C   0  0  0  0  0  0  0  0  0  0  0  0
   -6.4020   19.9130  -32.3370 C   0  0  0  0  0  0  0  0  0  0  0  0
   -6.0250   18.5830  -32.7390 N   0  0  0  0  0  0  0  0  0  0  0  0
   -4.6750   18.3260  -33.2510 C   0  0  0  0  0  0  0  0  0  0  0  0
   -4.6050   16.9410  -33.8950 C   0  0  0  0  0  0  0  0  0  0  0  0
   -5.8040   16.6890  -34.5950 O   0  0  0  0  0  0  0  0  0  0  0  0
   -6.8590   16.4350  -33.6810 C   0  0  0  0  0  0  0  0  0  0  0  0
   -6.9380   17.4520  -32.5180 C   0  0  0  0  0  0  0  0  0  0  0  0
   -5.4370   20.7870  -31.7870 C   0  0  0  0  0  0  0  0  0  0  0  0
   -5.8440   22.0640  -31.3910 C   0  0  0  0  0  0  0  0  0  0  0  0
   -5.0920   23.0550  -30.8640 N   0  0  0  0  0  0  0  0  0  0  0  0
   -3.6880   22.9940  -30.5710 C   0  0  0  0  0  0  0  0  0  0  0  0
   -2.8500   23.0570  -31.5090 O   0  0  0  0  0  0  0  0  0  0  0  0
   -3.2090   22.9100  -29.1540 C   0  0  0  0  0  0  0  0  0  0  0  0
   -1.6710   23.8580  -28.9560 P   0  0  0  0  0  0  0  0  0  0  0  0
   -1.1870   23.7520  -27.5280 O   0  0  0  0  0  0  0  0  0  0  0  0
   -0.4920   23.2310  -29.9940 O   0  0  0  0  0  0  0  0  0  0  0  0
   -1.9480   25.4820  -29.3390 O   0  0  0  0  0  0  0  0  0  0  0  0
   -3.5230   25.4480  -30.8270 H   0  0  0  0  0  0  0  0  0  0  0  0
   -8.1115   24.4293  -31.1116 H   0  0  0  0  0  0  0  0  0  0  0  0
   -9.1571   21.9973  -32.2003 H   0  0  0  0  0  0  0  0  0  0  0  0
   -8.4994   19.6673  -32.8886 H   0  0  0  0  0  0  0  0  0  0  0  0
   -4.4208   19.0884  -34.0021 H   0  0  0  0  0  0  0  0  0  0  0  0
   -3.9618   18.3675  -32.4146 H   0  0  0  0  0  0  0  0  0  0  0  0
   -3.7568   16.9038  -34.5944 H   0  0  0  0  0  0  0  0  0  0  0  0
   -4.4682   16.1788  -33.1138 H   0  0  0  0  0  0  0  0  0  0  0  0
   -7.8102   16.4649  -34.2327 H   0  0  0  0  0  0  0  0  0  0  0  0
   -6.6627   15.4503  -33.2318 H   0  0  0  0  0  0  0  0  0  0  0  0
   -7.9677   17.8314  -32.4422 H   0  0  0  0  0  0  0  0  0  0  0  0
   -6.6435   16.9425  -31.5886 H   0  0  0  0  0  0  0  0  0  0  0  0
   -4.3900   20.4695  -31.6733 H   0  0  0  0  0  0  0  0  0  0  0  0
   -3.9788   23.3220  -28.4849 H   0  0  0  0  0  0  0  0  0  0  0  0
   -3.0173   21.8568  -28.9011 H   0  0  0  0  0  0  0  0  0  0  0  0
  1  2  1  0
  2  3  2  0
  2  4  1  0
  4  5  2  0
  5  6  1  0
  6  7  2  0
  7  8  1  0
  8  9  2  0
  9 10  1  0
 10 11  1  0
 11 12  1  0
 12 13  1  0
 13 14  1  0
 14 15  1  0
  9 16  1  0
 16 17  2  0
 17 18  1  0
 18 19  1  0
 19 20  2  0
 19 21  1  0
 21 22  1  0
 22 23  2  0
 22 24  1  0
 22 25  1  0
 18  4  1  0
 17  6  1  0
 15 10  1  0
  1 26  1  0
  5 27  1  0
  7 28  1  0
  8 29  1  0
 11 30  1  0
 11 31  1  0
 12 32  1  0
 12 33  1  0
 14 34  1  0
 14 35  1  0
 15 36  1  0
 15 37  1  0
 16 38  1  0
 21 39  1  0
 21 40  1  0
M  CHG  3   1  -1  24  -1  25  -1
M  END
>  <UniqueID>  (7) 
7

>  <SMILES>  (7) 
[NH-]C(=O)c1cc2ccc(N3CCOCC3)cc2n1C(=O)CP(=O)([O-])[O-]

>  <Energy>  (7) 
86.11468060948962

>  <Genealogy>  (7) 
[NH-]C(=O)c1cc2ccc(N3CCOCC3)cc2n1C(=O)CP(=O)([O-])[O-] (protonated)
[NH-]C(=O)c1cc2ccc(N3CCOCC3)cc2n1C(=O)CP(=O)([O-])[O-] (3D coordinates assigned)
[NH-]C(=O)c1cc2ccc(N3CCOCC3)cc2n1C(=O)CP(=O)([O-])[O-] (nonaromatic ring conformer: 86.11468060948962 kcal/mol)

>  <smiles>  (7) 
NC(=O)c1cc2ccc(N3CCOCC3)cc2n1C(=O)CP(=O)(O)O

>  <score_type>  (7) 
oracle

>  <origin>  (7) 
adg

>  <m_score__min__energy>  (7) 
-13.18

>  <m_primary>  (7) 
energy

$$$$
7:0
     RDKit          3D

 47 48  0  0  0  0  0  0  0  0999 V2000
   -7.2990   18.3670  -32.7750 C   0  0  0  0  0  0  0  0  0  0  0  0
   -7.4010   19.8100  -32.3780 C   0  0  0  0  0  0  0  0  0  0  0  0
   -8.6720   20.4230  -32.2450 C   0  0  0  0  0  0  0  0  0  0  0  0
   -8.7800   21.7680  -31.8510 C   0  0  0  0  0  0  0  0  0  0  0  0
   -7.6050   22.4660  -31.5890 C   0  0  0  0  0  0  0  0  0  0  0  0
   -7.4170   23.7730  -31.1980 C   0  0  0  0  0  0  0  0  0  0  0  0
   -6.0380   23.9260  -31.0710 C   0  0  0  0  0  0  0  0  0  0  0  0
   -5.3990   25.1550  -30.5560 C   0  0  0  0  0  0  0  0  0  0  0  0
   -3.9820   25.3020  -30.5660 N   0  0  0  0  0  0  0  0  0  0  0  0
   -6.1120   26.0710  -30.0650 O   0  0  0  0  0  0  0  0  0  0  0  0
   -5.3970   22.7690  -31.3980 N   0  0  0  0  0  0  0  0  0  0  0  0
   -3.9810   22.5180  -31.4460 C   0  0  0  0  0  0  0  0  0  0  0  0
   -3.4250   22.3630  -32.5670 O   0  0  0  0  0  0  0  0  0  0  0  0
   -3.1880   22.4420  -30.2410 N   0  0  0  0  0  0  0  0  0  0  0  0
   -1.7310   22.5550  -30.3720 C   0  0  0  0  0  0  0  0  0  0  0  0
   -3.7910   22.0700  -28.9500 C   0  0  0  0  0  0  0  0  0  0  0  0
   -2.9650   22.5320  -27.7760 C   0  0  0  0  0  0  0  0  0  0  0  0
   -2.3240   21.6710  -27.1150 O   0  0  0  0  0  0  0  0  0  0  0  0
   -2.9600   23.9050  -27.3280 N   0  0  0  0  0  0  0  0  0  0  0  0
   -4.2620   24.5400  -27.1060 C   0  0  0  0  0  0  0  0  0  0  0  0
   -1.7290   24.6540  -27.0050 C   0  0  2  0  0  0  0  0  0  0  0  0
   -2.0220   25.7700  -25.9970 C   0  0  0  0  0  0  0  0  0  0  0  0
   -1.0280   25.1400  -28.2490 C   0  0  0  0  0  0  0  0  0  0  0  0
   -1.5240   26.0550  -28.9600 O   0  0  0  0  0  0  0  0  0  0  0  0
    0.2240   24.6330  -28.5720 O   0  0  0  0  0  0  0  0  0  0  0  0
   -6.3700   21.8800  -31.6910 C   0  0  0  0  0  0  0  0  0  0  0  0
   -6.2330   20.5430  -32.0800 C   0  0  0  0  0  0  0  0  0  0  0  0
   -7.2547   17.7405  -31.8719 H   0  0  0  0  0  0  0  0  0  0  0  0
   -8.1797   18.0879  -33.3721 H   0  0  0  0  0  0  0  0  0  0  0  0
   -6.3878   18.2145  -33.3721 H   0  0  0  0  0  0  0  0  0  0  0  0
   -9.5822   19.8409  -32.4520 H   0  0  0  0  0  0  0  0  0  0  0  0
   -9.7622   22.2534  -31.7529 H   0  0  0  0  0  0  0  0  0  0  0  0
   -8.1912   24.5346  -31.0231 H   0  0  0  0  0  0  0  0  0  0  0  0
   -3.4750   25.6740  -29.7330 H   0  0  0  0  0  0  0  0  0  0  0  0
   -1.2746   22.5904  -29.3718 H   0  0  0  0  0  0  0  0  0  0  0  0
   -1.3436   21.6842  -30.9212 H   0  0  0  0  0  0  0  0  0  0  0  0
   -1.4825   23.4751  -30.9212 H   0  0  0  0  0  0  0  0  0  0  0  0
   -4.7892   22.5271  -28.8815 H   0  0  0  0  0  0  0  0  0  0  0  0
   -3.8471   20.9722  -28.9097 H   0  0  0  0  0  0  0  0  0  0  0  0
   -4.4466   24.6300  -26.0253 H   0  0  0  0  0  0  0  0  0  0  0  0
   -4.2647   25.5406  -27.5630 H   0  0  0  0  0  0  0  0  0  0  0  0
   -5.0521   23.9261  -27.5630 H   0  0  0  0  0  0  0  0  0  0  0  0
   -1.0212   23.9673  -26.5178 H   0  0  0  0  0  0  0  0  0  0  0  0
   -1.9189   25.3771  -24.9747 H   0  0  0  0  0  0  0  0  0  0  0  0
   -1.3101   26.5951  -26.1463 H   0  0  0  0  0  0  0  0  0  0  0  0
   -3.0475   26.1390  -26.1463 H   0  0  0  0  0  0  0  0  0  0  0  0
   -5.2399   20.0753  -32.1516 H   0  0  0  0  0  0  0  0  0  0  0  0
  1  2  1  0
  2  3  2  0
  3  4  1  0
  4  5  2  0
  5  6  1  0
  6  7  2  0
  7  8  1  0
  8  9  1  0
  8 10  2  0
  7 11  1  0
 11 12  1  0
 12 13  2  0
 12 14  1  0
 14 15  1  0
 14 16  1  0
 16 17  1  0
 17 18  2  0
 17 19  1  0
 19 20  1  0
 19 21  1  0
 21 22  1  0
 21 23  1  0
 23 24  2  0
 23 25  1  0
 11 26  1  0
 26 27  2  0
 27  2  1  0
 26  5  1  0
  1 28  1  0
  1 29  1  0
  1 30  1  0
  3 31  1  0
  4 32  1  0
  6 33  1  0
  9 34  1  0
 15 35  1  0
 15 36  1  0
 15 37  1  0
 16 38  1  0
 16 39  1  0
 20 40  1  0
 20 41  1  0
 20 42  1  0
 21 43  1  1
 22 44  1  0
 22 45  1  0
 22 46  1  0
 27 47  1  0
M  CHG  2   9  -1  25  -1
M  END
>  <UniqueID>  (8) 
8

>  <SMILES>  (8) 
Cc1ccc2cc(C([NH-])=O)n(C(=O)N(C)CC(=O)N(C)[C@H](C)C(=O)[O-])c2c1

>  <Energy>  (8) 
85.54464900189701

>  <Genealogy>  (8) 
Cc1ccc2cc(C([NH-])=O)n(C(=O)N(C)CC(=O)N(C)C(C)C(=O)[O-])c2c1 (protonated)
Cc1ccc2cc(C([NH-])=O)n(C(=O)N(C)CC(=O)N(C)[C@H](C)C(=O)[O-])c2c1 (chirality)
Cc1ccc2cc(C([NH-])=O)n(C(=O)N(C)CC(=O)N(C)[C@H](C)C(=O)[O-])c2c1 (3D coordinates assigned)
Cc1ccc2cc(C([NH-])=O)n(C(=O)N(C)CC(=O)N(C)[C@H](C)C(=O)[O-])c2c1 (optimized conformer: 85.54464900189701 kcal/mol)

>  <smiles>  (8) 
Cc1ccc2cc(C(N)=O)n(C(=O)N(C)CC(=O)N(C)C(C)C(=O)O)c2c1

>  <score_type>  (8) 
oracle

>  <origin>  (8) 
adg

>  <m_score__min__energy>  (8) 
-13.65

>  <m_primary>  (8) 
energy

$$$$
8:0
     RDKit          3D

 45 46  0  0  0  0  0  0  0  0999 V2000
   -4.1930   24.3580  -27.4550 C   0  0  0  0  0  0  0  0  0  0  0  0
   -3.3720   23.9150  -28.5820 N   0  0  0  0  0  0  0  0  0  0  0  0
   -1.9730   23.5470  -28.3750 C   0  0  0  0  0  0  0  0  0  0  0  0
   -1.0840   24.7110  -28.6900 C   0  0  0  0  0  0  0  0  0  0  0  0
   -1.5340   25.6980  -29.3250 O   0  0  0  0  0  0  0  0  0  0  0  0
    0.2590   24.6830  -28.3340 O   0  0  0  0  0  0  0  0  0  0  0  0
   -3.9550   23.8050  -29.8880 C   0  0  0  0  0  0  0  0  0  0  0  0
   -4.1680   24.8480  -30.5620 O   0  0  0  0  0  0  0  0  0  0  0  0
   -4.3950   22.4780  -30.4410 C   0  0  0  0  0  0  0  0  0  0  0  0
   -3.5000   22.0650  -31.5350 N   0  0  0  0  0  0  0  0  0  0  0  0
   -2.0580   22.0160  -31.2840 C   0  0  0  0  0  0  0  0  0  0  0  0
   -4.0240   21.6300  -32.8100 C   0  0  0  0  0  0  0  0  0  0  0  0
   -3.8440   22.3290  -33.8440 O   0  0  0  0  0  0  0  0  0  0  0  0
   -4.7000   20.3730  -32.9400 N   0  0  0  0  0  0  0  0  0  0  0  0
   -4.1770   19.2020  -33.3840 C   0  0  0  0  0  0  0  0  0  0  0  0
   -2.7530   18.9840  -33.7520 C   0  0  0  0  0  0  0  0  0  0  0  0
   -1.9730   20.0230  -34.3510 N   0  0  0  0  0  0  0  0  0  0  0  0
   -2.2160   17.8540  -33.5660 O   0  0  0  0  0  0  0  0  0  0  0  0
   -5.1630   18.2080  -33.3840 C   0  0  0  0  0  0  0  0  0  0  0  0
   -6.3110   18.8350  -32.9470 C   0  0  0  0  0  0  0  0  0  0  0  0
   -7.5870   18.3270  -32.7410 C   0  0  0  0  0  0  0  0  0  0  0  0
   -8.5790   19.2100  -32.2770 C   0  0  0  0  0  0  0  0  0  0  0  0
   -8.2840   20.5760  -32.0460 C   0  0  0  0  0  0  0  0  0  0  0  0
   -9.3440   21.4950  -31.4850 C   0  0  0  0  0  0  0  0  0  0  0  0
  -10.5970   21.1550  -31.9690 F   0  0  0  0  0  0  0  0  0  0  0  0
   -9.0600   22.7950  -31.8580 F   0  0  0  0  0  0  0  0  0  0  0  0
   -9.3750   21.4130  -30.1040 F   0  0  0  0  0  0  0  0  0  0  0  0
   -6.9670   21.0460  -32.2410 C   0  0  0  0  0  0  0  0  0  0  0  0
   -6.0020   20.1420  -32.6920 C   0  0  0  0  0  0  0  0  0  0  0  0
   -3.6957   24.0897  -26.5112 H   0  0  0  0  0  0  0  0  0  0  0  0
   -4.3238   25.4491  -27.5032 H   0  0  0  0  0  0  0  0  0  0  0  0
   -5.1768   23.8683  -27.5032 H   0  0  0  0  0  0  0  0  0  0  0  0
   -1.8260   23.2500  -27.3261 H   0  0  0  0  0  0  0  0  0  0  0  0
   -1.7185   22.7085  -29.0399 H   0  0  0  0  0  0  0  0  0  0  0  0
   -4.3655   21.7228  -29.6418 H   0  0  0  0  0  0  0  0  0  0  0  0
   -5.4199   22.5713  -30.8295 H   0  0  0  0  0  0  0  0  0  0  0  0
   -1.8746   22.0098  -30.1994 H   0  0  0  0  0  0  0  0  0  0  0  0
   -1.6386   21.1031  -31.7320 H   0  0  0  0  0  0  0  0  0  0  0  0
   -1.5776   22.8983  -31.7320 H   0  0  0  0  0  0  0  0  0  0  0  0
   -2.3750   20.9460  -34.6070 H   0  0  0  0  0  0  0  0  0  0  0  0
   -0.9780   19.8350  -34.6000 H   0  0  0  0  0  0  0  0  0  0  0  0
   -5.0468   17.1525  -33.6712 H   0  0  0  0  0  0  0  0  0  0  0  0
   -7.8147   17.2683  -32.9344 H   0  0  0  0  0  0  0  0  0  0  0  0
   -9.5963   18.8350  -32.0913 H   0  0  0  0  0  0  0  0  0  0  0  0
   -6.7075   22.0965  -32.0430 H   0  0  0  0  0  0  0  0  0  0  0  0
  1  2  1  0
  2  3  1  0
  3  4  1  0
  4  5  2  0
  4  6  1  0
  2  7  1  0
  7  8  2  0
  7  9  1  0
  9 10  1  0
 10 11  1  0
 10 12  1  0
 12 13  2  0
 12 14  1  0
 14 15  1  0
 15 16  1  0
 16 17  1  0
 16 18  2  0
 15 19  2  0
 19 20  1  0
 20 21  2  0
 21 22  1  0
 22 23  2  0
 23 24  1  0
 24 25  1  0
 24 26  1  0
 24 27  1  0
 23 28  1  0
 28 29  2  0
 29 14  1  0
 29 20  1  0
  1 30  1  0
  1 31  1  0
  1 32  1  0
  3 33  1  0
  3 34  1  0
  9 35  1  0
  9 36  1  0
 11 37  1  0
 11 38  1  0
 11 39  1  0
 17 40  1  0
 17 41  1  0
 19 42  1  0
 21 43  1  0
 22 44  1  0
 28 45  1  0
M  CHG  1   6  -1
M  END
>  <UniqueID>  (9) 
9

>  <SMILES>  (9) 
CN(CC(=O)[O-])C(=O)CN(C)C(=O)n1c(C(N)=O)cc2ccc(C(F)(F)F)cc21

>  <Energy>  (9) 
83.99345769581555

>  <Genealogy>  (9) 
CN(CC(=O)[O-])C(=O)CN(C)C(=O)n1c(C(N)=O)cc2ccc(C(F)(F)F)cc21 (protonated)
CN(CC(=O)[O-])C(=O)CN(C)C(=O)n1c(C(N)=O)cc2ccc(C(F)(F)F)cc21 (3D coordinates assigned)
CN(CC(=O)[O-])C(=O)CN(C)C(=O)n1c(C(N)=O)cc2ccc(C(F)(F)F)cc21 (optimized conformer: 83.99345769581555 kcal/mol)

>  <smiles>  (9) 
CN(CC(=O)O)C(=O)CN(C)C(=O)n1c(C(N)=O)cc2ccc(C(F)(F)F)cc21

>  <score_type>  (9) 
oracle

>  <origin>  (9) 
adg

>  <m_score__min__energy>  (9) 
-10.529999999999999

>  <m_primary>  (9) 
energy

$$$$
9:0
     RDKit          3D

 39 40  0  0  0  0  0  0  0  0999 V2000
   -6.9800   18.3450  -32.4820 C   0  0  0  0  0  0  0  0  0  0  0  0
   -7.1430   19.7930  -32.1200 C   0  0  0  0  0  0  0  0  0  0  0  0
   -8.4040   20.4270  -32.2500 C   0  0  0  0  0  0  0  0  0  0  0  0
   -8.5500   21.7950  -31.9640 C   0  0  0  0  0  0  0  0  0  0  0  0
   -7.4210   22.5000  -31.5560 C   0  0  0  0  0  0  0  0  0  0  0  0
   -7.2740   23.8340  -31.2560 C   0  0  0  0  0  0  0  0  0  0  0  0
   -5.9290   23.9960  -30.9320 C   0  0  0  0  0  0  0  0  0  0  0  0
   -5.3540   25.2850  -30.4880 C   0  0  0  0  0  0  0  0  0  0  0  0
   -4.0270   25.6640  -30.8410 N   0  0  0  0  0  0  0  0  0  0  0  0
   -6.0370   26.0490  -29.7510 O   0  0  0  0  0  0  0  0  0  0  0  0
   -5.2660   22.8070  -31.0320 N   0  0  0  0  0  0  0  0  0  0  0  0
   -3.8610   22.5650  -30.8300 C   0  0  0  0  0  0  0  0  0  0  0  0
   -3.0210   23.0820  -31.6150 O   0  0  0  0  0  0  0  0  0  0  0  0
   -3.3900   21.6530  -29.7310 C   0  0  0  0  0  0  0  0  0  0  0  0
   -3.1570   22.3930  -28.4460 C   0  0  0  0  0  0  0  0  0  0  0  0
   -2.8690   21.7430  -27.4010 O   0  0  0  0  0  0  0  0  0  0  0  0
   -3.2830   23.8210  -28.3980 N   0  0  0  0  0  0  0  0  0  0  0  0
   -3.1940   24.5830  -27.1510 C   0  0  0  0  0  0  0  0  0  0  0  0
   -1.7950   25.1810  -26.9710 C   0  0  0  0  0  0  0  0  0  0  0  0
   -1.0580   25.2510  -28.2760 C   0  0  0  0  0  0  0  0  0  0  0  0
   -1.6380   25.6780  -29.3100 O   0  0  0  0  0  0  0  0  0  0  0  0
    0.2800   24.8850  -28.3400 O   0  0  0  0  0  0  0  0  0  0  0  0
   -6.1940   21.9000  -31.4160 C   0  0  0  0  0  0  0  0  0  0  0  0
   -6.0190   20.5430  -31.7160 C   0  0  0  0  0  0  0  0  0  0  0  0
   -6.9122   17.7429  -31.5639 H   0  0  0  0  0  0  0  0  0  0  0  0
   -7.8467   18.0151  -33.0737 H   0  0  0  0  0  0  0  0  0  0  0  0
   -6.0617   18.2161  -33.0737 H   0  0  0  0  0  0  0  0  0  0  0  0
   -9.2764   19.8427  -32.5778 H   0  0  0  0  0  0  0  0  0  0  0  0
   -9.5260   22.2933  -32.0595 H   0  0  0  0  0  0  0  0  0  0  0  0
   -8.0540   24.6095  -31.2691 H   0  0  0  0  0  0  0  0  0  0  0  0
   -3.2170   25.0340  -30.6470 H   0  0  0  0  0  0  0  0  0  0  0  0
   -4.1524   20.8784  -29.5613 H   0  0  0  0  0  0  0  0  0  0  0  0
   -2.4339   21.2089  -30.0450 H   0  0  0  0  0  0  0  0  0  0  0  0
   -3.4300   24.3470  -29.2890 H   0  0  0  0  0  0  0  0  0  0  0  0
   -3.9330   25.3974  -27.1737 H   0  0  0  0  0  0  0  0  0  0  0  0
   -3.3951   23.9031  -26.3100 H   0  0  0  0  0  0  0  0  0  0  0  0
   -1.8900   26.1963  -26.5586 H   0  0  0  0  0  0  0  0  0  0  0  0
   -1.2270   24.5336  -26.2867 H   0  0  0  0  0  0  0  0  0  0  0  0
   -5.0275   20.0730  -31.6383 H   0  0  0  0  0  0  0  0  0  0  0  0
  1  2  1  0
  2  3  2  0
  3  4  1  0
  4  5  2  0
  5  6  1  0
  6  7  2  0
  7  8  1  0
  8  9  1  0
  8 10  2  0
  7 11  1  0
 11 12  1  0
 12 13  2  0
 12 14  1  0
 14 15  1  0
 15 16  2  0
 15 17  1  0
 17 18  1  0
 18 19  1  0
 19 20  1  0
 20 21  2  0
 20 22  1  0
 11 23  1  0
 23 24  2  0
 24  2  1  0
 23  5  1  0
  1 25  1  0
  1 26  1  0
  1 27  1  0
  3 28  1  0
  4 29  1  0
  6 30  1  0
  9 31  1  0
 14 32  1  0
 14 33  1  0
 17 34  1  0
 18 35  1  0
 18 36  1  0
 19 37  1  0
 19 38  1  0
 24 39  1  0
M  CHG  2   9  -1  22  -1
M  END
>  <UniqueID>  (10) 
10

>  <SMILES>  (10) 
Cc1ccc2cc(C([NH-])=O)n(C(=O)CC(=O)NCCC(=O)[O-])c2c1

>  <Energy>  (10) 
71.31562907082994

>  <Genealogy>  (10) 
Cc1ccc2cc(C([NH-])=O)n(C(=O)CC(=O)NCCC(=O)[O-])c2c1 (protonated)
Cc1ccc2cc(C([NH-])=O)n(C(=O)CC(=O)NCCC(=O)[O-])c2c1 (3D coordinates assigned)
Cc1ccc2cc(C([NH-])=O)n(C(=O)CC(=O)NCCC(=O)[O-])c2c1 (optimized conformer: 71.31562907082994 kcal/mol)

>  <smiles>  (10) 
Cc1ccc2cc(C(N)=O)n(C(=O)CC(=O)NCCC(=O)O)c2c1

>  <score_type>  (10) 
oracle

>  <origin>  (10) 
adg

>  <m_score__min__energy>  (10) 
-12.74

>  <m_primary>  (10) 
energy

$$$$
10:0
     RDKit          3D

 44 45  0  0  0  0  0  0  0  0999 V2000
   -0.3940   21.8450  -28.7230 C   0  0  0  0  0  0  0  0  0  0  0  0
   -0.9540   21.3560  -29.9760 N   0  0  0  0  0  0  0  0  0  0  0  0
   -0.4050   20.2210  -30.6570 C   0  0  0  0  0  0  0  0  0  0  0  0
    0.6020   19.6240  -30.1880 O   0  0  0  0  0  0  0  0  0  0  0  0
   -1.0330   19.7340  -31.9270 C   0  0  0  0  0  0  0  0  0  0  0  0
   -1.9730   20.7480  -32.4450 N   0  0  0  0  0  0  0  0  0  0  0  0
   -1.6260   21.1930  -33.8170 C   0  0  0  0  0  0  0  0  0  0  0  0
   -0.1450   21.2000  -34.0970 C   0  0  0  0  0  0  0  0  0  0  0  0
    0.3580   22.1530  -34.6690 O   0  0  0  0  0  0  0  0  0  0  0  0
   -3.3830   20.3200  -32.3210 C   0  0  0  0  0  0  0  0  0  0  0  0
   -3.9950   20.9050  -31.0820 C   0  0  0  0  0  0  0  0  0  0  0  0
   -3.5150   20.6040  -29.9550 O   0  0  0  0  0  0  0  0  0  0  0  0
   -5.0600   21.8640  -31.1690 N   0  0  0  0  0  0  0  0  0  0  0  0
   -5.0100   23.2020  -30.9180 C   0  0  0  0  0  0  0  0  0  0  0  0
   -3.7860   23.9840  -30.6450 C   0  0  0  0  0  0  0  0  0  0  0  0
   -3.8670   25.3970  -30.4880 N   0  0  0  0  0  0  0  0  0  0  0  0
   -2.6630   23.4170  -30.5810 O   0  0  0  0  0  0  0  0  0  0  0  0
   -6.2780   23.7680  -31.0370 C   0  0  0  0  0  0  0  0  0  0  0  0
   -7.1100   22.7280  -31.3850 C   0  0  0  0  0  0  0  0  0  0  0  0
   -8.4830   22.7160  -31.6200 C   0  0  0  0  0  0  0  0  0  0  0  0
   -9.0850   21.4870  -31.9400 C   0  0  0  0  0  0  0  0  0  0  0  0
   -8.3090   20.3050  -32.0280 C   0  0  0  0  0  0  0  0  0  0  0  0
   -8.9710   18.9920  -32.3220 C   0  0  0  0  0  0  0  0  0  0  0  0
   -6.9230   20.3530  -31.7710 C   0  0  0  0  0  0  0  0  0  0  0  0
   -6.3490   21.5920  -31.4630 C   0  0  0  0  0  0  0  0  0  0  0  0
   -0.9249   21.3814  -27.8785 H   0  0  0  0  0  0  0  0  0  0  0  0
    0.6736   21.5849  -28.6723 H   0  0  0  0  0  0  0  0  0  0  0  0
   -0.5079   22.9379  -28.6723 H   0  0  0  0  0  0  0  0  0  0  0  0
   -1.7850   21.8430  -30.3820 H   0  0  0  0  0  0  0  0  0  0  0  0
   -0.2475   19.5494  -32.6746 H   0  0  0  0  0  0  0  0  0  0  0  0
   -1.5814   18.8020  -31.7252 H   0  0  0  0  0  0  0  0  0  0  0  0
   -2.1116   20.5155  -34.5347 H   0  0  0  0  0  0  0  0  0  0  0  0
   -1.9760   22.2312  -33.9156 H   0  0  0  0  0  0  0  0  0  0  0  0
    0.4797   20.3494  -33.7869 H   0  0  0  0  0  0  0  0  0  0  0  0
   -3.9458   20.6637  -33.2014 H   0  0  0  0  0  0  0  0  0  0  0  0
   -3.4206   19.2226  -32.2562 H   0  0  0  0  0  0  0  0  0  0  0  0
   -3.5040   26.0410  -31.2260 H   0  0  0  0  0  0  0  0  0  0  0  0
   -6.5550   24.8217  -30.8851 H   0  0  0  0  0  0  0  0  0  0  0  0
   -9.0774   23.6395  -31.5571 H   0  0  0  0  0  0  0  0  0  0  0  0
  -10.1686   21.4424  -32.1238 H   0  0  0  0  0  0  0  0  0  0  0  0
   -9.2244   18.4894  -31.3769 H   0  0  0  0  0  0  0  0  0  0  0  0
   -9.8891   19.1661  -32.9024 H   0  0  0  0  0  0  0  0  0  0  0  0
   -8.2851   18.3574  -32.9024 H   0  0  0  0  0  0  0  0  0  0  0  0
   -6.3094   19.4410  -31.8115 H   0  0  0  0  0  0  0  0  0  0  0  0
  1  2  1  0
  2  3  1  0
  3  4  2  0
  3  5  1  0
  5  6  1  0
  6  7  1  0
  7  8  1  0
  8  9  2  0
  6 10  1  0
 10 11  1  0
 11 12  2  0
 11 13  1  0
 13 14  1  0
 14 15  1  0
 15 16  1  0
 15 17  2  0
 14 18  2  0
 18 19  1  0
 19 20  2  0
 20 21  1  0
 21 22  2  0
 22 23  1  0
 22 24  1  0
 24 25  2  0
 25 13  1  0
 25 19  1  0
  1 26  1  0
  1 27  1  0
  1 28  1  0
  2 29  1  0
  5 30  1  0
  5 31  1  0
  7 32  1  0
  7 33  1  0
  8 34  1  0
 10 35  1  0
 10 36  1  0
 16 37  1  0
 18 38  1  0
 20 39  1  0
 21 40  1  0
 23 41  1  0
 23 42  1  0
 23 43  1  0
 24 44  1  0
M  CHG  1  16  -1
M  END
>  <UniqueID>  (11) 
11

>  <SMILES>  (11) 
CNC(=O)CN(CC=O)CC(=O)n1c(C([NH-])=O)cc2ccc(C)cc21

>  <Energy>  (11) 
79.94990766065655

>  <Genealogy>  (11) 
CNC(=O)CN(CC=O)CC(=O)n1c(C([NH-])=O)cc2ccc(C)cc21 (protonated)
CNC(=O)CN(CC=O)CC(=O)n1c(C([NH-])=O)cc2ccc(C)cc21 (3D coordinates assigned)
CNC(=O)CN(CC=O)CC(=O)n1c(C([NH-])=O)cc2ccc(C)cc21 (optimized conformer: 79.94990766065655 kcal/mol)

>  <smiles>  (11) 
CNC(=O)CN(CC=O)CC(=O)n1c(C(N)=O)cc2ccc(C)cc21

>  <score_type>  (11) 
oracle

>  <origin>  (11) 
adg

>  <m_score__min__energy>  (11) 
-10.43

>  <m_primary>  (11) 
energy

$$$$
11:0
     RDKit          3D

 46 48  0  0  0  0  0  0  0  0999 V2000
   -3.5060   25.1600  -30.1810 N   0  0  0  0  0  0  0  0  0  0  0  0
   -4.8840   25.2770  -30.5260 C   0  0  0  0  0  0  0  0  0  0  0  0
   -5.4230   26.4150  -30.5380 O   0  0  0  0  0  0  0  0  0  0  0  0
   -5.6650   24.0720  -30.8680 C   0  0  0  0  0  0  0  0  0  0  0  0
   -7.0580   24.0110  -30.8410 C   0  0  0  0  0  0  0  0  0  0  0  0
   -7.3700   22.7080  -31.1640 C   0  0  0  0  0  0  0  0  0  0  0  0
   -8.6060   22.0690  -31.2310 C   0  0  0  0  0  0  0  0  0  0  0  0
   -8.6240   20.6990  -31.5540 C   0  0  0  0  0  0  0  0  0  0  0  0
   -7.4160   19.9950  -31.8080 C   0  0  0  0  0  0  0  0  0  0  0  0
   -7.4450   18.5160  -32.1050 C   0  0  0  0  0  0  0  0  0  0  0  0
   -7.0340   18.3040  -33.4100 F   0  0  0  0  0  0  0  0  0  0  0  0
   -8.7270   18.0100  -31.9510 F   0  0  0  0  0  0  0  0  0  0  0  0
   -6.6040   17.8310  -31.2470 F   0  0  0  0  0  0  0  0  0  0  0  0
   -6.1800   20.6700  -31.6870 C   0  0  0  0  0  0  0  0  0  0  0  0
   -6.1940   22.0350  -31.3690 C   0  0  0  0  0  0  0  0  0  0  0  0
   -5.1410   22.8580  -31.1980 N   0  0  0  0  0  0  0  0  0  0  0  0
   -3.7570   22.5170  -31.3690 C   0  0  0  0  0  0  0  0  0  0  0  0
   -3.2270   22.6580  -32.5050 O   0  0  0  0  0  0  0  0  0  0  0  0
   -2.9710   22.0240  -30.2610 N   0  0  0  0  0  0  0  0  0  0  0  0
   -3.6140   22.0100  -28.9340 C   0  0  0  0  0  0  0  0  0  0  0  0
   -2.7120   21.4310  -27.8320 C   0  0  0  0  0  0  0  0  0  0  0  0
   -1.3630   21.7910  -28.0300 O   0  0  0  0  0  0  0  0  0  0  0  0
   -0.8910   21.1380  -29.1850 C   0  0  0  0  0  0  0  0  0  0  0  0
   -1.5300   21.7450  -30.4440 C   0  0  1  0  0  0  0  0  0  0  0  0
   -1.2990   20.8150  -31.6120 C   0  0  0  0  0  0  0  0  0  0  0  0
   -1.3090   19.5660  -31.4260 O   0  0  0  0  0  0  0  0  0  0  0  0
   -1.0310   21.3470  -32.9180 N   0  0  0  0  0  0  0  0  0  0  0  0
   -0.7880   20.4770  -34.0690 C   0  0  0  0  0  0  0  0  0  0  0  0
   -0.0740   21.2090  -35.1670 C   0  0  0  0  0  0  0  0  0  0  0  0
    0.1860   20.6330  -36.2590 O   0  0  0  0  0  0  0  0  0  0  0  0
    0.2320   22.5530  -35.0140 O   0  0  0  0  0  0  0  0  0  0  0  0
   -3.1220   25.6250  -29.3270 H   0  0  0  0  0  0  0  0  0  0  0  0
   -7.7579   24.8279  -30.6111 H   0  0  0  0  0  0  0  0  0  0  0  0
   -9.5393   22.6181  -31.0375 H   0  0  0  0  0  0  0  0  0  0  0  0
   -9.5850   20.1668  -31.6105 H   0  0  0  0  0  0  0  0  0  0  0  0
   -5.2299   20.1368  -31.8388 H   0  0  0  0  0  0  0  0  0  0  0  0
   -3.8791   23.0425  -28.6627 H   0  0  0  0  0  0  0  0  0  0  0  0
   -4.5001   21.3622  -29.0061 H   0  0  0  0  0  0  0  0  0  0  0  0
   -3.0459   21.8159  -26.8571 H   0  0  0  0  0  0  0  0  0  0  0  0
   -2.7862   20.3340  -27.8644 H   0  0  0  0  0  0  0  0  0  0  0  0
    0.2017   21.2500  -29.2434 H   0  0  0  0  0  0  0  0  0  0  0  0
   -1.1598   20.0729  -29.1271 H   0  0  0  0  0  0  0  0  0  0  0  0
   -1.0514   22.7149  -30.6444 H   0  0  0  0  0  0  0  0  0  0  0  0
   -1.1170   22.3800  -33.0640 H   0  0  0  0  0  0  0  0  0  0  0  0
   -0.1726   19.6233  -33.7488 H   0  0  0  0  0  0  0  0  0  0  0  0
   -1.7593   20.1346  -34.4555 H   0  0  0  0  0  0  0  0  0  0  0  0
  1  2  1  0
  2  3  2  0
  2  4  1  0
  4  5  2  0
  5  6  1  0
  6  7  2  0
  7  8  1  0
  8  9  2  0
  9 10  1  0
 10 11  1  0
 10 12  1  0
 10 13  1  0
  9 14  1  0
 14 15  2  0
 15 16  1  0
 16 17  1  0
 17 18  2  0
 17 19  1  0
 19 20  1  0
 20 21  1  0
 21 22  1  0
 22 23  1  0
 23 24  1  0
 24 25  1  0
 25 26  2  0
 25 27  1  0
 27 28  1  0
 28 29  1  0
 29 30  2  0
 29 31  1  0
 16  4  1  0
 24 19  1  0
 15  6  1  0
  1 32  1  0
  5 33  1  0
  7 34  1  0
  8 35  1  0
 14 36  1  0
 20 37  1  0
 20 38  1  0
 21 39  1  0
 21 40  1  0
 23 41  1  0
 23 42  1  0
 24 43  1  6
 27 44  1  0
 28 45  1  0
 28 46  1  0
M  CHG  2   1  -1  31  -1
M  END
>  <UniqueID>  (12) 
12

>  <SMILES>  (12) 
[NH-]C(=O)c1cc2ccc(C(F)(F)F)cc2n1C(=O)N1CCOC[C@H]1C(=O)NCC(=O)[O-]

>  <Energy>  (12) 
86.19070547278238

>  <Genealogy>  (12) 
[NH-]C(=O)c1cc2ccc(C(F)(F)F)cc2n1C(=O)N1CCOCC1C(=O)NCC(=O)[O-] (protonated)
[NH-]C(=O)c1cc2ccc(C(F)(F)F)cc2n1C(=O)N1CCOC[C@H]1C(=O)NCC(=O)[O-] (chirality)
[NH-]C(=O)c1cc2ccc(C(F)(F)F)cc2n1C(=O)N1CCOC[C@H]1C(=O)NCC(=O)[O-] (3D coordinates assigned)
[NH-]C(=O)c1cc2ccc(C(F)(F)F)cc2n1C(=O)N1CCOC[C@H]1C(=O)NCC(=O)[O-] (nonaromatic ring conformer: 86.19070547278238 kcal/mol)

>  <smiles>  (12) 
NC(=O)c1cc2ccc(C(F)(F)F)cc2n1C(=O)N1CCOCC1C(=O)NCC(=O)O

>  <score_type>  (12) 
oracle

>  <origin>  (12) 
adg

>  <m_score__min__energy>  (12) 
-12.279999999999999

>  <m_primary>  (12) 
energy

$$$$
12:0
     RDKit          3D

 48 49  0  0  0  0  0  0  0  0999 V2000
   -8.4300   18.7120  -32.6830 C   0  0  0  0  0  0  0  0  0  0  0  0
   -7.9500   19.9740  -32.0300 C   0  0  0  0  0  0  0  0  0  0  0  0
   -8.8650   20.8170  -31.3520 C   0  0  0  0  0  0  0  0  0  0  0  0
   -8.4360   22.0280  -30.7820 C   0  0  0  0  0  0  0  0  0  0  0  0
   -7.0920   22.3680  -30.9080 C   0  0  0  0  0  0  0  0  0  0  0  0
   -6.4190   23.4960  -30.4950 C   0  0  0  0  0  0  0  0  0  0  0  0
   -5.1040   23.3160  -30.9190 C   0  0  0  0  0  0  0  0  0  0  0  0
   -4.0190   24.2820  -30.6490 C   0  0  0  0  0  0  0  0  0  0  0  0
   -2.7580   23.8600  -30.1280 N   0  0  0  0  0  0  0  0  0  0  0  0
   -4.2230   25.5100  -30.8470 O   0  0  0  0  0  0  0  0  0  0  0  0
   -4.9720   22.1310  -31.5780 N   0  0  0  0  0  0  0  0  0  0  0  0
   -3.8240   21.6320  -32.2820 C   0  0  0  0  0  0  0  0  0  0  0  0
   -3.5270   22.1060  -33.4110 O   0  0  0  0  0  0  0  0  0  0  0  0
   -2.9140   20.6210  -31.6470 C   0  0  0  0  0  0  0  0  0  0  0  0
   -2.5900   21.0220  -30.3300 O   0  0  0  0  0  0  0  0  0  0  0  0
   -1.6650   20.1210  -29.7540 C   0  0  0  0  0  0  0  0  0  0  0  0
   -1.4490   20.4710  -28.2840 C   0  0  0  0  0  0  0  0  0  0  0  0
   -1.6130   21.8710  -28.0640 O   0  0  0  0  0  0  0  0  0  0  0  0
   -2.8420   22.4720  -27.7730 C   0  0  0  0  0  0  0  0  0  0  0  0
   -3.8500   21.7700  -27.4840 O   0  0  0  0  0  0  0  0  0  0  0  0
   -2.9340   23.8660  -27.7980 O   0  0  0  0  0  0  0  0  0  0  0  0
   -2.8530   24.6620  -26.6190 C   0  0  0  0  0  0  0  0  0  0  0  0
   -1.4100   25.1090  -26.4100 C   0  0  0  0  0  0  0  0  0  0  0  0
   -0.6000   25.4470  -28.0040 P   0  0  0  0  0  0  0  0  0  0  0  0
    0.7050   26.1740  -27.7700 O   0  0  0  0  0  0  0  0  0  0  0  0
   -1.6110   26.4030  -28.9660 O   0  0  0  0  0  0  0  0  0  0  0  0
   -0.2930   23.9850  -28.7960 O   0  0  0  0  0  0  0  0  0  0  0  0
   -6.1950   21.5600  -31.5590 C   0  0  0  0  0  0  0  0  0  0  0  0
   -6.5960   20.3590  -32.1520 C   0  0  0  0  0  0  0  0  0  0  0  0
   -8.7079   17.9814  -31.9090 H   0  0  0  0  0  0  0  0  0  0  0  0
   -9.3066   18.9338  -33.3095 H   0  0  0  0  0  0  0  0  0  0  0  0
   -7.6276   18.2952  -33.3095 H   0  0  0  0  0  0  0  0  0  0  0  0
   -9.9213   20.5208  -31.2710 H   0  0  0  0  0  0  0  0  0  0  0  0
   -9.1404   22.6866  -30.2528 H   0  0  0  0  0  0  0  0  0  0  0  0
   -6.8316   24.3560  -29.9471 H   0  0  0  0  0  0  0  0  0  0  0  0
   -1.9850   24.5510  -30.0040 H   0  0  0  0  0  0  0  0  0  0  0  0
   -2.6150   22.8870  -29.7780 H   0  0  0  0  0  0  0  0  0  0  0  0
   -3.4193   19.6444  -31.6166 H   0  0  0  0  0  0  0  0  0  0  0  0
   -1.9900   20.5446  -32.2389 H   0  0  0  0  0  0  0  0  0  0  0  0
   -2.0568   19.0961  -29.8316 H   0  0  0  0  0  0  0  0  0  0  0  0
   -0.7066   20.1929  -30.2891 H   0  0  0  0  0  0  0  0  0  0  0  0
   -2.1801   19.9223  -27.6721 H   0  0  0  0  0  0  0  0  0  0  0  0
   -0.4236   20.1891  -28.0029 H   0  0  0  0  0  0  0  0  0  0  0  0
   -3.4992   25.5456  -26.7272 H   0  0  0  0  0  0  0  0  0  0  0  0
   -3.1847   24.0713  -25.7524 H   0  0  0  0  0  0  0  0  0  0  0  0
   -1.4009   26.0242  -25.7998 H   0  0  0  0  0  0  0  0  0  0  0  0
   -0.8619   24.3030  -25.9002 H   0  0  0  0  0  0  0  0  0  0  0  0
   -5.8770   19.7310  -32.6986 H   0  0  0  0  0  0  0  0  0  0  0  0
  1  2  1  0
  2  3  2  0
  3  4  1  0
  4  5  2  0
  5  6  1  0
  6  7  2  0
  7  8  1  0
  8  9  1  0
  8 10  2  0
  7 11  1  0
 11 12  1  0
 12 13  2  0
 12 14  1  0
 14 15  1  0
 15 16  1  0
 16 17  1  0
 17 18  1  0
 18 19  1  0
 19 20  2  0
 19 21  1  0
 21 22  1  0
 22 23  1  0
 23 24  1  0
 24 25  2  0
 24 26  1  0
 24 27  1  0
 11 28  1  0
 28 29  2  0
 29  2  1  0
 28  5  1  0
  1 30  1  0
  1 31  1  0
  1 32  1  0
  3 33  1  0
  4 34  1  0
  6 35  1  0
  9 36  1  0
  9 37  1  0
 14 38  1  0
 14 39  1  0
 16 40  1  0
 16 41  1  0
 17 42  1  0
 17 43  1  0
 22 44  1  0
 22 45  1  0
 23 46  1  0
 23 47  1  0
 29 48  1  0
M  CHG  2  26  -1  27  -1
M  END
>  <UniqueID>  (13) 
13

>  <SMILES>  (13) 
Cc1ccc2cc(C(N)=O)n(C(=O)COCCOC(=O)OCCP(=O)([O-])[O-])c2c1

>  <Energy>  (13) 
76.67901032351901

>  <Genealogy>  (13) 
Cc1ccc2cc(C(N)=O)n(C(=O)COCCOC(=O)OCCP(=O)([O-])[O-])c2c1 (protonated)
Cc1ccc2cc(C(N)=O)n(C(=O)COCCOC(=O)OCCP(=O)([O-])[O-])c2c1 (3D coordinates assigned)
Cc1ccc2cc(C(N)=O)n(C(=O)COCCOC(=O)OCCP(=O)([O-])[O-])c2c1 (optimized conformer: 76.67901032351901 kcal/mol)

>  <smiles>  (13) 
Cc1ccc2cc(C(N)=O)n(C(=O)COCCOC(=O)OCCP(=O)(O)O)c2c1

>  <score_type>  (13) 
oracle

>  <origin>  (13) 
adg

>  <m_score__min__energy>  (13) 
-11.960000000000001

>  <m_primary>  (13) 
energy

$$$$
13:0
     RDKit          3D

 31 32  0  0  0  0  0  0  0  0999 V2000
   -6.1030   23.7680  -29.3480 N   0  0  0  0  0  0  0  0  0  0  0  0
   -6.5250   23.4210  -30.6700 C   0  0  0  0  0  0  0  0  0  0  0  0
   -7.4270   24.1060  -31.2270 O   0  0  0  0  0  0  0  0  0  0  0  0
   -5.9680   22.2350  -31.3640 C   0  0  0  0  0  0  0  0  0  0  0  0
   -6.5930   21.5670  -32.4150 C   0  0  0  0  0  0  0  0  0  0  0  0
   -5.6790   20.6280  -32.8490 C   0  0  0  0  0  0  0  0  0  0  0  0
   -5.7700   19.6930  -33.8750 C   0  0  0  0  0  0  0  0  0  0  0  0
   -4.6720   18.8410  -34.0870 C   0  0  0  0  0  0  0  0  0  0  0  0
   -3.5160   18.9320  -33.2720 C   0  0  0  0  0  0  0  0  0  0  0  0
   -2.3600   17.9970  -33.4860 C   0  0  0  0  0  0  0  0  0  0  0  0
   -1.0110   18.8570  -34.2500 Cl  0  0  0  0  0  0  0  0  0  0  0  0
   -3.4500   19.9120  -32.2630 C   0  0  0  0  0  0  0  0  0  0  0  0
   -4.5600   20.7450  -32.0750 C   0  0  0  0  0  0  0  0  0  0  0  0
   -4.7230   21.7210  -31.1610 N   0  0  0  0  0  0  0  0  0  0  0  0
   -3.7590   22.1050  -30.1700 C   0  0  0  0  0  0  0  0  0  0  0  0
   -3.8310   21.6180  -29.0180 O   0  0  0  0  0  0  0  0  0  0  0  0
   -2.6810   23.1030  -30.4880 C   0  0  0  0  0  0  0  0  0  0  0  0
   -3.0550   24.7180  -29.7330 P   0  0  0  0  0  0  0  0  0  0  0  0
   -3.8600   24.5230  -28.4700 O   0  0  0  0  0  0  0  0  0  0  0  0
   -3.9370   25.6710  -30.8130 O   0  0  0  0  0  0  0  0  0  0  0  0
   -1.6140   25.5070  -29.3300 O   0  0  0  0  0  0  0  0  0  0  0  0
   -5.3530   23.2420  -28.8710 H   0  0  0  0  0  0  0  0  0  0  0  0
   -6.5530   24.5780  -28.8630 H   0  0  0  0  0  0  0  0  0  0  0  0
   -7.6016   21.7494  -32.8144 H   0  0  0  0  0  0  0  0  0  0  0  0
   -6.6722   19.6226  -34.5004 H   0  0  0  0  0  0  0  0  0  0  0  0
   -4.7105   18.0952  -34.8947 H   0  0  0  0  0  0  0  0  0  0  0  0
   -2.0324   17.5961  -32.5155 H   0  0  0  0  0  0  0  0  0  0  0  0
   -2.6800   17.1748  -34.1430 H   0  0  0  0  0  0  0  0  0  0  0  0
   -2.5506   20.0204  -31.6391 H   0  0  0  0  0  0  0  0  0  0  0  0
   -1.7213   22.7349  -30.0962 H   0  0  0  0  0  0  0  0  0  0  0  0
   -2.6254   23.2275  -31.5795 H   0  0  0  0  0  0  0  0  0  0  0  0
  1  2  1  0
  2  3  2  0
  2  4  1  0
  4  5  2  0
  5  6  1  0
  6  7  2  0
  7  8  1  0
  8  9  2  0
  9 10  1  0
 10 11  1  0
  9 12  1  0
 12 13  2  0
 13 14  1  0
 14 15  1  0
 15 16  2  0
 15 17  1  0
 17 18  1  0
 18 19  2  0
 18 20  1  0
 18 21  1  0
 14  4  1  0
 13  6  1  0
  1 22  1  0
  1 23  1  0
  5 24  1  0
  7 25  1  0
  8 26  1  0
 10 27  1  0
 10 28  1  0
 12 29  1  0
 17 30  1  0
 17 31  1  0
M  CHG  2  20  -1  21  -1
M  END
>  <UniqueID>  (14) 
14

>  <SMILES>  (14) 
NC(=O)c1cc2ccc(CCl)cc2n1C(=O)CP(=O)([O-])[O-]

>  <Energy>  (14) 
65.40874759731312

>  <Genealogy>  (14) 
NC(=O)c1cc2ccc(CCl)cc2n1C(=O)CP(=O)([O-])[O-] (protonated)
NC(=O)c1cc2ccc(CCl)cc2n1C(=O)CP(=O)([O-])[O-] (3D coordinates assigned)
NC(=O)c1cc2ccc(CCl)cc2n1C(=O)CP(=O)([O-])[O-] (optimized conformer: 65.40874759731312 kcal/mol)

>  <smiles>  (14) 
NC(=O)c1cc2ccc(CCl)cc2n1C(=O)CP(=O)(O)O

>  <score_type>  (14) 
oracle

>  <origin>  (14) 
adg

>  <m_score__min__energy>  (14) 
-12.68

>  <m_primary>  (14) 
energy

$$$$
14:0
     RDKit          3D

 39 41  0  0  0  0  0  0  0  0999 V2000
   -3.4506   19.6851  -33.8269 H   0  0  0  0  0  0  0  0  0  0  0  0
   -3.4490   18.6510  -34.2020 C   0  0  0  0  0  0  0  0  0  0  0  0
   -2.5650   18.2569  -34.7247 H   0  0  0  0  0  0  0  0  0  0  0  0
   -4.5190   17.8750  -34.0230 C   0  0  0  0  0  0  0  0  0  0  0  0
   -5.6660   18.2510  -33.2670 N   0  0  0  0  0  0  0  0  0  0  0  0
   -6.0310   19.5660  -32.8100 C   0  0  0  0  0  0  0  0  0  0  0  0
   -7.3690   20.0160  -32.9200 C   0  0  0  0  0  0  0  0  0  0  0  0
   -8.1265   19.3639  -33.3792 H   0  0  0  0  0  0  0  0  0  0  0  0
   -7.7390   21.2860  -32.4490 C   0  0  0  0  0  0  0  0  0  0  0  0
   -8.7776   21.6398  -32.5273 H   0  0  0  0  0  0  0  0  0  0  0  0
   -6.7500   22.0830  -31.8800 C   0  0  0  0  0  0  0  0  0  0  0  0
   -6.8420   23.3330  -31.3130 C   0  0  0  0  0  0  0  0  0  0  0  0
   -7.7421   23.9580  -31.2173 H   0  0  0  0  0  0  0  0  0  0  0  0
   -5.5520   23.6380  -30.8860 C   0  0  0  0  0  0  0  0  0  0  0  0
   -5.1860   24.9250  -30.2610 C   0  0  0  0  0  0  0  0  0  0  0  0
   -4.3380   25.6680  -30.8250 O   0  0  0  0  0  0  0  0  0  0  0  0
   -5.7300   25.3170  -29.0000 N   0  0  0  0  0  0  0  0  0  0  0  0
   -6.2950   24.6530  -28.4260 H   0  0  0  0  0  0  0  0  0  0  0  0
   -5.4930   26.2490  -28.5940 H   0  0  0  0  0  0  0  0  0  0  0  0
   -4.6970   22.6150  -31.1650 N   0  0  0  0  0  0  0  0  0  0  0  0
   -3.3150   22.5020  -30.7800 C   0  0  0  0  0  0  0  0  0  0  0  0
   -2.7040   21.4120  -30.9560 O   0  0  0  0  0  0  0  0  0  0  0  0
   -2.6450   23.6250  -30.1930 N   0  0  0  0  0  0  0  0  0  0  0  0
   -1.5610   23.5350  -29.4860 C   0  0  0  0  0  0  0  0  0  0  0  0
   -1.1051   22.5510  -29.3019 H   0  0  0  0  0  0  0  0  0  0  0  0
   -0.9440   24.7420  -28.9330 C   0  0  0  0  0  0  0  0  0  0  0  0
    0.2010   24.6820  -28.4140 O   0  0  0  0  0  0  0  0  0  0  0  0
   -1.6140   25.9590  -28.9780 O   0  0  0  0  0  0  0  0  0  0  0  0
   -5.4460   21.6680  -31.7760 C   0  0  0  0  0  0  0  0  0  0  0  0
   -5.0580   20.3970  -32.2150 C   0  0  0  0  0  0  0  0  0  0  0  0
   -4.0193   20.0540  -32.0990 H   0  0  0  0  0  0  0  0  0  0  0  0
   -6.4960   17.1030  -33.2110 C   0  0  0  0  0  0  0  0  0  0  0  0
   -7.6190   17.0910  -32.6420 O   0  0  0  0  0  0  0  0  0  0  0  0
   -5.9240   15.9290  -33.9270 C   0  0  0  0  0  0  0  0  0  0  0  0
   -6.5953   15.5966  -34.7325 H   0  0  0  0  0  0  0  0  0  0  0  0
   -5.7847   15.0578  -33.2701 H   0  0  0  0  0  0  0  0  0  0  0  0
   -4.5960   16.4580  -34.5030 C   0  0  0  0  0  0  0  0  0  0  0  0
   -4.6059   16.4195  -35.6023 H   0  0  0  0  0  0  0  0  0  0  0  0
   -3.7315   15.8590  -34.1809 H   0  0  0  0  0  0  0  0  0  0  0  0
  1  2  1  0
  2  3  1  0
  2  4  2  0
  4  5  1  0
  5  6  1  0
  6  7  2  0
  7  8  1  0
  7  9  1  0
  9 10  1  0
  9 11  2  0
 11 12  1  0
 12 13  1  0
 12 14  2  0
 14 15  1  0
 15 16  2  0
 15 17  1  0
 17 18  1  0
 17 19  1  0
 14 20  1  0
 20 21  1  0
 21 22  2  0
 21 23  1  0
 23 24  2  0
 24 25  1  0
 24 26  1  0
 26 27  2  0
 26 28  1  0
 20 29  1  0
 29 30  2  0
 30 31  1  0
  5 32  1  0
 32 33  2  0
 32 34  1  0
 34 35  1  0
 34 36  1  0
 34 37  1  0
 37 38  1  0
 37 39  1  0
 37  4  1  0
 30  6  1  0
 29 11  1  0
M  CHG  1  28  -1
M  END
>  <UniqueID>  (15) 
15

>  <SMILES>  (15) 
C=C1CCC(=O)N1c1ccc2cc(C(N)=O)n(C(=O)/N=C/C(=O)[O-])c2c1

>  <Energy>  (15) 
94.52577602311132

>  <Genealogy>  (15) 
C=C1CCC(=O)N1c1ccc2cc(C(N)=O)n(C(=O)/N=C/C(=O)[O-])c2c1 (protonated)
C=C1CCC(=O)N1c1ccc2cc(C(N)=O)n(C(=O)/N=C/C(=O)[O-])c2c1 (cis-trans isomerization)
C=C1CCC(=O)N1c1ccc2cc(C(N)=O)n(C(=O)/N=C/C(=O)[O-])c2c1 (3D coordinates assigned)
C=C1CCC(=O)N1c1ccc2cc(C(N)=O)n(C(=O)/N=C/C(=O)[O-])c2c1 (nonaromatic ring conformer: 94.52577602311132 kcal/mol)

>  <smiles>  (15) 
C=C1CCC(=O)N1c1ccc2cc(C(N)=O)n(C(=O)/N=C/C(=O)O)c2c1

>  <score_type>  (15) 
oracle

>  <origin>  (15) 
adg

>  <m_score__min__energy>  (15) 
-12.15

>  <m_primary>  (15) 
energy

$$$$
15:0
     RDKit          3D

 34 36  0  0  0  0  0  0  0  0999 V2000
   -3.2270   21.6140  -30.5220 C   0  0  0  0  0  0  0  0  0  0  0  0
   -3.9000   22.2600  -31.4830 C   0  0  0  0  0  0  0  0  0  0  0  0
   -4.0290   21.6550  -32.8330 C   0  0  0  0  0  0  0  0  0  0  0  0
   -3.5190   22.2310  -33.8330 O   0  0  0  0  0  0  0  0  0  0  0  0
   -4.7240   20.4110  -33.0210 N   0  0  0  0  0  0  0  0  0  0  0  0
   -4.1940   19.2180  -33.4120 C   0  0  0  0  0  0  0  0  0  0  0  0
   -2.7920   19.0080  -33.8430 C   0  0  0  0  0  0  0  0  0  0  0  0
   -2.0380   20.0700  -34.4330 N   0  0  0  0  0  0  0  0  0  0  0  0
   -2.2400   17.8880  -33.6740 O   0  0  0  0  0  0  0  0  0  0  0  0
   -5.1780   18.2300  -33.4220 C   0  0  0  0  0  0  0  0  0  0  0  0
   -6.3330   18.8600  -33.0160 C   0  0  0  0  0  0  0  0  0  0  0  0
   -7.6140   18.3490  -32.8320 C   0  0  0  0  0  0  0  0  0  0  0  0
   -8.6140   19.2270  -32.3810 C   0  0  0  0  0  0  0  0  0  0  0  0
   -8.3230   20.5930  -32.1320 C   0  0  0  0  0  0  0  0  0  0  0  0
   -9.3890   21.5130  -31.5970 C   0  0  0  0  0  0  0  0  0  0  0  0
   -9.4650   21.4260  -30.2180 F   0  0  0  0  0  0  0  0  0  0  0  0
   -9.0860   22.8160  -31.9500 F   0  0  0  0  0  0  0  0  0  0  0  0
  -10.6270   21.1810  -32.1190 F   0  0  0  0  0  0  0  0  0  0  0  0
   -7.0010   21.0650  -32.3050 C   0  0  0  0  0  0  0  0  0  0  0  0
   -6.0310   20.1730  -32.7750 C   0  0  0  0  0  0  0  0  0  0  0  0
   -4.4900   23.5460  -31.2140 N   0  0  0  0  0  0  0  0  0  0  0  0
   -5.7820   23.9120  -31.2900 C   0  0  0  0  0  0  0  0  0  0  0  0
   -5.9060   25.2120  -30.9680 N   0  0  0  0  0  0  0  0  0  0  0  0
   -4.6750   25.6250  -30.6950 N   0  0  0  0  0  0  0  0  0  0  0  0
   -3.8210   24.6240  -30.8430 N   0  0  0  0  0  0  0  0  0  0  0  0
   -3.1311   22.0616  -29.5218 H   0  0  0  0  0  0  0  0  0  0  0  0
   -2.7702   20.6358  -30.7329 H   0  0  0  0  0  0  0  0  0  0  0  0
   -1.0410   19.9180  -34.6960 H   0  0  0  0  0  0  0  0  0  0  0  0
   -2.4740   20.9930  -34.6500 H   0  0  0  0  0  0  0  0  0  0  0  0
   -5.0571   17.1716  -33.6962 H   0  0  0  0  0  0  0  0  0  0  0  0
   -7.8369   17.2908  -33.0333 H   0  0  0  0  0  0  0  0  0  0  0  0
   -9.6348   18.8506  -32.2190 H   0  0  0  0  0  0  0  0  0  0  0  0
   -6.7415   22.1090  -32.0754 H   0  0  0  0  0  0  0  0  0  0  0  0
   -6.6122   23.2481  -31.5729 H   0  0  0  0  0  0  0  0  0  0  0  0
  1  2  2  0
  2  3  1  0
  3  4  2  0
  3  5  1  0
  5  6  1  0
  6  7  1  0
  7  8  1  0
  7  9  2  0
  6 10  2  0
 10 11  1  0
 11 12  2  0
 12 13  1  0
 13 14  2  0
 14 15  1  0
 15 16  1  0
 15 17  1  0
 15 18  1  0
 14 19  1  0
 19 20  2  0
  2 21  1  0
 21 22  1  0
 22 23  2  0
 23 24  1  0
 24 25  2  0
 20  5  1  0
 25 21  1  0
 20 11  1  0
  1 26  1  0
  1 27  1  0
  8 28  1  0
  8 29  1  0
 10 30  1  0
 12 31  1  0
 13 32  1  0
 19 33  1  0
 22 34  1  0
M  END
>  <UniqueID>  (16) 
16

>  <SMILES>  (16) 
C=C(C(=O)n1c(C(N)=O)cc2ccc(C(F)(F)F)cc21)n1cnnn1

>  <Energy>  (16) 
117.72471583111844

>  <Genealogy>  (16) 
C=C(C(=O)n1c(C(N)=O)cc2ccc(C(F)(F)F)cc21)n1cnnn1 (3D coordinates assigned)
C=C(C(=O)n1c(C(N)=O)cc2ccc(C(F)(F)F)cc21)n1cnnn1 (optimized conformer: 117.72471583111844 kcal/mol)

>  <smiles>  (16) 
C=C(C(=O)n1c(C(N)=O)cc2ccc(C(F)(F)F)cc21)n1cnnn1

>  <score_type>  (16) 
oracle

>  <origin>  (16) 
adg

>  <m_score__min__energy>  (16) 
-8.75

>  <m_primary>  (16) 
energy

$$$$
16:0
     RDKit          3D

 47 48  0  0  0  0  0  0  0  0999 V2000
   -6.6700   17.9210  -33.6780 C   0  0  0  0  0  0  0  0  0  0  0  0
   -7.0640   19.0670  -32.7940 C   0  0  0  0  0  0  0  0  0  0  0  0
   -8.3680   19.1180  -32.2410 C   0  0  0  0  0  0  0  0  0  0  0  0
   -8.7640   20.2050  -31.4430 C   0  0  0  0  0  0  0  0  0  0  0  0
   -7.8400   21.2230  -31.2200 C   0  0  0  0  0  0  0  0  0  0  0  0
   -7.9640   22.4010  -30.5180 C   0  0  0  0  0  0  0  0  0  0  0  0
   -6.7340   23.0440  -30.6550 C   0  0  0  0  0  0  0  0  0  0  0  0
   -6.4410   24.3760  -30.0880 C   0  0  0  0  0  0  0  0  0  0  0  0
   -5.1700   24.6820  -29.5150 N   0  0  0  0  0  0  0  0  0  0  0  0
   -7.3450   25.2530  -30.0760 O   0  0  0  0  0  0  0  0  0  0  0  0
   -5.8900   22.2940  -31.4170 N   0  0  0  0  0  0  0  0  0  0  0  0
   -4.6080   22.6630  -31.9400 C   0  0  0  0  0  0  0  0  0  0  0  0
   -3.9490   23.5850  -31.3890 O   0  0  0  0  0  0  0  0  0  0  0  0
   -4.0250   21.9200  -33.1030 C   0  0  0  0  0  0  0  0  0  0  0  0
   -2.9930   20.9850  -32.6470 N   0  0  0  0  0  0  0  0  0  0  0  0
   -3.0780   19.6030  -33.0350 C   0  0  0  0  0  0  0  0  0  0  0  0
   -3.5070   19.2760  -34.1750 O   0  0  0  0  0  0  0  0  0  0  0  0
   -1.8430   21.4790  -31.8800 C   0  0  0  0  0  0  0  0  0  0  0  0
   -2.0860   21.3110  -30.4110 C   0  0  0  0  0  0  0  0  0  0  0  0
   -1.9410   20.1740  -29.8870 O   0  0  0  0  0  0  0  0  0  0  0  0
   -2.5070   22.4340  -29.6200 N   0  0  0  0  0  0  0  0  0  0  0  0
   -2.7930   22.3690  -28.2160 C   0  0  0  0  0  0  0  0  0  0  0  0
   -2.6270   21.2960  -27.5740 O   0  0  0  0  0  0  0  0  0  0  0  0
   -3.2550   23.5150  -27.5650 O   0  0  0  0  0  0  0  0  0  0  0  0
   -2.4200   24.6370  -27.2960 C   0  0  0  0  0  0  0  0  0  0  0  0
   -1.9940   25.2830  -28.5740 C   0  0  0  0  0  0  0  0  0  0  0  0
   -0.8610   25.8280  -28.6510 O   0  0  0  0  0  0  0  0  0  0  0  0
   -2.8380   25.2970  -29.6790 O   0  0  0  0  0  0  0  0  0  0  0  0
   -6.5800   21.1880  -31.7570 C   0  0  0  0  0  0  0  0  0  0  0  0
   -6.1600   20.1270  -32.5630 C   0  0  0  0  0  0  0  0  0  0  0  0
   -6.3750   17.0629  -33.0562 H   0  0  0  0  0  0  0  0  0  0  0  0
   -7.5224   17.6378  -34.3130 H   0  0  0  0  0  0  0  0  0  0  0  0
   -5.8237   18.2219  -34.3130 H   0  0  0  0  0  0  0  0  0  0  0  0
   -9.0762   18.2997  -32.4381 H   0  0  0  0  0  0  0  0  0  0  0  0
   -9.7732   20.2504  -31.0077 H   0  0  0  0  0  0  0  0  0  0  0  0
   -8.8458   22.7589  -29.9663 H   0  0  0  0  0  0  0  0  0  0  0  0
   -4.4810   23.9330  -29.2910 H   0  0  0  0  0  0  0  0  0  0  0  0
   -4.9610   25.6560  -29.2000 H   0  0  0  0  0  0  0  0  0  0  0  0
   -4.8230   21.3591  -33.6115 H   0  0  0  0  0  0  0  0  0  0  0  0
   -3.5701   22.6429  -33.7962 H   0  0  0  0  0  0  0  0  0  0  0  0
   -2.7647   18.8206  -32.3281 H   0  0  0  0  0  0  0  0  0  0  0  0
   -0.9452   20.9116  -32.1664 H   0  0  0  0  0  0  0  0  0  0  0  0
   -1.6996   22.5474  -32.0988 H   0  0  0  0  0  0  0  0  0  0  0  0
   -2.6200   23.3580  -30.0920 H   0  0  0  0  0  0  0  0  0  0  0  0
   -2.9761   25.3661  -26.6884 H   0  0  0  0  0  0  0  0  0  0  0  0
   -1.5269   24.2967  -26.7514 H   0  0  0  0  0  0  0  0  0  0  0  0
   -5.1530   20.1176  -33.0055 H   0  0  0  0  0  0  0  0  0  0  0  0
  1  2  1  0
  2  3  2  0
  3  4  1  0
  4  5  2  0
  5  6  1  0
  6  7  2  0
  7  8  1  0
  8  9  1  0
  8 10  2  0
  7 11  1  0
 11 12  1  0
 12 13  2  0
 12 14  1  0
 14 15  1  0
 15 16  1  0
 16 17  2  0
 15 18  1  0
 18 19  1  0
 19 20  2  0
 19 21  1  0
 21 22  1  0
 22 23  2  0
 22 24  1  0
 24 25  1  0
 25 26  1  0
 26 27  2  0
 26 28  1  0
 11 29  1  0
 29 30  2  0
 30  2  1  0
 29  5  1  0
  1 31  1  0
  1 32  1  0
  1 33  1  0
  3 34  1  0
  4 35  1  0
  6 36  1  0
  9 37  1  0
  9 38  1  0
 14 39  1  0
 14 40  1  0
 16 41  1  0
 18 42  1  0
 18 43  1  0
 21 44  1  0
 25 45  1  0
 25 46  1  0
 30 47  1  0
M  CHG  1  28  -1
M  END
>  <UniqueID>  (17) 
17

>  <SMILES>  (17) 
Cc1ccc2cc(C(N)=O)n(C(=O)CN(C=O)CC(=O)NC(=O)OCC(=O)[O-])c2c1

>  <Energy>  (17) 
79.86974502931061

>  <Genealogy>  (17) 
Cc1ccc2cc(C(N)=O)n(C(=O)CN(C=O)CC(=O)NC(=O)OCC(=O)[O-])c2c1 (protonated)
Cc1ccc2cc(C(N)=O)n(C(=O)CN(C=O)CC(=O)NC(=O)OCC(=O)[O-])c2c1 (3D coordinates assigned)
Cc1ccc2cc(C(N)=O)n(C(=O)CN(C=O)CC(=O)NC(=O)OCC(=O)[O-])c2c1 (optimized conformer: 79.86974502931061 kcal/mol)

>  <smiles>  (17) 
Cc1ccc2cc(C(N)=O)n(C(=O)CN(C=O)CC(=O)NC(=O)OCC(=O)O)c2c1

>  <score_type>  (17) 
oracle

>  <origin>  (17) 
adg

>  <m_score__min__energy>  (17) 
-10.83

>  <m_primary>  (17) 
energy

$$$$
17:0
     RDKit          3D

 41 42  0  0  0  0  0  0  0  0999 V2000
   -3.8790   25.5680  -30.8560 N   0  0  0  0  0  0  0  0  0  0  0  0
   -5.1300   25.0640  -30.3910 C   0  0  0  0  0  0  0  0  0  0  0  0
   -5.7500   25.6920  -29.4930 O   0  0  0  0  0  0  0  0  0  0  0  0
   -5.6710   23.8070  -30.9490 C   0  0  0  0  0  0  0  0  0  0  0  0
   -7.0300   23.5600  -31.1250 C   0  0  0  0  0  0  0  0  0  0  0  0
   -7.1020   22.3160  -31.7090 C   0  0  0  0  0  0  0  0  0  0  0  0
   -8.2140   21.5630  -32.0760 C   0  0  0  0  0  0  0  0  0  0  0  0
   -7.9940   20.2820  -32.6090 C   0  0  0  0  0  0  0  0  0  0  0  0
   -6.6770   19.7770  -32.7680 C   0  0  0  0  0  0  0  0  0  0  0  0
   -6.4570   18.3720  -33.2660 C   0  0  0  0  0  0  0  0  0  0  0  0
   -7.6190   17.6430  -33.0970 F   0  0  0  0  0  0  0  0  0  0  0  0
   -5.4330   17.7580  -32.5650 F   0  0  0  0  0  0  0  0  0  0  0  0
   -6.1180   18.3770  -34.6090 F   0  0  0  0  0  0  0  0  0  0  0  0
   -5.5760   20.5650  -32.3560 C   0  0  0  0  0  0  0  0  0  0  0  0
   -5.8230   21.8490  -31.8610 C   0  0  0  0  0  0  0  0  0  0  0  0
   -4.9320   22.7570  -31.4080 N   0  0  0  0  0  0  0  0  0  0  0  0
   -3.5040   22.6150  -31.3690 C   0  0  0  0  0  0  0  0  0  0  0  0
   -2.8520   23.1440  -30.4290 O   0  0  0  0  0  0  0  0  0  0  0  0
   -2.7670   21.8930  -32.4650 C   0  0  0  0  0  0  0  0  0  0  0  0
   -1.3950   21.3950  -31.9940 C   0  0  0  0  0  0  0  0  0  0  0  0
   -0.5500   20.8860  -33.1250 C   0  0  0  0  0  0  0  0  0  0  0  0
   -0.4940   19.6480  -33.3590 O   0  0  0  0  0  0  0  0  0  0  0  0
    0.2420   21.8010  -33.8870 N   0  0  0  0  0  0  0  0  0  0  0  0
    0.5670   21.6060  -35.2960 C   0  0  0  0  0  0  0  0  0  0  0  0
    2.0780   21.4740  -35.4850 C   0  0  0  0  0  0  0  0  0  0  0  0
    2.5770   22.4800  -36.4720 C   0  0  0  0  0  0  0  0  0  0  0  0
    3.6750   22.3000  -37.0610 O   0  0  0  0  0  0  0  0  0  0  0  0
    1.8090   23.5970  -36.7720 O   0  0  0  0  0  0  0  0  0  0  0  0
   -2.9850   25.2980  -30.3910 H   0  0  0  0  0  0  0  0  0  0  0  0
   -7.8680   24.2192  -30.8546 H   0  0  0  0  0  0  0  0  0  0  0  0
   -9.2329   21.9587  -31.9525 H   0  0  0  0  0  0  0  0  0  0  0  0
   -8.8529   19.6627  -32.9068 H   0  0  0  0  0  0  0  0  0  0  0  0
   -4.5493   20.1761  -32.4237 H   0  0  0  0  0  0  0  0  0  0  0  0
   -3.3671   21.0302  -32.7896 H   0  0  0  0  0  0  0  0  0  0  0  0
   -2.6094   22.5983  -33.2943 H   0  0  0  0  0  0  0  0  0  0  0  0
   -0.8665   22.2266  -31.5051 H   0  0  0  0  0  0  0  0  0  0  0  0
   -1.5630   20.5589  -31.2992 H   0  0  0  0  0  0  0  0  0  0  0  0
    0.0759   20.6904  -35.6571 H   0  0  0  0  0  0  0  0  0  0  0  0
    0.2125   22.4774  -35.8661 H   0  0  0  0  0  0  0  0  0  0  0  0
    2.5783   21.6369  -34.5190 H   0  0  0  0  0  0  0  0  0  0  0  0
    2.3002   20.4658  -35.8646 H   0  0  0  0  0  0  0  0  0  0  0  0
  1  2  1  0
  2  3  2  0
  2  4  1  0
  4  5  2  0
  5  6  1  0
  6  7  2  0
  7  8  1  0
  8  9  2  0
  9 10  1  0
 10 11  1  0
 10 12  1  0
 10 13  1  0
  9 14  1  0
 14 15  2  0
 15 16  1  0
 16 17  1  0
 17 18  2  0
 17 19  1  0
 19 20  1  0
 20 21  1  0
 21 22  2  0
 21 23  1  0
 23 24  1  0
 24 25  1  0
 25 26  1  0
 26 27  2  0
 26 28  1  0
 16  4  1  0
 15  6  1  0
  1 29  1  0
  5 30  1  0
  7 31  1  0
  8 32  1  0
 14 33  1  0
 19 34  1  0
 19 35  1  0
 20 36  1  0
 20 37  1  0
 24 38  1  0
 24 39  1  0
 25 40  1  0
 25 41  1  0
M  CHG  3   1  -1  23  -1  28  -1
M  END
>  <UniqueID>  (18) 
18

>  <SMILES>  (18) 
[NH-]C(=O)c1cc2ccc(C(F)(F)F)cc2n1C(=O)CCC(=O)[N-]CCC(=O)[O-]

>  <Energy>  (18) 
69.59026745803206

>  <Genealogy>  (18) 
[NH-]C(=O)c1cc2ccc(C(F)(F)F)cc2n1C(=O)CCC(=O)[N-]CCC(=O)[O-] (protonated)
[NH-]C(=O)c1cc2ccc(C(F)(F)F)cc2n1C(=O)CCC(=O)[N-]CCC(=O)[O-] (3D coordinates assigned)
[NH-]C(=O)c1cc2ccc(C(F)(F)F)cc2n1C(=O)CCC(=O)[N-]CCC(=O)[O-] (optimized conformer: 69.59026745803206 kcal/mol)

>  <smiles>  (18) 
NC(=O)c1cc2ccc(C(F)(F)F)cc2n1C(=O)CCC(=O)NCCC(=O)O

>  <score_type>  (18) 
oracle

>  <origin>  (18) 
adg

>  <m_score__min__energy>  (18) 
-12.31

>  <m_primary>  (18) 
energy

$$$$
18:0
     RDKit          3D

 52 56  0  0  0  0  0  0  0  0999 V2000
   -5.7670   25.1850  -28.9640 N   0  0  0  0  0  0  0  0  0  0  0  0
   -5.2720   24.7460  -30.2300 C   0  0  0  0  0  0  0  0  0  0  0  0
   -4.4460   25.4670  -30.8490 O   0  0  0  0  0  0  0  0  0  0  0  0
   -5.7410   23.4880  -30.8470 C   0  0  0  0  0  0  0  0  0  0  0  0
   -7.0840   23.1760  -31.0370 C   0  0  0  0  0  0  0  0  0  0  0  0
   -7.0880   21.9360  -31.6370 C   0  0  0  0  0  0  0  0  0  0  0  0
   -8.1520   21.1540  -32.0720 C   0  0  0  0  0  0  0  0  0  0  0  0
   -7.8600   19.9390  -32.7120 C   0  0  0  0  0  0  0  0  0  0  0  0
   -6.5160   19.5400  -32.9340 C   0  0  0  0  0  0  0  0  0  0  0  0
   -6.2020   18.2270  -33.6050 C   0  0  0  0  0  0  0  0  0  0  0  0
   -7.2120   17.3120  -33.3640 F   0  0  0  0  0  0  0  0  0  0  0  0
   -5.0180   17.6980  -33.1290 F   0  0  0  0  0  0  0  0  0  0  0  0
   -6.0920   18.4260  -34.9690 F   0  0  0  0  0  0  0  0  0  0  0  0
   -5.4640   20.3550  -32.4580 C   0  0  0  0  0  0  0  0  0  0  0  0
   -5.7860   21.5470  -31.7990 C   0  0  0  0  0  0  0  0  0  0  0  0
   -4.9480   22.4840  -31.3090 N   0  0  0  0  0  0  0  0  0  0  0  0
   -3.5130   22.4720  -31.3900 C   0  0  0  0  0  0  0  0  0  0  0  0
   -2.9670   22.2120  -32.4960 O   0  0  0  0  0  0  0  0  0  0  0  0
   -2.6990   22.8020  -30.1920 C   0  0  0  0  0  0  0  0  0  0  0  0
   -2.3880   24.0090  -30.0020 O   0  0  0  0  0  0  0  0  0  0  0  0
   -2.2260   21.8060  -29.2600 N   0  0  0  0  0  0  0  0  0  0  0  0
   -3.1240   21.1530  -28.3200 C   0  0  0  0  0  0  0  0  0  0  0  0
   -2.2390   20.3410  -27.3760 C   0  0  0  0  0  0  0  0  0  0  0  0
   -0.8400   20.3130  -28.0030 C   0  0  1  0  0  0  0  0  0  0  0  0
   -0.4970   18.9510  -28.4770 N   0  0  0  0  0  0  0  0  0  0  0  0
   -0.3590   17.9630  -27.3970 C   0  0  0  0  0  0  0  0  0  0  0  0
    0.6610   16.9260  -27.8460 C   0  0  2  0  0  0  0  0  0  0  0  0
    2.1210   17.3430  -27.7990 C   0  0  0  0  0  0  0  0  0  0  0  0
    1.3240   17.4840  -29.0870 C   0  0  2  0  0  0  0  0  0  0  0  0
    0.6790   18.8350  -29.3520 C   0  0  0  0  0  0  0  0  0  0  0  0
   -0.8370   21.3930  -29.1010 C   0  0  0  0  0  0  0  0  0  0  0  0
   -6.5770   24.7150  -28.5070 H   0  0  0  0  0  0  0  0  0  0  0  0
   -5.3880   26.0520  -28.5280 H   0  0  0  0  0  0  0  0  0  0  0  0
   -7.9563   23.7889  -30.7659 H   0  0  0  0  0  0  0  0  0  0  0  0
   -9.1921   21.4777  -31.9192 H   0  0  0  0  0  0  0  0  0  0  0  0
   -8.6823   19.2887  -33.0453 H   0  0  0  0  0  0  0  0  0  0  0  0
   -4.4145   20.0588  -32.6024 H   0  0  0  0  0  0  0  0  0  0  0  0
   -3.6956   21.9039  -27.7548 H   0  0  0  0  0  0  0  0  0  0  0  0
   -3.8493   20.5102  -28.8403 H   0  0  0  0  0  0  0  0  0  0  0  0
   -2.2017   20.8187  -26.3858 H   0  0  0  0  0  0  0  0  0  0  0  0
   -2.6332   19.3231  -27.2399 H   0  0  0  0  0  0  0  0  0  0  0  0
   -0.0482   20.5454  -27.2757 H   0  0  0  0  0  0  0  0  0  0  0  0
   -1.3278   17.4778  -27.2070 H   0  0  0  0  0  0  0  0  0  0  0  0
   -0.0289   18.4511  -26.4681 H   0  0  0  0  0  0  0  0  0  0  0  0
    0.1568   16.0100  -27.5043 H   0  0  0  0  0  0  0  0  0  0  0  0
    2.9095   16.5801  -27.7199 H   0  0  0  0  0  0  0  0  0  0  0  0
    2.7177   18.0229  -27.1732 H   0  0  0  0  0  0  0  0  0  0  0  0
    1.5583   17.1882  -30.1202 H   0  0  0  0  0  0  0  0  0  0  0  0
    0.3696   18.9017  -30.4055 H   0  0  0  0  0  0  0  0  0  0  0  0
    1.3916   19.6477  -29.1477 H   0  0  0  0  0  0  0  0  0  0  0  0
   -0.2164   22.2480  -28.7948 H   0  0  0  0  0  0  0  0  0  0  0  0
   -0.4197   21.0090  -30.0436 H   0  0  0  0  0  0  0  0  0  0  0  0
  1  2  1  0
  2  3  2  0
  2  4  1  0
  4  5  2  0
  5  6  1  0
  6  7  2  0
  7  8  1  0
  8  9  2  0
  9 10  1  0
 10 11  1  0
 10 12  1  0
 10 13  1  0
  9 14  1  0
 14 15  2  0
 15 16  1  0
 16 17  1  0
 17 18  2  0
 17 19  1  0
 19 20  2  0
 19 21  1  0
 21 22  1  0
 22 23  1  0
 23 24  1  0
 24 25  1  0
 25 26  1  0
 26 27  1  0
 27 28  1  0
 28 29  1  0
 29 30  1  0
 24 31  1  0
 16  4  1  0
 31 21  1  0
 15  6  1  0
 30 25  1  0
 29 27  1  0
  1 32  1  0
  1 33  1  0
  5 34  1  0
  7 35  1  0
  8 36  1  0
 14 37  1  0
 22 38  1  0
 22 39  1  0
 23 40  1  0
 23 41  1  0
 24 42  1  1
 26 43  1  0
 26 44  1  0
 27 45  1  6
 28 46  1  0
 28 47  1  0
 29 48  1  6
 30 49  1  0
 30 50  1  0
 31 51  1  0
 31 52  1  0
M  END
>  <UniqueID>  (19) 
19

>  <SMILES>  (19) 
NC(=O)c1cc2ccc(C(F)(F)F)cc2n1C(=O)C(=O)N1CC[C@@H](N2CC3C[C@H]3C2)C1

>  <Energy>  (19) 
371.4750093730103

>  <Genealogy>  (19) 
NC(=O)c1cc2ccc(C(F)(F)F)cc2n1C(=O)C(=O)N1CC[C@@H](N2CC3C[C@H]3C2)C1 (chirality)
NC(=O)c1cc2ccc(C(F)(F)F)cc2n1C(=O)C(=O)N1CC[C@@H](N2CC3C[C@H]3C2)C1 (3D coordinates assigned)
NC(=O)c1cc2ccc(C(F)(F)F)cc2n1C(=O)C(=O)N1CC[C@@H](N2CC3C[C@H]3C2)C1 (nonaromatic ring conformer: 371.4750093730103 kcal/mol)

>  <smiles>  (19) 
NC(=O)c1cc2ccc(C(F)(F)F)cc2n1C(=O)C(=O)N1CCC(N2CC3CC3C2)C1

>  <score_type>  (19) 
oracle

>  <origin>  (19) 
adg

>  <m_score__min__energy>  (19) 
-10.51

>  <m_primary>  (19) 
energy

$$$$
19:0
     RDKit          3D

 51 52  0  0  0  0  0  0  0  0999 V2000
   -3.0390   19.9110  -27.1890 C   0  0  0  0  0  0  0  0  0  0  0  0
   -2.2140   20.8560  -28.0670 C   0  0  0  0  0  0  0  0  0  0  0  0
   -3.1100   21.8610  -28.8550 C   0  0  1  0  0  0  0  0  0  0  0  0
   -3.4530   23.0950  -28.0390 C   0  0  0  0  0  0  0  0  0  0  0  0
   -4.2760   23.0350  -27.0830 O   0  0  0  0  0  0  0  0  0  0  0  0
   -2.8500   24.3130  -28.3650 O   0  0  0  0  0  0  0  0  0  0  0  0
   -2.2740   25.1750  -27.3880 C   0  0  0  0  0  0  0  0  0  0  0  0
   -1.1300   25.9670  -28.0080 C   0  0  0  0  0  0  0  0  0  0  0  0
   -1.0580   25.6950  -29.3820 O   0  0  0  0  0  0  0  0  0  0  0  0
   -2.5310   22.2510  -30.1770 N   0  0  1  0  0  0  0  0  0  0  0  0
   -1.0530   22.1800  -30.2060 C   0  0  0  0  0  0  0  0  0  0  0  0
   -3.1250   21.4850  -31.2590 C   0  0  0  0  0  0  0  0  0  0  0  0
   -2.8350   20.2660  -31.4210 O   0  0  0  0  0  0  0  0  0  0  0  0
   -4.1330   22.0950  -32.1500 C   0  0  0  0  0  0  0  0  0  0  0  0
   -3.8430   22.3720  -33.3450 O   0  0  0  0  0  0  0  0  0  0  0  0
   -5.4290   22.4370  -31.6460 N   0  0  0  0  0  0  0  0  0  0  0  0
   -5.8250   23.6100  -31.0800 C   0  0  0  0  0  0  0  0  0  0  0  0
   -4.9540   24.7730  -30.8160 C   0  0  0  0  0  0  0  0  0  0  0  0
   -3.5350   24.6180  -30.8190 N   0  0  0  0  0  0  0  0  0  0  0  0
   -5.4510   25.9100  -30.5930 O   0  0  0  0  0  0  0  0  0  0  0  0
   -7.1790   23.5550  -30.7530 C   0  0  0  0  0  0  0  0  0  0  0  0
   -7.6000   22.3010  -31.1450 C   0  0  0  0  0  0  0  0  0  0  0  0
   -8.8570   21.7090  -31.0730 C   0  0  0  0  0  0  0  0  0  0  0  0
   -9.0000   20.4080  -31.5840 C   0  0  0  0  0  0  0  0  0  0  0  0
   -7.8980   19.7340  -32.1670 C   0  0  0  0  0  0  0  0  0  0  0  0
   -8.0630   18.3420  -32.6910 C   0  0  0  0  0  0  0  0  0  0  0  0
   -6.6330   20.3570  -32.2020 C   0  0  0  0  0  0  0  0  0  0  0  0
   -6.5210   21.6480  -31.6800 C   0  0  0  0  0  0  0  0  0  0  0  0
   -2.8455   20.1327  -26.1291 H   0  0  0  0  0  0  0  0  0  0  0  0
   -4.1087   20.0514  -27.4036 H   0  0  0  0  0  0  0  0  0  0  0  0
   -2.7555   18.8700  -27.4036 H   0  0  0  0  0  0  0  0  0  0  0  0
   -1.5244   21.4241  -27.4254 H   0  0  0  0  0  0  0  0  0  0  0  0
   -1.6671   20.2447  -28.8000 H   0  0  0  0  0  0  0  0  0  0  0  0
   -4.0442   21.3160  -29.0558 H   0  0  0  0  0  0  0  0  0  0  0  0
   -3.0411   25.8709  -27.0175 H   0  0  0  0  0  0  0  0  0  0  0  0
   -1.8871   24.5710  -26.5540 H   0  0  0  0  0  0  0  0  0  0  0  0
   -1.3054   27.0423  -27.8567 H   0  0  0  0  0  0  0  0  0  0  0  0
   -0.1835   25.6765  -27.5287 H   0  0  0  0  0  0  0  0  0  0  0  0
   -1.9970   25.6710  -29.7070 H   0  0  0  0  0  0  0  0  0  0  0  0
   -2.7740   23.2530  -30.3630 H   0  0  0  0  0  0  0  0  0  0  0  0
   -0.6665   22.1614  -29.1763 H   0  0  0  0  0  0  0  0  0  0  0  0
   -0.7401   21.2658  -30.7316 H   0  0  0  0  0  0  0  0  0  0  0  0
   -0.6539   23.0600  -30.7316 H   0  0  0  0  0  0  0  0  0  0  0  0
   -2.9190   25.2890  -30.3050 H   0  0  0  0  0  0  0  0  0  0  0  0
   -7.7836   24.3442  -30.2822 H   0  0  0  0  0  0  0  0  0  0  0  0
   -9.7112   22.2422  -30.6303 H   0  0  0  0  0  0  0  0  0  0  0  0
   -9.9779   19.9071  -31.5310 H   0  0  0  0  0  0  0  0  0  0  0  0
   -8.1462   17.6403  -31.8480 H   0  0  0  0  0  0  0  0  0  0  0  0
   -8.9740   18.2870  -33.3051 H   0  0  0  0  0  0  0  0  0  0  0  0
   -7.1902   18.0755  -33.3051 H   0  0  0  0  0  0  0  0  0  0  0  0
   -5.7598   19.8412  -32.6280 H   0  0  0  0  0  0  0  0  0  0  0  0
  1  2  1  0
  2  3  1  0
  3  4  1  0
  4  5  2  0
  4  6  1  0
  6  7  1  0
  7  8  1  0
  8  9  1  0
  3 10  1  0
 10 11  1  0
 10 12  1  0
 12 13  2  0
 12 14  1  0
 14 15  2  0
 14 16  1  0
 16 17  1  0
 17 18  1  0
 18 19  1  0
 18 20  2  0
 17 21  2  0
 21 22  1  0
 22 23  2  0
 23 24  1  0
 24 25  2  0
 25 26  1  0
 25 27  1  0
 27 28  2  0
 28 16  1  0
 28 22  1  0
  1 29  1  0
  1 30  1  0
  1 31  1  0
  2 32  1  0
  2 33  1  0
  3 34  1  6
  7 35  1  0
  7 36  1  0
  8 37  1  0
  8 38  1  0
  9 39  1  0
 10 40  1  6
 11 41  1  0
 11 42  1  0
 11 43  1  0
 19 44  1  0
 21 45  1  0
 23 46  1  0
 24 47  1  0
 26 48  1  0
 26 49  1  0
 26 50  1  0
 27 51  1  0
M  CHG  2  10   1  19  -1
M  END
>  <UniqueID>  (20) 
20

>  <SMILES>  (20) 
CC[C@@H](C(=O)OCCO)[N@@H+](C)C(=O)C(=O)n1c(C([NH-])=O)cc2ccc(C)cc21

>  <Energy>  (20) 
89.90584570294361

>  <Genealogy>  (20) 
CCC(C(=O)OCCO)[NH+](C)C(=O)C(=O)n1c(C([NH-])=O)cc2ccc(C)cc21 (protonated)
CC[C@@H](C(=O)OCCO)[N@@H+](C)C(=O)C(=O)n1c(C([NH-])=O)cc2ccc(C)cc21 (chirality)
CC[C@@H](C(=O)OCCO)[N@@H+](C)C(=O)C(=O)n1c(C([NH-])=O)cc2ccc(C)cc21 (3D coordinates assigned)
CC[C@@H](C(=O)OCCO)[N@@H+](C)C(=O)C(=O)n1c(C([NH-])=O)cc2ccc(C)cc21 (optimized conformer: 89.90584570294361 kcal/mol)

>  <smiles>  (20) 
CCC(C(=O)OCCO)N(C)C(=O)C(=O)n1c(C(N)=O)cc2ccc(C)cc21

>  <score_type>  (20) 
oracle

>  <origin>  (20) 
adg

>  <m_score__min__energy>  (20) 
-9.5999999999999996

>  <m_primary>  (20) 
energy

$$$$
20:0
     RDKit          3D

 43 46  0  0  0  0  0  0  0  0999 V2000
   -6.4740   16.7560  -34.2550 C   0  0  0  0  0  0  0  0  0  0  0  0
   -5.9610   18.0260  -33.7600 N   0  0  0  0  0  0  0  0  0  0  0  0
   -4.8230   18.1970  -33.0610 C   0  0  0  0  0  0  0  0  0  0  0  0
   -4.6470   19.5530  -32.8480 C   0  0  0  0  0  0  0  0  0  0  0  0
   -3.5380   20.2220  -32.1220 C   0  0  0  0  0  0  0  0  0  0  0  0
   -2.2650   19.5980  -32.0160 C   0  0  0  0  0  0  0  0  0  0  0  0
   -1.2070   20.2230  -31.3300 C   0  0  0  0  0  0  0  0  0  0  0  0
   -1.4450   21.4680  -30.7620 C   0  0  0  0  0  0  0  0  0  0  0  0
   -0.6090   22.2920  -30.0360 C   0  0  0  0  0  0  0  0  0  0  0  0
   -1.3800   23.4100  -29.7170 C   0  0  0  0  0  0  0  0  0  0  0  0
   -0.8770   24.5780  -28.9690 C   0  0  0  0  0  0  0  0  0  0  0  0
   -1.6190   25.7970  -28.9690 N   0  0  0  0  0  0  0  0  0  0  0  0
    0.1950   24.5070  -28.3100 O   0  0  0  0  0  0  0  0  0  0  0  0
   -2.6370   23.2770  -30.2210 N   0  0  0  0  0  0  0  0  0  0  0  0
   -3.7460   24.1680  -30.0600 C   0  0  0  0  0  0  0  0  0  0  0  0
   -3.7380   25.2800  -30.6520 O   0  0  0  0  0  0  0  0  0  0  0  0
   -4.9620   23.7170  -29.3000 C   0  0  0  0  0  0  0  0  0  0  0  0
   -6.0690   23.2940  -30.2300 C   0  0  0  0  0  0  0  0  0  0  0  0
   -6.1240   23.7980  -31.5400 C   0  0  0  0  0  0  0  0  0  0  0  0
   -7.1620   23.4030  -32.3870 C   0  0  0  0  0  0  0  0  0  0  0  0
   -8.1160   22.5410  -31.9400 N   0  0  0  0  0  0  0  0  0  0  0  0
   -8.0890   22.0380  -30.6750 C   0  0  0  0  0  0  0  0  0  0  0  0
   -7.0630   22.4040  -29.7970 C   0  0  0  0  0  0  0  0  0  0  0  0
   -2.6630   22.0870  -30.8560 C   0  0  0  0  0  0  0  0  0  0  0  0
   -3.7360   21.4920  -31.5250 C   0  0  0  0  0  0  0  0  0  0  0  0
   -5.7380   20.1490  -33.4690 C   0  0  0  0  0  0  0  0  0  0  0  0
   -6.5160   19.1980  -34.0220 N   0  0  0  0  0  0  0  0  0  0  0  0
   -6.7352   16.1094  -33.4043 H   0  0  0  0  0  0  0  0  0  0  0  0
   -7.3699   16.9361  -34.8673 H   0  0  0  0  0  0  0  0  0  0  0  0
   -5.7044   16.2633  -34.8673 H   0  0  0  0  0  0  0  0  0  0  0  0
   -4.1498   17.3973  -32.7185 H   0  0  0  0  0  0  0  0  0  0  0  0
   -2.1046   18.6122  -32.4769 H   0  0  0  0  0  0  0  0  0  0  0  0
   -0.2220   19.7405  -31.2462 H   0  0  0  0  0  0  0  0  0  0  0  0
    0.4412   22.1067  -29.7664 H   0  0  0  0  0  0  0  0  0  0  0  0
   -2.6640   25.7890  -28.9870 H   0  0  0  0  0  0  0  0  0  0  0  0
   -4.6879   22.8654  -28.6599 H   0  0  0  0  0  0  0  0  0  0  0  0
   -5.3235   24.5614  -28.6948 H   0  0  0  0  0  0  0  0  0  0  0  0
   -5.3548   24.4990  -31.8964 H   0  0  0  0  0  0  0  0  0  0  0  0
   -7.2086   23.7888  -33.4161 H   0  0  0  0  0  0  0  0  0  0  0  0
   -8.8746   21.3432  -30.3430 H   0  0  0  0  0  0  0  0  0  0  0  0
   -7.0360   21.9971  -28.7754 H   0  0  0  0  0  0  0  0  0  0  0  0
   -4.7111   21.9974  -31.5868 H   0  0  0  0  0  0  0  0  0  0  0  0
   -5.9359   21.2305  -33.5037 H   0  0  0  0  0  0  0  0  0  0  0  0
  1  2  1  0
  2  3  1  0
  3  4  2  0
  4  5  1  0
  5  6  2  0
  6  7  1  0
  7  8  2  0
  8  9  1  0
  9 10  2  0
 10 11  1  0
 11 12  1  0
 11 13  2  0
 10 14  1  0
 14 15  1  0
 15 16  2  0
 15 17  1  0
 17 18  1  0
 18 19  2  0
 19 20  1  0
 20 21  2  0
 21 22  1  0
 22 23  2  0
 14 24  1  0
 24 25  2  0
  4 26  1  0
 26 27  2  0
 27  2  1  0
 25  5  1  0
 24  8  1  0
 23 18  1  0
  1 28  1  0
  1 29  1  0
  1 30  1  0
  3 31  1  0
  6 32  1  0
  7 33  1  0
  9 34  1  0
 12 35  1  0
 17 36  1  0
 17 37  1  0
 19 38  1  0
 20 39  1  0
 22 40  1  0
 23 41  1  0
 25 42  1  0
 26 43  1  0
M  CHG  1  12  -1
M  END
>  <UniqueID>  (21) 
21

>  <SMILES>  (21) 
Cn1cc(-c2ccc3cc(C([NH-])=O)n(C(=O)Cc4ccncc4)c3c2)cn1

>  <Energy>  (21) 
119.10915371882169

>  <Genealogy>  (21) 
Cn1cc(-c2ccc3cc(C([NH-])=O)n(C(=O)Cc4ccncc4)c3c2)cn1 (protonated)
Cn1cc(-c2ccc3cc(C([NH-])=O)n(C(=O)Cc4ccncc4)c3c2)cn1 (3D coordinates assigned)
Cn1cc(-c2ccc3cc(C([NH-])=O)n(C(=O)Cc4ccncc4)c3c2)cn1 (optimized conformer: 119.10915371882169 kcal/mol)

>  <smiles>  (21) 
Cn1cc(-c2ccc3cc(C(N)=O)n(C(=O)Cc4ccncc4)c3c2)cn1

>  <score_type>  (21) 
oracle

>  <origin>  (21) 
adg

>  <m_score__min__energy>  (21) 
-11.51

>  <m_primary>  (21) 
energy

$$$$
21:0
     RDKit          3D

 31 33  0  0  0  0  0  0  0  0999 V2000
   -3.5800   22.3740  -28.8300 C   0  0  0  0  0  0  0  0  0  0  0  0
   -2.9350   22.5490  -29.9830 C   0  0  0  0  0  0  0  0  0  0  0  0
   -1.1490   22.8190  -29.9450 S   0  0  0  0  0  0  0  0  0  0  0  0
   -3.6520   22.5480  -31.2790 C   0  0  0  0  0  0  0  0  0  0  0  0
   -3.0240   22.3520  -32.3550 O   0  0  0  0  0  0  0  0  0  0  0  0
   -5.0750   22.7250  -31.3250 N   0  0  0  0  0  0  0  0  0  0  0  0
   -5.8030   23.7950  -30.9040 C   0  0  0  0  0  0  0  0  0  0  0  0
   -5.2550   25.0620  -30.3730 C   0  0  0  0  0  0  0  0  0  0  0  0
   -3.8700   25.3750  -30.5020 N   0  0  0  0  0  0  0  0  0  0  0  0
   -6.0250   25.8900  -29.8170 O   0  0  0  0  0  0  0  0  0  0  0  0
   -7.1650   23.5560  -31.0870 C   0  0  0  0  0  0  0  0  0  0  0  0
   -7.2420   22.2990  -31.6460 C   0  0  0  0  0  0  0  0  0  0  0  0
   -8.3510   21.5560  -32.0350 C   0  0  0  0  0  0  0  0  0  0  0  0
   -8.1310   20.2780  -32.5750 C   0  0  0  0  0  0  0  0  0  0  0  0
   -6.8160   19.7600  -32.7160 C   0  0  0  0  0  0  0  0  0  0  0  0
   -6.5950   18.4050  -33.2840 C   0  0  0  0  0  0  0  0  0  0  0  0
   -7.1690   17.2120  -32.8840 C   0  0  0  0  0  0  0  0  0  0  0  0
   -6.7040   16.2140  -33.6570 N   0  0  0  0  0  0  0  0  0  0  0  0
   -5.8520   16.7210  -34.5360 N   0  0  0  0  0  0  0  0  0  0  0  0
   -5.7670   18.0490  -34.3340 C   0  0  0  0  0  0  0  0  0  0  0  0
   -5.7150   20.5520  -32.3070 C   0  0  0  0  0  0  0  0  0  0  0  0
   -5.9670   21.8220  -31.7800 C   0  0  0  0  0  0  0  0  0  0  0  0
   -4.6674   22.2079  -28.8278 H   0  0  0  0  0  0  0  0  0  0  0  0
   -3.0250   22.3956  -27.8805 H   0  0  0  0  0  0  0  0  0  0  0  0
   -3.5390   26.0530  -31.2230 H   0  0  0  0  0  0  0  0  0  0  0  0
   -7.9997   24.2278  -30.8381 H   0  0  0  0  0  0  0  0  0  0  0  0
   -9.3693   21.9566  -31.9233 H   0  0  0  0  0  0  0  0  0  0  0  0
   -8.9901   19.6692  -32.8935 H   0  0  0  0  0  0  0  0  0  0  0  0
   -7.8920   17.0972  -32.0630 H   0  0  0  0  0  0  0  0  0  0  0  0
   -5.1384   18.7421  -34.9124 H   0  0  0  0  0  0  0  0  0  0  0  0
   -4.6855   20.1763  -32.4019 H   0  0  0  0  0  0  0  0  0  0  0  0
  1  2  2  0
  2  3  1  0
  2  4  1  0
  4  5  2  0
  4  6  1  0
  6  7  1  0
  7  8  1  0
  8  9  1  0
  8 10  2  0
  7 11  2  0
 11 12  1  0
 12 13  2  0
 13 14  1  0
 14 15  2  0
 15 16  1  0
 16 17  1  0
 17 18  2  0
 18 19  1  0
 19 20  1  0
 15 21  1  0
 21 22  2  0
 22  6  1  0
 22 12  1  0
 20 16  2  0
  1 23  1  0
  1 24  1  0
  9 25  1  0
 11 26  1  0
 13 27  1  0
 14 28  1  0
 17 29  1  0
 20 30  1  0
 21 31  1  0
M  CHG  3   3  -1   9  -1  19  -1
M  END
>  <UniqueID>  (22) 
22

>  <SMILES>  (22) 
C=C([S-])C(=O)n1c(C([NH-])=O)cc2ccc(-c3cn[n-]c3)cc21

>  <Energy>  (22) 
104.71353281352276

>  <Genealogy>  (22) 
C=C([S-])C(=O)n1c(C([NH-])=O)cc2ccc(-c3cn[n-]c3)cc21 (protonated)
C=C([S-])C(=O)n1c(C([NH-])=O)cc2ccc(-c3cn[n-]c3)cc21 (3D coordinates assigned)
C=C([S-])C(=O)n1c(C([NH-])=O)cc2ccc(-c3cn[n-]c3)cc21 (optimized conformer: 104.71353281352276 kcal/mol)

>  <smiles>  (22) 
C=C(S)C(=O)n1c(C(N)=O)cc2ccc(-c3cn[nH]c3)cc21

>  <score_type>  (22) 
oracle

>  <origin>  (22) 
adg

>  <m_score__min__energy>  (22) 
-10.92

>  <m_primary>  (22) 
energy

$$$$
22:0
     RDKit          3D

 46 48  0  0  0  0  0  0  0  0999 V2000
   -5.8110   25.1870  -29.1060 N   0  0  0  0  0  0  0  0  0  0  0  0
   -5.3840   24.6350  -30.3520 C   0  0  0  0  0  0  0  0  0  0  0  0
   -4.5260   25.2480  -31.0390 O   0  0  0  0  0  0  0  0  0  0  0  0
   -5.9880   23.3990  -30.8810 C   0  0  0  0  0  0  0  0  0  0  0  0
   -7.3570   23.1410  -30.8470 C   0  0  0  0  0  0  0  0  0  0  0  0
   -7.5050   21.8980  -31.4180 C   0  0  0  0  0  0  0  0  0  0  0  0
   -8.6540   21.1450  -31.6430 C   0  0  0  0  0  0  0  0  0  0  0  0
   -8.5100   19.8960  -32.2700 C   0  0  0  0  0  0  0  0  0  0  0  0
   -7.2320   19.4310  -32.6700 C   0  0  0  0  0  0  0  0  0  0  0  0
   -7.0850   18.0790  -33.3120 C   0  0  0  0  0  0  0  0  0  0  0  0
   -6.0020   18.1150  -34.3420 C   0  0  0  0  0  0  0  0  0  0  0  0
   -6.0720   18.9340  -35.2990 O   0  0  0  0  0  0  0  0  0  0  0  0
   -4.9140   17.2450  -34.2250 O   0  0  0  0  0  0  0  0  0  0  0  0
   -4.0390   17.2530  -33.1000 C   0  0  0  0  0  0  0  0  0  0  0  0
   -2.9780   18.3360  -33.2780 C   0  0  0  0  0  0  0  0  0  0  0  0
   -3.3940   19.2890  -34.2220 O   0  0  0  0  0  0  0  0  0  0  0  0
   -6.0870   20.2190  -32.4160 C   0  0  0  0  0  0  0  0  0  0  0  0
   -6.2600   21.4550  -31.7840 C   0  0  0  0  0  0  0  0  0  0  0  0
   -5.3130   22.3660  -31.4620 N   0  0  0  0  0  0  0  0  0  0  0  0
   -3.8990   22.3210  -31.8600 C   0  0  0  0  0  0  0  0  0  0  0  0
   -3.0730   21.6510  -30.7920 C   0  0  0  0  0  0  0  0  0  0  0  0
   -3.4760   21.7180  -29.4480 C   0  0  0  0  0  0  0  0  0  0  0  0
   -2.7090   21.1060  -28.4500 C   0  0  0  0  0  0  0  0  0  0  0  0
   -1.5350   20.4220  -28.7870 C   0  0  0  0  0  0  0  0  0  0  0  0
   -0.5800   19.6490  -27.5360 Cl  0  0  0  0  0  0  0  0  0  0  0  0
   -1.1310   20.3480  -30.1240 C   0  0  0  0  0  0  0  0  0  0  0  0
   -1.8970   20.9580  -31.1240 C   0  0  0  0  0  0  0  0  0  0  0  0
   -6.6380   24.7960  -28.6050 H   0  0  0  0  0  0  0  0  0  0  0  0
   -5.3510   26.0430  -28.7250 H   0  0  0  0  0  0  0  0  0  0  0  0
   -8.1495   23.7917  -30.4489 H   0  0  0  0  0  0  0  0  0  0  0  0
   -9.6439   21.5163  -31.3393 H   0  0  0  0  0  0  0  0  0  0  0  0
   -9.3978   19.2727  -32.4523 H   0  0  0  0  0  0  0  0  0  0  0  0
   -6.8302   17.3362  -32.5418 H   0  0  0  0  0  0  0  0  0  0  0  0
   -8.0339   17.8051  -33.7964 H   0  0  0  0  0  0  0  0  0  0  0  0
   -4.6190   17.4564  -32.1877 H   0  0  0  0  0  0  0  0  0  0  0  0
   -3.5470   16.2728  -33.0155 H   0  0  0  0  0  0  0  0  0  0  0  0
   -2.8061   18.8351  -32.3129 H   0  0  0  0  0  0  0  0  0  0  0  0
   -2.0500   17.8661  -33.6357 H   0  0  0  0  0  0  0  0  0  0  0  0
   -3.9550   18.8050  -34.8860 H   0  0  0  0  0  0  0  0  0  0  0  0
   -5.0856   19.8696  -32.7076 H   0  0  0  0  0  0  0  0  0  0  0  0
   -3.8047   21.7557  -32.7989 H   0  0  0  0  0  0  0  0  0  0  0  0
   -3.5349   23.3496  -31.9995 H   0  0  0  0  0  0  0  0  0  0  0  0
   -4.3983   22.2537  -29.1788 H   0  0  0  0  0  0  0  0  0  0  0  0
   -3.0292   21.1626  -27.3992 H   0  0  0  0  0  0  0  0  0  0  0  0
   -0.2095   19.8094  -30.3901 H   0  0  0  0  0  0  0  0  0  0  0  0
   -1.5768   20.8945  -32.1744 H   0  0  0  0  0  0  0  0  0  0  0  0
  1  2  1  0
  2  3  2  0
  2  4  1  0
  4  5  2  0
  5  6  1  0
  6  7  2  0
  7  8  1  0
  8  9  2  0
  9 10  1  0
 10 11  1  0
 11 12  2  0
 11 13  1  0
 13 14  1  0
 14 15  1  0
 15 16  1  0
  9 17  1  0
 17 18  2  0
 18 19  1  0
 19 20  1  0
 20 21  1  0
 21 22  2  0
 22 23  1  0
 23 24  2  0
 24 25  1  0
 24 26  1  0
 26 27  2  0
 19  4  1  0
 27 21  1  0
 18  6  1  0
  1 28  1  0
  1 29  1  0
  5 30  1  0
  7 31  1  0
  8 32  1  0
 10 33  1  0
 10 34  1  0
 14 35  1  0
 14 36  1  0
 15 37  1  0
 15 38  1  0
 16 39  1  0
 17 40  1  0
 20 41  1  0
 20 42  1  0
 22 43  1  0
 23 44  1  0
 26 45  1  0
 27 46  1  0
M  END
>  <UniqueID>  (23) 
23

>  <SMILES>  (23) 
NC(=O)c1cc2ccc(CC(=O)OCCO)cc2n1Cc1ccc(Cl)cc1

>  <Energy>  (23) 
77.09982042384722

>  <Genealogy>  (23) 
NC(=O)c1cc2ccc(CC(=O)OCCO)cc2n1Cc1ccc(Cl)cc1 (3D coordinates assigned)
NC(=O)c1cc2ccc(CC(=O)OCCO)cc2n1Cc1ccc(Cl)cc1 (optimized conformer: 77.09982042384722 kcal/mol)

>  <smiles>  (23) 
NC(=O)c1cc2ccc(CC(=O)OCCO)cc2n1Cc1ccc(Cl)cc1

>  <score_type>  (23) 
oracle

>  <origin>  (23) 
adg

>  <m_score__min__energy>  (23) 
-8.5700000000000003

>  <m_primary>  (23) 
energy

$$$$
23:0
     RDKit          3D

 37 38  0  0  0  0  0  0  0  0999 V2000
   -2.7030   19.2970  -25.9810 C   0  0  0  0  0  0  0  0  0  0  0  0
   -1.8940   19.4070  -27.2380 C   0  0  0  0  0  0  0  0  0  0  0  0
   -0.7760   18.5640  -27.4300 C   0  0  0  0  0  0  0  0  0  0  0  0
   -0.0470   18.6030  -28.6340 C   0  0  0  0  0  0  0  0  0  0  0  0
   -0.4610   19.4970  -29.6160 C   0  0  0  0  0  0  0  0  0  0  0  0
    0.0430   19.7210  -30.8750 C   0  0  0  0  0  0  0  0  0  0  0  0
   -0.7660   20.7110  -31.4270 C   0  0  0  0  0  0  0  0  0  0  0  0
   -0.5650   21.2520  -32.7910 C   0  0  0  0  0  0  0  0  0  0  0  0
   -1.6900   21.4890  -33.6410 N   0  0  0  0  0  0  0  0  0  0  0  0
    0.5850   21.5650  -33.1950 O   0  0  0  0  0  0  0  0  0  0  0  0
   -1.7200   21.1080  -30.5340 N   0  0  0  0  0  0  0  0  0  0  0  0
   -2.6440   22.2110  -30.6570 C   0  0  0  0  0  0  0  0  0  0  0  0
   -3.0680   22.5520  -31.7960 O   0  0  0  0  0  0  0  0  0  0  0  0
   -3.0740   22.9510  -29.4940 N   0  0  0  0  0  0  0  0  0  0  0  0
   -4.4010   23.5810  -29.4970 C   0  0  0  0  0  0  0  0  0  0  0  0
   -4.5230   24.5820  -30.6010 C   0  0  0  0  0  0  0  0  0  0  0  0
   -3.8640   25.6550  -30.5580 O   0  0  0  0  0  0  0  0  0  0  0  0
   -5.3650   24.3280  -31.6800 O   0  0  0  0  0  0  0  0  0  0  0  0
   -2.0790   23.3630  -28.4860 C   0  0  0  0  0  0  0  0  0  0  0  0
   -1.1260   24.3590  -29.0690 C   0  0  0  0  0  0  0  0  0  0  0  0
    0.0560   24.0150  -29.3450 O   0  0  0  0  0  0  0  0  0  0  0  0
   -1.5520   25.6560  -29.3410 O   0  0  0  0  0  0  0  0  0  0  0  0
   -1.5330   20.3330  -29.4380 C   0  0  0  0  0  0  0  0  0  0  0  0
   -2.2910   20.2940  -28.2600 C   0  0  0  0  0  0  0  0  0  0  0  0
   -2.0391   19.3873  -25.1086 H   0  0  0  0  0  0  0  0  0  0  0  0
   -3.4528   20.1015  -25.9560 H   0  0  0  0  0  0  0  0  0  0  0  0
   -3.2108   18.3215  -25.9560 H   0  0  0  0  0  0  0  0  0  0  0  0
   -0.4726   17.8710  -26.6315 H   0  0  0  0  0  0  0  0  0  0  0  0
    0.8220   17.9476  -28.7929 H   0  0  0  0  0  0  0  0  0  0  0  0
    0.9033   19.2236  -31.3467 H   0  0  0  0  0  0  0  0  0  0  0  0
   -1.5540   21.9120  -34.5870 H   0  0  0  0  0  0  0  0  0  0  0  0
   -2.6490   21.2010  -33.3530 H   0  0  0  0  0  0  0  0  0  0  0  0
   -5.1670   22.8031  -29.6320 H   0  0  0  0  0  0  0  0  0  0  0  0
   -4.5410   24.1017  -28.5382 H   0  0  0  0  0  0  0  0  0  0  0  0
   -2.5981   23.8169  -27.6290 H   0  0  0  0  0  0  0  0  0  0  0  0
   -1.5138   22.4773  -28.1603 H   0  0  0  0  0  0  0  0  0  0  0  0
   -3.1734   20.9389  -28.1356 H   0  0  0  0  0  0  0  0  0  0  0  0
  1  2  1  0
  2  3  2  0
  3  4  1  0
  4  5  2  0
  5  6  1  0
  6  7  2  0
  7  8  1  0
  8  9  1  0
  8 10  2  0
  7 11  1  0
 11 12  1  0
 12 13  2  0
 12 14  1  0
 14 15  1  0
 15 16  1  0
 16 17  2  0
 16 18  1  0
 14 19  1  0
 19 20  1  0
 20 21  2  0
 20 22  1  0
 11 23  1  0
 23 24  2  0
 24  2  1  0
 23  5  1  0
  1 25  1  0
  1 26  1  0
  1 27  1  0
  3 28  1  0
  4 29  1  0
  6 30  1  0
  9 31  1  0
  9 32  1  0
 15 33  1  0
 15 34  1  0
 19 35  1  0
 19 36  1  0
 24 37  1  0
M  CHG  2  18  -1  22  -1
M  END
>  <UniqueID>  (24) 
24

>  <SMILES>  (24) 
Cc1ccc2cc(C(N)=O)n(C(=O)N(CC(=O)[O-])CC(=O)[O-])c2c1

>  <Energy>  (24) 
77.70221418470217

>  <Genealogy>  (24) 
Cc1ccc2cc(C(N)=O)n(C(=O)N(CC(=O)[O-])CC(=O)[O-])c2c1 (protonated)
Cc1ccc2cc(C(N)=O)n(C(=O)N(CC(=O)[O-])CC(=O)[O-])c2c1 (3D coordinates assigned)
Cc1ccc2cc(C(N)=O)n(C(=O)N(CC(=O)[O-])CC(=O)[O-])c2c1 (optimized conformer: 77.70221418470217 kcal/mol)

>  <smiles>  (24) 
Cc1ccc2cc(C(N)=O)n(C(=O)N(CC(=O)O)CC(=O)O)c2c1

>  <score_type>  (24) 
oracle

>  <origin>  (24) 
adg

>  <m_score__min__energy>  (24) 
-11.300000000000001

>  <m_primary>  (24) 
energy

$$$$
24:0
     RDKit          3D

 42 44  0  0  0  0  0  0  0  0999 V2000
   -3.7980   25.2790  -30.3650 N   0  0  0  0  0  0  0  0  0  0  0  0
   -5.2030   25.1030  -30.5380 C   0  0  0  0  0  0  0  0  0  0  0  0
   -5.9780   26.0580  -30.2720 O   0  0  0  0  0  0  0  0  0  0  0  0
   -5.7280   23.8060  -31.0230 C   0  0  0  0  0  0  0  0  0  0  0  0
   -7.0780   23.5720  -31.2720 C   0  0  0  0  0  0  0  0  0  0  0  0
   -7.1450   22.2780  -31.7310 C   0  0  0  0  0  0  0  0  0  0  0  0
   -8.2420   21.5480  -32.1770 C   0  0  0  0  0  0  0  0  0  0  0  0
   -8.0170   20.2500  -32.6610 C   0  0  0  0  0  0  0  0  0  0  0  0
   -6.7070   19.7040  -32.6910 C   0  0  0  0  0  0  0  0  0  0  0  0
   -6.4670   18.3380  -33.2810 C   0  0  0  0  0  0  0  0  0  0  0  0
   -7.6020   17.5530  -33.1760 F   0  0  0  0  0  0  0  0  0  0  0  0
   -6.1320   18.4700  -34.6160 F   0  0  0  0  0  0  0  0  0  0  0  0
   -5.4350   17.6960  -32.6190 F   0  0  0  0  0  0  0  0  0  0  0  0
   -5.6150   20.4910  -32.2550 C   0  0  0  0  0  0  0  0  0  0  0  0
   -5.8730   21.7690  -31.7450 C   0  0  0  0  0  0  0  0  0  0  0  0
   -4.9900   22.6880  -31.2880 N   0  0  0  0  0  0  0  0  0  0  0  0
   -3.5600   22.5390  -31.1750 C   0  0  0  0  0  0  0  0  0  0  0  0
   -2.9360   22.0290  -32.1460 O   0  0  0  0  0  0  0  0  0  0  0  0
   -2.8560   22.8640  -29.9370 N   0  0  1  0  0  0  0  0  0  0  0  0
   -3.6350   22.5380  -28.7170 C   0  0  0  0  0  0  0  0  0  0  0  0
   -3.5850   23.6250  -27.6250 C   0  0  0  0  0  0  0  0  0  0  0  0
   -2.1400   23.9260  -27.1770 C   0  0  0  0  0  0  0  0  0  0  0  0
   -1.2020   24.2620  -28.2650 N   0  0  0  0  0  0  0  0  0  0  0  0
   -0.5370   23.1340  -28.9330 C   0  0  0  0  0  0  0  0  0  0  0  0
   -1.4680   22.3380  -29.8730 C   0  0  0  0  0  0  0  0  0  0  0  0
   -3.1210   24.9010  -31.0640 H   0  0  0  0  0  0  0  0  0  0  0  0
   -7.9134   24.2737  -31.1313 H   0  0  0  0  0  0  0  0  0  0  0  0
   -9.2553   21.9753  -32.1511 H   0  0  0  0  0  0  0  0  0  0  0  0
   -8.8651   19.6491  -33.0211 H   0  0  0  0  0  0  0  0  0  0  0  0
   -4.5859   20.1071  -32.3154 H   0  0  0  0  0  0  0  0  0  0  0  0
   -2.7720   23.9060  -29.9260 H   0  0  0  0  0  0  0  0  0  0  0  0
   -4.6854   22.3897  -29.0080 H   0  0  0  0  0  0  0  0  0  0  0  0
   -3.1805   21.6346  -28.2842 H   0  0  0  0  0  0  0  0  0  0  0  0
   -4.0337   24.5478  -28.0213 H   0  0  0  0  0  0  0  0  0  0  0  0
   -4.1423   23.2558  -26.7514 H   0  0  0  0  0  0  0  0  0  0  0  0
   -2.1701   24.7758  -26.4792 H   0  0  0  0  0  0  0  0  0  0  0  0
   -1.7615   22.9981  -26.7235 H   0  0  0  0  0  0  0  0  0  0  0  0
   -0.4530   24.8830  -27.8760 H   0  0  0  0  0  0  0  0  0  0  0  0
    0.3028   23.5264  -29.5253 H   0  0  0  0  0  0  0  0  0  0  0  0
   -0.2050   22.4420  -28.1450 H   0  0  0  0  0  0  0  0  0  0  0  0
   -1.0410   22.3646  -30.8864 H   0  0  0  0  0  0  0  0  0  0  0  0
   -1.5329   21.3177  -29.4671 H   0  0  0  0  0  0  0  0  0  0  0  0
  1  2  1  0
  2  3  2  0
  2  4  1  0
  4  5  2  0
  5  6  1  0
  6  7  2  0
  7  8  1  0
  8  9  2  0
  9 10  1  0
 10 11  1  0
 10 12  1  0
 10 13  1  0
  9 14  1  0
 14 15  2  0
 15 16  1  0
 16 17  1  0
 17 18  2  0
 17 19  1  0
 19 20  1  0
 20 21  1  0
 21 22  1  0
 22 23  1  0
 23 24  1  0
 24 25  1  0
 16  4  1  0
 25 19  1  0
 15  6  1  0
  1 26  1  0
  5 27  1  0
  7 28  1  0
  8 29  1  0
 14 30  1  0
 19 31  1  6
 20 32  1  0
 20 33  1  0
 21 34  1  0
 21 35  1  0
 22 36  1  0
 22 37  1  0
 23 38  1  0
 24 39  1  0
 24 40  1  0
 25 41  1  0
 25 42  1  0
M  CHG  2   1  -1  19   1
M  END
>  <UniqueID>  (25) 
25

>  <SMILES>  (25) 
[NH-]C(=O)c1cc2ccc(C(F)(F)F)cc2n1C(=O)[N@H+]1CCCNCC1

>  <Energy>  (25) 
101.44537002536437

>  <Genealogy>  (25) 
[NH-]C(=O)c1cc2ccc(C(F)(F)F)cc2n1C(=O)[NH+]1CCCNCC1 (protonated)
[NH-]C(=O)c1cc2ccc(C(F)(F)F)cc2n1C(=O)[N@H+]1CCCNCC1 (chirality)
[NH-]C(=O)c1cc2ccc(C(F)(F)F)cc2n1C(=O)[N@H+]1CCCNCC1 (3D coordinates assigned)
[NH-]C(=O)c1cc2ccc(C(F)(F)F)cc2n1C(=O)[N@H+]1CCCNCC1 (nonaromatic ring conformer: 101.44537002536437 kcal/mol)

>  <smiles>  (25) 
NC(=O)c1cc2ccc(C(F)(F)F)cc2n1C(=O)N1CCCNCC1

>  <score_type>  (25) 
oracle

>  <origin>  (25) 
adg

>  <m_score__min__energy>  (25) 
-7.7000000000000002

>  <m_primary>  (25) 
energy

$$$$
25:0
     RDKit          3D

 37 38  0  0  0  0  0  0  0  0999 V2000
   -6.5540   18.0750  -32.9080 C   0  0  0  0  0  0  0  0  0  0  0  0
   -6.7070   19.5130  -32.5130 C   0  0  0  0  0  0  0  0  0  0  0  0
   -7.9660   20.1530  -32.6370 C   0  0  0  0  0  0  0  0  0  0  0  0
   -8.1280   21.4930  -32.2490 C   0  0  0  0  0  0  0  0  0  0  0  0
   -7.0240   22.1570  -31.7220 C   0  0  0  0  0  0  0  0  0  0  0  0
   -6.8980   23.4580  -31.2940 C   0  0  0  0  0  0  0  0  0  0  0  0
   -5.5750   23.5830  -30.8750 C   0  0  0  0  0  0  0  0  0  0  0  0
   -5.0340   24.8100  -30.2590 C   0  0  0  0  0  0  0  0  0  0  0  0
   -3.9380   25.5040  -30.8480 N   0  0  0  0  0  0  0  0  0  0  0  0
   -5.5110   25.2240  -29.1680 O   0  0  0  0  0  0  0  0  0  0  0  0
   -4.9050   22.4070  -31.0440 N   0  0  0  0  0  0  0  0  0  0  0  0
   -3.5050   22.1530  -30.8390 C   0  0  0  0  0  0  0  0  0  0  0  0
   -3.0380   20.9990  -31.0360 O   0  0  0  0  0  0  0  0  0  0  0  0
   -2.6340   23.2210  -30.4530 N   0  0  0  0  0  0  0  0  0  0  0  0
   -2.3800   23.6080  -29.0640 C   0  0  2  0  0  0  0  0  0  0  0  0
   -1.2980   24.6520  -28.9840 C   0  0  0  0  0  0  0  0  0  0  0  0
   -0.0890   24.3010  -28.9750 O   0  0  0  0  0  0  0  0  0  0  0  0
   -1.6160   26.0050  -28.9670 O   0  0  0  0  0  0  0  0  0  0  0  0
   -2.0290   22.3660  -28.2190 C   0  0  2  0  0  0  0  0  0  0  0  0
   -1.3680   22.7250  -26.8780 C   0  0  0  0  0  0  0  0  0  0  0  0
   -1.1670   21.5410  -28.9600 O   0  0  0  0  0  0  0  0  0  0  0  0
   -5.8080   21.5440  -31.5630 C   0  0  0  0  0  0  0  0  0  0  0  0
   -5.6140   20.2140  -31.9610 C   0  0  0  0  0  0  0  0  0  0  0  0
   -6.4877   17.4515  -32.0042 H   0  0  0  0  0  0  0  0  0  0  0  0
   -7.4241   17.7641  -33.5048 H   0  0  0  0  0  0  0  0  0  0  0  0
   -5.6379   17.9542  -33.5048 H   0  0  0  0  0  0  0  0  0  0  0  0
   -8.8237   19.5950  -33.0407 H   0  0  0  0  0  0  0  0  0  0  0  0
   -9.0971   22.0019  -32.3582 H   0  0  0  0  0  0  0  0  0  0  0  0
   -7.6765   24.2350  -31.2845 H   0  0  0  0  0  0  0  0  0  0  0  0
   -2.9560   25.2970  -30.5640 H   0  0  0  0  0  0  0  0  0  0  0  0
   -3.2968   24.0542  -28.6513 H   0  0  0  0  0  0  0  0  0  0  0  0
   -2.9696   21.8459  -27.9848 H   0  0  0  0  0  0  0  0  0  0  0  0
   -2.0052   22.3789  -26.0508 H   0  0  0  0  0  0  0  0  0  0  0  0
   -0.3843   22.2372  -26.8119 H   0  0  0  0  0  0  0  0  0  0  0  0
   -1.2416   23.8157  -26.8119 H   0  0  0  0  0  0  0  0  0  0  0  0
   -1.3370   21.7340  -29.9200 H   0  0  0  0  0  0  0  0  0  0  0  0
   -4.6336   19.7287  -31.8458 H   0  0  0  0  0  0  0  0  0  0  0  0
  1  2  1  0
  2  3  2  0
  3  4  1  0
  4  5  2  0
  5  6  1  0
  6  7  2  0
  7  8  1  0
  8  9  1  0
  8 10  2  0
  7 11  1  0
 11 12  1  0
 12 13  2  0
 12 14  1  0
 14 15  1  0
 15 16  1  0
 16 17  2  0
 16 18  1  0
 15 19  1  0
 19 20  1  0
 19 21  1  0
 11 22  1  0
 22 23  2  0
 23  2  1  0
 22  5  1  0
  1 24  1  0
  1 25  1  0
  1 26  1  0
  3 27  1  0
  4 28  1  0
  6 29  1  0
  9 30  1  0
 15 31  1  1
 19 32  1  1
 20 33  1  0
 20 34  1  0
 20 35  1  0
 21 36  1  0
 23 37  1  0
M  CHG  3   9  -1  14  -1  18  -1
M  END
>  <UniqueID>  (26) 
26

>  <SMILES>  (26) 
Cc1ccc2cc(C([NH-])=O)n(C(=O)[N-][C@H](C(=O)[O-])[C@H](C)O)c2c1

>  <Energy>  (26) 
71.22049130416664

>  <Genealogy>  (26) 
Cc1ccc2cc(C([NH-])=O)n(C(=O)[N-]C(C(=O)[O-])C(C)O)c2c1 (protonated)
Cc1ccc2cc(C([NH-])=O)n(C(=O)[N-][C@H](C(=O)[O-])[C@H](C)O)c2c1 (chirality)
Cc1ccc2cc(C([NH-])=O)n(C(=O)[N-][C@H](C(=O)[O-])[C@H](C)O)c2c1 (3D coordinates assigned)
Cc1ccc2cc(C([NH-])=O)n(C(=O)[N-][C@H](C(=O)[O-])[C@H](C)O)c2c1 (optimized conformer: 71.22049130416664 kcal/mol)

>  <smiles>  (26) 
Cc1ccc2cc(C(N)=O)n(C(=O)NC(C(=O)O)C(C)O)c2c1

>  <score_type>  (26) 
oracle

>  <origin>  (26) 
adg

>  <m_score__min__energy>  (26) 
-12.31

>  <m_primary>  (26) 
energy

$$$$
26:0
     RDKit          3D

 42 43  0  0  0  0  0  0  0  0999 V2000
   -6.8050   18.3900  -33.4670 C   0  0  0  0  0  0  0  0  0  0  0  0
   -6.9130   19.7470  -32.8380 C   0  0  0  0  0  0  0  0  0  0  0  0
   -8.1770   20.3750  -32.7190 C   0  0  0  0  0  0  0  0  0  0  0  0
   -8.2950   21.6340  -32.1070 C   0  0  0  0  0  0  0  0  0  0  0  0
   -7.1410   22.2270  -31.6040 C   0  0  0  0  0  0  0  0  0  0  0  0
   -6.9640   23.4420  -30.9800 C   0  0  0  0  0  0  0  0  0  0  0  0
   -5.6020   23.5160  -30.6930 C   0  0  0  0  0  0  0  0  0  0  0  0
   -4.9790   24.6370  -29.9580 C   0  0  0  0  0  0  0  0  0  0  0  0
   -3.8600   25.3190  -30.5210 N   0  0  0  0  0  0  0  0  0  0  0  0
   -5.4390   25.0170  -28.8490 O   0  0  0  0  0  0  0  0  0  0  0  0
   -4.9630   22.3920  -31.1240 N   0  0  0  0  0  0  0  0  0  0  0  0
   -3.5630   22.0850  -31.0460 C   0  0  0  0  0  0  0  0  0  0  0  0
   -3.1030   21.1040  -31.6890 O   0  0  0  0  0  0  0  0  0  0  0  0
   -2.7010   22.8930  -30.2310 N   0  0  0  0  0  0  0  0  0  0  0  0
   -1.3760   22.5080  -29.8370 C   0  0  0  0  0  0  0  0  0  0  0  0
   -0.8950   21.3990  -30.1960 O   0  0  0  0  0  0  0  0  0  0  0  0
   -0.5670   23.4110  -28.9560 C   0  0  0  0  0  0  0  0  0  0  0  0
   -1.3170   24.6890  -28.6750 C   0  0  0  0  0  0  0  0  0  0  0  0
   -0.9440   25.7230  -29.2150 O   0  0  0  0  0  0  0  0  0  0  0  0
   -2.4780   24.6980  -27.8050 N   0  0  0  0  0  0  0  0  0  0  0  0
   -2.2570   25.6150  -26.6760 C   0  0  0  0  0  0  0  0  0  0  0  0
   -2.7680   23.3390  -27.3220 C   0  0  0  0  0  0  0  0  0  0  0  0
   -5.9170   21.6150  -31.6820 C   0  0  0  0  0  0  0  0  0  0  0  0
   -5.7650   20.3740  -32.3090 C   0  0  0  0  0  0  0  0  0  0  0  0
   -6.7441   17.6246  -32.6793 H   0  0  0  0  0  0  0  0  0  0  0  0
   -7.6912   18.2038  -34.0915 H   0  0  0  0  0  0  0  0  0  0  0  0
   -5.9005   18.3463  -34.0915 H   0  0  0  0  0  0  0  0  0  0  0  0
   -9.0743   19.8724  -33.1093 H   0  0  0  0  0  0  0  0  0  0  0  0
   -9.2705   22.1361  -32.0278 H   0  0  0  0  0  0  0  0  0  0  0  0
   -7.7343   24.1945  -30.7557 H   0  0  0  0  0  0  0  0  0  0  0  0
   -2.9260   25.2970  -30.0520 H   0  0  0  0  0  0  0  0  0  0  0  0
   -3.0780   23.8010  -29.8750 H   0  0  0  0  0  0  0  0  0  0  0  0
   -0.3588   22.8975  -28.0057 H   0  0  0  0  0  0  0  0  0  0  0  0
    0.3742   23.6574  -29.4692 H   0  0  0  0  0  0  0  0  0  0  0  0
   -3.3180   25.0360  -28.3310 H   0  0  0  0  0  0  0  0  0  0  0  0
   -2.3884   25.0698  -25.7297 H   0  0  0  0  0  0  0  0  0  0  0  0
   -1.2355   26.0200  -26.7271 H   0  0  0  0  0  0  0  0  0  0  0  0
   -2.9818   26.4408  -26.7271 H   0  0  0  0  0  0  0  0  0  0  0  0
   -2.7692   23.3333  -26.2220 H   0  0  0  0  0  0  0  0  0  0  0  0
   -3.7542   23.0212  -27.6914 H   0  0  0  0  0  0  0  0  0  0  0  0
   -1.9974   22.6463  -27.6914 H   0  0  0  0  0  0  0  0  0  0  0  0
   -4.7759   19.8990  -32.3877 H   0  0  0  0  0  0  0  0  0  0  0  0
  1  2  1  0
  2  3  2  0
  3  4  1  0
  4  5  2  0
  5  6  1  0
  6  7  2  0
  7  8  1  0
  8  9  1  0
  8 10  2  0
  7 11  1  0
 11 12  1  0
 12 13  2  0
 12 14  1  0
 14 15  1  0
 15 16  2  0
 15 17  1  0
 17 18  1  0
 18 19  2  0
 18 20  1  0
 20 21  1  0
 20 22  1  0
 11 23  1  0
 23 24  2  0
 24  2  1  0
 23  5  1  0
  1 25  1  0
  1 26  1  0
  1 27  1  0
  3 28  1  0
  4 29  1  0
  6 30  1  0
  9 31  1  0
 14 32  1  0
 17 33  1  0
 17 34  1  0
 20 35  1  0
 21 36  1  0
 21 37  1  0
 21 38  1  0
 22 39  1  0
 22 40  1  0
 22 41  1  0
 24 42  1  0
M  CHG  2   9  -1  20   1
M  END
>  <UniqueID>  (27) 
27

>  <SMILES>  (27) 
Cc1ccc2cc(C([NH-])=O)n(C(=O)NC(=O)CC(=O)[NH+](C)C)c2c1

>  <Energy>  (27) 
75.30134977451779

>  <Genealogy>  (27) 
Cc1ccc2cc(C([NH-])=O)n(C(=O)NC(=O)CC(=O)[NH+](C)C)c2c1 (protonated)
Cc1ccc2cc(C([NH-])=O)n(C(=O)NC(=O)CC(=O)[NH+](C)C)c2c1 (3D coordinates assigned)
Cc1ccc2cc(C([NH-])=O)n(C(=O)NC(=O)CC(=O)[NH+](C)C)c2c1 (optimized conformer: 75.30134977451779 kcal/mol)

>  <smiles>  (27) 
Cc1ccc2cc(C(N)=O)n(C(=O)NC(=O)CC(=O)N(C)C)c2c1

>  <score_type>  (27) 
oracle

>  <origin>  (27) 
adg

>  <m_score__min__energy>  (27) 
-9.0399999999999991

>  <m_primary>  (27) 
energy

$$$$
27:0
     RDKit          3D

 37 38  0  0  0  0  0  0  0  0999 V2000
   -3.0580   25.2340  -30.3330 H   0  0  0  0  0  0  0  0  0  0  0  0
   -3.9440   25.3680  -30.8690 N   0  0  0  0  0  0  0  0  0  0  0  0
   -5.2010   24.9850  -30.3130 C   0  0  0  0  0  0  0  0  0  0  0  0
   -5.7100   25.6890  -29.4020 O   0  0  0  0  0  0  0  0  0  0  0  0
   -5.9070   23.8000  -30.8400 C   0  0  0  0  0  0  0  0  0  0  0  0
   -7.2360   23.8230  -31.2580 C   0  0  0  0  0  0  0  0  0  0  0  0
   -7.8910   24.7022  -31.3476 H   0  0  0  0  0  0  0  0  0  0  0  0
   -7.5560   22.5140  -31.5350 C   0  0  0  0  0  0  0  0  0  0  0  0
   -8.7540   21.9550  -31.9710 C   0  0  0  0  0  0  0  0  0  0  0  0
   -9.6400   22.5819  -32.1497 H   0  0  0  0  0  0  0  0  0  0  0  0
   -8.7970   20.5650  -32.1760 C   0  0  0  0  0  0  0  0  0  0  0  0
   -9.7338   20.0927  -32.5067 H   0  0  0  0  0  0  0  0  0  0  0  0
   -7.6450   19.7640  -31.9610 C   0  0  0  0  0  0  0  0  0  0  0  0
   -7.7170   18.2690  -32.1440 C   0  0  0  0  0  0  0  0  0  0  0  0
   -7.3300   17.9140  -33.4240 F   0  0  0  0  0  0  0  0  0  0  0  0
   -6.8830   17.6260  -31.2460 F   0  0  0  0  0  0  0  0  0  0  0  0
   -9.0170   17.8470  -31.9330 F   0  0  0  0  0  0  0  0  0  0  0  0
   -6.4550   20.3660  -31.4920 C   0  0  0  0  0  0  0  0  0  0  0  0
   -5.5588   19.7608  -31.2907 H   0  0  0  0  0  0  0  0  0  0  0  0
   -6.4450   21.7510  -31.2900 C   0  0  0  0  0  0  0  0  0  0  0  0
   -5.4180   22.5270  -30.8810 N   0  0  0  0  0  0  0  0  0  0  0  0
   -4.0930   22.0730  -30.5540 C   0  0  0  0  0  0  0  0  0  0  0  0
   -3.2980   21.7680  -31.4830 O   0  0  0  0  0  0  0  0  0  0  0  0
   -3.6490   21.8940  -29.1550 C   0  0  0  0  0  0  0  0  0  0  0  0
   -4.0749   21.0488  -28.5944 H   0  0  0  0  0  0  0  0  0  0  0  0
   -2.7690   22.6780  -28.5130 C   0  0  0  0  0  0  0  0  0  0  0  0
   -2.6742   22.5490  -27.4247 H   0  0  0  0  0  0  0  0  0  0  0  0
   -1.9160   23.7030  -29.1560 C   0  0  0  0  0  0  0  0  0  0  0  0
   -1.5420   23.5360  -30.3480 O   0  0  0  0  0  0  0  0  0  0  0  0
   -1.4340   24.8490  -28.4310 N   0  0  0  0  0  0  0  0  0  0  0  0
   -1.6050   26.0790  -28.9720 O   0  0  0  0  0  0  0  0  0  0  0  0
   -0.7860   24.7520  -27.1210 C   0  0  0  0  0  0  0  0  0  0  0  0
   -0.6741   25.7607  -26.6966 H   0  0  0  0  0  0  0  0  0  0  0  0
   -1.4086   24.1304  -26.4606 H   0  0  0  0  0  0  0  0  0  0  0  0
    0.5630   24.1200  -27.2510 C   0  0  0  0  0  0  0  0  0  0  0  0
    0.8990   23.1770  -26.4880 O   0  0  0  0  0  0  0  0  0  0  0  0
    1.4520   24.5770  -28.2160 O   0  0  0  0  0  0  0  0  0  0  0  0
  1  2  1  0
  2  3  1  0
  3  4  2  0
  3  5  1  0
  5  6  2  0
  6  7  1  0
  6  8  1  0
  8  9  2  0
  9 10  1  0
  9 11  1  0
 11 12  1  0
 11 13  2  0
 13 14  1  0
 14 15  1  0
 14 16  1  0
 14 17  1  0
 13 18  1  0
 18 19  1  0
 18 20  2  0
 20 21  1  0
 21 22  1  0
 22 23  2  0
 22 24  1  0
 24 25  1  0
 24 26  2  0
 26 27  1  0
 26 28  1  0
 28 29  2  0
 28 30  1  0
 30 31  1  0
 30 32  1  0
 32 33  1  0
 32 34  1  0
 32 35  1  0
 35 36  2  0
 35 37  1  0
 21  5  1  0
 20  8  1  0
M  CHG  3   2  -1  31  -1  37  -1
M  END
>  <UniqueID>  (28) 
28

>  <SMILES>  (28) 
[NH-]C(=O)c1cc2ccc(C(F)(F)F)cc2n1C(=O)/C=C\C(=O)N([O-])CC(=O)[O-]

>  <Energy>  (28) 
80.14746326486402

>  <Genealogy>  (28) 
[NH-]C(=O)c1cc2ccc(C(F)(F)F)cc2n1C(=O)/C=C\C(=O)N([O-])CC(=O)[O-] (protonated)
[NH-]C(=O)c1cc2ccc(C(F)(F)F)cc2n1C(=O)/C=C\C(=O)N([O-])CC(=O)[O-] (cis-trans isomerization)
[NH-]C(=O)c1cc2ccc(C(F)(F)F)cc2n1C(=O)/C=C\C(=O)N([O-])CC(=O)[O-] (3D coordinates assigned)
[NH-]C(=O)c1cc2ccc(C(F)(F)F)cc2n1C(=O)/C=C\C(=O)N([O-])CC(=O)[O-] (optimized conformer: 80.14746326486402 kcal/mol)

>  <smiles>  (28) 
NC(=O)c1cc2ccc(C(F)(F)F)cc2n1C(=O)/C=C\C(=O)N(O)CC(=O)O

>  <score_type>  (28) 
oracle

>  <origin>  (28) 
adg

>  <m_score__min__energy>  (28) 
-14.289999999999999

>  <m_primary>  (28) 
energy

$$$$
28:0
     RDKit          3D

 40 42  0  0  0  0  0  0  0  0999 V2000
   -4.2340   25.5300  -30.5890 N   0  0  0  0  0  0  0  0  0  0  0  0
   -5.6020   25.1670  -30.3970 C   0  0  0  0  0  0  0  0  0  0  0  0
   -6.3920   25.9980  -29.8750 O   0  0  0  0  0  0  0  0  0  0  0  0
   -6.1200   23.8590  -30.8460 C   0  0  0  0  0  0  0  0  0  0  0  0
   -7.4560   23.6250  -31.1620 C   0  0  0  0  0  0  0  0  0  0  0  0
   -7.5100   22.3070  -31.5530 C   0  0  0  0  0  0  0  0  0  0  0  0
   -8.5960   21.5400  -31.9640 C   0  0  0  0  0  0  0  0  0  0  0  0
   -8.3700   20.1870  -32.2710 C   0  0  0  0  0  0  0  0  0  0  0  0
   -7.0770   19.6190  -32.1320 C   0  0  0  0  0  0  0  0  0  0  0  0
   -6.8390   18.1750  -32.4960 C   0  0  0  0  0  0  0  0  0  0  0  0
   -7.9890   17.4290  -32.3110 F   0  0  0  0  0  0  0  0  0  0  0  0
   -5.8370   17.6630  -31.6940 F   0  0  0  0  0  0  0  0  0  0  0  0
   -6.4580   18.0610  -33.8220 F   0  0  0  0  0  0  0  0  0  0  0  0
   -5.9950   20.4370  -31.7300 C   0  0  0  0  0  0  0  0  0  0  0  0
   -6.2460   21.7870  -31.4580 C   0  0  0  0  0  0  0  0  0  0  0  0
   -5.3790   22.7310  -31.0290 N   0  0  0  0  0  0  0  0  0  0  0  0
   -3.9950   22.5400  -30.6960 C   0  0  0  0  0  0  0  0  0  0  0  0
   -3.1020   23.0610  -31.4180 O   0  0  0  0  0  0  0  0  0  0  0  0
   -3.5940   21.7030  -29.5220 C   0  0  0  0  0  0  0  0  0  0  0  0
   -3.3900   22.5440  -28.4080 O   0  0  0  0  0  0  0  0  0  0  0  0
   -2.0080   22.7260  -28.1630 C   0  0  0  0  0  0  0  0  0  0  0  0
   -1.6360   24.2020  -28.3670 C   0  0  0  0  0  0  0  0  0  0  0  0
   -2.2980   24.9230  -29.3670 O   0  0  0  0  0  0  0  0  0  0  0  0
   -1.3320   25.0160  -27.1220 C   0  0  0  0  0  0  0  0  0  0  0  0
   -0.2100   24.6450  -28.0890 C   0  0  0  0  0  0  0  0  0  0  0  0
   -3.6020   24.9580  -31.1900 H   0  0  0  0  0  0  0  0  0  0  0  0
   -3.8760   26.4360  -30.2140 H   0  0  0  0  0  0  0  0  0  0  0  0
   -8.2897   24.3408  -31.1101 H   0  0  0  0  0  0  0  0  0  0  0  0
   -9.6011   21.9793  -32.0462 H   0  0  0  0  0  0  0  0  0  0  0  0
   -9.2041   19.5620  -32.6226 H   0  0  0  0  0  0  0  0  0  0  0  0
   -4.9808   20.0221  -31.6335 H   0  0  0  0  0  0  0  0  0  0  0  0
   -4.3902   20.9783  -29.2964 H   0  0  0  0  0  0  0  0  0  0  0  0
   -2.6661   21.1590  -29.7524 H   0  0  0  0  0  0  0  0  0  0  0  0
   -1.7780   22.4306  -27.1287 H   0  0  0  0  0  0  0  0  0  0  0  0
   -1.4292   22.1045  -28.8621 H   0  0  0  0  0  0  0  0  0  0  0  0
   -3.0290   24.3320  -29.6830 H   0  0  0  0  0  0  0  0  0  0  0  0
   -1.6736   26.0591  -27.0493 H   0  0  0  0  0  0  0  0  0  0  0  0
   -1.5061   24.8845  -26.0439 H   0  0  0  0  0  0  0  0  0  0  0  0
    0.2573   25.4205  -28.7137 H   0  0  0  0  0  0  0  0  0  0  0  0
    0.7604   24.1350  -27.9976 H   0  0  0  0  0  0  0  0  0  0  0  0
  1  2  1  0
  2  3  2  0
  2  4  1  0
  4  5  2  0
  5  6  1  0
  6  7  2  0
  7  8  1  0
  8  9  2  0
  9 10  1  0
 10 11  1  0
 10 12  1  0
 10 13  1  0
  9 14  1  0
 14 15  2  0
 15 16  1  0
 16 17  1  0
 17 18  2  0
 17 19  1  0
 19 20  1  0
 20 21  1  0
 21 22  1  0
 22 23  1  0
 22 24  1  0
 24 25  1  0
 16  4  1  0
 25 22  1  0
 15  6  1  0
  1 26  1  0
  1 27  1  0
  5 28  1  0
  7 29  1  0
  8 30  1  0
 14 31  1  0
 19 32  1  0
 19 33  1  0
 21 34  1  0
 21 35  1  0
 23 36  1  0
 24 37  1  0
 24 38  1  0
 25 39  1  0
 25 40  1  0
M  END
>  <UniqueID>  (29) 
29

>  <SMILES>  (29) 
NC(=O)c1cc2ccc(C(F)(F)F)cc2n1C(=O)COCC1(O)CC1

>  <Energy>  (29) 
349.7367418913203

>  <Genealogy>  (29) 
NC(=O)c1cc2ccc(C(F)(F)F)cc2n1C(=O)COCC1(O)CC1 (3D coordinates assigned)
NC(=O)c1cc2ccc(C(F)(F)F)cc2n1C(=O)COCC1(O)CC1 (nonaromatic ring conformer: 349.7367418913203 kcal/mol)

>  <smiles>  (29) 
NC(=O)c1cc2ccc(C(F)(F)F)cc2n1C(=O)COCC1(O)CC1

>  <score_type>  (29) 
oracle

>  <origin>  (29) 
adg

>  <m_score__min__energy>  (29) 
-9.1400000000000006

>  <m_primary>  (29) 
energy

$$$$
29:0
     RDKit          3D

 38 39  0  0  0  0  0  0  0  0999 V2000
   -6.1800   17.4560  -31.7600 C   0  0  0  0  0  0  0  0  0  0  0  0
   -6.8440   18.3040  -32.8480 C   0  0  2  0  0  0  0  0  0  0  0  0
   -6.0680   18.2360  -34.0950 C   0  0  0  0  0  0  0  0  0  0  0  0
   -5.4560   18.1820  -35.0770 N   0  0  0  0  0  0  0  0  0  0  0  0
   -6.9990   19.7410  -32.3970 C   0  0  0  0  0  0  0  0  0  0  0  0
   -8.2820   20.3460  -32.3860 C   0  0  0  0  0  0  0  0  0  0  0  0
   -8.4460   21.6780  -31.9670 C   0  0  0  0  0  0  0  0  0  0  0  0
   -7.3150   22.3760  -31.5540 C   0  0  0  0  0  0  0  0  0  0  0  0
   -7.1850   23.6780  -31.1280 C   0  0  0  0  0  0  0  0  0  0  0  0
   -5.8280   23.8440  -30.8550 C   0  0  0  0  0  0  0  0  0  0  0  0
   -5.2550   25.0860  -30.2950 C   0  0  0  0  0  0  0  0  0  0  0  0
   -4.0790   25.6680  -30.8500 N   0  0  0  0  0  0  0  0  0  0  0  0
   -5.7870   25.6170  -29.2840 O   0  0  0  0  0  0  0  0  0  0  0  0
   -5.1470   22.6900  -31.1090 N   0  0  0  0  0  0  0  0  0  0  0  0
   -3.7310   22.4680  -31.0330 C   0  0  0  0  0  0  0  0  0  0  0  0
   -3.2420   21.3890  -31.4630 O   0  0  0  0  0  0  0  0  0  0  0  0
   -2.8840   23.4690  -30.4530 N   0  0  0  0  0  0  0  0  0  0  0  0
   -2.0660   23.3050  -29.2520 C   0  0  1  0  0  0  0  0  0  0  0  0
   -1.2800   21.9840  -29.2950 C   0  0  0  0  0  0  0  0  0  0  0  0
   -0.6970   21.7980  -30.5560 O   0  0  0  0  0  0  0  0  0  0  0  0
   -1.1730   24.5010  -29.0540 C   0  0  0  0  0  0  0  0  0  0  0  0
   -1.6100   25.6540  -29.3070 O   0  0  0  0  0  0  0  0  0  0  0  0
    0.1470   24.3470  -28.6430 O   0  0  0  0  0  0  0  0  0  0  0  0
   -6.0710   21.8020  -31.5340 C   0  0  0  0  0  0  0  0  0  0  0  0
   -5.8750   20.4850  -31.9630 C   0  0  0  0  0  0  0  0  0  0  0  0
   -6.4754   17.8332  -30.7698 H   0  0  0  0  0  0  0  0  0  0  0  0
   -6.5009   16.4090  -31.8642 H   0  0  0  0  0  0  0  0  0  0  0  0
   -5.0866   17.5165  -31.8642 H   0  0  0  0  0  0  0  0  0  0  0  0
   -7.8482   17.8961  -33.0355 H   0  0  0  0  0  0  0  0  0  0  0  0
   -9.1591   19.7661  -32.7092 H   0  0  0  0  0  0  0  0  0  0  0  0
   -9.4378   22.1538  -31.9656 H   0  0  0  0  0  0  0  0  0  0  0  0
   -7.9825   24.4285  -31.0248 H   0  0  0  0  0  0  0  0  0  0  0  0
   -3.1320   25.3040  -30.6060 H   0  0  0  0  0  0  0  0  0  0  0  0
   -2.7302   23.2472  -28.3771 H   0  0  0  0  0  0  0  0  0  0  0  0
   -0.4889   22.0089  -28.5311 H   0  0  0  0  0  0  0  0  0  0  0  0
   -1.9727   21.1525  -29.0983 H   0  0  0  0  0  0  0  0  0  0  0  0
   -1.2830   22.2590  -31.2110 H   0  0  0  0  0  0  0  0  0  0  0  0
   -4.8702   20.0373  -31.9632 H   0  0  0  0  0  0  0  0  0  0  0  0
  1  2  1  0
  2  3  1  0
  3  4  3  0
  2  5  1  0
  5  6  2  0
  6  7  1  0
  7  8  2  0
  8  9  1  0
  9 10  2  0
 10 11  1  0
 11 12  1  0
 11 13  2  0
 10 14  1  0
 14 15  1  0
 15 16  2  0
 15 17  1  0
 17 18  1  0
 18 19  1  0
 19 20  1  0
 18 21  1  0
 21 22  2  0
 21 23  1  0
 14 24  1  0
 24 25  2  0
 25  5  1  0
 24  8  1  0
  1 26  1  0
  1 27  1  0
  1 28  1  0
  2 29  1  6
  6 30  1  0
  7 31  1  0
  9 32  1  0
 12 33  1  0
 18 34  1  1
 19 35  1  0
 19 36  1  0
 20 37  1  0
 25 38  1  0
M  CHG  3  12  -1  17  -1  23  -1
M  END
>  <UniqueID>  (30) 
30

>  <SMILES>  (30) 
C[C@H](C#N)c1ccc2cc(C([NH-])=O)n(C(=O)[N-][C@@H](CO)C(=O)[O-])c2c1

>  <Energy>  (30) 
72.0617200326329

>  <Genealogy>  (30) 
CC(C#N)c1ccc2cc(C([NH-])=O)n(C(=O)[N-][C@@H](CO)C(=O)[O-])c2c1 (protonated)
C[C@H](C#N)c1ccc2cc(C([NH-])=O)n(C(=O)[N-][C@@H](CO)C(=O)[O-])c2c1 (chirality)
C[C@H](C#N)c1ccc2cc(C([NH-])=O)n(C(=O)[N-][C@@H](CO)C(=O)[O-])c2c1 (3D coordinates assigned)
C[C@H](C#N)c1ccc2cc(C([NH-])=O)n(C(=O)[N-][C@@H](CO)C(=O)[O-])c2c1 (optimized conformer: 72.0617200326329 kcal/mol)

>  <smiles>  (30) 
CC(C#N)c1ccc2cc(C(N)=O)n(C(=O)N[C@@H](CO)C(=O)O)c2c1

>  <score_type>  (30) 
oracle

>  <origin>  (30) 
adg

>  <m_score__min__energy>  (30) 
-13.35

>  <m_primary>  (30) 
energy

$$$$
30:0
     RDKit          3D

 42 43  0  0  0  0  0  0  0  0999 V2000
   -9.0020   18.2800  -31.9670 C   0  0  0  0  0  0  0  0  0  0  0  0
   -7.9060   18.9520  -32.6660 N   0  0  0  0  0  0  0  0  0  0  0  0
   -7.7870   20.3140  -32.2070 C   0  0  0  0  0  0  0  0  0  0  0  0
   -8.9500   21.0890  -31.9560 C   0  0  0  0  0  0  0  0  0  0  0  0
   -8.8450   22.4220  -31.5230 C   0  0  0  0  0  0  0  0  0  0  0  0
   -7.5710   22.9560  -31.3600 C   0  0  0  0  0  0  0  0  0  0  0  0
   -7.1760   24.1970  -30.9100 C   0  0  0  0  0  0  0  0  0  0  0  0
   -5.7810   24.1610  -30.9050 C   0  0  0  0  0  0  0  0  0  0  0  0
   -4.9260   25.2910  -30.4830 C   0  0  0  0  0  0  0  0  0  0  0  0
   -3.5730   25.0800  -30.0890 N   0  0  0  0  0  0  0  0  0  0  0  0
   -5.3930   26.4610  -30.4830 O   0  0  0  0  0  0  0  0  0  0  0  0
   -5.3380   22.9510  -31.3420 N   0  0  0  0  0  0  0  0  0  0  0  0
   -3.9910   22.4650  -31.3760 C   0  0  0  0  0  0  0  0  0  0  0  0
   -3.0450   23.2670  -31.5970 O   0  0  0  0  0  0  0  0  0  0  0  0
   -3.7170   20.9970  -31.2670 C   0  0  0  0  0  0  0  0  0  0  0  0
   -2.8420   20.5620  -32.4100 C   0  0  0  0  0  0  0  0  0  0  0  0
   -1.9420   21.3510  -32.8080 O   0  0  0  0  0  0  0  0  0  0  0  0
   -3.0650   19.3180  -33.1100 N   0  0  0  0  0  0  0  0  0  0  0  0
   -2.1860   18.1650  -32.8890 C   0  0  0  0  0  0  0  0  0  0  0  0
   -4.1150   19.2340  -34.1330 C   0  0  0  0  0  0  0  0  0  0  0  0
   -5.2670   18.4260  -33.6250 C   0  0  0  0  0  0  0  0  0  0  0  0
   -5.3260   18.0970  -32.4120 O   0  0  0  0  0  0  0  0  0  0  0  0
   -6.2930   18.0620  -34.4880 O   0  0  0  0  0  0  0  0  0  0  0  0
   -6.4400   22.2260  -31.6170 C   0  0  0  0  0  0  0  0  0  0  0  0
   -6.5100   20.8980  -32.0430 C   0  0  0  0  0  0  0  0  0  0  0  0
   -8.8543   18.3706  -30.8807 H   0  0  0  0  0  0  0  0  0  0  0  0
   -9.9573   18.7478  -32.2474 H   0  0  0  0  0  0  0  0  0  0  0  0
   -9.0183   17.2165  -32.2474 H   0  0  0  0  0  0  0  0  0  0  0  0
   -8.0920   18.9360  -33.6950 H   0  0  0  0  0  0  0  0  0  0  0  0
   -7.0130   18.4330  -32.4900 H   0  0  0  0  0  0  0  0  0  0  0  0
   -9.9441   20.6412  -32.1020 H   0  0  0  0  0  0  0  0  0  0  0  0
   -9.7426   23.0244  -31.3193 H   0  0  0  0  0  0  0  0  0  0  0  0
   -7.8227   25.0372  -30.6171 H   0  0  0  0  0  0  0  0  0  0  0  0
   -2.7860   25.2720  -30.7480 H   0  0  0  0  0  0  0  0  0  0  0  0
   -3.2063   20.7894  -30.3151 H   0  0  0  0  0  0  0  0  0  0  0  0
   -4.6672   20.4439  -31.3027 H   0  0  0  0  0  0  0  0  0  0  0  0
   -2.0610   18.0010  -31.8085 H   0  0  0  0  0  0  0  0  0  0  0  0
   -2.6331   17.2701  -33.3464 H   0  0  0  0  0  0  0  0  0  0  0  0
   -1.2046   18.3591  -33.3464 H   0  0  0  0  0  0  0  0  0  0  0  0
   -4.4632   20.2477  -34.3806 H   0  0  0  0  0  0  0  0  0  0  0  0
   -3.7040   18.7487  -35.0305 H   0  0  0  0  0  0  0  0  0  0  0  0
   -5.5954   20.3214  -32.2457 H   0  0  0  0  0  0  0  0  0  0  0  0
  1  2  1  0
  2  3  1  0
  3  4  2  0
  4  5  1  0
  5  6  2  0
  6  7  1  0
  7  8  2  0
  8  9  1  0
  9 10  1  0
  9 11  2  0
  8 12  1  0
 12 13  1  0
 13 14  2  0
 13 15  1  0
 15 16  1  0
 16 17  2  0
 16 18  1  0
 18 19  1  0
 18 20  1  0
 20 21  1  0
 21 22  2  0
 21 23  1  0
 12 24  1  0
 24 25  2  0
 25  3  1  0
 24  6  1  0
  1 26  1  0
  1 27  1  0
  1 28  1  0
  2 29  1  0
  2 30  1  0
  4 31  1  0
  5 32  1  0
  7 33  1  0
 10 34  1  0
 15 35  1  0
 15 36  1  0
 19 37  1  0
 19 38  1  0
 19 39  1  0
 20 40  1  0
 20 41  1  0
 25 42  1  0
M  CHG  3   2   1  10  -1  23  -1
M  END
>  <UniqueID>  (31) 
31

>  <SMILES>  (31) 
C[NH2+]c1ccc2cc(C([NH-])=O)n(C(=O)CC(=O)N(C)CC(=O)[O-])c2c1

>  <Energy>  (31) 
75.2366462263947

>  <Genealogy>  (31) 
C[NH2+]c1ccc2cc(C([NH-])=O)n(C(=O)CC(=O)N(C)CC(=O)[O-])c2c1 (protonated)
C[NH2+]c1ccc2cc(C([NH-])=O)n(C(=O)CC(=O)N(C)CC(=O)[O-])c2c1 (3D coordinates assigned)
C[NH2+]c1ccc2cc(C([NH-])=O)n(C(=O)CC(=O)N(C)CC(=O)[O-])c2c1 (optimized conformer: 75.2366462263947 kcal/mol)

>  <smiles>  (31) 
CNc1ccc2cc(C(N)=O)n(C(=O)CC(=O)N(C)CC(=O)O)c2c1

>  <score_type>  (31) 
oracle

>  <origin>  (31) 
adg

>  <m_score__min__energy>  (31) 
-11.94

>  <m_primary>  (31) 
energy

$$$$
31:0
     RDKit          3D

 37 38  0  0  0  0  0  0  0  0999 V2000
   -6.8740   18.4610  -33.3070 C   0  0  0  0  0  0  0  0  0  0  0  0
   -7.0290   19.8220  -32.6980 C   0  0  0  0  0  0  0  0  0  0  0  0
   -8.3180   20.3170  -32.3850 C   0  0  0  0  0  0  0  0  0  0  0  0
   -8.4750   21.5810  -31.7910 C   0  0  0  0  0  0  0  0  0  0  0  0
   -7.3270   22.3140  -31.5070 C   0  0  0  0  0  0  0  0  0  0  0  0
   -7.1930   23.5660  -30.9520 C   0  0  0  0  0  0  0  0  0  0  0  0
   -5.8200   23.8010  -30.8980 C   0  0  0  0  0  0  0  0  0  0  0  0
   -5.2260   25.0050  -30.2800 C   0  0  0  0  0  0  0  0  0  0  0  0
   -4.0850   25.6380  -30.8520 N   0  0  0  0  0  0  0  0  0  0  0  0
   -5.7030   25.4520  -29.2020 O   0  0  0  0  0  0  0  0  0  0  0  0
   -5.1330   22.7400  -31.4100 N   0  0  0  0  0  0  0  0  0  0  0  0
   -3.7160   22.6170  -31.6050 C   0  0  0  0  0  0  0  0  0  0  0  0
   -3.2680   21.9750  -32.5940 O   0  0  0  0  0  0  0  0  0  0  0  0
   -2.8370   23.1900  -30.6820 O   0  0  0  0  0  0  0  0  0  0  0  0
   -2.5340   22.5870  -29.4270 C   0  0  0  0  0  0  0  0  0  0  0  0
   -2.6220   23.6370  -28.3050 C   0  0  1  0  0  0  0  0  0  0  0  0
   -2.5610   24.9950  -28.8500 N   0  0  0  0  0  0  0  0  0  0  0  0
   -3.8900   23.4710  -27.4470 C   0  0  0  0  0  0  0  0  0  0  0  0
   -4.3550   24.7110  -26.9810 O   0  0  0  0  0  0  0  0  0  0  0  0
   -6.0700   21.8370  -31.7730 C   0  0  0  0  0  0  0  0  0  0  0  0
   -5.8850   20.5890  -32.3820 C   0  0  0  0  0  0  0  0  0  0  0  0
   -6.7884   17.7095  -32.5083 H   0  0  0  0  0  0  0  0  0  0  0  0
   -7.7523   18.2358  -33.9298 H   0  0  0  0  0  0  0  0  0  0  0  0
   -5.9675   18.4390  -33.9298 H   0  0  0  0  0  0  0  0  0  0  0  0
   -9.2051   19.7064  -32.6089 H   0  0  0  0  0  0  0  0  0  0  0  0
   -9.4739   21.9783  -31.5580 H   0  0  0  0  0  0  0  0  0  0  0  0
   -7.9982   24.2385  -30.6212 H   0  0  0  0  0  0  0  0  0  0  0  0
   -3.1210   25.2960  -30.6450 H   0  0  0  0  0  0  0  0  0  0  0  0
   -3.2535   21.7792  -29.2275 H   0  0  0  0  0  0  0  0  0  0  0  0
   -1.5137   22.1773  -29.4596 H   0  0  0  0  0  0  0  0  0  0  0  0
   -1.7522   23.4722  -27.6521 H   0  0  0  0  0  0  0  0  0  0  0  0
   -2.2350   24.9420  -29.8430 H   0  0  0  0  0  0  0  0  0  0  0  0
   -3.5220   25.4100  -28.8620 H   0  0  0  0  0  0  0  0  0  0  0  0
   -4.6755   22.9992  -28.0556 H   0  0  0  0  0  0  0  0  0  0  0  0
   -3.6423   22.8436  -26.5781 H   0  0  0  0  0  0  0  0  0  0  0  0
   -4.4120   25.3120  -27.7690 H   0  0  0  0  0  0  0  0  0  0  0  0
   -4.8753   20.2158  -32.6083 H   0  0  0  0  0  0  0  0  0  0  0  0
  1  2  1  0
  2  3  2  0
  3  4  1  0
  4  5  2  0
  5  6  1  0
  6  7  2  0
  7  8  1  0
  8  9  1  0
  8 10  2  0
  7 11  1  0
 11 12  1  0
 12 13  2  0
 12 14  1  0
 14 15  1  0
 15 16  1  0
 16 17  1  0
 16 18  1  0
 18 19  1  0
 11 20  1  0
 20 21  2  0
 21  2  1  0
 20  5  1  0
  1 22  1  0
  1 23  1  0
  1 24  1  0
  3 25  1  0
  4 26  1  0
  6 27  1  0
  9 28  1  0
 15 29  1  0
 15 30  1  0
 16 31  1  1
 17 32  1  0
 17 33  1  0
 18 34  1  0
 18 35  1  0
 19 36  1  0
 21 37  1  0
M  CHG  1   9  -1
M  END
>  <UniqueID>  (32) 
32

>  <SMILES>  (32) 
Cc1ccc2cc(C([NH-])=O)n(C(=O)OC[C@@H](N)CO)c2c1

>  <Energy>  (32) 
70.0221739964774

>  <Genealogy>  (32) 
Cc1ccc2cc(C([NH-])=O)n(C(=O)OC[C@@H](N)CO)c2c1 (protonated)
Cc1ccc2cc(C([NH-])=O)n(C(=O)OC[C@@H](N)CO)c2c1 (3D coordinates assigned)
Cc1ccc2cc(C([NH-])=O)n(C(=O)OC[C@@H](N)CO)c2c1 (optimized conformer: 70.0221739964774 kcal/mol)

>  <smiles>  (32) 
Cc1ccc2cc(C(N)=O)n(C(=O)OC[C@@H](N)CO)c2c1

>  <score_type>  (32) 
oracle

>  <origin>  (32) 
adg

>  <m_score__min__energy>  (32) 
-9.6400000000000006

>  <m_primary>  (32) 
energy

$$$$
32:0
     RDKit          3D

 52 53  0  0  0  0  0  0  0  0999 V2000
    1.1960   17.0850  -33.2300 C   0  0  0  0  0  0  0  0  0  0  0  0
   -0.0920   17.7150  -32.9270 N   0  0  0  0  0  0  0  0  0  0  0  0
   -0.4610   18.0290  -31.5390 C   0  0  0  0  0  0  0  0  0  0  0  0
   -0.2640   19.5240  -31.2320 C   0  0  0  0  0  0  0  0  0  0  0  0
   -1.5850   20.3130  -31.1920 C   0  0  1  0  0  0  0  0  0  0  0  0
   -1.3370   21.7940  -31.0900 C   0  0  0  0  0  0  0  0  0  0  0  0
   -2.0560   22.5020  -30.4020 O   0  0  0  0  0  0  0  0  0  0  0  0
   -2.3510   20.0150  -32.3970 N   0  0  0  0  0  0  0  0  0  0  0  0
   -3.2240   20.9540  -33.0350 C   0  0  0  0  0  0  0  0  0  0  0  0
   -2.7550   21.8270  -33.8140 O   0  0  0  0  0  0  0  0  0  0  0  0
   -4.6370   20.9000  -32.7870 N   0  0  0  0  0  0  0  0  0  0  0  0
   -5.5420   20.0350  -33.3250 C   0  0  0  0  0  0  0  0  0  0  0  0
   -5.2240   18.8700  -34.1740 C   0  0  0  0  0  0  0  0  0  0  0  0
   -3.8740   18.5440  -34.5140 N   0  0  0  0  0  0  0  0  0  0  0  0
   -6.1560   18.1180  -34.5670 O   0  0  0  0  0  0  0  0  0  0  0  0
   -6.8350   20.3740  -32.9360 C   0  0  0  0  0  0  0  0  0  0  0  0
   -6.6940   21.4780  -32.1270 C   0  0  0  0  0  0  0  0  0  0  0  0
   -7.6610   22.2490  -31.4890 C   0  0  0  0  0  0  0  0  0  0  0  0
   -7.2340   23.3690  -30.7570 C   0  0  0  0  0  0  0  0  0  0  0  0
   -5.8560   23.6990  -30.6720 C   0  0  0  0  0  0  0  0  0  0  0  0
   -5.4240   24.9450  -29.9400 C   0  0  0  0  0  0  0  0  0  0  0  0
   -5.1420   24.6670  -28.6140 F   0  0  0  0  0  0  0  0  0  0  0  0
   -4.2910   25.4560  -30.5440 F   0  0  0  0  0  0  0  0  0  0  0  0
   -6.4250   25.9000  -29.9800 F   0  0  0  0  0  0  0  0  0  0  0  0
   -4.9060   22.9050  -31.3550 C   0  0  0  0  0  0  0  0  0  0  0  0
   -5.3580   21.7790  -32.0550 C   0  0  0  0  0  0  0  0  0  0  0  0
   -0.9940   18.0110  -34.0100 C   0  0  0  0  0  0  0  0  0  0  0  0
   -1.7920   17.1280  -34.4290 O   0  0  0  0  0  0  0  0  0  0  0  0
   -0.9820   19.2830  -34.5950 O   0  0  0  0  0  0  0  0  0  0  0  0
    0.0760   19.7590  -35.4260 C   0  0  0  0  0  0  0  0  0  0  0  0
    0.3970   21.2180  -35.1100 C   0  0  0  0  0  0  0  0  0  0  0  0
   -0.0430   21.5440  -33.8210 O   0  0  0  0  0  0  0  0  0  0  0  0
    1.7109   16.8332  -32.2911 H   0  0  0  0  0  0  0  0  0  0  0  0
    1.0273   16.1677  -33.8132 H   0  0  0  0  0  0  0  0  0  0  0  0
    1.8166   17.7813  -33.8132 H   0  0  0  0  0  0  0  0  0  0  0  0
   -1.5177   17.7671  -31.3813 H   0  0  0  0  0  0  0  0  0  0  0  0
    0.1886   17.4484  -30.8675 H   0  0  0  0  0  0  0  0  0  0  0  0
    0.2294   19.6181  -30.2534 H   0  0  0  0  0  0  0  0  0  0  0  0
    0.3456   19.9473  -32.0439 H   0  0  0  0  0  0  0  0  0  0  0  0
   -2.1515   20.0091  -30.2994 H   0  0  0  0  0  0  0  0  0  0  0  0
   -0.4984   22.2440  -31.6416 H   0  0  0  0  0  0  0  0  0  0  0  0
   -3.6750   17.7420  -35.1510 H   0  0  0  0  0  0  0  0  0  0  0  0
   -3.0710   19.0370  -34.0650 H   0  0  0  0  0  0  0  0  0  0  0  0
   -7.7703   19.8671  -33.2158 H   0  0  0  0  0  0  0  0  0  0  0  0
   -8.7277   21.9891  -31.5560 H   0  0  0  0  0  0  0  0  0  0  0  0
   -7.9762   23.9979  -30.2435 H   0  0  0  0  0  0  0  0  0  0  0  0
   -3.8374   23.1654  -31.3371 H   0  0  0  0  0  0  0  0  0  0  0  0
    0.9734   19.1466  -35.2540 H   0  0  0  0  0  0  0  0  0  0  0  0
   -0.2404   19.6865  -36.4770 H   0  0  0  0  0  0  0  0  0  0  0  0
    1.4844   21.3720  -35.1721 H   0  0  0  0  0  0  0  0  0  0  0  0
   -0.1170   21.8633  -35.8376 H   0  0  0  0  0  0  0  0  0  0  0  0
   -0.8140   20.9480  -33.6340 H   0  0  0  0  0  0  0  0  0  0  0  0
  1  2  1  0
  2  3  1  0
  3  4  1  0
  4  5  1  0
  5  6  1  0
  6  7  2  0
  5  8  1  0
  8  9  1  0
  9 10  2  0
  9 11  1  0
 11 12  1  0
 12 13  1  0
 13 14  1  0
 13 15  2  0
 12 16  2  0
 16 17  1  0
 17 18  2  0
 18 19  1  0
 19 20  2  0
 20 21  1  0
 21 22  1  0
 21 23  1  0
 21 24  1  0
 20 25  1  0
 25 26  2  0
  2 27  1  0
 27 28  2  0
 27 29  1  0
 29 30  1  0
 30 31  1  0
 31 32  1  0
 26 11  1  0
 26 17  1  0
  1 33  1  0
  1 34  1  0
  1 35  1  0
  3 36  1  0
  3 37  1  0
  4 38  1  0
  4 39  1  0
  5 40  1  1
  6 41  1  0
 14 42  1  0
 14 43  1  0
 16 44  1  0
 18 45  1  0
 19 46  1  0
 25 47  1  0
 30 48  1  0
 30 49  1  0
 31 50  1  0
 31 51  1  0
 32 52  1  0
M  CHG  1   8  -1
M  END
>  <UniqueID>  (33) 
33

>  <SMILES>  (33) 
CN(CC[C@@H](C=O)[N-]C(=O)n1c(C(N)=O)cc2ccc(C(F)(F)F)cc21)C(=O)OCCO

>  <Energy>  (33) 
78.04814851927327

>  <Genealogy>  (33) 
CN(CCC(C=O)[N-]C(=O)n1c(C(N)=O)cc2ccc(C(F)(F)F)cc21)C(=O)OCCO (protonated)
CN(CC[C@@H](C=O)[N-]C(=O)n1c(C(N)=O)cc2ccc(C(F)(F)F)cc21)C(=O)OCCO (chirality)
CN(CC[C@@H](C=O)[N-]C(=O)n1c(C(N)=O)cc2ccc(C(F)(F)F)cc21)C(=O)OCCO (3D coordinates assigned)
CN(CC[C@@H](C=O)[N-]C(=O)n1c(C(N)=O)cc2ccc(C(F)(F)F)cc21)C(=O)OCCO (optimized conformer: 78.04814851927327 kcal/mol)

>  <smiles>  (33) 
CN(CCC(C=O)NC(=O)n1c(C(N)=O)cc2ccc(C(F)(F)F)cc21)C(=O)OCCO

>  <score_type>  (33) 
oracle

>  <origin>  (33) 
adg

>  <m_score__min__energy>  (33) 
-8.6999999999999993

>  <m_primary>  (33) 
energy

$$$$
33:0
     RDKit          3D

 34 35  0  0  0  0  0  0  0  0999 V2000
   -7.1140   18.3660  -32.3930 C   0  0  0  0  0  0  0  0  0  0  0  0
   -7.2120   19.8270  -32.0680 C   0  0  0  0  0  0  0  0  0  0  0  0
   -8.4400   20.5100  -32.2390 C   0  0  0  0  0  0  0  0  0  0  0  0
   -8.5310   21.8890  -31.9870 C   0  0  0  0  0  0  0  0  0  0  0  0
   -7.3820   22.5550  -31.5690 C   0  0  0  0  0  0  0  0  0  0  0  0
   -7.1830   23.8860  -31.2870 C   0  0  0  0  0  0  0  0  0  0  0  0
   -5.8390   23.9940  -30.9390 C   0  0  0  0  0  0  0  0  0  0  0  0
   -5.2190   25.2530  -30.4760 C   0  0  0  0  0  0  0  0  0  0  0  0
   -3.8950   25.6080  -30.8680 N   0  0  0  0  0  0  0  0  0  0  0  0
   -5.8500   26.0050  -29.6860 O   0  0  0  0  0  0  0  0  0  0  0  0
   -5.2260   22.7770  -31.0130 N   0  0  0  0  0  0  0  0  0  0  0  0
   -3.8370   22.4730  -30.8100 C   0  0  0  0  0  0  0  0  0  0  0  0
   -2.9540   23.1430  -31.4120 O   0  0  0  0  0  0  0  0  0  0  0  0
   -3.4740   21.4140  -29.9700 O   0  0  0  0  0  0  0  0  0  0  0  0
   -2.6430   21.5660  -28.8210 C   0  0  0  0  0  0  0  0  0  0  0  0
   -3.0740   22.7750  -27.9950 C   0  0  0  0  0  0  0  0  0  0  0  0
   -2.7910   23.9590  -28.6950 O   0  0  0  0  0  0  0  0  0  0  0  0
   -1.1690   24.4020  -28.3090 S   0  0  0  0  0  0  0  0  0  0  0  0
   -1.2350   25.7950  -29.3110 O   0  0  0  0  0  0  0  0  0  0  0  0
   -6.1850   21.9060  -31.3970 C   0  0  0  0  0  0  0  0  0  0  0  0
   -6.0620   20.5360  -31.6610 C   0  0  0  0  0  0  0  0  0  0  0  0
   -7.0750   17.7846  -31.4600 H   0  0  0  0  0  0  0  0  0  0  0  0
   -7.9937   18.0608  -32.9787 H   0  0  0  0  0  0  0  0  0  0  0  0
   -6.2014   18.1811  -32.9787 H   0  0  0  0  0  0  0  0  0  0  0  0
   -9.3303   19.9564  -32.5719 H   0  0  0  0  0  0  0  0  0  0  0  0
   -9.4819   22.4267  -32.1161 H   0  0  0  0  0  0  0  0  0  0  0  0
   -7.9279   24.6944  -31.3277 H   0  0  0  0  0  0  0  0  0  0  0  0
   -3.0650   25.1370  -30.4440 H   0  0  0  0  0  0  0  0  0  0  0  0
   -2.7168   20.6607  -28.2005 H   0  0  0  0  0  0  0  0  0  0  0  0
   -1.6059   21.7189  -29.1543 H   0  0  0  0  0  0  0  0  0  0  0  0
   -4.1550   22.7165  -27.7998 H   0  0  0  0  0  0  0  0  0  0  0  0
   -2.5232   22.7774  -27.0429 H   0  0  0  0  0  0  0  0  0  0  0  0
   -2.0530   25.6720  -29.8550 H   0  0  0  0  0  0  0  0  0  0  0  0
   -5.0934   20.0257  -31.5538 H   0  0  0  0  0  0  0  0  0  0  0  0
  1  2  1  0
  2  3  2  0
  3  4  1  0
  4  5  2  0
  5  6  1  0
  6  7  2  0
  7  8  1  0
  8  9  1  0
  8 10  2  0
  7 11  1  0
 11 12  1  0
 12 13  2  0
 12 14  1  0
 14 15  1  0
 15 16  1  0
 16 17  1  0
 17 18  1  0
 18 19  1  0
 11 20  1  0
 20 21  2  0
 21  2  1  0
 20  5  1  0
  1 22  1  0
  1 23  1  0
  1 24  1  0
  3 25  1  0
  4 26  1  0
  6 27  1  0
  9 28  1  0
 15 29  1  0
 15 30  1  0
 16 31  1  0
 16 32  1  0
 19 33  1  0
 21 34  1  0
M  CHG  1   9  -1
M  END
>  <UniqueID>  (34) 
34

>  <SMILES>  (34) 
Cc1ccc2cc(C([NH-])=O)n(C(=O)OCCOSO)c2c1

>  <Energy>  (34) 
67.50290361511715

>  <Genealogy>  (34) 
Cc1ccc2cc(C([NH-])=O)n(C(=O)OCCOSO)c2c1 (protonated)
Cc1ccc2cc(C([NH-])=O)n(C(=O)OCCOSO)c2c1 (3D coordinates assigned)
Cc1ccc2cc(C([NH-])=O)n(C(=O)OCCOSO)c2c1 (optimized conformer: 67.50290361511715 kcal/mol)

>  <smiles>  (34) 
Cc1ccc2cc(C(N)=O)n(C(=O)OCCOSO)c2c1

>  <score_type>  (34) 
oracle

>  <origin>  (34) 
adg

>  <m_score__min__energy>  (34) 
-10.15

>  <m_primary>  (34) 
energy

$$$$
34:0
     RDKit          3D

 43 45  0  0  0  0  0  0  0  0999 V2000
   -8.1730   18.8670  -32.6820 C   0  0  0  0  0  0  0  0  0  0  0  0
   -7.9910   20.2700  -32.1740 C   0  0  0  0  0  0  0  0  0  0  0  0
   -9.1110   21.0070  -31.7190 C   0  0  0  0  0  0  0  0  0  0  0  0
   -8.9540   22.3100  -31.2110 C   0  0  0  0  0  0  0  0  0  0  0  0
   -7.6730   22.8460  -31.1760 C   0  0  0  0  0  0  0  0  0  0  0  0
   -7.2390   24.0800  -30.7470 C   0  0  0  0  0  0  0  0  0  0  0  0
   -5.8650   24.0850  -30.9570 C   0  0  0  0  0  0  0  0  0  0  0  0
   -5.0170   25.2800  -30.7540 C   0  0  0  0  0  0  0  0  0  0  0  0
   -3.6310   25.1240  -30.4570 N   0  0  0  0  0  0  0  0  0  0  0  0
   -5.5070   26.4380  -30.8010 O   0  0  0  0  0  0  0  0  0  0  0  0
   -5.4630   22.8940  -31.4900 N   0  0  0  0  0  0  0  0  0  0  0  0
   -4.1330   22.4860  -31.8490 C   0  0  0  0  0  0  0  0  0  0  0  0
   -3.1760   22.7240  -31.0620 O   0  0  0  0  0  0  0  0  0  0  0  0
   -3.8880   21.8520  -33.1150 N   0  0  0  0  0  0  0  0  0  0  0  0
   -2.5720   21.3620  -33.5240 C   0  0  0  0  0  0  0  0  0  0  0  0
   -2.4500   19.8980  -33.2450 C   0  0  0  0  0  0  0  0  0  0  0  0
   -1.6990   19.5020  -32.3130 O   0  0  0  0  0  0  0  0  0  0  0  0
   -3.2340   18.9540  -33.9870 N   0  0  0  0  0  0  0  0  0  0  0  0
   -2.6020   17.7780  -34.5710 C   0  0  0  0  0  0  0  0  0  0  0  0
   -4.6870   18.9440  -33.8170 C   0  0  0  0  0  0  0  0  0  0  0  0
   -5.2610   17.5820  -33.4770 C   0  0  0  0  0  0  0  0  0  0  0  0
   -5.4150   18.1340  -34.8840 C   0  0  0  0  0  0  0  0  0  0  0  0
   -6.5800   22.1480  -31.6160 C   0  0  0  0  0  0  0  0  0  0  0  0
   -6.7020   20.8400  -32.1030 C   0  0  0  0  0  0  0  0  0  0  0  0
   -8.2625   18.1772  -31.8298 H   0  0  0  0  0  0  0  0  0  0  0  0
   -9.0855   18.8141  -33.2940 H   0  0  0  0  0  0  0  0  0  0  0  0
   -7.3042   18.5830  -33.2940 H   0  0  0  0  0  0  0  0  0  0  0  0
  -10.1137   20.5567  -31.7630 H   0  0  0  0  0  0  0  0  0  0  0  0
   -9.8195   22.8865  -30.8525 H   0  0  0  0  0  0  0  0  0  0  0  0
   -7.8510   24.8915  -30.3264 H   0  0  0  0  0  0  0  0  0  0  0  0
   -2.9450   24.8860  -31.2080 H   0  0  0  0  0  0  0  0  0  0  0  0
   -4.6790   21.7500  -33.7860 H   0  0  0  0  0  0  0  0  0  0  0  0
   -2.4389   21.5377  -34.6017 H   0  0  0  0  0  0  0  0  0  0  0  0
   -1.7990   21.8990  -32.9546 H   0  0  0  0  0  0  0  0  0  0  0  0
   -2.2462   17.1160  -33.7678 H   0  0  0  0  0  0  0  0  0  0  0  0
   -3.3325   17.2400  -35.1930 H   0  0  0  0  0  0  0  0  0  0  0  0
   -1.7502   18.0903  -35.1930 H   0  0  0  0  0  0  0  0  0  0  0  0
   -4.7846   19.9556  -33.3961 H   0  0  0  0  0  0  0  0  0  0  0  0
   -4.5870   16.7329  -33.2909 H   0  0  0  0  0  0  0  0  0  0  0  0
   -5.9542   17.2007  -32.7127 H   0  0  0  0  0  0  0  0  0  0  0  0
   -4.8512   17.6866  -35.7158 H   0  0  0  0  0  0  0  0  0  0  0  0
   -6.2629   18.3196  -35.5597 H   0  0  0  0  0  0  0  0  0  0  0  0
   -5.8157   20.2719  -32.4219 H   0  0  0  0  0  0  0  0  0  0  0  0
  1  2  1  0
  2  3  2  0
  3  4  1  0
  4  5  2  0
  5  6  1  0
  6  7  2  0
  7  8  1  0
  8  9  1  0
  8 10  2  0
  7 11  1  0
 11 12  1  0
 12 13  2  0
 12 14  1  0
 14 15  1  0
 15 16  1  0
 16 17  2  0
 16 18  1  0
 18 19  1  0
 18 20  1  0
 20 21  1  0
 21 22  1  0
 11 23  1  0
 23 24  2  0
 24  2  1  0
 23  5  1  0
 22 20  1  0
  1 25  1  0
  1 26  1  0
  1 27  1  0
  3 28  1  0
  4 29  1  0
  6 30  1  0
  9 31  1  0
 14 32  1  0
 15 33  1  0
 15 34  1  0
 19 35  1  0
 19 36  1  0
 19 37  1  0
 20 38  1  0
 21 39  1  0
 21 40  1  0
 22 41  1  0
 22 42  1  0
 24 43  1  0
M  CHG  1   9  -1
M  END
>  <UniqueID>  (35) 
35

>  <SMILES>  (35) 
Cc1ccc2cc(C([NH-])=O)n(C(=O)NCC(=O)N(C)C3CC3)c2c1

>  <Energy>  (35) 
347.3224811631742

>  <Genealogy>  (35) 
Cc1ccc2cc(C([NH-])=O)n(C(=O)NCC(=O)N(C)C3CC3)c2c1 (protonated)
Cc1ccc2cc(C([NH-])=O)n(C(=O)NCC(=O)N(C)C3CC3)c2c1 (3D coordinates assigned)
Cc1ccc2cc(C([NH-])=O)n(C(=O)NCC(=O)N(C)C3CC3)c2c1 (nonaromatic ring conformer: 347.3224811631742 kcal/mol)

>  <smiles>  (35) 
Cc1ccc2cc(C(N)=O)n(C(=O)NCC(=O)N(C)C3CC3)c2c1

>  <score_type>  (35) 
oracle

>  <origin>  (35) 
adg

>  <m_score__min__energy>  (35) 
-10.85

>  <m_primary>  (35) 
energy

$$$$
35:0
     RDKit          3D

 49 50  0  0  0  0  0  0  0  0999 V2000
   -0.2960   19.8100  -27.1320 C   0  0  0  0  0  0  0  0  0  0  0  0
   -0.9880   21.0840  -27.3720 N   0  0  0  0  0  0  0  0  0  0  0  0
   -0.3630   22.3230  -26.8850 C   0  0  0  0  0  0  0  0  0  0  0  0
    0.6630   22.8410  -27.9100 C   0  0  0  0  0  0  0  0  0  0  0  0
    0.4160   24.1870  -28.2110 O   0  0  0  0  0  0  0  0  0  0  0  0
   -2.1800   21.0770  -28.1920 C   0  0  0  0  0  0  0  0  0  0  0  0
   -3.2590   20.6450  -27.7060 O   0  0  0  0  0  0  0  0  0  0  0  0
   -2.2050   21.5780  -29.6160 C   0  0  0  0  0  0  0  0  0  0  0  0
   -3.2590   22.5880  -29.8010 N   0  0  0  0  0  0  0  0  0  0  0  0
   -3.6540   23.4550  -28.6820 C   0  0  0  0  0  0  0  0  0  0  0  0
   -2.6290   24.5220  -28.4570 C   0  0  0  0  0  0  0  0  0  0  0  0
   -2.2710   25.2600  -29.4100 O   0  0  0  0  0  0  0  0  0  0  0  0
   -2.0200   24.6610  -27.2110 O   0  0  0  0  0  0  0  0  0  0  0  0
   -4.0020   22.6290  -31.0380 C   0  0  0  0  0  0  0  0  0  0  0  0
   -3.3950   22.5730  -32.1400 O   0  0  0  0  0  0  0  0  0  0  0  0
   -5.4200   22.8260  -31.0300 N   0  0  0  0  0  0  0  0  0  0  0  0
   -6.1150   23.9820  -30.8300 C   0  0  0  0  0  0  0  0  0  0  0  0
   -5.5380   25.2950  -30.4650 C   0  0  0  0  0  0  0  0  0  0  0  0
   -4.2110   25.6640  -30.8330 N   0  0  0  0  0  0  0  0  0  0  0  0
   -6.2280   26.1000  -29.7850 O   0  0  0  0  0  0  0  0  0  0  0  0
   -7.4700   23.7840  -31.0960 C   0  0  0  0  0  0  0  0  0  0  0  0
   -7.5810   22.4610  -31.4590 C   0  0  0  0  0  0  0  0  0  0  0  0
   -8.6980   21.7220  -31.8380 C   0  0  0  0  0  0  0  0  0  0  0  0
   -8.5090   20.3680  -32.1830 C   0  0  0  0  0  0  0  0  0  0  0  0
   -7.2160   19.7860  -32.1470 C   0  0  0  0  0  0  0  0  0  0  0  0
   -7.0500   18.3370  -32.5260 C   0  0  0  0  0  0  0  0  0  0  0  0
   -6.6890   18.2420  -33.8610 F   0  0  0  0  0  0  0  0  0  0  0  0
   -8.2510   17.6730  -32.3350 F   0  0  0  0  0  0  0  0  0  0  0  0
   -6.0710   17.7210  -31.7660 F   0  0  0  0  0  0  0  0  0  0  0  0
   -6.1090   20.5700  -31.7430 C   0  0  0  0  0  0  0  0  0  0  0  0
   -6.3300   21.9090  -31.4140 C   0  0  0  0  0  0  0  0  0  0  0  0
   -0.2042   19.6410  -26.0490 H   0  0  0  0  0  0  0  0  0  0  0  0
   -0.8721   18.9890  -27.5837 H   0  0  0  0  0  0  0  0  0  0  0  0
    0.7063   19.8464  -27.5837 H   0  0  0  0  0  0  0  0  0  0  0  0
   -1.1404   23.0860  -26.7319 H   0  0  0  0  0  0  0  0  0  0  0  0
    0.1523   22.1154  -25.9356 H   0  0  0  0  0  0  0  0  0  0  0  0
    1.6752   22.7432  -27.4907 H   0  0  0  0  0  0  0  0  0  0  0  0
    0.5769   22.2476  -28.8322 H   0  0  0  0  0  0  0  0  0  0  0  0
   -0.5410   24.2480  -28.4710 H   0  0  0  0  0  0  0  0  0  0  0  0
   -1.2301   22.0272  -29.8565 H   0  0  0  0  0  0  0  0  0  0  0  0
   -2.4128   20.7283  -30.2830 H   0  0  0  0  0  0  0  0  0  0  0  0
   -4.6212   23.9254  -28.9127 H   0  0  0  0  0  0  0  0  0  0  0  0
   -3.7365   22.8439  -27.7711 H   0  0  0  0  0  0  0  0  0  0  0  0
   -3.5250   24.9550  -31.1690 H   0  0  0  0  0  0  0  0  0  0  0  0
   -3.8680   26.6350  -30.6490 H   0  0  0  0  0  0  0  0  0  0  0  0
   -8.2781   24.5273  -31.0297 H   0  0  0  0  0  0  0  0  0  0  0  0
   -9.6976   22.1803  -31.8675 H   0  0  0  0  0  0  0  0  0  0  0  0
   -9.3730   19.7569  -32.4831 H   0  0  0  0  0  0  0  0  0  0  0  0
   -5.0999   20.1354  -31.6895 H   0  0  0  0  0  0  0  0  0  0  0  0
  1  2  1  0
  2  3  1  0
  3  4  1  0
  4  5  1  0
  2  6  1  0
  6  7  2  0
  6  8  1  0
  8  9  1  0
  9 10  1  0
 10 11  1  0
 11 12  2  0
 11 13  1  0
  9 14  1  0
 14 15  2  0
 14 16  1  0
 16 17  1  0
 17 18  1  0
 18 19  1  0
 18 20  2  0
 17 21  2  0
 21 22  1  0
 22 23  2  0
 23 24  1  0
 24 25  2  0
 25 26  1  0
 26 27  1  0
 26 28  1  0
 26 29  1  0
 25 30  1  0
 30 31  2  0
 31 16  1  0
 31 22  1  0
  1 32  1  0
  1 33  1  0
  1 34  1  0
  3 35  1  0
  3 36  1  0
  4 37  1  0
  4 38  1  0
  5 39  1  0
  8 40  1  0
  8 41  1  0
 10 42  1  0
 10 43  1  0
 19 44  1  0
 19 45  1  0
 21 46  1  0
 23 47  1  0
 24 48  1  0
 30 49  1  0
M  CHG  1  13  -1
M  END
>  <UniqueID>  (36) 
36

>  <SMILES>  (36) 
CN(CCO)C(=O)CN(CC(=O)[O-])C(=O)n1c(C(N)=O)cc2ccc(C(F)(F)F)cc21

>  <Energy>  (36) 
84.74000743281792

>  <Genealogy>  (36) 
CN(CCO)C(=O)CN(CC(=O)[O-])C(=O)n1c(C(N)=O)cc2ccc(C(F)(F)F)cc21 (protonated)
CN(CCO)C(=O)CN(CC(=O)[O-])C(=O)n1c(C(N)=O)cc2ccc(C(F)(F)F)cc21 (3D coordinates assigned)
CN(CCO)C(=O)CN(CC(=O)[O-])C(=O)n1c(C(N)=O)cc2ccc(C(F)(F)F)cc21 (optimized conformer: 84.74000743281792 kcal/mol)

>  <smiles>  (36) 
CN(CCO)C(=O)CN(CC(=O)O)C(=O)n1c(C(N)=O)cc2ccc(C(F)(F)F)cc21

>  <score_type>  (36) 
oracle

>  <origin>  (36) 
adg

>  <m_score__min__energy>  (36) 
-10.76

>  <m_primary>  (36) 
energy

$$$$
36:0
     RDKit          3D

 47 48  0  0  0  0  0  0  0  0999 V2000
   -7.3390   18.6140  -32.9490 C   0  0  0  0  0  0  0  0  0  0  0  0
   -7.3940   19.9940  -32.3620 C   0  0  0  0  0  0  0  0  0  0  0  0
   -8.6420   20.5700  -32.0190 C   0  0  0  0  0  0  0  0  0  0  0  0
   -8.7080   21.8700  -31.4890 C   0  0  0  0  0  0  0  0  0  0  0  0
   -7.5160   22.5710  -31.3340 C   0  0  0  0  0  0  0  0  0  0  0  0
   -7.2890   23.8280  -30.8200 C   0  0  0  0  0  0  0  0  0  0  0  0
   -5.9090   24.0150  -30.8950 C   0  0  0  0  0  0  0  0  0  0  0  0
   -5.2350   25.2730  -30.5120 C   0  0  0  0  0  0  0  0  0  0  0  0
   -3.8770   25.5130  -30.8670 N   0  0  0  0  0  0  0  0  0  0  0  0
   -5.8810   26.1660  -29.9030 O   0  0  0  0  0  0  0  0  0  0  0  0
   -5.3080   22.9140  -31.4300 N   0  0  0  0  0  0  0  0  0  0  0  0
   -3.9030   22.6680  -31.5800 C   0  0  0  0  0  0  0  0  0  0  0  0
   -3.4420   22.3260  -32.7040 O   0  0  0  0  0  0  0  0  0  0  0  0
   -3.0570   22.7820  -30.4700 O   0  0  0  0  0  0  0  0  0  0  0  0
   -1.7220   22.2780  -30.4340 C   0  0  0  0  0  0  0  0  0  0  0  0
   -1.5730   21.1880  -29.3680 C   0  0  0  0  0  0  0  0  0  0  0  0
   -0.1090   20.9150  -29.0050 C   0  0  0  0  0  0  0  0  0  0  0  0
    0.2310   21.5680  -27.7840 O   0  0  0  0  0  0  0  0  0  0  0  0
   -0.7110   21.9270  -26.8110 C   0  0  0  0  0  0  0  0  0  0  0  0
   -1.3220   21.0350  -26.1600 O   0  0  0  0  0  0  0  0  0  0  0  0
   -0.9850   23.3180  -26.5590 N   0  0  0  0  0  0  0  0  0  0  0  0
   -0.3620   23.9830  -25.4100 C   0  0  0  0  0  0  0  0  0  0  0  0
   -1.8510   24.0720  -27.4710 C   0  0  0  0  0  0  0  0  0  0  0  0
   -1.0220   24.8200  -28.4650 C   0  0  0  0  0  0  0  0  0  0  0  0
   -1.5530   25.6770  -29.2190 O   0  0  0  0  0  0  0  0  0  0  0  0
    0.3330   24.5410  -28.5870 O   0  0  0  0  0  0  0  0  0  0  0  0
   -6.3040   22.0410  -31.6930 C   0  0  0  0  0  0  0  0  0  0  0  0
   -6.2070   20.7420  -32.2060 C   0  0  0  0  0  0  0  0  0  0  0  0
   -7.3094   17.8715  -32.1380 H   0  0  0  0  0  0  0  0  0  0  0  0
   -8.2311   18.4437  -33.5697 H   0  0  0  0  0  0  0  0  0  0  0  0
   -6.4362   18.5153  -33.5697 H   0  0  0  0  0  0  0  0  0  0  0  0
   -9.5675   19.9947  -32.1688 H   0  0  0  0  0  0  0  0  0  0  0  0
   -9.6714   22.3191  -31.2057 H   0  0  0  0  0  0  0  0  0  0  0  0
   -8.0374   24.5349  -30.4324 H   0  0  0  0  0  0  0  0  0  0  0  0
   -3.1040   24.9460  -30.4510 H   0  0  0  0  0  0  0  0  0  0  0  0
   -1.4709   21.8551  -31.4179 H   0  0  0  0  0  0  0  0  0  0  0  0
   -1.0423   23.1061  -30.1845 H   0  0  0  0  0  0  0  0  0  0  0  0
   -2.1074   21.5069  -28.4609 H   0  0  0  0  0  0  0  0  0  0  0  0
   -1.9929   20.2588  -29.7806 H   0  0  0  0  0  0  0  0  0  0  0  0
    0.0397   19.8312  -28.8899 H   0  0  0  0  0  0  0  0  0  0  0  0
    0.5356   21.3021  -29.8079 H   0  0  0  0  0  0  0  0  0  0  0  0
   -0.7618   23.5563  -24.4783 H   0  0  0  0  0  0  0  0  0  0  0  0
    0.7270   23.8317  -25.4449 H   0  0  0  0  0  0  0  0  0  0  0  0
   -0.5839   25.0598  -25.4449 H   0  0  0  0  0  0  0  0  0  0  0  0
   -2.5150   23.3743  -28.0024 H   0  0  0  0  0  0  0  0  0  0  0  0
   -2.4497   24.7885  -26.8894 H   0  0  0  0  0  0  0  0  0  0  0  0
   -5.2310   20.3152  -32.4804 H   0  0  0  0  0  0  0  0  0  0  0  0
  1  2  1  0
  2  3  2  0
  3  4  1  0
  4  5  2  0
  5  6  1  0
  6  7  2  0
  7  8  1  0
  8  9  1  0
  8 10  2  0
  7 11  1  0
 11 12  1  0
 12 13  2  0
 12 14  1  0
 14 15  1  0
 15 16  1  0
 16 17  1  0
 17 18  1  0
 18 19  1  0
 19 20  2  0
 19 21  1  0
 21 22  1  0
 21 23  1  0
 23 24  1  0
 24 25  2  0
 24 26  1  0
 11 27  1  0
 27 28  2  0
 28  2  1  0
 27  5  1  0
  1 29  1  0
  1 30  1  0
  1 31  1  0
  3 32  1  0
  4 33  1  0
  6 34  1  0
  9 35  1  0
 15 36  1  0
 15 37  1  0
 16 38  1  0
 16 39  1  0
 17 40  1  0
 17 41  1  0
 22 42  1  0
 22 43  1  0
 22 44  1  0
 23 45  1  0
 23 46  1  0
 28 47  1  0
M  CHG  2   9  -1  26  -1
M  END
>  <UniqueID>  (37) 
37

>  <SMILES>  (37) 
Cc1ccc2cc(C([NH-])=O)n(C(=O)OCCCOC(=O)N(C)CC(=O)[O-])c2c1

>  <Energy>  (37) 
75.72062486331254

>  <Genealogy>  (37) 
Cc1ccc2cc(C([NH-])=O)n(C(=O)OCCCOC(=O)N(C)CC(=O)[O-])c2c1 (protonated)
Cc1ccc2cc(C([NH-])=O)n(C(=O)OCCCOC(=O)N(C)CC(=O)[O-])c2c1 (3D coordinates assigned)
Cc1ccc2cc(C([NH-])=O)n(C(=O)OCCCOC(=O)N(C)CC(=O)[O-])c2c1 (optimized conformer: 75.72062486331254 kcal/mol)

>  <smiles>  (37) 
Cc1ccc2cc(C(N)=O)n(C(=O)OCCCOC(=O)N(C)CC(=O)O)c2c1

>  <score_type>  (37) 
oracle

>  <origin>  (37) 
adg

>  <m_score__min__energy>  (37) 
-12.210000000000001

>  <m_primary>  (37) 
energy

$$$$
37:0
     RDKit          3D

 48 49  0  0  0  0  0  0  0  0999 V2000
   -3.5520   22.1250  -27.5010 C   0  0  0  0  0  0  0  0  0  0  0  0
   -2.6270   23.1000  -28.0860 N   0  0  0  0  0  0  0  0  0  0  0  0
   -1.1840   22.8100  -28.0590 C   0  0  0  0  0  0  0  0  0  0  0  0
   -0.4960   23.3250  -29.3260 C   0  0  0  0  0  0  0  0  0  0  0  0
   -1.2930   23.0970  -30.4570 O   0  0  0  0  0  0  0  0  0  0  0  0
   -3.1630   24.3350  -28.6200 C   0  0  0  0  0  0  0  0  0  0  0  0
   -2.3740   25.2850  -28.8840 O   0  0  0  0  0  0  0  0  0  0  0  0
   -4.6480   24.5280  -28.8320 C   0  0  0  0  0  0  0  0  0  0  0  0
   -4.9970   24.9840  -30.2510 C   0  0  0  0  0  0  0  0  0  0  0  0
   -4.1760   24.2590  -31.2130 N   0  0  0  0  0  0  0  0  0  0  0  0
   -4.6070   23.0490  -31.8410 C   0  0  0  0  0  0  0  0  0  0  0  0
   -5.5400   23.0710  -32.6880 O   0  0  0  0  0  0  0  0  0  0  0  0
   -3.9480   21.7770  -31.5040 C   0  0  0  0  0  0  0  0  0  0  0  0
   -3.3150   21.6740  -30.4200 O   0  0  0  0  0  0  0  0  0  0  0  0
   -3.9830   20.6650  -32.4120 N   0  0  0  0  0  0  0  0  0  0  0  0
   -2.9630   20.1670  -33.1670 C   0  0  0  0  0  0  0  0  0  0  0  0
   -1.6170   20.7720  -33.2910 C   0  0  0  0  0  0  0  0  0  0  0  0
   -0.9170   21.2410  -32.1370 N   0  0  0  0  0  0  0  0  0  0  0  0
   -1.0670   20.8630  -34.4190 O   0  0  0  0  0  0  0  0  0  0  0  0
   -3.3930   19.0540  -33.8890 C   0  0  0  0  0  0  0  0  0  0  0  0
   -4.7190   18.8910  -33.5540 C   0  0  0  0  0  0  0  0  0  0  0  0
   -5.6450   17.9470  -33.9870 C   0  0  0  0  0  0  0  0  0  0  0  0
   -6.9500   18.0180  -33.4700 C   0  0  0  0  0  0  0  0  0  0  0  0
   -7.3010   19.0120  -32.5180 C   0  0  0  0  0  0  0  0  0  0  0  0
   -8.7140   19.1040  -32.0030 C   0  0  0  0  0  0  0  0  0  0  0  0
   -9.5310   19.5960  -33.0040 F   0  0  0  0  0  0  0  0  0  0  0  0
   -9.1760   17.8580  -31.6160 F   0  0  0  0  0  0  0  0  0  0  0  0
   -8.7820   19.9490  -30.9090 F   0  0  0  0  0  0  0  0  0  0  0  0
   -6.3370   19.9680  -32.1230 C   0  0  0  0  0  0  0  0  0  0  0  0
   -5.0500   19.8770  -32.6630 C   0  0  0  0  0  0  0  0  0  0  0  0
   -3.4985   22.1814  -26.4037 H   0  0  0  0  0  0  0  0  0  0  0  0
   -4.5774   22.3491  -27.8301 H   0  0  0  0  0  0  0  0  0  0  0  0
   -3.2743   21.1128  -27.8301 H   0  0  0  0  0  0  0  0  0  0  0  0
   -0.7353   23.2994  -27.1820 H   0  0  0  0  0  0  0  0  0  0  0  0
   -1.0470   21.7199  -28.0048 H   0  0  0  0  0  0  0  0  0  0  0  0
   -0.3162   24.4054  -29.2242 H   0  0  0  0  0  0  0  0  0  0  0  0
    0.4551   22.7870  -29.4525 H   0  0  0  0  0  0  0  0  0  0  0  0
   -2.1700   23.5250  -30.2790 H   0  0  0  0  0  0  0  0  0  0  0  0
   -5.1568   23.5726  -28.6361 H   0  0  0  0  0  0  0  0  0  0  0  0
   -4.9780   25.3190  -28.1425 H   0  0  0  0  0  0  0  0  0  0  0  0
   -6.0596   24.7809  -30.4499 H   0  0  0  0  0  0  0  0  0  0  0  0
   -4.8045   26.0629  -30.3459 H   0  0  0  0  0  0  0  0  0  0  0  0
   -1.3610   21.2440  -31.1930 H   0  0  0  0  0  0  0  0  0  0  0  0
    0.0460   21.6330  -32.2340 H   0  0  0  0  0  0  0  0  0  0  0  0
   -2.7991   18.4372  -34.5795 H   0  0  0  0  0  0  0  0  0  0  0  0
   -5.3642   17.1688  -34.7119 H   0  0  0  0  0  0  0  0  0  0  0  0
   -7.7082   17.2955  -33.8065 H   0  0  0  0  0  0  0  0  0  0  0  0
   -6.5930   20.7640  -31.4083 H   0  0  0  0  0  0  0  0  0  0  0  0
  1  2  1  0
  2  3  1  0
  3  4  1  0
  4  5  1  0
  2  6  1  0
  6  7  2  0
  6  8  1  0
  8  9  1  0
  9 10  1  0
 10 11  1  0
 11 12  2  0
 11 13  1  0
 13 14  2  0
 13 15  1  0
 15 16  1  0
 16 17  1  0
 17 18  1  0
 17 19  2  0
 16 20  2  0
 20 21  1  0
 21 22  2  0
 22 23  1  0
 23 24  2  0
 24 25  1  0
 25 26  1  0
 25 27  1  0
 25 28  1  0
 24 29  1  0
 29 30  2  0
 30 15  1  0
 30 21  1  0
  1 31  1  0
  1 32  1  0
  1 33  1  0
  3 34  1  0
  3 35  1  0
  4 36  1  0
  4 37  1  0
  5 38  1  0
  8 39  1  0
  8 40  1  0
  9 41  1  0
  9 42  1  0
 18 43  1  0
 18 44  1  0
 20 45  1  0
 22 46  1  0
 23 47  1  0
 29 48  1  0
M  CHG  1  10  -1
M  END
>  <UniqueID>  (38) 
38

>  <SMILES>  (38) 
CN(CCO)C(=O)CC[N-]C(=O)C(=O)n1c(C(N)=O)cc2ccc(C(F)(F)F)cc21

>  <Energy>  (38) 
80.30652081286416

>  <Genealogy>  (38) 
CN(CCO)C(=O)CC[N-]C(=O)C(=O)n1c(C(N)=O)cc2ccc(C(F)(F)F)cc21 (protonated)
CN(CCO)C(=O)CC[N-]C(=O)C(=O)n1c(C(N)=O)cc2ccc(C(F)(F)F)cc21 (3D coordinates assigned)
CN(CCO)C(=O)CC[N-]C(=O)C(=O)n1c(C(N)=O)cc2ccc(C(F)(F)F)cc21 (optimized conformer: 80.30652081286416 kcal/mol)

>  <smiles>  (38) 
CN(CCO)C(=O)CCNC(=O)C(=O)n1c(C(N)=O)cc2ccc(C(F)(F)F)cc21

>  <score_type>  (38) 
oracle

>  <origin>  (38) 
adg

>  <m_score__min__energy>  (38) 
-8.5700000000000003

>  <m_primary>  (38) 
energy

$$$$
38:0
     RDKit          3D

 40 42  0  0  0  0  0  0  0  0999 V2000
   -7.4340   18.4300  -32.6680 C   0  0  0  0  0  0  0  0  0  0  0  0
   -7.4670   19.8540  -32.1980 C   0  0  0  0  0  0  0  0  0  0  0  0
   -8.7070   20.5250  -32.0580 C   0  0  0  0  0  0  0  0  0  0  0  0
   -8.7480   21.8760  -31.6690 C   0  0  0  0  0  0  0  0  0  0  0  0
   -7.5390   22.5240  -31.4320 C   0  0  0  0  0  0  0  0  0  0  0  0
   -7.2890   23.8320  -31.0860 C   0  0  0  0  0  0  0  0  0  0  0  0
   -5.9010   23.9350  -31.0120 C   0  0  0  0  0  0  0  0  0  0  0  0
   -5.1970   25.1670  -30.5970 C   0  0  0  0  0  0  0  0  0  0  0  0
   -3.7910   25.3070  -30.7880 N   0  0  0  0  0  0  0  0  0  0  0  0
   -5.8360   26.0900  -30.0280 O   0  0  0  0  0  0  0  0  0  0  0  0
   -5.3170   22.7400  -31.3060 N   0  0  0  0  0  0  0  0  0  0  0  0
   -3.9170   22.4550  -31.4420 C   0  0  0  0  0  0  0  0  0  0  0  0
   -3.4090   22.3340  -32.5890 O   0  0  0  0  0  0  0  0  0  0  0  0
   -3.1170   22.3530  -30.2980 O   0  0  0  0  0  0  0  0  0  0  0  0
   -1.6950   22.4320  -30.3410 C   0  0  0  0  0  0  0  0  0  0  0  0
   -1.2680   23.7700  -30.0930 O   0  0  0  0  0  0  0  0  0  0  0  0
   -0.8660   24.2200  -28.8300 C   0  0  0  0  0  0  0  0  0  0  0  0
    0.3630   24.3080  -28.5530 O   0  0  0  0  0  0  0  0  0  0  0  0
   -1.8840   24.5840  -27.8210 C   0  0  0  0  0  0  0  0  0  0  0  0
   -3.2160   24.1590  -27.9580 C   0  0  0  0  0  0  0  0  0  0  0  0
   -4.1590   24.5230  -26.9930 C   0  0  0  0  0  0  0  0  0  0  0  0
   -3.7900   25.2840  -25.9300 N   0  0  0  0  0  0  0  0  0  0  0  0
   -2.5090   25.7100  -25.7710 C   0  0  0  0  0  0  0  0  0  0  0  0
   -1.5340   25.3700  -26.7120 C   0  0  0  0  0  0  0  0  0  0  0  0
   -6.3330   21.8860  -31.5600 C   0  0  0  0  0  0  0  0  0  0  0  0
   -6.2600   20.5480  -31.9660 C   0  0  0  0  0  0  0  0  0  0  0  0
   -7.4184   17.7570  -31.7980 H   0  0  0  0  0  0  0  0  0  0  0  0
   -8.3276   18.2235  -33.2753 H   0  0  0  0  0  0  0  0  0  0  0  0
   -6.5318   18.2651  -33.2753 H   0  0  0  0  0  0  0  0  0  0  0  0
   -9.6449   19.9851  -32.2551 H   0  0  0  0  0  0  0  0  0  0  0  0
   -9.7061   22.4044  -31.5555 H   0  0  0  0  0  0  0  0  0  0  0  0
   -8.0274   24.6272  -30.9061 H   0  0  0  0  0  0  0  0  0  0  0  0
   -3.1710   24.4690  -30.8500 H   0  0  0  0  0  0  0  0  0  0  0  0
   -1.2709   21.7672  -29.5740 H   0  0  0  0  0  0  0  0  0  0  0  0
   -1.3485   22.1239  -31.3385 H   0  0  0  0  0  0  0  0  0  0  0  0
   -3.5148   23.5436  -28.8194 H   0  0  0  0  0  0  0  0  0  0  0  0
   -5.2032   24.1923  -27.0945 H   0  0  0  0  0  0  0  0  0  0  0  0
   -2.2394   26.3241  -24.8991 H   0  0  0  0  0  0  0  0  0  0  0  0
   -0.4978   25.7163  -26.5845 H   0  0  0  0  0  0  0  0  0  0  0  0
   -5.2880   20.0509  -32.1006 H   0  0  0  0  0  0  0  0  0  0  0  0
  1  2  1  0
  2  3  2  0
  3  4  1  0
  4  5  2  0
  5  6  1  0
  6  7  2  0
  7  8  1  0
  8  9  1  0
  8 10  2  0
  7 11  1  0
 11 12  1  0
 12 13  2  0
 12 14  1  0
 14 15  1  0
 15 16  1  0
 16 17  1  0
 17 18  2  0
 17 19  1  0
 19 20  2  0
 20 21  1  0
 21 22  2  0
 22 23  1  0
 23 24  2  0
 11 25  1  0
 25 26  2  0
 26  2  1  0
 25  5  1  0
 24 19  1  0
  1 27  1  0
  1 28  1  0
  1 29  1  0
  3 30  1  0
  4 31  1  0
  6 32  1  0
  9 33  1  0
 15 34  1  0
 15 35  1  0
 20 36  1  0
 21 37  1  0
 23 38  1  0
 24 39  1  0
 26 40  1  0
M  CHG  1   9  -1
M  END
>  <UniqueID>  (39) 
39

>  <SMILES>  (39) 
Cc1ccc2cc(C([NH-])=O)n(C(=O)OCOC(=O)c3ccncc3)c2c1

>  <Energy>  (39) 
78.8804745337691

>  <Genealogy>  (39) 
Cc1ccc2cc(C([NH-])=O)n(C(=O)OCOC(=O)c3ccncc3)c2c1 (protonated)
Cc1ccc2cc(C([NH-])=O)n(C(=O)OCOC(=O)c3ccncc3)c2c1 (3D coordinates assigned)
Cc1ccc2cc(C([NH-])=O)n(C(=O)OCOC(=O)c3ccncc3)c2c1 (optimized conformer: 78.8804745337691 kcal/mol)

>  <smiles>  (39) 
Cc1ccc2cc(C(N)=O)n(C(=O)OCOC(=O)c3ccncc3)c2c1

>  <score_type>  (39) 
oracle

>  <origin>  (39) 
adg

>  <m_score__min__energy>  (39) 
-10.67

>  <m_primary>  (39) 
energy

$$$$
39:0
     RDKit          3D

 36 37  0  0  0  0  0  0  0  0999 V2000
   -5.2780   23.6570  -29.1520 N   0  0  0  0  0  0  0  0  0  0  0  0
   -5.7450   22.8510  -30.2370 C   0  0  0  0  0  0  0  0  0  0  0  0
   -6.9790   22.8250  -30.4860 O   0  0  0  0  0  0  0  0  0  0  0  0
   -4.8030   22.0470  -31.0510 C   0  0  0  0  0  0  0  0  0  0  0  0
   -5.1210   21.4600  -32.2760 C   0  0  0  0  0  0  0  0  0  0  0  0
   -3.9640   20.8460  -32.7010 C   0  0  0  0  0  0  0  0  0  0  0  0
   -3.7130   20.1050  -33.8520 C   0  0  0  0  0  0  0  0  0  0  0  0
   -2.4250   19.5670  -34.0210 C   0  0  0  0  0  0  0  0  0  0  0  0
   -1.4280   19.7590  -33.0320 C   0  0  0  0  0  0  0  0  0  0  0  0
   -0.0440   19.1980  -33.2360 C   0  0  0  0  0  0  0  0  0  0  0  0
    0.9640   20.2980  -33.5910 C   0  0  0  0  0  0  0  0  0  0  0  0
    0.5620   21.0400  -34.8290 C   0  0  0  0  0  0  0  0  0  0  0  0
    0.6390   22.2960  -34.8680 O   0  0  0  0  0  0  0  0  0  0  0  0
    0.1460   20.3410  -35.9540 O   0  0  0  0  0  0  0  0  0  0  0  0
   -1.7210   20.5180  -31.8780 C   0  0  0  0  0  0  0  0  0  0  0  0
   -3.0000   21.0690  -31.7540 C   0  0  0  0  0  0  0  0  0  0  0  0
   -3.4950   21.8160  -30.7430 N   0  0  0  0  0  0  0  0  0  0  0  0
   -2.7840   22.2370  -29.5680 C   0  0  0  0  0  0  0  0  0  0  0  0
   -3.0940   21.7570  -28.4450 O   0  0  0  0  0  0  0  0  0  0  0  0
   -1.7160   23.2870  -29.6520 C   0  0  0  0  0  0  0  0  0  0  0  0
   -2.4230   24.9240  -29.3100 P   0  0  0  0  0  0  0  0  0  0  0  0
   -3.0640   24.9170  -27.9410 O   0  0  0  0  0  0  0  0  0  0  0  0
   -1.1970   26.0900  -29.3460 O   0  0  0  0  0  0  0  0  0  0  0  0
   -3.5920   25.2990  -30.4740 O   0  0  0  0  0  0  0  0  0  0  0  0
   -5.9600   24.1890  -28.5670 H   0  0  0  0  0  0  0  0  0  0  0  0
   -4.2610   23.7690  -28.9510 H   0  0  0  0  0  0  0  0  0  0  0  0
   -6.0915   21.4828  -32.7934 H   0  0  0  0  0  0  0  0  0  0  0  0
   -4.4978   19.9452  -34.6060 H   0  0  0  0  0  0  0  0  0  0  0  0
   -2.1890   18.9921  -34.9286 H   0  0  0  0  0  0  0  0  0  0  0  0
    0.2804   18.7020  -32.3093 H   0  0  0  0  0  0  0  0  0  0  0  0
   -0.0820   18.4833  -34.0713 H   0  0  0  0  0  0  0  0  0  0  0  0
    1.0256   21.0087  -32.7537 H   0  0  0  0  0  0  0  0  0  0  0  0
    1.9384   19.8228  -33.7774 H   0  0  0  0  0  0  0  0  0  0  0  0
   -0.9624   20.6719  -31.0965 H   0  0  0  0  0  0  0  0  0  0  0  0
   -0.9313   23.0679  -28.9129 H   0  0  0  0  0  0  0  0  0  0  0  0
   -1.2871   23.2843  -30.6649 H   0  0  0  0  0  0  0  0  0  0  0  0
  1  2  1  0
  2  3  2  0
  2  4  1  0
  4  5  2  0
  5  6  1  0
  6  7  2  0
  7  8  1  0
  8  9  2  0
  9 10  1  0
 10 11  1  0
 11 12  1  0
 12 13  2  0
 12 14  1  0
  9 15  1  0
 15 16  2  0
 16 17  1  0
 17 18  1  0
 18 19  2  0
 18 20  1  0
 20 21  1  0
 21 22  2  0
 21 23  1  0
 21 24  1  0
 17  4  1  0
 16  6  1  0
  1 25  1  0
  1 26  1  0
  5 27  1  0
  7 28  1  0
  8 29  1  0
 10 30  1  0
 10 31  1  0
 11 32  1  0
 11 33  1  0
 15 34  1  0
 20 35  1  0
 20 36  1  0
M  CHG  3  14  -1  23  -1  24  -1
M  END
>  <UniqueID>  (40) 
40

>  <SMILES>  (40) 
NC(=O)c1cc2ccc(CCC(=O)[O-])cc2n1C(=O)CP(=O)([O-])[O-]

>  <Energy>  (40) 
66.48357256024836

>  <Genealogy>  (40) 
NC(=O)c1cc2ccc(CCC(=O)[O-])cc2n1C(=O)CP(=O)([O-])[O-] (protonated)
NC(=O)c1cc2ccc(CCC(=O)[O-])cc2n1C(=O)CP(=O)([O-])[O-] (3D coordinates assigned)
NC(=O)c1cc2ccc(CCC(=O)[O-])cc2n1C(=O)CP(=O)([O-])[O-] (optimized conformer: 66.48357256024836 kcal/mol)

>  <smiles>  (40) 
NC(=O)c1cc2ccc(CCC(=O)O)cc2n1C(=O)CP(=O)(O)O

>  <score_type>  (40) 
oracle

>  <origin>  (40) 
adg

>  <m_score__min__energy>  (40) 
-12.470000000000001

>  <m_primary>  (40) 
energy

$$$$
40:0
     RDKit          3D

 36 37  0  0  0  0  0  0  0  0999 V2000
   -3.7150   22.0010  -27.4730 C   0  0  0  0  0  0  0  0  0  0  0  0
   -4.0870   23.0430  -28.5340 C   0  0  1  0  0  0  0  0  0  0  0  0
   -4.1320   24.3090  -27.9260 O   0  0  0  0  0  0  0  0  0  0  0  0
   -3.1170   23.0650  -29.7540 C   0  0  2  0  0  0  0  0  0  0  0  0
   -2.3090   24.2890  -29.7760 N   0  0  0  0  0  0  0  0  0  0  0  0
   -3.8210   22.8550  -31.0830 C   0  0  0  0  0  0  0  0  0  0  0  0
   -3.1420   22.5970  -32.1130 O   0  0  0  0  0  0  0  0  0  0  0  0
   -5.2500   22.9610  -31.1990 N   0  0  0  0  0  0  0  0  0  0  0  0
   -6.0560   23.9890  -30.8090 C   0  0  0  0  0  0  0  0  0  0  0  0
   -5.5980   25.3000  -30.3070 C   0  0  0  0  0  0  0  0  0  0  0  0
   -4.2400   25.6940  -30.4830 N   0  0  0  0  0  0  0  0  0  0  0  0
   -6.3880   26.0650  -29.6940 O   0  0  0  0  0  0  0  0  0  0  0  0
   -7.3950   23.6710  -31.0260 C   0  0  0  0  0  0  0  0  0  0  0  0
   -7.3830   22.4120  -31.5840 C   0  0  0  0  0  0  0  0  0  0  0  0
   -8.4380   21.6050  -31.9960 C   0  0  0  0  0  0  0  0  0  0  0  0
   -8.1310   20.3420  -32.5310 C   0  0  0  0  0  0  0  0  0  0  0  0
   -6.7830   19.9180  -32.6630 C   0  0  0  0  0  0  0  0  0  0  0  0
   -6.4680   18.5410  -33.1920 C   0  0  0  0  0  0  0  0  0  0  0  0
   -5.4360   17.9650  -32.4710 F   0  0  0  0  0  0  0  0  0  0  0  0
   -6.0850   18.6040  -34.5210 F   0  0  0  0  0  0  0  0  0  0  0  0
   -7.5920   17.7440  -33.0840 F   0  0  0  0  0  0  0  0  0  0  0  0
   -5.7410   20.7610  -32.2130 C   0  0  0  0  0  0  0  0  0  0  0  0
   -6.0770   22.0100  -31.6840 C   0  0  0  0  0  0  0  0  0  0  0  0
   -3.8674   22.4278  -26.4707 H   0  0  0  0  0  0  0  0  0  0  0  0
   -4.3512   21.1118  -27.5935 H   0  0  0  0  0  0  0  0  0  0  0  0
   -2.6595   21.7157  -27.5935 H   0  0  0  0  0  0  0  0  0  0  0  0
   -5.0714   22.7649  -28.9384 H   0  0  0  0  0  0  0  0  0  0  0  0
   -4.0810   24.9810  -28.6550 H   0  0  0  0  0  0  0  0  0  0  0  0
   -2.4432   22.2061  -29.6186 H   0  0  0  0  0  0  0  0  0  0  0  0
   -2.6780   24.9610  -29.0660 H   0  0  0  0  0  0  0  0  0  0  0  0
   -2.3690   24.7440  -30.7150 H   0  0  0  0  0  0  0  0  0  0  0  0
   -3.5680   25.6780  -29.6840 H   0  0  0  0  0  0  0  0  0  0  0  0
   -8.2739   24.2927  -30.7999 H   0  0  0  0  0  0  0  0  0  0  0  0
   -9.4804   21.9446  -31.9060 H   0  0  0  0  0  0  0  0  0  0  0  0
   -8.9448   19.6746  -32.8510 H   0  0  0  0  0  0  0  0  0  0  0  0
   -4.6905   20.4412  -32.2778 H   0  0  0  0  0  0  0  0  0  0  0  0
  1  2  1  0
  2  3  1  0
  2  4  1  0
  4  5  1  0
  4  6  1  0
  6  7  2  0
  6  8  1  0
  8  9  1  0
  9 10  1  0
 10 11  1  0
 10 12  2  0
  9 13  2  0
 13 14  1  0
 14 15  2  0
 15 16  1  0
 16 17  2  0
 17 18  1  0
 18 19  1  0
 18 20  1  0
 18 21  1  0
 17 22  1  0
 22 23  2  0
 23  8  1  0
 23 14  1  0
  1 24  1  0
  1 25  1  0
  1 26  1  0
  2 27  1  6
  3 28  1  0
  4 29  1  1
  5 30  1  0
  5 31  1  0
 11 32  1  0
 13 33  1  0
 15 34  1  0
 16 35  1  0
 22 36  1  0
M  CHG  1  11  -1
M  END
>  <UniqueID>  (41) 
41

>  <SMILES>  (41) 
C[C@@H](O)[C@H](N)C(=O)n1c(C([NH-])=O)cc2ccc(C(F)(F)F)cc21

>  <Energy>  (41) 
75.64586412028343

>  <Genealogy>  (41) 
C[C@@H](O)[C@H](N)C(=O)n1c(C([NH-])=O)cc2ccc(C(F)(F)F)cc21 (protonated)
C[C@@H](O)[C@H](N)C(=O)n1c(C([NH-])=O)cc2ccc(C(F)(F)F)cc21 (3D coordinates assigned)
C[C@@H](O)[C@H](N)C(=O)n1c(C([NH-])=O)cc2ccc(C(F)(F)F)cc21 (optimized conformer: 75.64586412028343 kcal/mol)

>  <smiles>  (41) 
C[C@@H](O)[C@H](N)C(=O)n1c(C(N)=O)cc2ccc(C(F)(F)F)cc21

>  <score_type>  (41) 
oracle

>  <origin>  (41) 
adg

>  <m_score__min__energy>  (41) 
-9.1699999999999999

>  <m_primary>  (41) 
energy

$$$$
41:0
     RDKit          3D

 46 47  0  0  0  0  0  0  0  0999 V2000
   -3.3020   19.8770  -32.5760 C   0  0  0  0  0  0  0  0  0  0  0  0
   -2.1380   20.7890  -32.7990 C   0  0  0  0  0  0  0  0  0  0  0  0
   -2.3360   21.9340  -33.2850 O   0  0  0  0  0  0  0  0  0  0  0  0
   -0.8040   20.3780  -32.4580 N   0  0  0  0  0  0  0  0  0  0  0  0
    0.3150   20.4620  -33.2330 C   0  0  0  0  0  0  0  0  0  0  0  0
    0.3590   20.8840  -34.6490 C   0  0  0  0  0  0  0  0  0  0  0  0
   -0.0110   22.2030  -35.0370 N   0  0  0  0  0  0  0  0  0  0  0  0
    0.6980   20.0540  -35.5350 O   0  0  0  0  0  0  0  0  0  0  0  0
    1.4330   20.0350  -32.5200 C   0  0  0  0  0  0  0  0  0  0  0  0
    0.9620   19.6820  -31.2770 C   0  0  0  0  0  0  0  0  0  0  0  0
    1.6440   19.2070  -30.1620 C   0  0  0  0  0  0  0  0  0  0  0  0
    0.9070   18.9570  -28.9920 C   0  0  0  0  0  0  0  0  0  0  0  0
   -0.4950   19.1960  -28.9520 C   0  0  0  0  0  0  0  0  0  0  0  0
   -1.2690   18.9620  -27.7600 N   0  0  0  0  0  0  0  0  0  0  0  0
   -1.5590   19.9830  -26.7510 C   0  0  0  0  0  0  0  0  0  0  0  0
   -0.9720   21.3210  -27.1320 C   0  0  0  0  0  0  0  0  0  0  0  0
    0.0140   21.7650  -26.4830 O   0  0  0  0  0  0  0  0  0  0  0  0
   -1.5070   22.0950  -28.2300 N   0  0  0  0  0  0  0  0  0  0  0  0
   -0.5730   22.7180  -29.1730 C   0  0  0  0  0  0  0  0  0  0  0  0
   -2.9540   22.1970  -28.4760 C   0  0  0  0  0  0  0  0  0  0  0  0
   -3.5390   23.3890  -27.7220 C   0  0  0  0  0  0  0  0  0  0  0  0
   -4.4050   24.0920  -28.5800 O   0  0  0  0  0  0  0  0  0  0  0  0
   -3.4930   24.6970  -29.8880 P   0  0  0  0  0  0  0  0  0  0  0  0
   -3.2500   23.6020  -30.9020 O   0  0  0  0  0  0  0  0  0  0  0  0
   -4.3560   25.9500  -30.6250 O   0  0  0  0  0  0  0  0  0  0  0  0
   -2.0090   25.3010  -29.3410 O   0  0  0  0  0  0  0  0  0  0  0  0
   -1.1470   19.6810  -30.1080 C   0  0  0  0  0  0  0  0  0  0  0  0
   -0.3900   19.9020  -31.2640 C   0  0  0  0  0  0  0  0  0  0  0  0
   -3.4657   19.7488  -31.4958 H   0  0  0  0  0  0  0  0  0  0  0  0
   -4.2022   20.3127  -33.0341 H   0  0  0  0  0  0  0  0  0  0  0  0
   -3.0943   18.8987  -33.0341 H   0  0  0  0  0  0  0  0  0  0  0  0
   -0.9790   22.5590  -34.8780 H   0  0  0  0  0  0  0  0  0  0  0  0
    2.4728   19.9897  -32.8760 H   0  0  0  0  0  0  0  0  0  0  0  0
    2.7295   19.0320  -30.1950 H   0  0  0  0  0  0  0  0  0  0  0  0
    1.4193   18.5725  -28.0977 H   0  0  0  0  0  0  0  0  0  0  0  0
   -1.6320   17.9980  -27.5820 H   0  0  0  0  0  0  0  0  0  0  0  0
   -2.6495   20.0867  -26.6508 H   0  0  0  0  0  0  0  0  0  0  0  0
   -1.1064   19.6661  -25.7998 H   0  0  0  0  0  0  0  0  0  0  0  0
    0.2155   23.2439  -28.6147 H   0  0  0  0  0  0  0  0  0  0  0  0
   -0.1185   21.9416  -29.8059 H   0  0  0  0  0  0  0  0  0  0  0  0
   -1.1153   23.4359  -29.8059 H   0  0  0  0  0  0  0  0  0  0  0  0
   -3.1301   22.3280  -29.5539 H   0  0  0  0  0  0  0  0  0  0  0  0
   -3.4419   21.2767  -28.1226 H   0  0  0  0  0  0  0  0  0  0  0  0
   -4.0983   23.0322  -26.8445 H   0  0  0  0  0  0  0  0  0  0  0  0
   -2.7277   24.0521  -27.3871 H   0  0  0  0  0  0  0  0  0  0  0  0
   -2.2286   19.8810  -30.0994 H   0  0  0  0  0  0  0  0  0  0  0  0
  1  2  1  0
  2  3  2  0
  2  4  1  0
  4  5  1  0
  5  6  1  0
  6  7  1  0
  6  8  2  0
  5  9  2  0
  9 10  1  0
 10 11  2  0
 11 12  1  0
 12 13  2  0
 13 14  1  0
 14 15  1  0
 15 16  1  0
 16 17  2  0
 16 18  1  0
 18 19  1  0
 18 20  1  0
 20 21  1  0
 21 22  1  0
 22 23  1  0
 23 24  2  0
 23 25  1  0
 23 26  1  0
 13 27  1  0
 27 28  2  0
 28  4  1  0
 28 10  1  0
  1 29  1  0
  1 30  1  0
  1 31  1  0
  7 32  1  0
  9 33  1  0
 11 34  1  0
 12 35  1  0
 14 36  1  0
 15 37  1  0
 15 38  1  0
 19 39  1  0
 19 40  1  0
 19 41  1  0
 20 42  1  0
 20 43  1  0
 21 44  1  0
 21 45  1  0
 27 46  1  0
M  CHG  3   7  -1  25  -1  26  -1
M  END
>  <UniqueID>  (42) 
42

>  <SMILES>  (42) 
CC(=O)n1c(C([NH-])=O)cc2ccc(NCC(=O)N(C)CCOP(=O)([O-])[O-])cc21

>  <Energy>  (42) 
79.587317456266

>  <Genealogy>  (42) 
CC(=O)n1c(C([NH-])=O)cc2ccc(NCC(=O)N(C)CCOP(=O)([O-])[O-])cc21 (protonated)
CC(=O)n1c(C([NH-])=O)cc2ccc(NCC(=O)N(C)CCOP(=O)([O-])[O-])cc21 (3D coordinates assigned)
CC(=O)n1c(C([NH-])=O)cc2ccc(NCC(=O)N(C)CCOP(=O)([O-])[O-])cc21 (optimized conformer: 79.587317456266 kcal/mol)

>  <smiles>  (42) 
CC(=O)n1c(C(N)=O)cc2ccc(NCC(=O)N(C)CCOP(=O)(O)O)cc21

>  <score_type>  (42) 
oracle

>  <origin>  (42) 
adg

>  <m_score__min__energy>  (42) 
-11.67

>  <m_primary>  (42) 
energy

$$$$
42:0
     RDKit          3D

 42 43  0  0  0  0  0  0  0  0999 V2000
   -3.9270   25.6230  -30.8630 N   0  0  0  0  0  0  0  0  0  0  0  0
   -5.2560   25.2960  -30.4730 C   0  0  0  0  0  0  0  0  0  0  0  0
   -5.8810   26.0820  -29.7110 O   0  0  0  0  0  0  0  0  0  0  0  0
   -5.9090   24.0480  -30.9310 C   0  0  0  0  0  0  0  0  0  0  0  0
   -7.2900   23.8570  -30.9180 C   0  0  0  0  0  0  0  0  0  0  0  0
   -7.4900   22.5840  -31.4000 C   0  0  0  0  0  0  0  0  0  0  0  0
   -8.6710   21.8830  -31.6200 C   0  0  0  0  0  0  0  0  0  0  0  0
   -8.5790   20.5910  -32.1630 C   0  0  0  0  0  0  0  0  0  0  0  0
   -7.3190   20.0370  -32.4970 C   0  0  0  0  0  0  0  0  0  0  0  0
   -7.2320   18.6470  -33.0540 C   0  0  0  0  0  0  0  0  0  0  0  0
   -8.0880   17.8170  -32.3560 F   0  0  0  0  0  0  0  0  0  0  0  0
   -6.1400   20.7730  -32.2500 C   0  0  0  0  0  0  0  0  0  0  0  0
   -6.2610   22.0480  -31.6850 C   0  0  0  0  0  0  0  0  0  0  0  0
   -5.2800   22.9310  -31.3930 N   0  0  0  0  0  0  0  0  0  0  0  0
   -3.8730   22.7290  -31.6020 C   0  0  0  0  0  0  0  0  0  0  0  0
   -3.0450   23.2200  -30.7890 O   0  0  0  0  0  0  0  0  0  0  0  0
   -3.3800   21.9320  -32.7740 C   0  0  0  0  0  0  0  0  0  0  0  0
   -2.3150   20.5650  -32.2200 P   0  0  2  0  0  0  0  0  0  0  0  0
   -1.0480   20.5670  -33.0430 O   0  0  0  0  0  0  0  0  0  0  0  0
   -3.1220   19.0960  -32.4480 O   0  0  0  0  0  0  0  0  0  0  0  0
   -1.8880   20.7720  -30.4600 C   0  0  0  0  0  0  0  0  0  0  0  0
   -0.4300   21.2010  -30.3040 C   0  0  0  0  0  0  0  0  0  0  0  0
   -0.3250   22.3440  -29.3400 C   0  0  0  0  0  0  0  0  0  0  0  0
    0.2460   22.1660  -28.2310 O   0  0  0  0  0  0  0  0  0  0  0  0
   -0.8390   23.6360  -29.7040 N   0  0  0  0  0  0  0  0  0  0  0  0
   -0.7400   24.8030  -28.8770 C   0  0  0  0  0  0  0  0  0  0  0  0
   -0.1870   24.7550  -27.7460 O   0  0  0  0  0  0  0  0  0  0  0  0
   -1.2590   26.0090  -29.3290 O   0  0  0  0  0  0  0  0  0  0  0  0
   -3.1050   25.3000  -30.3050 H   0  0  0  0  0  0  0  0  0  0  0  0
   -8.0581   24.5734  -30.5911 H   0  0  0  0  0  0  0  0  0  0  0  0
   -9.6474   22.3270  -31.3761 H   0  0  0  0  0  0  0  0  0  0  0  0
   -9.4940   20.0039  -32.3304 H   0  0  0  0  0  0  0  0  0  0  0  0
   -7.5178   18.6590  -34.1161 H   0  0  0  0  0  0  0  0  0  0  0  0
   -6.2009   18.2765  -32.9561 H   0  0  0  0  0  0  0  0  0  0  0  0
   -5.1522   20.3556  -32.4951 H   0  0  0  0  0  0  0  0  0  0  0  0
   -4.2422   21.5200  -33.3188 H   0  0  0  0  0  0  0  0  0  0  0  0
   -2.7944   22.5930  -33.4299 H   0  0  0  0  0  0  0  0  0  0  0  0
   -2.5396   21.5405  -30.0185 H   0  0  0  0  0  0  0  0  0  0  0  0
   -2.0300   19.8096  -29.9465 H   0  0  0  0  0  0  0  0  0  0  0  0
    0.1596   20.3525  -29.9266 H   0  0  0  0  0  0  0  0  0  0  0  0
   -0.0444   21.5217  -31.2830 H   0  0  0  0  0  0  0  0  0  0  0  0
   -1.3010   23.7410  -30.6350 H   0  0  0  0  0  0  0  0  0  0  0  0
  1  2  1  0
  2  3  2  0
  2  4  1  0
  4  5  2  0
  5  6  1  0
  6  7  2  0
  7  8  1  0
  8  9  2  0
  9 10  1  0
 10 11  1  0
  9 12  1  0
 12 13  2  0
 13 14  1  0
 14 15  1  0
 15 16  2  0
 15 17  1  0
 17 18  1  0
 18 19  2  0
 18 20  1  1
 18 21  1  0
 21 22  1  0
 22 23  1  0
 23 24  2  0
 23 25  1  0
 25 26  1  0
 26 27  2  0
 26 28  1  0
 14  4  1  0
 13  6  1  0
  1 29  1  0
  5 30  1  0
  7 31  1  0
  8 32  1  0
 10 33  1  0
 10 34  1  0
 12 35  1  0
 17 36  1  0
 17 37  1  0
 21 38  1  0
 21 39  1  0
 22 40  1  0
 22 41  1  0
 25 42  1  0
M  CHG  3   1  -1  20  -1  28  -1
M  END
>  <UniqueID>  (43) 
43

>  <SMILES>  (43) 
[NH-]C(=O)c1cc2ccc(CF)cc2n1C(=O)C[P@](=O)([O-])CCC(=O)NC(=O)[O-]

>  <Energy>  (43) 
68.09470411375854

>  <Genealogy>  (43) 
[NH-]C(=O)c1cc2ccc(CF)cc2n1C(=O)CP(=O)([O-])CCC(=O)NC(=O)[O-] (protonated)
[NH-]C(=O)c1cc2ccc(CF)cc2n1C(=O)C[P@](=O)([O-])CCC(=O)NC(=O)[O-] (chirality)
[NH-]C(=O)c1cc2ccc(CF)cc2n1C(=O)C[P@](=O)([O-])CCC(=O)NC(=O)[O-] (3D coordinates assigned)
[NH-]C(=O)c1cc2ccc(CF)cc2n1C(=O)C[P@](=O)([O-])CCC(=O)NC(=O)[O-] (optimized conformer: 68.09470411375854 kcal/mol)

>  <smiles>  (43) 
NC(=O)c1cc2ccc(CF)cc2n1C(=O)CP(=O)(O)CCC(=O)NC(=O)O

>  <score_type>  (43) 
oracle

>  <origin>  (43) 
adg

>  <m_score__min__energy>  (43) 
-12.970000000000001

>  <m_primary>  (43) 
energy

$$$$
43:0
     RDKit          3D

 28 29  0  0  0  0  0  0  0  0999 V2000
   -3.8610   25.5820  -30.8570 N   0  0  0  0  0  0  0  0  0  0  0  0
   -5.1800   25.2070  -30.4680 C   0  0  0  0  0  0  0  0  0  0  0  0
   -5.8430   25.9750  -29.7210 O   0  0  0  0  0  0  0  0  0  0  0  0
   -5.7900   23.9510  -30.9530 C   0  0  0  0  0  0  0  0  0  0  0  0
   -7.1660   23.7620  -31.0870 C   0  0  0  0  0  0  0  0  0  0  0  0
   -7.3120   22.4940  -31.6010 C   0  0  0  0  0  0  0  0  0  0  0  0
   -8.4660   21.7780  -31.9080 C   0  0  0  0  0  0  0  0  0  0  0  0
   -8.3170   20.4650  -32.3880 C   0  0  0  0  0  0  0  0  0  0  0  0
   -7.0290   19.8970  -32.5520 C   0  0  0  0  0  0  0  0  0  0  0  0
   -6.8860   18.4770  -33.0240 C   0  0  0  0  0  0  0  0  0  0  0  0
   -5.7570   18.3710  -33.9990 C   0  0  0  0  0  0  0  0  0  0  0  0
   -5.9600   18.5630  -35.2260 O   0  0  0  0  0  0  0  0  0  0  0  0
   -4.4710   18.1080  -33.5450 O   0  0  0  0  0  0  0  0  0  0  0  0
   -5.8820   20.6500  -32.2180 C   0  0  0  0  0  0  0  0  0  0  0  0
   -6.0600   21.9590  -31.7590 C   0  0  0  0  0  0  0  0  0  0  0  0
   -5.1160   22.8430  -31.3700 N   0  0  0  0  0  0  0  0  0  0  0  0
   -3.7000   22.6090  -31.3200 C   0  0  0  0  0  0  0  0  0  0  0  0
   -3.0800   22.3020  -32.3720 O   0  0  0  0  0  0  0  0  0  0  0  0
   -2.9610   22.7180  -30.0560 C   0  0  0  0  0  0  0  0  0  0  0  0
   -1.9560   23.4710  -29.9630 O   0  0  0  0  0  0  0  0  0  0  0  0
   -3.0330   25.2970  -30.2880 H   0  0  0  0  0  0  0  0  0  0  0  0
   -7.9646   24.4753  -30.8352 H   0  0  0  0  0  0  0  0  0  0  0  0
   -9.4626   22.2254  -31.7791 H   0  0  0  0  0  0  0  0  0  0  0  0
   -9.2092   19.8725  -32.6388 H   0  0  0  0  0  0  0  0  0  0  0  0
   -6.6840   17.8253  -32.1611 H   0  0  0  0  0  0  0  0  0  0  0  0
   -7.8185   18.1659  -33.5176 H   0  0  0  0  0  0  0  0  0  0  0  0
   -4.8750   20.2183  -32.3163 H   0  0  0  0  0  0  0  0  0  0  0  0
   -3.2884   22.1362  -29.1817 H   0  0  0  0  0  0  0  0  0  0  0  0
  1  2  1  0
  2  3  2  0
  2  4  1  0
  4  5  2  0
  5  6  1  0
  6  7  2  0
  7  8  1  0
  8  9  2  0
  9 10  1  0
 10 11  1  0
 11 12  2  0
 11 13  1  0
  9 14  1  0
 14 15  2  0
 15 16  1  0
 16 17  1  0
 17 18  2  0
 17 19  1  0
 19 20  2  0
 16  4  1  0
 15  6  1  0
  1 21  1  0
  5 22  1  0
  7 23  1  0
  8 24  1  0
 10 25  1  0
 10 26  1  0
 14 27  1  0
 19 28  1  0
M  CHG  2   1  -1  13  -1
M  END
>  <UniqueID>  (44) 
44

>  <SMILES>  (44) 
[NH-]C(=O)c1cc2ccc(CC(=O)[O-])cc2n1C(=O)C=O

>  <Energy>  (44) 
66.12888650955226

>  <Genealogy>  (44) 
[NH-]C(=O)c1cc2ccc(CC(=O)[O-])cc2n1C(=O)C=O (protonated)
[NH-]C(=O)c1cc2ccc(CC(=O)[O-])cc2n1C(=O)C=O (3D coordinates assigned)
[NH-]C(=O)c1cc2ccc(CC(=O)[O-])cc2n1C(=O)C=O (optimized conformer: 66.12888650955226 kcal/mol)

>  <smiles>  (44) 
NC(=O)c1cc2ccc(CC(=O)O)cc2n1C(=O)C=O

>  <score_type>  (44) 
oracle

>  <origin>  (44) 
adg

>  <m_score__min__energy>  (44) 
-9.2899999999999991

>  <m_primary>  (44) 
energy

$$$$
44:0
     RDKit          3D

 43 44  0  0  0  0  0  0  0  0999 V2000
   -7.6150   18.7060  -32.7340 C   0  0  0  0  0  0  0  0  0  0  0  0
   -7.5680   20.0940  -32.1680 C   0  0  0  0  0  0  0  0  0  0  0  0
   -8.7620   20.7350  -31.7550 C   0  0  0  0  0  0  0  0  0  0  0  0
   -8.7310   22.0440  -31.2460 C   0  0  0  0  0  0  0  0  0  0  0  0
   -7.5000   22.6890  -31.1800 C   0  0  0  0  0  0  0  0  0  0  0  0
   -7.1830   23.9460  -30.7160 C   0  0  0  0  0  0  0  0  0  0  0  0
   -5.8050   24.0670  -30.8910 C   0  0  0  0  0  0  0  0  0  0  0  0
   -5.0550   25.3080  -30.6060 C   0  0  0  0  0  0  0  0  0  0  0  0
   -3.6350   25.2940  -30.4730 N   0  0  0  0  0  0  0  0  0  0  0  0
   -5.6710   26.4040  -30.5240 O   0  0  0  0  0  0  0  0  0  0  0  0
   -5.2900   22.9250  -31.4300 N   0  0  0  0  0  0  0  0  0  0  0  0
   -3.9140   22.6190  -31.6940 C   0  0  0  0  0  0  0  0  0  0  0  0
   -3.0520   22.7670  -30.7850 O   0  0  0  0  0  0  0  0  0  0  0  0
   -3.5360   22.1440  -32.9540 O   0  0  0  0  0  0  0  0  0  0  0  0
   -3.3520   20.7610  -33.2320 C   0  0  0  0  0  0  0  0  0  0  0  0
   -2.3430   20.6060  -34.2240 O   0  0  0  0  0  0  0  0  0  0  0  0
   -0.9830   20.8080  -33.9630 C   0  0  0  0  0  0  0  0  0  0  0  0
   -0.4520   21.9280  -34.2000 O   0  0  0  0  0  0  0  0  0  0  0  0
   -0.1950   19.7320  -33.4230 N   0  0  0  0  0  0  0  0  0  0  0  0
    0.8710   19.1500  -34.2420 C   0  0  0  0  0  0  0  0  0  0  0  0
   -0.4150   19.2570  -32.0510 C   0  0  0  0  0  0  0  0  0  0  0  0
   -0.3030   20.3990  -31.0870 C   0  0  0  0  0  0  0  0  0  0  0  0
   -0.9690   21.6360  -31.3440 N   0  0  0  0  0  0  0  0  0  0  0  0
    0.4100   20.2770  -30.0550 O   0  0  0  0  0  0  0  0  0  0  0  0
   -6.3410   22.0940  -31.6060 C   0  0  0  0  0  0  0  0  0  0  0  0
   -6.3380   20.7840  -32.1010 C   0  0  0  0  0  0  0  0  0  0  0  0
   -7.6397   17.9755  -31.9120 H   0  0  0  0  0  0  0  0  0  0  0  0
   -8.5175   18.5926  -33.3526 H   0  0  0  0  0  0  0  0  0  0  0  0
   -6.7222   18.5318  -33.3526 H   0  0  0  0  0  0  0  0  0  0  0  0
   -9.7217   20.2031  -31.8336 H   0  0  0  0  0  0  0  0  0  0  0  0
   -9.6516   22.5436  -30.9100 H   0  0  0  0  0  0  0  0  0  0  0  0
   -7.8705   24.6953  -30.2965 H   0  0  0  0  0  0  0  0  0  0  0  0
   -3.0290   24.8880  -31.2200 H   0  0  0  0  0  0  0  0  0  0  0  0
   -3.0456   20.2400  -32.3130 H   0  0  0  0  0  0  0  0  0  0  0  0
   -4.2960   20.3324  -33.5995 H   0  0  0  0  0  0  0  0  0  0  0  0
    1.6467   18.7265  -33.5871 H   0  0  0  0  0  0  0  0  0  0  0  0
    0.4530   18.3549  -34.8769 H   0  0  0  0  0  0  0  0  0  0  0  0
    1.3138   19.9316  -34.8769 H   0  0  0  0  0  0  0  0  0  0  0  0
   -1.4192   18.8144  -31.9758 H   0  0  0  0  0  0  0  0  0  0  0  0
    0.3460   18.5018  -31.8048 H   0  0  0  0  0  0  0  0  0  0  0  0
   -0.8780   22.4310  -30.6740 H   0  0  0  0  0  0  0  0  0  0  0  0
   -1.5500   21.7630  -32.2020 H   0  0  0  0  0  0  0  0  0  0  0  0
   -5.4031   20.3058  -32.4286 H   0  0  0  0  0  0  0  0  0  0  0  0
  1  2  1  0
  2  3  2  0
  3  4  1  0
  4  5  2  0
  5  6  1  0
  6  7  2  0
  7  8  1  0
  8  9  1  0
  8 10  2  0
  7 11  1  0
 11 12  1  0
 12 13  2  0
 12 14  1  0
 14 15  1  0
 15 16  1  0
 16 17  1  0
 17 18  2  0
 17 19  1  0
 19 20  1  0
 19 21  1  0
 21 22  1  0
 22 23  1  0
 22 24  2  0
 11 25  1  0
 25 26  2  0
 26  2  1  0
 25  5  1  0
  1 27  1  0
  1 28  1  0
  1 29  1  0
  3 30  1  0
  4 31  1  0
  6 32  1  0
  9 33  1  0
 15 34  1  0
 15 35  1  0
 20 36  1  0
 20 37  1  0
 20 38  1  0
 21 39  1  0
 21 40  1  0
 23 41  1  0
 23 42  1  0
 26 43  1  0
M  CHG  1   9  -1
M  END
>  <UniqueID>  (45) 
45

>  <SMILES>  (45) 
Cc1ccc2cc(C([NH-])=O)n(C(=O)OCOC(=O)N(C)CC(N)=O)c2c1

>  <Energy>  (45) 
72.43818086685363

>  <Genealogy>  (45) 
Cc1ccc2cc(C([NH-])=O)n(C(=O)OCOC(=O)N(C)CC(N)=O)c2c1 (protonated)
Cc1ccc2cc(C([NH-])=O)n(C(=O)OCOC(=O)N(C)CC(N)=O)c2c1 (3D coordinates assigned)
Cc1ccc2cc(C([NH-])=O)n(C(=O)OCOC(=O)N(C)CC(N)=O)c2c1 (optimized conformer: 72.43818086685363 kcal/mol)

>  <smiles>  (45) 
Cc1ccc2cc(C(N)=O)n(C(=O)OCOC(=O)N(C)CC(N)=O)c2c1

>  <score_type>  (45) 
oracle

>  <origin>  (45) 
adg

>  <m_score__min__energy>  (45) 
-10.289999999999999

>  <m_primary>  (45) 
energy

$$$$
45:0
     RDKit          3D

 48 49  0  0  0  0  0  0  0  0999 V2000
   -6.1160   17.1990  -31.2600 C   0  0  0  0  0  0  0  0  0  0  0  0
   -6.1590   17.5950  -32.7440 C   0  0  2  0  0  0  0  0  0  0  0  0
   -7.2340   18.5670  -32.9960 N   0  0  0  0  0  0  0  0  0  0  0  0
   -7.3090   19.9150  -32.4820 C   0  0  0  0  0  0  0  0  0  0  0  0
   -8.5820   20.5340  -32.3750 C   0  0  0  0  0  0  0  0  0  0  0  0
   -8.7110   21.8490  -31.8960 C   0  0  0  0  0  0  0  0  0  0  0  0
   -7.5550   22.5220  -31.5230 C   0  0  0  0  0  0  0  0  0  0  0  0
   -7.3840   23.8000  -31.0360 C   0  0  0  0  0  0  0  0  0  0  0  0
   -6.0120   23.9390  -30.8270 C   0  0  0  0  0  0  0  0  0  0  0  0
   -5.3420   25.1660  -30.3310 C   0  0  0  0  0  0  0  0  0  0  0  0
   -3.9230   25.2220  -30.1660 N   0  0  0  0  0  0  0  0  0  0  0  0
   -6.0270   26.1790  -30.0300 O   0  0  0  0  0  0  0  0  0  0  0  0
   -5.3690   22.7910  -31.1800 N   0  0  0  0  0  0  0  0  0  0  0  0
   -3.9610   22.5310  -31.1160 C   0  0  0  0  0  0  0  0  0  0  0  0
   -3.1610   23.3730  -31.6090 O   0  0  0  0  0  0  0  0  0  0  0  0
   -3.4620   21.3080  -30.5410 N   0  0  0  0  0  0  0  0  0  0  0  0
   -3.2420   20.1510  -31.4130 C   0  0  0  0  0  0  0  0  0  0  0  0
   -3.1280   21.2280  -29.1110 C   0  0  0  0  0  0  0  0  0  0  0  0
   -3.5180   22.4850  -28.3980 C   0  0  0  0  0  0  0  0  0  0  0  0
   -4.5380   22.4950  -27.6590 O   0  0  0  0  0  0  0  0  0  0  0  0
   -2.7440   23.6740  -28.5780 N   0  0  0  0  0  0  0  0  0  0  0  0
   -1.6190   24.0150  -27.7200 C   0  0  0  0  0  0  0  0  0  0  0  0
   -0.8880   25.1830  -28.2940 C   0  0  0  0  0  0  0  0  0  0  0  0
   -1.5170   26.0850  -28.9100 O   0  0  0  0  0  0  0  0  0  0  0  0
    0.4870   25.2930  -28.1290 O   0  0  0  0  0  0  0  0  0  0  0  0
   -6.3200   21.9370  -31.5990 C   0  0  0  0  0  0  0  0  0  0  0  0
   -6.1580   20.6320  -32.0690 C   0  0  0  0  0  0  0  0  0  0  0  0
   -6.2590   16.4160  -33.6760 C   0  0  0  0  0  0  0  0  0  0  0  0
   -7.2240   16.3090  -34.4780 O   0  0  0  0  0  0  0  0  0  0  0  0
   -5.3150   15.3990  -33.6060 O   0  0  0  0  0  0  0  0  0  0  0  0
   -6.2139   18.1003  -30.6370 H   0  0  0  0  0  0  0  0  0  0  0  0
   -6.9446   16.5097  -31.0403 H   0  0  0  0  0  0  0  0  0  0  0  0
   -5.1588   16.7036  -31.0403 H   0  0  0  0  0  0  0  0  0  0  0  0
   -5.1927   18.0720  -32.9648 H   0  0  0  0  0  0  0  0  0  0  0  0
   -7.9710   18.2720  -33.6760 H   0  0  0  0  0  0  0  0  0  0  0  0
   -9.4820   19.9755  -32.6718 H   0  0  0  0  0  0  0  0  0  0  0  0
   -9.6972   22.3302  -31.8190 H   0  0  0  0  0  0  0  0  0  0  0  0
   -8.1652   24.5521  -30.8511 H   0  0  0  0  0  0  0  0  0  0  0  0
   -3.3030   24.4180  -30.4040 H   0  0  0  0  0  0  0  0  0  0  0  0
   -3.4870   26.0570  -29.7190 H   0  0  0  0  0  0  0  0  0  0  0  0
   -3.0717   19.2552  -30.7977 H   0  0  0  0  0  0  0  0  0  0  0  0
   -4.1269   19.9969  -32.0479 H   0  0  0  0  0  0  0  0  0  0  0  0
   -2.3623   20.3324  -32.0479 H   0  0  0  0  0  0  0  0  0  0  0  0
   -3.6651   20.3789  -28.6631 H   0  0  0  0  0  0  0  0  0  0  0  0
   -2.0410   21.0918  -29.0121 H   0  0  0  0  0  0  0  0  0  0  0  0
   -1.9886   24.2717  -26.7163 H   0  0  0  0  0  0  0  0  0  0  0  0
   -0.9371   23.1545  -27.6522 H   0  0  0  0  0  0  0  0  0  0  0  0
   -5.1604   20.1711  -32.1176 H   0  0  0  0  0  0  0  0  0  0  0  0
  1  2  1  0
  2  3  1  0
  3  4  1  0
  4  5  2  0
  5  6  1  0
  6  7  2  0
  7  8  1  0
  8  9  2  0
  9 10  1  0
 10 11  1  0
 10 12  2  0
  9 13  1  0
 13 14  1  0
 14 15  2  0
 14 16  1  0
 16 17  1  0
 16 18  1  0
 18 19  1  0
 19 20  2  0
 19 21  1  0
 21 22  1  0
 22 23  1  0
 23 24  2  0
 23 25  1  0
 13 26  1  0
 26 27  2  0
  2 28  1  0
 28 29  2  0
 28 30  1  0
 27  4  1  0
 26  7  1  0
  1 31  1  0
  1 32  1  0
  1 33  1  0
  2 34  1  6
  3 35  1  0
  5 36  1  0
  6 37  1  0
  8 38  1  0
 11 39  1  0
 11 40  1  0
 17 41  1  0
 17 42  1  0
 17 43  1  0
 18 44  1  0
 18 45  1  0
 22 46  1  0
 22 47  1  0
 27 48  1  0
M  CHG  3  21  -1  25  -1  30  -1
M  END
>  <UniqueID>  (46) 
46

>  <SMILES>  (46) 
C[C@H](Nc1ccc2cc(C(N)=O)n(C(=O)N(C)CC(=O)[N-]CC(=O)[O-])c2c1)C(=O)[O-]

>  <Energy>  (46) 
79.47196846704243

>  <Genealogy>  (46) 
CC(Nc1ccc2cc(C(N)=O)n(C(=O)N(C)CC(=O)[N-]CC(=O)[O-])c2c1)C(=O)[O-] (protonated)
C[C@H](Nc1ccc2cc(C(N)=O)n(C(=O)N(C)CC(=O)[N-]CC(=O)[O-])c2c1)C(=O)[O-] (chirality)
C[C@H](Nc1ccc2cc(C(N)=O)n(C(=O)N(C)CC(=O)[N-]CC(=O)[O-])c2c1)C(=O)[O-] (3D coordinates assigned)
C[C@H](Nc1ccc2cc(C(N)=O)n(C(=O)N(C)CC(=O)[N-]CC(=O)[O-])c2c1)C(=O)[O-] (optimized conformer: 79.47196846704243 kcal/mol)

>  <smiles>  (46) 
CC(Nc1ccc2cc(C(N)=O)n(C(=O)N(C)CC(=O)NCC(=O)O)c2c1)C(=O)O

>  <score_type>  (46) 
oracle

>  <origin>  (46) 
adg

>  <m_score__min__energy>  (46) 
-13.02

>  <m_primary>  (46) 
energy

$$$$
46:0
     RDKit          3D

 32 33  0  0  0  0  0  0  0  0999 V2000
   -7.0560   18.3050  -32.4460 C   0  0  0  0  0  0  0  0  0  0  0  0
   -7.2420   19.7510  -32.0980 C   0  0  0  0  0  0  0  0  0  0  0  0
   -8.5110   20.3600  -32.2570 C   0  0  0  0  0  0  0  0  0  0  0  0
   -8.6880   21.7260  -31.9820 C   0  0  0  0  0  0  0  0  0  0  0  0
   -7.5810   22.4550  -31.5560 C   0  0  0  0  0  0  0  0  0  0  0  0
   -7.4660   23.7920  -31.2540 C   0  0  0  0  0  0  0  0  0  0  0  0
   -6.1290   23.9790  -30.9090 C   0  0  0  0  0  0  0  0  0  0  0  0
   -5.5860   25.2670  -30.4310 C   0  0  0  0  0  0  0  0  0  0  0  0
   -4.2340   25.6340  -30.6920 N   0  0  0  0  0  0  0  0  0  0  0  0
   -6.3100   26.0330  -29.7410 O   0  0  0  0  0  0  0  0  0  0  0  0
   -5.4420   22.8050  -31.0000 N   0  0  0  0  0  0  0  0  0  0  0  0
   -4.0310   22.6000  -30.8270 C   0  0  0  0  0  0  0  0  0  0  0  0
   -3.2600   22.6440  -31.8250 O   0  0  0  0  0  0  0  0  0  0  0  0
   -3.5160   22.3750  -29.5470 O   0  0  0  0  0  0  0  0  0  0  0  0
   -3.2490   23.4280  -28.6290 C   0  0  0  0  0  0  0  0  0  0  0  0
   -1.5620   24.0370  -28.8960 P   0  0  2  0  0  0  0  0  0  0  0  0
   -0.7660   23.8960  -27.6180 O   0  0  0  0  0  0  0  0  0  0  0  0
   -1.6180   25.6660  -29.3440 O   0  0  0  0  0  0  0  0  0  0  0  0
   -0.8210   23.1420  -30.1260 O   0  0  0  0  0  0  0  0  0  0  0  0
   -6.3460   21.8800  -31.3950 C   0  0  0  0  0  0  0  0  0  0  0  0
   -6.1370   20.5250  -31.6800 C   0  0  0  0  0  0  0  0  0  0  0  0
   -6.9798   17.7125  -31.5224 H   0  0  0  0  0  0  0  0  0  0  0  0
   -7.9167   17.9561  -33.0355 H   0  0  0  0  0  0  0  0  0  0  0  0
   -6.1351   18.1853  -33.0355 H   0  0  0  0  0  0  0  0  0  0  0  0
   -9.3656   19.7577  -32.5989 H   0  0  0  0  0  0  0  0  0  0  0  0
   -9.6712   22.2051  -32.0996 H   0  0  0  0  0  0  0  0  0  0  0  0
   -8.2607   24.5521  -31.2794 H   0  0  0  0  0  0  0  0  0  0  0  0
   -3.5270   25.6640  -29.9240 H   0  0  0  0  0  0  0  0  0  0  0  0
   -3.9657   24.2469  -28.7896 H   0  0  0  0  0  0  0  0  0  0  0  0
   -3.3490   23.0550  -27.5990 H   0  0  0  0  0  0  0  0  0  0  0  0
   -1.5470   22.5890  -30.5110 H   0  0  0  0  0  0  0  0  0  0  0  0
   -5.1381   20.0751  -31.5809 H   0  0  0  0  0  0  0  0  0  0  0  0
  1  2  1  0
  2  3  2  0
  3  4  1  0
  4  5  2  0
  5  6  1  0
  6  7  2  0
  7  8  1  0
  8  9  1  0
  8 10  2  0
  7 11  1  0
 11 12  1  0
 12 13  2  0
 12 14  1  0
 14 15  1  0
 15 16  1  0
 16 17  2  0
 16 18  1  6
 16 19  1  0
 11 20  1  0
 20 21  2  0
 21  2  1  0
 20  5  1  0
  1 22  1  0
  1 23  1  0
  1 24  1  0
  3 25  1  0
  4 26  1  0
  6 27  1  0
  9 28  1  0
 15 29  1  0
 15 30  1  0
 19 31  1  0
 21 32  1  0
M  CHG  2   9  -1  18  -1
M  END
>  <UniqueID>  (47) 
47

>  <SMILES>  (47) 
Cc1ccc2cc(C([NH-])=O)n(C(=O)OC[P@](=O)([O-])O)c2c1

>  <Energy>  (47) 
63.36471879716172

>  <Genealogy>  (47) 
Cc1ccc2cc(C([NH-])=O)n(C(=O)OCP(=O)([O-])O)c2c1 (protonated)
Cc1ccc2cc(C([NH-])=O)n(C(=O)OC[P@](=O)([O-])O)c2c1 (chirality)
Cc1ccc2cc(C([NH-])=O)n(C(=O)OC[P@](=O)([O-])O)c2c1 (3D coordinates assigned)
Cc1ccc2cc(C([NH-])=O)n(C(=O)OC[P@](=O)([O-])O)c2c1 (optimized conformer: 63.36471879716172 kcal/mol)

>  <smiles>  (47) 
Cc1ccc2cc(C(N)=O)n(C(=O)OCP(=O)(O)O)c2c1

>  <score_type>  (47) 
oracle

>  <origin>  (47) 
adg

>  <m_score__min__energy>  (47) 
-11.789999999999999

>  <m_primary>  (47) 
energy

$$$$
47:0
     RDKit          3D

 47 50  0  0  0  0  0  0  0  0999 V2000
   -7.5970   18.4160  -32.6710 C   0  0  0  0  0  0  0  0  0  0  0  0
   -7.5930   19.8740  -32.3190 C   0  0  0  0  0  0  0  0  0  0  0  0
   -8.8060   20.6070  -32.3200 C   0  0  0  0  0  0  0  0  0  0  0  0
   -8.8210   21.9660  -31.9630 C   0  0  0  0  0  0  0  0  0  0  0  0
   -7.6150   22.5570  -31.5950 C   0  0  0  0  0  0  0  0  0  0  0  0
   -7.3400   23.8500  -31.2110 C   0  0  0  0  0  0  0  0  0  0  0  0
   -5.9700   23.8760  -30.9520 C   0  0  0  0  0  0  0  0  0  0  0  0
   -5.2500   25.0620  -30.4460 C   0  0  0  0  0  0  0  0  0  0  0  0
   -3.8650   25.2290  -30.7360 N   0  0  0  0  0  0  0  0  0  0  0  0
   -5.8510   25.9450  -29.7780 O   0  0  0  0  0  0  0  0  0  0  0  0
   -5.4210   22.6490  -31.1810 N   0  0  0  0  0  0  0  0  0  0  0  0
   -4.0450   22.2560  -31.0580 C   0  0  0  0  0  0  0  0  0  0  0  0
   -3.4980   21.6380  -32.0110 O   0  0  0  0  0  0  0  0  0  0  0  0
   -3.2550   22.5760  -29.8420 C   0  0  0  0  0  0  0  0  0  0  0  0
   -3.9160   22.8030  -28.6230 C   0  0  0  0  0  0  0  0  0  0  0  0
   -3.1920   23.1190  -27.4710 C   0  0  0  0  0  0  0  0  0  0  0  0
   -1.7990   23.2120  -27.5080 C   0  0  0  0  0  0  0  0  0  0  0  0
   -1.1250   23.5400  -26.3210 O   0  0  0  0  0  0  0  0  0  0  0  0
   -0.6540   24.8430  -25.9690 C   0  0  1  0  0  0  0  0  0  0  0  0
   -1.7030   25.6350  -25.2200 C   0  0  0  0  0  0  0  0  0  0  0  0
   -0.9010   26.5170  -24.2810 C   0  0  0  0  0  0  0  0  0  0  0  0
    0.4130   25.9000  -24.0810 N   0  0  0  0  0  0  0  0  0  0  0  0
    0.4920   24.7440  -24.9780 C   0  0  0  0  0  0  0  0  0  0  0  0
   -1.1290   22.9670  -28.7210 C   0  0  0  0  0  0  0  0  0  0  0  0
   -1.8480   22.6500  -29.8780 C   0  0  0  0  0  0  0  0  0  0  0  0
   -1.1590   22.3830  -31.0160 F   0  0  0  0  0  0  0  0  0  0  0  0
   -6.4410   21.8530  -31.5640 C   0  0  0  0  0  0  0  0  0  0  0  0
   -6.3920   20.5020  -31.9230 C   0  0  0  0  0  0  0  0  0  0  0  0
   -7.5986   17.8162  -31.7489 H   0  0  0  0  0  0  0  0  0  0  0  0
   -8.4958   18.1837  -33.2611 H   0  0  0  0  0  0  0  0  0  0  0  0
   -6.6995   18.1788  -33.2611 H   0  0  0  0  0  0  0  0  0  0  0  0
   -9.7443   20.1075  -32.6028 H   0  0  0  0  0  0  0  0  0  0  0  0
   -9.7563   22.5450  -31.9739 H   0  0  0  0  0  0  0  0  0  0  0  0
   -8.0504   24.6856  -31.1264 H   0  0  0  0  0  0  0  0  0  0  0  0
   -3.5200   26.0720  -31.2470 H   0  0  0  0  0  0  0  0  0  0  0  0
   -5.0126   22.7313  -28.5755 H   0  0  0  0  0  0  0  0  0  0  0  0
   -3.7245   23.2964  -26.5250 H   0  0  0  0  0  0  0  0  0  0  0  0
   -0.3716   25.3205  -26.9189 H   0  0  0  0  0  0  0  0  0  0  0  0
   -2.3006   26.2449  -25.9134 H   0  0  0  0  0  0  0  0  0  0  0  0
   -2.4173   24.9906  -24.6866 H   0  0  0  0  0  0  0  0  0  0  0  0
   -0.7791   27.5169  -24.7230 H   0  0  0  0  0  0  0  0  0  0  0  0
   -1.4228   26.6186  -23.3180 H   0  0  0  0  0  0  0  0  0  0  0  0
    0.4810   25.5630  -23.0920 H   0  0  0  0  0  0  0  0  0  0  0  0
    1.4521   24.7524  -25.5148 H   0  0  0  0  0  0  0  0  0  0  0  0
    0.4224   23.8082  -24.4040 H   0  0  0  0  0  0  0  0  0  0  0  0
   -0.0312   23.0253  -28.7595 H   0  0  0  0  0  0  0  0  0  0  0  0
   -5.4442   19.9443  -31.8975 H   0  0  0  0  0  0  0  0  0  0  0  0
  1  2  1  0
  2  3  2  0
  3  4  1  0
  4  5  2  0
  5  6  1  0
  6  7  2  0
  7  8  1  0
  8  9  1  0
  8 10  2  0
  7 11  1  0
 11 12  1  0
 12 13  2  0
 12 14  1  0
 14 15  2  0
 15 16  1  0
 16 17  2  0
 17 18  1  0
 18 19  1  0
 19 20  1  0
 20 21  1  0
 21 22  1  0
 22 23  1  0
 17 24  1  0
 24 25  2  0
 25 26  1  0
 11 27  1  0
 27 28  2  0
 28  2  1  0
 27  5  1  0
 25 14  1  0
 23 19  1  0
  1 29  1  0
  1 30  1  0
  1 31  1  0
  3 32  1  0
  4 33  1  0
  6 34  1  0
  9 35  1  0
 15 36  1  0
 16 37  1  0
 19 38  1  6
 20 39  1  0
 20 40  1  0
 21 41  1  0
 21 42  1  0
 22 43  1  0
 23 44  1  0
 23 45  1  0
 24 46  1  0
 28 47  1  0
M  CHG  1   9  -1
M  END
>  <UniqueID>  (48) 
48

>  <SMILES>  (48) 
Cc1ccc2cc(C([NH-])=O)n(C(=O)c3ccc(O[C@H]4CCNC4)cc3F)c2c1

>  <Energy>  (48) 
92.05506771829592

>  <Genealogy>  (48) 
Cc1ccc2cc(C([NH-])=O)n(C(=O)c3ccc(O[C@H]4CCNC4)cc3F)c2c1 (protonated)
Cc1ccc2cc(C([NH-])=O)n(C(=O)c3ccc(O[C@H]4CCNC4)cc3F)c2c1 (3D coordinates assigned)
Cc1ccc2cc(C([NH-])=O)n(C(=O)c3ccc(O[C@H]4CCNC4)cc3F)c2c1 (nonaromatic ring conformer: 92.05506771829592 kcal/mol)

>  <smiles>  (48) 
Cc1ccc2cc(C(N)=O)n(C(=O)c3ccc(O[C@H]4CCNC4)cc3F)c2c1

>  <score_type>  (48) 
oracle

>  <origin>  (48) 
adg

>  <m_score__min__energy>  (48) 
-12

>  <m_primary>  (48) 
energy

$$$$
48:0
     RDKit          3D

 64 67  0  0  0  0  0  0  0  0999 V2000
   -7.5870   17.8630  -33.0720 C   0  0  0  0  0  0  0  0  0  0  0  0
   -7.5900   19.2060  -32.4030 C   0  0  0  0  0  0  0  0  0  0  0  0
   -8.7740   19.6890  -31.8050 C   0  0  0  0  0  0  0  0  0  0  0  0
   -8.7880   20.9320  -31.1600 C   0  0  0  0  0  0  0  0  0  0  0  0
   -7.5980   21.6510  -31.0980 C   0  0  0  0  0  0  0  0  0  0  0  0
   -7.3710   22.8840  -30.5530 C   0  0  0  0  0  0  0  0  0  0  0  0
   -6.0290   23.1450  -30.7880 C   0  0  0  0  0  0  0  0  0  0  0  0
   -5.4180   24.4440  -30.4480 C   0  0  0  0  0  0  0  0  0  0  0  0
   -5.7300   25.0960  -29.2160 N   0  0  0  0  0  0  0  0  0  0  0  0
   -4.5510   24.9420  -31.2150 O   0  0  0  0  0  0  0  0  0  0  0  0
   -5.4130   22.0960  -31.4210 N   0  0  0  0  0  0  0  0  0  0  0  0
   -3.9770   21.9710  -31.6270 C   0  0  0  0  0  0  0  0  0  0  0  0
   -3.4830   22.3110  -32.7360 O   0  0  0  0  0  0  0  0  0  0  0  0
   -3.0420   21.4670  -30.5520 C   0  0  0  0  0  0  0  0  0  0  0  0
   -2.5890   22.4940  -29.5400 C   0  0  0  0  0  0  0  0  0  0  0  0
   -2.3490   23.6790  -29.9030 O   0  0  0  0  0  0  0  0  0  0  0  0
   -2.5040   22.1690  -28.1370 N   0  0  0  0  0  0  0  0  0  0  0  0
   -2.6770   20.7300  -27.8350 C   0  0  0  0  0  0  0  0  0  0  0  0
   -1.9840   20.1370  -26.6130 C   0  0  0  0  0  0  0  0  0  0  0  0
   -1.4160   19.8990  -28.0090 C   0  0  0  0  0  0  0  0  0  0  0  0
   -2.2300   23.2160  -27.1150 C   0  0  0  0  0  0  0  0  0  0  0  0
   -0.7900   23.8110  -27.2150 C   0  0  0  0  0  0  0  0  0  0  0  0
   -0.7540   25.3440  -27.1240 C   0  0  0  0  0  0  0  0  0  0  0  0
   -1.6710   25.8290  -26.0820 N   0  0  0  0  0  0  0  0  0  0  0  0
   -1.2380   26.8100  -25.1240 C   0  0  0  0  0  0  0  0  0  0  0  0
   -1.6050   26.7010  -23.9220 O   0  0  0  0  0  0  0  0  0  0  0  0
   -0.4120   27.9230  -25.5130 N   0  0  0  0  0  0  0  0  0  0  0  0
   -0.4910   28.4860  -26.8620 C   0  0  0  0  0  0  0  0  0  0  0  0
    0.5270   28.4920  -24.5450 C   0  0  0  0  0  0  0  0  0  0  0  0
   -3.0500   25.3250  -26.0100 C   0  0  0  0  0  0  0  0  0  0  0  0
   -3.3280   24.2970  -27.1130 C   0  0  0  0  0  0  0  0  0  0  0  0
   -6.4150   21.1910  -31.6340 C   0  0  0  0  0  0  0  0  0  0  0  0
   -6.3970   19.9590  -32.3180 C   0  0  0  0  0  0  0  0  0  0  0  0
   -7.5852   17.0724  -32.3072 H   0  0  0  0  0  0  0  0  0  0  0  0
   -8.4849   17.7640  -33.6996 H   0  0  0  0  0  0  0  0  0  0  0  0
   -6.6886   17.7680  -33.6996 H   0  0  0  0  0  0  0  0  0  0  0  0
   -9.6922   19.0847  -31.8459 H   0  0  0  0  0  0  0  0  0  0  0  0
   -9.7127   21.3285  -30.7153 H   0  0  0  0  0  0  0  0  0  0  0  0
   -8.0970   23.5306  -30.0384 H   0  0  0  0  0  0  0  0  0  0  0  0
   -6.3640   24.6430  -28.5190 H   0  0  0  0  0  0  0  0  0  0  0  0
   -5.2780   26.0030  -28.9700 H   0  0  0  0  0  0  0  0  0  0  0  0
   -3.5564   20.6611  -30.0080 H   0  0  0  0  0  0  0  0  0  0  0  0
   -2.1312   21.1423  -31.0764 H   0  0  0  0  0  0  0  0  0  0  0  0
   -3.7166   20.7030  -28.1934 H   0  0  0  0  0  0  0  0  0  0  0  0
   -1.4541   20.7940  -25.9076 H   0  0  0  0  0  0  0  0  0  0  0  0
   -2.2944   19.4920  -25.7778 H   0  0  0  0  0  0  0  0  0  0  0  0
   -0.4754   20.3836  -28.3098 H   0  0  0  0  0  0  0  0  0  0  0  0
   -1.1462   19.0095  -28.5972 H   0  0  0  0  0  0  0  0  0  0  0  0
   -2.2636   22.7195  -26.1340 H   0  0  0  0  0  0  0  0  0  0  0  0
   -0.1850   23.3990  -26.3939 H   0  0  0  0  0  0  0  0  0  0  0  0
   -0.3935   23.5357  -28.2034 H   0  0  0  0  0  0  0  0  0  0  0  0
    0.2694   25.6666  -26.8818 H   0  0  0  0  0  0  0  0  0  0  0  0
   -1.0692   25.7612  -28.0918 H   0  0  0  0  0  0  0  0  0  0  0  0
   -0.6436   29.5734  -26.7971 H   0  0  0  0  0  0  0  0  0  0  0  0
    0.4450   28.2786  -27.4013 H   0  0  0  0  0  0  0  0  0  0  0  0
   -1.3338   28.0290  -27.4013 H   0  0  0  0  0  0  0  0  0  0  0  0
    0.1757   28.2791  -23.5246 H   0  0  0  0  0  0  0  0  0  0  0  0
    1.5210   28.0441  -24.6915 H   0  0  0  0  0  0  0  0  0  0  0  0
    0.5900   29.5804  -24.6915 H   0  0  0  0  0  0  0  0  0  0  0  0
   -3.2068   24.8500  -25.0303 H   0  0  0  0  0  0  0  0  0  0  0  0
   -3.7364   26.1736  -26.1466 H   0  0  0  0  0  0  0  0  0  0  0  0
   -4.3045   23.8240  -26.9323 H   0  0  0  0  0  0  0  0  0  0  0  0
   -3.3348   24.8064  -28.0879 H   0  0  0  0  0  0  0  0  0  0  0  0
   -5.4690   19.5892  -32.7785 H   0  0  0  0  0  0  0  0  0  0  0  0
  1  2  1  0
  2  3  2  0
  3  4  1  0
  4  5  2  0
  5  6  1  0
  6  7  2  0
  7  8  1  0
  8  9  1  0
  8 10  2  0
  7 11  1  0
 11 12  1  0
 12 13  2  0
 12 14  1  0
 14 15  1  0
 15 16  2  0
 15 17  1  0
 17 18  1  0
 18 19  1  0
 19 20  1  0
 17 21  1  0
 21 22  1  0
 22 23  1  0
 23 24  1  0
 24 25  1  0
 25 26  2  0
 25 27  1  0
 27 28  1  0
 27 29  1  0
 24 30  1  0
 30 31  1  0
 11 32  1  0
 32 33  2  0
 33  2  1  0
 32  5  1  0
 20 18  1  0
 31 21  1  0
  1 34  1  0
  1 35  1  0
  1 36  1  0
  3 37  1  0
  4 38  1  0
  6 39  1  0
  9 40  1  0
  9 41  1  0
 14 42  1  0
 14 43  1  0
 18 44  1  0
 19 45  1  0
 19 46  1  0
 20 47  1  0
 20 48  1  0
 21 49  1  0
 22 50  1  0
 22 51  1  0
 23 52  1  0
 23 53  1  0
 28 54  1  0
 28 55  1  0
 28 56  1  0
 29 57  1  0
 29 58  1  0
 29 59  1  0
 30 60  1  0
 30 61  1  0
 31 62  1  0
 31 63  1  0
 33 64  1  0
M  END
>  <UniqueID>  (49) 
49

>  <SMILES>  (49) 
Cc1ccc2cc(C(N)=O)n(C(=O)CC(=O)N(C3CC3)C3CCN(C(=O)N(C)C)CC3)c2c1

>  <Energy>  (49) 
392.01948850935116

>  <Genealogy>  (49) 
Cc1ccc2cc(C(N)=O)n(C(=O)CC(=O)N(C3CC3)C3CCN(C(=O)N(C)C)CC3)c2c1 (3D coordinates assigned)
Cc1ccc2cc(C(N)=O)n(C(=O)CC(=O)N(C3CC3)C3CCN(C(=O)N(C)C)CC3)c2c1 (nonaromatic ring conformer: 392.01948850935116 kcal/mol)

>  <smiles>  (49) 
Cc1ccc2cc(C(N)=O)n(C(=O)CC(=O)N(C3CC3)C3CCN(C(=O)N(C)C)CC3)c2c1

>  <score_type>  (49) 
oracle

>  <origin>  (49) 
adg

>  <m_score__min__energy>  (49) 
-11.050000000000001

>  <m_primary>  (49) 
energy

$$$$
49:0
     RDKit          3D

 42 43  0  0  0  0  0  0  0  0999 V2000
   -1.9920   20.3260  -34.2250 C   0  0  0  0  0  0  0  0  0  0  0  0
   -2.7850   19.5350  -33.2930 N   0  0  0  0  0  0  0  0  0  0  0  0
   -3.6090   18.4500  -33.7350 C   0  0  0  0  0  0  0  0  0  0  0  0
   -3.6490   18.1380  -34.9560 O   0  0  0  0  0  0  0  0  0  0  0  0
   -4.4730   17.7100  -32.7590 C   0  0  0  0  0  0  0  0  0  0  0  0
   -5.8640   18.1760  -32.8540 N   0  0  0  0  0  0  0  0  0  0  0  0
   -6.8570   17.3120  -33.4970 C   0  0  0  0  0  0  0  0  0  0  0  0
   -6.2000   19.5380  -32.5130 C   0  0  0  0  0  0  0  0  0  0  0  0
   -7.5240   20.0150  -32.6900 C   0  0  0  0  0  0  0  0  0  0  0  0
   -7.8680   21.3290  -32.3300 C   0  0  0  0  0  0  0  0  0  0  0  0
   -6.8710   22.1450  -31.8080 C   0  0  0  0  0  0  0  0  0  0  0  0
   -6.9340   23.4440  -31.3600 C   0  0  0  0  0  0  0  0  0  0  0  0
   -5.6420   23.7560  -30.9440 C   0  0  0  0  0  0  0  0  0  0  0  0
   -5.2420   25.0970  -30.4710 C   0  0  0  0  0  0  0  0  0  0  0  0
   -4.0040   25.6780  -30.8710 N   0  0  0  0  0  0  0  0  0  0  0  0
   -6.0270   25.7610  -29.7420 O   0  0  0  0  0  0  0  0  0  0  0  0
   -4.8130   22.6870  -31.1190 N   0  0  0  0  0  0  0  0  0  0  0  0
   -3.4290   22.5690  -30.7540 C   0  0  0  0  0  0  0  0  0  0  0  0
   -2.6780   21.7670  -31.3740 O   0  0  0  0  0  0  0  0  0  0  0  0
   -2.9130   23.3680  -29.7300 O   0  0  0  0  0  0  0  0  0  0  0  0
   -1.6220   23.1650  -29.1680 C   0  0  0  0  0  0  0  0  0  0  0  0
   -0.9360   24.4830  -29.0320 C   0  0  0  0  0  0  0  0  0  0  0  0
    0.2750   24.5310  -28.6900 O   0  0  0  0  0  0  0  0  0  0  0  0
   -1.6140   25.6550  -29.3380 O   0  0  0  0  0  0  0  0  0  0  0  0
   -5.5810   21.7110  -31.6520 C   0  0  0  0  0  0  0  0  0  0  0  0
   -5.2150   20.4010  -31.9800 C   0  0  0  0  0  0  0  0  0  0  0  0
   -1.3228   20.9935  -33.6623 H   0  0  0  0  0  0  0  0  0  0  0  0
   -1.3930   19.6549  -34.8581 H   0  0  0  0  0  0  0  0  0  0  0  0
   -2.6616   20.9267  -34.8581 H   0  0  0  0  0  0  0  0  0  0  0  0
   -2.7570   19.7800  -32.2770 H   0  0  0  0  0  0  0  0  0  0  0  0
   -4.4346   16.6339  -32.9836 H   0  0  0  0  0  0  0  0  0  0  0  0
   -4.1021   17.8956  -31.7402 H   0  0  0  0  0  0  0  0  0  0  0  0
   -7.4490   16.7969  -32.7261 H   0  0  0  0  0  0  0  0  0  0  0  0
   -7.5234   17.9227  -34.1239 H   0  0  0  0  0  0  0  0  0  0  0  0
   -6.3443   16.5676  -34.1239 H   0  0  0  0  0  0  0  0  0  0  0  0
   -8.2900   19.3489  -33.1138 H   0  0  0  0  0  0  0  0  0  0  0  0
   -8.8954   21.7008  -32.4574 H   0  0  0  0  0  0  0  0  0  0  0  0
   -7.8180   24.0981  -31.3355 H   0  0  0  0  0  0  0  0  0  0  0  0
   -3.0950   25.2960  -30.5260 H   0  0  0  0  0  0  0  0  0  0  0  0
   -1.7209   22.6973  -28.1773 H   0  0  0  0  0  0  0  0  0  0  0  0
   -1.0324   22.5061  -29.8224 H   0  0  0  0  0  0  0  0  0  0  0  0
   -4.1838   20.0503  -31.8266 H   0  0  0  0  0  0  0  0  0  0  0  0
  1  2  1  0
  2  3  1  0
  3  4  2  0
  3  5  1  0
  5  6  1  0
  6  7  1  0
  6  8  1  0
  8  9  2  0
  9 10  1  0
 10 11  2  0
 11 12  1  0
 12 13  2  0
 13 14  1  0
 14 15  1  0
 14 16  2  0
 13 17  1  0
 17 18  1  0
 18 19  2  0
 18 20  1  0
 20 21  1  0
 21 22  1  0
 22 23  2  0
 22 24  1  0
 17 25  1  0
 25 26  2  0
 26  8  1  0
 25 11  1  0
  1 27  1  0
  1 28  1  0
  1 29  1  0
  2 30  1  0
  5 31  1  0
  5 32  1  0
  7 33  1  0
  7 34  1  0
  7 35  1  0
  9 36  1  0
 10 37  1  0
 12 38  1  0
 15 39  1  0
 21 40  1  0
 21 41  1  0
 26 42  1  0
M  CHG  2  15  -1  24  -1
M  END
>  <UniqueID>  (50) 
50

>  <SMILES>  (50) 
CNC(=O)CN(C)c1ccc2cc(C([NH-])=O)n(C(=O)OCC(=O)[O-])c2c1

>  <Energy>  (50) 
75.47680534939876

>  <Genealogy>  (50) 
CNC(=O)CN(C)c1ccc2cc(C([NH-])=O)n(C(=O)OCC(=O)[O-])c2c1 (protonated)
CNC(=O)CN(C)c1ccc2cc(C([NH-])=O)n(C(=O)OCC(=O)[O-])c2c1 (3D coordinates assigned)
CNC(=O)CN(C)c1ccc2cc(C([NH-])=O)n(C(=O)OCC(=O)[O-])c2c1 (optimized conformer: 75.47680534939876 kcal/mol)

>  <smiles>  (50) 
CNC(=O)CN(C)c1ccc2cc(C(N)=O)n(C(=O)OCC(=O)O)c2c1

>  <score_type>  (50) 
oracle

>  <origin>  (50) 
adg

>  <m_score__min__energy>  (50) 
-12.220000000000001

>  <m_primary>  (50) 
energy

$$$$
50:0
     RDKit          3D

 44 45  0  0  0  0  0  0  0  0999 V2000
   -0.0140   22.6690  -27.1930 C   0  0  0  0  0  0  0  0  0  0  0  0
   -0.2380   24.0880  -27.7060 C   0  0  0  0  0  0  0  0  0  0  0  0
   -1.9680   24.3770  -28.2220 P   0  0  0  0  0  0  0  0  0  0  0  0
   -1.9920   25.6320  -29.0630 O   0  0  0  0  0  0  0  0  0  0  0  0
   -3.0500   24.6640  -26.7790 C   0  0  0  0  0  0  0  0  0  0  0  0
   -2.4030   25.5820  -25.7500 C   0  0  0  0  0  0  0  0  0  0  0  0
   -2.6140   22.9930  -29.2210 C   0  0  0  0  0  0  0  0  0  0  0  0
   -2.9870   23.4520  -30.5170 O   0  0  0  0  0  0  0  0  0  0  0  0
   -3.7240   22.6870  -31.4270 C   0  0  0  0  0  0  0  0  0  0  0  0
   -3.1340   21.9750  -32.2850 O   0  0  0  0  0  0  0  0  0  0  0  0
   -5.1590   22.7220  -31.3880 N   0  0  0  0  0  0  0  0  0  0  0  0
   -5.9510   23.7610  -30.9990 C   0  0  0  0  0  0  0  0  0  0  0  0
   -5.4750   25.0140  -30.3730 C   0  0  0  0  0  0  0  0  0  0  0  0
   -4.1740   25.5270  -30.6650 N   0  0  0  0  0  0  0  0  0  0  0  0
   -6.2280   25.6580  -29.5960 O   0  0  0  0  0  0  0  0  0  0  0  0
   -7.2960   23.4460  -31.1870 C   0  0  0  0  0  0  0  0  0  0  0  0
   -7.3020   22.1740  -31.7130 C   0  0  0  0  0  0  0  0  0  0  0  0
   -8.3710   21.3690  -32.0950 C   0  0  0  0  0  0  0  0  0  0  0  0
   -8.0840   20.1030  -32.6310 C   0  0  0  0  0  0  0  0  0  0  0  0
   -6.7430   19.6730  -32.8000 C   0  0  0  0  0  0  0  0  0  0  0  0
   -6.4480   18.2980  -33.3440 C   0  0  0  0  0  0  0  0  0  0  0  0
   -7.5700   17.5030  -33.2020 F   0  0  0  0  0  0  0  0  0  0  0  0
   -5.3930   17.7180  -32.6610 F   0  0  0  0  0  0  0  0  0  0  0  0
   -6.1100   18.3650  -34.6850 F   0  0  0  0  0  0  0  0  0  0  0  0
   -5.6840   20.5100  -32.3750 C   0  0  0  0  0  0  0  0  0  0  0  0
   -6.0010   21.7590  -31.8260 C   0  0  0  0  0  0  0  0  0  0  0  0
   -0.0145   22.6724  -26.0930 H   0  0  0  0  0  0  0  0  0  0  0  0
   -0.8201   22.0156  -27.5580 H   0  0  0  0  0  0  0  0  0  0  0  0
    0.9542   22.2957  -27.5580 H   0  0  0  0  0  0  0  0  0  0  0  0
    0.0149   24.7976  -26.9044 H   0  0  0  0  0  0  0  0  0  0  0  0
    0.4036   24.2312  -28.5879 H   0  0  0  0  0  0  0  0  0  0  0  0
   -3.9875   25.1240  -27.1248 H   0  0  0  0  0  0  0  0  0  0  0  0
   -3.2355   23.6929  -26.2968 H   0  0  0  0  0  0  0  0  0  0  0  0
   -2.6509   25.2303  -24.7376 H   0  0  0  0  0  0  0  0  0  0  0  0
   -1.3113   25.5719  -25.8846 H   0  0  0  0  0  0  0  0  0  0  0  0
   -2.7796   26.6067  -25.8846 H   0  0  0  0  0  0  0  0  0  0  0  0
   -1.8358   22.2217  -29.3190 H   0  0  0  0  0  0  0  0  0  0  0  0
   -3.4993   22.5729  -28.7211 H   0  0  0  0  0  0  0  0  0  0  0  0
   -3.8630   26.4310  -30.2460 H   0  0  0  0  0  0  0  0  0  0  0  0
   -3.5010   24.9940  -31.2590 H   0  0  0  0  0  0  0  0  0  0  0  0
   -8.1671   24.0792  -30.9627 H   0  0  0  0  0  0  0  0  0  0  0  0
   -9.4093   21.7138  -31.9806 H   0  0  0  0  0  0  0  0  0  0  0  0
   -8.9091   19.4369  -32.9233 H   0  0  0  0  0  0  0  0  0  0  0  0
   -4.6370   20.1874  -32.4734 H   0  0  0  0  0  0  0  0  0  0  0  0
  1  2  1  0
  2  3  1  0
  3  4  2  0
  3  5  1  0
  5  6  1  0
  3  7  1  0
  7  8  1  0
  8  9  1  0
  9 10  2  0
  9 11  1  0
 11 12  1  0
 12 13  1  0
 13 14  1  0
 13 15  2  0
 12 16  2  0
 16 17  1  0
 17 18  2  0
 18 19  1  0
 19 20  2  0
 20 21  1  0
 21 22  1  0
 21 23  1  0
 21 24  1  0
 20 25  1  0
 25 26  2  0
 26 11  1  0
 26 17  1  0
  1 27  1  0
  1 28  1  0
  1 29  1  0
  2 30  1  0
  2 31  1  0
  5 32  1  0
  5 33  1  0
  6 34  1  0
  6 35  1  0
  6 36  1  0
  7 37  1  0
  7 38  1  0
 14 39  1  0
 14 40  1  0
 16 41  1  0
 18 42  1  0
 19 43  1  0
 25 44  1  0
M  END
>  <UniqueID>  (51) 
51

>  <SMILES>  (51) 
CCP(=O)(CC)COC(=O)n1c(C(N)=O)cc2ccc(C(F)(F)F)cc21

>  <Energy>  (51) 
67.05915513735427

>  <Genealogy>  (51) 
CCP(=O)(CC)COC(=O)n1c(C(N)=O)cc2ccc(C(F)(F)F)cc21 (3D coordinates assigned)
CCP(=O)(CC)COC(=O)n1c(C(N)=O)cc2ccc(C(F)(F)F)cc21 (optimized conformer: 67.05915513735427 kcal/mol)

>  <smiles>  (51) 
CCP(=O)(CC)COC(=O)n1c(C(N)=O)cc2ccc(C(F)(F)F)cc21

>  <score_type>  (51) 
oracle

>  <origin>  (51) 
adg

>  <m_score__min__energy>  (51) 
-9.1999999999999993

>  <m_primary>  (51) 
energy

$$$$
51:0
     RDKit          3D

 38 39  0  0  0  0  0  0  0  0999 V2000
   -7.8800   18.3270  -32.0590 C   0  0  0  0  0  0  0  0  0  0  0  0
   -7.8020   19.8160  -31.9070 C   0  0  0  0  0  0  0  0  0  0  0  0
   -8.9460   20.6130  -32.1640 C   0  0  0  0  0  0  0  0  0  0  0  0
   -8.8990   22.0070  -31.9890 C   0  0  0  0  0  0  0  0  0  0  0  0
   -7.7050   22.5700  -31.5410 C   0  0  0  0  0  0  0  0  0  0  0  0
   -7.3850   23.8820  -31.2640 C   0  0  0  0  0  0  0  0  0  0  0  0
   -6.0580   23.8580  -30.8300 C   0  0  0  0  0  0  0  0  0  0  0  0
   -5.2900   25.0630  -30.4360 C   0  0  0  0  0  0  0  0  0  0  0  0
   -3.9050   25.1870  -30.7460 N   0  0  0  0  0  0  0  0  0  0  0  0
   -5.8650   26.0000  -29.8160 O   0  0  0  0  0  0  0  0  0  0  0  0
   -5.5810   22.5830  -30.8430 N   0  0  0  0  0  0  0  0  0  0  0  0
   -4.2670   22.1320  -30.4950 C   0  0  0  0  0  0  0  0  0  0  0  0
   -4.0680   21.6220  -29.3530 O   0  0  0  0  0  0  0  0  0  0  0  0
   -3.1340   22.3590  -31.4600 C   0  0  0  0  0  0  0  0  0  0  0  0
   -1.8280   22.8300  -30.7940 C   0  0  0  0  0  0  0  0  0  0  0  0
   -1.1680   21.7500  -29.9750 C   0  0  0  0  0  0  0  0  0  0  0  0
   -0.5960   20.8290  -30.5340 O   0  0  0  0  0  0  0  0  0  0  0  0
   -1.0540   21.9080  -28.1840 S   0  0  0  0  0  0  0  0  0  0  0  0
   -1.9150   23.5150  -28.0740 C   0  0  0  0  0  0  0  0  0  0  0  0
   -1.0230   24.6150  -28.5660 C   0  0  0  0  0  0  0  0  0  0  0  0
    0.2180   24.5900  -28.3170 O   0  0  0  0  0  0  0  0  0  0  0  0
   -1.5530   25.6610  -29.3240 O   0  0  0  0  0  0  0  0  0  0  0  0
   -6.5960   21.8080  -31.2800 C   0  0  0  0  0  0  0  0  0  0  0  0
   -6.6080   20.4200  -31.4520 C   0  0  0  0  0  0  0  0  0  0  0  0
   -7.9046   17.8577  -31.0644 H   0  0  0  0  0  0  0  0  0  0  0  0
   -8.7932   18.0622  -32.6121 H   0  0  0  0  0  0  0  0  0  0  0  0
   -6.9994   17.9683  -32.6121 H   0  0  0  0  0  0  0  0  0  0  0  0
   -9.8778   20.1368  -32.5030 H   0  0  0  0  0  0  0  0  0  0  0  0
   -9.7777   22.6345  -32.1992 H   0  0  0  0  0  0  0  0  0  0  0  0
   -8.0373   24.7621  -31.3638 H   0  0  0  0  0  0  0  0  0  0  0  0
   -3.5360   26.0240  -31.2540 H   0  0  0  0  0  0  0  0  0  0  0  0
   -2.9328   21.4138  -31.9855 H   0  0  0  0  0  0  0  0  0  0  0  0
   -3.4519   23.1629  -32.1402 H   0  0  0  0  0  0  0  0  0  0  0  0
   -1.1289   23.1520  -31.5798 H   0  0  0  0  0  0  0  0  0  0  0  0
   -2.0825   23.6545  -30.1118 H   0  0  0  0  0  0  0  0  0  0  0  0
   -2.8255   23.4824  -28.6904 H   0  0  0  0  0  0  0  0  0  0  0  0
   -2.1791   23.7096  -27.0241 H   0  0  0  0  0  0  0  0  0  0  0  0
   -5.7138   19.8158  -31.2392 H   0  0  0  0  0  0  0  0  0  0  0  0
  1  2  1  0
  2  3  2  0
  3  4  1  0
  4  5  2  0
  5  6  1  0
  6  7  2  0
  7  8  1  0
  8  9  1  0
  8 10  2  0
  7 11  1  0
 11 12  1  0
 12 13  2  0
 12 14  1  0
 14 15  1  0
 15 16  1  0
 16 17  2  0
 16 18  1  0
 18 19  1  0
 19 20  1  0
 20 21  2  0
 20 22  1  0
 11 23  1  0
 23 24  2  0
 24  2  1  0
 23  5  1  0
  1 25  1  0
  1 26  1  0
  1 27  1  0
  3 28  1  0
  4 29  1  0
  6 30  1  0
  9 31  1  0
 14 32  1  0
 14 33  1  0
 15 34  1  0
 15 35  1  0
 19 36  1  0
 19 37  1  0
 24 38  1  0
M  CHG  2   9  -1  22  -1
M  END
>  <UniqueID>  (52) 
52

>  <SMILES>  (52) 
Cc1ccc2cc(C([NH-])=O)n(C(=O)CCC(=O)SCC(=O)[O-])c2c1

>  <Energy>  (52) 
71.45896845502523

>  <Genealogy>  (52) 
Cc1ccc2cc(C([NH-])=O)n(C(=O)CCC(=O)SCC(=O)[O-])c2c1 (protonated)
Cc1ccc2cc(C([NH-])=O)n(C(=O)CCC(=O)SCC(=O)[O-])c2c1 (3D coordinates assigned)
Cc1ccc2cc(C([NH-])=O)n(C(=O)CCC(=O)SCC(=O)[O-])c2c1 (optimized conformer: 71.45896845502523 kcal/mol)

>  <smiles>  (52) 
Cc1ccc2cc(C(N)=O)n(C(=O)CCC(=O)SCC(=O)O)c2c1

>  <score_type>  (52) 
oracle

>  <origin>  (52) 
adg

>  <m_score__min__energy>  (52) 
-12.91

>  <m_primary>  (52) 
energy

$$$$
52:0
     RDKit          3D

 37 38  0  0  0  0  0  0  0  0999 V2000
   -4.3420   25.6440  -30.6120 N   0  0  0  0  0  0  0  0  0  0  0  0
   -5.5540   25.0470  -30.1590 C   0  0  0  0  0  0  0  0  0  0  0  0
   -6.2390   25.6310  -29.2790 O   0  0  0  0  0  0  0  0  0  0  0  0
   -6.0110   23.7710  -30.7460 C   0  0  0  0  0  0  0  0  0  0  0  0
   -7.2470   23.6060  -31.3700 C   0  0  0  0  0  0  0  0  0  0  0  0
   -7.3130   22.2700  -31.6980 C   0  0  0  0  0  0  0  0  0  0  0  0
   -8.3140   21.5530  -32.3480 C   0  0  0  0  0  0  0  0  0  0  0  0
   -8.1020   20.1830  -32.5750 C   0  0  0  0  0  0  0  0  0  0  0  0
   -6.9040   19.5580  -32.1470 C   0  0  0  0  0  0  0  0  0  0  0  0
   -6.6680   18.0990  -32.4360 C   0  0  0  0  0  0  0  0  0  0  0  0
   -5.2190   17.8700  -32.8860 C   0  0  0  0  0  0  0  0  0  0  0  0
   -4.9150   18.5650  -34.2150 C   0  0  0  0  0  0  0  0  0  0  0  0
   -4.2590   19.7580  -33.9680 F   0  0  0  0  0  0  0  0  0  0  0  0
   -4.1050   17.7650  -35.0000 F   0  0  0  0  0  0  0  0  0  0  0  0
   -6.0890   18.8360  -34.8950 F   0  0  0  0  0  0  0  0  0  0  0  0
   -5.9060   20.3200  -31.5010 C   0  0  0  0  0  0  0  0  0  0  0  0
   -6.1500   21.6780  -31.2800 C   0  0  0  0  0  0  0  0  0  0  0  0
   -5.3390   22.5870  -30.6990 N   0  0  0  0  0  0  0  0  0  0  0  0
   -4.0160   22.3340  -30.2020 C   0  0  0  0  0  0  0  0  0  0  0  0
   -3.7550   21.2140  -29.6850 O   0  0  0  0  0  0  0  0  0  0  0  0
   -2.9120   23.3200  -30.4650 C   0  0  0  0  0  0  0  0  0  0  0  0
   -2.3830   24.1790  -28.9460 P   0  0  1  0  0  0  0  0  0  0  0  0
   -1.4550   23.2790  -28.1620 O   0  0  0  0  0  0  0  0  0  0  0  0
   -1.5680   25.6070  -29.3410 O   0  0  0  0  0  0  0  0  0  0  0  0
   -3.7340   24.5540  -27.9970 O   0  0  0  0  0  0  0  0  0  0  0  0
   -3.4960   25.6730  -30.0010 H   0  0  0  0  0  0  0  0  0  0  0  0
   -8.0071   24.3781  -31.5598 H   0  0  0  0  0  0  0  0  0  0  0  0
   -9.2426   22.0444  -32.6739 H   0  0  0  0  0  0  0  0  0  0  0  0
   -8.8725   19.5900  -33.0895 H   0  0  0  0  0  0  0  0  0  0  0  0
   -6.8615   17.5133  -31.5252 H   0  0  0  0  0  0  0  0  0  0  0  0
   -7.3461   17.7807  -33.2415 H   0  0  0  0  0  0  0  0  0  0  0  0
   -4.5410   18.2653  -32.1152 H   0  0  0  0  0  0  0  0  0  0  0  0
   -5.0738   16.7888  -33.0269 H   0  0  0  0  0  0  0  0  0  0  0  0
   -4.9613   19.8567  -31.1802 H   0  0  0  0  0  0  0  0  0  0  0  0
   -2.0499   22.7829  -30.8872 H   0  0  0  0  0  0  0  0  0  0  0  0
   -3.2936   24.0765  -31.1665 H   0  0  0  0  0  0  0  0  0  0  0  0
   -4.2170   25.2510  -28.5070 H   0  0  0  0  0  0  0  0  0  0  0  0
  1  2  1  0
  2  3  2  0
  2  4  1  0
  4  5  2  0
  5  6  1  0
  6  7  2  0
  7  8  1  0
  8  9  2  0
  9 10  1  0
 10 11  1  0
 11 12  1  0
 12 13  1  0
 12 14  1  0
 12 15  1  0
  9 16  1  0
 16 17  2  0
 17 18  1  0
 18 19  1  0
 19 20  2  0
 19 21  1  0
 21 22  1  0
 22 23  2  0
 22 24  1  6
 22 25  1  0
 18  4  1  0
 17  6  1  0
  1 26  1  0
  5 27  1  0
  7 28  1  0
  8 29  1  0
 10 30  1  0
 10 31  1  0
 11 32  1  0
 11 33  1  0
 16 34  1  0
 21 35  1  0
 21 36  1  0
 25 37  1  0
M  CHG  2   1  -1  24  -1
M  END
>  <UniqueID>  (53) 
53

>  <SMILES>  (53) 
[NH-]C(=O)c1cc2ccc(CCC(F)(F)F)cc2n1C(=O)C[P@@](=O)([O-])O

>  <Energy>  (53) 
67.41534790954006

>  <Genealogy>  (53) 
[NH-]C(=O)c1cc2ccc(CCC(F)(F)F)cc2n1C(=O)CP(=O)([O-])O (protonated)
[NH-]C(=O)c1cc2ccc(CCC(F)(F)F)cc2n1C(=O)C[P@@](=O)([O-])O (chirality)
[NH-]C(=O)c1cc2ccc(CCC(F)(F)F)cc2n1C(=O)C[P@@](=O)([O-])O (3D coordinates assigned)
[NH-]C(=O)c1cc2ccc(CCC(F)(F)F)cc2n1C(=O)C[P@@](=O)([O-])O (optimized conformer: 67.41534790954006 kcal/mol)

>  <smiles>  (53) 
NC(=O)c1cc2ccc(CCC(F)(F)F)cc2n1C(=O)CP(=O)(O)O

>  <score_type>  (53) 
oracle

>  <origin>  (53) 
adg

>  <m_score__min__energy>  (53) 
-11.949999999999999

>  <m_primary>  (53) 
energy

$$$$
53:0
     RDKit          3D

 48 49  0  0  0  0  0  0  0  0999 V2000
   -1.5110   26.3840  -26.1400 C   0  0  0  0  0  0  0  0  0  0  0  0
   -0.8190   26.2780  -27.5010 C   0  0  1  0  0  0  0  0  0  0  0  0
    0.4990   25.5730  -27.3620 C   0  0  0  0  0  0  0  0  0  0  0  0
    0.8230   24.7100  -28.1610 O   0  0  0  0  0  0  0  0  0  0  0  0
   -1.6410   25.5490  -28.4130 O   0  0  0  0  0  0  0  0  0  0  0  0
   -2.3570   24.4000  -28.0580 C   0  0  0  0  0  0  0  0  0  0  0  0
   -3.5790   24.4800  -27.7460 O   0  0  0  0  0  0  0  0  0  0  0  0
   -1.6440   23.0650  -28.0510 C   0  0  1  0  0  0  0  0  0  0  0  0
   -2.6000   21.8860  -27.7910 C   0  0  0  0  0  0  0  0  0  0  0  0
   -0.8450   22.8640  -29.2800 N   0  0  0  0  0  0  0  0  0  0  0  0
   -1.6540   22.5570  -30.4330 C   0  0  0  0  0  0  0  0  0  0  0  0
   -1.1100   22.0720  -31.4630 O   0  0  0  0  0  0  0  0  0  0  0  0
   -3.0700   22.8100  -30.4080 N   0  0  0  0  0  0  0  0  0  0  0  0
   -3.9720   22.4310  -31.4590 C   0  0  0  0  0  0  0  0  0  0  0  0
   -3.5590   21.7900  -32.4630 O   0  0  0  0  0  0  0  0  0  0  0  0
   -5.3610   22.7830  -31.3700 N   0  0  0  0  0  0  0  0  0  0  0  0
   -5.9000   23.9910  -31.0420 C   0  0  0  0  0  0  0  0  0  0  0  0
   -5.1510   25.2480  -30.8290 C   0  0  0  0  0  0  0  0  0  0  0  0
   -3.7720   25.2300  -30.4650 N   0  0  0  0  0  0  0  0  0  0  0  0
   -5.7270   26.3550  -31.0020 O   0  0  0  0  0  0  0  0  0  0  0  0
   -7.2920   23.9050  -30.9910 C   0  0  0  0  0  0  0  0  0  0  0  0
   -7.5890   22.5970  -31.3040 C   0  0  0  0  0  0  0  0  0  0  0  0
   -8.8190   21.9480  -31.3730 C   0  0  0  0  0  0  0  0  0  0  0  0
   -8.8220   20.5770  -31.6800 C   0  0  0  0  0  0  0  0  0  0  0  0
   -7.6070   19.8830  -31.9190 C   0  0  0  0  0  0  0  0  0  0  0  0
   -7.6210   18.3990  -32.1840 C   0  0  0  0  0  0  0  0  0  0  0  0
   -8.8990   17.9120  -31.9810 F   0  0  0  0  0  0  0  0  0  0  0  0
   -7.2380   18.1330  -33.4880 F   0  0  0  0  0  0  0  0  0  0  0  0
   -6.7480   17.7410  -31.3340 F   0  0  0  0  0  0  0  0  0  0  0  0
   -6.3780   20.5730  -31.8130 C   0  0  0  0  0  0  0  0  0  0  0  0
   -6.4060   21.9420  -31.5260 C   0  0  0  0  0  0  0  0  0  0  0  0
   -0.7652   26.2698  -25.3396 H   0  0  0  0  0  0  0  0  0  0  0  0
   -1.9966   27.3670  -26.0511 H   0  0  0  0  0  0  0  0  0  0  0  0
   -2.2686   25.5914  -26.0511 H   0  0  0  0  0  0  0  0  0  0  0  0
   -0.6517   27.2954  -27.8843 H   0  0  0  0  0  0  0  0  0  0  0  0
    1.1759   25.8358  -26.5357 H   0  0  0  0  0  0  0  0  0  0  0  0
   -0.9426   23.0896  -27.2040 H   0  0  0  0  0  0  0  0  0  0  0  0
   -2.7173   21.7413  -26.7069 H   0  0  0  0  0  0  0  0  0  0  0  0
   -3.5804   22.1030  -28.2402 H   0  0  0  0  0  0  0  0  0  0  0  0
   -2.1851   20.9716  -28.2402 H   0  0  0  0  0  0  0  0  0  0  0  0
   -0.2910   23.7310  -29.4800 H   0  0  0  0  0  0  0  0  0  0  0  0
   -0.1540   22.0950  -29.1250 H   0  0  0  0  0  0  0  0  0  0  0  0
   -3.4730   23.2660  -29.5600 H   0  0  0  0  0  0  0  0  0  0  0  0
   -3.4440   25.6690  -29.5770 H   0  0  0  0  0  0  0  0  0  0  0  0
   -8.0014   24.7109  -30.7516 H   0  0  0  0  0  0  0  0  0  0  0  0
   -9.7583   22.4914  -31.1929 H   0  0  0  0  0  0  0  0  0  0  0  0
   -9.7775   20.0348  -31.7358 H   0  0  0  0  0  0  0  0  0  0  0  0
   -5.4225   20.0463  -31.9528 H   0  0  0  0  0  0  0  0  0  0  0  0
  1  2  1  0
  2  3  1  0
  3  4  2  0
  2  5  1  0
  5  6  1  0
  6  7  2  0
  6  8  1  0
  8  9  1  0
  8 10  1  0
 10 11  1  0
 11 12  2  0
 11 13  1  0
 13 14  1  0
 14 15  2  0
 14 16  1  0
 16 17  1  0
 17 18  1  0
 18 19  1  0
 18 20  2  0
 17 21  2  0
 21 22  1  0
 22 23  2  0
 23 24  1  0
 24 25  2  0
 25 26  1  0
 26 27  1  0
 26 28  1  0
 26 29  1  0
 25 30  1  0
 30 31  2  0
 31 16  1  0
 31 22  1  0
  1 32  1  0
  1 33  1  0
  1 34  1  0
  2 35  1  6
  3 36  1  0
  8 37  1  1
  9 38  1  0
  9 39  1  0
  9 40  1  0
 10 41  1  0
 10 42  1  0
 13 43  1  0
 19 44  1  0
 21 45  1  0
 23 46  1  0
 24 47  1  0
 30 48  1  0
M  CHG  2  10   1  19  -1
M  END
>  <UniqueID>  (54) 
54

>  <SMILES>  (54) 
C[C@@H](C=O)OC(=O)[C@@H](C)[NH2+]C(=O)NC(=O)n1c(C([NH-])=O)cc2ccc(C(F)(F)F)cc21

>  <Energy>  (54) 
83.43989101548182

>  <Genealogy>  (54) 
CC(C=O)OC(=O)C(C)[NH2+]C(=O)NC(=O)n1c(C([NH-])=O)cc2ccc(C(F)(F)F)cc21 (protonated)
C[C@@H](C=O)OC(=O)[C@@H](C)[NH2+]C(=O)NC(=O)n1c(C([NH-])=O)cc2ccc(C(F)(F)F)cc21 (chirality)
C[C@@H](C=O)OC(=O)[C@@H](C)[NH2+]C(=O)NC(=O)n1c(C([NH-])=O)cc2ccc(C(F)(F)F)cc21 (3D coordinates assigned)
C[C@@H](C=O)OC(=O)[C@@H](C)[NH2+]C(=O)NC(=O)n1c(C([NH-])=O)cc2ccc(C(F)(F)F)cc21 (optimized conformer: 83.43989101548182 kcal/mol)

>  <smiles>  (54) 
CC(C=O)OC(=O)C(C)NC(=O)NC(=O)n1c(C(N)=O)cc2ccc(C(F)(F)F)cc21

>  <score_type>  (54) 
oracle

>  <origin>  (54) 
adg

>  <m_score__min__energy>  (54) 
-10.050000000000001

>  <m_primary>  (54) 
energy

$$$$
54:0
     RDKit          3D

 58 60  0  0  0  0  0  0  0  0999 V2000
   -9.4600   21.5610  -31.5760 C   0  0  0  0  0  0  0  0  0  0  0  0
   -9.2070   20.7440  -32.6970 O   0  0  0  0  0  0  0  0  0  0  0  0
   -9.1030   19.3860  -32.3130 C   0  0  0  0  0  0  0  0  0  0  0  0
   -7.6680   18.9110  -32.4900 C   0  0  0  0  0  0  0  0  0  0  0  0
   -7.0300   19.6800  -33.5040 O   0  0  0  0  0  0  0  0  0  0  0  0
   -5.6730   20.0170  -33.4590 C   0  0  0  0  0  0  0  0  0  0  0  0
   -4.8360   19.3690  -34.1460 O   0  0  0  0  0  0  0  0  0  0  0  0
   -5.2330   21.1010  -32.6260 N   0  0  0  0  0  0  0  0  0  0  0  0
   -6.2250   21.9920  -32.0090 C   0  0  0  0  0  0  0  0  0  0  0  0
   -5.6500   23.3990  -31.8230 C   0  0  0  0  0  0  0  0  0  0  0  0
   -4.3660   23.3590  -31.1140 N   0  0  0  0  0  0  0  0  0  0  0  0
   -3.9300   24.5260  -30.3920 C   0  0  0  0  0  0  0  0  0  0  0  0
   -4.2020   25.6720  -30.8430 O   0  0  0  0  0  0  0  0  0  0  0  0
   -3.2140   24.4160  -29.0720 C   0  0  0  0  0  0  0  0  0  0  0  0
   -1.9980   25.2240  -29.0230 N   0  0  0  0  0  0  0  0  0  0  0  0
   -0.7990   24.8600  -28.3270 C   0  0  0  0  0  0  0  0  0  0  0  0
    0.1680   24.3680  -28.9690 O   0  0  0  0  0  0  0  0  0  0  0  0
   -0.6850   25.0790  -26.9040 N   0  0  0  0  0  0  0  0  0  0  0  0
   -0.7750   24.1560  -25.9010 C   0  0  0  0  0  0  0  0  0  0  0  0
   -0.8370   22.6890  -26.0680 C   0  0  0  0  0  0  0  0  0  0  0  0
   -0.9790   22.1140  -27.3670 N   0  0  0  0  0  0  0  0  0  0  0  0
   -0.8170   21.9360  -25.0620 O   0  0  0  0  0  0  0  0  0  0  0  0
   -0.7220   24.7720  -24.6550 C   0  0  0  0  0  0  0  0  0  0  0  0
   -0.5900   26.1130  -24.9170 C   0  0  0  0  0  0  0  0  0  0  0  0
   -0.5170   27.1880  -24.0350 C   0  0  0  0  0  0  0  0  0  0  0  0
   -0.4320   28.4800  -24.5750 C   0  0  0  0  0  0  0  0  0  0  0  0
   -0.4190   28.6800  -25.9790 C   0  0  0  0  0  0  0  0  0  0  0  0
   -0.4090   30.0810  -26.5350 C   0  0  0  0  0  0  0  0  0  0  0  0
   -0.5210   30.0230  -27.9120 F   0  0  0  0  0  0  0  0  0  0  0  0
   -1.4720   30.8080  -26.0250 F   0  0  0  0  0  0  0  0  0  0  0  0
    0.7650   30.7390  -26.2050 F   0  0  0  0  0  0  0  0  0  0  0  0
   -0.5180   27.5640  -26.8430 C   0  0  0  0  0  0  0  0  0  0  0  0
   -0.5740   26.2780  -26.2780 C   0  0  0  0  0  0  0  0  0  0  0  0
   -3.5330   22.1510  -31.1440 C   0  0  0  0  0  0  0  0  0  0  0  0
   -3.7960   21.3120  -32.4000 C   0  0  0  0  0  0  0  0  0  0  0  0
   -9.2819   20.9858  -30.6554 H   0  0  0  0  0  0  0  0  0  0  0  0
   -8.7898   22.4329  -31.5990 H   0  0  0  0  0  0  0  0  0  0  0  0
  -10.5057   21.9016  -31.5990 H   0  0  0  0  0  0  0  0  0  0  0  0
   -9.3953   19.2811  -31.2578 H   0  0  0  0  0  0  0  0  0  0  0  0
   -9.7683   18.7774  -32.9431 H   0  0  0  0  0  0  0  0  0  0  0  0
   -7.1232   19.0319  -31.5421 H   0  0  0  0  0  0  0  0  0  0  0  0
   -7.6686   17.8507  -32.7829 H   0  0  0  0  0  0  0  0  0  0  0  0
   -7.1123   22.0476  -32.6568 H   0  0  0  0  0  0  0  0  0  0  0  0
   -6.4964   21.5885  -31.0223 H   0  0  0  0  0  0  0  0  0  0  0  0
   -5.4999   23.8586  -32.8111 H   0  0  0  0  0  0  0  0  0  0  0  0
   -6.3598   23.9886  -31.2242 H   0  0  0  0  0  0  0  0  0  0  0  0
   -3.8926   24.7521  -28.2741 H   0  0  0  0  0  0  0  0  0  0  0  0
   -2.9205   23.3643  -28.9390 H   0  0  0  0  0  0  0  0  0  0  0  0
   -1.0070   22.7110  -28.2210 H   0  0  0  0  0  0  0  0  0  0  0  0
   -1.0580   21.0790  -27.4770 H   0  0  0  0  0  0  0  0  0  0  0  0
   -0.7747   24.2874  -23.6689 H   0  0  0  0  0  0  0  0  0  0  0  0
   -0.5257   27.0288  -22.9466 H   0  0  0  0  0  0  0  0  0  0  0  0
   -0.3748   29.3480  -23.9017 H   0  0  0  0  0  0  0  0  0  0  0  0
   -0.5505   27.6998  -27.9341 H   0  0  0  0  0  0  0  0  0  0  0  0
   -2.4739   22.4478  -31.1289 H   0  0  0  0  0  0  0  0  0  0  0  0
   -3.7836   21.5397  -30.2645 H   0  0  0  0  0  0  0  0  0  0  0  0
   -3.3715   21.8327  -33.2710 H   0  0  0  0  0  0  0  0  0  0  0  0
   -3.3247   20.3283  -32.2582 H   0  0  0  0  0  0  0  0  0  0  0  0
  1  2  1  0
  2  3  1  0
  3  4  1  0
  4  5  1  0
  5  6  1  0
  6  7  2  0
  6  8  1  0
  8  9  1  0
  9 10  1  0
 10 11  1  0
 11 12  1  0
 12 13  2  0
 12 14  1  0
 14 15  1  0
 15 16  1  0
 16 17  2  0
 16 18  1  0
 18 19  1  0
 19 20  1  0
 20 21  1  0
 20 22  2  0
 19 23  2  0
 23 24  1  0
 24 25  2  0
 25 26  1  0
 26 27  2  0
 27 28  1  0
 28 29  1  0
 28 30  1  0
 28 31  1  0
 27 32  1  0
 32 33  2  0
 11 34  1  0
 34 35  1  0
 35  8  1  0
 33 18  1  0
 33 24  1  0
  1 36  1  0
  1 37  1  0
  1 38  1  0
  3 39  1  0
  3 40  1  0
  4 41  1  0
  4 42  1  0
  9 43  1  0
  9 44  1  0
 10 45  1  0
 10 46  1  0
 14 47  1  0
 14 48  1  0
 21 49  1  0
 21 50  1  0
 23 51  1  0
 25 52  1  0
 26 53  1  0
 32 54  1  0
 34 55  1  0
 34 56  1  0
 35 57  1  0
 35 58  1  0
M  CHG  1  15  -1
M  END
>  <UniqueID>  (55) 
55

>  <SMILES>  (55) 
COCCOC(=O)N1CCN(C(=O)C[N-]C(=O)n2c(C(N)=O)cc3ccc(C(F)(F)F)cc32)CC1

>  <Energy>  (55) 
97.21708847233205

>  <Genealogy>  (55) 
COCCOC(=O)N1CCN(C(=O)C[N-]C(=O)n2c(C(N)=O)cc3ccc(C(F)(F)F)cc32)CC1 (protonated)
COCCOC(=O)N1CCN(C(=O)C[N-]C(=O)n2c(C(N)=O)cc3ccc(C(F)(F)F)cc32)CC1 (3D coordinates assigned)
COCCOC(=O)N1CCN(C(=O)C[N-]C(=O)n2c(C(N)=O)cc3ccc(C(F)(F)F)cc32)CC1 (nonaromatic ring conformer: 97.21708847233205 kcal/mol)

>  <smiles>  (55) 
COCCOC(=O)N1CCN(C(=O)CNC(=O)n2c(C(N)=O)cc3ccc(C(F)(F)F)cc32)CC1

>  <score_type>  (55) 
oracle

>  <origin>  (55) 
adg

>  <m_score__min__energy>  (55) 
-9.4499999999999993

>  <m_primary>  (55) 
energy

$$$$
55:0
     RDKit          3D

 33 34  0  0  0  0  0  0  0  0999 V2000
   -4.0450   25.6320  -30.8440 N   0  0  0  0  0  0  0  0  0  0  0  0
   -5.2920   25.0850  -30.4280 C   0  0  0  0  0  0  0  0  0  0  0  0
   -5.9420   25.6570  -29.5120 O   0  0  0  0  0  0  0  0  0  0  0  0
   -5.7990   23.8260  -31.0060 C   0  0  0  0  0  0  0  0  0  0  0  0
   -7.1550   23.5380  -31.1330 C   0  0  0  0  0  0  0  0  0  0  0  0
   -7.2110   22.2540  -31.6250 C   0  0  0  0  0  0  0  0  0  0  0  0
   -8.3120   21.4710  -31.9540 C   0  0  0  0  0  0  0  0  0  0  0  0
   -8.0760   20.1890  -32.4790 C   0  0  0  0  0  0  0  0  0  0  0  0
   -6.7520   19.7200  -32.6700 C   0  0  0  0  0  0  0  0  0  0  0  0
   -6.5040   18.3560  -33.2480 C   0  0  0  0  0  0  0  0  0  0  0  0
   -6.1990   18.4660  -34.5920 F   0  0  0  0  0  0  0  0  0  0  0  0
   -7.6360   17.5750  -33.0980 F   0  0  0  0  0  0  0  0  0  0  0  0
   -5.6580   20.5460  -32.3260 C   0  0  0  0  0  0  0  0  0  0  0  0
   -5.9230   21.8110  -31.7870 C   0  0  0  0  0  0  0  0  0  0  0  0
   -5.0410   22.7660  -31.4120 N   0  0  0  0  0  0  0  0  0  0  0  0
   -3.6100   22.6990  -31.5430 C   0  0  0  0  0  0  0  0  0  0  0  0
   -3.0980   22.2250  -32.5920 O   0  0  0  0  0  0  0  0  0  0  0  0
   -2.7690   23.2260  -30.5100 N   0  0  0  0  0  0  0  0  0  0  0  0
   -2.6380   22.6260  -29.1850 C   0  0  0  0  0  0  0  0  0  0  0  0
   -2.1660   23.6470  -28.1420 C   0  0  0  0  0  0  0  0  0  0  0  0
   -1.1940   24.6340  -28.7120 C   0  0  0  0  0  0  0  0  0  0  0  0
   -1.6040   25.6680  -29.3000 O   0  0  0  0  0  0  0  0  0  0  0  0
    0.1710   24.3860  -28.6320 O   0  0  0  0  0  0  0  0  0  0  0  0
   -3.1460   25.2750  -30.4530 H   0  0  0  0  0  0  0  0  0  0  0  0
   -8.0020   24.1969  -30.8914 H   0  0  0  0  0  0  0  0  0  0  0  0
   -9.3365   21.8437  -31.8078 H   0  0  0  0  0  0  0  0  0  0  0  0
   -8.9264   19.5436  -32.7441 H   0  0  0  0  0  0  0  0  0  0  0  0
   -5.6608   17.8883  -32.7186 H   0  0  0  0  0  0  0  0  0  0  0  0
   -4.6237   20.2036  -32.4779 H   0  0  0  0  0  0  0  0  0  0  0  0
   -3.6157   22.2275  -28.8763 H   0  0  0  0  0  0  0  0  0  0  0  0
   -1.8860   21.8254  -29.2448 H   0  0  0  0  0  0  0  0  0  0  0  0
   -3.0413   24.1928  -27.7599 H   0  0  0  0  0  0  0  0  0  0  0  0
   -1.6543   23.0959  -27.3392 H   0  0  0  0  0  0  0  0  0  0  0  0
  1  2  1  0
  2  3  2  0
  2  4  1  0
  4  5  2  0
  5  6  1  0
  6  7  2  0
  7  8  1  0
  8  9  2  0
  9 10  1  0
 10 11  1  0
 10 12  1  0
  9 13  1  0
 13 14  2  0
 14 15  1  0
 15 16  1  0
 16 17  2  0
 16 18  1  0
 18 19  1  0
 19 20  1  0
 20 21  1  0
 21 22  2  0
 21 23  1  0
 15  4  1  0
 14  6  1  0
  1 24  1  0
  5 25  1  0
  7 26  1  0
  8 27  1  0
 10 28  1  0
 13 29  1  0
 19 30  1  0
 19 31  1  0
 20 32  1  0
 20 33  1  0
M  CHG  3   1  -1  18  -1  23  -1
M  END
>  <UniqueID>  (56) 
56

>  <SMILES>  (56) 
[NH-]C(=O)c1cc2ccc(C(F)F)cc2n1C(=O)[N-]CCC(=O)[O-]

>  <Energy>  (56) 
68.44868091866299

>  <Genealogy>  (56) 
[NH-]C(=O)c1cc2ccc(C(F)F)cc2n1C(=O)[N-]CCC(=O)[O-] (protonated)
[NH-]C(=O)c1cc2ccc(C(F)F)cc2n1C(=O)[N-]CCC(=O)[O-] (3D coordinates assigned)
[NH-]C(=O)c1cc2ccc(C(F)F)cc2n1C(=O)[N-]CCC(=O)[O-] (optimized conformer: 68.44868091866299 kcal/mol)

>  <smiles>  (56) 
NC(=O)c1cc2ccc(C(F)F)cc2n1C(=O)NCCC(=O)O

>  <score_type>  (56) 
oracle

>  <origin>  (56) 
adg

>  <m_score__min__energy>  (56) 
-12.56

>  <m_primary>  (56) 
energy

$$$$
56:0
     RDKit          3D

 55 56  0  0  0  0  0  0  0  0999 V2000
    0.3830   21.6590  -27.3840 C   0  0  0  0  0  0  0  0  0  0  0  0
   -1.1330   21.7220  -27.1480 C   0  0  1  0  0  0  0  0  0  0  0  0
   -1.6080   20.6270  -26.1680 C   0  0  0  0  0  0  0  0  0  0  0  0
   -2.2260   19.5000  -26.9040 N   0  0  0  0  0  0  0  0  0  0  0  0
   -1.1950   18.5800  -27.4110 C   0  0  0  0  0  0  0  0  0  0  0  0
   -3.1670   18.7570  -26.0450 C   0  0  0  0  0  0  0  0  0  0  0  0
   -1.5290   23.0670  -26.6760 N   0  0  0  0  0  0  0  0  0  0  0  0
   -0.8540   23.6930  -25.5320 C   0  0  0  0  0  0  0  0  0  0  0  0
   -2.4570   23.8450  -27.4640 C   0  0  0  0  0  0  0  0  0  0  0  0
   -3.4980   24.3070  -26.9230 O   0  0  0  0  0  0  0  0  0  0  0  0
   -2.2250   24.1280  -28.8940 C   0  0  0  0  0  0  0  0  0  0  0  0
   -2.3660   25.2940  -29.3500 O   0  0  0  0  0  0  0  0  0  0  0  0
   -1.8660   23.0570  -29.7720 N   0  0  0  0  0  0  0  0  0  0  0  0
   -2.6050   22.7510  -30.9880 C   0  0  0  0  0  0  0  0  0  0  0  0
   -3.7350   21.8260  -30.6590 C   0  0  0  0  0  0  0  0  0  0  0  0
   -3.4970   20.7620  -30.0290 O   0  0  0  0  0  0  0  0  0  0  0  0
   -5.0910   22.1710  -30.9870 N   0  0  0  0  0  0  0  0  0  0  0  0
   -5.7550   23.3270  -30.7070 C   0  0  0  0  0  0  0  0  0  0  0  0
   -5.1600   24.5540  -30.1380 C   0  0  0  0  0  0  0  0  0  0  0  0
   -5.1160   24.7730  -28.7270 N   0  0  0  0  0  0  0  0  0  0  0  0
   -4.6430   25.4050  -30.9100 O   0  0  0  0  0  0  0  0  0  0  0  0
   -7.0940   23.2240  -31.0800 C   0  0  0  0  0  0  0  0  0  0  0  0
   -7.2260   21.9630  -31.6150 C   0  0  0  0  0  0  0  0  0  0  0  0
   -8.3490   21.3180  -32.1240 C   0  0  0  0  0  0  0  0  0  0  0  0
   -8.2010   19.9960  -32.5770 C   0  0  0  0  0  0  0  0  0  0  0  0
   -6.9410   19.3460  -32.5230 C   0  0  0  0  0  0  0  0  0  0  0  0
   -6.8100   17.9080  -32.9580 C   0  0  0  0  0  0  0  0  0  0  0  0
   -5.7810   17.2840  -32.2760 F   0  0  0  0  0  0  0  0  0  0  0  0
   -6.5440   17.8660  -34.3150 F   0  0  0  0  0  0  0  0  0  0  0  0
   -7.9800   17.2120  -32.7070 F   0  0  0  0  0  0  0  0  0  0  0  0
   -5.8290   20.0270  -31.9740 C   0  0  0  0  0  0  0  0  0  0  0  0
   -6.0030   21.3480  -31.5470 C   0  0  0  0  0  0  0  0  0  0  0  0
    0.9042   21.6373  -26.4156 H   0  0  0  0  0  0  0  0  0  0  0  0
    0.6281   20.7499  -27.9527 H   0  0  0  0  0  0  0  0  0  0  0  0
    0.7027   22.5446  -27.9527 H   0  0  0  0  0  0  0  0  0  0  0  0
   -1.6290   21.5305  -28.1110 H   0  0  0  0  0  0  0  0  0  0  0  0
   -0.7452   20.2551  -25.5959 H   0  0  0  0  0  0  0  0  0  0  0  0
   -2.3573   21.0601  -25.4890 H   0  0  0  0  0  0  0  0  0  0  0  0
   -0.6716   18.1130  -26.5637 H   0  0  0  0  0  0  0  0  0  0  0  0
   -1.6694   17.7996  -28.0241 H   0  0  0  0  0  0  0  0  0  0  0  0
   -0.4734   19.1399  -28.0241 H   0  0  0  0  0  0  0  0  0  0  0  0
   -2.9269   18.9466  -24.9884 H   0  0  0  0  0  0  0  0  0  0  0  0
   -4.1945   19.0900  -26.2530 H   0  0  0  0  0  0  0  0  0  0  0  0
   -3.0814   17.6802  -26.2530 H   0  0  0  0  0  0  0  0  0  0  0  0
   -1.2779   23.2999  -24.5962 H   0  0  0  0  0  0  0  0  0  0  0  0
    0.2215   23.4655  -25.5714 H   0  0  0  0  0  0  0  0  0  0  0  0
   -1.0000   24.7826  -25.5714 H   0  0  0  0  0  0  0  0  0  0  0  0
   -3.0045   23.6807  -31.4193 H   0  0  0  0  0  0  0  0  0  0  0  0
   -1.9349   22.2706  -31.7161 H   0  0  0  0  0  0  0  0  0  0  0  0
   -4.7400   25.6730  -28.3490 H   0  0  0  0  0  0  0  0  0  0  0  0
   -5.3640   24.0170  -28.0530 H   0  0  0  0  0  0  0  0  0  0  0  0
   -7.8780   23.9877  -30.9702 H   0  0  0  0  0  0  0  0  0  0  0  0
   -9.3229   21.8274  -32.1704 H   0  0  0  0  0  0  0  0  0  0  0  0
   -9.0728   19.4585  -32.9784 H   0  0  0  0  0  0  0  0  0  0  0  0
   -4.8517   19.5301  -31.8851 H   0  0  0  0  0  0  0  0  0  0  0  0
  1  2  1  0
  2  3  1  0
  3  4  1  0
  4  5  1  0
  4  6  1  0
  2  7  1  0
  7  8  1  0
  7  9  1  0
  9 10  2  0
  9 11  1  0
 11 12  2  0
 11 13  1  0
 13 14  1  0
 14 15  1  0
 15 16  2  0
 15 17  1  0
 17 18  1  0
 18 19  1  0
 19 20  1  0
 19 21  2  0
 18 22  2  0
 22 23  1  0
 23 24  2  0
 24 25  1  0
 25 26  2  0
 26 27  1  0
 27 28  1  0
 27 29  1  0
 27 30  1  0
 26 31  1  0
 31 32  2  0
 32 17  1  0
 32 23  1  0
  1 33  1  0
  1 34  1  0
  1 35  1  0
  2 36  1  6
  3 37  1  0
  3 38  1  0
  5 39  1  0
  5 40  1  0
  5 41  1  0
  6 42  1  0
  6 43  1  0
  6 44  1  0
  8 45  1  0
  8 46  1  0
  8 47  1  0
 14 48  1  0
 14 49  1  0
 20 50  1  0
 20 51  1  0
 22 52  1  0
 24 53  1  0
 25 54  1  0
 31 55  1  0
M  CHG  1  13  -1
M  END
>  <UniqueID>  (57) 
57

>  <SMILES>  (57) 
C[C@@H](CN(C)C)N(C)C(=O)C(=O)[N-]CC(=O)n1c(C(N)=O)cc2ccc(C(F)(F)F)cc21

>  <Energy>  (57) 
92.41862542334543

>  <Genealogy>  (57) 
CC(CN(C)C)N(C)C(=O)C(=O)[N-]CC(=O)n1c(C(N)=O)cc2ccc(C(F)(F)F)cc21 (protonated)
C[C@@H](CN(C)C)N(C)C(=O)C(=O)[N-]CC(=O)n1c(C(N)=O)cc2ccc(C(F)(F)F)cc21 (chirality)
C[C@@H](CN(C)C)N(C)C(=O)C(=O)[N-]CC(=O)n1c(C(N)=O)cc2ccc(C(F)(F)F)cc21 (3D coordinates assigned)
C[C@@H](CN(C)C)N(C)C(=O)C(=O)[N-]CC(=O)n1c(C(N)=O)cc2ccc(C(F)(F)F)cc21 (optimized conformer: 92.41862542334543 kcal/mol)

>  <smiles>  (57) 
CC(CN(C)C)N(C)C(=O)C(=O)NCC(=O)n1c(C(N)=O)cc2ccc(C(F)(F)F)cc21

>  <score_type>  (57) 
oracle

>  <origin>  (57) 
adg

>  <m_score__min__energy>  (57) 
-10.35

>  <m_primary>  (57) 
energy

$$$$
57:0
     RDKit          3D

 38 39  0  0  0  0  0  0  0  0999 V2000
   -6.6120   18.2750  -32.1800 C   0  0  0  0  0  0  0  0  0  0  0  0
   -6.8160   19.7490  -32.0030 C   0  0  0  0  0  0  0  0  0  0  0  0
   -8.1050   20.3130  -32.1780 C   0  0  0  0  0  0  0  0  0  0  0  0
   -8.3190   21.6870  -31.9690 C   0  0  0  0  0  0  0  0  0  0  0  0
   -7.2310   22.4650  -31.5810 C   0  0  0  0  0  0  0  0  0  0  0  0
   -7.1610   23.8070  -31.2850 C   0  0  0  0  0  0  0  0  0  0  0  0
   -5.8310   24.0380  -30.9340 C   0  0  0  0  0  0  0  0  0  0  0  0
   -5.2930   25.3680  -30.5760 C   0  0  0  0  0  0  0  0  0  0  0  0
   -3.9230   25.6710  -30.8300 N   0  0  0  0  0  0  0  0  0  0  0  0
   -6.0260   26.2360  -30.0330 O   0  0  0  0  0  0  0  0  0  0  0  0
   -5.1110   22.8850  -31.0130 N   0  0  0  0  0  0  0  0  0  0  0  0
   -3.7210   22.7030  -30.7030 C   0  0  0  0  0  0  0  0  0  0  0  0
   -2.8700   22.8190  -31.6240 O   0  0  0  0  0  0  0  0  0  0  0  0
   -3.3190   22.2260  -29.3260 C   0  0  0  0  0  0  0  0  0  0  0  0
   -2.9480   23.3200  -28.2780 C   0  0  0  0  0  0  0  0  0  0  0  0
   -1.8460   22.8250  -27.3160 C   0  0  0  0  0  0  0  0  0  0  0  0
   -4.1900   23.7550  -27.4690 C   0  0  0  0  0  0  0  0  0  0  0  0
   -2.4560   24.4960  -29.0130 N   0  0  0  0  0  0  0  0  0  0  0  0
   -5.9800   21.9310  -31.4060 C   0  0  0  0  0  0  0  0  0  0  0  0
   -5.7420   20.5670  -31.5920 C   0  0  0  0  0  0  0  0  0  0  0  0
   -6.5453   17.7930  -31.1935 H   0  0  0  0  0  0  0  0  0  0  0  0
   -7.4601   17.8519  -32.7382 H   0  0  0  0  0  0  0  0  0  0  0  0
   -5.6808   18.0981  -32.7382 H   0  0  0  0  0  0  0  0  0  0  0  0
   -8.9450   19.6701  -32.4799 H   0  0  0  0  0  0  0  0  0  0  0  0
   -9.3147   22.1334  -32.1076 H   0  0  0  0  0  0  0  0  0  0  0  0
   -7.9795   24.5411  -31.3181 H   0  0  0  0  0  0  0  0  0  0  0  0
   -3.2230   24.9100  -30.9730 H   0  0  0  0  0  0  0  0  0  0  0  0
   -4.1597   21.6463  -28.9171 H   0  0  0  0  0  0  0  0  0  0  0  0
   -2.3928   21.6533  -29.4812 H   0  0  0  0  0  0  0  0  0  0  0  0
   -2.1737   22.9722  -26.2763 H   0  0  0  0  0  0  0  0  0  0  0  0
   -1.6577   21.7558  -27.4932 H   0  0  0  0  0  0  0  0  0  0  0  0
   -0.9217   23.3944  -27.4932 H   0  0  0  0  0  0  0  0  0  0  0  0
   -3.9722   23.6787  -26.3935 H   0  0  0  0  0  0  0  0  0  0  0  0
   -4.4442   24.7957  -27.7187 H   0  0  0  0  0  0  0  0  0  0  0  0
   -5.0380   23.1004  -27.7187 H   0  0  0  0  0  0  0  0  0  0  0  0
   -2.4460   24.2940  -30.0400 H   0  0  0  0  0  0  0  0  0  0  0  0
   -3.1150   25.2990  -28.8760 H   0  0  0  0  0  0  0  0  0  0  0  0
   -4.7421   20.1411  -31.4223 H   0  0  0  0  0  0  0  0  0  0  0  0
  1  2  1  0
  2  3  2  0
  3  4  1  0
  4  5  2  0
  5  6  1  0
  6  7  2  0
  7  8  1  0
  8  9  1  0
  8 10  2  0
  7 11  1  0
 11 12  1  0
 12 13  2  0
 12 14  1  0
 14 15  1  0
 15 16  1  0
 15 17  1  0
 15 18  1  0
 11 19  1  0
 19 20  2  0
 20  2  1  0
 19  5  1  0
  1 21  1  0
  1 22  1  0
  1 23  1  0
  3 24  1  0
  4 25  1  0
  6 26  1  0
  9 27  1  0
 14 28  1  0
 14 29  1  0
 16 30  1  0
 16 31  1  0
 16 32  1  0
 17 33  1  0
 17 34  1  0
 17 35  1  0
 18 36  1  0
 18 37  1  0
 20 38  1  0
M  CHG  1   9  -1
M  END
>  <UniqueID>  (58) 
58

>  <SMILES>  (58) 
Cc1ccc2cc(C([NH-])=O)n(C(=O)CC(C)(C)N)c2c1

>  <Energy>  (58) 
76.08736103787528

>  <Genealogy>  (58) 
Cc1ccc2cc(C([NH-])=O)n(C(=O)CC(C)(C)N)c2c1 (protonated)
Cc1ccc2cc(C([NH-])=O)n(C(=O)CC(C)(C)N)c2c1 (3D coordinates assigned)
Cc1ccc2cc(C([NH-])=O)n(C(=O)CC(C)(C)N)c2c1 (optimized conformer: 76.08736103787528 kcal/mol)

>  <smiles>  (58) 
Cc1ccc2cc(C(N)=O)n(C(=O)CC(C)(C)N)c2c1

>  <score_type>  (58) 
oracle

>  <origin>  (58) 
adg

>  <m_score__min__energy>  (58) 
-9.4100000000000001

>  <m_primary>  (58) 
energy

$$$$
58:0
     RDKit          3D

 48 49  0  0  0  0  0  0  0  0999 V2000
   -3.8380   22.9840  -28.5390 C   0  0  0  0  0  0  0  0  0  0  0  0
   -2.8180   22.4800  -29.5700 C   0  0  0  0  0  0  0  0  0  0  0  0
   -3.0150   20.9650  -29.7680 C   0  0  0  0  0  0  0  0  0  0  0  0
   -1.3970   22.7810  -29.0540 C   0  0  0  0  0  0  0  0  0  0  0  0
   -3.0710   23.1860  -30.7940 O   0  0  0  0  0  0  0  0  0  0  0  0
   -4.0050   22.8330  -31.7810 C   0  0  0  0  0  0  0  0  0  0  0  0
   -3.6390   22.2620  -32.8430 O   0  0  0  0  0  0  0  0  0  0  0  0
   -5.3970   23.1070  -31.5650 N   0  0  0  0  0  0  0  0  0  0  0  0
   -5.9450   24.1790  -30.9250 C   0  0  0  0  0  0  0  0  0  0  0  0
   -5.2140   25.3750  -30.4540 C   0  0  0  0  0  0  0  0  0  0  0  0
   -3.8690   25.5940  -30.8720 N   0  0  0  0  0  0  0  0  0  0  0  0
   -5.7530   26.1860  -29.6550 O   0  0  0  0  0  0  0  0  0  0  0  0
   -7.3290   24.0410  -30.8380 C   0  0  0  0  0  0  0  0  0  0  0  0
   -7.6160   22.8440  -31.4540 C   0  0  0  0  0  0  0  0  0  0  0  0
   -8.8370   22.2020  -31.6350 C   0  0  0  0  0  0  0  0  0  0  0  0
   -8.8350   20.9520  -32.2750 C   0  0  0  0  0  0  0  0  0  0  0  0
   -7.6210   20.3690  -32.7210 C   0  0  0  0  0  0  0  0  0  0  0  0
   -7.6260   19.0640  -33.3360 N   0  0  0  0  0  0  0  0  0  0  0  0
   -6.8850   18.1110  -32.4920 C   0  0  0  0  0  0  0  0  0  0  0  0
   -6.0680   17.0920  -33.3210 C   0  0  1  0  0  0  0  0  0  0  0  0
   -6.9160   16.3370  -34.1450 O   0  0  0  0  0  0  0  0  0  0  0  0
   -4.9820   17.7520  -34.1870 C   0  0  0  0  0  0  0  0  0  0  0  0
   -5.5270   18.2890  -35.3630 O   0  0  0  0  0  0  0  0  0  0  0  0
   -6.3990   21.0490  -32.5090 C   0  0  0  0  0  0  0  0  0  0  0  0
   -6.4330   22.3010  -31.8840 C   0  0  0  0  0  0  0  0  0  0  0  0
   -3.4572   22.7959  -27.5243 H   0  0  0  0  0  0  0  0  0  0  0  0
   -3.9959   24.0638  -28.6770 H   0  0  0  0  0  0  0  0  0  0  0  0
   -4.7916   22.4534  -28.6770 H   0  0  0  0  0  0  0  0  0  0  0  0
   -3.0791   20.4722  -28.7866 H   0  0  0  0  0  0  0  0  0  0  0  0
   -3.9439   20.7863  -30.3294 H   0  0  0  0  0  0  0  0  0  0  0  0
   -2.1626   20.5547  -30.3294 H   0  0  0  0  0  0  0  0  0  0  0  0
   -1.3986   22.7807  -27.9540 H   0  0  0  0  0  0  0  0  0  0  0  0
   -0.7031   22.0099  -29.4199 H   0  0  0  0  0  0  0  0  0  0  0  0
   -1.0753   23.7672  -29.4199 H   0  0  0  0  0  0  0  0  0  0  0  0
   -3.0670   25.2990  -30.2730 H   0  0  0  0  0  0  0  0  0  0  0  0
   -8.0410   24.7403  -30.3753 H   0  0  0  0  0  0  0  0  0  0  0  0
   -9.7751   22.6595  -31.2875 H   0  0  0  0  0  0  0  0  0  0  0  0
   -9.7846   20.4194  -32.4321 H   0  0  0  0  0  0  0  0  0  0  0  0
   -7.1780   19.1310  -34.2800 H   0  0  0  0  0  0  0  0  0  0  0  0
   -8.6130   18.7420  -33.4660 H   0  0  0  0  0  0  0  0  0  0  0  0
   -6.1947   18.6745  -31.8471 H   0  0  0  0  0  0  0  0  0  0  0  0
   -7.6217   17.5459  -31.9021 H   0  0  0  0  0  0  0  0  0  0  0  0
   -5.5627   16.4406  -32.5927 H   0  0  0  0  0  0  0  0  0  0  0  0
   -6.5540   16.4020  -35.0680 H   0  0  0  0  0  0  0  0  0  0  0  0
   -4.5055   18.5592  -33.6113 H   0  0  0  0  0  0  0  0  0  0  0  0
   -4.2438   16.9849  -34.4641 H   0  0  0  0  0  0  0  0  0  0  0  0
   -6.4960   18.0740  -35.3500 H   0  0  0  0  0  0  0  0  0  0  0  0
   -5.4446   20.6045  -32.8277 H   0  0  0  0  0  0  0  0  0  0  0  0
  1  2  1  0
  2  3  1  0
  2  4  1  0
  2  5  1  0
  5  6  1  0
  6  7  2  0
  6  8  1  0
  8  9  1  0
  9 10  1  0
 10 11  1  0
 10 12  2  0
  9 13  2  0
 13 14  1  0
 14 15  2  0
 15 16  1  0
 16 17  2  0
 17 18  1  0
 18 19  1  0
 19 20  1  0
 20 21  1  0
 20 22  1  0
 22 23  1  0
 17 24  1  0
 24 25  2  0
 25  8  1  0
 25 14  1  0
  1 26  1  0
  1 27  1  0
  1 28  1  0
  3 29  1  0
  3 30  1  0
  3 31  1  0
  4 32  1  0
  4 33  1  0
  4 34  1  0
 11 35  1  0
 13 36  1  0
 15 37  1  0
 16 38  1  0
 18 39  1  0
 18 40  1  0
 19 41  1  0
 19 42  1  0
 20 43  1  1
 21 44  1  0
 22 45  1  0
 22 46  1  0
 23 47  1  0
 24 48  1  0
M  CHG  2  11  -1  18   1
M  END
>  <UniqueID>  (59) 
59

>  <SMILES>  (59) 
CC(C)(C)OC(=O)n1c(C([NH-])=O)cc2ccc([NH2+]C[C@@H](O)CO)cc21

>  <Energy>  (59) 
79.74753917910137

>  <Genealogy>  (59) 
CC(C)(C)OC(=O)n1c(C([NH-])=O)cc2ccc([NH2+]CC(O)CO)cc21 (protonated)
CC(C)(C)OC(=O)n1c(C([NH-])=O)cc2ccc([NH2+]C[C@@H](O)CO)cc21 (chirality)
CC(C)(C)OC(=O)n1c(C([NH-])=O)cc2ccc([NH2+]C[C@@H](O)CO)cc21 (3D coordinates assigned)
CC(C)(C)OC(=O)n1c(C([NH-])=O)cc2ccc([NH2+]C[C@@H](O)CO)cc21 (optimized conformer: 79.74753917910137 kcal/mol)

>  <smiles>  (59) 
CC(C)(C)OC(=O)n1c(C(N)=O)cc2ccc(NCC(O)CO)cc21

>  <score_type>  (59) 
oracle

>  <origin>  (59) 
adg

>  <m_score__min__energy>  (59) 
-9.3000000000000007

>  <m_primary>  (59) 
energy

$$$$
59:0
     RDKit          3D

 46 49  0  0  0  0  0  0  0  0999 V2000
   -7.0380   15.0460  -34.2440 C   0  0  0  0  0  0  0  0  0  0  0  0
   -6.7850   13.6690  -34.3990 O   0  0  0  0  0  0  0  0  0  0  0  0
   -5.4260   13.4140  -34.1110 C   0  0  0  0  0  0  0  0  0  0  0  0
   -4.5410   13.8260  -35.2420 C   0  0  0  0  0  0  0  0  0  0  0  0
   -3.8960   14.9520  -34.5430 N   0  0  0  0  0  0  0  0  0  0  0  0
   -3.0070   16.0120  -34.9070 C   0  0  0  0  0  0  0  0  0  0  0  0
   -2.6100   16.0890  -36.1000 O   0  0  0  0  0  0  0  0  0  0  0  0
   -2.5880   17.0410  -33.9310 C   0  0  0  0  0  0  0  0  0  0  0  0
   -1.3770   16.9260  -33.2300 C   0  0  0  0  0  0  0  0  0  0  0  0
   -0.9930   17.9090  -32.3130 C   0  0  0  0  0  0  0  0  0  0  0  0
   -1.8080   19.0320  -32.0850 C   0  0  0  0  0  0  0  0  0  0  0  0
   -1.4000   20.0750  -31.1100 C   0  0  0  0  0  0  0  0  0  0  0  0
   -0.2910   19.8600  -30.2500 C   0  0  0  0  0  0  0  0  0  0  0  0
    0.0950   20.8350  -29.3170 C   0  0  0  0  0  0  0  0  0  0  0  0
   -0.6340   22.0190  -29.2690 C   0  0  0  0  0  0  0  0  0  0  0  0
   -0.4930   23.1110  -28.4450 C   0  0  0  0  0  0  0  0  0  0  0  0
   -1.5000   23.9950  -28.8270 C   0  0  0  0  0  0  0  0  0  0  0  0
   -1.6570   25.3450  -28.2480 C   0  0  0  0  0  0  0  0  0  0  0  0
   -1.2270   26.5040  -28.9580 N   0  0  0  0  0  0  0  0  0  0  0  0
   -2.1320   25.4750  -27.0880 O   0  0  0  0  0  0  0  0  0  0  0  0
   -2.2420   23.4650  -29.8410 N   0  0  0  0  0  0  0  0  0  0  0  0
   -3.4160   24.0170  -30.4580 C   0  0  0  0  0  0  0  0  0  0  0  0
   -3.5850   25.2640  -30.5020 O   0  0  0  0  0  0  0  0  0  0  0  0
   -4.3890   23.1790  -30.9900 O   0  0  0  0  0  0  0  0  0  0  0  0
   -1.6960   22.2560  -30.1020 C   0  0  0  0  0  0  0  0  0  0  0  0
   -2.1160   21.2950  -31.0280 C   0  0  0  0  0  0  0  0  0  0  0  0
   -3.0110   19.1540  -32.8000 C   0  0  0  0  0  0  0  0  0  0  0  0
   -3.3930   18.1710  -33.7180 C   0  0  0  0  0  0  0  0  0  0  0  0
   -4.7570   14.5560  -33.4110 C   0  0  0  0  0  0  0  0  0  0  0  0
   -7.0832   15.2922  -33.1729 H   0  0  0  0  0  0  0  0  0  0  0  0
   -6.2308   15.6229  -34.7190 H   0  0  0  0  0  0  0  0  0  0  0  0
   -7.9975   15.2983  -34.7190 H   0  0  0  0  0  0  0  0  0  0  0  0
   -5.4903   12.3961  -33.6990 H   0  0  0  0  0  0  0  0  0  0  0  0
   -3.8265   13.0403  -35.5285 H   0  0  0  0  0  0  0  0  0  0  0  0
   -5.0301   14.0495  -36.2016 H   0  0  0  0  0  0  0  0  0  0  0  0
   -0.7259   16.0565  -33.4034 H   0  0  0  0  0  0  0  0  0  0  0  0
   -0.0451   17.8030  -31.7651 H   0  0  0  0  0  0  0  0  0  0  0  0
    0.2727   18.9177  -30.3157 H   0  0  0  0  0  0  0  0  0  0  0  0
    0.9486   20.6679  -28.6437 H   0  0  0  0  0  0  0  0  0  0  0  0
    0.2559   23.2558  -27.6524 H   0  0  0  0  0  0  0  0  0  0  0  0
   -0.9020   26.4360  -29.9480 H   0  0  0  0  0  0  0  0  0  0  0  0
   -2.9832   21.4824  -31.6783 H   0  0  0  0  0  0  0  0  0  0  0  0
   -3.6571   20.0291  -32.6365 H   0  0  0  0  0  0  0  0  0  0  0  0
   -4.3328   18.2842  -34.2783 H   0  0  0  0  0  0  0  0  0  0  0  0
   -4.1802   14.2352  -32.5310 H   0  0  0  0  0  0  0  0  0  0  0  0
   -5.4088   15.3316  -32.9826 H   0  0  0  0  0  0  0  0  0  0  0  0
  1  2  1  0
  2  3  1  0
  3  4  1  0
  4  5  1  0
  5  6  1  0
  6  7  2  0
  6  8  1  0
  8  9  2  0
  9 10  1  0
 10 11  2  0
 11 12  1  0
 12 13  2  0
 13 14  1  0
 14 15  2  0
 15 16  1  0
 16 17  2  0
 17 18  1  0
 18 19  1  0
 18 20  2  0
 17 21  1  0
 21 22  1  0
 22 23  2  0
 22 24  1  0
 21 25  1  0
 25 26  2  0
 11 27  1  0
 27 28  2  0
  5 29  1  0
 29  3  1  0
 28  8  1  0
 26 12  1  0
 25 15  1  0
  1 30  1  0
  1 31  1  0
  1 32  1  0
  3 33  1  0
  4 34  1  0
  4 35  1  0
  9 36  1  0
 10 37  1  0
 13 38  1  0
 14 39  1  0
 16 40  1  0
 19 41  1  0
 26 42  1  0
 27 43  1  0
 28 44  1  0
 29 45  1  0
 29 46  1  0
M  CHG  2  19  -1  24  -1
M  END
>  <UniqueID>  (60) 
60

>  <SMILES>  (60) 
COC1CN(C(=O)c2ccc(-c3ccc4cc(C([NH-])=O)n(C(=O)[O-])c4c3)cc2)C1

>  <Energy>  (60) 
143.04113595027883

>  <Genealogy>  (60) 
COC1CN(C(=O)c2ccc(-c3ccc4cc(C([NH-])=O)n(C(=O)[O-])c4c3)cc2)C1 (protonated)
COC1CN(C(=O)c2ccc(-c3ccc4cc(C([NH-])=O)n(C(=O)[O-])c4c3)cc2)C1 (3D coordinates assigned)
COC1CN(C(=O)c2ccc(-c3ccc4cc(C([NH-])=O)n(C(=O)[O-])c4c3)cc2)C1 (nonaromatic ring conformer: 143.04113595027883 kcal/mol)

>  <smiles>  (60) 
COC1CN(C(=O)c2ccc(-c3ccc4cc(C(N)=O)n(C(=O)O)c4c3)cc2)C1

>  <score_type>  (60) 
oracle

>  <origin>  (60) 
adg

>  <m_score__min__energy>  (60) 
-11.390000000000001

>  <m_primary>  (60) 
energy

$$$$
60:0
     RDKit          3D

 39 40  0  0  0  0  0  0  0  0999 V2000
   -3.4920   25.6810  -30.1020 H   0  0  0  0  0  0  0  0  0  0  0  0
   -4.1710   25.3890  -30.8400 N   0  0  0  0  0  0  0  0  0  0  0  0
   -5.5450   25.1730  -30.5260 C   0  0  0  0  0  0  0  0  0  0  0  0
   -6.1890   26.0710  -29.9230 O   0  0  0  0  0  0  0  0  0  0  0  0
   -6.2070   23.9210  -30.9470 C   0  0  0  0  0  0  0  0  0  0  0  0
   -7.5670   23.8300  -31.2370 C   0  0  0  0  0  0  0  0  0  0  0  0
   -8.3022   24.6481  -31.2498 H   0  0  0  0  0  0  0  0  0  0  0  0
   -7.7950   22.4990  -31.5040 C   0  0  0  0  0  0  0  0  0  0  0  0
   -8.9730   21.8450  -31.8510 C   0  0  0  0  0  0  0  0  0  0  0  0
   -9.9228   22.3936  -31.9340 H   0  0  0  0  0  0  0  0  0  0  0  0
   -8.9120   20.4630  -32.0920 C   0  0  0  0  0  0  0  0  0  0  0  0
   -9.8305   19.9155  -32.3499 H   0  0  0  0  0  0  0  0  0  0  0  0
   -7.6800   19.7640  -32.0070 C   0  0  0  0  0  0  0  0  0  0  0  0
   -7.6340   18.2740  -32.2320 C   0  0  0  0  0  0  0  0  0  0  0  0
   -8.8800   17.7090  -32.0220 F   0  0  0  0  0  0  0  0  0  0  0  0
   -6.7300   17.7090  -31.3530 F   0  0  0  0  0  0  0  0  0  0  0  0
   -7.2420   17.9880  -33.5290 F   0  0  0  0  0  0  0  0  0  0  0  0
   -6.5090   20.4620  -31.6260 C   0  0  0  0  0  0  0  0  0  0  0  0
   -5.5472   19.9369  -31.5295 H   0  0  0  0  0  0  0  0  0  0  0  0
   -6.6030   21.8350  -31.3750 C   0  0  0  0  0  0  0  0  0  0  0  0
   -5.6180   22.6950  -31.0340 N   0  0  0  0  0  0  0  0  0  0  0  0
   -4.2250   22.3780  -30.8840 C   0  0  0  0  0  0  0  0  0  0  0  0
   -3.4260   22.5950  -31.8360 O   0  0  0  0  0  0  0  0  0  0  0  0
   -3.7580   21.8580  -29.6720 O   0  0  0  0  0  0  0  0  0  0  0  0
   -3.4800   22.6640  -28.5300 C   0  0  0  0  0  0  0  0  0  0  0  0
   -3.1630   22.0171  -27.6987 H   0  0  0  0  0  0  0  0  0  0  0  0
   -4.3902   23.2167  -28.2543 H   0  0  0  0  0  0  0  0  0  0  0  0
   -2.3900   23.6460  -28.8340 C   0  0  0  0  0  0  0  0  0  0  0  0
   -2.6020   24.9120  -28.6570 N   0  0  0  0  0  0  0  0  0  0  0  0
   -1.6350   25.8520  -28.9320 O   0  0  0  0  0  0  0  0  0  0  0  0
   -0.8140   26.3580  -27.8940 C   0  0  0  0  0  0  0  0  0  0  0  0
   -1.2483   26.0903  -26.9195 H   0  0  0  0  0  0  0  0  0  0  0  0
    0.1931   25.9237  -27.9783 H   0  0  0  0  0  0  0  0  0  0  0  0
   -0.7494   27.4529  -27.9783 H   0  0  0  0  0  0  0  0  0  0  0  0
   -0.8080   23.0550  -29.4570 S   0  0  0  0  0  0  0  0  0  0  0  0
   -0.7870   21.6010  -28.3630 C   0  0  0  0  0  0  0  0  0  0  0  0
   -0.7918   21.9315  -27.3138 H   0  0  0  0  0  0  0  0  0  0  0  0
   -1.6763   20.9833  -28.5569 H   0  0  0  0  0  0  0  0  0  0  0  0
    0.1198   21.0093  -28.5569 H   0  0  0  0  0  0  0  0  0  0  0  0
  1  2  1  0
  2  3  1  0
  3  4  2  0
  3  5  1  0
  5  6  2  0
  6  7  1  0
  6  8  1  0
  8  9  2  0
  9 10  1  0
  9 11  1  0
 11 12  1  0
 11 13  2  0
 13 14  1  0
 14 15  1  0
 14 16  1  0
 14 17  1  0
 13 18  1  0
 18 19  1  0
 18 20  2  0
 20 21  1  0
 21 22  1  0
 22 23  2  0
 22 24  1  0
 24 25  1  0
 25 26  1  0
 25 27  1  0
 25 28  1  0
 28 29  2  0
 29 30  1  0
 30 31  1  0
 31 32  1  0
 31 33  1  0
 31 34  1  0
 28 35  1  0
 35 36  1  0
 36 37  1  0
 36 38  1  0
 36 39  1  0
 21  5  1  0
 20  8  1  0
M  CHG  1   2  -1
M  END
>  <UniqueID>  (61) 
61

>  <SMILES>  (61) 
CO/N=C(/COC(=O)n1c(C([NH-])=O)cc2ccc(C(F)(F)F)cc21)SC

>  <Energy>  (61) 
66.96004013300544

>  <Genealogy>  (61) 
CO/N=C(/COC(=O)n1c(C([NH-])=O)cc2ccc(C(F)(F)F)cc21)SC (protonated)
CO/N=C(/COC(=O)n1c(C([NH-])=O)cc2ccc(C(F)(F)F)cc21)SC (cis-trans isomerization)
CO/N=C(/COC(=O)n1c(C([NH-])=O)cc2ccc(C(F)(F)F)cc21)SC (3D coordinates assigned)
CO/N=C(/COC(=O)n1c(C([NH-])=O)cc2ccc(C(F)(F)F)cc21)SC (optimized conformer: 66.96004013300544 kcal/mol)

>  <smiles>  (61) 
CO/N=C(/COC(=O)n1c(C(N)=O)cc2ccc(C(F)(F)F)cc21)SC

>  <score_type>  (61) 
oracle

>  <origin>  (61) 
adg

>  <m_score__min__energy>  (61) 
-10.33

>  <m_primary>  (61) 
energy

$$$$
61:0
     RDKit          3D

 44 45  0  0  0  0  0  0  0  0999 V2000
   -5.9450   18.0110  -32.2910 C   0  0  0  0  0  0  0  0  0  0  0  0
   -6.2890   19.4420  -32.0020 C   0  0  0  0  0  0  0  0  0  0  0  0
   -7.6350   19.8810  -32.0270 C   0  0  0  0  0  0  0  0  0  0  0  0
   -7.9570   21.2180  -31.7320 C   0  0  0  0  0  0  0  0  0  0  0  0
   -6.9160   22.0850  -31.4120 C   0  0  0  0  0  0  0  0  0  0  0  0
   -6.9400   23.4210  -31.0770 C   0  0  0  0  0  0  0  0  0  0  0  0
   -5.6090   23.7680  -30.8450 C   0  0  0  0  0  0  0  0  0  0  0  0
   -5.1690   25.1010  -30.3810 C   0  0  0  0  0  0  0  0  0  0  0  0
   -3.9370   25.6390  -30.8440 N   0  0  0  0  0  0  0  0  0  0  0  0
   -5.8780   25.7770  -29.5890 O   0  0  0  0  0  0  0  0  0  0  0  0
   -4.7970   22.6920  -31.0540 N   0  0  0  0  0  0  0  0  0  0  0  0
   -3.3770   22.6120  -30.8700 C   0  0  0  0  0  0  0  0  0  0  0  0
   -2.6320   22.5550  -31.8880 O   0  0  0  0  0  0  0  0  0  0  0  0
   -2.7960   22.6020  -29.5450 N   0  0  0  0  0  0  0  0  0  0  0  0
   -2.8060   23.8340  -28.7480 C   0  0  0  0  0  0  0  0  0  0  0  0
   -1.5730   24.6370  -29.0100 C   0  0  0  0  0  0  0  0  0  0  0  0
   -0.4880   24.0590  -29.2720 O   0  0  0  0  0  0  0  0  0  0  0  0
   -1.6200   26.0260  -28.9640 O   0  0  0  0  0  0  0  0  0  0  0  0
   -2.0520   21.4290  -29.0560 C   0  0  0  0  0  0  0  0  0  0  0  0
   -2.7340   20.8050  -27.8660 C   0  0  0  0  0  0  0  0  0  0  0  0
   -3.8020   21.3350  -27.4510 O   0  0  0  0  0  0  0  0  0  0  0  0
   -2.2160   19.6280  -27.2020 N   0  0  0  0  0  0  0  0  0  0  0  0
   -3.0540   18.9600  -26.2010 C   0  0  0  0  0  0  0  0  0  0  0  0
   -0.9230   19.0240  -27.5430 C   0  0  0  0  0  0  0  0  0  0  0  0
   -5.6110   21.6700  -31.3790 C   0  0  0  0  0  0  0  0  0  0  0  0
   -5.2600   20.3480  -31.6690 C   0  0  0  0  0  0  0  0  0  0  0  0
   -5.8142   17.4669  -31.3440 H   0  0  0  0  0  0  0  0  0  0  0  0
   -6.7575   17.5484  -32.8705 H   0  0  0  0  0  0  0  0  0  0  0  0
   -5.0110   17.9682  -32.8705 H   0  0  0  0  0  0  0  0  0  0  0  0
   -8.4357   19.1702  -32.2793 H   0  0  0  0  0  0  0  0  0  0  0  0
   -8.9997   21.5679  -31.7535 H   0  0  0  0  0  0  0  0  0  0  0  0
   -7.8215   24.0752  -31.0073 H   0  0  0  0  0  0  0  0  0  0  0  0
   -3.0230   25.3010  -30.4650 H   0  0  0  0  0  0  0  0  0  0  0  0
   -3.6904   24.4310  -29.0154 H   0  0  0  0  0  0  0  0  0  0  0  0
   -2.8369   23.5673  -27.6813 H   0  0  0  0  0  0  0  0  0  0  0  0
   -1.9868   20.6842  -29.8629 H   0  0  0  0  0  0  0  0  0  0  0  0
   -1.0486   21.7581  -28.7480 H   0  0  0  0  0  0  0  0  0  0  0  0
   -2.7100   19.2342  -25.1928 H   0  0  0  0  0  0  0  0  0  0  0  0
   -4.1002   19.2747  -26.3297 H   0  0  0  0  0  0  0  0  0  0  0  0
   -2.9805   17.8700  -26.3297 H   0  0  0  0  0  0  0  0  0  0  0  0
   -0.3815   18.7711  -26.6195 H   0  0  0  0  0  0  0  0  0  0  0  0
   -1.0892   18.1103  -28.1326 H   0  0  0  0  0  0  0  0  0  0  0  0
   -0.3289   19.7378  -28.1326 H   0  0  0  0  0  0  0  0  0  0  0  0
   -4.2096   20.0230  -31.6383 H   0  0  0  0  0  0  0  0  0  0  0  0
  1  2  1  0
  2  3  2  0
  3  4  1  0
  4  5  2  0
  5  6  1  0
  6  7  2  0
  7  8  1  0
  8  9  1  0
  8 10  2  0
  7 11  1  0
 11 12  1  0
 12 13  2  0
 12 14  1  0
 14 15  1  0
 15 16  1  0
 16 17  2  0
 16 18  1  0
 14 19  1  0
 19 20  1  0
 20 21  2  0
 20 22  1  0
 22 23  1  0
 22 24  1  0
 11 25  1  0
 25 26  2  0
 26  2  1  0
 25  5  1  0
  1 27  1  0
  1 28  1  0
  1 29  1  0
  3 30  1  0
  4 31  1  0
  6 32  1  0
  9 33  1  0
 15 34  1  0
 15 35  1  0
 19 36  1  0
 19 37  1  0
 23 38  1  0
 23 39  1  0
 23 40  1  0
 24 41  1  0
 24 42  1  0
 24 43  1  0
 26 44  1  0
M  CHG  2   9  -1  18  -1
M  END
>  <UniqueID>  (62) 
62

>  <SMILES>  (62) 
Cc1ccc2cc(C([NH-])=O)n(C(=O)N(CC(=O)[O-])CC(=O)N(C)C)c2c1

>  <Energy>  (62) 
78.33701487140453

>  <Genealogy>  (62) 
Cc1ccc2cc(C([NH-])=O)n(C(=O)N(CC(=O)[O-])CC(=O)N(C)C)c2c1 (protonated)
Cc1ccc2cc(C([NH-])=O)n(C(=O)N(CC(=O)[O-])CC(=O)N(C)C)c2c1 (3D coordinates assigned)
Cc1ccc2cc(C([NH-])=O)n(C(=O)N(CC(=O)[O-])CC(=O)N(C)C)c2c1 (optimized conformer: 78.33701487140453 kcal/mol)

>  <smiles>  (62) 
Cc1ccc2cc(C(N)=O)n(C(=O)N(CC(=O)O)CC(=O)N(C)C)c2c1

>  <score_type>  (62) 
oracle

>  <origin>  (62) 
adg

>  <m_score__min__energy>  (62) 
-12.380000000000001

>  <m_primary>  (62) 
energy

$$$$
62:0
     RDKit          3D

 38 39  0  0  0  0  0  0  0  0999 V2000
   -4.3080   25.6780  -30.9070 N   0  0  0  0  0  0  0  0  0  0  0  0
   -5.4740   25.1170  -30.3090 C   0  0  0  0  0  0  0  0  0  0  0  0
   -6.0340   25.7090  -29.3500 O   0  0  0  0  0  0  0  0  0  0  0  0
   -6.0600   23.8900  -30.8550 C   0  0  0  0  0  0  0  0  0  0  0  0
   -7.4250   23.7550  -31.0740 C   0  0  0  0  0  0  0  0  0  0  0  0
   -7.5870   22.4810  -31.5560 C   0  0  0  0  0  0  0  0  0  0  0  0
   -8.7480   21.8220  -31.9490 C   0  0  0  0  0  0  0  0  0  0  0  0
   -8.6310   20.5070  -32.4250 C   0  0  0  0  0  0  0  0  0  0  0  0
   -7.3630   19.8850  -32.5160 C   0  0  0  0  0  0  0  0  0  0  0  0
   -7.2540   18.4680  -33.0060 C   0  0  0  0  0  0  0  0  0  0  0  0
   -6.0520   17.8090  -32.4100 C   0  0  0  0  0  0  0  0  0  0  0  0
   -4.9300   17.9080  -32.9740 O   0  0  0  0  0  0  0  0  0  0  0  0
   -6.1580   17.1310  -31.2030 O   0  0  0  0  0  0  0  0  0  0  0  0
   -6.2060   20.5800  -32.0990 C   0  0  0  0  0  0  0  0  0  0  0  0
   -6.3490   21.8880  -31.6080 C   0  0  0  0  0  0  0  0  0  0  0  0
   -5.3900   22.7410  -31.1690 N   0  0  0  0  0  0  0  0  0  0  0  0
   -3.9820   22.4480  -31.0050 C   0  0  0  0  0  0  0  0  0  0  0  0
   -3.1160   23.1740  -31.5580 O   0  0  0  0  0  0  0  0  0  0  0  0
   -3.3960   21.0790  -30.0000 S   0  0  0  0  0  0  0  0  0  0  0  0
   -1.6390   21.2850  -30.4530 C   0  0  0  0  0  0  0  0  0  0  0  0
   -0.8970   21.9880  -29.3530 C   0  0  0  0  0  0  0  0  0  0  0  0
   -0.6560   21.3670  -28.2850 O   0  0  0  0  0  0  0  0  0  0  0  0
   -0.4170   23.3320  -29.4930 N   0  0  0  0  0  0  0  0  0  0  0  0
   -0.3700   24.3310  -28.4310 C   0  0  0  0  0  0  0  0  0  0  0  0
   -1.2530   25.4910  -28.7630 C   0  0  0  0  0  0  0  0  0  0  0  0
   -2.3530   25.3030  -29.3450 O   0  0  0  0  0  0  0  0  0  0  0  0
   -0.8420   26.7860  -28.4710 O   0  0  0  0  0  0  0  0  0  0  0  0
   -3.3850   25.1960  -30.8310 H   0  0  0  0  0  0  0  0  0  0  0  0
   -8.2077   24.5078  -30.8986 H   0  0  0  0  0  0  0  0  0  0  0  0
   -9.7284   22.3172  -31.8883 H   0  0  0  0  0  0  0  0  0  0  0  0
   -9.5324   19.9551  -32.7299 H   0  0  0  0  0  0  0  0  0  0  0  0
   -8.1566   17.9115  -32.7133 H   0  0  0  0  0  0  0  0  0  0  0  0
   -7.1557   18.4727  -34.1016 H   0  0  0  0  0  0  0  0  0  0  0  0
   -5.2146   20.1070  -32.1576 H   0  0  0  0  0  0  0  0  0  0  0  0
   -1.1887   20.2954  -30.6198 H   0  0  0  0  0  0  0  0  0  0  0  0
   -1.5741   21.8877  -31.3709 H   0  0  0  0  0  0  0  0  0  0  0  0
   -0.7104   23.8748  -27.4897 H   0  0  0  0  0  0  0  0  0  0  0  0
    0.6644   24.6902  -28.3263 H   0  0  0  0  0  0  0  0  0  0  0  0
  1  2  1  0
  2  3  2  0
  2  4  1  0
  4  5  2  0
  5  6  1  0
  6  7  2  0
  7  8  1  0
  8  9  2  0
  9 10  1  0
 10 11  1  0
 11 12  2  0
 11 13  1  0
  9 14  1  0
 14 15  2  0
 15 16  1  0
 16 17  1  0
 17 18  2  0
 17 19  1  0
 19 20  1  0
 20 21  1  0
 21 22  2  0
 21 23  1  0
 23 24  1  0
 24 25  1  0
 25 26  2  0
 25 27  1  0
 16  4  1  0
 15  6  1  0
  1 28  1  0
  5 29  1  0
  7 30  1  0
  8 31  1  0
 10 32  1  0
 10 33  1  0
 14 34  1  0
 20 35  1  0
 20 36  1  0
 24 37  1  0
 24 38  1  0
M  CHG  4   1  -1  13  -1  23  -1  27  -1
M  END
>  <UniqueID>  (63) 
63

>  <SMILES>  (63) 
[NH-]C(=O)c1cc2ccc(CC(=O)[O-])cc2n1C(=O)SCC(=O)[N-]CC(=O)[O-]

>  <Energy>  (63) 
76.69106925332659

>  <Genealogy>  (63) 
[NH-]C(=O)c1cc2ccc(CC(=O)[O-])cc2n1C(=O)SCC(=O)[N-]CC(=O)[O-] (protonated)
[NH-]C(=O)c1cc2ccc(CC(=O)[O-])cc2n1C(=O)SCC(=O)[N-]CC(=O)[O-] (3D coordinates assigned)
[NH-]C(=O)c1cc2ccc(CC(=O)[O-])cc2n1C(=O)SCC(=O)[N-]CC(=O)[O-] (optimized conformer: 76.69106925332659 kcal/mol)

>  <smiles>  (63) 
NC(=O)c1cc2ccc(CC(=O)O)cc2n1C(=O)SCC(=O)NCC(=O)O

>  <score_type>  (63) 
oracle

>  <origin>  (63) 
adg

>  <m_score__min__energy>  (63) 
-12.869999999999999

>  <m_primary>  (63) 
energy

$$$$
63:0
     RDKit          3D

 55 59  0  0  0  0  0  0  0  0999 V2000
   -3.0400   19.1080  -33.7020 C   0  0  0  0  0  0  0  0  0  0  0  0
   -1.9110   19.9280  -33.4170 O   0  0  0  0  0  0  0  0  0  0  0  0
   -1.3430   20.0910  -32.1440 C   0  0  0  0  0  0  0  0  0  0  0  0
   -0.1220   19.4810  -31.7910 C   0  0  0  0  0  0  0  0  0  0  0  0
    0.4310   19.6720  -30.5160 C   0  0  0  0  0  0  0  0  0  0  0  0
    1.7030   19.0140  -30.1570 C   0  0  0  0  0  0  0  0  0  0  0  0
    2.7490   19.3210  -30.7900 O   0  0  0  0  0  0  0  0  0  0  0  0
    1.7760   18.0420  -29.0970 N   0  0  0  0  0  0  0  0  0  0  0  0
    2.9320   17.9280  -28.2220 C   0  0  0  0  0  0  0  0  0  0  0  0
    2.5360   16.9660  -27.1120 C   0  0  2  0  0  0  0  0  0  0  0  0
    2.2120   15.5400  -27.5350 C   0  0  0  0  0  0  0  0  0  0  0  0
    1.0940   16.5590  -27.3630 C   0  0  2  0  0  0  0  0  0  0  0  0
    0.6340   17.2680  -28.6290 C   0  0  0  0  0  0  0  0  0  0  0  0
   -0.2630   20.4420  -29.5750 C   0  0  0  0  0  0  0  0  0  0  0  0
   -1.4730   21.0490  -29.9140 C   0  0  0  0  0  0  0  0  0  0  0  0
   -2.0130   20.8950  -31.2020 C   0  0  0  0  0  0  0  0  0  0  0  0
   -3.2730   21.4980  -31.5460 N   0  0  0  0  0  0  0  0  0  0  0  0
   -3.8980   22.5360  -30.7770 C   0  0  0  0  0  0  0  0  0  0  0  0
   -3.2420   23.1690  -29.9060 O   0  0  0  0  0  0  0  0  0  0  0  0
   -5.2730   22.8750  -31.0170 N   0  0  0  0  0  0  0  0  0  0  0  0
   -5.8890   24.0740  -30.8110 C   0  0  0  0  0  0  0  0  0  0  0  0
   -5.2240   25.3370  -30.4290 C   0  0  0  0  0  0  0  0  0  0  0  0
   -3.8950   25.6260  -30.8550 N   0  0  0  0  0  0  0  0  0  0  0  0
   -5.8540   26.1930  -29.7520 O   0  0  0  0  0  0  0  0  0  0  0  0
   -7.2520   23.9730  -31.0850 C   0  0  0  0  0  0  0  0  0  0  0  0
   -7.4520   22.6670  -31.4710 C   0  0  0  0  0  0  0  0  0  0  0  0
   -8.6190   22.0150  -31.8540 C   0  0  0  0  0  0  0  0  0  0  0  0
   -8.5350   20.6510  -32.1800 C   0  0  0  0  0  0  0  0  0  0  0  0
   -7.3000   19.9580  -32.0900 C   0  0  0  0  0  0  0  0  0  0  0  0
   -7.2150   18.5030  -32.4770 C   0  0  0  0  0  0  0  0  0  0  0  0
   -6.3020   17.8660  -31.6590 F   0  0  0  0  0  0  0  0  0  0  0  0
   -8.4490   17.8890  -32.3410 F   0  0  0  0  0  0  0  0  0  0  0  0
   -6.8100   18.3710  -33.7950 F   0  0  0  0  0  0  0  0  0  0  0  0
   -6.1320   20.6630  -31.7170 C   0  0  0  0  0  0  0  0  0  0  0  0
   -6.2430   22.0250  -31.4180 C   0  0  0  0  0  0  0  0  0  0  0  0
   -3.4986   18.7749  -32.7593 H   0  0  0  0  0  0  0  0  0  0  0  0
   -3.7745   19.6846  -34.2834 H   0  0  0  0  0  0  0  0  0  0  0  0
   -2.7189   18.2312  -34.2834 H   0  0  0  0  0  0  0  0  0  0  0  0
    0.4024   18.8489  -32.5228 H   0  0  0  0  0  0  0  0  0  0  0  0
    3.1885   18.9110  -27.8002 H   0  0  0  0  0  0  0  0  0  0  0  0
    3.8133   17.5638  -28.7703 H   0  0  0  0  0  0  0  0  0  0  0  0
    3.1613   17.3629  -26.2987 H   0  0  0  0  0  0  0  0  0  0  0  0
    2.3198   14.7146  -26.8159 H   0  0  0  0  0  0  0  0  0  0  0  0
    2.5412   14.8749  -28.3469 H   0  0  0  0  0  0  0  0  0  0  0  0
    0.1368   16.5144  -26.8229 H   0  0  0  0  0  0  0  0  0  0  0  0
   -0.2132   17.9337  -28.4072 H   0  0  0  0  0  0  0  0  0  0  0  0
    0.2959   16.5503  -29.3909 H   0  0  0  0  0  0  0  0  0  0  0  0
    0.1479   20.5693  -28.5626 H   0  0  0  0  0  0  0  0  0  0  0  0
   -2.0084   21.6530  -29.1667 H   0  0  0  0  0  0  0  0  0  0  0  0
   -3.7370   21.2140  -32.4380 H   0  0  0  0  0  0  0  0  0  0  0  0
   -3.0720   25.3040  -30.2990 H   0  0  0  0  0  0  0  0  0  0  0  0
   -8.0078   24.7686  -31.0089 H   0  0  0  0  0  0  0  0  0  0  0  0
   -9.5786   22.5508  -31.9003 H   0  0  0  0  0  0  0  0  0  0  0  0
   -9.4370   20.1141  -32.5088 H   0  0  0  0  0  0  0  0  0  0  0  0
   -5.1592   20.1523  -31.6633 H   0  0  0  0  0  0  0  0  0  0  0  0
  1  2  1  0
  2  3  1  0
  3  4  2  0
  4  5  1  0
  5  6  1  0
  6  7  2  0
  6  8  1  0
  8  9  1  0
  9 10  1  0
 10 11  1  0
 11 12  1  0
 12 13  1  0
  5 14  2  0
 14 15  1  0
 15 16  2  0
 16 17  1  0
 17 18  1  0
 18 19  2  0
 18 20  1  0
 20 21  1  0
 21 22  1  0
 22 23  1  0
 22 24  2  0
 21 25  2  0
 25 26  1  0
 26 27  2  0
 27 28  1  0
 28 29  2  0
 29 30  1  0
 30 31  1  0
 30 32  1  0
 30 33  1  0
 29 34  1  0
 34 35  2  0
 16  3  1  0
 35 20  1  0
 13  8  1  0
 35 26  1  0
 12 10  1  0
  1 36  1  0
  1 37  1  0
  1 38  1  0
  4 39  1  0
  9 40  1  0
  9 41  1  0
 10 42  1  1
 11 43  1  0
 11 44  1  0
 12 45  1  1
 13 46  1  0
 13 47  1  0
 14 48  1  0
 15 49  1  0
 17 50  1  0
 23 51  1  0
 25 52  1  0
 27 53  1  0
 28 54  1  0
 34 55  1  0
M  CHG  1  23  -1
M  END
>  <UniqueID>  (64) 
64

>  <SMILES>  (64) 
COc1cc(C(=O)N2C[C@H]3C[C@H]3C2)ccc1NC(=O)n1c(C([NH-])=O)cc2ccc(C(F)(F)F)cc21

>  <Energy>  (64) 
372.27050303755476

>  <Genealogy>  (64) 
COc1cc(C(=O)N2CC3CC3C2)ccc1NC(=O)n1c(C([NH-])=O)cc2ccc(C(F)(F)F)cc21 (protonated)
COc1cc(C(=O)N2C[C@H]3C[C@H]3C2)ccc1NC(=O)n1c(C([NH-])=O)cc2ccc(C(F)(F)F)cc21 (chirality)
COc1cc(C(=O)N2C[C@H]3C[C@H]3C2)ccc1NC(=O)n1c(C([NH-])=O)cc2ccc(C(F)(F)F)cc21 (3D coordinates assigned)
COc1cc(C(=O)N2C[C@H]3C[C@H]3C2)ccc1NC(=O)n1c(C([NH-])=O)cc2ccc(C(F)(F)F)cc21 (nonaromatic ring conformer: 372.27050303755476 kcal/mol)

>  <smiles>  (64) 
COc1cc(C(=O)N2CC3CC3C2)ccc1NC(=O)n1c(C(N)=O)cc2ccc(C(F)(F)F)cc21

>  <score_type>  (64) 
oracle

>  <origin>  (64) 
adg

>  <m_score__min__energy>  (64) 
-11.19

>  <m_primary>  (64) 
energy

$$$$
64:0
     RDKit          3D

 52 54  0  0  0  0  0  0  0  0999 V2000
    1.1550   19.9980  -32.4440 C   0  0  0  0  0  0  0  0  0  0  0  0
   -0.1000   20.6470  -32.8350 N   0  0  0  0  0  0  0  0  0  0  0  0
   -0.9440   21.2510  -31.8300 C   0  0  0  0  0  0  0  0  0  0  0  0
   -0.4660   21.4990  -30.6890 O   0  0  0  0  0  0  0  0  0  0  0  0
   -2.3080   21.5940  -32.1250 N   0  0  0  0  0  0  0  0  0  0  0  0
   -3.0940   22.4810  -31.3110 C   0  0  0  0  0  0  0  0  0  0  0  0
   -2.5450   23.1880  -30.4220 O   0  0  0  0  0  0  0  0  0  0  0  0
   -4.5170   22.5500  -31.4900 N   0  0  0  0  0  0  0  0  0  0  0  0
   -5.3500   23.5970  -31.2230 C   0  0  0  0  0  0  0  0  0  0  0  0
   -4.9940   24.8170  -30.4630 C   0  0  0  0  0  0  0  0  0  0  0  0
   -3.8620   25.6060  -30.8250 N   0  0  0  0  0  0  0  0  0  0  0  0
   -5.6600   25.1290  -29.4390 O   0  0  0  0  0  0  0  0  0  0  0  0
   -6.6470   23.3100  -31.6440 C   0  0  0  0  0  0  0  0  0  0  0  0
   -6.5890   22.0310  -32.1580 C   0  0  0  0  0  0  0  0  0  0  0  0
   -7.5960   21.2330  -32.6930 C   0  0  0  0  0  0  0  0  0  0  0  0
   -7.2550   19.9380  -33.1120 C   0  0  0  0  0  0  0  0  0  0  0  0
   -5.9180   19.4600  -33.0020 C   0  0  0  0  0  0  0  0  0  0  0  0
   -5.5840   18.1100  -33.3750 N   0  0  0  0  0  0  0  0  0  0  0  0
   -6.4470   16.9950  -32.9650 C   0  0  0  0  0  0  0  0  0  0  0  0
   -6.2400   15.7980  -33.8950 C   0  0  0  0  0  0  0  0  0  0  0  0
   -4.8650   15.4750  -34.0050 O   0  0  0  0  0  0  0  0  0  0  0  0
   -4.1750   16.5390  -34.6290 C   0  0  0  0  0  0  0  0  0  0  0  0
   -4.2010   17.7900  -33.7470 C   0  0  0  0  0  0  0  0  0  0  0  0
   -4.9190   20.3180  -32.4890 C   0  0  0  0  0  0  0  0  0  0  0  0
   -5.2950   21.5950  -32.0490 C   0  0  0  0  0  0  0  0  0  0  0  0
   -0.4310   20.6980  -34.2340 C   0  0  0  0  0  0  0  0  0  0  0  0
   -1.6340   20.8090  -34.6030 O   0  0  0  0  0  0  0  0  0  0  0  0
    0.5890   20.5950  -35.1860 O   0  0  0  0  0  0  0  0  0  0  0  0
    1.7110   21.4710  -35.2230 C   0  0  0  0  0  0  0  0  0  0  0  0
    1.3180   22.7490  -35.8840 C   0  0  0  0  0  0  0  0  0  0  0  0
   -0.0090   23.2520  -35.7290 N   0  0  0  0  0  0  0  0  0  0  0  0
    2.1570   23.3940  -36.5640 O   0  0  0  0  0  0  0  0  0  0  0  0
    1.2232   19.9627  -31.3467 H   0  0  0  0  0  0  0  0  0  0  0  0
    1.1792   18.9744  -32.8460 H   0  0  0  0  0  0  0  0  0  0  0  0
    2.0043   20.5699  -32.8460 H   0  0  0  0  0  0  0  0  0  0  0  0
   -2.7650   21.1810  -32.9670 H   0  0  0  0  0  0  0  0  0  0  0  0
   -2.8930   25.2950  -30.5850 H   0  0  0  0  0  0  0  0  0  0  0  0
   -7.5292   23.9639  -31.5801 H   0  0  0  0  0  0  0  0  0  0  0  0
   -8.6268   21.6058  -32.7845 H   0  0  0  0  0  0  0  0  0  0  0  0
   -8.0320   19.2822  -33.5317 H   0  0  0  0  0  0  0  0  0  0  0  0
   -6.1974   16.7021  -31.9345 H   0  0  0  0  0  0  0  0  0  0  0  0
   -7.4980   17.3151  -33.0200 H   0  0  0  0  0  0  0  0  0  0  0  0
   -6.7826   14.9304  -33.4915 H   0  0  0  0  0  0  0  0  0  0  0  0
   -6.6207   16.0588  -34.8935 H   0  0  0  0  0  0  0  0  0  0  0  0
   -3.1305   16.2403  -34.8018 H   0  0  0  0  0  0  0  0  0  0  0  0
   -4.6685   16.7691  -35.5848 H   0  0  0  0  0  0  0  0  0  0  0  0
   -3.6115   17.6067  -32.8366 H   0  0  0  0  0  0  0  0  0  0  0  0
   -3.7710   18.6352  -34.3045 H   0  0  0  0  0  0  0  0  0  0  0  0
   -3.8700   19.9912  -32.4361 H   0  0  0  0  0  0  0  0  0  0  0  0
    2.0500   21.6772  -34.1971 H   0  0  0  0  0  0  0  0  0  0  0  0
    2.5277   20.9995  -35.7894 H   0  0  0  0  0  0  0  0  0  0  0  0
   -0.7860   22.6320  -35.4000 H   0  0  0  0  0  0  0  0  0  0  0  0
  1  2  1  0
  2  3  1  0
  3  4  2  0
  3  5  1  0
  5  6  1  0
  6  7  2  0
  6  8  1  0
  8  9  1  0
  9 10  1  0
 10 11  1  0
 10 12  2  0
  9 13  2  0
 13 14  1  0
 14 15  2  0
 15 16  1  0
 16 17  2  0
 17 18  1  0
 18 19  1  0
 19 20  1  0
 20 21  1  0
 21 22  1  0
 22 23  1  0
 17 24  1  0
 24 25  2  0
  2 26  1  0
 26 27  2  0
 26 28  1  0
 28 29  1  0
 29 30  1  0
 30 31  1  0
 30 32  2  0
 25  8  1  0
 25 14  1  0
 23 18  1  0
  1 33  1  0
  1 34  1  0
  1 35  1  0
  5 36  1  0
 11 37  1  0
 13 38  1  0
 15 39  1  0
 16 40  1  0
 19 41  1  0
 19 42  1  0
 20 43  1  0
 20 44  1  0
 22 45  1  0
 22 46  1  0
 23 47  1  0
 23 48  1  0
 24 49  1  0
 29 50  1  0
 29 51  1  0
 31 52  1  0
M  CHG  2  11  -1  31  -1
M  END
>  <UniqueID>  (65) 
65

>  <SMILES>  (65) 
CN(C(=O)NC(=O)n1c(C([NH-])=O)cc2ccc(N3CCOCC3)cc21)C(=O)OCC([NH-])=O

>  <Energy>  (65) 
99.43326609550853

>  <Genealogy>  (65) 
CN(C(=O)NC(=O)n1c(C([NH-])=O)cc2ccc(N3CCOCC3)cc21)C(=O)OCC([NH-])=O (protonated)
CN(C(=O)NC(=O)n1c(C([NH-])=O)cc2ccc(N3CCOCC3)cc21)C(=O)OCC([NH-])=O (3D coordinates assigned)
CN(C(=O)NC(=O)n1c(C([NH-])=O)cc2ccc(N3CCOCC3)cc21)C(=O)OCC([NH-])=O (nonaromatic ring conformer: 99.43326609550853 kcal/mol)

>  <smiles>  (65) 
CN(C(=O)NC(=O)n1c(C(N)=O)cc2ccc(N3CCOCC3)cc21)C(=O)OCC(N)=O

>  <score_type>  (65) 
oracle

>  <origin>  (65) 
adg

>  <m_score__min__energy>  (65) 
-13.050000000000001

>  <m_primary>  (65) 
energy

$$$$
65:0
     RDKit          3D

 84 86  0  0  0  0  0  0  0  0999 V2000
   -0.2750   16.8630  -32.5160 C   0  0  0  0  0  0  0  0  0  0  0  0
   -0.6730   18.2680  -32.4140 N   0  0  0  0  0  0  0  0  0  0  0  0
   -0.1710   19.0750  -31.3400 C   0  0  0  0  0  0  0  0  0  0  0  0
    1.0710   19.2440  -31.2070 O   0  0  0  0  0  0  0  0  0  0  0  0
   -1.0560   19.6320  -30.4060 O   0  0  0  0  0  0  0  0  0  0  0  0
   -0.6060   20.1670  -29.1640 C   0  0  0  0  0  0  0  0  0  0  0  0
   -1.4230   21.2800  -28.8100 O   0  0  0  0  0  0  0  0  0  0  0  0
   -1.0960   22.1820  -27.7940 C   0  0  0  0  0  0  0  0  0  0  0  0
   -1.8750   22.3650  -26.8180 O   0  0  0  0  0  0  0  0  0  0  0  0
    0.1620   22.9780  -27.9160 C   0  0  0  0  0  0  0  0  0  0  0  0
   -0.0480   24.1690  -28.7290 N   0  0  0  0  0  0  0  0  0  0  0  0
   -0.5310   25.4110  -28.2150 C   0  0  0  0  0  0  0  0  0  0  0  0
   -1.2240   26.1740  -28.9420 O   0  0  0  0  0  0  0  0  0  0  0  0
   -0.2250   25.7460  -26.8870 O   0  0  0  0  0  0  0  0  0  0  0  0
   -1.1040   25.6470  -25.7570 C   0  0  0  0  0  0  0  0  0  0  0  0
   -2.4970   25.3040  -26.3010 C   0  0  0  0  0  0  0  0  0  0  0  0
   -0.6370   24.5200  -24.8160 C   0  0  0  0  0  0  0  0  0  0  0  0
   -1.1840   26.9890  -25.0010 C   0  0  0  0  0  0  0  0  0  0  0  0
   -1.3100   18.9130  -33.5220 C   0  0  0  0  0  0  0  0  0  0  0  0
   -2.0630   18.2280  -34.2680 O   0  0  0  0  0  0  0  0  0  0  0  0
   -1.0800   20.3080  -33.8190 N   0  0  0  0  0  0  0  0  0  0  0  0
    0.2930   20.8440  -33.8320 C   0  0  0  0  0  0  0  0  0  0  0  0
    1.0120   20.5840  -35.1670 C   0  0  0  0  0  0  0  0  0  0  0  0
    1.3460   21.8270  -35.9000 N   0  0  0  0  0  0  0  0  0  0  0  0
    2.6380   22.3430  -35.3930 C   0  0  0  0  0  0  0  0  0  0  0  0
    3.0050   23.6920  -36.0430 C   0  0  0  0  0  0  0  0  0  0  0  0
    1.9810   24.1750  -36.8840 O   0  0  0  0  0  0  0  0  0  0  0  0
    0.7720   24.2520  -36.1630 C   0  0  0  0  0  0  0  0  0  0  0  0
    0.2900   22.8530  -35.7360 C   0  0  0  0  0  0  0  0  0  0  0  0
   -2.2150   21.2440  -33.8000 C   0  0  0  0  0  0  0  0  0  0  0  0
   -2.5470   21.6680  -32.3950 C   0  0  0  0  0  0  0  0  0  0  0  0
   -1.6130   21.9150  -31.5830 O   0  0  0  0  0  0  0  0  0  0  0  0
   -3.9100   21.7640  -31.9500 N   0  0  0  0  0  0  0  0  0  0  0  0
   -4.4810   22.7780  -31.2350 C   0  0  0  0  0  0  0  0  0  0  0  0
   -3.7520   23.9310  -30.6480 C   0  0  0  0  0  0  0  0  0  0  0  0
   -2.5510   23.7450  -29.8950 N   0  0  0  0  0  0  0  0  0  0  0  0
   -4.1810   25.0970  -30.8290 O   0  0  0  0  0  0  0  0  0  0  0  0
   -5.8460   22.5490  -31.0710 C   0  0  0  0  0  0  0  0  0  0  0  0
   -6.0960   21.3600  -31.7120 C   0  0  0  0  0  0  0  0  0  0  0  0
   -7.2900   20.6640  -31.8640 C   0  0  0  0  0  0  0  0  0  0  0  0
   -7.2650   19.4700  -32.6060 C   0  0  0  0  0  0  0  0  0  0  0  0
   -6.0650   19.0180  -33.2130 C   0  0  0  0  0  0  0  0  0  0  0  0
   -6.0450   17.7270  -33.9920 C   0  0  0  0  0  0  0  0  0  0  0  0
   -5.9390   17.9770  -35.3490 F   0  0  0  0  0  0  0  0  0  0  0  0
   -4.9660   16.9440  -33.6150 F   0  0  0  0  0  0  0  0  0  0  0  0
   -7.2150   17.0250  -33.7510 F   0  0  0  0  0  0  0  0  0  0  0  0
   -4.8690   19.7440  -33.0150 C   0  0  0  0  0  0  0  0  0  0  0  0
   -4.9160   20.9110  -32.2420 C   0  0  0  0  0  0  0  0  0  0  0  0
   -0.1556   16.4416  -31.5070 H   0  0  0  0  0  0  0  0  0  0  0  0
   -1.0493   16.3010  -33.0588 H   0  0  0  0  0  0  0  0  0  0  0  0
    0.6790   16.7906  -33.0588 H   0  0  0  0  0  0  0  0  0  0  0  0
   -0.6773   19.3952  -28.3835 H   0  0  0  0  0  0  0  0  0  0  0  0
    0.4406   20.4920  -29.2589 H   0  0  0  0  0  0  0  0  0  0  0  0
    0.4936   23.2820  -26.9122 H   0  0  0  0  0  0  0  0  0  0  0  0
    0.9254   22.3529  -28.4023 H   0  0  0  0  0  0  0  0  0  0  0  0
   -3.1869   25.1341  -25.4613 H   0  0  0  0  0  0  0  0  0  0  0  0
   -2.8661   26.1381  -26.9159 H   0  0  0  0  0  0  0  0  0  0  0  0
   -2.4366   24.3939  -26.9159 H   0  0  0  0  0  0  0  0  0  0  0  0
   -0.7683   24.8370  -23.7709 H   0  0  0  0  0  0  0  0  0  0  0  0
   -1.2343   23.6154  -25.0026 H   0  0  0  0  0  0  0  0  0  0  0  0
    0.4251   24.3030  -25.0026 H   0  0  0  0  0  0  0  0  0  0  0  0
   -1.1728   26.8006  -23.9173 H   0  0  0  0  0  0  0  0  0  0  0  0
   -0.3216   27.6152  -25.2733 H   0  0  0  0  0  0  0  0  0  0  0  0
   -2.1147   27.5083  -25.2733 H   0  0  0  0  0  0  0  0  0  0  0  0
    0.2500   21.9296  -33.6596 H   0  0  0  0  0  0  0  0  0  0  0  0
    0.8601   20.3321  -33.0406 H   0  0  0  0  0  0  0  0  0  0  0  0
    1.9444   20.0377  -34.9616 H   0  0  0  0  0  0  0  0  0  0  0  0
    0.3254   20.0042  -35.8013 H   0  0  0  0  0  0  0  0  0  0  0  0
    2.5651   22.4796  -34.3040 H   0  0  0  0  0  0  0  0  0  0  0  0
    3.4224   21.6146  -35.6461 H   0  0  0  0  0  0  0  0  0  0  0  0
    3.1879   24.4300  -35.2481 H   0  0  0  0  0  0  0  0  0  0  0  0
    3.9026   23.5363  -36.6595 H   0  0  0  0  0  0  0  0  0  0  0  0
    0.9281   24.8677  -35.2649 H   0  0  0  0  0  0  0  0  0  0  0  0
    0.0064   24.7018  -36.8123 H   0  0  0  0  0  0  0  0  0  0  0  0
   -0.0093   22.8883  -34.6781 H   0  0  0  0  0  0  0  0  0  0  0  0
   -0.5567   22.5745  -36.3806 H   0  0  0  0  0  0  0  0  0  0  0  0
   -1.9558   22.1343  -34.3917 H   0  0  0  0  0  0  0  0  0  0  0  0
   -3.0924   20.7364  -34.2272 H   0  0  0  0  0  0  0  0  0  0  0  0
   -2.1250   22.8060  -29.7530 H   0  0  0  0  0  0  0  0  0  0  0  0
   -2.0510   24.5720  -29.4980 H   0  0  0  0  0  0  0  0  0  0  0  0
   -6.5697   23.1854  -30.5407 H   0  0  0  0  0  0  0  0  0  0  0  0
   -8.2243   21.0356  -31.4180 H   0  0  0  0  0  0  0  0  0  0  0  0
   -8.1864   18.8795  -32.7171 H   0  0  0  0  0  0  0  0  0  0  0  0
   -3.9225   19.4004  -33.4579 H   0  0  0  0  0  0  0  0  0  0  0  0
  1  2  1  0
  2  3  1  0
  3  4  2  0
  3  5  1  0
  5  6  1  0
  6  7  1  0
  7  8  1  0
  8  9  2  0
  8 10  1  0
 10 11  1  0
 11 12  1  0
 12 13  2  0
 12 14  1  0
 14 15  1  0
 15 16  1  0
 15 17  1  0
 15 18  1  0
  2 19  1  0
 19 20  2  0
 19 21  1  0
 21 22  1  0
 22 23  1  0
 23 24  1  0
 24 25  1  0
 25 26  1  0
 26 27  1  0
 27 28  1  0
 28 29  1  0
 21 30  1  0
 30 31  1  0
 31 32  2  0
 31 33  1  0
 33 34  1  0
 34 35  1  0
 35 36  1  0
 35 37  2  0
 34 38  2  0
 38 39  1  0
 39 40  2  0
 40 41  1  0
 41 42  2  0
 42 43  1  0
 43 44  1  0
 43 45  1  0
 43 46  1  0
 42 47  1  0
 47 48  2  0
 29 24  1  0
 48 33  1  0
 48 39  1  0
  1 49  1  0
  1 50  1  0
  1 51  1  0
  6 52  1  0
  6 53  1  0
 10 54  1  0
 10 55  1  0
 16 56  1  0
 16 57  1  0
 16 58  1  0
 17 59  1  0
 17 60  1  0
 17 61  1  0
 18 62  1  0
 18 63  1  0
 18 64  1  0
 22 65  1  0
 22 66  1  0
 23 67  1  0
 23 68  1  0
 25 69  1  0
 25 70  1  0
 26 71  1  0
 26 72  1  0
 28 73  1  0
 28 74  1  0
 29 75  1  0
 29 76  1  0
 30 77  1  0
 30 78  1  0
 36 79  1  0
 36 80  1  0
 38 81  1  0
 40 82  1  0
 41 83  1  0
 47 84  1  0
M  CHG  1  11  -1
M  END
>  <UniqueID>  (66) 
66

>  <SMILES>  (66) 
CN(C(=O)OCOC(=O)C[N-]C(=O)OC(C)(C)C)C(=O)N(CCN1CCOCC1)CC(=O)n1c(C(N)=O)cc2ccc(C(F)(F)F)cc21

>  <Energy>  (66) 
124.35594074345173

>  <Genealogy>  (66) 
CN(C(=O)OCOC(=O)C[N-]C(=O)OC(C)(C)C)C(=O)N(CCN1CCOCC1)CC(=O)n1c(C(N)=O)cc2ccc(C(F)(F)F)cc21 (protonated)
CN(C(=O)OCOC(=O)C[N-]C(=O)OC(C)(C)C)C(=O)N(CCN1CCOCC1)CC(=O)n1c(C(N)=O)cc2ccc(C(F)(F)F)cc21 (3D coordinates assigned)
CN(C(=O)OCOC(=O)C[N-]C(=O)OC(C)(C)C)C(=O)N(CCN1CCOCC1)CC(=O)n1c(C(N)=O)cc2ccc(C(F)(F)F)cc21 (nonaromatic ring conformer: 124.35594074345173 kcal/mol)

>  <smiles>  (66) 
CN(C(=O)OCOC(=O)CNC(=O)OC(C)(C)C)C(=O)N(CCN1CCOCC1)CC(=O)n1c(C(N)=O)cc2ccc(C(F)(F)F)cc21

>  <score_type>  (66) 
oracle

>  <origin>  (66) 
adg

>  <m_score__min__energy>  (66) 
-11.41

>  <m_primary>  (66) 
energy

$$$$
66:0
     RDKit          3D

 56 57  0  0  0  0  0  0  0  0999 V2000
   -9.6530   21.8250  -31.3070 C   0  0  0  0  0  0  0  0  0  0  0  0
   -8.6340   20.8360  -31.7850 C   0  0  0  0  0  0  0  0  0  0  0  0
   -9.0360   19.5280  -32.1480 C   0  0  0  0  0  0  0  0  0  0  0  0
   -8.1040   18.6090  -32.6600 C   0  0  0  0  0  0  0  0  0  0  0  0
   -6.7850   19.0270  -32.7960 C   0  0  0  0  0  0  0  0  0  0  0  0
   -5.6930   18.3610  -33.3070 C   0  0  0  0  0  0  0  0  0  0  0  0
   -4.6340   19.2730  -33.2370 C   0  0  0  0  0  0  0  0  0  0  0  0
   -3.2680   19.0210  -33.7640 C   0  0  0  0  0  0  0  0  0  0  0  0
   -2.5290   20.0470  -34.4370 N   0  0  0  0  0  0  0  0  0  0  0  0
   -2.7240   17.9000  -33.5880 O   0  0  0  0  0  0  0  0  0  0  0  0
   -5.0590   20.4440  -32.6840 N   0  0  0  0  0  0  0  0  0  0  0  0
   -4.2720   21.6180  -32.4320 C   0  0  0  0  0  0  0  0  0  0  0  0
   -3.8790   22.3190  -33.4030 O   0  0  0  0  0  0  0  0  0  0  0  0
   -3.8390   21.9370  -31.0970 N   0  0  0  0  0  0  0  0  0  0  0  0
   -2.5300   21.4820  -30.6100 C   0  0  0  0  0  0  0  0  0  0  0  0
   -1.4070   21.8640  -31.5910 C   0  0  0  0  0  0  0  0  0  0  0  0
   -0.3670   20.7500  -31.8020 C   0  0  0  0  0  0  0  0  0  0  0  0
   -0.2470   20.3590  -33.2250 N   0  0  0  0  0  0  0  0  0  0  0  0
    0.2300   21.5040  -34.0210 C   0  0  0  0  0  0  0  0  0  0  0  0
    0.6900   19.2320  -33.3940 C   0  0  0  0  0  0  0  0  0  0  0  0
   -4.6730   22.8020  -30.2550 C   0  0  0  0  0  0  0  0  0  0  0  0
   -4.3890   24.2480  -30.5230 C   0  0  0  0  0  0  0  0  0  0  0  0
   -5.0970   24.8920  -31.3460 O   0  0  0  0  0  0  0  0  0  0  0  0
   -3.3550   24.8780  -29.8270 O   0  0  0  0  0  0  0  0  0  0  0  0
   -2.4950   24.1830  -28.9280 C   0  0  0  0  0  0  0  0  0  0  0  0
   -1.1920   24.9030  -28.8310 C   0  0  0  0  0  0  0  0  0  0  0  0
   -1.1450   26.3230  -28.9590 N   0  0  0  0  0  0  0  0  0  0  0  0
   -0.1290   24.2570  -28.6230 O   0  0  0  0  0  0  0  0  0  0  0  0
   -6.3780   20.2860  -32.4400 C   0  0  0  0  0  0  0  0  0  0  0  0
   -7.2860   21.2300  -31.9480 C   0  0  0  0  0  0  0  0  0  0  0  0
   -9.6649   21.8366  -30.2071 H   0  0  0  0  0  0  0  0  0  0  0  0
   -9.3956   22.8267  -31.6815 H   0  0  0  0  0  0  0  0  0  0  0  0
  -10.6466   21.5377  -31.6815 H   0  0  0  0  0  0  0  0  0  0  0  0
  -10.0875   19.2282  -32.0282 H   0  0  0  0  0  0  0  0  0  0  0  0
   -8.4086   17.5909  -32.9442 H   0  0  0  0  0  0  0  0  0  0  0  0
   -5.6603   17.3301  -33.6893 H   0  0  0  0  0  0  0  0  0  0  0  0
   -2.8800   21.0280  -34.5070 H   0  0  0  0  0  0  0  0  0  0  0  0
   -1.5940   19.8280  -34.8500 H   0  0  0  0  0  0  0  0  0  0  0  0
   -2.3282   21.9486  -29.6345 H   0  0  0  0  0  0  0  0  0  0  0  0
   -2.5544   20.3861  -30.5185 H   0  0  0  0  0  0  0  0  0  0  0  0
   -1.8617   22.1038  -32.5635 H   0  0  0  0  0  0  0  0  0  0  0  0
   -0.8756   22.7223  -31.1541 H   0  0  0  0  0  0  0  0  0  0  0  0
    0.6116   21.1075  -31.4491 H   0  0  0  0  0  0  0  0  0  0  0  0
   -0.6985   19.8670  -31.2360 H   0  0  0  0  0  0  0  0  0  0  0  0
    0.5641   22.3059  -33.3462 H   0  0  0  0  0  0  0  0  0  0  0  0
    1.0700   21.1849  -34.6554 H   0  0  0  0  0  0  0  0  0  0  0  0
   -0.5881   21.8757  -34.6554 H   0  0  0  0  0  0  0  0  0  0  0  0
    0.9988   18.8606  -32.4057 H   0  0  0  0  0  0  0  0  0  0  0  0
    0.1943   18.4234  -33.9511 H   0  0  0  0  0  0  0  0  0  0  0  0
    1.5755   19.5718  -33.9511 H   0  0  0  0  0  0  0  0  0  0  0  0
   -5.7327   22.5981  -30.4684 H   0  0  0  0  0  0  0  0  0  0  0  0
   -4.4443   22.5898  -29.2002 H   0  0  0  0  0  0  0  0  0  0  0  0
   -2.9636   24.1370  -27.9339 H   0  0  0  0  0  0  0  0  0  0  0  0
   -2.3234   23.1620  -29.2996 H   0  0  0  0  0  0  0  0  0  0  0  0
   -0.8850   26.7720  -29.8650 H   0  0  0  0  0  0  0  0  0  0  0  0
   -6.9603   22.2498  -31.6952 H   0  0  0  0  0  0  0  0  0  0  0  0
  1  2  1  0
  2  3  2  0
  3  4  1  0
  4  5  2  0
  5  6  1  0
  6  7  2  0
  7  8  1  0
  8  9  1  0
  8 10  2  0
  7 11  1  0
 11 12  1  0
 12 13  2  0
 12 14  1  0
 14 15  1  0
 15 16  1  0
 16 17  1  0
 17 18  1  0
 18 19  1  0
 18 20  1  0
 14 21  1  0
 21 22  1  0
 22 23  2  0
 22 24  1  0
 24 25  1  0
 25 26  1  0
 26 27  1  0
 26 28  2  0
 11 29  1  0
 29 30  2  0
 30  2  1  0
 29  5  1  0
  1 31  1  0
  1 32  1  0
  1 33  1  0
  3 34  1  0
  4 35  1  0
  6 36  1  0
  9 37  1  0
  9 38  1  0
 15 39  1  0
 15 40  1  0
 16 41  1  0
 16 42  1  0
 17 43  1  0
 17 44  1  0
 19 45  1  0
 19 46  1  0
 19 47  1  0
 20 48  1  0
 20 49  1  0
 20 50  1  0
 21 51  1  0
 21 52  1  0
 25 53  1  0
 25 54  1  0
 27 55  1  0
 30 56  1  0
M  CHG  1  27  -1
M  END
>  <UniqueID>  (67) 
67

>  <SMILES>  (67) 
Cc1ccc2cc(C(N)=O)n(C(=O)N(CCCN(C)C)CC(=O)OCC([NH-])=O)c2c1

>  <Energy>  (67) 
91.28870601602361

>  <Genealogy>  (67) 
Cc1ccc2cc(C(N)=O)n(C(=O)N(CCCN(C)C)CC(=O)OCC([NH-])=O)c2c1 (protonated)
Cc1ccc2cc(C(N)=O)n(C(=O)N(CCCN(C)C)CC(=O)OCC([NH-])=O)c2c1 (3D coordinates assigned)
Cc1ccc2cc(C(N)=O)n(C(=O)N(CCCN(C)C)CC(=O)OCC([NH-])=O)c2c1 (optimized conformer: 91.28870601602361 kcal/mol)

>  <smiles>  (67) 
Cc1ccc2cc(C(N)=O)n(C(=O)N(CCCN(C)C)CC(=O)OCC(N)=O)c2c1

>  <score_type>  (67) 
oracle

>  <origin>  (67) 
adg

>  <m_score__min__energy>  (67) 
-12.24

>  <m_primary>  (67) 
energy

$$$$
67:0
     RDKit          3D

 49 50  0  0  0  0  0  0  0  0999 V2000
   -6.4080   17.3630  -34.5590 C   0  0  0  0  0  0  0  0  0  0  0  0
   -5.1110   17.7980  -33.9450 C   0  0  0  0  0  0  0  0  0  0  0  0
   -4.0210   16.8950  -33.8930 C   0  0  0  0  0  0  0  0  0  0  0  0
   -2.7840   17.3010  -33.3590 C   0  0  0  0  0  0  0  0  0  0  0  0
   -2.6700   18.6060  -32.8860 C   0  0  0  0  0  0  0  0  0  0  0  0
   -1.5790   19.2710  -32.3700 C   0  0  0  0  0  0  0  0  0  0  0  0
   -2.0300   20.5610  -32.1000 C   0  0  0  0  0  0  0  0  0  0  0  0
   -1.1770   21.6230  -31.5300 C   0  0  0  0  0  0  0  0  0  0  0  0
   -1.7400   22.7210  -30.8110 N   0  0  0  0  0  0  0  0  0  0  0  0
    0.0740   21.5380  -31.6430 O   0  0  0  0  0  0  0  0  0  0  0  0
   -3.3430   20.6910  -32.4350 N   0  0  0  0  0  0  0  0  0  0  0  0
   -4.1200   21.8980  -32.4440 C   0  0  0  0  0  0  0  0  0  0  0  0
   -4.1300   22.6070  -33.4860 O   0  0  0  0  0  0  0  0  0  0  0  0
   -4.8950   22.3060  -31.2500 C   0  0  0  0  0  0  0  0  0  0  0  0
   -4.5720   21.8300  -30.1300 O   0  0  0  0  0  0  0  0  0  0  0  0
   -6.0060   23.2260  -31.3310 N   0  0  0  0  0  0  0  0  0  0  0  0
   -7.3540   22.7510  -31.6480 C   0  0  0  0  0  0  0  0  0  0  0  0
   -5.7680   24.6680  -31.1960 C   0  0  0  0  0  0  0  0  0  0  0  0
   -4.9770   24.9750  -29.9260 C   0  0  0  0  0  0  0  0  0  0  0  0
   -3.5540   25.0170  -30.2400 N   0  0  0  0  0  0  0  0  0  0  0  0
   -2.5380   24.8170  -29.2570 C   0  0  0  0  0  0  0  0  0  0  0  0
   -2.4790   23.7150  -28.6500 O   0  0  0  0  0  0  0  0  0  0  0  0
   -1.5960   25.8570  -28.9680 N   0  0  0  0  0  0  0  0  0  0  0  0
   -0.8290   25.9300  -27.7300 C   0  0  0  0  0  0  0  0  0  0  0  0
    0.2630   24.8570  -27.7090 C   0  0  0  0  0  0  0  0  0  0  0  0
    0.2890   24.1630  -28.9250 O   0  0  0  0  0  0  0  0  0  0  0  0
   -3.7190   19.4880  -32.9240 C   0  0  0  0  0  0  0  0  0  0  0  0
   -4.9510   19.1240  -33.4800 C   0  0  0  0  0  0  0  0  0  0  0  0
   -7.1278   17.1216  -33.7630 H   0  0  0  0  0  0  0  0  0  0  0  0
   -6.8094   18.1757  -35.1822 H   0  0  0  0  0  0  0  0  0  0  0  0
   -6.2383   16.4726  -35.1822 H   0  0  0  0  0  0  0  0  0  0  0  0
   -4.1422   15.8697  -34.2725 H   0  0  0  0  0  0  0  0  0  0  0  0
   -1.9313   16.6074  -33.3164 H   0  0  0  0  0  0  0  0  0  0  0  0
   -0.5682   18.8692  -32.2063 H   0  0  0  0  0  0  0  0  0  0  0  0
   -1.1230   23.4890  -30.4690 H   0  0  0  0  0  0  0  0  0  0  0  0
   -2.7440   22.7310  -30.5360 H   0  0  0  0  0  0  0  0  0  0  0  0
   -7.9034   22.5574  -30.7149 H   0  0  0  0  0  0  0  0  0  0  0  0
   -7.8842   23.5164  -32.2336 H   0  0  0  0  0  0  0  0  0  0  0  0
   -7.2872   21.8223  -32.2336 H   0  0  0  0  0  0  0  0  0  0  0  0
   -5.1994   25.0221  -32.0685 H   0  0  0  0  0  0  0  0  0  0  0  0
   -6.7398   25.1798  -31.1362 H   0  0  0  0  0  0  0  0  0  0  0  0
   -5.2928   25.9487  -29.5233 H   0  0  0  0  0  0  0  0  0  0  0  0
   -5.1651   24.1912  -29.1775 H   0  0  0  0  0  0  0  0  0  0  0  0
   -0.3619   26.9228  -27.6521 H   0  0  0  0  0  0  0  0  0  0  0  0
   -1.5083   25.7616  -26.8813 H   0  0  0  0  0  0  0  0  0  0  0  0
    1.2392   25.3365  -27.5444 H   0  0  0  0  0  0  0  0  0  0  0  0
    0.0493   24.1463  -26.8971 H   0  0  0  0  0  0  0  0  0  0  0  0
   -0.5560   24.3830  -29.3980 H   0  0  0  0  0  0  0  0  0  0  0  0
   -5.7736   19.8507  -33.5534 H   0  0  0  0  0  0  0  0  0  0  0  0
  1  2  1  0
  2  3  2  0
  3  4  1  0
  4  5  2  0
  5  6  1  0
  6  7  2  0
  7  8  1  0
  8  9  1  0
  8 10  2  0
  7 11  1  0
 11 12  1  0
 12 13  2  0
 12 14  1  0
 14 15  2  0
 14 16  1  0
 16 17  1  0
 16 18  1  0
 18 19  1  0
 19 20  1  0
 20 21  1  0
 21 22  2  0
 21 23  1  0
 23 24  1  0
 24 25  1  0
 25 26  1  0
 11 27  1  0
 27 28  2  0
 28  2  1  0
 27  5  1  0
  1 29  1  0
  1 30  1  0
  1 31  1  0
  3 32  1  0
  4 33  1  0
  6 34  1  0
  9 35  1  0
  9 36  1  0
 17 37  1  0
 17 38  1  0
 17 39  1  0
 18 40  1  0
 18 41  1  0
 19 42  1  0
 19 43  1  0
 24 44  1  0
 24 45  1  0
 25 46  1  0
 25 47  1  0
 26 48  1  0
 28 49  1  0
M  CHG  2  20  -1  23  -1
M  END
>  <UniqueID>  (68) 
68

>  <SMILES>  (68) 
Cc1ccc2cc(C(N)=O)n(C(=O)C(=O)N(C)CC[N-]C(=O)[N-]CCO)c2c1

>  <Energy>  (68) 
80.73933409421831

>  <Genealogy>  (68) 
Cc1ccc2cc(C(N)=O)n(C(=O)C(=O)N(C)CC[N-]C(=O)[N-]CCO)c2c1 (protonated)
Cc1ccc2cc(C(N)=O)n(C(=O)C(=O)N(C)CC[N-]C(=O)[N-]CCO)c2c1 (3D coordinates assigned)
Cc1ccc2cc(C(N)=O)n(C(=O)C(=O)N(C)CC[N-]C(=O)[N-]CCO)c2c1 (optimized conformer: 80.73933409421831 kcal/mol)

>  <smiles>  (68) 
Cc1ccc2cc(C(N)=O)n(C(=O)C(=O)N(C)CCNC(=O)NCCO)c2c1

>  <score_type>  (68) 
oracle

>  <origin>  (68) 
adg

>  <m_score__min__energy>  (68) 
-11.17

>  <m_primary>  (68) 
energy

$$$$
68:0
     RDKit          3D

 38 39  0  0  0  0  0  0  0  0999 V2000
   -7.5260   18.4560  -32.7150 C   0  0  0  0  0  0  0  0  0  0  0  0
   -7.5290   19.8410  -32.1380 C   0  0  0  0  0  0  0  0  0  0  0  0
   -8.7350   20.4100  -31.6600 C   0  0  0  0  0  0  0  0  0  0  0  0
   -8.7530   21.7170  -31.1400 C   0  0  0  0  0  0  0  0  0  0  0  0
   -7.5580   22.4300  -31.1290 C   0  0  0  0  0  0  0  0  0  0  0  0
   -7.2830   23.7000  -30.6710 C   0  0  0  0  0  0  0  0  0  0  0  0
   -5.9230   23.8920  -30.9080 C   0  0  0  0  0  0  0  0  0  0  0  0
   -5.2140   25.1580  -30.6310 C   0  0  0  0  0  0  0  0  0  0  0  0
   -3.8840   25.3470  -31.1070 N   0  0  0  0  0  0  0  0  0  0  0  0
   -5.7610   26.0650  -29.9520 O   0  0  0  0  0  0  0  0  0  0  0  0
   -5.3800   22.7840  -31.4840 N   0  0  0  0  0  0  0  0  0  0  0  0
   -4.0080   22.5450  -31.8330 C   0  0  0  0  0  0  0  0  0  0  0  0
   -3.7400   22.0590  -32.9670 O   0  0  0  0  0  0  0  0  0  0  0  0
   -2.9700   22.7000  -30.8380 N   0  0  2  0  0  0  0  0  0  0  0  0
   -1.9260   21.6700  -31.0140 C   0  0  0  0  0  0  0  0  0  0  0  0
   -3.5880   22.6390  -29.4930 C   0  0  0  0  0  0  0  0  0  0  0  0
   -2.7440   23.3550  -28.4260 C   0  0  0  0  0  0  0  0  0  0  0  0
   -1.7810   24.3030  -29.0700 C   0  0  0  0  0  0  0  0  0  0  0  0
   -0.7760   23.8640  -29.6880 O   0  0  0  0  0  0  0  0  0  0  0  0
   -1.9690   25.6730  -28.9460 O   0  0  0  0  0  0  0  0  0  0  0  0
   -6.3910   21.9010  -31.6150 C   0  0  0  0  0  0  0  0  0  0  0  0
   -6.3390   20.6000  -32.1270 C   0  0  0  0  0  0  0  0  0  0  0  0
   -7.5244   17.7187  -31.8987 H   0  0  0  0  0  0  0  0  0  0  0  0
   -8.4238   18.3150  -33.3347 H   0  0  0  0  0  0  0  0  0  0  0  0
   -6.6276   18.3189  -33.3347 H   0  0  0  0  0  0  0  0  0  0  0  0
   -9.6656   19.8247  -31.6957 H   0  0  0  0  0  0  0  0  0  0  0  0
   -9.6824   22.1614  -30.7543 H   0  0  0  0  0  0  0  0  0  0  0  0
   -7.9873   24.4114  -30.2151 H   0  0  0  0  0  0  0  0  0  0  0  0
   -3.0670   25.2870  -30.4600 H   0  0  0  0  0  0  0  0  0  0  0  0
   -2.5270   23.6400  -30.9650 H   0  0  0  0  0  0  0  0  0  0  0  0
   -1.5789   21.3275  -30.0280 H   0  0  0  0  0  0  0  0  0  0  0  0
   -2.3416   20.8184  -31.5725 H   0  0  0  0  0  0  0  0  0  0  0  0
   -1.0800   22.0971  -31.5725 H   0  0  0  0  0  0  0  0  0  0  0  0
   -4.5786   23.1152  -29.5377 H   0  0  0  0  0  0  0  0  0  0  0  0
   -3.6620   21.5796  -29.2062 H   0  0  0  0  0  0  0  0  0  0  0  0
   -3.4099   23.9161  -27.7539 H   0  0  0  0  0  0  0  0  0  0  0  0
   -2.1772   22.6035  -27.8568 H   0  0  0  0  0  0  0  0  0  0  0  0
   -5.3972   20.1804  -32.5102 H   0  0  0  0  0  0  0  0  0  0  0  0
  1  2  1  0
  2  3  2  0
  3  4  1  0
  4  5  2  0
  5  6  1  0
  6  7  2  0
  7  8  1  0
  8  9  1  0
  8 10  2  0
  7 11  1  0
 11 12  1  0
 12 13  2  0
 12 14  1  0
 14 15  1  0
 14 16  1  0
 16 17  1  0
 17 18  1  0
 18 19  2  0
 18 20  1  0
 11 21  1  0
 21 22  2  0
 22  2  1  0
 21  5  1  0
  1 23  1  0
  1 24  1  0
  1 25  1  0
  3 26  1  0
  4 27  1  0
  6 28  1  0
  9 29  1  0
 14 30  1  6
 15 31  1  0
 15 32  1  0
 15 33  1  0
 16 34  1  0
 16 35  1  0
 17 36  1  0
 17 37  1  0
 22 38  1  0
M  CHG  3   9  -1  14   1  20  -1
M  END
>  <UniqueID>  (69) 
69

>  <SMILES>  (69) 
Cc1ccc2cc(C([NH-])=O)n(C(=O)[N@H+](C)CCC(=O)[O-])c2c1

>  <Energy>  (69) 
76.94223205295863

>  <Genealogy>  (69) 
Cc1ccc2cc(C([NH-])=O)n(C(=O)[NH+](C)CCC(=O)[O-])c2c1 (protonated)
Cc1ccc2cc(C([NH-])=O)n(C(=O)[N@H+](C)CCC(=O)[O-])c2c1 (chirality)
Cc1ccc2cc(C([NH-])=O)n(C(=O)[N@H+](C)CCC(=O)[O-])c2c1 (3D coordinates assigned)
Cc1ccc2cc(C([NH-])=O)n(C(=O)[N@H+](C)CCC(=O)[O-])c2c1 (optimized conformer: 76.94223205295863 kcal/mol)

>  <smiles>  (69) 
Cc1ccc2cc(C(N)=O)n(C(=O)N(C)CCC(=O)O)c2c1

>  <score_type>  (69) 
oracle

>  <origin>  (69) 
adg

>  <m_score__min__energy>  (69) 
-11.02

>  <m_primary>  (69) 
energy

$$$$
69:0
     RDKit          3D

 52 53  0  0  0  0  0  0  0  0999 V2000
   -3.6790   25.2900  -30.4560 N   0  0  0  0  0  0  0  0  0  0  0  0
   -5.0990   25.3450  -30.5730 C   0  0  0  0  0  0  0  0  0  0  0  0
   -5.6930   26.4380  -30.3720 O   0  0  0  0  0  0  0  0  0  0  0  0
   -5.8520   24.1380  -30.9700 C   0  0  0  0  0  0  0  0  0  0  0  0
   -7.2290   24.1290  -31.1860 C   0  0  0  0  0  0  0  0  0  0  0  0
   -7.5470   22.8150  -31.4430 C   0  0  0  0  0  0  0  0  0  0  0  0
   -8.7790   22.2320  -31.7250 C   0  0  0  0  0  0  0  0  0  0  0  0
   -8.8120   20.8480  -31.9730 C   0  0  0  0  0  0  0  0  0  0  0  0
   -7.6190   20.0790  -31.9610 C   0  0  0  0  0  0  0  0  0  0  0  0
   -7.6740   18.5920  -32.1970 C   0  0  0  0  0  0  0  0  0  0  0  0
   -6.8400   17.9560  -31.2980 F   0  0  0  0  0  0  0  0  0  0  0  0
   -8.9650   18.1200  -32.0260 F   0  0  0  0  0  0  0  0  0  0  0  0
   -7.2700   18.2830  -33.4840 F   0  0  0  0  0  0  0  0  0  0  0  0
   -6.3910   20.7060  -31.6430 C   0  0  0  0  0  0  0  0  0  0  0  0
   -6.3910   22.0820  -31.3840 C   0  0  0  0  0  0  0  0  0  0  0  0
   -5.3390   22.8800  -31.0960 N   0  0  0  0  0  0  0  0  0  0  0  0
   -3.9630   22.4770  -31.0200 C   0  0  0  0  0  0  0  0  0  0  0  0
   -3.1630   22.7940  -31.9430 O   0  0  0  0  0  0  0  0  0  0  0  0
   -3.4950   21.7370  -29.8870 N   0  0  0  0  0  0  0  0  0  0  0  0
   -2.5920   22.2840  -28.8810 C   0  0  0  0  0  0  0  0  0  0  0  0
   -1.3160   22.8110  -29.5410 C   0  0  0  0  0  0  0  0  0  0  0  0
   -0.1490   22.4920  -28.7250 N   0  0  0  0  0  0  0  0  0  0  0  0
   -0.2170   21.7680  -27.4920 C   0  0  0  0  0  0  0  0  0  0  0  0
   -0.0680   20.5160  -27.4750 O   0  0  0  0  0  0  0  0  0  0  0  0
   -0.4530   22.5070  -26.2110 C   0  0  0  0  0  0  0  0  0  0  0  0
   -0.4160   23.9040  -26.4270 O   0  0  0  0  0  0  0  0  0  0  0  0
   -1.7200   24.4460  -26.3630 C   0  0  0  0  0  0  0  0  0  0  0  0
   -1.9590   25.3180  -27.5930 C   0  0  0  0  0  0  0  0  0  0  0  0
   -0.7250   25.6810  -28.1830 O   0  0  0  0  0  0  0  0  0  0  0  0
    0.0220   26.4980  -27.3070 C   0  0  0  0  0  0  0  0  0  0  0  0
    1.4390   25.9480  -27.1960 C   0  0  0  0  0  0  0  0  0  0  0  0
    1.5830   24.8080  -27.9980 O   0  0  0  0  0  0  0  0  0  0  0  0
   -3.0960   24.8450  -31.2000 H   0  0  0  0  0  0  0  0  0  0  0  0
   -7.9149   24.9885  -31.1572 H   0  0  0  0  0  0  0  0  0  0  0  0
   -9.6985   22.8351  -31.7530 H   0  0  0  0  0  0  0  0  0  0  0  0
   -9.7739   20.3556  -32.1787 H   0  0  0  0  0  0  0  0  0  0  0  0
   -5.4576   20.1256  -31.6002 H   0  0  0  0  0  0  0  0  0  0  0  0
   -3.0940   23.1080  -28.3528 H   0  0  0  0  0  0  0  0  0  0  0  0
   -2.3242   21.4879  -28.1707 H   0  0  0  0  0  0  0  0  0  0  0  0
   -1.2027   22.3468  -30.5318 H   0  0  0  0  0  0  0  0  0  0  0  0
   -1.3924   23.9038  -29.6406 H   0  0  0  0  0  0  0  0  0  0  0  0
   -1.4390   22.2294  -25.8101 H   0  0  0  0  0  0  0  0  0  0  0  0
    0.3385   22.2381  -25.4960 H   0  0  0  0  0  0  0  0  0  0  0  0
   -2.4574   23.6301  -26.3409 H   0  0  0  0  0  0  0  0  0  0  0  0
   -1.8247   25.0534  -25.4519 H   0  0  0  0  0  0  0  0  0  0  0  0
   -2.5603   24.7577  -28.3241 H   0  0  0  0  0  0  0  0  0  0  0  0
   -2.4925   26.2302  -27.2876 H   0  0  0  0  0  0  0  0  0  0  0  0
    0.0555   27.5248  -27.7001 H   0  0  0  0  0  0  0  0  0  0  0  0
   -0.4510   26.5048  -26.3139 H   0  0  0  0  0  0  0  0  0  0  0  0
    2.1533   26.7165  -27.5263 H   0  0  0  0  0  0  0  0  0  0  0  0
    1.6358   25.6755  -26.1486 H   0  0  0  0  0  0  0  0  0  0  0  0
    0.7080   24.3370  -27.9810 H   0  0  0  0  0  0  0  0  0  0  0  0
  1  2  1  0
  2  3  2  0
  2  4  1  0
  4  5  2  0
  5  6  1  0
  6  7  2  0
  7  8  1  0
  8  9  2  0
  9 10  1  0
 10 11  1  0
 10 12  1  0
 10 13  1  0
  9 14  1  0
 14 15  2  0
 15 16  1  0
 16 17  1  0
 17 18  2  0
 17 19  1  0
 19 20  1  0
 20 21  1  0
 21 22  1  0
 22 23  1  0
 23 24  2  0
 23 25  1  0
 25 26  1  0
 26 27  1  0
 27 28  1  0
 28 29  1  0
 29 30  1  0
 30 31  1  0
 31 32  1  0
 16  4  1  0
 15  6  1  0
  1 33  1  0
  5 34  1  0
  7 35  1  0
  8 36  1  0
 14 37  1  0
 20 38  1  0
 20 39  1  0
 21 40  1  0
 21 41  1  0
 25 42  1  0
 25 43  1  0
 27 44  1  0
 27 45  1  0
 28 46  1  0
 28 47  1  0
 30 48  1  0
 30 49  1  0
 31 50  1  0
 31 51  1  0
 32 52  1  0
M  CHG  3   1  -1  19  -1  22  -1
M  END
>  <UniqueID>  (70) 
70

>  <SMILES>  (70) 
[NH-]C(=O)c1cc2ccc(C(F)(F)F)cc2n1C(=O)[N-]CC[N-]C(=O)COCCOCCO

>  <Energy>  (70) 
84.3842631005508

>  <Genealogy>  (70) 
[NH-]C(=O)c1cc2ccc(C(F)(F)F)cc2n1C(=O)[N-]CC[N-]C(=O)COCCOCCO (protonated)
[NH-]C(=O)c1cc2ccc(C(F)(F)F)cc2n1C(=O)[N-]CC[N-]C(=O)COCCOCCO (3D coordinates assigned)
[NH-]C(=O)c1cc2ccc(C(F)(F)F)cc2n1C(=O)[N-]CC[N-]C(=O)COCCOCCO (optimized conformer: 84.3842631005508 kcal/mol)

>  <smiles>  (70) 
NC(=O)c1cc2ccc(C(F)(F)F)cc2n1C(=O)NCCNC(=O)COCCOCCO

>  <score_type>  (70) 
oracle

>  <origin>  (70) 
adg

>  <m_score__min__energy>  (70) 
-10.449999999999999

>  <m_primary>  (70) 
energy

$$$$
70:0
     RDKit          3D

 41 42  0  0  0  0  0  0  0  0999 V2000
   -7.9060   18.6610  -32.0960 C   0  0  0  0  0  0  0  0  0  0  0  0
   -7.7570   20.1320  -31.8500 C   0  0  0  0  0  0  0  0  0  0  0  0
   -8.8310   21.0120  -32.1350 C   0  0  0  0  0  0  0  0  0  0  0  0
   -8.6840   22.3980  -31.9650 C   0  0  0  0  0  0  0  0  0  0  0  0
   -7.4540   22.8740  -31.5160 C   0  0  0  0  0  0  0  0  0  0  0  0
   -7.0260   24.1660  -31.3200 C   0  0  0  0  0  0  0  0  0  0  0  0
   -5.6960   24.0560  -30.9170 C   0  0  0  0  0  0  0  0  0  0  0  0
   -4.8630   25.2140  -30.5360 C   0  0  0  0  0  0  0  0  0  0  0  0
   -3.5210   25.0350  -30.0900 N   0  0  0  0  0  0  0  0  0  0  0  0
   -5.3570   26.3730  -30.5580 O   0  0  0  0  0  0  0  0  0  0  0  0
   -5.3170   22.7480  -30.8690 N   0  0  0  0  0  0  0  0  0  0  0  0
   -3.9960   22.2280  -30.6510 C   0  0  0  0  0  0  0  0  0  0  0  0
   -3.7810   21.4310  -29.6980 O   0  0  0  0  0  0  0  0  0  0  0  0
   -2.9620   22.5840  -31.5240 O   0  0  0  0  0  0  0  0  0  0  0  0
   -1.7440   21.8540  -31.6460 C   0  0  0  0  0  0  0  0  0  0  0  0
   -0.7320   22.2950  -30.5860 C   0  0  0  0  0  0  0  0  0  0  0  0
   -1.3740   23.1660  -29.6030 N   0  0  0  0  0  0  0  0  0  0  0  0
   -0.6480   24.1650  -28.8670 C   0  0  0  0  0  0  0  0  0  0  0  0
    0.6100   24.1130  -28.8060 O   0  0  0  0  0  0  0  0  0  0  0  0
   -1.3610   25.2610  -28.1830 C   0  0  0  0  0  0  0  0  0  0  0  0
   -1.2490   26.4430  -28.6050 O   0  0  0  0  0  0  0  0  0  0  0  0
   -2.1900   24.9970  -26.9600 C   0  0  0  0  0  0  0  0  0  0  0  0
   -3.5450   24.8950  -27.3050 O   0  0  0  0  0  0  0  0  0  0  0  0
   -6.4060   22.0360  -31.2360 C   0  0  0  0  0  0  0  0  0  0  0  0
   -6.5210   20.6510  -31.4090 C   0  0  0  0  0  0  0  0  0  0  0  0
   -7.9596   18.1318  -31.1332 H   0  0  0  0  0  0  0  0  0  0  0  0
   -8.8274   18.4763  -32.6677 H   0  0  0  0  0  0  0  0  0  0  0  0
   -7.0403   18.2953  -32.6677 H   0  0  0  0  0  0  0  0  0  0  0  0
   -9.7885   20.6054  -32.4926 H   0  0  0  0  0  0  0  0  0  0  0  0
   -9.5144   23.0868  -32.1797 H   0  0  0  0  0  0  0  0  0  0  0  0
   -7.6088   25.0894  -31.4529 H   0  0  0  0  0  0  0  0  0  0  0  0
   -3.1180   25.6460  -29.3440 H   0  0  0  0  0  0  0  0  0  0  0  0
   -1.9532   20.7815  -31.5195 H   0  0  0  0  0  0  0  0  0  0  0  0
   -1.3169   22.0485  -32.6408 H   0  0  0  0  0  0  0  0  0  0  0  0
   -0.3301   21.4069  -30.0763 H   0  0  0  0  0  0  0  0  0  0  0  0
    0.0821   22.8484  -31.0768 H   0  0  0  0  0  0  0  0  0  0  0  0
   -2.4180   23.1610  -29.5620 H   0  0  0  0  0  0  0  0  0  0  0  0
   -1.8618   24.0557  -26.4951 H   0  0  0  0  0  0  0  0  0  0  0  0
   -2.0618   25.8302  -26.2534 H   0  0  0  0  0  0  0  0  0  0  0  0
   -3.6480   25.3340  -28.1890 H   0  0  0  0  0  0  0  0  0  0  0  0
   -5.6696   19.9847  -31.2063 H   0  0  0  0  0  0  0  0  0  0  0  0
  1  2  1  0
  2  3  2  0
  3  4  1  0
  4  5  2  0
  5  6  1  0
  6  7  2  0
  7  8  1  0
  8  9  1  0
  8 10  2  0
  7 11  1  0
 11 12  1  0
 12 13  2  0
 12 14  1  0
 14 15  1  0
 15 16  1  0
 16 17  1  0
 17 18  1  0
 18 19  2  0
 18 20  1  0
 20 21  2  0
 20 22  1  0
 22 23  1  0
 11 24  1  0
 24 25  2  0
 25  2  1  0
 24  5  1  0
  1 26  1  0
  1 27  1  0
  1 28  1  0
  3 29  1  0
  4 30  1  0
  6 31  1  0
  9 32  1  0
 15 33  1  0
 15 34  1  0
 16 35  1  0
 16 36  1  0
 17 37  1  0
 22 38  1  0
 22 39  1  0
 23 40  1  0
 25 41  1  0
M  CHG  1   9  -1
M  END
>  <UniqueID>  (71) 
71

>  <SMILES>  (71) 
Cc1ccc2cc(C([NH-])=O)n(C(=O)OCCNC(=O)C(=O)CO)c2c1

>  <Energy>  (71) 
70.19639171149511

>  <Genealogy>  (71) 
Cc1ccc2cc(C([NH-])=O)n(C(=O)OCCNC(=O)C(=O)CO)c2c1 (protonated)
Cc1ccc2cc(C([NH-])=O)n(C(=O)OCCNC(=O)C(=O)CO)c2c1 (3D coordinates assigned)
Cc1ccc2cc(C([NH-])=O)n(C(=O)OCCNC(=O)C(=O)CO)c2c1 (optimized conformer: 70.19639171149511 kcal/mol)

>  <smiles>  (71) 
Cc1ccc2cc(C(N)=O)n(C(=O)OCCNC(=O)C(=O)CO)c2c1

>  <score_type>  (71) 
oracle

>  <origin>  (71) 
adg

>  <m_score__min__energy>  (71) 
-10.06

>  <m_primary>  (71) 
energy

$$$$
71:0
     RDKit          3D

 45 46  0  0  0  0  0  0  0  0999 V2000
   -6.8590   15.5110  -34.2670 C   0  0  0  0  0  0  0  0  0  0  0  0
   -5.8580   16.5670  -34.1490 N   0  0  0  0  0  0  0  0  0  0  0  0
   -6.1330   17.9040  -33.7010 C   0  0  0  0  0  0  0  0  0  0  0  0
   -6.1280   18.8390  -34.5510 O   0  0  0  0  0  0  0  0  0  0  0  0
   -6.5080   18.1980  -32.2650 C   0  0  0  0  0  0  0  0  0  0  0  0
   -6.7400   19.6730  -32.0470 C   0  0  0  0  0  0  0  0  0  0  0  0
   -8.0340   20.2220  -32.2250 C   0  0  0  0  0  0  0  0  0  0  0  0
   -8.2690   21.5910  -31.9870 C   0  0  0  0  0  0  0  0  0  0  0  0
   -7.1950   22.3780  -31.5800 C   0  0  0  0  0  0  0  0  0  0  0  0
   -7.1430   23.7140  -31.2500 C   0  0  0  0  0  0  0  0  0  0  0  0
   -5.8160   23.9550  -30.8950 C   0  0  0  0  0  0  0  0  0  0  0  0
   -5.2990   25.2660  -30.4500 C   0  0  0  0  0  0  0  0  0  0  0  0
   -3.9870   25.6780  -30.8280 N   0  0  0  0  0  0  0  0  0  0  0  0
   -6.0070   26.0310  -29.7370 O   0  0  0  0  0  0  0  0  0  0  0  0
   -5.0820   22.8150  -31.0030 N   0  0  0  0  0  0  0  0  0  0  0  0
   -3.6980   22.6360  -30.6840 C   0  0  0  0  0  0  0  0  0  0  0  0
   -2.8370   22.8260  -31.5840 O   0  0  0  0  0  0  0  0  0  0  0  0
   -3.2880   22.2360  -29.3590 N   0  0  0  0  0  0  0  0  0  0  0  0
   -2.9160   20.8420  -29.0660 C   0  0  0  0  0  0  0  0  0  0  0  0
   -1.5200   20.5340  -29.5260 C   0  0  0  0  0  0  0  0  0  0  0  0
   -1.2590   20.3910  -30.7510 O   0  0  0  0  0  0  0  0  0  0  0  0
   -0.5100   20.3430  -28.5810 O   0  0  0  0  0  0  0  0  0  0  0  0
   -3.2910   23.1860  -28.2800 C   0  0  0  0  0  0  0  0  0  0  0  0
   -4.3880   23.6140  -27.8290 O   0  0  0  0  0  0  0  0  0  0  0  0
   -2.0170   23.5660  -27.5860 C   0  0  0  0  0  0  0  0  0  0  0  0
   -0.9690   24.5270  -28.7220 P   0  0  0  0  0  0  0  0  0  0  0  0
   -0.8600   23.8050  -30.0470 O   0  0  0  0  0  0  0  0  0  0  0  0
   -1.6510   26.0590  -28.9670 O   0  0  0  0  0  0  0  0  0  0  0  0
    0.5730   24.6990  -28.0560 O   0  0  0  0  0  0  0  0  0  0  0  0
   -5.9390   21.8580  -31.4090 C   0  0  0  0  0  0  0  0  0  0  0  0
   -5.6800   20.5010  -31.6120 C   0  0  0  0  0  0  0  0  0  0  0  0
   -7.1681   15.1849  -33.2629 H   0  0  0  0  0  0  0  0  0  0  0  0
   -7.7334   15.8941  -34.8135 H   0  0  0  0  0  0  0  0  0  0  0  0
   -6.4298   14.6583  -34.8135 H   0  0  0  0  0  0  0  0  0  0  0  0
   -7.4290   17.6503  -32.0164 H   0  0  0  0  0  0  0  0  0  0  0  0
   -5.6773   17.8791  -31.6182 H   0  0  0  0  0  0  0  0  0  0  0  0
   -8.8614   19.5748  -32.5514 H   0  0  0  0  0  0  0  0  0  0  0  0
   -9.2712   22.0249  -32.1189 H   0  0  0  0  0  0  0  0  0  0  0  0
   -7.9718   24.4372  -31.2635 H   0  0  0  0  0  0  0  0  0  0  0  0
   -3.1480   25.2750  -30.3530 H   0  0  0  0  0  0  0  0  0  0  0  0
   -2.9788   20.6764  -27.9803 H   0  0  0  0  0  0  0  0  0  0  0  0
   -3.6098   20.1802  -29.6051 H   0  0  0  0  0  0  0  0  0  0  0  0
   -2.2499   24.1741  -26.6994 H   0  0  0  0  0  0  0  0  0  0  0  0
   -1.4828   22.6555  -27.2768 H   0  0  0  0  0  0  0  0  0  0  0  0
   -4.6761   20.0866  -31.4378 H   0  0  0  0  0  0  0  0  0  0  0  0
  1  2  1  0
  2  3  1  0
  3  4  2  0
  3  5  1  0
  5  6  1  0
  6  7  2  0
  7  8  1  0
  8  9  2  0
  9 10  1  0
 10 11  2  0
 11 12  1  0
 12 13  1  0
 12 14  2  0
 11 15  1  0
 15 16  1  0
 16 17  2  0
 16 18  1  0
 18 19  1  0
 19 20  1  0
 20 21  2  0
 20 22  1  0
 18 23  1  0
 23 24  2  0
 23 25  1  0
 25 26  1  0
 26 27  2  0
 26 28  1  0
 26 29  1  0
 15 30  1  0
 30 31  2  0
 31  6  1  0
 30  9  1  0
  1 32  1  0
  1 33  1  0
  1 34  1  0
  5 35  1  0
  5 36  1  0
  7 37  1  0
  8 38  1  0
 10 39  1  0
 13 40  1  0
 19 41  1  0
 19 42  1  0
 25 43  1  0
 25 44  1  0
 31 45  1  0
M  CHG  5   2  -1  13  -1  22  -1  28  -1  29  -1
M  END
>  <UniqueID>  (72) 
72

>  <SMILES>  (72) 
C[N-]C(=O)Cc1ccc2cc(C([NH-])=O)n(C(=O)N(CC(=O)[O-])C(=O)CP(=O)([O-])[O-])c2c1

>  <Energy>  (72) 
80.95603323863311

>  <Genealogy>  (72) 
C[N-]C(=O)Cc1ccc2cc(C([NH-])=O)n(C(=O)N(CC(=O)[O-])C(=O)CP(=O)([O-])[O-])c2c1 (protonated)
C[N-]C(=O)Cc1ccc2cc(C([NH-])=O)n(C(=O)N(CC(=O)[O-])C(=O)CP(=O)([O-])[O-])c2c1 (3D coordinates assigned)
C[N-]C(=O)Cc1ccc2cc(C([NH-])=O)n(C(=O)N(CC(=O)[O-])C(=O)CP(=O)([O-])[O-])c2c1 (optimized conformer: 80.95603323863311 kcal/mol)

>  <smiles>  (72) 
CNC(=O)Cc1ccc2cc(C(N)=O)n(C(=O)N(CC(=O)O)C(=O)CP(=O)(O)O)c2c1

>  <score_type>  (72) 
oracle

>  <origin>  (72) 
adg

>  <m_score__min__energy>  (72) 
-14.050000000000001

>  <m_primary>  (72) 
energy

$$$$
72:0
     RDKit          3D

 41 42  0  0  0  0  0  0  0  0999 V2000
   -2.1730   24.9220  -27.6190 C   0  0  0  0  0  0  0  0  0  0  0  0
   -2.2360   23.6050  -28.2770 N   0  0  0  0  0  0  0  0  0  0  0  0
   -2.3630   22.5260  -27.2830 C   0  0  0  0  0  0  0  0  0  0  0  0
   -1.0560   23.3980  -29.0940 C   0  0  0  0  0  0  0  0  0  0  0  0
   -0.1050   24.1640  -29.0080 O   0  0  0  0  0  0  0  0  0  0  0  0
   -0.9910   22.2700  -30.0850 C   0  0  0  0  0  0  0  0  0  0  0  0
   -1.7010   22.6330  -31.2660 O   0  0  0  0  0  0  0  0  0  0  0  0
   -3.0080   22.2230  -31.5630 C   0  0  0  0  0  0  0  0  0  0  0  0
   -3.2820   21.9220  -32.7550 O   0  0  0  0  0  0  0  0  0  0  0  0
   -4.0810   22.1550  -30.5490 C   0  0  0  0  0  0  0  0  0  0  0  0
   -3.8670   21.6160  -29.4290 O   0  0  0  0  0  0  0  0  0  0  0  0
   -5.3810   22.6930  -30.8380 N   0  0  0  0  0  0  0  0  0  0  0  0
   -5.7550   24.0020  -30.8800 C   0  0  0  0  0  0  0  0  0  0  0  0
   -4.9210   25.1560  -30.4840 C   0  0  0  0  0  0  0  0  0  0  0  0
   -3.5010   25.0520  -30.4210 N   0  0  0  0  0  0  0  0  0  0  0  0
   -5.4740   26.2430  -30.1640 O   0  0  0  0  0  0  0  0  0  0  0  0
   -7.0800   24.1130  -31.2990 C   0  0  0  0  0  0  0  0  0  0  0  0
   -7.5070   22.8210  -31.5170 C   0  0  0  0  0  0  0  0  0  0  0  0
   -8.7330   22.3460  -31.9760 C   0  0  0  0  0  0  0  0  0  0  0  0
   -8.8810   20.9590  -32.1450 C   0  0  0  0  0  0  0  0  0  0  0  0
   -7.8140   20.0740  -31.8420 C   0  0  0  0  0  0  0  0  0  0  0  0
   -7.9670   18.5920  -32.0710 C   0  0  0  0  0  0  0  0  0  0  0  0
   -7.2230   17.8790  -31.1460 F   0  0  0  0  0  0  0  0  0  0  0  0
   -9.2950   18.2100  -31.9460 F   0  0  0  0  0  0  0  0  0  0  0  0
   -7.5250   18.2770  -33.3440 F   0  0  0  0  0  0  0  0  0  0  0  0
   -6.5750   20.6000  -31.4060 C   0  0  0  0  0  0  0  0  0  0  0  0
   -6.4630   21.9830  -31.2320 C   0  0  0  0  0  0  0  0  0  0  0  0
   -2.1795   24.7871  -26.5273 H   0  0  0  0  0  0  0  0  0  0  0  0
   -1.2491   25.4381  -27.9192 H   0  0  0  0  0  0  0  0  0  0  0  0
   -3.0434   25.5239  -27.9192 H   0  0  0  0  0  0  0  0  0  0  0  0
   -3.0920   23.5910  -28.8790 H   0  0  0  0  0  0  0  0  0  0  0  0
   -2.3128   22.9526  -26.2703 H   0  0  0  0  0  0  0  0  0  0  0  0
   -3.3275   22.0147  -27.4181 H   0  0  0  0  0  0  0  0  0  0  0  0
   -1.5436   21.8047  -27.4181 H   0  0  0  0  0  0  0  0  0  0  0  0
    0.0596   22.0641  -30.3376 H   0  0  0  0  0  0  0  0  0  0  0  0
   -1.4461   21.3699  -29.6460 H   0  0  0  0  0  0  0  0  0  0  0  0
   -2.9840   24.3920  -31.0430 H   0  0  0  0  0  0  0  0  0  0  0  0
   -7.6621   25.0373  -31.4284 H   0  0  0  0  0  0  0  0  0  0  0  0
   -9.5603   23.0356  -32.1994 H   0  0  0  0  0  0  0  0  0  0  0  0
   -9.8343   20.5548  -32.5162 H   0  0  0  0  0  0  0  0  0  0  0  0
   -5.7200   19.9367  -31.2086 H   0  0  0  0  0  0  0  0  0  0  0  0
  1  2  1  0
  2  3  1  0
  2  4  1  0
  4  5  2  0
  4  6  1  0
  6  7  1  0
  7  8  1  0
  8  9  2  0
  8 10  1  0
 10 11  2  0
 10 12  1  0
 12 13  1  0
 13 14  1  0
 14 15  1  0
 14 16  2  0
 13 17  2  0
 17 18  1  0
 18 19  2  0
 19 20  1  0
 20 21  2  0
 21 22  1  0
 22 23  1  0
 22 24  1  0
 22 25  1  0
 21 26  1  0
 26 27  2  0
 27 12  1  0
 27 18  1  0
  1 28  1  0
  1 29  1  0
  1 30  1  0
  2 31  1  0
  3 32  1  0
  3 33  1  0
  3 34  1  0
  6 35  1  0
  6 36  1  0
 15 37  1  0
 17 38  1  0
 19 39  1  0
 20 40  1  0
 26 41  1  0
M  CHG  2   2   1  15  -1
M  END
>  <UniqueID>  (73) 
73

>  <SMILES>  (73) 
C[NH+](C)C(=O)COC(=O)C(=O)n1c(C([NH-])=O)cc2ccc(C(F)(F)F)cc21

>  <Energy>  (73) 
81.28165990982782

>  <Genealogy>  (73) 
C[NH+](C)C(=O)COC(=O)C(=O)n1c(C([NH-])=O)cc2ccc(C(F)(F)F)cc21 (protonated)
C[NH+](C)C(=O)COC(=O)C(=O)n1c(C([NH-])=O)cc2ccc(C(F)(F)F)cc21 (3D coordinates assigned)
C[NH+](C)C(=O)COC(=O)C(=O)n1c(C([NH-])=O)cc2ccc(C(F)(F)F)cc21 (optimized conformer: 81.28165990982782 kcal/mol)

>  <smiles>  (73) 
CN(C)C(=O)COC(=O)C(=O)n1c(C(N)=O)cc2ccc(C(F)(F)F)cc21

>  <score_type>  (73) 
oracle

>  <origin>  (73) 
adg

>  <m_score__min__energy>  (73) 
-8.8800000000000008

>  <m_primary>  (73) 
energy

$$$$
73:0
     RDKit          3D

 28 29  0  0  0  0  0  0  0  0999 V2000
   -3.8850   26.0490  -30.1000 H   0  0  0  0  0  0  0  0  0  0  0  0
   -4.7560   26.0400  -30.6740 N   0  0  0  0  0  0  0  0  0  0  0  0
   -5.9080   25.3150  -30.2480 C   0  0  0  0  0  0  0  0  0  0  0  0
   -6.6720   25.8240  -29.3870 O   0  0  0  0  0  0  0  0  0  0  0  0
   -6.1950   23.9620  -30.7740 C   0  0  0  0  0  0  0  0  0  0  0  0
   -7.4680   23.5370  -31.1500 C   0  0  0  0  0  0  0  0  0  0  0  0
   -8.3955   24.1284  -31.1502 H   0  0  0  0  0  0  0  0  0  0  0  0
   -7.3180   22.2200  -31.5210 C   0  0  0  0  0  0  0  0  0  0  0  0
   -8.2580   21.3100  -31.9990 C   0  0  0  0  0  0  0  0  0  0  0  0
   -9.3157   21.5916  -32.1082 H   0  0  0  0  0  0  0  0  0  0  0  0
   -7.8130   20.0220  -32.3370 C   0  0  0  0  0  0  0  0  0  0  0  0
   -8.5323   19.2787  -32.7114 H   0  0  0  0  0  0  0  0  0  0  0  0
   -6.4470   19.6690  -32.2010 C   0  0  0  0  0  0  0  0  0  0  0  0
   -5.9900   18.2910  -32.5860 C   0  0  0  0  0  0  0  0  0  0  0  0
   -4.8917   18.2794  -32.6456 H   0  0  0  0  0  0  0  0  0  0  0  0
   -6.4100   17.3780  -31.6370 F   0  0  0  0  0  0  0  0  0  0  0  0
   -6.5240   17.9500  -33.8160 F   0  0  0  0  0  0  0  0  0  0  0  0
   -5.5220   20.6200  -31.7160 C   0  0  0  0  0  0  0  0  0  0  0  0
   -4.4559   20.3689  -31.6146 H   0  0  0  0  0  0  0  0  0  0  0  0
   -5.9960   21.8890  -31.3680 C   0  0  0  0  0  0  0  0  0  0  0  0
   -5.2940   22.9480  -30.9090 N   0  0  0  0  0  0  0  0  0  0  0  0
   -3.8750   23.0010  -30.6960 C   0  0  0  0  0  0  0  0  0  0  0  0
   -3.0990   22.9320  -31.6870 O   0  0  0  0  0  0  0  0  0  0  0  0
   -3.3430   23.1430  -29.3240 C   0  0  0  0  0  0  0  0  0  0  0  0
   -3.5283   22.3243  -28.6131 H   0  0  0  0  0  0  0  0  0  0  0  0
   -2.6520   24.2010  -28.8920 C   0  0  0  0  0  0  0  0  0  0  0  0
   -2.2983   24.2176  -27.8506 H   0  0  0  0  0  0  0  0  0  0  0  0
   -2.3660   25.2820  -29.7180 O   0  0  0  0  0  0  0  0  0  0  0  0
  1  2  1  0
  2  3  1  0
  3  4  2  0
  3  5  1  0
  5  6  2  0
  6  7  1  0
  6  8  1  0
  8  9  2  0
  9 10  1  0
  9 11  1  0
 11 12  1  0
 11 13  2  0
 13 14  1  0
 14 15  1  0
 14 16  1  0
 14 17  1  0
 13 18  1  0
 18 19  1  0
 18 20  2  0
 20 21  1  0
 21 22  1  0
 22 23  2  0
 22 24  1  0
 24 25  1  0
 24 26  2  0
 26 27  1  0
 26 28  1  0
 21  5  1  0
 20  8  1  0
M  CHG  2   2  -1  28  -1
M  END
>  <UniqueID>  (74) 
74

>  <SMILES>  (74) 
[NH-]C(=O)c1cc2ccc(C(F)F)cc2n1C(=O)/C=C\[O-]

>  <Energy>  (74) 
68.05609416983528

>  <Genealogy>  (74) 
[NH-]C(=O)c1cc2ccc(C(F)F)cc2n1C(=O)C=C[O-] (protonated)
[NH-]C(=O)c1cc2ccc(C(F)F)cc2n1C(=O)/C=C\[O-] (cis-trans isomerization)
[NH-]C(=O)c1cc2ccc(C(F)F)cc2n1C(=O)/C=C\[O-] (3D coordinates assigned)
[NH-]C(=O)c1cc2ccc(C(F)F)cc2n1C(=O)/C=C\[O-] (optimized conformer: 68.05609416983528 kcal/mol)

>  <smiles>  (74) 
NC(=O)c1cc2ccc(C(F)F)cc2n1C(=O)C=CO

>  <score_type>  (74) 
oracle

>  <origin>  (74) 
adg

>  <m_score__min__energy>  (74) 
-11.6

>  <m_primary>  (74) 
energy

$$$$
74:0
     RDKit          3D

 62 64  0  0  0  0  0  0  0  0999 V2000
    0.8120   23.6530  -26.1630 C   0  0  0  0  0  0  0  0  0  0  0  0
    0.2050   24.8330  -26.9450 C   0  0  0  0  0  0  0  0  0  0  0  0
   -1.1650   25.2190  -26.3570 C   0  0  0  0  0  0  0  0  0  0  0  0
    1.1490   26.0400  -26.8370 C   0  0  0  0  0  0  0  0  0  0  0  0
    0.0930   24.5060  -28.3380 O   0  0  0  0  0  0  0  0  0  0  0  0
   -1.0920   24.3970  -29.0820 C   0  0  0  0  0  0  0  0  0  0  0  0
   -1.9690   25.3010  -29.0390 O   0  0  0  0  0  0  0  0  0  0  0  0
   -1.3560   23.1180  -29.8390 C   0  0  0  0  0  0  0  0  0  0  0  0
   -2.2050   22.1210  -29.1360 N   0  0  2  0  0  0  0  0  0  0  0  0
   -3.3100   21.5550  -29.9550 C   0  0  0  0  0  0  0  0  0  0  0  0
   -3.8500   22.4670  -31.0320 C   0  0  0  0  0  0  0  0  0  0  0  0
   -3.0780   22.9170  -31.9180 O   0  0  0  0  0  0  0  0  0  0  0  0
   -5.2520   22.7710  -31.1040 N   0  0  0  0  0  0  0  0  0  0  0  0
   -5.8620   23.9730  -30.8970 C   0  0  0  0  0  0  0  0  0  0  0  0
   -5.1970   25.2140  -30.4490 C   0  0  0  0  0  0  0  0  0  0  0  0
   -3.8630   25.4940  -30.8660 N   0  0  0  0  0  0  0  0  0  0  0  0
   -5.8080   26.0470  -29.7290 O   0  0  0  0  0  0  0  0  0  0  0  0
   -7.2400   23.8570  -31.0850 C   0  0  0  0  0  0  0  0  0  0  0  0
   -7.4550   22.5340  -31.3990 C   0  0  0  0  0  0  0  0  0  0  0  0
   -8.6370   21.8600  -31.6860 C   0  0  0  0  0  0  0  0  0  0  0  0
   -8.5560   20.4920  -31.9990 C   0  0  0  0  0  0  0  0  0  0  0  0
   -7.3000   19.8300  -32.0370 C   0  0  0  0  0  0  0  0  0  0  0  0
   -7.2030   18.3600  -32.3580 C   0  0  0  0  0  0  0  0  0  0  0  0
   -8.4480   17.7800  -32.2060 F   0  0  0  0  0  0  0  0  0  0  0  0
   -6.7670   18.1560  -33.6560 F   0  0  0  0  0  0  0  0  0  0  0  0
   -6.3100   17.7460  -31.4980 F   0  0  0  0  0  0  0  0  0  0  0  0
   -6.1270   20.5470  -31.7130 C   0  0  0  0  0  0  0  0  0  0  0  0
   -6.2410   21.9030  -31.3970 C   0  0  0  0  0  0  0  0  0  0  0  0
   -2.5800   22.5340  -27.8000 C   0  0  0  0  0  0  0  0  0  0  0  0
   -3.6420   23.1830  -27.5910 O   0  0  0  0  0  0  0  0  0  0  0  0
   -1.7450   22.2020  -26.7250 O   0  0  0  0  0  0  0  0  0  0  0  0
   -1.5920   20.8660  -26.2540 C   0  0  0  0  0  0  0  0  0  0  0  0
   -1.7000   19.9530  -27.3410 O   0  0  0  0  0  0  0  0  0  0  0  0
   -0.7040   19.0200  -27.6410 C   0  0  0  0  0  0  0  0  0  0  0  0
   -0.7070   17.8790  -27.1000 O   0  0  0  0  0  0  0  0  0  0  0  0
    0.3460   19.3710  -28.6420 C   0  0  1  0  0  0  0  0  0  0  0  0
   -0.0680   19.2850  -30.0590 C   0  0  0  0  0  0  0  0  0  0  0  0
    0.0010   20.5190  -29.3830 O   0  0  0  0  0  0  0  0  0  0  0  0
    0.7156   23.8403  -25.0834 H   0  0  0  0  0  0  0  0  0  0  0  0
    0.2783   22.7271  -26.4236 H   0  0  0  0  0  0  0  0  0  0  0  0
    1.8756   23.5488  -26.4236 H   0  0  0  0  0  0  0  0  0  0  0  0
   -1.1100   25.2035  -25.2585 H   0  0  0  0  0  0  0  0  0  0  0  0
   -1.4382   26.2291  -26.6963 H   0  0  0  0  0  0  0  0  0  0  0  0
   -1.9253   24.5001  -26.6963 H   0  0  0  0  0  0  0  0  0  0  0  0
    1.3294   26.2707  -25.7767 H   0  0  0  0  0  0  0  0  0  0  0  0
    2.1043   25.8035  -27.3285 H   0  0  0  0  0  0  0  0  0  0  0  0
    0.6893   26.9101  -27.3285 H   0  0  0  0  0  0  0  0  0  0  0  0
   -1.8538   23.3804  -30.7842 H   0  0  0  0  0  0  0  0  0  0  0  0
   -0.3751   22.6384  -29.9722 H   0  0  0  0  0  0  0  0  0  0  0  0
   -1.5700   21.3020  -28.9760 H   0  0  0  0  0  0  0  0  0  0  0  0
   -2.9391   20.6398  -30.4396 H   0  0  0  0  0  0  0  0  0  0  0  0
   -4.1440   21.3795  -29.2596 H   0  0  0  0  0  0  0  0  0  0  0  0
   -3.1150   24.7680  -30.7940 H   0  0  0  0  0  0  0  0  0  0  0  0
   -7.9940   24.6534  -31.0003 H   0  0  0  0  0  0  0  0  0  0  0  0
   -9.6055   22.3813  -31.6686 H   0  0  0  0  0  0  0  0  0  0  0  0
   -9.4751   19.9282  -32.2168 H   0  0  0  0  0  0  0  0  0  0  0  0
   -5.1462   20.0491  -31.7096 H   0  0  0  0  0  0  0  0  0  0  0  0
   -0.6042   20.7565  -25.7826 H   0  0  0  0  0  0  0  0  0  0  0  0
   -2.3812   20.6487  -25.5192 H   0  0  0  0  0  0  0  0  0  0  0  0
    1.2106   19.0041  -28.0694 H   0  0  0  0  0  0  0  0  0  0  0  0
    0.6684   19.0375  -30.8378 H   0  0  0  0  0  0  0  0  0  0  0  0
   -0.8383   18.7379  -30.6223 H   0  0  0  0  0  0  0  0  0  0  0  0
  1  2  1  0
  2  3  1  0
  2  4  1  0
  2  5  1  0
  5  6  1  0
  6  7  2  0
  6  8  1  0
  8  9  1  0
  9 10  1  0
 10 11  1  0
 11 12  2  0
 11 13  1  0
 13 14  1  0
 14 15  1  0
 15 16  1  0
 15 17  2  0
 14 18  2  0
 18 19  1  0
 19 20  2  0
 20 21  1  0
 21 22  2  0
 22 23  1  0
 23 24  1  0
 23 25  1  0
 23 26  1  0
 22 27  1  0
 27 28  2  0
  9 29  1  0
 29 30  2  0
 29 31  1  0
 31 32  1  0
 32 33  1  0
 33 34  1  0
 34 35  2  0
 34 36  1  0
 36 37  1  0
 37 38  1  0
 28 13  1  0
 38 36  1  0
 28 19  1  0
  1 39  1  0
  1 40  1  0
  1 41  1  0
  3 42  1  0
  3 43  1  0
  3 44  1  0
  4 45  1  0
  4 46  1  0
  4 47  1  0
  8 48  1  0
  8 49  1  0
  9 50  1  1
 10 51  1  0
 10 52  1  0
 16 53  1  0
 18 54  1  0
 20 55  1  0
 21 56  1  0
 27 57  1  0
 32 58  1  0
 32 59  1  0
 36 60  1  6
 37 61  1  0
 37 62  1  0
M  CHG  2   9   1  16  -1
M  END
>  <UniqueID>  (75) 
75

>  <SMILES>  (75) 
CC(C)(C)OC(=O)C[N@H+](CC(=O)n1c(C([NH-])=O)cc2ccc(C(F)(F)F)cc21)C(=O)OCOC(=O)[C@H]1CO1

>  <Energy>  (75) 
433.2442746106484

>  <Genealogy>  (75) 
CC(C)(C)OC(=O)C[NH+](CC(=O)n1c(C([NH-])=O)cc2ccc(C(F)(F)F)cc21)C(=O)OCOC(=O)C1CO1 (protonated)
CC(C)(C)OC(=O)C[N@H+](CC(=O)n1c(C([NH-])=O)cc2ccc(C(F)(F)F)cc21)C(=O)OCOC(=O)[C@H]1CO1 (chirality)
CC(C)(C)OC(=O)C[N@H+](CC(=O)n1c(C([NH-])=O)cc2ccc(C(F)(F)F)cc21)C(=O)OCOC(=O)[C@H]1CO1 (3D coordinates assigned)
CC(C)(C)OC(=O)C[N@H+](CC(=O)n1c(C([NH-])=O)cc2ccc(C(F)(F)F)cc21)C(=O)OCOC(=O)[C@H]1CO1 (nonaromatic ring conformer: 433.2442746106484 kcal/mol)

>  <smiles>  (75) 
CC(C)(C)OC(=O)CN(CC(=O)n1c(C(N)=O)cc2ccc(C(F)(F)F)cc21)C(=O)OCOC(=O)C1CO1

>  <score_type>  (75) 
oracle

>  <origin>  (75) 
adg

>  <m_score__min__energy>  (75) 
-10.34

>  <m_primary>  (75) 
energy

$$$$
75:0
     RDKit          3D

 37 39  0  0  0  0  0  0  0  0999 V2000
   -0.0350   21.1000  -35.3440 C   0  0  0  0  0  0  0  0  0  0  0  0
   -0.5570   21.8940  -34.3040 O   0  0  0  0  0  0  0  0  0  0  0  0
   -1.2900   21.0720  -33.4190 C   0  0  0  0  0  0  0  0  0  0  0  0
   -2.7270   21.4770  -33.3060 C   0  0  0  0  0  0  0  0  0  0  0  0
   -2.6400   21.9700  -31.9200 N   0  0  0  0  0  0  0  0  0  0  0  0
   -3.4930   22.6070  -30.9690 C   0  0  0  0  0  0  0  0  0  0  0  0
   -3.0080   23.0530  -29.8960 O   0  0  0  0  0  0  0  0  0  0  0  0
   -4.8870   22.7810  -31.2530 N   0  0  0  0  0  0  0  0  0  0  0  0
   -5.6590   23.8760  -31.0100 C   0  0  0  0  0  0  0  0  0  0  0  0
   -5.1740   25.1880  -30.5320 C   0  0  0  0  0  0  0  0  0  0  0  0
   -3.8620   25.6440  -30.8490 N   0  0  0  0  0  0  0  0  0  0  0  0
   -5.9400   25.9300  -29.8600 O   0  0  0  0  0  0  0  0  0  0  0  0
   -6.9870   23.6190  -31.3510 C   0  0  0  0  0  0  0  0  0  0  0  0
   -6.9980   22.3250  -31.8220 C   0  0  0  0  0  0  0  0  0  0  0  0
   -8.0530   21.5490  -32.2940 C   0  0  0  0  0  0  0  0  0  0  0  0
   -7.7730   20.2330  -32.6990 C   0  0  0  0  0  0  0  0  0  0  0  0
   -6.4540   19.7180  -32.6240 C   0  0  0  0  0  0  0  0  0  0  0  0
   -6.1800   18.3060  -33.0530 C   0  0  0  0  0  0  0  0  0  0  0  0
   -7.2740   17.5100  -32.7660 F   0  0  0  0  0  0  0  0  0  0  0  0
   -5.9340   18.2700  -34.4140 F   0  0  0  0  0  0  0  0  0  0  0  0
   -5.4090   20.5360  -32.1390 C   0  0  0  0  0  0  0  0  0  0  0  0
   -5.7160   21.8440  -31.7540 C   0  0  0  0  0  0  0  0  0  0  0  0
   -1.2220   21.5820  -32.0140 C   0  0  0  0  0  0  0  0  0  0  0  0
    0.5215   20.2536  -34.9152 H   0  0  0  0  0  0  0  0  0  0  0  0
   -0.8599   20.7198  -35.9645 H   0  0  0  0  0  0  0  0  0  0  0  0
    0.6411   21.7066  -35.9645 H   0  0  0  0  0  0  0  0  0  0  0  0
   -0.9593   20.0743  -33.7435 H   0  0  0  0  0  0  0  0  0  0  0  0
   -3.0036   22.2659  -34.0210 H   0  0  0  0  0  0  0  0  0  0  0  0
   -3.4834   20.7070  -33.5180 H   0  0  0  0  0  0  0  0  0  0  0  0
   -3.0180   25.1700  -30.4580 H   0  0  0  0  0  0  0  0  0  0  0  0
   -7.8431   24.3041  -31.2625 H   0  0  0  0  0  0  0  0  0  0  0  0
   -9.0744   21.9536  -32.3482 H   0  0  0  0  0  0  0  0  0  0  0  0
   -8.5854   19.5957  -33.0782 H   0  0  0  0  0  0  0  0  0  0  0  0
   -5.2997   17.9308  -32.5105 H   0  0  0  0  0  0  0  0  0  0  0  0
   -4.3803   20.1532  -32.0663 H   0  0  0  0  0  0  0  0  0  0  0  0
   -0.5395   22.4378  -31.9055 H   0  0  0  0  0  0  0  0  0  0  0  0
   -0.8398   20.8911  -31.2481 H   0  0  0  0  0  0  0  0  0  0  0  0
  1  2  1  0
  2  3  1  0
  3  4  1  0
  4  5  1  0
  5  6  1  0
  6  7  2  0
  6  8  1  0
  8  9  1  0
  9 10  1  0
 10 11  1  0
 10 12  2  0
  9 13  2  0
 13 14  1  0
 14 15  2  0
 15 16  1  0
 16 17  2  0
 17 18  1  0
 18 19  1  0
 18 20  1  0
 17 21  1  0
 21 22  2  0
  5 23  1  0
 23  3  1  0
 22  8  1  0
 22 14  1  0
  1 24  1  0
  1 25  1  0
  1 26  1  0
  3 27  1  0
  4 28  1  0
  4 29  1  0
 11 30  1  0
 13 31  1  0
 15 32  1  0
 16 33  1  0
 18 34  1  0
 21 35  1  0
 23 36  1  0
 23 37  1  0
M  CHG  1  11  -1
M  END
>  <UniqueID>  (76) 
76

>  <SMILES>  (76) 
COC1CN(C(=O)n2c(C([NH-])=O)cc3ccc(C(F)F)cc32)C1

>  <Energy>  (76) 
121.92901042850977

>  <Genealogy>  (76) 
COC1CN(C(=O)n2c(C([NH-])=O)cc3ccc(C(F)F)cc32)C1 (protonated)
COC1CN(C(=O)n2c(C([NH-])=O)cc3ccc(C(F)F)cc32)C1 (3D coordinates assigned)
COC1CN(C(=O)n2c(C([NH-])=O)cc3ccc(C(F)F)cc32)C1 (nonaromatic ring conformer: 121.92901042850977 kcal/mol)

>  <smiles>  (76) 
COC1CN(C(=O)n2c(C(N)=O)cc3ccc(C(F)F)cc32)C1

>  <score_type>  (76) 
oracle

>  <origin>  (76) 
adg

>  <m_score__min__energy>  (76) 
-10.31

>  <m_primary>  (76) 
energy

$$$$
76:0
     RDKit          3D

 52 54  0  0  0  0  0  0  0  0999 V2000
   -3.0130   20.8660  -32.5070 C   0  0  0  0  0  0  0  0  0  0  0  0
   -3.4140   21.1120  -31.1110 N   0  0  1  0  0  0  0  0  0  0  0  0
   -2.3580   20.7550  -30.1400 C   0  0  0  0  0  0  0  0  0  0  0  0
   -2.4690   21.4970  -28.8180 C   0  0  0  0  0  0  0  0  0  0  0  0
   -3.5730   21.4770  -28.2070 O   0  0  0  0  0  0  0  0  0  0  0  0
   -1.3520   22.2130  -28.2390 N   0  0  0  0  0  0  0  0  0  0  0  0
   -1.3000   22.4480  -26.7870 C   0  0  0  0  0  0  0  0  0  0  0  0
   -1.3270   23.9530  -26.5030 C   0  0  0  0  0  0  0  0  0  0  0  0
   -0.3350   24.7720  -27.3880 C   0  0  0  0  0  0  0  0  0  0  0  0
   -1.0520   25.8650  -28.1530 C   0  0  0  0  0  0  0  0  0  0  0  0
   -1.9600   25.5700  -28.9820 O   0  0  0  0  0  0  0  0  0  0  0  0
   -0.7840   27.2030  -27.9150 O   0  0  0  0  0  0  0  0  0  0  0  0
    0.5130   23.8690  -28.3080 C   0  0  0  0  0  0  0  0  0  0  0  0
   -0.3600   22.8850  -29.1010 C   0  0  0  0  0  0  0  0  0  0  0  0
   -3.8910   22.4680  -30.9200 C   0  0  0  0  0  0  0  0  0  0  0  0
   -3.0970   23.3760  -30.5330 O   0  0  0  0  0  0  0  0  0  0  0  0
   -5.2990   22.7620  -31.0490 N   0  0  0  0  0  0  0  0  0  0  0  0
   -5.9150   23.9720  -30.9570 C   0  0  0  0  0  0  0  0  0  0  0  0
   -5.3180   25.1980  -30.4030 C   0  0  0  0  0  0  0  0  0  0  0  0
   -4.0400   25.6430  -30.8730 N   0  0  0  0  0  0  0  0  0  0  0  0
   -5.9820   25.9210  -29.6070 O   0  0  0  0  0  0  0  0  0  0  0  0
   -7.2620   23.8570  -31.2830 C   0  0  0  0  0  0  0  0  0  0  0  0
   -7.4570   22.5180  -31.5590 C   0  0  0  0  0  0  0  0  0  0  0  0
   -8.6120   21.8430  -31.9410 C   0  0  0  0  0  0  0  0  0  0  0  0
   -8.5270   20.4590  -32.1650 C   0  0  0  0  0  0  0  0  0  0  0  0
   -7.2970   19.7700  -31.9910 C   0  0  0  0  0  0  0  0  0  0  0  0
   -7.2120   18.2950  -32.2960 C   0  0  0  0  0  0  0  0  0  0  0  0
   -6.8270   18.1280  -33.6190 F   0  0  0  0  0  0  0  0  0  0  0  0
   -8.4550   17.6940  -32.1090 F   0  0  0  0  0  0  0  0  0  0  0  0
   -6.2840   17.6620  -31.4660 F   0  0  0  0  0  0  0  0  0  0  0  0
   -6.1340   20.4970  -31.6330 C   0  0  0  0  0  0  0  0  0  0  0  0
   -6.2580   21.8780  -31.4070 C   0  0  0  0  0  0  0  0  0  0  0  0
   -2.0755   20.2909  -32.5233 H   0  0  0  0  0  0  0  0  0  0  0  0
   -3.8017   20.2962  -33.0201 H   0  0  0  0  0  0  0  0  0  0  0  0
   -2.8624   21.8273  -33.0201 H   0  0  0  0  0  0  0  0  0  0  0  0
   -4.2080   20.4660  -30.9150 H   0  0  0  0  0  0  0  0  0  0  0  0
   -2.4214   19.6754  -29.9389 H   0  0  0  0  0  0  0  0  0  0  0  0
   -1.3962   21.0416  -30.5904 H   0  0  0  0  0  0  0  0  0  0  0  0
   -2.1679   21.9706  -26.3086 H   0  0  0  0  0  0  0  0  0  0  0  0
   -0.3712   22.0190  -26.3830 H   0  0  0  0  0  0  0  0  0  0  0  0
   -2.3460   24.3239  -26.6877 H   0  0  0  0  0  0  0  0  0  0  0  0
   -1.0161   24.0903  -25.4568 H   0  0  0  0  0  0  0  0  0  0  0  0
    0.3757   25.2653  -26.7086 H   0  0  0  0  0  0  0  0  0  0  0  0
    1.0685   24.5024  -29.0153 H   0  0  0  0  0  0  0  0  0  0  0  0
    1.1999   23.2858  -27.6770 H   0  0  0  0  0  0  0  0  0  0  0  0
   -0.8907   23.4369  -29.8908 H   0  0  0  0  0  0  0  0  0  0  0  0
    0.2975   22.1143  -29.5298 H   0  0  0  0  0  0  0  0  0  0  0  0
   -3.1700   25.2920  -30.4290 H   0  0  0  0  0  0  0  0  0  0  0  0
   -8.0121   24.6610  -31.3143 H   0  0  0  0  0  0  0  0  0  0  0  0
   -9.5651   22.3782  -32.0642 H   0  0  0  0  0  0  0  0  0  0  0  0
   -9.4226   19.9026  -32.4786 H   0  0  0  0  0  0  0  0  0  0  0  0
   -5.1609   19.9936  -31.5348 H   0  0  0  0  0  0  0  0  0  0  0  0
  1  2  1  0
  2  3  1  0
  3  4  1  0
  4  5  2  0
  4  6  1  0
  6  7  1  0
  7  8  1  0
  8  9  1  0
  9 10  1  0
 10 11  2  0
 10 12  1  0
  9 13  1  0
 13 14  1  0
  2 15  1  0
 15 16  2  0
 15 17  1  0
 17 18  1  0
 18 19  1  0
 19 20  1  0
 19 21  2  0
 18 22  2  0
 22 23  1  0
 23 24  2  0
 24 25  1  0
 25 26  2  0
 26 27  1  0
 27 28  1  0
 27 29  1  0
 27 30  1  0
 26 31  1  0
 31 32  2  0
 14  6  1  0
 32 17  1  0
 32 23  1  0
  1 33  1  0
  1 34  1  0
  1 35  1  0
  2 36  1  1
  3 37  1  0
  3 38  1  0
  7 39  1  0
  7 40  1  0
  8 41  1  0
  8 42  1  0
  9 43  1  0
 13 44  1  0
 13 45  1  0
 14 46  1  0
 14 47  1  0
 20 48  1  0
 22 49  1  0
 24 50  1  0
 25 51  1  0
 31 52  1  0
M  CHG  3   2   1  12  -1  20  -1
M  END
>  <UniqueID>  (77) 
77

>  <SMILES>  (77) 
C[N@@H+](CC(=O)N1CCC(C(=O)[O-])CC1)C(=O)n1c(C([NH-])=O)cc2ccc(C(F)(F)F)cc21

>  <Energy>  (77) 
104.48434410946082

>  <Genealogy>  (77) 
C[NH+](CC(=O)N1CCC(C(=O)[O-])CC1)C(=O)n1c(C([NH-])=O)cc2ccc(C(F)(F)F)cc21 (protonated)
C[N@@H+](CC(=O)N1CCC(C(=O)[O-])CC1)C(=O)n1c(C([NH-])=O)cc2ccc(C(F)(F)F)cc21 (chirality)
C[N@@H+](CC(=O)N1CCC(C(=O)[O-])CC1)C(=O)n1c(C([NH-])=O)cc2ccc(C(F)(F)F)cc21 (3D coordinates assigned)
C[N@@H+](CC(=O)N1CCC(C(=O)[O-])CC1)C(=O)n1c(C([NH-])=O)cc2ccc(C(F)(F)F)cc21 (nonaromatic ring conformer: 104.48434410946082 kcal/mol)

>  <smiles>  (77) 
CN(CC(=O)N1CCC(C(=O)O)CC1)C(=O)n1c(C(N)=O)cc2ccc(C(F)(F)F)cc21

>  <score_type>  (77) 
oracle

>  <origin>  (77) 
adg

>  <m_score__min__energy>  (77) 
-12.630000000000001

>  <m_primary>  (77) 
energy

$$$$
77:0
     RDKit          3D

 43 44  0  0  0  0  0  0  0  0999 V2000
   -2.0210   21.4860  -33.1360 C   0  0  0  0  0  0  0  0  0  0  0  0
   -2.1160   21.3390  -31.6800 N   0  0  0  0  0  0  0  0  0  0  0  0
   -0.9250   20.9110  -30.9320 C   0  0  0  0  0  0  0  0  0  0  0  0
   -0.7400   21.7280  -29.6780 C   0  0  0  0  0  0  0  0  0  0  0  0
   -0.4910   21.1530  -28.5850 O   0  0  0  0  0  0  0  0  0  0  0  0
   -0.7850   23.1580  -29.7090 N   0  0  0  0  0  0  0  0  0  0  0  0
   -1.0310   23.9930  -28.5410 C   0  0  0  0  0  0  0  0  0  0  0  0
   -1.6540   25.2780  -28.9730 C   0  0  0  0  0  0  0  0  0  0  0  0
   -2.8410   25.2970  -29.3920 O   0  0  0  0  0  0  0  0  0  0  0  0
   -0.9080   26.4500  -28.9660 O   0  0  0  0  0  0  0  0  0  0  0  0
   -3.3800   21.4630  -30.9840 C   0  0  0  0  0  0  0  0  0  0  0  0
   -3.7350   20.5470  -30.1930 O   0  0  0  0  0  0  0  0  0  0  0  0
   -4.2850   22.6260  -31.1550 C   0  0  0  0  0  0  0  0  0  0  0  0
   -3.8270   23.7910  -31.2900 O   0  0  0  0  0  0  0  0  0  0  0  0
   -5.7090   22.4360  -31.1650 N   0  0  0  0  0  0  0  0  0  0  0  0
   -6.6470   23.1920  -30.5320 C   0  0  0  0  0  0  0  0  0  0  0  0
   -6.3700   24.4440  -29.7860 C   0  0  0  0  0  0  0  0  0  0  0  0
   -5.1270   24.6390  -29.1110 N   0  0  0  0  0  0  0  0  0  0  0  0
   -7.2430   25.3510  -29.7310 O   0  0  0  0  0  0  0  0  0  0  0  0
   -7.9180   22.6510  -30.7290 C   0  0  0  0  0  0  0  0  0  0  0  0
   -7.7210   21.5260  -31.4990 C   0  0  0  0  0  0  0  0  0  0  0  0
   -8.6390   20.6020  -31.9880 C   0  0  0  0  0  0  0  0  0  0  0  0
   -8.1470   19.5210  -32.7400 C   0  0  0  0  0  0  0  0  0  0  0  0
   -6.7550   19.3670  -32.9670 C   0  0  0  0  0  0  0  0  0  0  0  0
   -6.2430   18.2260  -33.8080 C   0  0  0  0  0  0  0  0  0  0  0  0
   -5.0080   17.8270  -33.3290 F   0  0  0  0  0  0  0  0  0  0  0  0
   -7.1140   17.1510  -33.7580 F   0  0  0  0  0  0  0  0  0  0  0  0
   -6.1090   18.6140  -35.1300 F   0  0  0  0  0  0  0  0  0  0  0  0
   -5.8570   20.3410  -32.4710 C   0  0  0  0  0  0  0  0  0  0  0  0
   -6.3780   21.4170  -31.7430 C   0  0  0  0  0  0  0  0  0  0  0  0
   -1.4384   22.3876  -33.3763 H   0  0  0  0  0  0  0  0  0  0  0  0
   -1.5224   20.6029  -33.5619 H   0  0  0  0  0  0  0  0  0  0  0  0
   -3.0310   21.5778  -33.5619 H   0  0  0  0  0  0  0  0  0  0  0  0
   -1.0371   19.8521  -30.6560 H   0  0  0  0  0  0  0  0  0  0  0  0
   -0.0429   21.0560  -31.5730 H   0  0  0  0  0  0  0  0  0  0  0  0
   -1.7099   23.4694  -27.8519 H   0  0  0  0  0  0  0  0  0  0  0  0
   -0.0791   24.1996  -28.0299 H   0  0  0  0  0  0  0  0  0  0  0  0
   -4.3490   23.9460  -29.1830 H   0  0  0  0  0  0  0  0  0  0  0  0
   -4.9610   25.5120  -28.5630 H   0  0  0  0  0  0  0  0  0  0  0  0
   -8.8744   23.0403  -30.3498 H   0  0  0  0  0  0  0  0  0  0  0  0
   -9.7157   20.7138  -31.7924 H   0  0  0  0  0  0  0  0  0  0  0  0
   -8.8501   18.7853  -33.1577 H   0  0  0  0  0  0  0  0  0  0  0  0
   -4.7756   20.2549  -32.6530 H   0  0  0  0  0  0  0  0  0  0  0  0
  1  2  1  0
  2  3  1  0
  3  4  1  0
  4  5  2  0
  4  6  1  0
  6  7  1  0
  7  8  1  0
  8  9  2  0
  8 10  1  0
  2 11  1  0
 11 12  2  0
 11 13  1  0
 13 14  2  0
 13 15  1  0
 15 16  1  0
 16 17  1  0
 17 18  1  0
 17 19  2  0
 16 20  2  0
 20 21  1  0
 21 22  2  0
 22 23  1  0
 23 24  2  0
 24 25  1  0
 25 26  1  0
 25 27  1  0
 25 28  1  0
 24 29  1  0
 29 30  2  0
 30 15  1  0
 30 21  1  0
  1 31  1  0
  1 32  1  0
  1 33  1  0
  3 34  1  0
  3 35  1  0
  7 36  1  0
  7 37  1  0
 18 38  1  0
 18 39  1  0
 20 40  1  0
 22 41  1  0
 23 42  1  0
 29 43  1  0
M  CHG  2   6  -1  10  -1
M  END
>  <UniqueID>  (78) 
78

>  <SMILES>  (78) 
CN(CC(=O)[N-]CC(=O)[O-])C(=O)C(=O)n1c(C(N)=O)cc2ccc(C(F)(F)F)cc21

>  <Energy>  (78) 
80.73601642480354

>  <Genealogy>  (78) 
CN(CC(=O)[N-]CC(=O)[O-])C(=O)C(=O)n1c(C(N)=O)cc2ccc(C(F)(F)F)cc21 (protonated)
CN(CC(=O)[N-]CC(=O)[O-])C(=O)C(=O)n1c(C(N)=O)cc2ccc(C(F)(F)F)cc21 (3D coordinates assigned)
CN(CC(=O)[N-]CC(=O)[O-])C(=O)C(=O)n1c(C(N)=O)cc2ccc(C(F)(F)F)cc21 (optimized conformer: 80.73601642480354 kcal/mol)

>  <smiles>  (78) 
CN(CC(=O)NCC(=O)O)C(=O)C(=O)n1c(C(N)=O)cc2ccc(C(F)(F)F)cc21

>  <score_type>  (78) 
oracle

>  <origin>  (78) 
adg

>  <m_score__min__energy>  (78) 
-12

>  <m_primary>  (78) 
energy

$$$$
78:0
     RDKit          3D

 34 35  0  0  0  0  0  0  0  0999 V2000
   -3.3240   24.3340  -27.6260 C   0  0  0  0  0  0  0  0  0  0  0  0
   -2.3500   24.7300  -29.0610 S   0  0  0  0  0  0  0  0  0  0  0  0
   -1.3930   23.6040  -29.3310 O   0  0  0  0  0  0  0  0  0  0  0  0
   -1.5700   25.9920  -28.8230 O   0  0  0  0  0  0  0  0  0  0  0  0
   -3.3850   24.9330  -30.4340 N   0  0  0  0  0  0  0  0  0  0  0  0
   -4.3340   23.9410  -30.8330 C   0  0  0  0  0  0  0  0  0  0  0  0
   -5.4200   24.2830  -31.3740 O   0  0  0  0  0  0  0  0  0  0  0  0
   -4.0360   22.5160  -30.6200 C   0  0  0  0  0  0  0  0  0  0  0  0
   -3.6980   22.1180  -29.4740 O   0  0  0  0  0  0  0  0  0  0  0  0
   -4.0900   21.5820  -31.7090 N   0  0  0  0  0  0  0  0  0  0  0  0
   -3.0520   21.0830  -32.4380 C   0  0  0  0  0  0  0  0  0  0  0  0
   -1.6400   21.5150  -32.3220 C   0  0  0  0  0  0  0  0  0  0  0  0
   -1.0800   21.8590  -31.0540 N   0  0  0  0  0  0  0  0  0  0  0  0
   -0.9090   21.5650  -33.3470 O   0  0  0  0  0  0  0  0  0  0  0  0
   -3.5170   20.1660  -33.3810 C   0  0  0  0  0  0  0  0  0  0  0  0
   -4.8830   20.1270  -33.2080 C   0  0  0  0  0  0  0  0  0  0  0  0
   -5.8500   19.3770  -33.8700 C   0  0  0  0  0  0  0  0  0  0  0  0
   -7.1880   19.5240  -33.4670 C   0  0  0  0  0  0  0  0  0  0  0  0
   -7.5390   20.4250  -32.4280 C   0  0  0  0  0  0  0  0  0  0  0  0
   -8.9710   20.5320  -31.9680 C   0  0  0  0  0  0  0  0  0  0  0  0
   -9.0940   20.1140  -30.6530 F   0  0  0  0  0  0  0  0  0  0  0  0
   -9.3820   21.8480  -32.0630 F   0  0  0  0  0  0  0  0  0  0  0  0
   -9.7960   19.7440  -32.7510 F   0  0  0  0  0  0  0  0  0  0  0  0
   -6.5230   21.1540  -31.7670 C   0  0  0  0  0  0  0  0  0  0  0  0
   -5.2020   20.9920  -32.1950 C   0  0  0  0  0  0  0  0  0  0  0  0
   -2.7498   24.5675  -26.7173 H   0  0  0  0  0  0  0  0  0  0  0  0
   -4.2505   24.9268  -27.6367 H   0  0  0  0  0  0  0  0  0  0  0  0
   -3.5740   23.2628  -27.6367 H   0  0  0  0  0  0  0  0  0  0  0  0
   -0.0740   22.1280  -30.9820 H   0  0  0  0  0  0  0  0  0  0  0  0
   -1.6660   21.8920  -30.1900 H   0  0  0  0  0  0  0  0  0  0  0  0
   -2.9200   19.5956  -34.1078 H   0  0  0  0  0  0  0  0  0  0  0  0
   -5.5754   18.6900  -34.6840 H   0  0  0  0  0  0  0  0  0  0  0  0
   -7.9728   18.9338  -33.9627 H   0  0  0  0  0  0  0  0  0  0  0  0
   -6.7665   21.8323  -30.9359 H   0  0  0  0  0  0  0  0  0  0  0  0
  1  2  1  0
  2  3  2  0
  2  4  2  0
  2  5  1  0
  5  6  1  0
  6  7  2  0
  6  8  1  0
  8  9  2  0
  8 10  1  0
 10 11  1  0
 11 12  1  0
 12 13  1  0
 12 14  2  0
 11 15  2  0
 15 16  1  0
 16 17  2  0
 17 18  1  0
 18 19  2  0
 19 20  1  0
 20 21  1  0
 20 22  1  0
 20 23  1  0
 19 24  1  0
 24 25  2  0
 25 10  1  0
 25 16  1  0
  1 26  1  0
  1 27  1  0
  1 28  1  0
 13 29  1  0
 13 30  1  0
 15 31  1  0
 17 32  1  0
 18 33  1  0
 24 34  1  0
M  CHG  1   5  -1
M  END
>  <UniqueID>  (79) 
79

>  <SMILES>  (79) 
CS(=O)(=O)[N-]C(=O)C(=O)n1c(C(N)=O)cc2ccc(C(F)(F)F)cc21

>  <Energy>  (79) 
70.88943061739427

>  <Genealogy>  (79) 
CS(=O)(=O)[N-]C(=O)C(=O)n1c(C(N)=O)cc2ccc(C(F)(F)F)cc21 (protonated)
CS(=O)(=O)[N-]C(=O)C(=O)n1c(C(N)=O)cc2ccc(C(F)(F)F)cc21 (3D coordinates assigned)
CS(=O)(=O)[N-]C(=O)C(=O)n1c(C(N)=O)cc2ccc(C(F)(F)F)cc21 (optimized conformer: 70.88943061739427 kcal/mol)

>  <smiles>  (79) 
CS(=O)(=O)NC(=O)C(=O)n1c(C(N)=O)cc2ccc(C(F)(F)F)cc21

>  <score_type>  (79) 
oracle

>  <origin>  (79) 
adg

>  <m_score__min__energy>  (79) 
-9.7100000000000009

>  <m_primary>  (79) 
energy

$$$$
79:0
     RDKit          3D

 32 33  0  0  0  0  0  0  0  0999 V2000
   -1.9910   24.6830  -26.1280 C   0  0  0  0  0  0  0  0  0  0  0  0
   -2.0380   24.4780  -27.4500 C   0  0  0  0  0  0  0  0  0  0  0  0
   -1.1030   25.2090  -28.3400 C   0  0  0  0  0  0  0  0  0  0  0  0
   -1.4840   26.2330  -28.9670 O   0  0  0  0  0  0  0  0  0  0  0  0
    0.2150   24.7880  -28.4810 O   0  0  0  0  0  0  0  0  0  0  0  0
   -3.0350   23.5300  -28.0140 C   0  0  0  0  0  0  0  0  0  0  0  0
   -4.1380   23.3560  -27.4270 O   0  0  0  0  0  0  0  0  0  0  0  0
   -2.7560   22.7830  -29.2090 N   0  0  0  0  0  0  0  0  0  0  0  0
   -3.3050   22.9540  -30.4450 C   0  0  0  0  0  0  0  0  0  0  0  0
   -4.2100   24.0500  -30.8460 C   0  0  0  0  0  0  0  0  0  0  0  0
   -3.8870   25.4100  -30.5640 N   0  0  0  0  0  0  0  0  0  0  0  0
   -5.2690   23.7870  -31.4750 O   0  0  0  0  0  0  0  0  0  0  0  0
   -2.8480   21.9690  -31.3190 C   0  0  0  0  0  0  0  0  0  0  0  0
   -2.0000   21.1820  -30.5730 C   0  0  0  0  0  0  0  0  0  0  0  0
   -1.2810   20.0460  -30.9340 C   0  0  0  0  0  0  0  0  0  0  0  0
   -0.5060   19.4160  -29.9450 C   0  0  0  0  0  0  0  0  0  0  0  0
   -0.4620   19.9310  -28.6250 C   0  0  0  0  0  0  0  0  0  0  0  0
    0.3370   19.2260  -27.5650 C   0  0  0  0  0  0  0  0  0  0  0  0
    1.7900   19.2470  -27.9170 C   0  0  0  0  0  0  0  0  0  0  0  0
    2.3850   18.1800  -28.2170 O   0  0  0  0  0  0  0  0  0  0  0  0
    2.4990   20.4400  -27.8670 O   0  0  0  0  0  0  0  0  0  0  0  0
   -1.2150   21.0790  -28.2940 C   0  0  0  0  0  0  0  0  0  0  0  0
   -1.9640   21.6930  -29.3020 C   0  0  0  0  0  0  0  0  0  0  0  0
   -2.6817   24.1439  -25.4629 H   0  0  0  0  0  0  0  0  0  0  0  0
   -1.2617   25.3905  -25.7067 H   0  0  0  0  0  0  0  0  0  0  0  0
   -3.4910   25.6880  -29.6390 H   0  0  0  0  0  0  0  0  0  0  0  0
   -3.1096   21.8465  -32.3804 H   0  0  0  0  0  0  0  0  0  0  0  0
   -1.3182   19.6537  -31.9610 H   0  0  0  0  0  0  0  0  0  0  0  0
    0.0719   18.5148  -30.1977 H   0  0  0  0  0  0  0  0  0  0  0  0
    0.1891   19.7334  -26.6003 H   0  0  0  0  0  0  0  0  0  0  0  0
   -0.0011   18.1816  -27.4946 H   0  0  0  0  0  0  0  0  0  0  0  0
   -1.2122   21.4796  -27.2696 H   0  0  0  0  0  0  0  0  0  0  0  0
  1  2  2  0
  2  3  1  0
  3  4  2  0
  3  5  1  0
  2  6  1  0
  6  7  2  0
  6  8  1  0
  8  9  1  0
  9 10  1  0
 10 11  1  0
 10 12  2  0
  9 13  2  0
 13 14  1  0
 14 15  2  0
 15 16  1  0
 16 17  2  0
 17 18  1  0
 18 19  1  0
 19 20  2  0
 19 21  1  0
 17 22  1  0
 22 23  2  0
 23  8  1  0
 23 14  1  0
  1 24  1  0
  1 25  1  0
 11 26  1  0
 13 27  1  0
 15 28  1  0
 16 29  1  0
 18 30  1  0
 18 31  1  0
 22 32  1  0
M  CHG  3   5  -1  11  -1  21  -1
M  END
>  <UniqueID>  (80) 
80

>  <SMILES>  (80) 
C=C(C(=O)[O-])C(=O)n1c(C([NH-])=O)cc2ccc(CC(=O)[O-])cc21

>  <Energy>  (80) 
71.81707029088157

>  <Genealogy>  (80) 
C=C(C(=O)[O-])C(=O)n1c(C([NH-])=O)cc2ccc(CC(=O)[O-])cc21 (protonated)
C=C(C(=O)[O-])C(=O)n1c(C([NH-])=O)cc2ccc(CC(=O)[O-])cc21 (3D coordinates assigned)
C=C(C(=O)[O-])C(=O)n1c(C([NH-])=O)cc2ccc(CC(=O)[O-])cc21 (optimized conformer: 71.81707029088157 kcal/mol)

>  <smiles>  (80) 
C=C(C(=O)O)C(=O)n1c(C(N)=O)cc2ccc(CC(=O)O)cc21

>  <score_type>  (80) 
oracle

>  <origin>  (80) 
adg

>  <m_score__min__energy>  (80) 
-11.859999999999999

>  <m_primary>  (80) 
energy

$$$$
80:0
     RDKit          3D

 23 24  0  0  0  0  0  0  0  0999 V2000
   -3.8740   25.3070  -30.6130 N   0  0  0  0  0  0  0  0  0  0  0  0
   -5.2790   25.1820  -30.4110 C   0  0  0  0  0  0  0  0  0  0  0  0
   -5.8820   26.0480  -29.7210 O   0  0  0  0  0  0  0  0  0  0  0  0
   -6.0220   24.0180  -30.9330 C   0  0  0  0  0  0  0  0  0  0  0  0
   -7.4130   23.9390  -30.9280 C   0  0  0  0  0  0  0  0  0  0  0  0
   -7.7070   22.6750  -31.3870 C   0  0  0  0  0  0  0  0  0  0  0  0
   -8.9390   22.0570  -31.5820 C   0  0  0  0  0  0  0  0  0  0  0  0
   -8.9460   20.7450  -32.0850 C   0  0  0  0  0  0  0  0  0  0  0  0
   -7.7300   20.0830  -32.3820 C   0  0  0  0  0  0  0  0  0  0  0  0
   -7.7510   18.7490  -32.8970 N   0  0  0  0  0  0  0  0  0  0  0  0
   -6.4990   20.7380  -32.1700 C   0  0  0  0  0  0  0  0  0  0  0  0
   -6.5220   22.0410  -31.6580 C   0  0  0  0  0  0  0  0  0  0  0  0
   -5.4770   22.8550  -31.3960 N   0  0  0  0  0  0  0  0  0  0  0  0
   -4.0970   22.5540  -31.6590 C   0  0  0  0  0  0  0  0  0  0  0  0
   -3.7070   22.2640  -32.8210 O   0  0  0  0  0  0  0  0  0  0  0  0
   -3.4850   26.0500  -31.2320 H   0  0  0  0  0  0  0  0  0  0  0  0
   -8.1246   24.7202  -30.6224 H   0  0  0  0  0  0  0  0  0  0  0  0
   -9.8784   22.5798  -31.3494 H   0  0  0  0  0  0  0  0  0  0  0  0
   -9.9031   20.2284  -32.2493 H   0  0  0  0  0  0  0  0  0  0  0  0
   -7.1470   18.0060  -32.4810 H   0  0  0  0  0  0  0  0  0  0  0  0
   -8.3700   18.4960  -33.6990 H   0  0  0  0  0  0  0  0  0  0  0  0
   -5.5464   20.2386  -32.4007 H   0  0  0  0  0  0  0  0  0  0  0  0
   -3.3704   22.5772  -30.8335 H   0  0  0  0  0  0  0  0  0  0  0  0
  1  2  1  0
  2  3  2  0
  2  4  1  0
  4  5  2  0
  5  6  1  0
  6  7  2  0
  7  8  1  0
  8  9  2  0
  9 10  1  0
  9 11  1  0
 11 12  2  0
 12 13  1  0
 13 14  1  0
 14 15  2  0
 13  4  1  0
 12  6  1  0
  1 16  1  0
  5 17  1  0
  7 18  1  0
  8 19  1  0
 10 20  1  0
 10 21  1  0
 11 22  1  0
 14 23  1  0
M  CHG  1   1  -1
M  END
>  <UniqueID>  (81) 
81

>  <SMILES>  (81) 
[NH-]C(=O)c1cc2ccc(N)cc2n1C=O

>  <Energy>  (81) 
61.54183152756247

>  <Genealogy>  (81) 
[NH-]C(=O)c1cc2ccc(N)cc2n1C=O (protonated)
[NH-]C(=O)c1cc2ccc(N)cc2n1C=O (3D coordinates assigned)
[NH-]C(=O)c1cc2ccc(N)cc2n1C=O (optimized conformer: 61.54183152756247 kcal/mol)

>  <smiles>  (81) 
NC(=O)c1cc2ccc(N)cc2n1C=O

>  <score_type>  (81) 
oracle

>  <origin>  (81) 
adg

>  <m_score__min__energy>  (81) 
-8.7400000000000002

>  <m_primary>  (81) 
energy

$$$$
81:0
     RDKit          3D

 49 50  0  0  0  0  0  0  0  0999 V2000
   -8.5340   18.8120  -32.3380 C   0  0  0  0  0  0  0  0  0  0  0  0
   -8.0470   20.1940  -32.0190 C   0  0  0  0  0  0  0  0  0  0  0  0
   -8.9650   21.2720  -31.9580 C   0  0  0  0  0  0  0  0  0  0  0  0
   -8.5290   22.5610  -31.6120 C   0  0  0  0  0  0  0  0  0  0  0  0
   -7.1780   22.7410  -31.3340 C   0  0  0  0  0  0  0  0  0  0  0  0
   -6.5030   23.8750  -30.9490 C   0  0  0  0  0  0  0  0  0  0  0  0
   -5.1780   23.4800  -30.7990 C   0  0  0  0  0  0  0  0  0  0  0  0
   -4.0960   24.4240  -30.4690 C   0  0  0  0  0  0  0  0  0  0  0  0
   -2.8600   23.9640  -29.9240 N   0  0  0  0  0  0  0  0  0  0  0  0
   -4.2360   25.6460  -30.7380 O   0  0  0  0  0  0  0  0  0  0  0  0
   -5.0320   22.1500  -31.0640 N   0  0  0  0  0  0  0  0  0  0  0  0
   -3.8400   21.3530  -30.9200 C   0  0  0  0  0  0  0  0  0  0  0  0
   -3.4980   20.9260  -29.7840 O   0  0  0  0  0  0  0  0  0  0  0  0
   -3.0550   21.0510  -32.0400 O   0  0  0  0  0  0  0  0  0  0  0  0
   -1.6320   21.1640  -32.0440 C   0  0  0  0  0  0  0  0  0  0  0  0
   -1.2200   22.2870  -31.2690 O   0  0  0  0  0  0  0  0  0  0  0  0
   -0.6100   22.1650  -30.0180 C   0  0  0  0  0  0  0  0  0  0  0  0
   -0.1960   21.0420  -29.6150 O   0  0  0  0  0  0  0  0  0  0  0  0
   -0.4800   23.3010  -29.2150 O   0  0  0  0  0  0  0  0  0  0  0  0
   -0.5950   23.2680  -27.7930 C   0  0  1  0  0  0  0  0  0  0  0  0
   -1.1100   24.6170  -27.3000 C   0  0  0  0  0  0  0  0  0  0  0  0
   -1.5440   22.1780  -27.3810 C   0  0  0  0  0  0  0  0  0  0  0  0
   -2.7510   22.2250  -27.7460 O   0  0  0  0  0  0  0  0  0  0  0  0
   -1.0750   21.1060  -26.6150 O   0  0  0  0  0  0  0  0  0  0  0  0
   -1.9300   20.0770  -26.1220 C   0  0  0  0  0  0  0  0  0  0  0  0
   -1.9880   18.9290  -27.1180 C   0  0  0  0  0  0  0  0  0  0  0  0
   -1.5990   19.3770  -28.3870 O   0  0  0  0  0  0  0  0  0  0  0  0
   -6.2720   21.7100  -31.3920 C   0  0  0  0  0  0  0  0  0  0  0  0
   -6.6860   20.4100  -31.7120 C   0  0  0  0  0  0  0  0  0  0  0  0
   -8.7264   18.2660  -31.4026 H   0  0  0  0  0  0  0  0  0  0  0  0
   -9.4635   18.8766  -32.9227 H   0  0  0  0  0  0  0  0  0  0  0  0
   -7.7693   18.2796  -32.9227 H   0  0  0  0  0  0  0  0  0  0  0  0
  -10.0274   21.0975  -32.1835 H   0  0  0  0  0  0  0  0  0  0  0  0
   -9.2347   23.4033  -31.5623 H   0  0  0  0  0  0  0  0  0  0  0  0
   -6.9215   24.8802  -30.7929 H   0  0  0  0  0  0  0  0  0  0  0  0
   -2.1120   24.6470  -29.6690 H   0  0  0  0  0  0  0  0  0  0  0  0
   -2.6730   22.9450  -29.8100 H   0  0  0  0  0  0  0  0  0  0  0  0
   -1.1947   20.2493  -31.6174 H   0  0  0  0  0  0  0  0  0  0  0  0
   -1.2880   21.3002  -33.0799 H   0  0  0  0  0  0  0  0  0  0  0  0
    0.3913   23.0660  -27.3498 H   0  0  0  0  0  0  0  0  0  0  0  0
   -1.1142   24.6281  -26.2001 H   0  0  0  0  0  0  0  0  0  0  0  0
   -0.4544   25.4180  -27.6723 H   0  0  0  0  0  0  0  0  0  0  0  0
   -2.1326   24.7774  -27.6723 H   0  0  0  0  0  0  0  0  0  0  0  0
   -1.5397   19.7075  -25.1622 H   0  0  0  0  0  0  0  0  0  0  0  0
   -2.9419   20.4845  -25.9805 H   0  0  0  0  0  0  0  0  0  0  0  0
   -1.3093   18.1277  -26.7905 H   0  0  0  0  0  0  0  0  0  0  0  0
   -3.0182   18.5468  -27.1696 H   0  0  0  0  0  0  0  0  0  0  0  0
   -1.8860   20.3240  -28.4430 H   0  0  0  0  0  0  0  0  0  0  0  0
   -5.9673   19.5773  -31.7237 H   0  0  0  0  0  0  0  0  0  0  0  0
  1  2  1  0
  2  3  2  0
  3  4  1  0
  4  5  2  0
  5  6  1  0
  6  7  2  0
  7  8  1  0
  8  9  1  0
  8 10  2  0
  7 11  1  0
 11 12  1  0
 12 13  2  0
 12 14  1  0
 14 15  1  0
 15 16  1  0
 16 17  1  0
 17 18  2  0
 17 19  1  0
 19 20  1  0
 20 21  1  0
 20 22  1  0
 22 23  2  0
 22 24  1  0
 24 25  1  0
 25 26  1  0
 26 27  1  0
 11 28  1  0
 28 29  2  0
 29  2  1  0
 28  5  1  0
  1 30  1  0
  1 31  1  0
  1 32  1  0
  3 33  1  0
  4 34  1  0
  6 35  1  0
  9 36  1  0
  9 37  1  0
 15 38  1  0
 15 39  1  0
 20 40  1  1
 21 41  1  0
 21 42  1  0
 21 43  1  0
 25 44  1  0
 25 45  1  0
 26 46  1  0
 26 47  1  0
 27 48  1  0
 29 49  1  0
M  END
>  <UniqueID>  (82) 
82

>  <SMILES>  (82) 
Cc1ccc2cc(C(N)=O)n(C(=O)OCOC(=O)O[C@@H](C)C(=O)OCCO)c2c1

>  <Energy>  (82) 
71.53805315078583

>  <Genealogy>  (82) 
Cc1ccc2cc(C(N)=O)n(C(=O)OCOC(=O)O[C@@H](C)C(=O)OCCO)c2c1 (3D coordinates assigned)
Cc1ccc2cc(C(N)=O)n(C(=O)OCOC(=O)O[C@@H](C)C(=O)OCCO)c2c1 (optimized conformer: 71.53805315078583 kcal/mol)

>  <smiles>  (82) 
Cc1ccc2cc(C(N)=O)n(C(=O)OCOC(=O)O[C@@H](C)C(=O)OCCO)c2c1

>  <score_type>  (82) 
oracle

>  <origin>  (82) 
adg

>  <m_score__min__energy>  (82) 
-6.8799999999999999

>  <m_primary>  (82) 
energy

$$$$
82:0
     RDKit          3D

 34 35  0  0  0  0  0  0  0  0999 V2000
   -5.6290   16.7350  -32.3740 C   0  0  0  0  0  0  0  0  0  0  0  0
   -6.8580   17.3990  -32.7960 N   0  0  0  0  0  0  0  0  0  0  0  0
   -7.2440   18.7130  -32.3540 C   0  0  0  0  0  0  0  0  0  0  0  0
   -8.6090   19.0590  -32.1540 C   0  0  0  0  0  0  0  0  0  0  0  0
   -8.9680   20.3500  -31.7290 C   0  0  0  0  0  0  0  0  0  0  0  0
   -7.9490   21.2730  -31.5130 C   0  0  0  0  0  0  0  0  0  0  0  0
   -8.0100   22.5900  -31.1100 C   0  0  0  0  0  0  0  0  0  0  0  0
   -6.6840   23.0290  -31.0690 C   0  0  0  0  0  0  0  0  0  0  0  0
   -6.2460   24.3920  -30.6830 C   0  0  0  0  0  0  0  0  0  0  0  0
   -5.8450   24.6920  -29.3430 N   0  0  0  0  0  0  0  0  0  0  0  0
   -6.2220   25.3130  -31.5430 O   0  0  0  0  0  0  0  0  0  0  0  0
   -5.8480   22.0150  -31.4280 N   0  0  0  0  0  0  0  0  0  0  0  0
   -4.4200   22.0530  -31.5310 C   0  0  0  0  0  0  0  0  0  0  0  0
   -3.8740   21.9910  -32.6650 O   0  0  0  0  0  0  0  0  0  0  0  0
   -3.5830   22.2430  -30.3080 C   0  0  0  0  0  0  0  0  0  0  0  0
   -2.5860   23.1940  -30.5890 O   0  0  0  0  0  0  0  0  0  0  0  0
   -2.9170   24.5990  -29.6830 P   0  0  0  0  0  0  0  0  0  0  0  0
   -3.6680   24.2120  -28.4300 O   0  0  0  0  0  0  0  0  0  0  0  0
   -1.4690   25.3600  -29.2460 O   0  0  0  0  0  0  0  0  0  0  0  0
   -3.8670   25.6690  -30.5860 O   0  0  0  0  0  0  0  0  0  0  0  0
   -6.6330   20.9530  -31.6980 C   0  0  0  0  0  0  0  0  0  0  0  0
   -6.2420   19.6790  -32.1190 C   0  0  0  0  0  0  0  0  0  0  0  0
   -5.5841   16.7107  -31.2752 H   0  0  0  0  0  0  0  0  0  0  0  0
   -5.6152   15.7067  -32.7644 H   0  0  0  0  0  0  0  0  0  0  0  0
   -4.7613   17.2871  -32.7644 H   0  0  0  0  0  0  0  0  0  0  0  0
   -7.4830   16.8850  -33.4590 H   0  0  0  0  0  0  0  0  0  0  0  0
   -9.3924   18.3081  -32.3339 H   0  0  0  0  0  0  0  0  0  0  0  0
  -10.0221   20.6224  -31.5720 H   0  0  0  0  0  0  0  0  0  0  0  0
   -8.9121   23.1724  -30.8711 H   0  0  0  0  0  0  0  0  0  0  0  0
   -5.8910   23.9830  -28.5800 H   0  0  0  0  0  0  0  0  0  0  0  0
   -5.5100   25.6510  -29.1030 H   0  0  0  0  0  0  0  0  0  0  0  0
   -4.2128   22.6002  -29.4799 H   0  0  0  0  0  0  0  0  0  0  0  0
   -3.1201   21.2883  -30.0179 H   0  0  0  0  0  0  0  0  0  0  0  0
   -5.1792   19.4350  -32.2637 H   0  0  0  0  0  0  0  0  0  0  0  0
  1  2  1  0
  2  3  1  0
  3  4  2  0
  4  5  1  0
  5  6  2  0
  6  7  1  0
  7  8  2  0
  8  9  1  0
  9 10  1  0
  9 11  2  0
  8 12  1  0
 12 13  1  0
 13 14  2  0
 13 15  1  0
 15 16  1  0
 16 17  1  0
 17 18  2  0
 17 19  1  0
 17 20  1  0
 12 21  1  0
 21 22  2  0
 22  3  1  0
 21  6  1  0
  1 23  1  0
  1 24  1  0
  1 25  1  0
  2 26  1  0
  4 27  1  0
  5 28  1  0
  7 29  1  0
 10 30  1  0
 10 31  1  0
 15 32  1  0
 15 33  1  0
 22 34  1  0
M  CHG  2  19  -1  20  -1
M  END
>  <UniqueID>  (83) 
83

>  <SMILES>  (83) 
CNc1ccc2cc(C(N)=O)n(C(=O)COP(=O)([O-])[O-])c2c1

>  <Energy>  (83) 
70.8880602040842

>  <Genealogy>  (83) 
CNc1ccc2cc(C(N)=O)n(C(=O)COP(=O)([O-])[O-])c2c1 (protonated)
CNc1ccc2cc(C(N)=O)n(C(=O)COP(=O)([O-])[O-])c2c1 (3D coordinates assigned)
CNc1ccc2cc(C(N)=O)n(C(=O)COP(=O)([O-])[O-])c2c1 (optimized conformer: 70.8880602040842 kcal/mol)

>  <smiles>  (83) 
CNc1ccc2cc(C(N)=O)n(C(=O)COP(=O)(O)O)c2c1

>  <score_type>  (83) 
oracle

>  <origin>  (83) 
adg

>  <m_score__min__energy>  (83) 
-12.43

>  <m_primary>  (83) 
energy

$$$$
83:0
     RDKit          3D

 51 52  0  0  0  0  0  0  0  0999 V2000
   -2.8980   20.3350  -30.7690 C   0  0  0  0  0  0  0  0  0  0  0  0
   -2.5190   21.3660  -29.6900 C   0  0  2  0  0  0  0  0  0  0  0  0
   -3.0630   20.9420  -28.3460 C   0  0  0  0  0  0  0  0  0  0  0  0
   -2.7130   19.8500  -27.8220 O   0  0  0  0  0  0  0  0  0  0  0  0
   -3.9440   21.7710  -27.6630 O   0  0  0  0  0  0  0  0  0  0  0  0
   -2.9240   22.7380  -30.1000 N   0  0  1  0  0  0  0  0  0  0  0  0
   -1.8530   23.6310  -30.1280 O   0  0  0  0  0  0  0  0  0  0  0  0
   -0.7890   23.7060  -29.2100 C   0  0  0  0  0  0  0  0  0  0  0  0
   -0.0350   22.7230  -28.9840 O   0  0  0  0  0  0  0  0  0  0  0  0
   -0.5600   24.9920  -28.4630 C   0  0  1  0  0  0  0  0  0  0  0  0
   -1.5240   26.0100  -28.8900 N   0  0  0  0  0  0  0  0  0  0  0  0
   -0.6640   24.7440  -26.9430 C   0  0  0  0  0  0  0  0  0  0  0  0
   -1.8970   23.9180  -26.5460 C   0  0  0  0  0  0  0  0  0  0  0  0
   -3.1760   24.5400  -27.0170 C   0  0  0  0  0  0  0  0  0  0  0  0
   -3.9270   25.1400  -26.2020 O   0  0  0  0  0  0  0  0  0  0  0  0
   -3.5430   24.4480  -28.3530 O   0  0  0  0  0  0  0  0  0  0  0  0
   -3.7500   22.7890  -31.2920 C   0  0  0  0  0  0  0  0  0  0  0  0
   -3.2490   22.6080  -32.4340 O   0  0  0  0  0  0  0  0  0  0  0  0
   -5.1730   22.9550  -31.1800 N   0  0  0  0  0  0  0  0  0  0  0  0
   -5.8410   24.0720  -30.7780 C   0  0  0  0  0  0  0  0  0  0  0  0
   -5.2260   25.3760  -30.4490 C   0  0  0  0  0  0  0  0  0  0  0  0
   -3.8840   25.6500  -30.8480 N   0  0  0  0  0  0  0  0  0  0  0  0
   -5.8660   26.2470  -29.8030 O   0  0  0  0  0  0  0  0  0  0  0  0
   -7.2150   23.8420  -30.7650 C   0  0  0  0  0  0  0  0  0  0  0  0
   -7.3680   22.5370  -31.1760 C   0  0  0  0  0  0  0  0  0  0  0  0
   -8.5240   21.7780  -31.3230 C   0  0  0  0  0  0  0  0  0  0  0  0
   -8.3860   20.4430  -31.7350 C   0  0  0  0  0  0  0  0  0  0  0  0
   -7.1050   19.8940  -32.0020 C   0  0  0  0  0  0  0  0  0  0  0  0
   -6.9700   18.4440  -32.3940 C   0  0  0  0  0  0  0  0  0  0  0  0
   -6.0430   17.8330  -31.5700 F   0  0  0  0  0  0  0  0  0  0  0  0
   -6.5510   18.3320  -33.7080 F   0  0  0  0  0  0  0  0  0  0  0  0
   -8.1860   17.7910  -32.2720 F   0  0  0  0  0  0  0  0  0  0  0  0
   -5.9520   20.6910  -31.8140 C   0  0  0  0  0  0  0  0  0  0  0  0
   -6.1210   22.0230  -31.4200 C   0  0  0  0  0  0  0  0  0  0  0  0
   -3.2390   19.4074  -30.2861 H   0  0  0  0  0  0  0  0  0  0  0  0
   -3.7059   20.7404  -31.3959 H   0  0  0  0  0  0  0  0  0  0  0  0
   -2.0199   20.1207  -31.3959 H   0  0  0  0  0  0  0  0  0  0  0  0
   -1.4249   21.4012  -29.5821 H   0  0  0  0  0  0  0  0  0  0  0  0
   -3.5380   23.0900  -29.3280 H   0  0  0  0  0  0  0  0  0  0  0  0
    0.4509   25.3615  -28.6899 H   0  0  0  0  0  0  0  0  0  0  0  0
   -2.0240   25.6640  -29.7420 H   0  0  0  0  0  0  0  0  0  0  0  0
   -2.2380   26.1510  -28.1380 H   0  0  0  0  0  0  0  0  0  0  0  0
    0.2374   24.2061  -26.6143 H   0  0  0  0  0  0  0  0  0  0  0  0
   -0.7596   25.7266  -26.4579 H   0  0  0  0  0  0  0  0  0  0  0  0
   -1.8079   22.9149  -26.9886 H   0  0  0  0  0  0  0  0  0  0  0  0
   -1.9307   23.8719  -25.4475 H   0  0  0  0  0  0  0  0  0  0  0  0
   -3.0760   25.3020  -30.2850 H   0  0  0  0  0  0  0  0  0  0  0  0
   -8.0080   24.5514  -30.4860 H   0  0  0  0  0  0  0  0  0  0  0  0
   -9.5155   22.2102  -31.1227 H   0  0  0  0  0  0  0  0  0  0  0  0
   -9.2815   19.8151  -31.8522 H   0  0  0  0  0  0  0  0  0  0  0  0
   -4.9467   20.2740  -31.9736 H   0  0  0  0  0  0  0  0  0  0  0  0
  1  2  1  0
  2  3  1  0
  3  4  2  0
  3  5  1  0
  2  6  1  0
  6  7  1  0
  7  8  1  0
  8  9  2  0
  8 10  1  0
 10 11  1  0
 10 12  1  0
 12 13  1  0
 13 14  1  0
 14 15  2  0
 14 16  1  0
  6 17  1  0
 17 18  2  0
 17 19  1  0
 19 20  1  0
 20 21  1  0
 21 22  1  0
 21 23  2  0
 20 24  2  0
 24 25  1  0
 25 26  2  0
 26 27  1  0
 27 28  2  0
 28 29  1  0
 29 30  1  0
 29 31  1  0
 29 32  1  0
 28 33  1  0
 33 34  2  0
 34 19  1  0
 34 25  1  0
  1 35  1  0
  1 36  1  0
  1 37  1  0
  2 38  1  1
  6 39  1  1
 10 40  1  1
 11 41  1  0
 11 42  1  0
 12 43  1  0
 12 44  1  0
 13 45  1  0
 13 46  1  0
 22 47  1  0
 24 48  1  0
 26 49  1  0
 27 50  1  0
 33 51  1  0
M  CHG  4   5  -1   6   1  16  -1  22  -1
M  END
>  <UniqueID>  (84) 
84

>  <SMILES>  (84) 
C[C@H](C(=O)[O-])[N@@H+](OC(=O)[C@@H](N)CCC(=O)[O-])C(=O)n1c(C([NH-])=O)cc2ccc(C(F)(F)F)cc21

>  <Energy>  (84) 
96.32519816306832

>  <Genealogy>  (84) 
CC(C(=O)[O-])[NH+](OC(=O)[C@@H](N)CCC(=O)[O-])C(=O)n1c(C([NH-])=O)cc2ccc(C(F)(F)F)cc21 (protonated)
C[C@H](C(=O)[O-])[N@@H+](OC(=O)[C@@H](N)CCC(=O)[O-])C(=O)n1c(C([NH-])=O)cc2ccc(C(F)(F)F)cc21 (chirality)
C[C@H](C(=O)[O-])[N@@H+](OC(=O)[C@@H](N)CCC(=O)[O-])C(=O)n1c(C([NH-])=O)cc2ccc(C(F)(F)F)cc21 (3D coordinates assigned)
C[C@H](C(=O)[O-])[N@@H+](OC(=O)[C@@H](N)CCC(=O)[O-])C(=O)n1c(C([NH-])=O)cc2ccc(C(F)(F)F)cc21 (optimized conformer: 96.32519816306832 kcal/mol)

>  <smiles>  (84) 
CC(C(=O)O)N(OC(=O)[C@@H](N)CCC(=O)O)C(=O)n1c(C(N)=O)cc2ccc(C(F)(F)F)cc21

>  <score_type>  (84) 
oracle

>  <origin>  (84) 
adg

>  <m_score__min__energy>  (84) 
-12.880000000000001

>  <m_primary>  (84) 
energy

$$$$
84:0
     RDKit          3D

 48 49  0  0  0  0  0  0  0  0999 V2000
   -3.3500   18.8460  -26.2400 C   0  0  0  0  0  0  0  0  0  0  0  0
   -2.2030   19.7210  -26.7350 C   0  0  0  0  0  0  0  0  0  0  0  0
   -2.7030   20.9430  -27.2440 O   0  0  0  0  0  0  0  0  0  0  0  0
   -1.6510   21.7280  -27.7700 C   0  0  0  0  0  0  0  0  0  0  0  0
   -2.1370   22.4770  -29.0350 C   0  0  1  0  0  0  0  0  0  0  0  0
   -3.3990   21.7790  -29.6210 C   0  0  0  0  0  0  0  0  0  0  0  0
   -3.8890   22.4630  -30.8700 C   0  0  0  0  0  0  0  0  0  0  0  0
   -3.0720   22.7280  -31.7930 O   0  0  0  0  0  0  0  0  0  0  0  0
   -5.2830   22.7570  -31.0490 N   0  0  0  0  0  0  0  0  0  0  0  0
   -5.9310   23.9340  -30.8220 C   0  0  0  0  0  0  0  0  0  0  0  0
   -5.2890   25.2210  -30.4830 C   0  0  0  0  0  0  0  0  0  0  0  0
   -3.8680   25.3270  -30.4780 N   0  0  0  0  0  0  0  0  0  0  0  0
   -5.9840   26.2220  -30.1690 O   0  0  0  0  0  0  0  0  0  0  0  0
   -7.3000   23.7880  -31.0470 C   0  0  0  0  0  0  0  0  0  0  0  0
   -7.4680   22.4770  -31.4320 C   0  0  0  0  0  0  0  0  0  0  0  0
   -8.6230   21.7860  -31.7820 C   0  0  0  0  0  0  0  0  0  0  0  0
   -8.5000   20.4280  -32.1250 C   0  0  0  0  0  0  0  0  0  0  0  0
   -7.2360   19.7830  -32.0950 C   0  0  0  0  0  0  0  0  0  0  0  0
   -7.1100   18.3360  -32.5000 C   0  0  0  0  0  0  0  0  0  0  0  0
   -6.7590   18.2340  -33.8350 F   0  0  0  0  0  0  0  0  0  0  0  0
   -8.3220   17.7010  -32.3020 F   0  0  0  0  0  0  0  0  0  0  0  0
   -6.1390   17.7000  -31.7470 F   0  0  0  0  0  0  0  0  0  0  0  0
   -6.0820   20.5300  -31.7620 C   0  0  0  0  0  0  0  0  0  0  0  0
   -6.2360   21.8800  -31.4300 C   0  0  0  0  0  0  0  0  0  0  0  0
   -2.3420   23.9300  -28.7540 N   0  0  1  0  0  0  0  0  0  0  0  0
   -2.9510   24.1740  -27.4320 C   0  0  0  0  0  0  0  0  0  0  0  0
   -1.1380   24.7160  -28.9200 C   0  0  0  0  0  0  0  0  0  0  0  0
    0.0010   24.2060  -28.7330 O   0  0  0  0  0  0  0  0  0  0  0  0
   -1.2270   26.0450  -29.3160 O   0  0  0  0  0  0  0  0  0  0  0  0
   -3.3581   18.8398  -25.1400 H   0  0  0  0  0  0  0  0  0  0  0  0
   -4.3043   19.2477  -26.6115 H   0  0  0  0  0  0  0  0  0  0  0  0
   -3.2148   17.8195  -26.6115 H   0  0  0  0  0  0  0  0  0  0  0  0
   -1.5182   19.9288  -25.8996 H   0  0  0  0  0  0  0  0  0  0  0  0
   -1.6684   19.1909  -27.5370 H   0  0  0  0  0  0  0  0  0  0  0  0
   -1.3279   22.4591  -27.0143 H   0  0  0  0  0  0  0  0  0  0  0  0
   -0.8081   21.0736  -28.0369 H   0  0  0  0  0  0  0  0  0  0  0  0
   -1.3567   22.4273  -29.8087 H   0  0  0  0  0  0  0  0  0  0  0  0
   -3.1488   20.7353  -29.8618 H   0  0  0  0  0  0  0  0  0  0  0  0
   -4.1986   21.8309  -28.8674 H   0  0  0  0  0  0  0  0  0  0  0  0
   -3.3590   25.6800  -29.6380 H   0  0  0  0  0  0  0  0  0  0  0  0
   -8.0794   24.5568  -30.9396 H   0  0  0  0  0  0  0  0  0  0  0  0
   -9.6026   22.2864  -31.7902 H   0  0  0  0  0  0  0  0  0  0  0  0
   -9.3938   19.8588  -32.4200 H   0  0  0  0  0  0  0  0  0  0  0  0
   -5.0872   20.0605  -31.7641 H   0  0  0  0  0  0  0  0  0  0  0  0
   -3.0400   24.2980  -29.4430 H   0  0  0  0  0  0  0  0  0  0  0  0
   -2.2400   23.8891  -26.6425 H   0  0  0  0  0  0  0  0  0  0  0  0
   -3.1994   25.2411  -27.3341 H   0  0  0  0  0  0  0  0  0  0  0  0
   -3.8675   23.5737  -27.3341 H   0  0  0  0  0  0  0  0  0  0  0  0
  1  2  1  0
  2  3  1  0
  3  4  1  0
  4  5  1  0
  5  6  1  0
  6  7  1  0
  7  8  2  0
  7  9  1  0
  9 10  1  0
 10 11  1  0
 11 12  1  0
 11 13  2  0
 10 14  2  0
 14 15  1  0
 15 16  2  0
 16 17  1  0
 17 18  2  0
 18 19  1  0
 19 20  1  0
 19 21  1  0
 19 22  1  0
 18 23  1  0
 23 24  2  0
  5 25  1  0
 25 26  1  0
 25 27  1  0
 27 28  2  0
 27 29  1  0
 24  9  1  0
 24 15  1  0
  1 30  1  0
  1 31  1  0
  1 32  1  0
  2 33  1  0
  2 34  1  0
  4 35  1  0
  4 36  1  0
  5 37  1  6
  6 38  1  0
  6 39  1  0
 12 40  1  0
 14 41  1  0
 16 42  1  0
 17 43  1  0
 23 44  1  0
 25 45  1  6
 26 46  1  0
 26 47  1  0
 26 48  1  0
M  CHG  3  12  -1  25   1  29  -1
M  END
>  <UniqueID>  (85) 
85

>  <SMILES>  (85) 
CCOC[C@@H](CC(=O)n1c(C([NH-])=O)cc2ccc(C(F)(F)F)cc21)[N@@H+](C)C(=O)[O-]

>  <Energy>  (85) 
90.65146872561297

>  <Genealogy>  (85) 
CCOC[C@@H](CC(=O)n1c(C([NH-])=O)cc2ccc(C(F)(F)F)cc21)[NH+](C)C(=O)[O-] (protonated)
CCOC[C@@H](CC(=O)n1c(C([NH-])=O)cc2ccc(C(F)(F)F)cc21)[N@@H+](C)C(=O)[O-] (chirality)
CCOC[C@@H](CC(=O)n1c(C([NH-])=O)cc2ccc(C(F)(F)F)cc21)[N@@H+](C)C(=O)[O-] (3D coordinates assigned)
CCOC[C@@H](CC(=O)n1c(C([NH-])=O)cc2ccc(C(F)(F)F)cc21)[N@@H+](C)C(=O)[O-] (optimized conformer: 90.65146872561297 kcal/mol)

>  <smiles>  (85) 
CCOC[C@@H](CC(=O)n1c(C(N)=O)cc2ccc(C(F)(F)F)cc21)N(C)C(=O)O

>  <score_type>  (85) 
oracle

>  <origin>  (85) 
adg

>  <m_score__min__energy>  (85) 
-11.43

>  <m_primary>  (85) 
energy

$$$$
85:0
     RDKit          3D

 38 39  0  0  0  0  0  0  0  0999 V2000
   -6.8400   18.0660  -32.3310 C   0  0  0  0  0  0  0  0  0  0  0  0
   -7.0550   19.5150  -32.0100 C   0  0  0  0  0  0  0  0  0  0  0  0
   -8.3660   20.0490  -31.9780 C   0  0  0  0  0  0  0  0  0  0  0  0
   -8.5810   21.3980  -31.6470 C   0  0  0  0  0  0  0  0  0  0  0  0
   -7.4690   22.1800  -31.3450 C   0  0  0  0  0  0  0  0  0  0  0  0
   -7.3910   23.5070  -30.9900 C   0  0  0  0  0  0  0  0  0  0  0  0
   -6.0350   23.7560  -30.7860 C   0  0  0  0  0  0  0  0  0  0  0  0
   -5.5040   25.0280  -30.2520 C   0  0  0  0  0  0  0  0  0  0  0  0
   -4.2170   25.5050  -30.6460 N   0  0  0  0  0  0  0  0  0  0  0  0
   -6.2000   25.7220  -29.4640 O   0  0  0  0  0  0  0  0  0  0  0  0
   -5.3020   22.6300  -31.0210 N   0  0  0  0  0  0  0  0  0  0  0  0
   -3.8710   22.4790  -30.9820 C   0  0  0  0  0  0  0  0  0  0  0  0
   -3.1760   22.8720  -31.9570 O   0  0  0  0  0  0  0  0  0  0  0  0
   -3.1840   21.8850  -29.7830 C   0  0  0  0  0  0  0  0  0  0  0  0
   -3.8910   22.2390  -28.4630 C   0  0  0  0  0  0  0  0  0  0  0  0
   -3.3790   23.5510  -27.8340 C   0  0  2  0  0  0  0  0  0  0  0  0
   -4.4430   24.5540  -27.7790 N   0  0  0  0  0  0  0  0  0  0  0  0
   -2.1970   24.0790  -28.6070 C   0  0  0  0  0  0  0  0  0  0  0  0
   -1.1030   23.4550  -28.6080 O   0  0  0  0  0  0  0  0  0  0  0  0
   -2.3130   25.2610  -29.3290 O   0  0  0  0  0  0  0  0  0  0  0  0
   -6.1970   21.6710  -31.3480 C   0  0  0  0  0  0  0  0  0  0  0  0
   -5.9540   20.3330  -31.6750 C   0  0  0  0  0  0  0  0  0  0  0  0
   -6.7548   17.4921  -31.3964 H   0  0  0  0  0  0  0  0  0  0  0  0
   -7.6921   17.6897  -32.9160 H   0  0  0  0  0  0  0  0  0  0  0  0
   -5.9153   17.9533  -32.9160 H   0  0  0  0  0  0  0  0  0  0  0  0
   -9.2239   19.4023  -32.2143 H   0  0  0  0  0  0  0  0  0  0  0  0
   -9.5956   21.8226  -31.6271 H   0  0  0  0  0  0  0  0  0  0  0  0
   -8.2224   24.2201  -30.8887 H   0  0  0  0  0  0  0  0  0  0  0  0
   -3.8670   26.4240  -30.2930 H   0  0  0  0  0  0  0  0  0  0  0  0
   -3.5900   24.9340  -31.2550 H   0  0  0  0  0  0  0  0  0  0  0  0
   -3.1679   20.7905  -29.8920 H   0  0  0  0  0  0  0  0  0  0  0  0
   -2.1672   22.3023  -29.7398 H   0  0  0  0  0  0  0  0  0  0  0  0
   -4.9683   22.3425  -28.6599 H   0  0  0  0  0  0  0  0  0  0  0  0
   -3.6780   21.4290  -27.7499 H   0  0  0  0  0  0  0  0  0  0  0  0
   -3.0581   23.3352  -26.8042 H   0  0  0  0  0  0  0  0  0  0  0  0
   -4.2170   25.3230  -28.4520 H   0  0  0  0  0  0  0  0  0  0  0  0
   -5.3470   24.1240  -28.0850 H   0  0  0  0  0  0  0  0  0  0  0  0
   -4.9312   19.9283  -31.6713 H   0  0  0  0  0  0  0  0  0  0  0  0
  1  2  1  0
  2  3  2  0
  3  4  1  0
  4  5  2  0
  5  6  1  0
  6  7  2  0
  7  8  1  0
  8  9  1  0
  8 10  2  0
  7 11  1  0
 11 12  1  0
 12 13  2  0
 12 14  1  0
 14 15  1  0
 15 16  1  0
 16 17  1  0
 16 18  1  0
 18 19  2  0
 18 20  1  0
 11 21  1  0
 21 22  2  0
 22  2  1  0
 21  5  1  0
  1 23  1  0
  1 24  1  0
  1 25  1  0
  3 26  1  0
  4 27  1  0
  6 28  1  0
  9 29  1  0
  9 30  1  0
 14 31  1  0
 14 32  1  0
 15 33  1  0
 15 34  1  0
 16 35  1  1
 17 36  1  0
 17 37  1  0
 22 38  1  0
M  CHG  1  20  -1
M  END
>  <UniqueID>  (86) 
86

>  <SMILES>  (86) 
Cc1ccc2cc(C(N)=O)n(C(=O)CC[C@H](N)C(=O)[O-])c2c1

>  <Energy>  (86) 
72.28196563188543

>  <Genealogy>  (86) 
Cc1ccc2cc(C(N)=O)n(C(=O)CC[C@H](N)C(=O)[O-])c2c1 (protonated)
Cc1ccc2cc(C(N)=O)n(C(=O)CC[C@H](N)C(=O)[O-])c2c1 (3D coordinates assigned)
Cc1ccc2cc(C(N)=O)n(C(=O)CC[C@H](N)C(=O)[O-])c2c1 (optimized conformer: 72.28196563188543 kcal/mol)

>  <smiles>  (86) 
Cc1ccc2cc(C(N)=O)n(C(=O)CC[C@H](N)C(=O)O)c2c1

>  <score_type>  (86) 
oracle

>  <origin>  (86) 
adg

>  <m_score__min__energy>  (86) 
-11.15

>  <m_primary>  (86) 
energy

$$$$
86:0
     RDKit          3D

 40 42  0  0  0  0  0  0  0  0999 V2000
   -6.6940   18.3520  -32.9560 C   0  0  0  0  0  0  0  0  0  0  0  0
   -6.9100   19.7650  -32.4950 C   0  0  0  0  0  0  0  0  0  0  0  0
   -8.2190   20.3040  -32.4100 C   0  0  0  0  0  0  0  0  0  0  0  0
   -8.4230   21.6190  -31.9590 C   0  0  0  0  0  0  0  0  0  0  0  0
   -7.3070   22.3710  -31.6120 C   0  0  0  0  0  0  0  0  0  0  0  0
   -7.2140   23.6550  -31.1190 C   0  0  0  0  0  0  0  0  0  0  0  0
   -5.8520   23.8780  -30.9270 C   0  0  0  0  0  0  0  0  0  0  0  0
   -5.2880   25.1240  -30.3750 C   0  0  0  0  0  0  0  0  0  0  0  0
   -3.8810   25.2530  -30.1670 N   0  0  0  0  0  0  0  0  0  0  0  0
   -6.0520   26.0700  -30.0450 O   0  0  0  0  0  0  0  0  0  0  0  0
   -5.1320   22.7760  -31.2730 N   0  0  0  0  0  0  0  0  0  0  0  0
   -3.7300   22.5530  -31.0610 C   0  0  0  0  0  0  0  0  0  0  0  0
   -2.9240   22.6590  -32.0230 O   0  0  0  0  0  0  0  0  0  0  0  0
   -3.2290   22.2050  -29.7220 C   0  0  0  0  0  0  0  0  0  0  0  0
   -2.9800   20.9990  -29.4430 O   0  0  0  0  0  0  0  0  0  0  0  0
   -3.0330   23.2330  -28.7410 N   0  0  0  0  0  0  0  0  0  0  0  0
   -1.7700   23.5120  -28.0600 C   0  0  1  0  0  0  0  0  0  0  0  0
   -0.9740   24.5360  -28.8230 C   0  0  0  0  0  0  0  0  0  0  0  0
    0.2730   24.4110  -28.9720 O   0  0  0  0  0  0  0  0  0  0  0  0
   -1.6160   25.6520  -29.3410 O   0  0  0  0  0  0  0  0  0  0  0  0
   -2.0410   23.9540  -26.6060 C   0  0  0  0  0  0  0  0  0  0  0  0
   -1.7210   25.4060  -26.2850 C   0  0  0  0  0  0  0  0  0  0  0  0
   -3.1670   24.9620  -26.4350 C   0  0  0  0  0  0  0  0  0  0  0  0
   -6.0360   21.8610  -31.6850 C   0  0  0  0  0  0  0  0  0  0  0  0
   -5.8010   20.5550  -32.1290 C   0  0  0  0  0  0  0  0  0  0  0  0
   -6.5932   17.6924  -32.0815 H   0  0  0  0  0  0  0  0  0  0  0  0
   -7.5531   18.0287  -33.5621 H   0  0  0  0  0  0  0  0  0  0  0  0
   -5.7775   18.3001  -33.5621 H   0  0  0  0  0  0  0  0  0  0  0  0
   -9.0824   19.6870  -32.6998 H   0  0  0  0  0  0  0  0  0  0  0  0
   -9.4361   22.0408  -31.8828 H   0  0  0  0  0  0  0  0  0  0  0  0
   -8.0392   24.3545  -30.9196 H   0  0  0  0  0  0  0  0  0  0  0  0
   -3.4940   26.1160  -29.7240 H   0  0  0  0  0  0  0  0  0  0  0  0
   -3.2160   24.5280  -30.5200 H   0  0  0  0  0  0  0  0  0  0  0  0
   -1.1657   22.5936  -28.0233 H   0  0  0  0  0  0  0  0  0  0  0  0
   -1.7828   22.9843  -26.1554 H   0  0  0  0  0  0  0  0  0  0  0  0
   -1.3288   25.6765  -25.2935 H   0  0  0  0  0  0  0  0  0  0  0  0
   -1.0947   26.1845  -26.7452 H   0  0  0  0  0  0  0  0  0  0  0  0
   -3.8211   24.9113  -25.5521 H   0  0  0  0  0  0  0  0  0  0  0  0
   -4.0204   25.2862  -27.0487 H   0  0  0  0  0  0  0  0  0  0  0  0
   -4.7781   20.1552  -32.1909 H   0  0  0  0  0  0  0  0  0  0  0  0
  1  2  1  0
  2  3  2  0
  3  4  1  0
  4  5  2  0
  5  6  1  0
  6  7  2  0
  7  8  1  0
  8  9  1  0
  8 10  2  0
  7 11  1  0
 11 12  1  0
 12 13  2  0
 12 14  1  0
 14 15  2  0
 14 16  1  0
 16 17  1  0
 17 18  1  0
 18 19  2  0
 18 20  1  0
 17 21  1  0
 21 22  1  0
 22 23  1  0
 11 24  1  0
 24 25  2  0
 25  2  1  0
 24  5  1  0
 23 21  1  0
  1 26  1  0
  1 27  1  0
  1 28  1  0
  3 29  1  0
  4 30  1  0
  6 31  1  0
  9 32  1  0
  9 33  1  0
 17 34  1  1
 21 35  1  0
 22 36  1  0
 22 37  1  0
 23 38  1  0
 23 39  1  0
 25 40  1  0
M  CHG  2  16  -1  20  -1
M  END
>  <UniqueID>  (87) 
87

>  <SMILES>  (87) 
Cc1ccc2cc(C(N)=O)n(C(=O)C(=O)[N-][C@@H](C(=O)[O-])C3CC3)c2c1

>  <Energy>  (87) 
343.6720724021135

>  <Genealogy>  (87) 
Cc1ccc2cc(C(N)=O)n(C(=O)C(=O)[N-]C(C(=O)[O-])C3CC3)c2c1 (protonated)
Cc1ccc2cc(C(N)=O)n(C(=O)C(=O)[N-][C@@H](C(=O)[O-])C3CC3)c2c1 (chirality)
Cc1ccc2cc(C(N)=O)n(C(=O)C(=O)[N-][C@@H](C(=O)[O-])C3CC3)c2c1 (3D coordinates assigned)
Cc1ccc2cc(C(N)=O)n(C(=O)C(=O)[N-][C@@H](C(=O)[O-])C3CC3)c2c1 (nonaromatic ring conformer: 343.6720724021135 kcal/mol)

>  <smiles>  (87) 
Cc1ccc2cc(C(N)=O)n(C(=O)C(=O)NC(C(=O)O)C3CC3)c2c1

>  <score_type>  (87) 
oracle

>  <origin>  (87) 
adg

>  <m_score__min__energy>  (87) 
-12.380000000000001

>  <m_primary>  (87) 
energy

$$$$
87:0
     RDKit          3D

 42 43  0  0  0  0  0  0  0  0999 V2000
   -6.4680   17.8040  -31.5500 C   0  0  0  0  0  0  0  0  0  0  0  0
   -7.3430   18.6140  -32.5010 C   0  0  0  0  0  0  0  0  0  0  0  0
   -7.3440   20.0710  -32.1220 C   0  0  0  0  0  0  0  0  0  0  0  0
   -8.5590   20.7960  -32.0680 C   0  0  0  0  0  0  0  0  0  0  0  0
   -8.5670   22.1530  -31.7020 C   0  0  0  0  0  0  0  0  0  0  0  0
   -7.3490   22.7520  -31.3910 C   0  0  0  0  0  0  0  0  0  0  0  0
   -7.0760   24.0390  -30.9900 C   0  0  0  0  0  0  0  0  0  0  0  0
   -5.6960   24.0840  -30.8070 C   0  0  0  0  0  0  0  0  0  0  0  0
   -4.9650   25.3220  -30.4620 C   0  0  0  0  0  0  0  0  0  0  0  0
   -3.6040   25.2480  -30.0430 N   0  0  0  0  0  0  0  0  0  0  0  0
   -5.5410   26.4410  -30.4910 O   0  0  0  0  0  0  0  0  0  0  0  0
   -5.1370   22.8690  -31.0730 N   0  0  0  0  0  0  0  0  0  0  0  0
   -3.7610   22.4740  -30.9200 C   0  0  0  0  0  0  0  0  0  0  0  0
   -2.8500   23.1140  -31.5110 O   0  0  0  0  0  0  0  0  0  0  0  0
   -3.4370   21.4080  -30.0760 O   0  0  0  0  0  0  0  0  0  0  0  0
   -2.1020   21.0870  -29.7070 C   0  0  0  0  0  0  0  0  0  0  0  0
   -1.7000   21.9480  -28.5530 C   0  0  0  0  0  0  0  0  0  0  0  0
   -1.2390   21.4170  -27.5060 O   0  0  0  0  0  0  0  0  0  0  0  0
   -1.8650   23.3690  -28.6350 N   0  0  0  0  0  0  0  0  0  0  0  0
   -1.5670   24.2430  -27.5000 C   0  0  0  0  0  0  0  0  0  0  0  0
   -1.3190   25.6790  -27.9590 C   0  0  0  0  0  0  0  0  0  0  0  0
   -1.1640   25.7170  -29.3500 O   0  0  0  0  0  0  0  0  0  0  0  0
   -6.1630   22.0660  -31.4360 C   0  0  0  0  0  0  0  0  0  0  0  0
   -6.1310   20.7090  -31.7820 C   0  0  0  0  0  0  0  0  0  0  0  0
   -6.7322   18.0486  -30.5106 H   0  0  0  0  0  0  0  0  0  0  0  0
   -6.6305   16.7305  -31.7268 H   0  0  0  0  0  0  0  0  0  0  0  0
   -5.4102   18.0487  -31.7268 H   0  0  0  0  0  0  0  0  0  0  0  0
   -6.9551   18.5086  -33.5249 H   0  0  0  0  0  0  0  0  0  0  0  0
   -8.3736   18.2344  -32.4391 H   0  0  0  0  0  0  0  0  0  0  0  0
   -9.5054   20.2926  -32.3148 H   0  0  0  0  0  0  0  0  0  0  0  0
   -9.5063   22.7241  -31.6625 H   0  0  0  0  0  0  0  0  0  0  0  0
   -7.7949   24.8588  -30.8447 H   0  0  0  0  0  0  0  0  0  0  0  0
   -2.8280   25.2320  -30.7400 H   0  0  0  0  0  0  0  0  0  0  0  0
   -2.0436   20.0278  -29.4158 H   0  0  0  0  0  0  0  0  0  0  0  0
   -1.4269   21.2633  -30.5574 H   0  0  0  0  0  0  0  0  0  0  0  0
   -2.2290   23.7780  -29.5260 H   0  0  0  0  0  0  0  0  0  0  0  0
   -2.4189   24.2307  -26.8042 H   0  0  0  0  0  0  0  0  0  0  0  0
   -0.6569   23.8733  -27.0051 H   0  0  0  0  0  0  0  0  0  0  0  0
   -2.1751   26.3066  -27.6706 H   0  0  0  0  0  0  0  0  0  0  0  0
   -0.4022   26.0570  -27.4830 H   0  0  0  0  0  0  0  0  0  0  0  0
   -2.0800   25.6730  -29.7300 H   0  0  0  0  0  0  0  0  0  0  0  0
   -5.1820   20.1527  -31.7887 H   0  0  0  0  0  0  0  0  0  0  0  0
  1  2  1  0
  2  3  1  0
  3  4  2  0
  4  5  1  0
  5  6  2  0
  6  7  1  0
  7  8  2  0
  8  9  1  0
  9 10  1  0
  9 11  2  0
  8 12  1  0
 12 13  1  0
 13 14  2  0
 13 15  1  0
 15 16  1  0
 16 17  1  0
 17 18  2  0
 17 19  1  0
 19 20  1  0
 20 21  1  0
 21 22  1  0
 12 23  1  0
 23 24  2  0
 24  3  1  0
 23  6  1  0
  1 25  1  0
  1 26  1  0
  1 27  1  0
  2 28  1  0
  2 29  1  0
  4 30  1  0
  5 31  1  0
  7 32  1  0
 10 33  1  0
 16 34  1  0
 16 35  1  0
 19 36  1  0
 20 37  1  0
 20 38  1  0
 21 39  1  0
 21 40  1  0
 22 41  1  0
 24 42  1  0
M  CHG  1  10  -1
M  END
>  <UniqueID>  (88) 
88

>  <SMILES>  (88) 
CCc1ccc2cc(C([NH-])=O)n(C(=O)OCC(=O)NCCO)c2c1

>  <Energy>  (88) 
67.61784794680248

>  <Genealogy>  (88) 
CCc1ccc2cc(C([NH-])=O)n(C(=O)OCC(=O)NCCO)c2c1 (protonated)
CCc1ccc2cc(C([NH-])=O)n(C(=O)OCC(=O)NCCO)c2c1 (3D coordinates assigned)
CCc1ccc2cc(C([NH-])=O)n(C(=O)OCC(=O)NCCO)c2c1 (optimized conformer: 67.61784794680248 kcal/mol)

>  <smiles>  (88) 
CCc1ccc2cc(C(N)=O)n(C(=O)OCC(=O)NCCO)c2c1

>  <score_type>  (88) 
oracle

>  <origin>  (88) 
adg

>  <m_score__min__energy>  (88) 
-10.52

>  <m_primary>  (88) 
energy

$$$$
88:0
     RDKit          3D

 41 43  0  0  0  0  0  0  0  0999 V2000
   -1.7280   19.7780  -27.1730 N   0  0  0  0  0  0  0  0  0  0  0  0
   -1.8920   20.8180  -27.6550 C   0  0  0  0  0  0  0  0  0  0  0  0
   -2.1020   22.1400  -28.2670 C   0  0  0  0  0  0  0  0  0  0  0  0
   -1.8670   22.1570  -29.7450 C   0  0  0  0  0  0  0  0  0  0  0  0
   -3.2690   22.4110  -30.1220 N   0  0  0  0  0  0  0  0  0  0  0  0
   -4.0280   22.5340  -31.3240 C   0  0  0  0  0  0  0  0  0  0  0  0
   -3.4670   22.3530  -32.4370 O   0  0  0  0  0  0  0  0  0  0  0  0
   -5.4210   22.8620  -31.2660 N   0  0  0  0  0  0  0  0  0  0  0  0
   -5.9920   24.0090  -30.8050 C   0  0  0  0  0  0  0  0  0  0  0  0
   -5.2640   25.1920  -30.2980 C   0  0  0  0  0  0  0  0  0  0  0  0
   -3.8630   25.3150  -30.5250 N   0  0  0  0  0  0  0  0  0  0  0  0
   -5.8660   26.0920  -29.6540 O   0  0  0  0  0  0  0  0  0  0  0  0
   -7.3800   23.9410  -30.9210 C   0  0  0  0  0  0  0  0  0  0  0  0
   -7.6400   22.7050  -31.4710 C   0  0  0  0  0  0  0  0  0  0  0  0
   -8.8520   22.1060  -31.8020 C   0  0  0  0  0  0  0  0  0  0  0  0
   -8.8190   20.8100  -32.3440 C   0  0  0  0  0  0  0  0  0  0  0  0
   -7.5840   20.1340  -32.5340 C   0  0  0  0  0  0  0  0  0  0  0  0
   -7.5580   18.8070  -33.1030 N   0  0  0  0  0  0  0  0  0  0  0  0
   -6.7660   17.8770  -32.2790 C   0  0  0  0  0  0  0  0  0  0  0  0
   -6.1280   16.7450  -33.1020 C   0  0  0  0  0  0  0  0  0  0  0  0
   -6.5300   16.8110  -34.4440 O   0  0  0  0  0  0  0  0  0  0  0  0
   -6.3770   20.7760  -32.1790 C   0  0  0  0  0  0  0  0  0  0  0  0
   -6.4400   22.0740  -31.6660 C   0  0  0  0  0  0  0  0  0  0  0  0
   -3.5210   22.3910  -28.6690 C   0  0  0  0  0  0  0  0  0  0  0  0
   -1.5454   22.7568  -27.5461 H   0  0  0  0  0  0  0  0  0  0  0  0
   -1.1898   22.9653  -30.0582 H   0  0  0  0  0  0  0  0  0  0  0  0
   -1.3813   21.2739  -30.1857 H   0  0  0  0  0  0  0  0  0  0  0  0
   -3.4880   26.0080  -31.2120 H   0  0  0  0  0  0  0  0  0  0  0  0
   -8.1117   24.7107  -30.6343 H   0  0  0  0  0  0  0  0  0  0  0  0
   -9.8058   22.6307  -31.6442 H   0  0  0  0  0  0  0  0  0  0  0  0
   -9.7597   20.3134  -32.6242 H   0  0  0  0  0  0  0  0  0  0  0  0
   -7.1860   18.8290  -34.0820 H   0  0  0  0  0  0  0  0  0  0  0  0
   -8.5390   18.4470  -33.1590 H   0  0  0  0  0  0  0  0  0  0  0  0
   -5.9653   18.4435  -31.7811 H   0  0  0  0  0  0  0  0  0  0  0  0
   -7.4504   17.4131  -31.5534 H   0  0  0  0  0  0  0  0  0  0  0  0
   -5.0330   16.8354  -33.0497 H   0  0  0  0  0  0  0  0  0  0  0  0
   -6.4556   15.7812  -32.6851 H   0  0  0  0  0  0  0  0  0  0  0  0
   -6.5630   15.8760  -34.7770 H   0  0  0  0  0  0  0  0  0  0  0  0
   -5.4103   20.2661  -32.3035 H   0  0  0  0  0  0  0  0  0  0  0  0
   -3.9063   23.3496  -28.2914 H   0  0  0  0  0  0  0  0  0  0  0  0
   -4.2791   21.6840  -28.3011 H   0  0  0  0  0  0  0  0  0  0  0  0
  1  2  3  0
  2  3  1  0
  3  4  1  0
  4  5  1  0
  5  6  1  0
  6  7  2  0
  6  8  1  0
  8  9  1  0
  9 10  1  0
 10 11  1  0
 10 12  2  0
  9 13  2  0
 13 14  1  0
 14 15  2  0
 15 16  1  0
 16 17  2  0
 17 18  1  0
 18 19  1  0
 19 20  1  0
 20 21  1  0
 17 22  1  0
 22 23  2  0
  5 24  1  0
 24  3  1  0
 23  8  1  0
 23 14  1  0
  3 25  1  0
  4 26  1  0
  4 27  1  0
 11 28  1  0
 13 29  1  0
 15 30  1  0
 16 31  1  0
 18 32  1  0
 18 33  1  0
 19 34  1  0
 19 35  1  0
 20 36  1  0
 20 37  1  0
 21 38  1  0
 22 39  1  0
 24 40  1  0
 24 41  1  0
M  CHG  2  11  -1  18   1
M  END
>  <UniqueID>  (89) 
89

>  <SMILES>  (89) 
N#CC1CN(C(=O)n2c(C([NH-])=O)cc3ccc([NH2+]CCO)cc32)C1

>  <Energy>  (89) 
123.94729328976564

>  <Genealogy>  (89) 
N#CC1CN(C(=O)n2c(C([NH-])=O)cc3ccc([NH2+]CCO)cc32)C1 (protonated)
N#CC1CN(C(=O)n2c(C([NH-])=O)cc3ccc([NH2+]CCO)cc32)C1 (3D coordinates assigned)
N#CC1CN(C(=O)n2c(C([NH-])=O)cc3ccc([NH2+]CCO)cc32)C1 (nonaromatic ring conformer: 123.94729328976564 kcal/mol)

>  <smiles>  (89) 
N#CC1CN(C(=O)n2c(C(N)=O)cc3ccc(NCCO)cc32)C1

>  <score_type>  (89) 
oracle

>  <origin>  (89) 
adg

>  <m_score__min__energy>  (89) 
-10.210000000000001

>  <m_primary>  (89) 
energy

$$$$
89:0
     RDKit          3D

 34 35  0  0  0  0  0  0  0  0999 V2000
   -2.7720   22.5390  -27.9560 C   0  0  0  0  0  0  0  0  0  0  0  0
   -2.4150   23.3410  -29.1850 C   0  0  0  0  0  0  0  0  0  0  0  0
   -2.9050   23.0350  -30.4050 C   0  0  0  0  0  0  0  0  0  0  0  0
   -3.8960   21.9750  -30.6870 C   0  0  0  0  0  0  0  0  0  0  0  0
   -3.5110   20.7760  -30.6990 O   0  0  0  0  0  0  0  0  0  0  0  0
   -5.2690   22.2750  -30.9970 N   0  0  0  0  0  0  0  0  0  0  0  0
   -5.9470   23.4350  -30.7660 C   0  0  0  0  0  0  0  0  0  0  0  0
   -5.3600   24.6760  -30.2170 C   0  0  0  0  0  0  0  0  0  0  0  0
   -5.7710   25.1800  -28.9450 N   0  0  0  0  0  0  0  0  0  0  0  0
   -4.5020   25.3160  -30.8810 O   0  0  0  0  0  0  0  0  0  0  0  0
   -7.2710   23.3150  -31.1880 C   0  0  0  0  0  0  0  0  0  0  0  0
   -7.3770   22.0420  -31.7010 C   0  0  0  0  0  0  0  0  0  0  0  0
   -8.4750   21.3840  -32.2500 C   0  0  0  0  0  0  0  0  0  0  0  0
   -8.2990   20.0580  -32.6810 C   0  0  0  0  0  0  0  0  0  0  0  0
   -7.0390   19.4230  -32.5640 C   0  0  0  0  0  0  0  0  0  0  0  0
   -6.8780   17.9910  -32.9810 C   0  0  0  0  0  0  0  0  0  0  0  0
   -5.9520   20.1160  -31.9880 C   0  0  0  0  0  0  0  0  0  0  0  0
   -6.1540   21.4380  -31.5800 C   0  0  0  0  0  0  0  0  0  0  0  0
   -1.5020   24.5020  -29.0380 C   0  0  0  0  0  0  0  0  0  0  0  0
   -1.9630   25.6730  -28.9910 O   0  0  0  0  0  0  0  0  0  0  0  0
   -0.1250   24.3210  -28.9590 O   0  0  0  0  0  0  0  0  0  0  0  0
   -2.5155   23.1153  -27.0548 H   0  0  0  0  0  0  0  0  0  0  0  0
   -3.8508   22.3241  -27.9590 H   0  0  0  0  0  0  0  0  0  0  0  0
   -2.2097   21.5936  -27.9590 H   0  0  0  0  0  0  0  0  0  0  0  0
   -2.5368   23.6224  -31.2591 H   0  0  0  0  0  0  0  0  0  0  0  0
   -5.3750   26.0760  -28.5830 H   0  0  0  0  0  0  0  0  0  0  0  0
   -6.4330   24.6470  -28.3390 H   0  0  0  0  0  0  0  0  0  0  0  0
   -8.0626   24.0762  -31.1244 H   0  0  0  0  0  0  0  0  0  0  0  0
   -9.4491   21.8864  -32.3433 H   0  0  0  0  0  0  0  0  0  0  0  0
   -9.1481   19.5083  -33.1133 H   0  0  0  0  0  0  0  0  0  0  0  0
   -6.8064   17.3545  -32.0867 H   0  0  0  0  0  0  0  0  0  0  0  0
   -7.7473   17.6839  -33.5810 H   0  0  0  0  0  0  0  0  0  0  0  0
   -5.9622   17.8846  -33.5810 H   0  0  0  0  0  0  0  0  0  0  0  0
   -4.9734   19.6293  -31.8637 H   0  0  0  0  0  0  0  0  0  0  0  0
  1  2  1  0
  2  3  2  3
  3  4  1  0
  4  5  2  0
  4  6  1  0
  6  7  1  0
  7  8  1  0
  8  9  1  0
  8 10  2  0
  7 11  2  0
 11 12  1  0
 12 13  2  0
 13 14  1  0
 14 15  2  0
 15 16  1  0
 15 17  1  0
 17 18  2  0
  2 19  1  0
 19 20  2  0
 19 21  1  0
 18  6  1  0
 18 12  1  0
  1 22  1  0
  1 23  1  0
  1 24  1  0
  3 25  1  0
  9 26  1  0
  9 27  1  0
 11 28  1  0
 13 29  1  0
 14 30  1  0
 16 31  1  0
 16 32  1  0
 16 33  1  0
 17 34  1  0
M  CHG  1  21  -1
M  END
>  <UniqueID>  (90) 
90

>  <SMILES>  (90) 
CC(=CC(=O)n1c(C(N)=O)cc2ccc(C)cc21)C(=O)[O-]

>  <Energy>  (90) 
75.99431787853283

>  <Genealogy>  (90) 
CC(=CC(=O)n1c(C(N)=O)cc2ccc(C)cc21)C(=O)[O-] (protonated)
CC(=CC(=O)n1c(C(N)=O)cc2ccc(C)cc21)C(=O)[O-] (3D coordinates assigned)
CC(=CC(=O)n1c(C(N)=O)cc2ccc(C)cc21)C(=O)[O-] (optimized conformer: 75.99431787853283 kcal/mol)

>  <smiles>  (90) 
CC(=CC(=O)n1c(C(N)=O)cc2ccc(C)cc21)C(=O)O

>  <score_type>  (90) 
oracle

>  <origin>  (90) 
adg

>  <m_score__min__energy>  (90) 
-11.19

>  <m_primary>  (90) 
energy

$$$$
90:0
     RDKit          3D

 45 46  0  0  0  0  0  0  0  0999 V2000
   -7.6080   18.3830  -32.7080 C   0  0  0  0  0  0  0  0  0  0  0  0
   -7.5830   19.8150  -32.2720 C   0  0  0  0  0  0  0  0  0  0  0  0
   -8.7580   20.6020  -32.3830 C   0  0  0  0  0  0  0  0  0  0  0  0
   -8.7520   21.9550  -31.9950 C   0  0  0  0  0  0  0  0  0  0  0  0
   -7.5680   22.4900  -31.4920 C   0  0  0  0  0  0  0  0  0  0  0  0
   -7.2670   23.7790  -31.1060 C   0  0  0  0  0  0  0  0  0  0  0  0
   -5.9220   23.7560  -30.7520 C   0  0  0  0  0  0  0  0  0  0  0  0
   -5.1790   24.9610  -30.3180 C   0  0  0  0  0  0  0  0  0  0  0  0
   -3.9330   25.3090  -30.9290 N   0  0  0  0  0  0  0  0  0  0  0  0
   -5.6620   25.7060  -29.4220 O   0  0  0  0  0  0  0  0  0  0  0  0
   -5.3960   22.5050  -30.9150 N   0  0  0  0  0  0  0  0  0  0  0  0
   -4.0320   22.0560  -30.7150 C   0  0  0  0  0  0  0  0  0  0  0  0
   -3.6650   20.9740  -31.2490 O   0  0  0  0  0  0  0  0  0  0  0  0
   -3.0880   22.8510  -29.9630 N   0  0  0  0  0  0  0  0  0  0  0  0
   -1.6690   22.6050  -30.0950 C   0  0  0  0  0  0  0  0  0  0  0  0
   -1.1930   22.3490  -31.2440 O   0  0  0  0  0  0  0  0  0  0  0  0
   -0.7760   22.5800  -28.9370 N   0  0  2  0  0  0  0  0  0  0  0  0
   -0.8200   21.2770  -28.2260 C   0  0  0  0  0  0  0  0  0  0  0  0
   -0.8060   23.7970  -28.0340 C   0  0  0  0  0  0  0  0  0  0  0  0
   -1.2720   23.3640  -26.6140 C   0  0  0  0  0  0  0  0  0  0  0  0
    0.5990   24.4190  -27.8690 C   0  0  0  0  0  0  0  0  0  0  0  0
   -1.7330   24.8990  -28.5530 C   0  0  0  0  0  0  0  0  0  0  0  0
   -2.9590   24.9200  -28.2440 O   0  0  0  0  0  0  0  0  0  0  0  0
   -1.2390   25.9320  -29.3410 O   0  0  0  0  0  0  0  0  0  0  0  0
   -6.4190   21.7400  -31.3720 C   0  0  0  0  0  0  0  0  0  0  0  0
   -6.3940   20.3950  -31.7810 C   0  0  0  0  0  0  0  0  0  0  0  0
   -7.6194   17.7303  -31.8226 H   0  0  0  0  0  0  0  0  0  0  0  0
   -8.5095   18.1989  -33.3109 H   0  0  0  0  0  0  0  0  0  0  0  0
   -6.7135   18.1676  -33.3109 H   0  0  0  0  0  0  0  0  0  0  0  0
   -9.6814   20.1512  -32.7755 H   0  0  0  0  0  0  0  0  0  0  0  0
   -9.6573   22.5731  -32.0864 H   0  0  0  0  0  0  0  0  0  0  0  0
   -7.9471   24.6433  -31.0829 H   0  0  0  0  0  0  0  0  0  0  0  0
   -3.0560   25.3000  -30.3640 H   0  0  0  0  0  0  0  0  0  0  0  0
   -3.4490   23.7340  -29.5310 H   0  0  0  0  0  0  0  0  0  0  0  0
    0.1850   22.5620  -29.3720 H   0  0  0  0  0  0  0  0  0  0  0  0
   -0.8141   21.4515  -27.1400 H   0  0  0  0  0  0  0  0  0  0  0  0
   -1.7369   20.7375  -28.5057 H   0  0  0  0  0  0  0  0  0  0  0  0
    0.0584   20.6768  -28.5057 H   0  0  0  0  0  0  0  0  0  0  0  0
   -0.6885   23.9062  -25.8554 H   0  0  0  0  0  0  0  0  0  0  0  0
   -2.3398   23.5978  -26.4914 H   0  0  0  0  0  0  0  0  0  0  0  0
   -1.1171   22.2819  -26.4914 H   0  0  0  0  0  0  0  0  0  0  0  0
    0.8311   24.5218  -26.7987 H   0  0  0  0  0  0  0  0  0  0  0  0
    1.3466   23.7677  -28.3454 H   0  0  0  0  0  0  0  0  0  0  0  0
    0.6194   25.4103  -28.3454 H   0  0  0  0  0  0  0  0  0  0  0  0
   -5.4665   19.8069  -31.7195 H   0  0  0  0  0  0  0  0  0  0  0  0
  1  2  1  0
  2  3  2  0
  3  4  1  0
  4  5  2  0
  5  6  1  0
  6  7  2  0
  7  8  1  0
  8  9  1  0
  8 10  2  0
  7 11  1  0
 11 12  1  0
 12 13  2  0
 12 14  1  0
 14 15  1  0
 15 16  2  0
 15 17  1  0
 17 18  1  0
 17 19  1  0
 19 20  1  0
 19 21  1  0
 19 22  1  0
 22 23  2  0
 22 24  1  0
 11 25  1  0
 25 26  2  0
 26  2  1  0
 25  5  1  0
  1 27  1  0
  1 28  1  0
  1 29  1  0
  3 30  1  0
  4 31  1  0
  6 32  1  0
  9 33  1  0
 14 34  1  0
 17 35  1  6
 18 36  1  0
 18 37  1  0
 18 38  1  0
 20 39  1  0
 20 40  1  0
 20 41  1  0
 21 42  1  0
 21 43  1  0
 21 44  1  0
 26 45  1  0
M  CHG  3   9  -1  17   1  24  -1
M  END
>  <UniqueID>  (91) 
91

>  <SMILES>  (91) 
Cc1ccc2cc(C([NH-])=O)n(C(=O)NC(=O)[N@H+](C)C(C)(C)C(=O)[O-])c2c1

>  <Energy>  (91) 
106.8869895299474

>  <Genealogy>  (91) 
Cc1ccc2cc(C([NH-])=O)n(C(=O)NC(=O)[NH+](C)C(C)(C)C(=O)[O-])c2c1 (protonated)
Cc1ccc2cc(C([NH-])=O)n(C(=O)NC(=O)[N@H+](C)C(C)(C)C(=O)[O-])c2c1 (chirality)
Cc1ccc2cc(C([NH-])=O)n(C(=O)NC(=O)[N@H+](C)C(C)(C)C(=O)[O-])c2c1 (3D coordinates assigned)
Cc1ccc2cc(C([NH-])=O)n(C(=O)NC(=O)[N@H+](C)C(C)(C)C(=O)[O-])c2c1 (optimized conformer: 106.8869895299474 kcal/mol)

>  <smiles>  (91) 
Cc1ccc2cc(C(N)=O)n(C(=O)NC(=O)N(C)C(C)(C)C(=O)O)c2c1

>  <score_type>  (91) 
oracle

>  <origin>  (91) 
adg

>  <m_score__min__energy>  (91) 
-12.050000000000001

>  <m_primary>  (91) 
energy

$$$$
91:0
     RDKit          3D

 55 56  0  0  0  0  0  0  0  0999 V2000
   -2.7850   19.2990  -26.7290 C   0  0  0  0  0  0  0  0  0  0  0  0
   -1.6650   19.8510  -27.4100 O   0  0  0  0  0  0  0  0  0  0  0  0
   -1.7890   20.5970  -28.5870 C   0  0  0  0  0  0  0  0  0  0  0  0
   -0.7760   21.1440  -29.1080 O   0  0  0  0  0  0  0  0  0  0  0  0
   -3.1200   20.7290  -29.2650 C   0  0  0  0  0  0  0  0  0  0  0  0
   -3.4250   22.1340  -29.5800 N   0  0  0  0  0  0  0  0  0  0  0  0
   -3.1240   23.1650  -28.6190 C   0  0  0  0  0  0  0  0  0  0  0  0
   -3.6640   23.1430  -27.4780 O   0  0  0  0  0  0  0  0  0  0  0  0
   -2.1930   24.1620  -28.9330 O   0  0  0  0  0  0  0  0  0  0  0  0
   -1.7010   25.0930  -27.9720 C   0  0  0  0  0  0  0  0  0  0  0  0
   -0.3240   25.3710  -28.2160 O   0  0  0  0  0  0  0  0  0  0  0  0
    0.7080   24.5510  -27.7500 C   0  0  0  0  0  0  0  0  0  0  0  0
    1.9130   24.9100  -27.8590 O   0  0  0  0  0  0  0  0  0  0  0  0
    0.3770   23.2020  -27.1890 C   0  0  0  0  0  0  0  0  0  0  0  0
   -0.2590   23.3280  -25.8610 N   0  0  0  0  0  0  0  0  0  0  0  0
    0.7300   23.7520  -24.8600 C   0  0  0  0  0  0  0  0  0  0  0  0
   -0.8640   22.0510  -25.4520 C   0  0  0  0  0  0  0  0  0  0  0  0
   -3.9380   22.4840  -30.8800 C   0  0  0  0  0  0  0  0  0  0  0  0
   -3.1540   22.6090  -31.8590 O   0  0  0  0  0  0  0  0  0  0  0  0
   -5.3400   22.7050  -31.0760 N   0  0  0  0  0  0  0  0  0  0  0  0
   -6.0330   23.8630  -30.9040 C   0  0  0  0  0  0  0  0  0  0  0  0
   -5.4570   25.1510  -30.4660 C   0  0  0  0  0  0  0  0  0  0  0  0
   -4.0520   25.3720  -30.5630 N   0  0  0  0  0  0  0  0  0  0  0  0
   -6.1960   26.0620  -30.0080 O   0  0  0  0  0  0  0  0  0  0  0  0
   -7.3850   23.6650  -31.1920 C   0  0  0  0  0  0  0  0  0  0  0  0
   -7.4870   22.3420  -31.5620 C   0  0  0  0  0  0  0  0  0  0  0  0
   -8.5990   21.6030  -31.9590 C   0  0  0  0  0  0  0  0  0  0  0  0
   -8.4050   20.2520  -32.2980 C   0  0  0  0  0  0  0  0  0  0  0  0
   -7.1120   19.6710  -32.2540 C   0  0  0  0  0  0  0  0  0  0  0  0
   -6.9470   18.2150  -32.6090 C   0  0  0  0  0  0  0  0  0  0  0  0
   -5.9560   17.6610  -31.8190 F   0  0  0  0  0  0  0  0  0  0  0  0
   -6.6020   18.0510  -33.9400 F   0  0  0  0  0  0  0  0  0  0  0  0
   -8.1330   17.5420  -32.3800 F   0  0  0  0  0  0  0  0  0  0  0  0
   -6.0080   20.4540  -31.8350 C   0  0  0  0  0  0  0  0  0  0  0  0
   -6.2380   21.7880  -31.4900 C   0  0  0  0  0  0  0  0  0  0  0  0
   -2.6283   19.3762  -25.6430 H   0  0  0  0  0  0  0  0  0  0  0  0
   -3.6935   19.8525  -27.0087 H   0  0  0  0  0  0  0  0  0  0  0  0
   -2.8994   18.2413  -27.0087 H   0  0  0  0  0  0  0  0  0  0  0  0
   -3.1052   20.1479  -30.1989 H   0  0  0  0  0  0  0  0  0  0  0  0
   -3.8953   20.3510  -28.5824 H   0  0  0  0  0  0  0  0  0  0  0  0
   -2.2782   26.0268  -28.0421 H   0  0  0  0  0  0  0  0  0  0  0  0
   -1.8072   24.6605  -26.9662 H   0  0  0  0  0  0  0  0  0  0  0  0
   -0.3140   22.6868  -27.8724 H   0  0  0  0  0  0  0  0  0  0  0  0
    1.3083   22.6267  -27.0809 H   0  0  0  0  0  0  0  0  0  0  0  0
    0.3275   23.5795  -23.8509 H   0  0  0  0  0  0  0  0  0  0  0  0
    1.6553   23.1715  -24.9899 H   0  0  0  0  0  0  0  0  0  0  0  0
    0.9475   24.8224  -24.9899 H   0  0  0  0  0  0  0  0  0  0  0  0
   -0.8913   21.9933  -24.3539 H   0  0  0  0  0  0  0  0  0  0  0  0
   -1.8882   21.9870  -25.8482 H   0  0  0  0  0  0  0  0  0  0  0  0
   -0.2649   21.2179  -25.8482 H   0  0  0  0  0  0  0  0  0  0  0  0
   -3.4950   25.6590  -29.7280 H   0  0  0  0  0  0  0  0  0  0  0  0
   -8.1953   24.4068  -31.1355 H   0  0  0  0  0  0  0  0  0  0  0  0
   -9.5977   22.0618  -32.0059 H   0  0  0  0  0  0  0  0  0  0  0  0
   -9.2664   19.6386  -32.6009 H   0  0  0  0  0  0  0  0  0  0  0  0
   -4.9972   20.0232  -31.7828 H   0  0  0  0  0  0  0  0  0  0  0  0
  1  2  1  0
  2  3  1  0
  3  4  2  0
  3  5  1  0
  5  6  1  0
  6  7  1  0
  7  8  2  0
  7  9  1  0
  9 10  1  0
 10 11  1  0
 11 12  1  0
 12 13  2  0
 12 14  1  0
 14 15  1  0
 15 16  1  0
 15 17  1  0
  6 18  1  0
 18 19  2  0
 18 20  1  0
 20 21  1  0
 21 22  1  0
 22 23  1  0
 22 24  2  0
 21 25  2  0
 25 26  1  0
 26 27  2  0
 27 28  1  0
 28 29  2  0
 29 30  1  0
 30 31  1  0
 30 32  1  0
 30 33  1  0
 29 34  1  0
 34 35  2  0
 35 20  1  0
 35 26  1  0
  1 36  1  0
  1 37  1  0
  1 38  1  0
  5 39  1  0
  5 40  1  0
 10 41  1  0
 10 42  1  0
 14 43  1  0
 14 44  1  0
 16 45  1  0
 16 46  1  0
 16 47  1  0
 17 48  1  0
 17 49  1  0
 17 50  1  0
 23 51  1  0
 25 52  1  0
 27 53  1  0
 28 54  1  0
 34 55  1  0
M  CHG  1  23  -1
M  END
>  <UniqueID>  (92) 
92

>  <SMILES>  (92) 
COC(=O)CN(C(=O)OCOC(=O)CN(C)C)C(=O)n1c(C([NH-])=O)cc2ccc(C(F)(F)F)cc21

>  <Energy>  (92) 
85.75438593009955

>  <Genealogy>  (92) 
COC(=O)CN(C(=O)OCOC(=O)CN(C)C)C(=O)n1c(C([NH-])=O)cc2ccc(C(F)(F)F)cc21 (protonated)
COC(=O)CN(C(=O)OCOC(=O)CN(C)C)C(=O)n1c(C([NH-])=O)cc2ccc(C(F)(F)F)cc21 (3D coordinates assigned)
COC(=O)CN(C(=O)OCOC(=O)CN(C)C)C(=O)n1c(C([NH-])=O)cc2ccc(C(F)(F)F)cc21 (optimized conformer: 85.75438593009955 kcal/mol)

>  <smiles>  (92) 
COC(=O)CN(C(=O)OCOC(=O)CN(C)C)C(=O)n1c(C(N)=O)cc2ccc(C(F)(F)F)cc21

>  <score_type>  (92) 
oracle

>  <origin>  (92) 
adg

>  <m_score__min__energy>  (92) 
-10.08

>  <m_primary>  (92) 
energy

$$$$
92:0
     RDKit          3D

 39 40  0  0  0  0  0  0  0  0999 V2000
   -1.9979   22.4545  -27.7261 H   0  0  0  0  0  0  0  0  0  0  0  0
   -2.3250   22.8960  -28.6790 C   0  0  0  0  0  0  0  0  0  0  0  0
   -1.6160   24.1080  -29.1310 C   0  0  0  0  0  0  0  0  0  0  0  0
   -0.3890   24.0860  -29.4080 O   0  0  0  0  0  0  0  0  0  0  0  0
   -2.3370   25.2770  -29.3340 O   0  0  0  0  0  0  0  0  0  0  0  0
   -3.3320   22.2800  -29.3200 C   0  0  0  0  0  0  0  0  0  0  0  0
   -3.8510   21.4790  -28.7732 H   0  0  0  0  0  0  0  0  0  0  0  0
   -3.8120   22.5720  -30.6880 C   0  0  0  0  0  0  0  0  0  0  0  0
   -2.9520   22.8020  -31.5810 O   0  0  0  0  0  0  0  0  0  0  0  0
   -5.2100   22.6820  -31.0150 N   0  0  0  0  0  0  0  0  0  0  0  0
   -5.9950   23.7920  -30.8990 C   0  0  0  0  0  0  0  0  0  0  0  0
   -5.5360   25.1510  -30.5420 C   0  0  0  0  0  0  0  0  0  0  0  0
   -6.3730   25.9940  -30.1220 O   0  0  0  0  0  0  0  0  0  0  0  0
   -4.1730   25.5490  -30.7100 N   0  0  0  0  0  0  0  0  0  0  0  0
   -3.8670   26.4990  -30.4040 H   0  0  0  0  0  0  0  0  0  0  0  0
   -3.4880   24.9480  -31.2150 H   0  0  0  0  0  0  0  0  0  0  0  0
   -7.3260   23.4810  -31.1630 C   0  0  0  0  0  0  0  0  0  0  0  0
   -8.1863   24.1664  -31.1490 H   0  0  0  0  0  0  0  0  0  0  0  0
   -7.3370   22.1350  -31.4450 C   0  0  0  0  0  0  0  0  0  0  0  0
   -8.4050   21.2940  -31.7380 C   0  0  0  0  0  0  0  0  0  0  0  0
   -9.4293   21.6865  -31.8208 H   0  0  0  0  0  0  0  0  0  0  0  0
   -8.1360   19.9280  -31.9250 C   0  0  0  0  0  0  0  0  0  0  0  0
   -8.9607   19.2404  -32.1640 H   0  0  0  0  0  0  0  0  0  0  0  0
   -6.8170   19.4240  -31.8100 C   0  0  0  0  0  0  0  0  0  0  0  0
   -6.5940   18.0120  -31.9880 N   0  0  0  0  0  0  0  0  0  0  0  0
   -6.1960   17.4690  -31.1880 H   0  0  0  0  0  0  0  0  0  0  0  0
   -6.9670   17.2500  -33.1820 C   0  0  0  0  0  0  0  0  0  0  0  0
   -7.2623   16.2335  -32.8828 H   0  0  0  0  0  0  0  0  0  0  0  0
   -7.8038   17.7628  -33.6788 H   0  0  0  0  0  0  0  0  0  0  0  0
   -5.7940   17.1630  -34.1640 C   0  0  0  0  0  0  0  0  0  0  0  0
   -4.9613   16.6364  -33.6748 H   0  0  0  0  0  0  0  0  0  0  0  0
   -6.1417   16.6226  -35.0568 H   0  0  0  0  0  0  0  0  0  0  0  0
   -5.3090   18.5410  -34.6110 C   0  0  0  0  0  0  0  0  0  0  0  0
   -5.6842   18.7512  -35.6234 H   0  0  0  0  0  0  0  0  0  0  0  0
   -5.6844   19.3055  -33.9149 H   0  0  0  0  0  0  0  0  0  0  0  0
   -3.9260   18.5630  -34.6180 F   0  0  0  0  0  0  0  0  0  0  0  0
   -5.7610   20.3100  -31.4870 C   0  0  0  0  0  0  0  0  0  0  0  0
   -4.7346   19.9369  -31.3552 H   0  0  0  0  0  0  0  0  0  0  0  0
   -6.0520   21.6720  -31.3390 C   0  0  0  0  0  0  0  0  0  0  0  0
  1  2  1  0
  2  3  1  0
  3  4  2  0
  3  5  1  0
  2  6  2  0
  6  7  1  0
  6  8  1  0
  8  9  2  0
  8 10  1  0
 10 11  1  0
 11 12  1  0
 12 13  2  0
 12 14  1  0
 14 15  1  0
 14 16  1  0
 11 17  2  0
 17 18  1  0
 17 19  1  0
 19 20  2  0
 20 21  1  0
 20 22  1  0
 22 23  1  0
 22 24  2  0
 24 25  1  0
 25 26  1  0
 25 27  1  0
 27 28  1  0
 27 29  1  0
 27 30  1  0
 30 31  1  0
 30 32  1  0
 30 33  1  0
 33 34  1  0
 33 35  1  0
 33 36  1  0
 24 37  1  0
 37 38  1  0
 37 39  2  0
 39 10  1  0
 39 19  1  0
M  CHG  1   5  -1
M  END
>  <UniqueID>  (93) 
93

>  <SMILES>  (93) 
NC(=O)c1cc2ccc(NCCCF)cc2n1C(=O)/C=C\C(=O)[O-]

>  <Energy>  (93) 
80.75337081015259

>  <Genealogy>  (93) 
NC(=O)c1cc2ccc(NCCCF)cc2n1C(=O)/C=C\C(=O)[O-] (protonated)
NC(=O)c1cc2ccc(NCCCF)cc2n1C(=O)/C=C\C(=O)[O-] (cis-trans isomerization)
NC(=O)c1cc2ccc(NCCCF)cc2n1C(=O)/C=C\C(=O)[O-] (3D coordinates assigned)
NC(=O)c1cc2ccc(NCCCF)cc2n1C(=O)/C=C\C(=O)[O-] (optimized conformer: 80.75337081015259 kcal/mol)

>  <smiles>  (93) 
NC(=O)c1cc2ccc(NCCCF)cc2n1C(=O)/C=C\C(=O)O

>  <score_type>  (93) 
oracle

>  <origin>  (93) 
adg

>  <m_score__min__energy>  (93) 
-10.6

>  <m_primary>  (93) 
energy

$$$$
93:0
     RDKit          3D

 44 45  0  0  0  0  0  0  0  0999 V2000
   -8.3630   18.2670  -32.3150 C   0  0  0  0  0  0  0  0  0  0  0  0
   -8.1060   19.7230  -32.0600 C   0  0  0  0  0  0  0  0  0  0  0  0
   -9.1740   20.6490  -32.1450 C   0  0  0  0  0  0  0  0  0  0  0  0
   -8.9530   22.0180  -31.9200 C   0  0  0  0  0  0  0  0  0  0  0  0
   -7.6540   22.4320  -31.6360 C   0  0  0  0  0  0  0  0  0  0  0  0
   -7.1680   23.6790  -31.3150 C   0  0  0  0  0  0  0  0  0  0  0  0
   -5.8070   23.4950  -31.0710 C   0  0  0  0  0  0  0  0  0  0  0  0
   -4.9040   24.5800  -30.6240 C   0  0  0  0  0  0  0  0  0  0  0  0
   -3.9330   24.3800  -29.5960 N   0  0  0  0  0  0  0  0  0  0  0  0
   -4.9740   25.7060  -31.1860 O   0  0  0  0  0  0  0  0  0  0  0  0
   -5.4660   22.1890  -31.2480 N   0  0  0  0  0  0  0  0  0  0  0  0
   -4.2160   21.5570  -30.9410 C   0  0  0  0  0  0  0  0  0  0  0  0
   -3.8930   21.3890  -29.7340 O   0  0  0  0  0  0  0  0  0  0  0  0
   -3.3390   21.1120  -31.9930 N   0  0  0  0  0  0  0  0  0  0  0  0
   -3.7550   19.9960  -32.8460 C   0  0  0  0  0  0  0  0  0  0  0  0
   -2.0140   21.7200  -32.1760 C   0  0  0  0  0  0  0  0  0  0  0  0
   -1.3370   21.9300  -30.8610 C   0  0  0  0  0  0  0  0  0  0  0  0
   -0.4910   21.0920  -30.4480 O   0  0  0  0  0  0  0  0  0  0  0  0
   -1.6570   23.0870  -30.0800 N   0  0  0  0  0  0  0  0  0  0  0  0
   -1.0210   23.4070  -28.8050 C   0  0  2  0  0  0  0  0  0  0  0  0
   -1.8800   22.9040  -27.6450 C   0  0  0  0  0  0  0  0  0  0  0  0
   -0.8410   24.8910  -28.7020 C   0  0  0  0  0  0  0  0  0  0  0  0
   -1.6080   25.6660  -29.3360 O   0  0  0  0  0  0  0  0  0  0  0  0
    0.1980   25.4210  -27.9480 O   0  0  0  0  0  0  0  0  0  0  0  0
   -6.6080   21.5490  -31.5750 C   0  0  0  0  0  0  0  0  0  0  0  0
   -6.8020   20.1780  -31.7670 C   0  0  0  0  0  0  0  0  0  0  0  0
   -8.4564   17.7376  -31.3553 H   0  0  0  0  0  0  0  0  0  0  0  0
   -9.2950   18.1541  -32.8883 H   0  0  0  0  0  0  0  0  0  0  0  0
   -7.5260   17.8418  -32.8883 H   0  0  0  0  0  0  0  0  0  0  0  0
  -10.1858   20.2932  -32.3894 H   0  0  0  0  0  0  0  0  0  0  0  0
   -9.7808   22.7409  -31.9667 H   0  0  0  0  0  0  0  0  0  0  0  0
   -7.7332   24.6212  -31.2621 H   0  0  0  0  0  0  0  0  0  0  0  0
   -3.6750   23.4270  -29.2640 H   0  0  0  0  0  0  0  0  0  0  0  0
   -3.3650   25.1880  -29.2570 H   0  0  0  0  0  0  0  0  0  0  0  0
   -4.0700   19.1508  -32.2163 H   0  0  0  0  0  0  0  0  0  0  0  0
   -4.5952   20.3133  -33.4811 H   0  0  0  0  0  0  0  0  0  0  0  0
   -2.9121   19.6859  -33.4811 H   0  0  0  0  0  0  0  0  0  0  0  0
   -1.3956   21.0554  -32.7972 H   0  0  0  0  0  0  0  0  0  0  0  0
   -2.1404   22.6967  -32.6659 H   0  0  0  0  0  0  0  0  0  0  0  0
   -0.0398   22.9125  -28.7541 H   0  0  0  0  0  0  0  0  0  0  0  0
   -1.4069   23.1810  -26.6914 H   0  0  0  0  0  0  0  0  0  0  0  0
   -2.8795   23.3595  -27.7044 H   0  0  0  0  0  0  0  0  0  0  0  0
   -1.9718   21.8094  -27.7044 H   0  0  0  0  0  0  0  0  0  0  0  0
   -5.9613   19.4726  -31.6918 H   0  0  0  0  0  0  0  0  0  0  0  0
  1  2  1  0
  2  3  2  0
  3  4  1  0
  4  5  2  0
  5  6  1  0
  6  7  2  0
  7  8  1  0
  8  9  1  0
  8 10  2  0
  7 11  1  0
 11 12  1  0
 12 13  2  0
 12 14  1  0
 14 15  1  0
 14 16  1  0
 16 17  1  0
 17 18  2  0
 17 19  1  0
 19 20  1  0
 20 21  1  0
 20 22  1  0
 22 23  2  0
 22 24  1  0
 11 25  1  0
 25 26  2  0
 26  2  1  0
 25  5  1  0
  1 27  1  0
  1 28  1  0
  1 29  1  0
  3 30  1  0
  4 31  1  0
  6 32  1  0
  9 33  1  0
  9 34  1  0
 15 35  1  0
 15 36  1  0
 15 37  1  0
 16 38  1  0
 16 39  1  0
 20 40  1  6
 21 41  1  0
 21 42  1  0
 21 43  1  0
 26 44  1  0
M  CHG  2  19  -1  24  -1
M  END
>  <UniqueID>  (94) 
94

>  <SMILES>  (94) 
Cc1ccc2cc(C(N)=O)n(C(=O)N(C)CC(=O)[N-][C@H](C)C(=O)[O-])c2c1

>  <Energy>  (94) 
72.76965872008918

>  <Genealogy>  (94) 
Cc1ccc2cc(C(N)=O)n(C(=O)N(C)CC(=O)[N-]C(C)C(=O)[O-])c2c1 (protonated)
Cc1ccc2cc(C(N)=O)n(C(=O)N(C)CC(=O)[N-][C@H](C)C(=O)[O-])c2c1 (chirality)
Cc1ccc2cc(C(N)=O)n(C(=O)N(C)CC(=O)[N-][C@H](C)C(=O)[O-])c2c1 (3D coordinates assigned)
Cc1ccc2cc(C(N)=O)n(C(=O)N(C)CC(=O)[N-][C@H](C)C(=O)[O-])c2c1 (optimized conformer: 72.76965872008918 kcal/mol)

>  <smiles>  (94) 
Cc1ccc2cc(C(N)=O)n(C(=O)N(C)CC(=O)NC(C)C(=O)O)c2c1

>  <score_type>  (94) 
oracle

>  <origin>  (94) 
adg

>  <m_score__min__energy>  (94) 
-12.449999999999999

>  <m_primary>  (94) 
energy

$$$$
94:0
     RDKit          3D

 37 38  0  0  0  0  0  0  0  0999 V2000
   -3.5877   23.2945  -32.1483 H   0  0  0  0  0  0  0  0  0  0  0  0
   -2.9090   22.6380  -31.5840 C   0  0  0  0  0  0  0  0  0  0  0  0
   -2.5210   21.3440  -32.1760 C   0  0  0  0  0  0  0  0  0  0  0  0
   -1.3100   20.9980  -32.1410 O   0  0  0  0  0  0  0  0  0  0  0  0
   -3.4860   20.4760  -32.7960 N   0  0  0  0  0  0  0  0  0  0  0  0
   -3.2520   19.5120  -33.7290 C   0  0  0  0  0  0  0  0  0  0  0  0
   -1.9120   19.0870  -34.1970 C   0  0  0  0  0  0  0  0  0  0  0  0
   -1.6580   17.8620  -34.3520 O   0  0  0  0  0  0  0  0  0  0  0  0
   -0.8980   20.0470  -34.4950 N   0  0  0  0  0  0  0  0  0  0  0  0
   -1.0400   21.0660  -34.3180 H   0  0  0  0  0  0  0  0  0  0  0  0
    0.0300   19.7330  -34.8580 H   0  0  0  0  0  0  0  0  0  0  0  0
   -4.4530   18.9340  -34.1400 C   0  0  0  0  0  0  0  0  0  0  0  0
   -4.5874   18.1267  -34.8749 H   0  0  0  0  0  0  0  0  0  0  0  0
   -5.4350   19.5890  -33.4300 C   0  0  0  0  0  0  0  0  0  0  0  0
   -6.8150   19.4260  -33.4500 C   0  0  0  0  0  0  0  0  0  0  0  0
   -7.2866   18.6708  -34.0960 H   0  0  0  0  0  0  0  0  0  0  0  0
   -7.5900   20.2540  -32.6210 C   0  0  0  0  0  0  0  0  0  0  0  0
   -8.6840   20.1394  -32.6124 H   0  0  0  0  0  0  0  0  0  0  0  0
   -6.9820   21.2400  -31.7910 C   0  0  0  0  0  0  0  0  0  0  0  0
   -7.7890   22.0880  -30.9330 N   0  0  0  0  0  0  0  0  0  0  0  0
   -7.1690   23.1640  -30.1510 C   0  0  0  0  0  0  0  0  0  0  0  0
   -7.2900   22.9540  -29.0780 H   0  0  0  0  0  0  0  0  0  0  0  0
   -6.0979   23.2238  -30.3944 H   0  0  0  0  0  0  0  0  0  0  0  0
   -7.6543   24.1207  -30.3944 H   0  0  0  0  0  0  0  0  0  0  0  0
   -9.2400   21.8860  -30.8400 C   0  0  0  0  0  0  0  0  0  0  0  0
   -9.5374   21.8446  -29.7818 H   0  0  0  0  0  0  0  0  0  0  0  0
   -9.7588   22.7206  -31.3343 H   0  0  0  0  0  0  0  0  0  0  0  0
   -9.5111   20.9414  -31.3343 H   0  0  0  0  0  0  0  0  0  0  0  0
   -5.5700   21.3730  -31.8150 C   0  0  0  0  0  0  0  0  0  0  0  0
   -5.0693   22.1357  -31.2006 H   0  0  0  0  0  0  0  0  0  0  0  0
   -4.8260   20.5180  -32.6330 C   0  0  0  0  0  0  0  0  0  0  0  0
   -2.4700   23.0440  -30.3920 C   0  0  0  0  0  0  0  0  0  0  0  0
   -1.7774   22.4078  -29.8215 H   0  0  0  0  0  0  0  0  0  0  0  0
   -2.9960   24.6130  -29.7110 P   0  0  0  0  0  0  0  0  0  0  0  0
   -3.8000   24.3740  -28.4540 O   0  0  0  0  0  0  0  0  0  0  0  0
   -3.9490   25.4300  -30.8440 O   0  0  0  0  0  0  0  0  0  0  0  0
   -1.6370   25.5480  -29.3390 O   0  0  0  0  0  0  0  0  0  0  0  0
  1  2  1  0
  2  3  1  0
  3  4  2  0
  3  5  1  0
  5  6  1  0
  6  7  1  0
  7  8  2  0
  7  9  1  0
  9 10  1  0
  9 11  1  0
  6 12  2  0
 12 13  1  0
 12 14  1  0
 14 15  2  0
 15 16  1  0
 15 17  1  0
 17 18  1  0
 17 19  2  0
 19 20  1  0
 20 21  1  0
 21 22  1  0
 21 23  1  0
 21 24  1  0
 20 25  1  0
 25 26  1  0
 25 27  1  0
 25 28  1  0
 19 29  1  0
 29 30  1  0
 29 31  2  0
  2 32  2  0
 32 33  1  0
 32 34  1  0
 34 35  2  0
 34 36  1  0
 34 37  1  0
 31  5  1  0
 31 14  1  0
M  CHG  2  36  -1  37  -1
M  END
>  <UniqueID>  (95) 
95

>  <SMILES>  (95) 
CN(C)c1ccc2cc(C(N)=O)n(C(=O)/C=C/P(=O)([O-])[O-])c2c1

>  <Energy>  (95) 
72.82567242543384

>  <Genealogy>  (95) 
CN(C)c1ccc2cc(C(N)=O)n(C(=O)C=CP(=O)([O-])[O-])c2c1 (protonated)
CN(C)c1ccc2cc(C(N)=O)n(C(=O)/C=C/P(=O)([O-])[O-])c2c1 (cis-trans isomerization)
CN(C)c1ccc2cc(C(N)=O)n(C(=O)/C=C/P(=O)([O-])[O-])c2c1 (3D coordinates assigned)
CN(C)c1ccc2cc(C(N)=O)n(C(=O)/C=C/P(=O)([O-])[O-])c2c1 (optimized conformer: 72.82567242543384 kcal/mol)

>  <smiles>  (95) 
CN(C)c1ccc2cc(C(N)=O)n(C(=O)C=CP(=O)(O)O)c2c1

>  <score_type>  (95) 
oracle

>  <origin>  (95) 
adg

>  <m_score__min__energy>  (95) 
-12.710000000000001

>  <m_primary>  (95) 
energy

$$$$
95:0
     RDKit          3D

 42 43  0  0  0  0  0  0  0  0999 V2000
   -3.1490   24.8090  -30.4190 H   0  0  0  0  0  0  0  0  0  0  0  0
   -3.9090   25.5150  -30.5420 N   0  0  0  0  0  0  0  0  0  0  0  0
   -5.2660   25.1890  -30.2590 C   0  0  0  0  0  0  0  0  0  0  0  0
   -5.9770   26.0090  -29.6200 O   0  0  0  0  0  0  0  0  0  0  0  0
   -5.8620   23.9290  -30.7470 C   0  0  0  0  0  0  0  0  0  0  0  0
   -7.2240   23.7660  -30.9940 C   0  0  0  0  0  0  0  0  0  0  0  0
   -8.0254   24.4989  -30.8191 H   0  0  0  0  0  0  0  0  0  0  0  0
   -7.3540   22.4940  -31.5030 C   0  0  0  0  0  0  0  0  0  0  0  0
   -8.4920   21.7950  -31.8950 C   0  0  0  0  0  0  0  0  0  0  0  0
   -9.4860   22.2648  -31.8586 H   0  0  0  0  0  0  0  0  0  0  0  0
   -8.3330   20.4700  -32.3390 C   0  0  0  0  0  0  0  0  0  0  0  0
   -9.2142   19.8885  -32.6476 H   0  0  0  0  0  0  0  0  0  0  0  0
   -7.0460   19.8780  -32.3920 C   0  0  0  0  0  0  0  0  0  0  0  0
   -6.8940   18.4470  -32.8100 C   0  0  0  0  0  0  0  0  0  0  0  0
   -6.8263   17.8092  -31.9164 H   0  0  0  0  0  0  0  0  0  0  0  0
   -7.7652   18.1458  -33.4102 H   0  0  0  0  0  0  0  0  0  0  0  0
   -5.9790   18.3356  -33.4102 H   0  0  0  0  0  0  0  0  0  0  0  0
   -5.9160   20.6150  -31.9780 C   0  0  0  0  0  0  0  0  0  0  0  0
   -4.9126   20.1645  -31.9916 H   0  0  0  0  0  0  0  0  0  0  0  0
   -6.1050   21.9330  -31.5500 C   0  0  0  0  0  0  0  0  0  0  0  0
   -5.1800   22.7950  -31.0750 N   0  0  0  0  0  0  0  0  0  0  0  0
   -3.7820   22.5120  -30.9010 C   0  0  0  0  0  0  0  0  0  0  0  0
   -2.9490   23.0390  -31.6860 O   0  0  0  0  0  0  0  0  0  0  0  0
   -3.2700   21.6680  -29.8010 C   0  0  0  0  0  0  0  0  0  0  0  0
   -2.6692   20.7928  -30.0890 H   0  0  0  0  0  0  0  0  0  0  0  0
   -3.4630   21.8600  -28.4860 C   0  0  0  0  0  0  0  0  0  0  0  0
   -2.9296   21.1805  -27.8051 H   0  0  0  0  0  0  0  0  0  0  0  0
   -4.3380   22.9140  -27.8440 C   0  0  0  0  0  0  0  0  0  0  0  0
   -5.2022   23.1063  -28.4969 H   0  0  0  0  0  0  0  0  0  0  0  0
   -4.6624   22.5395  -26.8619 H   0  0  0  0  0  0  0  0  0  0  0  0
   -3.6010   24.1840  -27.6350 N   0  0  1  0  0  0  0  0  0  0  0  0
   -3.6900   24.7720  -28.4980 H   0  0  0  0  0  0  0  0  0  0  0  0
   -4.2160   24.9260  -26.5150 C   0  0  0  0  0  0  0  0  0  0  0  0
   -3.8670   24.5049  -25.5606 H   0  0  0  0  0  0  0  0  0  0  0  0
   -3.9279   25.9859  -26.5753 H   0  0  0  0  0  0  0  0  0  0  0  0
   -5.3109   24.8396  -26.5753 H   0  0  0  0  0  0  0  0  0  0  0  0
   -2.1680   23.9200  -27.3540 C   0  0  0  0  0  0  0  0  0  0  0  0
   -1.9817   24.0812  -26.2820 H   0  0  0  0  0  0  0  0  0  0  0  0
   -1.9524   22.8817  -27.6461 H   0  0  0  0  0  0  0  0  0  0  0  0
   -1.2580   24.8210  -28.1450 C   0  0  0  0  0  0  0  0  0  0  0  0
   -0.1705   24.7842  -27.9838 H   0  0  0  0  0  0  0  0  0  0  0  0
   -1.7280   25.5920  -28.9650 O   0  0  0  0  0  0  0  0  0  0  0  0
  1  2  1  0
  2  3  1  0
  3  4  2  0
  3  5  1  0
  5  6  2  0
  6  7  1  0
  6  8  1  0
  8  9  2  0
  9 10  1  0
  9 11  1  0
 11 12  1  0
 11 13  2  0
 13 14  1  0
 14 15  1  0
 14 16  1  0
 14 17  1  0
 13 18  1  0
 18 19  1  0
 18 20  2  0
 20 21  1  0
 21 22  1  0
 22 23  2  0
 22 24  1  0
 24 25  1  0
 24 26  2  0
 26 27  1  0
 26 28  1  0
 28 29  1  0
 28 30  1  0
 28 31  1  0
 31 32  1  6
 31 33  1  0
 33 34  1  0
 33 35  1  0
 33 36  1  0
 31 37  1  0
 37 38  1  0
 37 39  1  0
 37 40  1  0
 40 41  1  0
 40 42  2  0
 21  5  1  0
 20  8  1  0
M  CHG  2   2  -1  31   1
M  END
>  <UniqueID>  (96) 
96

>  <SMILES>  (96) 
Cc1ccc2cc(C([NH-])=O)n(C(=O)/C=C\C[N@@H+](C)CC=O)c2c1

>  <Energy>  (96) 
85.21609102952387

>  <Genealogy>  (96) 
Cc1ccc2cc(C([NH-])=O)n(C(=O)C=CC[NH+](C)CC=O)c2c1 (protonated)
Cc1ccc2cc(C([NH-])=O)n(C(=O)C=CC[N@@H+](C)CC=O)c2c1 (chirality)
Cc1ccc2cc(C([NH-])=O)n(C(=O)/C=C\C[N@@H+](C)CC=O)c2c1 (cis-trans isomerization)
Cc1ccc2cc(C([NH-])=O)n(C(=O)/C=C\C[N@@H+](C)CC=O)c2c1 (3D coordinates assigned)
Cc1ccc2cc(C([NH-])=O)n(C(=O)/C=C\C[N@@H+](C)CC=O)c2c1 (optimized conformer: 85.21609102952387 kcal/mol)

>  <smiles>  (96) 
Cc1ccc2cc(C(N)=O)n(C(=O)C=CCN(C)CC=O)c2c1

>  <score_type>  (96) 
oracle

>  <origin>  (96) 
adg

>  <m_score__min__energy>  (96) 
-10.17

>  <m_primary>  (96) 
energy

$$$$
96:0
     RDKit          3D

 44 45  0  0  0  0  0  0  0  0999 V2000
   -0.8420   21.7680  -25.8360 C   0  0  0  0  0  0  0  0  0  0  0  0
   -1.3060   21.4470  -27.1790 N   0  0  0  0  0  0  0  0  0  0  0  0
   -2.2220   20.3770  -27.4270 C   0  0  0  0  0  0  0  0  0  0  0  0
   -2.6710   19.6890  -26.4700 O   0  0  0  0  0  0  0  0  0  0  0  0
   -2.6130   20.1040  -28.7400 O   0  0  0  0  0  0  0  0  0  0  0  0
   -1.7720   20.3530  -29.8600 C   0  0  0  0  0  0  0  0  0  0  0  0
   -1.6230   21.8310  -30.0510 C   0  0  0  0  0  0  0  0  0  0  0  0
   -0.4610   22.3140  -30.1330 O   0  0  0  0  0  0  0  0  0  0  0  0
   -2.7720   22.7050  -30.0960 N   0  0  0  0  0  0  0  0  0  0  0  0
   -2.9790   23.6960  -29.0280 C   0  0  0  0  0  0  0  0  0  0  0  0
   -1.7370   24.4990  -28.7990 C   0  0  0  0  0  0  0  0  0  0  0  0
   -1.6170   25.6440  -29.3110 O   0  0  0  0  0  0  0  0  0  0  0  0
   -0.7120   23.9880  -28.0130 O   0  0  0  0  0  0  0  0  0  0  0  0
   -3.6570   22.6880  -31.2390 C   0  0  0  0  0  0  0  0  0  0  0  0
   -3.1880   22.5170  -32.3970 O   0  0  0  0  0  0  0  0  0  0  0  0
   -5.0780   22.8260  -31.0820 N   0  0  0  0  0  0  0  0  0  0  0  0
   -5.7850   23.9220  -30.6840 C   0  0  0  0  0  0  0  0  0  0  0  0
   -5.2260   25.2600  -30.3960 C   0  0  0  0  0  0  0  0  0  0  0  0
   -3.9550   25.6480  -30.9060 N   0  0  0  0  0  0  0  0  0  0  0  0
   -5.8920   26.0810  -29.7100 O   0  0  0  0  0  0  0  0  0  0  0  0
   -7.1480   23.6280  -30.6270 C   0  0  0  0  0  0  0  0  0  0  0  0
   -7.2530   22.3110  -31.0180 C   0  0  0  0  0  0  0  0  0  0  0  0
   -8.3760   21.5020  -31.1550 C   0  0  0  0  0  0  0  0  0  0  0  0
   -8.1820   20.1720  -31.5670 C   0  0  0  0  0  0  0  0  0  0  0  0
   -6.8760   19.6670  -31.8120 C   0  0  0  0  0  0  0  0  0  0  0  0
   -6.6830   18.2510  -32.2880 C   0  0  0  0  0  0  0  0  0  0  0  0
   -5.9230   17.5300  -31.3830 F   0  0  0  0  0  0  0  0  0  0  0  0
   -7.9160   17.6430  -32.4260 F   0  0  0  0  0  0  0  0  0  0  0  0
   -6.0320   18.2330  -33.5100 F   0  0  0  0  0  0  0  0  0  0  0  0
   -5.7640   20.5320  -31.6870 C   0  0  0  0  0  0  0  0  0  0  0  0
   -5.9900   21.8540  -31.2880 C   0  0  0  0  0  0  0  0  0  0  0  0
   -1.5115   21.3048  -25.0963 H   0  0  0  0  0  0  0  0  0  0  0  0
    0.1789   21.3822  -25.6988 H   0  0  0  0  0  0  0  0  0  0  0  0
   -0.8430   22.8594  -25.6988 H   0  0  0  0  0  0  0  0  0  0  0  0
   -0.9510   22.0070  -27.9870 H   0  0  0  0  0  0  0  0  0  0  0  0
   -0.7833   19.9042  -29.6836 H   0  0  0  0  0  0  0  0  0  0  0  0
   -2.2195   19.9092  -30.7615 H   0  0  0  0  0  0  0  0  0  0  0  0
   -3.7971   24.3720  -29.3172 H   0  0  0  0  0  0  0  0  0  0  0  0
   -3.2313   23.1646  -28.0985 H   0  0  0  0  0  0  0  0  0  0  0  0
   -3.0720   25.2920  -30.4810 H   0  0  0  0  0  0  0  0  0  0  0  0
   -7.9646   24.3037  -30.3326 H   0  0  0  0  0  0  0  0  0  0  0  0
   -9.3840   21.8905  -30.9476 H   0  0  0  0  0  0  0  0  0  0  0  0
   -9.0526   19.5132  -31.7016 H   0  0  0  0  0  0  0  0  0  0  0  0
   -4.7456   20.1740  -31.8984 H   0  0  0  0  0  0  0  0  0  0  0  0
  1  2  1  0
  2  3  1  0
  3  4  2  0
  3  5  1  0
  5  6  1  0
  6  7  1  0
  7  8  2  0
  7  9  1  0
  9 10  1  0
 10 11  1  0
 11 12  2  0
 11 13  1  0
  9 14  1  0
 14 15  2  0
 14 16  1  0
 16 17  1  0
 17 18  1  0
 18 19  1  0
 18 20  2  0
 17 21  2  0
 21 22  1  0
 22 23  2  0
 23 24  1  0
 24 25  2  0
 25 26  1  0
 26 27  1  0
 26 28  1  0
 26 29  1  0
 25 30  1  0
 30 31  2  0
 31 16  1  0
 31 22  1  0
  1 32  1  0
  1 33  1  0
  1 34  1  0
  2 35  1  0
  6 36  1  0
  6 37  1  0
 10 38  1  0
 10 39  1  0
 19 40  1  0
 21 41  1  0
 23 42  1  0
 24 43  1  0
 30 44  1  0
M  CHG  2  13  -1  19  -1
M  END
>  <UniqueID>  (97) 
97

>  <SMILES>  (97) 
CNC(=O)OCC(=O)N(CC(=O)[O-])C(=O)n1c(C([NH-])=O)cc2ccc(C(F)(F)F)cc21

>  <Energy>  (97) 
79.71170154374991

>  <Genealogy>  (97) 
CNC(=O)OCC(=O)N(CC(=O)[O-])C(=O)n1c(C([NH-])=O)cc2ccc(C(F)(F)F)cc21 (protonated)
CNC(=O)OCC(=O)N(CC(=O)[O-])C(=O)n1c(C([NH-])=O)cc2ccc(C(F)(F)F)cc21 (3D coordinates assigned)
CNC(=O)OCC(=O)N(CC(=O)[O-])C(=O)n1c(C([NH-])=O)cc2ccc(C(F)(F)F)cc21 (optimized conformer: 79.71170154374991 kcal/mol)

>  <smiles>  (97) 
CNC(=O)OCC(=O)N(CC(=O)O)C(=O)n1c(C(N)=O)cc2ccc(C(F)(F)F)cc21

>  <score_type>  (97) 
oracle

>  <origin>  (97) 
adg

>  <m_score__min__energy>  (97) 
-11.83

>  <m_primary>  (97) 
energy

$$$$
97:0
     RDKit          3D

 31 32  0  0  0  0  0  0  0  0999 V2000
   -1.9830   25.2600  -29.3700 N   0  0  0  0  0  0  0  0  0  0  0  0
   -1.0950   24.1460  -29.3300 C   0  0  0  0  0  0  0  0  0  0  0  0
    0.0140   24.2470  -28.7420 O   0  0  0  0  0  0  0  0  0  0  0  0
   -1.4870   22.8500  -29.9650 C   0  0  0  0  0  0  0  0  0  0  0  0
   -2.9010   22.7850  -30.1270 O   0  0  0  0  0  0  0  0  0  0  0  0
   -3.5240   22.5450  -31.3580 C   0  0  0  0  0  0  0  0  0  0  0  0
   -2.8370   22.2230  -32.3660 O   0  0  0  0  0  0  0  0  0  0  0  0
   -4.9510   22.6680  -31.4720 N   0  0  0  0  0  0  0  0  0  0  0  0
   -5.7440   23.6480  -30.9580 C   0  0  0  0  0  0  0  0  0  0  0  0
   -5.2760   24.8870  -30.3040 C   0  0  0  0  0  0  0  0  0  0  0  0
   -5.6960   25.2290  -28.9810 N   0  0  0  0  0  0  0  0  0  0  0  0
   -4.4510   25.6280  -30.8990 O   0  0  0  0  0  0  0  0  0  0  0  0
   -7.0890   23.3570  -31.1700 C   0  0  0  0  0  0  0  0  0  0  0  0
   -7.0970   22.1590  -31.8490 C   0  0  0  0  0  0  0  0  0  0  0  0
   -8.1700   21.3950  -32.2990 C   0  0  0  0  0  0  0  0  0  0  0  0
   -7.8860   20.1740  -32.9360 C   0  0  0  0  0  0  0  0  0  0  0  0
   -6.5490   19.7410  -33.0980 C   0  0  0  0  0  0  0  0  0  0  0  0
   -6.2750   18.4890  -33.7340 N   0  0  0  0  0  0  0  0  0  0  0  0
   -5.4860   20.5410  -32.6280 C   0  0  0  0  0  0  0  0  0  0  0  0
   -5.7950   21.7630  -32.0170 C   0  0  0  0  0  0  0  0  0  0  0  0
   -2.7510   25.3080  -30.0760 H   0  0  0  0  0  0  0  0  0  0  0  0
   -1.0050   22.7686  -30.9504 H   0  0  0  0  0  0  0  0  0  0  0  0
   -1.1633   22.0223  -29.3168 H   0  0  0  0  0  0  0  0  0  0  0  0
   -6.2380   24.5560  -28.3960 H   0  0  0  0  0  0  0  0  0  0  0  0
   -5.3880   26.1290  -28.5500 H   0  0  0  0  0  0  0  0  0  0  0  0
   -7.9587   23.9557  -30.8613 H   0  0  0  0  0  0  0  0  0  0  0  0
   -9.2068   21.7355  -32.1607 H   0  0  0  0  0  0  0  0  0  0  0  0
   -8.7105   19.5502  -33.3116 H   0  0  0  0  0  0  0  0  0  0  0  0
   -5.5880   17.8200  -33.3210 H   0  0  0  0  0  0  0  0  0  0  0  0
   -6.7570   18.2250  -34.6220 H   0  0  0  0  0  0  0  0  0  0  0  0
   -4.4417   20.2135  -32.7385 H   0  0  0  0  0  0  0  0  0  0  0  0
  1  2  1  0
  2  3  2  0
  2  4  1  0
  4  5  1  0
  5  6  1  0
  6  7  2  0
  6  8  1  0
  8  9  1  0
  9 10  1  0
 10 11  1  0
 10 12  2  0
  9 13  2  0
 13 14  1  0
 14 15  2  0
 15 16  1  0
 16 17  2  0
 17 18  1  0
 17 19  1  0
 19 20  2  0
 20  8  1  0
 20 14  1  0
  1 21  1  0
  4 22  1  0
  4 23  1  0
 11 24  1  0
 11 25  1  0
 13 26  1  0
 15 27  1  0
 16 28  1  0
 18 29  1  0
 18 30  1  0
 19 31  1  0
M  CHG  1   1  -1
M  END
>  <UniqueID>  (98) 
98

>  <SMILES>  (98) 
[NH-]C(=O)COC(=O)n1c(C(N)=O)cc2ccc(N)cc21

>  <Energy>  (98) 
66.82538331999396

>  <Genealogy>  (98) 
[NH-]C(=O)COC(=O)n1c(C(N)=O)cc2ccc(N)cc21 (protonated)
[NH-]C(=O)COC(=O)n1c(C(N)=O)cc2ccc(N)cc21 (3D coordinates assigned)
[NH-]C(=O)COC(=O)n1c(C(N)=O)cc2ccc(N)cc21 (optimized conformer: 66.82538331999396 kcal/mol)

>  <smiles>  (98) 
NC(=O)COC(=O)n1c(C(N)=O)cc2ccc(N)cc21

>  <score_type>  (98) 
oracle

>  <origin>  (98) 
adg

>  <m_score__min__energy>  (98) 
-10.26

>  <m_primary>  (98) 
energy

$$$$
