0:0
     RDKit          3D

 36 37  0  0  0  0  0  0  0  0999 V2000
   -1.1180   25.7160  -28.2860 C   0  0  0  0  0  0  0  0  0  0  0  0
   -2.2900   25.2430  -28.9130 O   0  0  0  0  0  0  0  0  0  0  0  0
   -2.8540   24.1790  -28.1700 C   0  0  0  0  0  0  0  0  0  0  0  0
   -3.0720   22.9520  -29.0620 C   0  0  0  0  0  0  0  0  0  0  0  0
   -2.9560   23.3080  -30.4720 N   0  0  0  0  0  0  0  0  0  0  0  0
   -3.7510   22.7250  -31.5090 C   0  0  0  0  0  0  0  0  0  0  0  0
   -3.1950   22.2000  -32.5120 O   0  0  0  0  0  0  0  0  0  0  0  0
   -5.1840   22.7330  -31.4060 N   0  0  0  0  0  0  0  0  0  0  0  0
   -5.9790   23.7560  -30.9800 C   0  0  0  0  0  0  0  0  0  0  0  0
   -5.4990   25.0320  -30.4030 C   0  0  0  0  0  0  0  0  0  0  0  0
   -4.1760   25.5010  -30.6670 N   0  0  0  0  0  0  0  0  0  0  0  0
   -6.2660   25.7340  -29.6920 O   0  0  0  0  0  0  0  0  0  0  0  0
   -7.3230   23.3990  -31.0740 C   0  0  0  0  0  0  0  0  0  0  0  0
   -7.3270   22.1180  -31.5750 C   0  0  0  0  0  0  0  0  0  0  0  0
   -8.3940   21.2750  -31.8660 C   0  0  0  0  0  0  0  0  0  0  0  0
   -8.1070   20.0050  -32.3930 C   0  0  0  0  0  0  0  0  0  0  0  0
   -6.7670   19.6090  -32.6430 C   0  0  0  0  0  0  0  0  0  0  0  0
   -6.4690   18.2300  -33.1740 C   0  0  0  0  0  0  0  0  0  0  0  0
   -6.1190   18.3220  -34.5080 F   0  0  0  0  0  0  0  0  0  0  0  0
   -5.4260   17.6500  -32.4730 F   0  0  0  0  0  0  0  0  0  0  0  0
   -7.5780   17.4110  -33.0540 F   0  0  0  0  0  0  0  0  0  0  0  0
   -5.7080   20.4870  -32.3100 C   0  0  0  0  0  0  0  0  0  0  0  0
   -6.0240   21.7390  -31.7680 C   0  0  0  0  0  0  0  0  0  0  0  0
   -1.2408   25.6664  -27.1940 H   0  0  0  0  0  0  0  0  0  0  0  0
   -0.2636   25.0923  -28.5876 H   0  0  0  0  0  0  0  0  0  0  0  0
   -0.9358   26.7581  -28.5876 H   0  0  0  0  0  0  0  0  0  0  0  0
   -2.1734   23.9118  -27.3482 H   0  0  0  0  0  0  0  0  0  0  0  0
   -3.8261   24.5030  -27.7700 H   0  0  0  0  0  0  0  0  0  0  0  0
   -2.3159   22.1909  -28.8191 H   0  0  0  0  0  0  0  0  0  0  0  0
   -4.0834   22.5596  -28.8800 H   0  0  0  0  0  0  0  0  0  0  0  0
   -3.8600   26.4220  -30.2880 H   0  0  0  0  0  0  0  0  0  0  0  0
   -3.4900   24.9230  -31.2030 H   0  0  0  0  0  0  0  0  0  0  0  0
   -8.1958   24.0119  -30.8046 H   0  0  0  0  0  0  0  0  0  0  0  0
   -9.4319   21.5933  -31.6887 H   0  0  0  0  0  0  0  0  0  0  0  0
   -8.9299   19.3095  -32.6145 H   0  0  0  0  0  0  0  0  0  0  0  0
   -4.6607   20.1927  -32.4732 H   0  0  0  0  0  0  0  0  0  0  0  0
  1  2  1  0
  2  3  1  0
  3  4  1  0
  4  5  1  0
  5  6  1  0
  6  7  2  0
  6  8  1  0
  8  9  1  0
  9 10  1  0
 10 11  1  0
 10 12  2  0
  9 13  2  0
 13 14  1  0
 14 15  2  0
 15 16  1  0
 16 17  2  0
 17 18  1  0
 18 19  1  0
 18 20  1  0
 18 21  1  0
 17 22  1  0
 22 23  2  0
 23  8  1  0
 23 14  1  0
  1 24  1  0
  1 25  1  0
  1 26  1  0
  3 27  1  0
  3 28  1  0
  4 29  1  0
  4 30  1  0
 11 31  1  0
 11 32  1  0
 13 33  1  0
 15 34  1  0
 16 35  1  0
 22 36  1  0
M  CHG  1   5  -1
M  END
>  <UniqueID>  (1) 
1

>  <SMILES>  (1) 
COCC[N-]C(=O)n1c(C(N)=O)cc2ccc(C(F)(F)F)cc21

>  <Energy>  (1) 
73.99195369061223

>  <Genealogy>  (1) 
COCC[N-]C(=O)n1c(C(N)=O)cc2ccc(C(F)(F)F)cc21 (protonated)
COCC[N-]C(=O)n1c(C(N)=O)cc2ccc(C(F)(F)F)cc21 (3D coordinates assigned)
COCC[N-]C(=O)n1c(C(N)=O)cc2ccc(C(F)(F)F)cc21 (optimized conformer: 73.99195369061223 kcal/mol)

>  <smiles>  (1) 
COCCNC(=O)n1c(C(N)=O)cc2ccc(C(F)(F)F)cc21

>  <score_type>  (1) 
oracle

>  <origin>  (1) 
adg

>  <m_score__min__energy>  (1) 
-8.6999999999999993

>  <m_primary>  (1) 
energy

$$$$
1:0
     RDKit          3D

 37 39  0  0  0  0  0  0  0  0999 V2000
   -6.9630   18.4500  -32.5560 C   0  0  0  0  0  0  0  0  0  0  0  0
   -7.0980   19.8930  -32.1730 C   0  0  0  0  0  0  0  0  0  0  0  0
   -8.3530   20.5410  -32.2800 C   0  0  0  0  0  0  0  0  0  0  0  0
   -8.4880   21.9000  -31.9460 C   0  0  0  0  0  0  0  0  0  0  0  0
   -7.3480   22.5850  -31.5330 C   0  0  0  0  0  0  0  0  0  0  0  0
   -7.2000   23.8930  -31.1300 C   0  0  0  0  0  0  0  0  0  0  0  0
   -5.8480   24.0330  -30.8220 C   0  0  0  0  0  0  0  0  0  0  0  0
   -5.2340   25.3150  -30.4190 C   0  0  0  0  0  0  0  0  0  0  0  0
   -3.9210   25.6660  -30.8490 N   0  0  0  0  0  0  0  0  0  0  0  0
   -5.8970   26.1340  -29.7270 O   0  0  0  0  0  0  0  0  0  0  0  0
   -5.1880   22.8570  -31.0220 N   0  0  0  0  0  0  0  0  0  0  0  0
   -3.8150   22.5610  -30.7280 C   0  0  0  0  0  0  0  0  0  0  0  0
   -2.8960   23.1800  -31.3310 O   0  0  0  0  0  0  0  0  0  0  0  0
   -3.5040   21.5680  -29.7910 O   0  0  0  0  0  0  0  0  0  0  0  0
   -2.9620   21.8520  -28.5040 C   0  0  0  0  0  0  0  0  0  0  0  0
   -2.0140   23.0080  -28.5850 C   0  0  0  0  0  0  0  0  0  0  0  0
   -2.3780   24.2530  -28.7880 O   0  0  0  0  0  0  0  0  0  0  0  0
   -1.2700   24.9570  -28.7870 C   0  0  0  0  0  0  0  0  0  0  0  0
   -1.2350   26.2040  -28.9540 O   0  0  0  0  0  0  0  0  0  0  0  0
   -0.2010   24.2190  -28.5930 O   0  0  0  0  0  0  0  0  0  0  0  0
   -0.6350   22.9870  -28.4620 C   0  0  0  0  0  0  0  0  0  0  0  0
    0.2380   21.8000  -28.2220 C   0  0  0  0  0  0  0  0  0  0  0  0
   -6.1210   21.9810  -31.4580 C   0  0  0  0  0  0  0  0  0  0  0  0
   -5.9610   20.6250  -31.7650 C   0  0  0  0  0  0  0  0  0  0  0  0
   -6.9053   17.8332  -31.6470 H   0  0  0  0  0  0  0  0  0  0  0  0
   -7.8366   18.1453  -33.1510 H   0  0  0  0  0  0  0  0  0  0  0  0
   -6.0481   18.3126  -33.1510 H   0  0  0  0  0  0  0  0  0  0  0  0
   -9.2302   19.9756  -32.6277 H   0  0  0  0  0  0  0  0  0  0  0  0
   -9.4627   22.4059  -32.0089 H   0  0  0  0  0  0  0  0  0  0  0  0
   -7.9823   24.6636  -31.0649 H   0  0  0  0  0  0  0  0  0  0  0  0
   -3.0800   25.2060  -30.4350 H   0  0  0  0  0  0  0  0  0  0  0  0
   -3.7802   22.1010  -27.8122 H   0  0  0  0  0  0  0  0  0  0  0  0
   -2.4186   20.9674  -28.1406 H   0  0  0  0  0  0  0  0  0  0  0  0
    0.3536   21.6428  -27.1395 H   0  0  0  0  0  0  0  0  0  0  0  0
   -0.2217   20.9092  -28.6749 H   0  0  0  0  0  0  0  0  0  0  0  0
    1.2253   21.9734  -28.6749 H   0  0  0  0  0  0  0  0  0  0  0  0
   -4.9756   20.1419  -31.6905 H   0  0  0  0  0  0  0  0  0  0  0  0
  1  2  1  0
  2  3  2  0
  3  4  1  0
  4  5  2  0
  5  6  1  0
  6  7  2  0
  7  8  1  0
  8  9  1  0
  8 10  2  0
  7 11  1  0
 11 12  1  0
 12 13  2  0
 12 14  1  0
 14 15  1  0
 15 16  1  0
 16 17  1  0
 17 18  1  0
 18 19  2  0
 18 20  1  0
 20 21  1  0
 21 22  1  0
 11 23  1  0
 23 24  2  0
 24  2  1  0
 23  5  1  0
 21 16  2  0
  1 25  1  0
  1 26  1  0
  1 27  1  0
  3 28  1  0
  4 29  1  0
  6 30  1  0
  9 31  1  0
 15 32  1  0
 15 33  1  0
 22 34  1  0
 22 35  1  0
 22 36  1  0
 24 37  1  0
M  CHG  1   9  -1
M  END
>  <UniqueID>  (2) 
2

>  <SMILES>  (2) 
Cc1ccc2cc(C([NH-])=O)n(C(=O)OCc3oc(=O)oc3C)c2c1

>  <Energy>  (2) 
107.33123772197017

>  <Genealogy>  (2) 
Cc1ccc2cc(C([NH-])=O)n(C(=O)OCc3oc(=O)oc3C)c2c1 (protonated)
Cc1ccc2cc(C([NH-])=O)n(C(=O)OCc3oc(=O)oc3C)c2c1 (3D coordinates assigned)
Cc1ccc2cc(C([NH-])=O)n(C(=O)OCc3oc(=O)oc3C)c2c1 (optimized conformer: 107.33123772197017 kcal/mol)

>  <smiles>  (2) 
Cc1ccc2cc(C(N)=O)n(C(=O)OCc3oc(=O)oc3C)c2c1

>  <score_type>  (2) 
oracle

>  <origin>  (2) 
adg

>  <m_score__min__energy>  (2) 
-10.75

>  <m_primary>  (2) 
energy

$$$$
2:0
     RDKit          3D

 51 53  0  0  0  0  0  0  0  0999 V2000
    0.0240   21.9460  -28.2380 C   0  0  0  0  0  0  0  0  0  0  0  0
   -0.0570   23.3010  -28.9490 C   0  0  1  0  0  0  0  0  0  0  0  0
   -1.3990   23.5110  -29.6910 C   0  0  0  0  0  0  0  0  0  0  0  0
   -2.5390   23.8330  -28.8000 N   0  0  0  0  0  0  0  0  0  0  0  0
   -3.4770   22.6920  -28.6860 C   0  0  0  0  0  0  0  0  0  0  0  0
   -3.3770   21.7430  -29.8940 C   0  0  0  0  0  0  0  0  0  0  0  0
   -3.9500   22.3740  -31.1330 C   0  0  0  0  0  0  0  0  0  0  0  0
   -3.1850   22.6770  -32.0880 O   0  0  0  0  0  0  0  0  0  0  0  0
   -5.3510   22.6950  -31.2150 N   0  0  0  0  0  0  0  0  0  0  0  0
   -5.9320   23.9090  -31.0020 C   0  0  0  0  0  0  0  0  0  0  0  0
   -5.2440   25.1270  -30.5240 C   0  0  0  0  0  0  0  0  0  0  0  0
   -3.8640   25.3230  -30.8200 N   0  0  0  0  0  0  0  0  0  0  0  0
   -5.8680   26.0090  -29.8780 O   0  0  0  0  0  0  0  0  0  0  0  0
   -7.3050   23.8410  -31.2370 C   0  0  0  0  0  0  0  0  0  0  0  0
   -7.5480   22.5370  -31.6030 C   0  0  0  0  0  0  0  0  0  0  0  0
   -8.7410   21.9170  -31.9660 C   0  0  0  0  0  0  0  0  0  0  0  0
   -8.6950   20.5600  -32.3270 C   0  0  0  0  0  0  0  0  0  0  0  0
   -7.4670   19.8530  -32.3150 C   0  0  0  0  0  0  0  0  0  0  0  0
   -7.4180   18.4080  -32.7330 C   0  0  0  0  0  0  0  0  0  0  0  0
   -6.1950   18.1410  -33.5550 C   0  0  0  0  0  0  0  0  0  0  0  0
   -6.0530   18.6740  -34.6440 O   0  0  0  0  0  0  0  0  0  0  0  0
   -6.2760   20.5190  -31.9560 C   0  0  0  0  0  0  0  0  0  0  0  0
   -6.3530   21.8670  -31.5840 C   0  0  0  0  0  0  0  0  0  0  0  0
   -2.1200   24.3450  -27.4750 C   0  0  0  0  0  0  0  0  0  0  0  0
   -0.7740   25.0970  -27.5230 C   0  0  2  0  0  0  0  0  0  0  0  0
   -0.8910   26.4520  -28.2320 C   0  0  0  0  0  0  0  0  0  0  0  0
    0.3070   24.3510  -28.0630 O   0  0  0  0  0  0  0  0  0  0  0  0
    0.0147   22.1021  -27.1492 H   0  0  0  0  0  0  0  0  0  0  0  0
   -0.8388   21.3280  -28.5272 H   0  0  0  0  0  0  0  0  0  0  0  0
    0.9543   21.4352  -28.5272 H   0  0  0  0  0  0  0  0  0  0  0  0
    0.6868   23.3141  -29.7593 H   0  0  0  0  0  0  0  0  0  0  0  0
   -1.2735   24.3389  -30.4044 H   0  0  0  0  0  0  0  0  0  0  0  0
   -1.6412   22.5582  -30.1844 H   0  0  0  0  0  0  0  0  0  0  0  0
   -3.2420   22.1286  -27.7709 H   0  0  0  0  0  0  0  0  0  0  0  0
   -4.5003   23.0943  -28.6526 H   0  0  0  0  0  0  0  0  0  0  0  0
   -2.3191   21.4998  -30.0721 H   0  0  0  0  0  0  0  0  0  0  0  0
   -3.9529   20.8331  -29.6695 H   0  0  0  0  0  0  0  0  0  0  0  0
   -3.1920   24.5240  -30.8040 H   0  0  0  0  0  0  0  0  0  0  0  0
   -8.0379   24.6565  -31.1486 H   0  0  0  0  0  0  0  0  0  0  0  0
   -9.6903   22.4727  -31.9700 H   0  0  0  0  0  0  0  0  0  0  0  0
   -9.6198   20.0422  -32.6214 H   0  0  0  0  0  0  0  0  0  0  0  0
   -7.3970   17.7721  -31.8357 H   0  0  0  0  0  0  0  0  0  0  0  0
   -8.3090   18.1820  -33.3371 H   0  0  0  0  0  0  0  0  0  0  0  0
   -5.4193   17.4599  -33.1749 H   0  0  0  0  0  0  0  0  0  0  0  0
   -5.3104   19.9922  -31.9680 H   0  0  0  0  0  0  0  0  0  0  0  0
   -2.8938   25.0328  -27.1033 H   0  0  0  0  0  0  0  0  0  0  0  0
   -1.9914   23.4779  -26.8105 H   0  0  0  0  0  0  0  0  0  0  0  0
   -0.5291   25.2658  -26.4640 H   0  0  0  0  0  0  0  0  0  0  0  0
   -0.9602   27.2536  -27.4819 H   0  0  0  0  0  0  0  0  0  0  0  0
   -0.0035   26.6144  -28.8613 H   0  0  0  0  0  0  0  0  0  0  0  0
   -1.7932   26.4599  -28.8613 H   0  0  0  0  0  0  0  0  0  0  0  0
  1  2  1  0
  2  3  1  0
  3  4  1  0
  4  5  1  0
  5  6  1  0
  6  7  1  0
  7  8  2  0
  7  9  1  0
  9 10  1  0
 10 11  1  0
 11 12  1  0
 11 13  2  0
 10 14  2  0
 14 15  1  0
 15 16  2  0
 16 17  1  0
 17 18  2  0
 18 19  1  0
 19 20  1  0
 20 21  2  0
 18 22  1  0
 22 23  2  0
  4 24  1  0
 24 25  1  0
 25 26  1  0
 25 27  1  0
 27  2  1  0
 23  9  1  0
 23 15  1  0
  1 28  1  0
  1 29  1  0
  1 30  1  0
  2 31  1  6
  3 32  1  0
  3 33  1  0
  5 34  1  0
  5 35  1  0
  6 36  1  0
  6 37  1  0
 12 38  1  0
 14 39  1  0
 16 40  1  0
 17 41  1  0
 19 42  1  0
 19 43  1  0
 20 44  1  0
 22 45  1  0
 24 46  1  0
 24 47  1  0
 25 48  1  1
 26 49  1  0
 26 50  1  0
 26 51  1  0
M  CHG  1  12  -1
M  END
>  <UniqueID>  (3) 
3

>  <SMILES>  (3) 
C[C@H]1CN(CCC(=O)n2c(C([NH-])=O)cc3ccc(CC=O)cc32)C[C@H](C)O1

>  <Energy>  (3) 
101.54403467503785

>  <Genealogy>  (3) 
CC1CN(CCC(=O)n2c(C([NH-])=O)cc3ccc(CC=O)cc32)CC(C)O1 (protonated)
C[C@H]1CN(CCC(=O)n2c(C([NH-])=O)cc3ccc(CC=O)cc32)C[C@H](C)O1 (chirality)
C[C@H]1CN(CCC(=O)n2c(C([NH-])=O)cc3ccc(CC=O)cc32)C[C@H](C)O1 (3D coordinates assigned)
C[C@H]1CN(CCC(=O)n2c(C([NH-])=O)cc3ccc(CC=O)cc32)C[C@H](C)O1 (nonaromatic ring conformer: 101.54403467503785 kcal/mol)

>  <smiles>  (3) 
CC1CN(CCC(=O)n2c(C(N)=O)cc3ccc(CC=O)cc32)CC(C)O1

>  <score_type>  (3) 
oracle

>  <origin>  (3) 
adg

>  <m_score__min__energy>  (3) 
-11.65

>  <m_primary>  (3) 
energy

$$$$
3:0
     RDKit          3D

 59 62  0  0  0  0  0  0  0  0999 V2000
    1.0730   22.9560  -27.4310 C   0  0  0  0  0  0  0  0  0  0  0  0
    0.8960   24.1910  -28.2110 N   0  0  0  0  0  0  0  0  0  0  0  0
    0.9190   25.3510  -27.3040 C   0  0  0  0  0  0  0  0  0  0  0  0
   -0.3720   24.1370  -28.9710 C   0  0  0  0  0  0  0  0  0  0  0  0
   -1.2470   25.3490  -28.6450 C   0  0  0  0  0  0  0  0  0  0  0  0
   -2.5250   25.2280  -29.3400 N   0  0  0  0  0  0  0  0  0  0  0  0
   -3.4500   24.1470  -29.1670 C   0  0  0  0  0  0  0  0  0  0  0  0
   -3.1360   23.1980  -28.4010 O   0  0  0  0  0  0  0  0  0  0  0  0
   -4.7500   24.1020  -29.8730 C   0  0  0  0  0  0  0  0  0  0  0  0
   -5.7830   24.9360  -29.4150 C   0  0  0  0  0  0  0  0  0  0  0  0
   -7.0170   24.9640  -30.0680 C   0  0  0  0  0  0  0  0  0  0  0  0
   -7.2370   24.1540  -31.1810 C   0  0  0  0  0  0  0  0  0  0  0  0
   -6.2320   23.3010  -31.6360 C   0  0  0  0  0  0  0  0  0  0  0  0
   -4.9850   23.2500  -30.9870 C   0  0  0  0  0  0  0  0  0  0  0  0
   -3.9680   22.2830  -31.4760 C   0  0  0  0  0  0  0  0  0  0  0  0
   -2.5900   22.5160  -31.2260 C   0  0  0  0  0  0  0  0  0  0  0  0
   -1.6130   21.6180  -31.6890 C   0  0  0  0  0  0  0  0  0  0  0  0
   -2.0420   20.4950  -32.3900 C   0  0  0  0  0  0  0  0  0  0  0  0
   -1.3160   19.4900  -32.9900 C   0  0  0  0  0  0  0  0  0  0  0  0
   -2.2620   18.6590  -33.5870 C   0  0  0  0  0  0  0  0  0  0  0  0
   -1.9160   17.4980  -34.4310 C   0  0  0  0  0  0  0  0  0  0  0  0
   -2.8550   16.4530  -34.6770 N   0  0  0  0  0  0  0  0  0  0  0  0
   -0.7550   17.4090  -34.9110 O   0  0  0  0  0  0  0  0  0  0  0  0
   -3.5190   19.1330  -33.3660 N   0  0  0  0  0  0  0  0  0  0  0  0
   -4.7450   18.6770  -33.9510 C   0  0  0  0  0  0  0  0  0  0  0  0
   -4.7120   18.0890  -35.0670 O   0  0  0  0  0  0  0  0  0  0  0  0
   -6.0330   18.8270  -33.2270 C   0  0  0  0  0  0  0  0  0  0  0  0
   -6.9090   19.8840  -33.5400 C   0  0  0  0  0  0  0  0  0  0  0  0
   -8.1340   20.0090  -32.8760 C   0  0  0  0  0  0  0  0  0  0  0  0
   -8.4940   19.0870  -31.8910 C   0  0  0  0  0  0  0  0  0  0  0  0
   -7.6300   18.0380  -31.5670 C   0  0  0  0  0  0  0  0  0  0  0  0
   -6.4050   17.9080  -32.2270 C   0  0  0  0  0  0  0  0  0  0  0  0
   -3.3670   20.2580  -32.6390 C   0  0  0  0  0  0  0  0  0  0  0  0
   -4.3590   21.1430  -32.2110 C   0  0  0  0  0  0  0  0  0  0  0  0
    1.0391   23.1925  -26.3573 H   0  0  0  0  0  0  0  0  0  0  0  0
    0.2670   22.2487  -27.6763 H   0  0  0  0  0  0  0  0  0  0  0  0
    2.0452   22.5035  -27.6763 H   0  0  0  0  0  0  0  0  0  0  0  0
    0.9121   25.0012  -26.2611 H   0  0  0  0  0  0  0  0  0  0  0  0
    1.8290   25.9413  -27.4867 H   0  0  0  0  0  0  0  0  0  0  0  0
    0.0331   25.9769  -27.4867 H   0  0  0  0  0  0  0  0  0  0  0  0
   -0.1481   24.1319  -30.0480 H   0  0  0  0  0  0  0  0  0  0  0  0
   -0.9147   23.2221  -28.6910 H   0  0  0  0  0  0  0  0  0  0  0  0
   -1.4225   25.3932  -27.5600 H   0  0  0  0  0  0  0  0  0  0  0  0
   -0.7375   26.2674  -28.9720 H   0  0  0  0  0  0  0  0  0  0  0  0
   -5.6185   25.5732  -28.5336 H   0  0  0  0  0  0  0  0  0  0  0  0
   -7.8164   25.6260  -29.7037 H   0  0  0  0  0  0  0  0  0  0  0  0
   -8.2055   24.1878  -31.7015 H   0  0  0  0  0  0  0  0  0  0  0  0
   -6.4163   22.6613  -32.5117 H   0  0  0  0  0  0  0  0  0  0  0  0
   -2.2834   23.4100  -30.6632 H   0  0  0  0  0  0  0  0  0  0  0  0
   -0.5437   21.7971  -31.5032 H   0  0  0  0  0  0  0  0  0  0  0  0
   -0.2227   19.3691  -32.9965 H   0  0  0  0  0  0  0  0  0  0  0  0
   -2.6080   15.6670  -35.3190 H   0  0  0  0  0  0  0  0  0  0  0  0
   -3.7330   16.3770  -34.1200 H   0  0  0  0  0  0  0  0  0  0  0  0
   -6.6284   20.6161  -34.3115 H   0  0  0  0  0  0  0  0  0  0  0  0
   -8.8147   20.8349  -33.1302 H   0  0  0  0  0  0  0  0  0  0  0  0
   -9.4578   19.1866  -31.3702 H   0  0  0  0  0  0  0  0  0  0  0  0
   -7.9146   17.3127  -30.7906 H   0  0  0  0  0  0  0  0  0  0  0  0
   -5.7272   17.0826  -31.9637 H   0  0  0  0  0  0  0  0  0  0  0  0
   -5.4184   20.9564  -32.4409 H   0  0  0  0  0  0  0  0  0  0  0  0
  1  2  1  0
  2  3  1  0
  2  4  1  0
  4  5  1  0
  5  6  1  0
  6  7  1  0
  7  8  2  0
  7  9  1  0
  9 10  2  0
 10 11  1  0
 11 12  2  0
 12 13  1  0
 13 14  2  0
 14 15  1  0
 15 16  2  0
 16 17  1  0
 17 18  2  0
 18 19  1  0
 19 20  2  0
 20 21  1  0
 21 22  1  0
 21 23  2  0
 20 24  1  0
 24 25  1  0
 25 26  2  0
 25 27  1  0
 27 28  2  0
 28 29  1  0
 29 30  2  0
 30 31  1  0
 31 32  2  0
 24 33  1  0
 33 34  2  0
 14  9  1  0
 34 15  1  0
 33 18  1  0
 32 27  1  0
  1 35  1  0
  1 36  1  0
  1 37  1  0
  3 38  1  0
  3 39  1  0
  3 40  1  0
  4 41  1  0
  4 42  1  0
  5 43  1  0
  5 44  1  0
 10 45  1  0
 11 46  1  0
 12 47  1  0
 13 48  1  0
 16 49  1  0
 17 50  1  0
 19 51  1  0
 22 52  1  0
 22 53  1  0
 28 54  1  0
 29 55  1  0
 30 56  1  0
 31 57  1  0
 32 58  1  0
 34 59  1  0
M  CHG  1   6  -1
M  END
>  <UniqueID>  (4) 
4

>  <SMILES>  (4) 
CN(C)CC[N-]C(=O)c1ccccc1-c1ccc2cc(C(N)=O)n(C(=O)c3ccccc3)c2c1

>  <Energy>  (4) 
115.78663465245745

>  <Genealogy>  (4) 
CN(C)CC[N-]C(=O)c1ccccc1-c1ccc2cc(C(N)=O)n(C(=O)c3ccccc3)c2c1 (protonated)
CN(C)CC[N-]C(=O)c1ccccc1-c1ccc2cc(C(N)=O)n(C(=O)c3ccccc3)c2c1 (3D coordinates assigned)
CN(C)CC[N-]C(=O)c1ccccc1-c1ccc2cc(C(N)=O)n(C(=O)c3ccccc3)c2c1 (optimized conformer: 115.78663465245745 kcal/mol)

>  <smiles>  (4) 
CN(C)CCNC(=O)c1ccccc1-c1ccc2cc(C(N)=O)n(C(=O)c3ccccc3)c2c1

>  <score_type>  (4) 
oracle

>  <origin>  (4) 
adg

>  <m_score__min__energy>  (4) 
-11.56

>  <m_primary>  (4) 
energy

$$$$
4:0
     RDKit          3D

 45 46  0  0  0  0  0  0  0  0999 V2000
   -3.4790   18.6270  -33.8260 C   0  0  0  0  0  0  0  0  0  0  0  0
   -4.5800   17.7530  -34.2370 N   0  0  0  0  0  0  0  0  0  0  0  0
   -5.7850   18.5430  -34.5420 C   0  0  0  0  0  0  0  0  0  0  0  0
   -6.8170   18.4690  -33.4070 C   0  0  0  0  0  0  0  0  0  0  0  0
   -6.9510   19.7820  -32.6800 C   0  0  0  0  0  0  0  0  0  0  0  0
   -8.2330   20.2600  -32.3140 C   0  0  0  0  0  0  0  0  0  0  0  0
   -8.3770   21.5020  -31.6720 C   0  0  0  0  0  0  0  0  0  0  0  0
   -7.2260   22.2380  -31.4100 C   0  0  0  0  0  0  0  0  0  0  0  0
   -7.0800   23.4760  -30.8280 C   0  0  0  0  0  0  0  0  0  0  0  0
   -5.7100   23.7290  -30.8340 C   0  0  0  0  0  0  0  0  0  0  0  0
   -5.1010   24.9240  -30.2130 C   0  0  0  0  0  0  0  0  0  0  0  0
   -4.0240   25.6120  -30.8440 N   0  0  0  0  0  0  0  0  0  0  0  0
   -5.5050   25.3160  -29.0860 O   0  0  0  0  0  0  0  0  0  0  0  0
   -5.0360   22.6920  -31.4080 N   0  0  0  0  0  0  0  0  0  0  0  0
   -3.6280   22.5940  -31.6730 C   0  0  0  0  0  0  0  0  0  0  0  0
   -3.2240   22.0030  -32.7110 O   0  0  0  0  0  0  0  0  0  0  0  0
   -2.7140   23.1370  -30.7640 O   0  0  0  0  0  0  0  0  0  0  0  0
   -2.1330   22.3940  -29.6950 C   0  0  0  0  0  0  0  0  0  0  0  0
   -2.6230   22.8990  -28.3310 C   0  0  0  0  0  0  0  0  0  0  0  0
   -1.9900   24.2390  -27.9320 C   0  0  0  0  0  0  0  0  0  0  0  0
   -2.3400   25.2890  -28.8850 N   0  0  0  0  0  0  0  0  0  0  0  0
   -5.9770   21.7850  -31.7490 C   0  0  0  0  0  0  0  0  0  0  0  0
   -5.8050   20.5610  -32.4040 C   0  0  0  0  0  0  0  0  0  0  0  0
   -3.4313   18.6649  -32.7277 H   0  0  0  0  0  0  0  0  0  0  0  0
   -2.5310   18.2328  -34.2208 H   0  0  0  0  0  0  0  0  0  0  0  0
   -3.6478   19.6397  -34.2208 H   0  0  0  0  0  0  0  0  0  0  0  0
   -4.2840   17.2160  -35.0850 H   0  0  0  0  0  0  0  0  0  0  0  0
   -4.7790   17.0870  -33.4550 H   0  0  0  0  0  0  0  0  0  0  0  0
   -5.4941   19.5933  -34.6910 H   0  0  0  0  0  0  0  0  0  0  0  0
   -6.2454   18.1280  -35.4507 H   0  0  0  0  0  0  0  0  0  0  0  0
   -7.7942   18.1973  -33.8326 H   0  0  0  0  0  0  0  0  0  0  0  0
   -6.4741   17.7138  -32.6844 H   0  0  0  0  0  0  0  0  0  0  0  0
   -9.1240   19.6537  -32.5342 H   0  0  0  0  0  0  0  0  0  0  0  0
   -9.3693   21.8804  -31.3855 H   0  0  0  0  0  0  0  0  0  0  0  0
   -7.8764   24.1281  -30.4400 H   0  0  0  0  0  0  0  0  0  0  0  0
   -3.0400   25.2840  -30.7370 H   0  0  0  0  0  0  0  0  0  0  0  0
   -2.4083   21.3346  -29.8044 H   0  0  0  0  0  0  0  0  0  0  0  0
   -1.0411   22.5201  -29.7390 H   0  0  0  0  0  0  0  0  0  0  0  0
   -3.7149   23.0248  -28.3741 H   0  0  0  0  0  0  0  0  0  0  0  0
   -2.3281   22.1550  -27.5763 H   0  0  0  0  0  0  0  0  0  0  0  0
   -2.3523   24.5245  -26.9334 H   0  0  0  0  0  0  0  0  0  0  0  0
   -0.8963   24.1216  -27.9268 H   0  0  0  0  0  0  0  0  0  0  0  0
   -2.1900   24.9080  -29.8470 H   0  0  0  0  0  0  0  0  0  0  0  0
   -3.3640   25.4820  -28.7970 H   0  0  0  0  0  0  0  0  0  0  0  0
   -4.8031   20.2138  -32.6967 H   0  0  0  0  0  0  0  0  0  0  0  0
  1  2  1  0
  2  3  1  0
  3  4  1  0
  4  5  1  0
  5  6  2  0
  6  7  1  0
  7  8  2  0
  8  9  1  0
  9 10  2  0
 10 11  1  0
 11 12  1  0
 11 13  2  0
 10 14  1  0
 14 15  1  0
 15 16  2  0
 15 17  1  0
 17 18  1  0
 18 19  1  0
 19 20  1  0
 20 21  1  0
 14 22  1  0
 22 23  2  0
 23  5  1  0
 22  8  1  0
  1 24  1  0
  1 25  1  0
  1 26  1  0
  2 27  1  0
  2 28  1  0
  3 29  1  0
  3 30  1  0
  4 31  1  0
  4 32  1  0
  6 33  1  0
  7 34  1  0
  9 35  1  0
 12 36  1  0
 18 37  1  0
 18 38  1  0
 19 39  1  0
 19 40  1  0
 20 41  1  0
 20 42  1  0
 21 43  1  0
 21 44  1  0
 23 45  1  0
M  CHG  2   2   1  12  -1
M  END
>  <UniqueID>  (5) 
5

>  <SMILES>  (5) 
C[NH2+]CCc1ccc2cc(C([NH-])=O)n(C(=O)OCCCN)c2c1

>  <Energy>  (5) 
72.78277224069672

>  <Genealogy>  (5) 
C[NH2+]CCc1ccc2cc(C([NH-])=O)n(C(=O)OCCCN)c2c1 (protonated)
C[NH2+]CCc1ccc2cc(C([NH-])=O)n(C(=O)OCCCN)c2c1 (3D coordinates assigned)
C[NH2+]CCc1ccc2cc(C([NH-])=O)n(C(=O)OCCCN)c2c1 (optimized conformer: 72.78277224069672 kcal/mol)

>  <smiles>  (5) 
CNCCc1ccc2cc(C(N)=O)n(C(=O)OCCCN)c2c1

>  <score_type>  (5) 
oracle

>  <origin>  (5) 
adg

>  <m_score__min__energy>  (5) 
-9.3599999999999994

>  <m_primary>  (5) 
energy

$$$$
5:0
     RDKit          3D

 36 38  0  0  0  0  0  0  0  0999 V2000
   -6.4680   17.5590  -31.6740 C   0  0  0  0  0  0  0  0  0  0  0  0
   -7.1660   18.3940  -32.7410 C   0  0  0  0  0  0  0  0  0  0  0  0
   -7.3520   19.8110  -32.2700 C   0  0  0  0  0  0  0  0  0  0  0  0
   -8.6240   20.4320  -32.3600 C   0  0  0  0  0  0  0  0  0  0  0  0
   -8.7950   21.7750  -31.9800 C   0  0  0  0  0  0  0  0  0  0  0  0
   -7.6790   22.4680  -31.5210 C   0  0  0  0  0  0  0  0  0  0  0  0
   -7.5400   23.7910  -31.1660 C   0  0  0  0  0  0  0  0  0  0  0  0
   -6.1890   23.9510  -30.8620 C   0  0  0  0  0  0  0  0  0  0  0  0
   -5.5910   25.2300  -30.4290 C   0  0  0  0  0  0  0  0  0  0  0  0
   -4.2550   25.5880  -30.7920 N   0  0  0  0  0  0  0  0  0  0  0  0
   -6.2610   26.0100  -29.7020 O   0  0  0  0  0  0  0  0  0  0  0  0
   -5.5220   22.7740  -31.0200 N   0  0  0  0  0  0  0  0  0  0  0  0
   -4.1050   22.5530  -30.9840 C   0  0  0  0  0  0  0  0  0  0  0  0
   -3.3990   22.8620  -31.9810 O   0  0  0  0  0  0  0  0  0  0  0  0
   -3.4450   22.0760  -29.7280 C   0  0  0  0  0  0  0  0  0  0  0  0
   -2.9020   23.2480  -28.9690 C   0  0  0  0  0  0  0  0  0  0  0  0
   -2.9950   23.3590  -27.5540 C   0  0  0  0  0  0  0  0  0  0  0  0
   -2.4370   24.4640  -26.9960 N   0  0  0  0  0  0  0  0  0  0  0  0
   -1.8610   25.2310  -28.3380 S   0  0  0  0  0  0  0  0  0  0  0  0
   -2.2680   24.2640  -29.6110 N   0  0  0  0  0  0  0  0  0  0  0  0
   -6.4460   21.8780  -31.4240 C   0  0  0  0  0  0  0  0  0  0  0  0
   -6.2440   20.5480  -31.8040 C   0  0  0  0  0  0  0  0  0  0  0  0
   -6.7657   17.9152  -30.6768 H   0  0  0  0  0  0  0  0  0  0  0  0
   -6.7563   16.5036  -31.7876 H   0  0  0  0  0  0  0  0  0  0  0  0
   -5.3782   17.6556  -31.7876 H   0  0  0  0  0  0  0  0  0  0  0  0
   -6.5552   18.3948  -33.6558 H   0  0  0  0  0  0  0  0  0  0  0  0
   -8.1545   17.9556  -32.9426 H   0  0  0  0  0  0  0  0  0  0  0  0
   -9.4855   19.8572  -32.7308 H   0  0  0  0  0  0  0  0  0  0  0  0
   -9.7792   22.2621  -32.0435 H   0  0  0  0  0  0  0  0  0  0  0  0
   -8.3273   24.5583  -31.1299 H   0  0  0  0  0  0  0  0  0  0  0  0
   -3.8720   26.5210  -30.5220 H   0  0  0  0  0  0  0  0  0  0  0  0
   -3.6100   24.8980  -31.2310 H   0  0  0  0  0  0  0  0  0  0  0  0
   -4.1815   21.5464  -29.1059 H   0  0  0  0  0  0  0  0  0  0  0  0
   -2.6212   21.3938  -29.9847 H   0  0  0  0  0  0  0  0  0  0  0  0
   -3.4925   22.5905  -26.9442 H   0  0  0  0  0  0  0  0  0  0  0  0
   -5.2466   20.0884  -31.7411 H   0  0  0  0  0  0  0  0  0  0  0  0
  1  2  1  0
  2  3  1  0
  3  4  2  0
  4  5  1  0
  5  6  2  0
  6  7  1  0
  7  8  2  0
  8  9  1  0
  9 10  1  0
  9 11  2  0
  8 12  1  0
 12 13  1  0
 13 14  2  0
 13 15  1  0
 15 16  1  0
 16 17  1  0
 17 18  2  0
 18 19  1  0
 19 20  1  0
 12 21  1  0
 21 22  2  0
 22  3  1  0
 21  6  1  0
 20 16  2  0
  1 23  1  0
  1 24  1  0
  1 25  1  0
  2 26  1  0
  2 27  1  0
  4 28  1  0
  5 29  1  0
  7 30  1  0
 10 31  1  0
 10 32  1  0
 15 33  1  0
 15 34  1  0
 17 35  1  0
 22 36  1  0
M  END
>  <UniqueID>  (6) 
6

>  <SMILES>  (6) 
CCc1ccc2cc(C(N)=O)n(C(=O)Cc3cnsn3)c2c1

>  <Energy>  (6) 
108.07267987020377

>  <Genealogy>  (6) 
CCc1ccc2cc(C(N)=O)n(C(=O)Cc3cnsn3)c2c1 (3D coordinates assigned)
CCc1ccc2cc(C(N)=O)n(C(=O)Cc3cnsn3)c2c1 (optimized conformer: 108.07267987020377 kcal/mol)

>  <smiles>  (6) 
CCc1ccc2cc(C(N)=O)n(C(=O)Cc3cnsn3)c2c1

>  <score_type>  (6) 
oracle

>  <origin>  (6) 
adg

>  <m_score__min__energy>  (6) 
-8.9800000000000004

>  <m_primary>  (6) 
energy

$$$$
6:0
     RDKit          3D

 41 43  0  0  0  0  0  0  0  0999 V2000
   -3.0500   13.0820  -34.9530 C   0  0  0  0  0  0  0  0  0  0  0  0
   -3.3190   14.3190  -34.2140 N   0  0  0  0  0  0  0  0  0  0  0  0
   -3.3710   14.2880  -32.7480 C   0  0  0  0  0  0  0  0  0  0  0  0
   -3.4200   15.5610  -34.9460 C   0  0  0  0  0  0  0  0  0  0  0  0
   -2.9150   15.6350  -36.1000 O   0  0  0  0  0  0  0  0  0  0  0  0
   -4.1060   16.7540  -34.3930 C   0  0  0  0  0  0  0  0  0  0  0  0
   -5.4970   16.7560  -34.2070 C   0  0  0  0  0  0  0  0  0  0  0  0
   -6.1200   17.8800  -33.6630 C   0  0  0  0  0  0  0  0  0  0  0  0
   -5.3610   19.0030  -33.2970 C   0  0  0  0  0  0  0  0  0  0  0  0
   -6.0100   20.2080  -32.7200 C   0  0  0  0  0  0  0  0  0  0  0  0
   -7.4210   20.3550  -32.7690 C   0  0  0  0  0  0  0  0  0  0  0  0
   -8.0420   21.4970  -32.2390 C   0  0  0  0  0  0  0  0  0  0  0  0
   -7.2370   22.4700  -31.6570 C   0  0  0  0  0  0  0  0  0  0  0  0
   -7.5770   23.6830  -31.1050 C   0  0  0  0  0  0  0  0  0  0  0  0
   -6.3740   24.2500  -30.6960 C   0  0  0  0  0  0  0  0  0  0  0  0
   -6.2850   25.5440  -29.9910 C   0  0  0  0  0  0  0  0  0  0  0  0
   -5.3660   26.5530  -30.4100 N   0  0  0  0  0  0  0  0  0  0  0  0
   -6.9910   25.7400  -28.9650 O   0  0  0  0  0  0  0  0  0  0  0  0
   -5.3270   23.4300  -30.9940 N   0  0  0  0  0  0  0  0  0  0  0  0
   -3.9250   23.7070  -30.8350 C   0  0  0  0  0  0  0  0  0  0  0  0
   -3.0770   22.7830  -30.9490 O   0  0  0  0  0  0  0  0  0  0  0  0
   -3.4890   24.9960  -30.5500 O   0  0  0  0  0  0  0  0  0  0  0  0
   -5.8740   22.3400  -31.5810 C   0  0  0  0  0  0  0  0  0  0  0  0
   -5.2240   21.2230  -32.1220 C   0  0  0  0  0  0  0  0  0  0  0  0
   -3.9700   18.9560  -33.4910 C   0  0  0  0  0  0  0  0  0  0  0  0
   -3.3880   17.8480  -34.0200 N   0  0  0  0  0  0  0  0  0  0  0  0
   -2.8716   12.2617  -34.2422 H   0  0  0  0  0  0  0  0  0  0  0  0
   -3.9159   12.8372  -35.5857 H   0  0  0  0  0  0  0  0  0  0  0  0
   -2.1606   13.2189  -35.5857 H   0  0  0  0  0  0  0  0  0  0  0  0
   -2.4939   14.8109  -32.3389 H   0  0  0  0  0  0  0  0  0  0  0  0
   -4.2889   14.7864  -32.4030 H   0  0  0  0  0  0  0  0  0  0  0  0
   -3.3691   13.2435  -32.4030 H   0  0  0  0  0  0  0  0  0  0  0  0
   -6.0934   15.8757  -34.4887 H   0  0  0  0  0  0  0  0  0  0  0  0
   -7.2107   17.8862  -33.5203 H   0  0  0  0  0  0  0  0  0  0  0  0
   -8.0346   19.5654  -33.2273 H   0  0  0  0  0  0  0  0  0  0  0  0
   -9.1344   21.6187  -32.2829 H   0  0  0  0  0  0  0  0  0  0  0  0
   -8.5848   24.1130  -31.0077 H   0  0  0  0  0  0  0  0  0  0  0  0
   -5.3440   27.4770  -29.9230 H   0  0  0  0  0  0  0  0  0  0  0  0
   -4.6510   26.3600  -31.1450 H   0  0  0  0  0  0  0  0  0  0  0  0
   -4.1281   21.1363  -32.0832 H   0  0  0  0  0  0  0  0  0  0  0  0
   -3.3492   19.8205  -33.2132 H   0  0  0  0  0  0  0  0  0  0  0  0
  1  2  1  0
  2  3  1  0
  2  4  1  0
  4  5  2  0
  4  6  1  0
  6  7  2  0
  7  8  1  0
  8  9  2  0
  9 10  1  0
 10 11  2  0
 11 12  1  0
 12 13  2  0
 13 14  1  0
 14 15  2  0
 15 16  1  0
 16 17  1  0
 16 18  2  0
 15 19  1  0
 19 20  1  0
 20 21  2  0
 20 22  1  0
 19 23  1  0
 23 24  2  0
  9 25  1  0
 25 26  2  0
 26  6  1  0
 24 10  1  0
 23 13  1  0
  1 27  1  0
  1 28  1  0
  1 29  1  0
  3 30  1  0
  3 31  1  0
  3 32  1  0
  7 33  1  0
  8 34  1  0
 11 35  1  0
 12 36  1  0
 14 37  1  0
 17 38  1  0
 17 39  1  0
 24 40  1  0
 25 41  1  0
M  CHG  1  22  -1
M  END
>  <UniqueID>  (7) 
7

>  <SMILES>  (7) 
CN(C)C(=O)c1ccc(-c2ccc3cc(C(N)=O)n(C(=O)[O-])c3c2)cn1

>  <Energy>  (7) 
90.7239145496722

>  <Genealogy>  (7) 
CN(C)C(=O)c1ccc(-c2ccc3cc(C(N)=O)n(C(=O)[O-])c3c2)cn1 (protonated)
CN(C)C(=O)c1ccc(-c2ccc3cc(C(N)=O)n(C(=O)[O-])c3c2)cn1 (3D coordinates assigned)
CN(C)C(=O)c1ccc(-c2ccc3cc(C(N)=O)n(C(=O)[O-])c3c2)cn1 (optimized conformer: 90.7239145496722 kcal/mol)

>  <smiles>  (7) 
CN(C)C(=O)c1ccc(-c2ccc3cc(C(N)=O)n(C(=O)O)c3c2)cn1

>  <score_type>  (7) 
oracle

>  <origin>  (7) 
adg

>  <m_score__min__energy>  (7) 
-9.5099999999999998

>  <m_primary>  (7) 
energy

$$$$
7:0
     RDKit          3D

 62 66  0  0  0  0  0  0  0  0999 V2000
   -1.5190   20.3930  -30.0830 C   0  0  0  0  0  0  0  0  0  0  0  0
   -2.0250   20.5660  -31.4800 C   0  0  0  0  0  0  0  0  0  0  0  0
   -1.5820   19.7670  -32.4890 N   0  0  0  0  0  0  0  0  0  0  0  0
   -2.1440   20.0710  -33.6780 C   0  0  0  0  0  0  0  0  0  0  0  0
   -3.2210   21.3490  -33.5230 S   0  0  0  0  0  0  0  0  0  0  0  0
   -2.9620   21.5320  -31.8700 C   0  0  0  0  0  0  0  0  0  0  0  0
   -3.6410   22.5340  -31.0220 C   0  0  0  0  0  0  0  0  0  0  0  0
   -2.9990   23.1610  -30.1370 O   0  0  0  0  0  0  0  0  0  0  0  0
   -5.0500   22.7640  -31.1590 N   0  0  0  0  0  0  0  0  0  0  0  0
   -5.7400   23.9170  -30.9380 C   0  0  0  0  0  0  0  0  0  0  0  0
   -5.1780   25.1730  -30.3960 C   0  0  0  0  0  0  0  0  0  0  0  0
   -3.9100   25.6570  -30.8300 N   0  0  0  0  0  0  0  0  0  0  0  0
   -5.8140   25.8130  -29.5160 O   0  0  0  0  0  0  0  0  0  0  0  0
   -7.0900   23.7390  -31.2400 C   0  0  0  0  0  0  0  0  0  0  0  0
   -7.2040   22.4280  -31.6430 C   0  0  0  0  0  0  0  0  0  0  0  0
   -8.3180   21.7110  -32.0670 C   0  0  0  0  0  0  0  0  0  0  0  0
   -8.1370   20.3680  -32.4400 C   0  0  0  0  0  0  0  0  0  0  0  0
   -6.8520   19.7660  -32.3820 C   0  0  0  0  0  0  0  0  0  0  0  0
   -6.6750   18.3930  -32.7830 N   0  0  0  0  0  0  0  0  0  0  0  0
   -6.6850   17.3100  -31.7890 C   0  0  0  0  0  0  0  0  0  0  0  0
   -5.3710   16.5130  -31.8400 C   0  0  0  0  0  0  0  0  0  0  0  0
   -4.7800   16.4090  -33.2770 C   0  0  0  0  0  0  0  0  0  0  0  0
   -4.0500   15.1410  -33.5380 N   0  0  0  0  0  0  0  0  0  0  0  0
   -3.7730   14.2750  -32.3630 C   0  0  0  0  0  0  0  0  0  0  0  0
   -2.2770   13.9930  -32.1670 C   0  0  0  0  0  0  0  0  0  0  0  0
   -1.5170   15.2270  -32.4080 N   0  0  0  0  0  0  0  0  0  0  0  0
   -0.1170   15.0670  -31.9900 C   0  0  0  0  0  0  0  0  0  0  0  0
   -1.5980   15.6490  -33.8230 C   0  0  0  0  0  0  0  0  0  0  0  0
   -2.9320   15.2590  -34.4970 C   0  0  0  0  0  0  0  0  0  0  0  0
   -5.8460   16.6620  -34.3630 C   0  0  0  0  0  0  0  0  0  0  0  0
   -6.4480   18.0670  -34.2000 C   0  0  0  0  0  0  0  0  0  0  0  0
   -5.7430   20.5320  -31.9540 C   0  0  0  0  0  0  0  0  0  0  0  0
   -5.9590   21.8610  -31.5810 C   0  0  0  0  0  0  0  0  0  0  0  0
   -2.3114   20.6639  -29.3698 H   0  0  0  0  0  0  0  0  0  0  0  0
   -1.2273   19.3441  -29.9259 H   0  0  0  0  0  0  0  0  0  0  0  0
   -0.6462   21.0438  -29.9259 H   0  0  0  0  0  0  0  0  0  0  0  0
   -1.9254   19.5508  -34.6222 H   0  0  0  0  0  0  0  0  0  0  0  0
   -3.0240   25.2880  -30.4180 H   0  0  0  0  0  0  0  0  0  0  0  0
   -7.8931   24.4875  -31.1708 H   0  0  0  0  0  0  0  0  0  0  0  0
   -9.3115   22.1813  -32.1092 H   0  0  0  0  0  0  0  0  0  0  0  0
   -8.9999   19.7769  -32.7805 H   0  0  0  0  0  0  0  0  0  0  0  0
   -6.8061   17.7426  -30.7849 H   0  0  0  0  0  0  0  0  0  0  0  0
   -7.5198   16.6303  -32.0151 H   0  0  0  0  0  0  0  0  0  0  0  0
   -4.6337   17.0102  -31.1925 H   0  0  0  0  0  0  0  0  0  0  0  0
   -5.5919   15.4906  -31.4994 H   0  0  0  0  0  0  0  0  0  0  0  0
   -4.0315   17.2131  -33.3328 H   0  0  0  0  0  0  0  0  0  0  0  0
   -4.1570   14.7741  -31.4611 H   0  0  0  0  0  0  0  0  0  0  0  0
   -4.2699   13.3098  -32.5404 H   0  0  0  0  0  0  0  0  0  0  0  0
   -2.0996   13.6467  -31.1381 H   0  0  0  0  0  0  0  0  0  0  0  0
   -1.9520   13.2150  -32.8734 H   0  0  0  0  0  0  0  0  0  0  0  0
   -0.0608   15.0606  -30.8915 H   0  0  0  0  0  0  0  0  0  0  0  0
    0.2768   14.1180  -32.3829 H   0  0  0  0  0  0  0  0  0  0  0  0
    0.4808   15.9027  -32.3829 H   0  0  0  0  0  0  0  0  0  0  0  0
   -1.4894   16.7427  -33.8688 H   0  0  0  0  0  0  0  0  0  0  0  0
   -0.7931   15.1317  -34.3658 H   0  0  0  0  0  0  0  0  0  0  0  0
   -3.1874   16.0286  -35.2403 H   0  0  0  0  0  0  0  0  0  0  0  0
   -2.7903   14.2716  -34.9607 H   0  0  0  0  0  0  0  0  0  0  0  0
   -5.3797   16.5796  -35.3559 H   0  0  0  0  0  0  0  0  0  0  0  0
   -6.6467   15.9147  -34.2605 H   0  0  0  0  0  0  0  0  0  0  0  0
   -5.7554   18.8052  -34.6305 H   0  0  0  0  0  0  0  0  0  0  0  0
   -7.4169   18.0909  -34.7202 H   0  0  0  0  0  0  0  0  0  0  0  0
   -4.7354   20.0924  -31.9157 H   0  0  0  0  0  0  0  0  0  0  0  0
  1  2  1  0
  2  3  1  0
  3  4  2  0
  4  5  1  0
  5  6  1  0
  6  7  1  0
  7  8  2  0
  7  9  1  0
  9 10  1  0
 10 11  1  0
 11 12  1  0
 11 13  2  0
 10 14  2  0
 14 15  1  0
 15 16  2  0
 16 17  1  0
 17 18  2  0
 18 19  1  0
 19 20  1  0
 20 21  1  0
 21 22  1  0
 22 23  1  0
 23 24  1  0
 24 25  1  0
 25 26  1  0
 26 27  1  0
 26 28  1  0
 28 29  1  0
 22 30  1  0
 30 31  1  0
 18 32  1  0
 32 33  2  0
  6  2  2  0
 33  9  1  0
 33 15  1  0
 31 19  1  0
 29 23  1  0
  1 34  1  0
  1 35  1  0
  1 36  1  0
  4 37  1  0
 12 38  1  0
 14 39  1  0
 16 40  1  0
 17 41  1  0
 20 42  1  0
 20 43  1  0
 21 44  1  0
 21 45  1  0
 22 46  1  0
 24 47  1  0
 24 48  1  0
 25 49  1  0
 25 50  1  0
 27 51  1  0
 27 52  1  0
 27 53  1  0
 28 54  1  0
 28 55  1  0
 29 56  1  0
 29 57  1  0
 30 58  1  0
 30 59  1  0
 31 60  1  0
 31 61  1  0
 32 62  1  0
M  CHG  1  12  -1
M  END
>  <UniqueID>  (8) 
8

>  <SMILES>  (8) 
Cc1ncsc1C(=O)n1c(C([NH-])=O)cc2ccc(N3CCC(N4CCN(C)CC4)CC3)cc21

>  <Energy>  (8) 
157.58168464028546

>  <Genealogy>  (8) 
Cc1ncsc1C(=O)n1c(C([NH-])=O)cc2ccc(N3CCC(N4CCN(C)CC4)CC3)cc21 (protonated)
Cc1ncsc1C(=O)n1c(C([NH-])=O)cc2ccc(N3CCC(N4CCN(C)CC4)CC3)cc21 (3D coordinates assigned)
Cc1ncsc1C(=O)n1c(C([NH-])=O)cc2ccc(N3CCC(N4CCN(C)CC4)CC3)cc21 (nonaromatic ring conformer: 157.58168464028546 kcal/mol)

>  <smiles>  (8) 
Cc1ncsc1C(=O)n1c(C(N)=O)cc2ccc(N3CCC(N4CCN(C)CC4)CC3)cc21

>  <score_type>  (8) 
oracle

>  <origin>  (8) 
adg

>  <m_score__min__energy>  (8) 
-12.17

>  <m_primary>  (8) 
energy

$$$$
8:0
     RDKit          3D

 40 41  0  0  0  0  0  0  0  0999 V2000
    1.4410   20.6210  -33.6690 C   0  0  0  0  0  0  0  0  0  0  0  0
    0.5100   20.9670  -34.8420 C   0  0  0  0  0  0  0  0  0  0  0  0
    0.9130   20.1630  -36.0830 C   0  0  0  0  0  0  0  0  0  0  0  0
    0.6070   22.3370  -35.1480 O   0  0  0  0  0  0  0  0  0  0  0  0
   -0.8830   20.6340  -34.4870 C   0  0  0  0  0  0  0  0  0  0  0  0
   -2.0210   20.3600  -34.1940 C   0  0  0  0  0  0  0  0  0  0  0  0
   -3.3780   20.0380  -33.8430 C   0  0  0  0  0  0  0  0  0  0  0  0
   -3.9020   18.7620  -34.1540 C   0  0  0  0  0  0  0  0  0  0  0  0
   -5.2300   18.4400  -33.8280 C   0  0  0  0  0  0  0  0  0  0  0  0
   -5.9970   19.4090  -33.1850 C   0  0  0  0  0  0  0  0  0  0  0  0
   -7.3140   19.3730  -32.7900 C   0  0  0  0  0  0  0  0  0  0  0  0
   -7.5590   20.6180  -32.2160 C   0  0  0  0  0  0  0  0  0  0  0  0
   -8.8480   20.9860  -31.5970 C   0  0  0  0  0  0  0  0  0  0  0  0
   -8.9130   21.9370  -30.5320 N   0  0  0  0  0  0  0  0  0  0  0  0
   -9.9030   20.4120  -31.9760 O   0  0  0  0  0  0  0  0  0  0  0  0
   -6.4440   21.4000  -32.2670 N   0  0  0  0  0  0  0  0  0  0  0  0
   -6.3250   22.7800  -31.8820 C   0  0  0  0  0  0  0  0  0  0  0  0
   -7.3570   23.5000  -31.7910 O   0  0  0  0  0  0  0  0  0  0  0  0
   -5.0640   23.3230  -31.6180 O   0  0  0  0  0  0  0  0  0  0  0  0
   -4.5780   23.5340  -30.2980 C   0  0  0  0  0  0  0  0  0  0  0  0
   -3.8350   24.8260  -30.2500 C   0  0  0  0  0  0  0  0  0  0  0  0
   -4.2920   25.8410  -30.8390 O   0  0  0  0  0  0  0  0  0  0  0  0
   -2.6650   24.9280  -29.5080 O   0  0  0  0  0  0  0  0  0  0  0  0
   -5.4940   20.6440  -32.8610 C   0  0  0  0  0  0  0  0  0  0  0  0
   -4.1800   20.9970  -33.1950 C   0  0  0  0  0  0  0  0  0  0  0  0
    0.9212   20.8142  -32.7190 H   0  0  0  0  0  0  0  0  0  0  0  0
    1.7212   19.5587  -33.7243 H   0  0  0  0  0  0  0  0  0  0  0  0
    2.3469   21.2425  -33.7243 H   0  0  0  0  0  0  0  0  0  0  0  0
    1.3857   19.2199  -35.7713 H   0  0  0  0  0  0  0  0  0  0  0  0
    0.0183   19.9436  -36.6842 H   0  0  0  0  0  0  0  0  0  0  0  0
    1.6242   20.7485  -36.6842 H   0  0  0  0  0  0  0  0  0  0  0  0
   -0.2920   22.6530  -35.4330 H   0  0  0  0  0  0  0  0  0  0  0  0
   -3.2659   18.0169  -34.6543 H   0  0  0  0  0  0  0  0  0  0  0  0
   -5.6510   17.4537  -34.0728 H   0  0  0  0  0  0  0  0  0  0  0  0
   -8.0224   18.5391  -32.9033 H   0  0  0  0  0  0  0  0  0  0  0  0
   -9.8370   22.2130  -30.1320 H   0  0  0  0  0  0  0  0  0  0  0  0
   -8.0450   22.3000  -30.0810 H   0  0  0  0  0  0  0  0  0  0  0  0
   -5.4239   23.5697  -29.5958 H   0  0  0  0  0  0  0  0  0  0  0  0
   -3.9059   22.7103  -30.0155 H   0  0  0  0  0  0  0  0  0  0  0  0
   -3.7856   21.9960  -32.9575 H   0  0  0  0  0  0  0  0  0  0  0  0
  1  2  1  0
  2  3  1  0
  2  4  1  0
  2  5  1  0
  5  6  3  0
  6  7  1  0
  7  8  2  0
  8  9  1  0
  9 10  2  0
 10 11  1  0
 11 12  2  0
 12 13  1  0
 13 14  1  0
 13 15  2  0
 12 16  1  0
 16 17  1  0
 17 18  2  0
 17 19  1  0
 19 20  1  0
 20 21  1  0
 21 22  2  0
 21 23  1  0
 16 24  1  0
 24 25  2  0
 25  7  1  0
 24 10  1  0
  1 26  1  0
  1 27  1  0
  1 28  1  0
  3 29  1  0
  3 30  1  0
  3 31  1  0
  4 32  1  0
  8 33  1  0
  9 34  1  0
 11 35  1  0
 14 36  1  0
 14 37  1  0
 20 38  1  0
 20 39  1  0
 25 40  1  0
M  CHG  1  23  -1
M  END
>  <UniqueID>  (9) 
9

>  <SMILES>  (9) 
CC(C)(O)C#Cc1ccc2cc(C(N)=O)n(C(=O)OCC(=O)[O-])c2c1

>  <Energy>  (9) 
68.71399075036986

>  <Genealogy>  (9) 
CC(C)(O)C#Cc1ccc2cc(C(N)=O)n(C(=O)OCC(=O)[O-])c2c1 (protonated)
CC(C)(O)C#Cc1ccc2cc(C(N)=O)n(C(=O)OCC(=O)[O-])c2c1 (3D coordinates assigned)
CC(C)(O)C#Cc1ccc2cc(C(N)=O)n(C(=O)OCC(=O)[O-])c2c1 (optimized conformer: 68.71399075036986 kcal/mol)

>  <smiles>  (9) 
CC(C)(O)C#Cc1ccc2cc(C(N)=O)n(C(=O)OCC(=O)O)c2c1

>  <score_type>  (9) 
oracle

>  <origin>  (9) 
adg

>  <m_score__min__energy>  (9) 
-10.98

>  <m_primary>  (9) 
energy

$$$$
9:0
     RDKit          3D

 39 40  0  0  0  0  0  0  0  0999 V2000
   -9.0130   20.6990  -31.9830 C   0  0  0  0  0  0  0  0  0  0  0  0
   -8.3150   21.6350  -31.0020 C   0  0  0  0  0  0  0  0  0  0  0  0
   -8.2530   22.9620  -31.5210 O   0  0  0  0  0  0  0  0  0  0  0  0
   -7.1000   23.7540  -31.4760 C   0  0  0  0  0  0  0  0  0  0  0  0
   -6.3450   23.8460  -32.4820 O   0  0  0  0  0  0  0  0  0  0  0  0
   -6.7300   24.4640  -30.2080 C   0  0  0  0  0  0  0  0  0  0  0  0
   -5.4580   23.8930  -29.5620 C   0  0  0  0  0  0  0  0  0  0  0  0
   -4.1890   24.2510  -30.2940 C   0  0  0  0  0  0  0  0  0  0  0  0
   -4.0470   25.3910  -30.8130 O   0  0  0  0  0  0  0  0  0  0  0  0
   -3.1760   23.2550  -30.5010 N   0  0  0  0  0  0  0  0  0  0  0  0
   -1.9040   23.2570  -30.0110 C   0  0  0  0  0  0  0  0  0  0  0  0
   -1.2700   24.3500  -29.2440 C   0  0  0  0  0  0  0  0  0  0  0  0
   -1.9740   25.5590  -28.9680 N   0  0  0  0  0  0  0  0  0  0  0  0
   -0.0810   24.2270  -28.8470 O   0  0  0  0  0  0  0  0  0  0  0  0
   -1.2420   22.0850  -30.3760 C   0  0  0  0  0  0  0  0  0  0  0  0
   -2.1570   21.3620  -31.1070 C   0  0  0  0  0  0  0  0  0  0  0  0
   -2.0330   20.1160  -31.7150 C   0  0  0  0  0  0  0  0  0  0  0  0
   -3.1500   19.6010  -32.3940 C   0  0  0  0  0  0  0  0  0  0  0  0
   -4.3730   20.3200  -32.4320 C   0  0  0  0  0  0  0  0  0  0  0  0
   -5.5500   19.7770  -33.2020 C   0  0  0  0  0  0  0  0  0  0  0  0
   -5.1320   19.1930  -34.3850 F   0  0  0  0  0  0  0  0  0  0  0  0
   -6.4190   20.8100  -33.4910 F   0  0  0  0  0  0  0  0  0  0  0  0
   -6.2190   18.8190  -32.4610 F   0  0  0  0  0  0  0  0  0  0  0  0
   -4.4500   21.5920  -31.8170 C   0  0  0  0  0  0  0  0  0  0  0  0
   -3.3160   22.0880  -31.1650 C   0  0  0  0  0  0  0  0  0  0  0  0
   -9.5796   19.9392  -31.4248 H   0  0  0  0  0  0  0  0  0  0  0  0
   -9.7014   21.2783  -32.6159 H   0  0  0  0  0  0  0  0  0  0  0  0
   -8.2614   20.2044  -32.6159 H   0  0  0  0  0  0  0  0  0  0  0  0
   -8.8732   21.6447  -30.0542 H   0  0  0  0  0  0  0  0  0  0  0  0
   -7.2891   21.2727  -30.8400 H   0  0  0  0  0  0  0  0  0  0  0  0
   -6.5632   25.5273  -30.4351 H   0  0  0  0  0  0  0  0  0  0  0  0
   -7.5566   24.3268  -29.4953 H   0  0  0  0  0  0  0  0  0  0  0  0
   -5.3869   24.2806  -28.5350 H   0  0  0  0  0  0  0  0  0  0  0  0
   -5.5473   22.7971  -29.5938 H   0  0  0  0  0  0  0  0  0  0  0  0
   -2.9580   25.6930  -29.2900 H   0  0  0  0  0  0  0  0  0  0  0  0
   -0.2083   21.7992  -30.1316 H   0  0  0  0  0  0  0  0  0  0  0  0
   -1.0898   19.5521  -31.6654 H   0  0  0  0  0  0  0  0  0  0  0  0
   -3.0757   18.6284  -32.9025 H   0  0  0  0  0  0  0  0  0  0  0  0
   -5.3805   22.1776  -31.8508 H   0  0  0  0  0  0  0  0  0  0  0  0
  1  2  1  0
  2  3  1  0
  3  4  1  0
  4  5  2  0
  4  6  1  0
  6  7  1  0
  7  8  1  0
  8  9  2  0
  8 10  1  0
 10 11  1  0
 11 12  1  0
 12 13  1  0
 12 14  2  0
 11 15  2  0
 15 16  1  0
 16 17  2  0
 17 18  1  0
 18 19  2  0
 19 20  1  0
 20 21  1  0
 20 22  1  0
 20 23  1  0
 19 24  1  0
 24 25  2  0
 25 10  1  0
 25 16  1  0
  1 26  1  0
  1 27  1  0
  1 28  1  0
  2 29  1  0
  2 30  1  0
  6 31  1  0
  6 32  1  0
  7 33  1  0
  7 34  1  0
 13 35  1  0
 15 36  1  0
 17 37  1  0
 18 38  1  0
 24 39  1  0
M  CHG  1  13  -1
M  END
>  <UniqueID>  (10) 
10

>  <SMILES>  (10) 
CCOC(=O)CCC(=O)n1c(C([NH-])=O)cc2ccc(C(F)(F)F)cc21

>  <Energy>  (10) 
72.21048094316622

>  <Genealogy>  (10) 
CCOC(=O)CCC(=O)n1c(C([NH-])=O)cc2ccc(C(F)(F)F)cc21 (protonated)
CCOC(=O)CCC(=O)n1c(C([NH-])=O)cc2ccc(C(F)(F)F)cc21 (3D coordinates assigned)
CCOC(=O)CCC(=O)n1c(C([NH-])=O)cc2ccc(C(F)(F)F)cc21 (optimized conformer: 72.21048094316622 kcal/mol)

>  <smiles>  (10) 
CCOC(=O)CCC(=O)n1c(C(N)=O)cc2ccc(C(F)(F)F)cc21

>  <score_type>  (10) 
oracle

>  <origin>  (10) 
adg

>  <m_score__min__energy>  (10) 
-9.9800000000000004

>  <m_primary>  (10) 
energy

$$$$
10:0
     RDKit          3D

 34 36  0  0  0  0  0  0  0  0999 V2000
   -1.6020   25.7470  -28.9530 N   0  0  0  0  0  0  0  0  0  0  0  0
   -1.0420   24.4460  -29.1140 C   0  0  0  0  0  0  0  0  0  0  0  0
    0.0840   24.1930  -28.6100 O   0  0  0  0  0  0  0  0  0  0  0  0
   -1.7340   23.4140  -29.9140 C   0  0  0  0  0  0  0  0  0  0  0  0
   -1.1320   22.2220  -30.3080 C   0  0  0  0  0  0  0  0  0  0  0  0
   -2.0600   21.5910  -31.1050 C   0  0  0  0  0  0  0  0  0  0  0  0
   -1.9890   20.3660  -31.7630 C   0  0  0  0  0  0  0  0  0  0  0  0
   -3.1090   19.9490  -32.5010 C   0  0  0  0  0  0  0  0  0  0  0  0
   -4.2780   20.7490  -32.5510 C   0  0  0  0  0  0  0  0  0  0  0  0
   -5.4610   20.3060  -33.3670 C   0  0  0  0  0  0  0  0  0  0  0  0
   -6.7370   20.7410  -32.7010 C   0  0  0  0  0  0  0  0  0  0  0  0
   -7.5710   19.7940  -32.0880 C   0  0  0  0  0  0  0  0  0  0  0  0
   -8.7330   20.2180  -31.4410 C   0  0  0  0  0  0  0  0  0  0  0  0
   -9.0490   21.5760  -31.4040 C   0  0  0  0  0  0  0  0  0  0  0  0
   -8.1930   22.4950  -32.0140 C   0  0  0  0  0  0  0  0  0  0  0  0
   -7.0620   22.0660  -32.6400 N   0  0  0  0  0  0  0  0  0  0  0  0
   -4.3090   21.9910  -31.8780 C   0  0  0  0  0  0  0  0  0  0  0  0
   -3.1710   22.3900  -31.1670 C   0  0  0  0  0  0  0  0  0  0  0  0
   -2.9880   23.5150  -30.4390 N   0  0  0  0  0  0  0  0  0  0  0  0
   -3.9620   24.5420  -30.1960 C   0  0  0  0  0  0  0  0  0  0  0  0
   -3.8800   25.6500  -30.7890 O   0  0  0  0  0  0  0  0  0  0  0  0
   -5.0200   24.3150  -29.3240 O   0  0  0  0  0  0  0  0  0  0  0  0
   -2.6350   25.8930  -28.9800 H   0  0  0  0  0  0  0  0  0  0  0  0
   -0.1282   21.8612  -30.0394 H   0  0  0  0  0  0  0  0  0  0  0  0
   -1.0836   19.7439  -31.7066 H   0  0  0  0  0  0  0  0  0  0  0  0
   -3.0786   18.9933  -33.0448 H   0  0  0  0  0  0  0  0  0  0  0  0
   -5.4014   20.7559  -34.3690 H   0  0  0  0  0  0  0  0  0  0  0  0
   -5.4524   19.2091  -33.4494 H   0  0  0  0  0  0  0  0  0  0  0  0
   -7.3113   18.7255  -32.1170 H   0  0  0  0  0  0  0  0  0  0  0  0
   -9.3972   19.4836  -30.9620 H   0  0  0  0  0  0  0  0  0  0  0  0
   -9.9638   21.9197  -30.8991 H   0  0  0  0  0  0  0  0  0  0  0  0
   -8.4327   23.5683  -31.9889 H   0  0  0  0  0  0  0  0  0  0  0  0
   -6.4350   22.7770  -33.0800 H   0  0  0  0  0  0  0  0  0  0  0  0
   -5.2049   22.6284  -31.9119 H   0  0  0  0  0  0  0  0  0  0  0  0
  1  2  1  0
  2  3  2  0
  2  4  1  0
  4  5  2  0
  5  6  1  0
  6  7  2  0
  7  8  1  0
  8  9  2  0
  9 10  1  0
 10 11  1  0
 11 12  2  0
 12 13  1  0
 13 14  2  0
 14 15  1  0
 15 16  2  0
  9 17  1  0
 17 18  2  0
 18 19  1  0
 19 20  1  0
 20 21  2  0
 20 22  1  0
 19  4  1  0
 18  6  1  0
 16 11  1  0
  1 23  1  0
  5 24  1  0
  7 25  1  0
  8 26  1  0
 10 27  1  0
 10 28  1  0
 12 29  1  0
 13 30  1  0
 14 31  1  0
 15 32  1  0
 16 33  1  0
 17 34  1  0
M  CHG  3   1  -1  16   1  22  -1
M  END
>  <UniqueID>  (11) 
11

>  <SMILES>  (11) 
[NH-]C(=O)c1cc2ccc(Cc3cccc[nH+]3)cc2n1C(=O)[O-]

>  <Energy>  (11) 
74.98743100849234

>  <Genealogy>  (11) 
[NH-]C(=O)c1cc2ccc(Cc3cccc[nH+]3)cc2n1C(=O)[O-] (protonated)
[NH-]C(=O)c1cc2ccc(Cc3cccc[nH+]3)cc2n1C(=O)[O-] (3D coordinates assigned)
[NH-]C(=O)c1cc2ccc(Cc3cccc[nH+]3)cc2n1C(=O)[O-] (optimized conformer: 74.98743100849234 kcal/mol)

>  <smiles>  (11) 
NC(=O)c1cc2ccc(Cc3ccccn3)cc2n1C(=O)O

>  <score_type>  (11) 
oracle

>  <origin>  (11) 
adg

>  <m_score__min__energy>  (11) 
-11.710000000000001

>  <m_primary>  (11) 
energy

$$$$
11:0
     RDKit          3D

 34 35  0  0  0  0  0  0  0  0999 V2000
   -6.1210   18.1030  -33.7090 C   0  0  0  0  0  0  0  0  0  0  0  0
   -6.7700   18.2620  -32.3360 C   0  0  0  0  0  0  0  0  0  0  0  0
   -5.9650   17.6590  -31.3820 F   0  0  0  0  0  0  0  0  0  0  0  0
   -7.9930   17.6100  -32.3310 F   0  0  0  0  0  0  0  0  0  0  0  0
   -6.9550   19.7270  -32.0110 C   0  0  0  0  0  0  0  0  0  0  0  0
   -8.2270   20.3410  -32.1620 C   0  0  0  0  0  0  0  0  0  0  0  0
   -8.4040   21.7070  -31.8850 C   0  0  0  0  0  0  0  0  0  0  0  0
   -7.2920   22.4390  -31.4800 C   0  0  0  0  0  0  0  0  0  0  0  0
   -7.1830   23.7650  -31.1250 C   0  0  0  0  0  0  0  0  0  0  0  0
   -5.8390   23.9530  -30.8010 C   0  0  0  0  0  0  0  0  0  0  0  0
   -5.2650   25.2600  -30.4150 C   0  0  0  0  0  0  0  0  0  0  0  0
   -3.9710   25.6570  -30.8590 N   0  0  0  0  0  0  0  0  0  0  0  0
   -5.9380   26.0510  -29.7020 O   0  0  0  0  0  0  0  0  0  0  0  0
   -5.1490   22.7890  -30.9520 N   0  0  0  0  0  0  0  0  0  0  0  0
   -3.7630   22.5440  -30.6760 C   0  0  0  0  0  0  0  0  0  0  0  0
   -3.1770   21.5750  -31.2310 O   0  0  0  0  0  0  0  0  0  0  0  0
   -3.0460   23.4060  -29.7810 N   0  0  0  0  0  0  0  0  0  0  0  0
   -1.6340   23.2100  -29.4670 C   0  0  0  0  0  0  0  0  0  0  0  0
   -1.0250   24.4900  -28.9860 C   0  0  0  0  0  0  0  0  0  0  0  0
    0.1710   24.5120  -28.5900 O   0  0  0  0  0  0  0  0  0  0  0  0
   -1.7800   25.6570  -28.9680 O   0  0  0  0  0  0  0  0  0  0  0  0
   -6.0510   21.8730  -31.3660 C   0  0  0  0  0  0  0  0  0  0  0  0
   -5.8460   20.5130  -31.6200 C   0  0  0  0  0  0  0  0  0  0  0  0
   -5.0594   17.8429  -33.5849 H   0  0  0  0  0  0  0  0  0  0  0  0
   -6.6317   17.3034  -34.2656 H   0  0  0  0  0  0  0  0  0  0  0  0
   -6.2043   19.0481  -34.2656 H   0  0  0  0  0  0  0  0  0  0  0  0
   -9.0839   19.7397  -32.4999 H   0  0  0  0  0  0  0  0  0  0  0  0
   -9.3907   22.1829  -31.9851 H   0  0  0  0  0  0  0  0  0  0  0  0
   -7.9856   24.5168  -31.1018 H   0  0  0  0  0  0  0  0  0  0  0  0
   -3.1090   25.2990  -30.3920 H   0  0  0  0  0  0  0  0  0  0  0  0
   -3.5550   24.1970  -29.3260 H   0  0  0  0  0  0  0  0  0  0  0  0
   -1.5399   22.4459  -28.6813 H   0  0  0  0  0  0  0  0  0  0  0  0
   -1.1078   22.8834  -30.3761 H   0  0  0  0  0  0  0  0  0  0  0  0
   -4.8463   20.0654  -31.5181 H   0  0  0  0  0  0  0  0  0  0  0  0
  1  2  1  0
  2  3  1  0
  2  4  1  0
  2  5  1  0
  5  6  2  0
  6  7  1  0
  7  8  2  0
  8  9  1  0
  9 10  2  0
 10 11  1  0
 11 12  1  0
 11 13  2  0
 10 14  1  0
 14 15  1  0
 15 16  2  0
 15 17  1  0
 17 18  1  0
 18 19  1  0
 19 20  2  0
 19 21  1  0
 14 22  1  0
 22 23  2  0
 23  5  1  0
 22  8  1  0
  1 24  1  0
  1 25  1  0
  1 26  1  0
  6 27  1  0
  7 28  1  0
  9 29  1  0
 12 30  1  0
 17 31  1  0
 18 32  1  0
 18 33  1  0
 23 34  1  0
M  CHG  2  12  -1  21  -1
M  END
>  <UniqueID>  (12) 
12

>  <SMILES>  (12) 
CC(F)(F)c1ccc2cc(C([NH-])=O)n(C(=O)NCC(=O)[O-])c2c1

>  <Energy>  (12) 
68.87114751162473

>  <Genealogy>  (12) 
CC(F)(F)c1ccc2cc(C([NH-])=O)n(C(=O)NCC(=O)[O-])c2c1 (protonated)
CC(F)(F)c1ccc2cc(C([NH-])=O)n(C(=O)NCC(=O)[O-])c2c1 (3D coordinates assigned)
CC(F)(F)c1ccc2cc(C([NH-])=O)n(C(=O)NCC(=O)[O-])c2c1 (optimized conformer: 68.87114751162473 kcal/mol)

>  <smiles>  (12) 
CC(F)(F)c1ccc2cc(C(N)=O)n(C(=O)NCC(=O)O)c2c1

>  <score_type>  (12) 
oracle

>  <origin>  (12) 
adg

>  <m_score__min__energy>  (12) 
-12.26

>  <m_primary>  (12) 
energy

$$$$
12:0
     RDKit          3D

 48 49  0  0  0  0  0  0  0  0999 V2000
   -1.5420   20.4610  -26.4330 C   0  0  0  0  0  0  0  0  0  0  0  0
   -1.2550   19.6590  -27.7000 C   0  0  1  0  0  0  0  0  0  0  0  0
   -2.3720   19.7190  -28.5880 O   0  0  0  0  0  0  0  0  0  0  0  0
   -2.4670   20.6140  -29.6570 C   0  0  0  0  0  0  0  0  0  0  0  0
   -1.7460   20.4740  -30.6850 O   0  0  0  0  0  0  0  0  0  0  0  0
   -3.3780   21.7950  -29.5430 C   0  0  0  0  0  0  0  0  0  0  0  0
   -3.9180   22.2030  -30.8870 C   0  0  0  0  0  0  0  0  0  0  0  0
   -3.1330   22.3570  -31.8620 O   0  0  0  0  0  0  0  0  0  0  0  0
   -5.3000   22.5660  -31.0300 N   0  0  0  0  0  0  0  0  0  0  0  0
   -5.8660   23.7990  -30.8880 C   0  0  0  0  0  0  0  0  0  0  0  0
   -5.1820   25.0070  -30.3840 C   0  0  0  0  0  0  0  0  0  0  0  0
   -3.8740   25.3330  -30.8520 N   0  0  0  0  0  0  0  0  0  0  0  0
   -5.7570   25.7760  -29.5690 O   0  0  0  0  0  0  0  0  0  0  0  0
   -7.2250   23.7500  -31.1970 C   0  0  0  0  0  0  0  0  0  0  0  0
   -7.4760   22.4340  -31.5230 C   0  0  0  0  0  0  0  0  0  0  0  0
   -8.6570   21.8180  -31.9230 C   0  0  0  0  0  0  0  0  0  0  0  0
   -8.6170   20.4440  -32.2170 C   0  0  0  0  0  0  0  0  0  0  0  0
   -7.4090   19.7080  -32.0920 C   0  0  0  0  0  0  0  0  0  0  0  0
   -7.3570   18.2460  -32.4570 C   0  0  0  0  0  0  0  0  0  0  0  0
   -6.9680   18.0910  -33.7760 F   0  0  0  0  0  0  0  0  0  0  0  0
   -8.6130   17.6920  -32.2900 F   0  0  0  0  0  0  0  0  0  0  0  0
   -6.4560   17.5670  -31.6580 F   0  0  0  0  0  0  0  0  0  0  0  0
   -6.2260   20.3770  -31.7040 C   0  0  0  0  0  0  0  0  0  0  0  0
   -6.2990   21.7420  -31.4110 C   0  0  0  0  0  0  0  0  0  0  0  0
   -0.1120   20.2110  -28.3480 O   0  0  0  0  0  0  0  0  0  0  0  0
    0.8420   20.9820  -27.6780 C   0  0  0  0  0  0  0  0  0  0  0  0
    2.0400   20.5920  -27.5970 O   0  0  0  0  0  0  0  0  0  0  0  0
    0.4520   22.2010  -27.1120 O   0  0  0  0  0  0  0  0  0  0  0  0
    0.3190   23.3970  -27.8730 C   0  0  0  0  0  0  0  0  0  0  0  0
   -0.7150   24.1790  -27.3240 O   0  0  0  0  0  0  0  0  0  0  0  0
   -1.7250   24.7040  -28.5950 P   0  0  2  0  0  0  0  0  0  0  0  0
   -1.4520   23.8550  -29.8160 O   0  0  0  0  0  0  0  0  0  0  0  0
   -1.4020   26.3260  -28.9680 O   0  0  0  0  0  0  0  0  0  0  0  0
   -3.3520   24.5280  -28.1550 O   0  0  0  0  0  0  0  0  0  0  0  0
   -1.3209   19.8433  -25.5501 H   0  0  0  0  0  0  0  0  0  0  0  0
   -0.9103   21.3614  -26.4180 H   0  0  0  0  0  0  0  0  0  0  0  0
   -2.6016   20.7562  -26.4180 H   0  0  0  0  0  0  0  0  0  0  0  0
   -1.0702   18.6091  -27.4288 H   0  0  0  0  0  0  0  0  0  0  0  0
   -4.2190   21.5360  -28.8829 H   0  0  0  0  0  0  0  0  0  0  0  0
   -2.8033   22.6373  -29.1304 H   0  0  0  0  0  0  0  0  0  0  0  0
   -3.0420   25.2420  -30.2260 H   0  0  0  0  0  0  0  0  0  0  0  0
   -7.9432   24.5831  -31.1835 H   0  0  0  0  0  0  0  0  0  0  0  0
   -9.5937   22.3885  -32.0067 H   0  0  0  0  0  0  0  0  0  0  0  0
   -9.5329   19.9325  -32.5480 H   0  0  0  0  0  0  0  0  0  0  0  0
   -5.2705   19.8365  -31.6342 H   0  0  0  0  0  0  0  0  0  0  0  0
    1.2633   23.9604  -27.8420 H   0  0  0  0  0  0  0  0  0  0  0  0
    0.0807   23.1474  -28.9175 H   0  0  0  0  0  0  0  0  0  0  0  0
   -3.8400   25.1930  -28.7030 H   0  0  0  0  0  0  0  0  0  0  0  0
  1  2  1  0
  2  3  1  0
  3  4  1  0
  4  5  2  0
  4  6  1  0
  6  7  1  0
  7  8  2  0
  7  9  1  0
  9 10  1  0
 10 11  1  0
 11 12  1  0
 11 13  2  0
 10 14  2  0
 14 15  1  0
 15 16  2  0
 16 17  1  0
 17 18  2  0
 18 19  1  0
 19 20  1  0
 19 21  1  0
 19 22  1  0
 18 23  1  0
 23 24  2  0
  2 25  1  0
 25 26  1  0
 26 27  2  0
 26 28  1  0
 28 29  1  0
 29 30  1  0
 30 31  1  0
 31 32  2  0
 31 33  1  6
 31 34  1  0
 24  9  1  0
 24 15  1  0
  1 35  1  0
  1 36  1  0
  1 37  1  0
  2 38  1  1
  6 39  1  0
  6 40  1  0
 12 41  1  0
 14 42  1  0
 16 43  1  0
 17 44  1  0
 23 45  1  0
 29 46  1  0
 29 47  1  0
 34 48  1  0
M  CHG  2  12  -1  33  -1
M  END
>  <UniqueID>  (13) 
13

>  <SMILES>  (13) 
C[C@@H](OC(=O)CC(=O)n1c(C([NH-])=O)cc2ccc(C(F)(F)F)cc21)OC(=O)OCO[P@](=O)([O-])O

>  <Energy>  (13) 
78.01302602618318

>  <Genealogy>  (13) 
CC(OC(=O)CC(=O)n1c(C([NH-])=O)cc2ccc(C(F)(F)F)cc21)OC(=O)OCOP(=O)([O-])O (protonated)
C[C@@H](OC(=O)CC(=O)n1c(C([NH-])=O)cc2ccc(C(F)(F)F)cc21)OC(=O)OCO[P@](=O)([O-])O (chirality)
C[C@@H](OC(=O)CC(=O)n1c(C([NH-])=O)cc2ccc(C(F)(F)F)cc21)OC(=O)OCO[P@](=O)([O-])O (3D coordinates assigned)
C[C@@H](OC(=O)CC(=O)n1c(C([NH-])=O)cc2ccc(C(F)(F)F)cc21)OC(=O)OCO[P@](=O)([O-])O (optimized conformer: 78.01302602618318 kcal/mol)

>  <smiles>  (13) 
CC(OC(=O)CC(=O)n1c(C(N)=O)cc2ccc(C(F)(F)F)cc21)OC(=O)OCOP(=O)(O)O

>  <score_type>  (13) 
oracle

>  <origin>  (13) 
adg

>  <m_score__min__energy>  (13) 
-12.42

>  <m_primary>  (13) 
energy

$$$$
13:0
     RDKit          3D

 45 46  0  0  0  0  0  0  0  0999 V2000
   -6.4710   17.1300  -31.8380 C   0  0  0  0  0  0  0  0  0  0  0  0
   -6.4400   18.1840  -32.8600 N   0  0  0  0  0  0  0  0  0  0  0  0
   -6.1760   17.8160  -34.2560 C   0  0  0  0  0  0  0  0  0  0  0  0
   -6.6490   19.5700  -32.4940 C   0  0  0  0  0  0  0  0  0  0  0  0
   -7.9430   20.1580  -32.5880 C   0  0  0  0  0  0  0  0  0  0  0  0
   -8.1540   21.5030  -32.2430 C   0  0  0  0  0  0  0  0  0  0  0  0
   -7.0670   22.2400  -31.7940 C   0  0  0  0  0  0  0  0  0  0  0  0
   -6.9900   23.5550  -31.3910 C   0  0  0  0  0  0  0  0  0  0  0  0
   -5.6560   23.7520  -31.0200 C   0  0  0  0  0  0  0  0  0  0  0  0
   -5.1580   24.9820  -30.3750 C   0  0  0  0  0  0  0  0  0  0  0  0
   -3.9600   25.5970  -30.8430 N   0  0  0  0  0  0  0  0  0  0  0  0
   -5.8040   25.5160  -29.4360 O   0  0  0  0  0  0  0  0  0  0  0  0
   -4.9380   22.6110  -31.2080 N   0  0  0  0  0  0  0  0  0  0  0  0
   -3.5350   22.4030  -30.9730 C   0  0  0  0  0  0  0  0  0  0  0  0
   -2.6870   22.9590  -31.7230 O   0  0  0  0  0  0  0  0  0  0  0  0
   -3.0630   21.5800  -29.8010 C   0  0  0  0  0  0  0  0  0  0  0  0
   -2.0030   22.3130  -28.9350 C   0  0  0  0  0  0  0  0  0  0  0  0
   -0.6360   21.5980  -29.0780 C   0  0  0  0  0  0  0  0  0  0  0  0
   -2.4400   22.2370  -27.4600 C   0  0  0  0  0  0  0  0  0  0  0  0
   -1.9670   23.7390  -29.3300 N   0  0  0  0  0  0  0  0  0  0  0  0
   -0.9950   24.7460  -28.9840 C   0  0  0  0  0  0  0  0  0  0  0  0
    0.0750   24.4580  -28.3890 O   0  0  0  0  0  0  0  0  0  0  0  0
   -1.2350   26.0730  -29.3340 O   0  0  0  0  0  0  0  0  0  0  0  0
   -5.8180   21.6900  -31.6710 C   0  0  0  0  0  0  0  0  0  0  0  0
   -5.5670   20.3630  -32.0260 C   0  0  0  0  0  0  0  0  0  0  0  0
   -6.4575   17.5883  -30.8381 H   0  0  0  0  0  0  0  0  0  0  0  0
   -7.3871   16.5325  -31.9552 H   0  0  0  0  0  0  0  0  0  0  0  0
   -5.5916   16.4797  -31.9552 H   0  0  0  0  0  0  0  0  0  0  0  0
   -5.5350   16.9225  -34.2847 H   0  0  0  0  0  0  0  0  0  0  0  0
   -7.1273   17.6013  -34.7648 H   0  0  0  0  0  0  0  0  0  0  0  0
   -5.6678   18.6484  -34.7648 H   0  0  0  0  0  0  0  0  0  0  0  0
   -8.7903   19.5491  -32.9363 H   0  0  0  0  0  0  0  0  0  0  0  0
   -9.1516   21.9590  -32.3262 H   0  0  0  0  0  0  0  0  0  0  0  0
   -7.8049   24.2935  -31.3662 H   0  0  0  0  0  0  0  0  0  0  0  0
   -3.0240   25.2790  -30.5040 H   0  0  0  0  0  0  0  0  0  0  0  0
   -3.9301   21.3422  -29.1674 H   0  0  0  0  0  0  0  0  0  0  0  0
   -2.5893   20.6729  -30.2044 H   0  0  0  0  0  0  0  0  0  0  0  0
   -0.2277   21.3844  -28.0792 H   0  0  0  0  0  0  0  0  0  0  0  0
   -0.7712   20.6551  -29.6282 H   0  0  0  0  0  0  0  0  0  0  0  0
    0.0614   22.2468  -29.6282 H   0  0  0  0  0  0  0  0  0  0  0  0
   -1.5656   22.3891  -26.8102 H   0  0  0  0  0  0  0  0  0  0  0  0
   -3.1872   23.0187  -27.2582 H   0  0  0  0  0  0  0  0  0  0  0  0
   -2.8794   21.2490  -27.2582 H   0  0  0  0  0  0  0  0  0  0  0  0
   -2.8030   24.0920  -29.8480 H   0  0  0  0  0  0  0  0  0  0  0  0
   -4.5543   19.9411  -31.9451 H   0  0  0  0  0  0  0  0  0  0  0  0
  1  2  1  0
  2  3  1  0
  2  4  1  0
  4  5  2  0
  5  6  1  0
  6  7  2  0
  7  8  1  0
  8  9  2  0
  9 10  1  0
 10 11  1  0
 10 12  2  0
  9 13  1  0
 13 14  1  0
 14 15  2  0
 14 16  1  0
 16 17  1  0
 17 18  1  0
 17 19  1  0
 17 20  1  0
 20 21  1  0
 21 22  2  0
 21 23  1  0
 13 24  1  0
 24 25  2  0
 25  4  1  0
 24  7  1  0
  1 26  1  0
  1 27  1  0
  1 28  1  0
  3 29  1  0
  3 30  1  0
  3 31  1  0
  5 32  1  0
  6 33  1  0
  8 34  1  0
 11 35  1  0
 16 36  1  0
 16 37  1  0
 18 38  1  0
 18 39  1  0
 18 40  1  0
 19 41  1  0
 19 42  1  0
 19 43  1  0
 20 44  1  0
 25 45  1  0
M  CHG  2  11  -1  23  -1
M  END
>  <UniqueID>  (14) 
14

>  <SMILES>  (14) 
CN(C)c1ccc2cc(C([NH-])=O)n(C(=O)CC(C)(C)NC(=O)[O-])c2c1

>  <Energy>  (14) 
84.6849607884093

>  <Genealogy>  (14) 
CN(C)c1ccc2cc(C([NH-])=O)n(C(=O)CC(C)(C)NC(=O)[O-])c2c1 (protonated)
CN(C)c1ccc2cc(C([NH-])=O)n(C(=O)CC(C)(C)NC(=O)[O-])c2c1 (3D coordinates assigned)
CN(C)c1ccc2cc(C([NH-])=O)n(C(=O)CC(C)(C)NC(=O)[O-])c2c1 (optimized conformer: 84.6849607884093 kcal/mol)

>  <smiles>  (14) 
CN(C)c1ccc2cc(C(N)=O)n(C(=O)CC(C)(C)NC(=O)O)c2c1

>  <score_type>  (14) 
oracle

>  <origin>  (14) 
adg

>  <m_score__min__energy>  (14) 
-13.039999999999999

>  <m_primary>  (14) 
energy

$$$$
14:0
     RDKit          3D

 34 36  0  0  0  0  0  0  0  0999 V2000
   -4.9180   16.1490  -34.2600 N   0  0  0  0  0  0  0  0  0  0  0  0
   -6.1730   16.7400  -33.9150 C   0  0  0  0  0  0  0  0  0  0  0  0
   -7.2330   16.1040  -34.1540 O   0  0  0  0  0  0  0  0  0  0  0  0
   -6.2370   18.0880  -33.3020 C   0  0  0  0  0  0  0  0  0  0  0  0
   -7.3790   18.6340  -32.7150 C   0  0  0  0  0  0  0  0  0  0  0  0
   -6.9880   19.8630  -32.2320 C   0  0  0  0  0  0  0  0  0  0  0  0
   -7.7230   20.8420  -31.5730 C   0  0  0  0  0  0  0  0  0  0  0  0
   -7.0670   22.0330  -31.2170 C   0  0  0  0  0  0  0  0  0  0  0  0
   -5.6950   22.2310  -31.5280 C   0  0  0  0  0  0  0  0  0  0  0  0
   -5.0140   23.4970  -31.1560 C   0  0  0  0  0  0  0  0  0  0  0  0
   -5.5250   24.7810  -31.1990 C   0  0  0  0  0  0  0  0  0  0  0  0
   -4.5850   25.6470  -30.7790 N   0  0  0  0  0  0  0  0  0  0  0  0
   -3.4920   24.9660  -30.4680 N   0  0  0  0  0  0  0  0  0  0  0  0
   -3.7230   23.6590  -30.6880 C   0  0  0  0  0  0  0  0  0  0  0  0
   -4.9860   21.2080  -32.2020 C   0  0  0  0  0  0  0  0  0  0  0  0
   -5.6610   20.0260  -32.5240 C   0  0  0  0  0  0  0  0  0  0  0  0
   -5.1850   18.9420  -33.1730 N   0  0  0  0  0  0  0  0  0  0  0  0
   -3.8570   18.7730  -33.6950 C   0  0  0  0  0  0  0  0  0  0  0  0
   -3.6990   18.5480  -34.9250 O   0  0  0  0  0  0  0  0  0  0  0  0
   -2.6830   18.8410  -32.8030 C   0  0  0  0  0  0  0  0  0  0  0  0
   -2.6690   19.6700  -31.8540 O   0  0  0  0  0  0  0  0  0  0  0  0
   -1.5300   17.8950  -32.9630 C   0  0  0  0  0  0  0  0  0  0  0  0
   -1.9150   16.7940  -33.7410 O   0  0  0  0  0  0  0  0  0  0  0  0
   -4.0130   16.6080  -34.0200 H   0  0  0  0  0  0  0  0  0  0  0  0
   -4.8920   15.2140  -34.7240 H   0  0  0  0  0  0  0  0  0  0  0  0
   -8.3787   18.1796  -32.6515 H   0  0  0  0  0  0  0  0  0  0  0  0
   -8.7865   20.6890  -31.3372 H   0  0  0  0  0  0  0  0  0  0  0  0
   -7.6234   22.8224  -30.6905 H   0  0  0  0  0  0  0  0  0  0  0  0
   -6.5400   25.0518  -31.5252 H   0  0  0  0  0  0  0  0  0  0  0  0
   -2.9992   22.8475  -30.5218 H   0  0  0  0  0  0  0  0  0  0  0  0
   -3.9266   21.3398  -32.4670 H   0  0  0  0  0  0  0  0  0  0  0  0
   -0.6973   18.4166  -33.4575 H   0  0  0  0  0  0  0  0  0  0  0  0
   -1.2135   17.5417  -31.9705 H   0  0  0  0  0  0  0  0  0  0  0  0
   -2.0870   17.1390  -34.6560 H   0  0  0  0  0  0  0  0  0  0  0  0
  1  2  1  0
  2  3  2  0
  2  4  1  0
  4  5  2  0
  5  6  1  0
  6  7  2  0
  7  8  1  0
  8  9  2  0
  9 10  1  0
 10 11  1  0
 11 12  2  0
 12 13  1  0
 13 14  1  0
  9 15  1  0
 15 16  2  0
 16 17  1  0
 17 18  1  0
 18 19  2  0
 18 20  1  0
 20 21  2  0
 20 22  1  0
 22 23  1  0
 17  4  1  0
 16  6  1  0
 14 10  2  0
  1 24  1  0
  1 25  1  0
  5 26  1  0
  7 27  1  0
  8 28  1  0
 11 29  1  0
 14 30  1  0
 15 31  1  0
 22 32  1  0
 22 33  1  0
 23 34  1  0
M  CHG  1  13  -1
M  END
>  <UniqueID>  (15) 
15

>  <SMILES>  (15) 
NC(=O)c1cc2ccc(-c3cn[n-]c3)cc2n1C(=O)C(=O)CO

>  <Energy>  (15) 
106.1941354497912

>  <Genealogy>  (15) 
NC(=O)c1cc2ccc(-c3cn[n-]c3)cc2n1C(=O)C(=O)CO (protonated)
NC(=O)c1cc2ccc(-c3cn[n-]c3)cc2n1C(=O)C(=O)CO (3D coordinates assigned)
NC(=O)c1cc2ccc(-c3cn[n-]c3)cc2n1C(=O)C(=O)CO (optimized conformer: 106.1941354497912 kcal/mol)

>  <smiles>  (15) 
NC(=O)c1cc2ccc(-c3cn[nH]c3)cc2n1C(=O)C(=O)CO

>  <score_type>  (15) 
oracle

>  <origin>  (15) 
adg

>  <m_score__min__energy>  (15) 
-9.0700000000000003

>  <m_primary>  (15) 
energy

$$$$
15:0
     RDKit          3D

 40 41  0  0  0  0  0  0  0  0999 V2000
   -1.8200   20.3850  -27.0970 C   0  0  0  0  0  0  0  0  0  0  0  0
   -1.3190   21.7910  -26.7800 C   0  0  0  0  0  0  0  0  0  0  0  0
   -1.0680   22.5910  -28.0600 C   0  0  0  0  0  0  0  0  0  0  0  0
   -2.5920   23.2470  -28.7250 S   0  0  0  0  0  0  0  0  0  0  0  0
   -2.2870   24.4400  -29.5890 O   0  0  0  0  0  0  0  0  0  0  0  0
   -3.4710   23.6780  -27.5840 O   0  0  0  0  0  0  0  0  0  0  0  0
   -3.4420   22.0060  -29.6880 C   0  0  0  0  0  0  0  0  0  0  0  0
   -3.9690   22.6070  -30.9540 C   0  0  0  0  0  0  0  0  0  0  0  0
   -3.1760   22.8970  -31.8900 O   0  0  0  0  0  0  0  0  0  0  0  0
   -5.3790   22.7770  -31.1400 N   0  0  0  0  0  0  0  0  0  0  0  0
   -6.1340   23.8730  -30.8550 C   0  0  0  0  0  0  0  0  0  0  0  0
   -5.5980   25.1890  -30.4380 C   0  0  0  0  0  0  0  0  0  0  0  0
   -4.2360   25.5430  -30.6810 N   0  0  0  0  0  0  0  0  0  0  0  0
   -6.3410   26.0050  -29.8310 O   0  0  0  0  0  0  0  0  0  0  0  0
   -7.4830   23.6080  -31.1090 C   0  0  0  0  0  0  0  0  0  0  0  0
   -7.5210   22.3050  -31.5530 C   0  0  0  0  0  0  0  0  0  0  0  0
   -8.6000   21.5200  -31.9480 C   0  0  0  0  0  0  0  0  0  0  0  0
   -8.3410   20.2010  -32.3600 C   0  0  0  0  0  0  0  0  0  0  0  0
   -7.0190   19.6830  -32.3480 C   0  0  0  0  0  0  0  0  0  0  0  0
   -6.7480   18.2790  -32.8260 C   0  0  0  0  0  0  0  0  0  0  0  0
   -7.8570   17.4920  -32.5820 F   0  0  0  0  0  0  0  0  0  0  0  0
   -6.4770   18.2700  -34.1840 F   0  0  0  0  0  0  0  0  0  0  0  0
   -5.6580   17.7410  -32.1650 F   0  0  0  0  0  0  0  0  0  0  0  0
   -5.9480   20.5210  -31.9640 C   0  0  0  0  0  0  0  0  0  0  0  0
   -6.2370   21.8290  -31.5660 C   0  0  0  0  0  0  0  0  0  0  0  0
   -2.0127   19.8442  -26.1587 H   0  0  0  0  0  0  0  0  0  0  0  0
   -2.7503   20.4501  -27.6804 H   0  0  0  0  0  0  0  0  0  0  0  0
   -1.0582   19.8471  -27.6804 H   0  0  0  0  0  0  0  0  0  0  0  0
   -2.0739   22.3125  -26.1732 H   0  0  0  0  0  0  0  0  0  0  0  0
   -0.3699   21.7068  -26.2303 H   0  0  0  0  0  0  0  0  0  0  0  0
   -0.3874   23.4250  -27.8337 H   0  0  0  0  0  0  0  0  0  0  0  0
   -0.6237   21.9184  -28.8084 H   0  0  0  0  0  0  0  0  0  0  0  0
   -2.7416   21.1945  -29.9348 H   0  0  0  0  0  0  0  0  0  0  0  0
   -4.2834   21.6094  -29.1009 H   0  0  0  0  0  0  0  0  0  0  0  0
   -3.8640   26.4560  -30.3360 H   0  0  0  0  0  0  0  0  0  0  0  0
   -3.6040   24.9340  -31.2440 H   0  0  0  0  0  0  0  0  0  0  0  0
   -8.3331   24.2943  -30.9814 H   0  0  0  0  0  0  0  0  0  0  0  0
   -9.6248   21.9195  -31.9382 H   0  0  0  0  0  0  0  0  0  0  0  0
   -9.1719   19.5630  -32.6955 H   0  0  0  0  0  0  0  0  0  0  0  0
   -4.9116   20.1526  -31.9780 H   0  0  0  0  0  0  0  0  0  0  0  0
  1  2  1  0
  2  3  1  0
  3  4  1  0
  4  5  2  0
  4  6  2  0
  4  7  1  0
  7  8  1  0
  8  9  2  0
  8 10  1  0
 10 11  1  0
 11 12  1  0
 12 13  1  0
 12 14  2  0
 11 15  2  0
 15 16  1  0
 16 17  2  0
 17 18  1  0
 18 19  2  0
 19 20  1  0
 20 21  1  0
 20 22  1  0
 20 23  1  0
 19 24  1  0
 24 25  2  0
 25 10  1  0
 25 16  1  0
  1 26  1  0
  1 27  1  0
  1 28  1  0
  2 29  1  0
  2 30  1  0
  3 31  1  0
  3 32  1  0
  7 33  1  0
  7 34  1  0
 13 35  1  0
 13 36  1  0
 15 37  1  0
 17 38  1  0
 18 39  1  0
 24 40  1  0
M  END
>  <UniqueID>  (16) 
16

>  <SMILES>  (16) 
CCCS(=O)(=O)CC(=O)n1c(C(N)=O)cc2ccc(C(F)(F)F)cc21

>  <Energy>  (16) 
66.39656846357482

>  <Genealogy>  (16) 
CCCS(=O)(=O)CC(=O)n1c(C(N)=O)cc2ccc(C(F)(F)F)cc21 (3D coordinates assigned)
CCCS(=O)(=O)CC(=O)n1c(C(N)=O)cc2ccc(C(F)(F)F)cc21 (optimized conformer: 66.39656846357482 kcal/mol)

>  <smiles>  (16) 
CCCS(=O)(=O)CC(=O)n1c(C(N)=O)cc2ccc(C(F)(F)F)cc21

>  <score_type>  (16) 
oracle

>  <origin>  (16) 
adg

>  <m_score__min__energy>  (16) 
-8.8000000000000007

>  <m_primary>  (16) 
energy

$$$$
16:0
     RDKit          3D

 35 37  0  0  0  0  0  0  0  0999 V2000
   -1.8020   25.6280  -28.0510 N   0  0  0  0  0  0  0  0  0  0  0  0
   -0.9260   24.6370  -28.5890 C   0  0  0  0  0  0  0  0  0  0  0  0
    0.2840   24.6310  -28.2360 O   0  0  0  0  0  0  0  0  0  0  0  0
   -1.4150   23.6510  -29.5770 C   0  0  0  0  0  0  0  0  0  0  0  0
   -0.6660   22.5650  -30.0270 C   0  0  0  0  0  0  0  0  0  0  0  0
   -1.5080   21.8560  -30.8520 C   0  0  0  0  0  0  0  0  0  0  0  0
   -1.2750   20.6930  -31.5810 C   0  0  0  0  0  0  0  0  0  0  0  0
   -2.3180   20.1960  -32.3780 C   0  0  0  0  0  0  0  0  0  0  0  0
   -3.5670   20.8630  -32.4310 C   0  0  0  0  0  0  0  0  0  0  0  0
   -4.6590   20.3480  -33.3290 C   0  0  0  0  0  0  0  0  0  0  0  0
   -5.9620   21.1140  -33.0850 C   0  0  0  0  0  0  0  0  0  0  0  0
   -7.0440   20.1810  -32.6290 C   0  0  0  0  0  0  0  0  0  0  0  0
   -8.2790   20.6250  -32.1280 C   0  0  0  0  0  0  0  0  0  0  0  0
   -9.1120   19.5950  -31.7190 C   0  0  0  0  0  0  0  0  0  0  0  0
   -8.3050   18.1410  -31.9660 S   0  0  0  0  0  0  0  0  0  0  0  0
   -6.8940   18.8000  -32.5970 C   0  0  0  0  0  0  0  0  0  0  0  0
   -3.7640   22.0470  -31.6860 C   0  0  0  0  0  0  0  0  0  0  0  0
   -2.7130   22.5100  -30.8840 C   0  0  0  0  0  0  0  0  0  0  0  0
   -2.6720   23.6150  -30.1070 N   0  0  0  0  0  0  0  0  0  0  0  0
   -3.7230   24.5820  -29.9400 C   0  0  0  0  0  0  0  0  0  0  0  0
   -4.5190   24.4960  -28.9690 O   0  0  0  0  0  0  0  0  0  0  0  0
   -3.8630   25.6310  -30.8400 O   0  0  0  0  0  0  0  0  0  0  0  0
   -2.8210   25.6320  -28.2760 H   0  0  0  0  0  0  0  0  0  0  0  0
   -1.4370   26.3440  -27.3840 H   0  0  0  0  0  0  0  0  0  0  0  0
    0.3778   22.3255  -29.7756 H   0  0  0  0  0  0  0  0  0  0  0  0
   -0.3034   20.1794  -31.5338 H   0  0  0  0  0  0  0  0  0  0  0  0
   -2.1643   19.2799  -32.9671 H   0  0  0  0  0  0  0  0  0  0  0  0
   -4.3550   20.4764  -34.3783 H   0  0  0  0  0  0  0  0  0  0  0  0
   -4.8266   19.2832  -33.1095 H   0  0  0  0  0  0  0  0  0  0  0  0
   -5.7932   21.8777  -32.3115 H   0  0  0  0  0  0  0  0  0  0  0  0
   -6.2761   21.5892  -34.0260 H   0  0  0  0  0  0  0  0  0  0  0  0
   -8.5581   21.6872  -32.0662 H   0  0  0  0  0  0  0  0  0  0  0  0
  -10.1247   19.7092  -31.3049 H   0  0  0  0  0  0  0  0  0  0  0  0
   -6.0080   18.2375  -32.9265 H   0  0  0  0  0  0  0  0  0  0  0  0
   -4.7185   22.5915  -31.7345 H   0  0  0  0  0  0  0  0  0  0  0  0
  1  2  1  0
  2  3  2  0
  2  4  1  0
  4  5  2  0
  5  6  1  0
  6  7  2  0
  7  8  1  0
  8  9  2  0
  9 10  1  0
 10 11  1  0
 11 12  1  0
 12 13  1  0
 13 14  2  0
 14 15  1  0
 15 16  1  0
  9 17  1  0
 17 18  2  0
 18 19  1  0
 19 20  1  0
 20 21  2  0
 20 22  1  0
 19  4  1  0
 18  6  1  0
 16 12  2  0
  1 23  1  0
  1 24  1  0
  5 25  1  0
  7 26  1  0
  8 27  1  0
 10 28  1  0
 10 29  1  0
 11 30  1  0
 11 31  1  0
 13 32  1  0
 14 33  1  0
 16 34  1  0
 17 35  1  0
M  CHG  1  22  -1
M  END
>  <UniqueID>  (17) 
17

>  <SMILES>  (17) 
NC(=O)c1cc2ccc(CCc3ccsc3)cc2n1C(=O)[O-]

>  <Energy>  (17) 
98.24100270063592

>  <Genealogy>  (17) 
NC(=O)c1cc2ccc(CCc3ccsc3)cc2n1C(=O)[O-] (protonated)
NC(=O)c1cc2ccc(CCc3ccsc3)cc2n1C(=O)[O-] (3D coordinates assigned)
NC(=O)c1cc2ccc(CCc3ccsc3)cc2n1C(=O)[O-] (optimized conformer: 98.24100270063592 kcal/mol)

>  <smiles>  (17) 
NC(=O)c1cc2ccc(CCc3ccsc3)cc2n1C(=O)O

>  <score_type>  (17) 
oracle

>  <origin>  (17) 
adg

>  <m_score__min__energy>  (17) 
-9.5299999999999994

>  <m_primary>  (17) 
energy

$$$$
17:0
     RDKit          3D

 35 37  0  0  0  0  0  0  0  0999 V2000
   -2.2630   25.2610  -28.5340 N   0  0  0  0  0  0  0  0  0  0  0  0
   -1.4390   24.2640  -29.1420 C   0  0  0  0  0  0  0  0  0  0  0  0
   -0.2010   24.2690  -28.9120 O   0  0  0  0  0  0  0  0  0  0  0  0
   -2.0310   23.2150  -30.0000 C   0  0  0  0  0  0  0  0  0  0  0  0
   -1.3860   22.0230  -30.3260 C   0  0  0  0  0  0  0  0  0  0  0  0
   -2.2230   21.3850  -31.2110 C   0  0  0  0  0  0  0  0  0  0  0  0
   -2.0770   20.1590  -31.8530 C   0  0  0  0  0  0  0  0  0  0  0  0
   -3.1120   19.7340  -32.7030 C   0  0  0  0  0  0  0  0  0  0  0  0
   -4.2720   20.5280  -32.8820 C   0  0  0  0  0  0  0  0  0  0  0  0
   -5.3600   20.0720  -33.8170 C   0  0  0  0  0  0  0  0  0  0  0  0
   -6.6230   19.7900  -33.0470 C   0  0  0  0  0  0  0  0  0  0  0  0
   -7.4410   20.8550  -32.6290 C   0  0  0  0  0  0  0  0  0  0  0  0
   -8.5980   20.6070  -31.8840 C   0  0  0  0  0  0  0  0  0  0  0  0
   -8.9430   19.2970  -31.5410 C   0  0  0  0  0  0  0  0  0  0  0  0
   -8.1300   18.2320  -31.9420 C   0  0  0  0  0  0  0  0  0  0  0  0
   -6.9720   18.4740  -32.6880 C   0  0  0  0  0  0  0  0  0  0  0  0
   -6.1940   17.4260  -33.0600 F   0  0  0  0  0  0  0  0  0  0  0  0
   -4.3810   21.7710  -32.2190 C   0  0  0  0  0  0  0  0  0  0  0  0
   -3.3260   22.1790  -31.3930 C   0  0  0  0  0  0  0  0  0  0  0  0
   -3.2240   23.3080  -30.6560 N   0  0  0  0  0  0  0  0  0  0  0  0
   -4.2080   24.3490  -30.5370 C   0  0  0  0  0  0  0  0  0  0  0  0
   -5.3840   24.0770  -30.1800 O   0  0  0  0  0  0  0  0  0  0  0  0
   -3.8670   25.6700  -30.7980 O   0  0  0  0  0  0  0  0  0  0  0  0
   -1.8400   25.9730  -27.8980 H   0  0  0  0  0  0  0  0  0  0  0  0
   -3.2840   25.3210  -28.7420 H   0  0  0  0  0  0  0  0  0  0  0  0
   -0.4135   21.6680  -29.9541 H   0  0  0  0  0  0  0  0  0  0  0  0
   -1.1794   19.5419  -31.6998 H   0  0  0  0  0  0  0  0  0  0  0  0
   -3.0209   18.7754  -33.2348 H   0  0  0  0  0  0  0  0  0  0  0  0
   -5.5552   20.8601  -34.5592 H   0  0  0  0  0  0  0  0  0  0  0  0
   -5.0353   19.1512  -34.3236 H   0  0  0  0  0  0  0  0  0  0  0  0
   -7.1691   21.8885  -32.8895 H   0  0  0  0  0  0  0  0  0  0  0  0
   -9.2375   21.4442  -31.5675 H   0  0  0  0  0  0  0  0  0  0  0  0
   -9.8540   19.1035  -30.9556 H   0  0  0  0  0  0  0  0  0  0  0  0
   -8.4020   17.2015  -31.6700 H   0  0  0  0  0  0  0  0  0  0  0  0
   -5.2723   22.4026  -32.3484 H   0  0  0  0  0  0  0  0  0  0  0  0
  1  2  1  0
  2  3  2  0
  2  4  1  0
  4  5  2  0
  5  6  1  0
  6  7  2  0
  7  8  1  0
  8  9  2  0
  9 10  1  0
 10 11  1  0
 11 12  2  0
 12 13  1  0
 13 14  2  0
 14 15  1  0
 15 16  2  0
 16 17  1  0
  9 18  1  0
 18 19  2  0
 19 20  1  0
 20 21  1  0
 21 22  2  0
 21 23  1  0
 20  4  1  0
 19  6  1  0
 16 11  1  0
  1 24  1  0
  1 25  1  0
  5 26  1  0
  7 27  1  0
  8 28  1  0
 10 29  1  0
 10 30  1  0
 12 31  1  0
 13 32  1  0
 14 33  1  0
 15 34  1  0
 18 35  1  0
M  CHG  1  23  -1
M  END
>  <UniqueID>  (18) 
18

>  <SMILES>  (18) 
NC(=O)c1cc2ccc(Cc3ccccc3F)cc2n1C(=O)[O-]

>  <Energy>  (18) 
75.85986483501087

>  <Genealogy>  (18) 
NC(=O)c1cc2ccc(Cc3ccccc3F)cc2n1C(=O)[O-] (protonated)
NC(=O)c1cc2ccc(Cc3ccccc3F)cc2n1C(=O)[O-] (3D coordinates assigned)
NC(=O)c1cc2ccc(Cc3ccccc3F)cc2n1C(=O)[O-] (optimized conformer: 75.85986483501087 kcal/mol)

>  <smiles>  (18) 
NC(=O)c1cc2ccc(Cc3ccccc3F)cc2n1C(=O)O

>  <score_type>  (18) 
oracle

>  <origin>  (18) 
adg

>  <m_score__min__energy>  (18) 
-9.9000000000000004

>  <m_primary>  (18) 
energy

$$$$
18:0
     RDKit          3D

 40 41  0  0  0  0  0  0  0  0999 V2000
   -3.6930   23.4660  -27.5710 C   0  0  0  0  0  0  0  0  0  0  0  0
   -2.5770   23.4150  -28.5320 N   0  0  0  0  0  0  0  0  0  0  0  0
   -1.6260   24.5050  -28.2430 C   0  0  0  0  0  0  0  0  0  0  0  0
   -1.9270   22.0820  -28.4710 C   0  0  0  0  0  0  0  0  0  0  0  0
   -2.4140   21.1240  -29.5690 C   0  0  0  0  0  0  0  0  0  0  0  0
   -3.7450   21.4500  -29.9510 O   0  0  0  0  0  0  0  0  0  0  0  0
   -4.0470   22.4490  -30.8790 C   0  0  0  0  0  0  0  0  0  0  0  0
   -3.1330   22.9620  -31.5810 O   0  0  0  0  0  0  0  0  0  0  0  0
   -5.4090   22.8750  -31.0480 N   0  0  0  0  0  0  0  0  0  0  0  0
   -5.9240   24.1170  -30.8170 C   0  0  0  0  0  0  0  0  0  0  0  0
   -5.1470   25.3370  -30.5190 C   0  0  0  0  0  0  0  0  0  0  0  0
   -3.7290   25.2890  -30.3820 N   0  0  0  0  0  0  0  0  0  0  0  0
   -5.7370   26.4470  -30.4340 O   0  0  0  0  0  0  0  0  0  0  0  0
   -7.3060   24.1110  -30.9800 C   0  0  0  0  0  0  0  0  0  0  0  0
   -7.6280   22.8180  -31.3250 C   0  0  0  0  0  0  0  0  0  0  0  0
   -8.8670   22.2480  -31.6020 C   0  0  0  0  0  0  0  0  0  0  0  0
   -8.9080   20.8780  -31.9050 C   0  0  0  0  0  0  0  0  0  0  0  0
   -7.7230   20.0970  -31.9020 C   0  0  0  0  0  0  0  0  0  0  0  0
   -7.7770   18.6350  -32.2650 C   0  0  0  0  0  0  0  0  0  0  0  0
   -7.1860   18.4160  -33.4980 F   0  0  0  0  0  0  0  0  0  0  0  0
   -7.1080   17.8720  -31.3240 F   0  0  0  0  0  0  0  0  0  0  0  0
   -9.0960   18.2280  -32.3190 F   0  0  0  0  0  0  0  0  0  0  0  0
   -6.4800   20.7200  -31.6380 C   0  0  0  0  0  0  0  0  0  0  0  0
   -6.4660   22.0920  -31.3580 C   0  0  0  0  0  0  0  0  0  0  0  0
   -3.2951   23.4478  -26.5457 H   0  0  0  0  0  0  0  0  0  0  0  0
   -4.2675   24.3913  -27.7250 H   0  0  0  0  0  0  0  0  0  0  0  0
   -4.3495   22.5969  -27.7250 H   0  0  0  0  0  0  0  0  0  0  0  0
   -2.9750   23.5620  -29.4900 H   0  0  0  0  0  0  0  0  0  0  0  0
   -1.5232   24.6228  -27.1542 H   0  0  0  0  0  0  0  0  0  0  0  0
   -0.6461   24.2620  -28.6797 H   0  0  0  0  0  0  0  0  0  0  0  0
   -1.9996   25.4430  -28.6797 H   0  0  0  0  0  0  0  0  0  0  0  0
   -0.8408   22.2167  -28.5803 H   0  0  0  0  0  0  0  0  0  0  0  0
   -2.1905   21.6323  -27.5023 H   0  0  0  0  0  0  0  0  0  0  0  0
   -1.7536   21.2092  -30.4446 H   0  0  0  0  0  0  0  0  0  0  0  0
   -2.3938   20.0946  -29.1818 H   0  0  0  0  0  0  0  0  0  0  0  0
   -3.1160   25.0950  -31.2040 H   0  0  0  0  0  0  0  0  0  0  0  0
   -7.9951   24.9598  -30.8588 H   0  0  0  0  0  0  0  0  0  0  0  0
   -9.7859   22.8524  -31.5841 H   0  0  0  0  0  0  0  0  0  0  0  0
   -9.8704   20.4039  -32.1478 H   0  0  0  0  0  0  0  0  0  0  0  0
   -5.5458   20.1395  -31.6524 H   0  0  0  0  0  0  0  0  0  0  0  0
  1  2  1  0
  2  3  1  0
  2  4  1  0
  4  5  1  0
  5  6  1  0
  6  7  1  0
  7  8  2  0
  7  9  1  0
  9 10  1  0
 10 11  1  0
 11 12  1  0
 11 13  2  0
 10 14  2  0
 14 15  1  0
 15 16  2  0
 16 17  1  0
 17 18  2  0
 18 19  1  0
 19 20  1  0
 19 21  1  0
 19 22  1  0
 18 23  1  0
 23 24  2  0
 24  9  1  0
 24 15  1  0
  1 25  1  0
  1 26  1  0
  1 27  1  0
  2 28  1  0
  3 29  1  0
  3 30  1  0
  3 31  1  0
  4 32  1  0
  4 33  1  0
  5 34  1  0
  5 35  1  0
 12 36  1  0
 14 37  1  0
 16 38  1  0
 17 39  1  0
 23 40  1  0
M  CHG  2   2   1  12  -1
M  END
>  <UniqueID>  (19) 
19

>  <SMILES>  (19) 
C[NH+](C)CCOC(=O)n1c(C([NH-])=O)cc2ccc(C(F)(F)F)cc21

>  <Energy>  (19) 
77.4091306293395

>  <Genealogy>  (19) 
C[NH+](C)CCOC(=O)n1c(C([NH-])=O)cc2ccc(C(F)(F)F)cc21 (protonated)
C[NH+](C)CCOC(=O)n1c(C([NH-])=O)cc2ccc(C(F)(F)F)cc21 (3D coordinates assigned)
C[NH+](C)CCOC(=O)n1c(C([NH-])=O)cc2ccc(C(F)(F)F)cc21 (optimized conformer: 77.4091306293395 kcal/mol)

>  <smiles>  (19) 
CN(C)CCOC(=O)n1c(C(N)=O)cc2ccc(C(F)(F)F)cc21

>  <score_type>  (19) 
oracle

>  <origin>  (19) 
adg

>  <m_score__min__energy>  (19) 
-8.4600000000000009

>  <m_primary>  (19) 
energy

$$$$
19:0
     RDKit          3D

 36 37  0  0  0  0  0  0  0  0999 V2000
   -1.7860   22.2310  -30.3980 C   0  0  0  0  0  0  0  0  0  0  0  0
   -3.2300   22.4250  -30.2470 N   0  0  0  0  0  0  0  0  0  0  0  0
   -3.8510   22.4000  -28.9200 C   0  0  0  0  0  0  0  0  0  0  0  0
   -4.0500   22.5760  -31.4230 C   0  0  0  0  0  0  0  0  0  0  0  0
   -3.5650   22.3580  -32.5660 O   0  0  0  0  0  0  0  0  0  0  0  0
   -5.4240   22.9740  -31.3120 N   0  0  0  0  0  0  0  0  0  0  0  0
   -5.9130   24.1600  -30.8610 C   0  0  0  0  0  0  0  0  0  0  0  0
   -5.0990   25.3250  -30.4550 C   0  0  0  0  0  0  0  0  0  0  0  0
   -3.6770   25.2320  -30.4540 N   0  0  0  0  0  0  0  0  0  0  0  0
   -5.6490   26.4010  -30.1000 O   0  0  0  0  0  0  0  0  0  0  0  0
   -7.3070   24.1440  -30.8650 C   0  0  0  0  0  0  0  0  0  0  0  0
   -7.6560   22.8950  -31.3310 C   0  0  0  0  0  0  0  0  0  0  0  0
   -8.9100   22.3290  -31.5360 C   0  0  0  0  0  0  0  0  0  0  0  0
   -8.9670   21.0100  -32.0170 C   0  0  0  0  0  0  0  0  0  0  0  0
   -7.7760   20.2760  -32.2680 C   0  0  0  0  0  0  0  0  0  0  0  0
   -7.8470   18.9350  -32.7910 N   0  0  0  0  0  0  0  0  0  0  0  0
   -6.5060   18.3380  -32.8190 C   0  0  0  0  0  0  0  0  0  0  0  0
   -6.0050   18.2610  -34.1980 C   0  0  0  0  0  0  0  0  0  0  0  0
   -5.6120   18.2020  -35.2850 N   0  0  0  0  0  0  0  0  0  0  0  0
   -6.5210   20.8910  -32.0520 C   0  0  0  0  0  0  0  0  0  0  0  0
   -6.4990   22.2080  -31.5870 C   0  0  0  0  0  0  0  0  0  0  0  0
   -1.3186   22.1682  -29.4042 H   0  0  0  0  0  0  0  0  0  0  0  0
   -1.5971   21.2994  -30.9516 H   0  0  0  0  0  0  0  0  0  0  0  0
   -1.3579   23.0797  -30.9516 H   0  0  0  0  0  0  0  0  0  0  0  0
   -3.0680   22.4315  -28.1481 H   0  0  0  0  0  0  0  0  0  0  0  0
   -4.5117   23.2723  -28.8079 H   0  0  0  0  0  0  0  0  0  0  0  0
   -4.4395   21.4774  -28.8079 H   0  0  0  0  0  0  0  0  0  0  0  0
   -3.1100   25.6700  -31.2140 H   0  0  0  0  0  0  0  0  0  0  0  0
   -7.9842   24.9557  -30.5609 H   0  0  0  0  0  0  0  0  0  0  0  0
   -9.8290   22.8966  -31.3279 H   0  0  0  0  0  0  0  0  0  0  0  0
   -9.9444   20.5402  -32.2014 H   0  0  0  0  0  0  0  0  0  0  0  0
   -8.4800   18.3560  -32.1870 H   0  0  0  0  0  0  0  0  0  0  0  0
   -8.2480   18.9540  -33.7580 H   0  0  0  0  0  0  0  0  0  0  0  0
   -5.8219   18.9566  -32.2195 H   0  0  0  0  0  0  0  0  0  0  0  0
   -6.5609   17.3210  -32.4034 H   0  0  0  0  0  0  0  0  0  0  0  0
   -5.5854   20.3458  -32.2454 H   0  0  0  0  0  0  0  0  0  0  0  0
  1  2  1  0
  2  3  1  0
  2  4  1  0
  4  5  2  0
  4  6  1  0
  6  7  1  0
  7  8  1  0
  8  9  1  0
  8 10  2  0
  7 11  2  0
 11 12  1  0
 12 13  2  0
 13 14  1  0
 14 15  2  0
 15 16  1  0
 16 17  1  0
 17 18  1  0
 18 19  3  0
 15 20  1  0
 20 21  2  0
 21  6  1  0
 21 12  1  0
  1 22  1  0
  1 23  1  0
  1 24  1  0
  3 25  1  0
  3 26  1  0
  3 27  1  0
  9 28  1  0
 11 29  1  0
 13 30  1  0
 14 31  1  0
 16 32  1  0
 16 33  1  0
 17 34  1  0
 17 35  1  0
 20 36  1  0
M  CHG  2   9  -1  16   1
M  END
>  <UniqueID>  (20) 
20

>  <SMILES>  (20) 
CN(C)C(=O)n1c(C([NH-])=O)cc2ccc([NH2+]CC#N)cc21

>  <Energy>  (20) 
71.78563495706267

>  <Genealogy>  (20) 
CN(C)C(=O)n1c(C([NH-])=O)cc2ccc([NH2+]CC#N)cc21 (protonated)
CN(C)C(=O)n1c(C([NH-])=O)cc2ccc([NH2+]CC#N)cc21 (3D coordinates assigned)
CN(C)C(=O)n1c(C([NH-])=O)cc2ccc([NH2+]CC#N)cc21 (optimized conformer: 71.78563495706267 kcal/mol)

>  <smiles>  (20) 
CN(C)C(=O)n1c(C(N)=O)cc2ccc(NCC#N)cc21

>  <score_type>  (20) 
oracle

>  <origin>  (20) 
adg

>  <m_score__min__energy>  (20) 
-10.02

>  <m_primary>  (20) 
energy

$$$$
20:0
     RDKit          3D

 35 36  0  0  0  0  0  0  0  0999 V2000
   -3.8920   25.5750  -30.8440 N   0  0  0  0  0  0  0  0  0  0  0  0
   -4.9050   24.8030  -30.2040 C   0  0  0  0  0  0  0  0  0  0  0  0
   -5.3520   25.1770  -29.0880 O   0  0  0  0  0  0  0  0  0  0  0  0
   -5.4770   23.6070  -30.8580 C   0  0  0  0  0  0  0  0  0  0  0  0
   -6.8410   23.3260  -30.8860 C   0  0  0  0  0  0  0  0  0  0  0  0
   -6.9660   22.1970  -31.6640 C   0  0  0  0  0  0  0  0  0  0  0  0
   -8.1020   21.4760  -32.0220 C   0  0  0  0  0  0  0  0  0  0  0  0
   -7.9300   20.3310  -32.8180 C   0  0  0  0  0  0  0  0  0  0  0  0
   -6.6380   19.9280  -33.2320 C   0  0  0  0  0  0  0  0  0  0  0  0
   -6.4760   18.7540  -34.0320 N   0  0  0  0  0  0  0  0  0  0  0  0
   -5.5090   20.6830  -32.8500 C   0  0  0  0  0  0  0  0  0  0  0  0
   -5.7090   21.8280  -32.0710 C   0  0  0  0  0  0  0  0  0  0  0  0
   -4.7840   22.6810  -31.5800 N   0  0  0  0  0  0  0  0  0  0  0  0
   -3.3610   22.5710  -31.7370 C   0  0  0  0  0  0  0  0  0  0  0  0
   -2.8830   21.9420  -32.7200 O   0  0  0  0  0  0  0  0  0  0  0  0
   -2.5140   23.1840  -30.8070 O   0  0  0  0  0  0  0  0  0  0  0  0
   -1.8190   22.4690  -29.7860 C   0  0  0  0  0  0  0  0  0  0  0  0
   -2.2940   22.8860  -28.3870 C   0  0  0  0  0  0  0  0  0  0  0  0
   -1.7630   24.2570  -27.9500 C   0  0  0  0  0  0  0  0  0  0  0  0
   -2.1580   25.2980  -28.8960 N   0  0  0  0  0  0  0  0  0  0  0  0
   -2.8840   25.3140  -30.7590 H   0  0  0  0  0  0  0  0  0  0  0  0
   -7.6474   23.8872  -30.3913 H   0  0  0  0  0  0  0  0  0  0  0  0
   -9.1024   21.7927  -31.6921 H   0  0  0  0  0  0  0  0  0  0  0  0
   -8.8079   19.7422  -33.1223 H   0  0  0  0  0  0  0  0  0  0  0  0
   -5.9940   17.9100  -33.6500 H   0  0  0  0  0  0  0  0  0  0  0  0
   -6.8390   18.7200  -35.0090 H   0  0  0  0  0  0  0  0  0  0  0  0
   -4.4973   20.3792  -33.1568 H   0  0  0  0  0  0  0  0  0  0  0  0
   -1.9981   21.3918  -29.9183 H   0  0  0  0  0  0  0  0  0  0  0  0
   -0.7468   22.7000  -29.8705 H   0  0  0  0  0  0  0  0  0  0  0  0
   -3.3934   22.9213  -28.3876 H   0  0  0  0  0  0  0  0  0  0  0  0
   -1.9038   22.1434  -27.6755 H   0  0  0  0  0  0  0  0  0  0  0  0
   -2.1694   24.5003  -26.9572 H   0  0  0  0  0  0  0  0  0  0  0  0
   -0.6644   24.2126  -27.9167 H   0  0  0  0  0  0  0  0  0  0  0  0
   -2.0040   24.9360  -29.8660 H   0  0  0  0  0  0  0  0  0  0  0  0
   -3.1900   25.4380  -28.8020 H   0  0  0  0  0  0  0  0  0  0  0  0
  1  2  1  0
  2  3  2  0
  2  4  1  0
  4  5  2  0
  5  6  1  0
  6  7  2  0
  7  8  1  0
  8  9  2  0
  9 10  1  0
  9 11  1  0
 11 12  2  0
 12 13  1  0
 13 14  1  0
 14 15  2  0
 14 16  1  0
 16 17  1  0
 17 18  1  0
 18 19  1  0
 19 20  1  0
 13  4  1  0
 12  6  1  0
  1 21  1  0
  5 22  1  0
  7 23  1  0
  8 24  1  0
 10 25  1  0
 10 26  1  0
 11 27  1  0
 17 28  1  0
 17 29  1  0
 18 30  1  0
 18 31  1  0
 19 32  1  0
 19 33  1  0
 20 34  1  0
 20 35  1  0
M  CHG  1   1  -1
M  END
>  <UniqueID>  (21) 
21

>  <SMILES>  (21) 
[NH-]C(=O)c1cc2ccc(N)cc2n1C(=O)OCCCN

>  <Energy>  (21) 
67.34434138026663

>  <Genealogy>  (21) 
[NH-]C(=O)c1cc2ccc(N)cc2n1C(=O)OCCCN (protonated)
[NH-]C(=O)c1cc2ccc(N)cc2n1C(=O)OCCCN (3D coordinates assigned)
[NH-]C(=O)c1cc2ccc(N)cc2n1C(=O)OCCCN (optimized conformer: 67.34434138026663 kcal/mol)

>  <smiles>  (21) 
NCCCOC(=O)n1c(C(N)=O)cc2ccc(N)cc21

>  <score_type>  (21) 
oracle

>  <origin>  (21) 
adg

>  <m_score__min__energy>  (21) 
-8.9700000000000006

>  <m_primary>  (21) 
energy

$$$$
21:0
     RDKit          3D

 46 48  0  0  0  0  0  0  0  0999 V2000
   -3.0350   25.2990  -30.3550 H   0  0  0  0  0  0  0  0  0  0  0  0
   -3.8840   25.6540  -30.8480 N   0  0  0  0  0  0  0  0  0  0  0  0
   -5.1860   25.1990  -30.4880 C   0  0  0  0  0  0  0  0  0  0  0  0
   -5.8990   25.9110  -29.7310 O   0  0  0  0  0  0  0  0  0  0  0  0
   -5.6900   23.8910  -30.9530 C   0  0  0  0  0  0  0  0  0  0  0  0
   -7.0250   23.6500  -31.2720 C   0  0  0  0  0  0  0  0  0  0  0  0
   -7.8494   24.3782  -31.2854 H   0  0  0  0  0  0  0  0  0  0  0  0
   -7.0930   22.3060  -31.5670 C   0  0  0  0  0  0  0  0  0  0  0  0
   -8.1770   21.5270  -31.9540 C   0  0  0  0  0  0  0  0  0  0  0  0
   -9.1817   21.9637  -32.0536 H   0  0  0  0  0  0  0  0  0  0  0  0
   -7.9510   20.1660  -32.2140 C   0  0  0  0  0  0  0  0  0  0  0  0
   -8.7920   19.5252  -32.5173 H   0  0  0  0  0  0  0  0  0  0  0  0
   -6.6510   19.6040  -32.0910 C   0  0  0  0  0  0  0  0  0  0  0  0
   -6.4210   18.1640  -32.3780 C   0  0  0  0  0  0  0  0  0  0  0  0
   -5.7070   17.2490  -31.6170 C   0  0  0  0  0  0  0  0  0  0  0  0
   -5.1906   17.4746  -30.6723 H   0  0  0  0  0  0  0  0  0  0  0  0
   -5.7440   16.0420  -32.2140 N   0  0  0  0  0  0  0  0  0  0  0  0
   -6.4440   16.1690  -33.3290 N   0  0  0  0  0  0  0  0  0  0  0  0
   -6.7660   15.0610  -34.2160 C   0  0  0  0  0  0  0  0  0  0  0  0
   -7.0235   14.1749  -33.6172 H   0  0  0  0  0  0  0  0  0  0  0  0
   -7.6214   15.3360  -34.8506 H   0  0  0  0  0  0  0  0  0  0  0  0
   -5.8965   14.8347  -34.8506 H   0  0  0  0  0  0  0  0  0  0  0  0
   -6.8840   17.4340  -33.4590 C   0  0  0  0  0  0  0  0  0  0  0  0
   -7.5038   17.8207  -34.2814 H   0  0  0  0  0  0  0  0  0  0  0  0
   -5.5750   20.4350  -31.6940 C   0  0  0  0  0  0  0  0  0  0  0  0
   -4.5573   20.0289  -31.5969 H   0  0  0  0  0  0  0  0  0  0  0  0
   -5.8350   21.7840  -31.4280 C   0  0  0  0  0  0  0  0  0  0  0  0
   -4.9620   22.7440  -31.0560 N   0  0  0  0  0  0  0  0  0  0  0  0
   -3.5450   22.5760  -30.8940 C   0  0  0  0  0  0  0  0  0  0  0  0
   -2.9380   23.2410  -30.0120 O   0  0  0  0  0  0  0  0  0  0  0  0
   -2.8190   21.5930  -31.7220 C   0  0  0  0  0  0  0  0  0  0  0  0
   -2.1508   20.8737  -31.2258 H   0  0  0  0  0  0  0  0  0  0  0  0
   -2.9430   21.5440  -33.0520 C   0  0  0  0  0  0  0  0  0  0  0  0
   -3.6024   22.2580  -33.5672 H   0  0  0  0  0  0  0  0  0  0  0  0
   -2.1820   20.5130  -33.8500 C   0  0  0  0  0  0  0  0  0  0  0  0
   -1.1061   20.6790  -33.6919 H   0  0  0  0  0  0  0  0  0  0  0  0
   -2.4817   20.6406  -34.9007 H   0  0  0  0  0  0  0  0  0  0  0  0
   -2.4950   19.1140  -33.4840 N   0  0  0  0  0  0  0  0  0  0  0  0
   -1.3550   18.2040  -33.6880 C   0  0  0  0  0  0  0  0  0  0  0  0
   -0.9589   17.8878  -32.7117 H   0  0  0  0  0  0  0  0  0  0  0  0
   -1.6876   17.3203  -34.2523 H   0  0  0  0  0  0  0  0  0  0  0  0
   -0.5670   18.7242  -34.2523 H   0  0  0  0  0  0  0  0  0  0  0  0
   -3.7090   18.6110  -34.1470 C   0  0  0  0  0  0  0  0  0  0  0  0
   -4.4430   18.3069  -33.3862 H   0  0  0  0  0  0  0  0  0  0  0  0
   -4.1394   19.4048  -34.7751 H   0  0  0  0  0  0  0  0  0  0  0  0
   -3.4519   17.7454  -34.7751 H   0  0  0  0  0  0  0  0  0  0  0  0
  1  2  1  0
  2  3  1  0
  3  4  2  0
  3  5  1  0
  5  6  2  0
  6  7  1  0
  6  8  1  0
  8  9  2  0
  9 10  1  0
  9 11  1  0
 11 12  1  0
 11 13  2  0
 13 14  1  0
 14 15  1  0
 15 16  1  0
 15 17  2  0
 17 18  1  0
 18 19  1  0
 19 20  1  0
 19 21  1  0
 19 22  1  0
 18 23  1  0
 23 24  1  0
 13 25  1  0
 25 26  1  0
 25 27  2  0
 27 28  1  0
 28 29  1  0
 29 30  2  0
 29 31  1  0
 31 32  1  0
 31 33  2  0
 33 34  1  0
 33 35  1  0
 35 36  1  0
 35 37  1  0
 35 38  1  0
 38 39  1  0
 39 40  1  0
 39 41  1  0
 39 42  1  0
 38 43  1  0
 43 44  1  0
 43 45  1  0
 43 46  1  0
 28  5  1  0
 27  8  1  0
 23 14  2  0
M  CHG  1   2  -1
M  END
>  <UniqueID>  (22) 
22

>  <SMILES>  (22) 
CN(C)C/C=C/C(=O)n1c(C([NH-])=O)cc2ccc(-c3cnn(C)c3)cc21

>  <Energy>  (22) 
118.78955347013242

>  <Genealogy>  (22) 
CN(C)C/C=C/C(=O)n1c(C([NH-])=O)cc2ccc(-c3cnn(C)c3)cc21 (protonated)
CN(C)C/C=C/C(=O)n1c(C([NH-])=O)cc2ccc(-c3cnn(C)c3)cc21 (cis-trans isomerization)
CN(C)C/C=C/C(=O)n1c(C([NH-])=O)cc2ccc(-c3cnn(C)c3)cc21 (3D coordinates assigned)
CN(C)C/C=C/C(=O)n1c(C([NH-])=O)cc2ccc(-c3cnn(C)c3)cc21 (optimized conformer: 118.78955347013242 kcal/mol)

>  <smiles>  (22) 
CN(C)C/C=C/C(=O)n1c(C(N)=O)cc2ccc(-c3cnn(C)c3)cc21

>  <score_type>  (22) 
oracle

>  <origin>  (22) 
adg

>  <m_score__min__energy>  (22) 
-11.24

>  <m_primary>  (22) 
energy

$$$$
22:0
     RDKit          3D

 41 42  0  0  0  0  0  0  0  0999 V2000
   -5.5610   15.9280  -33.5270 C   0  0  0  0  0  0  0  0  0  0  0  0
   -5.8120   17.3570  -33.3200 N   0  0  0  0  0  0  0  0  0  0  0  0
   -6.6440   17.8050  -32.1970 C   0  0  0  0  0  0  0  0  0  0  0  0
   -7.8690   18.5630  -32.7140 C   0  0  0  0  0  0  0  0  0  0  0  0
   -7.8170   20.0060  -32.2880 C   0  0  0  0  0  0  0  0  0  0  0  0
   -9.0160   20.7420  -32.1150 C   0  0  0  0  0  0  0  0  0  0  0  0
   -8.9780   22.0810  -31.6960 C   0  0  0  0  0  0  0  0  0  0  0  0
   -7.7340   22.6500  -31.4400 C   0  0  0  0  0  0  0  0  0  0  0  0
   -7.4090   23.9270  -31.0410 C   0  0  0  0  0  0  0  0  0  0  0  0
   -6.0200   23.9400  -30.9390 C   0  0  0  0  0  0  0  0  0  0  0  0
   -5.2520   25.1040  -30.4480 C   0  0  0  0  0  0  0  0  0  0  0  0
   -3.8570   25.2280  -30.7120 N   0  0  0  0  0  0  0  0  0  0  0  0
   -5.8260   25.9770  -29.7440 O   0  0  0  0  0  0  0  0  0  0  0  0
   -5.5040   22.7220  -31.2720 N   0  0  0  0  0  0  0  0  0  0  0  0
   -4.1220   22.3450  -31.3670 C   0  0  0  0  0  0  0  0  0  0  0  0
   -3.4630   22.1030  -30.3180 O   0  0  0  0  0  0  0  0  0  0  0  0
   -3.5050   22.2830  -32.6210 O   0  0  0  0  0  0  0  0  0  0  0  0
   -2.8710   21.1130  -33.1350 C   0  0  0  0  0  0  0  0  0  0  0  0
   -1.4150   21.0370  -32.6780 C   0  0  0  0  0  0  0  0  0  0  0  0
   -1.1740   21.9590  -31.6760 F   0  0  0  0  0  0  0  0  0  0  0  0
   -1.1380   19.7670  -32.2050 F   0  0  0  0  0  0  0  0  0  0  0  0
   -0.5820   21.3090  -33.7480 F   0  0  0  0  0  0  0  0  0  0  0  0
   -6.5660   21.9430  -31.5730 C   0  0  0  0  0  0  0  0  0  0  0  0
   -6.5730   20.6130  -32.0080 C   0  0  0  0  0  0  0  0  0  0  0  0
   -5.2450   18.3170  -34.2290 C   0  0  0  0  0  0  0  0  0  0  0  0
   -5.9760   18.9180  -35.0610 O   0  0  0  0  0  0  0  0  0  0  0  0
   -3.8820   18.5940  -34.2030 O   0  0  0  0  0  0  0  0  0  0  0  0
   -5.4729   15.4262  -32.5521 H   0  0  0  0  0  0  0  0  0  0  0  0
   -6.3955   15.4872  -34.0921 H   0  0  0  0  0  0  0  0  0  0  0  0
   -4.6263   15.7980  -34.0921 H   0  0  0  0  0  0  0  0  0  0  0  0
   -6.9758   16.9298  -31.6192 H   0  0  0  0  0  0  0  0  0  0  0  0
   -6.0514   18.4756  -31.5574 H   0  0  0  0  0  0  0  0  0  0  0  0
   -7.8895   18.5108  -33.8126 H   0  0  0  0  0  0  0  0  0  0  0  0
   -8.7751   18.1015  -32.2945 H   0  0  0  0  0  0  0  0  0  0  0  0
   -9.9849   20.2594  -32.3109 H   0  0  0  0  0  0  0  0  0  0  0  0
   -9.9034   22.6630  -31.5737 H   0  0  0  0  0  0  0  0  0  0  0  0
   -8.0998   24.7602  -30.8445 H   0  0  0  0  0  0  0  0  0  0  0  0
   -3.4820   26.0450  -31.2430 H   0  0  0  0  0  0  0  0  0  0  0  0
   -3.4087   20.2238  -32.7741 H   0  0  0  0  0  0  0  0  0  0  0  0
   -2.8929   21.1552  -34.2340 H   0  0  0  0  0  0  0  0  0  0  0  0
   -5.6332   20.0544  -32.1288 H   0  0  0  0  0  0  0  0  0  0  0  0
  1  2  1  0
  2  3  1  0
  3  4  1  0
  4  5  1  0
  5  6  2  0
  6  7  1  0
  7  8  2  0
  8  9  1  0
  9 10  2  0
 10 11  1  0
 11 12  1  0
 11 13  2  0
 10 14  1  0
 14 15  1  0
 15 16  2  0
 15 17  1  0
 17 18  1  0
 18 19  1  0
 19 20  1  0
 19 21  1  0
 19 22  1  0
 14 23  1  0
 23 24  2  0
  2 25  1  0
 25 26  2  0
 25 27  1  0
 24  5  1  0
 23  8  1  0
  1 28  1  0
  1 29  1  0
  1 30  1  0
  3 31  1  0
  3 32  1  0
  4 33  1  0
  4 34  1  0
  6 35  1  0
  7 36  1  0
  9 37  1  0
 12 38  1  0
 18 39  1  0
 18 40  1  0
 24 41  1  0
M  CHG  2  12  -1  27  -1
M  END
>  <UniqueID>  (23) 
23

>  <SMILES>  (23) 
CN(CCc1ccc2cc(C([NH-])=O)n(C(=O)OCC(F)(F)F)c2c1)C(=O)[O-]

>  <Energy>  (23) 
71.34828062730017

>  <Genealogy>  (23) 
CN(CCc1ccc2cc(C([NH-])=O)n(C(=O)OCC(F)(F)F)c2c1)C(=O)[O-] (protonated)
CN(CCc1ccc2cc(C([NH-])=O)n(C(=O)OCC(F)(F)F)c2c1)C(=O)[O-] (3D coordinates assigned)
CN(CCc1ccc2cc(C([NH-])=O)n(C(=O)OCC(F)(F)F)c2c1)C(=O)[O-] (optimized conformer: 71.34828062730017 kcal/mol)

>  <smiles>  (23) 
CN(CCc1ccc2cc(C(N)=O)n(C(=O)OCC(F)(F)F)c2c1)C(=O)O

>  <score_type>  (23) 
oracle

>  <origin>  (23) 
adg

>  <m_score__min__energy>  (23) 
-9.8100000000000005

>  <m_primary>  (23) 
energy

$$$$
23:0
     RDKit          3D

 39 42  0  0  0  0  0  0  0  0999 V2000
   -3.8630   25.3800  -30.4920 N   0  0  0  0  0  0  0  0  0  0  0  0
   -5.2370   25.0050  -30.4390 C   0  0  0  0  0  0  0  0  0  0  0  0
   -6.0740   25.8080  -29.9430 O   0  0  0  0  0  0  0  0  0  0  0  0
   -5.6970   23.7130  -30.9890 C   0  0  0  0  0  0  0  0  0  0  0  0
   -7.0350   23.4180  -31.2520 C   0  0  0  0  0  0  0  0  0  0  0  0
   -7.0270   22.1600  -31.8110 C   0  0  0  0  0  0  0  0  0  0  0  0
   -8.0810   21.3720  -32.2620 C   0  0  0  0  0  0  0  0  0  0  0  0
   -7.7830   20.0960  -32.7710 C   0  0  0  0  0  0  0  0  0  0  0  0
   -6.4410   19.6250  -32.8130 C   0  0  0  0  0  0  0  0  0  0  0  0
   -6.1140   18.2690  -33.3180 C   0  0  0  0  0  0  0  0  0  0  0  0
   -4.8140   17.9260  -33.7340 C   0  0  0  0  0  0  0  0  0  0  0  0
   -4.5560   16.6260  -34.1750 C   0  0  0  0  0  0  0  0  0  0  0  0
   -5.5830   15.6810  -34.2040 C   0  0  0  0  0  0  0  0  0  0  0  0
   -6.8590   16.0520  -33.7820 C   0  0  0  0  0  0  0  0  0  0  0  0
   -7.0910   17.3200  -33.3530 N   0  0  0  0  0  0  0  0  0  0  0  0
   -5.4000   20.4580  -32.3410 C   0  0  0  0  0  0  0  0  0  0  0  0
   -5.7280   21.7310  -31.8610 C   0  0  0  0  0  0  0  0  0  0  0  0
   -4.9010   22.6730  -31.3630 N   0  0  0  0  0  0  0  0  0  0  0  0
   -3.4750   22.5620  -31.2420 C   0  0  0  0  0  0  0  0  0  0  0  0
   -2.8130   21.9750  -32.1400 O   0  0  0  0  0  0  0  0  0  0  0  0
   -2.8100   23.1150  -30.1010 N   0  0  0  0  0  0  0  0  0  0  0  0
   -1.3580   23.0240  -29.9300 C   0  0  0  0  0  0  0  0  0  0  0  0
   -0.7980   24.0340  -28.9440 C   0  0  0  0  0  0  0  0  0  0  0  0
   -0.9300   22.5720  -28.5440 C   0  0  0  0  0  0  0  0  0  0  0  0
   -3.5180   26.0430  -31.2220 H   0  0  0  0  0  0  0  0  0  0  0  0
   -7.9099   24.0549  -31.0547 H   0  0  0  0  0  0  0  0  0  0  0  0
   -9.1179   21.7369  -32.2215 H   0  0  0  0  0  0  0  0  0  0  0  0
   -8.5964   19.4545  -33.1410 H   0  0  0  0  0  0  0  0  0  0  0  0
   -4.0085   18.6748  -33.7121 H   0  0  0  0  0  0  0  0  0  0  0  0
   -3.5428   16.3467  -34.4997 H   0  0  0  0  0  0  0  0  0  0  0  0
   -5.3881   14.6570  -34.5552 H   0  0  0  0  0  0  0  0  0  0  0  0
   -7.6781   15.3179  -33.7964 H   0  0  0  0  0  0  0  0  0  0  0  0
   -4.3556   20.1129  -32.3510 H   0  0  0  0  0  0  0  0  0  0  0  0
   -3.4000   23.5420  -29.3500 H   0  0  0  0  0  0  0  0  0  0  0  0
   -1.1155   22.7181  -30.9584 H   0  0  0  0  0  0  0  0  0  0  0  0
    0.1977   24.4711  -29.1101 H   0  0  0  0  0  0  0  0  0  0  0  0
   -1.1477   24.9895  -28.5261 H   0  0  0  0  0  0  0  0  0  0  0  0
   -0.0299   21.9518  -28.4210 H   0  0  0  0  0  0  0  0  0  0  0  0
   -1.4146   22.0320  -27.7173 H   0  0  0  0  0  0  0  0  0  0  0  0
  1  2  1  0
  2  3  2  0
  2  4  1  0
  4  5  2  0
  5  6  1  0
  6  7  2  0
  7  8  1  0
  8  9  2  0
  9 10  1  0
 10 11  2  0
 11 12  1  0
 12 13  2  0
 13 14  1  0
 14 15  2  0
  9 16  1  0
 16 17  2  0
 17 18  1  0
 18 19  1  0
 19 20  2  0
 19 21  1  0
 21 22  1  0
 22 23  1  0
 23 24  1  0
 18  4  1  0
 24 22  1  0
 17  6  1  0
 15 10  1  0
  1 25  1  0
  5 26  1  0
  7 27  1  0
  8 28  1  0
 11 29  1  0
 12 30  1  0
 13 31  1  0
 14 32  1  0
 16 33  1  0
 21 34  1  0
 22 35  1  0
 23 36  1  0
 23 37  1  0
 24 38  1  0
 24 39  1  0
M  CHG  1   1  -1
M  END
>  <UniqueID>  (24) 
24

>  <SMILES>  (24) 
[NH-]C(=O)c1cc2ccc(-c3ccccn3)cc2n1C(=O)NC1CC1

>  <Energy>  (24) 
350.784325552023

>  <Genealogy>  (24) 
[NH-]C(=O)c1cc2ccc(-c3ccccn3)cc2n1C(=O)NC1CC1 (protonated)
[NH-]C(=O)c1cc2ccc(-c3ccccn3)cc2n1C(=O)NC1CC1 (3D coordinates assigned)
[NH-]C(=O)c1cc2ccc(-c3ccccn3)cc2n1C(=O)NC1CC1 (nonaromatic ring conformer: 350.784325552023 kcal/mol)

>  <smiles>  (24) 
NC(=O)c1cc2ccc(-c3ccccn3)cc2n1C(=O)NC1CC1

>  <score_type>  (24) 
oracle

>  <origin>  (24) 
adg

>  <m_score__min__energy>  (24) 
-11.01

>  <m_primary>  (24) 
energy

$$$$
24:0
     RDKit          3D

 31 32  0  0  0  0  0  0  0  0999 V2000
   -4.2130   25.5360  -30.6130 N   0  0  0  0  0  0  0  0  0  0  0  0
   -5.5720   25.1480  -30.4020 C   0  0  0  0  0  0  0  0  0  0  0  0
   -6.3230   25.8870  -29.7130 O   0  0  0  0  0  0  0  0  0  0  0  0
   -6.0910   23.8660  -30.9200 C   0  0  0  0  0  0  0  0  0  0  0  0
   -7.4340   23.6460  -31.2110 C   0  0  0  0  0  0  0  0  0  0  0  0
   -7.5100   22.3280  -31.6000 C   0  0  0  0  0  0  0  0  0  0  0  0
   -8.6080   21.5810  -32.0150 C   0  0  0  0  0  0  0  0  0  0  0  0
   -8.3910   20.2470  -32.3970 C   0  0  0  0  0  0  0  0  0  0  0  0
   -7.0880   19.6900  -32.3650 C   0  0  0  0  0  0  0  0  0  0  0  0
   -6.8570   18.2690  -32.7950 C   0  0  0  0  0  0  0  0  0  0  0  0
   -7.9250   17.4830  -32.4050 F   0  0  0  0  0  0  0  0  0  0  0  0
   -5.6990   17.7890  -32.2100 F   0  0  0  0  0  0  0  0  0  0  0  0
   -5.9970   20.4800  -31.9430 C   0  0  0  0  0  0  0  0  0  0  0  0
   -6.2440   21.8000  -31.5450 C   0  0  0  0  0  0  0  0  0  0  0  0
   -5.3590   22.7350  -31.1320 N   0  0  0  0  0  0  0  0  0  0  0  0
   -3.9320   22.5880  -31.0520 C   0  0  0  0  0  0  0  0  0  0  0  0
   -3.2930   22.1010  -32.0250 O   0  0  0  0  0  0  0  0  0  0  0  0
   -3.2560   22.9810  -29.8930 O   0  0  0  0  0  0  0  0  0  0  0  0
   -1.8380   22.9680  -29.7870 C   0  0  0  0  0  0  0  0  0  0  0  0
   -1.3680   24.3100  -29.3350 C   0  0  0  0  0  0  0  0  0  0  0  0
   -2.1600   25.2880  -29.3270 O   0  0  0  0  0  0  0  0  0  0  0  0
   -0.0700   24.4700  -28.8680 O   0  0  0  0  0  0  0  0  0  0  0  0
   -3.8740   26.4620  -30.2730 H   0  0  0  0  0  0  0  0  0  0  0  0
   -3.5220   24.8740  -31.0290 H   0  0  0  0  0  0  0  0  0  0  0  0
   -8.2588   24.3708  -31.1443 H   0  0  0  0  0  0  0  0  0  0  0  0
   -9.6154   22.0218  -32.0431 H   0  0  0  0  0  0  0  0  0  0  0  0
   -9.2400   19.6288  -32.7240 H   0  0  0  0  0  0  0  0  0  0  0  0
   -6.7583   18.2357  -33.8901 H   0  0  0  0  0  0  0  0  0  0  0  0
   -4.9769   20.0687  -31.9271 H   0  0  0  0  0  0  0  0  0  0  0  0
   -1.5306   22.2052  -29.0566 H   0  0  0  0  0  0  0  0  0  0  0  0
   -1.3961   22.7320  -30.7663 H   0  0  0  0  0  0  0  0  0  0  0  0
  1  2  1  0
  2  3  2  0
  2  4  1  0
  4  5  2  0
  5  6  1  0
  6  7  2  0
  7  8  1  0
  8  9  2  0
  9 10  1  0
 10 11  1  0
 10 12  1  0
  9 13  1  0
 13 14  2  0
 14 15  1  0
 15 16  1  0
 16 17  2  0
 16 18  1  0
 18 19  1  0
 19 20  1  0
 20 21  2  0
 20 22  1  0
 15  4  1  0
 14  6  1  0
  1 23  1  0
  1 24  1  0
  5 25  1  0
  7 26  1  0
  8 27  1  0
 10 28  1  0
 13 29  1  0
 19 30  1  0
 19 31  1  0
M  CHG  1  22  -1
M  END
>  <UniqueID>  (25) 
25

>  <SMILES>  (25) 
NC(=O)c1cc2ccc(C(F)F)cc2n1C(=O)OCC(=O)[O-]

>  <Energy>  (25) 
67.18281458550109

>  <Genealogy>  (25) 
NC(=O)c1cc2ccc(C(F)F)cc2n1C(=O)OCC(=O)[O-] (protonated)
NC(=O)c1cc2ccc(C(F)F)cc2n1C(=O)OCC(=O)[O-] (3D coordinates assigned)
NC(=O)c1cc2ccc(C(F)F)cc2n1C(=O)OCC(=O)[O-] (optimized conformer: 67.18281458550109 kcal/mol)

>  <smiles>  (25) 
NC(=O)c1cc2ccc(C(F)F)cc2n1C(=O)OCC(=O)O

>  <score_type>  (25) 
oracle

>  <origin>  (25) 
adg

>  <m_score__min__energy>  (25) 
-9.9499999999999993

>  <m_primary>  (25) 
energy

$$$$
25:0
     RDKit          3D

 35 37  0  0  0  0  0  0  0  0999 V2000
   -3.0800   22.6500  -29.0230 C   0  0  0  0  0  0  0  0  0  0  0  0
   -2.9510   23.1760  -30.3380 O   0  0  0  0  0  0  0  0  0  0  0  0
   -3.6850   22.6860  -31.4220 C   0  0  0  0  0  0  0  0  0  0  0  0
   -3.0920   22.2500  -32.4460 O   0  0  0  0  0  0  0  0  0  0  0  0
   -5.1230   22.6950  -31.3730 N   0  0  0  0  0  0  0  0  0  0  0  0
   -5.9310   23.7270  -30.9990 C   0  0  0  0  0  0  0  0  0  0  0  0
   -5.4740   25.0060  -30.4110 C   0  0  0  0  0  0  0  0  0  0  0  0
   -4.1630   25.5050  -30.6800 N   0  0  0  0  0  0  0  0  0  0  0  0
   -6.2530   25.6850  -29.6920 O   0  0  0  0  0  0  0  0  0  0  0  0
   -7.2710   23.3790  -31.1570 C   0  0  0  0  0  0  0  0  0  0  0  0
   -7.2590   22.0910  -31.6410 C   0  0  0  0  0  0  0  0  0  0  0  0
   -8.3160   21.2570  -31.9870 C   0  0  0  0  0  0  0  0  0  0  0  0
   -8.0120   19.9810  -32.4890 C   0  0  0  0  0  0  0  0  0  0  0  0
   -6.6660   19.5610  -32.6430 C   0  0  0  0  0  0  0  0  0  0  0  0
   -6.3850   18.2130  -33.1870 C   0  0  0  0  0  0  0  0  0  0  0  0
   -7.2140   17.1010  -33.1400 C   0  0  0  0  0  0  0  0  0  0  0  0
   -6.5260   16.0870  -33.7720 C   0  0  0  0  0  0  0  0  0  0  0  0
   -5.3250   16.6380  -34.1640 C   0  0  0  0  0  0  0  0  0  0  0  0
   -4.2590   15.9350  -34.8780 C   0  0  0  0  0  0  0  0  0  0  0  0
   -3.5300   16.5530  -35.6980 O   0  0  0  0  0  0  0  0  0  0  0  0
   -5.2670   17.9000  -33.8050 O   0  0  0  0  0  0  0  0  0  0  0  0
   -5.6180   20.4410  -32.2790 C   0  0  0  0  0  0  0  0  0  0  0  0
   -5.9510   21.7000  -31.7640 C   0  0  0  0  0  0  0  0  0  0  0  0
   -2.8848   23.4457  -28.2890 H   0  0  0  0  0  0  0  0  0  0  0  0
   -4.0998   22.2626  -28.8814 H   0  0  0  0  0  0  0  0  0  0  0  0
   -2.3552   21.8348  -28.8814 H   0  0  0  0  0  0  0  0  0  0  0  0
   -3.8640   26.4270  -30.2920 H   0  0  0  0  0  0  0  0  0  0  0  0
   -3.4710   24.9470  -31.2270 H   0  0  0  0  0  0  0  0  0  0  0  0
   -8.1515   24.0018  -30.9407 H   0  0  0  0  0  0  0  0  0  0  0  0
   -9.3591   21.5865  -31.8711 H   0  0  0  0  0  0  0  0  0  0  0  0
   -8.8286   19.2983  -32.7664 H   0  0  0  0  0  0  0  0  0  0  0  0
   -8.2160   17.0408  -32.6901 H   0  0  0  0  0  0  0  0  0  0  0  0
   -6.8653   15.0527  -33.9305 H   0  0  0  0  0  0  0  0  0  0  0  0
   -4.0937   14.8625  -34.6979 H   0  0  0  0  0  0  0  0  0  0  0  0
   -4.5660   20.1424  -32.3981 H   0  0  0  0  0  0  0  0  0  0  0  0
  1  2  1  0
  2  3  1  0
  3  4  2  0
  3  5  1  0
  5  6  1  0
  6  7  1  0
  7  8  1  0
  7  9  2  0
  6 10  2  0
 10 11  1  0
 11 12  2  0
 12 13  1  0
 13 14  2  0
 14 15  1  0
 15 16  2  0
 16 17  1  0
 17 18  2  0
 18 19  1  0
 19 20  2  0
 18 21  1  0
 14 22  1  0
 22 23  2  0
 23  5  1  0
 23 11  1  0
 21 15  1  0
  1 24  1  0
  1 25  1  0
  1 26  1  0
  8 27  1  0
  8 28  1  0
 10 29  1  0
 12 30  1  0
 13 31  1  0
 16 32  1  0
 17 33  1  0
 19 34  1  0
 22 35  1  0
M  END
>  <UniqueID>  (26) 
26

>  <SMILES>  (26) 
COC(=O)n1c(C(N)=O)cc2ccc(-c3ccc(C=O)o3)cc21

>  <Energy>  (26) 
99.86335533059673

>  <Genealogy>  (26) 
COC(=O)n1c(C(N)=O)cc2ccc(-c3ccc(C=O)o3)cc21 (3D coordinates assigned)
COC(=O)n1c(C(N)=O)cc2ccc(-c3ccc(C=O)o3)cc21 (optimized conformer: 99.86335533059673 kcal/mol)

>  <smiles>  (26) 
COC(=O)n1c(C(N)=O)cc2ccc(-c3ccc(C=O)o3)cc21

>  <score_type>  (26) 
oracle

>  <origin>  (26) 
adg

>  <m_score__min__energy>  (26) 
-8.0099999999999998

>  <m_primary>  (26) 
energy

$$$$
26:0
     RDKit          3D

 34 35  0  0  0  0  0  0  0  0999 V2000
   -6.1230   25.5670  -28.9930 N   0  0  0  0  0  0  0  0  0  0  0  0
   -5.9020   25.2210  -30.3620 C   0  0  0  0  0  0  0  0  0  0  0  0
   -5.3690   26.0680  -31.1280 O   0  0  0  0  0  0  0  0  0  0  0  0
   -6.3040   23.8940  -30.8870 C   0  0  0  0  0  0  0  0  0  0  0  0
   -7.6250   23.4870  -31.0770 C   0  0  0  0  0  0  0  0  0  0  0  0
   -7.5450   22.2230  -31.6160 C   0  0  0  0  0  0  0  0  0  0  0  0
   -8.5550   21.3370  -31.9800 C   0  0  0  0  0  0  0  0  0  0  0  0
   -8.1790   20.0770  -32.4790 C   0  0  0  0  0  0  0  0  0  0  0  0
   -6.8120   19.7320  -32.5940 C   0  0  0  0  0  0  0  0  0  0  0  0
   -6.4400   18.4350  -33.0930 C   0  0  0  0  0  0  0  0  0  0  0  0
   -6.1260   17.3480  -33.5090 C   0  0  0  0  0  0  0  0  0  0  0  0
   -5.7440   16.0190  -34.0170 C   0  0  2  0  0  0  0  0  0  0  0  0
   -6.8810   15.2170  -34.2140 O   0  0  0  0  0  0  0  0  0  0  0  0
   -4.7340   15.3320  -33.0830 C   0  0  0  0  0  0  0  0  0  0  0  0
   -5.0970   14.0010  -32.8250 O   0  0  0  0  0  0  0  0  0  0  0  0
   -5.8130   20.6500  -32.2150 C   0  0  0  0  0  0  0  0  0  0  0  0
   -6.2170   21.9030  -31.7400 C   0  0  0  0  0  0  0  0  0  0  0  0
   -5.4450   22.9220  -31.3040 N   0  0  0  0  0  0  0  0  0  0  0  0
   -4.0110   22.9290  -31.2110 C   0  0  0  0  0  0  0  0  0  0  0  0
   -3.3260   22.3610  -32.1040 O   0  0  0  0  0  0  0  0  0  0  0  0
   -3.3290   23.5710  -30.0790 C   0  0  0  0  0  0  0  0  0  0  0  0
   -2.9410   22.8860  -29.0960 O   0  0  0  0  0  0  0  0  0  0  0  0
   -3.0910   24.9400  -30.0960 O   0  0  0  0  0  0  0  0  0  0  0  0
   -5.8580   26.5150  -28.6450 H   0  0  0  0  0  0  0  0  0  0  0  0
   -6.5030   24.8780  -28.3090 H   0  0  0  0  0  0  0  0  0  0  0  0
   -8.5374   24.0559  -30.8451 H   0  0  0  0  0  0  0  0  0  0  0  0
   -9.6149   21.6139  -31.8804 H   0  0  0  0  0  0  0  0  0  0  0  0
   -8.9524   19.3557  -32.7816 H   0  0  0  0  0  0  0  0  0  0  0  0
   -5.2507   16.1573  -34.9904 H   0  0  0  0  0  0  0  0  0  0  0  0
   -6.9080   14.5410  -33.4870 H   0  0  0  0  0  0  0  0  0  0  0  0
   -3.7413   15.3467  -33.5567 H   0  0  0  0  0  0  0  0  0  0  0  0
   -4.7194   15.8778  -32.1281 H   0  0  0  0  0  0  0  0  0  0  0  0
   -5.5060   13.6490  -33.6590 H   0  0  0  0  0  0  0  0  0  0  0  0
   -4.7469   20.3897  -32.2902 H   0  0  0  0  0  0  0  0  0  0  0  0
  1  2  1  0
  2  3  2  0
  2  4  1  0
  4  5  2  0
  5  6  1  0
  6  7  2  0
  7  8  1  0
  8  9  2  0
  9 10  1  0
 10 11  3  0
 11 12  1  0
 12 13  1  0
 12 14  1  0
 14 15  1  0
  9 16  1  0
 16 17  2  0
 17 18  1  0
 18 19  1  0
 19 20  2  0
 19 21  1  0
 21 22  2  0
 21 23  1  0
 18  4  1  0
 17  6  1  0
  1 24  1  0
  1 25  1  0
  5 26  1  0
  7 27  1  0
  8 28  1  0
 12 29  1  6
 13 30  1  0
 14 31  1  0
 14 32  1  0
 15 33  1  0
 16 34  1  0
M  CHG  1  23  -1
M  END
>  <UniqueID>  (27) 
27

>  <SMILES>  (27) 
NC(=O)c1cc2ccc(C#C[C@H](O)CO)cc2n1C(=O)C(=O)[O-]

>  <Energy>  (27) 
68.44242152942861

>  <Genealogy>  (27) 
NC(=O)c1cc2ccc(C#C[C@H](O)CO)cc2n1C(=O)C(=O)[O-] (protonated)
NC(=O)c1cc2ccc(C#C[C@H](O)CO)cc2n1C(=O)C(=O)[O-] (3D coordinates assigned)
NC(=O)c1cc2ccc(C#C[C@H](O)CO)cc2n1C(=O)C(=O)[O-] (optimized conformer: 68.44242152942861 kcal/mol)

>  <smiles>  (27) 
NC(=O)c1cc2ccc(C#C[C@H](O)CO)cc2n1C(=O)C(=O)O

>  <score_type>  (27) 
oracle

>  <origin>  (27) 
adg

>  <m_score__min__energy>  (27) 
-9.25

>  <m_primary>  (27) 
energy

$$$$
27:0
     RDKit          3D

 43 45  0  0  0  0  0  0  0  0999 V2000
   -4.2660   25.5180  -30.7850 N   0  0  0  0  0  0  0  0  0  0  0  0
   -5.6010   25.1610  -30.4230 C   0  0  0  0  0  0  0  0  0  0  0  0
   -6.2780   25.9470  -29.7090 O   0  0  0  0  0  0  0  0  0  0  0  0
   -6.1780   23.8610  -30.8170 C   0  0  0  0  0  0  0  0  0  0  0  0
   -7.5480   23.6140  -30.8720 C   0  0  0  0  0  0  0  0  0  0  0  0
   -7.6650   22.2840  -31.2050 C   0  0  0  0  0  0  0  0  0  0  0  0
   -8.8030   21.5090  -31.4040 C   0  0  0  0  0  0  0  0  0  0  0  0
   -8.6280   20.1660  -31.7750 C   0  0  0  0  0  0  0  0  0  0  0  0
   -7.3290   19.6280  -31.9480 C   0  0  0  0  0  0  0  0  0  0  0  0
   -7.1660   18.1920  -32.3600 C   0  0  0  0  0  0  0  0  0  0  0  0
   -6.2870   17.5580  -31.5010 F   0  0  0  0  0  0  0  0  0  0  0  0
   -8.3910   17.5520  -32.3150 F   0  0  0  0  0  0  0  0  0  0  0  0
   -6.1960   20.4450  -31.7410 C   0  0  0  0  0  0  0  0  0  0  0  0
   -6.3990   21.7750  -31.3500 C   0  0  0  0  0  0  0  0  0  0  0  0
   -5.4750   22.7340  -31.1190 N   0  0  0  0  0  0  0  0  0  0  0  0
   -4.0520   22.6070  -31.2700 C   0  0  0  0  0  0  0  0  0  0  0  0
   -3.5030   22.9500  -32.3530 O   0  0  0  0  0  0  0  0  0  0  0  0
   -3.2830   22.1050  -30.2150 O   0  0  0  0  0  0  0  0  0  0  0  0
   -2.9250   22.8710  -29.0660 C   0  0  0  0  0  0  0  0  0  0  0  0
   -1.7880   23.8440  -29.3910 C   0  0  0  0  0  0  0  0  0  0  0  0
   -2.2140   25.1830  -29.2220 O   0  0  0  0  0  0  0  0  0  0  0  0
   -1.6050   25.7550  -28.0820 C   0  0  0  0  0  0  0  0  0  0  0  0
   -0.3970   24.9390  -27.6400 C   0  0  0  0  0  0  0  0  0  0  0  0
   -1.1170   24.5620  -26.3540 C   0  0  0  0  0  0  0  0  0  0  0  0
   -2.3270   25.3760  -26.7900 C   0  0  0  0  0  0  0  0  0  0  0  0
   -3.8880   26.4580  -30.5330 H   0  0  0  0  0  0  0  0  0  0  0  0
   -3.6210   24.8230  -31.2230 H   0  0  0  0  0  0  0  0  0  0  0  0
   -8.3628   24.3298  -30.6883 H   0  0  0  0  0  0  0  0  0  0  0  0
   -9.8089   21.9351  -31.2747 H   0  0  0  0  0  0  0  0  0  0  0  0
   -9.5082   19.5255  -31.9328 H   0  0  0  0  0  0  0  0  0  0  0  0
   -6.7696   18.1541  -33.3854 H   0  0  0  0  0  0  0  0  0  0  0  0
   -5.1802   20.0475  -31.8831 H   0  0  0  0  0  0  0  0  0  0  0  0
   -3.8017   23.4420  -28.7262 H   0  0  0  0  0  0  0  0  0  0  0  0
   -2.5851   22.1838  -28.2772 H   0  0  0  0  0  0  0  0  0  0  0  0
   -0.9402   23.6468  -28.7184 H   0  0  0  0  0  0  0  0  0  0  0  0
   -1.4851   23.6980  -30.4383 H   0  0  0  0  0  0  0  0  0  0  0  0
   -1.5069   26.8108  -28.3745 H   0  0  0  0  0  0  0  0  0  0  0  0
   -0.1697   24.0841  -28.2939 H   0  0  0  0  0  0  0  0  0  0  0  0
    0.6011   25.3999  -27.6030 H   0  0  0  0  0  0  0  0  0  0  0  0
   -1.3147   23.4850  -26.2496 H   0  0  0  0  0  0  0  0  0  0  0  0
   -0.6449   24.7470  -25.3778 H   0  0  0  0  0  0  0  0  0  0  0  0
   -3.2384   24.7793  -26.9431 H   0  0  0  0  0  0  0  0  0  0  0  0
   -2.7399   26.1558  -26.1332 H   0  0  0  0  0  0  0  0  0  0  0  0
  1  2  1  0
  2  3  2  0
  2  4  1  0
  4  5  2  0
  5  6  1  0
  6  7  2  0
  7  8  1  0
  8  9  2  0
  9 10  1  0
 10 11  1  0
 10 12  1  0
  9 13  1  0
 13 14  2  0
 14 15  1  0
 15 16  1  0
 16 17  2  0
 16 18  1  0
 18 19  1  0
 19 20  1  0
 20 21  1  0
 21 22  1  0
 22 23  1  0
 23 24  1  0
 24 25  1  0
 15  4  1  0
 25 22  1  0
 14  6  1  0
  1 26  1  0
  1 27  1  0
  5 28  1  0
  7 29  1  0
  8 30  1  0
 10 31  1  0
 13 32  1  0
 19 33  1  0
 19 34  1  0
 20 35  1  0
 20 36  1  0
 22 37  1  0
 23 38  1  0
 23 39  1  0
 24 40  1  0
 24 41  1  0
 25 42  1  0
 25 43  1  0
M  END
>  <UniqueID>  (28) 
28

>  <SMILES>  (28) 
NC(=O)c1cc2ccc(C(F)F)cc2n1C(=O)OCCOC1CCC1

>  <Energy>  (28) 
140.7285571891606

>  <Genealogy>  (28) 
NC(=O)c1cc2ccc(C(F)F)cc2n1C(=O)OCCOC1CCC1 (3D coordinates assigned)
NC(=O)c1cc2ccc(C(F)F)cc2n1C(=O)OCCOC1CCC1 (nonaromatic ring conformer: 140.7285571891606 kcal/mol)

>  <smiles>  (28) 
NC(=O)c1cc2ccc(C(F)F)cc2n1C(=O)OCCOC1CCC1

>  <score_type>  (28) 
oracle

>  <origin>  (28) 
adg

>  <m_score__min__energy>  (28) 
-9.0800000000000001

>  <m_primary>  (28) 
energy

$$$$
28:0
     RDKit          3D

 43 45  0  0  0  0  0  0  0  0999 V2000
   -3.4700   14.0740  -35.5740 N   0  0  0  0  0  0  0  0  0  0  0  0
   -4.6550   14.0880  -34.7760 C   0  0  0  0  0  0  0  0  0  0  0  0
   -5.2550   13.0070  -34.5450 O   0  0  0  0  0  0  0  0  0  0  0  0
   -5.1570   15.3400  -34.1760 C   0  0  0  0  0  0  0  0  0  0  0  0
   -6.4930   15.5480  -33.8480 C   0  0  0  0  0  0  0  0  0  0  0  0
   -6.5350   16.8020  -33.2820 C   0  0  0  0  0  0  0  0  0  0  0  0
   -7.6190   17.5230  -32.7930 C   0  0  0  0  0  0  0  0  0  0  0  0
   -7.3840   18.8180  -32.3030 C   0  0  0  0  0  0  0  0  0  0  0  0
   -6.0780   19.3750  -32.3180 C   0  0  0  0  0  0  0  0  0  0  0  0
   -5.8430   20.7510  -31.8120 C   0  0  0  0  0  0  0  0  0  0  0  0
   -4.5340   21.2320  -31.6300 C   0  0  0  0  0  0  0  0  0  0  0  0
   -4.3140   22.5290  -31.1600 C   0  0  0  0  0  0  0  0  0  0  0  0
   -5.3960   23.3650  -30.8590 C   0  0  0  0  0  0  0  0  0  0  0  0
   -5.1170   25.0040  -30.2780 S   0  0  0  0  0  0  0  0  0  0  0  0
   -5.7540   25.1830  -28.9280 O   0  0  0  0  0  0  0  0  0  0  0  0
   -5.7260   25.9920  -31.2320 O   0  0  0  0  0  0  0  0  0  0  0  0
   -3.4650   25.2790  -30.1600 O   0  0  0  0  0  0  0  0  0  0  0  0
   -6.7020   22.8960  -31.0410 C   0  0  0  0  0  0  0  0  0  0  0  0
   -6.9260   21.5990  -31.5120 C   0  0  0  0  0  0  0  0  0  0  0  0
   -5.0020   18.6080  -32.8260 C   0  0  0  0  0  0  0  0  0  0  0  0
   -5.2620   17.3130  -33.2900 C   0  0  0  0  0  0  0  0  0  0  0  0
   -4.4010   16.4240  -33.8410 N   0  0  0  0  0  0  0  0  0  0  0  0
   -3.0140   16.6460  -34.1560 C   0  0  0  0  0  0  0  0  0  0  0  0
   -2.1420   15.8020  -33.8150 O   0  0  0  0  0  0  0  0  0  0  0  0
   -2.6420   17.7980  -34.8580 O   0  0  0  0  0  0  0  0  0  0  0  0
   -2.2240   18.9950  -34.2080 C   0  0  0  0  0  0  0  0  0  0  0  0
   -1.2340   18.6570  -33.0980 C   0  0  0  0  0  0  0  0  0  0  0  0
   -0.2420   17.7840  -33.5720 O   0  0  0  0  0  0  0  0  0  0  0  0
   -2.8620   14.9200  -35.6520 H   0  0  0  0  0  0  0  0  0  0  0  0
   -3.1650   13.1900  -36.0430 H   0  0  0  0  0  0  0  0  0  0  0  0
   -7.3350   14.8583  -34.0069 H   0  0  0  0  0  0  0  0  0  0  0  0
   -8.6309   17.0916  -32.7901 H   0  0  0  0  0  0  0  0  0  0  0  0
   -8.2218   19.4079  -31.9028 H   0  0  0  0  0  0  0  0  0  0  0  0
   -3.6768   20.5819  -31.8595 H   0  0  0  0  0  0  0  0  0  0  0  0
   -3.2855   22.8953  -31.0257 H   0  0  0  0  0  0  0  0  0  0  0  0
   -7.5559   23.5507  -30.8125 H   0  0  0  0  0  0  0  0  0  0  0  0
   -7.9561   21.2383  -31.6492 H   0  0  0  0  0  0  0  0  0  0  0  0
   -3.9829   19.0209  -32.8555 H   0  0  0  0  0  0  0  0  0  0  0  0
   -1.7406   19.6590  -34.9397 H   0  0  0  0  0  0  0  0  0  0  0  0
   -3.1000   19.4996  -33.7743 H   0  0  0  0  0  0  0  0  0  0  0  0
   -0.7603   19.5834  -32.7412 H   0  0  0  0  0  0  0  0  0  0  0  0
   -1.7757   18.1666  -32.2758 H   0  0  0  0  0  0  0  0  0  0  0  0
   -0.6470   17.2770  -34.3250 H   0  0  0  0  0  0  0  0  0  0  0  0
  1  2  1  0
  2  3  2  0
  2  4  1  0
  4  5  2  0
  5  6  1  0
  6  7  2  0
  7  8  1  0
  8  9  2  0
  9 10  1  0
 10 11  2  0
 11 12  1  0
 12 13  2  0
 13 14  1  0
 14 15  2  0
 14 16  2  0
 14 17  1  0
 13 18  1  0
 18 19  2  0
  9 20  1  0
 20 21  2  0
 21 22  1  0
 22 23  1  0
 23 24  2  0
 23 25  1  0
 25 26  1  0
 26 27  1  0
 27 28  1  0
 22  4  1  0
 21  6  1  0
 19 10  1  0
  1 29  1  0
  1 30  1  0
  5 31  1  0
  7 32  1  0
  8 33  1  0
 11 34  1  0
 12 35  1  0
 18 36  1  0
 19 37  1  0
 20 38  1  0
 26 39  1  0
 26 40  1  0
 27 41  1  0
 27 42  1  0
 28 43  1  0
M  CHG  1  17  -1
M  END
>  <UniqueID>  (29) 
29

>  <SMILES>  (29) 
NC(=O)c1cc2ccc(-c3ccc(S(=O)(=O)[O-])cc3)cc2n1C(=O)OCCO

>  <Energy>  (29) 
86.40322958158818

>  <Genealogy>  (29) 
NC(=O)c1cc2ccc(-c3ccc(S(=O)(=O)[O-])cc3)cc2n1C(=O)OCCO (protonated)
NC(=O)c1cc2ccc(-c3ccc(S(=O)(=O)[O-])cc3)cc2n1C(=O)OCCO (3D coordinates assigned)
NC(=O)c1cc2ccc(-c3ccc(S(=O)(=O)[O-])cc3)cc2n1C(=O)OCCO (optimized conformer: 86.40322958158818 kcal/mol)

>  <smiles>  (29) 
NC(=O)c1cc2ccc(-c3ccc(S(=O)(=O)O)cc3)cc2n1C(=O)OCCO

>  <score_type>  (29) 
oracle

>  <origin>  (29) 
adg

>  <m_score__min__energy>  (29) 
-9.8000000000000007

>  <m_primary>  (29) 
energy

$$$$
29:0
     RDKit          3D

 49 51  0  0  0  0  0  0  0  0999 V2000
   -3.4610   18.1240  -34.2070 C   0  0  0  0  0  0  0  0  0  0  0  0
   -4.7400   17.6870  -34.9050 C   0  0  0  0  0  0  0  0  0  0  0  0
   -5.4200   16.7370  -34.0940 O   0  0  0  0  0  0  0  0  0  0  0  0
   -6.4020   17.1000  -33.1680 C   0  0  0  0  0  0  0  0  0  0  0  0
   -7.6160   17.1680  -33.5070 O   0  0  0  0  0  0  0  0  0  0  0  0
   -6.0010   17.4200  -31.7600 C   0  0  0  0  0  0  0  0  0  0  0  0
   -6.5070   18.6990  -31.3820 O   0  0  0  0  0  0  0  0  0  0  0  0
   -5.8000   19.8900  -31.5830 C   0  0  0  0  0  0  0  0  0  0  0  0
   -4.6200   19.8670  -32.0300 O   0  0  0  0  0  0  0  0  0  0  0  0
   -6.4420   21.1490  -31.3360 N   0  0  0  0  0  0  0  0  0  0  0  0
   -7.7040   21.5260  -31.6830 C   0  0  0  0  0  0  0  0  0  0  0  0
   -8.7300   20.6330  -32.2720 C   0  0  0  0  0  0  0  0  0  0  0  0
   -8.3590   19.5340  -33.1050 N   0  0  0  0  0  0  0  0  0  0  0  0
   -9.9540   20.8520  -32.0620 O   0  0  0  0  0  0  0  0  0  0  0  0
   -7.9210   22.8600  -31.3340 C   0  0  0  0  0  0  0  0  0  0  0  0
   -6.7390   23.2890  -30.7720 C   0  0  0  0  0  0  0  0  0  0  0  0
   -6.3850   24.5390  -30.2730 C   0  0  0  0  0  0  0  0  0  0  0  0
   -5.0760   24.7080  -29.7890 C   0  0  0  0  0  0  0  0  0  0  0  0
   -4.1460   23.6350  -29.8160 C   0  0  0  0  0  0  0  0  0  0  0  0
   -2.7600   23.8310  -29.3190 C   0  0  0  0  0  0  0  0  0  0  0  0
   -2.4500   24.9060  -28.4690 C   0  0  0  0  0  0  0  0  0  0  0  0
   -1.1440   25.0890  -28.0040 C   0  0  0  0  0  0  0  0  0  0  0  0
   -0.1240   24.2070  -28.3770 C   0  0  0  0  0  0  0  0  0  0  0  0
    1.1700   24.4390  -27.8870 O   0  0  0  0  0  0  0  0  0  0  0  0
    1.5340   24.3670  -26.5120 C   0  0  0  0  0  0  0  0  0  0  0  0
   -0.4290   23.1270  -29.2250 C   0  0  0  0  0  0  0  0  0  0  0  0
   -1.7340   22.9420  -29.6900 C   0  0  0  0  0  0  0  0  0  0  0  0
   -4.5480   22.3790  -30.3290 C   0  0  0  0  0  0  0  0  0  0  0  0
   -5.8620   22.2380  -30.7870 C   0  0  0  0  0  0  0  0  0  0  0  0
   -3.6030   18.0755  -33.1173 H   0  0  0  0  0  0  0  0  0  0  0  0
   -2.6372   17.4564  -34.4995 H   0  0  0  0  0  0  0  0  0  0  0  0
   -3.2179   19.1562  -34.4995 H   0  0  0  0  0  0  0  0  0  0  0  0
   -5.3872   18.5617  -35.0665 H   0  0  0  0  0  0  0  0  0  0  0  0
   -4.4919   17.2313  -35.8750 H   0  0  0  0  0  0  0  0  0  0  0  0
   -6.4077   16.6540  -31.0834 H   0  0  0  0  0  0  0  0  0  0  0  0
   -4.9031   17.4347  -31.6942 H   0  0  0  0  0  0  0  0  0  0  0  0
   -7.3600   19.2850  -33.2720 H   0  0  0  0  0  0  0  0  0  0  0  0
   -9.0970   18.9360  -33.5390 H   0  0  0  0  0  0  0  0  0  0  0  0
   -8.8414   23.4450  -31.4775 H   0  0  0  0  0  0  0  0  0  0  0  0
   -7.1069   25.3688  -30.2578 H   0  0  0  0  0  0  0  0  0  0  0  0
   -4.7682   25.6835  -29.3843 H   0  0  0  0  0  0  0  0  0  0  0  0
   -3.2405   25.6088  -28.1671 H   0  0  0  0  0  0  0  0  0  0  0  0
   -0.9164   25.9347  -27.3384 H   0  0  0  0  0  0  0  0  0  0  0  0
    0.6455   24.5428  -25.8878 H   0  0  0  0  0  0  0  0  0  0  0  0
    1.9446   23.3702  -26.2931 H   0  0  0  0  0  0  0  0  0  0  0  0
    2.2931   25.1324  -26.2931 H   0  0  0  0  0  0  0  0  0  0  0  0
    0.3633   22.4247  -29.5236 H   0  0  0  0  0  0  0  0  0  0  0  0
   -1.9613   22.0936  -30.3522 H   0  0  0  0  0  0  0  0  0  0  0  0
   -3.8444   21.5343  -30.3667 H   0  0  0  0  0  0  0  0  0  0  0  0
  1  2  1  0
  2  3  1  0
  3  4  1  0
  4  5  2  0
  4  6  1  0
  6  7  1  0
  7  8  1  0
  8  9  2  0
  8 10  1  0
 10 11  1  0
 11 12  1  0
 12 13  1  0
 12 14  2  0
 11 15  2  0
 15 16  1  0
 16 17  2  0
 17 18  1  0
 18 19  2  0
 19 20  1  0
 20 21  2  0
 21 22  1  0
 22 23  2  0
 23 24  1  0
 24 25  1  0
 23 26  1  0
 26 27  2  0
 19 28  1  0
 28 29  2  0
 29 10  1  0
 29 16  1  0
 27 20  1  0
  1 30  1  0
  1 31  1  0
  1 32  1  0
  2 33  1  0
  2 34  1  0
  6 35  1  0
  6 36  1  0
 13 37  1  0
 13 38  1  0
 15 39  1  0
 17 40  1  0
 18 41  1  0
 21 42  1  0
 22 43  1  0
 25 44  1  0
 25 45  1  0
 25 46  1  0
 26 47  1  0
 27 48  1  0
 28 49  1  0
M  END
>  <UniqueID>  (30) 
30

>  <SMILES>  (30) 
CCOC(=O)COC(=O)n1c(C(N)=O)cc2ccc(-c3ccc(OC)cc3)cc21

>  <Energy>  (30) 
85.97703842662872

>  <Genealogy>  (30) 
CCOC(=O)COC(=O)n1c(C(N)=O)cc2ccc(-c3ccc(OC)cc3)cc21 (3D coordinates assigned)
CCOC(=O)COC(=O)n1c(C(N)=O)cc2ccc(-c3ccc(OC)cc3)cc21 (optimized conformer: 85.97703842662872 kcal/mol)

>  <smiles>  (30) 
CCOC(=O)COC(=O)n1c(C(N)=O)cc2ccc(-c3ccc(OC)cc3)cc21

>  <score_type>  (30) 
oracle

>  <origin>  (30) 
adg

>  <m_score__min__energy>  (30) 
-9.5299999999999994

>  <m_primary>  (30) 
energy

$$$$
30:0
     RDKit          3D

 36 38  0  0  0  0  0  0  0  0999 V2000
   -3.9010   25.6660  -30.8290 N   0  0  0  0  0  0  0  0  0  0  0  0
   -5.2540   25.3850  -30.4790 C   0  0  0  0  0  0  0  0  0  0  0  0
   -5.9100   26.2360  -29.8230 O   0  0  0  0  0  0  0  0  0  0  0  0
   -5.8750   24.1120  -30.9060 C   0  0  0  0  0  0  0  0  0  0  0  0
   -7.2240   23.9790  -31.2270 C   0  0  0  0  0  0  0  0  0  0  0  0
   -7.4000   22.6470  -31.5220 C   0  0  0  0  0  0  0  0  0  0  0  0
   -8.5410   21.9640  -31.9310 C   0  0  0  0  0  0  0  0  0  0  0  0
   -8.4250   20.5890  -32.1990 C   0  0  0  0  0  0  0  0  0  0  0  0
   -7.1810   19.9230  -32.0480 C   0  0  0  0  0  0  0  0  0  0  0  0
   -7.0600   18.4620  -32.3990 C   0  0  0  0  0  0  0  0  0  0  0  0
   -6.1780   17.8220  -31.5440 F   0  0  0  0  0  0  0  0  0  0  0  0
   -6.5970   18.3420  -33.6960 F   0  0  0  0  0  0  0  0  0  0  0  0
   -8.2900   17.8350  -32.2990 F   0  0  0  0  0  0  0  0  0  0  0  0
   -6.0400   20.6600  -31.6570 C   0  0  0  0  0  0  0  0  0  0  0  0
   -6.1900   22.0220  -31.3760 C   0  0  0  0  0  0  0  0  0  0  0  0
   -5.2450   22.9060  -30.9880 N   0  0  0  0  0  0  0  0  0  0  0  0
   -3.8540   22.6340  -30.7490 C   0  0  0  0  0  0  0  0  0  0  0  0
   -2.9980   23.0260  -31.5870 O   0  0  0  0  0  0  0  0  0  0  0  0
   -3.3880   21.8610  -29.5410 C   0  0  0  0  0  0  0  0  0  0  0  0
   -3.6460   22.5730  -28.2030 C   0  0  0  0  0  0  0  0  0  0  0  0
   -2.7580   23.7680  -28.0060 C   0  0  0  0  0  0  0  0  0  0  0  0
   -2.7320   24.5170  -26.8320 C   0  0  0  0  0  0  0  0  0  0  0  0
   -1.6120   25.7510  -27.0450 S   0  0  0  0  0  0  0  0  0  0  0  0
   -1.2150   25.2920  -28.6110 C   0  0  0  0  0  0  0  0  0  0  0  0
   -1.9220   24.2050  -28.9870 N   0  0  0  0  0  0  0  0  0  0  0  0
   -3.1360   24.9960  -30.5890 H   0  0  0  0  0  0  0  0  0  0  0  0
   -7.9869   24.7713  -31.2415 H   0  0  0  0  0  0  0  0  0  0  0  0
   -9.5041   22.4839  -32.0412 H   0  0  0  0  0  0  0  0  0  0  0  0
   -9.3084   20.0229  -32.5295 H   0  0  0  0  0  0  0  0  0  0  0  0
   -5.0567   20.1736  -31.5756 H   0  0  0  0  0  0  0  0  0  0  0  0
   -3.9135   20.8948  -29.5252 H   0  0  0  0  0  0  0  0  0  0  0  0
   -2.2978   21.7498  -29.6364 H   0  0  0  0  0  0  0  0  0  0  0  0
   -4.6945   22.9046  -28.1764 H   0  0  0  0  0  0  0  0  0  0  0  0
   -3.4271   21.8577  -27.3965 H   0  0  0  0  0  0  0  0  0  0  0  0
   -3.3347   24.3340  -25.9302 H   0  0  0  0  0  0  0  0  0  0  0  0
   -0.4784   25.8074  -29.2448 H   0  0  0  0  0  0  0  0  0  0  0  0
  1  2  1  0
  2  3  2  0
  2  4  1  0
  4  5  2  0
  5  6  1  0
  6  7  2  0
  7  8  1  0
  8  9  2  0
  9 10  1  0
 10 11  1  0
 10 12  1  0
 10 13  1  0
  9 14  1  0
 14 15  2  0
 15 16  1  0
 16 17  1  0
 17 18  2  0
 17 19  1  0
 19 20  1  0
 20 21  1  0
 21 22  2  0
 22 23  1  0
 23 24  1  0
 24 25  2  0
 16  4  1  0
 25 21  1  0
 15  6  1  0
  1 26  1  0
  5 27  1  0
  7 28  1  0
  8 29  1  0
 14 30  1  0
 19 31  1  0
 19 32  1  0
 20 33  1  0
 20 34  1  0
 22 35  1  0
 24 36  1  0
M  CHG  1   1  -1
M  END
>  <UniqueID>  (31) 
31

>  <SMILES>  (31) 
[NH-]C(=O)c1cc2ccc(C(F)(F)F)cc2n1C(=O)CCc1cscn1

>  <Energy>  (31) 
103.0350364237669

>  <Genealogy>  (31) 
[NH-]C(=O)c1cc2ccc(C(F)(F)F)cc2n1C(=O)CCc1cscn1 (protonated)
[NH-]C(=O)c1cc2ccc(C(F)(F)F)cc2n1C(=O)CCc1cscn1 (3D coordinates assigned)
[NH-]C(=O)c1cc2ccc(C(F)(F)F)cc2n1C(=O)CCc1cscn1 (optimized conformer: 103.0350364237669 kcal/mol)

>  <smiles>  (31) 
NC(=O)c1cc2ccc(C(F)(F)F)cc2n1C(=O)CCc1cscn1

>  <score_type>  (31) 
oracle

>  <origin>  (31) 
adg

>  <m_score__min__energy>  (31) 
-10.800000000000001

>  <m_primary>  (31) 
energy

$$$$
31:0
     RDKit          3D

 39 41  0  0  0  0  0  0  0  0999 V2000
   -5.2890   14.2630  -33.9720 C   0  0  0  0  0  0  0  0  0  0  0  0
   -5.6220   15.6700  -33.6070 C   0  0  0  0  0  0  0  0  0  0  0  0
   -5.8320   16.5960  -34.5790 N   0  0  0  0  0  0  0  0  0  0  0  0
   -6.1010   17.8890  -34.2690 C   0  0  0  0  0  0  0  0  0  0  0  0
   -6.1620   18.2980  -32.9280 C   0  0  0  0  0  0  0  0  0  0  0  0
   -6.4510   19.7070  -32.5640 C   0  0  0  0  0  0  0  0  0  0  0  0
   -7.7700   20.2210  -32.6730 C   0  0  0  0  0  0  0  0  0  0  0  0
   -8.0560   21.5530  -32.3200 C   0  0  0  0  0  0  0  0  0  0  0  0
   -7.0070   22.3470  -31.8720 C   0  0  0  0  0  0  0  0  0  0  0  0
   -7.0030   23.6580  -31.4490 C   0  0  0  0  0  0  0  0  0  0  0  0
   -5.6810   23.9320  -31.1040 C   0  0  0  0  0  0  0  0  0  0  0  0
   -5.2120   25.2510  -30.6240 C   0  0  0  0  0  0  0  0  0  0  0  0
   -3.8650   25.6690  -30.8240 N   0  0  0  0  0  0  0  0  0  0  0  0
   -6.0190   26.0260  -30.0450 O   0  0  0  0  0  0  0  0  0  0  0  0
   -4.9020   22.8350  -31.3100 N   0  0  0  0  0  0  0  0  0  0  0  0
   -3.4960   22.7010  -31.0500 C   0  0  0  0  0  0  0  0  0  0  0  0
   -2.7120   22.4790  -32.0120 O   0  0  0  0  0  0  0  0  0  0  0  0
   -2.9370   22.8780  -29.6550 C   0  0  1  0  0  0  0  0  0  0  0  0
   -2.2230   21.6170  -29.1520 C   0  0  0  0  0  0  0  0  0  0  0  0
   -2.0610   23.9760  -29.6100 O   0  0  0  0  0  0  0  0  0  0  0  0
   -5.7260   21.8730  -31.7740 C   0  0  0  0  0  0  0  0  0  0  0  0
   -5.4130   20.5510  -32.1020 C   0  0  0  0  0  0  0  0  0  0  0  0
   -5.9300   17.3250  -31.9440 C   0  0  0  0  0  0  0  0  0  0  0  0
   -5.6600   16.0420  -32.3010 N   0  0  0  0  0  0  0  0  0  0  0  0
   -5.1487   13.6700  -33.0562 H   0  0  0  0  0  0  0  0  0  0  0  0
   -6.1104   13.8337  -34.5645 H   0  0  0  0  0  0  0  0  0  0  0  0
   -4.3624   14.2474  -34.5645 H   0  0  0  0  0  0  0  0  0  0  0  0
   -6.2721   18.6204  -35.0726 H   0  0  0  0  0  0  0  0  0  0  0  0
   -8.5783   19.5701  -33.0378 H   0  0  0  0  0  0  0  0  0  0  0  0
   -9.0778   21.9531  -32.3963 H   0  0  0  0  0  0  0  0  0  0  0  0
   -7.8616   24.3435  -31.3950 H   0  0  0  0  0  0  0  0  0  0  0  0
   -3.1380   24.9990  -31.1580 H   0  0  0  0  0  0  0  0  0  0  0  0
   -3.7912   23.0653  -28.9877 H   0  0  0  0  0  0  0  0  0  0  0  0
   -2.2199   21.6115  -28.0520 H   0  0  0  0  0  0  0  0  0  0  0  0
   -2.7501   20.7251  -29.5216 H   0  0  0  0  0  0  0  0  0  0  0  0
   -1.1870   21.6101  -29.5216 H   0  0  0  0  0  0  0  0  0  0  0  0
   -2.1110   24.4370  -30.4900 H   0  0  0  0  0  0  0  0  0  0  0  0
   -4.3839   20.1752  -32.0034 H   0  0  0  0  0  0  0  0  0  0  0  0
   -5.9668   17.6018  -30.8800 H   0  0  0  0  0  0  0  0  0  0  0  0
  1  2  1  0
  2  3  2  0
  3  4  1  0
  4  5  2  0
  5  6  1  0
  6  7  2  0
  7  8  1  0
  8  9  2  0
  9 10  1  0
 10 11  2  0
 11 12  1  0
 12 13  1  0
 12 14  2  0
 11 15  1  0
 15 16  1  0
 16 17  2  0
 16 18  1  0
 18 19  1  0
 18 20  1  0
 15 21  1  0
 21 22  2  0
  5 23  1  0
 23 24  2  0
 24  2  1  0
 22  6  1  0
 21  9  1  0
  1 25  1  0
  1 26  1  0
  1 27  1  0
  4 28  1  0
  7 29  1  0
  8 30  1  0
 10 31  1  0
 13 32  1  0
 18 33  1  1
 19 34  1  0
 19 35  1  0
 19 36  1  0
 20 37  1  0
 22 38  1  0
 23 39  1  0
M  CHG  1  13  -1
M  END
>  <UniqueID>  (32) 
32

>  <SMILES>  (32) 
Cc1ncc(-c2ccc3cc(C([NH-])=O)n(C(=O)[C@@H](C)O)c3c2)cn1

>  <Energy>  (32) 
84.60300149872174

>  <Genealogy>  (32) 
Cc1ncc(-c2ccc3cc(C([NH-])=O)n(C(=O)[C@@H](C)O)c3c2)cn1 (protonated)
Cc1ncc(-c2ccc3cc(C([NH-])=O)n(C(=O)[C@@H](C)O)c3c2)cn1 (3D coordinates assigned)
Cc1ncc(-c2ccc3cc(C([NH-])=O)n(C(=O)[C@@H](C)O)c3c2)cn1 (optimized conformer: 84.60300149872174 kcal/mol)

>  <smiles>  (32) 
Cc1ncc(-c2ccc3cc(C(N)=O)n(C(=O)[C@@H](C)O)c3c2)cn1

>  <score_type>  (32) 
oracle

>  <origin>  (32) 
adg

>  <m_score__min__energy>  (32) 
-10.26

>  <m_primary>  (32) 
energy

$$$$
32:0
     RDKit          3D

 44 45  0  0  0  0  0  0  0  0999 V2000
   -4.0146   20.9485  -33.2364 H   0  0  0  0  0  0  0  0  0  0  0  0
   -3.3990   21.5540  -32.5550 C   0  0  0  0  0  0  0  0  0  0  0  0
   -4.0520   22.6040  -31.7500 C   0  0  0  0  0  0  0  0  0  0  0  0
   -3.3640   23.5000  -31.1900 O   0  0  0  0  0  0  0  0  0  0  0  0
   -5.4840   22.6350  -31.6330 N   0  0  0  0  0  0  0  0  0  0  0  0
   -6.2390   23.5950  -31.0310 C   0  0  0  0  0  0  0  0  0  0  0  0
   -5.7410   24.8800  -30.4990 C   0  0  0  0  0  0  0  0  0  0  0  0
   -4.9980   25.6000  -31.2170 O   0  0  0  0  0  0  0  0  0  0  0  0
   -6.0440   25.3000  -29.1680 N   0  0  0  0  0  0  0  0  0  0  0  0
   -6.4910   24.6510  -28.4830 H   0  0  0  0  0  0  0  0  0  0  0  0
   -5.7280   26.2360  -28.8300 H   0  0  0  0  0  0  0  0  0  0  0  0
   -7.5800   23.2170  -30.9990 C   0  0  0  0  0  0  0  0  0  0  0  0
   -8.4233   23.7823  -30.5757 H   0  0  0  0  0  0  0  0  0  0  0  0
   -7.6230   21.9840  -31.6110 C   0  0  0  0  0  0  0  0  0  0  0  0
   -8.7030   21.1360  -31.8390 C   0  0  0  0  0  0  0  0  0  0  0  0
   -9.7230   21.4254  -31.5459 H   0  0  0  0  0  0  0  0  0  0  0  0
   -8.4500   19.8990  -32.4550 C   0  0  0  0  0  0  0  0  0  0  0  0
   -9.2851   19.2153  -32.6675 H   0  0  0  0  0  0  0  0  0  0  0  0
   -7.1300   19.5240  -32.8050 C   0  0  0  0  0  0  0  0  0  0  0  0
   -6.8760   18.2110  -33.4820 C   0  0  0  0  0  0  0  0  0  0  0  0
   -6.7249   17.4299  -32.7223 H   0  0  0  0  0  0  0  0  0  0  0  0
   -7.7401   17.9492  -34.1102 H   0  0  0  0  0  0  0  0  0  0  0  0
   -5.9766   18.2903  -34.1102 H   0  0  0  0  0  0  0  0  0  0  0  0
   -6.0600   20.4150  -32.5690 C   0  0  0  0  0  0  0  0  0  0  0  0
   -5.0295   20.1437  -32.8420 H   0  0  0  0  0  0  0  0  0  0  0  0
   -6.3440   21.6520  -31.9790 C   0  0  0  0  0  0  0  0  0  0  0  0
   -2.0860   21.3120  -32.4860 C   0  0  0  0  0  0  0  0  0  0  0  0
   -1.4689   21.8925  -31.7845 H   0  0  0  0  0  0  0  0  0  0  0  0
   -1.4340   20.2660  -33.3440 C   0  0  0  0  0  0  0  0  0  0  0  0
   -2.1398   19.4381  -33.5066 H   0  0  0  0  0  0  0  0  0  0  0  0
   -0.5315   19.8965  -32.8351 H   0  0  0  0  0  0  0  0  0  0  0  0
   -1.0510   20.8390  -34.6420 N   0  0  0  0  0  0  0  0  0  0  0  0
   -1.3060   21.8540  -34.6520 H   0  0  0  0  0  0  0  0  0  0  0  0
    0.3850   20.6710  -34.9410 C   0  0  0  0  0  0  0  0  0  0  0  0
    0.5157   19.7495  -35.5273 H   0  0  0  0  0  0  0  0  0  0  0  0
    0.9183   20.6249  -33.9801 H   0  0  0  0  0  0  0  0  0  0  0  0
    0.9740   21.8480  -35.7390 C   0  0  0  0  0  0  0  0  0  0  0  0
    0.8930   21.6272  -36.8136 H   0  0  0  0  0  0  0  0  0  0  0  0
    2.0259   21.9733  -35.4427 H   0  0  0  0  0  0  0  0  0  0  0  0
    0.2890   23.0560  -35.4650 O   0  0  0  0  0  0  0  0  0  0  0  0
    0.9300   24.1410  -36.0990 C   0  0  0  0  0  0  0  0  0  0  0  0
    1.3337   24.8243  -35.3373 H   0  0  0  0  0  0  0  0  0  0  0  0
    1.7513   23.7655  -36.7270 H   0  0  0  0  0  0  0  0  0  0  0  0
    0.2048   24.6792  -36.7270 H   0  0  0  0  0  0  0  0  0  0  0  0
  1  2  1  0
  2  3  1  0
  3  4  2  0
  3  5  1  0
  5  6  1  0
  6  7  1  0
  7  8  2  0
  7  9  1  0
  9 10  1  0
  9 11  1  0
  6 12  2  0
 12 13  1  0
 12 14  1  0
 14 15  2  0
 15 16  1  0
 15 17  1  0
 17 18  1  0
 17 19  2  0
 19 20  1  0
 20 21  1  0
 20 22  1  0
 20 23  1  0
 19 24  1  0
 24 25  1  0
 24 26  2  0
  2 27  2  0
 27 28  1  0
 27 29  1  0
 29 30  1  0
 29 31  1  0
 29 32  1  0
 32 33  1  0
 32 34  1  0
 34 35  1  0
 34 36  1  0
 34 37  1  0
 37 38  1  0
 37 39  1  0
 37 40  1  0
 40 41  1  0
 41 42  1  0
 41 43  1  0
 41 44  1  0
 26  5  1  0
 26 14  1  0
M  END
>  <UniqueID>  (33) 
33

>  <SMILES>  (33) 
COCCNC/C=C/C(=O)n1c(C(N)=O)cc2ccc(C)cc21

>  <Energy>  (33) 
83.02275533852647

>  <Genealogy>  (33) 
COCCNC/C=C/C(=O)n1c(C(N)=O)cc2ccc(C)cc21 (cis-trans isomerization)
COCCNC/C=C/C(=O)n1c(C(N)=O)cc2ccc(C)cc21 (3D coordinates assigned)
COCCNC/C=C/C(=O)n1c(C(N)=O)cc2ccc(C)cc21 (optimized conformer: 83.02275533852647 kcal/mol)

>  <smiles>  (33) 
COCCNC/C=C/C(=O)n1c(C(N)=O)cc2ccc(C)cc21

>  <score_type>  (33) 
oracle

>  <origin>  (33) 
adg

>  <m_score__min__energy>  (33) 
-9.4800000000000004

>  <m_primary>  (33) 
energy

$$$$
33:0
     RDKit          3D

 43 45  0  0  0  0  0  0  0  0999 V2000
   -1.9650   24.6060  -26.2280 C   0  0  0  0  0  0  0  0  0  0  0  0
   -2.5620   24.1590  -27.5660 C   0  0  0  0  0  0  0  0  0  0  0  0
   -4.0440   24.5390  -27.6330 C   0  0  0  0  0  0  0  0  0  0  0  0
   -1.8720   24.8070  -28.6140 O   0  0  0  0  0  0  0  0  0  0  0  0
   -1.5190   23.8050  -29.5120 C   0  0  0  0  0  0  0  0  0  0  0  0
   -1.5900   22.5150  -28.7400 C   0  0  2  0  0  0  0  0  0  0  0  0
   -2.1050   21.3480  -29.5940 C   0  0  0  0  0  0  0  0  0  0  0  0
   -3.4790   21.5430  -29.9240 O   0  0  0  0  0  0  0  0  0  0  0  0
   -3.9150   22.4610  -30.8880 C   0  0  0  0  0  0  0  0  0  0  0  0
   -3.0870   23.0340  -31.6470 O   0  0  0  0  0  0  0  0  0  0  0  0
   -5.3110   22.7760  -30.9890 N   0  0  0  0  0  0  0  0  0  0  0  0
   -5.9030   23.9970  -30.8680 C   0  0  0  0  0  0  0  0  0  0  0  0
   -5.2310   25.2480  -30.4570 C   0  0  0  0  0  0  0  0  0  0  0  0
   -3.8750   25.4800  -30.8290 N   0  0  0  0  0  0  0  0  0  0  0  0
   -5.8520   26.1290  -29.8060 O   0  0  0  0  0  0  0  0  0  0  0  0
   -7.2710   23.9030  -31.1190 C   0  0  0  0  0  0  0  0  0  0  0  0
   -7.5000   22.5740  -31.3990 C   0  0  0  0  0  0  0  0  0  0  0  0
   -8.6800   21.9180  -31.7300 C   0  0  0  0  0  0  0  0  0  0  0  0
   -8.6160   20.5400  -32.0010 C   0  0  0  0  0  0  0  0  0  0  0  0
   -7.3760   19.8510  -31.9630 C   0  0  0  0  0  0  0  0  0  0  0  0
   -7.3230   18.3660  -32.2240 C   0  0  0  0  0  0  0  0  0  0  0  0
   -8.5730   17.7970  -32.0520 F   0  0  0  0  0  0  0  0  0  0  0  0
   -6.9020   18.1460  -33.5210 F   0  0  0  0  0  0  0  0  0  0  0  0
   -6.4430   17.7480  -31.3520 F   0  0  0  0  0  0  0  0  0  0  0  0
   -6.2020   20.5490  -31.5980 C   0  0  0  0  0  0  0  0  0  0  0  0
   -6.3010   21.9160  -31.3160 C   0  0  0  0  0  0  0  0  0  0  0  0
   -2.4470   22.7560  -27.6680 O   0  0  0  0  0  0  0  0  0  0  0  0
   -2.5472   24.1701  -25.4028 H   0  0  0  0  0  0  0  0  0  0  0  0
   -0.9212   24.2655  -26.1602 H   0  0  0  0  0  0  0  0  0  0  0  0
   -1.9978   25.7034  -26.1602 H   0  0  0  0  0  0  0  0  0  0  0  0
   -4.4428   24.6413  -26.6129 H   0  0  0  0  0  0  0  0  0  0  0  0
   -4.1538   25.4943  -28.1671 H   0  0  0  0  0  0  0  0  0  0  0  0
   -4.5999   23.7543  -28.1671 H   0  0  0  0  0  0  0  0  0  0  0  0
   -2.2222   23.7840  -30.3576 H   0  0  0  0  0  0  0  0  0  0  0  0
   -0.5146   23.9716  -29.9284 H   0  0  0  0  0  0  0  0  0  0  0  0
   -0.5856   22.2150  -28.4065 H   0  0  0  0  0  0  0  0  0  0  0  0
   -1.5146   21.2882  -30.5202 H   0  0  0  0  0  0  0  0  0  0  0  0
   -2.0042   20.4144  -29.0211 H   0  0  0  0  0  0  0  0  0  0  0  0
   -3.1060   24.8850  -30.4500 H   0  0  0  0  0  0  0  0  0  0  0  0
   -8.0104   24.7171  -31.0979 H   0  0  0  0  0  0  0  0  0  0  0  0
   -9.6354   22.4610  -31.7784 H   0  0  0  0  0  0  0  0  0  0  0  0
   -9.5369   19.9901  -32.2451 H   0  0  0  0  0  0  0  0  0  0  0  0
   -5.2341   20.0300  -31.5372 H   0  0  0  0  0  0  0  0  0  0  0  0
  1  2  1  0
  2  3  1  0
  2  4  1  0
  4  5  1  0
  5  6  1  0
  6  7  1  0
  7  8  1  0
  8  9  1  0
  9 10  2  0
  9 11  1  0
 11 12  1  0
 12 13  1  0
 13 14  1  0
 13 15  2  0
 12 16  2  0
 16 17  1  0
 17 18  2  0
 18 19  1  0
 19 20  2  0
 20 21  1  0
 21 22  1  0
 21 23  1  0
 21 24  1  0
 20 25  1  0
 25 26  2  0
  6 27  1  0
 27  2  1  0
 26 11  1  0
 26 17  1  0
  1 28  1  0
  1 29  1  0
  1 30  1  0
  3 31  1  0
  3 32  1  0
  3 33  1  0
  5 34  1  0
  5 35  1  0
  6 36  1  1
  7 37  1  0
  7 38  1  0
 14 39  1  0
 16 40  1  0
 18 41  1  0
 19 42  1  0
 25 43  1  0
M  CHG  1  14  -1
M  END
>  <UniqueID>  (34) 
34

>  <SMILES>  (34) 
CC1(C)OC[C@H](COC(=O)n2c(C([NH-])=O)cc3ccc(C(F)(F)F)cc32)O1

>  <Energy>  (34) 
72.75671126243303

>  <Genealogy>  (34) 
CC1(C)OC[C@H](COC(=O)n2c(C([NH-])=O)cc3ccc(C(F)(F)F)cc32)O1 (protonated)
CC1(C)OC[C@H](COC(=O)n2c(C([NH-])=O)cc3ccc(C(F)(F)F)cc32)O1 (3D coordinates assigned)
CC1(C)OC[C@H](COC(=O)n2c(C([NH-])=O)cc3ccc(C(F)(F)F)cc32)O1 (nonaromatic ring conformer: 72.75671126243303 kcal/mol)

>  <smiles>  (34) 
CC1(C)OC[C@H](COC(=O)n2c(C(N)=O)cc3ccc(C(F)(F)F)cc32)O1

>  <score_type>  (34) 
oracle

>  <origin>  (34) 
adg

>  <m_score__min__energy>  (34) 
-10.49

>  <m_primary>  (34) 
energy

$$$$
34:0
     RDKit          3D

 45 47  0  0  0  0  0  0  0  0999 V2000
   -0.9010   22.6530  -28.8810 C   0  0  0  0  0  0  0  0  0  0  0  0
   -2.0020   23.6340  -28.7930 N   0  0  2  0  0  0  0  0  0  0  0  0
   -1.4610   25.0040  -28.6060 C   0  0  0  0  0  0  0  0  0  0  0  0
   -1.4050   25.3910  -27.1170 C   0  0  0  0  0  0  0  0  0  0  0  0
   -2.6690   25.3710  -26.4680 O   0  0  0  0  0  0  0  0  0  0  0  0
   -3.6130   24.5030  -27.0790 C   0  0  0  0  0  0  0  0  0  0  0  0
   -2.9680   23.2490  -27.7200 C   0  0  1  0  0  0  0  0  0  0  0  0
   -4.0660   22.3060  -28.2680 C   0  0  0  0  0  0  0  0  0  0  0  0
   -3.7090   21.7920  -29.5500 O   0  0  0  0  0  0  0  0  0  0  0  0
   -4.0020   22.4480  -30.7520 C   0  0  0  0  0  0  0  0  0  0  0  0
   -3.0970   22.6460  -31.6080 O   0  0  0  0  0  0  0  0  0  0  0  0
   -5.3460   22.8750  -31.0190 N   0  0  0  0  0  0  0  0  0  0  0  0
   -5.8680   24.1270  -30.8750 C   0  0  0  0  0  0  0  0  0  0  0  0
   -5.1040   25.3510  -30.5560 C   0  0  0  0  0  0  0  0  0  0  0  0
   -3.6820   25.2970  -30.4680 N   0  0  0  0  0  0  0  0  0  0  0  0
   -5.6950   26.4380  -30.3240 O   0  0  0  0  0  0  0  0  0  0  0  0
   -7.2340   24.1210  -31.1480 C   0  0  0  0  0  0  0  0  0  0  0  0
   -7.5360   22.8180  -31.4720 C   0  0  0  0  0  0  0  0  0  0  0  0
   -8.7550   22.2400  -31.8150 C   0  0  0  0  0  0  0  0  0  0  0  0
   -8.7800   20.8590  -32.0670 C   0  0  0  0  0  0  0  0  0  0  0  0
   -7.5980   20.0830  -31.9660 C   0  0  0  0  0  0  0  0  0  0  0  0
   -7.6530   18.6040  -32.2210 C   0  0  0  0  0  0  0  0  0  0  0  0
   -8.9240   18.1300  -31.9480 F   0  0  0  0  0  0  0  0  0  0  0  0
   -6.7400   17.9580  -31.4070 F   0  0  0  0  0  0  0  0  0  0  0  0
   -6.3790   20.7050  -31.6130 C   0  0  0  0  0  0  0  0  0  0  0  0
   -6.3800   22.0860  -31.3860 C   0  0  0  0  0  0  0  0  0  0  0  0
   -0.5816   22.3684  -27.8676 H   0  0  0  0  0  0  0  0  0  0  0  0
   -1.2483   21.7595  -29.4205 H   0  0  0  0  0  0  0  0  0  0  0  0
   -0.0533   23.1006  -29.4205 H   0  0  0  0  0  0  0  0  0  0  0  0
   -2.4900   23.6270  -29.7210 H   0  0  0  0  0  0  0  0  0  0  0  0
   -0.4448   25.0471  -29.0248 H   0  0  0  0  0  0  0  0  0  0  0  0
   -2.1276   25.7112  -29.1212 H   0  0  0  0  0  0  0  0  0  0  0  0
   -0.7394   24.6839  -26.6004 H   0  0  0  0  0  0  0  0  0  0  0  0
   -1.0390   26.4273  -27.0704 H   0  0  0  0  0  0  0  0  0  0  0  0
   -4.3308   24.1736  -26.3134 H   0  0  0  0  0  0  0  0  0  0  0  0
   -4.0993   25.0683  -27.8877 H   0  0  0  0  0  0  0  0  0  0  0  0
   -2.4036   22.7099  -26.9449 H   0  0  0  0  0  0  0  0  0  0  0  0
   -4.2005   21.4671  -27.5694 H   0  0  0  0  0  0  0  0  0  0  0  0
   -4.9997   22.8787  -28.3690 H   0  0  0  0  0  0  0  0  0  0  0  0
   -3.1210   24.7580  -31.1630 H   0  0  0  0  0  0  0  0  0  0  0  0
   -7.9248   24.9763  -31.1122 H   0  0  0  0  0  0  0  0  0  0  0  0
   -9.6701   22.8462  -31.8864 H   0  0  0  0  0  0  0  0  0  0  0  0
   -9.7271   20.3739  -32.3458 H   0  0  0  0  0  0  0  0  0  0  0  0
   -7.4081   18.4106  -33.2758 H   0  0  0  0  0  0  0  0  0  0  0  0
   -5.4531   20.1186  -31.5191 H   0  0  0  0  0  0  0  0  0  0  0  0
  1  2  1  0
  2  3  1  0
  3  4  1  0
  4  5  1  0
  5  6  1  0
  6  7  1  0
  7  8  1  0
  8  9  1  0
  9 10  1  0
 10 11  2  0
 10 12  1  0
 12 13  1  0
 13 14  1  0
 14 15  1  0
 14 16  2  0
 13 17  2  0
 17 18  1  0
 18 19  2  0
 19 20  1  0
 20 21  2  0
 21 22  1  0
 22 23  1  0
 22 24  1  0
 21 25  1  0
 25 26  2  0
  7  2  1  0
 26 12  1  0
 26 18  1  0
  1 27  1  0
  1 28  1  0
  1 29  1  0
  2 30  1  6
  3 31  1  0
  3 32  1  0
  4 33  1  0
  4 34  1  0
  6 35  1  0
  6 36  1  0
  7 37  1  1
  8 38  1  0
  8 39  1  0
 15 40  1  0
 17 41  1  0
 19 42  1  0
 20 43  1  0
 22 44  1  0
 25 45  1  0
M  CHG  2   2   1  15  -1
M  END
>  <UniqueID>  (35) 
35

>  <SMILES>  (35) 
C[N@@H+]1CCOC[C@H]1COC(=O)n1c(C([NH-])=O)cc2ccc(C(F)F)cc21

>  <Energy>  (35) 
97.18379786672918

>  <Genealogy>  (35) 
C[NH+]1CCOCC1COC(=O)n1c(C([NH-])=O)cc2ccc(C(F)F)cc21 (protonated)
C[N@@H+]1CCOC[C@H]1COC(=O)n1c(C([NH-])=O)cc2ccc(C(F)F)cc21 (chirality)
C[N@@H+]1CCOC[C@H]1COC(=O)n1c(C([NH-])=O)cc2ccc(C(F)F)cc21 (3D coordinates assigned)
C[N@@H+]1CCOC[C@H]1COC(=O)n1c(C([NH-])=O)cc2ccc(C(F)F)cc21 (nonaromatic ring conformer: 97.18379786672918 kcal/mol)

>  <smiles>  (35) 
CN1CCOCC1COC(=O)n1c(C(N)=O)cc2ccc(C(F)F)cc21

>  <score_type>  (35) 
oracle

>  <origin>  (35) 
adg

>  <m_score__min__energy>  (35) 
-8.4399999999999995

>  <m_primary>  (35) 
energy

$$$$
35:0
     RDKit          3D

 33 34  0  0  0  0  0  0  0  0999 V2000
   -3.8440   23.1490  -27.9930 C   0  0  0  0  0  0  0  0  0  0  0  0
   -3.3460   21.8280  -28.5190 C   0  0  0  0  0  0  0  0  0  0  0  0
   -2.8070   20.8620  -27.5360 C   0  0  0  0  0  0  0  0  0  0  0  0
   -1.6330   20.4140  -27.6290 O   0  0  0  0  0  0  0  0  0  0  0  0
   -3.3770   21.5130  -29.8320 C   0  0  0  0  0  0  0  0  0  0  0  0
   -3.9560   22.3540  -30.9010 C   0  0  0  0  0  0  0  0  0  0  0  0
   -3.2080   22.7350  -31.8400 O   0  0  0  0  0  0  0  0  0  0  0  0
   -5.3570   22.6710  -30.9480 N   0  0  0  0  0  0  0  0  0  0  0  0
   -5.9390   23.8920  -30.7800 C   0  0  0  0  0  0  0  0  0  0  0  0
   -5.2500   25.1300  -30.3570 C   0  0  0  0  0  0  0  0  0  0  0  0
   -3.8530   25.3050  -30.5740 N   0  0  0  0  0  0  0  0  0  0  0  0
   -5.8990   26.0340  -29.7650 O   0  0  0  0  0  0  0  0  0  0  0  0
   -7.3120   23.8140  -31.0110 C   0  0  0  0  0  0  0  0  0  0  0  0
   -7.5530   22.4970  -31.3330 C   0  0  0  0  0  0  0  0  0  0  0  0
   -8.7410   21.8630  -31.6800 C   0  0  0  0  0  0  0  0  0  0  0  0
   -8.6900   20.4950  -31.9980 C   0  0  0  0  0  0  0  0  0  0  0  0
   -7.4620   19.7860  -31.9550 C   0  0  0  0  0  0  0  0  0  0  0  0
   -7.4090   18.3330  -32.3520 C   0  0  0  0  0  0  0  0  0  0  0  0
   -6.6000   17.6180  -31.4870 F   0  0  0  0  0  0  0  0  0  0  0  0
   -6.8990   18.1950  -33.6320 F   0  0  0  0  0  0  0  0  0  0  0  0
   -8.6850   17.8050  -32.3160 F   0  0  0  0  0  0  0  0  0  0  0  0
   -6.2710   20.4740  -31.6240 C   0  0  0  0  0  0  0  0  0  0  0  0
   -6.3560   21.8320  -31.2950 C   0  0  0  0  0  0  0  0  0  0  0  0
   -3.8375   23.1317  -26.8932 H   0  0  0  0  0  0  0  0  0  0  0  0
   -3.1887   23.9567  -28.3509 H   0  0  0  0  0  0  0  0  0  0  0  0
   -4.8695   23.3231  -28.3509 H   0  0  0  0  0  0  0  0  0  0  0  0
   -3.4458   20.5275  -26.7053 H   0  0  0  0  0  0  0  0  0  0  0  0
   -2.9348   20.5511  -30.1306 H   0  0  0  0  0  0  0  0  0  0  0  0
   -3.4980   26.0370  -31.2270 H   0  0  0  0  0  0  0  0  0  0  0  0
   -8.0463   24.6307  -30.9492 H   0  0  0  0  0  0  0  0  0  0  0  0
   -9.6919   22.4155  -31.7048 H   0  0  0  0  0  0  0  0  0  0  0  0
   -9.6125   19.9682  -32.2834 H   0  0  0  0  0  0  0  0  0  0  0  0
   -5.3015   19.9544  -31.6251 H   0  0  0  0  0  0  0  0  0  0  0  0
  1  2  1  0
  2  3  1  0
  3  4  2  0
  2  5  2  3
  5  6  1  0
  6  7  2  0
  6  8  1  0
  8  9  1  0
  9 10  1  0
 10 11  1  0
 10 12  2  0
  9 13  2  0
 13 14  1  0
 14 15  2  0
 15 16  1  0
 16 17  2  0
 17 18  1  0
 18 19  1  0
 18 20  1  0
 18 21  1  0
 17 22  1  0
 22 23  2  0
 23  8  1  0
 23 14  1  0
  1 24  1  0
  1 25  1  0
  1 26  1  0
  3 27  1  0
  5 28  1  0
 11 29  1  0
 13 30  1  0
 15 31  1  0
 16 32  1  0
 22 33  1  0
M  CHG  1  11  -1
M  END
>  <UniqueID>  (36) 
36

>  <SMILES>  (36) 
CC(C=O)=CC(=O)n1c(C([NH-])=O)cc2ccc(C(F)(F)F)cc21

>  <Energy>  (36) 
75.54342269560676

>  <Genealogy>  (36) 
CC(C=O)=CC(=O)n1c(C([NH-])=O)cc2ccc(C(F)(F)F)cc21 (protonated)
CC(C=O)=CC(=O)n1c(C([NH-])=O)cc2ccc(C(F)(F)F)cc21 (3D coordinates assigned)
CC(C=O)=CC(=O)n1c(C([NH-])=O)cc2ccc(C(F)(F)F)cc21 (optimized conformer: 75.54342269560676 kcal/mol)

>  <smiles>  (36) 
CC(C=O)=CC(=O)n1c(C(N)=O)cc2ccc(C(F)(F)F)cc21

>  <score_type>  (36) 
oracle

>  <origin>  (36) 
adg

>  <m_score__min__energy>  (36) 
-10.1

>  <m_primary>  (36) 
energy

$$$$
36:0
     RDKit          3D

 48 50  0  0  0  0  0  0  0  0999 V2000
   -0.3800   26.9030  -23.6700 C   0  0  0  0  0  0  0  0  0  0  0  0
   -1.5900   26.7370  -24.4640 N   0  0  0  0  0  0  0  0  0  0  0  0
   -1.5900   26.0370  -25.7130 C   0  0  0  0  0  0  0  0  0  0  0  0
   -2.6410   25.2480  -26.0640 N   0  0  0  0  0  0  0  0  0  0  0  0
   -2.6560   24.5810  -27.2480 C   0  0  0  0  0  0  0  0  0  0  0  0
   -1.5680   24.6870  -28.1240 C   0  0  0  0  0  0  0  0  0  0  0  0
   -1.5160   23.9780  -29.3730 N   0  0  0  0  0  0  0  0  0  0  0  0
   -0.7750   22.7650  -29.5910 C   0  0  0  0  0  0  0  0  0  0  0  0
   -0.0980   22.2460  -28.6630 O   0  0  0  0  0  0  0  0  0  0  0  0
   -0.7710   22.1780  -30.8960 N   0  0  0  0  0  0  0  0  0  0  0  0
   -1.8390   21.3370  -31.4250 C   0  0  0  0  0  0  0  0  0  0  0  0
   -3.0680   22.1730  -31.8160 C   0  0  0  0  0  0  0  0  0  0  0  0
   -4.0120   22.3500  -30.6570 C   0  0  0  0  0  0  0  0  0  0  0  0
   -3.6020   22.1390  -29.4800 O   0  0  0  0  0  0  0  0  0  0  0  0
   -5.3850   22.7100  -30.8830 N   0  0  0  0  0  0  0  0  0  0  0  0
   -5.9380   23.9530  -30.8490 C   0  0  0  0  0  0  0  0  0  0  0  0
   -5.2620   25.1800  -30.3880 C   0  0  0  0  0  0  0  0  0  0  0  0
   -3.8580   25.3470  -30.5640 N   0  0  0  0  0  0  0  0  0  0  0  0
   -5.9250   26.0770  -29.8020 O   0  0  0  0  0  0  0  0  0  0  0  0
   -7.2820   23.9050  -31.2180 C   0  0  0  0  0  0  0  0  0  0  0  0
   -7.5390   22.5770  -31.4790 C   0  0  0  0  0  0  0  0  0  0  0  0
   -8.7050   21.9600  -31.9220 C   0  0  0  0  0  0  0  0  0  0  0  0
   -8.6650   20.5760  -32.1600 C   0  0  0  0  0  0  0  0  0  0  0  0
   -7.4750   19.8340  -31.9410 C   0  0  0  0  0  0  0  0  0  0  0  0
   -7.4350   18.3620  -32.2700 C   0  0  0  0  0  0  0  0  0  0  0  0
   -6.9400   18.1680  -33.5500 F   0  0  0  0  0  0  0  0  0  0  0  0
   -6.6160   17.7160  -31.3630 F   0  0  0  0  0  0  0  0  0  0  0  0
   -8.7020   17.8070  -32.2050 F   0  0  0  0  0  0  0  0  0  0  0  0
   -6.3060   20.5010  -31.5090 C   0  0  0  0  0  0  0  0  0  0  0  0
   -6.3770   21.8760  -31.2710 C   0  0  0  0  0  0  0  0  0  0  0  0
   -0.5230   25.5440  -27.7660 C   0  0  0  0  0  0  0  0  0  0  0  0
   -0.5490   26.1920  -26.5730 N   0  0  0  0  0  0  0  0  0  0  0  0
   -0.6355   26.8680  -22.6007 H   0  0  0  0  0  0  0  0  0  0  0  0
    0.3266   26.0934  -23.9049 H   0  0  0  0  0  0  0  0  0  0  0  0
    0.0825   27.8730  -23.9049 H   0  0  0  0  0  0  0  0  0  0  0  0
   -2.4890   27.1350  -24.1020 H   0  0  0  0  0  0  0  0  0  0  0  0
   -3.5217   23.9585  -27.5182 H   0  0  0  0  0  0  0  0  0  0  0  0
   -1.9180   24.4440  -30.2180 H   0  0  0  0  0  0  0  0  0  0  0  0
   -1.4693   20.8060  -32.3146 H   0  0  0  0  0  0  0  0  0  0  0  0
   -2.1391   20.6245  -30.6425 H   0  0  0  0  0  0  0  0  0  0  0  0
   -2.7318   23.1635  -32.1565 H   0  0  0  0  0  0  0  0  0  0  0  0
   -3.6036   21.6419  -32.6167 H   0  0  0  0  0  0  0  0  0  0  0  0
   -3.4850   26.0430  -31.2490 H   0  0  0  0  0  0  0  0  0  0  0  0
   -7.9862   24.7473  -31.2861 H   0  0  0  0  0  0  0  0  0  0  0  0
   -9.6279   22.5371  -32.0807 H   0  0  0  0  0  0  0  0  0  0  0  0
   -9.5675   20.0608  -32.5207 H   0  0  0  0  0  0  0  0  0  0  0  0
   -5.3642   19.9515  -31.3639 H   0  0  0  0  0  0  0  0  0  0  0  0
    0.3230   25.6938  -28.4530 H   0  0  0  0  0  0  0  0  0  0  0  0
  1  2  1  0
  2  3  1  0
  3  4  2  0
  4  5  1  0
  5  6  2  0
  6  7  1  0
  7  8  1  0
  8  9  2  0
  8 10  1  0
 10 11  1  0
 11 12  1  0
 12 13  1  0
 13 14  2  0
 13 15  1  0
 15 16  1  0
 16 17  1  0
 17 18  1  0
 17 19  2  0
 16 20  2  0
 20 21  1  0
 21 22  2  0
 22 23  1  0
 23 24  2  0
 24 25  1  0
 25 26  1  0
 25 27  1  0
 25 28  1  0
 24 29  1  0
 29 30  2  0
  6 31  1  0
 31 32  2  0
 32  3  1  0
 30 15  1  0
 30 21  1  0
  1 33  1  0
  1 34  1  0
  1 35  1  0
  2 36  1  0
  5 37  1  0
  7 38  1  0
 11 39  1  0
 11 40  1  0
 12 41  1  0
 12 42  1  0
 18 43  1  0
 20 44  1  0
 22 45  1  0
 23 46  1  0
 29 47  1  0
 31 48  1  0
M  CHG  2  10  -1  18  -1
M  END
>  <UniqueID>  (37) 
37

>  <SMILES>  (37) 
CNc1ncc(NC(=O)[N-]CCC(=O)n2c(C([NH-])=O)cc3ccc(C(F)(F)F)cc32)cn1

>  <Energy>  (37) 
86.08722912352297

>  <Genealogy>  (37) 
CNc1ncc(NC(=O)[N-]CCC(=O)n2c(C([NH-])=O)cc3ccc(C(F)(F)F)cc32)cn1 (protonated)
CNc1ncc(NC(=O)[N-]CCC(=O)n2c(C([NH-])=O)cc3ccc(C(F)(F)F)cc32)cn1 (3D coordinates assigned)
CNc1ncc(NC(=O)[N-]CCC(=O)n2c(C([NH-])=O)cc3ccc(C(F)(F)F)cc32)cn1 (optimized conformer: 86.08722912352297 kcal/mol)

>  <smiles>  (37) 
CNc1ncc(NC(=O)NCCC(=O)n2c(C(N)=O)cc3ccc(C(F)(F)F)cc32)cn1

>  <score_type>  (37) 
oracle

>  <origin>  (37) 
adg

>  <m_score__min__energy>  (37) 
-12.31

>  <m_primary>  (37) 
energy

$$$$
37:0
     RDKit          3D

 28 29  0  0  0  0  0  0  0  0999 V2000
   -6.3770   18.6920  -32.3280 C   0  0  0  0  0  0  0  0  0  0  0  0
   -5.3860   19.3310  -32.0730 C   0  0  0  0  0  0  0  0  0  0  0  0
   -4.2040   20.0930  -31.7680 C   0  0  0  0  0  0  0  0  0  0  0  0
   -2.9790   19.7790  -32.4020 C   0  0  0  0  0  0  0  0  0  0  0  0
   -1.8150   20.5110  -32.1080 C   0  0  0  0  0  0  0  0  0  0  0  0
   -1.9140   21.5460  -31.1830 C   0  0  0  0  0  0  0  0  0  0  0  0
   -0.9500   22.4030  -30.6970 C   0  0  0  0  0  0  0  0  0  0  0  0
   -1.6110   23.2270  -29.7880 C   0  0  0  0  0  0  0  0  0  0  0  0
   -0.9630   24.3460  -29.0710 C   0  0  0  0  0  0  0  0  0  0  0  0
   -1.6030   25.6130  -28.9580 N   0  0  0  0  0  0  0  0  0  0  0  0
    0.1860   24.1890  -28.5780 O   0  0  0  0  0  0  0  0  0  0  0  0
   -2.9280   22.8910  -29.7130 N   0  0  0  0  0  0  0  0  0  0  0  0
   -3.9330   23.4360  -28.8480 C   0  0  0  0  0  0  0  0  0  0  0  0
   -3.7740   23.3910  -27.5980 O   0  0  0  0  0  0  0  0  0  0  0  0
   -5.1110   24.1640  -29.4200 C   0  0  0  0  0  0  0  0  0  0  0  0
   -4.7490   24.7450  -30.7470 C   0  0  0  0  0  0  0  0  0  0  0  0
   -3.8850   25.6570  -30.8240 O   0  0  0  0  0  0  0  0  0  0  0  0
   -5.4010   24.3160  -31.8960 O   0  0  0  0  0  0  0  0  0  0  0  0
   -3.1000   21.8660  -30.5720 C   0  0  0  0  0  0  0  0  0  0  0  0
   -4.2710   21.1480  -30.8370 C   0  0  0  0  0  0  0  0  0  0  0  0
   -7.2806   18.1094  -32.5605 H   0  0  0  0  0  0  0  0  0  0  0  0
   -2.9367   18.9559  -33.1305 H   0  0  0  0  0  0  0  0  0  0  0  0
   -0.8570   20.2732  -32.5935 H   0  0  0  0  0  0  0  0  0  0  0  0
    0.1155   22.4307  -30.9690 H   0  0  0  0  0  0  0  0  0  0  0  0
   -2.6250   25.7180  -29.1440 H   0  0  0  0  0  0  0  0  0  0  0  0
   -5.9489   23.4623  -29.5446 H   0  0  0  0  0  0  0  0  0  0  0  0
   -5.4052   24.9739  -28.7363 H   0  0  0  0  0  0  0  0  0  0  0  0
   -5.2160   21.3998  -30.3334 H   0  0  0  0  0  0  0  0  0  0  0  0
  1  2  3  0
  2  3  1  0
  3  4  2  0
  4  5  1  0
  5  6  2  0
  6  7  1  0
  7  8  2  0
  8  9  1  0
  9 10  1  0
  9 11  2  0
  8 12  1  0
 12 13  1  0
 13 14  2  0
 13 15  1  0
 15 16  1  0
 16 17  2  0
 16 18  1  0
 12 19  1  0
 19 20  2  0
 20  3  1  0
 19  6  1  0
  1 21  1  0
  4 22  1  0
  5 23  1  0
  7 24  1  0
 10 25  1  0
 15 26  1  0
 15 27  1  0
 20 28  1  0
M  CHG  2  10  -1  18  -1
M  END
>  <UniqueID>  (38) 
38

>  <SMILES>  (38) 
C#Cc1ccc2cc(C([NH-])=O)n(C(=O)CC(=O)[O-])c2c1

>  <Energy>  (38) 
64.6255306628802

>  <Genealogy>  (38) 
C#Cc1ccc2cc(C([NH-])=O)n(C(=O)CC(=O)[O-])c2c1 (protonated)
C#Cc1ccc2cc(C([NH-])=O)n(C(=O)CC(=O)[O-])c2c1 (3D coordinates assigned)
C#Cc1ccc2cc(C([NH-])=O)n(C(=O)CC(=O)[O-])c2c1 (optimized conformer: 64.6255306628802 kcal/mol)

>  <smiles>  (38) 
C#Cc1ccc2cc(C(N)=O)n(C(=O)CC(=O)O)c2c1

>  <score_type>  (38) 
oracle

>  <origin>  (38) 
adg

>  <m_score__min__energy>  (38) 
-11.539999999999999

>  <m_primary>  (38) 
energy

$$$$
38:0
     RDKit          3D

 39 41  0  0  0  0  0  0  0  0999 V2000
   -4.2950   25.6800  -30.8340 N   0  0  0  0  0  0  0  0  0  0  0  0
   -5.6000   25.2730  -30.4300 C   0  0  0  0  0  0  0  0  0  0  0  0
   -6.2930   26.0420  -29.7120 O   0  0  0  0  0  0  0  0  0  0  0  0
   -6.1200   23.9510  -30.8370 C   0  0  0  0  0  0  0  0  0  0  0  0
   -7.4420   23.7120  -31.2050 C   0  0  0  0  0  0  0  0  0  0  0  0
   -7.4900   22.3810  -31.5540 C   0  0  0  0  0  0  0  0  0  0  0  0
   -8.5600   21.6000  -31.9800 C   0  0  0  0  0  0  0  0  0  0  0  0
   -8.3200   20.2390  -32.2410 C   0  0  0  0  0  0  0  0  0  0  0  0
   -7.0220   19.6900  -32.0770 C   0  0  0  0  0  0  0  0  0  0  0  0
   -6.7890   18.2220  -32.3090 C   0  0  0  0  0  0  0  0  0  0  0  0
   -6.4140   17.9650  -33.7700 C   0  0  0  0  0  0  0  0  0  0  0  0
   -4.9260   17.9450  -33.9340 C   0  0  0  0  0  0  0  0  0  0  0  0
   -4.1640   16.8490  -34.3140 C   0  0  0  0  0  0  0  0  0  0  0  0
   -2.8030   17.1460  -34.4530 C   0  0  0  0  0  0  0  0  0  0  0  0
   -2.4940   18.4760  -34.1950 C   0  0  0  0  0  0  0  0  0  0  0  0
   -3.9150   19.2820  -33.7980 S   0  0  0  0  0  0  0  0  0  0  0  0
   -5.9630   20.5130  -31.6370 C   0  0  0  0  0  0  0  0  0  0  0  0
   -6.2320   21.8620  -31.3920 C   0  0  0  0  0  0  0  0  0  0  0  0
   -5.3830   22.8110  -30.9510 N   0  0  0  0  0  0  0  0  0  0  0  0
   -4.0010   22.6160  -30.6240 C   0  0  0  0  0  0  0  0  0  0  0  0
   -3.2670   21.9410  -31.3950 O   0  0  0  0  0  0  0  0  0  0  0  0
   -3.4530   23.1140  -29.3230 C   0  0  0  0  0  0  0  0  0  0  0  0
   -2.1770   23.8520  -29.5610 C   0  0  0  0  0  0  0  0  0  0  0  0
   -1.1680   23.2480  -30.0130 O   0  0  0  0  0  0  0  0  0  0  0  0
   -2.1140   25.2220  -29.3380 O   0  0  0  0  0  0  0  0  0  0  0  0
   -3.4970   25.6690  -30.1620 H   0  0  0  0  0  0  0  0  0  0  0  0
   -8.2720   24.4338  -31.2147 H   0  0  0  0  0  0  0  0  0  0  0  0
   -9.5627   22.0337  -32.1087 H   0  0  0  0  0  0  0  0  0  0  0  0
   -9.1462   19.5943  -32.5753 H   0  0  0  0  0  0  0  0  0  0  0  0
   -5.9710   17.8778  -31.6591 H   0  0  0  0  0  0  0  0  0  0  0  0
   -7.7135   17.6732  -32.0764 H   0  0  0  0  0  0  0  0  0  0  0  0
   -6.8258   16.9945  -34.0840 H   0  0  0  0  0  0  0  0  0  0  0  0
   -6.8294   18.7723  -34.3911 H   0  0  0  0  0  0  0  0  0  0  0  0
   -4.5866   15.8485  -34.4883 H   0  0  0  0  0  0  0  0  0  0  0  0
   -2.0496   16.3974  -34.7393 H   0  0  0  0  0  0  0  0  0  0  0  0
   -1.4909   18.9249  -34.2424 H   0  0  0  0  0  0  0  0  0  0  0  0
   -4.9527   20.1032  -31.4909 H   0  0  0  0  0  0  0  0  0  0  0  0
   -4.1834   23.7894  -28.8537 H   0  0  0  0  0  0  0  0  0  0  0  0
   -3.2594   22.2585  -28.6592 H   0  0  0  0  0  0  0  0  0  0  0  0
  1  2  1  0
  2  3  2  0
  2  4  1  0
  4  5  2  0
  5  6  1  0
  6  7  2  0
  7  8  1  0
  8  9  2  0
  9 10  1  0
 10 11  1  0
 11 12  1  0
 12 13  2  0
 13 14  1  0
 14 15  2  0
 15 16  1  0
  9 17  1  0
 17 18  2  0
 18 19  1  0
 19 20  1  0
 20 21  2  0
 20 22  1  0
 22 23  1  0
 23 24  2  0
 23 25  1  0
 19  4  1  0
 18  6  1  0
 16 12  1  0
  1 26  1  0
  5 27  1  0
  7 28  1  0
  8 29  1  0
 10 30  1  0
 10 31  1  0
 11 32  1  0
 11 33  1  0
 13 34  1  0
 14 35  1  0
 15 36  1  0
 17 37  1  0
 22 38  1  0
 22 39  1  0
M  CHG  2   1  -1  25  -1
M  END
>  <UniqueID>  (39) 
39

>  <SMILES>  (39) 
[NH-]C(=O)c1cc2ccc(CCc3cccs3)cc2n1C(=O)CC(=O)[O-]

>  <Energy>  (39) 
100.43357424107775

>  <Genealogy>  (39) 
[NH-]C(=O)c1cc2ccc(CCc3cccs3)cc2n1C(=O)CC(=O)[O-] (protonated)
[NH-]C(=O)c1cc2ccc(CCc3cccs3)cc2n1C(=O)CC(=O)[O-] (3D coordinates assigned)
[NH-]C(=O)c1cc2ccc(CCc3cccs3)cc2n1C(=O)CC(=O)[O-] (optimized conformer: 100.43357424107775 kcal/mol)

>  <smiles>  (39) 
NC(=O)c1cc2ccc(CCc3cccs3)cc2n1C(=O)CC(=O)O

>  <score_type>  (39) 
oracle

>  <origin>  (39) 
adg

>  <m_score__min__energy>  (39) 
-12.609999999999999

>  <m_primary>  (39) 
energy

$$$$
39:0
     RDKit          3D

 36 38  0  0  0  0  0  0  0  0999 V2000
   -6.8600   16.9720  -33.5870 C   0  0  0  0  0  0  0  0  0  0  0  0
   -6.9750   18.0790  -33.1220 C   0  0  0  0  0  0  0  0  0  0  0  0
   -7.1130   19.3990  -32.5670 C   0  0  0  0  0  0  0  0  0  0  0  0
   -8.4010   19.9410  -32.3480 C   0  0  0  0  0  0  0  0  0  0  0  0
   -8.5490   21.2240  -31.7950 C   0  0  0  0  0  0  0  0  0  0  0  0
   -7.3940   21.9350  -31.4810 C   0  0  0  0  0  0  0  0  0  0  0  0
   -7.2510   23.1780  -30.9080 C   0  0  0  0  0  0  0  0  0  0  0  0
   -5.8770   23.3840  -30.8140 C   0  0  0  0  0  0  0  0  0  0  0  0
   -5.2750   24.6320  -30.3060 C   0  0  0  0  0  0  0  0  0  0  0  0
   -5.7960   25.2870  -29.1490 N   0  0  0  0  0  0  0  0  0  0  0  0
   -4.2500   25.0990  -30.8710 O   0  0  0  0  0  0  0  0  0  0  0  0
   -5.1950   22.3070  -31.2970 N   0  0  0  0  0  0  0  0  0  0  0  0
   -3.7740   22.0890  -31.2620 C   0  0  0  0  0  0  0  0  0  0  0  0
   -3.0550   22.4820  -32.2200 O   0  0  0  0  0  0  0  0  0  0  0  0
   -3.1910   21.3740  -30.1650 N   0  0  0  0  0  0  0  0  0  0  0  0
   -2.4910   21.9450  -29.0510 C   0  0  0  0  0  0  0  0  0  0  0  0
   -2.3340   21.2630  -27.8340 C   0  0  0  0  0  0  0  0  0  0  0  0
   -1.6370   21.8340  -26.8180 N   0  0  0  0  0  0  0  0  0  0  0  0
   -1.0670   23.0620  -26.9380 C   0  0  0  0  0  0  0  0  0  0  0  0
   -1.1730   23.7780  -28.1410 C   0  0  0  0  0  0  0  0  0  0  0  0
   -0.5620   25.0730  -28.2890 N   0  0  0  0  0  0  0  0  0  0  0  0
    0.5780   25.2930  -27.8320 O   0  0  0  0  0  0  0  0  0  0  0  0
   -1.2260   26.0890  -28.9360 O   0  0  0  0  0  0  0  0  0  0  0  0
   -1.8860   23.1970  -29.2020 C   0  0  0  0  0  0  0  0  0  0  0  0
   -6.1380   21.4280  -31.7060 C   0  0  0  0  0  0  0  0  0  0  0  0
   -5.9630   20.1450  -32.2370 C   0  0  0  0  0  0  0  0  0  0  0  0
   -6.7551   15.9625  -34.0111 H   0  0  0  0  0  0  0  0  0  0  0  0
   -9.2929   19.3540  -32.6125 H   0  0  0  0  0  0  0  0  0  0  0  0
   -9.5459   21.6531  -31.6158 H   0  0  0  0  0  0  0  0  0  0  0  0
   -8.0515   23.8629  -30.5916 H   0  0  0  0  0  0  0  0  0  0  0  0
   -6.5340   24.8410  -28.5620 H   0  0  0  0  0  0  0  0  0  0  0  0
   -5.3850   26.1930  -28.8310 H   0  0  0  0  0  0  0  0  0  0  0  0
   -2.7763   20.2644  -27.7032 H   0  0  0  0  0  0  0  0  0  0  0  0
   -0.5200   23.4970  -26.0885 H   0  0  0  0  0  0  0  0  0  0  0  0
   -1.9695   23.7310  -30.1601 H   0  0  0  0  0  0  0  0  0  0  0  0
   -4.9562   19.7301  -32.3926 H   0  0  0  0  0  0  0  0  0  0  0  0
  1  2  3  0
  2  3  1  0
  3  4  2  0
  4  5  1  0
  5  6  2  0
  6  7  1  0
  7  8  2  0
  8  9  1  0
  9 10  1  0
  9 11  2  0
  8 12  1  0
 12 13  1  0
 13 14  2  0
 13 15  1  0
 15 16  1  0
 16 17  2  0
 17 18  1  0
 18 19  2  0
 19 20  1  0
 20 21  1  0
 21 22  2  0
 21 23  1  0
 20 24  2  0
 12 25  1  0
 25 26  2  0
 26  3  1  0
 25  6  1  0
 24 16  1  0
  1 27  1  0
  4 28  1  0
  5 29  1  0
  7 30  1  0
 10 31  1  0
 10 32  1  0
 17 33  1  0
 19 34  1  0
 24 35  1  0
 26 36  1  0
M  CHG  3  15  -1  21   1  23  -1
M  END
>  <UniqueID>  (40) 
40

>  <SMILES>  (40) 
C#Cc1ccc2cc(C(N)=O)n(C(=O)[N-]c3cncc([N+](=O)[O-])c3)c2c1

>  <Energy>  (40) 
81.99866756229409

>  <Genealogy>  (40) 
C#Cc1ccc2cc(C(N)=O)n(C(=O)[N-]c3cncc([N+](=O)[O-])c3)c2c1 (protonated)
C#Cc1ccc2cc(C(N)=O)n(C(=O)[N-]c3cncc([N+](=O)[O-])c3)c2c1 (3D coordinates assigned)
C#Cc1ccc2cc(C(N)=O)n(C(=O)[N-]c3cncc([N+](=O)[O-])c3)c2c1 (optimized conformer: 81.99866756229409 kcal/mol)

>  <smiles>  (40) 
C#Cc1ccc2cc(C(N)=O)n(C(=O)Nc3cncc([N+](=O)[O-])c3)c2c1

>  <score_type>  (40) 
oracle

>  <origin>  (40) 
adg

>  <m_score__min__energy>  (40) 
-10.77

>  <m_primary>  (40) 
energy

$$$$
40:0
     RDKit          3D

 43 45  0  0  0  0  0  0  0  0999 V2000
   -2.2010   25.2440  -27.0990 C   0  0  0  0  0  0  0  0  0  0  0  0
   -3.5140   24.6820  -27.4630 N   0  0  0  0  0  0  0  0  0  0  0  0
   -4.4890   24.8790  -26.3740 C   0  0  0  0  0  0  0  0  0  0  0  0
   -3.4200   23.2610  -27.8760 C   0  0  0  0  0  0  0  0  0  0  0  0
   -2.6880   23.0630  -29.1750 C   0  0  0  0  0  0  0  0  0  0  0  0
   -1.6790   23.7730  -29.4370 O   0  0  0  0  0  0  0  0  0  0  0  0
   -3.1560   22.1030  -30.0820 O   0  0  0  0  0  0  0  0  0  0  0  0
   -3.8930   22.3810  -31.2410 C   0  0  0  0  0  0  0  0  0  0  0  0
   -3.3450   22.3620  -32.3760 O   0  0  0  0  0  0  0  0  0  0  0  0
   -5.2970   22.6650  -31.1330 N   0  0  0  0  0  0  0  0  0  0  0  0
   -5.8890   23.8160  -30.7050 C   0  0  0  0  0  0  0  0  0  0  0  0
   -5.1980   24.9800  -30.1110 C   0  0  0  0  0  0  0  0  0  0  0  0
   -3.8630   25.3100  -30.4840 N   0  0  0  0  0  0  0  0  0  0  0  0
   -5.7780   25.6640  -29.2250 O   0  0  0  0  0  0  0  0  0  0  0  0
   -7.2730   23.7270  -30.8280 C   0  0  0  0  0  0  0  0  0  0  0  0
   -7.5140   22.4720  -31.3380 C   0  0  0  0  0  0  0  0  0  0  0  0
   -8.7160   21.8550  -31.6690 C   0  0  0  0  0  0  0  0  0  0  0  0
   -8.6680   20.5600  -32.2070 C   0  0  0  0  0  0  0  0  0  0  0  0
   -7.4210   19.9010  -32.4170 C   0  0  0  0  0  0  0  0  0  0  0  0
   -7.2950   18.5080  -33.0100 C   0  0  0  0  0  0  0  0  0  0  0  0
   -6.3140   17.5510  -32.3460 C   0  0  0  0  0  0  0  0  0  0  0  0
   -5.9830   18.1640  -33.7020 C   0  0  0  0  0  0  0  0  0  0  0  0
   -6.2250   20.5680  -32.0650 C   0  0  0  0  0  0  0  0  0  0  0  0
   -6.3060   21.8510  -31.5130 C   0  0  0  0  0  0  0  0  0  0  0  0
   -2.1098   25.2830  -26.0035 H   0  0  0  0  0  0  0  0  0  0  0  0
   -1.4032   24.6085  -27.5109 H   0  0  0  0  0  0  0  0  0  0  0  0
   -2.1100   26.2599  -27.5109 H   0  0  0  0  0  0  0  0  0  0  0  0
   -3.8630   25.2200  -28.2930 H   0  0  0  0  0  0  0  0  0  0  0  0
   -3.9808   24.7763  -25.4038 H   0  0  0  0  0  0  0  0  0  0  0  0
   -4.9288   25.8842  -26.4530 H   0  0  0  0  0  0  0  0  0  0  0  0
   -5.2846   24.1234  -26.4530 H   0  0  0  0  0  0  0  0  0  0  0  0
   -2.8907   22.7036  -27.0892 H   0  0  0  0  0  0  0  0  0  0  0  0
   -4.4476   22.8975  -28.0240 H   0  0  0  0  0  0  0  0  0  0  0  0
   -3.1890   24.5690  -30.7780 H   0  0  0  0  0  0  0  0  0  0  0  0
   -8.0160   24.4966  -30.5718 H   0  0  0  0  0  0  0  0  0  0  0  0
   -9.6767   22.3677  -31.5134 H   0  0  0  0  0  0  0  0  0  0  0  0
   -9.6045   20.0465  -32.4702 H   0  0  0  0  0  0  0  0  0  0  0  0
   -8.3583   18.4612  -33.2879 H   0  0  0  0  0  0  0  0  0  0  0  0
   -5.7594   17.8659  -31.4498 H   0  0  0  0  0  0  0  0  0  0  0  0
   -6.3740   16.5270  -31.9488 H   0  0  0  0  0  0  0  0  0  0  0  0
   -5.1895   18.9213  -33.7844 H   0  0  0  0  0  0  0  0  0  0  0  0
   -5.7051   17.7656  -34.6889 H   0  0  0  0  0  0  0  0  0  0  0  0
   -5.2484   20.0868  -32.2223 H   0  0  0  0  0  0  0  0  0  0  0  0
  1  2  1  0
  2  3  1  0
  2  4  1  0
  4  5  1  0
  5  6  2  0
  5  7  1  0
  7  8  1  0
  8  9  2  0
  8 10  1  0
 10 11  1  0
 11 12  1  0
 12 13  1  0
 12 14  2  0
 11 15  2  0
 15 16  1  0
 16 17  2  0
 17 18  1  0
 18 19  2  0
 19 20  1  0
 20 21  1  0
 21 22  1  0
 19 23  1  0
 23 24  2  0
 24 10  1  0
 24 16  1  0
 22 20  1  0
  1 25  1  0
  1 26  1  0
  1 27  1  0
  2 28  1  0
  3 29  1  0
  3 30  1  0
  3 31  1  0
  4 32  1  0
  4 33  1  0
 13 34  1  0
 15 35  1  0
 17 36  1  0
 18 37  1  0
 20 38  1  0
 21 39  1  0
 21 40  1  0
 22 41  1  0
 22 42  1  0
 23 43  1  0
M  CHG  2   2   1  13  -1
M  END
>  <UniqueID>  (41) 
41

>  <SMILES>  (41) 
C[NH+](C)CC(=O)OC(=O)n1c(C([NH-])=O)cc2ccc(C3CC3)cc21

>  <Energy>  (41) 
352.51904158268337

>  <Genealogy>  (41) 
C[NH+](C)CC(=O)OC(=O)n1c(C([NH-])=O)cc2ccc(C3CC3)cc21 (protonated)
C[NH+](C)CC(=O)OC(=O)n1c(C([NH-])=O)cc2ccc(C3CC3)cc21 (3D coordinates assigned)
C[NH+](C)CC(=O)OC(=O)n1c(C([NH-])=O)cc2ccc(C3CC3)cc21 (nonaromatic ring conformer: 352.51904158268337 kcal/mol)

>  <smiles>  (41) 
CN(C)CC(=O)OC(=O)n1c(C(N)=O)cc2ccc(C3CC3)cc21

>  <score_type>  (41) 
oracle

>  <origin>  (41) 
adg

>  <m_score__min__energy>  (41) 
-10.029999999999999

>  <m_primary>  (41) 
energy

$$$$
41:0
     RDKit          3D

 43 44  0  0  0  0  0  0  0  0999 V2000
   -2.6180   19.2400  -33.2660 C   0  0  0  0  0  0  0  0  0  0  0  0
   -3.6690   19.3100  -34.2020 O   0  0  0  0  0  0  0  0  0  0  0  0
   -4.2600   18.0330  -34.3380 C   0  0  0  0  0  0  0  0  0  0  0  0
   -5.7650   18.1890  -34.5570 C   0  0  0  0  0  0  0  0  0  0  0  0
   -6.4730   18.3830  -33.2800 N   0  0  0  0  0  0  0  0  0  0  0  0
   -7.0280   17.2130  -32.5920 C   0  0  0  0  0  0  0  0  0  0  0  0
   -6.7530   19.7100  -32.7870 C   0  0  0  0  0  0  0  0  0  0  0  0
   -8.0820   20.2060  -32.7770 C   0  0  0  0  0  0  0  0  0  0  0  0
   -8.3650   21.4930  -32.2930 C   0  0  0  0  0  0  0  0  0  0  0  0
   -7.3070   22.2590  -31.8160 C   0  0  0  0  0  0  0  0  0  0  0  0
   -7.2980   23.5420  -31.3190 C   0  0  0  0  0  0  0  0  0  0  0  0
   -5.9670   23.8040  -31.0040 C   0  0  0  0  0  0  0  0  0  0  0  0
   -5.5140   25.0630  -30.3780 C   0  0  0  0  0  0  0  0  0  0  0  0
   -4.1700   25.5220  -30.5300 N   0  0  0  0  0  0  0  0  0  0  0  0
   -6.3110   25.7150  -29.6530 O   0  0  0  0  0  0  0  0  0  0  0  0
   -5.1800   22.7330  -31.3040 N   0  0  0  0  0  0  0  0  0  0  0  0
   -3.7460   22.6640  -31.2390 C   0  0  0  0  0  0  0  0  0  0  0  0
   -3.0830   22.3180  -32.2540 O   0  0  0  0  0  0  0  0  0  0  0  0
   -3.0920   22.9780  -30.0440 O   0  0  0  0  0  0  0  0  0  0  0  0
   -1.6730   23.0170  -29.9310 C   0  0  0  0  0  0  0  0  0  0  0  0
   -1.2500   24.3190  -29.3360 C   0  0  0  0  0  0  0  0  0  0  0  0
   -2.0330   25.3050  -29.3470 O   0  0  0  0  0  0  0  0  0  0  0  0
    0.0320   24.4650  -28.8200 O   0  0  0  0  0  0  0  0  0  0  0  0
   -6.0170   21.7920  -31.7990 C   0  0  0  0  0  0  0  0  0  0  0  0
   -5.7040   20.5210  -32.2950 C   0  0  0  0  0  0  0  0  0  0  0  0
   -3.0319   19.2676  -32.2472 H   0  0  0  0  0  0  0  0  0  0  0  0
   -2.0605   18.3027  -33.4101 H   0  0  0  0  0  0  0  0  0  0  0  0
   -1.9411   20.0951  -33.4101 H   0  0  0  0  0  0  0  0  0  0  0  0
   -3.8159   17.5133  -35.1998 H   0  0  0  0  0  0  0  0  0  0  0  0
   -4.0811   17.4469  -33.4245 H   0  0  0  0  0  0  0  0  0  0  0  0
   -5.9449   19.0611  -35.2028 H   0  0  0  0  0  0  0  0  0  0  0  0
   -6.1447   17.2710  -35.0292 H   0  0  0  0  0  0  0  0  0  0  0  0
   -6.9582   17.3601  -31.5041 H   0  0  0  0  0  0  0  0  0  0  0  0
   -8.0825   17.0856  -32.8779 H   0  0  0  0  0  0  0  0  0  0  0  0
   -6.4596   16.3157  -32.8779 H   0  0  0  0  0  0  0  0  0  0  0  0
   -8.9005   19.5746  -33.1530 H   0  0  0  0  0  0  0  0  0  0  0  0
   -9.3932   21.8839  -32.2911 H   0  0  0  0  0  0  0  0  0  0  0  0
   -8.1582   24.2166  -31.1966 H   0  0  0  0  0  0  0  0  0  0  0  0
   -3.4450   24.9260  -30.9860 H   0  0  0  0  0  0  0  0  0  0  0  0
   -3.8780   26.4340  -30.1140 H   0  0  0  0  0  0  0  0  0  0  0  0
   -1.3351   22.1932  -29.2852 H   0  0  0  0  0  0  0  0  0  0  0  0
   -1.2255   22.9113  -30.9303 H   0  0  0  0  0  0  0  0  0  0  0  0
   -4.6647   20.1608  -32.3019 H   0  0  0  0  0  0  0  0  0  0  0  0
  1  2  1  0
  2  3  1  0
  3  4  1  0
  4  5  1  0
  5  6  1  0
  5  7  1  0
  7  8  2  0
  8  9  1  0
  9 10  2  0
 10 11  1  0
 11 12  2  0
 12 13  1  0
 13 14  1  0
 13 15  2  0
 12 16  1  0
 16 17  1  0
 17 18  2  0
 17 19  1  0
 19 20  1  0
 20 21  1  0
 21 22  2  0
 21 23  1  0
 16 24  1  0
 24 25  2  0
 25  7  1  0
 24 10  1  0
  1 26  1  0
  1 27  1  0
  1 28  1  0
  3 29  1  0
  3 30  1  0
  4 31  1  0
  4 32  1  0
  6 33  1  0
  6 34  1  0
  6 35  1  0
  8 36  1  0
  9 37  1  0
 11 38  1  0
 14 39  1  0
 14 40  1  0
 20 41  1  0
 20 42  1  0
 25 43  1  0
M  CHG  1  23  -1
M  END
>  <UniqueID>  (42) 
42

>  <SMILES>  (42) 
COCCN(C)c1ccc2cc(C(N)=O)n(C(=O)OCC(=O)[O-])c2c1

>  <Energy>  (42) 
79.55792545675405

>  <Genealogy>  (42) 
COCCN(C)c1ccc2cc(C(N)=O)n(C(=O)OCC(=O)[O-])c2c1 (protonated)
COCCN(C)c1ccc2cc(C(N)=O)n(C(=O)OCC(=O)[O-])c2c1 (3D coordinates assigned)
COCCN(C)c1ccc2cc(C(N)=O)n(C(=O)OCC(=O)[O-])c2c1 (optimized conformer: 79.55792545675405 kcal/mol)

>  <smiles>  (42) 
COCCN(C)c1ccc2cc(C(N)=O)n(C(=O)OCC(=O)O)c2c1

>  <score_type>  (42) 
oracle

>  <origin>  (42) 
adg

>  <m_score__min__energy>  (42) 
-9.8300000000000001

>  <m_primary>  (42) 
energy

$$$$
42:0
     RDKit          3D

 43 45  0  0  0  0  0  0  0  0999 V2000
   -2.1430   20.8790  -32.1850 C   0  0  0  0  0  0  0  0  0  0  0  0
   -2.9590   21.8930  -32.4720 C   0  0  0  0  0  0  0  0  0  0  0  0
   -3.6510   22.6760  -31.4300 C   0  0  0  0  0  0  0  0  0  0  0  0
   -2.9860   23.3310  -30.5800 O   0  0  0  0  0  0  0  0  0  0  0  0
   -5.0870   22.6580  -31.3420 N   0  0  0  0  0  0  0  0  0  0  0  0
   -5.8980   23.6560  -30.8910 C   0  0  0  0  0  0  0  0  0  0  0  0
   -5.4500   24.9160  -30.2620 C   0  0  0  0  0  0  0  0  0  0  0  0
   -6.0180   25.3740  -29.0330 N   0  0  0  0  0  0  0  0  0  0  0  0
   -4.5880   25.6270  -30.8450 O   0  0  0  0  0  0  0  0  0  0  0  0
   -7.2370   23.3220  -31.0690 C   0  0  0  0  0  0  0  0  0  0  0  0
   -7.2240   22.0680  -31.6390 C   0  0  0  0  0  0  0  0  0  0  0  0
   -8.2820   21.2580  -32.0360 C   0  0  0  0  0  0  0  0  0  0  0  0
   -7.9780   20.0180  -32.6230 C   0  0  0  0  0  0  0  0  0  0  0  0
   -6.6300   19.6140  -32.8230 C   0  0  0  0  0  0  0  0  0  0  0  0
   -6.3280   18.3290  -33.4200 N   0  0  0  0  0  0  0  0  0  0  0  0
   -6.7930   17.0820  -32.7960 C   0  0  0  0  0  0  0  0  0  0  0  0
   -6.8680   15.9530  -33.8360 C   0  0  0  0  0  0  0  0  0  0  0  0
   -5.5860   15.7380  -34.5520 N   0  0  0  0  0  0  0  0  0  0  0  0
   -4.8270   14.6230  -33.9620 C   0  0  0  0  0  0  0  0  0  0  0  0
   -4.7300   16.9440  -34.6690 C   0  0  0  0  0  0  0  0  0  0  0  0
   -5.5420   18.2430  -34.6590 C   0  0  0  0  0  0  0  0  0  0  0  0
   -5.5850   20.4820  -32.4210 C   0  0  0  0  0  0  0  0  0  0  0  0
   -5.9160   21.6920  -31.8000 C   0  0  0  0  0  0  0  0  0  0  0  0
   -1.6490   20.3240  -32.9961 H   0  0  0  0  0  0  0  0  0  0  0  0
   -1.9636   20.5971  -31.1370 H   0  0  0  0  0  0  0  0  0  0  0  0
   -3.1231   22.1566  -33.5273 H   0  0  0  0  0  0  0  0  0  0  0  0
   -5.6630   26.2480  -28.5880 H   0  0  0  0  0  0  0  0  0  0  0  0
   -6.8540   24.9090  -28.6170 H   0  0  0  0  0  0  0  0  0  0  0  0
   -8.1170   23.9290  -30.8101 H   0  0  0  0  0  0  0  0  0  0  0  0
   -9.3249   21.5780  -31.8949 H   0  0  0  0  0  0  0  0  0  0  0  0
   -8.7954   19.3500  -32.9323 H   0  0  0  0  0  0  0  0  0  0  0  0
   -6.0923   16.7933  -31.9987 H   0  0  0  0  0  0  0  0  0  0  0  0
   -7.7971   17.2470  -32.3782 H   0  0  0  0  0  0  0  0  0  0  0  0
   -7.1429   15.0203  -33.3217 H   0  0  0  0  0  0  0  0  0  0  0  0
   -7.6184   16.2453  -34.5854 H   0  0  0  0  0  0  0  0  0  0  0  0
   -4.8718   14.6889  -32.8649 H   0  0  0  0  0  0  0  0  0  0  0  0
   -5.2635   13.6681  -34.2901 H   0  0  0  0  0  0  0  0  0  0  0  0
   -3.7786   14.6789  -34.2901 H   0  0  0  0  0  0  0  0  0  0  0  0
   -4.0269   16.9610  -33.8232 H   0  0  0  0  0  0  0  0  0  0  0  0
   -4.2023   16.8871  -35.6325 H   0  0  0  0  0  0  0  0  0  0  0  0
   -4.8575   19.1021  -34.7176 H   0  0  0  0  0  0  0  0  0  0  0  0
   -6.2231   18.2523  -35.5227 H   0  0  0  0  0  0  0  0  0  0  0  0
   -4.5332   20.2102  -32.5937 H   0  0  0  0  0  0  0  0  0  0  0  0
  1  2  2  0
  2  3  1  0
  3  4  2  0
  3  5  1  0
  5  6  1  0
  6  7  1  0
  7  8  1  0
  7  9  2  0
  6 10  2  0
 10 11  1  0
 11 12  2  0
 12 13  1  0
 13 14  2  0
 14 15  1  0
 15 16  1  0
 16 17  1  0
 17 18  1  0
 18 19  1  0
 18 20  1  0
 20 21  1  0
 14 22  1  0
 22 23  2  0
 23  5  1  0
 23 11  1  0
 21 15  1  0
  1 24  1  0
  1 25  1  0
  2 26  1  0
  8 27  1  0
  8 28  1  0
 10 29  1  0
 12 30  1  0
 13 31  1  0
 16 32  1  0
 16 33  1  0
 17 34  1  0
 17 35  1  0
 19 36  1  0
 19 37  1  0
 19 38  1  0
 20 39  1  0
 20 40  1  0
 21 41  1  0
 21 42  1  0
 22 43  1  0
M  END
>  <UniqueID>  (43) 
43

>  <SMILES>  (43) 
C=CC(=O)n1c(C(N)=O)cc2ccc(N3CCN(C)CC3)cc21

>  <Energy>  (43) 
92.57199384657004

>  <Genealogy>  (43) 
C=CC(=O)n1c(C(N)=O)cc2ccc(N3CCN(C)CC3)cc21 (3D coordinates assigned)
C=CC(=O)n1c(C(N)=O)cc2ccc(N3CCN(C)CC3)cc21 (nonaromatic ring conformer: 92.57199384657004 kcal/mol)

>  <smiles>  (43) 
C=CC(=O)n1c(C(N)=O)cc2ccc(N3CCN(C)CC3)cc21

>  <score_type>  (43) 
oracle

>  <origin>  (43) 
adg

>  <m_score__min__energy>  (43) 
-9.3699999999999992

>  <m_primary>  (43) 
energy

$$$$
43:0
     RDKit          3D

 27 28  0  0  0  0  0  0  0  0999 V2000
   -6.4480   19.0940  -32.1930 C   0  0  0  0  0  0  0  0  0  0  0  0
   -5.7410   20.2030  -32.9660 C   0  0  0  0  0  0  0  0  0  0  0  0
   -5.3910   19.7290  -34.2210 F   0  0  0  0  0  0  0  0  0  0  0  0
   -6.6180   21.2630  -33.1430 F   0  0  0  0  0  0  0  0  0  0  0  0
   -4.5090   20.6630  -32.2180 C   0  0  0  0  0  0  0  0  0  0  0  0
   -3.3550   19.8380  -32.1640 C   0  0  0  0  0  0  0  0  0  0  0  0
   -2.1950   20.2670  -31.5000 C   0  0  0  0  0  0  0  0  0  0  0  0
   -2.2060   21.5310  -30.9180 C   0  0  0  0  0  0  0  0  0  0  0  0
   -1.2280   22.1830  -30.2030 C   0  0  0  0  0  0  0  0  0  0  0  0
   -1.7790   23.4180  -29.8650 C   0  0  0  0  0  0  0  0  0  0  0  0
   -1.0270   24.4770  -29.1630 C   0  0  0  0  0  0  0  0  0  0  0  0
   -1.5930   25.7690  -28.9640 N   0  0  0  0  0  0  0  0  0  0  0  0
    0.1510   24.2530  -28.7760 O   0  0  0  0  0  0  0  0  0  0  0  0
   -3.0510   23.5220  -30.3470 N   0  0  0  0  0  0  0  0  0  0  0  0
   -3.9840   24.5930  -30.1330 C   0  0  0  0  0  0  0  0  0  0  0  0
   -3.8680   25.6750  -30.7680 O   0  0  0  0  0  0  0  0  0  0  0  0
   -5.0410   24.4360  -29.2460 O   0  0  0  0  0  0  0  0  0  0  0  0
   -3.2950   22.3590  -30.9920 C   0  0  0  0  0  0  0  0  0  0  0  0
   -4.4720   21.9500  -31.6310 C   0  0  0  0  0  0  0  0  0  0  0  0
   -6.3354   19.2706  -31.1131 H   0  0  0  0  0  0  0  0  0  0  0  0
   -7.5165   19.0887  -32.4543 H   0  0  0  0  0  0  0  0  0  0  0  0
   -6.0018   18.1231  -32.4543 H   0  0  0  0  0  0  0  0  0  0  0  0
   -3.3700   18.8505  -32.6484 H   0  0  0  0  0  0  0  0  0  0  0  0
   -1.3046   19.6237  -31.4415 H   0  0  0  0  0  0  0  0  0  0  0  0
   -0.2245   21.8092  -29.9515 H   0  0  0  0  0  0  0  0  0  0  0  0
   -2.6270   25.9110  -28.9770 H   0  0  0  0  0  0  0  0  0  0  0  0
   -5.3478   22.6140  -31.6756 H   0  0  0  0  0  0  0  0  0  0  0  0
  1  2  1  0
  2  3  1  0
  2  4  1  0
  2  5  1  0
  5  6  2  0
  6  7  1  0
  7  8  2  0
  8  9  1  0
  9 10  2  0
 10 11  1  0
 11 12  1  0
 11 13  2  0
 10 14  1  0
 14 15  1  0
 15 16  2  0
 15 17  1  0
 14 18  1  0
 18 19  2  0
 19  5  1  0
 18  8  1  0
  1 20  1  0
  1 21  1  0
  1 22  1  0
  6 23  1  0
  7 24  1  0
  9 25  1  0
 12 26  1  0
 19 27  1  0
M  CHG  2  12  -1  17  -1
M  END
>  <UniqueID>  (44) 
44

>  <SMILES>  (44) 
CC(F)(F)c1ccc2cc(C([NH-])=O)n(C(=O)[O-])c2c1

>  <Energy>  (44) 
65.62141718237721

>  <Genealogy>  (44) 
CC(F)(F)c1ccc2cc(C([NH-])=O)n(C(=O)[O-])c2c1 (protonated)
CC(F)(F)c1ccc2cc(C([NH-])=O)n(C(=O)[O-])c2c1 (3D coordinates assigned)
CC(F)(F)c1ccc2cc(C([NH-])=O)n(C(=O)[O-])c2c1 (optimized conformer: 65.62141718237721 kcal/mol)

>  <smiles>  (44) 
CC(F)(F)c1ccc2cc(C(N)=O)n(C(=O)O)c2c1

>  <score_type>  (44) 
oracle

>  <origin>  (44) 
adg

>  <m_score__min__energy>  (44) 
-9.9800000000000004

>  <m_primary>  (44) 
energy

$$$$
44:0
     RDKit          3D

 40 41  0  0  0  0  0  0  0  0999 V2000
   -3.3340   23.7960  -27.5410 C   0  0  0  0  0  0  0  0  0  0  0  0
   -2.3460   23.5260  -28.6010 N   0  0  0  0  0  0  0  0  0  0  0  0
   -1.2780   24.5430  -28.5500 C   0  0  0  0  0  0  0  0  0  0  0  0
   -1.8060   22.1540  -28.4470 C   0  0  0  0  0  0  0  0  0  0  0  0
   -2.3130   21.1950  -29.5380 C   0  0  0  0  0  0  0  0  0  0  0  0
   -3.6570   21.5130  -29.8950 O   0  0  0  0  0  0  0  0  0  0  0  0
   -3.9930   22.4690  -30.8610 C   0  0  0  0  0  0  0  0  0  0  0  0
   -3.1010   22.9800  -31.5900 O   0  0  0  0  0  0  0  0  0  0  0  0
   -5.3610   22.8820  -31.0070 N   0  0  0  0  0  0  0  0  0  0  0  0
   -5.8680   24.1430  -30.8940 C   0  0  0  0  0  0  0  0  0  0  0  0
   -5.1270   25.3370  -30.4390 C   0  0  0  0  0  0  0  0  0  0  0  0
   -3.7040   25.3000  -30.3540 N   0  0  0  0  0  0  0  0  0  0  0  0
   -5.7330   26.4040  -30.1590 O   0  0  0  0  0  0  0  0  0  0  0  0
   -7.2300   24.1500  -31.1910 C   0  0  0  0  0  0  0  0  0  0  0  0
   -7.5460   22.8440  -31.4860 C   0  0  0  0  0  0  0  0  0  0  0  0
   -8.7610   22.2810  -31.8650 C   0  0  0  0  0  0  0  0  0  0  0  0
   -8.7920   20.9030  -32.1390 C   0  0  0  0  0  0  0  0  0  0  0  0
   -7.6140   20.1210  -32.0390 C   0  0  0  0  0  0  0  0  0  0  0  0
   -7.6480   18.6510  -32.3500 C   0  0  0  0  0  0  0  0  0  0  0  0
   -6.6310   18.0080  -31.6680 F   0  0  0  0  0  0  0  0  0  0  0  0
   -8.8650   18.1200  -31.9620 F   0  0  0  0  0  0  0  0  0  0  0  0
   -6.3990   20.7280  -31.6540 C   0  0  0  0  0  0  0  0  0  0  0  0
   -6.4010   22.0990  -31.3690 C   0  0  0  0  0  0  0  0  0  0  0  0
   -2.8603   23.6666  -26.5567 H   0  0  0  0  0  0  0  0  0  0  0  0
   -3.7027   24.8278  -27.6376 H   0  0  0  0  0  0  0  0  0  0  0  0
   -4.1763   23.0951  -27.6376 H   0  0  0  0  0  0  0  0  0  0  0  0
   -2.8390   23.6050  -29.5220 H   0  0  0  0  0  0  0  0  0  0  0  0
   -1.0386   24.7710  -27.5009 H   0  0  0  0  0  0  0  0  0  0  0  0
   -0.3803   24.1576  -29.0556 H   0  0  0  0  0  0  0  0  0  0  0  0
   -1.6190   25.4585  -29.0556 H   0  0  0  0  0  0  0  0  0  0  0  0
   -0.7082   22.1991  -28.4995 H   0  0  0  0  0  0  0  0  0  0  0  0
   -2.1491   21.7669  -27.4762 H   0  0  0  0  0  0  0  0  0  0  0  0
   -1.6710   21.2853  -30.4267 H   0  0  0  0  0  0  0  0  0  0  0  0
   -2.2808   20.1658  -29.1511 H   0  0  0  0  0  0  0  0  0  0  0  0
   -3.1200   25.1270  -31.2020 H   0  0  0  0  0  0  0  0  0  0  0  0
   -7.9082   25.0161  -31.1897 H   0  0  0  0  0  0  0  0  0  0  0  0
   -9.6694   22.8959  -31.9476 H   0  0  0  0  0  0  0  0  0  0  0  0
   -9.7389   20.4270  -32.4337 H   0  0  0  0  0  0  0  0  0  0  0  0
   -7.5135   18.5082  -33.4324 H   0  0  0  0  0  0  0  0  0  0  0  0
   -5.4733   20.1384  -31.5797 H   0  0  0  0  0  0  0  0  0  0  0  0
  1  2  1  0
  2  3  1  0
  2  4  1  0
  4  5  1  0
  5  6  1  0
  6  7  1  0
  7  8  2  0
  7  9  1  0
  9 10  1  0
 10 11  1  0
 11 12  1  0
 11 13  2  0
 10 14  2  0
 14 15  1  0
 15 16  2  0
 16 17  1  0
 17 18  2  0
 18 19  1  0
 19 20  1  0
 19 21  1  0
 18 22  1  0
 22 23  2  0
 23  9  1  0
 23 15  1  0
  1 24  1  0
  1 25  1  0
  1 26  1  0
  2 27  1  0
  3 28  1  0
  3 29  1  0
  3 30  1  0
  4 31  1  0
  4 32  1  0
  5 33  1  0
  5 34  1  0
 12 35  1  0
 14 36  1  0
 16 37  1  0
 17 38  1  0
 19 39  1  0
 22 40  1  0
M  CHG  2   2   1  12  -1
M  END
>  <UniqueID>  (45) 
45

>  <SMILES>  (45) 
C[NH+](C)CCOC(=O)n1c(C([NH-])=O)cc2ccc(C(F)F)cc21

>  <Energy>  (45) 
76.51998152329476

>  <Genealogy>  (45) 
C[NH+](C)CCOC(=O)n1c(C([NH-])=O)cc2ccc(C(F)F)cc21 (protonated)
C[NH+](C)CCOC(=O)n1c(C([NH-])=O)cc2ccc(C(F)F)cc21 (3D coordinates assigned)
C[NH+](C)CCOC(=O)n1c(C([NH-])=O)cc2ccc(C(F)F)cc21 (optimized conformer: 76.51998152329476 kcal/mol)

>  <smiles>  (45) 
CN(C)CCOC(=O)n1c(C(N)=O)cc2ccc(C(F)F)cc21

>  <score_type>  (45) 
oracle

>  <origin>  (45) 
adg

>  <m_score__min__energy>  (45) 
-8.7400000000000002

>  <m_primary>  (45) 
energy

$$$$
45:0
     RDKit          3D

 46 48  0  0  0  0  0  0  0  0999 V2000
   -1.8420   21.2740  -31.8250 C   0  0  0  0  0  0  0  0  0  0  0  0
   -2.9790   21.9290  -32.0540 C   0  0  0  0  0  0  0  0  0  0  0  0
   -3.4950   21.9260  -33.3100 F   0  0  0  0  0  0  0  0  0  0  0  0
   -3.6790   22.6860  -30.9990 C   0  0  0  0  0  0  0  0  0  0  0  0
   -3.0150   23.1540  -30.0360 O   0  0  0  0  0  0  0  0  0  0  0  0
   -5.1020   22.8760  -31.0260 N   0  0  0  0  0  0  0  0  0  0  0  0
   -5.8010   24.0270  -30.8150 C   0  0  0  0  0  0  0  0  0  0  0  0
   -5.2170   25.3330  -30.4460 C   0  0  0  0  0  0  0  0  0  0  0  0
   -3.8880   25.6580  -30.8500 N   0  0  0  0  0  0  0  0  0  0  0  0
   -5.8860   26.1750  -29.7900 O   0  0  0  0  0  0  0  0  0  0  0  0
   -7.1690   23.7950  -30.9460 C   0  0  0  0  0  0  0  0  0  0  0  0
   -7.2850   22.4530  -31.2350 C   0  0  0  0  0  0  0  0  0  0  0  0
   -8.4160   21.6790  -31.4710 C   0  0  0  0  0  0  0  0  0  0  0  0
   -8.2340   20.3160  -31.7560 C   0  0  0  0  0  0  0  0  0  0  0  0
   -6.9320   19.7490  -31.7970 C   0  0  0  0  0  0  0  0  0  0  0  0
   -6.7560   18.3530  -32.1150 N   0  0  0  0  0  0  0  0  0  0  0  0
   -5.7230   17.5670  -31.4340 C   0  0  0  0  0  0  0  0  0  0  0  0
   -5.4100   16.2810  -32.2190 C   0  0  0  0  0  0  0  0  0  0  0  0
   -5.4310   16.5000  -33.6820 N   0  0  0  0  0  0  0  0  0  0  0  0
   -4.1100   17.5280  -34.2130 S   0  0  0  0  0  0  0  0  0  0  0  0
   -2.6370   17.2470  -33.2510 C   0  0  0  0  0  0  0  0  0  0  0  0
   -4.4940   18.9770  -34.1110 O   0  0  0  0  0  0  0  0  0  0  0  0
   -3.7960   17.2120  -35.6490 O   0  0  0  0  0  0  0  0  0  0  0  0
   -6.7390   17.0070  -34.1830 C   0  0  0  0  0  0  0  0  0  0  0  0
   -7.6040   17.6850  -33.1040 C   0  0  0  0  0  0  0  0  0  0  0  0
   -5.8080   20.5730  -31.5590 C   0  0  0  0  0  0  0  0  0  0  0  0
   -6.0230   21.9230  -31.2720 C   0  0  0  0  0  0  0  0  0  0  0  0
   -1.4070   21.2639  -30.8147 H   0  0  0  0  0  0  0  0  0  0  0  0
   -1.3381   20.7432  -32.6462 H   0  0  0  0  0  0  0  0  0  0  0  0
   -3.0640   25.2820  -30.3330 H   0  0  0  0  0  0  0  0  0  0  0  0
   -7.9829   24.5275  -30.8410 H   0  0  0  0  0  0  0  0  0  0  0  0
   -9.4227   22.1210  -31.4355 H   0  0  0  0  0  0  0  0  0  0  0  0
   -9.1101   19.6797  -31.9498 H   0  0  0  0  0  0  0  0  0  0  0  0
   -4.8071   18.1705  -31.3501 H   0  0  0  0  0  0  0  0  0  0  0  0
   -6.0913   17.2901  -30.4352 H   0  0  0  0  0  0  0  0  0  0  0  0
   -4.4112   15.9231  -31.9287 H   0  0  0  0  0  0  0  0  0  0  0  0
   -6.1866   15.5405  -31.9773 H   0  0  0  0  0  0  0  0  0  0  0  0
   -5.2580   15.5700  -34.1300 H   0  0  0  0  0  0  0  0  0  0  0  0
   -2.8839   17.2941  -32.1801 H   0  0  0  0  0  0  0  0  0  0  0  0
   -2.2271   16.2545  -33.4895 H   0  0  0  0  0  0  0  0  0  0  0  0
   -1.8905   18.0189  -33.4895 H   0  0  0  0  0  0  0  0  0  0  0  0
   -6.5435   17.7395  -34.9800 H   0  0  0  0  0  0  0  0  0  0  0  0
   -7.3033   16.1327  -34.5396 H   0  0  0  0  0  0  0  0  0  0  0  0
   -8.2602   18.4285  -33.5800 H   0  0  0  0  0  0  0  0  0  0  0  0
   -8.2074   16.9179  -32.5965 H   0  0  0  0  0  0  0  0  0  0  0  0
   -4.7889   20.1609  -31.5989 H   0  0  0  0  0  0  0  0  0  0  0  0
  1  2  2  0
  2  3  1  0
  2  4  1  0
  4  5  2  0
  4  6  1  0
  6  7  1  0
  7  8  1  0
  8  9  1  0
  8 10  2  0
  7 11  2  0
 11 12  1  0
 12 13  2  0
 13 14  1  0
 14 15  2  0
 15 16  1  0
 16 17  1  0
 17 18  1  0
 18 19  1  0
 19 20  1  0
 20 21  1  0
 20 22  2  0
 20 23  2  0
 19 24  1  0
 24 25  1  0
 15 26  1  0
 26 27  2  0
 27  6  1  0
 27 12  1  0
 25 16  1  0
  1 28  1  0
  1 29  1  0
  9 30  1  0
 11 31  1  0
 13 32  1  0
 14 33  1  0
 17 34  1  0
 17 35  1  0
 18 36  1  0
 18 37  1  0
 19 38  1  0
 21 39  1  0
 21 40  1  0
 21 41  1  0
 24 42  1  0
 24 43  1  0
 25 44  1  0
 25 45  1  0
 26 46  1  0
M  CHG  2   9  -1  19   1
M  END
>  <UniqueID>  (46) 
46

>  <SMILES>  (46) 
C=C(F)C(=O)n1c(C([NH-])=O)cc2ccc(N3CC[NH+](S(C)(=O)=O)CC3)cc21

>  <Energy>  (46) 
91.89681890273015

>  <Genealogy>  (46) 
C=C(F)C(=O)n1c(C([NH-])=O)cc2ccc(N3CC[NH+](S(C)(=O)=O)CC3)cc21 (protonated)
C=C(F)C(=O)n1c(C([NH-])=O)cc2ccc(N3CC[NH+](S(C)(=O)=O)CC3)cc21 (3D coordinates assigned)
C=C(F)C(=O)n1c(C([NH-])=O)cc2ccc(N3CC[NH+](S(C)(=O)=O)CC3)cc21 (nonaromatic ring conformer: 91.89681890273015 kcal/mol)

>  <smiles>  (46) 
C=C(F)C(=O)n1c(C(N)=O)cc2ccc(N3CCN(S(C)(=O)=O)CC3)cc21

>  <score_type>  (46) 
oracle

>  <origin>  (46) 
adg

>  <m_score__min__energy>  (46) 
-10.65

>  <m_primary>  (46) 
energy

$$$$
46:0
     RDKit          3D

 37 38  0  0  0  0  0  0  0  0999 V2000
   -3.7810   22.6270  -28.3790 C   0  0  0  0  0  0  0  0  0  0  0  0
   -3.2080   23.1140  -29.6480 N   0  0  1  0  0  0  0  0  0  0  0  0
   -1.7280   23.0110  -29.7150 C   0  0  0  0  0  0  0  0  0  0  0  0
   -0.9440   24.2290  -29.1870 C   0  0  0  0  0  0  0  0  0  0  0  0
   -1.7870   25.3310  -29.0030 O   0  0  0  0  0  0  0  0  0  0  0  0
   -3.8450   22.5010  -30.7970 C   0  0  0  0  0  0  0  0  0  0  0  0
   -3.1770   21.8090  -31.6120 O   0  0  0  0  0  0  0  0  0  0  0  0
   -5.2490   22.7030  -31.0370 N   0  0  0  0  0  0  0  0  0  0  0  0
   -5.9550   23.8640  -30.9360 C   0  0  0  0  0  0  0  0  0  0  0  0
   -5.4180   25.1690  -30.4980 C   0  0  0  0  0  0  0  0  0  0  0  0
   -4.0150   25.4200  -30.5700 N   0  0  0  0  0  0  0  0  0  0  0  0
   -6.1820   26.0730  -30.0710 O   0  0  0  0  0  0  0  0  0  0  0  0
   -7.2890   23.6530  -31.2780 C   0  0  0  0  0  0  0  0  0  0  0  0
   -7.3780   22.3180  -31.6010 C   0  0  0  0  0  0  0  0  0  0  0  0
   -8.4660   21.5750  -32.0450 C   0  0  0  0  0  0  0  0  0  0  0  0
   -8.2590   20.2190  -32.3480 C   0  0  0  0  0  0  0  0  0  0  0  0
   -6.9770   19.6290  -32.1940 C   0  0  0  0  0  0  0  0  0  0  0  0
   -6.7520   18.1900  -32.5840 C   0  0  0  0  0  0  0  0  0  0  0  0
   -6.4510   18.0900  -33.9320 F   0  0  0  0  0  0  0  0  0  0  0  0
   -5.7000   17.6780  -31.8480 F   0  0  0  0  0  0  0  0  0  0  0  0
   -7.8850   17.4340  -32.3360 F   0  0  0  0  0  0  0  0  0  0  0  0
   -5.8920   20.4260  -31.7650 C   0  0  0  0  0  0  0  0  0  0  0  0
   -6.1330   21.7680  -31.4500 C   0  0  0  0  0  0  0  0  0  0  0  0
   -3.2436   23.0837  -27.5349 H   0  0  0  0  0  0  0  0  0  0  0  0
   -4.8450   22.9014  -28.3279 H   0  0  0  0  0  0  0  0  0  0  0  0
   -3.6817   21.5327  -28.3279 H   0  0  0  0  0  0  0  0  0  0  0  0
   -3.4230   24.1370  -29.6860 H   0  0  0  0  0  0  0  0  0  0  0  0
   -1.4242   22.1333  -29.1257 H   0  0  0  0  0  0  0  0  0  0  0  0
   -1.4825   22.9398  -30.7849 H   0  0  0  0  0  0  0  0  0  0  0  0
   -0.4797   23.9675  -28.2247 H   0  0  0  0  0  0  0  0  0  0  0  0
   -0.1759   24.4971  -29.9273 H   0  0  0  0  0  0  0  0  0  0  0  0
   -1.9960   25.6740  -29.9100 H   0  0  0  0  0  0  0  0  0  0  0  0
   -3.4710   25.6740  -29.7170 H   0  0  0  0  0  0  0  0  0  0  0  0
   -8.0998   24.3963  -31.2878 H   0  0  0  0  0  0  0  0  0  0  0  0
   -9.4590   22.0351  -32.1557 H   0  0  0  0  0  0  0  0  0  0  0  0
   -9.0994   19.6077  -32.7085 H   0  0  0  0  0  0  0  0  0  0  0  0
   -4.8808   20.0012  -31.6805 H   0  0  0  0  0  0  0  0  0  0  0  0
  1  2  1  0
  2  3  1  0
  3  4  1  0
  4  5  1  0
  2  6  1  0
  6  7  2  0
  6  8  1  0
  8  9  1  0
  9 10  1  0
 10 11  1  0
 10 12  2  0
  9 13  2  0
 13 14  1  0
 14 15  2  0
 15 16  1  0
 16 17  2  0
 17 18  1  0
 18 19  1  0
 18 20  1  0
 18 21  1  0
 17 22  1  0
 22 23  2  0
 23  8  1  0
 23 14  1  0
  1 24  1  0
  1 25  1  0
  1 26  1  0
  2 27  1  6
  3 28  1  0
  3 29  1  0
  4 30  1  0
  4 31  1  0
  5 32  1  0
 11 33  1  0
 13 34  1  0
 15 35  1  0
 16 36  1  0
 22 37  1  0
M  CHG  2   2   1  11  -1
M  END
>  <UniqueID>  (47) 
47

>  <SMILES>  (47) 
C[N@@H+](CCO)C(=O)n1c(C([NH-])=O)cc2ccc(C(F)(F)F)cc21

>  <Energy>  (47) 
81.78004606429934

>  <Genealogy>  (47) 
C[NH+](CCO)C(=O)n1c(C([NH-])=O)cc2ccc(C(F)(F)F)cc21 (protonated)
C[N@@H+](CCO)C(=O)n1c(C([NH-])=O)cc2ccc(C(F)(F)F)cc21 (chirality)
C[N@@H+](CCO)C(=O)n1c(C([NH-])=O)cc2ccc(C(F)(F)F)cc21 (3D coordinates assigned)
C[N@@H+](CCO)C(=O)n1c(C([NH-])=O)cc2ccc(C(F)(F)F)cc21 (optimized conformer: 81.78004606429934 kcal/mol)

>  <smiles>  (47) 
CN(CCO)C(=O)n1c(C(N)=O)cc2ccc(C(F)(F)F)cc21

>  <score_type>  (47) 
oracle

>  <origin>  (47) 
adg

>  <m_score__min__energy>  (47) 
-8.8800000000000008

>  <m_primary>  (47) 
energy

$$$$
47:0
     RDKit          3D

 35 37  0  0  0  0  0  0  0  0999 V2000
   -3.4830   21.2670  -32.3450 C   0  0  0  0  0  0  0  0  0  0  0  0
   -4.1470   21.7380  -31.0890 C   0  0  0  0  0  0  0  0  0  0  0  0
   -3.5130   21.6830  -30.0020 O   0  0  0  0  0  0  0  0  0  0  0  0
   -5.5060   22.2030  -31.1000 N   0  0  0  0  0  0  0  0  0  0  0  0
   -5.9720   23.4450  -30.7840 C   0  0  0  0  0  0  0  0  0  0  0  0
   -5.1630   24.5430  -30.2110 C   0  0  0  0  0  0  0  0  0  0  0  0
   -5.3050   24.9180  -28.8390 N   0  0  0  0  0  0  0  0  0  0  0  0
   -4.3170   25.1430  -30.9260 O   0  0  0  0  0  0  0  0  0  0  0  0
   -7.3520   23.5120  -30.9800 C   0  0  0  0  0  0  0  0  0  0  0  0
   -7.7180   22.2610  -31.4220 C   0  0  0  0  0  0  0  0  0  0  0  0
   -8.9720   21.7620  -31.7640 C   0  0  0  0  0  0  0  0  0  0  0  0
   -9.0540   20.4280  -32.1980 C   0  0  0  0  0  0  0  0  0  0  0  0
   -7.8880   19.6270  -32.2940 C   0  0  0  0  0  0  0  0  0  0  0  0
   -7.9930   18.1910  -32.7260 C   0  0  0  0  0  0  0  0  0  0  0  0
   -6.6750   17.7170  -33.2610 C   0  0  0  0  0  0  0  0  0  0  0  0
   -5.8680   16.7820  -32.5970 C   0  0  0  0  0  0  0  0  0  0  0  0
   -4.6660   16.5290  -33.2430 C   0  0  0  0  0  0  0  0  0  0  0  0
   -4.6070   17.4810  -34.6280 S   0  0  0  0  0  0  0  0  0  0  0  0
   -6.1020   18.2200  -34.4260 C   0  0  0  0  0  0  0  0  0  0  0  0
   -6.6340   20.1640  -31.9260 C   0  0  0  0  0  0  0  0  0  0  0  0
   -6.5870   21.4910  -31.4850 C   0  0  0  0  0  0  0  0  0  0  0  0
   -2.6105   20.6481  -32.0886 H   0  0  0  0  0  0  0  0  0  0  0  0
   -4.1949   20.6708  -32.9347 H   0  0  0  0  0  0  0  0  0  0  0  0
   -3.1556   22.1359  -32.9347 H   0  0  0  0  0  0  0  0  0  0  0  0
   -4.7010   25.6680  -28.4370 H   0  0  0  0  0  0  0  0  0  0  0  0
   -6.0330   24.4840  -28.2300 H   0  0  0  0  0  0  0  0  0  0  0  0
   -8.0077   24.3799  -30.8161 H   0  0  0  0  0  0  0  0  0  0  0  0
   -9.8708   22.3925  -31.6965 H   0  0  0  0  0  0  0  0  0  0  0  0
  -10.0318   20.0012  -32.4657 H   0  0  0  0  0  0  0  0  0  0  0  0
   -8.2797   17.5715  -31.8635 H   0  0  0  0  0  0  0  0  0  0  0  0
   -8.7538   18.1071  -33.5160 H   0  0  0  0  0  0  0  0  0  0  0  0
   -6.1597   16.2957  -31.6544 H   0  0  0  0  0  0  0  0  0  0  0  0
   -3.8876   15.8279  -32.9075 H   0  0  0  0  0  0  0  0  0  0  0  0
   -6.5493   18.9691  -35.0959 H   0  0  0  0  0  0  0  0  0  0  0  0
   -5.7196   19.5554  -31.9846 H   0  0  0  0  0  0  0  0  0  0  0  0
  1  2  1  0
  2  3  2  0
  2  4  1  0
  4  5  1  0
  5  6  1  0
  6  7  1  0
  6  8  2  0
  5  9  2  0
  9 10  1  0
 10 11  2  0
 11 12  1  0
 12 13  2  0
 13 14  1  0
 14 15  1  0
 15 16  1  0
 16 17  2  0
 17 18  1  0
 18 19  1  0
 13 20  1  0
 20 21  2  0
 21  4  1  0
 21 10  1  0
 19 15  2  0
  1 22  1  0
  1 23  1  0
  1 24  1  0
  7 25  1  0
  7 26  1  0
  9 27  1  0
 11 28  1  0
 12 29  1  0
 14 30  1  0
 14 31  1  0
 16 32  1  0
 17 33  1  0
 19 34  1  0
 20 35  1  0
M  END
>  <UniqueID>  (48) 
48

>  <SMILES>  (48) 
CC(=O)n1c(C(N)=O)cc2ccc(Cc3ccsc3)cc21

>  <Energy>  (48) 
99.21613775316112

>  <Genealogy>  (48) 
CC(=O)n1c(C(N)=O)cc2ccc(Cc3ccsc3)cc21 (3D coordinates assigned)
CC(=O)n1c(C(N)=O)cc2ccc(Cc3ccsc3)cc21 (optimized conformer: 99.21613775316112 kcal/mol)

>  <smiles>  (48) 
CC(=O)n1c(C(N)=O)cc2ccc(Cc3ccsc3)cc21

>  <score_type>  (48) 
oracle

>  <origin>  (48) 
adg

>  <m_score__min__energy>  (48) 
-9.3699999999999992

>  <m_primary>  (48) 
energy

$$$$
48:0
     RDKit          3D

 25 26  0  0  0  0  0  0  0  0999 V2000
   -5.6760   26.4380  -30.2060 N   0  0  0  0  0  0  0  0  0  0  0  0
   -6.5220   25.3050  -30.0080 C   0  0  0  0  0  0  0  0  0  0  0  0
   -7.5150   25.4020  -29.2370 O   0  0  0  0  0  0  0  0  0  0  0  0
   -6.2950   24.0440  -30.7410 C   0  0  0  0  0  0  0  0  0  0  0  0
   -7.3240   23.2750  -31.2780 C   0  0  0  0  0  0  0  0  0  0  0  0
   -6.6990   22.2380  -31.9290 C   0  0  0  0  0  0  0  0  0  0  0  0
   -7.2440   21.1730  -32.6380 C   0  0  0  0  0  0  0  0  0  0  0  0
   -6.3630   20.2250  -33.1850 C   0  0  0  0  0  0  0  0  0  0  0  0
   -4.9620   20.3400  -32.9930 C   0  0  0  0  0  0  0  0  0  0  0  0
   -4.0250   19.3370  -33.6160 C   0  0  0  0  0  0  0  0  0  0  0  0
   -4.6960   18.6390  -34.6020 F   0  0  0  0  0  0  0  0  0  0  0  0
   -3.5610   18.4440  -32.6660 F   0  0  0  0  0  0  0  0  0  0  0  0
   -2.9320   19.9740  -34.1780 F   0  0  0  0  0  0  0  0  0  0  0  0
   -4.4450   21.4510  -32.2840 C   0  0  0  0  0  0  0  0  0  0  0  0
   -5.3450   22.3920  -31.7660 C   0  0  0  0  0  0  0  0  0  0  0  0
   -5.0810   23.4980  -31.0350 N   0  0  0  0  0  0  0  0  0  0  0  0
   -3.7950   23.9310  -30.5570 C   0  0  0  0  0  0  0  0  0  0  0  0
   -2.9290   23.0900  -30.2010 O   0  0  0  0  0  0  0  0  0  0  0  0
   -3.4960   25.2860  -30.4760 O   0  0  0  0  0  0  0  0  0  0  0  0
   -4.9500   26.4450  -30.9570 H   0  0  0  0  0  0  0  0  0  0  0  0
   -5.8300   27.3100  -29.6530 H   0  0  0  0  0  0  0  0  0  0  0  0
   -8.4057   23.4581  -31.1984 H   0  0  0  0  0  0  0  0  0  0  0  0
   -8.3321   21.0757  -32.7667 H   0  0  0  0  0  0  0  0  0  0  0  0
   -6.7643   19.3836  -33.7691 H   0  0  0  0  0  0  0  0  0  0  0  0
   -3.3609   21.5729  -32.1429 H   0  0  0  0  0  0  0  0  0  0  0  0
  1  2  1  0
  2  3  2  0
  2  4  1  0
  4  5  2  0
  5  6  1  0
  6  7  2  0
  7  8  1  0
  8  9  2  0
  9 10  1  0
 10 11  1  0
 10 12  1  0
 10 13  1  0
  9 14  1  0
 14 15  2  0
 15 16  1  0
 16 17  1  0
 17 18  2  0
 17 19  1  0
 16  4  1  0
 15  6  1  0
  1 20  1  0
  1 21  1  0
  5 22  1  0
  7 23  1  0
  8 24  1  0
 14 25  1  0
M  CHG  1  19  -1
M  END
>  <UniqueID>  (49) 
49

>  <SMILES>  (49) 
NC(=O)c1cc2ccc(C(F)(F)F)cc2n1C(=O)[O-]

>  <Energy>  (49) 
66.32011355421523

>  <Genealogy>  (49) 
NC(=O)c1cc2ccc(C(F)(F)F)cc2n1C(=O)[O-] (protonated)
NC(=O)c1cc2ccc(C(F)(F)F)cc2n1C(=O)[O-] (3D coordinates assigned)
NC(=O)c1cc2ccc(C(F)(F)F)cc2n1C(=O)[O-] (optimized conformer: 66.32011355421523 kcal/mol)

>  <smiles>  (49) 
NC(=O)c1cc2ccc(C(F)(F)F)cc2n1C(=O)O

>  <score_type>  (49) 
oracle

>  <origin>  (49) 
adg

>  <m_score__min__energy>  (49) 
-7.9900000000000002

>  <m_primary>  (49) 
energy

$$$$
49:0
     RDKit          3D

 50 52  0  0  0  0  0  0  0  0999 V2000
   -3.2360   17.2560  -33.1100 C   0  0  0  0  0  0  0  0  0  0  0  0
   -4.3820   16.4680  -33.6000 N   0  0  0  0  0  0  0  0  0  0  0  0
   -5.2450   16.0070  -32.4910 C   0  0  0  0  0  0  0  0  0  0  0  0
   -5.9730   17.1780  -31.8070 C   0  0  0  0  0  0  0  0  0  0  0  0
   -6.3840   18.1810  -32.7950 N   0  0  0  0  0  0  0  0  0  0  0  0
   -6.6910   19.5250  -32.3780 C   0  0  0  0  0  0  0  0  0  0  0  0
   -8.0340   19.9860  -32.3770 C   0  0  0  0  0  0  0  0  0  0  0  0
   -8.3440   21.2960  -31.9770 C   0  0  0  0  0  0  0  0  0  0  0  0
   -7.2950   22.1290  -31.5990 C   0  0  0  0  0  0  0  0  0  0  0  0
   -7.3130   23.4270  -31.1440 C   0  0  0  0  0  0  0  0  0  0  0  0
   -5.9800   23.7520  -30.9090 C   0  0  0  0  0  0  0  0  0  0  0  0
   -5.5330   25.0880  -30.4700 C   0  0  0  0  0  0  0  0  0  0  0  0
   -4.1820   25.5100  -30.6540 N   0  0  0  0  0  0  0  0  0  0  0  0
   -6.3690   25.8890  -29.9750 O   0  0  0  0  0  0  0  0  0  0  0  0
   -5.1700   22.6930  -31.1920 N   0  0  0  0  0  0  0  0  0  0  0  0
   -3.7560   22.5690  -30.9570 C   0  0  0  0  0  0  0  0  0  0  0  0
   -2.9510   23.2780  -31.6190 O   0  0  0  0  0  0  0  0  0  0  0  0
   -3.2140   21.6060  -29.9420 C   0  0  0  0  0  0  0  0  0  0  0  0
   -1.8150   21.7620  -29.8350 O   0  0  0  0  0  0  0  0  0  0  0  0
   -1.4990   22.3770  -28.6060 C   0  0  0  0  0  0  0  0  0  0  0  0
   -2.2710   23.6850  -28.4880 C   0  0  0  0  0  0  0  0  0  0  0  0
   -2.0220   24.4860  -29.6090 O   0  0  0  0  0  0  0  0  0  0  0  0
   -5.9910   21.7100  -31.6180 C   0  0  0  0  0  0  0  0  0  0  0  0
   -5.6530   20.4050  -31.9940 C   0  0  0  0  0  0  0  0  0  0  0  0
   -6.4670   17.7830  -34.2040 C   0  0  0  0  0  0  0  0  0  0  0  0
   -5.1270   17.1820  -34.6690 C   0  0  0  0  0  0  0  0  0  0  0  0
   -3.2350   17.2567  -32.0100 H   0  0  0  0  0  0  0  0  0  0  0  0
   -2.3002   16.8095  -33.4772 H   0  0  0  0  0  0  0  0  0  0  0  0
   -3.3179   18.2896  -33.4772 H   0  0  0  0  0  0  0  0  0  0  0  0
   -5.9937   15.3069  -32.8901 H   0  0  0  0  0  0  0  0  0  0  0  0
   -4.6056   15.5179  -31.7414 H   0  0  0  0  0  0  0  0  0  0  0  0
   -6.8645   16.7955  -31.2884 H   0  0  0  0  0  0  0  0  0  0  0  0
   -5.2866   17.6499  -31.0885 H   0  0  0  0  0  0  0  0  0  0  0  0
   -8.8412   19.3090  -32.6933 H   0  0  0  0  0  0  0  0  0  0  0  0
   -9.3844   21.6529  -31.9629 H   0  0  0  0  0  0  0  0  0  0  0  0
   -8.1928   24.0707  -30.9972 H   0  0  0  0  0  0  0  0  0  0  0  0
   -3.8720   26.4440  -30.3050 H   0  0  0  0  0  0  0  0  0  0  0  0
   -3.5050   24.9270  -31.1950 H   0  0  0  0  0  0  0  0  0  0  0  0
   -3.6794   21.8044  -28.9653 H   0  0  0  0  0  0  0  0  0  0  0  0
   -3.4419   20.5775  -30.2588 H   0  0  0  0  0  0  0  0  0  0  0  0
   -1.7779   21.7090  -27.7778 H   0  0  0  0  0  0  0  0  0  0  0  0
   -0.4188   22.5798  -28.5609 H   0  0  0  0  0  0  0  0  0  0  0  0
   -3.3478   23.4690  -28.4255 H   0  0  0  0  0  0  0  0  0  0  0  0
   -1.9464   24.2176  -27.5820 H   0  0  0  0  0  0  0  0  0  0  0  0
   -1.5950   23.8930  -30.2810 H   0  0  0  0  0  0  0  0  0  0  0  0
   -4.6047   20.0718  -31.9909 H   0  0  0  0  0  0  0  0  0  0  0  0
   -7.2622   17.0323  -34.3229 H   0  0  0  0  0  0  0  0  0  0  0  0
   -6.6924   18.6702  -34.8140 H   0  0  0  0  0  0  0  0  0  0  0  0
   -5.3308   16.4707  -35.4830 H   0  0  0  0  0  0  0  0  0  0  0  0
   -4.4951   18.0232  -34.9901 H   0  0  0  0  0  0  0  0  0  0  0  0
  1  2  1  0
  2  3  1  0
  3  4  1  0
  4  5  1  0
  5  6  1  0
  6  7  2  0
  7  8  1  0
  8  9  2  0
  9 10  1  0
 10 11  2  0
 11 12  1  0
 12 13  1  0
 12 14  2  0
 11 15  1  0
 15 16  1  0
 16 17  2  0
 16 18  1  0
 18 19  1  0
 19 20  1  0
 20 21  1  0
 21 22  1  0
 15 23  1  0
 23 24  2  0
  5 25  1  0
 25 26  1  0
 26  2  1  0
 24  6  1  0
 23  9  1  0
  1 27  1  0
  1 28  1  0
  1 29  1  0
  3 30  1  0
  3 31  1  0
  4 32  1  0
  4 33  1  0
  7 34  1  0
  8 35  1  0
 10 36  1  0
 13 37  1  0
 13 38  1  0
 18 39  1  0
 18 40  1  0
 20 41  1  0
 20 42  1  0
 21 43  1  0
 21 44  1  0
 22 45  1  0
 24 46  1  0
 25 47  1  0
 25 48  1  0
 26 49  1  0
 26 50  1  0
M  END
>  <UniqueID>  (50) 
50

>  <SMILES>  (50) 
CN1CCN(c2ccc3cc(C(N)=O)n(C(=O)COCCO)c3c2)CC1

>  <Energy>  (50) 
99.4662768545316

>  <Genealogy>  (50) 
CN1CCN(c2ccc3cc(C(N)=O)n(C(=O)COCCO)c3c2)CC1 (3D coordinates assigned)
CN1CCN(c2ccc3cc(C(N)=O)n(C(=O)COCCO)c3c2)CC1 (nonaromatic ring conformer: 99.4662768545316 kcal/mol)

>  <smiles>  (50) 
CN1CCN(c2ccc3cc(C(N)=O)n(C(=O)COCCO)c3c2)CC1

>  <score_type>  (50) 
oracle

>  <origin>  (50) 
adg

>  <m_score__min__energy>  (50) 
-9.7699999999999996

>  <m_primary>  (50) 
energy

$$$$
50:0
     RDKit          3D

 33 35  0  0  0  0  0  0  0  0999 V2000
   -0.8620   24.8880  -27.9930 C   0  0  0  0  0  0  0  0  0  0  0  0
   -1.9530   23.9970  -28.4810 C   0  0  0  0  0  0  0  0  0  0  0  0
   -2.6670   23.1820  -27.6750 N   0  0  0  0  0  0  0  0  0  0  0  0
   -3.5260   22.5790  -28.5190 C   0  0  0  0  0  0  0  0  0  0  0  0
   -3.2980   23.0470  -29.7950 C   0  0  0  0  0  0  0  0  0  0  0  0
   -3.9900   22.6440  -31.0280 C   0  0  0  0  0  0  0  0  0  0  0  0
   -3.3370   22.0930  -31.9540 O   0  0  0  0  0  0  0  0  0  0  0  0
   -5.4020   22.8440  -31.1810 N   0  0  0  0  0  0  0  0  0  0  0  0
   -6.1120   23.9870  -30.9630 C   0  0  0  0  0  0  0  0  0  0  0  0
   -5.5650   25.2680  -30.4680 C   0  0  0  0  0  0  0  0  0  0  0  0
   -4.2330   25.6700  -30.7770 N   0  0  0  0  0  0  0  0  0  0  0  0
   -6.2870   26.0230  -29.7630 O   0  0  0  0  0  0  0  0  0  0  0  0
   -7.4680   23.7700  -31.2140 C   0  0  0  0  0  0  0  0  0  0  0  0
   -7.5610   22.4510  -31.5980 C   0  0  0  0  0  0  0  0  0  0  0  0
   -8.6750   21.6970  -31.9500 C   0  0  0  0  0  0  0  0  0  0  0  0
   -8.4780   20.3440  -32.2800 C   0  0  0  0  0  0  0  0  0  0  0  0
   -7.1780   19.7760  -32.2700 C   0  0  0  0  0  0  0  0  0  0  0  0
   -7.0060   18.3020  -32.5430 C   0  0  0  0  0  0  0  0  0  0  0  0
   -8.2020   17.6350  -32.3460 F   0  0  0  0  0  0  0  0  0  0  0  0
   -6.0590   17.7910  -31.6720 F   0  0  0  0  0  0  0  0  0  0  0  0
   -6.5850   18.0750  -33.8410 F   0  0  0  0  0  0  0  0  0  0  0  0
   -6.0720   20.5760  -31.9000 C   0  0  0  0  0  0  0  0  0  0  0  0
   -6.3010   21.9150  -31.5680 C   0  0  0  0  0  0  0  0  0  0  0  0
   -2.3320   23.9290  -29.7390 O   0  0  0  0  0  0  0  0  0  0  0  0
   -0.8566   24.8924  -26.8930 H   0  0  0  0  0  0  0  0  0  0  0  0
    0.1059   24.5189  -28.3629 H   0  0  0  0  0  0  0  0  0  0  0  0
   -1.0303   25.9102  -28.3629 H   0  0  0  0  0  0  0  0  0  0  0  0
   -4.2852   21.8349  -28.2362 H   0  0  0  0  0  0  0  0  0  0  0  0
   -3.4850   25.6800  -30.0470 H   0  0  0  0  0  0  0  0  0  0  0  0
   -8.2878   24.4979  -31.1241 H   0  0  0  0  0  0  0  0  0  0  0  0
   -9.6795   22.1449  -31.9698 H   0  0  0  0  0  0  0  0  0  0  0  0
   -9.3422   19.7188  -32.5490 H   0  0  0  0  0  0  0  0  0  0  0  0
   -5.0560   20.1551  -31.8740 H   0  0  0  0  0  0  0  0  0  0  0  0
  1  2  1  0
  2  3  2  0
  3  4  1  0
  4  5  2  0
  5  6  1  0
  6  7  2  0
  6  8  1  0
  8  9  1  0
  9 10  1  0
 10 11  1  0
 10 12  2  0
  9 13  2  0
 13 14  1  0
 14 15  2  0
 15 16  1  0
 16 17  2  0
 17 18  1  0
 18 19  1  0
 18 20  1  0
 18 21  1  0
 17 22  1  0
 22 23  2  0
  5 24  1  0
 24  2  1  0
 23  8  1  0
 23 14  1  0
  1 25  1  0
  1 26  1  0
  1 27  1  0
  4 28  1  0
 11 29  1  0
 13 30  1  0
 15 31  1  0
 16 32  1  0
 22 33  1  0
M  CHG  1  11  -1
M  END
>  <UniqueID>  (51) 
51

>  <SMILES>  (51) 
Cc1ncc(C(=O)n2c(C([NH-])=O)cc3ccc(C(F)(F)F)cc32)o1

>  <Energy>  (51) 
103.86977550834084

>  <Genealogy>  (51) 
Cc1ncc(C(=O)n2c(C([NH-])=O)cc3ccc(C(F)(F)F)cc32)o1 (protonated)
Cc1ncc(C(=O)n2c(C([NH-])=O)cc3ccc(C(F)(F)F)cc32)o1 (3D coordinates assigned)
Cc1ncc(C(=O)n2c(C([NH-])=O)cc3ccc(C(F)(F)F)cc32)o1 (optimized conformer: 103.86977550834084 kcal/mol)

>  <smiles>  (51) 
Cc1ncc(C(=O)n2c(C(N)=O)cc3ccc(C(F)(F)F)cc32)o1

>  <score_type>  (51) 
oracle

>  <origin>  (51) 
adg

>  <m_score__min__energy>  (51) 
-9.8699999999999992

>  <m_primary>  (51) 
energy

$$$$
51:0
     RDKit          3D

 42 43  0  0  0  0  0  0  0  0999 V2000
   -1.6290   20.9950  -32.2350 C   0  0  0  0  0  0  0  0  0  0  0  0
   -2.8340   21.0820  -31.6740 C   0  0  0  0  0  0  0  0  0  0  0  0
   -3.9630   21.7750  -32.3240 C   0  0  0  0  0  0  0  0  0  0  0  0
   -3.9820   21.9300  -33.5750 O   0  0  0  0  0  0  0  0  0  0  0  0
   -5.0470   22.2830  -31.5310 N   0  0  0  0  0  0  0  0  0  0  0  0
   -5.0370   23.3660  -30.7040 C   0  0  0  0  0  0  0  0  0  0  0  0
   -3.8540   24.1880  -30.3710 C   0  0  0  0  0  0  0  0  0  0  0  0
   -3.9020   25.6030  -30.5400 N   0  0  0  0  0  0  0  0  0  0  0  0
   -2.8050   23.6560  -29.9190 O   0  0  0  0  0  0  0  0  0  0  0  0
   -6.2990   23.5680  -30.1490 C   0  0  0  0  0  0  0  0  0  0  0  0
   -7.0910   22.5690  -30.6680 C   0  0  0  0  0  0  0  0  0  0  0  0
   -8.4400   22.2960  -30.4630 C   0  0  0  0  0  0  0  0  0  0  0  0
   -9.0050   21.2090  -31.1510 C   0  0  0  0  0  0  0  0  0  0  0  0
   -8.2200   20.4330  -32.0410 C   0  0  0  0  0  0  0  0  0  0  0  0
   -8.8310   19.2570  -32.7550 C   0  0  0  0  0  0  0  0  0  0  0  0
   -8.5260   17.9570  -32.0090 C   0  0  0  0  0  0  0  0  0  0  0  0
   -7.5630   17.1840  -32.7240 O   0  0  0  0  0  0  0  0  0  0  0  0
   -6.1840   17.2660  -32.4950 C   0  0  0  0  0  0  0  0  0  0  0  0
   -5.6770   16.7290  -31.4700 O   0  0  0  0  0  0  0  0  0  0  0  0
   -5.3450   17.9680  -33.4280 N   0  0  0  0  0  0  0  0  0  0  0  0
   -3.9030   18.0580  -33.1880 C   0  0  0  0  0  0  0  0  0  0  0  0
   -5.9490   18.5820  -34.6130 C   0  0  0  0  0  0  0  0  0  0  0  0
   -6.8520   20.7340  -32.2170 C   0  0  0  0  0  0  0  0  0  0  0  0
   -6.3120   21.8080  -31.5020 C   0  0  0  0  0  0  0  0  0  0  0  0
   -0.8163   20.4682  -31.7135 H   0  0  0  0  0  0  0  0  0  0  0  0
   -1.4467   21.4499  -33.2198 H   0  0  0  0  0  0  0  0  0  0  0  0
   -2.9935   20.6197  -30.6887 H   0  0  0  0  0  0  0  0  0  0  0  0
   -3.4950   26.0570  -31.3870 H   0  0  0  0  0  0  0  0  0  0  0  0
   -6.5988   24.3584  -29.4452 H   0  0  0  0  0  0  0  0  0  0  0  0
   -9.0458   22.9127  -29.7828 H   0  0  0  0  0  0  0  0  0  0  0  0
  -10.0650   20.9580  -30.9979 H   0  0  0  0  0  0  0  0  0  0  0  0
   -9.9209   19.3945  -32.8111 H   0  0  0  0  0  0  0  0  0  0  0  0
   -8.4030   19.1945  -33.7664 H   0  0  0  0  0  0  0  0  0  0  0  0
   -8.1292   18.1967  -31.0115 H   0  0  0  0  0  0  0  0  0  0  0  0
   -9.4539   17.3732  -31.9181 H   0  0  0  0  0  0  0  0  0  0  0  0
   -3.7116   18.0699  -32.1048 H   0  0  0  0  0  0  0  0  0  0  0  0
   -3.4012   17.1894  -33.6395 H   0  0  0  0  0  0  0  0  0  0  0  0
   -3.5131   18.9822  -33.6395 H   0  0  0  0  0  0  0  0  0  0  0  0
   -6.6885   19.3337  -34.2999 H   0  0  0  0  0  0  0  0  0  0  0  0
   -5.1657   19.0665  -35.2145 H   0  0  0  0  0  0  0  0  0  0  0  0
   -6.4463   17.8068  -35.2145 H   0  0  0  0  0  0  0  0  0  0  0  0
   -6.2268   20.1391  -32.8990 H   0  0  0  0  0  0  0  0  0  0  0  0
  1  2  2  0
  2  3  1  0
  3  4  2  0
  3  5  1  0
  5  6  1  0
  6  7  1  0
  7  8  1  0
  7  9  2  0
  6 10  2  0
 10 11  1  0
 11 12  2  0
 12 13  1  0
 13 14  2  0
 14 15  1  0
 15 16  1  0
 16 17  1  0
 17 18  1  0
 18 19  2  0
 18 20  1  0
 20 21  1  0
 20 22  1  0
 14 23  1  0
 23 24  2  0
 24  5  1  0
 24 11  1  0
  1 25  1  0
  1 26  1  0
  2 27  1  0
  8 28  1  0
 10 29  1  0
 12 30  1  0
 13 31  1  0
 15 32  1  0
 15 33  1  0
 16 34  1  0
 16 35  1  0
 21 36  1  0
 21 37  1  0
 21 38  1  0
 22 39  1  0
 22 40  1  0
 22 41  1  0
 23 42  1  0
M  CHG  1   8  -1
M  END
>  <UniqueID>  (52) 
52

>  <SMILES>  (52) 
C=CC(=O)n1c(C([NH-])=O)cc2ccc(CCOC(=O)N(C)C)cc21

>  <Energy>  (52) 
72.09532768405073

>  <Genealogy>  (52) 
C=CC(=O)n1c(C([NH-])=O)cc2ccc(CCOC(=O)N(C)C)cc21 (protonated)
C=CC(=O)n1c(C([NH-])=O)cc2ccc(CCOC(=O)N(C)C)cc21 (3D coordinates assigned)
C=CC(=O)n1c(C([NH-])=O)cc2ccc(CCOC(=O)N(C)C)cc21 (optimized conformer: 72.09532768405073 kcal/mol)

>  <smiles>  (52) 
C=CC(=O)n1c(C(N)=O)cc2ccc(CCOC(=O)N(C)C)cc21

>  <score_type>  (52) 
oracle

>  <origin>  (52) 
adg

>  <m_score__min__energy>  (52) 
-10.31

>  <m_primary>  (52) 
energy

$$$$
52:0
     RDKit          3D

 49 52  0  0  0  0  0  0  0  0999 V2000
   -4.7420   15.4090  -34.5020 N   0  0  0  0  0  0  0  0  0  0  0  0
   -6.1070   15.7340  -34.2360 C   0  0  0  0  0  0  0  0  0  0  0  0
   -7.0060   14.9170  -34.5700 O   0  0  0  0  0  0  0  0  0  0  0  0
   -6.4680   17.0240  -33.6090 C   0  0  0  0  0  0  0  0  0  0  0  0
   -7.6050   17.2150  -32.8240 C   0  0  0  0  0  0  0  0  0  0  0  0
   -7.5160   18.5070  -32.3620 C   0  0  0  0  0  0  0  0  0  0  0  0
   -8.3840   19.2240  -31.5410 C   0  0  0  0  0  0  0  0  0  0  0  0
   -8.0550   20.5560  -31.2400 C   0  0  0  0  0  0  0  0  0  0  0  0
   -6.8800   21.1420  -31.7680 C   0  0  0  0  0  0  0  0  0  0  0  0
   -6.5620   22.5010  -31.4640 N   0  0  0  0  0  0  0  0  0  0  0  0
   -5.8370   23.6170  -32.0990 C   0  0  0  0  0  0  0  0  0  0  0  0
   -6.0760   24.6100  -31.0000 C   0  0  0  0  0  0  0  0  0  0  0  0
   -4.8340   25.0440  -30.2710 C   0  0  0  0  0  0  0  0  0  0  0  0
   -3.9230   25.6600  -30.8840 O   0  0  0  0  0  0  0  0  0  0  0  0
   -4.7280   24.8590  -28.8980 O   0  0  0  0  0  0  0  0  0  0  0  0
   -6.7970   23.4560  -30.3660 C   0  0  0  0  0  0  0  0  0  0  0  0
   -6.0240   20.3880  -32.5950 C   0  0  0  0  0  0  0  0  0  0  0  0
   -6.3650   19.0560  -32.8630 C   0  0  0  0  0  0  0  0  0  0  0  0
   -5.7100   18.1580  -33.6330 N   0  0  0  0  0  0  0  0  0  0  0  0
   -4.4940   18.3880  -34.3640 C   0  0  0  0  0  0  0  0  0  0  0  0
   -4.2830   17.7720  -35.4450 O   0  0  0  0  0  0  0  0  0  0  0  0
   -3.5570   19.3080  -33.8820 O   0  0  0  0  0  0  0  0  0  0  0  0
   -2.7440   19.0900  -32.7290 C   0  0  0  0  0  0  0  0  0  0  0  0
   -2.1020   20.4100  -32.2480 C   0  0  0  0  0  0  0  0  0  0  0  0
   -3.0780   21.6070  -32.2030 C   0  0  0  0  0  0  0  0  0  0  0  0
   -3.3360   22.1110  -33.4870 O   0  0  0  0  0  0  0  0  0  0  0  0
   -0.7630   20.7100  -32.9000 C   0  0  0  0  0  0  0  0  0  0  0  0
   -0.0600   20.5390  -31.6900 O   0  0  0  0  0  0  0  0  0  0  0  0
   -1.2510   20.2400  -30.9990 C   0  0  0  0  0  0  0  0  0  0  0  0
   -3.9660   16.0340  -34.1910 H   0  0  0  0  0  0  0  0  0  0  0  0
   -4.5000   14.5130  -34.9800 H   0  0  0  0  0  0  0  0  0  0  0  0
   -8.4033   16.4867  -32.6182 H   0  0  0  0  0  0  0  0  0  0  0  0
   -9.2983   18.7614  -31.1411 H   0  0  0  0  0  0  0  0  0  0  0  0
   -8.7154   21.1479  -30.5892 H   0  0  0  0  0  0  0  0  0  0  0  0
   -4.7693   23.3988  -32.2489 H   0  0  0  0  0  0  0  0  0  0  0  0
   -6.1524   23.9065  -33.1123 H   0  0  0  0  0  0  0  0  0  0  0  0
   -6.5164   25.6064  -31.1523 H   0  0  0  0  0  0  0  0  0  0  0  0
   -6.3366   23.1362  -29.4196 H   0  0  0  0  0  0  0  0  0  0  0  0
   -7.8412   23.6236  -30.0633 H   0  0  0  0  0  0  0  0  0  0  0  0
   -5.1120   20.8335  -33.0190 H   0  0  0  0  0  0  0  0  0  0  0  0
   -3.3673   18.6779  -31.9218 H   0  0  0  0  0  0  0  0  0  0  0  0
   -1.9416   18.3856  -32.9935 H   0  0  0  0  0  0  0  0  0  0  0  0
   -4.0256   21.2783  -31.7514 H   0  0  0  0  0  0  0  0  0  0  0  0
   -2.6151   22.4065  -31.6059 H   0  0  0  0  0  0  0  0  0  0  0  0
   -3.0530   21.4030  -34.1230 H   0  0  0  0  0  0  0  0  0  0  0  0
   -0.4813   19.9841  -33.6770 H   0  0  0  0  0  0  0  0  0  0  0  0
   -0.6413   21.6500  -33.4582 H   0  0  0  0  0  0  0  0  0  0  0  0
   -1.2750   19.2202  -30.5875 H   0  0  0  0  0  0  0  0  0  0  0  0
   -1.5044   20.8191  -30.0988 H   0  0  0  0  0  0  0  0  0  0  0  0
  1  2  1  0
  2  3  2  0
  2  4  1  0
  4  5  2  0
  5  6  1  0
  6  7  2  0
  7  8  1  0
  8  9  2  0
  9 10  1  0
 10 11  1  0
 11 12  1  0
 12 13  1  0
 13 14  2  0
 13 15  1  0
 12 16  1  0
  9 17  1  0
 17 18  2  0
 18 19  1  0
 19 20  1  0
 20 21  2  0
 20 22  1  0
 22 23  1  0
 23 24  1  0
 24 25  1  0
 25 26  1  0
 24 27  1  0
 27 28  1  0
 28 29  1  0
 19  4  1  0
 29 24  1  0
 18  6  1  0
 16 10  1  0
  1 30  1  0
  1 31  1  0
  5 32  1  0
  7 33  1  0
  8 34  1  0
 11 35  1  0
 11 36  1  0
 12 37  1  0
 16 38  1  0
 16 39  1  0
 17 40  1  0
 23 41  1  0
 23 42  1  0
 25 43  1  0
 25 44  1  0
 26 45  1  0
 27 46  1  0
 27 47  1  0
 29 48  1  0
 29 49  1  0
M  CHG  1  15  -1
M  END
>  <UniqueID>  (53) 
53

>  <SMILES>  (53) 
NC(=O)c1cc2ccc(N3CC(C(=O)[O-])C3)cc2n1C(=O)OCC1(CO)COC1

>  <Energy>  (53) 
197.382588145539

>  <Genealogy>  (53) 
NC(=O)c1cc2ccc(N3CC(C(=O)[O-])C3)cc2n1C(=O)OCC1(CO)COC1 (protonated)
NC(=O)c1cc2ccc(N3CC(C(=O)[O-])C3)cc2n1C(=O)OCC1(CO)COC1 (3D coordinates assigned)
NC(=O)c1cc2ccc(N3CC(C(=O)[O-])C3)cc2n1C(=O)OCC1(CO)COC1 (nonaromatic ring conformer: 197.382588145539 kcal/mol)

>  <smiles>  (53) 
NC(=O)c1cc2ccc(N3CC(C(=O)O)C3)cc2n1C(=O)OCC1(CO)COC1

>  <score_type>  (53) 
oracle

>  <origin>  (53) 
adg

>  <m_score__min__energy>  (53) 
-9.1899999999999995

>  <m_primary>  (53) 
energy

$$$$
53:0
     RDKit          3D

 42 44  0  0  0  0  0  0  0  0999 V2000
   -3.9260   25.6010  -30.8650 N   0  0  0  0  0  0  0  0  0  0  0  0
   -5.2340   25.3160  -30.3760 C   0  0  0  0  0  0  0  0  0  0  0  0
   -5.7650   26.0980  -29.5430 O   0  0  0  0  0  0  0  0  0  0  0  0
   -5.9830   24.1340  -30.8520 C   0  0  0  0  0  0  0  0  0  0  0  0
   -7.3750   24.0540  -30.8780 C   0  0  0  0  0  0  0  0  0  0  0  0
   -7.6600   22.8220  -31.4260 C   0  0  0  0  0  0  0  0  0  0  0  0
   -8.8850   22.2140  -31.6890 C   0  0  0  0  0  0  0  0  0  0  0  0
   -8.8720   20.9240  -32.2480 C   0  0  0  0  0  0  0  0  0  0  0  0
   -7.6490   20.2610  -32.5130 C   0  0  0  0  0  0  0  0  0  0  0  0
   -7.6720   18.9480  -33.0970 N   0  0  0  0  0  0  0  0  0  0  0  0
   -6.5410   18.0620  -33.1110 C   0  0  0  0  0  0  0  0  0  0  0  0
   -6.3910   17.1040  -32.1000 C   0  0  0  0  0  0  0  0  0  0  0  0
   -5.2770   16.2630  -32.1100 C   0  0  0  0  0  0  0  0  0  0  0  0
   -4.3180   16.3920  -33.1150 C   0  0  0  0  0  0  0  0  0  0  0  0
   -4.4860   17.3700  -34.1020 C   0  0  0  0  0  0  0  0  0  0  0  0
   -3.5100   17.5370  -35.1310 N   0  0  0  0  0  0  0  0  0  0  0  0
   -5.5830   18.1750  -34.0740 N   0  0  0  0  0  0  0  0  0  0  0  0
   -6.4250   20.9210  -32.2530 C   0  0  0  0  0  0  0  0  0  0  0  0
   -6.4700   22.2060  -31.7080 C   0  0  0  0  0  0  0  0  0  0  0  0
   -5.4350   22.9970  -31.3630 N   0  0  0  0  0  0  0  0  0  0  0  0
   -4.0490   22.6480  -31.4570 C   0  0  0  0  0  0  0  0  0  0  0  0
   -3.2300   23.1030  -30.6140 O   0  0  0  0  0  0  0  0  0  0  0  0
   -3.5500   21.8490  -32.6230 C   0  0  0  0  0  0  0  0  0  0  0  0
   -2.8070   20.6070  -32.1290 C   0  0  0  0  0  0  0  0  0  0  0  0
   -2.3370   19.7830  -33.2850 C   0  0  0  0  0  0  0  0  0  0  0  0
   -2.3640   20.2540  -34.4530 O   0  0  0  0  0  0  0  0  0  0  0  0
   -1.8230   18.5110  -33.0680 O   0  0  0  0  0  0  0  0  0  0  0  0
   -3.0780   25.2640  -30.3570 H   0  0  0  0  0  0  0  0  0  0  0  0
   -8.0931   24.8131  -30.5341 H   0  0  0  0  0  0  0  0  0  0  0  0
   -9.8325   22.7266  -31.4665 H   0  0  0  0  0  0  0  0  0  0  0  0
   -9.8232   20.4237  -32.4823 H   0  0  0  0  0  0  0  0  0  0  0  0
   -8.5810   18.5950  -33.4730 H   0  0  0  0  0  0  0  0  0  0  0  0
   -7.1453   17.0152  -31.3043 H   0  0  0  0  0  0  0  0  0  0  0  0
   -5.1555   15.5000  -31.3270 H   0  0  0  0  0  0  0  0  0  0  0  0
   -3.4385   15.7316  -33.1315 H   0  0  0  0  0  0  0  0  0  0  0  0
   -2.6930   18.1740  -34.9980 H   0  0  0  0  0  0  0  0  0  0  0  0
   -3.6110   17.0320  -36.0380 H   0  0  0  0  0  0  0  0  0  0  0  0
   -5.4633   20.4349  -32.4742 H   0  0  0  0  0  0  0  0  0  0  0  0
   -4.4036   21.5395  -33.2440 H   0  0  0  0  0  0  0  0  0  0  0  0
   -2.8613   22.4687  -33.2160 H   0  0  0  0  0  0  0  0  0  0  0  0
   -1.9386   20.9190  -31.5302 H   0  0  0  0  0  0  0  0  0  0  0  0
   -3.4925   20.0025  -31.5169 H   0  0  0  0  0  0  0  0  0  0  0  0
  1  2  1  0
  2  3  2  0
  2  4  1  0
  4  5  2  0
  5  6  1  0
  6  7  2  0
  7  8  1  0
  8  9  2  0
  9 10  1  0
 10 11  1  0
 11 12  2  0
 12 13  1  0
 13 14  2  0
 14 15  1  0
 15 16  1  0
 15 17  2  0
  9 18  1  0
 18 19  2  0
 19 20  1  0
 20 21  1  0
 21 22  2  0
 21 23  1  0
 23 24  1  0
 24 25  1  0
 25 26  2  0
 25 27  1  0
 20  4  1  0
 19  6  1  0
 17 11  1  0
  1 28  1  0
  5 29  1  0
  7 30  1  0
  8 31  1  0
 10 32  1  0
 12 33  1  0
 13 34  1  0
 14 35  1  0
 16 36  1  0
 16 37  1  0
 18 38  1  0
 23 39  1  0
 23 40  1  0
 24 41  1  0
 24 42  1  0
M  CHG  2   1  -1  27  -1
M  END
>  <UniqueID>  (54) 
54

>  <SMILES>  (54) 
[NH-]C(=O)c1cc2ccc(Nc3cccc(N)n3)cc2n1C(=O)CCC(=O)[O-]

>  <Energy>  (54) 
81.74338457072676

>  <Genealogy>  (54) 
[NH-]C(=O)c1cc2ccc(Nc3cccc(N)n3)cc2n1C(=O)CCC(=O)[O-] (protonated)
[NH-]C(=O)c1cc2ccc(Nc3cccc(N)n3)cc2n1C(=O)CCC(=O)[O-] (3D coordinates assigned)
[NH-]C(=O)c1cc2ccc(Nc3cccc(N)n3)cc2n1C(=O)CCC(=O)[O-] (optimized conformer: 81.74338457072676 kcal/mol)

>  <smiles>  (54) 
NC(=O)c1cc2ccc(Nc3cccc(N)n3)cc2n1C(=O)CCC(=O)O

>  <score_type>  (54) 
oracle

>  <origin>  (54) 
adg

>  <m_score__min__energy>  (54) 
-12.83

>  <m_primary>  (54) 
energy

$$$$
54:0
     RDKit          3D

 42 43  0  0  0  0  0  0  0  0999 V2000
   -1.9950   22.0570  -30.7420 C   0  0  0  0  0  0  0  0  0  0  0  0
   -3.2770   22.3700  -30.5620 C   0  0  0  0  0  0  0  0  0  0  0  0
   -4.2170   22.5710  -31.6830 C   0  0  0  0  0  0  0  0  0  0  0  0
   -3.7990   22.4160  -32.8620 O   0  0  0  0  0  0  0  0  0  0  0  0
   -5.5920   22.9260  -31.4630 N   0  0  0  0  0  0  0  0  0  0  0  0
   -6.0790   24.0880  -30.9450 C   0  0  0  0  0  0  0  0  0  0  0  0
   -5.2650   25.2070  -30.4250 C   0  0  0  0  0  0  0  0  0  0  0  0
   -3.8720   25.2730  -30.7270 N   0  0  0  0  0  0  0  0  0  0  0  0
   -5.7890   26.1150  -29.7290 O   0  0  0  0  0  0  0  0  0  0  0  0
   -7.4720   24.0620  -30.9200 C   0  0  0  0  0  0  0  0  0  0  0  0
   -7.8250   22.8400  -31.4480 C   0  0  0  0  0  0  0  0  0  0  0  0
   -9.0820   22.2760  -31.6460 C   0  0  0  0  0  0  0  0  0  0  0  0
   -9.1430   20.9850  -32.2010 C   0  0  0  0  0  0  0  0  0  0  0  0
   -7.9570   20.2940  -32.5630 C   0  0  0  0  0  0  0  0  0  0  0  0
   -8.0300   18.9540  -33.0930 N   0  0  0  0  0  0  0  0  0  0  0  0
   -7.5180   17.9610  -32.1320 C   0  0  0  0  0  0  0  0  0  0  0  0
   -6.0910   17.4950  -32.4780 C   0  0  0  0  0  0  0  0  0  0  0  0
   -5.5310   18.3120  -33.5780 N   0  0  0  0  0  0  0  0  0  0  0  0
   -5.4190   17.5080  -34.8070 C   0  0  0  0  0  0  0  0  0  0  0  0
   -4.2030   18.8430  -33.2200 C   0  0  0  0  0  0  0  0  0  0  0  0
   -6.7010   20.9100  -32.3580 C   0  0  0  0  0  0  0  0  0  0  0  0
   -6.6710   22.1790  -31.7770 C   0  0  0  0  0  0  0  0  0  0  0  0
   -1.3355   21.9179  -29.8727 H   0  0  0  0  0  0  0  0  0  0  0  0
   -1.5957   21.9376  -31.7600 H   0  0  0  0  0  0  0  0  0  0  0  0
   -3.6517   22.4837  -29.5341 H   0  0  0  0  0  0  0  0  0  0  0  0
   -3.4870   26.0470  -31.3120 H   0  0  0  0  0  0  0  0  0  0  0  0
   -8.1468   24.8506  -30.5557 H   0  0  0  0  0  0  0  0  0  0  0  0
   -9.9981   22.8223  -31.3771 H   0  0  0  0  0  0  0  0  0  0  0  0
  -10.1207   20.5054  -32.3563 H   0  0  0  0  0  0  0  0  0  0  0  0
   -9.0300   18.7270  -33.3060 H   0  0  0  0  0  0  0  0  0  0  0  0
   -7.5030   18.8840  -33.9950 H   0  0  0  0  0  0  0  0  0  0  0  0
   -7.5096   18.4114  -31.1285 H   0  0  0  0  0  0  0  0  0  0  0  0
   -8.1782   17.0821  -32.1720 H   0  0  0  0  0  0  0  0  0  0  0  0
   -5.4512   17.5975  -31.5891 H   0  0  0  0  0  0  0  0  0  0  0  0
   -6.1283   16.4436  -32.7993 H   0  0  0  0  0  0  0  0  0  0  0  0
   -5.2717   16.4508  -34.5414 H   0  0  0  0  0  0  0  0  0  0  0  0
   -6.3404   17.6125  -35.3987 H   0  0  0  0  0  0  0  0  0  0  0  0
   -4.5613   17.8603  -35.3987 H   0  0  0  0  0  0  0  0  0  0  0  0
   -4.1066   18.8816  -32.1249 H   0  0  0  0  0  0  0  0  0  0  0  0
   -3.4224   18.1879  -33.6340 H   0  0  0  0  0  0  0  0  0  0  0  0
   -4.0893   19.8558  -33.6340 H   0  0  0  0  0  0  0  0  0  0  0  0
   -5.7700   20.4016  -32.6493 H   0  0  0  0  0  0  0  0  0  0  0  0
  1  2  2  0
  2  3  1  0
  3  4  2  0
  3  5  1  0
  5  6  1  0
  6  7  1  0
  7  8  1  0
  7  9  2  0
  6 10  2  0
 10 11  1  0
 11 12  2  0
 12 13  1  0
 13 14  2  0
 14 15  1  0
 15 16  1  0
 16 17  1  0
 17 18  1  0
 18 19  1  0
 18 20  1  0
 14 21  1  0
 21 22  2  0
 22  5  1  0
 22 11  1  0
  1 23  1  0
  1 24  1  0
  2 25  1  0
  8 26  1  0
 10 27  1  0
 12 28  1  0
 13 29  1  0
 15 30  1  0
 15 31  1  0
 16 32  1  0
 16 33  1  0
 17 34  1  0
 17 35  1  0
 19 36  1  0
 19 37  1  0
 19 38  1  0
 20 39  1  0
 20 40  1  0
 20 41  1  0
 21 42  1  0
M  CHG  2   8  -1  15   1
M  END
>  <UniqueID>  (55) 
55

>  <SMILES>  (55) 
C=CC(=O)n1c(C([NH-])=O)cc2ccc([NH2+]CCN(C)C)cc21

>  <Energy>  (55) 
79.60206215869881

>  <Genealogy>  (55) 
C=CC(=O)n1c(C([NH-])=O)cc2ccc([NH2+]CCN(C)C)cc21 (protonated)
C=CC(=O)n1c(C([NH-])=O)cc2ccc([NH2+]CCN(C)C)cc21 (3D coordinates assigned)
C=CC(=O)n1c(C([NH-])=O)cc2ccc([NH2+]CCN(C)C)cc21 (optimized conformer: 79.60206215869881 kcal/mol)

>  <smiles>  (55) 
C=CC(=O)n1c(C(N)=O)cc2ccc(NCCN(C)C)cc21

>  <score_type>  (55) 
oracle

>  <origin>  (55) 
adg

>  <m_score__min__energy>  (55) 
-10.09

>  <m_primary>  (55) 
energy

$$$$
55:0
     RDKit          3D

 33 34  0  0  0  0  0  0  0  0999 V2000
   -4.2060   25.5640  -30.7870 N   0  0  0  0  0  0  0  0  0  0  0  0
   -5.5500   25.1710  -30.5080 C   0  0  0  0  0  0  0  0  0  0  0  0
   -6.3060   25.9670  -29.8900 O   0  0  0  0  0  0  0  0  0  0  0  0
   -6.0670   23.8640  -30.9700 C   0  0  0  0  0  0  0  0  0  0  0  0
   -7.4040   23.6250  -31.2840 C   0  0  0  0  0  0  0  0  0  0  0  0
   -7.4750   22.2810  -31.5720 C   0  0  0  0  0  0  0  0  0  0  0  0
   -8.5620   21.5090  -31.9670 C   0  0  0  0  0  0  0  0  0  0  0  0
   -8.3420   20.1480  -32.2340 C   0  0  0  0  0  0  0  0  0  0  0  0
   -7.0490   19.5800  -32.0910 C   0  0  0  0  0  0  0  0  0  0  0  0
   -6.8140   18.1320  -32.4400 C   0  0  0  0  0  0  0  0  0  0  0  0
   -6.3770   18.0460  -33.7490 F   0  0  0  0  0  0  0  0  0  0  0  0
   -7.9810   17.4000  -32.3050 F   0  0  0  0  0  0  0  0  0  0  0  0
   -5.8570   17.5780  -31.6070 F   0  0  0  0  0  0  0  0  0  0  0  0
   -5.9660   20.4040  -31.7090 C   0  0  0  0  0  0  0  0  0  0  0  0
   -6.2170   21.7530  -31.4320 C   0  0  0  0  0  0  0  0  0  0  0  0
   -5.3400   22.7150  -31.0640 N   0  0  0  0  0  0  0  0  0  0  0  0
   -3.9220   22.5660  -30.8940 C   0  0  0  0  0  0  0  0  0  0  0  0
   -3.1480   22.7210  -31.8790 O   0  0  0  0  0  0  0  0  0  0  0  0
   -3.4030   22.2610  -29.6320 O   0  0  0  0  0  0  0  0  0  0  0  0
   -2.0130   22.3370  -29.3310 C   0  0  0  0  0  0  0  0  0  0  0  0
   -1.6740   23.7260  -28.8010 C   0  0  0  0  0  0  0  0  0  0  0  0
   -2.2060   24.7160  -29.6390 O   0  0  0  0  0  0  0  0  0  0  0  0
   -3.5360   24.9120  -31.2530 H   0  0  0  0  0  0  0  0  0  0  0  0
   -3.8620   26.5030  -30.4890 H   0  0  0  0  0  0  0  0  0  0  0  0
   -8.2268   24.3549  -31.2985 H   0  0  0  0  0  0  0  0  0  0  0  0
   -9.5642   21.9512  -32.0673 H   0  0  0  0  0  0  0  0  0  0  0  0
   -9.1812   19.5148  -32.5577 H   0  0  0  0  0  0  0  0  0  0  0  0
   -4.9482   19.9942  -31.6311 H   0  0  0  0  0  0  0  0  0  0  0  0
   -1.7628   21.5843  -28.5688 H   0  0  0  0  0  0  0  0  0  0  0  0
   -1.4325   22.1458  -30.2456 H   0  0  0  0  0  0  0  0  0  0  0  0
   -2.0962   23.8411  -27.7918 H   0  0  0  0  0  0  0  0  0  0  0  0
   -0.5801   23.8371  -28.7701 H   0  0  0  0  0  0  0  0  0  0  0  0
   -2.6520   24.2450  -30.3910 H   0  0  0  0  0  0  0  0  0  0  0  0
  1  2  1  0
  2  3  2  0
  2  4  1  0
  4  5  2  0
  5  6  1  0
  6  7  2  0
  7  8  1  0
  8  9  2  0
  9 10  1  0
 10 11  1  0
 10 12  1  0
 10 13  1  0
  9 14  1  0
 14 15  2  0
 15 16  1  0
 16 17  1  0
 17 18  2  0
 17 19  1  0
 19 20  1  0
 20 21  1  0
 21 22  1  0
 16  4  1  0
 15  6  1  0
  1 23  1  0
  1 24  1  0
  5 25  1  0
  7 26  1  0
  8 27  1  0
 14 28  1  0
 20 29  1  0
 20 30  1  0
 21 31  1  0
 21 32  1  0
 22 33  1  0
M  END
>  <UniqueID>  (56) 
56

>  <SMILES>  (56) 
NC(=O)c1cc2ccc(C(F)(F)F)cc2n1C(=O)OCCO

>  <Energy>  (56) 
67.64416509415226

>  <Genealogy>  (56) 
NC(=O)c1cc2ccc(C(F)(F)F)cc2n1C(=O)OCCO (3D coordinates assigned)
NC(=O)c1cc2ccc(C(F)(F)F)cc2n1C(=O)OCCO (optimized conformer: 67.64416509415226 kcal/mol)

>  <smiles>  (56) 
NC(=O)c1cc2ccc(C(F)(F)F)cc2n1C(=O)OCCO

>  <score_type>  (56) 
oracle

>  <origin>  (56) 
adg

>  <m_score__min__energy>  (56) 
-8.0199999999999996

>  <m_primary>  (56) 
energy

$$$$
56:0
     RDKit          3D

 32 33  0  0  0  0  0  0  0  0999 V2000
   -9.3060   20.9650  -31.9680 C   0  0  0  0  0  0  0  0  0  0  0  0
   -9.4630   22.3130  -31.5830 O   0  0  0  0  0  0  0  0  0  0  0  0
   -8.3180   23.0440  -31.9650 C   0  0  0  0  0  0  0  0  0  0  0  0
   -7.2320   22.8040  -30.9600 C   0  0  0  0  0  0  0  0  0  0  0  0
   -7.5180   22.8130  -29.7320 O   0  0  0  0  0  0  0  0  0  0  0  0
   -5.8700   22.6040  -31.3730 N   0  0  0  0  0  0  0  0  0  0  0  0
   -4.7760   23.3490  -31.0480 C   0  0  0  0  0  0  0  0  0  0  0  0
   -4.7880   24.6360  -30.3250 C   0  0  0  0  0  0  0  0  0  0  0  0
   -5.4540   24.7760  -29.0690 N   0  0  0  0  0  0  0  0  0  0  0  0
   -4.2400   25.6440  -30.8460 O   0  0  0  0  0  0  0  0  0  0  0  0
   -3.6160   22.7570  -31.5410 C   0  0  0  0  0  0  0  0  0  0  0  0
   -4.0380   21.6230  -32.1990 C   0  0  0  0  0  0  0  0  0  0  0  0
   -3.3030   20.6440  -32.8590 C   0  0  0  0  0  0  0  0  0  0  0  0
   -4.0010   19.5590  -33.4150 C   0  0  0  0  0  0  0  0  0  0  0  0
   -5.4140   19.4740  -33.3130 C   0  0  0  0  0  0  0  0  0  0  0  0
   -6.1430   18.2750  -33.8610 C   0  0  0  0  0  0  0  0  0  0  0  0
   -6.1070   18.3110  -35.2420 F   0  0  0  0  0  0  0  0  0  0  0  0
   -5.5500   17.1010  -33.4260 F   0  0  0  0  0  0  0  0  0  0  0  0
   -7.4620   18.2730  -33.4430 F   0  0  0  0  0  0  0  0  0  0  0  0
   -6.1230   20.4780  -32.6110 C   0  0  0  0  0  0  0  0  0  0  0  0
   -5.4020   21.5550  -32.0820 C   0  0  0  0  0  0  0  0  0  0  0  0
   -9.2324   20.3335  -31.0704 H   0  0  0  0  0  0  0  0  0  0  0  0
  -10.1737   20.6513  -32.5669 H   0  0  0  0  0  0  0  0  0  0  0  0
   -8.3894   20.8591  -32.5669 H   0  0  0  0  0  0  0  0  0  0  0  0
   -7.9820   22.7117  -32.9583 H   0  0  0  0  0  0  0  0  0  0  0  0
   -8.5572   24.1169  -32.0067 H   0  0  0  0  0  0  0  0  0  0  0  0
   -6.0660   24.0170  -28.6950 H   0  0  0  0  0  0  0  0  0  0  0  0
   -5.4070   25.6790  -28.5490 H   0  0  0  0  0  0  0  0  0  0  0  0
   -2.5830   23.1180  -31.4288 H   0  0  0  0  0  0  0  0  0  0  0  0
   -2.2087   20.7170  -32.9431 H   0  0  0  0  0  0  0  0  0  0  0  0
   -3.4454   18.7653  -33.9360 H   0  0  0  0  0  0  0  0  0  0  0  0
   -7.2138   20.4135  -32.4842 H   0  0  0  0  0  0  0  0  0  0  0  0
  1  2  1  0
  2  3  1  0
  3  4  1  0
  4  5  2  0
  4  6  1  0
  6  7  1  0
  7  8  1  0
  8  9  1  0
  8 10  2  0
  7 11  2  0
 11 12  1  0
 12 13  2  0
 13 14  1  0
 14 15  2  0
 15 16  1  0
 16 17  1  0
 16 18  1  0
 16 19  1  0
 15 20  1  0
 20 21  2  0
 21  6  1  0
 21 12  1  0
  1 22  1  0
  1 23  1  0
  1 24  1  0
  3 25  1  0
  3 26  1  0
  9 27  1  0
  9 28  1  0
 11 29  1  0
 13 30  1  0
 14 31  1  0
 20 32  1  0
M  END
>  <UniqueID>  (57) 
57

>  <SMILES>  (57) 
COCC(=O)n1c(C(N)=O)cc2ccc(C(F)(F)F)cc21

>  <Energy>  (57) 
73.0523432065155

>  <Genealogy>  (57) 
COCC(=O)n1c(C(N)=O)cc2ccc(C(F)(F)F)cc21 (3D coordinates assigned)
COCC(=O)n1c(C(N)=O)cc2ccc(C(F)(F)F)cc21 (optimized conformer: 73.0523432065155 kcal/mol)

>  <smiles>  (57) 
COCC(=O)n1c(C(N)=O)cc2ccc(C(F)(F)F)cc21

>  <score_type>  (57) 
oracle

>  <origin>  (57) 
adg

>  <m_score__min__energy>  (57) 
-7.29

>  <m_primary>  (57) 
energy

$$$$
57:0
     RDKit          3D

 51 54  0  0  0  0  0  0  0  0999 V2000
   -3.8730   25.4320  -30.4670 N   0  0  0  0  0  0  0  0  0  0  0  0
   -5.2450   25.0450  -30.4210 C   0  0  0  0  0  0  0  0  0  0  0  0
   -6.0950   25.8400  -29.9380 O   0  0  0  0  0  0  0  0  0  0  0  0
   -5.6850   23.7500  -30.9790 C   0  0  0  0  0  0  0  0  0  0  0  0
   -7.0180   23.4320  -31.2290 C   0  0  0  0  0  0  0  0  0  0  0  0
   -6.9910   22.1920  -31.8270 C   0  0  0  0  0  0  0  0  0  0  0  0
   -8.0360   21.3910  -32.2810 C   0  0  0  0  0  0  0  0  0  0  0  0
   -7.7130   20.1390  -32.8340 C   0  0  0  0  0  0  0  0  0  0  0  0
   -6.3650   19.7190  -32.9160 C   0  0  0  0  0  0  0  0  0  0  0  0
   -6.0510   18.4320  -33.4750 C   0  0  0  0  0  0  0  0  0  0  0  0
   -5.7920   17.3510  -33.9430 C   0  0  0  0  0  0  0  0  0  0  0  0
   -5.4710   16.0290  -34.5080 C   0  0  0  0  0  0  0  0  0  0  0  0
   -5.6950   14.9330  -33.4550 C   0  0  0  0  0  0  0  0  0  0  0  0
   -4.6220   14.9800  -32.3380 C   0  0  0  0  0  0  0  0  0  0  0  0
   -3.5350   15.8400  -32.6380 O   0  0  0  0  0  0  0  0  0  0  0  0
   -3.0270   15.5510  -33.9240 C   0  0  0  0  0  0  0  0  0  0  0  0
   -4.0160   15.9910  -35.0210 C   0  0  0  0  0  0  0  0  0  0  0  0
   -5.3310   20.5530  -32.4480 C   0  0  0  0  0  0  0  0  0  0  0  0
   -5.6800   21.8000  -31.9160 C   0  0  0  0  0  0  0  0  0  0  0  0
   -4.8670   22.7430  -31.3950 N   0  0  0  0  0  0  0  0  0  0  0  0
   -3.4450   22.6380  -31.2290 C   0  0  0  0  0  0  0  0  0  0  0  0
   -2.7580   22.0400  -32.1000 O   0  0  0  0  0  0  0  0  0  0  0  0
   -2.8190   23.1790  -30.0570 N   0  0  0  0  0  0  0  0  0  0  0  0
   -1.3740   23.1310  -29.8210 C   0  0  0  0  0  0  0  0  0  0  0  0
   -1.0730   22.8630  -28.3450 C   0  0  0  0  0  0  0  0  0  0  0  0
   -1.7490   23.8590  -27.4530 C   0  0  0  0  0  0  0  0  0  0  0  0
   -3.0830   23.8880  -27.2430 N   0  0  0  0  0  0  0  0  0  0  0  0
   -3.4440   24.9120  -26.4250 C   0  0  0  0  0  0  0  0  0  0  0  0
   -2.3980   25.7120  -25.9830 C   0  0  0  0  0  0  0  0  0  0  0  0
   -0.9730   25.1110  -26.6430 S   0  0  0  0  0  0  0  0  0  0  0  0
   -3.5150   26.0500  -31.2280 H   0  0  0  0  0  0  0  0  0  0  0  0
   -7.9038   24.0418  -30.9978 H   0  0  0  0  0  0  0  0  0  0  0  0
   -9.0810   21.7271  -32.2093 H   0  0  0  0  0  0  0  0  0  0  0  0
   -8.5137   19.4823  -33.2051 H   0  0  0  0  0  0  0  0  0  0  0  0
   -6.1412   15.8445  -35.3605 H   0  0  0  0  0  0  0  0  0  0  0  0
   -6.6874   15.0725  -33.0015 H   0  0  0  0  0  0  0  0  0  0  0  0
   -5.6233   13.9569  -33.9570 H   0  0  0  0  0  0  0  0  0  0  0  0
   -5.0988   15.3308  -31.4109 H   0  0  0  0  0  0  0  0  0  0  0  0
   -4.2139   13.9636  -32.2363 H   0  0  0  0  0  0  0  0  0  0  0  0
   -2.0752   16.0846  -34.0629 H   0  0  0  0  0  0  0  0  0  0  0  0
   -2.8754   14.4645  -34.0046 H   0  0  0  0  0  0  0  0  0  0  0  0
   -3.7360   16.9963  -35.3688 H   0  0  0  0  0  0  0  0  0  0  0  0
   -3.9638   15.2573  -35.8389 H   0  0  0  0  0  0  0  0  0  0  0  0
   -4.2796   20.2337  -32.4990 H   0  0  0  0  0  0  0  0  0  0  0  0
   -3.4340   23.5440  -29.2940 H   0  0  0  0  0  0  0  0  0  0  0  0
   -0.9356   22.3268  -30.4302 H   0  0  0  0  0  0  0  0  0  0  0  0
   -0.9390   24.1024  -30.0988 H   0  0  0  0  0  0  0  0  0  0  0  0
   -1.4272   21.8543  -28.0862 H   0  0  0  0  0  0  0  0  0  0  0  0
    0.0133   22.9493  -28.1949 H   0  0  0  0  0  0  0  0  0  0  0  0
   -4.4891   25.0940  -26.1341 H   0  0  0  0  0  0  0  0  0  0  0  0
   -2.4863   26.5843  -25.3187 H   0  0  0  0  0  0  0  0  0  0  0  0
  1  2  1  0
  2  3  2  0
  2  4  1  0
  4  5  2  0
  5  6  1  0
  6  7  2  0
  7  8  1  0
  8  9  2  0
  9 10  1  0
 10 11  3  0
 11 12  1  0
 12 13  1  0
 13 14  1  0
 14 15  1  0
 15 16  1  0
 16 17  1  0
  9 18  1  0
 18 19  2  0
 19 20  1  0
 20 21  1  0
 21 22  2  0
 21 23  1  0
 23 24  1  0
 24 25  1  0
 25 26  1  0
 26 27  2  0
 27 28  1  0
 28 29  2  0
 29 30  1  0
 20  4  1  0
 30 26  1  0
 19  6  1  0
 17 12  1  0
  1 31  1  0
  5 32  1  0
  7 33  1  0
  8 34  1  0
 12 35  1  0
 13 36  1  0
 13 37  1  0
 14 38  1  0
 14 39  1  0
 16 40  1  0
 16 41  1  0
 17 42  1  0
 17 43  1  0
 18 44  1  0
 23 45  1  0
 24 46  1  0
 24 47  1  0
 25 48  1  0
 25 49  1  0
 28 50  1  0
 29 51  1  0
M  CHG  1   1  -1
M  END
>  <UniqueID>  (58) 
58

>  <SMILES>  (58) 
[NH-]C(=O)c1cc2ccc(C#CC3CCOCC3)cc2n1C(=O)NCCc1nccs1

>  <Energy>  (58) 
120.81590114739937

>  <Genealogy>  (58) 
[NH-]C(=O)c1cc2ccc(C#CC3CCOCC3)cc2n1C(=O)NCCc1nccs1 (protonated)
[NH-]C(=O)c1cc2ccc(C#CC3CCOCC3)cc2n1C(=O)NCCc1nccs1 (3D coordinates assigned)
[NH-]C(=O)c1cc2ccc(C#CC3CCOCC3)cc2n1C(=O)NCCc1nccs1 (nonaromatic ring conformer: 120.81590114739937 kcal/mol)

>  <smiles>  (58) 
NC(=O)c1cc2ccc(C#CC3CCOCC3)cc2n1C(=O)NCCc1nccs1

>  <score_type>  (58) 
oracle

>  <origin>  (58) 
adg

>  <m_score__min__energy>  (58) 
-11.970000000000001

>  <m_primary>  (58) 
energy

$$$$
58:0
     RDKit          3D

 40 42  0  0  0  0  0  0  0  0999 V2000
   -2.0000   24.9220  -27.9070 C   0  0  0  0  0  0  0  0  0  0  0  0
   -1.8880   24.7870  -29.3050 O   0  0  0  0  0  0  0  0  0  0  0  0
   -1.7510   23.4210  -29.6370 C   0  0  0  0  0  0  0  0  0  0  0  0
   -3.1290   22.7600  -29.6570 C   0  0  0  0  0  0  0  0  0  0  0  0
   -3.7070   22.7810  -31.0410 C   0  0  0  0  0  0  0  0  0  0  0  0
   -2.9540   22.6130  -32.0370 O   0  0  0  0  0  0  0  0  0  0  0  0
   -5.1250   22.8720  -31.2310 N   0  0  0  0  0  0  0  0  0  0  0  0
   -5.9550   23.8890  -30.8730 C   0  0  0  0  0  0  0  0  0  0  0  0
   -5.5310   25.1830  -30.3010 C   0  0  0  0  0  0  0  0  0  0  0  0
   -4.2120   25.6670  -30.5390 N   0  0  0  0  0  0  0  0  0  0  0  0
   -6.3170   25.8590  -29.5860 O   0  0  0  0  0  0  0  0  0  0  0  0
   -7.2790   23.5590  -31.1620 C   0  0  0  0  0  0  0  0  0  0  0  0
   -7.2270   22.2950  -31.7120 C   0  0  0  0  0  0  0  0  0  0  0  0
   -8.2510   21.4680  -32.1610 C   0  0  0  0  0  0  0  0  0  0  0  0
   -7.9040   20.1940  -32.6450 C   0  0  0  0  0  0  0  0  0  0  0  0
   -6.5500   19.7680  -32.6690 C   0  0  0  0  0  0  0  0  0  0  0  0
   -6.2250   18.4120  -33.1630 C   0  0  0  0  0  0  0  0  0  0  0  0
   -6.4070   17.9660  -34.4220 N   0  0  0  0  0  0  0  0  0  0  0  0
   -5.9900   16.7120  -34.4680 N   0  0  0  0  0  0  0  0  0  0  0  0
   -5.5670   16.4310  -33.2200 C   0  0  0  0  0  0  0  0  0  0  0  0
   -4.9840   15.1220  -32.8110 C   0  0  0  0  0  0  0  0  0  0  0  0
   -5.7010   17.4640  -32.4200 O   0  0  0  0  0  0  0  0  0  0  0  0
   -5.5380   20.6450  -32.2140 C   0  0  0  0  0  0  0  0  0  0  0  0
   -5.9160   21.9060  -31.7430 C   0  0  0  0  0  0  0  0  0  0  0  0
   -1.3721   24.1652  -27.4141 H   0  0  0  0  0  0  0  0  0  0  0  0
   -1.6664   25.9266  -27.6077 H   0  0  0  0  0  0  0  0  0  0  0  0
   -3.0489   24.7796  -27.6077 H   0  0  0  0  0  0  0  0  0  0  0  0
   -1.2864   23.3299  -30.6299 H   0  0  0  0  0  0  0  0  0  0  0  0
   -1.1170   22.9238  -28.8881 H   0  0  0  0  0  0  0  0  0  0  0  0
   -3.0340   21.7168  -29.3211 H   0  0  0  0  0  0  0  0  0  0  0  0
   -3.7985   23.3176  -28.9856 H   0  0  0  0  0  0  0  0  0  0  0  0
   -3.4950   25.6680  -29.7810 H   0  0  0  0  0  0  0  0  0  0  0  0
   -8.1736   24.1751  -30.9884 H   0  0  0  0  0  0  0  0  0  0  0  0
   -9.2995   21.8000  -32.1383 H   0  0  0  0  0  0  0  0  0  0  0  0
   -8.6920   19.5188  -33.0098 H   0  0  0  0  0  0  0  0  0  0  0  0
   -6.7920   18.4830  -35.2420 H   0  0  0  0  0  0  0  0  0  0  0  0
   -4.9564   15.0599  -31.7131 H   0  0  0  0  0  0  0  0  0  0  0  0
   -5.6031   14.3045  -33.2090 H   0  0  0  0  0  0  0  0  0  0  0  0
   -3.9622   15.0353  -33.2090 H   0  0  0  0  0  0  0  0  0  0  0  0
   -4.4805   20.3427  -32.2303 H   0  0  0  0  0  0  0  0  0  0  0  0
  1  2  1  0
  2  3  1  0
  3  4  1  0
  4  5  1  0
  5  6  2  0
  5  7  1  0
  7  8  1  0
  8  9  1  0
  9 10  1  0
  9 11  2  0
  8 12  2  0
 12 13  1  0
 13 14  2  0
 14 15  1  0
 15 16  2  0
 16 17  1  0
 17 18  2  0
 18 19  1  0
 19 20  2  0
 20 21  1  0
 20 22  1  0
 16 23  1  0
 23 24  2  0
 24  7  1  0
 24 13  1  0
 22 17  1  0
  1 25  1  0
  1 26  1  0
  1 27  1  0
  3 28  1  0
  3 29  1  0
  4 30  1  0
  4 31  1  0
 10 32  1  0
 12 33  1  0
 14 34  1  0
 15 35  1  0
 18 36  1  0
 21 37  1  0
 21 38  1  0
 21 39  1  0
 23 40  1  0
M  CHG  2  10  -1  18   1
M  END
>  <UniqueID>  (59) 
59

>  <SMILES>  (59) 
COCCC(=O)n1c(C([NH-])=O)cc2ccc(-c3[nH+]nc(C)o3)cc21

>  <Energy>  (59) 
112.68648810938376

>  <Genealogy>  (59) 
COCCC(=O)n1c(C([NH-])=O)cc2ccc(-c3[nH+]nc(C)o3)cc21 (protonated)
COCCC(=O)n1c(C([NH-])=O)cc2ccc(-c3[nH+]nc(C)o3)cc21 (3D coordinates assigned)
COCCC(=O)n1c(C([NH-])=O)cc2ccc(-c3[nH+]nc(C)o3)cc21 (optimized conformer: 112.68648810938376 kcal/mol)

>  <smiles>  (59) 
COCCC(=O)n1c(C(N)=O)cc2ccc(-c3nnc(C)o3)cc21

>  <score_type>  (59) 
oracle

>  <origin>  (59) 
adg

>  <m_score__min__energy>  (59) 
-10.460000000000001

>  <m_primary>  (59) 
energy

$$$$
59:0
     RDKit          3D

 43 44  0  0  0  0  0  0  0  0999 V2000
   -2.4370   21.5240  -32.6710 C   0  0  0  0  0  0  0  0  0  0  0  0
   -3.3420   20.6490  -32.2380 C   0  0  0  0  0  0  0  0  0  0  0  0
   -4.4130   20.1130  -33.0990 C   0  0  0  0  0  0  0  0  0  0  0  0
   -4.0960   19.4880  -34.1460 O   0  0  0  0  0  0  0  0  0  0  0  0
   -5.8040   20.2970  -32.7830 N   0  0  0  0  0  0  0  0  0  0  0  0
   -6.8040   19.3720  -32.8100 C   0  0  0  0  0  0  0  0  0  0  0  0
   -6.6780   17.9760  -33.2770 C   0  0  0  0  0  0  0  0  0  0  0  0
   -5.9750   17.6520  -34.4780 N   0  0  0  0  0  0  0  0  0  0  0  0
   -7.2360   17.0540  -32.6240 O   0  0  0  0  0  0  0  0  0  0  0  0
   -7.9930   19.9240  -32.3390 C   0  0  0  0  0  0  0  0  0  0  0  0
   -7.6920   21.2340  -32.0400 C   0  0  0  0  0  0  0  0  0  0  0  0
   -8.4950   22.2430  -31.5150 C   0  0  0  0  0  0  0  0  0  0  0  0
   -7.9040   23.4940  -31.2660 C   0  0  0  0  0  0  0  0  0  0  0  0
   -6.5310   23.7120  -31.5490 C   0  0  0  0  0  0  0  0  0  0  0  0
   -5.8930   25.0320  -31.2180 C   0  0  0  0  0  0  0  0  0  0  0  0
   -4.9110   24.8580  -30.1040 C   0  0  0  0  0  0  0  0  0  0  0  0
   -5.3200   24.6580  -28.9280 O   0  0  0  0  0  0  0  0  0  0  0  0
   -3.5090   24.8860  -30.3870 N   0  0  0  0  0  0  0  0  0  0  0  0
   -2.6190   23.7750  -30.0820 C   0  0  0  0  0  0  0  0  0  0  0  0
   -1.7990   24.1030  -28.8350 C   0  0  0  0  0  0  0  0  0  0  0  0
   -2.3330   25.2950  -28.1620 N   0  0  0  0  0  0  0  0  0  0  0  0
   -2.2870   25.1560  -26.7040 C   0  0  0  0  0  0  0  0  0  0  0  0
   -5.7460   22.6610  -32.0740 C   0  0  0  0  0  0  0  0  0  0  0  0
   -6.3650   21.4330  -32.3200 C   0  0  0  0  0  0  0  0  0  0  0  0
   -1.6580   21.8932  -31.9877 H   0  0  0  0  0  0  0  0  0  0  0  0
   -2.4682   21.8779  -33.7121 H   0  0  0  0  0  0  0  0  0  0  0  0
   -3.2888   20.3110  -31.1926 H   0  0  0  0  0  0  0  0  0  0  0  0
   -5.8470   16.6540  -34.7550 H   0  0  0  0  0  0  0  0  0  0  0  0
   -5.6670   18.3950  -35.1420 H   0  0  0  0  0  0  0  0  0  0  0  0
   -8.9650   19.4208  -32.2293 H   0  0  0  0  0  0  0  0  0  0  0  0
   -9.5596   22.0666  -31.3015 H   0  0  0  0  0  0  0  0  0  0  0  0
   -8.5112   24.3106  -30.8483 H   0  0  0  0  0  0  0  0  0  0  0  0
   -5.3719   25.4181  -32.1065 H   0  0  0  0  0  0  0  0  0  0  0  0
   -6.6725   25.7426  -30.9057 H   0  0  0  0  0  0  0  0  0  0  0  0
   -3.2144   22.8680  -29.9006 H   0  0  0  0  0  0  0  0  0  0  0  0
   -1.9408   23.6062  -30.9314 H   0  0  0  0  0  0  0  0  0  0  0  0
   -1.8377   23.2493  -28.1424 H   0  0  0  0  0  0  0  0  0  0  0  0
   -0.7602   24.3024  -29.1367 H   0  0  0  0  0  0  0  0  0  0  0  0
   -3.3410   25.3880  -28.4280 H   0  0  0  0  0  0  0  0  0  0  0  0
   -2.5997   26.1009  -26.2355 H   0  0  0  0  0  0  0  0  0  0  0  0
   -2.9661   24.3492  -26.3910 H   0  0  0  0  0  0  0  0  0  0  0  0
   -1.2607   24.9136  -26.3910 H   0  0  0  0  0  0  0  0  0  0  0  0
   -4.6759   22.8059  -32.2835 H   0  0  0  0  0  0  0  0  0  0  0  0
  1  2  2  0
  2  3  1  0
  3  4  2  0
  3  5  1  0
  5  6  1  0
  6  7  1  0
  7  8  1  0
  7  9  2  0
  6 10  2  0
 10 11  1  0
 11 12  2  0
 12 13  1  0
 13 14  2  0
 14 15  1  0
 15 16  1  0
 16 17  2  0
 16 18  1  0
 18 19  1  0
 19 20  1  0
 20 21  1  0
 21 22  1  0
 14 23  1  0
 23 24  2  0
 24  5  1  0
 24 11  1  0
  1 25  1  0
  1 26  1  0
  2 27  1  0
  8 28  1  0
  8 29  1  0
 10 30  1  0
 12 31  1  0
 13 32  1  0
 15 33  1  0
 15 34  1  0
 19 35  1  0
 19 36  1  0
 20 37  1  0
 20 38  1  0
 21 39  1  0
 22 40  1  0
 22 41  1  0
 22 42  1  0
 23 43  1  0
M  CHG  1  18  -1
M  END
>  <UniqueID>  (60) 
60

>  <SMILES>  (60) 
C=CC(=O)n1c(C(N)=O)cc2ccc(CC(=O)[N-]CCNC)cc21

>  <Energy>  (60) 
74.67069734564875

>  <Genealogy>  (60) 
C=CC(=O)n1c(C(N)=O)cc2ccc(CC(=O)[N-]CCNC)cc21 (protonated)
C=CC(=O)n1c(C(N)=O)cc2ccc(CC(=O)[N-]CCNC)cc21 (3D coordinates assigned)
C=CC(=O)n1c(C(N)=O)cc2ccc(CC(=O)[N-]CCNC)cc21 (optimized conformer: 74.67069734564875 kcal/mol)

>  <smiles>  (60) 
C=CC(=O)n1c(C(N)=O)cc2ccc(CC(=O)NCCNC)cc21

>  <score_type>  (60) 
oracle

>  <origin>  (60) 
adg

>  <m_score__min__energy>  (60) 
-9.2400000000000002

>  <m_primary>  (60) 
energy

$$$$
60:0
     RDKit          3D

 57 59  0  0  0  0  0  0  0  0999 V2000
   -0.1150   27.3700  -27.1700 C   0  0  0  0  0  0  0  0  0  0  0  0
   -1.2610   26.4330  -27.5760 C   0  0  1  0  0  0  0  0  0  0  0  0
   -1.2100   26.2130  -28.9640 O   0  0  0  0  0  0  0  0  0  0  0  0
   -1.1620   25.0720  -26.8580 C   0  0  0  0  0  0  0  0  0  0  0  0
   -2.3490   24.1560  -27.0820 C   0  0  0  0  0  0  0  0  0  0  0  0
   -3.4860   24.5000  -26.6520 O   0  0  0  0  0  0  0  0  0  0  0  0
   -2.2230   22.9180  -27.8220 N   0  0  0  0  0  0  0  0  0  0  0  0
   -0.9370   22.4390  -28.3590 C   0  0  0  0  0  0  0  0  0  0  0  0
   -1.0830   22.0720  -29.8420 C   0  0  0  0  0  0  0  0  0  0  0  0
   -2.3620   21.2360  -30.1680 C   0  0  0  0  0  0  0  0  0  0  0  0
   -3.2140   21.9220  -31.2320 C   0  0  0  0  0  0  0  0  0  0  0  0
   -2.6640   22.3160  -32.2970 O   0  0  0  0  0  0  0  0  0  0  0  0
   -4.6370   22.0670  -31.1010 N   0  0  0  0  0  0  0  0  0  0  0  0
   -5.3160   23.1400  -30.6070 C   0  0  0  0  0  0  0  0  0  0  0  0
   -4.7150   24.3610  -30.0170 C   0  0  0  0  0  0  0  0  0  0  0  0
   -4.9930   24.7730  -28.6770 N   0  0  0  0  0  0  0  0  0  0  0  0
   -3.9590   25.0750  -30.7290 O   0  0  0  0  0  0  0  0  0  0  0  0
   -6.6840   22.9920  -30.8170 C   0  0  0  0  0  0  0  0  0  0  0  0
   -6.8230   21.7990  -31.4890 C   0  0  0  0  0  0  0  0  0  0  0  0
   -7.9610   21.1900  -32.0020 C   0  0  0  0  0  0  0  0  0  0  0  0
   -7.8010   19.9990  -32.7300 C   0  0  0  0  0  0  0  0  0  0  0  0
   -6.5100   19.4440  -32.9570 C   0  0  0  0  0  0  0  0  0  0  0  0
   -6.3520   18.2250  -33.7270 N   0  0  0  0  0  0  0  0  0  0  0  0
   -6.8470   16.9450  -33.2060 C   0  0  0  0  0  0  0  0  0  0  0  0
   -5.6860   18.2520  -35.0350 C   0  0  0  0  0  0  0  0  0  0  0  0
   -5.3790   20.1090  -32.4190 C   0  0  0  0  0  0  0  0  0  0  0  0
   -5.5740   21.2730  -31.6670 C   0  0  0  0  0  0  0  0  0  0  0  0
   -3.1430   20.8610  -28.8820 C   0  0  0  0  0  0  0  0  0  0  0  0
   -3.4240   22.0870  -28.0060 C   0  0  0  0  0  0  0  0  0  0  0  0
   -0.0536   27.4202  -26.0729 H   0  0  0  0  0  0  0  0  0  0  0  0
    0.8334   26.9853  -27.5731 H   0  0  0  0  0  0  0  0  0  0  0  0
   -0.3036   28.3760  -27.5731 H   0  0  0  0  0  0  0  0  0  0  0  0
   -2.2084   26.9124  -27.2887 H   0  0  0  0  0  0  0  0  0  0  0  0
   -0.4970   26.8030  -29.3260 H   0  0  0  0  0  0  0  0  0  0  0  0
   -0.2586   24.5582  -27.2183 H   0  0  0  0  0  0  0  0  0  0  0  0
   -1.1323   25.2882  -25.7799 H   0  0  0  0  0  0  0  0  0  0  0  0
   -0.1819   23.2320  -28.2540 H   0  0  0  0  0  0  0  0  0  0  0  0
   -0.6254   21.5455  -27.7981 H   0  0  0  0  0  0  0  0  0  0  0  0
   -1.1204   23.0031  -30.4265 H   0  0  0  0  0  0  0  0  0  0  0  0
   -0.2181   21.4434  -30.1004 H   0  0  0  0  0  0  0  0  0  0  0  0
   -2.0480   20.2778  -30.6076 H   0  0  0  0  0  0  0  0  0  0  0  0
   -4.5230   25.6180  -28.2850 H   0  0  0  0  0  0  0  0  0  0  0  0
   -5.7240   24.3100  -28.1010 H   0  0  0  0  0  0  0  0  0  0  0  0
   -7.4841   23.6820  -30.5109 H   0  0  0  0  0  0  0  0  0  0  0  0
   -8.9578   21.6271  -31.8431 H   0  0  0  0  0  0  0  0  0  0  0  0
   -8.6881   19.4870  -33.1312 H   0  0  0  0  0  0  0  0  0  0  0  0
   -6.8379   16.9686  -32.1063 H   0  0  0  0  0  0  0  0  0  0  0  0
   -7.8747   16.7776  -33.5607 H   0  0  0  0  0  0  0  0  0  0  0  0
   -6.1993   16.1297  -33.5607 H   0  0  0  0  0  0  0  0  0  0  0  0
   -4.5964   18.2962  -34.8908 H   0  0  0  0  0  0  0  0  0  0  0  0
   -5.9449   17.3426  -35.5971 H   0  0  0  0  0  0  0  0  0  0  0  0
   -6.0177   19.1374  -35.5971 H   0  0  0  0  0  0  0  0  0  0  0  0
   -4.3657   19.7166  -32.5898 H   0  0  0  0  0  0  0  0  0  0  0  0
   -4.1006   20.4017  -29.1687 H   0  0  0  0  0  0  0  0  0  0  0  0
   -2.5257   20.1606  -28.3003 H   0  0  0  0  0  0  0  0  0  0  0  0
   -4.2064   22.6941  -28.4847 H   0  0  0  0  0  0  0  0  0  0  0  0
   -3.7471   21.7316  -27.0164 H   0  0  0  0  0  0  0  0  0  0  0  0
  1  2  1  0
  2  3  1  0
  2  4  1  0
  4  5  1  0
  5  6  2  0
  5  7  1  0
  7  8  1  0
  8  9  1  0
  9 10  1  0
 10 11  1  0
 11 12  2  0
 11 13  1  0
 13 14  1  0
 14 15  1  0
 15 16  1  0
 15 17  2  0
 14 18  2  0
 18 19  1  0
 19 20  2  0
 20 21  1  0
 21 22  2  0
 22 23  1  0
 23 24  1  0
 23 25  1  0
 22 26  1  0
 26 27  2  0
 10 28  1  0
 28 29  1  0
 29  7  1  0
 27 13  1  0
 27 19  1  0
  1 30  1  0
  1 31  1  0
  1 32  1  0
  2 33  1  6
  3 34  1  0
  4 35  1  0
  4 36  1  0
  8 37  1  0
  8 38  1  0
  9 39  1  0
  9 40  1  0
 10 41  1  0
 16 42  1  0
 16 43  1  0
 18 44  1  0
 20 45  1  0
 21 46  1  0
 24 47  1  0
 24 48  1  0
 24 49  1  0
 25 50  1  0
 25 51  1  0
 25 52  1  0
 26 53  1  0
 28 54  1  0
 28 55  1  0
 29 56  1  0
 29 57  1  0
M  END
>  <UniqueID>  (61) 
61

>  <SMILES>  (61) 
C[C@@H](O)CC(=O)N1CCC(C(=O)n2c(C(N)=O)cc3ccc(N(C)C)cc32)CC1

>  <Energy>  (61) 
102.95733734371277

>  <Genealogy>  (61) 
C[C@@H](O)CC(=O)N1CCC(C(=O)n2c(C(N)=O)cc3ccc(N(C)C)cc32)CC1 (3D coordinates assigned)
C[C@@H](O)CC(=O)N1CCC(C(=O)n2c(C(N)=O)cc3ccc(N(C)C)cc32)CC1 (nonaromatic ring conformer: 102.95733734371277 kcal/mol)

>  <smiles>  (61) 
C[C@@H](O)CC(=O)N1CCC(C(=O)n2c(C(N)=O)cc3ccc(N(C)C)cc32)CC1

>  <score_type>  (61) 
oracle

>  <origin>  (61) 
adg

>  <m_score__min__energy>  (61) 
-10.029999999999999

>  <m_primary>  (61) 
energy

$$$$
61:0
     RDKit          3D

 46 47  0  0  0  0  0  0  0  0999 V2000
   -6.9180   18.3590  -32.4520 C   0  0  0  0  0  0  0  0  0  0  0  0
   -7.0560   19.8250  -32.1640 C   0  0  0  0  0  0  0  0  0  0  0  0
   -8.3320   20.4360  -32.1980 C   0  0  0  0  0  0  0  0  0  0  0  0
   -8.4810   21.8010  -31.8980 C   0  0  0  0  0  0  0  0  0  0  0  0
   -7.3410   22.5190  -31.5480 C   0  0  0  0  0  0  0  0  0  0  0  0
   -7.2010   23.8440  -31.2090 C   0  0  0  0  0  0  0  0  0  0  0  0
   -5.8440   24.0130  -30.9360 C   0  0  0  0  0  0  0  0  0  0  0  0
   -5.2550   25.2840  -30.4640 C   0  0  0  0  0  0  0  0  0  0  0  0
   -3.9250   25.6340  -30.8420 N   0  0  0  0  0  0  0  0  0  0  0  0
   -5.9200   26.0770  -29.7460 O   0  0  0  0  0  0  0  0  0  0  0  0
   -5.1730   22.8390  -31.1040 N   0  0  0  0  0  0  0  0  0  0  0  0
   -3.7650   22.6090  -30.9250 C   0  0  0  0  0  0  0  0  0  0  0  0
   -3.0190   22.5070  -31.9350 O   0  0  0  0  0  0  0  0  0  0  0  0
   -3.1630   22.4690  -29.5560 C   0  0  0  0  0  0  0  0  0  0  0  0
   -3.2890   23.7270  -28.8140 N   0  0  0  0  0  0  0  0  0  0  0  0
   -1.7190   24.3280  -28.3730 S   0  0  0  0  0  0  0  0  0  0  0  0
   -1.5160   25.6870  -28.9860 O   0  0  0  0  0  0  0  0  0  0  0  0
   -0.6810   23.3920  -28.9280 O   0  0  0  0  0  0  0  0  0  0  0  0
   -1.5500   24.3690  -26.5810 C   0  0  0  0  0  0  0  0  0  0  0  0
   -2.4120   25.4610  -25.9010 C   0  0  0  0  0  0  0  0  0  0  0  0
   -1.6450   26.5100  -25.1860 N   0  0  0  0  0  0  0  0  0  0  0  0
   -0.8730   27.3790  -26.0830 C   0  0  0  0  0  0  0  0  0  0  0  0
   -0.8030   25.9730  -24.1050 C   0  0  0  0  0  0  0  0  0  0  0  0
   -6.1030   21.9340  -31.4810 C   0  0  0  0  0  0  0  0  0  0  0  0
   -5.9230   20.5820  -31.7930 C   0  0  0  0  0  0  0  0  0  0  0  0
   -6.8656   17.8025  -31.5046 H   0  0  0  0  0  0  0  0  0  0  0  0
   -7.7878   18.0157  -33.0313 H   0  0  0  0  0  0  0  0  0  0  0  0
   -5.9994   18.1840  -33.0313 H   0  0  0  0  0  0  0  0  0  0  0  0
   -9.2159   19.8367  -32.4618 H   0  0  0  0  0  0  0  0  0  0  0  0
   -9.4672   22.2865  -31.9385 H   0  0  0  0  0  0  0  0  0  0  0  0
   -7.9911   24.6080  -31.1629 H   0  0  0  0  0  0  0  0  0  0  0  0
   -3.1030   25.2930  -30.2980 H   0  0  0  0  0  0  0  0  0  0  0  0
   -3.6867   21.6711  -29.0091 H   0  0  0  0  0  0  0  0  0  0  0  0
   -2.0967   22.2187  -29.6578 H   0  0  0  0  0  0  0  0  0  0  0  0
   -3.7320   24.4410  -29.4390 H   0  0  0  0  0  0  0  0  0  0  0  0
   -1.8509   23.3895  -26.1810 H   0  0  0  0  0  0  0  0  0  0  0  0
   -0.4984   24.6058  -26.3619 H   0  0  0  0  0  0  0  0  0  0  0  0
   -3.0175   25.9507  -26.6779 H   0  0  0  0  0  0  0  0  0  0  0  0
   -3.0142   24.9464  -25.1378 H   0  0  0  0  0  0  0  0  0  0  0  0
   -0.2594   28.0697  -25.4860 H   0  0  0  0  0  0  0  0  0  0  0  0
   -0.2192   26.7627  -26.7175 H   0  0  0  0  0  0  0  0  0  0  0  0
   -1.5621   27.9557  -26.7175 H   0  0  0  0  0  0  0  0  0  0  0  0
   -1.2355   26.2488  -23.1319 H   0  0  0  0  0  0  0  0  0  0  0  0
   -0.7550   24.8772  -24.1875 H   0  0  0  0  0  0  0  0  0  0  0  0
    0.2109   26.3916  -24.1875 H   0  0  0  0  0  0  0  0  0  0  0  0
   -4.9252   20.1209  -31.7504 H   0  0  0  0  0  0  0  0  0  0  0  0
  1  2  1  0
  2  3  2  0
  3  4  1  0
  4  5  2  0
  5  6  1  0
  6  7  2  0
  7  8  1  0
  8  9  1  0
  8 10  2  0
  7 11  1  0
 11 12  1  0
 12 13  2  0
 12 14  1  0
 14 15  1  0
 15 16  1  0
 16 17  2  0
 16 18  2  0
 16 19  1  0
 19 20  1  0
 20 21  1  0
 21 22  1  0
 21 23  1  0
 11 24  1  0
 24 25  2  0
 25  2  1  0
 24  5  1  0
  1 26  1  0
  1 27  1  0
  1 28  1  0
  3 29  1  0
  4 30  1  0
  6 31  1  0
  9 32  1  0
 14 33  1  0
 14 34  1  0
 15 35  1  0
 19 36  1  0
 19 37  1  0
 20 38  1  0
 20 39  1  0
 22 40  1  0
 22 41  1  0
 22 42  1  0
 23 43  1  0
 23 44  1  0
 23 45  1  0
 25 46  1  0
M  CHG  1   9  -1
M  END
>  <UniqueID>  (62) 
62

>  <SMILES>  (62) 
Cc1ccc2cc(C([NH-])=O)n(C(=O)CNS(=O)(=O)CCN(C)C)c2c1

>  <Energy>  (62) 
83.0581581472851

>  <Genealogy>  (62) 
Cc1ccc2cc(C([NH-])=O)n(C(=O)CNS(=O)(=O)CCN(C)C)c2c1 (protonated)
Cc1ccc2cc(C([NH-])=O)n(C(=O)CNS(=O)(=O)CCN(C)C)c2c1 (3D coordinates assigned)
Cc1ccc2cc(C([NH-])=O)n(C(=O)CNS(=O)(=O)CCN(C)C)c2c1 (optimized conformer: 83.0581581472851 kcal/mol)

>  <smiles>  (62) 
Cc1ccc2cc(C(N)=O)n(C(=O)CNS(=O)(=O)CCN(C)C)c2c1

>  <score_type>  (62) 
oracle

>  <origin>  (62) 
adg

>  <m_score__min__energy>  (62) 
-10.69

>  <m_primary>  (62) 
energy

$$$$
62:0
     RDKit          3D

 37 39  0  0  0  0  0  0  0  0999 V2000
    0.0070   23.6830  -28.3650 N   0  0  0  0  0  0  0  0  0  0  0  0
   -0.2980   22.3020  -28.5620 C   0  0  0  0  0  0  0  0  0  0  0  0
    0.2540   21.4400  -27.8270 O   0  0  0  0  0  0  0  0  0  0  0  0
   -1.2820   21.8670  -29.5750 C   0  0  0  0  0  0  0  0  0  0  0  0
   -1.0320   20.8700  -30.5150 C   0  0  0  0  0  0  0  0  0  0  0  0
   -2.1900   20.7680  -31.2530 C   0  0  0  0  0  0  0  0  0  0  0  0
   -2.4910   19.9520  -32.3390 C   0  0  0  0  0  0  0  0  0  0  0  0
   -3.7530   20.0940  -32.9410 C   0  0  0  0  0  0  0  0  0  0  0  0
   -4.6790   21.0540  -32.4590 C   0  0  0  0  0  0  0  0  0  0  0  0
   -6.0330   21.1980  -33.1030 C   0  0  0  0  0  0  0  0  0  0  0  0
   -6.9980   20.1750  -32.5500 C   0  0  0  0  0  0  0  0  0  0  0  0
   -6.7250   18.8060  -32.7290 C   0  0  0  0  0  0  0  0  0  0  0  0
   -7.6160   17.8380  -32.2640 C   0  0  0  0  0  0  0  0  0  0  0  0
   -8.7930   18.2210  -31.6180 C   0  0  0  0  0  0  0  0  0  0  0  0
   -9.0810   19.5750  -31.4390 C   0  0  0  0  0  0  0  0  0  0  0  0
   -8.1950   20.5560  -31.9020 C   0  0  0  0  0  0  0  0  0  0  0  0
   -8.6220   22.2450  -31.6500 Cl  0  0  0  0  0  0  0  0  0  0  0  0
   -4.3310   21.8730  -31.3630 C   0  0  0  0  0  0  0  0  0  0  0  0
   -3.0820   21.6870  -30.7630 C   0  0  0  0  0  0  0  0  0  0  0  0
   -2.5420   22.3640  -29.7250 N   0  0  0  0  0  0  0  0  0  0  0  0
   -3.1250   23.4830  -29.0380 C   0  0  0  0  0  0  0  0  0  0  0  0
   -3.8230   23.2860  -28.0090 O   0  0  0  0  0  0  0  0  0  0  0  0
   -2.9460   24.8550  -29.5380 C   0  0  0  0  0  0  0  0  0  0  0  0
   -3.6800   25.2990  -30.4600 O   0  0  0  0  0  0  0  0  0  0  0  0
   -1.9780   25.6780  -28.9760 O   0  0  0  0  0  0  0  0  0  0  0  0
    0.7500   23.9630  -27.6880 H   0  0  0  0  0  0  0  0  0  0  0  0
   -0.5680   24.4340  -28.8080 H   0  0  0  0  0  0  0  0  0  0  0  0
   -0.1069   20.2883  -30.6409 H   0  0  0  0  0  0  0  0  0  0  0  0
   -1.7632   19.2179  -32.7151 H   0  0  0  0  0  0  0  0  0  0  0  0
   -4.0250   19.4547  -33.7938 H   0  0  0  0  0  0  0  0  0  0  0  0
   -6.4226   22.2071  -32.9032 H   0  0  0  0  0  0  0  0  0  0  0  0
   -5.9288   21.0371  -34.1862 H   0  0  0  0  0  0  0  0  0  0  0  0
   -5.8013   18.4964  -33.2399 H   0  0  0  0  0  0  0  0  0  0  0  0
   -7.3906   16.7708  -32.4067 H   0  0  0  0  0  0  0  0  0  0  0  0
   -9.4929   17.4562  -31.2503 H   0  0  0  0  0  0  0  0  0  0  0  0
  -10.0099   19.8736  -30.9310 H   0  0  0  0  0  0  0  0  0  0  0  0
   -5.0262   22.6395  -30.9899 H   0  0  0  0  0  0  0  0  0  0  0  0
  1  2  1  0
  2  3  2  0
  2  4  1  0
  4  5  2  0
  5  6  1  0
  6  7  2  0
  7  8  1  0
  8  9  2  0
  9 10  1  0
 10 11  1  0
 11 12  2  0
 12 13  1  0
 13 14  2  0
 14 15  1  0
 15 16  2  0
 16 17  1  0
  9 18  1  0
 18 19  2  0
 19 20  1  0
 20 21  1  0
 21 22  2  0
 21 23  1  0
 23 24  2  0
 23 25  1  0
 20  4  1  0
 19  6  1  0
 16 11  1  0
  1 26  1  0
  1 27  1  0
  5 28  1  0
  7 29  1  0
  8 30  1  0
 10 31  1  0
 10 32  1  0
 12 33  1  0
 13 34  1  0
 14 35  1  0
 15 36  1  0
 18 37  1  0
M  CHG  1  25  -1
M  END
>  <UniqueID>  (63) 
63

>  <SMILES>  (63) 
NC(=O)c1cc2ccc(Cc3ccccc3Cl)cc2n1C(=O)C(=O)[O-]

>  <Energy>  (63) 
79.56908248872519

>  <Genealogy>  (63) 
NC(=O)c1cc2ccc(Cc3ccccc3Cl)cc2n1C(=O)C(=O)[O-] (protonated)
NC(=O)c1cc2ccc(Cc3ccccc3Cl)cc2n1C(=O)C(=O)[O-] (3D coordinates assigned)
NC(=O)c1cc2ccc(Cc3ccccc3Cl)cc2n1C(=O)C(=O)[O-] (optimized conformer: 79.56908248872519 kcal/mol)

>  <smiles>  (63) 
NC(=O)c1cc2ccc(Cc3ccccc3Cl)cc2n1C(=O)C(=O)O

>  <score_type>  (63) 
oracle

>  <origin>  (63) 
adg

>  <m_score__min__energy>  (63) 
-10.779999999999999

>  <m_primary>  (63) 
energy

$$$$
63:0
     RDKit          3D

 50 51  0  0  0  0  0  0  0  0999 V2000
   -3.1060   21.1680  -28.7730 C   0  0  0  0  0  0  0  0  0  0  0  0
   -3.6300   21.6650  -29.9830 O   0  0  0  0  0  0  0  0  0  0  0  0
   -2.6110   21.6930  -30.9600 C   0  0  0  0  0  0  0  0  0  0  0  0
   -3.2300   21.9040  -32.3450 C   0  0  0  0  0  0  0  0  0  0  0  0
   -2.6450   20.9560  -33.4010 C   0  0  0  0  0  0  0  0  0  0  0  0
   -3.6350   20.0620  -33.9050 O   0  0  0  0  0  0  0  0  0  0  0  0
   -3.9950   18.8680  -33.2710 C   0  0  0  0  0  0  0  0  0  0  0  0
   -3.1070   18.0810  -32.8400 O   0  0  0  0  0  0  0  0  0  0  0  0
   -5.3830   18.5220  -33.1410 N   0  0  0  0  0  0  0  0  0  0  0  0
   -5.9820   17.3430  -33.4730 C   0  0  0  0  0  0  0  0  0  0  0  0
   -5.3470   16.2190  -34.1930 C   0  0  0  0  0  0  0  0  0  0  0  0
   -4.2170   16.4590  -35.0280 N   0  0  0  0  0  0  0  0  0  0  0  0
   -5.7700   15.0420  -34.0520 O   0  0  0  0  0  0  0  0  0  0  0  0
   -7.3260   17.3580  -33.1040 C   0  0  0  0  0  0  0  0  0  0  0  0
   -7.5340   18.5930  -32.5360 C   0  0  0  0  0  0  0  0  0  0  0  0
   -8.6890   19.1400  -31.9800 C   0  0  0  0  0  0  0  0  0  0  0  0
   -8.6080   20.4310  -31.4320 C   0  0  0  0  0  0  0  0  0  0  0  0
   -7.3830   21.1380  -31.4460 C   0  0  0  0  0  0  0  0  0  0  0  0
   -7.3120   22.4570  -30.8740 C   0  0  0  0  0  0  0  0  0  0  0  0
   -7.2550   23.5620  -30.3960 C   0  0  0  0  0  0  0  0  0  0  0  0
   -7.1830   24.9040  -29.8100 C   0  0  0  0  0  0  0  0  0  0  0  0
   -5.7960   25.2460  -29.5040 N   0  0  0  0  0  0  0  0  0  0  0  0
   -4.7040   24.8800  -30.3560 C   0  0  0  0  0  0  0  0  0  0  0  0
   -4.9140   24.2280  -31.4160 O   0  0  0  0  0  0  0  0  0  0  0  0
   -3.4040   25.2600  -30.0010 O   0  0  0  0  0  0  0  0  0  0  0  0
   -2.5570   24.4660  -29.1750 C   0  0  0  0  0  0  0  0  0  0  0  0
   -1.2810   25.1900  -28.8860 C   0  0  0  0  0  0  0  0  0  0  0  0
   -1.2330   26.4460  -28.9630 O   0  0  0  0  0  0  0  0  0  0  0  0
   -0.1310   24.4750  -28.5710 O   0  0  0  0  0  0  0  0  0  0  0  0
   -6.2320   20.5560  -32.0130 C   0  0  0  0  0  0  0  0  0  0  0  0
   -6.3450   19.2760  -32.5690 C   0  0  0  0  0  0  0  0  0  0  0  0
   -3.6158   21.6515  -27.9266 H   0  0  0  0  0  0  0  0  0  0  0  0
   -3.2647   20.0806  -28.7239 H   0  0  0  0  0  0  0  0  0  0  0  0
   -2.0285   21.3839  -28.7239 H   0  0  0  0  0  0  0  0  0  0  0  0
   -1.9164   22.5172  -30.7404 H   0  0  0  0  0  0  0  0  0  0  0  0
   -2.0663   20.7374  -30.9460 H   0  0  0  0  0  0  0  0  0  0  0  0
   -4.3141   21.7304  -32.2770 H   0  0  0  0  0  0  0  0  0  0  0  0
   -3.0041   22.9339  -32.6586 H   0  0  0  0  0  0  0  0  0  0  0  0
   -2.2442   21.5522  -34.2340 H   0  0  0  0  0  0  0  0  0  0  0  0
   -1.8501   20.3605  -32.9283 H   0  0  0  0  0  0  0  0  0  0  0  0
   -3.4950   17.1680  -34.7660 H   0  0  0  0  0  0  0  0  0  0  0  0
   -8.0635   16.5531  -33.2385 H   0  0  0  0  0  0  0  0  0  0  0  0
   -9.6347   18.5783  -31.9705 H   0  0  0  0  0  0  0  0  0  0  0  0
   -9.5021   20.8946  -30.9896 H   0  0  0  0  0  0  0  0  0  0  0  0
   -7.5885   25.6351  -30.5249 H   0  0  0  0  0  0  0  0  0  0  0  0
   -7.7711   24.9224  -28.8806 H   0  0  0  0  0  0  0  0  0  0  0  0
   -5.5970   25.8270  -28.6600 H   0  0  0  0  0  0  0  0  0  0  0  0
   -3.0735   24.2502  -28.2281 H   0  0  0  0  0  0  0  0  0  0  0  0
   -2.3234   23.5286  -29.7011 H   0  0  0  0  0  0  0  0  0  0  0  0
   -5.2715   21.0922  -32.0187 H   0  0  0  0  0  0  0  0  0  0  0  0
  1  2  1  0
  2  3  1  0
  3  4  1  0
  4  5  1  0
  5  6  1  0
  6  7  1  0
  7  8  2  0
  7  9  1  0
  9 10  1  0
 10 11  1  0
 11 12  1  0
 11 13  2  0
 10 14  2  0
 14 15  1  0
 15 16  2  0
 16 17  1  0
 17 18  2  0
 18 19  1  0
 19 20  3  0
 20 21  1  0
 21 22  1  0
 22 23  1  0
 23 24  2  0
 23 25  1  0
 25 26  1  0
 26 27  1  0
 27 28  2  0
 27 29  1  0
 18 30  1  0
 30 31  2  0
 31  9  1  0
 31 15  1  0
  1 32  1  0
  1 33  1  0
  1 34  1  0
  3 35  1  0
  3 36  1  0
  4 37  1  0
  4 38  1  0
  5 39  1  0
  5 40  1  0
 12 41  1  0
 14 42  1  0
 16 43  1  0
 17 44  1  0
 21 45  1  0
 21 46  1  0
 22 47  1  0
 26 48  1  0
 26 49  1  0
 30 50  1  0
M  CHG  2  12  -1  29  -1
M  END
>  <UniqueID>  (64) 
64

>  <SMILES>  (64) 
COCCCOC(=O)n1c(C([NH-])=O)cc2ccc(C#CCNC(=O)OCC(=O)[O-])cc21

>  <Energy>  (64) 
74.05439390779507

>  <Genealogy>  (64) 
COCCCOC(=O)n1c(C([NH-])=O)cc2ccc(C#CCNC(=O)OCC(=O)[O-])cc21 (protonated)
COCCCOC(=O)n1c(C([NH-])=O)cc2ccc(C#CCNC(=O)OCC(=O)[O-])cc21 (3D coordinates assigned)
COCCCOC(=O)n1c(C([NH-])=O)cc2ccc(C#CCNC(=O)OCC(=O)[O-])cc21 (optimized conformer: 74.05439390779507 kcal/mol)

>  <smiles>  (64) 
COCCCOC(=O)n1c(C(N)=O)cc2ccc(C#CCNC(=O)OCC(=O)O)cc21

>  <score_type>  (64) 
oracle

>  <origin>  (64) 
adg

>  <m_score__min__energy>  (64) 
-10.359999999999999

>  <m_primary>  (64) 
energy

$$$$
64:0
     RDKit          3D

 39 41  0  0  0  0  0  0  0  0999 V2000
   -3.8900   25.6670  -30.9160 N   0  0  0  0  0  0  0  0  0  0  0  0
   -5.2110   25.3050  -30.5160 C   0  0  0  0  0  0  0  0  0  0  0  0
   -5.8530   26.0690  -29.7480 O   0  0  0  0  0  0  0  0  0  0  0  0
   -5.8230   24.0660  -31.0370 C   0  0  0  0  0  0  0  0  0  0  0  0
   -7.1970   23.8920  -31.1890 C   0  0  0  0  0  0  0  0  0  0  0  0
   -7.3540   22.5920  -31.6150 C   0  0  0  0  0  0  0  0  0  0  0  0
   -8.5100   21.8910  -31.9360 C   0  0  0  0  0  0  0  0  0  0  0  0
   -8.3780   20.5650  -32.3820 C   0  0  0  0  0  0  0  0  0  0  0  0
   -7.0910   19.9640  -32.5080 C   0  0  0  0  0  0  0  0  0  0  0  0
   -6.8740   18.5410  -32.9960 C   0  0  0  0  0  0  0  0  0  0  0  0
   -5.8700   18.3350  -34.1220 C   0  0  0  0  0  0  0  0  0  0  0  0
   -5.5230   17.9020  -32.7030 C   0  0  0  0  0  0  0  0  0  0  0  0
   -5.9440   20.7170  -32.1710 C   0  0  0  0  0  0  0  0  0  0  0  0
   -6.1100   22.0290  -31.7120 C   0  0  0  0  0  0  0  0  0  0  0  0
   -5.1580   22.9210  -31.3610 N   0  0  0  0  0  0  0  0  0  0  0  0
   -3.7370   22.7150  -31.4130 C   0  0  0  0  0  0  0  0  0  0  0  0
   -3.2090   22.2300  -32.4500 O   0  0  0  0  0  0  0  0  0  0  0  0
   -2.9450   23.0750  -30.3170 O   0  0  0  0  0  0  0  0  0  0  0  0
   -3.3440   22.8820  -28.9610 C   0  0  0  0  0  0  0  0  0  0  0  0
   -3.3550   24.2090  -28.1920 C   0  0  0  0  0  0  0  0  0  0  0  0
   -1.9470   24.7980  -28.0560 C   0  0  0  0  0  0  0  0  0  0  0  0
   -1.7730   25.8490  -28.9680 O   0  0  0  0  0  0  0  0  0  0  0  0
   -3.0550   25.2510  -30.4490 H   0  0  0  0  0  0  0  0  0  0  0  0
   -7.9878   24.6348  -31.0074 H   0  0  0  0  0  0  0  0  0  0  0  0
   -9.5004   22.3607  -31.8436 H   0  0  0  0  0  0  0  0  0  0  0  0
   -9.2770   19.9845  -32.6366 H   0  0  0  0  0  0  0  0  0  0  0  0
   -7.9229   18.2560  -32.8271 H   0  0  0  0  0  0  0  0  0  0  0  0
   -6.0604   17.5780  -34.8970 H   0  0  0  0  0  0  0  0  0  0  0  0
   -5.3996   18.9861  -34.8736 H   0  0  0  0  0  0  0  0  0  0  0  0
   -5.4629   16.8324  -32.4534 H   0  0  0  0  0  0  0  0  0  0  0  0
   -4.6984   18.1109  -32.0055 H   0  0  0  0  0  0  0  0  0  0  0  0
   -4.9390   20.2803  -32.2675 H   0  0  0  0  0  0  0  0  0  0  0  0
   -4.3547   22.4482  -28.9426 H   0  0  0  0  0  0  0  0  0  0  0  0
   -2.6229   22.2057  -28.4786 H   0  0  0  0  0  0  0  0  0  0  0  0
   -3.9913   24.9272  -28.7299 H   0  0  0  0  0  0  0  0  0  0  0  0
   -3.7446   24.0161  -27.1816 H   0  0  0  0  0  0  0  0  0  0  0  0
   -1.8090   25.1778  -27.0329 H   0  0  0  0  0  0  0  0  0  0  0  0
   -1.2066   24.0123  -28.2673 H   0  0  0  0  0  0  0  0  0  0  0  0
   -2.6690   26.0500  -29.3440 H   0  0  0  0  0  0  0  0  0  0  0  0
  1  2  1  0
  2  3  2  0
  2  4  1  0
  4  5  2  0
  5  6  1  0
  6  7  2  0
  7  8  1  0
  8  9  2  0
  9 10  1  0
 10 11  1  0
 11 12  1  0
  9 13  1  0
 13 14  2  0
 14 15  1  0
 15 16  1  0
 16 17  2  0
 16 18  1  0
 18 19  1  0
 19 20  1  0
 20 21  1  0
 21 22  1  0
 15  4  1  0
 14  6  1  0
 12 10  1  0
  1 23  1  0
  5 24  1  0
  7 25  1  0
  8 26  1  0
 10 27  1  0
 11 28  1  0
 11 29  1  0
 12 30  1  0
 12 31  1  0
 13 32  1  0
 19 33  1  0
 19 34  1  0
 20 35  1  0
 20 36  1  0
 21 37  1  0
 21 38  1  0
 22 39  1  0
M  CHG  1   1  -1
M  END
>  <UniqueID>  (65) 
65

>  <SMILES>  (65) 
[NH-]C(=O)c1cc2ccc(C3CC3)cc2n1C(=O)OCCCO

>  <Energy>  (65) 
340.8058671259113

>  <Genealogy>  (65) 
[NH-]C(=O)c1cc2ccc(C3CC3)cc2n1C(=O)OCCCO (protonated)
[NH-]C(=O)c1cc2ccc(C3CC3)cc2n1C(=O)OCCCO (3D coordinates assigned)
[NH-]C(=O)c1cc2ccc(C3CC3)cc2n1C(=O)OCCCO (nonaromatic ring conformer: 340.8058671259113 kcal/mol)

>  <smiles>  (65) 
NC(=O)c1cc2ccc(C3CC3)cc2n1C(=O)OCCCO

>  <score_type>  (65) 
oracle

>  <origin>  (65) 
adg

>  <m_score__min__energy>  (65) 
-11.109999999999999

>  <m_primary>  (65) 
energy

$$$$
65:0
     RDKit          3D

 40 42  0  0  0  0  0  0  0  0999 V2000
   -6.4520   25.0270  -29.8970 N   0  0  0  0  0  0  0  0  0  0  0  0
   -6.7480   23.9900  -30.8340 C   0  0  0  0  0  0  0  0  0  0  0  0
   -7.9360   23.8380  -31.2240 O   0  0  0  0  0  0  0  0  0  0  0  0
   -5.6850   23.0790  -31.3140 C   0  0  0  0  0  0  0  0  0  0  0  0
   -5.9300   21.9200  -32.0490 C   0  0  0  0  0  0  0  0  0  0  0  0
   -4.6890   21.4250  -32.3740 C   0  0  0  0  0  0  0  0  0  0  0  0
   -4.3420   20.2880  -33.0960 C   0  0  0  0  0  0  0  0  0  0  0  0
   -2.9760   20.0040  -33.2620 C   0  0  0  0  0  0  0  0  0  0  0  0
   -1.9900   20.8470  -32.6940 C   0  0  0  0  0  0  0  0  0  0  0  0
   -0.5300   20.5390  -32.8960 C   0  0  0  0  0  0  0  0  0  0  0  0
   -0.0410   21.1040  -34.2050 C   0  0  0  0  0  0  0  0  0  0  0  0
   -0.6780   20.8310  -35.2570 O   0  0  0  0  0  0  0  0  0  0  0  0
    1.0960   21.9770  -34.3080 N   0  0  0  0  0  0  0  0  0  0  0  0
    1.8810   22.3260  -35.4940 C   0  0  2  0  0  0  0  0  0  0  0  0
    1.3220   23.5470  -36.1710 C   0  0  0  0  0  0  0  0  0  0  0  0
    0.2440   24.0520  -35.7610 O   0  0  0  0  0  0  0  0  0  0  0  0
    2.0120   24.1660  -37.2090 O   0  0  0  0  0  0  0  0  0  0  0  0
    1.9810   21.1160  -36.4470 C   0  0  0  0  0  0  0  0  0  0  0  0
    2.6000   19.8670  -35.8380 C   0  0  0  0  0  0  0  0  0  0  0  0
    3.3930   20.6970  -36.8350 C   0  0  0  0  0  0  0  0  0  0  0  0
   -2.3800   22.0000  -31.9750 C   0  0  0  0  0  0  0  0  0  0  0  0
   -3.7480   22.2690  -31.8430 C   0  0  0  0  0  0  0  0  0  0  0  0
   -4.3440   23.2910  -31.1880 N   0  0  0  0  0  0  0  0  0  0  0  0
   -3.6850   24.3400  -30.4580 C   0  0  0  0  0  0  0  0  0  0  0  0
   -2.9280   24.0630  -29.4900 O   0  0  0  0  0  0  0  0  0  0  0  0
   -3.8640   25.6690  -30.8210 O   0  0  0  0  0  0  0  0  0  0  0  0
   -7.2170   25.6390  -29.5340 H   0  0  0  0  0  0  0  0  0  0  0  0
   -5.4730   25.2210  -29.5920 H   0  0  0  0  0  0  0  0  0  0  0  0
   -6.9085   21.4923  -32.3129 H   0  0  0  0  0  0  0  0  0  0  0  0
   -5.1135   19.6311  -33.5240 H   0  0  0  0  0  0  0  0  0  0  0  0
   -2.6696   19.1187  -33.8385 H   0  0  0  0  0  0  0  0  0  0  0  0
    0.0495   20.9822  -32.0727 H   0  0  0  0  0  0  0  0  0  0  0  0
   -0.3984   19.4470  -32.9117 H   0  0  0  0  0  0  0  0  0  0  0  0
    2.9042   22.5813  -35.1811 H   0  0  0  0  0  0  0  0  0  0  0  0
    1.0585   21.3429  -37.0016 H   0  0  0  0  0  0  0  0  0  0  0  0
    2.8893   19.8583  -34.7768 H   0  0  0  0  0  0  0  0  0  0  0  0
    2.3061   18.8094  -35.7669 H   0  0  0  0  0  0  0  0  0  0  0  0
    4.2555   21.2891  -36.4950 H   0  0  0  0  0  0  0  0  0  0  0  0
    3.9098   20.4890  -37.7835 H   0  0  0  0  0  0  0  0  0  0  0  0
   -1.6282   22.6688  -31.5306 H   0  0  0  0  0  0  0  0  0  0  0  0
  1  2  1  0
  2  3  2  0
  2  4  1  0
  4  5  2  0
  5  6  1  0
  6  7  2  0
  7  8  1  0
  8  9  2  0
  9 10  1  0
 10 11  1  0
 11 12  2  0
 11 13  1  0
 13 14  1  0
 14 15  1  0
 15 16  2  0
 15 17  1  0
 14 18  1  0
 18 19  1  0
 19 20  1  0
  9 21  1  0
 21 22  2  0
 22 23  1  0
 23 24  1  0
 24 25  2  0
 24 26  1  0
 23  4  1  0
 22  6  1  0
 20 18  1  0
  1 27  1  0
  1 28  1  0
  5 29  1  0
  7 30  1  0
  8 31  1  0
 10 32  1  0
 10 33  1  0
 14 34  1  1
 18 35  1  0
 19 36  1  0
 19 37  1  0
 20 38  1  0
 20 39  1  0
 21 40  1  0
M  CHG  3  13  -1  17  -1  26  -1
M  END
>  <UniqueID>  (66) 
66

>  <SMILES>  (66) 
NC(=O)c1cc2ccc(CC(=O)[N-][C@H](C(=O)[O-])C3CC3)cc2n1C(=O)[O-]

>  <Energy>  (66) 
343.71117589179056

>  <Genealogy>  (66) 
NC(=O)c1cc2ccc(CC(=O)[N-]C(C(=O)[O-])C3CC3)cc2n1C(=O)[O-] (protonated)
NC(=O)c1cc2ccc(CC(=O)[N-][C@H](C(=O)[O-])C3CC3)cc2n1C(=O)[O-] (chirality)
NC(=O)c1cc2ccc(CC(=O)[N-][C@H](C(=O)[O-])C3CC3)cc2n1C(=O)[O-] (3D coordinates assigned)
NC(=O)c1cc2ccc(CC(=O)[N-][C@H](C(=O)[O-])C3CC3)cc2n1C(=O)[O-] (nonaromatic ring conformer: 343.71117589179056 kcal/mol)

>  <smiles>  (66) 
NC(=O)c1cc2ccc(CC(=O)NC(C(=O)O)C3CC3)cc2n1C(=O)O

>  <score_type>  (66) 
oracle

>  <origin>  (66) 
adg

>  <m_score__min__energy>  (66) 
-12.119999999999999

>  <m_primary>  (66) 
energy

$$$$
66:0
     RDKit          3D

 33 34  0  0  0  0  0  0  0  0999 V2000
   -6.1010   18.1370  -33.9130 C   0  0  0  0  0  0  0  0  0  0  0  0
   -6.7510   18.3210  -32.5440 C   0  0  0  0  0  0  0  0  0  0  0  0
   -5.9600   17.7150  -31.5830 F   0  0  0  0  0  0  0  0  0  0  0  0
   -7.9840   17.6880  -32.5400 F   0  0  0  0  0  0  0  0  0  0  0  0
   -6.9170   19.7920  -32.2380 C   0  0  0  0  0  0  0  0  0  0  0  0
   -8.2040   20.3910  -32.2770 C   0  0  0  0  0  0  0  0  0  0  0  0
   -8.3740   21.7490  -31.9640 C   0  0  0  0  0  0  0  0  0  0  0  0
   -7.2510   22.4800  -31.5930 C   0  0  0  0  0  0  0  0  0  0  0  0
   -7.1300   23.8080  -31.2530 C   0  0  0  0  0  0  0  0  0  0  0  0
   -5.7800   23.9960  -30.9680 C   0  0  0  0  0  0  0  0  0  0  0  0
   -5.2220   25.2720  -30.4720 C   0  0  0  0  0  0  0  0  0  0  0  0
   -3.9030   25.6620  -30.8470 N   0  0  0  0  0  0  0  0  0  0  0  0
   -5.9100   26.0410  -29.7510 O   0  0  0  0  0  0  0  0  0  0  0  0
   -5.0900   22.8300  -31.1320 N   0  0  0  0  0  0  0  0  0  0  0  0
   -3.6770   22.6130  -30.9900 C   0  0  0  0  0  0  0  0  0  0  0  0
   -3.0580   21.9210  -31.8420 O   0  0  0  0  0  0  0  0  0  0  0  0
   -3.0000   23.1520  -29.8900 O   0  0  0  0  0  0  0  0  0  0  0  0
   -1.5850   23.0800  -29.7300 C   0  0  0  0  0  0  0  0  0  0  0  0
   -1.0780   24.2650  -28.9660 C   0  0  0  0  0  0  0  0  0  0  0  0
   -1.4610   25.3870  -29.2520 O   0  0  0  0  0  0  0  0  0  0  0  0
   -6.0060   21.9120  -31.5110 C   0  0  0  0  0  0  0  0  0  0  0  0
   -5.8020   20.5650  -31.8360 C   0  0  0  0  0  0  0  0  0  0  0  0
   -5.0500   17.8395  -33.7829 H   0  0  0  0  0  0  0  0  0  0  0  0
   -6.6369   17.3553  -34.4713 H   0  0  0  0  0  0  0  0  0  0  0  0
   -6.1477   19.0836  -34.4713 H   0  0  0  0  0  0  0  0  0  0  0  0
   -9.0779   19.7839  -32.5557 H   0  0  0  0  0  0  0  0  0  0  0  0
   -9.3666   22.2208  -32.0109 H   0  0  0  0  0  0  0  0  0  0  0  0
   -7.9304   24.5616  -31.2145 H   0  0  0  0  0  0  0  0  0  0  0  0
   -3.0680   25.2790  -30.3500 H   0  0  0  0  0  0  0  0  0  0  0  0
   -1.3298   22.1609  -29.1822 H   0  0  0  0  0  0  0  0  0  0  0  0
   -1.1162   23.0735  -30.7251 H   0  0  0  0  0  0  0  0  0  0  0  0
   -0.3591   24.1227  -28.1457 H   0  0  0  0  0  0  0  0  0  0  0  0
   -4.7983   20.1184  -31.7801 H   0  0  0  0  0  0  0  0  0  0  0  0
  1  2  1  0
  2  3  1  0
  2  4  1  0
  2  5  1  0
  5  6  2  0
  6  7  1  0
  7  8  2  0
  8  9  1  0
  9 10  2  0
 10 11  1  0
 11 12  1  0
 11 13  2  0
 10 14  1  0
 14 15  1  0
 15 16  2  0
 15 17  1  0
 17 18  1  0
 18 19  1  0
 19 20  2  0
 14 21  1  0
 21 22  2  0
 22  5  1  0
 21  8  1  0
  1 23  1  0
  1 24  1  0
  1 25  1  0
  6 26  1  0
  7 27  1  0
  9 28  1  0
 12 29  1  0
 18 30  1  0
 18 31  1  0
 19 32  1  0
 22 33  1  0
M  CHG  1  12  -1
M  END
>  <UniqueID>  (67) 
67

>  <SMILES>  (67) 
CC(F)(F)c1ccc2cc(C([NH-])=O)n(C(=O)OCC=O)c2c1

>  <Energy>  (67) 
67.40447656558509

>  <Genealogy>  (67) 
CC(F)(F)c1ccc2cc(C([NH-])=O)n(C(=O)OCC=O)c2c1 (protonated)
CC(F)(F)c1ccc2cc(C([NH-])=O)n(C(=O)OCC=O)c2c1 (3D coordinates assigned)
CC(F)(F)c1ccc2cc(C([NH-])=O)n(C(=O)OCC=O)c2c1 (optimized conformer: 67.40447656558509 kcal/mol)

>  <smiles>  (67) 
CC(F)(F)c1ccc2cc(C(N)=O)n(C(=O)OCC=O)c2c1

>  <score_type>  (67) 
oracle

>  <origin>  (67) 
adg

>  <m_score__min__energy>  (67) 
-9.8499999999999996

>  <m_primary>  (67) 
energy

$$$$
67:0
     RDKit          3D

 39 41  0  0  0  0  0  0  0  0999 V2000
   -1.7650   25.6840  -28.9420 N   0  0  0  0  0  0  0  0  0  0  0  0
   -0.9090   24.5510  -29.0560 C   0  0  0  0  0  0  0  0  0  0  0  0
    0.2610   24.5980  -28.5910 O   0  0  0  0  0  0  0  0  0  0  0  0
   -1.4120   23.2980  -29.6990 C   0  0  0  0  0  0  0  0  0  0  0  0
   -2.8350   23.4210  -30.0000 N   0  0  0  0  0  0  0  0  0  0  0  0
   -3.5120   22.5290  -30.8960 C   0  0  0  0  0  0  0  0  0  0  0  0
   -2.8890   21.5730  -31.4310 O   0  0  0  0  0  0  0  0  0  0  0  0
   -4.9130   22.6990  -31.1590 N   0  0  0  0  0  0  0  0  0  0  0  0
   -5.6980   23.7720  -30.8610 C   0  0  0  0  0  0  0  0  0  0  0  0
   -5.2260   25.0630  -30.3200 C   0  0  0  0  0  0  0  0  0  0  0  0
   -4.0560   25.6740  -30.8610 N   0  0  0  0  0  0  0  0  0  0  0  0
   -5.8270   25.6200  -29.3640 O   0  0  0  0  0  0  0  0  0  0  0  0
   -7.0210   23.5220  -31.2200 C   0  0  0  0  0  0  0  0  0  0  0  0
   -7.0210   22.2530  -31.7560 C   0  0  0  0  0  0  0  0  0  0  0  0
   -8.0670   21.4960  -32.2670 C   0  0  0  0  0  0  0  0  0  0  0  0
   -7.7780   20.2030  -32.7380 C   0  0  0  0  0  0  0  0  0  0  0  0
   -6.4560   19.6850  -32.6850 C   0  0  0  0  0  0  0  0  0  0  0  0
   -6.1710   18.3510  -33.1620 N   0  0  0  0  0  0  0  0  0  0  0  0
   -5.7590   18.0220  -34.5230 C   0  0  0  0  0  0  0  0  0  0  0  0
   -5.5970   16.5440  -34.4950 C   0  0  0  0  0  0  0  0  0  0  0  0
   -5.8720   16.0560  -33.2940 C   0  0  0  0  0  0  0  0  0  0  0  0
   -6.2550   17.1400  -32.3500 C   0  0  0  0  0  0  0  0  0  0  0  0
   -5.4190   20.4930  -32.1560 C   0  0  0  0  0  0  0  0  0  0  0  0
   -5.7360   21.7810  -31.7090 C   0  0  0  0  0  0  0  0  0  0  0  0
   -2.7350   25.6640  -29.3280 H   0  0  0  0  0  0  0  0  0  0  0  0
   -0.8574   23.1208  -30.6323 H   0  0  0  0  0  0  0  0  0  0  0  0
   -1.2633   22.4555  -29.0075 H   0  0  0  0  0  0  0  0  0  0  0  0
   -3.3820   24.1760  -29.5280 H   0  0  0  0  0  0  0  0  0  0  0  0
   -3.1050   25.3180  -30.6200 H   0  0  0  0  0  0  0  0  0  0  0  0
   -7.8827   24.1952  -31.1007 H   0  0  0  0  0  0  0  0  0  0  0  0
   -9.0911   21.8959  -32.3023 H   0  0  0  0  0  0  0  0  0  0  0  0
   -8.5868   19.5838  -33.1533 H   0  0  0  0  0  0  0  0  0  0  0  0
   -6.5306   18.3183  -35.2488 H   0  0  0  0  0  0  0  0  0  0  0  0
   -4.8412   18.5456  -34.8288 H   0  0  0  0  0  0  0  0  0  0  0  0
   -5.2892   15.9355  -35.3581 H   0  0  0  0  0  0  0  0  0  0  0  0
   -5.8234   14.9893  -33.0298 H   0  0  0  0  0  0  0  0  0  0  0  0
   -7.2778   16.9898  -31.9742 H   0  0  0  0  0  0  0  0  0  0  0  0
   -5.6101   17.1778  -31.4597 H   0  0  0  0  0  0  0  0  0  0  0  0
   -4.3872   20.1162  -32.0979 H   0  0  0  0  0  0  0  0  0  0  0  0
  1  2  1  0
  2  3  2  0
  2  4  1  0
  4  5  1  0
  5  6  1  0
  6  7  2  0
  6  8  1  0
  8  9  1  0
  9 10  1  0
 10 11  1  0
 10 12  2  0
  9 13  2  0
 13 14  1  0
 14 15  2  0
 15 16  1  0
 16 17  2  0
 17 18  1  0
 18 19  1  0
 19 20  1  0
 20 21  2  0
 21 22  1  0
 17 23  1  0
 23 24  2  0
 24  8  1  0
 24 14  1  0
 22 18  1  0
  1 25  1  0
  4 26  1  0
  4 27  1  0
  5 28  1  0
 11 29  1  0
 13 30  1  0
 15 31  1  0
 16 32  1  0
 19 33  1  0
 19 34  1  0
 20 35  1  0
 21 36  1  0
 22 37  1  0
 22 38  1  0
 23 39  1  0
M  CHG  2   1  -1  11  -1
M  END
>  <UniqueID>  (68) 
68

>  <SMILES>  (68) 
[NH-]C(=O)CNC(=O)n1c(C([NH-])=O)cc2ccc(N3CC=CC3)cc21

>  <Energy>  (68) 
83.0296218714652

>  <Genealogy>  (68) 
[NH-]C(=O)CNC(=O)n1c(C([NH-])=O)cc2ccc(N3CC=CC3)cc21 (protonated)
[NH-]C(=O)CNC(=O)n1c(C([NH-])=O)cc2ccc(N3CC=CC3)cc21 (3D coordinates assigned)
[NH-]C(=O)CNC(=O)n1c(C([NH-])=O)cc2ccc(N3CC=CC3)cc21 (nonaromatic ring conformer: 83.0296218714652 kcal/mol)

>  <smiles>  (68) 
NC(=O)CNC(=O)n1c(C(N)=O)cc2ccc(N3CC=CC3)cc21

>  <score_type>  (68) 
oracle

>  <origin>  (68) 
adg

>  <m_score__min__energy>  (68) 
-13.56

>  <m_primary>  (68) 
energy

$$$$
68:0
     RDKit          3D

 37 38  0  0  0  0  0  0  0  0999 V2000
   -9.3740   22.7570  -31.9540 C   0  0  0  0  0  0  0  0  0  0  0  0
   -9.3560   21.2310  -31.9260 C   0  0  0  0  0  0  0  0  0  0  0  0
   -7.9470   20.7200  -31.9020 C   0  0  0  0  0  0  0  0  0  0  0  0
   -7.1370   21.1750  -31.0480 O   0  0  0  0  0  0  0  0  0  0  0  0
   -7.5380   19.6980  -32.8190 N   0  0  0  0  0  0  0  0  0  0  0  0
   -6.1720   19.1780  -32.8560 C   0  0  0  0  0  0  0  0  0  0  0  0
   -5.2480   20.1190  -33.6360 C   0  0  0  0  0  0  0  0  0  0  0  0
   -4.1230   20.6270  -32.7690 C   0  0  0  0  0  0  0  0  0  0  0  0
   -2.9090   19.8990  -32.6920 C   0  0  0  0  0  0  0  0  0  0  0  0
   -1.8550   20.3490  -31.8820 C   0  0  0  0  0  0  0  0  0  0  0  0
   -2.0430   21.5240  -31.1580 C   0  0  0  0  0  0  0  0  0  0  0  0
   -1.1780   22.1950  -30.3270 C   0  0  0  0  0  0  0  0  0  0  0  0
   -1.8800   23.3180  -29.8930 C   0  0  0  0  0  0  0  0  0  0  0  0
   -1.3380   24.2840  -28.9140 C   0  0  0  0  0  0  0  0  0  0  0  0
   -1.6620   25.6690  -29.0290 N   0  0  0  0  0  0  0  0  0  0  0  0
   -0.5560   23.9070  -28.0010 O   0  0  0  0  0  0  0  0  0  0  0  0
   -3.1320   23.3420  -30.4370 N   0  0  0  0  0  0  0  0  0  0  0  0
   -4.1230   24.3760  -30.3090 C   0  0  0  0  0  0  0  0  0  0  0  0
   -5.2470   24.1200  -29.8020 O   0  0  0  0  0  0  0  0  0  0  0  0
   -3.8690   25.6570  -30.7790 O   0  0  0  0  0  0  0  0  0  0  0  0
   -3.2190   22.2330  -31.2070 C   0  0  0  0  0  0  0  0  0  0  0  0
   -4.2840   21.8120  -32.0130 C   0  0  0  0  0  0  0  0  0  0  0  0
   -9.3785   23.1426  -30.9238 H   0  0  0  0  0  0  0  0  0  0  0  0
   -8.4801   23.1247  -32.4792 H   0  0  0  0  0  0  0  0  0  0  0  0
  -10.2763   23.1035  -32.4792 H   0  0  0  0  0  0  0  0  0  0  0  0
   -9.8832   20.8798  -31.0268 H   0  0  0  0  0  0  0  0  0  0  0  0
   -9.8544   20.8540  -32.8312 H   0  0  0  0  0  0  0  0  0  0  0  0
   -8.2170   19.3650  -33.5440 H   0  0  0  0  0  0  0  0  0  0  0  0
   -5.7973   19.0773  -31.8267 H   0  0  0  0  0  0  0  0  0  0  0  0
   -6.1825   18.2000  -33.3593 H   0  0  0  0  0  0  0  0  0  0  0  0
   -4.8227   19.5748  -34.4922 H   0  0  0  0  0  0  0  0  0  0  0  0
   -5.8394   20.9814  -33.9773 H   0  0  0  0  0  0  0  0  0  0  0  0
   -2.7920   18.9722  -33.2729 H   0  0  0  0  0  0  0  0  0  0  0  0
   -0.9092   19.7908  -31.8207 H   0  0  0  0  0  0  0  0  0  0  0  0
   -0.1502   21.9069  -30.0610 H   0  0  0  0  0  0  0  0  0  0  0  0
   -2.6540   25.9930  -28.9920 H   0  0  0  0  0  0  0  0  0  0  0  0
   -5.2206   22.3872  -32.0571 H   0  0  0  0  0  0  0  0  0  0  0  0
  1  2  1  0
  2  3  1  0
  3  4  2  0
  3  5  1  0
  5  6  1  0
  6  7  1  0
  7  8  1  0
  8  9  2  0
  9 10  1  0
 10 11  2  0
 11 12  1  0
 12 13  2  0
 13 14  1  0
 14 15  1  0
 14 16  2  0
 13 17  1  0
 17 18  1  0
 18 19  2  0
 18 20  1  0
 17 21  1  0
 21 22  2  0
 22  8  1  0
 21 11  1  0
  1 23  1  0
  1 24  1  0
  1 25  1  0
  2 26  1  0
  2 27  1  0
  5 28  1  0
  6 29  1  0
  6 30  1  0
  7 31  1  0
  7 32  1  0
  9 33  1  0
 10 34  1  0
 12 35  1  0
 15 36  1  0
 22 37  1  0
M  CHG  2  15  -1  20  -1
M  END
>  <UniqueID>  (69) 
69

>  <SMILES>  (69) 
CCC(=O)NCCc1ccc2cc(C([NH-])=O)n(C(=O)[O-])c2c1

>  <Energy>  (69) 
66.36316849161811

>  <Genealogy>  (69) 
CCC(=O)NCCc1ccc2cc(C([NH-])=O)n(C(=O)[O-])c2c1 (protonated)
CCC(=O)NCCc1ccc2cc(C([NH-])=O)n(C(=O)[O-])c2c1 (3D coordinates assigned)
CCC(=O)NCCc1ccc2cc(C([NH-])=O)n(C(=O)[O-])c2c1 (optimized conformer: 66.36316849161811 kcal/mol)

>  <smiles>  (69) 
CCC(=O)NCCc1ccc2cc(C(N)=O)n(C(=O)O)c2c1

>  <score_type>  (69) 
oracle

>  <origin>  (69) 
adg

>  <m_score__min__energy>  (69) 
-11.199999999999999

>  <m_primary>  (69) 
energy

$$$$
69:0
     RDKit          3D

 43 45  0  0  0  0  0  0  0  0999 V2000
   -6.8640   14.9880  -34.3130 C   0  0  0  0  0  0  0  0  0  0  0  0
   -6.5980   16.0830  -33.3910 N   0  0  0  0  0  0  0  0  0  0  0  0
   -7.1140   17.3230  -33.4740 C   0  0  0  0  0  0  0  0  0  0  0  0
   -6.5660   18.0870  -32.4580 C   0  0  0  0  0  0  0  0  0  0  0  0
   -6.8320   19.5140  -32.1480 C   0  0  0  0  0  0  0  0  0  0  0  0
   -8.1430   20.0470  -32.2830 C   0  0  0  0  0  0  0  0  0  0  0  0
   -8.4090   21.3920  -31.9790 C   0  0  0  0  0  0  0  0  0  0  0  0
   -7.3520   22.1870  -31.5550 C   0  0  0  0  0  0  0  0  0  0  0  0
   -7.3410   23.5070  -31.1620 C   0  0  0  0  0  0  0  0  0  0  0  0
   -6.0190   23.7760  -30.8220 C   0  0  0  0  0  0  0  0  0  0  0  0
   -5.5460   25.1080  -30.3950 C   0  0  0  0  0  0  0  0  0  0  0  0
   -4.1920   25.5150  -30.6000 N   0  0  0  0  0  0  0  0  0  0  0  0
   -6.3640   25.9220  -29.8890 O   0  0  0  0  0  0  0  0  0  0  0  0
   -5.2430   22.6680  -30.9830 N   0  0  0  0  0  0  0  0  0  0  0  0
   -3.8600   22.5150  -30.6230 C   0  0  0  0  0  0  0  0  0  0  0  0
   -2.9710   23.1630  -31.2400 O   0  0  0  0  0  0  0  0  0  0  0  0
   -3.5080   21.6490  -29.5810 O   0  0  0  0  0  0  0  0  0  0  0  0
   -3.0050   22.0940  -28.3230 C   0  0  0  0  0  0  0  0  0  0  0  0
   -3.4170   23.5470  -28.0650 C   0  0  0  0  0  0  0  0  0  0  0  0
   -2.2170   24.4980  -28.1200 C   0  0  0  0  0  0  0  0  0  0  0  0
   -2.1760   25.1830  -29.3440 O   0  0  0  0  0  0  0  0  0  0  0  0
   -6.0750   21.7020  -31.4370 C   0  0  0  0  0  0  0  0  0  0  0  0
   -5.7850   20.3600  -31.7100 C   0  0  0  0  0  0  0  0  0  0  0  0
   -5.7000   17.2220  -31.7980 C   0  0  0  0  0  0  0  0  0  0  0  0
   -5.7330   16.0140  -32.3940 N   0  0  0  0  0  0  0  0  0  0  0  0
   -7.0860   14.0741  -33.7425 H   0  0  0  0  0  0  0  0  0  0  0  0
   -7.7262   15.2433  -34.9465 H   0  0  0  0  0  0  0  0  0  0  0  0
   -5.9807   14.8193  -34.9465 H   0  0  0  0  0  0  0  0  0  0  0  0
   -7.8446   17.6695  -34.2198 H   0  0  0  0  0  0  0  0  0  0  0  0
   -8.9599   19.3973  -32.6302 H   0  0  0  0  0  0  0  0  0  0  0  0
   -9.4246   21.8038  -32.0739 H   0  0  0  0  0  0  0  0  0  0  0  0
   -8.1945   24.2000  -31.1249 H   0  0  0  0  0  0  0  0  0  0  0  0
   -3.5340   24.9340  -31.1640 H   0  0  0  0  0  0  0  0  0  0  0  0
   -3.8650   26.4440  -30.2540 H   0  0  0  0  0  0  0  0  0  0  0  0
   -3.4105   21.4553  -27.5244 H   0  0  0  0  0  0  0  0  0  0  0  0
   -1.9068   22.0322  -28.3365 H   0  0  0  0  0  0  0  0  0  0  0  0
   -4.1473   23.8509  -28.8294 H   0  0  0  0  0  0  0  0  0  0  0  0
   -3.8524   23.6046  -27.0565 H   0  0  0  0  0  0  0  0  0  0  0  0
   -2.2984   25.2282  -27.3013 H   0  0  0  0  0  0  0  0  0  0  0  0
   -1.2952   23.9066  -28.0174 H   0  0  0  0  0  0  0  0  0  0  0  0
   -1.8430   24.5370  -30.0200 H   0  0  0  0  0  0  0  0  0  0  0  0
   -4.7637   19.9706  -31.5866 H   0  0  0  0  0  0  0  0  0  0  0  0
   -5.0838   17.4833  -30.9251 H   0  0  0  0  0  0  0  0  0  0  0  0
  1  2  1  0
  2  3  1  0
  3  4  2  0
  4  5  1  0
  5  6  2  0
  6  7  1  0
  7  8  2  0
  8  9  1  0
  9 10  2  0
 10 11  1  0
 11 12  1  0
 11 13  2  0
 10 14  1  0
 14 15  1  0
 15 16  2  0
 15 17  1  0
 17 18  1  0
 18 19  1  0
 19 20  1  0
 20 21  1  0
 14 22  1  0
 22 23  2  0
  4 24  1  0
 24 25  2  0
 25  2  1  0
 23  5  1  0
 22  8  1  0
  1 26  1  0
  1 27  1  0
  1 28  1  0
  3 29  1  0
  6 30  1  0
  7 31  1  0
  9 32  1  0
 12 33  1  0
 12 34  1  0
 18 35  1  0
 18 36  1  0
 19 37  1  0
 19 38  1  0
 20 39  1  0
 20 40  1  0
 21 41  1  0
 23 42  1  0
 24 43  1  0
M  END
>  <UniqueID>  (70) 
70

>  <SMILES>  (70) 
Cn1cc(-c2ccc3cc(C(N)=O)n(C(=O)OCCCO)c3c2)cn1

>  <Energy>  (70) 
109.86795111680465

>  <Genealogy>  (70) 
Cn1cc(-c2ccc3cc(C(N)=O)n(C(=O)OCCCO)c3c2)cn1 (3D coordinates assigned)
Cn1cc(-c2ccc3cc(C(N)=O)n(C(=O)OCCCO)c3c2)cn1 (optimized conformer: 109.86795111680465 kcal/mol)

>  <smiles>  (70) 
Cn1cc(-c2ccc3cc(C(N)=O)n(C(=O)OCCCO)c3c2)cn1

>  <score_type>  (70) 
oracle

>  <origin>  (70) 
adg

>  <m_score__min__energy>  (70) 
-9.6400000000000006

>  <m_primary>  (70) 
energy

$$$$
70:0
     RDKit          3D

 53 54  0  0  0  0  0  0  0  0999 V2000
   -2.4550   20.8450  -29.6380 C   0  0  0  0  0  0  0  0  0  0  0  0
   -3.3880   21.9700  -29.5120 N   0  0  0  0  0  0  0  0  0  0  0  0
   -3.8770   22.3850  -28.1890 C   0  0  0  0  0  0  0  0  0  0  0  0
   -3.5640   23.8640  -27.9280 C   0  0  0  0  0  0  0  0  0  0  0  0
   -2.0980   24.2010  -28.2170 C   0  0  0  0  0  0  0  0  0  0  0  0
   -2.0220   25.0090  -29.3580 O   0  0  0  0  0  0  0  0  0  0  0  0
   -3.8940   22.6100  -30.7010 C   0  0  0  0  0  0  0  0  0  0  0  0
   -3.1000   22.9790  -31.6090 O   0  0  0  0  0  0  0  0  0  0  0  0
   -5.3020   22.8250  -30.8760 N   0  0  0  0  0  0  0  0  0  0  0  0
   -5.9760   24.0080  -30.8290 C   0  0  0  0  0  0  0  0  0  0  0  0
   -5.4040   25.3120  -30.4280 C   0  0  0  0  0  0  0  0  0  0  0  0
   -4.0840   25.6820  -30.8110 N   0  0  0  0  0  0  0  0  0  0  0  0
   -6.0850   26.1030  -29.7200 O   0  0  0  0  0  0  0  0  0  0  0  0
   -7.3060   23.8230  -31.2060 C   0  0  0  0  0  0  0  0  0  0  0  0
   -7.4200   22.4800  -31.4970 C   0  0  0  0  0  0  0  0  0  0  0  0
   -8.5080   21.7480  -31.9670 C   0  0  0  0  0  0  0  0  0  0  0  0
   -8.3190   20.3810  -32.2360 C   0  0  0  0  0  0  0  0  0  0  0  0
   -7.0540   19.7740  -32.0340 C   0  0  0  0  0  0  0  0  0  0  0  0
   -6.8470   18.3180  -32.3640 C   0  0  0  0  0  0  0  0  0  0  0  0
   -5.3640   17.9740  -32.5580 C   0  0  0  0  0  0  0  0  0  0  0  0
   -4.8080   18.5460  -33.8420 C   0  0  0  0  0  0  0  0  0  0  0  0
   -5.5390   18.6090  -34.8260 O   0  0  0  0  0  0  0  0  0  0  0  0
   -3.4260   18.9790  -33.9280 N   0  0  0  0  0  0  0  0  0  0  0  0
   -2.5560   18.0650  -33.1640 C   0  0  0  0  0  0  0  0  0  0  0  0
   -3.2970   20.3600  -33.4330 C   0  0  0  0  0  0  0  0  0  0  0  0
   -5.9720   20.5500  -31.5620 C   0  0  0  0  0  0  0  0  0  0  0  0
   -6.1940   21.9040  -31.2930 C   0  0  0  0  0  0  0  0  0  0  0  0
   -2.1649   20.4952  -28.6362 H   0  0  0  0  0  0  0  0  0  0  0  0
   -2.9416   20.0247  -30.1861 H   0  0  0  0  0  0  0  0  0  0  0  0
   -1.5589   21.1714  -30.1861 H   0  0  0  0  0  0  0  0  0  0  0  0
   -4.9657   22.2340  -28.1440 H   0  0  0  0  0  0  0  0  0  0  0  0
   -3.3726   21.7787  -27.4222 H   0  0  0  0  0  0  0  0  0  0  0  0
   -4.2044   24.4818  -28.5747 H   0  0  0  0  0  0  0  0  0  0  0  0
   -3.7560   24.0689  -26.8644 H   0  0  0  0  0  0  0  0  0  0  0  0
   -1.6688   24.7377  -27.3581 H   0  0  0  0  0  0  0  0  0  0  0  0
   -1.5343   23.2718  -28.3870 H   0  0  0  0  0  0  0  0  0  0  0  0
   -2.4300   24.4860  -30.0960 H   0  0  0  0  0  0  0  0  0  0  0  0
   -3.3150   24.9730  -30.8410 H   0  0  0  0  0  0  0  0  0  0  0  0
   -8.0962   24.5863  -31.2598 H   0  0  0  0  0  0  0  0  0  0  0  0
   -9.4865   22.2256  -32.1231 H   0  0  0  0  0  0  0  0  0  0  0  0
   -9.1604   19.7770  -32.6066 H   0  0  0  0  0  0  0  0  0  0  0  0
   -7.2478   17.7076  -31.5413 H   0  0  0  0  0  0  0  0  0  0  0  0
   -7.3694   18.1078  -33.3089 H   0  0  0  0  0  0  0  0  0  0  0  0
   -4.7921   18.3821  -31.7116 H   0  0  0  0  0  0  0  0  0  0  0  0
   -5.2756   16.8788  -32.6102 H   0  0  0  0  0  0  0  0  0  0  0  0
   -3.1030   18.9690  -34.9280 H   0  0  0  0  0  0  0  0  0  0  0  0
   -2.7101   18.2269  -32.0869 H   0  0  0  0  0  0  0  0  0  0  0  0
   -2.8051   17.0240  -33.4177 H   0  0  0  0  0  0  0  0  0  0  0  0
   -1.5040   18.2625  -33.4177 H   0  0  0  0  0  0  0  0  0  0  0  0
   -3.2973   20.3568  -32.3330 H   0  0  0  0  0  0  0  0  0  0  0  0
   -2.3544   20.7938  -33.7981 H   0  0  0  0  0  0  0  0  0  0  0  0
   -4.1429   20.9609  -33.7981 H   0  0  0  0  0  0  0  0  0  0  0  0
   -4.9797   20.1003  -31.4099 H   0  0  0  0  0  0  0  0  0  0  0  0
  1  2  1  0
  2  3  1  0
  3  4  1  0
  4  5  1  0
  5  6  1  0
  2  7  1  0
  7  8  2  0
  7  9  1  0
  9 10  1  0
 10 11  1  0
 11 12  1  0
 11 13  2  0
 10 14  2  0
 14 15  1  0
 15 16  2  0
 16 17  1  0
 17 18  2  0
 18 19  1  0
 19 20  1  0
 20 21  1  0
 21 22  2  0
 21 23  1  0
 23 24  1  0
 23 25  1  0
 18 26  1  0
 26 27  2  0
 27  9  1  0
 27 15  1  0
  1 28  1  0
  1 29  1  0
  1 30  1  0
  3 31  1  0
  3 32  1  0
  4 33  1  0
  4 34  1  0
  5 35  1  0
  5 36  1  0
  6 37  1  0
 12 38  1  0
 14 39  1  0
 16 40  1  0
 17 41  1  0
 19 42  1  0
 19 43  1  0
 20 44  1  0
 20 45  1  0
 23 46  1  0
 24 47  1  0
 24 48  1  0
 24 49  1  0
 25 50  1  0
 25 51  1  0
 25 52  1  0
 26 53  1  0
M  CHG  2  12  -1  23   1
M  END
>  <UniqueID>  (71) 
71

>  <SMILES>  (71) 
CN(CCCO)C(=O)n1c(C([NH-])=O)cc2ccc(CCC(=O)[NH+](C)C)cc21

>  <Energy>  (71) 
78.35806101172409

>  <Genealogy>  (71) 
CN(CCCO)C(=O)n1c(C([NH-])=O)cc2ccc(CCC(=O)[NH+](C)C)cc21 (protonated)
CN(CCCO)C(=O)n1c(C([NH-])=O)cc2ccc(CCC(=O)[NH+](C)C)cc21 (3D coordinates assigned)
CN(CCCO)C(=O)n1c(C([NH-])=O)cc2ccc(CCC(=O)[NH+](C)C)cc21 (optimized conformer: 78.35806101172409 kcal/mol)

>  <smiles>  (71) 
CN(C)C(=O)CCc1ccc2cc(C(N)=O)n(C(=O)N(C)CCCO)c2c1

>  <score_type>  (71) 
oracle

>  <origin>  (71) 
adg

>  <m_score__min__energy>  (71) 
-10.41

>  <m_primary>  (71) 
energy

$$$$
71:0
     RDKit          3D

 37 39  0  0  0  0  0  0  0  0999 V2000
   -1.8940   25.5910  -28.9610 N   0  0  0  0  0  0  0  0  0  0  0  0
   -1.1430   24.3960  -29.1600 C   0  0  0  0  0  0  0  0  0  0  0  0
    0.0220   24.3160  -28.6850 O   0  0  0  0  0  0  0  0  0  0  0  0
   -1.6940   23.2710  -29.9450 C   0  0  0  0  0  0  0  0  0  0  0  0
   -0.9710   22.1230  -30.2690 C   0  0  0  0  0  0  0  0  0  0  0  0
   -1.8180   21.3680  -31.0530 C   0  0  0  0  0  0  0  0  0  0  0  0
   -1.6300   20.1190  -31.6360 C   0  0  0  0  0  0  0  0  0  0  0  0
   -2.6950   19.5680  -32.3700 C   0  0  0  0  0  0  0  0  0  0  0  0
   -3.9150   20.2790  -32.5260 C   0  0  0  0  0  0  0  0  0  0  0  0
   -5.0630   19.6610  -33.2810 C   0  0  0  0  0  0  0  0  0  0  0  0
   -4.5970   18.9330  -34.3610 F   0  0  0  0  0  0  0  0  0  0  0  0
   -5.9230   20.6380  -33.7560 F   0  0  0  0  0  0  0  0  0  0  0  0
   -5.7640   18.8190  -32.4380 F   0  0  0  0  0  0  0  0  0  0  0  0
   -4.0720   21.5340  -31.8970 C   0  0  0  0  0  0  0  0  0  0  0  0
   -2.9940   22.0570  -31.1790 C   0  0  0  0  0  0  0  0  0  0  0  0
   -2.9350   23.2210  -30.5020 N   0  0  0  0  0  0  0  0  0  0  0  0
   -4.0080   24.1610  -30.3660 C   0  0  0  0  0  0  0  0  0  0  0  0
   -3.8790   25.3270  -30.8240 O   0  0  0  0  0  0  0  0  0  0  0  0
   -5.3310   23.7180  -29.8240 C   0  0  0  0  0  0  0  0  0  0  0  0
   -6.3080   23.5770  -30.9470 C   0  0  0  0  0  0  0  0  0  0  0  0
   -6.1620   24.2630  -31.9960 O   0  0  0  0  0  0  0  0  0  0  0  0
   -7.4340   22.7090  -30.8020 N   0  0  0  0  0  0  0  0  0  0  0  0
   -8.0450   22.0290  -31.9370 C   0  0  0  0  0  0  0  0  0  0  0  0
   -8.2970   20.5560  -31.6810 C   0  0  0  0  0  0  0  0  0  0  0  0
   -9.4560   21.5430  -31.6640 C   0  0  0  0  0  0  0  0  0  0  0  0
   -2.8720   25.6740  -29.3140 H   0  0  0  0  0  0  0  0  0  0  0  0
    0.0559   21.8731  -29.9641 H   0  0  0  0  0  0  0  0  0  0  0  0
   -0.6778   19.5793  -31.5261 H   0  0  0  0  0  0  0  0  0  0  0  0
   -2.5823   18.5747  -32.8289 H   0  0  0  0  0  0  0  0  0  0  0  0
   -5.0205   22.0862  -31.9708 H   0  0  0  0  0  0  0  0  0  0  0  0
   -5.2135   22.7492  -29.3165 H   0  0  0  0  0  0  0  0  0  0  0  0
   -5.7021   24.4651  -29.1069 H   0  0  0  0  0  0  0  0  0  0  0  0
   -7.5654   22.6137  -32.7358 H   0  0  0  0  0  0  0  0  0  0  0  0
   -8.2038   19.8308  -32.5029 H   0  0  0  0  0  0  0  0  0  0  0  0
   -7.9002   19.8092  -30.9776 H   0  0  0  0  0  0  0  0  0  0  0  0
  -10.2006   21.5316  -32.4736 H   0  0  0  0  0  0  0  0  0  0  0  0
  -10.2444   21.8059  -30.9434 H   0  0  0  0  0  0  0  0  0  0  0  0
  1  2  1  0
  2  3  2  0
  2  4  1  0
  4  5  2  0
  5  6  1  0
  6  7  2  0
  7  8  1  0
  8  9  2  0
  9 10  1  0
 10 11  1  0
 10 12  1  0
 10 13  1  0
  9 14  1  0
 14 15  2  0
 15 16  1  0
 16 17  1  0
 17 18  2  0
 17 19  1  0
 19 20  1  0
 20 21  2  0
 20 22  1  0
 22 23  1  0
 23 24  1  0
 24 25  1  0
 16  4  1  0
 25 23  1  0
 15  6  1  0
  1 26  1  0
  5 27  1  0
  7 28  1  0
  8 29  1  0
 14 30  1  0
 19 31  1  0
 19 32  1  0
 23 33  1  0
 24 34  1  0
 24 35  1  0
 25 36  1  0
 25 37  1  0
M  CHG  2   1  -1  22  -1
M  END
>  <UniqueID>  (72) 
72

>  <SMILES>  (72) 
[NH-]C(=O)c1cc2ccc(C(F)(F)F)cc2n1C(=O)CC(=O)[N-]C1CC1

>  <Energy>  (72) 
338.1338879170763

>  <Genealogy>  (72) 
[NH-]C(=O)c1cc2ccc(C(F)(F)F)cc2n1C(=O)CC(=O)[N-]C1CC1 (protonated)
[NH-]C(=O)c1cc2ccc(C(F)(F)F)cc2n1C(=O)CC(=O)[N-]C1CC1 (3D coordinates assigned)
[NH-]C(=O)c1cc2ccc(C(F)(F)F)cc2n1C(=O)CC(=O)[N-]C1CC1 (nonaromatic ring conformer: 338.1338879170763 kcal/mol)

>  <smiles>  (72) 
NC(=O)c1cc2ccc(C(F)(F)F)cc2n1C(=O)CC(=O)NC1CC1

>  <score_type>  (72) 
oracle

>  <origin>  (72) 
adg

>  <m_score__min__energy>  (72) 
-11.43

>  <m_primary>  (72) 
energy

$$$$
72:0
     RDKit          3D

 42 44  0  0  0  0  0  0  0  0999 V2000
   -1.5400   25.8540  -28.9650 N   0  0  0  0  0  0  0  0  0  0  0  0
   -0.9920   24.5430  -29.0720 C   0  0  0  0  0  0  0  0  0  0  0  0
    0.1280   24.3000  -28.5470 O   0  0  0  0  0  0  0  0  0  0  0  0
   -1.6980   23.4770  -29.8150 C   0  0  0  0  0  0  0  0  0  0  0  0
   -1.1020   22.2760  -30.1940 C   0  0  0  0  0  0  0  0  0  0  0  0
   -2.0640   21.5980  -30.9060 C   0  0  0  0  0  0  0  0  0  0  0  0
   -2.0120   20.3510  -31.5200 C   0  0  0  0  0  0  0  0  0  0  0  0
   -3.1650   19.8910  -32.1770 C   0  0  0  0  0  0  0  0  0  0  0  0
   -4.3490   20.6730  -32.1960 C   0  0  0  0  0  0  0  0  0  0  0  0
   -5.5230   20.1970  -32.8830 N   0  0  0  0  0  0  0  0  0  0  0  0
   -5.4410   19.1000  -33.8550 C   0  0  0  0  0  0  0  0  0  0  0  0
   -6.4850   18.0110  -33.5330 C   0  0  0  0  0  0  0  0  0  0  0  0
   -7.6360   18.5140  -32.7580 N   0  0  0  0  0  0  0  0  0  0  0  0
   -7.9640   19.9030  -33.0950 C   0  0  0  0  0  0  0  0  0  0  0  0
   -6.8290   20.8210  -32.6280 C   0  0  0  0  0  0  0  0  0  0  0  0
   -4.3590   21.9370  -31.5630 C   0  0  0  0  0  0  0  0  0  0  0  0
   -3.1910   22.3780  -30.9350 C   0  0  0  0  0  0  0  0  0  0  0  0
   -2.9800   23.5380  -30.2740 N   0  0  0  0  0  0  0  0  0  0  0  0
   -3.9340   24.5910  -30.0550 C   0  0  0  0  0  0  0  0  0  0  0  0
   -3.8680   25.6390  -30.7510 O   0  0  0  0  0  0  0  0  0  0  0  0
   -4.9880   24.4880  -28.9900 C   0  0  0  0  0  0  0  0  0  0  0  0
   -6.5340   25.3100  -29.5100 S   0  0  0  0  0  0  0  0  0  0  0  0
   -7.0060   24.0260  -30.7120 C   0  0  0  0  0  0  0  0  0  0  0  0
   -6.2540   24.1850  -31.8600 F   0  0  0  0  0  0  0  0  0  0  0  0
   -6.7610   22.7740  -30.1800 F   0  0  0  0  0  0  0  0  0  0  0  0
   -2.5730   26.0070  -28.9740 H   0  0  0  0  0  0  0  0  0  0  0  0
   -0.0783   21.9408  -29.9709 H   0  0  0  0  0  0  0  0  0  0  0  0
   -1.0955   19.7434  -31.4919 H   0  0  0  0  0  0  0  0  0  0  0  0
   -3.1501   18.9140  -32.6823 H   0  0  0  0  0  0  0  0  0  0  0  0
   -5.6305   19.4957  -34.8637 H   0  0  0  0  0  0  0  0  0  0  0  0
   -4.4364   18.6548  -33.8038 H   0  0  0  0  0  0  0  0  0  0  0  0
   -6.8577   17.5942  -34.4803 H   0  0  0  0  0  0  0  0  0  0  0  0
   -5.9831   17.2525  -32.9142 H   0  0  0  0  0  0  0  0  0  0  0  0
   -8.4680   17.9190  -32.9790 H   0  0  0  0  0  0  0  0  0  0  0  0
   -8.0878   19.9971  -34.1839 H   0  0  0  0  0  0  0  0  0  0  0  0
   -8.9000   20.1917  -32.5944 H   0  0  0  0  0  0  0  0  0  0  0  0
   -6.8871   21.7744  -33.1735 H   0  0  0  0  0  0  0  0  0  0  0  0
   -6.9347   20.9950  -31.5470 H   0  0  0  0  0  0  0  0  0  0  0  0
   -5.2659   22.5595  -31.5647 H   0  0  0  0  0  0  0  0  0  0  0  0
   -5.1953   23.4261  -28.7917 H   0  0  0  0  0  0  0  0  0  0  0  0
   -4.6164   24.9864  -28.0825 H   0  0  0  0  0  0  0  0  0  0  0  0
   -8.0768   24.1195  -30.9456 H   0  0  0  0  0  0  0  0  0  0  0  0
  1  2  1  0
  2  3  2  0
  2  4  1  0
  4  5  2  0
  5  6  1  0
  6  7  2  0
  7  8  1  0
  8  9  2  0
  9 10  1  0
 10 11  1  0
 11 12  1  0
 12 13  1  0
 13 14  1  0
 14 15  1  0
  9 16  1  0
 16 17  2  0
 17 18  1  0
 18 19  1  0
 19 20  2  0
 19 21  1  0
 21 22  1  0
 22 23  1  0
 23 24  1  0
 23 25  1  0
 18  4  1  0
 17  6  1  0
 15 10  1  0
  1 26  1  0
  5 27  1  0
  7 28  1  0
  8 29  1  0
 11 30  1  0
 11 31  1  0
 12 32  1  0
 12 33  1  0
 13 34  1  0
 14 35  1  0
 14 36  1  0
 15 37  1  0
 15 38  1  0
 16 39  1  0
 21 40  1  0
 21 41  1  0
 23 42  1  0
M  CHG  1   1  -1
M  END
>  <UniqueID>  (73) 
73

>  <SMILES>  (73) 
[NH-]C(=O)c1cc2ccc(N3CCNCC3)cc2n1C(=O)CSC(F)F

>  <Energy>  (73) 
86.5005441361457

>  <Genealogy>  (73) 
[NH-]C(=O)c1cc2ccc(N3CCNCC3)cc2n1C(=O)CSC(F)F (protonated)
[NH-]C(=O)c1cc2ccc(N3CCNCC3)cc2n1C(=O)CSC(F)F (3D coordinates assigned)
[NH-]C(=O)c1cc2ccc(N3CCNCC3)cc2n1C(=O)CSC(F)F (nonaromatic ring conformer: 86.5005441361457 kcal/mol)

>  <smiles>  (73) 
NC(=O)c1cc2ccc(N3CCNCC3)cc2n1C(=O)CSC(F)F

>  <score_type>  (73) 
oracle

>  <origin>  (73) 
adg

>  <m_score__min__energy>  (73) 
-10.49

>  <m_primary>  (73) 
energy

$$$$
73:0
     RDKit          3D

 41 42  0  0  0  0  0  0  0  0999 V2000
   -6.0520   17.1700  -31.5390 C   0  0  0  0  0  0  0  0  0  0  0  0
   -6.8150   17.8100  -32.6250 N   0  0  0  0  0  0  0  0  0  0  0  0
   -6.5640   17.0940  -33.8860 C   0  0  0  0  0  0  0  0  0  0  0  0
   -8.2650   17.8170  -32.3270 C   0  0  0  0  0  0  0  0  0  0  0  0
   -8.8930   19.2160  -32.4810 C   0  0  0  0  0  0  0  0  0  0  0  0
   -7.9400   20.3990  -32.1930 C   0  0  0  0  0  0  0  0  0  0  0  0
   -6.8400   20.5260  -33.1690 N   0  0  0  0  0  0  0  0  0  0  0  0
   -5.5630   20.7830  -32.5480 C   0  0  0  0  0  0  0  0  0  0  0  0
   -4.5100   19.8360  -32.6560 C   0  0  0  0  0  0  0  0  0  0  0  0
   -3.2570   20.0830  -32.0730 C   0  0  0  0  0  0  0  0  0  0  0  0
   -3.0780   21.2850  -31.3950 C   0  0  0  0  0  0  0  0  0  0  0  0
   -1.9690   21.7790  -30.7490 C   0  0  0  0  0  0  0  0  0  0  0  0
   -2.3550   23.0200  -30.2480 C   0  0  0  0  0  0  0  0  0  0  0  0
   -1.4860   23.8570  -29.3960 C   0  0  0  0  0  0  0  0  0  0  0  0
   -1.6810   25.2670  -29.3100 N   0  0  0  0  0  0  0  0  0  0  0  0
   -0.5910   23.3140  -28.6950 O   0  0  0  0  0  0  0  0  0  0  0  0
   -3.6500   23.2880  -30.5810 N   0  0  0  0  0  0  0  0  0  0  0  0
   -4.3940   24.4890  -30.3210 C   0  0  0  0  0  0  0  0  0  0  0  0
   -5.4470   24.4490  -29.6320 O   0  0  0  0  0  0  0  0  0  0  0  0
   -3.9720   25.7030  -30.8500 O   0  0  0  0  0  0  0  0  0  0  0  0
   -4.0790   22.2140  -31.2800 C   0  0  0  0  0  0  0  0  0  0  0  0
   -5.3290   22.0070  -31.8730 C   0  0  0  0  0  0  0  0  0  0  0  0
   -6.4478   17.5020  -30.5678 H   0  0  0  0  0  0  0  0  0  0  0  0
   -6.1465   16.0770  -31.6192 H   0  0  0  0  0  0  0  0  0  0  0  0
   -4.9921   17.4533  -31.6192 H   0  0  0  0  0  0  0  0  0  0  0  0
   -6.2075   16.0770  -33.6655 H   0  0  0  0  0  0  0  0  0  0  0  0
   -7.4960   17.0378  -34.4675 H   0  0  0  0  0  0  0  0  0  0  0  0
   -5.8009   17.6320  -34.4675 H   0  0  0  0  0  0  0  0  0  0  0  0
   -8.7703   17.1257  -33.0175 H   0  0  0  0  0  0  0  0  0  0  0  0
   -8.3921   17.5073  -31.2792 H   0  0  0  0  0  0  0  0  0  0  0  0
   -9.2556   19.3146  -33.5148 H   0  0  0  0  0  0  0  0  0  0  0  0
   -9.6926   19.2770  -31.7281 H   0  0  0  0  0  0  0  0  0  0  0  0
   -8.5268   21.3293  -32.2081 H   0  0  0  0  0  0  0  0  0  0  0  0
   -7.4793   20.2093  -31.2123 H   0  0  0  0  0  0  0  0  0  0  0  0
   -7.0540   21.3310  -33.8040 H   0  0  0  0  0  0  0  0  0  0  0  0
   -6.8020   19.6690  -33.7700 H   0  0  0  0  0  0  0  0  0  0  0  0
   -4.6784   18.8969  -33.2035 H   0  0  0  0  0  0  0  0  0  0  0  0
   -2.4415   19.3487  -32.1498 H   0  0  0  0  0  0  0  0  0  0  0  0
   -0.9856   21.2964  -30.6491 H   0  0  0  0  0  0  0  0  0  0  0  0
   -2.6410   25.6730  -29.2690 H   0  0  0  0  0  0  0  0  0  0  0  0
   -6.1126   22.7769  -31.8166 H   0  0  0  0  0  0  0  0  0  0  0  0
  1  2  1  0
  2  3  1  0
  2  4  1  0
  4  5  1  0
  5  6  1  0
  6  7  1  0
  7  8  1  0
  8  9  2  0
  9 10  1  0
 10 11  2  0
 11 12  1  0
 12 13  2  0
 13 14  1  0
 14 15  1  0
 14 16  2  0
 13 17  1  0
 17 18  1  0
 18 19  2  0
 18 20  1  0
 17 21  1  0
 21 22  2  0
 22  8  1  0
 21 11  1  0
  1 23  1  0
  1 24  1  0
  1 25  1  0
  3 26  1  0
  3 27  1  0
  3 28  1  0
  4 29  1  0
  4 30  1  0
  5 31  1  0
  5 32  1  0
  6 33  1  0
  6 34  1  0
  7 35  1  0
  7 36  1  0
  9 37  1  0
 10 38  1  0
 12 39  1  0
 15 40  1  0
 22 41  1  0
M  CHG  3   7   1  15  -1  20  -1
M  END
>  <UniqueID>  (74) 
74

>  <SMILES>  (74) 
CN(C)CCC[NH2+]c1ccc2cc(C([NH-])=O)n(C(=O)[O-])c2c1

>  <Energy>  (74) 
80.04205930301949

>  <Genealogy>  (74) 
CN(C)CCC[NH2+]c1ccc2cc(C([NH-])=O)n(C(=O)[O-])c2c1 (protonated)
CN(C)CCC[NH2+]c1ccc2cc(C([NH-])=O)n(C(=O)[O-])c2c1 (3D coordinates assigned)
CN(C)CCC[NH2+]c1ccc2cc(C([NH-])=O)n(C(=O)[O-])c2c1 (optimized conformer: 80.04205930301949 kcal/mol)

>  <smiles>  (74) 
CN(C)CCCNc1ccc2cc(C(N)=O)n(C(=O)O)c2c1

>  <score_type>  (74) 
oracle

>  <origin>  (74) 
adg

>  <m_score__min__energy>  (74) 
-9.9199999999999999

>  <m_primary>  (74) 
energy

$$$$
74:0
     RDKit          3D

 39 40  0  0  0  0  0  0  0  0999 V2000
   -1.9540   24.1490  -28.0860 C   0  0  0  0  0  0  0  0  0  0  0  0
   -1.6490   24.1310  -29.4620 O   0  0  0  0  0  0  0  0  0  0  0  0
   -0.9910   22.9270  -29.8120 C   0  0  0  0  0  0  0  0  0  0  0  0
   -1.6540   22.3020  -31.0350 C   0  0  0  0  0  0  0  0  0  0  0  0
   -2.9810   22.8020  -31.1690 O   0  0  0  0  0  0  0  0  0  0  0  0
   -4.0640   22.2820  -30.4580 C   0  0  0  0  0  0  0  0  0  0  0  0
   -3.8700   21.4870  -29.4980 O   0  0  0  0  0  0  0  0  0  0  0  0
   -5.4030   22.6530  -30.8250 N   0  0  0  0  0  0  0  0  0  0  0  0
   -6.0140   23.8580  -30.6330 C   0  0  0  0  0  0  0  0  0  0  0  0
   -5.3620   25.0900  -30.1460 C   0  0  0  0  0  0  0  0  0  0  0  0
   -3.9390   25.2060  -30.1030 N   0  0  0  0  0  0  0  0  0  0  0  0
   -6.0720   26.0770  -29.8160 O   0  0  0  0  0  0  0  0  0  0  0  0
   -7.3510   23.7990  -31.0130 C   0  0  0  0  0  0  0  0  0  0  0  0
   -7.5430   22.5130  -31.4640 C   0  0  0  0  0  0  0  0  0  0  0  0
   -8.6930   21.9030  -31.9560 C   0  0  0  0  0  0  0  0  0  0  0  0
   -8.6150   20.5480  -32.3190 C   0  0  0  0  0  0  0  0  0  0  0  0
   -7.4030   19.8280  -32.1710 C   0  0  0  0  0  0  0  0  0  0  0  0
   -7.3320   18.3780  -32.5720 C   0  0  0  0  0  0  0  0  0  0  0  0
   -6.2310   18.1340  -33.6060 C   0  0  0  0  0  0  0  0  0  0  0  0
   -5.0120   17.9610  -32.9760 F   0  0  0  0  0  0  0  0  0  0  0  0
   -6.1470   19.2060  -34.4770 F   0  0  0  0  0  0  0  0  0  0  0  0
   -6.5260   16.9940  -34.3290 F   0  0  0  0  0  0  0  0  0  0  0  0
   -6.2550   20.4840  -31.6730 C   0  0  0  0  0  0  0  0  0  0  0  0
   -6.3540   21.8400  -31.3390 C   0  0  0  0  0  0  0  0  0  0  0  0
   -1.0227   24.0940  -27.5033 H   0  0  0  0  0  0  0  0  0  0  0  0
   -2.4858   25.0801  -27.8405 H   0  0  0  0  0  0  0  0  0  0  0  0
   -2.5916   23.2869  -27.8405 H   0  0  0  0  0  0  0  0  0  0  0  0
    0.0634   23.1420  -30.0401 H   0  0  0  0  0  0  0  0  0  0  0  0
   -1.0564   22.2235  -28.9689 H   0  0  0  0  0  0  0  0  0  0  0  0
   -1.0748   22.5561  -31.9350 H   0  0  0  0  0  0  0  0  0  0  0  0
   -1.6867   21.2092  -30.9135 H   0  0  0  0  0  0  0  0  0  0  0  0
   -3.3250   24.4770  -30.5270 H   0  0  0  0  0  0  0  0  0  0  0  0
   -3.4960   26.0710  -29.7200 H   0  0  0  0  0  0  0  0  0  0  0  0
   -8.0954   24.6073  -30.9636 H   0  0  0  0  0  0  0  0  0  0  0  0
   -9.6336   22.4642  -32.0575 H   0  0  0  0  0  0  0  0  0  0  0  0
   -9.5037   20.0406  -32.7223 H   0  0  0  0  0  0  0  0  0  0  0  0
   -7.1244   17.7702  -31.6790 H   0  0  0  0  0  0  0  0  0  0  0  0
   -8.2957   18.0974  -33.0221 H   0  0  0  0  0  0  0  0  0  0  0  0
   -5.3057   19.9420  -31.5506 H   0  0  0  0  0  0  0  0  0  0  0  0
  1  2  1  0
  2  3  1  0
  3  4  1  0
  4  5  1  0
  5  6  1  0
  6  7  2  0
  6  8  1  0
  8  9  1  0
  9 10  1  0
 10 11  1  0
 10 12  2  0
  9 13  2  0
 13 14  1  0
 14 15  2  0
 15 16  1  0
 16 17  2  0
 17 18  1  0
 18 19  1  0
 19 20  1  0
 19 21  1  0
 19 22  1  0
 17 23  1  0
 23 24  2  0
 24  8  1  0
 24 14  1  0
  1 25  1  0
  1 26  1  0
  1 27  1  0
  3 28  1  0
  3 29  1  0
  4 30  1  0
  4 31  1  0
 11 32  1  0
 11 33  1  0
 13 34  1  0
 15 35  1  0
 16 36  1  0
 18 37  1  0
 18 38  1  0
 23 39  1  0
M  END
>  <UniqueID>  (75) 
75

>  <SMILES>  (75) 
COCCOC(=O)n1c(C(N)=O)cc2ccc(CC(F)(F)F)cc21

>  <Energy>  (75) 
72.75384567803233

>  <Genealogy>  (75) 
COCCOC(=O)n1c(C(N)=O)cc2ccc(CC(F)(F)F)cc21 (3D coordinates assigned)
COCCOC(=O)n1c(C(N)=O)cc2ccc(CC(F)(F)F)cc21 (optimized conformer: 72.75384567803233 kcal/mol)

>  <smiles>  (75) 
COCCOC(=O)n1c(C(N)=O)cc2ccc(CC(F)(F)F)cc21

>  <score_type>  (75) 
oracle

>  <origin>  (75) 
adg

>  <m_score__min__energy>  (75) 
-8.4900000000000002

>  <m_primary>  (75) 
energy

$$$$
75:0
     RDKit          3D

 48 50  0  0  0  0  0  0  0  0999 V2000
   -0.3950   21.3010  -33.2820 C   0  0  0  0  0  0  0  0  0  0  0  0
   -0.6850   20.5840  -32.0030 C   0  0  0  0  0  0  0  0  0  0  0  0
   -0.6430   19.2440  -31.8720 N   0  0  0  0  0  0  0  0  0  0  0  0
   -1.0020   18.9680  -30.6520 O   0  0  0  0  0  0  0  0  0  0  0  0
   -1.2920   20.0580  -29.9810 C   0  0  0  0  0  0  0  0  0  0  0  0
   -1.7190   20.0640  -28.5490 C   0  0  0  0  0  0  0  0  0  0  0  0
   -1.1080   21.1490  -30.8130 C   0  0  0  0  0  0  0  0  0  0  0  0
   -1.2760   22.6080  -30.4980 C   0  0  0  0  0  0  0  0  0  0  0  0
   -2.6920   22.9680  -30.5170 N   0  0  0  0  0  0  0  0  0  0  0  0
   -3.5630   22.6230  -31.6010 C   0  0  0  0  0  0  0  0  0  0  0  0
   -3.0840   22.2510  -32.7070 O   0  0  0  0  0  0  0  0  0  0  0  0
   -4.9860   22.6890  -31.4280 N   0  0  0  0  0  0  0  0  0  0  0  0
   -5.7280   23.7400  -30.9760 C   0  0  0  0  0  0  0  0  0  0  0  0
   -5.1950   24.9920  -30.4010 C   0  0  0  0  0  0  0  0  0  0  0  0
   -3.8140   25.3260  -30.5230 N   0  0  0  0  0  0  0  0  0  0  0  0
   -5.9610   25.7590  -29.7580 O   0  0  0  0  0  0  0  0  0  0  0  0
   -7.0880   23.4490  -31.0610 C   0  0  0  0  0  0  0  0  0  0  0  0
   -7.1580   22.1770  -31.5800 C   0  0  0  0  0  0  0  0  0  0  0  0
   -8.2660   21.3970  -31.9020 C   0  0  0  0  0  0  0  0  0  0  0  0
   -8.0390   20.1300  -32.4660 C   0  0  0  0  0  0  0  0  0  0  0  0
   -6.7190   19.6710  -32.7040 C   0  0  0  0  0  0  0  0  0  0  0  0
   -6.4900   18.3240  -33.3350 C   0  0  0  0  0  0  0  0  0  0  0  0
   -5.1590   18.2570  -34.1020 C   0  0  0  0  0  0  0  0  0  0  0  0
   -3.9760   17.8210  -33.2250 C   0  0  0  0  0  0  0  0  0  0  0  0
   -3.1910   18.9210  -32.8500 O   0  0  0  0  0  0  0  0  0  0  0  0
   -5.6220   20.4960  -32.3750 C   0  0  0  0  0  0  0  0  0  0  0  0
   -5.8760   21.7410  -31.7940 C   0  0  0  0  0  0  0  0  0  0  0  0
    0.0089   22.2996  -33.0591 H   0  0  0  0  0  0  0  0  0  0  0  0
    0.3424   20.7288  -33.8641 H   0  0  0  0  0  0  0  0  0  0  0  0
   -1.3229   21.4023  -33.8641 H   0  0  0  0  0  0  0  0  0  0  0  0
   -0.8300   20.0515  -27.9013 H   0  0  0  0  0  0  0  0  0  0  0  0
   -2.3080   20.9705  -28.3458 H   0  0  0  0  0  0  0  0  0  0  0  0
   -2.3333   19.1744  -28.3458 H   0  0  0  0  0  0  0  0  0  0  0  0
   -0.8619   22.8144  -29.5001 H   0  0  0  0  0  0  0  0  0  0  0  0
   -0.7441   23.2025  -31.2554 H   0  0  0  0  0  0  0  0  0  0  0  0
   -3.0930   23.4620  -29.6890 H   0  0  0  0  0  0  0  0  0  0  0  0
   -3.4910   26.0220  -31.2310 H   0  0  0  0  0  0  0  0  0  0  0  0
   -7.9278   24.0988  -30.7739 H   0  0  0  0  0  0  0  0  0  0  0  0
   -9.2878   21.7616  -31.7204 H   0  0  0  0  0  0  0  0  0  0  0  0
   -8.8939   19.4882  -32.7253 H   0  0  0  0  0  0  0  0  0  0  0  0
   -6.4811   17.5598  -32.5439 H   0  0  0  0  0  0  0  0  0  0  0  0
   -7.3024   18.1476  -34.0553 H   0  0  0  0  0  0  0  0  0  0  0  0
   -5.2667   17.5371  -34.9267 H   0  0  0  0  0  0  0  0  0  0  0  0
   -4.9398   19.2719  -34.4651 H   0  0  0  0  0  0  0  0  0  0  0  0
   -4.3622   17.3303  -32.3194 H   0  0  0  0  0  0  0  0  0  0  0  0
   -3.3495   17.1270  -33.8046 H   0  0  0  0  0  0  0  0  0  0  0  0
   -2.5460   18.5920  -32.1710 H   0  0  0  0  0  0  0  0  0  0  0  0
   -4.5911   20.1664  -32.5715 H   0  0  0  0  0  0  0  0  0  0  0  0
  1  2  1  0
  2  3  2  0
  3  4  1  0
  4  5  1  0
  5  6  1  0
  5  7  2  0
  7  8  1  0
  8  9  1  0
  9 10  1  0
 10 11  2  0
 10 12  1  0
 12 13  1  0
 13 14  1  0
 14 15  1  0
 14 16  2  0
 13 17  2  0
 17 18  1  0
 18 19  2  0
 19 20  1  0
 20 21  2  0
 21 22  1  0
 22 23  1  0
 23 24  1  0
 24 25  1  0
 21 26  1  0
 26 27  2  0
  7  2  1  0
 27 12  1  0
 27 18  1  0
  1 28  1  0
  1 29  1  0
  1 30  1  0
  6 31  1  0
  6 32  1  0
  6 33  1  0
  8 34  1  0
  8 35  1  0
  9 36  1  0
 15 37  1  0
 17 38  1  0
 19 39  1  0
 20 40  1  0
 22 41  1  0
 22 42  1  0
 23 43  1  0
 23 44  1  0
 24 45  1  0
 24 46  1  0
 25 47  1  0
 26 48  1  0
M  CHG  1  15  -1
M  END
>  <UniqueID>  (76) 
76

>  <SMILES>  (76) 
Cc1noc(C)c1CNC(=O)n1c(C([NH-])=O)cc2ccc(CCCO)cc21

>  <Energy>  (76) 
108.2115338901238

>  <Genealogy>  (76) 
Cc1noc(C)c1CNC(=O)n1c(C([NH-])=O)cc2ccc(CCCO)cc21 (protonated)
Cc1noc(C)c1CNC(=O)n1c(C([NH-])=O)cc2ccc(CCCO)cc21 (3D coordinates assigned)
Cc1noc(C)c1CNC(=O)n1c(C([NH-])=O)cc2ccc(CCCO)cc21 (optimized conformer: 108.2115338901238 kcal/mol)

>  <smiles>  (76) 
Cc1noc(C)c1CNC(=O)n1c(C(N)=O)cc2ccc(CCCO)cc21

>  <score_type>  (76) 
oracle

>  <origin>  (76) 
adg

>  <m_score__min__energy>  (76) 
-11.199999999999999

>  <m_primary>  (76) 
energy

$$$$
76:0
     RDKit          3D

 49 51  0  0  0  0  0  0  0  0999 V2000
   -0.4150   26.4680  -24.3670 C   0  0  0  0  0  0  0  0  0  0  0  0
    0.1970   25.1390  -24.5620 N   0  0  0  0  0  0  0  0  0  0  0  0
    1.1890   25.1540  -25.6600 C   0  0  0  0  0  0  0  0  0  0  0  0
    0.5270   25.4060  -27.0220 C   0  0  0  0  0  0  0  0  0  0  0  0
   -0.7230   24.6480  -27.1500 N   0  0  0  0  0  0  0  0  0  0  0  0
   -1.5470   24.8330  -28.3160 C   0  0  0  0  0  0  0  0  0  0  0  0
   -1.2460   25.7160  -29.1660 O   0  0  0  0  0  0  0  0  0  0  0  0
   -2.6820   24.0370  -28.5090 O   0  0  0  0  0  0  0  0  0  0  0  0
   -2.6940   22.8950  -29.3590 C   0  0  0  0  0  0  0  0  0  0  0  0
   -2.7890   23.3120  -30.7170 O   0  0  0  0  0  0  0  0  0  0  0  0
   -3.7320   22.7900  -31.6060 C   0  0  0  0  0  0  0  0  0  0  0  0
   -3.3580   22.2400  -32.6790 O   0  0  0  0  0  0  0  0  0  0  0  0
   -5.1320   22.9000  -31.3050 N   0  0  0  0  0  0  0  0  0  0  0  0
   -5.8070   24.0100  -30.8930 C   0  0  0  0  0  0  0  0  0  0  0  0
   -5.2010   25.2970  -30.4910 C   0  0  0  0  0  0  0  0  0  0  0  0
   -3.8620   25.6220  -30.8520 N   0  0  0  0  0  0  0  0  0  0  0  0
   -5.8600   26.0990  -29.7770 O   0  0  0  0  0  0  0  0  0  0  0  0
   -7.1740   23.7500  -30.8150 C   0  0  0  0  0  0  0  0  0  0  0  0
   -7.3160   22.4340  -31.1890 C   0  0  0  0  0  0  0  0  0  0  0  0
   -8.4630   21.6550  -31.2920 C   0  0  0  0  0  0  0  0  0  0  0  0
   -8.3200   20.3260  -31.7270 C   0  0  0  0  0  0  0  0  0  0  0  0
   -7.0450   19.8110  -32.0760 C   0  0  0  0  0  0  0  0  0  0  0  0
   -6.9000   18.3720  -32.5040 C   0  0  0  0  0  0  0  0  0  0  0  0
   -6.4980   18.2940  -33.8270 F   0  0  0  0  0  0  0  0  0  0  0  0
   -8.1050   17.7020  -32.3800 F   0  0  0  0  0  0  0  0  0  0  0  0
   -5.9560   17.7530  -31.7080 F   0  0  0  0  0  0  0  0  0  0  0  0
   -5.9000   20.6300  -31.9350 C   0  0  0  0  0  0  0  0  0  0  0  0
   -6.0710   21.9430  -31.4810 C   0  0  0  0  0  0  0  0  0  0  0  0
   -1.0180   23.5860  -26.1820 C   0  0  0  0  0  0  0  0  0  0  0  0
   -0.8400   24.0820  -24.7320 C   0  0  0  0  0  0  0  0  0  0  0  0
   -0.5097   26.6737  -23.2906 H   0  0  0  0  0  0  0  0  0  0  0  0
    0.2201   27.2360  -24.8326 H   0  0  0  0  0  0  0  0  0  0  0  0
   -1.4115   26.4847  -24.8326 H   0  0  0  0  0  0  0  0  0  0  0  0
    0.7250   24.9260  -23.6820 H   0  0  0  0  0  0  0  0  0  0  0  0
    1.9218   25.9514  -25.4671 H   0  0  0  0  0  0  0  0  0  0  0  0
    1.6771   24.1688  -25.6938 H   0  0  0  0  0  0  0  0  0  0  0  0
    0.3081   26.4794  -27.1220 H   0  0  0  0  0  0  0  0  0  0  0  0
    1.2177   25.0770  -27.8124 H   0  0  0  0  0  0  0  0  0  0  0  0
   -1.7658   22.3222  -29.2159 H   0  0  0  0  0  0  0  0  0  0  0  0
   -3.5588   22.2627  -29.1094 H   0  0  0  0  0  0  0  0  0  0  0  0
   -3.0550   25.2950  -30.2760 H   0  0  0  0  0  0  0  0  0  0  0  0
   -7.9700   24.4486  -30.5176 H   0  0  0  0  0  0  0  0  0  0  0  0
   -9.4519   22.0660  -31.0408 H   0  0  0  0  0  0  0  0  0  0  0  0
   -9.2063   19.6783  -31.7976 H   0  0  0  0  0  0  0  0  0  0  0  0
   -4.8987   20.2439  -32.1765 H   0  0  0  0  0  0  0  0  0  0  0  0
   -2.0570   23.2529  -26.3215 H   0  0  0  0  0  0  0  0  0  0  0  0
   -0.3163   22.7563  -26.3531 H   0  0  0  0  0  0  0  0  0  0  0  0
   -1.8028   24.4870  -24.3870 H   0  0  0  0  0  0  0  0  0  0  0  0
   -0.5019   23.2155  -24.1448 H   0  0  0  0  0  0  0  0  0  0  0  0
  1  2  1  0
  2  3  1  0
  3  4  1  0
  4  5  1  0
  5  6  1  0
  6  7  2  0
  6  8  1  0
  8  9  1  0
  9 10  1  0
 10 11  1  0
 11 12  2  0
 11 13  1  0
 13 14  1  0
 14 15  1  0
 15 16  1  0
 15 17  2  0
 14 18  2  0
 18 19  1  0
 19 20  2  0
 20 21  1  0
 21 22  2  0
 22 23  1  0
 23 24  1  0
 23 25  1  0
 23 26  1  0
 22 27  1  0
 27 28  2  0
  5 29  1  0
 29 30  1  0
 30  2  1  0
 28 13  1  0
 28 19  1  0
  1 31  1  0
  1 32  1  0
  1 33  1  0
  2 34  1  0
  3 35  1  0
  3 36  1  0
  4 37  1  0
  4 38  1  0
  9 39  1  0
  9 40  1  0
 16 41  1  0
 18 42  1  0
 20 43  1  0
 21 44  1  0
 27 45  1  0
 29 46  1  0
 29 47  1  0
 30 48  1  0
 30 49  1  0
M  CHG  2   2   1  16  -1
M  END
>  <UniqueID>  (77) 
77

>  <SMILES>  (77) 
C[NH+]1CCN(C(=O)OCOC(=O)n2c(C([NH-])=O)cc3ccc(C(F)(F)F)cc32)CC1

>  <Energy>  (77) 
93.46404918320123

>  <Genealogy>  (77) 
C[NH+]1CCN(C(=O)OCOC(=O)n2c(C([NH-])=O)cc3ccc(C(F)(F)F)cc32)CC1 (protonated)
C[NH+]1CCN(C(=O)OCOC(=O)n2c(C([NH-])=O)cc3ccc(C(F)(F)F)cc32)CC1 (3D coordinates assigned)
C[NH+]1CCN(C(=O)OCOC(=O)n2c(C([NH-])=O)cc3ccc(C(F)(F)F)cc32)CC1 (nonaromatic ring conformer: 93.46404918320123 kcal/mol)

>  <smiles>  (77) 
CN1CCN(C(=O)OCOC(=O)n2c(C(N)=O)cc3ccc(C(F)(F)F)cc32)CC1

>  <score_type>  (77) 
oracle

>  <origin>  (77) 
adg

>  <m_score__min__energy>  (77) 
-11.109999999999999

>  <m_primary>  (77) 
energy

$$$$
77:0
     RDKit          3D

 32 34  0  0  0  0  0  0  0  0999 V2000
   -3.9940   18.5410  -34.2980 C   0  0  0  0  0  0  0  0  0  0  0  0
   -5.1460   19.0080  -33.5290 N   0  0  0  0  0  0  0  0  0  0  0  0
   -6.4280   18.6910  -33.7770 C   0  0  0  0  0  0  0  0  0  0  0  0
   -7.2070   19.3650  -32.8680 C   0  0  0  0  0  0  0  0  0  0  0  0
   -8.6400   19.3190  -32.7940 C   0  0  0  0  0  0  0  0  0  0  0  0
   -9.7950   19.2820  -32.7360 N   0  0  0  0  0  0  0  0  0  0  0  0
   -6.4360   20.1000  -32.0430 N   0  0  0  0  0  0  0  0  0  0  0  0
   -5.1760   19.8470  -32.4640 C   0  0  0  0  0  0  0  0  0  0  0  0
   -3.9940   20.4650  -31.8260 C   0  0  0  0  0  0  0  0  0  0  0  0
   -2.7590   19.7710  -31.8300 C   0  0  0  0  0  0  0  0  0  0  0  0
   -1.6170   20.3350  -31.2350 C   0  0  0  0  0  0  0  0  0  0  0  0
   -1.7350   21.5980  -30.6650 C   0  0  0  0  0  0  0  0  0  0  0  0
   -0.7980   22.3630  -30.0100 C   0  0  0  0  0  0  0  0  0  0  0  0
   -1.4630   23.5350  -29.6530 C   0  0  0  0  0  0  0  0  0  0  0  0
   -0.7940   24.6780  -28.9980 C   0  0  0  0  0  0  0  0  0  0  0  0
   -1.4140   25.9610  -28.9470 N   0  0  0  0  0  0  0  0  0  0  0  0
    0.3620   24.5320  -28.5170 O   0  0  0  0  0  0  0  0  0  0  0  0
   -2.7620   23.4930  -30.0660 N   0  0  0  0  0  0  0  0  0  0  0  0
   -3.7970   24.4590  -29.8190 C   0  0  0  0  0  0  0  0  0  0  0  0
   -4.6490   24.2600  -28.9140 O   0  0  0  0  0  0  0  0  0  0  0  0
   -3.8830   25.6080  -30.5940 O   0  0  0  0  0  0  0  0  0  0  0  0
   -2.9120   22.3010  -30.6850 C   0  0  0  0  0  0  0  0  0  0  0  0
   -4.0690   21.7570  -31.2550 C   0  0  0  0  0  0  0  0  0  0  0  0
   -3.1994   18.2189  -33.6089 H   0  0  0  0  0  0  0  0  0  0  0  0
   -4.2953   17.6940  -34.9319 H   0  0  0  0  0  0  0  0  0  0  0  0
   -3.6204   19.3587  -34.9319 H   0  0  0  0  0  0  0  0  0  0  0  0
   -6.7886   18.0141  -34.5655 H   0  0  0  0  0  0  0  0  0  0  0  0
   -2.6929   18.7804  -32.3037 H   0  0  0  0  0  0  0  0  0  0  0  0
   -0.6594   19.7939  -31.2207 H   0  0  0  0  0  0  0  0  0  0  0  0
    0.2525   22.1049  -29.8104 H   0  0  0  0  0  0  0  0  0  0  0  0
   -2.4540   26.0560  -28.9700 H   0  0  0  0  0  0  0  0  0  0  0  0
   -5.0136   22.3206  -31.2588 H   0  0  0  0  0  0  0  0  0  0  0  0
  1  2  1  0
  2  3  1  0
  3  4  2  0
  4  5  1  0
  5  6  3  0
  4  7  1  0
  7  8  2  0
  8  9  1  0
  9 10  2  0
 10 11  1  0
 11 12  2  0
 12 13  1  0
 13 14  2  0
 14 15  1  0
 15 16  1  0
 15 17  2  0
 14 18  1  0
 18 19  1  0
 19 20  2  0
 19 21  1  0
 18 22  1  0
 22 23  2  0
  8  2  1  0
 23  9  1  0
 22 12  1  0
  1 24  1  0
  1 25  1  0
  1 26  1  0
  3 27  1  0
 10 28  1  0
 11 29  1  0
 13 30  1  0
 16 31  1  0
 23 32  1  0
M  CHG  2  16  -1  21  -1
M  END
>  <UniqueID>  (78) 
78

>  <SMILES>  (78) 
Cn1cc(C#N)nc1-c1ccc2cc(C([NH-])=O)n(C(=O)[O-])c2c1

>  <Energy>  (78) 
107.42686542619336

>  <Genealogy>  (78) 
Cn1cc(C#N)nc1-c1ccc2cc(C([NH-])=O)n(C(=O)[O-])c2c1 (protonated)
Cn1cc(C#N)nc1-c1ccc2cc(C([NH-])=O)n(C(=O)[O-])c2c1 (3D coordinates assigned)
Cn1cc(C#N)nc1-c1ccc2cc(C([NH-])=O)n(C(=O)[O-])c2c1 (optimized conformer: 107.42686542619336 kcal/mol)

>  <smiles>  (78) 
Cn1cc(C#N)nc1-c1ccc2cc(C(N)=O)n(C(=O)O)c2c1

>  <score_type>  (78) 
oracle

>  <origin>  (78) 
adg

>  <m_score__min__energy>  (78) 
-11.58

>  <m_primary>  (78) 
energy

$$$$
78:0
     RDKit          3D

 34 36  0  0  0  0  0  0  0  0999 V2000
   -3.8860   25.6510  -30.8290 N   0  0  0  0  0  0  0  0  0  0  0  0
   -5.1880   25.1630  -30.5170 C   0  0  0  0  0  0  0  0  0  0  0  0
   -5.9150   25.8170  -29.7200 O   0  0  0  0  0  0  0  0  0  0  0  0
   -5.6760   23.8830  -31.0700 C   0  0  0  0  0  0  0  0  0  0  0  0
   -7.0230   23.6060  -31.2880 C   0  0  0  0  0  0  0  0  0  0  0  0
   -7.0620   22.3020  -31.7240 C   0  0  0  0  0  0  0  0  0  0  0  0
   -8.1460   21.5190  -32.1060 C   0  0  0  0  0  0  0  0  0  0  0  0
   -7.8900   20.2110  -32.5500 C   0  0  0  0  0  0  0  0  0  0  0  0
   -6.5640   19.7090  -32.6120 C   0  0  0  0  0  0  0  0  0  0  0  0
   -6.3120   18.3280  -33.0970 C   0  0  0  0  0  0  0  0  0  0  0  0
   -6.4820   17.9180  -34.3780 N   0  0  0  0  0  0  0  0  0  0  0  0
   -6.1790   16.6040  -34.5600 C   0  0  0  0  0  0  0  0  0  0  0  0
   -5.7580   15.9460  -33.4090 C   0  0  0  0  0  0  0  0  0  0  0  0
   -5.3630   14.5360  -33.3090 C   0  0  0  0  0  0  0  0  0  0  0  0
   -5.6340   13.7320  -34.2380 O   0  0  0  0  0  0  0  0  0  0  0  0
   -4.6900   14.0800  -32.1830 O   0  0  0  0  0  0  0  0  0  0  0  0
   -5.7660   17.0490  -32.1390 S   0  0  0  0  0  0  0  0  0  0  0  0
   -5.4890   20.5430  -32.2210 C   0  0  0  0  0  0  0  0  0  0  0  0
   -5.7750   21.8340  -31.7630 C   0  0  0  0  0  0  0  0  0  0  0  0
   -4.9110   22.7940  -31.3660 N   0  0  0  0  0  0  0  0  0  0  0  0
   -3.4790   22.6930  -31.3490 C   0  0  0  0  0  0  0  0  0  0  0  0
   -2.8640   22.3060  -32.3820 O   0  0  0  0  0  0  0  0  0  0  0  0
   -2.7560   23.0190  -30.1560 N   0  0  0  0  0  0  0  0  0  0  0  0
   -2.6110   22.1920  -29.2000 C   0  0  0  0  0  0  0  0  0  0  0  0
   -2.4650   21.3600  -28.2360 C   0  0  0  0  0  0  0  0  0  0  0  0
   -2.3190   20.5270  -27.2730 C   0  0  0  0  0  0  0  0  0  0  0  0
   -2.1780   19.7230  -26.3430 O   0  0  0  0  0  0  0  0  0  0  0  0
   -3.0310   25.1730  -30.4670 H   0  0  0  0  0  0  0  0  0  0  0  0
   -7.8754   24.2859  -31.1424 H   0  0  0  0  0  0  0  0  0  0  0  0
   -9.1725   21.9119  -32.0618 H   0  0  0  0  0  0  0  0  0  0  0  0
   -8.7286   19.5672  -32.8537 H   0  0  0  0  0  0  0  0  0  0  0  0
   -6.7880   18.5320  -35.1640 H   0  0  0  0  0  0  0  0  0  0  0  0
   -6.2602   16.1036  -35.5362 H   0  0  0  0  0  0  0  0  0  0  0  0
   -4.4508   20.1838  -32.2760 H   0  0  0  0  0  0  0  0  0  0  0  0
  1  2  1  0
  2  3  2  0
  2  4  1  0
  4  5  2  0
  5  6  1  0
  6  7  2  0
  7  8  1  0
  8  9  2  0
  9 10  1  0
 10 11  2  0
 11 12  1  0
 12 13  2  0
 13 14  1  0
 14 15  2  0
 14 16  1  0
 13 17  1  0
  9 18  1  0
 18 19  2  0
 19 20  1  0
 20 21  1  0
 21 22  2  0
 21 23  1  0
 23 24  2  0
 24 25  2  0
 25 26  2  0
 26 27  2  0
 20  4  1  0
 19  6  1  0
 17 10  1  0
  1 28  1  0
  5 29  1  0
  7 30  1  0
  8 31  1  0
 11 32  1  0
 12 33  1  0
 18 34  1  0
M  CHG  3   1  -1  11   1  16  -1
M  END
>  <UniqueID>  (79) 
79

>  <SMILES>  (79) 
[NH-]C(=O)c1cc2ccc(-c3[nH+]cc(C(=O)[O-])s3)cc2n1C(=O)N=C=C=C=O

>  <Energy>  (79) 
104.96004575399738

>  <Genealogy>  (79) 
[NH-]C(=O)c1cc2ccc(-c3[nH+]cc(C(=O)[O-])s3)cc2n1C(=O)N=C=C=C=O (protonated)
[NH-]C(=O)c1cc2ccc(-c3[nH+]cc(C(=O)[O-])s3)cc2n1C(=O)N=C=C=C=O (3D coordinates assigned)
[NH-]C(=O)c1cc2ccc(-c3[nH+]cc(C(=O)[O-])s3)cc2n1C(=O)N=C=C=C=O (optimized conformer: 104.96004575399738 kcal/mol)

>  <smiles>  (79) 
NC(=O)c1cc2ccc(-c3ncc(C(=O)O)s3)cc2n1C(=O)N=C=C=C=O

>  <score_type>  (79) 
oracle

>  <origin>  (79) 
adg

>  <m_score__min__energy>  (79) 
-10.91

>  <m_primary>  (79) 
energy

$$$$
79:0
     RDKit          3D

 34 35  0  0  0  0  0  0  0  0999 V2000
   -6.0870   16.8010  -31.1530 N   0  0  0  0  0  0  0  0  0  0  0  0
   -6.3650   17.4930  -32.0370 C   0  0  0  0  0  0  0  0  0  0  0  0
   -6.7190   18.3690  -33.1580 C   0  0  0  0  0  0  0  0  0  0  0  0
   -6.9810   19.7610  -32.6570 C   0  0  0  0  0  0  0  0  0  0  0  0
   -8.3120   20.2240  -32.5100 C   0  0  0  0  0  0  0  0  0  0  0  0
   -8.5710   21.5090  -32.0040 C   0  0  0  0  0  0  0  0  0  0  0  0
   -7.4830   22.3040  -31.6540 C   0  0  0  0  0  0  0  0  0  0  0  0
   -7.4510   23.5710  -31.1180 C   0  0  0  0  0  0  0  0  0  0  0  0
   -6.0990   23.8690  -30.9550 C   0  0  0  0  0  0  0  0  0  0  0  0
   -5.5930   25.1790  -30.4880 C   0  0  0  0  0  0  0  0  0  0  0  0
   -4.2210   25.5350  -30.6640 N   0  0  0  0  0  0  0  0  0  0  0  0
   -6.3660   25.9820  -29.9010 O   0  0  0  0  0  0  0  0  0  0  0  0
   -5.3270   22.8240  -31.3710 N   0  0  0  0  0  0  0  0  0  0  0  0
   -3.8960   22.7160  -31.3190 C   0  0  0  0  0  0  0  0  0  0  0  0
   -3.2520   22.3720  -32.3480 O   0  0  0  0  0  0  0  0  0  0  0  0
   -3.2190   23.0110  -30.1290 O   0  0  0  0  0  0  0  0  0  0  0  0
   -1.7980   23.0070  -30.0100 C   0  0  0  0  0  0  0  0  0  0  0  0
   -1.3090   24.2500  -29.2650 C   0  0  0  0  0  0  0  0  0  0  0  0
   -2.2670   25.2720  -29.3320 O   0  0  0  0  0  0  0  0  0  0  0  0
   -6.1890   21.8750  -31.7970 C   0  0  0  0  0  0  0  0  0  0  0  0
   -5.9030   20.5930  -32.2820 C   0  0  0  0  0  0  0  0  0  0  0  0
   -5.8890   18.3913  -33.8795 H   0  0  0  0  0  0  0  0  0  0  0  0
   -7.6262   17.9833  -33.6462 H   0  0  0  0  0  0  0  0  0  0  0  0
   -9.1505   19.5713  -32.7947 H   0  0  0  0  0  0  0  0  0  0  0  0
   -9.6016   21.8755  -31.8880 H   0  0  0  0  0  0  0  0  0  0  0  0
   -8.3098   24.2124  -30.8707 H   0  0  0  0  0  0  0  0  0  0  0  0
   -3.8660   26.4450  -30.2950 H   0  0  0  0  0  0  0  0  0  0  0  0
   -3.5640   24.9210  -31.1930 H   0  0  0  0  0  0  0  0  0  0  0  0
   -1.4855   22.1092  -29.4565 H   0  0  0  0  0  0  0  0  0  0  0  0
   -1.3609   23.0077  -31.0194 H   0  0  0  0  0  0  0  0  0  0  0  0
   -1.1278   23.9923  -28.2111 H   0  0  0  0  0  0  0  0  0  0  0  0
   -0.3790   24.6031  -29.7346 H   0  0  0  0  0  0  0  0  0  0  0  0
   -3.1220   24.8810  -29.0100 H   0  0  0  0  0  0  0  0  0  0  0  0
   -4.8640   20.2423  -32.3689 H   0  0  0  0  0  0  0  0  0  0  0  0
  1  2  3  0
  2  3  1  0
  3  4  1  0
  4  5  2  0
  5  6  1  0
  6  7  2  0
  7  8  1  0
  8  9  2  0
  9 10  1  0
 10 11  1  0
 10 12  2  0
  9 13  1  0
 13 14  1  0
 14 15  2  0
 14 16  1  0
 16 17  1  0
 17 18  1  0
 18 19  1  0
 13 20  1  0
 20 21  2  0
 21  4  1  0
 20  7  1  0
  3 22  1  0
  3 23  1  0
  5 24  1  0
  6 25  1  0
  8 26  1  0
 11 27  1  0
 11 28  1  0
 17 29  1  0
 17 30  1  0
 18 31  1  0
 18 32  1  0
 19 33  1  0
 21 34  1  0
M  END
>  <UniqueID>  (80) 
80

>  <SMILES>  (80) 
N#CCc1ccc2cc(C(N)=O)n(C(=O)OCCO)c2c1

>  <Energy>  (80) 
67.2182004325674

>  <Genealogy>  (80) 
N#CCc1ccc2cc(C(N)=O)n(C(=O)OCCO)c2c1 (3D coordinates assigned)
N#CCc1ccc2cc(C(N)=O)n(C(=O)OCCO)c2c1 (optimized conformer: 67.2182004325674 kcal/mol)

>  <smiles>  (80) 
N#CCc1ccc2cc(C(N)=O)n(C(=O)OCCO)c2c1

>  <score_type>  (80) 
oracle

>  <origin>  (80) 
adg

>  <m_score__min__energy>  (80) 
-8.75

>  <m_primary>  (80) 
energy

$$$$
80:0
     RDKit          3D

 48 49  0  0  0  0  0  0  0  0999 V2000
   -1.9170   20.2930  -26.4810 C   0  0  0  0  0  0  0  0  0  0  0  0
   -2.1440   21.4390  -27.4600 C   0  0  2  0  0  0  0  0  0  0  0  0
   -1.0460   21.5370  -28.3690 O   0  0  0  0  0  0  0  0  0  0  0  0
   -1.1530   22.0820  -29.6530 C   0  0  0  0  0  0  0  0  0  0  0  0
   -0.3470   22.9660  -30.0510 O   0  0  0  0  0  0  0  0  0  0  0  0
   -2.2170   21.5830  -30.5770 C   0  0  0  0  0  0  0  0  0  0  0  0
   -3.1800   22.6040  -30.8250 O   0  0  0  0  0  0  0  0  0  0  0  0
   -4.1670   22.5070  -31.8130 C   0  0  0  0  0  0  0  0  0  0  0  0
   -3.8650   22.6460  -33.0300 O   0  0  0  0  0  0  0  0  0  0  0  0
   -5.5290   22.2490  -31.4400 N   0  0  0  0  0  0  0  0  0  0  0  0
   -6.3720   23.0740  -30.7590 C   0  0  0  0  0  0  0  0  0  0  0  0
   -6.0010   24.3520  -30.1170 C   0  0  0  0  0  0  0  0  0  0  0  0
   -4.7360   24.5210  -29.4750 N   0  0  0  0  0  0  0  0  0  0  0  0
   -6.8390   25.2920  -30.0850 O   0  0  0  0  0  0  0  0  0  0  0  0
   -7.6520   22.5290  -30.6980 C   0  0  0  0  0  0  0  0  0  0  0  0
   -7.5640   21.3240  -31.3580 C   0  0  0  0  0  0  0  0  0  0  0  0
   -8.5420   20.3680  -31.6050 C   0  0  0  0  0  0  0  0  0  0  0  0
   -8.1790   19.2290  -32.3420 C   0  0  0  0  0  0  0  0  0  0  0  0
   -6.8600   19.0790  -32.8440 C   0  0  0  0  0  0  0  0  0  0  0  0
   -6.4770   17.8340  -33.6040 C   0  0  0  0  0  0  0  0  0  0  0  0
   -6.1420   18.1790  -34.9010 F   0  0  0  0  0  0  0  0  0  0  0  0
   -5.3940   17.2120  -33.0080 F   0  0  0  0  0  0  0  0  0  0  0  0
   -7.5290   16.9350  -33.6340 F   0  0  0  0  0  0  0  0  0  0  0  0
   -5.8890   20.0640  -32.5530 C   0  0  0  0  0  0  0  0  0  0  0  0
   -6.2730   21.1790  -31.7980 C   0  0  0  0  0  0  0  0  0  0  0  0
   -2.2540   22.6560  -26.7260 O   0  0  0  0  0  0  0  0  0  0  0  0
   -2.7140   23.8500  -27.2920 C   0  0  0  0  0  0  0  0  0  0  0  0
   -3.9270   24.1810  -27.1850 O   0  0  0  0  0  0  0  0  0  0  0  0
   -1.7690   24.7090  -28.0930 C   0  0  2  0  0  0  0  0  0  0  0  0
   -1.3880   25.9850  -27.3340 C   0  0  0  0  0  0  0  0  0  0  0  0
   -2.3180   25.0310  -29.3470 O   0  0  0  0  0  0  0  0  0  0  0  0
   -1.9918   20.6707  -25.4506 H   0  0  0  0  0  0  0  0  0  0  0  0
   -2.6787   19.5161  -26.6429 H   0  0  0  0  0  0  0  0  0  0  0  0
   -0.9167   19.8651  -26.6429 H   0  0  0  0  0  0  0  0  0  0  0  0
   -3.0653   21.2521  -28.0313 H   0  0  0  0  0  0  0  0  0  0  0  0
   -1.7570   21.2799  -31.5291 H   0  0  0  0  0  0  0  0  0  0  0  0
   -2.7207   20.7240  -30.1096 H   0  0  0  0  0  0  0  0  0  0  0  0
   -4.4830   25.4410  -29.0530 H   0  0  0  0  0  0  0  0  0  0  0  0
   -4.0860   23.7150  -29.3380 H   0  0  0  0  0  0  0  0  0  0  0  0
   -8.5426   22.9674  -30.2240 H   0  0  0  0  0  0  0  0  0  0  0  0
   -9.5693   20.4995  -31.2344 H   0  0  0  0  0  0  0  0  0  0  0  0
   -8.9257   18.4440  -32.5324 H   0  0  0  0  0  0  0  0  0  0  0  0
   -4.8546   19.9570  -32.9117 H   0  0  0  0  0  0  0  0  0  0  0  0
   -0.8523   24.1227  -28.2538 H   0  0  0  0  0  0  0  0  0  0  0  0
   -1.4438   25.7982  -26.2514 H   0  0  0  0  0  0  0  0  0  0  0  0
   -0.3628   26.2793  -27.6029 H   0  0  0  0  0  0  0  0  0  0  0  0
   -2.0840   26.7932  -27.6029 H   0  0  0  0  0  0  0  0  0  0  0  0
   -2.0960   24.2900  -29.9710 H   0  0  0  0  0  0  0  0  0  0  0  0
  1  2  1  0
  2  3  1  0
  3  4  1  0
  4  5  2  0
  4  6  1  0
  6  7  1  0
  7  8  1  0
  8  9  2  0
  8 10  1  0
 10 11  1  0
 11 12  1  0
 12 13  1  0
 12 14  2  0
 11 15  2  0
 15 16  1  0
 16 17  2  0
 17 18  1  0
 18 19  2  0
 19 20  1  0
 20 21  1  0
 20 22  1  0
 20 23  1  0
 19 24  1  0
 24 25  2  0
  2 26  1  0
 26 27  1  0
 27 28  2  0
 27 29  1  0
 29 30  1  0
 29 31  1  0
 25 10  1  0
 25 16  1  0
  1 32  1  0
  1 33  1  0
  1 34  1  0
  2 35  1  6
  6 36  1  0
  6 37  1  0
 13 38  1  0
 13 39  1  0
 15 40  1  0
 17 41  1  0
 18 42  1  0
 24 43  1  0
 29 44  1  6
 30 45  1  0
 30 46  1  0
 30 47  1  0
 31 48  1  0
M  END
>  <UniqueID>  (81) 
81

>  <SMILES>  (81) 
C[C@H](OC(=O)COC(=O)n1c(C(N)=O)cc2ccc(C(F)(F)F)cc21)OC(=O)[C@H](C)O

>  <Energy>  (81) 
77.26314959296595

>  <Genealogy>  (81) 
C[C@H](OC(=O)COC(=O)n1c(C(N)=O)cc2ccc(C(F)(F)F)cc21)OC(=O)[C@H](C)O (chirality)
C[C@H](OC(=O)COC(=O)n1c(C(N)=O)cc2ccc(C(F)(F)F)cc21)OC(=O)[C@H](C)O (3D coordinates assigned)
C[C@H](OC(=O)COC(=O)n1c(C(N)=O)cc2ccc(C(F)(F)F)cc21)OC(=O)[C@H](C)O (optimized conformer: 77.26314959296595 kcal/mol)

>  <smiles>  (81) 
CC(OC(=O)COC(=O)n1c(C(N)=O)cc2ccc(C(F)(F)F)cc21)OC(=O)C(C)O

>  <score_type>  (81) 
oracle

>  <origin>  (81) 
adg

>  <m_score__min__energy>  (81) 
-8.4399999999999995

>  <m_primary>  (81) 
energy

$$$$
81:0
     RDKit          3D

 51 52  0  0  0  0  0  0  0  0999 V2000
   -4.5190   18.9670  -33.8150 C   0  0  0  0  0  0  0  0  0  0  0  0
   -5.7200   18.2790  -34.4600 C   0  0  0  0  0  0  0  0  0  0  0  0
   -6.3540   17.4000  -33.5350 O   0  0  0  0  0  0  0  0  0  0  0  0
   -7.0860   17.8460  -32.4260 C   0  0  0  0  0  0  0  0  0  0  0  0
   -6.7310   17.5370  -31.2550 O   0  0  0  0  0  0  0  0  0  0  0  0
   -8.3280   18.6550  -32.6440 C   0  0  0  0  0  0  0  0  0  0  0  0
   -8.1520   20.0560  -32.1250 C   0  0  0  0  0  0  0  0  0  0  0  0
   -9.2850   20.8710  -31.8790 C   0  0  0  0  0  0  0  0  0  0  0  0
   -9.1320   22.1960  -31.4340 C   0  0  0  0  0  0  0  0  0  0  0  0
   -7.8370   22.6800  -31.2630 C   0  0  0  0  0  0  0  0  0  0  0  0
   -7.4010   23.9220  -30.8610 C   0  0  0  0  0  0  0  0  0  0  0  0
   -6.0090   23.8540  -30.9020 C   0  0  0  0  0  0  0  0  0  0  0  0
   -5.1290   25.0150  -30.6780 C   0  0  0  0  0  0  0  0  0  0  0  0
   -3.7100   24.8500  -30.6180 N   0  0  0  0  0  0  0  0  0  0  0  0
   -5.6280   26.1580  -30.4920 O   0  0  0  0  0  0  0  0  0  0  0  0
   -5.6010   22.6150  -31.2970 N   0  0  0  0  0  0  0  0  0  0  0  0
   -4.2570   22.1020  -31.3800 C   0  0  0  0  0  0  0  0  0  0  0  0
   -3.5260   22.4370  -32.3530 O   0  0  0  0  0  0  0  0  0  0  0  0
   -3.6970   21.1510  -30.3450 C   0  0  0  0  0  0  0  0  0  0  0  0
   -2.8930   21.8520  -29.2080 C   0  0  2  0  0  0  0  0  0  0  0  0
   -3.8990   22.5930  -28.2960 C   0  0  0  0  0  0  0  0  0  0  0  0
   -1.8630   22.7780  -29.7750 N   0  0  0  0  0  0  0  0  0  0  0  0
   -1.2440   23.6370  -28.7420 C   0  0  0  0  0  0  0  0  0  0  0  0
   -0.7900   22.0210  -30.4550 C   0  0  0  0  0  0  0  0  0  0  0  0
   -6.7310   21.9120  -31.5220 C   0  0  0  0  0  0  0  0  0  0  0  0
   -6.8550   20.5860  -31.9480 C   0  0  0  0  0  0  0  0  0  0  0  0
   -4.6107   18.9145  -32.7201 H   0  0  0  0  0  0  0  0  0  0  0  0
   -3.5941   18.4617  -34.1301 H   0  0  0  0  0  0  0  0  0  0  0  0
   -4.4870   20.0204  -34.1301 H   0  0  0  0  0  0  0  0  0  0  0  0
   -6.4418   19.0427  -34.7852 H   0  0  0  0  0  0  0  0  0  0  0  0
   -5.3703   17.6924  -35.3223 H   0  0  0  0  0  0  0  0  0  0  0  0
   -8.5480   18.6946  -33.7211 H   0  0  0  0  0  0  0  0  0  0  0  0
   -9.1578   18.1797  -32.1004 H   0  0  0  0  0  0  0  0  0  0  0  0
  -10.2941   20.4630  -32.0378 H   0  0  0  0  0  0  0  0  0  0  0  0
  -10.0068   22.8300  -31.2275 H   0  0  0  0  0  0  0  0  0  0  0  0
   -8.0188   24.7842  -30.5696 H   0  0  0  0  0  0  0  0  0  0  0  0
   -3.2690   23.9260  -30.8140 H   0  0  0  0  0  0  0  0  0  0  0  0
   -3.0950   25.6720  -30.4280 H   0  0  0  0  0  0  0  0  0  0  0  0
   -4.5351   20.6036  -29.8890 H   0  0  0  0  0  0  0  0  0  0  0  0
   -2.9933   20.4882  -30.8699 H   0  0  0  0  0  0  0  0  0  0  0  0
   -2.3442   21.1076  -28.6124 H   0  0  0  0  0  0  0  0  0  0  0  0
   -3.6452   22.4060  -27.2422 H   0  0  0  0  0  0  0  0  0  0  0  0
   -3.8510   23.6731  -28.4987 H   0  0  0  0  0  0  0  0  0  0  0  0
   -4.9163   22.2268  -28.4987 H   0  0  0  0  0  0  0  0  0  0  0  0
   -1.5140   23.2623  -27.7436 H   0  0  0  0  0  0  0  0  0  0  0  0
   -0.1502   23.6186  -28.8571 H   0  0  0  0  0  0  0  0  0  0  0  0
   -1.6075   24.6688  -28.8571 H   0  0  0  0  0  0  0  0  0  0  0  0
   -0.1343   21.5584  -29.7027 H   0  0  0  0  0  0  0  0  0  0  0  0
   -1.2365   21.2369  -31.0841 H   0  0  0  0  0  0  0  0  0  0  0  0
   -0.2010   22.7046  -31.0841 H   0  0  0  0  0  0  0  0  0  0  0  0
   -5.9639   19.9705  -32.1406 H   0  0  0  0  0  0  0  0  0  0  0  0
  1  2  1  0
  2  3  1  0
  3  4  1  0
  4  5  2  0
  4  6  1  0
  6  7  1  0
  7  8  2  0
  8  9  1  0
  9 10  2  0
 10 11  1  0
 11 12  2  0
 12 13  1  0
 13 14  1  0
 13 15  2  0
 12 16  1  0
 16 17  1  0
 17 18  2  0
 17 19  1  0
 19 20  1  0
 20 21  1  0
 20 22  1  0
 22 23  1  0
 22 24  1  0
 16 25  1  0
 25 26  2  0
 26  7  1  0
 25 10  1  0
  1 27  1  0
  1 28  1  0
  1 29  1  0
  2 30  1  0
  2 31  1  0
  6 32  1  0
  6 33  1  0
  8 34  1  0
  9 35  1  0
 11 36  1  0
 14 37  1  0
 14 38  1  0
 19 39  1  0
 19 40  1  0
 20 41  1  1
 21 42  1  0
 21 43  1  0
 21 44  1  0
 23 45  1  0
 23 46  1  0
 23 47  1  0
 24 48  1  0
 24 49  1  0
 24 50  1  0
 26 51  1  0
M  END
>  <UniqueID>  (82) 
82

>  <SMILES>  (82) 
CCOC(=O)Cc1ccc2cc(C(N)=O)n(C(=O)C[C@H](C)N(C)C)c2c1

>  <Energy>  (82) 
88.51641874466272

>  <Genealogy>  (82) 
CCOC(=O)Cc1ccc2cc(C(N)=O)n(C(=O)C[C@H](C)N(C)C)c2c1 (chirality)
CCOC(=O)Cc1ccc2cc(C(N)=O)n(C(=O)C[C@H](C)N(C)C)c2c1 (3D coordinates assigned)
CCOC(=O)Cc1ccc2cc(C(N)=O)n(C(=O)C[C@H](C)N(C)C)c2c1 (optimized conformer: 88.51641874466272 kcal/mol)

>  <smiles>  (82) 
CCOC(=O)Cc1ccc2cc(C(N)=O)n(C(=O)CC(C)N(C)C)c2c1

>  <score_type>  (82) 
oracle

>  <origin>  (82) 
adg

>  <m_score__min__energy>  (82) 
-8.7599999999999998

>  <m_primary>  (82) 
energy

$$$$
82:0
     RDKit          3D

 46 47  0  0  0  0  0  0  0  0999 V2000
   -1.5290   23.6050  -27.7470 C   0  0  0  0  0  0  0  0  0  0  0  0
   -2.1490   24.8890  -28.3120 C   0  0  0  0  0  0  0  0  0  0  0  0
   -1.1630   26.0530  -28.2240 C   0  0  0  0  0  0  0  0  0  0  0  0
   -2.5270   24.6890  -29.7090 N   0  0  0  0  0  0  0  0  0  0  0  0
   -3.8840   24.6970  -30.1790 C   0  0  0  0  0  0  0  0  0  0  0  0
   -4.3090   25.6850  -30.8410 O   0  0  0  0  0  0  0  0  0  0  0  0
   -4.7720   23.4870  -29.9380 C   0  0  0  0  0  0  0  0  0  0  0  0
   -4.5630   23.0470  -28.4690 C   0  0  0  0  0  0  0  0  0  0  0  0
   -6.2560   23.8990  -30.0990 C   0  0  0  0  0  0  0  0  0  0  0  0
   -4.4470   22.3680  -30.9520 C   0  0  0  0  0  0  0  0  0  0  0  0
   -3.1770   22.2610  -31.6010 C   0  0  0  0  0  0  0  0  0  0  0  0
   -2.9310   21.2620  -32.5590 C   0  0  0  0  0  0  0  0  0  0  0  0
   -3.9580   20.3780  -32.8630 C   0  0  0  0  0  0  0  0  0  0  0  0
   -3.9930   19.3370  -33.7630 C   0  0  0  0  0  0  0  0  0  0  0  0
   -5.2810   18.8110  -33.6630 C   0  0  0  0  0  0  0  0  0  0  0  0
   -5.8050   17.7160  -34.5110 C   0  0  0  0  0  0  0  0  0  0  0  0
   -6.7170   16.7510  -33.9820 N   0  0  0  0  0  0  0  0  0  0  0  0
   -5.4300   17.6140  -35.7080 O   0  0  0  0  0  0  0  0  0  0  0  0
   -6.0040   19.5040  -32.7390 N   0  0  0  0  0  0  0  0  0  0  0  0
   -7.3420   19.2420  -32.2890 C   0  0  0  0  0  0  0  0  0  0  0  0
   -7.5660   18.2560  -31.5370 O   0  0  0  0  0  0  0  0  0  0  0  0
   -8.4860   20.0560  -32.8050 C   0  0  0  0  0  0  0  0  0  0  0  0
   -8.9190   21.4370  -31.5240 Br  0  0  0  0  0  0  0  0  0  0  0  0
   -5.1840   20.4620  -32.2640 C   0  0  0  0  0  0  0  0  0  0  0  0
   -5.4620   21.4370  -31.3030 C   0  0  0  0  0  0  0  0  0  0  0  0
   -1.5469   23.6421  -26.6478 H   0  0  0  0  0  0  0  0  0  0  0  0
   -2.1065   22.7355  -28.0940 H   0  0  0  0  0  0  0  0  0  0  0  0
   -0.4889   23.5165  -28.0940 H   0  0  0  0  0  0  0  0  0  0  0  0
   -3.0407   25.1284  -27.7141 H   0  0  0  0  0  0  0  0  0  0  0  0
   -0.9650   26.2867  -27.1675 H   0  0  0  0  0  0  0  0  0  0  0  0
   -0.2218   25.7746  -28.7206 H   0  0  0  0  0  0  0  0  0  0  0  0
   -1.5924   26.9356  -28.7206 H   0  0  0  0  0  0  0  0  0  0  0  0
   -4.9358   23.8319  -27.7946 H   0  0  0  0  0  0  0  0  0  0  0  0
   -5.1136   22.1128  -28.2842 H   0  0  0  0  0  0  0  0  0  0  0  0
   -3.4910   22.8835  -28.2842 H   0  0  0  0  0  0  0  0  0  0  0  0
   -6.7113   24.0254  -29.1057 H   0  0  0  0  0  0  0  0  0  0  0  0
   -6.3152   24.8475  -30.6529 H   0  0  0  0  0  0  0  0  0  0  0  0
   -6.7957   23.1167  -30.6529 H   0  0  0  0  0  0  0  0  0  0  0  0
   -2.3784   22.9732  -31.3460 H   0  0  0  0  0  0  0  0  0  0  0  0
   -1.9520   21.1827  -33.0542 H   0  0  0  0  0  0  0  0  0  0  0  0
   -3.1801   18.9938  -34.4198 H   0  0  0  0  0  0  0  0  0  0  0  0
   -7.0110   15.9400  -34.5690 H   0  0  0  0  0  0  0  0  0  0  0  0
   -7.1290   16.8570  -33.0290 H   0  0  0  0  0  0  0  0  0  0  0  0
   -8.2050   20.5185  -33.7627 H   0  0  0  0  0  0  0  0  0  0  0  0
   -9.3610   19.4067  -32.9557 H   0  0  0  0  0  0  0  0  0  0  0  0
   -6.4517   21.4835  -30.8251 H   0  0  0  0  0  0  0  0  0  0  0  0
  1  2  1  0
  2  3  1  0
  2  4  1  0
  4  5  1  0
  5  6  2  0
  5  7  1  0
  7  8  1  0
  7  9  1  0
  7 10  1  0
 10 11  2  0
 11 12  1  0
 12 13  2  0
 13 14  1  0
 14 15  2  0
 15 16  1  0
 16 17  1  0
 16 18  2  0
 15 19  1  0
 19 20  1  0
 20 21  2  0
 20 22  1  0
 22 23  1  0
 19 24  1  0
 24 25  2  0
 25 10  1  0
 24 13  1  0
  1 26  1  0
  1 27  1  0
  1 28  1  0
  2 29  1  0
  3 30  1  0
  3 31  1  0
  3 32  1  0
  8 33  1  0
  8 34  1  0
  8 35  1  0
  9 36  1  0
  9 37  1  0
  9 38  1  0
 11 39  1  0
 12 40  1  0
 14 41  1  0
 17 42  1  0
 17 43  1  0
 22 44  1  0
 22 45  1  0
 25 46  1  0
M  CHG  1   4  -1
M  END
>  <UniqueID>  (83) 
83

>  <SMILES>  (83) 
CC(C)[N-]C(=O)C(C)(C)c1ccc2cc(C(N)=O)n(C(=O)CBr)c2c1

>  <Energy>  (83) 
81.2445754284392

>  <Genealogy>  (83) 
CC(C)[N-]C(=O)C(C)(C)c1ccc2cc(C(N)=O)n(C(=O)CBr)c2c1 (protonated)
CC(C)[N-]C(=O)C(C)(C)c1ccc2cc(C(N)=O)n(C(=O)CBr)c2c1 (3D coordinates assigned)
CC(C)[N-]C(=O)C(C)(C)c1ccc2cc(C(N)=O)n(C(=O)CBr)c2c1 (optimized conformer: 81.2445754284392 kcal/mol)

>  <smiles>  (83) 
CC(C)NC(=O)C(C)(C)c1ccc2cc(C(N)=O)n(C(=O)CBr)c2c1

>  <score_type>  (83) 
oracle

>  <origin>  (83) 
adg

>  <m_score__min__energy>  (83) 
-10.460000000000001

>  <m_primary>  (83) 
energy

$$$$
83:0
     RDKit          3D

 38 39  0  0  0  0  0  0  0  0999 V2000
   -7.5370   20.6220  -31.4140 C   0  0  0  0  0  0  0  0  0  0  0  0
   -7.8460   19.8730  -32.6440 N   0  0  0  0  0  0  0  0  0  0  0  0
   -9.3010   19.6820  -32.7500 C   0  0  0  0  0  0  0  0  0  0  0  0
   -7.1500   18.5670  -32.6680 C   0  0  0  0  0  0  0  0  0  0  0  0
   -5.6590   18.7200  -33.0330 C   0  0  0  0  0  0  0  0  0  0  0  0
   -5.3060   20.0870  -33.4630 N   0  0  0  0  0  0  0  0  0  0  0  0
   -4.1600   20.5990  -32.7520 C   0  0  0  0  0  0  0  0  0  0  0  0
   -2.9580   19.8460  -32.6980 C   0  0  0  0  0  0  0  0  0  0  0  0
   -1.8560   20.3050  -31.9580 C   0  0  0  0  0  0  0  0  0  0  0  0
   -1.9790   21.5190  -31.2900 C   0  0  0  0  0  0  0  0  0  0  0  0
   -1.0870   22.1710  -30.4700 C   0  0  0  0  0  0  0  0  0  0  0  0
   -1.7430   23.3280  -30.0540 C   0  0  0  0  0  0  0  0  0  0  0  0
   -1.1100   24.3640  -29.2120 C   0  0  0  0  0  0  0  0  0  0  0  0
   -1.8030   25.5800  -28.9430 N   0  0  0  0  0  0  0  0  0  0  0  0
    0.0230   24.1730  -28.6970 O   0  0  0  0  0  0  0  0  0  0  0  0
   -2.9950   23.3860  -30.5930 N   0  0  0  0  0  0  0  0  0  0  0  0
   -4.0140   24.3710  -30.3530 C   0  0  0  0  0  0  0  0  0  0  0  0
   -5.0620   24.0630  -29.7270 O   0  0  0  0  0  0  0  0  0  0  0  0
   -3.8670   25.6650  -30.8360 O   0  0  0  0  0  0  0  0  0  0  0  0
   -3.1210   22.2740  -31.3520 C   0  0  0  0  0  0  0  0  0  0  0  0
   -4.2370   21.8380  -32.0730 C   0  0  0  0  0  0  0  0  0  0  0  0
   -7.7904   20.0078  -30.5373 H   0  0  0  0  0  0  0  0  0  0  0  0
   -6.4647   20.8662  -31.3930 H   0  0  0  0  0  0  0  0  0  0  0  0
   -8.1252   21.5513  -31.3930 H   0  0  0  0  0  0  0  0  0  0  0  0
   -9.7377   19.6247  -31.7420 H   0  0  0  0  0  0  0  0  0  0  0  0
   -9.7435   20.5298  -33.2936 H   0  0  0  0  0  0  0  0  0  0  0  0
   -9.5097   18.7488  -33.2936 H   0  0  0  0  0  0  0  0  0  0  0  0
   -7.2275   18.1037  -31.6733 H   0  0  0  0  0  0  0  0  0  0  0  0
   -7.6273   17.9388  -33.4345 H   0  0  0  0  0  0  0  0  0  0  0  0
   -5.0544   18.4634  -32.1506 H   0  0  0  0  0  0  0  0  0  0  0  0
   -5.4577   18.0473  -33.8798 H   0  0  0  0  0  0  0  0  0  0  0  0
   -5.0780   20.0640  -34.4840 H   0  0  0  0  0  0  0  0  0  0  0  0
   -6.1310   20.7210  -33.3480 H   0  0  0  0  0  0  0  0  0  0  0  0
   -2.8888   18.8923  -33.2418 H   0  0  0  0  0  0  0  0  0  0  0  0
   -0.9243   19.7224  -31.9082 H   0  0  0  0  0  0  0  0  0  0  0  0
   -0.0710   21.8474  -30.1999 H   0  0  0  0  0  0  0  0  0  0  0  0
   -2.7930   25.7120  -29.2490 H   0  0  0  0  0  0  0  0  0  0  0  0
   -5.1539   22.4445  -32.1114 H   0  0  0  0  0  0  0  0  0  0  0  0
  1  2  1  0
  2  3  1  0
  2  4  1  0
  4  5  1  0
  5  6  1  0
  6  7  1  0
  7  8  2  0
  8  9  1  0
  9 10  2  0
 10 11  1  0
 11 12  2  0
 12 13  1  0
 13 14  1  0
 13 15  2  0
 12 16  1  0
 16 17  1  0
 17 18  2  0
 17 19  1  0
 16 20  1  0
 20 21  2  0
 21  7  1  0
 20 10  1  0
  1 22  1  0
  1 23  1  0
  1 24  1  0
  3 25  1  0
  3 26  1  0
  3 27  1  0
  4 28  1  0
  4 29  1  0
  5 30  1  0
  5 31  1  0
  6 32  1  0
  6 33  1  0
  8 34  1  0
  9 35  1  0
 11 36  1  0
 14 37  1  0
 21 38  1  0
M  CHG  3   6   1  14  -1  19  -1
M  END
>  <UniqueID>  (84) 
84

>  <SMILES>  (84) 
CN(C)CC[NH2+]c1ccc2cc(C([NH-])=O)n(C(=O)[O-])c2c1

>  <Energy>  (84) 
77.00397693535277

>  <Genealogy>  (84) 
CN(C)CC[NH2+]c1ccc2cc(C([NH-])=O)n(C(=O)[O-])c2c1 (protonated)
CN(C)CC[NH2+]c1ccc2cc(C([NH-])=O)n(C(=O)[O-])c2c1 (3D coordinates assigned)
CN(C)CC[NH2+]c1ccc2cc(C([NH-])=O)n(C(=O)[O-])c2c1 (optimized conformer: 77.00397693535277 kcal/mol)

>  <smiles>  (84) 
CN(C)CCNc1ccc2cc(C(N)=O)n(C(=O)O)c2c1

>  <score_type>  (84) 
oracle

>  <origin>  (84) 
adg

>  <m_score__min__energy>  (84) 
-9.8599999999999994

>  <m_primary>  (84) 
energy

$$$$
84:0
     RDKit          3D

 34 35  0  0  0  0  0  0  0  0999 V2000
   -4.2130   25.6940  -30.8470 N   0  0  0  0  0  0  0  0  0  0  0  0
   -5.5240   25.2740  -30.4730 C   0  0  0  0  0  0  0  0  0  0  0  0
   -6.2330   26.0330  -29.7600 O   0  0  0  0  0  0  0  0  0  0  0  0
   -6.0480   23.9540  -30.8830 C   0  0  0  0  0  0  0  0  0  0  0  0
   -7.3830   23.7210  -31.2070 C   0  0  0  0  0  0  0  0  0  0  0  0
   -7.4640   22.3750  -31.4810 C   0  0  0  0  0  0  0  0  0  0  0  0
   -8.5530   21.6020  -31.8740 C   0  0  0  0  0  0  0  0  0  0  0  0
   -8.3380   20.2350  -32.1180 C   0  0  0  0  0  0  0  0  0  0  0  0
   -7.0460   19.6700  -31.9710 C   0  0  0  0  0  0  0  0  0  0  0  0
   -6.8140   18.2130  -32.2470 C   0  0  0  0  0  0  0  0  0  0  0  0
   -6.0790   17.6550  -31.2160 F   0  0  0  0  0  0  0  0  0  0  0  0
   -8.0270   17.5580  -32.3470 F   0  0  0  0  0  0  0  0  0  0  0  0
   -5.9650   20.4870  -31.5730 C   0  0  0  0  0  0  0  0  0  0  0  0
   -6.2120   21.8400  -31.3220 C   0  0  0  0  0  0  0  0  0  0  0  0
   -5.3320   22.7950  -30.9520 N   0  0  0  0  0  0  0  0  0  0  0  0
   -3.9200   22.6300  -30.7560 C   0  0  0  0  0  0  0  0  0  0  0  0
   -3.1160   23.1440  -31.5800 O   0  0  0  0  0  0  0  0  0  0  0  0
   -3.4040   21.9710  -29.5030 C   0  0  0  0  0  0  0  0  0  0  0  0
   -2.4250   22.8480  -28.7000 C   0  0  0  0  0  0  0  0  0  0  0  0
   -2.9620   24.2550  -28.4200 C   0  0  0  0  0  0  0  0  0  0  0  0
   -2.3180   25.1950  -29.2340 O   0  0  0  0  0  0  0  0  0  0  0  0
   -3.3960   25.0490  -30.7540 H   0  0  0  0  0  0  0  0  0  0  0  0
   -8.1996   24.4574  -31.2373 H   0  0  0  0  0  0  0  0  0  0  0  0
   -9.5518   22.0479  -31.9900 H   0  0  0  0  0  0  0  0  0  0  0  0
   -9.1798   19.5974  -32.4259 H   0  0  0  0  0  0  0  0  0  0  0  0
   -6.2611   18.1098  -33.1924 H   0  0  0  0  0  0  0  0  0  0  0  0
   -4.9534   20.0691  -31.4632 H   0  0  0  0  0  0  0  0  0  0  0  0
   -4.2624   21.7296  -28.8589 H   0  0  0  0  0  0  0  0  0  0  0  0
   -2.8492   21.0744  -29.8166 H   0  0  0  0  0  0  0  0  0  0  0  0
   -2.2219   22.3540  -27.7384 H   0  0  0  0  0  0  0  0  0  0  0  0
   -1.5153   22.9614  -29.3079 H   0  0  0  0  0  0  0  0  0  0  0  0
   -4.0425   24.2779  -28.6251 H   0  0  0  0  0  0  0  0  0  0  0  0
   -2.7715   24.5061  -27.3661 H   0  0  0  0  0  0  0  0  0  0  0  0
   -3.0370   25.6770  -29.7200 H   0  0  0  0  0  0  0  0  0  0  0  0
  1  2  1  0
  2  3  2  0
  2  4  1  0
  4  5  2  0
  5  6  1  0
  6  7  2  0
  7  8  1  0
  8  9  2  0
  9 10  1  0
 10 11  1  0
 10 12  1  0
  9 13  1  0
 13 14  2  0
 14 15  1  0
 15 16  1  0
 16 17  2  0
 16 18  1  0
 18 19  1  0
 19 20  1  0
 20 21  1  0
 15  4  1  0
 14  6  1  0
  1 22  1  0
  5 23  1  0
  7 24  1  0
  8 25  1  0
 10 26  1  0
 13 27  1  0
 18 28  1  0
 18 29  1  0
 19 30  1  0
 19 31  1  0
 20 32  1  0
 20 33  1  0
 21 34  1  0
M  CHG  1   1  -1
M  END
>  <UniqueID>  (85) 
85

>  <SMILES>  (85) 
[NH-]C(=O)c1cc2ccc(C(F)F)cc2n1C(=O)CCCO

>  <Energy>  (85) 
69.98312412748699

>  <Genealogy>  (85) 
[NH-]C(=O)c1cc2ccc(C(F)F)cc2n1C(=O)CCCO (protonated)
[NH-]C(=O)c1cc2ccc(C(F)F)cc2n1C(=O)CCCO (3D coordinates assigned)
[NH-]C(=O)c1cc2ccc(C(F)F)cc2n1C(=O)CCCO (optimized conformer: 69.98312412748699 kcal/mol)

>  <smiles>  (85) 
NC(=O)c1cc2ccc(C(F)F)cc2n1C(=O)CCCO

>  <score_type>  (85) 
oracle

>  <origin>  (85) 
adg

>  <m_score__min__energy>  (85) 
-9.5899999999999999

>  <m_primary>  (85) 
energy

$$$$
85:0
     RDKit          3D

 48 50  0  0  0  0  0  0  0  0999 V2000
   -1.4080   26.7940  -25.8080 C   0  0  0  0  0  0  0  0  0  0  0  0
   -0.9720   25.6650  -26.6450 N   0  0  0  0  0  0  0  0  0  0  0  0
   -1.6620   24.4050  -26.2600 C   0  0  0  0  0  0  0  0  0  0  0  0
   -2.8430   24.0710  -27.1830 C   0  0  0  0  0  0  0  0  0  0  0  0
   -2.3850   23.9040  -28.6550 C   0  0  0  0  0  0  0  0  0  0  0  0
   -2.1550   22.4110  -28.9950 C   0  0  0  0  0  0  0  0  0  0  0  0
   -3.3640   21.7280  -29.6630 C   0  0  0  0  0  0  0  0  0  0  0  0
   -3.8750   22.4770  -30.8680 C   0  0  0  0  0  0  0  0  0  0  0  0
   -3.0550   22.8590  -31.7450 O   0  0  0  0  0  0  0  0  0  0  0  0
   -5.2690   22.7990  -31.0150 N   0  0  0  0  0  0  0  0  0  0  0  0
   -5.8640   24.0220  -30.9390 C   0  0  0  0  0  0  0  0  0  0  0  0
   -5.2280   25.2590  -30.4530 C   0  0  0  0  0  0  0  0  0  0  0  0
   -3.8930   25.5730  -30.8430 N   0  0  0  0  0  0  0  0  0  0  0  0
   -5.8710   26.0690  -29.7350 O   0  0  0  0  0  0  0  0  0  0  0  0
   -7.2120   23.9320  -31.2790 C   0  0  0  0  0  0  0  0  0  0  0  0
   -7.4320   22.5990  -31.5440 C   0  0  0  0  0  0  0  0  0  0  0  0
   -8.5930   21.9420  -31.9380 C   0  0  0  0  0  0  0  0  0  0  0  0
   -8.5240   20.5560  -32.1600 C   0  0  0  0  0  0  0  0  0  0  0  0
   -7.3070   19.8510  -31.9710 C   0  0  0  0  0  0  0  0  0  0  0  0
   -7.2390   18.3730  -32.2620 C   0  0  0  0  0  0  0  0  0  0  0  0
   -6.3170   17.7580  -31.4340 F   0  0  0  0  0  0  0  0  0  0  0  0
   -8.4830   17.8100  -32.0490 F   0  0  0  0  0  0  0  0  0  0  0  0
   -6.8600   18.1460  -33.5740 F   0  0  0  0  0  0  0  0  0  0  0  0
   -6.1440   20.5590  -31.5890 C   0  0  0  0  0  0  0  0  0  0  0  0
   -6.2470   21.9360  -31.3690 C   0  0  0  0  0  0  0  0  0  0  0  0
   -1.1320   24.7610  -28.9650 C   0  0  0  0  0  0  0  0  0  0  0  0
   -1.0930   26.0130  -28.0830 C   0  0  0  0  0  0  0  0  0  0  0  0
   -1.3041   26.5250  -24.7465 H   0  0  0  0  0  0  0  0  0  0  0  0
   -0.7851   27.6740  -26.0259 H   0  0  0  0  0  0  0  0  0  0  0  0
   -2.4607   27.0269  -26.0259 H   0  0  0  0  0  0  0  0  0  0  0  0
   -0.9368   23.5791  -26.3034 H   0  0  0  0  0  0  0  0  0  0  0  0
   -2.0620   24.5418  -25.2445 H   0  0  0  0  0  0  0  0  0  0  0  0
   -3.3069   23.1328  -26.8445 H   0  0  0  0  0  0  0  0  0  0  0  0
   -3.5620   24.9023  -27.1377 H   0  0  0  0  0  0  0  0  0  0  0  0
   -3.1936   24.2747  -29.3021 H   0  0  0  0  0  0  0  0  0  0  0  0
   -1.2961   22.3400  -29.6786 H   0  0  0  0  0  0  0  0  0  0  0  0
   -1.9812   21.8902  -28.0418 H   0  0  0  0  0  0  0  0  0  0  0  0
   -3.0647   20.7179  -29.9796 H   0  0  0  0  0  0  0  0  0  0  0  0
   -4.1773   21.7034  -28.9228 H   0  0  0  0  0  0  0  0  0  0  0  0
   -3.1500   24.8390  -30.8510 H   0  0  0  0  0  0  0  0  0  0  0  0
   -7.9445   24.7513  -31.3258 H   0  0  0  0  0  0  0  0  0  0  0  0
   -9.5369   22.4908  -32.0718 H   0  0  0  0  0  0  0  0  0  0  0  0
   -9.4233   20.0116  -32.4839 H   0  0  0  0  0  0  0  0  0  0  0  0
   -5.1821   20.0393  -31.4679 H   0  0  0  0  0  0  0  0  0  0  0  0
   -0.2297   24.1604  -28.7776 H   0  0  0  0  0  0  0  0  0  0  0  0
   -1.1732   25.0749  -30.0185 H   0  0  0  0  0  0  0  0  0  0  0  0
   -0.2295   26.6287  -28.3751 H   0  0  0  0  0  0  0  0  0  0  0  0
   -2.0345   26.5637  -28.2256 H   0  0  0  0  0  0  0  0  0  0  0  0
  1  2  1  0
  2  3  1  0
  3  4  1  0
  4  5  1  0
  5  6  1  0
  6  7  1  0
  7  8  1  0
  8  9  2  0
  8 10  1  0
 10 11  1  0
 11 12  1  0
 12 13  1  0
 12 14  2  0
 11 15  2  0
 15 16  1  0
 16 17  2  0
 17 18  1  0
 18 19  2  0
 19 20  1  0
 20 21  1  0
 20 22  1  0
 20 23  1  0
 19 24  1  0
 24 25  2  0
  5 26  1  0
 26 27  1  0
 27  2  1  0
 25 10  1  0
 25 16  1  0
  1 28  1  0
  1 29  1  0
  1 30  1  0
  3 31  1  0
  3 32  1  0
  4 33  1  0
  4 34  1  0
  5 35  1  0
  6 36  1  0
  6 37  1  0
  7 38  1  0
  7 39  1  0
 13 40  1  0
 15 41  1  0
 17 42  1  0
 18 43  1  0
 24 44  1  0
 26 45  1  0
 26 46  1  0
 27 47  1  0
 27 48  1  0
M  CHG  1  13  -1
M  END
>  <UniqueID>  (86) 
86

>  <SMILES>  (86) 
CN1CCC(CCC(=O)n2c(C([NH-])=O)cc3ccc(C(F)(F)F)cc32)CC1

>  <Energy>  (86) 
93.22542001933294

>  <Genealogy>  (86) 
CN1CCC(CCC(=O)n2c(C([NH-])=O)cc3ccc(C(F)(F)F)cc32)CC1 (protonated)
CN1CCC(CCC(=O)n2c(C([NH-])=O)cc3ccc(C(F)(F)F)cc32)CC1 (3D coordinates assigned)
CN1CCC(CCC(=O)n2c(C([NH-])=O)cc3ccc(C(F)(F)F)cc32)CC1 (nonaromatic ring conformer: 93.22542001933294 kcal/mol)

>  <smiles>  (86) 
CN1CCC(CCC(=O)n2c(C(N)=O)cc3ccc(C(F)(F)F)cc32)CC1

>  <score_type>  (86) 
oracle

>  <origin>  (86) 
adg

>  <m_score__min__energy>  (86) 
-11.57

>  <m_primary>  (86) 
energy

$$$$
86:0
     RDKit          3D

 39 40  0  0  0  0  0  0  0  0999 V2000
   -1.8820   21.2510  -30.2760 C   0  0  0  0  0  0  0  0  0  0  0  0
   -1.9650   22.7520  -29.9720 C   0  0  2  0  0  0  0  0  0  0  0  0
   -2.4980   23.0260  -28.5520 C   0  0  0  0  0  0  0  0  0  0  0  0
   -2.6400   24.5180  -28.2240 C   0  0  0  0  0  0  0  0  0  0  0  0
   -2.3240   25.2950  -29.3460 O   0  0  0  0  0  0  0  0  0  0  0  0
   -2.8460   23.3790  -30.9060 O   0  0  0  0  0  0  0  0  0  0  0  0
   -3.6860   22.6750  -31.7760 C   0  0  0  0  0  0  0  0  0  0  0  0
   -3.2060   22.0600  -32.7690 O   0  0  0  0  0  0  0  0  0  0  0  0
   -5.1010   22.6430  -31.5300 N   0  0  0  0  0  0  0  0  0  0  0  0
   -5.8690   23.6110  -30.9520 C   0  0  0  0  0  0  0  0  0  0  0  0
   -5.3610   24.8500  -30.3220 C   0  0  0  0  0  0  0  0  0  0  0  0
   -5.7620   25.2150  -29.0000 N   0  0  0  0  0  0  0  0  0  0  0  0
   -4.5420   25.5830  -30.9380 O   0  0  0  0  0  0  0  0  0  0  0  0
   -7.2100   23.2280  -30.9460 C   0  0  0  0  0  0  0  0  0  0  0  0
   -7.2390   21.9890  -31.5420 C   0  0  0  0  0  0  0  0  0  0  0  0
   -8.3140   21.1430  -31.7960 C   0  0  0  0  0  0  0  0  0  0  0  0
   -8.0550   19.9260  -32.4450 C   0  0  0  0  0  0  0  0  0  0  0  0
   -6.7390   19.5840  -32.8510 C   0  0  0  0  0  0  0  0  0  0  0  0
   -6.4680   18.2570  -33.5140 C   0  0  0  0  0  0  0  0  0  0  0  0
   -5.4150   17.6340  -32.8710 F   0  0  0  0  0  0  0  0  0  0  0  0
   -7.5840   17.4410  -33.4480 F   0  0  0  0  0  0  0  0  0  0  0  0
   -6.1410   18.4350  -34.8470 F   0  0  0  0  0  0  0  0  0  0  0  0
   -5.6690   20.4600  -32.5520 C   0  0  0  0  0  0  0  0  0  0  0  0
   -5.9540   21.6590  -31.8870 C   0  0  0  0  0  0  0  0  0  0  0  0
   -1.8508   20.6869  -29.3322 H   0  0  0  0  0  0  0  0  0  0  0  0
   -2.7646   20.9452  -30.8569 H   0  0  0  0  0  0  0  0  0  0  0  0
   -0.9711   21.0444  -30.8569 H   0  0  0  0  0  0  0  0  0  0  0  0
   -0.9458   23.1583  -30.0499 H   0  0  0  0  0  0  0  0  0  0  0  0
   -3.4866   22.5534  -28.4549 H   0  0  0  0  0  0  0  0  0  0  0  0
   -1.7631   22.6103  -27.8469 H   0  0  0  0  0  0  0  0  0  0  0  0
   -3.6764   24.7254  -27.9192 H   0  0  0  0  0  0  0  0  0  0  0  0
   -1.9487   24.7719  -27.4069 H   0  0  0  0  0  0  0  0  0  0  0  0
   -2.7050   24.8180  -30.1280 H   0  0  0  0  0  0  0  0  0  0  0  0
   -6.4800   24.6650  -28.4790 H   0  0  0  0  0  0  0  0  0  0  0  0
   -5.3680   26.0720  -28.5510 H   0  0  0  0  0  0  0  0  0  0  0  0
   -8.0637   23.7966  -30.5487 H   0  0  0  0  0  0  0  0  0  0  0  0
   -9.3358   21.4197  -31.4972 H   0  0  0  0  0  0  0  0  0  0  0  0
   -8.8825   19.2284  -32.6415 H   0  0  0  0  0  0  0  0  0  0  0  0
   -4.6371   20.2052  -32.8353 H   0  0  0  0  0  0  0  0  0  0  0  0
  1  2  1  0
  2  3  1  0
  3  4  1  0
  4  5  1  0
  2  6  1  0
  6  7  1  0
  7  8  2  0
  7  9  1  0
  9 10  1  0
 10 11  1  0
 11 12  1  0
 11 13  2  0
 10 14  2  0
 14 15  1  0
 15 16  2  0
 16 17  1  0
 17 18  2  0
 18 19  1  0
 19 20  1  0
 19 21  1  0
 19 22  1  0
 18 23  1  0
 23 24  2  0
 24  9  1  0
 24 15  1  0
  1 25  1  0
  1 26  1  0
  1 27  1  0
  2 28  1  1
  3 29  1  0
  3 30  1  0
  4 31  1  0
  4 32  1  0
  5 33  1  0
 12 34  1  0
 12 35  1  0
 14 36  1  0
 16 37  1  0
 17 38  1  0
 23 39  1  0
M  END
>  <UniqueID>  (87) 
87

>  <SMILES>  (87) 
C[C@H](CCO)OC(=O)n1c(C(N)=O)cc2ccc(C(F)(F)F)cc21

>  <Energy>  (87) 
72.09304973759848

>  <Genealogy>  (87) 
C[C@H](CCO)OC(=O)n1c(C(N)=O)cc2ccc(C(F)(F)F)cc21 (chirality)
C[C@H](CCO)OC(=O)n1c(C(N)=O)cc2ccc(C(F)(F)F)cc21 (3D coordinates assigned)
C[C@H](CCO)OC(=O)n1c(C(N)=O)cc2ccc(C(F)(F)F)cc21 (optimized conformer: 72.09304973759848 kcal/mol)

>  <smiles>  (87) 
CC(CCO)OC(=O)n1c(C(N)=O)cc2ccc(C(F)(F)F)cc21

>  <score_type>  (87) 
oracle

>  <origin>  (87) 
adg

>  <m_score__min__energy>  (87) 
-8.4000000000000004

>  <m_primary>  (87) 
energy

$$$$
87:0
     RDKit          3D

 35 37  0  0  0  0  0  0  0  0999 V2000
   -1.0330   22.3340  -29.8380 C   0  0  0  0  0  0  0  0  0  0  0  0
   -1.7130   21.9290  -31.1070 C   0  0  0  0  0  0  0  0  0  0  0  0
   -0.9910   21.5480  -32.1960 N   0  0  0  0  0  0  0  0  0  0  0  0
   -1.7870   21.2240  -33.2350 C   0  0  0  0  0  0  0  0  0  0  0  0
   -1.2880   20.7910  -34.4980 N   0  0  0  0  0  0  0  0  0  0  0  0
   -3.4160   21.3870  -32.8630 S   0  0  0  0  0  0  0  0  0  0  0  0
   -3.1050   21.9060  -31.2890 C   0  0  0  0  0  0  0  0  0  0  0  0
   -4.1520   22.2420  -30.3010 C   0  0  0  0  0  0  0  0  0  0  0  0
   -3.9140   22.1580  -29.0670 O   0  0  0  0  0  0  0  0  0  0  0  0
   -5.4550   22.6540  -30.7370 N   0  0  0  0  0  0  0  0  0  0  0  0
   -5.9460   23.9230  -30.8080 C   0  0  0  0  0  0  0  0  0  0  0  0
   -5.2460   25.1420  -30.3530 C   0  0  0  0  0  0  0  0  0  0  0  0
   -3.8510   25.2970  -30.6040 N   0  0  0  0  0  0  0  0  0  0  0  0
   -5.8710   26.0600  -29.7580 O   0  0  0  0  0  0  0  0  0  0  0  0
   -7.2380   23.9160  -31.3310 C   0  0  0  0  0  0  0  0  0  0  0  0
   -7.5220   22.5920  -31.5850 C   0  0  0  0  0  0  0  0  0  0  0  0
   -8.6680   22.0040  -32.1100 C   0  0  0  0  0  0  0  0  0  0  0  0
   -8.6750   20.6090  -32.2750 C   0  0  0  0  0  0  0  0  0  0  0  0
   -7.5360   19.8310  -31.9400 C   0  0  0  0  0  0  0  0  0  0  0  0
   -7.5720   18.3300  -32.0810 C   0  0  0  0  0  0  0  0  0  0  0  0
   -7.1010   17.9450  -33.3240 F   0  0  0  0  0  0  0  0  0  0  0  0
   -6.7770   17.7630  -31.1030 F   0  0  0  0  0  0  0  0  0  0  0  0
   -8.8650   17.8570  -31.9420 F   0  0  0  0  0  0  0  0  0  0  0  0
   -6.3980   20.4650  -31.3910 C   0  0  0  0  0  0  0  0  0  0  0  0
   -6.4270   21.8530  -31.2220 C   0  0  0  0  0  0  0  0  0  0  0  0
   -1.6223   21.9830  -28.9781 H   0  0  0  0  0  0  0  0  0  0  0  0
   -0.0287   21.8868  -29.8013 H   0  0  0  0  0  0  0  0  0  0  0  0
   -0.9479   23.4301  -29.8013 H   0  0  0  0  0  0  0  0  0  0  0  0
   -0.5030   20.1050  -34.5460 H   0  0  0  0  0  0  0  0  0  0  0  0
   -1.7050   21.1570  -35.3820 H   0  0  0  0  0  0  0  0  0  0  0  0
   -3.4990   26.0550  -31.2290 H   0  0  0  0  0  0  0  0  0  0  0  0
   -7.8920   24.7834  -31.5042 H   0  0  0  0  0  0  0  0  0  0  0  0
   -9.5415   22.6123  -32.3873 H   0  0  0  0  0  0  0  0  0  0  0  0
   -9.5745   20.1133  -32.6688 H   0  0  0  0  0  0  0  0  0  0  0  0
   -5.5113   19.8809  -31.1037 H   0  0  0  0  0  0  0  0  0  0  0  0
  1  2  1  0
  2  3  1  0
  3  4  2  0
  4  5  1  0
  4  6  1  0
  6  7  1  0
  7  8  1  0
  8  9  2  0
  8 10  1  0
 10 11  1  0
 11 12  1  0
 12 13  1  0
 12 14  2  0
 11 15  2  0
 15 16  1  0
 16 17  2  0
 17 18  1  0
 18 19  2  0
 19 20  1  0
 20 21  1  0
 20 22  1  0
 20 23  1  0
 19 24  1  0
 24 25  2  0
  7  2  2  0
 25 10  1  0
 25 16  1  0
  1 26  1  0
  1 27  1  0
  1 28  1  0
  5 29  1  0
  5 30  1  0
 13 31  1  0
 15 32  1  0
 17 33  1  0
 18 34  1  0
 24 35  1  0
M  CHG  1  13  -1
M  END
>  <UniqueID>  (88) 
88

>  <SMILES>  (88) 
Cc1nc(N)sc1C(=O)n1c(C([NH-])=O)cc2ccc(C(F)(F)F)cc21

>  <Energy>  (88) 
105.44457756884228

>  <Genealogy>  (88) 
Cc1nc(N)sc1C(=O)n1c(C([NH-])=O)cc2ccc(C(F)(F)F)cc21 (protonated)
Cc1nc(N)sc1C(=O)n1c(C([NH-])=O)cc2ccc(C(F)(F)F)cc21 (3D coordinates assigned)
Cc1nc(N)sc1C(=O)n1c(C([NH-])=O)cc2ccc(C(F)(F)F)cc21 (optimized conformer: 105.44457756884228 kcal/mol)

>  <smiles>  (88) 
Cc1nc(N)sc1C(=O)n1c(C(N)=O)cc2ccc(C(F)(F)F)cc21

>  <score_type>  (88) 
oracle

>  <origin>  (88) 
adg

>  <m_score__min__energy>  (88) 
-10.52

>  <m_primary>  (88) 
energy

$$$$
88:0
     RDKit          3D

 34 35  0  0  0  0  0  0  0  0999 V2000
   -4.5180   17.5850  -35.3570 C   0  0  0  0  0  0  0  0  0  0  0  0
   -5.7150   17.7660  -33.8440 I   0  0  0  0  0  0  0  0  0  0  0  0
   -7.0560   17.9540  -32.1650 C   0  0  0  0  0  0  0  0  0  0  0  0
   -6.5600   17.2180  -31.1630 F   0  0  0  0  0  0  0  0  0  0  0  0
   -8.3230   17.4240  -32.4640 F   0  0  0  0  0  0  0  0  0  0  0  0
   -7.2260   19.4100  -31.7020 C   0  0  0  0  0  0  0  0  0  0  0  0
   -8.5090   20.0300  -31.6560 C   0  0  0  0  0  0  0  0  0  0  0  0
   -8.6460   21.4050  -31.4390 C   0  0  0  0  0  0  0  0  0  0  0  0
   -7.4900   22.1270  -31.2160 C   0  0  0  0  0  0  0  0  0  0  0  0
   -7.3920   23.4620  -31.0010 C   0  0  0  0  0  0  0  0  0  0  0  0
   -6.0140   23.6990  -30.8460 C   0  0  0  0  0  0  0  0  0  0  0  0
   -5.5210   25.0730  -30.5300 C   0  0  0  0  0  0  0  0  0  0  0  0
   -4.1240   25.4470  -30.7660 N   0  0  0  0  0  0  0  0  0  0  0  0
   -6.2810   25.9900  -30.0880 O   0  0  0  0  0  0  0  0  0  0  0  0
   -5.3110   22.5220  -30.9720 N   0  0  0  0  0  0  0  0  0  0  0  0
   -3.8670   22.3110  -30.8770 C   0  0  0  0  0  0  0  0  0  0  0  0
   -3.2370   21.6800  -31.7580 O   0  0  0  0  0  0  0  0  0  0  0  0
   -3.2000   22.8140  -29.7860 O   0  0  0  0  0  0  0  0  0  0  0  0
   -1.7690   22.8870  -29.7190 C   0  0  0  0  0  0  0  0  0  0  0  0
   -1.3310   24.1830  -29.1250 C   0  0  0  0  0  0  0  0  0  0  0  0
   -1.9530   25.2220  -29.3410 O   0  0  0  0  0  0  0  0  0  0  0  0
   -6.2450   21.5670  -31.2120 C   0  0  0  0  0  0  0  0  0  0  0  0
   -6.0930   20.1820  -31.4450 C   0  0  0  0  0  0  0  0  0  0  0  0
   -3.4428   17.4224  -35.1913 H   0  0  0  0  0  0  0  0  0  0  0  0
   -4.9137   17.6448  -36.3816 H   0  0  0  0  0  0  0  0  0  0  0  0
   -9.4100   19.4142  -31.7940 H   0  0  0  0  0  0  0  0  0  0  0  0
   -9.6329   21.8908  -31.4457 H   0  0  0  0  0  0  0  0  0  0  0  0
   -8.2091   24.1971  -30.9574 H   0  0  0  0  0  0  0  0  0  0  0  0
   -3.3750   24.7030  -30.7950 H   0  0  0  0  0  0  0  0  0  0  0  0
   -3.8610   26.4470  -30.8470 H   0  0  0  0  0  0  0  0  0  0  0  0
   -1.3947   22.0606  -29.0969 H   0  0  0  0  0  0  0  0  0  0  0  0
   -1.3645   22.8127  -30.7392 H   0  0  0  0  0  0  0  0  0  0  0  0
   -0.4377   24.2102  -28.4837 H   0  0  0  0  0  0  0  0  0  0  0  0
   -5.0954   19.7190  -31.4241 H   0  0  0  0  0  0  0  0  0  0  0  0
  1  2  2  3
  2  3  1  0
  3  4  1  0
  3  5  1  0
  3  6  1  0
  6  7  2  0
  7  8  1  0
  8  9  2  0
  9 10  1  0
 10 11  2  0
 11 12  1  0
 12 13  1  0
 12 14  2  0
 11 15  1  0
 15 16  1  0
 16 17  2  0
 16 18  1  0
 18 19  1  0
 19 20  1  0
 20 21  2  0
 15 22  1  0
 22 23  2  0
 23  6  1  0
 22  9  1  0
  1 24  1  0
  1 25  1  0
  7 26  1  0
  8 27  1  0
 10 28  1  0
 13 29  1  0
 13 30  1  0
 19 31  1  0
 19 32  1  0
 20 33  1  0
 23 34  1  0
M  END
>  <UniqueID>  (89) 
89

>  <SMILES>  (89) 
C=IC(F)(F)c1ccc2cc(C(N)=O)n(C(=O)OCC=O)c2c1

>  <Energy>  (89) 
100.40267768938288

>  <Genealogy>  (89) 
C=IC(F)(F)c1ccc2cc(C(N)=O)n(C(=O)OCC=O)c2c1 (3D coordinates assigned)
C=IC(F)(F)c1ccc2cc(C(N)=O)n(C(=O)OCC=O)c2c1 (optimized conformer: 100.40267768938288 kcal/mol)

>  <smiles>  (89) 
C=IC(F)(F)c1ccc2cc(C(N)=O)n(C(=O)OCC=O)c2c1

>  <score_type>  (89) 
oracle

>  <origin>  (89) 
adg

>  <m_score__min__energy>  (89) 
-8.1699999999999999

>  <m_primary>  (89) 
energy

$$$$
89:0
     RDKit          3D

 43 44  0  0  0  0  0  0  0  0999 V2000
   -1.8500   20.9980  -29.1740 C   0  0  0  0  0  0  0  0  0  0  0  0
   -2.4780   22.1010  -29.9110 N   0  0  0  0  0  0  0  0  0  0  0  0
   -3.2480   21.7970  -31.1310 C   0  0  0  0  0  0  0  0  0  0  0  0
   -2.3910   21.9280  -32.4050 C   0  0  0  0  0  0  0  0  0  0  0  0
   -2.5350   20.7440  -33.3760 C   0  0  0  0  0  0  0  0  0  0  0  0
   -1.2510   20.3950  -34.0840 C   0  0  0  0  0  0  0  0  0  0  0  0
   -0.8620   19.0390  -34.2330 C   0  0  0  0  0  0  0  0  0  0  0  0
    0.3380   18.7060  -34.8830 C   0  0  0  0  0  0  0  0  0  0  0  0
    1.1210   19.7430  -35.3800 C   0  0  0  0  0  0  0  0  0  0  0  0
    2.3150   19.7000  -36.0630 C   0  0  0  0  0  0  0  0  0  0  0  0
    2.6370   21.0300  -36.3260 C   0  0  0  0  0  0  0  0  0  0  0  0
    3.8990   21.4430  -36.9730 C   0  0  0  0  0  0  0  0  0  0  0  0
    4.1960   21.0610  -38.3140 N   0  0  0  0  0  0  0  0  0  0  0  0
    4.7050   22.1860  -36.3510 O   0  0  0  0  0  0  0  0  0  0  0  0
    1.6750   21.8620  -35.8350 N   0  0  0  0  0  0  0  0  0  0  0  0
    1.5880   23.2890  -35.9780 C   0  0  0  0  0  0  0  0  0  0  0  0
    1.7940   24.0410  -34.9900 O   0  0  0  0  0  0  0  0  0  0  0  0
    1.3010   23.8550  -37.2140 O   0  0  0  0  0  0  0  0  0  0  0  0
    0.7550   21.0580  -35.2550 C   0  0  0  0  0  0  0  0  0  0  0  0
   -0.4440   21.4180  -34.6320 C   0  0  0  0  0  0  0  0  0  0  0  0
   -2.3750   23.4330  -29.3550 C   0  0  0  0  0  0  0  0  0  0  0  0
   -2.9270   24.3970  -29.9540 O   0  0  0  0  0  0  0  0  0  0  0  0
   -1.5900   23.7340  -28.1070 C   0  0  0  0  0  0  0  0  0  0  0  0
   -0.7050   24.9220  -28.3150 C   0  0  0  0  0  0  0  0  0  0  0  0
   -1.1870   26.0510  -29.0400 N   0  0  0  0  0  0  0  0  0  0  0  0
    0.4650   24.9290  -27.8490 O   0  0  0  0  0  0  0  0  0  0  0  0
   -1.9508   21.1750  -28.0930 H   0  0  0  0  0  0  0  0  0  0  0  0
   -2.3448   20.0518  -29.4383 H   0  0  0  0  0  0  0  0  0  0  0  0
   -0.7838   20.9405  -29.4383 H   0  0  0  0  0  0  0  0  0  0  0  0
   -3.6277   20.7668  -31.0633 H   0  0  0  0  0  0  0  0  0  0  0  0
   -4.0721   22.5223  -31.2010 H   0  0  0  0  0  0  0  0  0  0  0  0
   -2.6906   22.8463  -32.9313 H   0  0  0  0  0  0  0  0  0  0  0  0
   -1.3397   21.9509  -32.0823 H   0  0  0  0  0  0  0  0  0  0  0  0
   -2.8703   19.8644  -32.8069 H   0  0  0  0  0  0  0  0  0  0  0  0
   -3.2620   21.0406  -34.1464 H   0  0  0  0  0  0  0  0  0  0  0  0
   -1.5061   18.2407  -33.8358 H   0  0  0  0  0  0  0  0  0  0  0  0
    0.6492   17.6570  -34.9956 H   0  0  0  0  0  0  0  0  0  0  0  0
    2.8922   18.8061  -36.3419 H   0  0  0  0  0  0  0  0  0  0  0  0
    3.5360   20.4650  -38.8610 H   0  0  0  0  0  0  0  0  0  0  0  0
   -0.7519   22.4722  -34.5698 H   0  0  0  0  0  0  0  0  0  0  0  0
   -2.2877   23.9430  -27.2827 H   0  0  0  0  0  0  0  0  0  0  0  0
   -0.9633   22.8633  -27.8638 H   0  0  0  0  0  0  0  0  0  0  0  0
   -1.2370   26.0370  -30.0830 H   0  0  0  0  0  0  0  0  0  0  0  0
  1  2  1  0
  2  3  1  0
  3  4  1  0
  4  5  1  0
  5  6  1  0
  6  7  2  0
  7  8  1  0
  8  9  2  0
  9 10  1  0
 10 11  2  0
 11 12  1  0
 12 13  1  0
 12 14  2  0
 11 15  1  0
 15 16  1  0
 16 17  2  0
 16 18  1  0
 15 19  1  0
 19 20  2  0
  2 21  1  0
 21 22  2  0
 21 23  1  0
 23 24  1  0
 24 25  1  0
 24 26  2  0
 20  6  1  0
 19  9  1  0
  1 27  1  0
  1 28  1  0
  1 29  1  0
  3 30  1  0
  3 31  1  0
  4 32  1  0
  4 33  1  0
  5 34  1  0
  5 35  1  0
  7 36  1  0
  8 37  1  0
 10 38  1  0
 13 39  1  0
 20 40  1  0
 23 41  1  0
 23 42  1  0
 25 43  1  0
M  CHG  3  13  -1  18  -1  25  -1
M  END
>  <UniqueID>  (90) 
90

>  <SMILES>  (90) 
CN(CCCc1ccc2cc(C([NH-])=O)n(C(=O)[O-])c2c1)C(=O)CC([NH-])=O

>  <Energy>  (90) 
74.73685692288116

>  <Genealogy>  (90) 
CN(CCCc1ccc2cc(C([NH-])=O)n(C(=O)[O-])c2c1)C(=O)CC([NH-])=O (protonated)
CN(CCCc1ccc2cc(C([NH-])=O)n(C(=O)[O-])c2c1)C(=O)CC([NH-])=O (3D coordinates assigned)
CN(CCCc1ccc2cc(C([NH-])=O)n(C(=O)[O-])c2c1)C(=O)CC([NH-])=O (optimized conformer: 74.73685692288116 kcal/mol)

>  <smiles>  (90) 
CN(CCCc1ccc2cc(C(N)=O)n(C(=O)O)c2c1)C(=O)CC(N)=O

>  <score_type>  (90) 
oracle

>  <origin>  (90) 
adg

>  <m_score__min__energy>  (90) 
-10.85

>  <m_primary>  (90) 
energy

$$$$
90:0
     RDKit          3D

 40 42  0  0  0  0  0  0  0  0999 V2000
   -4.2220   25.6370  -30.8220 N   0  0  0  0  0  0  0  0  0  0  0  0
   -5.5620   25.2200  -30.5750 C   0  0  0  0  0  0  0  0  0  0  0  0
   -6.3380   25.9830  -29.9400 O   0  0  0  0  0  0  0  0  0  0  0  0
   -6.0350   23.8860  -31.0000 C   0  0  0  0  0  0  0  0  0  0  0  0
   -7.3670   23.6050  -31.2990 C   0  0  0  0  0  0  0  0  0  0  0  0
   -7.4060   22.2530  -31.5530 C   0  0  0  0  0  0  0  0  0  0  0  0
   -8.4750   21.4430  -31.9230 C   0  0  0  0  0  0  0  0  0  0  0  0
   -8.2190   20.0810  -32.1550 C   0  0  0  0  0  0  0  0  0  0  0  0
   -6.9130   19.5460  -31.9970 C   0  0  0  0  0  0  0  0  0  0  0  0
   -6.6550   18.1460  -32.2780 N   0  0  0  0  0  0  0  0  0  0  0  0
   -6.5490   17.7680  -33.7090 C   0  0  0  0  0  0  0  0  0  0  0  0
   -5.7980   18.7530  -34.6060 C   0  0  0  0  0  0  0  0  0  0  0  0
   -4.7630   17.6770  -34.9120 C   0  0  0  0  0  0  0  0  0  0  0  0
   -5.5250   16.6800  -34.0460 C   0  0  0  0  0  0  0  0  0  0  0  0
   -5.8470   20.4170  -31.6620 C   0  0  0  0  0  0  0  0  0  0  0  0
   -6.1350   21.7630  -31.4140 C   0  0  0  0  0  0  0  0  0  0  0  0
   -5.2800   22.7550  -31.0790 N   0  0  0  0  0  0  0  0  0  0  0  0
   -3.8600   22.6270  -30.9120 C   0  0  0  0  0  0  0  0  0  0  0  0
   -3.0940   22.7840  -31.9010 O   0  0  0  0  0  0  0  0  0  0  0  0
   -3.3350   22.3010  -29.6550 O   0  0  0  0  0  0  0  0  0  0  0  0
   -2.9860   23.2750  -28.6760 C   0  0  0  0  0  0  0  0  0  0  0  0
   -1.8140   24.0810  -29.1380 C   0  0  0  0  0  0  0  0  0  0  0  0
   -1.9430   25.3150  -29.3520 O   0  0  0  0  0  0  0  0  0  0  0  0
   -0.5890   23.4660  -29.3620 O   0  0  0  0  0  0  0  0  0  0  0  0
   -3.5210   25.6770  -30.0500 H   0  0  0  0  0  0  0  0  0  0  0  0
   -8.2082   24.3133  -31.3262 H   0  0  0  0  0  0  0  0  0  0  0  0
   -9.4889   21.8559  -32.0305 H   0  0  0  0  0  0  0  0  0  0  0  0
   -9.0421   19.4196  -32.4635 H   0  0  0  0  0  0  0  0  0  0  0  0
   -7.4110   17.5660  -31.8450 H   0  0  0  0  0  0  0  0  0  0  0  0
   -5.7660   17.8620  -31.8040 H   0  0  0  0  0  0  0  0  0  0  0  0
   -7.6220   17.5822  -33.8646 H   0  0  0  0  0  0  0  0  0  0  0  0
   -6.3704   19.0890  -35.4832 H   0  0  0  0  0  0  0  0  0  0  0  0
   -5.4858   19.7343  -34.2193 H   0  0  0  0  0  0  0  0  0  0  0  0
   -4.7095   17.3972  -35.9745 H   0  0  0  0  0  0  0  0  0  0  0  0
   -3.6958   17.8680  -34.7259 H   0  0  0  0  0  0  0  0  0  0  0  0
   -5.9410   15.8267  -34.6017 H   0  0  0  0  0  0  0  0  0  0  0  0
   -5.0116   16.1276  -33.2452 H   0  0  0  0  0  0  0  0  0  0  0  0
   -4.8147   20.0426  -31.5983 H   0  0  0  0  0  0  0  0  0  0  0  0
   -3.8429   23.9441  -28.5088 H   0  0  0  0  0  0  0  0  0  0  0  0
   -2.7196   22.7614  -27.7405 H   0  0  0  0  0  0  0  0  0  0  0  0
  1  2  1  0
  2  3  2  0
  2  4  1  0
  4  5  2  0
  5  6  1  0
  6  7  2  0
  7  8  1  0
  8  9  2  0
  9 10  1  0
 10 11  1  0
 11 12  1  0
 12 13  1  0
 13 14  1  0
  9 15  1  0
 15 16  2  0
 16 17  1  0
 17 18  1  0
 18 19  2  0
 18 20  1  0
 20 21  1  0
 21 22  1  0
 22 23  2  0
 22 24  1  0
 17  4  1  0
 16  6  1  0
 14 11  1  0
  1 25  1  0
  5 26  1  0
  7 27  1  0
  8 28  1  0
 10 29  1  0
 10 30  1  0
 11 31  1  0
 12 32  1  0
 12 33  1  0
 13 34  1  0
 13 35  1  0
 14 36  1  0
 14 37  1  0
 15 38  1  0
 21 39  1  0
 21 40  1  0
M  CHG  3   1  -1  10   1  24  -1
M  END
>  <UniqueID>  (91) 
91

>  <SMILES>  (91) 
[NH-]C(=O)c1cc2ccc([NH2+]C3CCC3)cc2n1C(=O)OCC(=O)[O-]

>  <Energy>  (91) 
145.5104514310132

>  <Genealogy>  (91) 
[NH-]C(=O)c1cc2ccc([NH2+]C3CCC3)cc2n1C(=O)OCC(=O)[O-] (protonated)
[NH-]C(=O)c1cc2ccc([NH2+]C3CCC3)cc2n1C(=O)OCC(=O)[O-] (3D coordinates assigned)
[NH-]C(=O)c1cc2ccc([NH2+]C3CCC3)cc2n1C(=O)OCC(=O)[O-] (nonaromatic ring conformer: 145.5104514310132 kcal/mol)

>  <smiles>  (91) 
NC(=O)c1cc2ccc(NC3CCC3)cc2n1C(=O)OCC(=O)O

>  <score_type>  (91) 
oracle

>  <origin>  (91) 
adg

>  <m_score__min__energy>  (91) 
-12.15

>  <m_primary>  (91) 
energy

$$$$
91:0
     RDKit          3D

 40 42  0  0  0  0  0  0  0  0999 V2000
   -0.7840   24.2670  -25.3330 C   0  0  0  0  0  0  0  0  0  0  0  0
   -0.5330   22.7240  -26.1790 S   0  0  0  0  0  0  0  0  0  0  0  0
   -0.9400   21.5870  -25.2830 O   0  0  0  0  0  0  0  0  0  0  0  0
    0.9210   22.5680  -26.5250 O   0  0  0  0  0  0  0  0  0  0  0  0
   -1.5010   22.7010  -27.6490 C   0  0  0  0  0  0  0  0  0  0  0  0
   -0.8800   22.7060  -28.9030 C   0  0  0  0  0  0  0  0  0  0  0  0
   -1.6480   22.6680  -30.0700 C   0  0  0  0  0  0  0  0  0  0  0  0
   -3.0520   22.6130  -30.0000 C   0  0  0  0  0  0  0  0  0  0  0  0
   -3.8480   22.5520  -31.2510 C   0  0  0  0  0  0  0  0  0  0  0  0
   -3.2780   22.2760  -32.3420 O   0  0  0  0  0  0  0  0  0  0  0  0
   -5.2680   22.7700  -31.2410 N   0  0  0  0  0  0  0  0  0  0  0  0
   -5.9320   23.9250  -30.9570 C   0  0  0  0  0  0  0  0  0  0  0  0
   -5.3210   25.1740  -30.4550 C   0  0  0  0  0  0  0  0  0  0  0  0
   -3.9130   25.3840  -30.5280 N   0  0  0  0  0  0  0  0  0  0  0  0
   -6.0500   26.0570  -29.9270 O   0  0  0  0  0  0  0  0  0  0  0  0
   -7.3030   23.7570  -31.1480 C   0  0  0  0  0  0  0  0  0  0  0  0
   -7.4570   22.4530  -31.5640 C   0  0  0  0  0  0  0  0  0  0  0  0
   -8.6090   21.7520  -31.9090 C   0  0  0  0  0  0  0  0  0  0  0  0
   -8.4660   20.4180  -32.3270 C   0  0  0  0  0  0  0  0  0  0  0  0
   -7.1850   19.8150  -32.3990 C   0  0  0  0  0  0  0  0  0  0  0  0
   -7.0550   18.3910  -32.8560 C   0  0  0  0  0  0  0  0  0  0  0  0
   -6.1730   18.3200  -33.9180 F   0  0  0  0  0  0  0  0  0  0  0  0
   -6.5820   17.6100  -31.8160 F   0  0  0  0  0  0  0  0  0  0  0  0
   -6.0380   20.5610  -32.0450 C   0  0  0  0  0  0  0  0  0  0  0  0
   -6.2140   21.8820  -31.6170 C   0  0  0  0  0  0  0  0  0  0  0  0
   -3.6720   22.6150  -28.7350 C   0  0  0  0  0  0  0  0  0  0  0  0
   -5.0240   22.6090  -28.6160 F   0  0  0  0  0  0  0  0  0  0  0  0
   -2.8980   22.6530  -27.5700 C   0  0  0  0  0  0  0  0  0  0  0  0
   -0.7565   24.0981  -24.2464 H   0  0  0  0  0  0  0  0  0  0  0  0
    0.0111   24.9731  -25.6145 H   0  0  0  0  0  0  0  0  0  0  0  0
   -1.7619   24.6847  -25.6145 H   0  0  0  0  0  0  0  0  0  0  0  0
    0.2174   22.7400  -28.9705 H   0  0  0  0  0  0  0  0  0  0  0  0
   -1.1507   22.6812  -31.0511 H   0  0  0  0  0  0  0  0  0  0  0  0
   -3.5050   26.0530  -31.2170 H   0  0  0  0  0  0  0  0  0  0  0  0
   -8.0938   24.5068  -30.9982 H   0  0  0  0  0  0  0  0  0  0  0  0
   -9.5997   22.2271  -31.8561 H   0  0  0  0  0  0  0  0  0  0  0  0
   -9.3577   19.8353  -32.6013 H   0  0  0  0  0  0  0  0  0  0  0  0
   -8.0418   18.0232  -33.1738 H   0  0  0  0  0  0  0  0  0  0  0  0
   -5.0340   20.1155  -32.1042 H   0  0  0  0  0  0  0  0  0  0  0  0
   -3.3900   22.6451  -26.5862 H   0  0  0  0  0  0  0  0  0  0  0  0
  1  2  1  0
  2  3  2  0
  2  4  2  0
  2  5  1  0
  5  6  2  0
  6  7  1  0
  7  8  2  0
  8  9  1  0
  9 10  2  0
  9 11  1  0
 11 12  1  0
 12 13  1  0
 13 14  1  0
 13 15  2  0
 12 16  2  0
 16 17  1  0
 17 18  2  0
 18 19  1  0
 19 20  2  0
 20 21  1  0
 21 22  1  0
 21 23  1  0
 20 24  1  0
 24 25  2  0
  8 26  1  0
 26 27  1  0
 26 28  2  0
 28  5  1  0
 25 11  1  0
 25 17  1  0
  1 29  1  0
  1 30  1  0
  1 31  1  0
  6 32  1  0
  7 33  1  0
 14 34  1  0
 16 35  1  0
 18 36  1  0
 19 37  1  0
 21 38  1  0
 24 39  1  0
 28 40  1  0
M  CHG  1  14  -1
M  END
>  <UniqueID>  (92) 
92

>  <SMILES>  (92) 
CS(=O)(=O)c1ccc(C(=O)n2c(C([NH-])=O)cc3ccc(C(F)F)cc32)c(F)c1

>  <Energy>  (92) 
81.44113413985508

>  <Genealogy>  (92) 
CS(=O)(=O)c1ccc(C(=O)n2c(C([NH-])=O)cc3ccc(C(F)F)cc32)c(F)c1 (protonated)
CS(=O)(=O)c1ccc(C(=O)n2c(C([NH-])=O)cc3ccc(C(F)F)cc32)c(F)c1 (3D coordinates assigned)
CS(=O)(=O)c1ccc(C(=O)n2c(C([NH-])=O)cc3ccc(C(F)F)cc32)c(F)c1 (optimized conformer: 81.44113413985508 kcal/mol)

>  <smiles>  (92) 
CS(=O)(=O)c1ccc(C(=O)n2c(C(N)=O)cc3ccc(C(F)F)cc32)c(F)c1

>  <score_type>  (92) 
oracle

>  <origin>  (92) 
adg

>  <m_score__min__energy>  (92) 
-11.41

>  <m_primary>  (92) 
energy

$$$$
92:0
     RDKit          3D

 38 40  0  0  0  0  0  0  0  0999 V2000
   -5.3890   26.4820  -30.4120 N   0  0  0  0  0  0  0  0  0  0  0  0
   -6.2910   25.4560  -29.9950 C   0  0  0  0  0  0  0  0  0  0  0  0
   -7.0250   25.6510  -28.9900 O   0  0  0  0  0  0  0  0  0  0  0  0
   -6.3330   24.1500  -30.6820 C   0  0  0  0  0  0  0  0  0  0  0  0
   -7.5140   23.5330  -31.0810 C   0  0  0  0  0  0  0  0  0  0  0  0
   -7.1290   22.3290  -31.6230 C   0  0  0  0  0  0  0  0  0  0  0  0
   -7.8970   21.3230  -32.1950 C   0  0  0  0  0  0  0  0  0  0  0  0
   -7.2350   20.2020  -32.7190 C   0  0  0  0  0  0  0  0  0  0  0  0
   -5.8150   20.0990  -32.6740 C   0  0  0  0  0  0  0  0  0  0  0  0
   -5.1280   18.9460  -33.2270 N   0  0  0  0  0  0  0  0  0  0  0  0
   -3.7010   18.9500  -33.5310 C   0  0  0  0  0  0  0  0  0  0  0  0
   -3.4000   17.6140  -34.1950 C   0  0  0  0  0  0  0  0  0  0  0  0
   -4.7510   17.0500  -34.6090 C   0  0  0  0  0  0  0  0  0  0  0  0
   -5.7730   17.7130  -33.6820 C   0  0  1  0  0  0  0  0  0  0  0  0
   -6.1060   16.7960  -32.4890 C   0  0  0  0  0  0  0  0  0  0  0  0
   -5.9810   17.4840  -31.2740 O   0  0  0  0  0  0  0  0  0  0  0  0
   -5.0750   21.1570  -32.0860 C   0  0  0  0  0  0  0  0  0  0  0  0
   -5.7640   22.2520  -31.5520 C   0  0  0  0  0  0  0  0  0  0  0  0
   -5.2560   23.3670  -30.9760 N   0  0  0  0  0  0  0  0  0  0  0  0
   -3.8660   23.7040  -30.8310 C   0  0  0  0  0  0  0  0  0  0  0  0
   -2.9790   22.8260  -30.9960 O   0  0  0  0  0  0  0  0  0  0  0  0
   -3.4850   24.9990  -30.5000 O   0  0  0  0  0  0  0  0  0  0  0  0
   -5.3990   27.4130  -29.9380 H   0  0  0  0  0  0  0  0  0  0  0  0
   -4.6600   26.2970  -31.1360 H   0  0  0  0  0  0  0  0  0  0  0  0
   -8.5374   23.9244  -30.9838 H   0  0  0  0  0  0  0  0  0  0  0  0
   -8.9933   21.4027  -32.2361 H   0  0  0  0  0  0  0  0  0  0  0  0
   -7.8223   19.3896  -33.1719 H   0  0  0  0  0  0  0  0  0  0  0  0
   -3.4598   19.7775  -34.2144 H   0  0  0  0  0  0  0  0  0  0  0  0
   -3.0994   19.0875  -32.6204 H   0  0  0  0  0  0  0  0  0  0  0  0
   -2.7580   17.7591  -35.0763 H   0  0  0  0  0  0  0  0  0  0  0  0
   -2.8651   16.9333  -33.5164 H   0  0  0  0  0  0  0  0  0  0  0  0
   -4.9660   17.2988  -35.6587 H   0  0  0  0  0  0  0  0  0  0  0  0
   -4.7775   15.9533  -34.5275 H   0  0  0  0  0  0  0  0  0  0  0  0
   -6.7261   17.9116  -34.1941 H   0  0  0  0  0  0  0  0  0  0  0  0
   -7.1394   16.4334  -32.5920 H   0  0  0  0  0  0  0  0  0  0  0  0
   -5.3991   15.9532  -32.4879 H   0  0  0  0  0  0  0  0  0  0  0  0
   -5.8660   16.7990  -30.5650 H   0  0  0  0  0  0  0  0  0  0  0  0
   -3.9763   21.1173  -32.0503 H   0  0  0  0  0  0  0  0  0  0  0  0
  1  2  1  0
  2  3  2  0
  2  4  1  0
  4  5  2  0
  5  6  1  0
  6  7  2  0
  7  8  1  0
  8  9  2  0
  9 10  1  0
 10 11  1  0
 11 12  1  0
 12 13  1  0
 13 14  1  0
 14 15  1  0
 15 16  1  0
  9 17  1  0
 17 18  2  0
 18 19  1  0
 19 20  1  0
 20 21  2  0
 20 22  1  0
 19  4  1  0
 18  6  1  0
 14 10  1  0
  1 23  1  0
  1 24  1  0
  5 25  1  0
  7 26  1  0
  8 27  1  0
 11 28  1  0
 11 29  1  0
 12 30  1  0
 12 31  1  0
 13 32  1  0
 13 33  1  0
 14 34  1  6
 15 35  1  0
 15 36  1  0
 16 37  1  0
 17 38  1  0
M  CHG  1  22  -1
M  END
>  <UniqueID>  (93) 
93

>  <SMILES>  (93) 
NC(=O)c1cc2ccc(N3CCC[C@H]3CO)cc2n1C(=O)[O-]

>  <Energy>  (93) 
81.63162800411159

>  <Genealogy>  (93) 
NC(=O)c1cc2ccc(N3CCCC3CO)cc2n1C(=O)[O-] (protonated)
NC(=O)c1cc2ccc(N3CCC[C@H]3CO)cc2n1C(=O)[O-] (chirality)
NC(=O)c1cc2ccc(N3CCC[C@H]3CO)cc2n1C(=O)[O-] (3D coordinates assigned)
NC(=O)c1cc2ccc(N3CCC[C@H]3CO)cc2n1C(=O)[O-] (nonaromatic ring conformer: 81.63162800411159 kcal/mol)

>  <smiles>  (93) 
NC(=O)c1cc2ccc(N3CCCC3CO)cc2n1C(=O)O

>  <score_type>  (93) 
oracle

>  <origin>  (93) 
adg

>  <m_score__min__energy>  (93) 
-9.0999999999999996

>  <m_primary>  (93) 
energy

$$$$
93:0
     RDKit          3D

 29 30  0  0  0  0  0  0  0  0999 V2000
   -1.5550   22.6010  -30.3260 C   0  0  0  0  0  0  0  0  0  0  0  0
   -2.9840   22.8720  -30.2360 N   0  0  0  0  0  0  0  0  0  0  0  0
   -3.8890   22.5100  -31.2860 C   0  0  0  0  0  0  0  0  0  0  0  0
   -3.4690   21.8890  -32.2990 O   0  0  0  0  0  0  0  0  0  0  0  0
   -5.2780   22.8600  -31.1910 N   0  0  0  0  0  0  0  0  0  0  0  0
   -5.8150   24.0360  -30.7580 C   0  0  0  0  0  0  0  0  0  0  0  0
   -5.0620   25.2610  -30.4160 C   0  0  0  0  0  0  0  0  0  0  0  0
   -3.6370   25.2720  -30.4160 N   0  0  0  0  0  0  0  0  0  0  0  0
   -5.6860   26.3240  -30.1550 O   0  0  0  0  0  0  0  0  0  0  0  0
   -7.2070   23.9570  -30.7390 C   0  0  0  0  0  0  0  0  0  0  0  0
   -7.5070   22.6870  -31.1770 C   0  0  0  0  0  0  0  0  0  0  0  0
   -8.7390   22.0670  -31.3500 C   0  0  0  0  0  0  0  0  0  0  0  0
   -8.7500   20.7330  -31.7950 C   0  0  0  0  0  0  0  0  0  0  0  0
   -7.5360   20.0370  -32.0300 C   0  0  0  0  0  0  0  0  0  0  0  0
   -7.5610   18.6190  -32.5410 C   0  0  0  0  0  0  0  0  0  0  0  0
   -8.8630   18.1930  -32.7360 F   0  0  0  0  0  0  0  0  0  0  0  0
   -6.9570   17.7630  -31.6350 F   0  0  0  0  0  0  0  0  0  0  0  0
   -6.8810   18.5570  -33.7430 F   0  0  0  0  0  0  0  0  0  0  0  0
   -6.3040   20.7110  -31.8630 C   0  0  0  0  0  0  0  0  0  0  0  0
   -6.3260   22.0460  -31.4410 C   0  0  0  0  0  0  0  0  0  0  0  0
   -1.1325   22.5209  -29.3135 H   0  0  0  0  0  0  0  0  0  0  0  0
   -1.3942   21.6564  -30.8662 H   0  0  0  0  0  0  0  0  0  0  0  0
   -1.0596   23.4212  -30.8662 H   0  0  0  0  0  0  0  0  0  0  0  0
   -3.3580   23.3280  -29.3730 H   0  0  0  0  0  0  0  0  0  0  0  0
   -3.1030   25.6680  -31.2200 H   0  0  0  0  0  0  0  0  0  0  0  0
   -7.9152   24.7429  -30.4378 H   0  0  0  0  0  0  0  0  0  0  0  0
   -9.6771   22.6036  -31.1450 H   0  0  0  0  0  0  0  0  0  0  0  0
   -9.7103   20.2235  -31.9628 H   0  0  0  0  0  0  0  0  0  0  0  0
   -5.3508   20.1986  -32.0600 H   0  0  0  0  0  0  0  0  0  0  0  0
  1  2  1  0
  2  3  1  0
  3  4  2  0
  3  5  1  0
  5  6  1  0
  6  7  1  0
  7  8  1  0
  7  9  2  0
  6 10  2  0
 10 11  1  0
 11 12  2  0
 12 13  1  0
 13 14  2  0
 14 15  1  0
 15 16  1  0
 15 17  1  0
 15 18  1  0
 14 19  1  0
 19 20  2  0
 20  5  1  0
 20 11  1  0
  1 21  1  0
  1 22  1  0
  1 23  1  0
  2 24  1  0
  8 25  1  0
 10 26  1  0
 12 27  1  0
 13 28  1  0
 19 29  1  0
M  CHG  1   8  -1
M  END
>  <UniqueID>  (94) 
94

>  <SMILES>  (94) 
CNC(=O)n1c(C([NH-])=O)cc2ccc(C(F)(F)F)cc21

>  <Energy>  (94) 
66.50471324269436

>  <Genealogy>  (94) 
CNC(=O)n1c(C([NH-])=O)cc2ccc(C(F)(F)F)cc21 (protonated)
CNC(=O)n1c(C([NH-])=O)cc2ccc(C(F)(F)F)cc21 (3D coordinates assigned)
CNC(=O)n1c(C([NH-])=O)cc2ccc(C(F)(F)F)cc21 (optimized conformer: 66.50471324269436 kcal/mol)

>  <smiles>  (94) 
CNC(=O)n1c(C(N)=O)cc2ccc(C(F)(F)F)cc21

>  <score_type>  (94) 
oracle

>  <origin>  (94) 
adg

>  <m_score__min__energy>  (94) 
-9.3800000000000008

>  <m_primary>  (94) 
energy

$$$$
94:0
     RDKit          3D

 42 43  0  0  0  0  0  0  0  0999 V2000
   -5.4650   17.1080  -34.5880 C   0  0  0  0  0  0  0  0  0  0  0  0
   -5.5930   18.0820  -33.4900 N   0  0  0  0  0  0  0  0  0  0  0  0
   -4.2670   18.6260  -33.1590 C   0  0  0  0  0  0  0  0  0  0  0  0
   -6.2120   17.4680  -32.2940 C   0  0  0  0  0  0  0  0  0  0  0  0
   -7.6680   17.9390  -32.0980 C   0  0  0  0  0  0  0  0  0  0  0  0
   -8.0890   18.9470  -33.0890 N   0  0  0  0  0  0  0  0  0  0  0  0
   -7.9920   20.2920  -32.5730 C   0  0  0  0  0  0  0  0  0  0  0  0
   -9.1660   21.0330  -32.2770 C   0  0  0  0  0  0  0  0  0  0  0  0
   -9.0830   22.3290  -31.7450 C   0  0  0  0  0  0  0  0  0  0  0  0
   -7.8170   22.8620  -31.5210 C   0  0  0  0  0  0  0  0  0  0  0  0
   -7.4470   24.0900  -31.0190 C   0  0  0  0  0  0  0  0  0  0  0  0
   -6.0530   24.0800  -31.0110 C   0  0  0  0  0  0  0  0  0  0  0  0
   -5.2260   25.1760  -30.4660 C   0  0  0  0  0  0  0  0  0  0  0  0
   -3.8590   25.2940  -30.8530 N   0  0  0  0  0  0  0  0  0  0  0  0
   -5.7210   26.0280  -29.6830 O   0  0  0  0  0  0  0  0  0  0  0  0
   -5.5830   22.8970  -31.4980 N   0  0  0  0  0  0  0  0  0  0  0  0
   -4.2180   22.4980  -31.6960 C   0  0  0  0  0  0  0  0  0  0  0  0
   -3.7470   22.4400  -32.8630 O   0  0  0  0  0  0  0  0  0  0  0  0
   -3.3220   22.2320  -30.5270 C   0  0  0  0  0  0  0  0  0  0  0  0
   -2.3430   23.2310  -30.4600 O   0  0  0  0  0  0  0  0  0  0  0  0
   -6.6740   22.1620  -31.7990 C   0  0  0  0  0  0  0  0  0  0  0  0
   -6.7240   20.8750  -32.3420 C   0  0  0  0  0  0  0  0  0  0  0  0
   -5.3324   16.0993  -34.1697 H   0  0  0  0  0  0  0  0  0  0  0  0
   -6.3740   17.1317  -35.2070 H   0  0  0  0  0  0  0  0  0  0  0  0
   -4.5930   17.3658  -35.2070 H   0  0  0  0  0  0  0  0  0  0  0  0
   -4.1524   18.6730  -32.0660 H   0  0  0  0  0  0  0  0  0  0  0  0
   -3.4876   17.9750  -33.5817 H   0  0  0  0  0  0  0  0  0  0  0  0
   -4.1694   19.6368  -33.5817 H   0  0  0  0  0  0  0  0  0  0  0  0
   -6.2040   16.3742  -32.4105 H   0  0  0  0  0  0  0  0  0  0  0  0
   -5.6311   17.7753  -31.4119 H   0  0  0  0  0  0  0  0  0  0  0  0
   -8.3325   17.0664  -32.1824 H   0  0  0  0  0  0  0  0  0  0  0  0
   -7.7295   18.4095  -31.1056 H   0  0  0  0  0  0  0  0  0  0  0  0
   -9.0620   18.7390  -33.4130 H   0  0  0  0  0  0  0  0  0  0  0  0
   -7.4650   18.8690  -33.9260 H   0  0  0  0  0  0  0  0  0  0  0  0
  -10.1529   20.5859  -32.4669 H   0  0  0  0  0  0  0  0  0  0  0  0
   -9.9904   22.9057  -31.5123 H   0  0  0  0  0  0  0  0  0  0  0  0
   -8.1102   24.9051  -30.6937 H   0  0  0  0  0  0  0  0  0  0  0  0
   -3.0940   25.2350  -30.1450 H   0  0  0  0  0  0  0  0  0  0  0  0
   -3.9151   22.2355  -29.6006 H   0  0  0  0  0  0  0  0  0  0  0  0
   -2.8404   21.2503  -30.6466 H   0  0  0  0  0  0  0  0  0  0  0  0
   -2.6150   23.9250  -31.1150 H   0  0  0  0  0  0  0  0  0  0  0  0
   -5.8002   20.3290  -32.5837 H   0  0  0  0  0  0  0  0  0  0  0  0
  1  2  1  0
  2  3  1  0
  2  4  1  0
  4  5  1  0
  5  6  1  0
  6  7  1  0
  7  8  2  0
  8  9  1  0
  9 10  2  0
 10 11  1  0
 11 12  2  0
 12 13  1  0
 13 14  1  0
 13 15  2  0
 12 16  1  0
 16 17  1  0
 17 18  2  0
 17 19  1  0
 19 20  1  0
 16 21  1  0
 21 22  2  0
 22  7  1  0
 21 10  1  0
  1 23  1  0
  1 24  1  0
  1 25  1  0
  3 26  1  0
  3 27  1  0
  3 28  1  0
  4 29  1  0
  4 30  1  0
  5 31  1  0
  5 32  1  0
  6 33  1  0
  6 34  1  0
  8 35  1  0
  9 36  1  0
 11 37  1  0
 14 38  1  0
 19 39  1  0
 19 40  1  0
 20 41  1  0
 22 42  1  0
M  CHG  2   6   1  14  -1
M  END
>  <UniqueID>  (95) 
95

>  <SMILES>  (95) 
CN(C)CC[NH2+]c1ccc2cc(C([NH-])=O)n(C(=O)CO)c2c1

>  <Energy>  (95) 
80.11595229209765

>  <Genealogy>  (95) 
CN(C)CC[NH2+]c1ccc2cc(C([NH-])=O)n(C(=O)CO)c2c1 (protonated)
CN(C)CC[NH2+]c1ccc2cc(C([NH-])=O)n(C(=O)CO)c2c1 (3D coordinates assigned)
CN(C)CC[NH2+]c1ccc2cc(C([NH-])=O)n(C(=O)CO)c2c1 (optimized conformer: 80.11595229209765 kcal/mol)

>  <smiles>  (95) 
CN(C)CCNc1ccc2cc(C(N)=O)n(C(=O)CO)c2c1

>  <score_type>  (95) 
oracle

>  <origin>  (95) 
adg

>  <m_score__min__energy>  (95) 
-8.8200000000000003

>  <m_primary>  (95) 
energy

$$$$
95:0
     RDKit          3D

 31 32  0  0  0  0  0  0  0  0999 V2000
   -1.8851   22.4700  -27.6742 H   0  0  0  0  0  0  0  0  0  0  0  0
   -2.2430   22.9260  -28.6090 C   0  0  0  0  0  0  0  0  0  0  0  0
   -1.5730   24.1600  -29.0540 C   0  0  0  0  0  0  0  0  0  0  0  0
   -0.3320   24.1910  -29.2630 O   0  0  0  0  0  0  0  0  0  0  0  0
   -2.3370   25.2850  -29.3320 O   0  0  0  0  0  0  0  0  0  0  0  0
   -3.2520   22.3090  -29.2440 C   0  0  0  0  0  0  0  0  0  0  0  0
   -3.7638   21.4998  -28.7025 H   0  0  0  0  0  0  0  0  0  0  0  0
   -3.7370   22.6190  -30.6050 C   0  0  0  0  0  0  0  0  0  0  0  0
   -2.8870   22.8750  -31.4990 O   0  0  0  0  0  0  0  0  0  0  0  0
   -5.1400   22.7060  -30.9190 N   0  0  0  0  0  0  0  0  0  0  0  0
   -5.9580   23.7940  -30.8260 C   0  0  0  0  0  0  0  0  0  0  0  0
   -5.5240   25.1680  -30.4970 C   0  0  0  0  0  0  0  0  0  0  0  0
   -6.3360   25.9830  -29.9830 O   0  0  0  0  0  0  0  0  0  0  0  0
   -4.1740   25.5800  -30.7220 N   0  0  0  0  0  0  0  0  0  0  0  0
   -3.4880   24.9510  -31.1930 H   0  0  0  0  0  0  0  0  0  0  0  0
   -3.8680   26.5420  -30.4520 H   0  0  0  0  0  0  0  0  0  0  0  0
   -7.2610   23.4580  -31.1880 C   0  0  0  0  0  0  0  0  0  0  0  0
   -8.1404   24.1186  -31.2022 H   0  0  0  0  0  0  0  0  0  0  0  0
   -7.2140   22.1240  -31.5240 C   0  0  0  0  0  0  0  0  0  0  0  0
   -8.2230   21.2770  -31.9680 C   0  0  0  0  0  0  0  0  0  0  0  0
   -9.2504   21.6443  -32.1076 H   0  0  0  0  0  0  0  0  0  0  0  0
   -7.8910   19.9380  -32.2330 C   0  0  0  0  0  0  0  0  0  0  0  0
   -8.6644   19.2491  -32.6036 H   0  0  0  0  0  0  0  0  0  0  0  0
   -6.5690   19.4640  -32.0280 C   0  0  0  0  0  0  0  0  0  0  0  0
   -6.2160   18.0350  -32.3520 C   0  0  0  0  0  0  0  0  0  0  0  0
   -4.9590   17.9610  -32.9280 F   0  0  0  0  0  0  0  0  0  0  0  0
   -6.2240   17.2890  -31.1890 F   0  0  0  0  0  0  0  0  0  0  0  0
   -7.1300   17.4960  -33.2400 F   0  0  0  0  0  0  0  0  0  0  0  0
   -5.5650   20.3650  -31.6010 C   0  0  0  0  0  0  0  0  0  0  0  0
   -4.5274   20.0271  -31.4625 H   0  0  0  0  0  0  0  0  0  0  0  0
   -5.9230   21.6960  -31.3590 C   0  0  0  0  0  0  0  0  0  0  0  0
  1  2  1  0
  2  3  1  0
  3  4  2  0
  3  5  1  0
  2  6  2  0
  6  7  1  0
  6  8  1  0
  8  9  2  0
  8 10  1  0
 10 11  1  0
 11 12  1  0
 12 13  2  0
 12 14  1  0
 14 15  1  0
 14 16  1  0
 11 17  2  0
 17 18  1  0
 17 19  1  0
 19 20  2  0
 20 21  1  0
 20 22  1  0
 22 23  1  0
 22 24  2  0
 24 25  1  0
 25 26  1  0
 25 27  1  0
 25 28  1  0
 24 29  1  0
 29 30  1  0
 29 31  2  0
 31 10  1  0
 31 19  1  0
M  CHG  1   5  -1
M  END
>  <UniqueID>  (96) 
96

>  <SMILES>  (96) 
NC(=O)c1cc2ccc(C(F)(F)F)cc2n1C(=O)/C=C\C(=O)[O-]

>  <Energy>  (96) 
76.8330525888585

>  <Genealogy>  (96) 
NC(=O)c1cc2ccc(C(F)(F)F)cc2n1C(=O)C=CC(=O)[O-] (protonated)
NC(=O)c1cc2ccc(C(F)(F)F)cc2n1C(=O)/C=C\C(=O)[O-] (cis-trans isomerization)
NC(=O)c1cc2ccc(C(F)(F)F)cc2n1C(=O)/C=C\C(=O)[O-] (3D coordinates assigned)
NC(=O)c1cc2ccc(C(F)(F)F)cc2n1C(=O)/C=C\C(=O)[O-] (optimized conformer: 76.8330525888585 kcal/mol)

>  <smiles>  (96) 
NC(=O)c1cc2ccc(C(F)(F)F)cc2n1C(=O)C=CC(=O)O

>  <score_type>  (96) 
oracle

>  <origin>  (96) 
adg

>  <m_score__min__energy>  (96) 
-10.31

>  <m_primary>  (96) 
energy

$$$$
96:0
     RDKit          3D

 40 41  0  0  0  0  0  0  0  0999 V2000
   -3.2790   18.5080  -33.2400 C   0  0  0  0  0  0  0  0  0  0  0  0
   -3.1860   19.9520  -33.7420 C   0  0  0  0  0  0  0  0  0  0  0  0
   -2.4730   20.9160  -32.7580 C   0  0  0  0  0  0  0  0  0  0  0  0
   -2.4170   20.2340  -31.3760 C   0  0  0  0  0  0  0  0  0  0  0  0
   -1.0420   21.2210  -33.2520 C   0  0  0  0  0  0  0  0  0  0  0  0
   -3.2460   22.1250  -32.6820 O   0  0  0  0  0  0  0  0  0  0  0  0
   -3.7300   22.7320  -31.5140 C   0  0  0  0  0  0  0  0  0  0  0  0
   -2.9430   23.1460  -30.6210 O   0  0  0  0  0  0  0  0  0  0  0  0
   -5.1430   22.9050  -31.3490 N   0  0  0  0  0  0  0  0  0  0  0  0
   -5.8150   24.0250  -30.9560 C   0  0  0  0  0  0  0  0  0  0  0  0
   -5.2010   25.2840  -30.4840 C   0  0  0  0  0  0  0  0  0  0  0  0
   -3.8690   25.6350  -30.8490 N   0  0  0  0  0  0  0  0  0  0  0  0
   -5.8480   26.0430  -29.7130 O   0  0  0  0  0  0  0  0  0  0  0  0
   -7.1900   23.8000  -30.9800 C   0  0  0  0  0  0  0  0  0  0  0  0
   -7.3400   22.4970  -31.3960 C   0  0  0  0  0  0  0  0  0  0  0  0
   -8.4950   21.7460  -31.5930 C   0  0  0  0  0  0  0  0  0  0  0  0
   -8.3520   20.4240  -32.0470 C   0  0  0  0  0  0  0  0  0  0  0  0
   -7.0670   19.8870  -32.3230 C   0  0  0  0  0  0  0  0  0  0  0  0
   -6.9210   18.4550  -32.7730 C   0  0  0  0  0  0  0  0  0  0  0  0
   -6.0100   17.7830  -31.9760 F   0  0  0  0  0  0  0  0  0  0  0  0
   -8.1470   17.8240  -32.6850 F   0  0  0  0  0  0  0  0  0  0  0  0
   -6.4760   18.3960  -34.0830 F   0  0  0  0  0  0  0  0  0  0  0  0
   -5.9170   20.6770  -32.0900 C   0  0  0  0  0  0  0  0  0  0  0  0
   -6.0920   21.9810  -31.6150 C   0  0  0  0  0  0  0  0  0  0  0  0
   -3.2794   18.5015  -32.1400 H   0  0  0  0  0  0  0  0  0  0  0  0
   -4.2085   18.0504  -33.6097 H   0  0  0  0  0  0  0  0  0  0  0  0
   -2.4159   17.9350  -33.6097 H   0  0  0  0  0  0  0  0  0  0  0  0
   -2.6305   19.9533  -34.6914 H   0  0  0  0  0  0  0  0  0  0  0  0
   -4.2174   20.3173  -33.8550 H   0  0  0  0  0  0  0  0  0  0  0  0
   -2.4797   20.9981  -30.5872 H   0  0  0  0  0  0  0  0  0  0  0  0
   -3.2608   19.5352  -31.2775 H   0  0  0  0  0  0  0  0  0  0  0  0
   -1.4705   19.6822  -31.2775 H   0  0  0  0  0  0  0  0  0  0  0  0
   -0.3778   21.3626  -32.3867 H   0  0  0  0  0  0  0  0  0  0  0  0
   -0.6772   20.3804  -33.8606 H   0  0  0  0  0  0  0  0  0  0  0  0
   -1.0517   22.1373  -33.8606 H   0  0  0  0  0  0  0  0  0  0  0  0
   -3.0520   25.2820  -30.3040 H   0  0  0  0  0  0  0  0  0  0  0  0
   -7.9867   24.5130  -30.7212 H   0  0  0  0  0  0  0  0  0  0  0  0
   -9.4895   22.1743  -31.3992 H   0  0  0  0  0  0  0  0  0  0  0  0
   -9.2453   19.7983  -32.1901 H   0  0  0  0  0  0  0  0  0  0  0  0
   -4.9101   20.2759  -32.2777 H   0  0  0  0  0  0  0  0  0  0  0  0
  1  2  1  0
  2  3  1  0
  3  4  1  0
  3  5  1  0
  3  6  1  0
  6  7  1  0
  7  8  2  0
  7  9  1  0
  9 10  1  0
 10 11  1  0
 11 12  1  0
 11 13  2  0
 10 14  2  0
 14 15  1  0
 15 16  2  0
 16 17  1  0
 17 18  2  0
 18 19  1  0
 19 20  1  0
 19 21  1  0
 19 22  1  0
 18 23  1  0
 23 24  2  0
 24  9  1  0
 24 15  1  0
  1 25  1  0
  1 26  1  0
  1 27  1  0
  2 28  1  0
  2 29  1  0
  4 30  1  0
  4 31  1  0
  4 32  1  0
  5 33  1  0
  5 34  1  0
  5 35  1  0
 12 36  1  0
 14 37  1  0
 16 38  1  0
 17 39  1  0
 23 40  1  0
M  CHG  1  12  -1
M  END
>  <UniqueID>  (97) 
97

>  <SMILES>  (97) 
CCC(C)(C)OC(=O)n1c(C([NH-])=O)cc2ccc(C(F)(F)F)cc21

>  <Energy>  (97) 
74.03397444752954

>  <Genealogy>  (97) 
CCC(C)(C)OC(=O)n1c(C([NH-])=O)cc2ccc(C(F)(F)F)cc21 (protonated)
CCC(C)(C)OC(=O)n1c(C([NH-])=O)cc2ccc(C(F)(F)F)cc21 (3D coordinates assigned)
CCC(C)(C)OC(=O)n1c(C([NH-])=O)cc2ccc(C(F)(F)F)cc21 (optimized conformer: 74.03397444752954 kcal/mol)

>  <smiles>  (97) 
CCC(C)(C)OC(=O)n1c(C(N)=O)cc2ccc(C(F)(F)F)cc21

>  <score_type>  (97) 
oracle

>  <origin>  (97) 
adg

>  <m_score__min__energy>  (97) 
-10.210000000000001

>  <m_primary>  (97) 
energy

$$$$
97:0
     RDKit          3D

 56 58  0  0  0  0  0  0  0  0999 V2000
    0.2410   19.1090  -32.3480 C   0  0  0  0  0  0  0  0  0  0  0  0
   -0.7780   19.3960  -33.3650 N   0  0  0  0  0  0  0  0  0  0  0  0
   -0.9640   18.4830  -34.4980 C   0  0  0  0  0  0  0  0  0  0  0  0
   -1.6260   20.5610  -33.2560 C   0  0  0  0  0  0  0  0  0  0  0  0
   -2.5730   20.7180  -34.0760 O   0  0  0  0  0  0  0  0  0  0  0  0
   -1.4580   21.5560  -32.1320 C   0  0  0  0  0  0  0  0  0  0  0  0
   -2.7230   22.2230  -31.8190 N   0  0  0  0  0  0  0  0  0  0  0  0
   -3.9280   21.4870  -31.5710 C   0  0  0  0  0  0  0  0  0  0  0  0
   -3.9230   20.2270  -31.6130 O   0  0  0  0  0  0  0  0  0  0  0  0
   -5.1400   22.1830  -31.2340 N   0  0  0  0  0  0  0  0  0  0  0  0
   -5.2680   23.3810  -30.5960 C   0  0  0  0  0  0  0  0  0  0  0  0
   -4.1610   24.2930  -30.2410 C   0  0  0  0  0  0  0  0  0  0  0  0
   -4.2090   25.6590  -30.6480 N   0  0  0  0  0  0  0  0  0  0  0  0
   -3.1580   23.8730  -29.6070 O   0  0  0  0  0  0  0  0  0  0  0  0
   -6.6130   23.6830  -30.3920 C   0  0  0  0  0  0  0  0  0  0  0  0
   -7.3100   22.6280  -30.9360 C   0  0  0  0  0  0  0  0  0  0  0  0
   -8.6820   22.3980  -31.0000 C   0  0  0  0  0  0  0  0  0  0  0  0
   -9.1220   21.2060  -31.6000 C   0  0  0  0  0  0  0  0  0  0  0  0
   -8.1910   20.2740  -32.1240 C   0  0  0  0  0  0  0  0  0  0  0  0
   -8.6730   18.9790  -32.7200 C   0  0  0  0  0  0  0  0  0  0  0  0
   -7.9300   17.7900  -32.1010 C   0  0  0  0  0  0  0  0  0  0  0  0
   -6.6940   17.4970  -32.8600 N   0  0  0  0  0  0  0  0  0  0  0  0
   -5.5080   17.5360  -31.9780 C   0  0  0  0  0  0  0  0  0  0  0  0
   -4.2430   17.2080  -32.7810 C   0  0  0  0  0  0  0  0  0  0  0  0
   -4.0700   18.1430  -33.9000 N   0  0  0  0  0  0  0  0  0  0  0  0
   -5.2570   18.1430  -34.7630 C   0  0  0  0  0  0  0  0  0  0  0  0
   -6.5250   18.4650  -33.9620 C   0  0  0  0  0  0  0  0  0  0  0  0
   -6.8060   20.5370  -32.0300 C   0  0  0  0  0  0  0  0  0  0  0  0
   -6.3980   21.7380  -31.4410 C   0  0  0  0  0  0  0  0  0  0  0  0
   -0.1961   19.2321  -31.3461 H   0  0  0  0  0  0  0  0  0  0  0  0
    0.5978   18.0754  -32.4679 H   0  0  0  0  0  0  0  0  0  0  0  0
    1.0848   19.8044  -32.4679 H   0  0  0  0  0  0  0  0  0  0  0  0
   -1.1704   17.4699  -34.1225 H   0  0  0  0  0  0  0  0  0  0  0  0
   -1.8106   18.8265  -35.1106 H   0  0  0  0  0  0  0  0  0  0  0  0
   -0.0505   18.4679  -35.1106 H   0  0  0  0  0  0  0  0  0  0  0  0
   -1.1002   21.0275  -31.2361 H   0  0  0  0  0  0  0  0  0  0  0  0
   -0.7321   22.3192  -32.4493 H   0  0  0  0  0  0  0  0  0  0  0  0
   -2.7140   23.2410  -31.5850 H   0  0  0  0  0  0  0  0  0  0  0  0
   -3.5060   26.0450  -31.3160 H   0  0  0  0  0  0  0  0  0  0  0  0
   -7.0292   24.5748  -29.9007 H   0  0  0  0  0  0  0  0  0  0  0  0
   -9.3988   23.1267  -30.5936 H   0  0  0  0  0  0  0  0  0  0  0  0
  -10.1995   20.9939  -31.6638 H   0  0  0  0  0  0  0  0  0  0  0  0
   -9.7507   18.8716  -32.5275 H   0  0  0  0  0  0  0  0  0  0  0  0
   -8.4791   18.9933  -33.8027 H   0  0  0  0  0  0  0  0  0  0  0  0
   -7.6670   18.0300  -31.0602 H   0  0  0  0  0  0  0  0  0  0  0  0
   -8.5845   16.9065  -32.1336 H   0  0  0  0  0  0  0  0  0  0  0  0
   -5.4117   18.5413  -31.5420 H   0  0  0  0  0  0  0  0  0  0  0  0
   -5.6297   16.7911  -31.1778 H   0  0  0  0  0  0  0  0  0  0  0  0
   -3.3684   17.2762  -32.1173 H   0  0  0  0  0  0  0  0  0  0  0  0
   -4.3413   16.1907  -33.1877 H   0  0  0  0  0  0  0  0  0  0  0  0
   -3.9330   19.1080  -33.5140 H   0  0  0  0  0  0  0  0  0  0  0  0
   -5.1281   18.9001  -35.5505 H   0  0  0  0  0  0  0  0  0  0  0  0
   -5.3679   17.1409  -35.2029 H   0  0  0  0  0  0  0  0  0  0  0  0
   -6.4428   19.4794  -33.5446 H   0  0  0  0  0  0  0  0  0  0  0  0
   -7.3963   18.4022  -34.6305 H   0  0  0  0  0  0  0  0  0  0  0  0
   -6.0677   19.8157  -32.4103 H   0  0  0  0  0  0  0  0  0  0  0  0
  1  2  1  0
  2  3  1  0
  2  4  1  0
  4  5  2  0
  4  6  1  0
  6  7  1  0
  7  8  1  0
  8  9  2  0
  8 10  1  0
 10 11  1  0
 11 12  1  0
 12 13  1  0
 12 14  2  0
 11 15  2  0
 15 16  1  0
 16 17  2  0
 17 18  1  0
 18 19  2  0
 19 20  1  0
 20 21  1  0
 21 22  1  0
 22 23  1  0
 23 24  1  0
 24 25  1  0
 25 26  1  0
 26 27  1  0
 19 28  1  0
 28 29  2  0
 29 10  1  0
 29 16  1  0
 27 22  1  0
  1 30  1  0
  1 31  1  0
  1 32  1  0
  3 33  1  0
  3 34  1  0
  3 35  1  0
  6 36  1  0
  6 37  1  0
  7 38  1  0
 13 39  1  0
 15 40  1  0
 17 41  1  0
 18 42  1  0
 20 43  1  0
 20 44  1  0
 21 45  1  0
 21 46  1  0
 23 47  1  0
 23 48  1  0
 24 49  1  0
 24 50  1  0
 25 51  1  0
 26 52  1  0
 26 53  1  0
 27 54  1  0
 27 55  1  0
 28 56  1  0
M  CHG  1  13  -1
M  END
>  <UniqueID>  (98) 
98

>  <SMILES>  (98) 
CN(C)C(=O)CNC(=O)n1c(C([NH-])=O)cc2ccc(CCN3CCNCC3)cc21

>  <Energy>  (98) 
90.17580940960174

>  <Genealogy>  (98) 
CN(C)C(=O)CNC(=O)n1c(C([NH-])=O)cc2ccc(CCN3CCNCC3)cc21 (protonated)
CN(C)C(=O)CNC(=O)n1c(C([NH-])=O)cc2ccc(CCN3CCNCC3)cc21 (3D coordinates assigned)
CN(C)C(=O)CNC(=O)n1c(C([NH-])=O)cc2ccc(CCN3CCNCC3)cc21 (nonaromatic ring conformer: 90.17580940960174 kcal/mol)

>  <smiles>  (98) 
CN(C)C(=O)CNC(=O)n1c(C(N)=O)cc2ccc(CCN3CCNCC3)cc21

>  <score_type>  (98) 
oracle

>  <origin>  (98) 
adg

>  <m_score__min__energy>  (98) 
-11.220000000000001

>  <m_primary>  (98) 
energy

$$$$
98:0
     RDKit          3D

 47 49  0  0  0  0  0  0  0  0999 V2000
   -3.5210   24.9830  -30.4610 N   0  0  0  0  0  0  0  0  0  0  0  0
   -4.9230   25.1750  -30.6300 C   0  0  0  0  0  0  0  0  0  0  0  0
   -5.4100   26.3280  -30.4800 O   0  0  0  0  0  0  0  0  0  0  0  0
   -5.7880   24.0270  -30.9620 C   0  0  0  0  0  0  0  0  0  0  0  0
   -7.1750   24.0810  -30.9790 C   0  0  0  0  0  0  0  0  0  0  0  0
   -7.5910   22.7950  -31.2430 C   0  0  0  0  0  0  0  0  0  0  0  0
   -8.8720   22.2680  -31.3390 C   0  0  0  0  0  0  0  0  0  0  0  0
   -9.0060   20.8960  -31.6060 C   0  0  0  0  0  0  0  0  0  0  0  0
   -7.8600   20.0730  -31.7640 C   0  0  0  0  0  0  0  0  0  0  0  0
   -8.0420   18.6110  -32.0880 C   0  0  0  0  0  0  0  0  0  0  0  0
   -7.5930   18.3600  -33.3720 F   0  0  0  0  0  0  0  0  0  0  0  0
   -7.3030   17.8530  -31.1990 F   0  0  0  0  0  0  0  0  0  0  0  0
   -9.3730   18.2300  -32.0050 F   0  0  0  0  0  0  0  0  0  0  0  0
   -6.5720   20.6460  -31.6480 C   0  0  0  0  0  0  0  0  0  0  0  0
   -6.4810   22.0170  -31.3770 C   0  0  0  0  0  0  0  0  0  0  0  0
   -5.3620   22.7570  -31.2090 N   0  0  0  0  0  0  0  0  0  0  0  0
   -4.0050   22.3010  -31.3460 C   0  0  0  0  0  0  0  0  0  0  0  0
   -3.3120   22.6720  -32.3340 O   0  0  0  0  0  0  0  0  0  0  0  0
   -3.4040   21.4180  -30.2830 C   0  0  0  0  0  0  0  0  0  0  0  0
   -2.5210   22.1880  -29.3570 N   0  0  2  0  0  0  0  0  0  0  0  0
   -1.0840   21.8570  -29.5590 C   0  0  0  0  0  0  0  0  0  0  0  0
   -0.7160   20.4180  -29.1170 C   0  0  0  0  0  0  0  0  0  0  0  0
   -1.5970   19.9030  -27.9500 C   0  0  1  0  0  0  0  0  0  0  0  0
   -0.8610   18.8430  -27.1090 C   0  0  0  0  0  0  0  0  0  0  0  0
   -1.7770   18.0820  -26.3690 O   0  0  0  0  0  0  0  0  0  0  0  0
   -2.0890   21.0750  -27.0900 C   0  0  0  0  0  0  0  0  0  0  0  0
   -2.9380   22.0680  -27.9220 C   0  0  0  0  0  0  0  0  0  0  0  0
   -2.9540   24.4910  -31.1860 H   0  0  0  0  0  0  0  0  0  0  0  0
   -7.8087   24.9652  -30.8159 H   0  0  0  0  0  0  0  0  0  0  0  0
   -9.7575   22.9077  -31.2095 H   0  0  0  0  0  0  0  0  0  0  0  0
  -10.0095   20.4542  -31.6937 H   0  0  0  0  0  0  0  0  0  0  0  0
   -5.6672   20.0320  -31.7673 H   0  0  0  0  0  0  0  0  0  0  0  0
   -4.2162   20.9584  -29.7007 H   0  0  0  0  0  0  0  0  0  0  0  0
   -2.7920   20.6514  -30.7808 H   0  0  0  0  0  0  0  0  0  0  0  0
   -2.6250   23.2080  -29.5980 H   0  0  0  0  0  0  0  0  0  0  0  0
   -0.8484   21.9644  -30.6281 H   0  0  0  0  0  0  0  0  0  0  0  0
   -0.5004   22.5482  -28.9332 H   0  0  0  0  0  0  0  0  0  0  0  0
   -0.8423   19.7434  -29.9766 H   0  0  0  0  0  0  0  0  0  0  0  0
    0.3250   20.4371  -28.7620 H   0  0  0  0  0  0  0  0  0  0  0  0
   -2.4796   19.4070  -28.3801 H   0  0  0  0  0  0  0  0  0  0  0  0
   -0.2953   18.1783  -27.7785 H   0  0  0  0  0  0  0  0  0  0  0  0
   -0.1769   19.3518  -26.4139 H   0  0  0  0  0  0  0  0  0  0  0  0
   -1.2670   17.3290  -25.9720 H   0  0  0  0  0  0  0  0  0  0  0  0
   -2.7029   20.6817  -26.2663 H   0  0  0  0  0  0  0  0  0  0  0  0
   -1.2112   21.6114  -26.7004 H   0  0  0  0  0  0  0  0  0  0  0  0
   -3.9851   21.7321  -27.8949 H   0  0  0  0  0  0  0  0  0  0  0  0
   -2.7941   23.0601  -27.4692 H   0  0  0  0  0  0  0  0  0  0  0  0
  1  2  1  0
  2  3  2  0
  2  4  1  0
  4  5  2  0
  5  6  1  0
  6  7  2  0
  7  8  1  0
  8  9  2  0
  9 10  1  0
 10 11  1  0
 10 12  1  0
 10 13  1  0
  9 14  1  0
 14 15  2  0
 15 16  1  0
 16 17  1  0
 17 18  2  0
 17 19  1  0
 19 20  1  0
 20 21  1  0
 21 22  1  0
 22 23  1  0
 23 24  1  0
 24 25  1  0
 23 26  1  0
 26 27  1  0
 16  4  1  0
 27 20  1  0
 15  6  1  0
  1 28  1  0
  5 29  1  0
  7 30  1  0
  8 31  1  0
 14 32  1  0
 19 33  1  0
 19 34  1  0
 20 35  1  6
 21 36  1  0
 21 37  1  0
 22 38  1  0
 22 39  1  0
 23 40  1  6
 24 41  1  0
 24 42  1  0
 25 43  1  0
 26 44  1  0
 26 45  1  0
 27 46  1  0
 27 47  1  0
M  CHG  2   1  -1  20   1
M  END
>  <UniqueID>  (99) 
99

>  <SMILES>  (99) 
[NH-]C(=O)c1cc2ccc(C(F)(F)F)cc2n1C(=O)C[NH+]1CCC(CO)CC1

>  <Energy>  (99) 
99.09507680936652

>  <Genealogy>  (99) 
[NH-]C(=O)c1cc2ccc(C(F)(F)F)cc2n1C(=O)C[NH+]1CCC(CO)CC1 (protonated)
[NH-]C(=O)c1cc2ccc(C(F)(F)F)cc2n1C(=O)C[NH+]1CCC(CO)CC1 (3D coordinates assigned)
[NH-]C(=O)c1cc2ccc(C(F)(F)F)cc2n1C(=O)C[NH+]1CCC(CO)CC1 (nonaromatic ring conformer: 99.09507680936652 kcal/mol)

>  <smiles>  (99) 
NC(=O)c1cc2ccc(C(F)(F)F)cc2n1C(=O)CN1CCC(CO)CC1

>  <score_type>  (99) 
oracle

>  <origin>  (99) 
adg

>  <m_score__min__energy>  (99) 
-10.56

>  <m_primary>  (99) 
energy

$$$$
99:0
     RDKit          3D

 34 36  0  0  0  0  0  0  0  0999 V2000
   -9.4370   21.6600  -31.2600 C   0  0  0  0  0  0  0  0  0  0  0  0
   -8.3700   20.7640  -31.7950 C   0  0  0  0  0  0  0  0  0  0  0  0
   -8.2950   19.3950  -31.6060 C   0  0  0  0  0  0  0  0  0  0  0  0
   -7.1230   19.0420  -32.2330 C   0  0  0  0  0  0  0  0  0  0  0  0
   -6.6230   17.7860  -32.3380 F   0  0  0  0  0  0  0  0  0  0  0  0
   -6.5400   20.1450  -32.7390 N   0  0  0  0  0  0  0  0  0  0  0  0
   -5.3150   20.1940  -33.5290 C   0  0  0  0  0  0  0  0  0  0  0  0
   -4.1720   20.6550  -32.6680 C   0  0  0  0  0  0  0  0  0  0  0  0
   -2.9530   19.9330  -32.6570 C   0  0  0  0  0  0  0  0  0  0  0  0
   -1.8610   20.3870  -31.9000 C   0  0  0  0  0  0  0  0  0  0  0  0
   -2.0160   21.5620  -31.1690 C   0  0  0  0  0  0  0  0  0  0  0  0
   -1.1130   22.2390  -30.3820 C   0  0  0  0  0  0  0  0  0  0  0  0
   -1.7980   23.3600  -29.9150 C   0  0  0  0  0  0  0  0  0  0  0  0
   -1.2170   24.3240  -28.9580 C   0  0  0  0  0  0  0  0  0  0  0  0
   -1.6180   25.6920  -28.9600 N   0  0  0  0  0  0  0  0  0  0  0  0
   -0.3910   23.9250  -28.0950 O   0  0  0  0  0  0  0  0  0  0  0  0
   -3.0720   23.3790  -30.4020 N   0  0  0  0  0  0  0  0  0  0  0  0
   -4.0660   24.4020  -30.2320 C   0  0  0  0  0  0  0  0  0  0  0  0
   -5.1090   24.1730  -29.5640 O   0  0  0  0  0  0  0  0  0  0  0  0
   -3.8750   25.6650  -30.7810 O   0  0  0  0  0  0  0  0  0  0  0  0
   -3.1900   22.2700  -31.1650 C   0  0  0  0  0  0  0  0  0  0  0  0
   -4.2880   21.8510  -31.9250 C   0  0  0  0  0  0  0  0  0  0  0  0
   -7.2940   21.2020  -32.4790 N   0  0  0  0  0  0  0  0  0  0  0  0
   -9.4144   21.6411  -30.1604 H   0  0  0  0  0  0  0  0  0  0  0  0
   -9.2639   22.6875  -31.6126 H   0  0  0  0  0  0  0  0  0  0  0  0
  -10.4191   21.3119  -31.6126 H   0  0  0  0  0  0  0  0  0  0  0  0
   -9.0060   18.7424  -31.0781 H   0  0  0  0  0  0  0  0  0  0  0  0
   -5.0941   19.1910  -33.9229 H   0  0  0  0  0  0  0  0  0  0  0  0
   -5.4486   20.8986  -34.3631 H   0  0  0  0  0  0  0  0  0  0  0  0
   -2.8613   19.0089  -33.2465 H   0  0  0  0  0  0  0  0  0  0  0  0
   -0.9118   19.8313  -31.8849 H   0  0  0  0  0  0  0  0  0  0  0  0
   -0.0720   21.9560  -30.1670 H   0  0  0  0  0  0  0  0  0  0  0  0
   -2.6280   25.9540  -28.9650 H   0  0  0  0  0  0  0  0  0  0  0  0
   -5.2180   22.4382  -31.9434 H   0  0  0  0  0  0  0  0  0  0  0  0
  1  2  1  0
  2  3  1  0
  3  4  2  0
  4  5  1  0
  4  6  1  0
  6  7  1  0
  7  8  1  0
  8  9  2  0
  9 10  1  0
 10 11  2  0
 11 12  1  0
 12 13  2  0
 13 14  1  0
 14 15  1  0
 14 16  2  0
 13 17  1  0
 17 18  1  0
 18 19  2  0
 18 20  1  0
 17 21  1  0
 21 22  2  0
  6 23  1  0
 23  2  2  0
 22  8  1  0
 21 11  1  0
  1 24  1  0
  1 25  1  0
  1 26  1  0
  3 27  1  0
  7 28  1  0
  7 29  1  0
  9 30  1  0
 10 31  1  0
 12 32  1  0
 15 33  1  0
 22 34  1  0
M  CHG  2  15  -1  20  -1
M  END
>  <UniqueID>  (100) 
100

>  <SMILES>  (100) 
Cc1cc(F)n(Cc2ccc3cc(C([NH-])=O)n(C(=O)[O-])c3c2)n1

>  <Energy>  (100) 
103.69761794148985

>  <Genealogy>  (100) 
Cc1cc(F)n(Cc2ccc3cc(C([NH-])=O)n(C(=O)[O-])c3c2)n1 (protonated)
Cc1cc(F)n(Cc2ccc3cc(C([NH-])=O)n(C(=O)[O-])c3c2)n1 (3D coordinates assigned)
Cc1cc(F)n(Cc2ccc3cc(C([NH-])=O)n(C(=O)[O-])c3c2)n1 (optimized conformer: 103.69761794148985 kcal/mol)

>  <smiles>  (100) 
Cc1cc(F)n(Cc2ccc3cc(C(N)=O)n(C(=O)O)c3c2)n1

>  <score_type>  (100) 
oracle

>  <origin>  (100) 
adg

>  <m_score__min__energy>  (100) 
-11.76

>  <m_primary>  (100) 
energy

$$$$
