0:0
     RDKit          3D

 35 36  0  0  0  0  0  0  0  0999 V2000
   -1.8190   23.1490  -27.1550 C   0  0  0  0  0  0  0  0  0  0  0  0
   -2.0380   23.8110  -28.5140 C   0  0  2  0  0  0  0  0  0  0  0  0
   -2.0460   22.7800  -29.5510 N   0  0  0  0  0  0  0  0  0  0  0  0
   -3.1770   22.0510  -30.0530 C   0  0  0  0  0  0  0  0  0  0  0  0
   -3.5520   21.0310  -29.4170 O   0  0  0  0  0  0  0  0  0  0  0  0
   -3.9160   22.4310  -31.2800 C   0  0  0  0  0  0  0  0  0  0  0  0
   -3.3310   22.5100  -32.3920 O   0  0  0  0  0  0  0  0  0  0  0  0
   -5.3200   22.7160  -31.2130 N   0  0  0  0  0  0  0  0  0  0  0  0
   -5.9140   23.8760  -30.8150 C   0  0  0  0  0  0  0  0  0  0  0  0
   -5.2140   25.1320  -30.4700 C   0  0  0  0  0  0  0  0  0  0  0  0
   -3.8570   25.3460  -30.8500 N   0  0  0  0  0  0  0  0  0  0  0  0
   -5.8300   26.0400  -29.8500 O   0  0  0  0  0  0  0  0  0  0  0  0
   -7.3010   23.7350  -30.8100 C   0  0  0  0  0  0  0  0  0  0  0  0
   -7.5370   22.4400  -31.2180 C   0  0  0  0  0  0  0  0  0  0  0  0
   -8.7370   21.7500  -31.3640 C   0  0  0  0  0  0  0  0  0  0  0  0
   -8.6780   20.4040  -31.7640 C   0  0  0  0  0  0  0  0  0  0  0  0
   -7.4310   19.7760  -32.0190 C   0  0  0  0  0  0  0  0  0  0  0  0
   -7.3790   18.3150  -32.3880 C   0  0  0  0  0  0  0  0  0  0  0  0
   -6.8880   18.1530  -33.6730 F   0  0  0  0  0  0  0  0  0  0  0  0
   -8.6530   17.7830  -32.3230 F   0  0  0  0  0  0  0  0  0  0  0  0
   -6.5540   17.6210  -31.5200 F   0  0  0  0  0  0  0  0  0  0  0  0
   -6.2330   20.5050  -31.8320 C   0  0  0  0  0  0  0  0  0  0  0  0
   -6.3250   21.8480  -31.4500 C   0  0  0  0  0  0  0  0  0  0  0  0
   -0.9430   24.8060  -28.7740 C   0  0  0  0  0  0  0  0  0  0  0  0
    0.2560   24.4990  -28.5430 O   0  0  0  0  0  0  0  0  0  0  0  0
   -1.2400   26.0500  -29.3180 O   0  0  0  0  0  0  0  0  0  0  0  0
   -2.0562   23.8661  -26.3553 H   0  0  0  0  0  0  0  0  0  0  0  0
   -2.4742   22.2700  -27.0655 H   0  0  0  0  0  0  0  0  0  0  0  0
   -0.7688   22.8342  -27.0655 H   0  0  0  0  0  0  0  0  0  0  0  0
   -3.0021   24.3405  -28.5223 H   0  0  0  0  0  0  0  0  0  0  0  0
   -3.0850   25.2790  -30.1500 H   0  0  0  0  0  0  0  0  0  0  0  0
   -8.0479   24.4955  -30.5383 H   0  0  0  0  0  0  0  0  0  0  0  0
   -9.7015   22.2429  -31.1723 H   0  0  0  0  0  0  0  0  0  0  0  0
   -9.6093   19.8304  -31.8808 H   0  0  0  0  0  0  0  0  0  0  0  0
   -5.2535   20.0279  -31.9832 H   0  0  0  0  0  0  0  0  0  0  0  0
  1  2  1  0
  2  3  1  0
  3  4  1  0
  4  5  2  0
  4  6  1  0
  6  7  2  0
  6  8  1  0
  8  9  1  0
  9 10  1  0
 10 11  1  0
 10 12  2  0
  9 13  2  0
 13 14  1  0
 14 15  2  0
 15 16  1  0
 16 17  2  0
 17 18  1  0
 18 19  1  0
 18 20  1  0
 18 21  1  0
 17 22  1  0
 22 23  2  0
  2 24  1  0
 24 25  2  0
 24 26  1  0
 23  8  1  0
 23 14  1  0
  1 27  1  0
  1 28  1  0
  1 29  1  0
  2 30  1  1
 11 31  1  0
 13 32  1  0
 15 33  1  0
 16 34  1  0
 22 35  1  0
M  CHG  3   3  -1  11  -1  26  -1
M  END
>  <UniqueID>  (1) 
1

>  <SMILES>  (1) 
C[C@H]([N-]C(=O)C(=O)n1c(C([NH-])=O)cc2ccc(C(F)(F)F)cc21)C(=O)[O-]

>  <Energy>  (1) 
73.36416385999993

>  <Genealogy>  (1) 
CC([N-]C(=O)C(=O)n1c(C([NH-])=O)cc2ccc(C(F)(F)F)cc21)C(=O)[O-] (protonated)
C[C@H]([N-]C(=O)C(=O)n1c(C([NH-])=O)cc2ccc(C(F)(F)F)cc21)C(=O)[O-] (chirality)
C[C@H]([N-]C(=O)C(=O)n1c(C([NH-])=O)cc2ccc(C(F)(F)F)cc21)C(=O)[O-] (3D coordinates assigned)
C[C@H]([N-]C(=O)C(=O)n1c(C([NH-])=O)cc2ccc(C(F)(F)F)cc21)C(=O)[O-] (optimized conformer: 73.36416385999993 kcal/mol)

>  <smiles>  (1) 
CC(NC(=O)C(=O)n1c(C(N)=O)cc2ccc(C(F)(F)F)cc21)C(=O)O

>  <score_type>  (1) 
oracle

>  <origin>  (1) 
adg

>  <m_score__min__energy>  (1) 
-12.880000000000001

>  <m_primary>  (1) 
energy

$$$$
1:0
     RDKit          3D

 42 43  0  0  0  0  0  0  0  0999 V2000
   -5.0150   25.6720  -30.4600 C   0  0  0  0  0  0  0  0  0  0  0  0
   -3.7950   24.8770  -30.5010 N   0  0  0  0  0  0  0  0  0  0  0  0
   -3.7430   23.4900  -30.8570 C   0  0  0  0  0  0  0  0  0  0  0  0
   -4.5590   23.0570  -31.7150 O   0  0  0  0  0  0  0  0  0  0  0  0
   -2.6980   22.5570  -30.2720 C   0  0  2  0  0  0  0  0  0  0  0  0
   -2.0800   23.1640  -29.1640 O   0  0  0  0  0  0  0  0  0  0  0  0
   -1.6380   22.1140  -31.3020 C   0  0  0  0  0  0  0  0  0  0  0  0
   -2.2160   21.1970  -32.3470 C   0  0  0  0  0  0  0  0  0  0  0  0
   -1.5690   20.9830  -33.4100 O   0  0  0  0  0  0  0  0  0  0  0  0
   -3.5050   20.5950  -32.1420 N   0  0  0  0  0  0  0  0  0  0  0  0
   -4.0790   19.6110  -33.0170 C   0  0  0  0  0  0  0  0  0  0  0  0
   -3.4030   19.1240  -33.9640 O   0  0  0  0  0  0  0  0  0  0  0  0
   -5.4170   19.1430  -32.7920 N   0  0  0  0  0  0  0  0  0  0  0  0
   -5.8910   17.8790  -32.9730 C   0  0  0  0  0  0  0  0  0  0  0  0
   -5.0790   16.6880  -33.2990 C   0  0  0  0  0  0  0  0  0  0  0  0
   -4.3070   16.6210  -34.5000 N   0  0  0  0  0  0  0  0  0  0  0  0
   -5.0270   15.7330  -32.4800 O   0  0  0  0  0  0  0  0  0  0  0  0
   -7.2690   17.8410  -32.7790 C   0  0  0  0  0  0  0  0  0  0  0  0
   -7.6270   19.1330  -32.4610 C   0  0  0  0  0  0  0  0  0  0  0  0
   -8.8820   19.6740  -32.2030 C   0  0  0  0  0  0  0  0  0  0  0  0
   -8.9680   21.0570  -31.9650 C   0  0  0  0  0  0  0  0  0  0  0  0
   -7.8030   21.8690  -31.9760 C   0  0  0  0  0  0  0  0  0  0  0  0
   -7.9060   23.3600  -31.7830 C   0  0  0  0  0  0  0  0  0  0  0  0
   -7.6040   23.7100  -30.4770 F   0  0  0  0  0  0  0  0  0  0  0  0
   -9.1950   23.7650  -32.0710 F   0  0  0  0  0  0  0  0  0  0  0  0
   -7.0250   24.0190  -32.6230 F   0  0  0  0  0  0  0  0  0  0  0  0
   -6.5480   21.2820  -32.2660 C   0  0  0  0  0  0  0  0  0  0  0  0
   -6.4920   19.9000  -32.4800 C   0  0  0  0  0  0  0  0  0  0  0  0
   -5.2976   25.8562  -29.4130 H   0  0  0  0  0  0  0  0  0  0  0  0
   -4.8440   26.6326  -30.9680 H   0  0  0  0  0  0  0  0  0  0  0  0
   -5.8247   25.1276  -30.9680 H   0  0  0  0  0  0  0  0  0  0  0  0
   -3.2243   21.6451  -29.9535 H   0  0  0  0  0  0  0  0  0  0  0  0
   -2.5940   23.9860  -28.9470 H   0  0  0  0  0  0  0  0  0  0  0  0
   -1.2308   23.0068  -31.7990 H   0  0  0  0  0  0  0  0  0  0  0  0
   -0.8512   21.5640  -30.7649 H   0  0  0  0  0  0  0  0  0  0  0  0
   -4.0440   20.8560  -31.2860 H   0  0  0  0  0  0  0  0  0  0  0  0
   -3.7650   15.7600  -34.7260 H   0  0  0  0  0  0  0  0  0  0  0  0
   -4.1710   17.4630  -35.1010 H   0  0  0  0  0  0  0  0  0  0  0  0
   -7.9308   16.9663  -32.8619 H   0  0  0  0  0  0  0  0  0  0  0  0
   -9.7801   19.0391  -32.1857 H   0  0  0  0  0  0  0  0  0  0  0  0
   -9.9485   21.5151  -31.7681 H   0  0  0  0  0  0  0  0  0  0  0  0
   -5.6381   21.8976  -32.3219 H   0  0  0  0  0  0  0  0  0  0  0  0
  1  2  1  0
  2  3  1  0
  3  4  2  0
  3  5  1  0
  5  6  1  0
  5  7  1  0
  7  8  1  0
  8  9  2  0
  8 10  1  0
 10 11  1  0
 11 12  2  0
 11 13  1  0
 13 14  1  0
 14 15  1  0
 15 16  1  0
 15 17  2  0
 14 18  2  0
 18 19  1  0
 19 20  2  0
 20 21  1  0
 21 22  2  0
 22 23  1  0
 23 24  1  0
 23 25  1  0
 23 26  1  0
 22 27  1  0
 27 28  2  0
 28 13  1  0
 28 19  1  0
  1 29  1  0
  1 30  1  0
  1 31  1  0
  5 32  1  1
  6 33  1  0
  7 34  1  0
  7 35  1  0
 10 36  1  0
 16 37  1  0
 16 38  1  0
 18 39  1  0
 20 40  1  0
 21 41  1  0
 27 42  1  0
M  CHG  1   2  -1
M  END
>  <UniqueID>  (2) 
2

>  <SMILES>  (2) 
C[N-]C(=O)[C@H](O)CC(=O)NC(=O)n1c(C(N)=O)cc2ccc(C(F)(F)F)cc21

>  <Energy>  (2) 
79.30942955268151

>  <Genealogy>  (2) 
C[N-]C(=O)[C@H](O)CC(=O)NC(=O)n1c(C(N)=O)cc2ccc(C(F)(F)F)cc21 (protonated)
C[N-]C(=O)[C@H](O)CC(=O)NC(=O)n1c(C(N)=O)cc2ccc(C(F)(F)F)cc21 (3D coordinates assigned)
C[N-]C(=O)[C@H](O)CC(=O)NC(=O)n1c(C(N)=O)cc2ccc(C(F)(F)F)cc21 (optimized conformer: 79.30942955268151 kcal/mol)

>  <smiles>  (2) 
CNC(=O)[C@H](O)CC(=O)NC(=O)n1c(C(N)=O)cc2ccc(C(F)(F)F)cc21

>  <score_type>  (2) 
oracle

>  <origin>  (2) 
adg

>  <m_score__min__energy>  (2) 
-10.640000000000001

>  <m_primary>  (2) 
energy

$$$$
2:0
     RDKit          3D

 36 37  0  0  0  0  0  0  0  0999 V2000
   -2.3130   19.4250  -33.8360 C   0  0  0  0  0  0  0  0  0  0  0  0
   -3.3230   20.0590  -33.2360 C   0  0  0  0  0  0  0  0  0  0  0  0
   -3.4930   21.5490  -33.3280 C   0  0  0  0  0  0  0  0  0  0  0  0
   -3.3410   22.1420  -32.0410 O   0  0  0  0  0  0  0  0  0  0  0  0
   -4.2710   21.9790  -31.0060 C   0  0  0  0  0  0  0  0  0  0  0  0
   -3.9080   21.5150  -29.8910 O   0  0  0  0  0  0  0  0  0  0  0  0
   -5.6440   22.3470  -31.2190 N   0  0  0  0  0  0  0  0  0  0  0  0
   -6.2330   23.5400  -30.9260 C   0  0  0  0  0  0  0  0  0  0  0  0
   -5.5360   24.7650  -30.4870 C   0  0  0  0  0  0  0  0  0  0  0  0
   -5.8450   25.3850  -29.2380 N   0  0  0  0  0  0  0  0  0  0  0  0
   -4.6150   25.2430  -31.2010 O   0  0  0  0  0  0  0  0  0  0  0  0
   -7.6080   23.4750  -31.1360 C   0  0  0  0  0  0  0  0  0  0  0  0
   -7.8460   22.1970  -31.5850 C   0  0  0  0  0  0  0  0  0  0  0  0
   -9.0460   21.5790  -31.9260 C   0  0  0  0  0  0  0  0  0  0  0  0
   -9.0050   20.2290  -32.3110 C   0  0  0  0  0  0  0  0  0  0  0  0
   -7.7760   19.5240  -32.3450 C   0  0  0  0  0  0  0  0  0  0  0  0
   -7.7570   18.0640  -32.7200 C   0  0  0  0  0  0  0  0  0  0  0  0
   -6.3280   17.5300  -32.8300 C   0  0  0  0  0  0  0  0  0  0  0  0
   -5.6100   17.7690  -34.6180 Br  0  0  0  0  0  0  0  0  0  0  0  0
   -6.5790   20.1840  -31.9870 C   0  0  0  0  0  0  0  0  0  0  0  0
   -6.6450   21.5350  -31.6250 C   0  0  0  0  0  0  0  0  0  0  0  0
   -2.2192   18.3326  -33.7475 H   0  0  0  0  0  0  0  0  0  0  0  0
   -1.5745   19.9950  -34.4189 H   0  0  0  0  0  0  0  0  0  0  0  0
   -4.0523   19.4733  -32.6572 H   0  0  0  0  0  0  0  0  0  0  0  0
   -2.7336   21.9600  -34.0094 H   0  0  0  0  0  0  0  0  0  0  0  0
   -4.5002   21.7725  -33.7095 H   0  0  0  0  0  0  0  0  0  0  0  0
   -6.4810   24.9250  -28.5490 H   0  0  0  0  0  0  0  0  0  0  0  0
   -5.3730   26.2740  -28.9630 H   0  0  0  0  0  0  0  0  0  0  0  0
   -8.3461   24.2749  -30.9768 H   0  0  0  0  0  0  0  0  0  0  0  0
   -9.9969   22.1311  -31.8948 H   0  0  0  0  0  0  0  0  0  0  0  0
   -9.9362   19.7136  -32.5890 H   0  0  0  0  0  0  0  0  0  0  0  0
   -8.2942   17.4906  -31.9502 H   0  0  0  0  0  0  0  0  0  0  0  0
   -8.2420   17.9542  -33.7012 H   0  0  0  0  0  0  0  0  0  0  0  0
   -5.6897   18.0688  -32.1142 H   0  0  0  0  0  0  0  0  0  0  0  0
   -6.3457   16.4528  -32.6080 H   0  0  0  0  0  0  0  0  0  0  0  0
   -5.6179   19.6490  -31.9926 H   0  0  0  0  0  0  0  0  0  0  0  0
  1  2  2  0
  2  3  1  0
  3  4  1  0
  4  5  1  0
  5  6  2  0
  5  7  1  0
  7  8  1  0
  8  9  1  0
  9 10  1  0
  9 11  2  0
  8 12  2  0
 12 13  1  0
 13 14  2  0
 14 15  1  0
 15 16  2  0
 16 17  1  0
 17 18  1  0
 18 19  1  0
 16 20  1  0
 20 21  2  0
 21  7  1  0
 21 13  1  0
  1 22  1  0
  1 23  1  0
  2 24  1  0
  3 25  1  0
  3 26  1  0
 10 27  1  0
 10 28  1  0
 12 29  1  0
 14 30  1  0
 15 31  1  0
 17 32  1  0
 17 33  1  0
 18 34  1  0
 18 35  1  0
 20 36  1  0
M  END
>  <UniqueID>  (3) 
3

>  <SMILES>  (3) 
C=CCOC(=O)n1c(C(N)=O)cc2ccc(CCBr)cc21

>  <Energy>  (3) 
68.81519797434868

>  <Genealogy>  (3) 
C=CCOC(=O)n1c(C(N)=O)cc2ccc(CCBr)cc21 (3D coordinates assigned)
C=CCOC(=O)n1c(C(N)=O)cc2ccc(CCBr)cc21 (optimized conformer: 68.81519797434868 kcal/mol)

>  <smiles>  (3) 
C=CCOC(=O)n1c(C(N)=O)cc2ccc(CCBr)cc21

>  <score_type>  (3) 
oracle

>  <origin>  (3) 
adg

>  <m_score__min__energy>  (3) 
-8.6199999999999992

>  <m_primary>  (3) 
energy

$$$$
3:0
     RDKit          3D

 40 41  0  0  0  0  0  0  0  0999 V2000
   -0.5620   24.6520  -28.0110 C   0  0  0  0  0  0  0  0  0  0  0  0
   -2.0790   24.4520  -28.1100 C   0  0  0  0  0  0  0  0  0  0  0  0
   -2.8270   24.8950  -26.8500 C   0  0  0  0  0  0  0  0  0  0  0  0
   -2.6410   25.0580  -29.3210 N   0  0  0  0  0  0  0  0  0  0  0  0
   -3.8740   24.8080  -30.0150 C   0  0  0  0  0  0  0  0  0  0  0  0
   -4.2540   25.6570  -30.8670 O   0  0  0  0  0  0  0  0  0  0  0  0
   -4.7690   23.6320  -29.7260 C   0  0  0  0  0  0  0  0  0  0  0  0
   -4.0330   22.3320  -29.8780 C   0  0  0  0  0  0  0  0  0  0  0  0
   -3.4440   21.8330  -28.8810 O   0  0  0  0  0  0  0  0  0  0  0  0
   -3.9950   21.6460  -31.1410 N   0  0  0  0  0  0  0  0  0  0  0  0
   -2.8920   21.3310  -31.8770 C   0  0  0  0  0  0  0  0  0  0  0  0
   -1.5050   21.7390  -31.5570 C   0  0  0  0  0  0  0  0  0  0  0  0
   -1.2340   22.6260  -30.4690 N   0  0  0  0  0  0  0  0  0  0  0  0
   -0.5420   21.2920  -32.2340 O   0  0  0  0  0  0  0  0  0  0  0  0
   -3.2570   20.6160  -33.0180 C   0  0  0  0  0  0  0  0  0  0  0  0
   -4.6260   20.4930  -32.9500 C   0  0  0  0  0  0  0  0  0  0  0  0
   -5.5090   19.8480  -33.8100 C   0  0  0  0  0  0  0  0  0  0  0  0
   -6.8720   19.8420  -33.4700 C   0  0  0  0  0  0  0  0  0  0  0  0
   -7.3240   20.4680  -32.2830 C   0  0  0  0  0  0  0  0  0  0  0  0
   -8.7820   20.4290  -31.9260 C   0  0  0  0  0  0  0  0  0  0  0  0
   -9.0520   21.3920  -30.9710 F   0  0  0  0  0  0  0  0  0  0  0  0
   -9.1060   19.1820  -31.4220 F   0  0  0  0  0  0  0  0  0  0  0  0
   -6.3960   21.1080  -31.4310 C   0  0  0  0  0  0  0  0  0  0  0  0
   -5.0480   21.1190  -31.8060 C   0  0  0  0  0  0  0  0  0  0  0  0
   -0.2656   24.6911  -26.9524 H   0  0  0  0  0  0  0  0  0  0  0  0
   -0.0486   23.8138  -28.5048 H   0  0  0  0  0  0  0  0  0  0  0  0
   -0.2834   25.5946  -28.5048 H   0  0  0  0  0  0  0  0  0  0  0  0
   -2.2321   23.3657  -28.1904 H   0  0  0  0  0  0  0  0  0  0  0  0
   -2.2717   24.5661  -25.9592 H   0  0  0  0  0  0  0  0  0  0  0  0
   -2.9157   25.9914  -26.8427 H   0  0  0  0  0  0  0  0  0  0  0  0
   -3.8311   24.4458  -26.8427 H   0  0  0  0  0  0  0  0  0  0  0  0
   -5.1438   23.7125  -28.6949 H   0  0  0  0  0  0  0  0  0  0  0  0
   -5.6005   23.6450  -30.4461 H   0  0  0  0  0  0  0  0  0  0  0  0
   -2.0030   23.0720  -29.9220 H   0  0  0  0  0  0  0  0  0  0  0  0
   -0.2480   22.8700  -30.2280 H   0  0  0  0  0  0  0  0  0  0  0  0
   -2.5915   20.2319  -33.8052 H   0  0  0  0  0  0  0  0  0  0  0  0
   -5.1511   19.3580  -34.7275 H   0  0  0  0  0  0  0  0  0  0  0  0
   -7.5960   19.3457  -34.1330 H   0  0  0  0  0  0  0  0  0  0  0  0
   -9.3798   20.6266  -32.8280 H   0  0  0  0  0  0  0  0  0  0  0  0
   -6.7251   21.5856  -30.4963 H   0  0  0  0  0  0  0  0  0  0  0  0
  1  2  1  0
  2  3  1  0
  2  4  1  0
  4  5  1  0
  5  6  2  0
  5  7  1  0
  7  8  1  0
  8  9  2  0
  8 10  1  0
 10 11  1  0
 11 12  1  0
 12 13  1  0
 12 14  2  0
 11 15  2  0
 15 16  1  0
 16 17  2  0
 17 18  1  0
 18 19  2  0
 19 20  1  0
 20 21  1  0
 20 22  1  0
 19 23  1  0
 23 24  2  0
 24 10  1  0
 24 16  1  0
  1 25  1  0
  1 26  1  0
  1 27  1  0
  2 28  1  0
  3 29  1  0
  3 30  1  0
  3 31  1  0
  7 32  1  0
  7 33  1  0
 13 34  1  0
 13 35  1  0
 15 36  1  0
 17 37  1  0
 18 38  1  0
 20 39  1  0
 23 40  1  0
M  CHG  1   4  -1
M  END
>  <UniqueID>  (4) 
4

>  <SMILES>  (4) 
CC(C)[N-]C(=O)CC(=O)n1c(C(N)=O)cc2ccc(C(F)F)cc21

>  <Energy>  (4) 
77.30583513957194

>  <Genealogy>  (4) 
CC(C)[N-]C(=O)CC(=O)n1c(C(N)=O)cc2ccc(C(F)F)cc21 (protonated)
CC(C)[N-]C(=O)CC(=O)n1c(C(N)=O)cc2ccc(C(F)F)cc21 (3D coordinates assigned)
CC(C)[N-]C(=O)CC(=O)n1c(C(N)=O)cc2ccc(C(F)F)cc21 (optimized conformer: 77.30583513957194 kcal/mol)

>  <smiles>  (4) 
CC(C)NC(=O)CC(=O)n1c(C(N)=O)cc2ccc(C(F)F)cc21

>  <score_type>  (4) 
oracle

>  <origin>  (4) 
adg

>  <m_score__min__energy>  (4) 
-10.130000000000001

>  <m_primary>  (4) 
energy

$$$$
4:0
     RDKit          3D

 40 41  0  0  0  0  0  0  0  0999 V2000
    0.1240   22.7380  -28.1480 C   0  0  0  0  0  0  0  0  0  0  0  0
   -1.0760   23.6250  -28.5290 C   0  0  0  0  0  0  0  0  0  0  0  0
   -2.2490   23.3160  -27.5900 C   0  0  0  0  0  0  0  0  0  0  0  0
   -1.4980   23.3160  -29.9000 N   0  0  0  0  0  0  0  0  0  0  0  0
   -1.9510   22.0400  -30.3670 C   0  0  0  0  0  0  0  0  0  0  0  0
   -1.0980   21.1520  -30.6340 O   0  0  0  0  0  0  0  0  0  0  0  0
   -3.3220   21.7900  -30.5150 O   0  0  0  0  0  0  0  0  0  0  0  0
   -4.1200   22.2790  -31.5580 C   0  0  0  0  0  0  0  0  0  0  0  0
   -3.6850   22.3150  -32.7420 O   0  0  0  0  0  0  0  0  0  0  0  0
   -5.4610   22.7060  -31.2790 N   0  0  0  0  0  0  0  0  0  0  0  0
   -5.8510   23.8860  -30.7210 C   0  0  0  0  0  0  0  0  0  0  0  0
   -4.9630   25.0380  -30.4580 C   0  0  0  0  0  0  0  0  0  0  0  0
   -3.6300   24.8390  -29.9810 N   0  0  0  0  0  0  0  0  0  0  0  0
   -5.3850   26.2120  -30.6270 O   0  0  0  0  0  0  0  0  0  0  0  0
   -7.2300   23.9020  -30.5260 C   0  0  0  0  0  0  0  0  0  0  0  0
   -7.6770   22.6850  -30.9900 C   0  0  0  0  0  0  0  0  0  0  0  0
   -8.9650   22.1620  -31.0310 C   0  0  0  0  0  0  0  0  0  0  0  0
   -9.1330   20.8650  -31.5430 C   0  0  0  0  0  0  0  0  0  0  0  0
   -8.0210   20.1140  -32.0020 C   0  0  0  0  0  0  0  0  0  0  0  0
   -8.2380   18.7130  -32.5130 C   0  0  0  0  0  0  0  0  0  0  0  0
   -8.1310   17.8150  -31.4660 F   0  0  0  0  0  0  0  0  0  0  0  0
   -7.2770   18.4170  -33.4610 F   0  0  0  0  0  0  0  0  0  0  0  0
   -9.4900   18.5680  -33.0880 F   0  0  0  0  0  0  0  0  0  0  0  0
   -6.7240   20.6790  -31.9360 C   0  0  0  0  0  0  0  0  0  0  0  0
   -6.5900   21.9810  -31.4390 C   0  0  0  0  0  0  0  0  0  0  0  0
   -0.7300   25.0940  -28.4030 C   0  0  0  0  0  0  0  0  0  0  0  0
    0.3410   25.4470  -27.8410 O   0  0  0  0  0  0  0  0  0  0  0  0
   -1.5470   26.0650  -28.9720 O   0  0  0  0  0  0  0  0  0  0  0  0
    0.2034   22.6793  -27.0524 H   0  0  0  0  0  0  0  0  0  0  0  0
   -0.0210   21.7283  -28.5597 H   0  0  0  0  0  0  0  0  0  0  0  0
    1.0467   23.1728  -28.5597 H   0  0  0  0  0  0  0  0  0  0  0  0
   -1.9155   23.4039  -26.5455 H   0  0  0  0  0  0  0  0  0  0  0  0
   -3.0651   24.0298  -27.7756 H   0  0  0  0  0  0  0  0  0  0  0  0
   -2.6075   22.2928  -27.7756 H   0  0  0  0  0  0  0  0  0  0  0  0
   -3.0220   25.6600  -29.7700 H   0  0  0  0  0  0  0  0  0  0  0  0
   -3.2300   23.8800  -29.8750 H   0  0  0  0  0  0  0  0  0  0  0  0
   -7.8334   24.7137  -30.0935 H   0  0  0  0  0  0  0  0  0  0  0  0
   -9.8257   22.7462  -30.6734 H   0  0  0  0  0  0  0  0  0  0  0  0
  -10.1405   20.4258  -31.5886 H   0  0  0  0  0  0  0  0  0  0  0  0
   -5.8435   20.1089  -32.2671 H   0  0  0  0  0  0  0  0  0  0  0  0
  1  2  1  0
  2  3  1  0
  2  4  1  0
  4  5  1  0
  5  6  2  0
  5  7  1  0
  7  8  1  0
  8  9  2  0
  8 10  1  0
 10 11  1  0
 11 12  1  0
 12 13  1  0
 12 14  2  0
 11 15  2  0
 15 16  1  0
 16 17  2  0
 17 18  1  0
 18 19  2  0
 19 20  1  0
 20 21  1  0
 20 22  1  0
 20 23  1  0
 19 24  1  0
 24 25  2  0
  2 26  1  0
 26 27  2  0
 26 28  1  0
 25 10  1  0
 25 16  1  0
  1 29  1  0
  1 30  1  0
  1 31  1  0
  3 32  1  0
  3 33  1  0
  3 34  1  0
 13 35  1  0
 13 36  1  0
 15 37  1  0
 17 38  1  0
 18 39  1  0
 24 40  1  0
M  CHG  2   4  -1  28  -1
M  END
>  <UniqueID>  (5) 
5

>  <SMILES>  (5) 
CC(C)([N-]C(=O)OC(=O)n1c(C(N)=O)cc2ccc(C(F)(F)F)cc21)C(=O)[O-]

>  <Energy>  (5) 
75.75547859488054

>  <Genealogy>  (5) 
CC(C)([N-]C(=O)OC(=O)n1c(C(N)=O)cc2ccc(C(F)(F)F)cc21)C(=O)[O-] (protonated)
CC(C)([N-]C(=O)OC(=O)n1c(C(N)=O)cc2ccc(C(F)(F)F)cc21)C(=O)[O-] (3D coordinates assigned)
CC(C)([N-]C(=O)OC(=O)n1c(C(N)=O)cc2ccc(C(F)(F)F)cc21)C(=O)[O-] (optimized conformer: 75.75547859488054 kcal/mol)

>  <smiles>  (5) 
CC(C)(NC(=O)OC(=O)n1c(C(N)=O)cc2ccc(C(F)(F)F)cc21)C(=O)O

>  <score_type>  (5) 
oracle

>  <origin>  (5) 
adg

>  <m_score__min__energy>  (5) 
-11.57

>  <m_primary>  (5) 
energy

$$$$
5:0
     RDKit          3D

 33 36  0  0  0  0  0  0  0  0999 V2000
   -3.9690   25.6670  -30.8440 N   0  0  0  0  0  0  0  0  0  0  0  0
   -5.2150   25.0890  -30.4660 C   0  0  0  0  0  0  0  0  0  0  0  0
   -5.9090   25.6480  -29.5750 O   0  0  0  0  0  0  0  0  0  0  0  0
   -5.6770   23.8170  -31.0610 C   0  0  0  0  0  0  0  0  0  0  0  0
   -7.0210   23.5140  -31.2670 C   0  0  0  0  0  0  0  0  0  0  0  0
   -7.0350   22.2240  -31.7450 C   0  0  0  0  0  0  0  0  0  0  0  0
   -8.1080   21.4220  -32.1230 C   0  0  0  0  0  0  0  0  0  0  0  0
   -7.8270   20.1350  -32.6110 C   0  0  0  0  0  0  0  0  0  0  0  0
   -6.4900   19.6790  -32.7250 C   0  0  0  0  0  0  0  0  0  0  0  0
   -6.2010   18.3220  -33.2420 C   0  0  0  0  0  0  0  0  0  0  0  0
   -7.1610   17.2880  -33.1430 C   0  0  0  0  0  0  0  0  0  0  0  0
   -6.8880   15.9960  -33.6440 C   0  0  0  0  0  0  0  0  0  0  0  0
   -5.6490   15.7110  -34.2460 C   0  0  0  0  0  0  0  0  0  0  0  0
   -4.7160   16.7400  -34.3250 C   0  0  0  0  0  0  0  0  0  0  0  0
   -3.4710   16.6790  -34.8240 N   0  0  0  0  0  0  0  0  0  0  0  0
   -2.9240   17.8800  -34.6650 N   0  0  0  0  0  0  0  0  0  0  0  0
   -3.8170   18.7020  -34.0650 C   0  0  0  0  0  0  0  0  0  0  0  0
   -4.9780   17.9930  -33.8450 C   0  0  0  0  0  0  0  0  0  0  0  0
   -5.4280   20.5210  -32.3210 C   0  0  0  0  0  0  0  0  0  0  0  0
   -5.7370   21.7910  -31.8210 C   0  0  0  0  0  0  0  0  0  0  0  0
   -4.8900   22.7600  -31.4080 N   0  0  0  0  0  0  0  0  0  0  0  0
   -3.4540   22.6970  -31.4250 C   0  0  0  0  0  0  0  0  0  0  0  0
   -2.8520   22.1920  -32.4080 O   0  0  0  0  0  0  0  0  0  0  0  0
   -2.7180   23.1690  -30.3440 O   0  0  0  0  0  0  0  0  0  0  0  0
   -3.0690   25.2970  -30.4660 H   0  0  0  0  0  0  0  0  0  0  0  0
   -7.8872   24.1674  -31.0859 H   0  0  0  0  0  0  0  0  0  0  0  0
   -9.1434   21.7845  -32.0422 H   0  0  0  0  0  0  0  0  0  0  0  0
   -8.6542   19.4736  -32.9080 H   0  0  0  0  0  0  0  0  0  0  0  0
   -8.1327   17.4927  -32.6698 H   0  0  0  0  0  0  0  0  0  0  0  0
   -7.6499   15.2068  -33.5628 H   0  0  0  0  0  0  0  0  0  0  0  0
   -5.4255   14.7089  -34.6408 H   0  0  0  0  0  0  0  0  0  0  0  0
   -3.6452   19.7554  -33.7987 H   0  0  0  0  0  0  0  0  0  0  0  0
   -4.3833   20.1854  -32.3980 H   0  0  0  0  0  0  0  0  0  0  0  0
  1  2  1  0
  2  3  2  0
  2  4  1  0
  4  5  2  0
  5  6  1  0
  6  7  2  0
  7  8  1  0
  8  9  2  0
  9 10  1  0
 10 11  2  0
 11 12  1  0
 12 13  2  0
 13 14  1  0
 14 15  1  0
 15 16  1  0
 16 17  2  0
 17 18  1  0
  9 19  1  0
 19 20  2  0
 20 21  1  0
 21 22  1  0
 22 23  2  0
 22 24  1  0
 21  4  1  0
 20  6  1  0
 18 10  1  0
 18 14  2  0
  1 25  1  0
  5 26  1  0
  7 27  1  0
  8 28  1  0
 11 29  1  0
 12 30  1  0
 13 31  1  0
 17 32  1  0
 19 33  1  0
M  CHG  3   1  -1  15  -1  24  -1
M  END
>  <UniqueID>  (6) 
6

>  <SMILES>  (6) 
[NH-]C(=O)c1cc2ccc(-c3cccc4[n-]ncc34)cc2n1C(=O)[O-]

>  <Energy>  (6) 
121.39250846445204

>  <Genealogy>  (6) 
[NH-]C(=O)c1cc2ccc(-c3cccc4[n-]ncc34)cc2n1C(=O)[O-] (protonated)
[NH-]C(=O)c1cc2ccc(-c3cccc4[n-]ncc34)cc2n1C(=O)[O-] (3D coordinates assigned)
[NH-]C(=O)c1cc2ccc(-c3cccc4[n-]ncc34)cc2n1C(=O)[O-] (optimized conformer: 121.39250846445204 kcal/mol)

>  <smiles>  (6) 
NC(=O)c1cc2ccc(-c3cccc4[nH]ncc34)cc2n1C(=O)O

>  <score_type>  (6) 
oracle

>  <origin>  (6) 
adg

>  <m_score__min__energy>  (6) 
-11.640000000000001

>  <m_primary>  (6) 
energy

$$$$
6:0
     RDKit          3D

 40 41  0  0  0  0  0  0  0  0999 V2000
   -5.2670   15.8970  -33.1060 C   0  0  0  0  0  0  0  0  0  0  0  0
   -5.2100   16.9310  -34.0800 O   0  0  0  0  0  0  0  0  0  0  0  0
   -6.1260   17.9870  -34.1120 C   0  0  0  0  0  0  0  0  0  0  0  0
   -6.0430   18.8840  -34.9960 O   0  0  0  0  0  0  0  0  0  0  0  0
   -7.2120   18.0470  -33.0890 C   0  0  0  0  0  0  0  0  0  0  0  0
   -7.3750   19.4480  -32.5730 C   0  0  0  0  0  0  0  0  0  0  0  0
   -8.6610   20.0430  -32.5220 C   0  0  0  0  0  0  0  0  0  0  0  0
   -8.8260   21.3510  -32.0340 C   0  0  0  0  0  0  0  0  0  0  0  0
   -7.6890   22.0410  -31.6250 C   0  0  0  0  0  0  0  0  0  0  0  0
   -7.5600   23.3070  -31.0920 C   0  0  0  0  0  0  0  0  0  0  0  0
   -6.1950   23.4730  -30.8740 C   0  0  0  0  0  0  0  0  0  0  0  0
   -5.5930   24.7350  -30.3970 C   0  0  0  0  0  0  0  0  0  0  0  0
   -5.7900   25.1860  -29.0550 N   0  0  0  0  0  0  0  0  0  0  0  0
   -4.8590   25.4020  -31.1700 O   0  0  0  0  0  0  0  0  0  0  0  0
   -5.5100   22.3570  -31.2410 N   0  0  0  0  0  0  0  0  0  0  0  0
   -4.1160   22.0770  -31.0520 C   0  0  0  0  0  0  0  0  0  0  0  0
   -3.3580   22.0040  -32.0600 O   0  0  0  0  0  0  0  0  0  0  0  0
   -3.5810   21.8370  -29.6650 C   0  0  0  0  0  0  0  0  0  0  0  0
   -3.4890   23.1010  -28.8510 C   0  0  0  0  0  0  0  0  0  0  0  0
   -4.3850   23.3760  -28.0640 O   0  0  0  0  0  0  0  0  0  0  0  0
   -2.3150   24.0250  -28.9880 C   0  0  0  0  0  0  0  0  0  0  0  0
   -2.7640   25.2980  -29.3590 O   0  0  0  0  0  0  0  0  0  0  0  0
   -6.4360   21.4900  -31.7010 C   0  0  0  0  0  0  0  0  0  0  0  0
   -6.2420   20.1840  -32.1630 C   0  0  0  0  0  0  0  0  0  0  0  0
   -5.2426   16.3398  -32.0993 H   0  0  0  0  0  0  0  0  0  0  0  0
   -6.1980   15.3250  -33.2325 H   0  0  0  0  0  0  0  0  0  0  0  0
   -4.4045   15.2261  -33.2325 H   0  0  0  0  0  0  0  0  0  0  0  0
   -8.1571   17.7175  -33.5453 H   0  0  0  0  0  0  0  0  0  0  0  0
   -6.9451   17.3885  -32.2493 H   0  0  0  0  0  0  0  0  0  0  0  0
   -9.5378   19.4758  -32.8675 H   0  0  0  0  0  0  0  0  0  0  0  0
   -9.8221   21.8142  -31.9773 H   0  0  0  0  0  0  0  0  0  0  0  0
   -8.3628   24.0297  -30.8840 H   0  0  0  0  0  0  0  0  0  0  0  0
   -6.2790   24.5940  -28.3500 H   0  0  0  0  0  0  0  0  0  0  0  0
   -5.3620   26.0850  -28.7370 H   0  0  0  0  0  0  0  0  0  0  0  0
   -4.2487   21.1327  -29.1472 H   0  0  0  0  0  0  0  0  0  0  0  0
   -2.5632   21.4324  -29.7667 H   0  0  0  0  0  0  0  0  0  0  0  0
   -1.7846   24.0891  -28.0264 H   0  0  0  0  0  0  0  0  0  0  0  0
   -1.6318   23.6382  -29.7585 H   0  0  0  0  0  0  0  0  0  0  0  0
   -3.7490   25.2900  -29.2310 H   0  0  0  0  0  0  0  0  0  0  0  0
   -5.2352   19.7429  -32.2057 H   0  0  0  0  0  0  0  0  0  0  0  0
  1  2  1  0
  2  3  1  0
  3  4  2  0
  3  5  1  0
  5  6  1  0
  6  7  2  0
  7  8  1  0
  8  9  2  0
  9 10  1  0
 10 11  2  0
 11 12  1  0
 12 13  1  0
 12 14  2  0
 11 15  1  0
 15 16  1  0
 16 17  2  0
 16 18  1  0
 18 19  1  0
 19 20  2  0
 19 21  1  0
 21 22  1  0
 15 23  1  0
 23 24  2  0
 24  6  1  0
 23  9  1  0
  1 25  1  0
  1 26  1  0
  1 27  1  0
  5 28  1  0
  5 29  1  0
  7 30  1  0
  8 31  1  0
 10 32  1  0
 13 33  1  0
 13 34  1  0
 18 35  1  0
 18 36  1  0
 21 37  1  0
 21 38  1  0
 22 39  1  0
 24 40  1  0
M  END
>  <UniqueID>  (7) 
7

>  <SMILES>  (7) 
COC(=O)Cc1ccc2cc(C(N)=O)n(C(=O)CC(=O)CO)c2c1

>  <Energy>  (7) 
74.09497921873562

>  <Genealogy>  (7) 
COC(=O)Cc1ccc2cc(C(N)=O)n(C(=O)CC(=O)CO)c2c1 (3D coordinates assigned)
COC(=O)Cc1ccc2cc(C(N)=O)n(C(=O)CC(=O)CO)c2c1 (optimized conformer: 74.09497921873562 kcal/mol)

>  <smiles>  (7) 
COC(=O)Cc1ccc2cc(C(N)=O)n(C(=O)CC(=O)CO)c2c1

>  <score_type>  (7) 
oracle

>  <origin>  (7) 
adg

>  <m_score__min__energy>  (7) 
-8.6199999999999992

>  <m_primary>  (7) 
energy

$$$$
7:0
     RDKit          3D

 37 38  0  0  0  0  0  0  0  0999 V2000
   -9.5200   19.6710  -32.9900 C   0  0  0  0  0  0  0  0  0  0  0  0
   -8.4550   20.2810  -32.0740 C   0  0  0  0  0  0  0  0  0  0  0  0
   -7.6680   19.2030  -31.3280 C   0  0  0  0  0  0  0  0  0  0  0  0
   -9.1480   21.5350  -30.9190 S   0  0  0  0  0  0  0  0  0  0  0  0
   -7.6610   22.5070  -30.6340 C   0  0  0  0  0  0  0  0  0  0  0  0
   -7.3880   22.8790  -29.4620 O   0  0  0  0  0  0  0  0  0  0  0  0
   -6.8060   22.9340  -31.7540 C   0  0  0  0  0  0  0  0  0  0  0  0
   -7.3110   23.5650  -32.7210 O   0  0  0  0  0  0  0  0  0  0  0  0
   -5.3970   22.6510  -31.7540 N   0  0  0  0  0  0  0  0  0  0  0  0
   -4.4280   23.3010  -31.0540 C   0  0  0  0  0  0  0  0  0  0  0  0
   -4.6120   24.5550  -30.3000 C   0  0  0  0  0  0  0  0  0  0  0  0
   -5.2510   24.5570  -29.0240 N   0  0  0  0  0  0  0  0  0  0  0  0
   -4.2430   25.6460  -30.8090 O   0  0  0  0  0  0  0  0  0  0  0  0
   -3.2110   22.6330  -31.1600 C   0  0  0  0  0  0  0  0  0  0  0  0
   -3.4660   21.5400  -31.9580 C   0  0  0  0  0  0  0  0  0  0  0  0
   -2.6210   20.5120  -32.3660 C   0  0  0  0  0  0  0  0  0  0  0  0
   -3.1700   19.4760  -33.1410 C   0  0  0  0  0  0  0  0  0  0  0  0
   -4.5470   19.4810  -33.4810 C   0  0  0  0  0  0  0  0  0  0  0  0
   -5.1350   18.3590  -34.2890 C   0  0  0  0  0  0  0  0  0  0  0  0
   -6.1140   18.8540  -35.1290 F   0  0  0  0  0  0  0  0  0  0  0  0
   -4.1450   17.7600  -35.0450 F   0  0  0  0  0  0  0  0  0  0  0  0
   -5.3740   20.5380  -33.0420 C   0  0  0  0  0  0  0  0  0  0  0  0
   -4.7950   21.5690  -32.2950 C   0  0  0  0  0  0  0  0  0  0  0  0
  -10.3132   19.2167  -32.3782 H   0  0  0  0  0  0  0  0  0  0  0  0
   -9.9522   20.4585  -33.6249 H   0  0  0  0  0  0  0  0  0  0  0  0
   -9.0595   18.8997  -33.6249 H   0  0  0  0  0  0  0  0  0  0  0  0
   -7.7501   20.8147  -32.7284 H   0  0  0  0  0  0  0  0  0  0  0  0
   -7.7776   19.3532  -30.2438 H   0  0  0  0  0  0  0  0  0  0  0  0
   -8.0555   18.2106  -31.6017 H   0  0  0  0  0  0  0  0  0  0  0  0
   -6.6047   19.2697  -31.6017 H   0  0  0  0  0  0  0  0  0  0  0  0
   -5.3190   25.4400  -28.4710 H   0  0  0  0  0  0  0  0  0  0  0  0
   -5.7530   23.7100  -28.6770 H   0  0  0  0  0  0  0  0  0  0  0  0
   -2.2513   22.9174  -30.7039 H   0  0  0  0  0  0  0  0  0  0  0  0
   -1.5561   20.5104  -32.0903 H   0  0  0  0  0  0  0  0  0  0  0  0
   -2.5261   18.6540  -33.4869 H   0  0  0  0  0  0  0  0  0  0  0  0
   -5.5759   17.6169  -33.6071 H   0  0  0  0  0  0  0  0  0  0  0  0
   -6.4475   20.5503  -33.2817 H   0  0  0  0  0  0  0  0  0  0  0  0
  1  2  1  0
  2  3  1  0
  2  4  1  0
  4  5  1  0
  5  6  2  0
  5  7  1  0
  7  8  2  0
  7  9  1  0
  9 10  1  0
 10 11  1  0
 11 12  1  0
 11 13  2  0
 10 14  2  0
 14 15  1  0
 15 16  2  0
 16 17  1  0
 17 18  2  0
 18 19  1  0
 19 20  1  0
 19 21  1  0
 18 22  1  0
 22 23  2  0
 23  9  1  0
 23 15  1  0
  1 24  1  0
  1 25  1  0
  1 26  1  0
  2 27  1  0
  3 28  1  0
  3 29  1  0
  3 30  1  0
 12 31  1  0
 12 32  1  0
 14 33  1  0
 16 34  1  0
 17 35  1  0
 19 36  1  0
 22 37  1  0
M  END
>  <UniqueID>  (8) 
8

>  <SMILES>  (8) 
CC(C)SC(=O)C(=O)n1c(C(N)=O)cc2ccc(C(F)F)cc21

>  <Energy>  (8) 
70.9858501246709

>  <Genealogy>  (8) 
CC(C)SC(=O)C(=O)n1c(C(N)=O)cc2ccc(C(F)F)cc21 (3D coordinates assigned)
CC(C)SC(=O)C(=O)n1c(C(N)=O)cc2ccc(C(F)F)cc21 (optimized conformer: 70.9858501246709 kcal/mol)

>  <smiles>  (8) 
CC(C)SC(=O)C(=O)n1c(C(N)=O)cc2ccc(C(F)F)cc21

>  <score_type>  (8) 
oracle

>  <origin>  (8) 
adg

>  <m_score__min__energy>  (8) 
-8.4000000000000004

>  <m_primary>  (8) 
energy

$$$$
8:0
     RDKit          3D

 40 41  0  0  0  0  0  0  0  0999 V2000
   -2.6760   20.6570  -28.3850 C   0  0  0  0  0  0  0  0  0  0  0  0
   -2.4120   22.0970  -28.4710 N   0  0  0  0  0  0  0  0  0  0  0  0
   -1.1790   22.6450  -27.8860 C   0  0  0  0  0  0  0  0  0  0  0  0
   -1.4870   23.8570  -27.1220 N   0  0  0  0  0  0  0  0  0  0  0  0
   -0.7040   25.2310  -27.8410 S   0  0  0  0  0  0  0  0  0  0  0  0
   -1.4720   25.6490  -29.3340 N   0  0  0  0  0  0  0  0  0  0  0  0
    0.7460   24.9210  -28.0880 O   0  0  0  0  0  0  0  0  0  0  0  0
   -0.8020   26.3970  -26.8990 O   0  0  0  0  0  0  0  0  0  0  0  0
   -3.3350   22.9160  -29.2290 C   0  0  0  0  0  0  0  0  0  0  0  0
   -3.7780   23.9770  -28.7080 O   0  0  0  0  0  0  0  0  0  0  0  0
   -3.7840   22.5740  -30.6000 C   0  0  0  0  0  0  0  0  0  0  0  0
   -2.9850   22.0870  -31.4420 O   0  0  0  0  0  0  0  0  0  0  0  0
   -5.1430   22.8170  -30.9940 N   0  0  0  0  0  0  0  0  0  0  0  0
   -5.8290   23.9920  -30.9330 C   0  0  0  0  0  0  0  0  0  0  0  0
   -5.2710   25.3030  -30.5400 C   0  0  0  0  0  0  0  0  0  0  0  0
   -3.9240   25.6530  -30.8510 N   0  0  0  0  0  0  0  0  0  0  0  0
   -5.9980   26.1370  -29.9380 O   0  0  0  0  0  0  0  0  0  0  0  0
   -7.1520   23.8020  -31.3310 C   0  0  0  0  0  0  0  0  0  0  0  0
   -7.2550   22.4620  -31.6340 C   0  0  0  0  0  0  0  0  0  0  0  0
   -8.3530   21.7170  -32.0490 C   0  0  0  0  0  0  0  0  0  0  0  0
   -8.1780   20.3380  -32.2470 C   0  0  0  0  0  0  0  0  0  0  0  0
   -6.9120   19.7290  -32.0350 C   0  0  0  0  0  0  0  0  0  0  0  0
   -6.7520   18.2380  -32.1920 C   0  0  0  0  0  0  0  0  0  0  0  0
   -6.1280   17.6950  -31.0830 F   0  0  0  0  0  0  0  0  0  0  0  0
   -7.9870   17.6270  -32.3360 F   0  0  0  0  0  0  0  0  0  0  0  0
   -5.9880   17.9770  -33.3130 F   0  0  0  0  0  0  0  0  0  0  0  0
   -5.8280   20.5170  -31.5870 C   0  0  0  0  0  0  0  0  0  0  0  0
   -6.0280   21.8910  -31.4170 C   0  0  0  0  0  0  0  0  0  0  0  0
   -2.7310   20.3568  -27.3282 H   0  0  0  0  0  0  0  0  0  0  0  0
   -3.6309   20.4290  -28.8812 H   0  0  0  0  0  0  0  0  0  0  0  0
   -1.8641   20.1051  -28.8812 H   0  0  0  0  0  0  0  0  0  0  0  0
   -0.7283   21.8968  -27.2174 H   0  0  0  0  0  0  0  0  0  0  0  0
   -0.4741   22.8941  -28.6929 H   0  0  0  0  0  0  0  0  0  0  0  0
   -2.5180   24.0230  -27.1810 H   0  0  0  0  0  0  0  0  0  0  0  0
   -2.5000   25.6750  -29.1560 H   0  0  0  0  0  0  0  0  0  0  0  0
   -3.1220   25.1740  -30.3860 H   0  0  0  0  0  0  0  0  0  0  0  0
   -7.9455   24.5615  -31.3904 H   0  0  0  0  0  0  0  0  0  0  0  0
   -9.3299   22.1938  -32.2173 H   0  0  0  0  0  0  0  0  0  0  0  0
   -9.0305   19.7224  -32.5698 H   0  0  0  0  0  0  0  0  0  0  0  0
   -4.8495   20.0605  -31.3768 H   0  0  0  0  0  0  0  0  0  0  0  0
  1  2  1  0
  2  3  1  0
  3  4  1  0
  4  5  1  0
  5  6  1  0
  5  7  2  0
  5  8  2  0
  2  9  1  0
  9 10  2  0
  9 11  1  0
 11 12  2  0
 11 13  1  0
 13 14  1  0
 14 15  1  0
 15 16  1  0
 15 17  2  0
 14 18  2  0
 18 19  1  0
 19 20  2  0
 20 21  1  0
 21 22  2  0
 22 23  1  0
 23 24  1  0
 23 25  1  0
 23 26  1  0
 22 27  1  0
 27 28  2  0
 28 13  1  0
 28 19  1  0
  1 29  1  0
  1 30  1  0
  1 31  1  0
  3 32  1  0
  3 33  1  0
  4 34  1  0
  6 35  1  0
 16 36  1  0
 18 37  1  0
 20 38  1  0
 21 39  1  0
 27 40  1  0
M  CHG  2   6  -1  16  -1
M  END
>  <UniqueID>  (9) 
9

>  <SMILES>  (9) 
CN(CNS([NH-])(=O)=O)C(=O)C(=O)n1c(C([NH-])=O)cc2ccc(C(F)(F)F)cc21

>  <Energy>  (9) 
76.33799278995632

>  <Genealogy>  (9) 
CN(CNS([NH-])(=O)=O)C(=O)C(=O)n1c(C([NH-])=O)cc2ccc(C(F)(F)F)cc21 (protonated)
CN(CNS([NH-])(=O)=O)C(=O)C(=O)n1c(C([NH-])=O)cc2ccc(C(F)(F)F)cc21 (3D coordinates assigned)
CN(CNS([NH-])(=O)=O)C(=O)C(=O)n1c(C([NH-])=O)cc2ccc(C(F)(F)F)cc21 (optimized conformer: 76.33799278995632 kcal/mol)

>  <smiles>  (9) 
CN(CNS(N)(=O)=O)C(=O)C(=O)n1c(C(N)=O)cc2ccc(C(F)(F)F)cc21

>  <score_type>  (9) 
oracle

>  <origin>  (9) 
adg

>  <m_score__min__energy>  (9) 
-12.56

>  <m_primary>  (9) 
energy

$$$$
9:0
     RDKit          3D

 42 44  0  0  0  0  0  0  0  0999 V2000
   -4.9130   15.0310  -31.9510 C   0  0  0  0  0  0  0  0  0  0  0  0
   -5.5750   16.2280  -32.4470 N   0  0  0  0  0  0  0  0  0  0  0  0
   -6.0800   16.4160  -33.6770 C   0  0  0  0  0  0  0  0  0  0  0  0
   -6.5500   17.6700  -33.8230 N   0  0  0  0  0  0  0  0  0  0  0  0
   -6.2880   18.2210  -32.6140 C   0  0  0  0  0  0  0  0  0  0  0  0
   -6.6140   19.6190  -32.2600 C   0  0  0  0  0  0  0  0  0  0  0  0
   -7.9490   20.0890  -32.3520 C   0  0  0  0  0  0  0  0  0  0  0  0
   -8.2700   21.4130  -32.0080 C   0  0  0  0  0  0  0  0  0  0  0  0
   -7.2390   22.2470  -31.5870 C   0  0  0  0  0  0  0  0  0  0  0  0
   -7.2730   23.5600  -31.1770 C   0  0  0  0  0  0  0  0  0  0  0  0
   -5.9550   23.8830  -30.8610 C   0  0  0  0  0  0  0  0  0  0  0  0
   -5.5230   25.2370  -30.4540 C   0  0  0  0  0  0  0  0  0  0  0  0
   -4.2370   25.7160  -30.8390 N   0  0  0  0  0  0  0  0  0  0  0  0
   -6.2630   25.9630  -29.7400 O   0  0  0  0  0  0  0  0  0  0  0  0
   -5.1390   22.8090  -31.0620 N   0  0  0  0  0  0  0  0  0  0  0  0
   -3.7300   22.7080  -30.8060 C   0  0  0  0  0  0  0  0  0  0  0  0
   -2.9040   23.0430  -31.6970 O   0  0  0  0  0  0  0  0  0  0  0  0
   -3.2880   22.2740  -29.5470 O   0  0  0  0  0  0  0  0  0  0  0  0
   -2.7310   23.1110  -28.5240 C   0  0  0  0  0  0  0  0  0  0  0  0
   -2.0420   22.2420  -27.4540 C   0  0  0  0  0  0  0  0  0  0  0  0
   -3.8870   23.8840  -27.8770 C   0  0  0  0  0  0  0  0  0  0  0  0
   -1.7660   24.1110  -29.1240 C   0  0  0  0  0  0  0  0  0  0  0  0
   -2.1380   25.2950  -29.3420 O   0  0  0  0  0  0  0  0  0  0  0  0
   -0.4430   23.7610  -29.3650 O   0  0  0  0  0  0  0  0  0  0  0  0
   -5.9400   21.8170  -31.5090 C   0  0  0  0  0  0  0  0  0  0  0  0
   -5.5940   20.4970  -31.8260 C   0  0  0  0  0  0  0  0  0  0  0  0
   -5.6860   17.3570  -31.7720 N   0  0  0  0  0  0  0  0  0  0  0  0
   -4.9173   15.0387  -30.8510 H   0  0  0  0  0  0  0  0  0  0  0  0
   -5.4466   14.1400  -32.3135 H   0  0  0  0  0  0  0  0  0  0  0  0
   -3.8747   15.0093  -32.3135 H   0  0  0  0  0  0  0  0  0  0  0  0
   -6.1064   15.6466  -34.4627 H   0  0  0  0  0  0  0  0  0  0  0  0
   -8.7422   19.4092  -32.6966 H   0  0  0  0  0  0  0  0  0  0  0  0
   -9.3054   21.7792  -32.0697 H   0  0  0  0  0  0  0  0  0  0  0  0
   -8.1539   24.2156  -31.1124 H   0  0  0  0  0  0  0  0  0  0  0  0
   -3.4200   25.0690  -30.9030 H   0  0  0  0  0  0  0  0  0  0  0  0
   -2.3254   22.5995  -26.4531 H   0  0  0  0  0  0  0  0  0  0  0  0
   -2.3581   21.1951  -27.5726 H   0  0  0  0  0  0  0  0  0  0  0  0
   -0.9506   22.3111  -27.5726 H   0  0  0  0  0  0  0  0  0  0  0  0
   -3.7997   23.8256  -26.7820 H   0  0  0  0  0  0  0  0  0  0  0  0
   -3.8459   24.9370  -28.1925 H   0  0  0  0  0  0  0  0  0  0  0  0
   -4.8444   23.4438  -28.1925 H   0  0  0  0  0  0  0  0  0  0  0  0
   -4.5532   20.1516  -31.7393 H   0  0  0  0  0  0  0  0  0  0  0  0
  1  2  1  0
  2  3  1  0
  3  4  2  0
  4  5  1  0
  5  6  1  0
  6  7  2  0
  7  8  1  0
  8  9  2  0
  9 10  1  0
 10 11  2  0
 11 12  1  0
 12 13  1  0
 12 14  2  0
 11 15  1  0
 15 16  1  0
 16 17  2  0
 16 18  1  0
 18 19  1  0
 19 20  1  0
 19 21  1  0
 19 22  1  0
 22 23  2  0
 22 24  1  0
 15 25  1  0
 25 26  2  0
  5 27  2  0
 27  2  1  0
 26  6  1  0
 25  9  1  0
  1 28  1  0
  1 29  1  0
  1 30  1  0
  3 31  1  0
  7 32  1  0
  8 33  1  0
 10 34  1  0
 13 35  1  0
 20 36  1  0
 20 37  1  0
 20 38  1  0
 21 39  1  0
 21 40  1  0
 21 41  1  0
 26 42  1  0
M  CHG  2  13  -1  24  -1
M  END
>  <UniqueID>  (10) 
10

>  <SMILES>  (10) 
Cn1cnc(-c2ccc3cc(C([NH-])=O)n(C(=O)OC(C)(C)C(=O)[O-])c3c2)n1

>  <Energy>  (10) 
111.70116996458671

>  <Genealogy>  (10) 
Cn1cnc(-c2ccc3cc(C([NH-])=O)n(C(=O)OC(C)(C)C(=O)[O-])c3c2)n1 (protonated)
Cn1cnc(-c2ccc3cc(C([NH-])=O)n(C(=O)OC(C)(C)C(=O)[O-])c3c2)n1 (3D coordinates assigned)
Cn1cnc(-c2ccc3cc(C([NH-])=O)n(C(=O)OC(C)(C)C(=O)[O-])c3c2)n1 (optimized conformer: 111.70116996458671 kcal/mol)

>  <smiles>  (10) 
Cn1cnc(-c2ccc3cc(C(N)=O)n(C(=O)OC(C)(C)C(=O)O)c3c2)n1

>  <score_type>  (10) 
oracle

>  <origin>  (10) 
adg

>  <m_score__min__energy>  (10) 
-13.619999999999999

>  <m_primary>  (10) 
energy

$$$$
10:0
     RDKit          3D

 34 35  0  0  0  0  0  0  0  0999 V2000
   -1.4230   20.1760  -33.1030 C   0  0  0  0  0  0  0  0  0  0  0  0
   -1.8140   21.1690  -32.0980 N   0  0  0  0  0  0  0  0  0  0  0  0
   -0.9300   21.4260  -30.9550 C   0  0  0  0  0  0  0  0  0  0  0  0
   -3.0260   21.9300  -32.3120 C   0  0  0  0  0  0  0  0  0  0  0  0
   -3.5310   21.9620  -33.4670 O   0  0  0  0  0  0  0  0  0  0  0  0
   -3.7100   22.6830  -31.2320 C   0  0  0  0  0  0  0  0  0  0  0  0
   -3.0700   23.1300  -30.2450 O   0  0  0  0  0  0  0  0  0  0  0  0
   -5.1280   22.8950  -31.2920 N   0  0  0  0  0  0  0  0  0  0  0  0
   -5.8190   24.0040  -30.9060 C   0  0  0  0  0  0  0  0  0  0  0  0
   -5.2250   25.2750  -30.4410 C   0  0  0  0  0  0  0  0  0  0  0  0
   -3.9150   25.6660  -30.8450 N   0  0  0  0  0  0  0  0  0  0  0  0
   -5.8930   26.0390  -29.6940 O   0  0  0  0  0  0  0  0  0  0  0  0
   -7.1910   23.7930  -31.0450 C   0  0  0  0  0  0  0  0  0  0  0  0
   -7.3160   22.5090  -31.5280 C   0  0  0  0  0  0  0  0  0  0  0  0
   -8.4570   21.7680  -31.8210 C   0  0  0  0  0  0  0  0  0  0  0  0
   -8.2870   20.4470  -32.2690 C   0  0  0  0  0  0  0  0  0  0  0  0
   -6.9890   19.8940  -32.4260 C   0  0  0  0  0  0  0  0  0  0  0  0
   -6.8220   18.4570  -32.8510 C   0  0  0  0  0  0  0  0  0  0  0  0
   -6.4580   18.3810  -34.1840 F   0  0  0  0  0  0  0  0  0  0  0  0
   -5.8380   17.8660  -32.0810 F   0  0  0  0  0  0  0  0  0  0  0  0
   -8.0060   17.7590  -32.6850 F   0  0  0  0  0  0  0  0  0  0  0  0
   -5.8560   20.6730  -32.0910 C   0  0  0  0  0  0  0  0  0  0  0  0
   -6.0570   21.9900  -31.6650 C   0  0  0  0  0  0  0  0  0  0  0  0
   -1.0647   19.2661  -32.5994 H   0  0  0  0  0  0  0  0  0  0  0  0
   -2.2911   19.9293  -33.7319 H   0  0  0  0  0  0  0  0  0  0  0  0
   -0.6198   20.5875  -33.7319 H   0  0  0  0  0  0  0  0  0  0  0  0
   -1.4847   21.2647  -30.0189 H   0  0  0  0  0  0  0  0  0  0  0  0
   -0.0706   20.7405  -30.9947 H   0  0  0  0  0  0  0  0  0  0  0  0
   -0.5721   22.4654  -30.9947 H   0  0  0  0  0  0  0  0  0  0  0  0
   -3.0700   25.2920  -30.3590 H   0  0  0  0  0  0  0  0  0  0  0  0
   -8.0010   24.5015  -30.8173 H   0  0  0  0  0  0  0  0  0  0  0  0
   -9.4608   22.2029  -31.7055 H   0  0  0  0  0  0  0  0  0  0  0  0
   -9.1704   19.8340  -32.5009 H   0  0  0  0  0  0  0  0  0  0  0  0
   -4.8420   20.2530  -32.1639 H   0  0  0  0  0  0  0  0  0  0  0  0
  1  2  1  0
  2  3  1  0
  2  4  1  0
  4  5  2  0
  4  6  1  0
  6  7  2  0
  6  8  1  0
  8  9  1  0
  9 10  1  0
 10 11  1  0
 10 12  2  0
  9 13  2  0
 13 14  1  0
 14 15  2  0
 15 16  1  0
 16 17  2  0
 17 18  1  0
 18 19  1  0
 18 20  1  0
 18 21  1  0
 17 22  1  0
 22 23  2  0
 23  8  1  0
 23 14  1  0
  1 24  1  0
  1 25  1  0
  1 26  1  0
  3 27  1  0
  3 28  1  0
  3 29  1  0
 11 30  1  0
 13 31  1  0
 15 32  1  0
 16 33  1  0
 22 34  1  0
M  CHG  1  11  -1
M  END
>  <UniqueID>  (11) 
11

>  <SMILES>  (11) 
CN(C)C(=O)C(=O)n1c(C([NH-])=O)cc2ccc(C(F)(F)F)cc21

>  <Energy>  (11) 
74.98773795164163

>  <Genealogy>  (11) 
CN(C)C(=O)C(=O)n1c(C([NH-])=O)cc2ccc(C(F)(F)F)cc21 (protonated)
CN(C)C(=O)C(=O)n1c(C([NH-])=O)cc2ccc(C(F)(F)F)cc21 (3D coordinates assigned)
CN(C)C(=O)C(=O)n1c(C([NH-])=O)cc2ccc(C(F)(F)F)cc21 (optimized conformer: 74.98773795164163 kcal/mol)

>  <smiles>  (11) 
CN(C)C(=O)C(=O)n1c(C(N)=O)cc2ccc(C(F)(F)F)cc21

>  <score_type>  (11) 
oracle

>  <origin>  (11) 
adg

>  <m_score__min__energy>  (11) 
-9.6699999999999999

>  <m_primary>  (11) 
energy

$$$$
11:0
     RDKit          3D

 44 45  0  0  0  0  0  0  0  0999 V2000
   -4.1050   23.7240  -28.0690 C   0  0  0  0  0  0  0  0  0  0  0  0
   -2.9410   22.9770  -28.7150 C   0  0  1  0  0  0  0  0  0  0  0  0
   -3.4430   22.1330  -29.7500 O   0  0  0  0  0  0  0  0  0  0  0  0
   -3.8970   22.6120  -30.9850 C   0  0  0  0  0  0  0  0  0  0  0  0
   -3.0710   22.9160  -31.8890 O   0  0  0  0  0  0  0  0  0  0  0  0
   -5.3050   22.7680  -31.2170 N   0  0  0  0  0  0  0  0  0  0  0  0
   -6.0740   23.8630  -30.9590 C   0  0  0  0  0  0  0  0  0  0  0  0
   -5.5780   25.1890  -30.5430 C   0  0  0  0  0  0  0  0  0  0  0  0
   -4.2040   25.5480  -30.6960 N   0  0  0  0  0  0  0  0  0  0  0  0
   -6.3920   26.0410  -30.0930 O   0  0  0  0  0  0  0  0  0  0  0  0
   -7.4190   23.5850  -31.1870 C   0  0  0  0  0  0  0  0  0  0  0  0
   -7.4530   22.2750  -31.6080 C   0  0  0  0  0  0  0  0  0  0  0  0
   -8.5370   21.4750  -31.9520 C   0  0  0  0  0  0  0  0  0  0  0  0
   -8.2850   20.1400  -32.3070 C   0  0  0  0  0  0  0  0  0  0  0  0
   -6.9630   19.6290  -32.3050 C   0  0  0  0  0  0  0  0  0  0  0  0
   -6.7050   18.1820  -32.6530 C   0  0  0  0  0  0  0  0  0  0  0  0
   -5.7860   18.0050  -33.8890 C   0  0  0  0  0  0  0  0  0  0  0  0
   -4.3010   18.0050  -33.4670 C   0  0  0  0  0  0  0  0  0  0  0  0
   -6.1250   16.6660  -34.5710 C   0  0  0  0  0  0  0  0  0  0  0  0
   -6.0290   19.0600  -34.7900 O   0  0  0  0  0  0  0  0  0  0  0  0
   -5.8870   20.4720  -31.9480 C   0  0  0  0  0  0  0  0  0  0  0  0
   -6.1650   21.8030  -31.6180 C   0  0  0  0  0  0  0  0  0  0  0  0
   -1.9480   23.9540  -29.2740 C   0  0  0  0  0  0  0  0  0  0  0  0
   -0.8220   23.5570  -29.6760 O   0  0  0  0  0  0  0  0  0  0  0  0
   -2.2840   25.2970  -29.3860 O   0  0  0  0  0  0  0  0  0  0  0  0
   -4.0152   23.6664  -26.9742 H   0  0  0  0  0  0  0  0  0  0  0  0
   -4.0842   24.7778  -28.3837 H   0  0  0  0  0  0  0  0  0  0  0  0
   -5.0544   23.2661  -28.3837 H   0  0  0  0  0  0  0  0  0  0  0  0
   -2.4330   22.3614  -27.9581 H   0  0  0  0  0  0  0  0  0  0  0  0
   -3.8640   26.4750  -30.3590 H   0  0  0  0  0  0  0  0  0  0  0  0
   -3.5420   24.9340  -31.2200 H   0  0  0  0  0  0  0  0  0  0  0  0
   -8.2725   24.2669  -31.0582 H   0  0  0  0  0  0  0  0  0  0  0  0
   -9.5613   21.8759  -31.9462 H   0  0  0  0  0  0  0  0  0  0  0  0
   -9.1219   19.4843  -32.5894 H   0  0  0  0  0  0  0  0  0  0  0  0
   -6.2278   17.6947  -31.7900 H   0  0  0  0  0  0  0  0  0  0  0  0
   -7.6757   17.7273  -32.8999 H   0  0  0  0  0  0  0  0  0  0  0  0
   -3.9483   16.9679  -33.3668 H   0  0  0  0  0  0  0  0  0  0  0  0
   -3.7028   18.5235  -34.2307 H   0  0  0  0  0  0  0  0  0  0  0  0
   -4.1938   18.5235  -32.5028 H   0  0  0  0  0  0  0  0  0  0  0  0
   -6.3184   15.9022  -33.8034 H   0  0  0  0  0  0  0  0  0  0  0  0
   -7.0200   16.7903  -35.1983 H   0  0  0  0  0  0  0  0  0  0  0  0
   -5.2787   16.3494  -35.1983 H   0  0  0  0  0  0  0  0  0  0  0  0
   -6.8210   18.8200  -35.3390 H   0  0  0  0  0  0  0  0  0  0  0  0
   -4.8552   20.0911  -31.9299 H   0  0  0  0  0  0  0  0  0  0  0  0
  1  2  1  0
  2  3  1  0
  3  4  1  0
  4  5  2  0
  4  6  1  0
  6  7  1  0
  7  8  1  0
  8  9  1  0
  8 10  2  0
  7 11  2  0
 11 12  1  0
 12 13  2  0
 13 14  1  0
 14 15  2  0
 15 16  1  0
 16 17  1  0
 17 18  1  0
 17 19  1  0
 17 20  1  0
 15 21  1  0
 21 22  2  0
  2 23  1  0
 23 24  2  0
 23 25  1  0
 22  6  1  0
 22 12  1  0
  1 26  1  0
  1 27  1  0
  1 28  1  0
  2 29  1  1
  9 30  1  0
  9 31  1  0
 11 32  1  0
 13 33  1  0
 14 34  1  0
 16 35  1  0
 16 36  1  0
 18 37  1  0
 18 38  1  0
 18 39  1  0
 19 40  1  0
 19 41  1  0
 19 42  1  0
 20 43  1  0
 21 44  1  0
M  CHG  1  25  -1
M  END
>  <UniqueID>  (12) 
12

>  <SMILES>  (12) 
C[C@@H](OC(=O)n1c(C(N)=O)cc2ccc(CC(C)(C)O)cc21)C(=O)[O-]

>  <Energy>  (12) 
74.49956626210604

>  <Genealogy>  (12) 
CC(OC(=O)n1c(C(N)=O)cc2ccc(CC(C)(C)O)cc21)C(=O)[O-] (protonated)
C[C@@H](OC(=O)n1c(C(N)=O)cc2ccc(CC(C)(C)O)cc21)C(=O)[O-] (chirality)
C[C@@H](OC(=O)n1c(C(N)=O)cc2ccc(CC(C)(C)O)cc21)C(=O)[O-] (3D coordinates assigned)
C[C@@H](OC(=O)n1c(C(N)=O)cc2ccc(CC(C)(C)O)cc21)C(=O)[O-] (optimized conformer: 74.49956626210604 kcal/mol)

>  <smiles>  (12) 
CC(OC(=O)n1c(C(N)=O)cc2ccc(CC(C)(C)O)cc21)C(=O)O

>  <score_type>  (12) 
oracle

>  <origin>  (12) 
adg

>  <m_score__min__energy>  (12) 
-11.300000000000001

>  <m_primary>  (12) 
energy

$$$$
12:0
     RDKit          3D

 53 55  0  0  0  0  0  0  0  0999 V2000
   -9.3370   22.0810  -31.9670 C   0  0  0  0  0  0  0  0  0  0  0  0
   -8.3930   23.0210  -31.9610 C   0  0  0  0  0  0  0  0  0  0  0  0
   -7.2560   23.0040  -31.0230 C   0  0  0  0  0  0  0  0  0  0  0  0
   -7.4670   23.2560  -29.8060 O   0  0  0  0  0  0  0  0  0  0  0  0
   -5.9160   22.7220  -31.4610 N   0  0  0  0  0  0  0  0  0  0  0  0
   -4.7760   23.3710  -31.0960 C   0  0  0  0  0  0  0  0  0  0  0  0
   -4.7060   24.6040  -30.2860 C   0  0  0  0  0  0  0  0  0  0  0  0
   -5.2450   24.6580  -28.9640 N   0  0  0  0  0  0  0  0  0  0  0  0
   -4.2000   25.6450  -30.7860 O   0  0  0  0  0  0  0  0  0  0  0  0
   -3.6550   22.7110  -31.5960 C   0  0  0  0  0  0  0  0  0  0  0  0
   -4.1500   21.6260  -32.2840 C   0  0  0  0  0  0  0  0  0  0  0  0
   -3.4790   20.6150  -32.9670 C   0  0  0  0  0  0  0  0  0  0  0  0
   -4.2460   19.5940  -33.5520 C   0  0  0  0  0  0  0  0  0  0  0  0
   -5.6580   19.5880  -33.4220 C   0  0  0  0  0  0  0  0  0  0  0  0
   -6.4720   18.5030  -34.0780 C   0  0  0  0  0  0  0  0  0  0  0  0
   -6.5960   17.2880  -33.1930 C   0  0  0  0  0  0  0  0  0  0  0  0
   -7.1150   17.4060  -32.0480 O   0  0  0  0  0  0  0  0  0  0  0  0
   -6.0580   16.0140  -33.5960 N   0  0  0  0  0  0  0  0  0  0  0  0
   -6.8400   14.9550  -34.2140 C   0  0  0  0  0  0  0  0  0  0  0  0
   -5.8450   13.8520  -34.5500 C   0  0  0  0  0  0  0  0  0  0  0  0
   -4.6070   14.1410  -33.7070 C   0  0  0  0  0  0  0  0  0  0  0  0
   -4.6660   15.6350  -33.3860 C   0  0  1  0  0  0  0  0  0  0  0  0
   -3.7510   16.4220  -34.3030 C   0  0  0  0  0  0  0  0  0  0  0  0
   -4.2220   16.8740  -35.3850 O   0  0  0  0  0  0  0  0  0  0  0  0
   -2.3500   16.6110  -34.0050 N   0  0  0  0  0  0  0  0  0  0  0  0
   -1.5210   17.3750  -34.9420 C   0  0  0  0  0  0  0  0  0  0  0  0
   -1.7510   16.0410  -32.7930 C   0  0  0  0  0  0  0  0  0  0  0  0
   -6.3040   20.6320  -32.7240 C   0  0  0  0  0  0  0  0  0  0  0  0
   -5.5160   21.6500  -32.1770 C   0  0  0  0  0  0  0  0  0  0  0  0
  -10.1661   22.1387  -32.6876 H   0  0  0  0  0  0  0  0  0  0  0  0
   -9.2874   21.2471  -31.2513 H   0  0  0  0  0  0  0  0  0  0  0  0
   -8.4650   23.8446  -32.6866 H   0  0  0  0  0  0  0  0  0  0  0  0
   -5.8450   23.8900  -28.5910 H   0  0  0  0  0  0  0  0  0  0  0  0
   -5.1320   25.5220  -28.3890 H   0  0  0  0  0  0  0  0  0  0  0  0
   -2.6003   22.9960  -31.4683 H   0  0  0  0  0  0  0  0  0  0  0  0
   -2.3818   20.6159  -33.0460 H   0  0  0  0  0  0  0  0  0  0  0  0
   -3.7470   18.7921  -34.1159 H   0  0  0  0  0  0  0  0  0  0  0  0
   -7.4782   18.8922  -34.2925 H   0  0  0  0  0  0  0  0  0  0  0  0
   -5.9605   18.2024  -35.0043 H   0  0  0  0  0  0  0  0  0  0  0  0
   -7.6032   14.5833  -33.5144 H   0  0  0  0  0  0  0  0  0  0  0  0
   -7.3700   15.3110  -35.1097 H   0  0  0  0  0  0  0  0  0  0  0  0
   -6.2627   12.8674  -34.2928 H   0  0  0  0  0  0  0  0  0  0  0  0
   -5.6088   13.8321  -35.6242 H   0  0  0  0  0  0  0  0  0  0  0  0
   -4.6267   13.5484  -32.7805 H   0  0  0  0  0  0  0  0  0  0  0  0
   -3.6817   13.8759  -34.2395 H   0  0  0  0  0  0  0  0  0  0  0  0
   -4.3315   15.8467  -32.3597 H   0  0  0  0  0  0  0  0  0  0  0  0
   -0.8262   18.0153  -34.3788 H   0  0  0  0  0  0  0  0  0  0  0  0
   -0.9487   16.6810  -35.5752 H   0  0  0  0  0  0  0  0  0  0  0  0
   -2.1660   18.0019  -35.5752 H   0  0  0  0  0  0  0  0  0  0  0  0
   -2.2219   16.4891  -31.9056 H   0  0  0  0  0  0  0  0  0  0  0  0
   -1.9101   14.9526  -32.7823 H   0  0  0  0  0  0  0  0  0  0  0  0
   -0.6719   16.2539  -32.7823 H   0  0  0  0  0  0  0  0  0  0  0  0
   -7.3984   20.6443  -32.6134 H   0  0  0  0  0  0  0  0  0  0  0  0
  1  2  2  0
  2  3  1  0
  3  4  2  0
  3  5  1  0
  5  6  1  0
  6  7  1  0
  7  8  1  0
  7  9  2  0
  6 10  2  0
 10 11  1  0
 11 12  2  0
 12 13  1  0
 13 14  2  0
 14 15  1  0
 15 16  1  0
 16 17  2  0
 16 18  1  0
 18 19  1  0
 19 20  1  0
 20 21  1  0
 21 22  1  0
 22 23  1  0
 23 24  2  0
 23 25  1  0
 25 26  1  0
 25 27  1  0
 14 28  1  0
 28 29  2  0
 29  5  1  0
 29 11  1  0
 22 18  1  0
  1 30  1  0
  1 31  1  0
  2 32  1  0
  8 33  1  0
  8 34  1  0
 10 35  1  0
 12 36  1  0
 13 37  1  0
 15 38  1  0
 15 39  1  0
 19 40  1  0
 19 41  1  0
 20 42  1  0
 20 43  1  0
 21 44  1  0
 21 45  1  0
 22 46  1  1
 26 47  1  0
 26 48  1  0
 26 49  1  0
 27 50  1  0
 27 51  1  0
 27 52  1  0
 28 53  1  0
M  END
>  <UniqueID>  (13) 
13

>  <SMILES>  (13) 
C=CC(=O)n1c(C(N)=O)cc2ccc(CC(=O)N3CCC[C@H]3C(=O)N(C)C)cc21

>  <Energy>  (13) 
89.90593982917667

>  <Genealogy>  (13) 
C=CC(=O)n1c(C(N)=O)cc2ccc(CC(=O)N3CCC[C@H]3C(=O)N(C)C)cc21 (3D coordinates assigned)
C=CC(=O)n1c(C(N)=O)cc2ccc(CC(=O)N3CCC[C@H]3C(=O)N(C)C)cc21 (nonaromatic ring conformer: 89.90593982917667 kcal/mol)

>  <smiles>  (13) 
C=CC(=O)n1c(C(N)=O)cc2ccc(CC(=O)N3CCC[C@H]3C(=O)N(C)C)cc21

>  <score_type>  (13) 
oracle

>  <origin>  (13) 
adg

>  <m_score__min__energy>  (13) 
-9.5700000000000003

>  <m_primary>  (13) 
energy

$$$$
13:0
     RDKit          3D

 41 42  0  0  0  0  0  0  0  0999 V2000
   -9.0770   18.9640  -32.3480 C   0  0  0  0  0  0  0  0  0  0  0  0
   -8.6710   19.7530  -31.2370 O   0  0  0  0  0  0  0  0  0  0  0  0
   -8.5360   21.1440  -31.3110 C   0  0  0  0  0  0  0  0  0  0  0  0
   -9.4520   21.8960  -30.8770 O   0  0  0  0  0  0  0  0  0  0  0  0
   -7.2570   21.7390  -31.8400 C   0  0  2  0  0  0  0  0  0  0  0  0
   -7.3210   23.2650  -31.9900 C   0  0  0  0  0  0  0  0  0  0  0  0
   -6.8500   21.1040  -33.0970 N   0  0  0  0  0  0  0  0  0  0  0  0
   -5.9960   19.9660  -33.2960 C   0  0  0  0  0  0  0  0  0  0  0  0
   -5.9150   19.4820  -34.4560 O   0  0  0  0  0  0  0  0  0  0  0  0
   -5.2570   19.2900  -32.1670 C   0  0  0  0  0  0  0  0  0  0  0  0
   -4.0280   20.0680  -31.7740 C   0  0  0  0  0  0  0  0  0  0  0  0
   -2.7420   19.5830  -32.1180 C   0  0  0  0  0  0  0  0  0  0  0  0
   -1.5850   20.2750  -31.7220 C   0  0  0  0  0  0  0  0  0  0  0  0
   -1.7460   21.4460  -30.9870 C   0  0  0  0  0  0  0  0  0  0  0  0
   -0.8030   22.2920  -30.4490 C   0  0  0  0  0  0  0  0  0  0  0  0
   -1.5280   23.2840  -29.7910 C   0  0  0  0  0  0  0  0  0  0  0  0
   -0.9090   24.4330  -29.0960 C   0  0  0  0  0  0  0  0  0  0  0  0
   -1.6050   25.6750  -29.0190 N   0  0  0  0  0  0  0  0  0  0  0  0
    0.2210   24.3250  -28.5510 O   0  0  0  0  0  0  0  0  0  0  0  0
   -2.8660   23.0620  -29.9220 N   0  0  0  0  0  0  0  0  0  0  0  0
   -3.9400   23.8200  -29.3450 C   0  0  0  0  0  0  0  0  0  0  0  0
   -4.3400   23.5500  -28.1820 O   0  0  0  0  0  0  0  0  0  0  0  0
   -4.5770   24.9150  -30.0920 C   0  0  0  0  0  0  0  0  0  0  0  0
   -3.8920   25.6510  -30.8510 O   0  0  0  0  0  0  0  0  0  0  0  0
   -5.9380   25.1560  -29.9500 O   0  0  0  0  0  0  0  0  0  0  0  0
   -2.9830   21.9320  -30.6520 C   0  0  0  0  0  0  0  0  0  0  0  0
   -4.1510   21.2540  -31.0160 C   0  0  0  0  0  0  0  0  0  0  0  0
   -9.5525   18.0400  -31.9873 H   0  0  0  0  0  0  0  0  0  0  0  0
   -9.7949   19.5318  -32.9581 H   0  0  0  0  0  0  0  0  0  0  0  0
   -8.1977   18.7099  -32.9581 H   0  0  0  0  0  0  0  0  0  0  0  0
   -6.4877   21.5304  -31.0819 H   0  0  0  0  0  0  0  0  0  0  0  0
   -7.3405   23.7309  -30.9937 H   0  0  0  0  0  0  0  0  0  0  0  0
   -6.4368   23.6166  -32.5419 H   0  0  0  0  0  0  0  0  0  0  0  0
   -8.2315   23.5413  -32.5419 H   0  0  0  0  0  0  0  0  0  0  0  0
   -5.9255   19.2124  -31.2969 H   0  0  0  0  0  0  0  0  0  0  0  0
   -4.9425   18.2920  -32.5062 H   0  0  0  0  0  0  0  0  0  0  0  0
   -2.6484   18.6550  -32.7012 H   0  0  0  0  0  0  0  0  0  0  0  0
   -0.5836   19.9031  -31.9846 H   0  0  0  0  0  0  0  0  0  0  0  0
    0.2910   22.2039  -30.5227 H   0  0  0  0  0  0  0  0  0  0  0  0
   -2.6440   25.7160  -29.1180 H   0  0  0  0  0  0  0  0  0  0  0  0
   -5.1397   21.6343  -30.7198 H   0  0  0  0  0  0  0  0  0  0  0  0
  1  2  1  0
  2  3  1  0
  3  4  2  0
  3  5  1  0
  5  6  1  0
  5  7  1  0
  7  8  1  0
  8  9  2  0
  8 10  1  0
 10 11  1  0
 11 12  2  0
 12 13  1  0
 13 14  2  0
 14 15  1  0
 15 16  2  0
 16 17  1  0
 17 18  1  0
 17 19  2  0
 16 20  1  0
 20 21  1  0
 21 22  2  0
 21 23  1  0
 23 24  2  0
 23 25  1  0
 20 26  1  0
 26 27  2  0
 27 11  1  0
 26 14  1  0
  1 28  1  0
  1 29  1  0
  1 30  1  0
  5 31  1  1
  6 32  1  0
  6 33  1  0
  6 34  1  0
 10 35  1  0
 10 36  1  0
 12 37  1  0
 13 38  1  0
 15 39  1  0
 18 40  1  0
 27 41  1  0
M  CHG  3   7  -1  18  -1  25  -1
M  END
>  <UniqueID>  (14) 
14

>  <SMILES>  (14) 
COC(=O)[C@H](C)[N-]C(=O)Cc1ccc2cc(C([NH-])=O)n(C(=O)C(=O)[O-])c2c1

>  <Energy>  (14) 
75.80211872030172

>  <Genealogy>  (14) 
COC(=O)C(C)[N-]C(=O)Cc1ccc2cc(C([NH-])=O)n(C(=O)C(=O)[O-])c2c1 (protonated)
COC(=O)[C@H](C)[N-]C(=O)Cc1ccc2cc(C([NH-])=O)n(C(=O)C(=O)[O-])c2c1 (chirality)
COC(=O)[C@H](C)[N-]C(=O)Cc1ccc2cc(C([NH-])=O)n(C(=O)C(=O)[O-])c2c1 (3D coordinates assigned)
COC(=O)[C@H](C)[N-]C(=O)Cc1ccc2cc(C([NH-])=O)n(C(=O)C(=O)[O-])c2c1 (optimized conformer: 75.80211872030172 kcal/mol)

>  <smiles>  (14) 
COC(=O)C(C)NC(=O)Cc1ccc2cc(C(N)=O)n(C(=O)C(=O)O)c2c1

>  <score_type>  (14) 
oracle

>  <origin>  (14) 
adg

>  <m_score__min__energy>  (14) 
-11.380000000000001

>  <m_primary>  (14) 
energy

$$$$
14:0
     RDKit          3D

 37 38  0  0  0  0  0  0  0  0999 V2000
   -1.9120   25.2070  -27.2490 C   0  0  0  0  0  0  0  0  0  0  0  0
   -2.8690   24.2940  -27.8830 N   0  0  0  0  0  0  0  0  0  0  0  0
   -4.2220   24.1510  -27.3410 C   0  0  0  0  0  0  0  0  0  0  0  0
   -2.4700   23.5890  -29.0780 C   0  0  0  0  0  0  0  0  0  0  0  0
   -1.4470   23.9640  -29.7090 O   0  0  0  0  0  0  0  0  0  0  0  0
   -3.1850   22.3500  -29.5450 C   0  0  0  0  0  0  0  0  0  0  0  0
   -3.7950   22.5760  -30.8990 C   0  0  0  0  0  0  0  0  0  0  0  0
   -3.0690   22.5010  -31.9290 O   0  0  0  0  0  0  0  0  0  0  0  0
   -5.1970   22.8580  -31.0360 N   0  0  0  0  0  0  0  0  0  0  0  0
   -5.8330   24.0440  -30.8200 C   0  0  0  0  0  0  0  0  0  0  0  0
   -5.1960   25.3190  -30.4240 C   0  0  0  0  0  0  0  0  0  0  0  0
   -3.8750   25.6500  -30.8450 N   0  0  0  0  0  0  0  0  0  0  0  0
   -5.8300   26.1340  -29.6990 O   0  0  0  0  0  0  0  0  0  0  0  0
   -7.2080   23.8940  -30.9910 C   0  0  0  0  0  0  0  0  0  0  0  0
   -7.3950   22.5700  -31.3210 C   0  0  0  0  0  0  0  0  0  0  0  0
   -8.5630   21.8770  -31.6220 C   0  0  0  0  0  0  0  0  0  0  0  0
   -8.4530   20.5160  -31.9590 C   0  0  0  0  0  0  0  0  0  0  0  0
   -7.1870   19.8760  -31.9900 C   0  0  0  0  0  0  0  0  0  0  0  0
   -7.0870   18.4330  -32.4120 C   0  0  0  0  0  0  0  0  0  0  0  0
   -6.6550   18.3660  -33.7230 F   0  0  0  0  0  0  0  0  0  0  0  0
   -6.1960   17.7410  -31.6110 F   0  0  0  0  0  0  0  0  0  0  0  0
   -8.3200   17.8180  -32.3100 F   0  0  0  0  0  0  0  0  0  0  0  0
   -6.0220   20.6250  -31.7040 C   0  0  0  0  0  0  0  0  0  0  0  0
   -6.1650   21.9690  -31.3480 C   0  0  0  0  0  0  0  0  0  0  0  0
   -1.9971   25.1258  -26.1553 H   0  0  0  0  0  0  0  0  0  0  0  0
   -0.8906   24.9401  -27.5581 H   0  0  0  0  0  0  0  0  0  0  0  0
   -2.1306   26.2398  -27.5581 H   0  0  0  0  0  0  0  0  0  0  0  0
   -4.1791   24.1555  -26.2418 H   0  0  0  0  0  0  0  0  0  0  0  0
   -4.8460   24.9882  -27.6870 H   0  0  0  0  0  0  0  0  0  0  0  0
   -4.6572   23.2019  -27.6870 H   0  0  0  0  0  0  0  0  0  0  0  0
   -2.4675   21.5184  -29.6050 H   0  0  0  0  0  0  0  0  0  0  0  0
   -3.9847   22.1085  -28.8293 H   0  0  0  0  0  0  0  0  0  0  0  0
   -3.0420   25.2860  -30.3340 H   0  0  0  0  0  0  0  0  0  0  0  0
   -7.9809   24.6695  -30.8848 H   0  0  0  0  0  0  0  0  0  0  0  0
   -9.5421   22.3778  -31.5972 H   0  0  0  0  0  0  0  0  0  0  0  0
   -9.3589   19.9410  -32.2014 H   0  0  0  0  0  0  0  0  0  0  0  0
   -5.0264   20.1606  -31.7604 H   0  0  0  0  0  0  0  0  0  0  0  0
  1  2  1  0
  2  3  1  0
  2  4  1  0
  4  5  2  0
  4  6  1  0
  6  7  1  0
  7  8  2  0
  7  9  1  0
  9 10  1  0
 10 11  1  0
 11 12  1  0
 11 13  2  0
 10 14  2  0
 14 15  1  0
 15 16  2  0
 16 17  1  0
 17 18  2  0
 18 19  1  0
 19 20  1  0
 19 21  1  0
 19 22  1  0
 18 23  1  0
 23 24  2  0
 24  9  1  0
 24 15  1  0
  1 25  1  0
  1 26  1  0
  1 27  1  0
  3 28  1  0
  3 29  1  0
  3 30  1  0
  6 31  1  0
  6 32  1  0
 12 33  1  0
 14 34  1  0
 16 35  1  0
 17 36  1  0
 23 37  1  0
M  CHG  1  12  -1
M  END
>  <UniqueID>  (15) 
15

>  <SMILES>  (15) 
CN(C)C(=O)CC(=O)n1c(C([NH-])=O)cc2ccc(C(F)(F)F)cc21

>  <Energy>  (15) 
73.40084485705651

>  <Genealogy>  (15) 
CN(C)C(=O)CC(=O)n1c(C([NH-])=O)cc2ccc(C(F)(F)F)cc21 (protonated)
CN(C)C(=O)CC(=O)n1c(C([NH-])=O)cc2ccc(C(F)(F)F)cc21 (3D coordinates assigned)
CN(C)C(=O)CC(=O)n1c(C([NH-])=O)cc2ccc(C(F)(F)F)cc21 (optimized conformer: 73.40084485705651 kcal/mol)

>  <smiles>  (15) 
CN(C)C(=O)CC(=O)n1c(C(N)=O)cc2ccc(C(F)(F)F)cc21

>  <score_type>  (15) 
oracle

>  <origin>  (15) 
adg

>  <m_score__min__energy>  (15) 
-9.8900000000000006

>  <m_primary>  (15) 
energy

$$$$
15:0
     RDKit          3D

 35 36  0  0  0  0  0  0  0  0999 V2000
    0.3240   23.7450  -27.6050 C   0  0  0  0  0  0  0  0  0  0  0  0
   -0.0720   24.4390  -28.7810 O   0  0  0  0  0  0  0  0  0  0  0  0
   -1.3470   24.3050  -29.3390 C   0  0  0  0  0  0  0  0  0  0  0  0
   -2.1550   25.2720  -29.3410 O   0  0  0  0  0  0  0  0  0  0  0  0
   -1.7710   22.9860  -29.9000 C   0  0  0  0  0  0  0  0  0  0  0  0
   -3.1820   22.9630  -30.0980 O   0  0  0  0  0  0  0  0  0  0  0  0
   -3.7820   22.6850  -31.3320 C   0  0  0  0  0  0  0  0  0  0  0  0
   -3.0740   22.3520  -32.3220 O   0  0  0  0  0  0  0  0  0  0  0  0
   -5.2090   22.7800  -31.4680 N   0  0  0  0  0  0  0  0  0  0  0  0
   -6.0100   23.8030  -31.0580 C   0  0  0  0  0  0  0  0  0  0  0  0
   -5.5500   25.1090  -30.5430 C   0  0  0  0  0  0  0  0  0  0  0  0
   -4.1800   25.5010  -30.6370 N   0  0  0  0  0  0  0  0  0  0  0  0
   -6.3910   25.9160  -30.0630 O   0  0  0  0  0  0  0  0  0  0  0  0
   -7.3530   23.4790  -31.2310 C   0  0  0  0  0  0  0  0  0  0  0  0
   -7.3530   22.2160  -31.7780 C   0  0  0  0  0  0  0  0  0  0  0  0
   -8.4200   21.4020  -32.1460 C   0  0  0  0  0  0  0  0  0  0  0  0
   -8.1300   20.1250  -32.6530 C   0  0  0  0  0  0  0  0  0  0  0  0
   -6.7890   19.6800  -32.7600 C   0  0  0  0  0  0  0  0  0  0  0  0
   -6.4920   18.3230  -33.3250 C   0  0  0  0  0  0  0  0  0  0  0  0
   -5.7310   20.5370  -32.3900 C   0  0  0  0  0  0  0  0  0  0  0  0
   -6.0470   21.8150  -31.9080 C   0  0  0  0  0  0  0  0  0  0  0  0
    0.0010   24.3111  -26.7189 H   0  0  0  0  0  0  0  0  0  0  0  0
   -0.1414   22.7484  -27.5931 H   0  0  0  0  0  0  0  0  0  0  0  0
    1.4188   23.6386  -27.5931 H   0  0  0  0  0  0  0  0  0  0  0  0
   -1.2667   22.8227  -30.8638 H   0  0  0  0  0  0  0  0  0  0  0  0
   -1.4963   22.1909  -29.1912 H   0  0  0  0  0  0  0  0  0  0  0  0
   -3.4910   24.9310  -31.1760 H   0  0  0  0  0  0  0  0  0  0  0  0
   -3.8650   26.4090  -30.2310 H   0  0  0  0  0  0  0  0  0  0  0  0
   -8.2269   24.0995  -30.9835 H   0  0  0  0  0  0  0  0  0  0  0  0
   -9.4589   21.7483  -32.0429 H   0  0  0  0  0  0  0  0  0  0  0  0
   -8.9507   19.4646  -32.9697 H   0  0  0  0  0  0  0  0  0  0  0  0
   -6.3358   17.6095  -32.5025 H   0  0  0  0  0  0  0  0  0  0  0  0
   -7.3385   17.9900  -33.9435 H   0  0  0  0  0  0  0  0  0  0  0  0
   -5.5838   18.3741  -33.9435 H   0  0  0  0  0  0  0  0  0  0  0  0
   -4.6842   20.2105  -32.4775 H   0  0  0  0  0  0  0  0  0  0  0  0
  1  2  1  0
  2  3  1  0
  3  4  2  0
  3  5  1  0
  5  6  1  0
  6  7  1  0
  7  8  2  0
  7  9  1  0
  9 10  1  0
 10 11  1  0
 11 12  1  0
 11 13  2  0
 10 14  2  0
 14 15  1  0
 15 16  2  0
 16 17  1  0
 17 18  2  0
 18 19  1  0
 18 20  1  0
 20 21  2  0
 21  9  1  0
 21 15  1  0
  1 22  1  0
  1 23  1  0
  1 24  1  0
  5 25  1  0
  5 26  1  0
 12 27  1  0
 12 28  1  0
 14 29  1  0
 16 30  1  0
 17 31  1  0
 19 32  1  0
 19 33  1  0
 19 34  1  0
 20 35  1  0
M  END
>  <UniqueID>  (16) 
16

>  <SMILES>  (16) 
COC(=O)COC(=O)n1c(C(N)=O)cc2ccc(C)cc21

>  <Energy>  (16) 
68.87075513615964

>  <Genealogy>  (16) 
COC(=O)COC(=O)n1c(C(N)=O)cc2ccc(C)cc21 (3D coordinates assigned)
COC(=O)COC(=O)n1c(C(N)=O)cc2ccc(C)cc21 (optimized conformer: 68.87075513615964 kcal/mol)

>  <smiles>  (16) 
COC(=O)COC(=O)n1c(C(N)=O)cc2ccc(C)cc21

>  <score_type>  (16) 
oracle

>  <origin>  (16) 
adg

>  <m_score__min__energy>  (16) 
-8.7200000000000006

>  <m_primary>  (16) 
energy

$$$$
16:0
     RDKit          3D

 43 45  0  0  0  0  0  0  0  0999 V2000
   -4.1760   25.5190  -30.6070 N   0  0  0  0  0  0  0  0  0  0  0  0
   -5.4650   24.9860  -30.3000 C   0  0  0  0  0  0  0  0  0  0  0  0
   -6.1770   25.5520  -29.4280 O   0  0  0  0  0  0  0  0  0  0  0  0
   -5.9530   23.7470  -30.9390 C   0  0  0  0  0  0  0  0  0  0  0  0
   -7.3030   23.4520  -31.1050 C   0  0  0  0  0  0  0  0  0  0  0  0
   -7.3320   22.1980  -31.6700 C   0  0  0  0  0  0  0  0  0  0  0  0
   -8.4170   21.4220  -32.0660 C   0  0  0  0  0  0  0  0  0  0  0  0
   -8.1560   20.1770  -32.6610 C   0  0  0  0  0  0  0  0  0  0  0  0
   -6.8230   19.7310  -32.8540 C   0  0  0  0  0  0  0  0  0  0  0  0
   -6.5680   18.4610  -33.4890 N   0  0  0  0  0  0  0  0  0  0  0  0
   -5.7460   18.3690  -34.7000 C   0  0  0  0  0  0  0  0  0  0  0  0
   -4.6510   17.2970  -34.5320 C   0  0  0  0  0  0  0  0  0  0  0  0
   -5.0080   16.2220  -33.5820 N   0  0  0  0  0  0  0  0  0  0  0  0
   -6.4560   15.9940  -33.5090 C   0  0  0  0  0  0  0  0  0  0  0  0
   -7.1690   17.2330  -32.9520 C   0  0  0  0  0  0  0  0  0  0  0  0
   -5.7480   20.5540  -32.4500 C   0  0  0  0  0  0  0  0  0  0  0  0
   -6.0370   21.7810  -31.8390 C   0  0  0  0  0  0  0  0  0  0  0  0
   -5.1750   22.7240  -31.3960 N   0  0  0  0  0  0  0  0  0  0  0  0
   -3.7420   22.6950  -31.5050 C   0  0  0  0  0  0  0  0  0  0  0  0
   -3.0280   23.0090  -30.5130 O   0  0  0  0  0  0  0  0  0  0  0  0
   -3.1430   22.3230  -32.7120 O   0  0  0  0  0  0  0  0  0  0  0  0
   -2.5840   21.0330  -32.9300 C   0  0  0  0  0  0  0  0  0  0  0  0
   -1.6000   20.7090  -31.8170 C   0  0  0  0  0  0  0  0  0  0  0  0
   -0.6350   21.6980  -31.7370 F   0  0  0  0  0  0  0  0  0  0  0  0
   -3.4980   24.9850  -31.1930 H   0  0  0  0  0  0  0  0  0  0  0  0
   -3.8650   26.4170  -30.1750 H   0  0  0  0  0  0  0  0  0  0  0  0
   -8.1625   24.0857  -30.8410 H   0  0  0  0  0  0  0  0  0  0  0  0
   -9.4487   21.7734  -31.9174 H   0  0  0  0  0  0  0  0  0  0  0  0
   -8.9942   19.5406  -32.9809 H   0  0  0  0  0  0  0  0  0  0  0  0
   -6.3871   18.1005  -35.5526 H   0  0  0  0  0  0  0  0  0  0  0  0
   -5.2653   19.3424  -34.8773 H   0  0  0  0  0  0  0  0  0  0  0  0
   -4.4582   16.8414  -35.5145 H   0  0  0  0  0  0  0  0  0  0  0  0
   -3.7658   17.8053  -34.1221 H   0  0  0  0  0  0  0  0  0  0  0  0
   -4.6660   16.4890  -32.6290 H   0  0  0  0  0  0  0  0  0  0  0  0
   -6.8396   15.7786  -34.5172 H   0  0  0  0  0  0  0  0  0  0  0  0
   -6.6482   15.1426  -32.8395 H   0  0  0  0  0  0  0  0  0  0  0  0
   -8.2312   17.1966  -33.2354 H   0  0  0  0  0  0  0  0  0  0  0  0
   -7.0671   17.2381  -31.8567 H   0  0  0  0  0  0  0  0  0  0  0  0
   -4.7068   20.2382  -32.6117 H   0  0  0  0  0  0  0  0  0  0  0  0
   -3.3879   20.2822  -32.9380 H   0  0  0  0  0  0  0  0  0  0  0  0
   -2.0592   21.0208  -33.8967 H   0  0  0  0  0  0  0  0  0  0  0  0
   -2.1392   20.6476  -30.8602 H   0  0  0  0  0  0  0  0  0  0  0  0
   -1.1139   19.7462  -32.0331 H   0  0  0  0  0  0  0  0  0  0  0  0
  1  2  1  0
  2  3  2  0
  2  4  1  0
  4  5  2  0
  5  6  1  0
  6  7  2  0
  7  8  1  0
  8  9  2  0
  9 10  1  0
 10 11  1  0
 11 12  1  0
 12 13  1  0
 13 14  1  0
 14 15  1  0
  9 16  1  0
 16 17  2  0
 17 18  1  0
 18 19  1  0
 19 20  2  0
 19 21  1  0
 21 22  1  0
 22 23  1  0
 23 24  1  0
 18  4  1  0
 17  6  1  0
 15 10  1  0
  1 25  1  0
  1 26  1  0
  5 27  1  0
  7 28  1  0
  8 29  1  0
 11 30  1  0
 11 31  1  0
 12 32  1  0
 12 33  1  0
 13 34  1  0
 14 35  1  0
 14 36  1  0
 15 37  1  0
 15 38  1  0
 16 39  1  0
 22 40  1  0
 22 41  1  0
 23 42  1  0
 23 43  1  0
M  END
>  <UniqueID>  (17) 
17

>  <SMILES>  (17) 
NC(=O)c1cc2ccc(N3CCNCC3)cc2n1C(=O)OCCF

>  <Energy>  (17) 
86.67827472846506

>  <Genealogy>  (17) 
NC(=O)c1cc2ccc(N3CCNCC3)cc2n1C(=O)OCCF (3D coordinates assigned)
NC(=O)c1cc2ccc(N3CCNCC3)cc2n1C(=O)OCCF (nonaromatic ring conformer: 86.67827472846506 kcal/mol)

>  <smiles>  (17) 
NC(=O)c1cc2ccc(N3CCNCC3)cc2n1C(=O)OCCF

>  <score_type>  (17) 
oracle

>  <origin>  (17) 
adg

>  <m_score__min__energy>  (17) 
-9.2400000000000002

>  <m_primary>  (17) 
energy

$$$$
17:0
     RDKit          3D

 54 56  0  0  0  0  0  0  0  0999 V2000
   -3.4160   13.1310  -32.9510 C   0  0  0  0  0  0  0  0  0  0  0  0
   -2.9420   14.4710  -32.8920 O   0  0  0  0  0  0  0  0  0  0  0  0
   -3.3750   15.4660  -33.7760 C   0  0  0  0  0  0  0  0  0  0  0  0
   -2.7000   15.7250  -34.8120 O   0  0  0  0  0  0  0  0  0  0  0  0
   -4.5890   16.1930  -33.5090 N   0  0  0  0  0  0  0  0  0  0  0  0
   -5.1060   17.1240  -34.5250 C   0  0  0  0  0  0  0  0  0  0  0  0
   -6.4620   17.7000  -34.1160 C   0  0  0  0  0  0  0  0  0  0  0  0
   -6.4000   18.1490  -32.7200 N   0  0  0  0  0  0  0  0  0  0  0  0
   -6.7010   19.5140  -32.3730 C   0  0  0  0  0  0  0  0  0  0  0  0
   -8.0390   19.9830  -32.4060 C   0  0  0  0  0  0  0  0  0  0  0  0
   -8.3450   21.3060  -32.0440 C   0  0  0  0  0  0  0  0  0  0  0  0
   -7.2970   22.1360  -31.6590 C   0  0  0  0  0  0  0  0  0  0  0  0
   -7.3150   23.4420  -31.2260 C   0  0  0  0  0  0  0  0  0  0  0  0
   -5.9850   23.7580  -30.9560 C   0  0  0  0  0  0  0  0  0  0  0  0
   -5.5380   25.0950  -30.5170 C   0  0  0  0  0  0  0  0  0  0  0  0
   -4.1800   25.5100  -30.6700 N   0  0  0  0  0  0  0  0  0  0  0  0
   -6.3820   25.9060  -30.0490 O   0  0  0  0  0  0  0  0  0  0  0  0
   -5.1780   22.6880  -31.1990 N   0  0  0  0  0  0  0  0  0  0  0  0
   -3.7690   22.5730  -30.9440 C   0  0  0  0  0  0  0  0  0  0  0  0
   -2.9420   22.9050  -31.8370 O   0  0  0  0  0  0  0  0  0  0  0  0
   -3.3280   22.1140  -29.6950 O   0  0  0  0  0  0  0  0  0  0  0  0
   -2.7750   22.9290  -28.6530 C   0  0  0  0  0  0  0  0  0  0  0  0
   -2.0720   22.0360  -27.6110 C   0  0  0  0  0  0  0  0  0  0  0  0
   -3.9380   23.6690  -27.9810 C   0  0  0  0  0  0  0  0  0  0  0  0
   -1.8300   23.9570  -29.2350 C   0  0  0  0  0  0  0  0  0  0  0  0
   -0.6460   23.6480  -29.5360 O   0  0  0  0  0  0  0  0  0  0  0  0
   -2.2390   25.2790  -29.3630 O   0  0  0  0  0  0  0  0  0  0  0  0
   -5.9960   21.7030  -31.6330 C   0  0  0  0  0  0  0  0  0  0  0  0
   -5.6670   20.3850  -31.9640 C   0  0  0  0  0  0  0  0  0  0  0  0
   -5.8910   17.2360  -31.6860 C   0  0  0  0  0  0  0  0  0  0  0  0
   -5.3670   15.9240  -32.2900 C   0  0  0  0  0  0  0  0  0  0  0  0
   -3.5525   12.7451  -31.9300 H   0  0  0  0  0  0  0  0  0  0  0  0
   -4.3777   13.1054  -33.4843 H   0  0  0  0  0  0  0  0  0  0  0  0
   -2.6843   12.5064  -33.4843 H   0  0  0  0  0  0  0  0  0  0  0  0
   -4.3900   17.9495  -34.6513 H   0  0  0  0  0  0  0  0  0  0  0  0
   -5.2349   16.5712  -35.4672 H   0  0  0  0  0  0  0  0  0  0  0  0
   -6.7093   18.5529  -34.7652 H   0  0  0  0  0  0  0  0  0  0  0  0
   -7.2363   16.9254  -34.2188 H   0  0  0  0  0  0  0  0  0  0  0  0
   -8.8460   19.3039  -32.7183 H   0  0  0  0  0  0  0  0  0  0  0  0
   -9.3814   21.6740  -32.0644 H   0  0  0  0  0  0  0  0  0  0  0  0
   -8.1921   24.0968  -31.1164 H   0  0  0  0  0  0  0  0  0  0  0  0
   -3.8740   26.4430  -30.3140 H   0  0  0  0  0  0  0  0  0  0  0  0
   -3.4970   24.9350  -31.2110 H   0  0  0  0  0  0  0  0  0  0  0  0
   -2.3383   22.3743  -26.5988 H   0  0  0  0  0  0  0  0  0  0  0  0
   -2.3938   20.9927  -27.7454 H   0  0  0  0  0  0  0  0  0  0  0  0
   -0.9824   22.1038  -27.7454 H   0  0  0  0  0  0  0  0  0  0  0  0
   -3.8326   23.6020  -26.8881 H   0  0  0  0  0  0  0  0  0  0  0  0
   -3.9256   24.7257  -28.2864 H   0  0  0  0  0  0  0  0  0  0  0  0
   -4.8899   23.2102  -28.2864 H   0  0  0  0  0  0  0  0  0  0  0  0
   -4.6260   20.0342  -31.9072 H   0  0  0  0  0  0  0  0  0  0  0  0
   -5.0709   17.7317  -31.1459 H   0  0  0  0  0  0  0  0  0  0  0  0
   -6.7213   16.9919  -31.0071 H   0  0  0  0  0  0  0  0  0  0  0  0
   -4.7242   15.4181  -31.5545 H   0  0  0  0  0  0  0  0  0  0  0  0
   -6.2236   15.2841  -32.5484 H   0  0  0  0  0  0  0  0  0  0  0  0
  1  2  1  0
  2  3  1  0
  3  4  2  0
  3  5  1  0
  5  6  1  0
  6  7  1  0
  7  8  1  0
  8  9  1  0
  9 10  2  0
 10 11  1  0
 11 12  2  0
 12 13  1  0
 13 14  2  0
 14 15  1  0
 15 16  1  0
 15 17  2  0
 14 18  1  0
 18 19  1  0
 19 20  2  0
 19 21  1  0
 21 22  1  0
 22 23  1  0
 22 24  1  0
 22 25  1  0
 25 26  2  0
 25 27  1  0
 18 28  1  0
 28 29  2  0
  8 30  1  0
 30 31  1  0
 31  5  1  0
 29  9  1  0
 28 12  1  0
  1 32  1  0
  1 33  1  0
  1 34  1  0
  6 35  1  0
  6 36  1  0
  7 37  1  0
  7 38  1  0
 10 39  1  0
 11 40  1  0
 13 41  1  0
 16 42  1  0
 16 43  1  0
 23 44  1  0
 23 45  1  0
 23 46  1  0
 24 47  1  0
 24 48  1  0
 24 49  1  0
 29 50  1  0
 30 51  1  0
 30 52  1  0
 31 53  1  0
 31 54  1  0
M  CHG  1  27  -1
M  END
>  <UniqueID>  (18) 
18

>  <SMILES>  (18) 
COC(=O)N1CCN(c2ccc3cc(C(N)=O)n(C(=O)OC(C)(C)C(=O)[O-])c3c2)CC1

>  <Energy>  (18) 
92.0455466358395

>  <Genealogy>  (18) 
COC(=O)N1CCN(c2ccc3cc(C(N)=O)n(C(=O)OC(C)(C)C(=O)[O-])c3c2)CC1 (protonated)
COC(=O)N1CCN(c2ccc3cc(C(N)=O)n(C(=O)OC(C)(C)C(=O)[O-])c3c2)CC1 (3D coordinates assigned)
COC(=O)N1CCN(c2ccc3cc(C(N)=O)n(C(=O)OC(C)(C)C(=O)[O-])c3c2)CC1 (nonaromatic ring conformer: 92.0455466358395 kcal/mol)

>  <smiles>  (18) 
COC(=O)N1CCN(c2ccc3cc(C(N)=O)n(C(=O)OC(C)(C)C(=O)O)c3c2)CC1

>  <score_type>  (18) 
oracle

>  <origin>  (18) 
adg

>  <m_score__min__energy>  (18) 
-12.81

>  <m_primary>  (18) 
energy

$$$$
18:0
     RDKit          3D

 34 35  0  0  0  0  0  0  0  0999 V2000
   -9.5770   21.4980  -31.5650 C   0  0  0  0  0  0  0  0  0  0  0  0
   -8.1540   21.2220  -31.9510 C   0  0  0  0  0  0  0  0  0  0  0  0
   -7.8640   20.2950  -32.9810 C   0  0  0  0  0  0  0  0  0  0  0  0
   -6.5360   20.0440  -33.3650 C   0  0  0  0  0  0  0  0  0  0  0  0
   -5.5260   20.7530  -32.7210 C   0  0  0  0  0  0  0  0  0  0  0  0
   -4.1590   20.6730  -32.8630 C   0  0  0  0  0  0  0  0  0  0  0  0
   -3.6410   21.5900  -31.9510 C   0  0  0  0  0  0  0  0  0  0  0  0
   -2.1950   21.8400  -31.7740 C   0  0  0  0  0  0  0  0  0  0  0  0
   -1.6780   22.3960  -30.5640 N   0  0  0  0  0  0  0  0  0  0  0  0
   -1.4060   21.5990  -32.7270 O   0  0  0  0  0  0  0  0  0  0  0  0
   -4.6440   22.2110  -31.2710 N   0  0  0  0  0  0  0  0  0  0  0  0
   -4.5160   23.1100  -30.1590 C   0  0  0  0  0  0  0  0  0  0  0  0
   -4.8430   22.7140  -29.0090 O   0  0  0  0  0  0  0  0  0  0  0  0
   -3.9560   24.4670  -30.3570 C   0  0  0  0  0  0  0  0  0  0  0  0
   -4.5560   25.2630  -31.1260 O   0  0  0  0  0  0  0  0  0  0  0  0
   -2.7560   24.9200  -29.7130 N   0  0  0  0  0  0  0  0  0  0  0  0
   -2.3590   24.6310  -28.3410 C   0  0  0  0  0  0  0  0  0  0  0  0
   -1.2230   25.5560  -27.9230 C   0  0  0  0  0  0  0  0  0  0  0  0
   -1.2020   26.6760  -28.7360 F   0  0  0  0  0  0  0  0  0  0  0  0
   -1.4100   25.9560  -26.6120 F   0  0  0  0  0  0  0  0  0  0  0  0
   -0.0120   24.8950  -28.0240 F   0  0  0  0  0  0  0  0  0  0  0  0
   -5.7930   21.6820  -31.7490 C   0  0  0  0  0  0  0  0  0  0  0  0
   -7.1040   21.9310  -31.3270 C   0  0  0  0  0  0  0  0  0  0  0  0
   -9.6628   21.5146  -30.4685 H   0  0  0  0  0  0  0  0  0  0  0  0
   -9.8848   22.4726  -31.9717 H   0  0  0  0  0  0  0  0  0  0  0  0
  -10.2268   20.7092  -31.9717 H   0  0  0  0  0  0  0  0  0  0  0  0
   -8.6862   19.7662  -33.4854 H   0  0  0  0  0  0  0  0  0  0  0  0
   -6.3017   19.3100  -34.1501 H   0  0  0  0  0  0  0  0  0  0  0  0
   -3.5960   20.0238  -33.5498 H   0  0  0  0  0  0  0  0  0  0  0  0
   -2.3120   22.7880  -29.8340 H   0  0  0  0  0  0  0  0  0  0  0  0
   -0.6490   22.5120  -30.4400 H   0  0  0  0  0  0  0  0  0  0  0  0
   -3.2190   24.7847  -27.6726 H   0  0  0  0  0  0  0  0  0  0  0  0
   -2.0183   23.5872  -28.2753 H   0  0  0  0  0  0  0  0  0  0  0  0
   -7.3112   22.6601  -30.5299 H   0  0  0  0  0  0  0  0  0  0  0  0
  1  2  1  0
  2  3  2  0
  3  4  1  0
  4  5  2  0
  5  6  1  0
  6  7  2  0
  7  8  1  0
  8  9  1  0
  8 10  2  0
  7 11  1  0
 11 12  1  0
 12 13  2  0
 12 14  1  0
 14 15  2  0
 14 16  1  0
 16 17  1  0
 17 18  1  0
 18 19  1  0
 18 20  1  0
 18 21  1  0
 11 22  1  0
 22 23  2  0
 23  2  1  0
 22  5  1  0
  1 24  1  0
  1 25  1  0
  1 26  1  0
  3 27  1  0
  4 28  1  0
  6 29  1  0
  9 30  1  0
  9 31  1  0
 17 32  1  0
 17 33  1  0
 23 34  1  0
M  CHG  1  16  -1
M  END
>  <UniqueID>  (19) 
19

>  <SMILES>  (19) 
Cc1ccc2cc(C(N)=O)n(C(=O)C(=O)[N-]CC(F)(F)F)c2c1

>  <Energy>  (19) 
71.09732816280385

>  <Genealogy>  (19) 
Cc1ccc2cc(C(N)=O)n(C(=O)C(=O)[N-]CC(F)(F)F)c2c1 (protonated)
Cc1ccc2cc(C(N)=O)n(C(=O)C(=O)[N-]CC(F)(F)F)c2c1 (3D coordinates assigned)
Cc1ccc2cc(C(N)=O)n(C(=O)C(=O)[N-]CC(F)(F)F)c2c1 (optimized conformer: 71.09732816280385 kcal/mol)

>  <smiles>  (19) 
Cc1ccc2cc(C(N)=O)n(C(=O)C(=O)NCC(F)(F)F)c2c1

>  <score_type>  (19) 
oracle

>  <origin>  (19) 
adg

>  <m_score__min__energy>  (19) 
-8.3900000000000006

>  <m_primary>  (19) 
energy

$$$$
19:0
     RDKit          3D

 50 51  0  0  0  0  0  0  0  0999 V2000
   -2.6470   19.4580  -33.5270 C   0  0  0  0  0  0  0  0  0  0  0  0
   -3.7860   18.9570  -34.2160 O   0  0  0  0  0  0  0  0  0  0  0  0
   -4.6530   18.0150  -33.6510 C   0  0  0  0  0  0  0  0  0  0  0  0
   -4.2000   17.0610  -32.9600 O   0  0  0  0  0  0  0  0  0  0  0  0
   -6.1400   18.1580  -33.8430 C   0  0  2  0  0  0  0  0  0  0  0  0
   -6.4230   19.2550  -34.7750 N   0  0  0  0  0  0  0  0  0  0  0  0
   -6.8460   18.4000  -32.4920 C   0  0  0  0  0  0  0  0  0  0  0  0
   -6.9970   19.8710  -32.2000 C   0  0  0  0  0  0  0  0  0  0  0  0
   -8.2860   20.4620  -32.1650 C   0  0  0  0  0  0  0  0  0  0  0  0
   -8.4430   21.8150  -31.8220 C   0  0  0  0  0  0  0  0  0  0  0  0
   -7.2990   22.5470  -31.5130 C   0  0  0  0  0  0  0  0  0  0  0  0
   -7.1660   23.8500  -31.0890 C   0  0  0  0  0  0  0  0  0  0  0  0
   -5.8000   24.0340  -30.8800 C   0  0  0  0  0  0  0  0  0  0  0  0
   -5.2020   25.3230  -30.4750 C   0  0  0  0  0  0  0  0  0  0  0  0
   -3.8740   25.6700  -30.8580 N   0  0  0  0  0  0  0  0  0  0  0  0
   -5.8880   26.1480  -29.8150 O   0  0  0  0  0  0  0  0  0  0  0  0
   -5.1170   22.8880  -31.1610 N   0  0  0  0  0  0  0  0  0  0  0  0
   -3.7180   22.6250  -30.9840 C   0  0  0  0  0  0  0  0  0  0  0  0
   -3.0830   21.9900  -31.8690 O   0  0  0  0  0  0  0  0  0  0  0  0
   -3.0660   23.0830  -29.8350 O   0  0  0  0  0  0  0  0  0  0  0  0
   -1.6750   23.3840  -29.8070 C   0  0  0  0  0  0  0  0  0  0  0  0
   -1.4270   24.5190  -28.8550 C   0  0  0  0  0  0  0  0  0  0  0  0
   -1.2550   25.6720  -29.3370 O   0  0  0  0  0  0  0  0  0  0  0  0
   -1.3230   24.3180  -27.4280 N   0  0  0  0  0  0  0  0  0  0  0  0
   -1.6100   23.0090  -26.8280 C   0  0  0  0  0  0  0  0  0  0  0  0
   -0.9030   25.4400  -26.5820 C   0  0  0  0  0  0  0  0  0  0  0  0
   -6.0470   21.9910  -31.5500 C   0  0  0  0  0  0  0  0  0  0  0  0
   -5.8620   20.6470  -31.8820 C   0  0  0  0  0  0  0  0  0  0  0  0
   -2.8132   19.3849  -32.4421 H   0  0  0  0  0  0  0  0  0  0  0  0
   -1.7618   18.8662  -33.8030 H   0  0  0  0  0  0  0  0  0  0  0  0
   -2.4851   20.5104  -33.8030 H   0  0  0  0  0  0  0  0  0  0  0  0
   -6.5298   17.2214  -34.2681 H   0  0  0  0  0  0  0  0  0  0  0  0
   -6.4910   18.8820  -35.7500 H   0  0  0  0  0  0  0  0  0  0  0  0
   -5.6460   19.9550  -34.7460 H   0  0  0  0  0  0  0  0  0  0  0  0
   -7.3230   19.7290  -34.5250 H   0  0  0  0  0  0  0  0  0  0  0  0
   -7.8438   17.9380  -32.5230 H   0  0  0  0  0  0  0  0  0  0  0  0
   -6.2304   17.9531  -31.6974 H   0  0  0  0  0  0  0  0  0  0  0  0
   -9.1706   19.8553  -32.4087 H   0  0  0  0  0  0  0  0  0  0  0  0
   -9.4386   22.2821  -31.7982 H   0  0  0  0  0  0  0  0  0  0  0  0
   -7.9677   24.5893  -30.9455 H   0  0  0  0  0  0  0  0  0  0  0  0
   -3.0500   25.1930  -30.4310 H   0  0  0  0  0  0  0  0  0  0  0  0
   -1.1147   22.4976  -29.4746 H   0  0  0  0  0  0  0  0  0  0  0  0
   -1.3419   23.6718  -30.8151 H   0  0  0  0  0  0  0  0  0  0  0  0
   -1.5909   23.0961  -25.7316 H   0  0  0  0  0  0  0  0  0  0  0  0
   -2.6044   22.6675  -27.1514 H   0  0  0  0  0  0  0  0  0  0  0  0
   -0.8497   22.2828  -27.1514 H   0  0  0  0  0  0  0  0  0  0  0  0
   -1.0077   25.1602  -25.5233 H   0  0  0  0  0  0  0  0  0  0  0  0
    0.1480   25.6858  -26.7941 H   0  0  0  0  0  0  0  0  0  0  0  0
   -1.5343   26.3155  -26.7941 H   0  0  0  0  0  0  0  0  0  0  0  0
   -4.8553   20.2038  -31.8953 H   0  0  0  0  0  0  0  0  0  0  0  0
  1  2  1  0
  2  3  1  0
  3  4  2  0
  3  5  1  0
  5  6  1  0
  5  7  1  0
  7  8  1  0
  8  9  2  0
  9 10  1  0
 10 11  2  0
 11 12  1  0
 12 13  2  0
 13 14  1  0
 14 15  1  0
 14 16  2  0
 13 17  1  0
 17 18  1  0
 18 19  2  0
 18 20  1  0
 20 21  1  0
 21 22  1  0
 22 23  2  0
 22 24  1  0
 24 25  1  0
 24 26  1  0
 17 27  1  0
 27 28  2  0
 28  8  1  0
 27 11  1  0
  1 29  1  0
  1 30  1  0
  1 31  1  0
  5 32  1  6
  6 33  1  0
  6 34  1  0
  6 35  1  0
  7 36  1  0
  7 37  1  0
  9 38  1  0
 10 39  1  0
 12 40  1  0
 15 41  1  0
 21 42  1  0
 21 43  1  0
 25 44  1  0
 25 45  1  0
 25 46  1  0
 26 47  1  0
 26 48  1  0
 26 49  1  0
 28 50  1  0
M  CHG  2   6   1  15  -1
M  END
>  <UniqueID>  (20) 
20

>  <SMILES>  (20) 
COC(=O)[C@H]([NH3+])Cc1ccc2cc(C([NH-])=O)n(C(=O)OCC(=O)N(C)C)c2c1

>  <Energy>  (20) 
76.04990439963038

>  <Genealogy>  (20) 
COC(=O)[C@H]([NH3+])Cc1ccc2cc(C([NH-])=O)n(C(=O)OCC(=O)N(C)C)c2c1 (protonated)
COC(=O)[C@H]([NH3+])Cc1ccc2cc(C([NH-])=O)n(C(=O)OCC(=O)N(C)C)c2c1 (3D coordinates assigned)
COC(=O)[C@H]([NH3+])Cc1ccc2cc(C([NH-])=O)n(C(=O)OCC(=O)N(C)C)c2c1 (optimized conformer: 76.04990439963038 kcal/mol)

>  <smiles>  (20) 
COC(=O)[C@H](N)Cc1ccc2cc(C(N)=O)n(C(=O)OCC(=O)N(C)C)c2c1

>  <score_type>  (20) 
oracle

>  <origin>  (20) 
adg

>  <m_score__min__energy>  (20) 
-9.9000000000000004

>  <m_primary>  (20) 
energy

$$$$
20:0
     RDKit          3D

 41 43  0  0  0  0  0  0  0  0999 V2000
   -3.9820   25.6730  -30.8800 N   0  0  0  0  0  0  0  0  0  0  0  0
   -5.2930   25.2960  -30.4650 C   0  0  0  0  0  0  0  0  0  0  0  0
   -5.9240   26.0380  -29.6660 O   0  0  0  0  0  0  0  0  0  0  0  0
   -5.8770   24.0250  -30.9380 C   0  0  0  0  0  0  0  0  0  0  0  0
   -7.2460   23.8240  -31.1090 C   0  0  0  0  0  0  0  0  0  0  0  0
   -7.3670   22.5600  -31.6380 C   0  0  0  0  0  0  0  0  0  0  0  0
   -8.5050   21.8420  -31.9890 C   0  0  0  0  0  0  0  0  0  0  0  0
   -8.3360   20.5390  -32.4820 C   0  0  0  0  0  0  0  0  0  0  0  0
   -7.0400   19.9750  -32.6160 C   0  0  0  0  0  0  0  0  0  0  0  0
   -6.8610   18.5520  -33.1180 C   0  0  1  0  0  0  0  0  0  0  0  0
   -5.5230   18.4110  -33.8750 C   0  0  0  0  0  0  0  0  0  0  0  0
   -5.1090   16.9410  -33.9540 C   0  0  0  0  0  0  0  0  0  0  0  0
   -5.0720   16.2990  -32.5470 C   0  0  0  0  0  0  0  0  0  0  0  0
   -5.6880   17.0970  -31.5460 O   0  0  0  0  0  0  0  0  0  0  0  0
   -6.9710   17.5120  -31.9740 C   0  0  0  0  0  0  0  0  0  0  0  0
   -5.9080   20.7340  -32.2390 C   0  0  0  0  0  0  0  0  0  0  0  0
   -6.1070   22.0370  -31.7680 C   0  0  0  0  0  0  0  0  0  0  0  0
   -5.1800   22.9250  -31.3410 N   0  0  0  0  0  0  0  0  0  0  0  0
   -3.7640   22.7030  -31.2540 C   0  0  0  0  0  0  0  0  0  0  0  0
   -3.1700   22.0660  -32.1670 O   0  0  0  0  0  0  0  0  0  0  0  0
   -3.0510   23.1790  -30.1470 O   0  0  0  0  0  0  0  0  0  0  0  0
   -1.6370   23.0580  -30.0150 C   0  0  0  0  0  0  0  0  0  0  0  0
   -1.0710   24.2680  -29.3440 C   0  0  0  0  0  0  0  0  0  0  0  0
   -1.7330   25.3370  -29.3050 O   0  0  0  0  0  0  0  0  0  0  0  0
    0.1770   24.2080  -28.7350 O   0  0  0  0  0  0  0  0  0  0  0  0
   -3.1370   25.2890  -30.4020 H   0  0  0  0  0  0  0  0  0  0  0  0
   -8.0576   24.5274  -30.8712 H   0  0  0  0  0  0  0  0  0  0  0  0
   -9.5075   22.2822  -31.8834 H   0  0  0  0  0  0  0  0  0  0  0  0
   -9.2182   19.9475  -32.7680 H   0  0  0  0  0  0  0  0  0  0  0  0
   -7.6825   18.3410  -33.8185 H   0  0  0  0  0  0  0  0  0  0  0  0
   -5.6386   18.8105  -34.8934 H   0  0  0  0  0  0  0  0  0  0  0  0
   -4.7462   18.9725  -33.3353 H   0  0  0  0  0  0  0  0  0  0  0  0
   -5.8324   16.3967  -34.5788 H   0  0  0  0  0  0  0  0  0  0  0  0
   -4.1016   16.8837  -34.3919 H   0  0  0  0  0  0  0  0  0  0  0  0
   -5.5935   15.3315  -32.5914 H   0  0  0  0  0  0  0  0  0  0  0  0
   -4.0136   16.1886  -32.2683 H   0  0  0  0  0  0  0  0  0  0  0  0
   -7.5311   16.6368  -32.3351 H   0  0  0  0  0  0  0  0  0  0  0  0
   -7.4924   17.9770  -31.1243 H   0  0  0  0  0  0  0  0  0  0  0  0
   -4.8955   20.3107  -32.3141 H   0  0  0  0  0  0  0  0  0  0  0  0
   -1.4040   22.1673  -29.4130 H   0  0  0  0  0  0  0  0  0  0  0  0
   -1.1918   22.9642  -31.0165 H   0  0  0  0  0  0  0  0  0  0  0  0
  1  2  1  0
  2  3  2  0
  2  4  1  0
  4  5  2  0
  5  6  1  0
  6  7  2  0
  7  8  1  0
  8  9  2  0
  9 10  1  0
 10 11  1  0
 11 12  1  0
 12 13  1  0
 13 14  1  0
 14 15  1  0
  9 16  1  0
 16 17  2  0
 17 18  1  0
 18 19  1  0
 19 20  2  0
 19 21  1  0
 21 22  1  0
 22 23  1  0
 23 24  2  0
 23 25  1  0
 18  4  1  0
 17  6  1  0
 15 10  1  0
  1 26  1  0
  5 27  1  0
  7 28  1  0
  8 29  1  0
 10 30  1  6
 11 31  1  0
 11 32  1  0
 12 33  1  0
 12 34  1  0
 13 35  1  0
 13 36  1  0
 15 37  1  0
 15 38  1  0
 16 39  1  0
 22 40  1  0
 22 41  1  0
M  CHG  2   1  -1  25  -1
M  END
>  <UniqueID>  (21) 
21

>  <SMILES>  (21) 
[NH-]C(=O)c1cc2ccc([C@H]3CCCOC3)cc2n1C(=O)OCC(=O)[O-]

>  <Energy>  (21) 
86.27350120529964

>  <Genealogy>  (21) 
[NH-]C(=O)c1cc2ccc(C3CCCOC3)cc2n1C(=O)OCC(=O)[O-] (protonated)
[NH-]C(=O)c1cc2ccc([C@H]3CCCOC3)cc2n1C(=O)OCC(=O)[O-] (chirality)
[NH-]C(=O)c1cc2ccc([C@H]3CCCOC3)cc2n1C(=O)OCC(=O)[O-] (3D coordinates assigned)
[NH-]C(=O)c1cc2ccc([C@H]3CCCOC3)cc2n1C(=O)OCC(=O)[O-] (nonaromatic ring conformer: 86.27350120529964 kcal/mol)

>  <smiles>  (21) 
NC(=O)c1cc2ccc(C3CCCOC3)cc2n1C(=O)OCC(=O)O

>  <score_type>  (21) 
oracle

>  <origin>  (21) 
adg

>  <m_score__min__energy>  (21) 
-13.24

>  <m_primary>  (21) 
energy

$$$$
21:0
     RDKit          3D

 42 43  0  0  0  0  0  0  0  0999 V2000
   -3.1660   19.1370  -33.0150 C   0  0  0  0  0  0  0  0  0  0  0  0
   -3.9070   19.0120  -34.2230 O   0  0  0  0  0  0  0  0  0  0  0  0
   -5.0510   18.2140  -34.3250 C   0  0  0  0  0  0  0  0  0  0  0  0
   -5.5760   17.9840  -35.4490 O   0  0  0  0  0  0  0  0  0  0  0  0
   -5.6910   17.6760  -33.0820 C   0  0  0  0  0  0  0  0  0  0  0  0
   -7.1720   18.0670  -32.9980 C   0  0  0  0  0  0  0  0  0  0  0  0
   -7.3450   19.5050  -32.5770 C   0  0  0  0  0  0  0  0  0  0  0  0
   -8.6390   20.0800  -32.5360 C   0  0  0  0  0  0  0  0  0  0  0  0
   -8.8210   21.4000  -32.0940 C   0  0  0  0  0  0  0  0  0  0  0  0
   -7.6950   22.1170  -31.6990 C   0  0  0  0  0  0  0  0  0  0  0  0
   -7.5960   23.3890  -31.1840 C   0  0  0  0  0  0  0  0  0  0  0  0
   -6.2400   23.5800  -30.9330 C   0  0  0  0  0  0  0  0  0  0  0  0
   -5.6780   24.8460  -30.4230 C   0  0  0  0  0  0  0  0  0  0  0  0
   -5.7750   25.1940  -29.0410 N   0  0  0  0  0  0  0  0  0  0  0  0
   -5.0550   25.6070  -31.2090 O   0  0  0  0  0  0  0  0  0  0  0  0
   -5.5280   22.4650  -31.2630 N   0  0  0  0  0  0  0  0  0  0  0  0
   -4.1300   22.2210  -31.0310 C   0  0  0  0  0  0  0  0  0  0  0  0
   -3.3080   22.3330  -31.9820 O   0  0  0  0  0  0  0  0  0  0  0  0
   -3.6900   21.8880  -29.7440 O   0  0  0  0  0  0  0  0  0  0  0  0
   -3.5580   22.7880  -28.6790 C   0  0  0  0  0  0  0  0  0  0  0  0
   -4.5530   23.1250  -27.9790 O   0  0  0  0  0  0  0  0  0  0  0  0
   -2.2050   23.3250  -28.3460 C   0  0  0  0  0  0  0  0  0  0  0  0
   -2.0130   24.6490  -29.0110 C   0  0  0  0  0  0  0  0  0  0  0  0
   -0.8870   25.2140  -28.9890 O   0  0  0  0  0  0  0  0  0  0  0  0
   -3.0930   25.2940  -29.5990 O   0  0  0  0  0  0  0  0  0  0  0  0
   -6.4340   21.5810  -31.7390 C   0  0  0  0  0  0  0  0  0  0  0  0
   -6.2260   20.2610  -32.1640 C   0  0  0  0  0  0  0  0  0  0  0  0
   -3.8434   19.0227  -32.1559 H   0  0  0  0  0  0  0  0  0  0  0  0
   -2.3915   18.3568  -32.9776 H   0  0  0  0  0  0  0  0  0  0  0  0
   -2.6902   20.1281  -32.9776 H   0  0  0  0  0  0  0  0  0  0  0  0
   -5.6105   16.5790  -33.0846 H   0  0  0  0  0  0  0  0  0  0  0  0
   -5.1709   18.1047  -32.2126 H   0  0  0  0  0  0  0  0  0  0  0  0
   -7.6346   17.9264  -33.9860 H   0  0  0  0  0  0  0  0  0  0  0  0
   -7.6537   17.4279  -32.2434 H   0  0  0  0  0  0  0  0  0  0  0  0
   -9.5092   19.4867  -32.8534 H   0  0  0  0  0  0  0  0  0  0  0  0
   -9.8225   21.8538  -32.0608 H   0  0  0  0  0  0  0  0  0  0  0  0
   -8.4141   24.1030  -31.0080 H   0  0  0  0  0  0  0  0  0  0  0  0
   -6.1390   24.5110  -28.3380 H   0  0  0  0  0  0  0  0  0  0  0  0
   -5.3980   26.1070  -28.7020 H   0  0  0  0  0  0  0  0  0  0  0  0
   -2.1176   23.4467  -27.2563 H   0  0  0  0  0  0  0  0  0  0  0  0
   -1.4361   22.6231  -28.7013 H   0  0  0  0  0  0  0  0  0  0  0  0
   -5.2161   19.8251  -32.1754 H   0  0  0  0  0  0  0  0  0  0  0  0
  1  2  1  0
  2  3  1  0
  3  4  2  0
  3  5  1  0
  5  6  1  0
  6  7  1  0
  7  8  2  0
  8  9  1  0
  9 10  2  0
 10 11  1  0
 11 12  2  0
 12 13  1  0
 13 14  1  0
 13 15  2  0
 12 16  1  0
 16 17  1  0
 17 18  2  0
 17 19  1  0
 19 20  1  0
 20 21  2  0
 20 22  1  0
 22 23  1  0
 23 24  2  0
 23 25  1  0
 16 26  1  0
 26 27  2  0
 27  7  1  0
 26 10  1  0
  1 28  1  0
  1 29  1  0
  1 30  1  0
  5 31  1  0
  5 32  1  0
  6 33  1  0
  6 34  1  0
  8 35  1  0
  9 36  1  0
 11 37  1  0
 14 38  1  0
 14 39  1  0
 22 40  1  0
 22 41  1  0
 27 42  1  0
M  CHG  1  25  -1
M  END
>  <UniqueID>  (22) 
22

>  <SMILES>  (22) 
COC(=O)CCc1ccc2cc(C(N)=O)n(C(=O)OC(=O)CC(=O)[O-])c2c1

>  <Energy>  (22) 
72.06526242483996

>  <Genealogy>  (22) 
COC(=O)CCc1ccc2cc(C(N)=O)n(C(=O)OC(=O)CC(=O)[O-])c2c1 (protonated)
COC(=O)CCc1ccc2cc(C(N)=O)n(C(=O)OC(=O)CC(=O)[O-])c2c1 (3D coordinates assigned)
COC(=O)CCc1ccc2cc(C(N)=O)n(C(=O)OC(=O)CC(=O)[O-])c2c1 (optimized conformer: 72.06526242483996 kcal/mol)

>  <smiles>  (22) 
COC(=O)CCc1ccc2cc(C(N)=O)n(C(=O)OC(=O)CC(=O)O)c2c1

>  <score_type>  (22) 
oracle

>  <origin>  (22) 
adg

>  <m_score__min__energy>  (22) 
-11.289999999999999

>  <m_primary>  (22) 
energy

$$$$
22:0
     RDKit          3D

 43 45  0  0  0  0  0  0  0  0999 V2000
   -5.9540   25.2980  -29.0420 N   0  0  0  0  0  0  0  0  0  0  0  0
   -5.2150   24.7660  -30.1430 C   0  0  0  0  0  0  0  0  0  0  0  0
   -4.1360   25.3200  -30.4830 O   0  0  0  0  0  0  0  0  0  0  0  0
   -5.6890   23.5590  -30.8580 C   0  0  0  0  0  0  0  0  0  0  0  0
   -7.0220   23.3290  -31.1980 C   0  0  0  0  0  0  0  0  0  0  0  0
   -7.0440   22.0680  -31.7500 C   0  0  0  0  0  0  0  0  0  0  0  0
   -8.1090   21.3380  -32.2660 C   0  0  0  0  0  0  0  0  0  0  0  0
   -7.8410   20.0650  -32.7950 C   0  0  0  0  0  0  0  0  0  0  0  0
   -6.5180   19.5450  -32.8060 C   0  0  0  0  0  0  0  0  0  0  0  0
   -6.2440   18.2020  -33.3780 C   0  0  0  0  0  0  0  0  0  0  0  0
   -7.1770   17.1590  -33.2420 C   0  0  0  0  0  0  0  0  0  0  0  0
   -6.8980   15.9040  -33.7880 C   0  0  0  0  0  0  0  0  0  0  0  0
   -5.7300   15.6910  -34.4490 N   0  0  0  0  0  0  0  0  0  0  0  0
   -4.8070   16.6770  -34.5970 C   0  0  0  0  0  0  0  0  0  0  0  0
   -5.0440   17.9470  -34.0660 C   0  0  0  0  0  0  0  0  0  0  0  0
   -5.4630   20.3210  -32.2700 C   0  0  0  0  0  0  0  0  0  0  0  0
   -5.7650   21.5790  -31.7330 C   0  0  0  0  0  0  0  0  0  0  0  0
   -4.9200   22.4830  -31.1910 N   0  0  0  0  0  0  0  0  0  0  0  0
   -3.4980   22.3440  -31.0460 C   0  0  0  0  0  0  0  0  0  0  0  0
   -2.7290   23.2290  -31.5140 O   0  0  0  0  0  0  0  0  0  0  0  0
   -2.9730   21.2190  -30.3990 O   0  0  0  0  0  0  0  0  0  0  0  0
   -2.3040   21.2710  -29.1390 C   0  0  0  0  0  0  0  0  0  0  0  0
   -1.0150   22.0830  -29.2450 C   0  0  0  0  0  0  0  0  0  0  0  0
   -0.9880   23.0610  -28.2330 O   0  0  0  0  0  0  0  0  0  0  0  0
   -2.2870   24.1330  -28.4960 P   0  0  2  0  0  5  0  0  0  0  0  0
   -1.6840   25.6030  -29.0750 O   0  0  0  0  0  0  0  0  0  0  0  0
   -3.1100   24.4040  -27.0010 S   0  0  0  0  0  0  0  0  0  0  0  0
   -5.5900   26.1270  -28.5220 H   0  0  0  0  0  0  0  0  0  0  0  0
   -6.8810   24.9050  -28.7700 H   0  0  0  0  0  0  0  0  0  0  0  0
   -7.8740   24.0100  -31.0555 H   0  0  0  0  0  0  0  0  0  0  0  0
   -9.1308   21.7454  -32.2600 H   0  0  0  0  0  0  0  0  0  0  0  0
   -8.6648   19.4629  -33.2058 H   0  0  0  0  0  0  0  0  0  0  0  0
   -8.1230   17.3307  -32.7077 H   0  0  0  0  0  0  0  0  0  0  0  0
   -7.6257   15.0859  -33.6826 H   0  0  0  0  0  0  0  0  0  0  0  0
   -3.8701   16.4745  -35.1367 H   0  0  0  0  0  0  0  0  0  0  0  0
   -4.2955   18.7442  -34.1854 H   0  0  0  0  0  0  0  0  0  0  0  0
   -4.4293   19.9449  -32.2749 H   0  0  0  0  0  0  0  0  0  0  0  0
   -2.9668   21.7409  -28.3975 H   0  0  0  0  0  0  0  0  0  0  0  0
   -2.0516   20.2459  -28.8302 H   0  0  0  0  0  0  0  0  0  0  0  0
   -0.1500   21.4133  -29.1299 H   0  0  0  0  0  0  0  0  0  0  0  0
   -0.9726   22.5739  -30.2285 H   0  0  0  0  0  0  0  0  0  0  0  0
   -3.2110   23.6240  -29.4330 H   0  0  0  0  0  0  0  0  0  0  0  0
   -2.0440   25.6770  -29.9960 H   0  0  0  0  0  0  0  0  0  0  0  0
  1  2  1  0
  2  3  2  0
  2  4  1  0
  4  5  2  0
  5  6  1  0
  6  7  2  0
  7  8  1  0
  8  9  2  0
  9 10  1  0
 10 11  2  0
 11 12  1  0
 12 13  2  0
 13 14  1  0
 14 15  2  0
  9 16  1  0
 16 17  2  0
 17 18  1  0
 18 19  1  0
 19 20  2  0
 19 21  1  0
 21 22  1  0
 22 23  1  0
 23 24  1  0
 24 25  1  0
 25 26  1  0
 25 27  2  0
 18  4  1  0
 17  6  1  0
 15 10  1  0
  1 28  1  0
  1 29  1  0
  5 30  1  0
  7 31  1  0
  8 32  1  0
 11 33  1  0
 12 34  1  0
 14 35  1  0
 15 36  1  0
 16 37  1  0
 22 38  1  0
 22 39  1  0
 23 40  1  0
 23 41  1  0
 25 42  1  6
 26 43  1  0
M  END
>  <UniqueID>  (23) 
23

>  <SMILES>  (23) 
NC(=O)c1cc2ccc(-c3ccncc3)cc2n1C(=O)OCCO[P@H](O)=S

>  <Energy>  (23) 
83.59478836494948

>  <Genealogy>  (23) 
NC(=O)c1cc2ccc(-c3ccncc3)cc2n1C(=O)OCCO[P@H](O)=S (chirality)
NC(=O)c1cc2ccc(-c3ccncc3)cc2n1C(=O)OCCO[P@H](O)=S (3D coordinates assigned)
NC(=O)c1cc2ccc(-c3ccncc3)cc2n1C(=O)OCCO[P@H](O)=S (optimized conformer: 83.59478836494948 kcal/mol)

>  <smiles>  (23) 
NC(=O)c1cc2ccc(-c3ccncc3)cc2n1C(=O)OCCO[PH](O)=S

>  <score_type>  (23) 
oracle

>  <origin>  (23) 
adg

>  <m_score__min__energy>  (23) 
-9.9900000000000002

>  <m_primary>  (23) 
energy

$$$$
23:0
     RDKit          3D

 37 39  0  0  0  0  0  0  0  0999 V2000
   -5.3270   17.8580  -35.3460 N   0  0  0  0  0  0  0  0  0  0  0  0
   -5.8380   18.0890  -34.3350 C   0  0  0  0  0  0  0  0  0  0  0  0
   -6.4870   18.3830  -33.0500 C   0  0  0  0  0  0  0  0  0  0  0  0
   -6.7070   19.8220  -32.6690 C   0  0  0  0  0  0  0  0  0  0  0  0
   -8.0110   20.3760  -32.7100 C   0  0  0  0  0  0  0  0  0  0  0  0
   -8.2320   21.7110  -32.3340 C   0  0  0  0  0  0  0  0  0  0  0  0
   -7.1380   22.4570  -31.9040 C   0  0  0  0  0  0  0  0  0  0  0  0
   -7.0660   23.7720  -31.5030 C   0  0  0  0  0  0  0  0  0  0  0  0
   -5.7270   23.9870  -31.1830 C   0  0  0  0  0  0  0  0  0  0  0  0
   -5.2200   25.2540  -30.6160 C   0  0  0  0  0  0  0  0  0  0  0  0
   -3.8770   25.6740  -30.8400 N   0  0  0  0  0  0  0  0  0  0  0  0
   -5.9700   25.9520  -29.8820 O   0  0  0  0  0  0  0  0  0  0  0  0
   -4.9980   22.8540  -31.3890 N   0  0  0  0  0  0  0  0  0  0  0  0
   -3.5800   22.6800  -31.2550 C   0  0  0  0  0  0  0  0  0  0  0  0
   -2.9000   22.2710  -32.2370 O   0  0  0  0  0  0  0  0  0  0  0  0
   -2.9600   22.9450  -30.0290 O   0  0  0  0  0  0  0  0  0  0  0  0
   -1.5540   23.1310  -29.8860 C   0  0  0  0  0  0  0  0  0  0  0  0
   -1.2700   24.3400  -29.0490 C   0  0  0  0  0  0  0  0  0  0  0  0
   -2.3250   25.2330  -28.6940 N   0  0  0  0  0  0  0  0  0  0  0  0
   -0.0940   24.5770  -28.6640 O   0  0  0  0  0  0  0  0  0  0  0  0
   -5.8770   21.9250  -31.8260 C   0  0  0  0  0  0  0  0  0  0  0  0
   -5.6240   20.6030  -32.2110 C   0  0  0  0  0  0  0  0  0  0  0  0
   -7.5450   17.3840  -32.6010 C   0  0  0  0  0  0  0  0  0  0  0  0
   -6.1850   17.4110  -31.9180 C   0  0  0  0  0  0  0  0  0  0  0  0
   -8.8572   19.7550  -33.0391 H   0  0  0  0  0  0  0  0  0  0  0  0
   -9.2382   22.1534  -32.3779 H   0  0  0  0  0  0  0  0  0  0  0  0
   -7.8901   24.4984  -31.4471 H   0  0  0  0  0  0  0  0  0  0  0  0
   -3.0770   25.0190  -30.6940 H   0  0  0  0  0  0  0  0  0  0  0  0
   -1.1185   22.2445  -29.4019 H   0  0  0  0  0  0  0  0  0  0  0  0
   -1.1098   23.2741  -30.8821 H   0  0  0  0  0  0  0  0  0  0  0  0
   -3.3040   25.0520  -29.0110 H   0  0  0  0  0  0  0  0  0  0  0  0
   -2.1270   26.0800  -28.1160 H   0  0  0  0  0  0  0  0  0  0  0  0
   -4.6083   20.1840  -32.1580 H   0  0  0  0  0  0  0  0  0  0  0  0
   -8.4381   17.7335  -32.0623 H   0  0  0  0  0  0  0  0  0  0  0  0
   -8.1489   16.6128  -33.1016 H   0  0  0  0  0  0  0  0  0  0  0  0
   -6.0953   17.7799  -30.8856 H   0  0  0  0  0  0  0  0  0  0  0  0
   -5.3990   16.6672  -31.7206 H   0  0  0  0  0  0  0  0  0  0  0  0
  1  2  3  0
  2  3  1  0
  3  4  1  0
  4  5  2  0
  5  6  1  0
  6  7  2  0
  7  8  1  0
  8  9  2  0
  9 10  1  0
 10 11  1  0
 10 12  2  0
  9 13  1  0
 13 14  1  0
 14 15  2  0
 14 16  1  0
 16 17  1  0
 17 18  1  0
 18 19  1  0
 18 20  2  0
 13 21  1  0
 21 22  2  0
  3 23  1  0
 23 24  1  0
 24  3  1  0
 22  4  1  0
 21  7  1  0
  5 25  1  0
  6 26  1  0
  8 27  1  0
 11 28  1  0
 17 29  1  0
 17 30  1  0
 19 31  1  0
 19 32  1  0
 22 33  1  0
 23 34  1  0
 23 35  1  0
 24 36  1  0
 24 37  1  0
M  CHG  1  11  -1
M  END
>  <UniqueID>  (24) 
24

>  <SMILES>  (24) 
N#CC1(c2ccc3cc(C([NH-])=O)n(C(=O)OCC(N)=O)c3c2)CC1

>  <Energy>  (24) 
339.0608633829394

>  <Genealogy>  (24) 
N#CC1(c2ccc3cc(C([NH-])=O)n(C(=O)OCC(N)=O)c3c2)CC1 (protonated)
N#CC1(c2ccc3cc(C([NH-])=O)n(C(=O)OCC(N)=O)c3c2)CC1 (3D coordinates assigned)
N#CC1(c2ccc3cc(C([NH-])=O)n(C(=O)OCC(N)=O)c3c2)CC1 (nonaromatic ring conformer: 339.0608633829394 kcal/mol)

>  <smiles>  (24) 
N#CC1(c2ccc3cc(C(N)=O)n(C(=O)OCC(N)=O)c3c2)CC1

>  <score_type>  (24) 
oracle

>  <origin>  (24) 
adg

>  <m_score__min__energy>  (24) 
-11.49

>  <m_primary>  (24) 
energy

$$$$
24:0
     RDKit          3D

 35 36  0  0  0  0  0  0  0  0999 V2000
   -0.4960   22.1080  -29.6740 C   0  0  0  0  0  0  0  0  0  0  0  0
   -0.7340   23.5020  -29.5250 O   0  0  0  0  0  0  0  0  0  0  0  0
   -1.9880   24.0190  -29.1880 C   0  0  0  0  0  0  0  0  0  0  0  0
   -2.2390   25.2460  -29.3350 O   0  0  0  0  0  0  0  0  0  0  0  0
   -3.0300   23.1100  -28.6180 C   0  0  0  0  0  0  0  0  0  0  0  0
   -3.4950   22.2000  -29.6110 O   0  0  0  0  0  0  0  0  0  0  0  0
   -3.9600   22.6060  -30.8670 C   0  0  0  0  0  0  0  0  0  0  0  0
   -3.1470   22.8360  -31.8030 O   0  0  0  0  0  0  0  0  0  0  0  0
   -5.3710   22.7700  -31.0870 N   0  0  0  0  0  0  0  0  0  0  0  0
   -6.1270   23.8790  -30.8460 C   0  0  0  0  0  0  0  0  0  0  0  0
   -5.6040   25.2020  -30.4370 C   0  0  0  0  0  0  0  0  0  0  0  0
   -4.2330   25.5430  -30.6510 N   0  0  0  0  0  0  0  0  0  0  0  0
   -6.3600   26.0330  -29.8670 O   0  0  0  0  0  0  0  0  0  0  0  0
   -7.4660   23.6270  -31.1360 C   0  0  0  0  0  0  0  0  0  0  0  0
   -7.5060   22.3200  -31.5670 C   0  0  0  0  0  0  0  0  0  0  0  0
   -8.5860   21.5520  -31.9900 C   0  0  0  0  0  0  0  0  0  0  0  0
   -8.3400   20.2210  -32.3690 C   0  0  0  0  0  0  0  0  0  0  0  0
   -7.0330   19.6760  -32.2940 C   0  0  0  0  0  0  0  0  0  0  0  0
   -6.7740   18.2580  -32.7370 C   0  0  0  0  0  0  0  0  0  0  0  0
   -6.4500   18.2190  -34.0830 F   0  0  0  0  0  0  0  0  0  0  0  0
   -7.8970   17.4730  -32.5400 F   0  0  0  0  0  0  0  0  0  0  0  0
   -5.7250   17.7370  -32.0040 F   0  0  0  0  0  0  0  0  0  0  0  0
   -5.9580   20.4980  -31.8810 C   0  0  0  0  0  0  0  0  0  0  0  0
   -6.2300   21.8250  -31.5280 C   0  0  0  0  0  0  0  0  0  0  0  0
   -0.4163   21.6414  -28.6810 H   0  0  0  0  0  0  0  0  0  0  0  0
   -1.3291   21.6510  -30.2281 H   0  0  0  0  0  0  0  0  0  0  0  0
    0.4416   21.9533  -30.2281 H   0  0  0  0  0  0  0  0  0  0  0  0
   -2.5969   22.5425  -27.7812 H   0  0  0  0  0  0  0  0  0  0  0  0
   -3.8775   23.7165  -28.2661 H   0  0  0  0  0  0  0  0  0  0  0  0
   -3.5890   24.9060  -31.1690 H   0  0  0  0  0  0  0  0  0  0  0  0
   -3.8660   26.4640  -30.3240 H   0  0  0  0  0  0  0  0  0  0  0  0
   -8.3116   24.3241  -31.0409 H   0  0  0  0  0  0  0  0  0  0  0  0
   -9.6014   21.9734  -32.0268 H   0  0  0  0  0  0  0  0  0  0  0  0
   -9.1705   19.5952  -32.7277 H   0  0  0  0  0  0  0  0  0  0  0  0
   -4.9321   20.1034  -31.8383 H   0  0  0  0  0  0  0  0  0  0  0  0
  1  2  1  0
  2  3  1  0
  3  4  2  0
  3  5  1  0
  5  6  1  0
  6  7  1  0
  7  8  2  0
  7  9  1  0
  9 10  1  0
 10 11  1  0
 11 12  1  0
 11 13  2  0
 10 14  2  0
 14 15  1  0
 15 16  2  0
 16 17  1  0
 17 18  2  0
 18 19  1  0
 19 20  1  0
 19 21  1  0
 19 22  1  0
 18 23  1  0
 23 24  2  0
 24  9  1  0
 24 15  1  0
  1 25  1  0
  1 26  1  0
  1 27  1  0
  5 28  1  0
  5 29  1  0
 12 30  1  0
 12 31  1  0
 14 32  1  0
 16 33  1  0
 17 34  1  0
 23 35  1  0
M  END
>  <UniqueID>  (25) 
25

>  <SMILES>  (25) 
COC(=O)COC(=O)n1c(C(N)=O)cc2ccc(C(F)(F)F)cc21

>  <Energy>  (25) 
69.6386243695477

>  <Genealogy>  (25) 
COC(=O)COC(=O)n1c(C(N)=O)cc2ccc(C(F)(F)F)cc21 (3D coordinates assigned)
COC(=O)COC(=O)n1c(C(N)=O)cc2ccc(C(F)(F)F)cc21 (optimized conformer: 69.6386243695477 kcal/mol)

>  <smiles>  (25) 
COC(=O)COC(=O)n1c(C(N)=O)cc2ccc(C(F)(F)F)cc21

>  <score_type>  (25) 
oracle

>  <origin>  (25) 
adg

>  <m_score__min__energy>  (25) 
-8.6600000000000001

>  <m_primary>  (25) 
energy

$$$$
25:0
     RDKit          3D

 39 40  0  0  0  0  0  0  0  0999 V2000
   -3.5540   23.2130  -27.5200 C   0  0  0  0  0  0  0  0  0  0  0  0
   -2.8300   23.2470  -28.8050 N   0  0  1  0  0  0  0  0  0  0  0  0
   -1.3560   23.3210  -28.6450 C   0  0  0  0  0  0  0  0  0  0  0  0
   -0.7490   24.7370  -28.7270 C   0  0  0  0  0  0  0  0  0  0  0  0
   -1.7370   25.7100  -28.9180 O   0  0  0  0  0  0  0  0  0  0  0  0
   -3.2330   22.1640  -29.6820 C   0  0  0  0  0  0  0  0  0  0  0  0
   -3.0760   20.9620  -29.3300 O   0  0  0  0  0  0  0  0  0  0  0  0
   -3.8330   22.4440  -31.0050 C   0  0  0  0  0  0  0  0  0  0  0  0
   -3.1220   22.4060  -32.0460 O   0  0  0  0  0  0  0  0  0  0  0  0
   -5.2220   22.7860  -31.1170 N   0  0  0  0  0  0  0  0  0  0  0  0
   -5.7890   24.0160  -30.9810 C   0  0  0  0  0  0  0  0  0  0  0  0
   -5.0810   25.2580  -30.5990 C   0  0  0  0  0  0  0  0  0  0  0  0
   -3.6600   25.2950  -30.5050 N   0  0  0  0  0  0  0  0  0  0  0  0
   -5.7430   26.2970  -30.3330 O   0  0  0  0  0  0  0  0  0  0  0  0
   -7.1620   23.9480  -31.2170 C   0  0  0  0  0  0  0  0  0  0  0  0
   -7.4160   22.6260  -31.5070 C   0  0  0  0  0  0  0  0  0  0  0  0
   -8.6080   21.9940  -31.8470 C   0  0  0  0  0  0  0  0  0  0  0  0
   -8.5670   20.6170  -32.1280 C   0  0  0  0  0  0  0  0  0  0  0  0
   -7.3460   19.8970  -32.0570 C   0  0  0  0  0  0  0  0  0  0  0  0
   -7.3010   18.4350  -32.4180 C   0  0  0  0  0  0  0  0  0  0  0  0
   -6.8440   18.2670  -33.7130 F   0  0  0  0  0  0  0  0  0  0  0  0
   -6.4540   17.7460  -31.5670 F   0  0  0  0  0  0  0  0  0  0  0  0
   -8.5730   17.9030  -32.3160 F   0  0  0  0  0  0  0  0  0  0  0  0
   -6.1520   20.5840  -31.7330 C   0  0  0  0  0  0  0  0  0  0  0  0
   -6.2280   21.9480  -31.4410 C   0  0  0  0  0  0  0  0  0  0  0  0
   -2.8316   23.2469  -26.6911 H   0  0  0  0  0  0  0  0  0  0  0  0
   -4.2272   24.0805  -27.4554 H   0  0  0  0  0  0  0  0  0  0  0  0
   -4.1430   22.2862  -27.4554 H   0  0  0  0  0  0  0  0  0  0  0  0
   -3.1210   24.1450  -29.2580 H   0  0  0  0  0  0  0  0  0  0  0  0
   -1.1003   22.8991  -27.6618 H   0  0  0  0  0  0  0  0  0  0  0  0
   -0.9320   22.7613  -29.4917 H   0  0  0  0  0  0  0  0  0  0  0  0
   -0.2135   24.9508  -27.7902 H   0  0  0  0  0  0  0  0  0  0  0  0
   -0.0636   24.7687  -29.5868 H   0  0  0  0  0  0  0  0  0  0  0  0
   -1.9970   25.6660  -29.8740 H   0  0  0  0  0  0  0  0  0  0  0  0
   -3.0750   24.5270  -30.9050 H   0  0  0  0  0  0  0  0  0  0  0  0
   -7.8873   24.7742  -31.1795 H   0  0  0  0  0  0  0  0  0  0  0  0
   -9.5533   22.5544  -31.8945 H   0  0  0  0  0  0  0  0  0  0  0  0
   -9.4924   20.0914  -32.4062 H   0  0  0  0  0  0  0  0  0  0  0  0
   -5.1870   20.0565  -31.7116 H   0  0  0  0  0  0  0  0  0  0  0  0
  1  2  1  0
  2  3  1  0
  3  4  1  0
  4  5  1  0
  2  6  1  0
  6  7  2  0
  6  8  1  0
  8  9  2  0
  8 10  1  0
 10 11  1  0
 11 12  1  0
 12 13  1  0
 12 14  2  0
 11 15  2  0
 15 16  1  0
 16 17  2  0
 17 18  1  0
 18 19  2  0
 19 20  1  0
 20 21  1  0
 20 22  1  0
 20 23  1  0
 19 24  1  0
 24 25  2  0
 25 10  1  0
 25 16  1  0
  1 26  1  0
  1 27  1  0
  1 28  1  0
  2 29  1  6
  3 30  1  0
  3 31  1  0
  4 32  1  0
  4 33  1  0
  5 34  1  0
 13 35  1  0
 15 36  1  0
 17 37  1  0
 18 38  1  0
 24 39  1  0
M  CHG  2   2   1  13  -1
M  END
>  <UniqueID>  (26) 
26

>  <SMILES>  (26) 
C[N@@H+](CCO)C(=O)C(=O)n1c(C([NH-])=O)cc2ccc(C(F)(F)F)cc21

>  <Energy>  (26) 
83.87415142761206

>  <Genealogy>  (26) 
C[NH+](CCO)C(=O)C(=O)n1c(C([NH-])=O)cc2ccc(C(F)(F)F)cc21 (protonated)
C[N@@H+](CCO)C(=O)C(=O)n1c(C([NH-])=O)cc2ccc(C(F)(F)F)cc21 (chirality)
C[N@@H+](CCO)C(=O)C(=O)n1c(C([NH-])=O)cc2ccc(C(F)(F)F)cc21 (3D coordinates assigned)
C[N@@H+](CCO)C(=O)C(=O)n1c(C([NH-])=O)cc2ccc(C(F)(F)F)cc21 (optimized conformer: 83.87415142761206 kcal/mol)

>  <smiles>  (26) 
CN(CCO)C(=O)C(=O)n1c(C(N)=O)cc2ccc(C(F)(F)F)cc21

>  <score_type>  (26) 
oracle

>  <origin>  (26) 
adg

>  <m_score__min__energy>  (26) 
-9.0999999999999996

>  <m_primary>  (26) 
energy

$$$$
26:0
     RDKit          3D

 35 37  0  0  0  0  0  0  0  0999 V2000
   -4.9060   14.6770  -33.0710 C   0  0  0  0  0  0  0  0  0  0  0  0
   -5.1450   15.5000  -34.2070 O   0  0  0  0  0  0  0  0  0  0  0  0
   -6.0300   16.5820  -34.1810 C   0  0  0  0  0  0  0  0  0  0  0  0
   -7.2340   16.4280  -34.5300 O   0  0  0  0  0  0  0  0  0  0  0  0
   -5.5660   17.8690  -33.7560 N   0  0  0  0  0  0  0  0  0  0  0  0
   -4.4430   18.1210  -33.0550 C   0  0  0  0  0  0  0  0  0  0  0  0
   -4.3540   19.4920  -32.8500 C   0  0  0  0  0  0  0  0  0  0  0  0
   -3.2880   20.2320  -32.1290 C   0  0  0  0  0  0  0  0  0  0  0  0
   -1.9700   19.7060  -32.0580 C   0  0  0  0  0  0  0  0  0  0  0  0
   -0.9510   20.4030  -31.3870 C   0  0  0  0  0  0  0  0  0  0  0  0
   -1.2740   21.6160  -30.7890 C   0  0  0  0  0  0  0  0  0  0  0  0
   -0.4770   22.5020  -30.1040 C   0  0  0  0  0  0  0  0  0  0  0  0
   -1.3190   23.5510  -29.7390 C   0  0  0  0  0  0  0  0  0  0  0  0
   -0.8820   24.6900  -28.9060 C   0  0  0  0  0  0  0  0  0  0  0  0
   -1.5870   25.9280  -28.9260 N   0  0  0  0  0  0  0  0  0  0  0  0
    0.1000   24.5540  -28.1280 O   0  0  0  0  0  0  0  0  0  0  0  0
   -2.5860   23.3240  -30.1900 N   0  0  0  0  0  0  0  0  0  0  0  0
   -3.7240   24.1960  -30.0960 C   0  0  0  0  0  0  0  0  0  0  0  0
   -3.7350   25.2960  -30.7070 O   0  0  0  0  0  0  0  0  0  0  0  0
   -4.8350   23.8210  -29.3490 O   0  0  0  0  0  0  0  0  0  0  0  0
   -2.5420   22.1330  -30.8270 C   0  0  0  0  0  0  0  0  0  0  0  0
   -3.5720   21.4710  -31.5060 C   0  0  0  0  0  0  0  0  0  0  0  0
   -5.4820   20.0180  -33.4680 C   0  0  0  0  0  0  0  0  0  0  0  0
   -6.1910   19.0080  -34.0050 N   0  0  0  0  0  0  0  0  0  0  0  0
   -5.0753   15.2600  -32.1537 H   0  0  0  0  0  0  0  0  0  0  0  0
   -5.5915   13.8169  -33.0906 H   0  0  0  0  0  0  0  0  0  0  0  0
   -3.8665   14.3179  -33.0906 H   0  0  0  0  0  0  0  0  0  0  0  0
   -3.7202   17.3693  -32.7049 H   0  0  0  0  0  0  0  0  0  0  0  0
   -1.7444   18.7406  -32.5345 H   0  0  0  0  0  0  0  0  0  0  0  0
    0.0717   20.0010  -31.3363 H   0  0  0  0  0  0  0  0  0  0  0  0
    0.5974   22.4039  -29.8894 H   0  0  0  0  0  0  0  0  0  0  0  0
   -2.6300   25.9510  -28.9690 H   0  0  0  0  0  0  0  0  0  0  0  0
   -4.5816   21.9049  -31.5544 H   0  0  0  0  0  0  0  0  0  0  0  0
   -5.7509   21.0837  -33.5111 H   0  0  0  0  0  0  0  0  0  0  0  0
   -7.0890   19.1010  -34.5300 H   0  0  0  0  0  0  0  0  0  0  0  0
  1  2  1  0
  2  3  1  0
  3  4  2  0
  3  5  1  0
  5  6  1  0
  6  7  2  0
  7  8  1  0
  8  9  2  0
  9 10  1  0
 10 11  2  0
 11 12  1  0
 12 13  2  0
 13 14  1  0
 14 15  1  0
 14 16  2  0
 13 17  1  0
 17 18  1  0
 18 19  2  0
 18 20  1  0
 17 21  1  0
 21 22  2  0
  7 23  1  0
 23 24  2  0
 24  5  1  0
 22  8  1  0
 21 11  1  0
  1 25  1  0
  1 26  1  0
  1 27  1  0
  6 28  1  0
  9 29  1  0
 10 30  1  0
 12 31  1  0
 15 32  1  0
 22 33  1  0
 23 34  1  0
 24 35  1  0
M  CHG  3  15  -1  20  -1  24   1
M  END
>  <UniqueID>  (27) 
27

>  <SMILES>  (27) 
COC(=O)n1cc(-c2ccc3cc(C([NH-])=O)n(C(=O)[O-])c3c2)c[nH+]1

>  <Energy>  (27) 
107.71306271607283

>  <Genealogy>  (27) 
COC(=O)n1cc(-c2ccc3cc(C([NH-])=O)n(C(=O)[O-])c3c2)c[nH+]1 (protonated)
COC(=O)n1cc(-c2ccc3cc(C([NH-])=O)n(C(=O)[O-])c3c2)c[nH+]1 (3D coordinates assigned)
COC(=O)n1cc(-c2ccc3cc(C([NH-])=O)n(C(=O)[O-])c3c2)c[nH+]1 (optimized conformer: 107.71306271607283 kcal/mol)

>  <smiles>  (27) 
COC(=O)n1cc(-c2ccc3cc(C(N)=O)n(C(=O)O)c3c2)cn1

>  <score_type>  (27) 
oracle

>  <origin>  (27) 
adg

>  <m_score__min__energy>  (27) 
-11.140000000000001

>  <m_primary>  (27) 
energy

$$$$
27:0
     RDKit          3D

 34 35  0  0  0  0  0  0  0  0999 V2000
   -0.8920   26.4580  -27.9900 C   0  0  0  0  0  0  0  0  0  0  0  0
   -1.5630   25.6670  -29.0120 N   0  0  0  0  0  0  0  0  0  0  0  0
   -1.9310   24.2920  -28.8550 C   0  0  0  0  0  0  0  0  0  0  0  0
   -2.4420   23.9170  -27.7670 O   0  0  0  0  0  0  0  0  0  0  0  0
   -1.6850   23.2820  -29.9360 C   0  0  0  0  0  0  0  0  0  0  0  0
   -2.8760   23.1570  -30.7610 N   0  0  0  0  0  0  0  0  0  0  0  0
   -3.9740   22.3080  -30.4160 C   0  0  0  0  0  0  0  0  0  0  0  0
   -3.7700   21.2380  -29.7810 O   0  0  0  0  0  0  0  0  0  0  0  0
   -5.3080   22.6680  -30.8050 N   0  0  0  0  0  0  0  0  0  0  0  0
   -5.9170   23.8810  -30.6760 C   0  0  0  0  0  0  0  0  0  0  0  0
   -5.2690   25.1370  -30.2430 C   0  0  0  0  0  0  0  0  0  0  0  0
   -4.0570   25.5840  -30.8450 N   0  0  0  0  0  0  0  0  0  0  0  0
   -5.8180   25.8480  -29.3590 O   0  0  0  0  0  0  0  0  0  0  0  0
   -7.2430   23.8080  -31.0950 C   0  0  0  0  0  0  0  0  0  0  0  0
   -7.4300   22.5040  -31.4940 C   0  0  0  0  0  0  0  0  0  0  0  0
   -8.5620   21.8770  -32.0010 C   0  0  0  0  0  0  0  0  0  0  0  0
   -8.4750   20.5090  -32.3120 C   0  0  0  0  0  0  0  0  0  0  0  0
   -7.2730   19.7890  -32.0860 C   0  0  0  0  0  0  0  0  0  0  0  0
   -7.1790   18.3320  -32.4600 C   0  0  0  0  0  0  0  0  0  0  0  0
   -8.3970   17.7000  -32.2780 F   0  0  0  0  0  0  0  0  0  0  0  0
   -6.8100   18.2240  -33.7860 F   0  0  0  0  0  0  0  0  0  0  0  0
   -6.2370   17.6870  -31.6760 F   0  0  0  0  0  0  0  0  0  0  0  0
   -6.1370   20.4690  -31.5900 C   0  0  0  0  0  0  0  0  0  0  0  0
   -6.2470   21.8370  -31.3080 C   0  0  0  0  0  0  0  0  0  0  0  0
   -1.1939   26.1021  -26.9939 H   0  0  0  0  0  0  0  0  0  0  0  0
    0.1973   26.3537  -28.1020 H   0  0  0  0  0  0  0  0  0  0  0  0
   -1.1725   27.5157  -28.1020 H   0  0  0  0  0  0  0  0  0  0  0  0
   -0.8398   23.6099  -30.5591 H   0  0  0  0  0  0  0  0  0  0  0  0
   -1.4489   22.3083  -29.4820 H   0  0  0  0  0  0  0  0  0  0  0  0
   -3.1290   25.2890  -30.4660 H   0  0  0  0  0  0  0  0  0  0  0  0
   -7.9843   24.6206  -31.1050 H   0  0  0  0  0  0  0  0  0  0  0  0
   -9.4978   22.4345  -32.1543 H   0  0  0  0  0  0  0  0  0  0  0  0
   -9.3481   19.9908  -32.7352 H   0  0  0  0  0  0  0  0  0  0  0  0
   -5.1882   19.9361  -31.4291 H   0  0  0  0  0  0  0  0  0  0  0  0
  1  2  1  0
  2  3  1  0
  3  4  2  0
  3  5  1  0
  5  6  1  0
  6  7  1  0
  7  8  2  0
  7  9  1  0
  9 10  1  0
 10 11  1  0
 11 12  1  0
 11 13  2  0
 10 14  2  0
 14 15  1  0
 15 16  2  0
 16 17  1  0
 17 18  2  0
 18 19  1  0
 19 20  1  0
 19 21  1  0
 19 22  1  0
 18 23  1  0
 23 24  2  0
 24  9  1  0
 24 15  1  0
  1 25  1  0
  1 26  1  0
  1 27  1  0
  5 28  1  0
  5 29  1  0
 12 30  1  0
 14 31  1  0
 16 32  1  0
 17 33  1  0
 23 34  1  0
M  CHG  3   2  -1   6  -1  12  -1
M  END
>  <UniqueID>  (28) 
28

>  <SMILES>  (28) 
C[N-]C(=O)C[N-]C(=O)n1c(C([NH-])=O)cc2ccc(C(F)(F)F)cc21

>  <Energy>  (28) 
68.44760697297976

>  <Genealogy>  (28) 
C[N-]C(=O)C[N-]C(=O)n1c(C([NH-])=O)cc2ccc(C(F)(F)F)cc21 (protonated)
C[N-]C(=O)C[N-]C(=O)n1c(C([NH-])=O)cc2ccc(C(F)(F)F)cc21 (3D coordinates assigned)
C[N-]C(=O)C[N-]C(=O)n1c(C([NH-])=O)cc2ccc(C(F)(F)F)cc21 (optimized conformer: 68.44760697297976 kcal/mol)

>  <smiles>  (28) 
CNC(=O)CNC(=O)n1c(C(N)=O)cc2ccc(C(F)(F)F)cc21

>  <score_type>  (28) 
oracle

>  <origin>  (28) 
adg

>  <m_score__min__energy>  (28) 
-12.01

>  <m_primary>  (28) 
energy

$$$$
28:0
     RDKit          3D

 41 42  0  0  0  0  0  0  0  0999 V2000
    0.0350   22.5470  -27.9040 C   0  0  0  0  0  0  0  0  0  0  0  0
   -1.1530   23.4140  -28.3390 C   0  0  1  0  0  0  0  0  0  0  0  0
   -0.7490   24.8400  -28.6090 C   0  0  0  0  0  0  0  0  0  0  0  0
    0.3610   25.2870  -28.2140 O   0  0  0  0  0  0  0  0  0  0  0  0
   -1.5920   25.6660  -29.3430 O   0  0  0  0  0  0  0  0  0  0  0  0
   -1.8250   22.8300  -29.5150 N   0  0  0  0  0  0  0  0  0  0  0  0
   -1.1850   21.7830  -30.3170 C   0  0  0  0  0  0  0  0  0  0  0  0
   -3.2010   23.1490  -29.8000 C   0  0  0  0  0  0  0  0  0  0  0  0
   -3.8770   23.7850  -28.9470 O   0  0  0  0  0  0  0  0  0  0  0  0
   -3.8460   22.7240  -31.0590 C   0  0  0  0  0  0  0  0  0  0  0  0
   -3.1530   22.2530  -31.9990 O   0  0  0  0  0  0  0  0  0  0  0  0
   -5.2690   22.8190  -31.2150 N   0  0  0  0  0  0  0  0  0  0  0  0
   -6.0470   23.9280  -31.0890 C   0  0  0  0  0  0  0  0  0  0  0  0
   -5.5860   25.2640  -30.6530 C   0  0  0  0  0  0  0  0  0  0  0  0
   -4.2360   25.6770  -30.8510 N   0  0  0  0  0  0  0  0  0  0  0  0
   -6.3900   26.0450  -30.0770 O   0  0  0  0  0  0  0  0  0  0  0  0
   -7.3740   23.6280  -31.3950 C   0  0  0  0  0  0  0  0  0  0  0  0
   -7.3800   22.2890  -31.7200 C   0  0  0  0  0  0  0  0  0  0  0  0
   -8.4280   21.4700  -32.1300 C   0  0  0  0  0  0  0  0  0  0  0  0
   -8.1340   20.1300  -32.4360 C   0  0  0  0  0  0  0  0  0  0  0  0
   -6.8100   19.6370  -32.3260 C   0  0  0  0  0  0  0  0  0  0  0  0
   -6.4990   18.2140  -32.6970 C   0  0  0  0  0  0  0  0  0  0  0  0
   -6.0840   18.1370  -34.1310 C   0  0  0  0  0  0  0  0  0  0  0  0
   -6.1240   19.1650  -34.8570 O   0  0  0  0  0  0  0  0  0  0  0  0
   -5.7000   16.9200  -34.6800 O   0  0  0  0  0  0  0  0  0  0  0  0
   -5.7700   20.5030  -31.9190 C   0  0  0  0  0  0  0  0  0  0  0  0
   -6.0960   21.8260  -31.6060 C   0  0  0  0  0  0  0  0  0  0  0  0
    0.0814   22.5131  -26.8055 H   0  0  0  0  0  0  0  0  0  0  0  0
   -0.0916   21.5275  -28.2973 H   0  0  0  0  0  0  0  0  0  0  0  0
    0.9673   22.9785  -28.2973 H   0  0  0  0  0  0  0  0  0  0  0  0
   -1.8641   23.4318  -27.4999 H   0  0  0  0  0  0  0  0  0  0  0  0
   -0.7290   21.0370  -29.6495 H   0  0  0  0  0  0  0  0  0  0  0  0
   -1.9392   21.2947  -30.9517 H   0  0  0  0  0  0  0  0  0  0  0  0
   -0.4066   22.2316  -30.9517 H   0  0  0  0  0  0  0  0  0  0  0  0
   -3.5550   25.6840  -30.0600 H   0  0  0  0  0  0  0  0  0  0  0  0
   -8.2334   24.3145  -31.3801 H   0  0  0  0  0  0  0  0  0  0  0  0
   -9.4537   21.8590  -32.2120 H   0  0  0  0  0  0  0  0  0  0  0  0
   -8.9399   19.4571  -32.7642 H   0  0  0  0  0  0  0  0  0  0  0  0
   -5.6820   17.8423  -32.0611 H   0  0  0  0  0  0  0  0  0  0  0  0
   -7.3982   17.5980  -32.5484 H   0  0  0  0  0  0  0  0  0  0  0  0
   -4.7319   20.1457  -31.8503 H   0  0  0  0  0  0  0  0  0  0  0  0
  1  2  1  0
  2  3  1  0
  3  4  2  0
  3  5  1  0
  2  6  1  0
  6  7  1  0
  6  8  1  0
  8  9  2  0
  8 10  1  0
 10 11  2  0
 10 12  1  0
 12 13  1  0
 13 14  1  0
 14 15  1  0
 14 16  2  0
 13 17  2  0
 17 18  1  0
 18 19  2  0
 19 20  1  0
 20 21  2  0
 21 22  1  0
 22 23  1  0
 23 24  2  0
 23 25  1  0
 21 26  1  0
 26 27  2  0
 27 12  1  0
 27 18  1  0
  1 28  1  0
  1 29  1  0
  1 30  1  0
  2 31  1  1
  7 32  1  0
  7 33  1  0
  7 34  1  0
 15 35  1  0
 17 36  1  0
 19 37  1  0
 20 38  1  0
 22 39  1  0
 22 40  1  0
 26 41  1  0
M  CHG  3   5  -1  15  -1  25  -1
M  END
>  <UniqueID>  (29) 
29

>  <SMILES>  (29) 
C[C@@H](C(=O)[O-])N(C)C(=O)C(=O)n1c(C([NH-])=O)cc2ccc(CC(=O)[O-])cc21

>  <Energy>  (29) 
80.26379484592148

>  <Genealogy>  (29) 
CC(C(=O)[O-])N(C)C(=O)C(=O)n1c(C([NH-])=O)cc2ccc(CC(=O)[O-])cc21 (protonated)
C[C@@H](C(=O)[O-])N(C)C(=O)C(=O)n1c(C([NH-])=O)cc2ccc(CC(=O)[O-])cc21 (chirality)
C[C@@H](C(=O)[O-])N(C)C(=O)C(=O)n1c(C([NH-])=O)cc2ccc(CC(=O)[O-])cc21 (3D coordinates assigned)
C[C@@H](C(=O)[O-])N(C)C(=O)C(=O)n1c(C([NH-])=O)cc2ccc(CC(=O)[O-])cc21 (optimized conformer: 80.26379484592148 kcal/mol)

>  <smiles>  (29) 
CC(C(=O)O)N(C)C(=O)C(=O)n1c(C(N)=O)cc2ccc(CC(=O)O)cc21

>  <score_type>  (29) 
oracle

>  <origin>  (29) 
adg

>  <m_score__min__energy>  (29) 
-13.220000000000001

>  <m_primary>  (29) 
energy

$$$$
29:0
     RDKit          3D

 36 37  0  0  0  0  0  0  0  0999 V2000
   -7.2680   18.2930  -33.0360 C   0  0  0  0  0  0  0  0  0  0  0  0
   -7.4190   19.6810  -32.4900 C   0  0  0  0  0  0  0  0  0  0  0  0
   -8.7050   20.2250  -32.2440 C   0  0  0  0  0  0  0  0  0  0  0  0
   -8.8450   21.5280  -31.7390 C   0  0  0  0  0  0  0  0  0  0  0  0
   -7.6880   22.2610  -31.4920 C   0  0  0  0  0  0  0  0  0  0  0  0
   -7.5290   23.5450  -31.0190 C   0  0  0  0  0  0  0  0  0  0  0  0
   -6.1510   23.7610  -30.9850 C   0  0  0  0  0  0  0  0  0  0  0  0
   -5.5280   25.0090  -30.4960 C   0  0  0  0  0  0  0  0  0  0  0  0
   -4.1900   25.3490  -30.8430 N   0  0  0  0  0  0  0  0  0  0  0  0
   -6.1830   25.7810  -29.7450 O   0  0  0  0  0  0  0  0  0  0  0  0
   -5.4890   22.6540  -31.4260 N   0  0  0  0  0  0  0  0  0  0  0  0
   -4.0750   22.4630  -31.5580 C   0  0  0  0  0  0  0  0  0  0  0  0
   -3.5660   22.3840  -32.7080 O   0  0  0  0  0  0  0  0  0  0  0  0
   -3.2180   22.4040  -30.3600 C   0  0  0  0  0  0  0  0  0  0  0  0
   -3.1060   21.3150  -29.7340 O   0  0  0  0  0  0  0  0  0  0  0  0
   -2.5130   23.5710  -29.9070 N   0  0  0  0  0  0  0  0  0  0  0  0
   -1.6220   23.5340  -28.7430 C   0  0  2  0  0  0  0  0  0  0  0  0
   -2.3980   23.1390  -27.4840 C   0  0  0  0  0  0  0  0  0  0  0  0
   -0.9790   24.8780  -28.5470 C   0  0  0  0  0  0  0  0  0  0  0  0
    0.1310   24.9690  -27.9610 O   0  0  0  0  0  0  0  0  0  0  0  0
   -1.6280   26.0330  -28.9690 O   0  0  0  0  0  0  0  0  0  0  0  0
   -6.4380   21.7440  -31.7190 C   0  0  0  0  0  0  0  0  0  0  0  0
   -6.2660   20.4510  -32.2190 C   0  0  0  0  0  0  0  0  0  0  0  0
   -7.1902   17.5780  -32.2037 H   0  0  0  0  0  0  0  0  0  0  0  0
   -8.1444   18.0441  -33.6525 H   0  0  0  0  0  0  0  0  0  0  0  0
   -6.3586   18.2384  -33.6525 H   0  0  0  0  0  0  0  0  0  0  0  0
   -9.6010   19.6212  -32.4505 H   0  0  0  0  0  0  0  0  0  0  0  0
   -9.8393   21.9564  -31.5445 H   0  0  0  0  0  0  0  0  0  0  0  0
   -8.3212   24.2510  -30.7293 H   0  0  0  0  0  0  0  0  0  0  0  0
   -3.5100   25.6670  -30.1170 H   0  0  0  0  0  0  0  0  0  0  0  0
   -2.6140   24.4630  -30.4440 H   0  0  0  0  0  0  0  0  0  0  0  0
   -0.8406   22.7812  -28.9240 H   0  0  0  0  0  0  0  0  0  0  0  0
   -1.8237   23.4313  -26.5925 H   0  0  0  0  0  0  0  0  0  0  0  0
   -3.3714   23.6513  -27.4774 H   0  0  0  0  0  0  0  0  0  0  0  0
   -2.5565   22.0505  -27.4774 H   0  0  0  0  0  0  0  0  0  0  0  0
   -5.2599   20.0434  -32.3969 H   0  0  0  0  0  0  0  0  0  0  0  0
  1  2  1  0
  2  3  2  0
  3  4  1  0
  4  5  2  0
  5  6  1  0
  6  7  2  0
  7  8  1  0
  8  9  1  0
  8 10  2  0
  7 11  1  0
 11 12  1  0
 12 13  2  0
 12 14  1  0
 14 15  2  0
 14 16  1  0
 16 17  1  0
 17 18  1  0
 17 19  1  0
 19 20  2  0
 19 21  1  0
 11 22  1  0
 22 23  2  0
 23  2  1  0
 22  5  1  0
  1 24  1  0
  1 25  1  0
  1 26  1  0
  3 27  1  0
  4 28  1  0
  6 29  1  0
  9 30  1  0
 16 31  1  0
 17 32  1  6
 18 33  1  0
 18 34  1  0
 18 35  1  0
 23 36  1  0
M  CHG  2   9  -1  21  -1
M  END
>  <UniqueID>  (30) 
30

>  <SMILES>  (30) 
Cc1ccc2cc(C([NH-])=O)n(C(=O)C(=O)N[C@H](C)C(=O)[O-])c2c1

>  <Energy>  (30) 
71.07634940886071

>  <Genealogy>  (30) 
Cc1ccc2cc(C([NH-])=O)n(C(=O)C(=O)NC(C)C(=O)[O-])c2c1 (protonated)
Cc1ccc2cc(C([NH-])=O)n(C(=O)C(=O)N[C@H](C)C(=O)[O-])c2c1 (chirality)
Cc1ccc2cc(C([NH-])=O)n(C(=O)C(=O)N[C@H](C)C(=O)[O-])c2c1 (3D coordinates assigned)
Cc1ccc2cc(C([NH-])=O)n(C(=O)C(=O)N[C@H](C)C(=O)[O-])c2c1 (optimized conformer: 71.07634940886071 kcal/mol)

>  <smiles>  (30) 
Cc1ccc2cc(C(N)=O)n(C(=O)C(=O)NC(C)C(=O)O)c2c1

>  <score_type>  (30) 
oracle

>  <origin>  (30) 
adg

>  <m_score__min__energy>  (30) 
-12.67

>  <m_primary>  (30) 
energy

$$$$
30:0
     RDKit          3D

 37 38  0  0  0  0  0  0  0  0999 V2000
   -7.9880   19.2170  -33.0890 N   0  0  0  0  0  0  0  0  0  0  0  0
   -8.5700   20.3860  -32.5090 C   0  0  0  0  0  0  0  0  0  0  0  0
   -9.8220   20.5160  -32.5160 O   0  0  0  0  0  0  0  0  0  0  0  0
   -7.7150   21.4520  -31.9390 C   0  0  0  0  0  0  0  0  0  0  0  0
   -8.2120   22.6240  -31.3730 C   0  0  0  0  0  0  0  0  0  0  0  0
   -7.1110   23.2860  -30.8810 C   0  0  0  0  0  0  0  0  0  0  0  0
   -7.0240   24.5080  -30.2230 C   0  0  0  0  0  0  0  0  0  0  0  0
   -5.7510   24.9660  -29.8470 C   0  0  0  0  0  0  0  0  0  0  0  0
   -4.5880   24.2050  -30.1460 C   0  0  0  0  0  0  0  0  0  0  0  0
   -3.2690   24.6660  -29.7910 N   0  0  0  0  0  0  0  0  0  0  0  0
   -2.1580   23.7880  -29.4240 C   0  0  0  0  0  0  0  0  0  0  0  0
   -0.9400   24.5960  -29.1050 C   0  0  0  0  0  0  0  0  0  0  0  0
    0.2010   24.0730  -29.2100 O   0  0  0  0  0  0  0  0  0  0  0  0
   -1.0790   25.9610  -28.6950 N   0  0  0  0  0  0  0  0  0  0  0  0
   -1.1470   26.3810  -27.3000 C   0  0  0  0  0  0  0  0  0  0  0  0
    0.0180   25.7930  -26.5000 C   0  0  0  0  0  0  0  0  0  0  0  0
    1.1660   25.6910  -27.2980 O   0  0  0  0  0  0  0  0  0  0  0  0
   -4.7230   22.9640  -30.8070 C   0  0  0  0  0  0  0  0  0  0  0  0
   -6.0050   22.5240  -31.1530 C   0  0  0  0  0  0  0  0  0  0  0  0
   -6.3600   21.3920  -31.8050 N   0  0  0  0  0  0  0  0  0  0  0  0
   -5.4740   20.3820  -32.3170 C   0  0  0  0  0  0  0  0  0  0  0  0
   -4.8580   19.6170  -31.5310 O   0  0  0  0  0  0  0  0  0  0  0  0
   -5.2750   20.2530  -33.6870 O   0  0  0  0  0  0  0  0  0  0  0  0
   -6.9580   19.0490  -33.0550 H   0  0  0  0  0  0  0  0  0  0  0  0
   -8.5980   18.4880  -33.5220 H   0  0  0  0  0  0  0  0  0  0  0  0
   -9.2615   22.9506  -31.3289 H   0  0  0  0  0  0  0  0  0  0  0  0
   -7.9258   25.0984  -30.0035 H   0  0  0  0  0  0  0  0  0  0  0  0
   -5.6526   25.9239  -29.3154 H   0  0  0  0  0  0  0  0  0  0  0  0
   -3.1000   25.6960  -29.7330 H   0  0  0  0  0  0  0  0  0  0  0  0
   -2.4408   23.1945  -28.5421 H   0  0  0  0  0  0  0  0  0  0  0  0
   -1.9337   23.1224  -30.2706 H   0  0  0  0  0  0  0  0  0  0  0  0
   -1.1009   27.4789  -27.2509 H   0  0  0  0  0  0  0  0  0  0  0  0
   -2.0913   26.0187  -26.8674 H   0  0  0  0  0  0  0  0  0  0  0  0
    0.2322   26.4461  -25.6412 H   0  0  0  0  0  0  0  0  0  0  0  0
   -0.2627   24.7872  -26.1542 H   0  0  0  0  0  0  0  0  0  0  0  0
    0.8550   25.6650  -28.2410 H   0  0  0  0  0  0  0  0  0  0  0  0
   -3.8378   22.3558  -31.0449 H   0  0  0  0  0  0  0  0  0  0  0  0
  1  2  1  0
  2  3  2  0
  2  4  1  0
  4  5  2  0
  5  6  1  0
  6  7  2  0
  7  8  1  0
  8  9  2  0
  9 10  1  0
 10 11  1  0
 11 12  1  0
 12 13  2  0
 12 14  1  0
 14 15  1  0
 15 16  1  0
 16 17  1  0
  9 18  1  0
 18 19  2  0
 19 20  1  0
 20 21  1  0
 21 22  2  0
 21 23  1  0
 20  4  1  0
 19  6  1  0
  1 24  1  0
  1 25  1  0
  5 26  1  0
  7 27  1  0
  8 28  1  0
 10 29  1  0
 11 30  1  0
 11 31  1  0
 15 32  1  0
 15 33  1  0
 16 34  1  0
 16 35  1  0
 17 36  1  0
 18 37  1  0
M  CHG  2  14  -1  23  -1
M  END
>  <UniqueID>  (31) 
31

>  <SMILES>  (31) 
NC(=O)c1cc2ccc(NCC(=O)[N-]CCO)cc2n1C(=O)[O-]

>  <Energy>  (31) 
69.97223684314733

>  <Genealogy>  (31) 
NC(=O)c1cc2ccc(NCC(=O)[N-]CCO)cc2n1C(=O)[O-] (protonated)
NC(=O)c1cc2ccc(NCC(=O)[N-]CCO)cc2n1C(=O)[O-] (3D coordinates assigned)
NC(=O)c1cc2ccc(NCC(=O)[N-]CCO)cc2n1C(=O)[O-] (optimized conformer: 69.97223684314733 kcal/mol)

>  <smiles>  (31) 
NC(=O)c1cc2ccc(NCC(=O)NCCO)cc2n1C(=O)O

>  <score_type>  (31) 
oracle

>  <origin>  (31) 
adg

>  <m_score__min__energy>  (31) 
-8.9100000000000001

>  <m_primary>  (31) 
energy

$$$$
31:0
     RDKit          3D

 39 41  0  0  0  0  0  0  0  0999 V2000
   -4.1960   25.5090  -30.5940 N   0  0  0  0  0  0  0  0  0  0  0  0
   -5.5410   25.0860  -30.3640 C   0  0  0  0  0  0  0  0  0  0  0  0
   -6.3200   25.8410  -29.7250 O   0  0  0  0  0  0  0  0  0  0  0  0
   -6.0040   23.7610  -30.8300 C   0  0  0  0  0  0  0  0  0  0  0  0
   -7.3030   23.5060  -31.2660 C   0  0  0  0  0  0  0  0  0  0  0  0
   -7.2910   22.2030  -31.7070 C   0  0  0  0  0  0  0  0  0  0  0  0
   -8.3180   21.4340  -32.2470 C   0  0  0  0  0  0  0  0  0  0  0  0
   -8.0280   20.1070  -32.6060 C   0  0  0  0  0  0  0  0  0  0  0  0
   -6.7290   19.5720  -32.4130 C   0  0  0  0  0  0  0  0  0  0  0  0
   -6.4310   18.1740  -32.7860 C   0  0  0  0  0  0  0  0  0  0  0  0
   -5.3150   17.5160  -32.4050 N   0  0  0  0  0  0  0  0  0  0  0  0
   -5.4650   16.3000  -32.9610 C   0  0  0  0  0  0  0  0  0  0  0  0
   -6.6530   16.2610  -33.6520 C   0  0  0  0  0  0  0  0  0  0  0  0
   -7.2250   17.4320  -33.5250 O   0  0  0  0  0  0  0  0  0  0  0  0
   -5.7140   20.3840  -31.8590 C   0  0  0  0  0  0  0  0  0  0  0  0
   -6.0240   21.7100  -31.5290 C   0  0  0  0  0  0  0  0  0  0  0  0
   -5.2210   22.6550  -30.9880 N   0  0  0  0  0  0  0  0  0  0  0  0
   -3.8420   22.4930  -30.6150 C   0  0  0  0  0  0  0  0  0  0  0  0
   -2.9440   23.1470  -31.2130 O   0  0  0  0  0  0  0  0  0  0  0  0
   -3.5030   21.6250  -29.5740 O   0  0  0  0  0  0  0  0  0  0  0  0
   -2.9430   22.0690  -28.3420 C   0  0  0  0  0  0  0  0  0  0  0  0
   -3.3510   23.5200  -28.0750 C   0  0  0  0  0  0  0  0  0  0  0  0
   -2.1610   24.4870  -28.1360 C   0  0  0  0  0  0  0  0  0  0  0  0
   -2.1650   25.2190  -29.3340 O   0  0  0  0  0  0  0  0  0  0  0  0
   -3.5370   24.9330  -31.1620 H   0  0  0  0  0  0  0  0  0  0  0  0
   -3.8660   26.4300  -30.2280 H   0  0  0  0  0  0  0  0  0  0  0  0
   -8.1568   24.1996  -31.2590 H   0  0  0  0  0  0  0  0  0  0  0  0
   -9.3255   21.8524  -32.3883 H   0  0  0  0  0  0  0  0  0  0  0  0
   -8.8170   19.4763  -33.0414 H   0  0  0  0  0  0  0  0  0  0  0  0
   -4.7500   15.4684  -32.8761 H   0  0  0  0  0  0  0  0  0  0  0  0
   -7.0511   15.4012  -34.2107 H   0  0  0  0  0  0  0  0  0  0  0  0
   -4.7032   19.9841  -31.6906 H   0  0  0  0  0  0  0  0  0  0  0  0
   -3.3095   21.4311  -27.5242 H   0  0  0  0  0  0  0  0  0  0  0  0
   -1.8463   22.0069  -28.4004 H   0  0  0  0  0  0  0  0  0  0  0  0
   -4.0906   23.8230  -28.8308 H   0  0  0  0  0  0  0  0  0  0  0  0
   -3.7680   23.5677  -27.0582 H   0  0  0  0  0  0  0  0  0  0  0  0
   -2.2218   25.1853  -27.2882 H   0  0  0  0  0  0  0  0  0  0  0  0
   -1.2316   23.9005  -28.0882 H   0  0  0  0  0  0  0  0  0  0  0  0
   -1.8470   24.6030  -30.0440 H   0  0  0  0  0  0  0  0  0  0  0  0
  1  2  1  0
  2  3  2  0
  2  4  1  0
  4  5  2  0
  5  6  1  0
  6  7  2  0
  7  8  1  0
  8  9  2  0
  9 10  1  0
 10 11  2  0
 11 12  1  0
 12 13  2  0
 13 14  1  0
  9 15  1  0
 15 16  2  0
 16 17  1  0
 17 18  1  0
 18 19  2  0
 18 20  1  0
 20 21  1  0
 21 22  1  0
 22 23  1  0
 23 24  1  0
 17  4  1  0
 16  6  1  0
 14 10  1  0
  1 25  1  0
  1 26  1  0
  5 27  1  0
  7 28  1  0
  8 29  1  0
 12 30  1  0
 13 31  1  0
 15 32  1  0
 21 33  1  0
 21 34  1  0
 22 35  1  0
 22 36  1  0
 23 37  1  0
 23 38  1  0
 24 39  1  0
M  END
>  <UniqueID>  (32) 
32

>  <SMILES>  (32) 
NC(=O)c1cc2ccc(-c3ncco3)cc2n1C(=O)OCCCO

>  <Energy>  (32) 
102.6831802856421

>  <Genealogy>  (32) 
NC(=O)c1cc2ccc(-c3ncco3)cc2n1C(=O)OCCCO (3D coordinates assigned)
NC(=O)c1cc2ccc(-c3ncco3)cc2n1C(=O)OCCCO (optimized conformer: 102.6831802856421 kcal/mol)

>  <smiles>  (32) 
NC(=O)c1cc2ccc(-c3ncco3)cc2n1C(=O)OCCCO

>  <score_type>  (32) 
oracle

>  <origin>  (32) 
adg

>  <m_score__min__energy>  (32) 
-9.2400000000000002

>  <m_primary>  (32) 
energy

$$$$
32:0
     RDKit          3D

 43 45  0  0  0  0  0  0  0  0999 V2000
   -6.7660   14.5110  -34.2540 C   0  0  0  0  0  0  0  0  0  0  0  0
   -5.2320   15.3540  -33.6080 Si  0  0  0  0  0  4  0  0  0  0  0  0
   -4.6010   14.4380  -32.1100 C   0  0  0  0  0  0  0  0  0  0  0  0
   -3.9190   15.3600  -34.9350 C   0  0  0  0  0  0  0  0  0  0  0  0
   -5.6310   17.0620  -33.1470 C   0  0  0  0  0  0  0  0  0  0  0  0
   -5.8960   18.1980  -32.8410 C   0  0  0  0  0  0  0  0  0  0  0  0
   -6.2110   19.5520  -32.4760 C   0  0  0  0  0  0  0  0  0  0  0  0
   -7.5340   20.0310  -32.6150 C   0  0  0  0  0  0  0  0  0  0  0  0
   -7.8530   21.3560  -32.2670 C   0  0  0  0  0  0  0  0  0  0  0  0
   -6.8290   22.1670  -31.7820 C   0  0  0  0  0  0  0  0  0  0  0  0
   -6.8500   23.4850  -31.3790 C   0  0  0  0  0  0  0  0  0  0  0  0
   -5.5410   23.7750  -30.9970 C   0  0  0  0  0  0  0  0  0  0  0  0
   -5.1100   25.0750  -30.4440 C   0  0  0  0  0  0  0  0  0  0  0  0
   -3.8670   25.6450  -30.8500 N   0  0  0  0  0  0  0  0  0  0  0  0
   -5.8360   25.6980  -29.6250 O   0  0  0  0  0  0  0  0  0  0  0  0
   -4.7460   22.6830  -31.1640 N   0  0  0  0  0  0  0  0  0  0  0  0
   -3.3380   22.5710  -30.9170 C   0  0  0  0  0  0  0  0  0  0  0  0
   -2.8280   23.1950  -29.9480 O   0  0  0  0  0  0  0  0  0  0  0  0
   -2.5030   21.6970  -31.7600 C   0  0  0  0  0  0  0  0  0  0  0  0
   -2.6080   21.6010  -33.0810 C   0  0  0  0  0  0  0  0  0  0  0  0
   -1.5860   20.6760  -33.5070 C   0  0  0  0  0  0  0  0  0  0  0  0
   -1.3690   20.3250  -34.6960 O   0  0  0  0  0  0  0  0  0  0  0  0
   -0.8640   20.2220  -32.4220 O   0  0  0  0  0  0  0  0  0  0  0  0
   -1.3830   20.8270  -31.2430 C   0  0  0  0  0  0  0  0  0  0  0  0
   -5.5450   21.7070  -31.6380 C   0  0  0  0  0  0  0  0  0  0  0  0
   -5.1970   20.3990  -31.9830 C   0  0  0  0  0  0  0  0  0  0  0  0
   -7.3822   14.1724  -33.4080 H   0  0  0  0  0  0  0  0  0  0  0  0
   -7.3427   15.2189  -34.8674 H   0  0  0  0  0  0  0  0  0  0  0  0
   -6.4776   13.6447  -34.8674 H   0  0  0  0  0  0  0  0  0  0  0  0
   -4.9494   14.9437  -31.1974 H   0  0  0  0  0  0  0  0  0  0  0  0
   -4.9805   13.4056  -32.1247 H   0  0  0  0  0  0  0  0  0  0  0  0
   -3.5012   14.4246  -32.1247 H   0  0  0  0  0  0  0  0  0  0  0  0
   -2.9239   15.3645  -34.4662 H   0  0  0  0  0  0  0  0  0  0  0  0
   -4.0256   14.4614  -35.5604 H   0  0  0  0  0  0  0  0  0  0  0  0
   -4.0338   16.2576  -35.5604 H   0  0  0  0  0  0  0  0  0  0  0  0
   -8.3193   19.3628  -32.9980 H   0  0  0  0  0  0  0  0  0  0  0  0
   -8.8783   21.7398  -32.3743 H   0  0  0  0  0  0  0  0  0  0  0  0
   -7.7155   24.1637  -31.3623 H   0  0  0  0  0  0  0  0  0  0  0  0
   -2.9640   25.2870  -30.4690 H   0  0  0  0  0  0  0  0  0  0  0  0
   -3.3317   22.1239  -33.7235 H   0  0  0  0  0  0  0  0  0  0  0  0
   -1.7650   20.0667  -30.5459 H   0  0  0  0  0  0  0  0  0  0  0  0
   -0.6249   21.3920  -30.6809 H   0  0  0  0  0  0  0  0  0  0  0  0
   -4.1629   20.0403  -31.8734 H   0  0  0  0  0  0  0  0  0  0  0  0
  1  2  1  0
  2  3  1  0
  2  4  1  0
  2  5  1  0
  5  6  3  0
  6  7  1  0
  7  8  2  0
  8  9  1  0
  9 10  2  0
 10 11  1  0
 11 12  2  0
 12 13  1  0
 13 14  1  0
 13 15  2  0
 12 16  1  0
 16 17  1  0
 17 18  2  0
 17 19  1  0
 19 20  2  0
 20 21  1  0
 21 22  2  0
 21 23  1  0
 23 24  1  0
 16 25  1  0
 25 26  2  0
 26  7  1  0
 25 10  1  0
 24 19  1  0
  1 27  1  0
  1 28  1  0
  1 29  1  0
  3 30  1  0
  3 31  1  0
  3 32  1  0
  4 33  1  0
  4 34  1  0
  4 35  1  0
  8 36  1  0
  9 37  1  0
 11 38  1  0
 14 39  1  0
 20 40  1  0
 24 41  1  0
 24 42  1  0
 26 43  1  0
M  CHG  1  14  -1
M  END
>  <UniqueID>  (33) 
33

>  <SMILES>  (33) 
C[Si](C)(C)C#Cc1ccc2cc(C([NH-])=O)n(C(=O)C3=CC(=O)OC3)c2c1

>  <Energy>  (33) 
85.32403331159124

>  <Genealogy>  (33) 
C[Si](C)(C)C#Cc1ccc2cc(C([NH-])=O)n(C(=O)C3=CC(=O)OC3)c2c1 (protonated)
C[Si](C)(C)C#Cc1ccc2cc(C([NH-])=O)n(C(=O)C3=CC(=O)OC3)c2c1 (3D coordinates assigned)
C[Si](C)(C)C#Cc1ccc2cc(C([NH-])=O)n(C(=O)C3=CC(=O)OC3)c2c1 (nonaromatic ring conformer: 85.32403331159124 kcal/mol)

>  <smiles>  (33) 
C[Si](C)(C)C#Cc1ccc2cc(C(N)=O)n(C(=O)C3=CC(=O)OC3)c2c1

>  <score_type>  (33) 
oracle

>  <origin>  (33) 
adg

>  <m_score__min__energy>  (33) 
-11.210000000000001

>  <m_primary>  (33) 
energy

$$$$
33:0
     RDKit          3D

 58 61  0  0  0  0  0  0  0  0999 V2000
   -4.5310   18.4300  -33.0230 C   0  0  0  0  0  0  0  0  0  0  0  0
   -5.8570   17.8540  -33.3150 N   0  0  0  0  0  0  0  0  0  0  0  0
   -5.7140   16.7100  -34.2350 C   0  0  0  0  0  0  0  0  0  0  0  0
   -6.5290   17.4420  -32.0600 C   0  0  0  0  0  0  0  0  0  0  0  0
   -7.9590   18.0130  -31.9880 C   0  0  0  0  0  0  0  0  0  0  0  0
   -8.2320   18.9620  -33.0800 N   0  0  0  0  0  0  0  0  0  0  0  0
   -8.0820   20.3110  -32.5900 C   0  0  0  0  0  0  0  0  0  0  0  0
   -9.2160   21.0530  -32.1690 C   0  0  0  0  0  0  0  0  0  0  0  0
   -9.0690   22.3140  -31.5640 C   0  0  0  0  0  0  0  0  0  0  0  0
   -7.7770   22.8000  -31.3800 C   0  0  0  0  0  0  0  0  0  0  0  0
   -7.3350   23.9360  -30.7380 C   0  0  0  0  0  0  0  0  0  0  0  0
   -5.9410   23.8670  -30.7760 C   0  0  0  0  0  0  0  0  0  0  0  0
   -5.0470   24.8570  -30.1440 C   0  0  0  0  0  0  0  0  0  0  0  0
   -3.8880   25.3190  -30.8390 N   0  0  0  0  0  0  0  0  0  0  0  0
   -5.2890   25.2970  -28.9900 O   0  0  0  0  0  0  0  0  0  0  0  0
   -5.5420   22.7350  -31.4200 N   0  0  0  0  0  0  0  0  0  0  0  0
   -4.2040   22.2320  -31.5580 C   0  0  0  0  0  0  0  0  0  0  0  0
   -3.6840   22.1570  -32.7020 O   0  0  0  0  0  0  0  0  0  0  0  0
   -3.4670   21.7480  -30.3750 C   0  0  0  0  0  0  0  0  0  0  0  0
   -3.4830   20.5140  -30.1040 O   0  0  0  0  0  0  0  0  0  0  0  0
   -2.7560   22.6510  -29.5150 N   0  0  0  0  0  0  0  0  0  0  0  0
   -1.5270   23.2960  -30.0320 C   0  0  0  0  0  0  0  0  0  0  0  0
   -0.9240   24.2900  -29.0170 C   0  0  2  0  0  0  0  0  0  0  0  0
   -0.2570   23.5520  -27.8520 C   0  0  0  0  0  0  0  0  0  0  0  0
   -1.3740   23.4050  -26.8270 C   0  0  0  0  0  0  0  0  0  0  0  0
   -2.5740   24.1050  -27.4820 C   0  0  2  0  0  0  0  0  0  0  0  0
   -3.4320   23.1030  -28.2780 C   0  0  0  0  0  0  0  0  0  0  0  0
   -2.0200   25.0540  -28.4360 N   0  0  0  0  0  0  0  0  0  0  0  0
   -6.6710   22.0940  -31.7820 C   0  0  0  0  0  0  0  0  0  0  0  0
   -6.7910   20.8520  -32.4120 C   0  0  0  0  0  0  0  0  0  0  0  0
   -4.3897   18.4914  -31.9338 H   0  0  0  0  0  0  0  0  0  0  0  0
   -3.7493   17.7903  -33.4587 H   0  0  0  0  0  0  0  0  0  0  0  0
   -4.4650   19.4379  -33.4587 H   0  0  0  0  0  0  0  0  0  0  0  0
   -5.5982   15.7837  -33.6531 H   0  0  0  0  0  0  0  0  0  0  0  0
   -6.6098   16.6351  -34.8690 H   0  0  0  0  0  0  0  0  0  0  0  0
   -4.8274   16.8579  -34.8690 H   0  0  0  0  0  0  0  0  0  0  0  0
   -6.5775   16.3437  -32.0213 H   0  0  0  0  0  0  0  0  0  0  0  0
   -5.9520   17.8316  -31.2084 H   0  0  0  0  0  0  0  0  0  0  0  0
   -8.6765   17.1818  -32.0528 H   0  0  0  0  0  0  0  0  0  0  0  0
   -8.0601   18.5542  -31.0357 H   0  0  0  0  0  0  0  0  0  0  0  0
   -7.5730   18.8190  -33.8830 H   0  0  0  0  0  0  0  0  0  0  0  0
   -9.2110   18.8220  -33.4330 H   0  0  0  0  0  0  0  0  0  0  0  0
  -10.2231   20.6364  -32.3178 H   0  0  0  0  0  0  0  0  0  0  0  0
   -9.9459   22.8974  -31.2465 H   0  0  0  0  0  0  0  0  0  0  0  0
   -7.9505   24.7300  -30.2900 H   0  0  0  0  0  0  0  0  0  0  0  0
   -2.9450   25.3010  -30.3880 H   0  0  0  0  0  0  0  0  0  0  0  0
   -1.7729   23.8384  -30.9569 H   0  0  0  0  0  0  0  0  0  0  0  0
   -0.7827   22.5078  -30.2184 H   0  0  0  0  0  0  0  0  0  0  0  0
   -0.1865   24.9168  -29.5398 H   0  0  0  0  0  0  0  0  0  0  0  0
    0.5766   24.1406  -27.4413 H   0  0  0  0  0  0  0  0  0  0  0  0
    0.1745   22.5857  -28.1521 H   0  0  0  0  0  0  0  0  0  0  0  0
   -1.1035   23.8963  -25.8807 H   0  0  0  0  0  0  0  0  0  0  0  0
   -1.5822   22.3546  -26.5755 H   0  0  0  0  0  0  0  0  0  0  0  0
   -3.2006   24.5751  -26.7097 H   0  0  0  0  0  0  0  0  0  0  0  0
   -4.3820   23.5866  -28.5493 H   0  0  0  0  0  0  0  0  0  0  0  0
   -3.6004   22.2212  -27.6423 H   0  0  0  0  0  0  0  0  0  0  0  0
   -1.6300   25.8760  -27.9180 H   0  0  0  0  0  0  0  0  0  0  0  0
   -5.9001   20.3092  -32.7608 H   0  0  0  0  0  0  0  0  0  0  0  0
  1  2  1  0
  2  3  1  0
  2  4  1  0
  4  5  1  0
  5  6  1  0
  6  7  1  0
  7  8  2  0
  8  9  1  0
  9 10  2  0
 10 11  1  0
 11 12  2  0
 12 13  1  0
 13 14  1  0
 13 15  2  0
 12 16  1  0
 16 17  1  0
 17 18  2  0
 17 19  1  0
 19 20  2  0
 19 21  1  0
 21 22  1  0
 22 23  1  0
 23 24  1  0
 24 25  1  0
 25 26  1  0
 26 27  1  0
 26 28  1  0
 16 29  1  0
 29 30  2  0
 30  7  1  0
 29 10  1  0
 27 21  1  0
 28 23  1  0
  1 31  1  0
  1 32  1  0
  1 33  1  0
  3 34  1  0
  3 35  1  0
  3 36  1  0
  4 37  1  0
  4 38  1  0
  5 39  1  0
  5 40  1  0
  6 41  1  0
  6 42  1  0
  8 43  1  0
  9 44  1  0
 11 45  1  0
 14 46  1  0
 22 47  1  0
 22 48  1  0
 23 49  1  6
 24 50  1  0
 24 51  1  0
 25 52  1  0
 25 53  1  0
 26 54  1  1
 27 55  1  0
 27 56  1  0
 28 57  1  0
 30 58  1  0
M  CHG  2   6   1  14  -1
M  END
>  <UniqueID>  (34) 
34

>  <SMILES>  (34) 
CN(C)CC[NH2+]c1ccc2cc(C([NH-])=O)n(C(=O)C(=O)N3C[C@H]4CC[C@@H](C3)N4)c2c1

>  <Energy>  (34) 
112.91779372645246

>  <Genealogy>  (34) 
CN(C)CC[NH2+]c1ccc2cc(C([NH-])=O)n(C(=O)C(=O)N3CC4CCC(C3)N4)c2c1 (protonated)
CN(C)CC[NH2+]c1ccc2cc(C([NH-])=O)n(C(=O)C(=O)N3C[C@H]4CC[C@@H](C3)N4)c2c1 (chirality)
CN(C)CC[NH2+]c1ccc2cc(C([NH-])=O)n(C(=O)C(=O)N3C[C@H]4CC[C@@H](C3)N4)c2c1 (3D coordinates assigned)
CN(C)CC[NH2+]c1ccc2cc(C([NH-])=O)n(C(=O)C(=O)N3C[C@H]4CC[C@@H](C3)N4)c2c1 (nonaromatic ring conformer: 112.91779372645246 kcal/mol)

>  <smiles>  (34) 
CN(C)CCNc1ccc2cc(C(N)=O)n(C(=O)C(=O)N3CC4CCC(C3)N4)c2c1

>  <score_type>  (34) 
oracle

>  <origin>  (34) 
adg

>  <m_score__min__energy>  (34) 
-11.32

>  <m_primary>  (34) 
energy

$$$$
34:0
     RDKit          3D

 48 49  0  0  0  0  0  0  0  0999 V2000
   -8.5530   22.8080  -31.9260 C   0  0  0  0  0  0  0  0  0  0  0  0
   -7.4020   22.0330  -32.3740 N   0  0  0  0  0  0  0  0  0  0  0  0
   -7.3870   20.6020  -32.3120 C   0  0  0  0  0  0  0  0  0  0  0  0
   -8.3970   19.9800  -31.8800 O   0  0  0  0  0  0  0  0  0  0  0  0
   -6.1660   19.8340  -32.7850 C   0  0  1  0  0  0  0  0  0  0  0  0
   -5.3070   19.3250  -31.6050 C   0  0  0  0  0  0  0  0  0  0  0  0
   -4.0900   20.1910  -31.3900 C   0  0  0  0  0  0  0  0  0  0  0  0
   -2.8680   19.8820  -32.0400 C   0  0  0  0  0  0  0  0  0  0  0  0
   -1.7230   20.6670  -31.8240 C   0  0  0  0  0  0  0  0  0  0  0  0
   -1.8280   21.7450  -30.9490 C   0  0  0  0  0  0  0  0  0  0  0  0
   -0.8840   22.6700  -30.5680 C   0  0  0  0  0  0  0  0  0  0  0  0
   -1.5350   23.5130  -29.6690 C   0  0  0  0  0  0  0  0  0  0  0  0
   -0.8480   24.5860  -28.9210 C   0  0  0  0  0  0  0  0  0  0  0  0
   -1.3890   25.9050  -28.9180 N   0  0  0  0  0  0  0  0  0  0  0  0
    0.2330   24.3600  -28.3170 O   0  0  0  0  0  0  0  0  0  0  0  0
   -2.8380   23.1380  -29.5190 N   0  0  0  0  0  0  0  0  0  0  0  0
   -3.8590   23.7570  -28.7130 C   0  0  0  0  0  0  0  0  0  0  0  0
   -3.5220   24.5540  -27.7980 O   0  0  0  0  0  0  0  0  0  0  0  0
   -5.3000   23.5440  -28.9630 C   0  0  0  0  0  0  0  0  0  0  0  0
   -6.0100   24.0770  -29.9690 C   0  0  0  0  0  0  0  0  0  0  0  0
   -5.4430   24.7750  -31.1350 C   0  0  0  0  0  0  0  0  0  0  0  0
   -5.8710   24.5010  -32.2870 O   0  0  0  0  0  0  0  0  0  0  0  0
   -4.3820   25.6600  -30.9980 O   0  0  0  0  0  0  0  0  0  0  0  0
   -2.9950   22.0440  -30.2970 C   0  0  0  0  0  0  0  0  0  0  0  0
   -4.1540   21.2890  -30.5030 C   0  0  0  0  0  0  0  0  0  0  0  0
   -6.5000   18.7190  -33.7120 N   0  0  0  0  0  0  0  0  0  0  0  0
   -7.3110   17.6860  -33.0460 C   0  0  0  0  0  0  0  0  0  0  0  0
   -5.3300   18.1010  -34.3640 C   0  0  0  0  0  0  0  0  0  0  0  0
   -8.5781   22.8249  -30.8264 H   0  0  0  0  0  0  0  0  0  0  0  0
   -8.4730   23.8369  -32.3068 H   0  0  0  0  0  0  0  0  0  0  0  0
   -9.4762   22.3469  -32.3068 H   0  0  0  0  0  0  0  0  0  0  0  0
   -6.5700   22.5420  -32.7490 H   0  0  0  0  0  0  0  0  0  0  0  0
   -5.5675   20.5585  -33.3568 H   0  0  0  0  0  0  0  0  0  0  0  0
   -5.9171   19.3330  -30.6897 H   0  0  0  0  0  0  0  0  0  0  0  0
   -4.9669   18.3060  -31.8413 H   0  0  0  0  0  0  0  0  0  0  0  0
   -2.8161   19.0190  -32.7201 H   0  0  0  0  0  0  0  0  0  0  0  0
   -0.7737   20.4373  -32.3301 H   0  0  0  0  0  0  0  0  0  0  0  0
    0.1623   22.7314  -30.9018 H   0  0  0  0  0  0  0  0  0  0  0  0
   -2.4210   26.0610  -28.9610 H   0  0  0  0  0  0  0  0  0  0  0  0
   -5.8386   22.8899  -28.2615 H   0  0  0  0  0  0  0  0  0  0  0  0
   -7.1050   23.9850  -29.9186 H   0  0  0  0  0  0  0  0  0  0  0  0
   -5.0918   21.5435  -29.9875 H   0  0  0  0  0  0  0  0  0  0  0  0
   -7.2233   17.7977  -31.9552 H   0  0  0  0  0  0  0  0  0  0  0  0
   -8.3642   17.7989  -33.3426 H   0  0  0  0  0  0  0  0  0  0  0  0
   -6.9513   16.6897  -33.3426 H   0  0  0  0  0  0  0  0  0  0  0  0
   -4.6338   17.7333  -33.5958 H   0  0  0  0  0  0  0  0  0  0  0  0
   -5.6613   17.2603  -34.9912 H   0  0  0  0  0  0  0  0  0  0  0  0
   -4.8224   18.8486  -34.9912 H   0  0  0  0  0  0  0  0  0  0  0  0
  1  2  1  0
  2  3  1  0
  3  4  2  0
  3  5  1  0
  5  6  1  0
  6  7  1  0
  7  8  2  0
  8  9  1  0
  9 10  2  0
 10 11  1  0
 11 12  2  0
 12 13  1  0
 13 14  1  0
 13 15  2  0
 12 16  1  0
 16 17  1  0
 17 18  2  0
 17 19  1  0
 19 20  2  3
 20 21  1  0
 21 22  2  0
 21 23  1  0
 16 24  1  0
 24 25  2  0
  5 26  1  0
 26 27  1  0
 26 28  1  0
 25  7  1  0
 24 10  1  0
  1 29  1  0
  1 30  1  0
  1 31  1  0
  2 32  1  0
  5 33  1  6
  6 34  1  0
  6 35  1  0
  8 36  1  0
  9 37  1  0
 11 38  1  0
 14 39  1  0
 19 40  1  0
 20 41  1  0
 25 42  1  0
 27 43  1  0
 27 44  1  0
 27 45  1  0
 28 46  1  0
 28 47  1  0
 28 48  1  0
M  CHG  2  14  -1  23  -1
M  END
>  <UniqueID>  (35) 
35

>  <SMILES>  (35) 
CNC(=O)[C@@H](Cc1ccc2cc(C([NH-])=O)n(C(=O)C=CC(=O)[O-])c2c1)N(C)C

>  <Energy>  (35) 
91.76402768091495

>  <Genealogy>  (35) 
CNC(=O)[C@@H](Cc1ccc2cc(C([NH-])=O)n(C(=O)C=CC(=O)[O-])c2c1)N(C)C (protonated)
CNC(=O)[C@@H](Cc1ccc2cc(C([NH-])=O)n(C(=O)C=CC(=O)[O-])c2c1)N(C)C (3D coordinates assigned)
CNC(=O)[C@@H](Cc1ccc2cc(C([NH-])=O)n(C(=O)C=CC(=O)[O-])c2c1)N(C)C (optimized conformer: 91.76402768091495 kcal/mol)

>  <smiles>  (35) 
CNC(=O)[C@@H](Cc1ccc2cc(C(N)=O)n(C(=O)C=CC(=O)O)c2c1)N(C)C

>  <score_type>  (35) 
oracle

>  <origin>  (35) 
adg

>  <m_score__min__energy>  (35) 
-12.67

>  <m_primary>  (35) 
energy

$$$$
35:0
     RDKit          3D

 39 40  0  0  0  0  0  0  0  0999 V2000
   -2.7460   24.5420  -29.4400 C   0  0  0  0  0  0  0  0  0  0  0  0
   -3.5230   25.2610  -30.4370 N   0  0  0  0  0  0  0  0  0  0  0  0
   -4.9470   25.1660  -30.5250 C   0  0  0  0  0  0  0  0  0  0  0  0
   -5.6030   25.9960  -31.2100 O   0  0  0  0  0  0  0  0  0  0  0  0
   -5.6660   24.1040  -29.7550 C   0  0  0  0  0  0  0  0  0  0  0  0
   -6.1110   23.0070  -30.6820 C   0  0  0  0  0  0  0  0  0  0  0  0
   -7.4910   22.7400  -30.8580 C   0  0  0  0  0  0  0  0  0  0  0  0
   -7.9160   21.6880  -31.6880 C   0  0  0  0  0  0  0  0  0  0  0  0
   -6.9410   20.9250  -32.3250 C   0  0  0  0  0  0  0  0  0  0  0  0
   -7.0750   19.8310  -33.1480 C   0  0  0  0  0  0  0  0  0  0  0  0
   -5.7750   19.4570  -33.4750 C   0  0  0  0  0  0  0  0  0  0  0  0
   -5.4580   18.3510  -34.4010 C   0  0  0  0  0  0  0  0  0  0  0  0
   -4.1060   18.0240  -34.7260 N   0  0  0  0  0  0  0  0  0  0  0  0
   -6.3960   17.7210  -34.9570 O   0  0  0  0  0  0  0  0  0  0  0  0
   -4.8690   20.2760  -32.8690 N   0  0  0  0  0  0  0  0  0  0  0  0
   -3.4380   20.1480  -32.8630 C   0  0  0  0  0  0  0  0  0  0  0  0
   -2.8980   19.1400  -32.3300 O   0  0  0  0  0  0  0  0  0  0  0  0
   -2.6480   21.1450  -33.4410 O   0  0  0  0  0  0  0  0  0  0  0  0
   -1.2350   21.2040  -33.2740 C   0  0  0  0  0  0  0  0  0  0  0  0
   -0.5530   20.4250  -34.3940 C   0  0  0  0  0  0  0  0  0  0  0  0
   -1.2540   19.2420  -34.6680 O   0  0  0  0  0  0  0  0  0  0  0  0
   -5.6010   21.1750  -32.1710 C   0  0  0  0  0  0  0  0  0  0  0  0
   -5.1510   22.2030  -31.3330 C   0  0  0  0  0  0  0  0  0  0  0  0
   -3.0720   24.8436  -28.4336 H   0  0  0  0  0  0  0  0  0  0  0  0
   -2.8992   23.4600  -29.5661 H   0  0  0  0  0  0  0  0  0  0  0  0
   -1.6791   24.7785  -29.5661 H   0  0  0  0  0  0  0  0  0  0  0  0
   -4.9908   23.6859  -28.9939 H   0  0  0  0  0  0  0  0  0  0  0  0
   -6.5486   24.5458  -29.2694 H   0  0  0  0  0  0  0  0  0  0  0  0
   -8.2367   23.3614  -30.3406 H   0  0  0  0  0  0  0  0  0  0  0  0
   -8.9857   21.4743  -31.8298 H   0  0  0  0  0  0  0  0  0  0  0  0
   -8.0098   19.3538  -33.4773 H   0  0  0  0  0  0  0  0  0  0  0  0
   -3.3140   18.6310  -34.4170 H   0  0  0  0  0  0  0  0  0  0  0  0
   -3.8990   17.2150  -35.3540 H   0  0  0  0  0  0  0  0  0  0  0  0
   -0.9064   22.2533  -33.3055 H   0  0  0  0  0  0  0  0  0  0  0  0
   -0.9636   20.7614  -32.3042 H   0  0  0  0  0  0  0  0  0  0  0  0
   -0.5236   21.0465  -35.3011 H   0  0  0  0  0  0  0  0  0  0  0  0
    0.4683   20.1675  -34.0769 H   0  0  0  0  0  0  0  0  0  0  0  0
   -1.9280   19.1370  -33.9470 H   0  0  0  0  0  0  0  0  0  0  0  0
   -4.0753   22.3795  -31.1858 H   0  0  0  0  0  0  0  0  0  0  0  0
  1  2  1  0
  2  3  1  0
  3  4  2  0
  3  5  1  0
  5  6  1  0
  6  7  2  0
  7  8  1  0
  8  9  2  0
  9 10  1  0
 10 11  2  0
 11 12  1  0
 12 13  1  0
 12 14  2  0
 11 15  1  0
 15 16  1  0
 16 17  2  0
 16 18  1  0
 18 19  1  0
 19 20  1  0
 20 21  1  0
 15 22  1  0
 22 23  2  0
 23  6  1  0
 22  9  1  0
  1 24  1  0
  1 25  1  0
  1 26  1  0
  5 27  1  0
  5 28  1  0
  7 29  1  0
  8 30  1  0
 10 31  1  0
 13 32  1  0
 13 33  1  0
 19 34  1  0
 19 35  1  0
 20 36  1  0
 20 37  1  0
 21 38  1  0
 23 39  1  0
M  CHG  1   2  -1
M  END
>  <UniqueID>  (36) 
36

>  <SMILES>  (36) 
C[N-]C(=O)Cc1ccc2cc(C(N)=O)n(C(=O)OCCO)c2c1

>  <Energy>  (36) 
68.69879923961494

>  <Genealogy>  (36) 
C[N-]C(=O)Cc1ccc2cc(C(N)=O)n(C(=O)OCCO)c2c1 (protonated)
C[N-]C(=O)Cc1ccc2cc(C(N)=O)n(C(=O)OCCO)c2c1 (3D coordinates assigned)
C[N-]C(=O)Cc1ccc2cc(C(N)=O)n(C(=O)OCCO)c2c1 (optimized conformer: 68.69879923961494 kcal/mol)

>  <smiles>  (36) 
CNC(=O)Cc1ccc2cc(C(N)=O)n(C(=O)OCCO)c2c1

>  <score_type>  (36) 
oracle

>  <origin>  (36) 
adg

>  <m_score__min__energy>  (36) 
-8.3399999999999999

>  <m_primary>  (36) 
energy

$$$$
36:0
     RDKit          3D

 56 58  0  0  0  0  0  0  0  0999 V2000
   -4.0130   14.8940  -32.8640 C   0  0  0  0  0  0  0  0  0  0  0  0
   -4.7270   15.7490  -33.8390 N   0  0  2  0  0  0  0  0  0  0  0  0
   -3.8780   16.8450  -34.2400 C   0  0  0  0  0  0  0  0  0  0  0  0
   -3.8740   17.2360  -35.4420 O   0  0  0  0  0  0  0  0  0  0  0  0
   -3.0290   17.4370  -33.2850 O   0  0  0  0  0  0  0  0  0  0  0  0
   -2.2250   18.6130  -33.4770 C   0  0  0  0  0  0  0  0  0  0  0  0
   -3.0980   19.7990  -33.9460 C   0  0  0  0  0  0  0  0  0  0  0  0
   -1.4710   18.9720  -32.1800 C   0  0  0  0  0  0  0  0  0  0  0  0
   -1.1970   18.2880  -34.5750 C   0  0  0  0  0  0  0  0  0  0  0  0
   -6.0550   16.2880  -33.4290 C   0  0  0  0  0  0  0  0  0  0  0  0
   -6.4900   17.5920  -34.0420 C   0  0  0  0  0  0  0  0  0  0  0  0
   -6.4320   18.3730  -32.7900 N   0  0  0  0  0  0  0  0  0  0  0  0
   -6.6510   19.7280  -32.3920 C   0  0  0  0  0  0  0  0  0  0  0  0
   -7.9610   20.2580  -32.3950 C   0  0  0  0  0  0  0  0  0  0  0  0
   -8.1990   21.5850  -32.0000 C   0  0  0  0  0  0  0  0  0  0  0  0
   -7.1060   22.3540  -31.6150 C   0  0  0  0  0  0  0  0  0  0  0  0
   -7.0560   23.6540  -31.1650 C   0  0  0  0  0  0  0  0  0  0  0  0
   -5.7070   23.9050  -30.9170 C   0  0  0  0  0  0  0  0  0  0  0  0
   -5.1900   25.2290  -30.5140 C   0  0  0  0  0  0  0  0  0  0  0  0
   -3.8710   25.6390  -30.8720 N   0  0  0  0  0  0  0  0  0  0  0  0
   -5.9490   26.0370  -29.9120 O   0  0  0  0  0  0  0  0  0  0  0  0
   -4.9520   22.8030  -31.1930 N   0  0  0  0  0  0  0  0  0  0  0  0
   -3.5420   22.6300  -30.9600 C   0  0  0  0  0  0  0  0  0  0  0  0
   -2.8630   21.8620  -31.7000 O   0  0  0  0  0  0  0  0  0  0  0  0
   -2.9340   23.2990  -29.8930 O   0  0  0  0  0  0  0  0  0  0  0  0
   -3.5690   23.4790  -28.6260 C   0  0  0  0  0  0  0  0  0  0  0  0
   -3.4620   24.8240  -28.2290 O   0  0  0  0  0  0  0  0  0  0  0  0
   -5.8230   21.8600  -31.6230 C   0  0  0  0  0  0  0  0  0  0  0  0
   -5.5630   20.5340  -31.9960 C   0  0  0  0  0  0  0  0  0  0  0  0
   -6.0430   17.0950  -32.1610 C   0  0  0  0  0  0  0  0  0  0  0  0
   -4.2740   15.2065  -31.8421 H   0  0  0  0  0  0  0  0  0  0  0  0
   -4.3066   13.8444  -33.0127 H   0  0  0  0  0  0  0  0  0  0  0  0
   -2.9279   14.9958  -33.0127 H   0  0  0  0  0  0  0  0  0  0  0  0
   -4.8960   15.1590  -34.6890 H   0  0  0  0  0  0  0  0  0  0  0  0
   -3.4917   20.3338  -33.0691 H   0  0  0  0  0  0  0  0  0  0  0  0
   -2.4885   20.4861  -34.5514 H   0  0  0  0  0  0  0  0  0  0  0  0
   -3.9352   19.4212  -34.5514 H   0  0  0  0  0  0  0  0  0  0  0  0
   -2.0791   18.6825  -31.3103 H   0  0  0  0  0  0  0  0  0  0  0  0
   -0.5120   18.4338  -32.1524 H   0  0  0  0  0  0  0  0  0  0  0  0
   -1.2842   20.0557  -32.1524 H   0  0  0  0  0  0  0  0  0  0  0  0
   -0.2465   17.9875  -34.1100 H   0  0  0  0  0  0  0  0  0  0  0  0
   -1.5756   17.4657  -35.1999 H   0  0  0  0  0  0  0  0  0  0  0  0
   -1.0341   19.1785  -35.1999 H   0  0  0  0  0  0  0  0  0  0  0  0
   -6.6058   15.3471  -33.5747 H   0  0  0  0  0  0  0  0  0  0  0  0
   -5.7880   17.9587  -34.8053 H   0  0  0  0  0  0  0  0  0  0  0  0
   -7.4413   17.5961  -34.5943 H   0  0  0  0  0  0  0  0  0  0  0  0
   -8.8034   19.6247  -32.7100 H   0  0  0  0  0  0  0  0  0  0  0  0
   -9.2168   22.0023  -31.9954 H   0  0  0  0  0  0  0  0  0  0  0  0
   -7.8998   24.3467  -31.0299 H   0  0  0  0  0  0  0  0  0  0  0  0
   -3.0390   25.2930  -30.3410 H   0  0  0  0  0  0  0  0  0  0  0  0
   -4.6313   23.2051  -28.7072 H   0  0  0  0  0  0  0  0  0  0  0  0
   -3.0785   22.8384  -27.8784 H   0  0  0  0  0  0  0  0  0  0  0  0
   -4.1520   25.3160  -28.7470 H   0  0  0  0  0  0  0  0  0  0  0  0
   -4.5388   20.1330  -31.9804 H   0  0  0  0  0  0  0  0  0  0  0  0
   -5.0484   17.1368  -31.6929 H   0  0  0  0  0  0  0  0  0  0  0  0
   -6.6662   16.7339  -31.3296 H   0  0  0  0  0  0  0  0  0  0  0  0
  1  2  1  0
  2  3  1  0
  3  4  2  0
  3  5  1  0
  5  6  1  0
  6  7  1  0
  6  8  1  0
  6  9  1  0
  2 10  1  0
 10 11  1  0
 11 12  1  0
 12 13  1  0
 13 14  2  0
 14 15  1  0
 15 16  2  0
 16 17  1  0
 17 18  2  0
 18 19  1  0
 19 20  1  0
 19 21  2  0
 18 22  1  0
 22 23  1  0
 23 24  2  0
 23 25  1  0
 25 26  1  0
 26 27  1  0
 22 28  1  0
 28 29  2  0
 12 30  1  0
 30 10  1  0
 29 13  1  0
 28 16  1  0
  1 31  1  0
  1 32  1  0
  1 33  1  0
  2 34  1  6
  7 35  1  0
  7 36  1  0
  7 37  1  0
  8 38  1  0
  8 39  1  0
  8 40  1  0
  9 41  1  0
  9 42  1  0
  9 43  1  0
 10 44  1  0
 11 45  1  0
 11 46  1  0
 14 47  1  0
 15 48  1  0
 17 49  1  0
 20 50  1  0
 26 51  1  0
 26 52  1  0
 27 53  1  0
 29 54  1  0
 30 55  1  0
 30 56  1  0
M  CHG  2   2   1  20  -1
M  END
>  <UniqueID>  (37) 
37

>  <SMILES>  (37) 
C[N@H+](C(=O)OC(C)(C)C)C1CN(c2ccc3cc(C([NH-])=O)n(C(=O)OCO)c3c2)C1

>  <Energy>  (37) 
143.2571429703045

>  <Genealogy>  (37) 
C[NH+](C(=O)OC(C)(C)C)C1CN(c2ccc3cc(C([NH-])=O)n(C(=O)OCO)c3c2)C1 (protonated)
C[N@H+](C(=O)OC(C)(C)C)C1CN(c2ccc3cc(C([NH-])=O)n(C(=O)OCO)c3c2)C1 (chirality)
C[N@H+](C(=O)OC(C)(C)C)C1CN(c2ccc3cc(C([NH-])=O)n(C(=O)OCO)c3c2)C1 (3D coordinates assigned)
C[N@H+](C(=O)OC(C)(C)C)C1CN(c2ccc3cc(C([NH-])=O)n(C(=O)OCO)c3c2)C1 (nonaromatic ring conformer: 143.2571429703045 kcal/mol)

>  <smiles>  (37) 
CN(C(=O)OC(C)(C)C)C1CN(c2ccc3cc(C(N)=O)n(C(=O)OCO)c3c2)C1

>  <score_type>  (37) 
oracle

>  <origin>  (37) 
adg

>  <m_score__min__energy>  (37) 
-9.8000000000000007

>  <m_primary>  (37) 
energy

$$$$
37:0
     RDKit          3D

 42 43  0  0  0  0  0  0  0  0999 V2000
   -4.0420   22.6960  -28.3990 C   0  0  0  0  0  0  0  0  0  0  0  0
   -2.7830   22.9150  -29.2620 C   0  0  0  0  0  0  0  0  0  0  0  0
   -1.8060   23.8800  -28.5630 C   0  0  0  0  0  0  0  0  0  0  0  0
   -2.0840   21.5640  -29.4720 C   0  0  0  0  0  0  0  0  0  0  0  0
   -3.1420   23.4110  -30.5600 O   0  0  0  0  0  0  0  0  0  0  0  0
   -3.9580   22.7660  -31.5010 C   0  0  0  0  0  0  0  0  0  0  0  0
   -3.4550   22.1410  -32.4740 O   0  0  0  0  0  0  0  0  0  0  0  0
   -5.3870   22.8360  -31.3620 N   0  0  0  0  0  0  0  0  0  0  0  0
   -6.1220   23.8410  -30.8060 C   0  0  0  0  0  0  0  0  0  0  0  0
   -5.5920   25.1480  -30.3560 C   0  0  0  0  0  0  0  0  0  0  0  0
   -4.2420   25.5230  -30.6370 N   0  0  0  0  0  0  0  0  0  0  0  0
   -6.3210   25.9300  -29.6920 O   0  0  0  0  0  0  0  0  0  0  0  0
   -7.4760   23.5080  -30.8020 C   0  0  0  0  0  0  0  0  0  0  0  0
   -7.5470   22.2600  -31.3790 C   0  0  0  0  0  0  0  0  0  0  0  0
   -8.6490   21.4440  -31.6140 C   0  0  0  0  0  0  0  0  0  0  0  0
   -8.4260   20.1870  -32.1990 C   0  0  0  0  0  0  0  0  0  0  0  0
   -7.1150   19.7710  -32.5380 C   0  0  0  0  0  0  0  0  0  0  0  0
   -6.8830   18.4030  -33.1200 C   0  0  0  0  0  0  0  0  0  0  0  0
   -5.6680   18.4120  -34.0490 C   0  0  0  0  0  0  0  0  0  0  0  0
   -6.0510   18.7940  -35.3430 O   0  0  0  0  0  0  0  0  0  0  0  0
   -6.0190   20.6220  -32.2740 C   0  0  0  0  0  0  0  0  0  0  0  0
   -6.2720   21.8770  -31.7080 C   0  0  0  0  0  0  0  0  0  0  0  0
   -3.7695   22.7434  -27.3343 H   0  0  0  0  0  0  0  0  0  0  0  0
   -4.7812   23.4790  -28.6235 H   0  0  0  0  0  0  0  0  0  0  0  0
   -4.4734   21.7093  -28.6235 H   0  0  0  0  0  0  0  0  0  0  0  0
   -1.9082   23.7790  -27.4724 H   0  0  0  0  0  0  0  0  0  0  0  0
   -0.7750   23.6359  -28.8588 H   0  0  0  0  0  0  0  0  0  0  0  0
   -2.0373   24.9139  -28.8588 H   0  0  0  0  0  0  0  0  0  0  0  0
   -1.8519   21.1154  -28.4948 H   0  0  0  0  0  0  0  0  0  0  0  0
   -2.7474   20.8917  -30.0358 H   0  0  0  0  0  0  0  0  0  0  0  0
   -1.1520   21.7171  -30.0358 H   0  0  0  0  0  0  0  0  0  0  0  0
   -3.6250   24.9280  -31.2310 H   0  0  0  0  0  0  0  0  0  0  0  0
   -3.8670   26.4310  -30.2810 H   0  0  0  0  0  0  0  0  0  0  0  0
   -8.3104   24.1139  -30.4191 H   0  0  0  0  0  0  0  0  0  0  0  0
   -9.6646   21.7736  -31.3495 H   0  0  0  0  0  0  0  0  0  0  0  0
   -9.2775   19.5190  -32.3959 H   0  0  0  0  0  0  0  0  0  0  0  0
   -6.7081   17.6875  -32.3030 H   0  0  0  0  0  0  0  0  0  0  0  0
   -7.7704   18.1092  -33.6998 H   0  0  0  0  0  0  0  0  0  0  0  0
   -4.9225   19.1242  -33.6655 H   0  0  0  0  0  0  0  0  0  0  0  0
   -5.2367   17.4007  -34.0860 H   0  0  0  0  0  0  0  0  0  0  0  0
   -6.8770   19.3350  -35.2470 H   0  0  0  0  0  0  0  0  0  0  0  0
   -4.9915   20.3062  -32.5075 H   0  0  0  0  0  0  0  0  0  0  0  0
  1  2  1  0
  2  3  1  0
  2  4  1  0
  2  5  1  0
  5  6  1  0
  6  7  2  0
  6  8  1  0
  8  9  1  0
  9 10  1  0
 10 11  1  0
 10 12  2  0
  9 13  2  0
 13 14  1  0
 14 15  2  0
 15 16  1  0
 16 17  2  0
 17 18  1  0
 18 19  1  0
 19 20  1  0
 17 21  1  0
 21 22  2  0
 22  8  1  0
 22 14  1  0
  1 23  1  0
  1 24  1  0
  1 25  1  0
  3 26  1  0
  3 27  1  0
  3 28  1  0
  4 29  1  0
  4 30  1  0
  4 31  1  0
 11 32  1  0
 11 33  1  0
 13 34  1  0
 15 35  1  0
 16 36  1  0
 18 37  1  0
 18 38  1  0
 19 39  1  0
 19 40  1  0
 20 41  1  0
 21 42  1  0
M  END
>  <UniqueID>  (38) 
38

>  <SMILES>  (38) 
CC(C)(C)OC(=O)n1c(C(N)=O)cc2ccc(CCO)cc21

>  <Energy>  (38) 
72.18650513423023

>  <Genealogy>  (38) 
CC(C)(C)OC(=O)n1c(C(N)=O)cc2ccc(CCO)cc21 (3D coordinates assigned)
CC(C)(C)OC(=O)n1c(C(N)=O)cc2ccc(CCO)cc21 (optimized conformer: 72.18650513423023 kcal/mol)

>  <smiles>  (38) 
CC(C)(C)OC(=O)n1c(C(N)=O)cc2ccc(CCO)cc21

>  <score_type>  (38) 
oracle

>  <origin>  (38) 
adg

>  <m_score__min__energy>  (38) 
-8.7599999999999998

>  <m_primary>  (38) 
energy

$$$$
38:0
     RDKit          3D

 31 32  0  0  0  0  0  0  0  0999 V2000
   -8.8270   18.8670  -32.0140 C   0  0  0  0  0  0  0  0  0  0  0  0
   -7.8060   19.4310  -32.8880 N   0  0  0  0  0  0  0  0  0  0  0  0
   -6.4510   19.6000  -32.4560 C   0  0  0  0  0  0  0  0  0  0  0  0
   -6.1060   19.2530  -31.2940 O   0  0  0  0  0  0  0  0  0  0  0  0
   -5.4230   20.1450  -33.3990 C   0  0  0  0  0  0  0  0  0  0  0  0
   -4.2320   20.6440  -32.6300 C   0  0  0  0  0  0  0  0  0  0  0  0
   -3.0020   19.9440  -32.6950 C   0  0  0  0  0  0  0  0  0  0  0  0
   -1.8680   20.4240  -32.0190 C   0  0  0  0  0  0  0  0  0  0  0  0
   -1.9940   21.6040  -31.2910 C   0  0  0  0  0  0  0  0  0  0  0  0
   -1.0530   22.3050  -30.5740 C   0  0  0  0  0  0  0  0  0  0  0  0
   -1.7240   23.4170  -30.0700 C   0  0  0  0  0  0  0  0  0  0  0  0
   -1.0990   24.3990  -29.1610 C   0  0  0  0  0  0  0  0  0  0  0  0
   -1.6950   25.6750  -28.9380 N   0  0  0  0  0  0  0  0  0  0  0  0
   -0.0510   24.0900  -28.5340 O   0  0  0  0  0  0  0  0  0  0  0  0
   -3.0280   23.4110  -30.4690 N   0  0  0  0  0  0  0  0  0  0  0  0
   -4.0210   24.4250  -30.2450 C   0  0  0  0  0  0  0  0  0  0  0  0
   -5.0300   24.1830  -29.5330 O   0  0  0  0  0  0  0  0  0  0  0  0
   -3.8900   25.6760  -30.8350 O   0  0  0  0  0  0  0  0  0  0  0  0
   -3.1780   22.2910  -31.2130 C   0  0  0  0  0  0  0  0  0  0  0  0
   -4.3190   21.8440  -31.8900 C   0  0  0  0  0  0  0  0  0  0  0  0
   -8.5395   19.0258  -30.9642 H   0  0  0  0  0  0  0  0  0  0  0  0
   -9.7903   19.3609  -32.2091 H   0  0  0  0  0  0  0  0  0  0  0  0
   -8.9217   17.7886  -32.2091 H   0  0  0  0  0  0  0  0  0  0  0  0
   -8.0750   19.7120  -33.8590 H   0  0  0  0  0  0  0  0  0  0  0  0
   -5.1039   19.3499  -34.0889 H   0  0  0  0  0  0  0  0  0  0  0  0
   -5.8608   20.9790  -33.9671 H   0  0  0  0  0  0  0  0  0  0  0  0
   -2.9343   19.0153  -33.2807 H   0  0  0  0  0  0  0  0  0  0  0  0
   -0.9105   19.8844  -32.0635 H   0  0  0  0  0  0  0  0  0  0  0  0
    0.0055   22.0431  -30.4291 H   0  0  0  0  0  0  0  0  0  0  0  0
   -2.7260   25.8090  -29.0310 H   0  0  0  0  0  0  0  0  0  0  0  0
   -5.2595   22.4129  -31.8467 H   0  0  0  0  0  0  0  0  0  0  0  0
  1  2  1  0
  2  3  1  0
  3  4  2  0
  3  5  1  0
  5  6  1  0
  6  7  2  0
  7  8  1  0
  8  9  2  0
  9 10  1  0
 10 11  2  0
 11 12  1  0
 12 13  1  0
 12 14  2  0
 11 15  1  0
 15 16  1  0
 16 17  2  0
 16 18  1  0
 15 19  1  0
 19 20  2  0
 20  6  1  0
 19  9  1  0
  1 21  1  0
  1 22  1  0
  1 23  1  0
  2 24  1  0
  5 25  1  0
  5 26  1  0
  7 27  1  0
  8 28  1  0
 10 29  1  0
 13 30  1  0
 20 31  1  0
M  CHG  2  13  -1  18  -1
M  END
>  <UniqueID>  (39) 
39

>  <SMILES>  (39) 
CNC(=O)Cc1ccc2cc(C([NH-])=O)n(C(=O)[O-])c2c1

>  <Energy>  (39) 
65.85311253621714

>  <Genealogy>  (39) 
CNC(=O)Cc1ccc2cc(C([NH-])=O)n(C(=O)[O-])c2c1 (protonated)
CNC(=O)Cc1ccc2cc(C([NH-])=O)n(C(=O)[O-])c2c1 (3D coordinates assigned)
CNC(=O)Cc1ccc2cc(C([NH-])=O)n(C(=O)[O-])c2c1 (optimized conformer: 65.85311253621714 kcal/mol)

>  <smiles>  (39) 
CNC(=O)Cc1ccc2cc(C(N)=O)n(C(=O)O)c2c1

>  <score_type>  (39) 
oracle

>  <origin>  (39) 
adg

>  <m_score__min__energy>  (39) 
-10.82

>  <m_primary>  (39) 
energy

$$$$
39:0
     RDKit          3D

 57 59  0  0  0  0  0  0  0  0999 V2000
   -0.9070   21.1590  -33.7970 C   0  0  0  0  0  0  0  0  0  0  0  0
   -1.3420   20.7100  -32.4040 C   0  0  0  0  0  0  0  0  0  0  0  0
   -2.1250   19.5190  -32.4820 O   0  0  0  0  0  0  0  0  0  0  0  0
   -3.1900   19.3540  -33.3760 C   0  0  0  0  0  0  0  0  0  0  0  0
   -3.8500   20.3490  -33.7820 O   0  0  0  0  0  0  0  0  0  0  0  0
   -3.5120   17.9840  -33.8900 C   0  0  0  0  0  0  0  0  0  0  0  0
   -4.8310   17.5510  -33.4070 N   0  0  0  0  0  0  0  0  0  0  0  0
   -4.9000   16.4750  -32.4120 C   0  0  0  0  0  0  0  0  0  0  0  0
   -6.0300   18.2400  -33.8320 C   0  0  0  0  0  0  0  0  0  0  0  0
   -6.1270   18.6450  -35.0250 O   0  0  0  0  0  0  0  0  0  0  0  0
   -7.1760   18.4680  -32.8720 C   0  0  0  0  0  0  0  0  0  0  0  0
   -7.2760   19.9030  -32.4220 C   0  0  0  0  0  0  0  0  0  0  0  0
   -8.5320   20.5620  -32.4330 C   0  0  0  0  0  0  0  0  0  0  0  0
   -8.6440   21.8960  -32.0060 C   0  0  0  0  0  0  0  0  0  0  0  0
   -7.4910   22.5360  -31.5600 C   0  0  0  0  0  0  0  0  0  0  0  0
   -7.3090   23.8340  -31.1340 C   0  0  0  0  0  0  0  0  0  0  0  0
   -5.9520   23.9360  -30.8360 C   0  0  0  0  0  0  0  0  0  0  0  0
   -5.3290   25.1550  -30.2820 C   0  0  0  0  0  0  0  0  0  0  0  0
   -4.1230   25.6760  -30.8390 N   0  0  0  0  0  0  0  0  0  0  0  0
   -5.8410   25.7200  -29.2790 O   0  0  0  0  0  0  0  0  0  0  0  0
   -5.3200   22.7510  -31.0700 N   0  0  0  0  0  0  0  0  0  0  0  0
   -3.9110   22.4880  -31.0030 C   0  0  0  0  0  0  0  0  0  0  0  0
   -3.0970   23.2520  -31.5900 O   0  0  0  0  0  0  0  0  0  0  0  0
   -3.4460   21.3980  -30.2570 O   0  0  0  0  0  0  0  0  0  0  0  0
   -2.5080   21.5200  -29.1910 C   0  0  0  0  0  0  0  0  0  0  0  0
   -2.7720   22.7710  -28.3200 C   0  0  0  0  0  0  0  0  0  0  0  0
   -4.2050   23.0260  -27.8390 C   0  0  0  0  0  0  0  0  0  0  0  0
   -2.0180   24.0220  -28.7730 C   0  0  0  0  0  0  0  0  0  0  0  0
   -1.6390   23.3410  -27.4670 C   0  0  0  0  0  0  0  0  0  0  0  0
   -6.2750   21.9050  -31.5140 C   0  0  0  0  0  0  0  0  0  0  0  0
   -6.1300   20.5830  -31.9500 C   0  0  0  0  0  0  0  0  0  0  0  0
   -0.1442   21.9464  -33.7069 H   0  0  0  0  0  0  0  0  0  0  0  0
   -0.4867   20.3021  -34.3438 H   0  0  0  0  0  0  0  0  0  0  0  0
   -1.7768   21.5520  -34.3438 H   0  0  0  0  0  0  0  0  0  0  0  0
   -0.4492   20.5163  -31.7913 H   0  0  0  0  0  0  0  0  0  0  0  0
   -1.9504   21.5054  -31.9488 H   0  0  0  0  0  0  0  0  0  0  0  0
   -3.5169   18.0017  -34.9898 H   0  0  0  0  0  0  0  0  0  0  0  0
   -2.7502   17.2788  -33.5260 H   0  0  0  0  0  0  0  0  0  0  0  0
   -4.8722   16.9080  -31.4012 H   0  0  0  0  0  0  0  0  0  0  0  0
   -5.8361   15.9126  -32.5444 H   0  0  0  0  0  0  0  0  0  0  0  0
   -4.0434   15.7977  -32.5444 H   0  0  0  0  0  0  0  0  0  0  0  0
   -8.1154   18.1888  -33.3716 H   0  0  0  0  0  0  0  0  0  0  0  0
   -6.9927   17.8504  -31.9804 H   0  0  0  0  0  0  0  0  0  0  0  0
   -9.4267   20.0237  -32.7790 H   0  0  0  0  0  0  0  0  0  0  0  0
   -9.6121   22.4180  -32.0236 H   0  0  0  0  0  0  0  0  0  0  0  0
   -8.0723   24.6214  -31.0477 H   0  0  0  0  0  0  0  0  0  0  0  0
   -3.2010   25.2280  -30.6410 H   0  0  0  0  0  0  0  0  0  0  0  0
   -2.5761   20.6250  -28.5552 H   0  0  0  0  0  0  0  0  0  0  0  0
   -1.5060   21.6220  -29.6332 H   0  0  0  0  0  0  0  0  0  0  0  0
   -4.2274   23.0300  -26.7392 H   0  0  0  0  0  0  0  0  0  0  0  0
   -4.5506   23.9998  -28.2163 H   0  0  0  0  0  0  0  0  0  0  0  0
   -4.8653   22.2312  -28.2163 H   0  0  0  0  0  0  0  0  0  0  0  0
   -1.3384   23.9716  -29.6365 H   0  0  0  0  0  0  0  0  0  0  0  0
   -2.3091   25.0430  -29.0609 H   0  0  0  0  0  0  0  0  0  0  0  0
   -0.6854   22.7986  -27.3867 H   0  0  0  0  0  0  0  0  0  0  0  0
   -1.5428   23.6666  -26.4207 H   0  0  0  0  0  0  0  0  0  0  0  0
   -5.1491   20.0857  -31.9260 H   0  0  0  0  0  0  0  0  0  0  0  0
  1  2  1  0
  2  3  1  0
  3  4  1  0
  4  5  2  0
  4  6  1  0
  6  7  1  0
  7  8  1  0
  7  9  1  0
  9 10  2  0
  9 11  1  0
 11 12  1  0
 12 13  2  0
 13 14  1  0
 14 15  2  0
 15 16  1  0
 16 17  2  0
 17 18  1  0
 18 19  1  0
 18 20  2  0
 17 21  1  0
 21 22  1  0
 22 23  2  0
 22 24  1  0
 24 25  1  0
 25 26  1  0
 26 27  1  0
 26 28  1  0
 28 29  1  0
 21 30  1  0
 30 31  2  0
 31 12  1  0
 30 15  1  0
 29 26  1  0
  1 32  1  0
  1 33  1  0
  1 34  1  0
  2 35  1  0
  2 36  1  0
  6 37  1  0
  6 38  1  0
  8 39  1  0
  8 40  1  0
  8 41  1  0
 11 42  1  0
 11 43  1  0
 13 44  1  0
 14 45  1  0
 16 46  1  0
 19 47  1  0
 25 48  1  0
 25 49  1  0
 27 50  1  0
 27 51  1  0
 27 52  1  0
 28 53  1  0
 28 54  1  0
 29 55  1  0
 29 56  1  0
 31 57  1  0
M  CHG  1  19  -1
M  END
>  <UniqueID>  (40) 
40

>  <SMILES>  (40) 
CCOC(=O)CN(C)C(=O)Cc1ccc2cc(C([NH-])=O)n(C(=O)OCC3(C)CC3)c2c1

>  <Energy>  (40) 
355.2826002301249

>  <Genealogy>  (40) 
CCOC(=O)CN(C)C(=O)Cc1ccc2cc(C([NH-])=O)n(C(=O)OCC3(C)CC3)c2c1 (protonated)
CCOC(=O)CN(C)C(=O)Cc1ccc2cc(C([NH-])=O)n(C(=O)OCC3(C)CC3)c2c1 (3D coordinates assigned)
CCOC(=O)CN(C)C(=O)Cc1ccc2cc(C([NH-])=O)n(C(=O)OCC3(C)CC3)c2c1 (nonaromatic ring conformer: 355.2826002301249 kcal/mol)

>  <smiles>  (40) 
CCOC(=O)CN(C)C(=O)Cc1ccc2cc(C(N)=O)n(C(=O)OCC3(C)CC3)c2c1

>  <score_type>  (40) 
oracle

>  <origin>  (40) 
adg

>  <m_score__min__energy>  (40) 
-10.84

>  <m_primary>  (40) 
energy

$$$$
40:0
     RDKit          3D

 42 44  0  0  0  0  0  0  0  0999 V2000
   -5.3660   11.6090  -32.8490 C   0  0  0  0  0  0  0  0  0  0  0  0
   -4.8920   12.9950  -32.7680 N   0  0  0  0  0  0  0  0  0  0  0  0
   -3.7420   13.3290  -31.9210 C   0  0  0  0  0  0  0  0  0  0  0  0
   -5.5810   14.0170  -33.5210 C   0  0  0  0  0  0  0  0  0  0  0  0
   -6.5960   13.7060  -34.2050 O   0  0  0  0  0  0  0  0  0  0  0  0
   -5.1380   15.3850  -33.5030 N   0  0  0  0  0  0  0  0  0  0  0  0
   -5.8660   16.4240  -34.2380 C   0  0  0  0  0  0  0  0  0  0  0  0
   -5.2120   17.7730  -34.1850 C   0  0  0  0  0  0  0  0  0  0  0  0
   -6.2550   18.4170  -33.3650 N   0  0  0  0  0  0  0  0  0  0  0  0
   -6.5080   19.7060  -32.8030 C   0  0  0  0  0  0  0  0  0  0  0  0
   -7.8400   20.1560  -32.6420 C   0  0  0  0  0  0  0  0  0  0  0  0
   -8.1040   21.4250  -32.1010 C   0  0  0  0  0  0  0  0  0  0  0  0
   -7.0180   22.2130  -31.7270 C   0  0  0  0  0  0  0  0  0  0  0  0
   -6.9860   23.4850  -31.2050 C   0  0  0  0  0  0  0  0  0  0  0  0
   -5.6350   23.7800  -31.0330 C   0  0  0  0  0  0  0  0  0  0  0  0
   -5.1520   25.0310  -30.4100 C   0  0  0  0  0  0  0  0  0  0  0  0
   -3.9330   25.6360  -30.8310 N   0  0  0  0  0  0  0  0  0  0  0  0
   -5.8000   25.5450  -29.4600 O   0  0  0  0  0  0  0  0  0  0  0  0
   -4.8600   22.7350  -31.4410 N   0  0  0  0  0  0  0  0  0  0  0  0
   -3.4270   22.6730  -31.5080 C   0  0  0  0  0  0  0  0  0  0  0  0
   -2.7240   23.1690  -30.5890 O   0  0  0  0  0  0  0  0  0  0  0  0
   -2.8010   22.0860  -32.6020 O   0  0  0  0  0  0  0  0  0  0  0  0
   -5.7230   21.7810  -31.8600 C   0  0  0  0  0  0  0  0  0  0  0  0
   -5.4320   20.5280  -32.4140 C   0  0  0  0  0  0  0  0  0  0  0  0
   -6.9100   17.0970  -33.4030 C   0  0  0  0  0  0  0  0  0  0  0  0
   -5.5030   11.2084  -31.8337 H   0  0  0  0  0  0  0  0  0  0  0  0
   -6.3250   11.5803  -33.3870 H   0  0  0  0  0  0  0  0  0  0  0  0
   -4.6254   10.9990  -33.3870 H   0  0  0  0  0  0  0  0  0  0  0  0
   -4.0296   13.2455  -30.8626 H   0  0  0  0  0  0  0  0  0  0  0  0
   -2.9165   12.6335  -32.1326 H   0  0  0  0  0  0  0  0  0  0  0  0
   -3.4175   14.3585  -32.1326 H   0  0  0  0  0  0  0  0  0  0  0  0
   -4.2530   15.6380  -33.0120 H   0  0  0  0  0  0  0  0  0  0  0  0
   -6.0664   15.8779  -35.1716 H   0  0  0  0  0  0  0  0  0  0  0  0
   -4.2320   17.7510  -33.6858 H   0  0  0  0  0  0  0  0  0  0  0  0
   -4.9634   18.2485  -35.1452 H   0  0  0  0  0  0  0  0  0  0  0  0
   -8.6754   19.5067  -32.9430 H   0  0  0  0  0  0  0  0  0  0  0  0
   -9.1359   21.7852  -31.9766 H   0  0  0  0  0  0  0  0  0  0  0  0
   -7.8446   24.1321  -30.9726 H   0  0  0  0  0  0  0  0  0  0  0  0
   -3.0130   25.2990  -30.4690 H   0  0  0  0  0  0  0  0  0  0  0  0
   -4.3915   20.1948  -32.5419 H   0  0  0  0  0  0  0  0  0  0  0  0
   -7.0118   16.6449  -32.4054 H   0  0  0  0  0  0  0  0  0  0  0  0
   -7.9454   17.0626  -33.7729 H   0  0  0  0  0  0  0  0  0  0  0  0
  1  2  1  0
  2  3  1  0
  2  4  1  0
  4  5  2  0
  4  6  1  0
  6  7  1  0
  7  8  1  0
  8  9  1  0
  9 10  1  0
 10 11  2  0
 11 12  1  0
 12 13  2  0
 13 14  1  0
 14 15  2  0
 15 16  1  0
 16 17  1  0
 16 18  2  0
 15 19  1  0
 19 20  1  0
 20 21  2  0
 20 22  1  0
 19 23  1  0
 23 24  2  0
  9 25  1  0
 25  7  1  0
 24 10  1  0
 23 13  1  0
  1 26  1  0
  1 27  1  0
  1 28  1  0
  3 29  1  0
  3 30  1  0
  3 31  1  0
  6 32  1  0
  7 33  1  0
  8 34  1  0
  8 35  1  0
 11 36  1  0
 12 37  1  0
 14 38  1  0
 17 39  1  0
 24 40  1  0
 25 41  1  0
 25 42  1  0
M  CHG  2  17  -1  22  -1
M  END
>  <UniqueID>  (41) 
41

>  <SMILES>  (41) 
CN(C)C(=O)NC1CN(c2ccc3cc(C([NH-])=O)n(C(=O)[O-])c3c2)C1

>  <Energy>  (41) 
123.70790411218312

>  <Genealogy>  (41) 
CN(C)C(=O)NC1CN(c2ccc3cc(C([NH-])=O)n(C(=O)[O-])c3c2)C1 (protonated)
CN(C)C(=O)NC1CN(c2ccc3cc(C([NH-])=O)n(C(=O)[O-])c3c2)C1 (3D coordinates assigned)
CN(C)C(=O)NC1CN(c2ccc3cc(C([NH-])=O)n(C(=O)[O-])c3c2)C1 (nonaromatic ring conformer: 123.70790411218312 kcal/mol)

>  <smiles>  (41) 
CN(C)C(=O)NC1CN(c2ccc3cc(C(N)=O)n(C(=O)O)c3c2)C1

>  <score_type>  (41) 
oracle

>  <origin>  (41) 
adg

>  <m_score__min__energy>  (41) 
-11.15

>  <m_primary>  (41) 
energy

$$$$
41:0
     RDKit          3D

 45 46  0  0  0  0  0  0  0  0999 V2000
   -1.0260   20.9040  -33.3610 C   0  0  0  0  0  0  0  0  0  0  0  0
   -1.7890   21.2870  -32.1690 N   0  0  0  0  0  0  0  0  0  0  0  0
   -1.3120   20.8850  -30.8410 C   0  0  0  0  0  0  0  0  0  0  0  0
   -3.0510   21.9720  -32.3400 C   0  0  0  0  0  0  0  0  0  0  0  0
   -3.5980   21.9830  -33.4780 O   0  0  0  0  0  0  0  0  0  0  0  0
   -3.7380   22.6730  -31.2320 C   0  0  0  0  0  0  0  0  0  0  0  0
   -3.0760   23.1510  -30.2720 O   0  0  0  0  0  0  0  0  0  0  0  0
   -5.1570   22.8880  -31.2800 N   0  0  0  0  0  0  0  0  0  0  0  0
   -5.8510   23.9990  -30.9040 C   0  0  0  0  0  0  0  0  0  0  0  0
   -5.2590   25.2800  -30.4660 C   0  0  0  0  0  0  0  0  0  0  0  0
   -3.9260   25.6150  -30.8510 N   0  0  0  0  0  0  0  0  0  0  0  0
   -5.9060   26.0730  -29.7350 O   0  0  0  0  0  0  0  0  0  0  0  0
   -7.2210   23.7940  -31.0610 C   0  0  0  0  0  0  0  0  0  0  0  0
   -7.3440   22.5160  -31.5590 C   0  0  0  0  0  0  0  0  0  0  0  0
   -8.4830   21.7900  -31.9000 C   0  0  0  0  0  0  0  0  0  0  0  0
   -8.3090   20.4800  -32.3780 C   0  0  0  0  0  0  0  0  0  0  0  0
   -7.0130   19.9280  -32.5000 C   0  0  0  0  0  0  0  0  0  0  0  0
   -6.8480   18.5840  -32.9870 C   0  0  0  0  0  0  0  0  0  0  0  0
   -6.7090   17.4600  -33.3980 C   0  0  0  0  0  0  0  0  0  0  0  0
   -6.5340   16.0840  -33.9000 C   0  0  0  0  0  0  0  0  0  0  0  0
   -5.1130   15.6650  -33.9580 N   0  0  0  0  0  0  0  0  0  0  0  0
   -4.2570   16.7020  -34.5620 C   0  0  0  0  0  0  0  0  0  0  0  0
   -4.5990   15.2690  -32.6350 C   0  0  0  0  0  0  0  0  0  0  0  0
   -5.8800   20.6890  -32.1480 C   0  0  0  0  0  0  0  0  0  0  0  0
   -6.0830   21.9940  -31.6850 C   0  0  0  0  0  0  0  0  0  0  0  0
   -0.0817   20.4300  -33.0552 H   0  0  0  0  0  0  0  0  0  0  0  0
   -1.6149   20.1947  -33.9610 H   0  0  0  0  0  0  0  0  0  0  0  0
   -0.8090   21.8000  -33.9610 H   0  0  0  0  0  0  0  0  0  0  0  0
   -1.9106   21.3895  -30.0682 H   0  0  0  0  0  0  0  0  0  0  0  0
   -1.4127   19.7953  -30.7296 H   0  0  0  0  0  0  0  0  0  0  0  0
   -0.2551   21.1689  -30.7296 H   0  0  0  0  0  0  0  0  0  0  0  0
   -3.1280   24.9790  -30.6280 H   0  0  0  0  0  0  0  0  0  0  0  0
   -8.0315   24.5025  -30.8351 H   0  0  0  0  0  0  0  0  0  0  0  0
   -9.4868   22.2283  -31.7983 H   0  0  0  0  0  0  0  0  0  0  0  0
   -9.1870   19.8800  -32.6591 H   0  0  0  0  0  0  0  0  0  0  0  0
   -7.0754   15.3963  -33.2337 H   0  0  0  0  0  0  0  0  0  0  0  0
   -6.9276   16.0557  -34.9268 H   0  0  0  0  0  0  0  0  0  0  0  0
   -5.0650   14.8220  -34.5770 H   0  0  0  0  0  0  0  0  0  0  0  0
   -3.7736   17.2877  -33.7662 H   0  0  0  0  0  0  0  0  0  0  0  0
   -3.4867   16.2243  -35.1853 H   0  0  0  0  0  0  0  0  0  0  0  0
   -4.8720   17.3678  -35.1853 H   0  0  0  0  0  0  0  0  0  0  0  0
   -5.2087   15.7387  -31.8491 H   0  0  0  0  0  0  0  0  0  0  0  0
   -4.6504   14.1748  -32.5341 H   0  0  0  0  0  0  0  0  0  0  0  0
   -3.5541   15.5978  -32.5341 H   0  0  0  0  0  0  0  0  0  0  0  0
   -4.8667   20.2698  -32.2346 H   0  0  0  0  0  0  0  0  0  0  0  0
  1  2  1  0
  2  3  1  0
  2  4  1  0
  4  5  2  0
  4  6  1  0
  6  7  2  0
  6  8  1  0
  8  9  1  0
  9 10  1  0
 10 11  1  0
 10 12  2  0
  9 13  2  0
 13 14  1  0
 14 15  2  0
 15 16  1  0
 16 17  2  0
 17 18  1  0
 18 19  3  0
 19 20  1  0
 20 21  1  0
 21 22  1  0
 21 23  1  0
 17 24  1  0
 24 25  2  0
 25  8  1  0
 25 14  1  0
  1 26  1  0
  1 27  1  0
  1 28  1  0
  3 29  1  0
  3 30  1  0
  3 31  1  0
 11 32  1  0
 13 33  1  0
 15 34  1  0
 16 35  1  0
 20 36  1  0
 20 37  1  0
 21 38  1  0
 22 39  1  0
 22 40  1  0
 22 41  1  0
 23 42  1  0
 23 43  1  0
 23 44  1  0
 24 45  1  0
M  CHG  2  11  -1  21   1
M  END
>  <UniqueID>  (42) 
42

>  <SMILES>  (42) 
CN(C)C(=O)C(=O)n1c(C([NH-])=O)cc2ccc(C#CC[NH+](C)C)cc21

>  <Energy>  (42) 
81.60466938315153

>  <Genealogy>  (42) 
CN(C)C(=O)C(=O)n1c(C([NH-])=O)cc2ccc(C#CC[NH+](C)C)cc21 (protonated)
CN(C)C(=O)C(=O)n1c(C([NH-])=O)cc2ccc(C#CC[NH+](C)C)cc21 (3D coordinates assigned)
CN(C)C(=O)C(=O)n1c(C([NH-])=O)cc2ccc(C#CC[NH+](C)C)cc21 (optimized conformer: 81.60466938315153 kcal/mol)

>  <smiles>  (42) 
CN(C)CC#Cc1ccc2cc(C(N)=O)n(C(=O)C(=O)N(C)C)c2c1

>  <score_type>  (42) 
oracle

>  <origin>  (42) 
adg

>  <m_score__min__energy>  (42) 
-10.27

>  <m_primary>  (42) 
energy

$$$$
42:0
     RDKit          3D

 29 31  0  0  0  0  0  0  0  0999 V2000
   -1.4880   25.9200  -28.8880 N   0  0  0  0  0  0  0  0  0  0  0  0
   -0.8710   24.6440  -29.0320 C   0  0  0  0  0  0  0  0  0  0  0  0
    0.2290   24.4230  -28.4580 O   0  0  0  0  0  0  0  0  0  0  0  0
   -1.5280   23.5630  -29.7950 C   0  0  0  0  0  0  0  0  0  0  0  0
   -0.8610   22.4230  -30.2360 C   0  0  0  0  0  0  0  0  0  0  0  0
   -1.8290   21.6330  -30.8110 C   0  0  0  0  0  0  0  0  0  0  0  0
   -1.7200   20.3880  -31.4220 C   0  0  0  0  0  0  0  0  0  0  0  0
   -2.8840   19.8130  -31.9590 C   0  0  0  0  0  0  0  0  0  0  0  0
   -4.1290   20.4900  -31.8840 C   0  0  0  0  0  0  0  0  0  0  0  0
   -5.3610   19.9000  -32.4560 C   0  0  0  0  0  0  0  0  0  0  0  0
   -5.4950   19.1820  -33.6300 C   0  0  0  0  0  0  0  0  0  0  0  0
   -6.7860   18.8280  -33.7810 N   0  0  0  0  0  0  0  0  0  0  0  0
   -7.3830   19.3480  -32.6890 C   0  0  0  0  0  0  0  0  0  0  0  0
   -8.8130   19.2200  -32.4060 C   0  0  0  0  0  0  0  0  0  0  0  0
   -9.2510   18.2270  -31.7690 O   0  0  0  0  0  0  0  0  0  0  0  0
   -6.5450   19.9830  -31.9010 O   0  0  0  0  0  0  0  0  0  0  0  0
   -4.1960   21.7550  -31.2550 C   0  0  0  0  0  0  0  0  0  0  0  0
   -3.0240   22.2950  -30.7120 C   0  0  0  0  0  0  0  0  0  0  0  0
   -2.8560   23.4850  -30.0930 N   0  0  0  0  0  0  0  0  0  0  0  0
   -3.8610   24.4920  -29.8920 C   0  0  0  0  0  0  0  0  0  0  0  0
   -4.7630   24.3290  -29.0300 O   0  0  0  0  0  0  0  0  0  0  0  0
   -3.8630   25.6450  -30.6680 O   0  0  0  0  0  0  0  0  0  0  0  0
   -2.5240   26.0270  -28.9620 H   0  0  0  0  0  0  0  0  0  0  0  0
    0.2125   22.2013  -30.1440 H   0  0  0  0  0  0  0  0  0  0  0  0
   -0.7518   19.8695  -31.4829 H   0  0  0  0  0  0  0  0  0  0  0  0
   -2.8297   18.8268  -32.4431 H   0  0  0  0  0  0  0  0  0  0  0  0
   -4.6798   18.9392  -34.3275 H   0  0  0  0  0  0  0  0  0  0  0  0
   -9.5100   19.9973  -32.7525 H   0  0  0  0  0  0  0  0  0  0  0  0
   -5.1481   22.3026  -31.1938 H   0  0  0  0  0  0  0  0  0  0  0  0
  1  2  1  0
  2  3  2  0
  2  4  1  0
  4  5  2  0
  5  6  1  0
  6  7  2  0
  7  8  1  0
  8  9  2  0
  9 10  1  0
 10 11  2  0
 11 12  1  0
 12 13  2  0
 13 14  1  0
 14 15  2  0
 13 16  1  0
  9 17  1  0
 17 18  2  0
 18 19  1  0
 19 20  1  0
 20 21  2  0
 20 22  1  0
 19  4  1  0
 18  6  1  0
 16 10  1  0
  1 23  1  0
  5 24  1  0
  7 25  1  0
  8 26  1  0
 11 27  1  0
 14 28  1  0
 17 29  1  0
M  CHG  2   1  -1  22  -1
M  END
>  <UniqueID>  (43) 
43

>  <SMILES>  (43) 
[NH-]C(=O)c1cc2ccc(-c3cnc(C=O)o3)cc2n1C(=O)[O-]

>  <Energy>  (43) 
100.94183866078451

>  <Genealogy>  (43) 
[NH-]C(=O)c1cc2ccc(-c3cnc(C=O)o3)cc2n1C(=O)[O-] (protonated)
[NH-]C(=O)c1cc2ccc(-c3cnc(C=O)o3)cc2n1C(=O)[O-] (3D coordinates assigned)
[NH-]C(=O)c1cc2ccc(-c3cnc(C=O)o3)cc2n1C(=O)[O-] (optimized conformer: 100.94183866078451 kcal/mol)

>  <smiles>  (43) 
NC(=O)c1cc2ccc(-c3cnc(C=O)o3)cc2n1C(=O)O

>  <score_type>  (43) 
oracle

>  <origin>  (43) 
adg

>  <m_score__min__energy>  (43) 
-10.82

>  <m_primary>  (43) 
energy

$$$$
43:0
     RDKit          3D

 39 40  0  0  0  0  0  0  0  0999 V2000
   -3.8130   24.5360  -28.0700 C   0  0  0  0  0  0  0  0  0  0  0  0
   -2.5200   23.7900  -28.4260 C   0  0  1  0  0  0  0  0  0  0  0  0
   -2.7960   22.7200  -29.3860 N   0  0  0  0  0  0  0  0  0  0  0  0
   -3.4540   22.8820  -30.6490 C   0  0  0  0  0  0  0  0  0  0  0  0
   -4.0150   23.9750  -30.9290 O   0  0  0  0  0  0  0  0  0  0  0  0
   -3.4890   21.7900  -31.5870 N   0  0  0  0  0  0  0  0  0  0  0  0
   -2.4360   21.2340  -32.2480 C   0  0  0  0  0  0  0  0  0  0  0  0
   -1.0170   21.5730  -32.0470 C   0  0  0  0  0  0  0  0  0  0  0  0
   -0.5920   22.2690  -30.8760 N   0  0  0  0  0  0  0  0  0  0  0  0
   -0.1610   21.1850  -32.8860 O   0  0  0  0  0  0  0  0  0  0  0  0
   -2.8730   20.3350  -33.2140 C   0  0  0  0  0  0  0  0  0  0  0  0
   -4.2450   20.3330  -33.1100 C   0  0  0  0  0  0  0  0  0  0  0  0
   -5.1910   19.6070  -33.8200 C   0  0  0  0  0  0  0  0  0  0  0  0
   -6.5450   19.7910  -33.4960 C   0  0  0  0  0  0  0  0  0  0  0  0
   -6.9400   20.6870  -32.4620 C   0  0  0  0  0  0  0  0  0  0  0  0
   -8.3410   20.8590  -32.1250 N   0  0  0  0  0  0  0  0  0  0  0  0
   -8.7850   22.0180  -31.3410 C   0  0  0  0  0  0  0  0  0  0  0  0
   -9.3410   19.8770  -32.5660 C   0  0  0  0  0  0  0  0  0  0  0  0
   -5.9330   21.4060  -31.7650 C   0  0  0  0  0  0  0  0  0  0  0  0
   -4.5930   21.2170  -32.1240 C   0  0  0  0  0  0  0  0  0  0  0  0
   -1.4420   24.7080  -28.9430 C   0  0  0  0  0  0  0  0  0  0  0  0
   -1.6170   25.9560  -28.9670 O   0  0  0  0  0  0  0  0  0  0  0  0
   -0.2090   24.1880  -29.3180 O   0  0  0  0  0  0  0  0  0  0  0  0
   -3.9135   24.5940  -26.9761 H   0  0  0  0  0  0  0  0  0  0  0  0
   -3.7773   25.5523  -28.4893 H   0  0  0  0  0  0  0  0  0  0  0  0
   -4.6750   23.9964  -28.4893 H   0  0  0  0  0  0  0  0  0  0  0  0
   -2.1363   23.3478  -27.4947 H   0  0  0  0  0  0  0  0  0  0  0  0
    0.4120   22.5260  -30.7520 H   0  0  0  0  0  0  0  0  0  0  0  0
   -1.2620   22.4640  -30.0990 H   0  0  0  0  0  0  0  0  0  0  0  0
   -2.2549   19.7508  -33.9116 H   0  0  0  0  0  0  0  0  0  0  0  0
   -4.8890   18.9077  -34.6136 H   0  0  0  0  0  0  0  0  0  0  0  0
   -7.3140   19.2332  -34.0506 H   0  0  0  0  0  0  0  0  0  0  0  0
   -8.6978   21.7903  -30.2684 H   0  0  0  0  0  0  0  0  0  0  0  0
   -8.1563   22.8874  -31.5836 H   0  0  0  0  0  0  0  0  0  0  0  0
   -9.8337   22.2448  -31.5836 H   0  0  0  0  0  0  0  0  0  0  0  0
   -9.8126   19.4138  -31.6868 H   0  0  0  0  0  0  0  0  0  0  0  0
  -10.1088   20.3818  -33.1707 H   0  0  0  0  0  0  0  0  0  0  0  0
   -8.8502   19.1002  -33.1707 H   0  0  0  0  0  0  0  0  0  0  0  0
   -6.2017   22.1007  -30.9555 H   0  0  0  0  0  0  0  0  0  0  0  0
  1  2  1  0
  2  3  1  0
  3  4  1  0
  4  5  2  0
  4  6  1  0
  6  7  1  0
  7  8  1  0
  8  9  1  0
  8 10  2  0
  7 11  2  0
 11 12  1  0
 12 13  2  0
 13 14  1  0
 14 15  2  0
 15 16  1  0
 16 17  1  0
 16 18  1  0
 15 19  1  0
 19 20  2  0
  2 21  1  0
 21 22  2  0
 21 23  1  0
 20  6  1  0
 20 12  1  0
  1 24  1  0
  1 25  1  0
  1 26  1  0
  2 27  1  1
  9 28  1  0
  9 29  1  0
 11 30  1  0
 13 31  1  0
 14 32  1  0
 17 33  1  0
 17 34  1  0
 17 35  1  0
 18 36  1  0
 18 37  1  0
 18 38  1  0
 19 39  1  0
M  CHG  2   3  -1  23  -1
M  END
>  <UniqueID>  (44) 
44

>  <SMILES>  (44) 
C[C@@H]([N-]C(=O)n1c(C(N)=O)cc2ccc(N(C)C)cc21)C(=O)[O-]

>  <Energy>  (44) 
80.64596213070223

>  <Genealogy>  (44) 
CC([N-]C(=O)n1c(C(N)=O)cc2ccc(N(C)C)cc21)C(=O)[O-] (protonated)
C[C@@H]([N-]C(=O)n1c(C(N)=O)cc2ccc(N(C)C)cc21)C(=O)[O-] (chirality)
C[C@@H]([N-]C(=O)n1c(C(N)=O)cc2ccc(N(C)C)cc21)C(=O)[O-] (3D coordinates assigned)
C[C@@H]([N-]C(=O)n1c(C(N)=O)cc2ccc(N(C)C)cc21)C(=O)[O-] (optimized conformer: 80.64596213070223 kcal/mol)

>  <smiles>  (44) 
CC(NC(=O)n1c(C(N)=O)cc2ccc(N(C)C)cc21)C(=O)O

>  <score_type>  (44) 
oracle

>  <origin>  (44) 
adg

>  <m_score__min__energy>  (44) 
-11.98

>  <m_primary>  (44) 
energy

$$$$
44:0
     RDKit          3D

 33 34  0  0  0  0  0  0  0  0999 V2000
   -5.7640   25.2060  -29.0170 N   0  0  0  0  0  0  0  0  0  0  0  0
   -5.2060   24.7400  -30.2470 C   0  0  0  0  0  0  0  0  0  0  0  0
   -4.3020   25.4140  -30.8090 O   0  0  0  0  0  0  0  0  0  0  0  0
   -5.7130   23.5180  -30.9020 C   0  0  0  0  0  0  0  0  0  0  0  0
   -7.0660   23.2030  -30.9950 C   0  0  0  0  0  0  0  0  0  0  0  0
   -7.1100   21.9700  -31.6050 C   0  0  0  0  0  0  0  0  0  0  0  0
   -8.2040   21.1820  -31.9460 C   0  0  0  0  0  0  0  0  0  0  0  0
   -7.9590   19.9610  -32.5960 C   0  0  0  0  0  0  0  0  0  0  0  0
   -6.6360   19.5630  -32.9190 C   0  0  0  0  0  0  0  0  0  0  0  0
   -6.3840   18.2340  -33.5850 C   0  0  0  0  0  0  0  0  0  0  0  0
   -6.1120   18.4050  -34.9310 F   0  0  0  0  0  0  0  0  0  0  0  0
   -5.3030   17.5930  -33.0020 F   0  0  0  0  0  0  0  0  0  0  0  0
   -7.5060   17.4380  -33.4490 F   0  0  0  0  0  0  0  0  0  0  0  0
   -5.5490   20.3840  -32.5350 C   0  0  0  0  0  0  0  0  0  0  0  0
   -5.8210   21.5850  -31.8690 C   0  0  0  0  0  0  0  0  0  0  0  0
   -4.9500   22.5280  -31.4450 N   0  0  0  0  0  0  0  0  0  0  0  0
   -3.5270   22.5280  -31.6350 C   0  0  0  0  0  0  0  0  0  0  0  0
   -3.0260   21.9440  -32.6350 O   0  0  0  0  0  0  0  0  0  0  0  0
   -2.7000   23.1740  -30.7080 O   0  0  0  0  0  0  0  0  0  0  0  0
   -2.7130   22.8900  -29.3100 C   0  0  0  0  0  0  0  0  0  0  0  0
   -2.2080   24.0870  -28.5030 C   0  0  0  0  0  0  0  0  0  0  0  0
   -2.1500   25.2320  -29.3100 O   0  0  0  0  0  0  0  0  0  0  0  0
   -5.3640   26.0480  -28.5470 H   0  0  0  0  0  0  0  0  0  0  0  0
   -6.6260   24.7740  -28.6170 H   0  0  0  0  0  0  0  0  0  0  0  0
   -7.9177   23.8098  -30.6539 H   0  0  0  0  0  0  0  0  0  0  0  0
   -9.2296   21.5049  -31.7139 H   0  0  0  0  0  0  0  0  0  0  0  0
   -8.8029   19.3057  -32.8577 H   0  0  0  0  0  0  0  0  0  0  0  0
   -4.5135   20.0851  -32.7549 H   0  0  0  0  0  0  0  0  0  0  0  0
   -3.7421   22.6556  -29.0001 H   0  0  0  0  0  0  0  0  0  0  0  0
   -2.0489   22.0339  -29.1200 H   0  0  0  0  0  0  0  0  0  0  0  0
   -2.8920   24.2711  -27.6615 H   0  0  0  0  0  0  0  0  0  0  0  0
   -1.1983   23.8637  -28.1280 H   0  0  0  0  0  0  0  0  0  0  0  0
   -2.2680   24.9270  -30.2470 H   0  0  0  0  0  0  0  0  0  0  0  0
  1  2  1  0
  2  3  2  0
  2  4  1  0
  4  5  2  0
  5  6  1  0
  6  7  2  0
  7  8  1  0
  8  9  2  0
  9 10  1  0
 10 11  1  0
 10 12  1  0
 10 13  1  0
  9 14  1  0
 14 15  2  0
 15 16  1  0
 16 17  1  0
 17 18  2  0
 17 19  1  0
 19 20  1  0
 20 21  1  0
 21 22  1  0
 16  4  1  0
 15  6  1  0
  1 23  1  0
  1 24  1  0
  5 25  1  0
  7 26  1  0
  8 27  1  0
 14 28  1  0
 20 29  1  0
 20 30  1  0
 21 31  1  0
 21 32  1  0
 22 33  1  0
M  END
>  <UniqueID>  (45) 
45

>  <SMILES>  (45) 
NC(=O)c1cc2ccc(C(F)(F)F)cc2n1C(=O)OCCO

>  <Energy>  (45) 
69.47899018689407

>  <Genealogy>  (45) 
NC(=O)c1cc2ccc(C(F)(F)F)cc2n1C(=O)OCCO (3D coordinates assigned)
NC(=O)c1cc2ccc(C(F)(F)F)cc2n1C(=O)OCCO (optimized conformer: 69.47899018689407 kcal/mol)

>  <smiles>  (45) 
NC(=O)c1cc2ccc(C(F)(F)F)cc2n1C(=O)OCCO

>  <score_type>  (45) 
oracle

>  <origin>  (45) 
adg

>  <m_score__min__energy>  (45) 
-7.7999999999999998

>  <m_primary>  (45) 
energy

$$$$
45:0
     RDKit          3D

 39 40  0  0  0  0  0  0  0  0999 V2000
   -1.0210   21.4360  -29.3940 C   0  0  0  0  0  0  0  0  0  0  0  0
   -2.1640   22.3410  -29.2620 N   0  0  0  0  0  0  0  0  0  0  0  0
   -2.2900   23.1980  -28.0750 C   0  0  0  0  0  0  0  0  0  0  0  0
   -1.6910   24.5830  -28.3380 C   0  0  0  0  0  0  0  0  0  0  0  0
   -2.4600   25.2870  -29.2760 O   0  0  0  0  0  0  0  0  0  0  0  0
   -3.0340   22.5200  -30.3920 C   0  0  0  0  0  0  0  0  0  0  0  0
   -2.7860   23.4350  -31.2240 O   0  0  0  0  0  0  0  0  0  0  0  0
   -4.2010   21.6430  -30.6060 C   0  0  0  0  0  0  0  0  0  0  0  0
   -4.0870   20.3950  -30.4760 O   0  0  0  0  0  0  0  0  0  0  0  0
   -5.4780   22.1960  -30.9630 N   0  0  0  0  0  0  0  0  0  0  0  0
   -5.9260   23.4570  -30.7140 C   0  0  0  0  0  0  0  0  0  0  0  0
   -5.1240   24.5610  -30.1490 C   0  0  0  0  0  0  0  0  0  0  0  0
   -5.0510   24.7840  -28.7400 N   0  0  0  0  0  0  0  0  0  0  0  0
   -4.4550   25.2970  -30.9240 O   0  0  0  0  0  0  0  0  0  0  0  0
   -7.2700   23.5750  -31.0600 C   0  0  0  0  0  0  0  0  0  0  0  0
   -7.6350   22.3350  -31.5320 C   0  0  0  0  0  0  0  0  0  0  0  0
   -8.8690   21.8730  -31.9800 C   0  0  0  0  0  0  0  0  0  0  0  0
   -8.9710   20.5220  -32.3530 C   0  0  0  0  0  0  0  0  0  0  0  0
   -7.8510   19.6590  -32.2600 C   0  0  0  0  0  0  0  0  0  0  0  0
   -7.9870   18.2120  -32.6390 C   0  0  0  0  0  0  0  0  0  0  0  0
   -7.5680   17.4140  -31.5910 F   0  0  0  0  0  0  0  0  0  0  0  0
   -7.2110   17.9490  -33.7530 F   0  0  0  0  0  0  0  0  0  0  0  0
   -6.6160   20.1620  -31.7910 C   0  0  0  0  0  0  0  0  0  0  0  0
   -6.5370   21.5170  -31.4550 C   0  0  0  0  0  0  0  0  0  0  0  0
   -0.6614   21.1513  -28.3942 H   0  0  0  0  0  0  0  0  0  0  0  0
   -1.3289   20.5342  -29.9435 H   0  0  0  0  0  0  0  0  0  0  0  0
   -0.2138   21.9425  -29.9435 H   0  0  0  0  0  0  0  0  0  0  0  0
   -3.3546   23.3078  -27.8209 H   0  0  0  0  0  0  0  0  0  0  0  0
   -1.7440   22.7300  -27.2427 H   0  0  0  0  0  0  0  0  0  0  0  0
   -1.6641   25.1494  -27.3954 H   0  0  0  0  0  0  0  0  0  0  0  0
   -0.6740   24.4577  -28.7379 H   0  0  0  0  0  0  0  0  0  0  0  0
   -2.5530   24.6940  -30.0680 H   0  0  0  0  0  0  0  0  0  0  0  0
   -5.4150   24.0810  -28.0620 H   0  0  0  0  0  0  0  0  0  0  0  0
   -4.5310   25.6090  -28.3670 H   0  0  0  0  0  0  0  0  0  0  0  0
   -7.9047   24.4693  -30.9742 H   0  0  0  0  0  0  0  0  0  0  0  0
   -9.7379   22.5448  -32.0403 H   0  0  0  0  0  0  0  0  0  0  0  0
   -9.9307   20.1302  -32.7211 H   0  0  0  0  0  0  0  0  0  0  0  0
   -9.0415   17.9957  -32.8653 H   0  0  0  0  0  0  0  0  0  0  0  0
   -5.7397   19.5044  -31.6929 H   0  0  0  0  0  0  0  0  0  0  0  0
  1  2  1  0
  2  3  1  0
  3  4  1  0
  4  5  1  0
  2  6  1  0
  6  7  2  0
  6  8  1  0
  8  9  2  0
  8 10  1  0
 10 11  1  0
 11 12  1  0
 12 13  1  0
 12 14  2  0
 11 15  2  0
 15 16  1  0
 16 17  2  0
 17 18  1  0
 18 19  2  0
 19 20  1  0
 20 21  1  0
 20 22  1  0
 19 23  1  0
 23 24  2  0
 24 10  1  0
 24 16  1  0
  1 25  1  0
  1 26  1  0
  1 27  1  0
  3 28  1  0
  3 29  1  0
  4 30  1  0
  4 31  1  0
  5 32  1  0
 13 33  1  0
 13 34  1  0
 15 35  1  0
 17 36  1  0
 18 37  1  0
 20 38  1  0
 23 39  1  0
M  END
>  <UniqueID>  (46) 
46

>  <SMILES>  (46) 
CN(CCO)C(=O)C(=O)n1c(C(N)=O)cc2ccc(C(F)F)cc21

>  <Energy>  (46) 
78.59971195185918

>  <Genealogy>  (46) 
CN(CCO)C(=O)C(=O)n1c(C(N)=O)cc2ccc(C(F)F)cc21 (3D coordinates assigned)
CN(CCO)C(=O)C(=O)n1c(C(N)=O)cc2ccc(C(F)F)cc21 (optimized conformer: 78.59971195185918 kcal/mol)

>  <smiles>  (46) 
CN(CCO)C(=O)C(=O)n1c(C(N)=O)cc2ccc(C(F)F)cc21

>  <score_type>  (46) 
oracle

>  <origin>  (46) 
adg

>  <m_score__min__energy>  (46) 
-8.2699999999999996

>  <m_primary>  (46) 
energy

$$$$
46:0
     RDKit          3D

 39 40  0  0  0  0  0  0  0  0999 V2000
   -1.9590   25.2820  -26.5930 C   0  0  0  0  0  0  0  0  0  0  0  0
   -1.7610   24.0900  -27.4240 N   0  0  0  0  0  0  0  0  0  0  0  0
   -1.3300   22.8290  -26.8110 C   0  0  0  0  0  0  0  0  0  0  0  0
   -1.9960   24.1820  -28.8460 C   0  0  0  0  0  0  0  0  0  0  0  0
   -2.2850   25.2960  -29.3630 O   0  0  0  0  0  0  0  0  0  0  0  0
   -1.9270   22.9750  -29.7430 C   0  0  0  0  0  0  0  0  0  0  0  0
   -3.2330   22.4630  -29.9970 O   0  0  0  0  0  0  0  0  0  0  0  0
   -3.8950   22.6160  -31.2200 C   0  0  0  0  0  0  0  0  0  0  0  0
   -3.2400   22.6650  -32.2970 O   0  0  0  0  0  0  0  0  0  0  0  0
   -5.3260   22.7340  -31.2460 N   0  0  0  0  0  0  0  0  0  0  0  0
   -6.0690   23.8490  -31.0020 C   0  0  0  0  0  0  0  0  0  0  0  0
   -5.5530   25.1380  -30.5020 C   0  0  0  0  0  0  0  0  0  0  0  0
   -4.2100   25.5510  -30.7690 N   0  0  0  0  0  0  0  0  0  0  0  0
   -6.2890   25.8640  -29.7830 O   0  0  0  0  0  0  0  0  0  0  0  0
   -7.4190   23.5990  -31.2340 C   0  0  0  0  0  0  0  0  0  0  0  0
   -7.4840   22.2770  -31.6120 C   0  0  0  0  0  0  0  0  0  0  0  0
   -8.5800   21.5050  -31.9810 C   0  0  0  0  0  0  0  0  0  0  0  0
   -8.3500   20.1730  -32.3630 C   0  0  0  0  0  0  0  0  0  0  0  0
   -7.0370   19.6340  -32.3650 C   0  0  0  0  0  0  0  0  0  0  0  0
   -6.7960   18.2240  -32.8400 C   0  0  0  0  0  0  0  0  0  0  0  0
   -6.4540   18.2460  -34.1780 F   0  0  0  0  0  0  0  0  0  0  0  0
   -5.7700   17.6350  -32.1210 F   0  0  0  0  0  0  0  0  0  0  0  0
   -7.9350   17.4530  -32.6770 F   0  0  0  0  0  0  0  0  0  0  0  0
   -5.9450   20.4610  -32.0090 C   0  0  0  0  0  0  0  0  0  0  0  0
   -6.2070   21.7770  -31.6110 C   0  0  0  0  0  0  0  0  0  0  0  0
   -1.9122   25.0003  -25.5307 H   0  0  0  0  0  0  0  0  0  0  0  0
   -1.1706   26.0171  -26.8125 H   0  0  0  0  0  0  0  0  0  0  0  0
   -2.9427   25.7227  -26.8125 H   0  0  0  0  0  0  0  0  0  0  0  0
   -1.3624   22.9239  -25.7156 H   0  0  0  0  0  0  0  0  0  0  0  0
   -2.0021   22.0183  -27.1289 H   0  0  0  0  0  0  0  0  0  0  0  0
   -0.3023   22.5992  -27.1289 H   0  0  0  0  0  0  0  0  0  0  0  0
   -1.4586   23.2597  -30.6967 H   0  0  0  0  0  0  0  0  0  0  0  0
   -1.3317   22.1961  -29.2441 H   0  0  0  0  0  0  0  0  0  0  0  0
   -3.5220   24.9000  -31.2050 H   0  0  0  0  0  0  0  0  0  0  0  0
   -3.8760   26.4850  -30.4440 H   0  0  0  0  0  0  0  0  0  0  0  0
   -8.2552   24.3069  -31.1361 H   0  0  0  0  0  0  0  0  0  0  0  0
   -9.5967   21.9248  -31.9740 H   0  0  0  0  0  0  0  0  0  0  0  0
   -9.1977   19.5400  -32.6642 H   0  0  0  0  0  0  0  0  0  0  0  0
   -4.9143   20.0783  -32.0443 H   0  0  0  0  0  0  0  0  0  0  0  0
  1  2  1  0
  2  3  1  0
  2  4  1  0
  4  5  2  0
  4  6  1  0
  6  7  1  0
  7  8  1  0
  8  9  2  0
  8 10  1  0
 10 11  1  0
 11 12  1  0
 12 13  1  0
 12 14  2  0
 11 15  2  0
 15 16  1  0
 16 17  2  0
 17 18  1  0
 18 19  2  0
 19 20  1  0
 20 21  1  0
 20 22  1  0
 20 23  1  0
 19 24  1  0
 24 25  2  0
 25 10  1  0
 25 16  1  0
  1 26  1  0
  1 27  1  0
  1 28  1  0
  3 29  1  0
  3 30  1  0
  3 31  1  0
  6 32  1  0
  6 33  1  0
 13 34  1  0
 13 35  1  0
 15 36  1  0
 17 37  1  0
 18 38  1  0
 24 39  1  0
M  END
>  <UniqueID>  (47) 
47

>  <SMILES>  (47) 
CN(C)C(=O)COC(=O)n1c(C(N)=O)cc2ccc(C(F)(F)F)cc21

>  <Energy>  (47) 
73.63372174205627

>  <Genealogy>  (47) 
CN(C)C(=O)COC(=O)n1c(C(N)=O)cc2ccc(C(F)(F)F)cc21 (3D coordinates assigned)
CN(C)C(=O)COC(=O)n1c(C(N)=O)cc2ccc(C(F)(F)F)cc21 (optimized conformer: 73.63372174205627 kcal/mol)

>  <smiles>  (47) 
CN(C)C(=O)COC(=O)n1c(C(N)=O)cc2ccc(C(F)(F)F)cc21

>  <score_type>  (47) 
oracle

>  <origin>  (47) 
adg

>  <m_score__min__energy>  (47) 
-8.1600000000000001

>  <m_primary>  (47) 
energy

$$$$
47:0
     RDKit          3D

 35 37  0  0  0  0  0  0  0  0999 V2000
   -1.5470   25.9660  -28.8390 N   0  0  0  0  0  0  0  0  0  0  0  0
   -0.8980   24.7040  -28.9730 C   0  0  0  0  0  0  0  0  0  0  0  0
    0.1700   24.4910  -28.3400 O   0  0  0  0  0  0  0  0  0  0  0  0
   -1.4900   23.6270  -29.7940 C   0  0  0  0  0  0  0  0  0  0  0  0
   -0.7680   22.5220  -30.2400 C   0  0  0  0  0  0  0  0  0  0  0  0
   -1.6850   21.7230  -30.8830 C   0  0  0  0  0  0  0  0  0  0  0  0
   -1.5120   20.5040  -31.5280 C   0  0  0  0  0  0  0  0  0  0  0  0
   -2.6310   19.9130  -32.1360 C   0  0  0  0  0  0  0  0  0  0  0  0
   -3.9030   20.5480  -32.0980 C   0  0  0  0  0  0  0  0  0  0  0  0
   -5.0770   19.9790  -32.7220 N   0  0  0  0  0  0  0  0  0  0  0  0
   -6.3590   19.6390  -32.0890 C   0  0  1  0  0  0  0  0  0  0  0  0
   -7.1680   20.8810  -31.6510 C   0  0  0  0  0  0  0  0  0  0  0  0
   -8.5190   20.6440  -32.2580 C   0  0  0  0  0  0  0  0  0  0  0  0
   -9.5320   21.4330  -32.0980 N   0  0  0  0  0  0  0  0  0  0  0  0
   -8.5710   19.4800  -33.0660 N   0  0  0  0  0  0  0  0  0  0  0  0
   -7.2840   18.9020  -33.0030 C   0  0  0  0  0  0  0  0  0  0  0  0
   -6.9740   17.8530  -33.6300 O   0  0  0  0  0  0  0  0  0  0  0  0
   -4.0300   21.7890  -31.4330 C   0  0  0  0  0  0  0  0  0  0  0  0
   -2.9020   22.3470  -30.8190 C   0  0  0  0  0  0  0  0  0  0  0  0
   -2.8000   23.5200  -30.1560 N   0  0  0  0  0  0  0  0  0  0  0  0
   -3.8500   24.4820  -29.9640 C   0  0  0  0  0  0  0  0  0  0  0  0
   -4.7390   24.2900  -29.0950 O   0  0  0  0  0  0  0  0  0  0  0  0
   -3.8780   25.6470  -30.7200 O   0  0  0  0  0  0  0  0  0  0  0  0
   -2.5810   26.0540  -28.9560 H   0  0  0  0  0  0  0  0  0  0  0  0
    0.3067   22.3294  -30.1064 H   0  0  0  0  0  0  0  0  0  0  0  0
   -0.5266   20.0163  -31.5611 H   0  0  0  0  0  0  0  0  0  0  0  0
   -2.5224   18.9458  -32.6486 H   0  0  0  0  0  0  0  0  0  0  0  0
   -5.0320   19.8130  -33.7550 H   0  0  0  0  0  0  0  0  0  0  0  0
   -6.0531   19.0250  -31.2291 H   0  0  0  0  0  0  0  0  0  0  0  0
   -7.2337   20.9420  -30.5547 H   0  0  0  0  0  0  0  0  0  0  0  0
   -6.7111   21.8282  -31.9736 H   0  0  0  0  0  0  0  0  0  0  0  0
  -10.4460   21.2240  -32.5580 H   0  0  0  0  0  0  0  0  0  0  0  0
   -9.4510   22.2900  -31.5060 H   0  0  0  0  0  0  0  0  0  0  0  0
   -9.3860   19.1350  -33.6210 H   0  0  0  0  0  0  0  0  0  0  0  0
   -4.9993   22.3079  -31.3984 H   0  0  0  0  0  0  0  0  0  0  0  0
  1  2  1  0
  2  3  2  0
  2  4  1  0
  4  5  2  0
  5  6  1  0
  6  7  2  0
  7  8  1  0
  8  9  2  0
  9 10  1  0
 10 11  1  0
 11 12  1  0
 12 13  1  0
 13 14  2  0
 13 15  1  0
 15 16  1  0
 16 17  2  0
  9 18  1  0
 18 19  2  0
 19 20  1  0
 20 21  1  0
 21 22  2  0
 21 23  1  0
 20  4  1  0
 19  6  1  0
 16 11  1  0
  1 24  1  0
  5 25  1  0
  7 26  1  0
  8 27  1  0
 10 28  1  0
 11 29  1  1
 12 30  1  0
 12 31  1  0
 14 32  1  0
 14 33  1  0
 15 34  1  0
 18 35  1  0
M  CHG  3   1  -1  14   1  23  -1
M  END
>  <UniqueID>  (48) 
48

>  <SMILES>  (48) 
[NH-]C(=O)c1cc2ccc(N[C@H]3CC(=[NH2+])NC3=O)cc2n1C(=O)[O-]

>  <Energy>  (48) 
89.92045080202166

>  <Genealogy>  (48) 
[NH-]C(=O)c1cc2ccc(N[C@H]3CC(=[NH2+])NC3=O)cc2n1C(=O)[O-] (protonated)
[NH-]C(=O)c1cc2ccc(N[C@H]3CC(=[NH2+])NC3=O)cc2n1C(=O)[O-] (3D coordinates assigned)
[NH-]C(=O)c1cc2ccc(N[C@H]3CC(=[NH2+])NC3=O)cc2n1C(=O)[O-] (nonaromatic ring conformer: 89.92045080202166 kcal/mol)

>  <smiles>  (48) 
N=C1C[C@H](Nc2ccc3cc(C(N)=O)n(C(=O)O)c3c2)C(=O)N1

>  <score_type>  (48) 
oracle

>  <origin>  (48) 
adg

>  <m_score__min__energy>  (48) 
-11.34

>  <m_primary>  (48) 
energy

$$$$
48:0
     RDKit          3D

 33 34  0  0  0  0  0  0  0  0999 V2000
   -2.8440   24.8700  -26.6170 C   0  0  0  0  0  0  0  0  0  0  0  0
   -2.7240   23.6020  -27.3990 C   0  0  0  0  0  0  0  0  0  0  0  0
   -2.1200   22.6180  -26.8920 O   0  0  0  0  0  0  0  0  0  0  0  0
   -3.3270   23.5070  -28.7000 N   0  0  0  0  0  0  0  0  0  0  0  0
   -3.2670   22.3320  -29.5290 C   0  0  0  0  0  0  0  0  0  0  0  0
   -2.6900   21.2890  -29.1170 O   0  0  0  0  0  0  0  0  0  0  0  0
   -3.8930   22.3280  -30.8650 C   0  0  0  0  0  0  0  0  0  0  0  0
   -3.1970   22.0680  -31.8840 O   0  0  0  0  0  0  0  0  0  0  0  0
   -5.2900   22.6200  -31.0200 N   0  0  0  0  0  0  0  0  0  0  0  0
   -5.9020   23.8330  -30.9180 C   0  0  0  0  0  0  0  0  0  0  0  0
   -5.2610   25.0960  -30.4930 C   0  0  0  0  0  0  0  0  0  0  0  0
   -3.8600   25.2990  -30.6540 N   0  0  0  0  0  0  0  0  0  0  0  0
   -5.9560   25.9970  -29.9520 O   0  0  0  0  0  0  0  0  0  0  0  0
   -7.2570   23.7220  -31.2270 C   0  0  0  0  0  0  0  0  0  0  0  0
   -7.4560   22.3920  -31.5240 C   0  0  0  0  0  0  0  0  0  0  0  0
   -8.6080   21.7260  -31.9280 C   0  0  0  0  0  0  0  0  0  0  0  0
   -8.5120   20.3520  -32.2060 C   0  0  0  0  0  0  0  0  0  0  0  0
   -7.2760   19.6670  -32.0680 C   0  0  0  0  0  0  0  0  0  0  0  0
   -7.1690   18.2060  -32.4230 C   0  0  0  0  0  0  0  0  0  0  0  0
   -6.2540   17.5690  -31.6020 F   0  0  0  0  0  0  0  0  0  0  0  0
   -6.7530   18.0540  -33.7340 F   0  0  0  0  0  0  0  0  0  0  0  0
   -8.4050   17.6070  -32.2690 F   0  0  0  0  0  0  0  0  0  0  0  0
   -6.1210   20.3880  -31.6840 C   0  0  0  0  0  0  0  0  0  0  0  0
   -6.2520   21.7500  -31.3940 C   0  0  0  0  0  0  0  0  0  0  0  0
   -2.8223   24.6409  -25.5414 H   0  0  0  0  0  0  0  0  0  0  0  0
   -2.0049   25.5358  -26.8671 H   0  0  0  0  0  0  0  0  0  0  0  0
   -3.7932   25.3666  -26.8671 H   0  0  0  0  0  0  0  0  0  0  0  0
   -3.8230   24.3500  -29.0650 H   0  0  0  0  0  0  0  0  0  0  0  0
   -3.4940   26.0510  -31.2810 H   0  0  0  0  0  0  0  0  0  0  0  0
   -8.0077   24.5260  -31.2324 H   0  0  0  0  0  0  0  0  0  0  0  0
   -9.5653   22.2587  -32.0269 H   0  0  0  0  0  0  0  0  0  0  0  0
   -9.4052   19.8004  -32.5345 H   0  0  0  0  0  0  0  0  0  0  0  0
   -5.1430   19.8892  -31.6151 H   0  0  0  0  0  0  0  0  0  0  0  0
  1  2  1  0
  2  3  2  0
  2  4  1  0
  4  5  1  0
  5  6  2  0
  5  7  1  0
  7  8  2  0
  7  9  1  0
  9 10  1  0
 10 11  1  0
 11 12  1  0
 11 13  2  0
 10 14  2  0
 14 15  1  0
 15 16  2  0
 16 17  1  0
 17 18  2  0
 18 19  1  0
 19 20  1  0
 19 21  1  0
 19 22  1  0
 18 23  1  0
 23 24  2  0
 24  9  1  0
 24 15  1  0
  1 25  1  0
  1 26  1  0
  1 27  1  0
  4 28  1  0
 12 29  1  0
 14 30  1  0
 16 31  1  0
 17 32  1  0
 23 33  1  0
M  CHG  1  12  -1
M  END
>  <UniqueID>  (49) 
49

>  <SMILES>  (49) 
CC(=O)NC(=O)C(=O)n1c(C([NH-])=O)cc2ccc(C(F)(F)F)cc21

>  <Energy>  (49) 
71.88518131087032

>  <Genealogy>  (49) 
CC(=O)NC(=O)C(=O)n1c(C([NH-])=O)cc2ccc(C(F)(F)F)cc21 (protonated)
CC(=O)NC(=O)C(=O)n1c(C([NH-])=O)cc2ccc(C(F)(F)F)cc21 (3D coordinates assigned)
CC(=O)NC(=O)C(=O)n1c(C([NH-])=O)cc2ccc(C(F)(F)F)cc21 (optimized conformer: 71.88518131087032 kcal/mol)

>  <smiles>  (49) 
CC(=O)NC(=O)C(=O)n1c(C(N)=O)cc2ccc(C(F)(F)F)cc21

>  <score_type>  (49) 
oracle

>  <origin>  (49) 
adg

>  <m_score__min__energy>  (49) 
-9.8499999999999996

>  <m_primary>  (49) 
energy

$$$$
49:0
     RDKit          3D

 52 54  0  0  0  0  0  0  0  0999 V2000
   -0.0880   18.6400  -30.8940 C   0  0  0  0  0  0  0  0  0  0  0  0
   -1.1070   19.6040  -30.6740 O   0  0  0  0  0  0  0  0  0  0  0  0
   -1.6070   20.4240  -31.6910 C   0  0  0  0  0  0  0  0  0  0  0  0
   -0.8650   20.7540  -32.6570 O   0  0  0  0  0  0  0  0  0  0  0  0
   -2.9730   20.8830  -31.6420 N   0  0  0  0  0  0  0  0  0  0  0  0
   -3.8140   20.7570  -32.8180 C   0  0  0  0  0  0  0  0  0  0  0  0
   -3.6910   21.5620  -33.7800 O   0  0  0  0  0  0  0  0  0  0  0  0
   -4.7840   19.7040  -32.9280 N   0  0  0  0  0  0  0  0  0  0  0  0
   -4.6440   18.4910  -33.5290 C   0  0  0  0  0  0  0  0  0  0  0  0
   -3.3860   17.9380  -34.0670 C   0  0  0  0  0  0  0  0  0  0  0  0
   -2.2590   18.7770  -34.3190 N   0  0  0  0  0  0  0  0  0  0  0  0
   -3.2870   16.6970  -34.2590 O   0  0  0  0  0  0  0  0  0  0  0  0
   -5.8630   17.8180  -33.5650 C   0  0  0  0  0  0  0  0  0  0  0  0
   -6.7590   18.6590  -32.9440 C   0  0  0  0  0  0  0  0  0  0  0  0
   -8.1250   18.5130  -32.7270 C   0  0  0  0  0  0  0  0  0  0  0  0
   -8.8100   19.5690  -32.0990 C   0  0  0  0  0  0  0  0  0  0  0  0
   -8.1210   20.7410  -31.6930 C   0  0  0  0  0  0  0  0  0  0  0  0
   -8.8780   21.8910  -31.0780 C   0  0  0  0  0  0  0  0  0  0  0  0
   -8.4010   22.1670  -29.8090 F   0  0  0  0  0  0  0  0  0  0  0  0
   -8.7250   23.0130  -31.8710 F   0  0  0  0  0  0  0  0  0  0  0  0
  -10.2250   21.5890  -30.9780 F   0  0  0  0  0  0  0  0  0  0  0  0
   -6.7370   20.8620  -31.9560 C   0  0  0  0  0  0  0  0  0  0  0  0
   -6.0810   19.7890  -32.5670 C   0  0  0  0  0  0  0  0  0  0  0  0
   -3.4560   21.5400  -30.4040 C   0  0  1  0  0  0  0  0  0  0  0  0
   -2.2880   21.7880  -29.4310 C   0  0  0  0  0  0  0  0  0  0  0  0
   -4.2700   22.8150  -30.7390 C   0  0  2  0  0  0  0  0  0  0  0  0
   -3.5020   24.1090  -30.3530 C   0  0  0  0  0  0  0  0  0  0  0  0
   -4.2710   25.3230  -30.6730 N   0  0  0  0  0  0  0  0  0  0  0  0
   -5.7240   25.0960  -30.7090 C   0  0  0  0  0  0  0  0  0  0  0  0
   -6.1290   23.9610  -29.7600 C   0  0  0  0  0  0  0  0  0  0  0  0
   -5.5340   22.7140  -30.0860 O   0  0  0  0  0  0  0  0  0  0  0  0
    0.2919   18.2806  -29.9262 H   0  0  0  0  0  0  0  0  0  0  0  0
   -0.5005   17.7938  -31.4631 H   0  0  0  0  0  0  0  0  0  0  0  0
    0.7340   19.0987  -31.4631 H   0  0  0  0  0  0  0  0  0  0  0  0
   -1.3830   18.3690  -34.7140 H   0  0  0  0  0  0  0  0  0  0  0  0
   -2.2530   19.7800  -34.0300 H   0  0  0  0  0  0  0  0  0  0  0  0
   -6.0663   16.8270  -33.9970 H   0  0  0  0  0  0  0  0  0  0  0  0
   -8.6536   17.5995  -33.0370 H   0  0  0  0  0  0  0  0  0  0  0  0
   -9.8922   19.4852  -31.9206 H   0  0  0  0  0  0  0  0  0  0  0  0
   -6.1900   21.7775  -31.6866 H   0  0  0  0  0  0  0  0  0  0  0  0
   -4.1516   20.8668  -29.8816 H   0  0  0  0  0  0  0  0  0  0  0  0
   -2.6508   21.7110  -28.3954 H   0  0  0  0  0  0  0  0  0  0  0  0
   -1.5030   21.0365  -29.6014 H   0  0  0  0  0  0  0  0  0  0  0  0
   -1.8761   22.7936  -29.6014 H   0  0  0  0  0  0  0  0  0  0  0  0
   -4.4273   22.8866  -31.8253 H   0  0  0  0  0  0  0  0  0  0  0  0
   -3.2985   24.0921  -29.2721 H   0  0  0  0  0  0  0  0  0  0  0  0
   -2.5680   24.1356  -30.9334 H   0  0  0  0  0  0  0  0  0  0  0  0
   -3.9760   25.6720  -31.6160 H   0  0  0  0  0  0  0  0  0  0  0  0
   -6.2395   26.0192  -30.4057 H   0  0  0  0  0  0  0  0  0  0  0  0
   -6.0083   24.8133  -31.7333 H   0  0  0  0  0  0  0  0  0  0  0  0
   -5.8260   24.2355  -28.7388 H   0  0  0  0  0  0  0  0  0  0  0  0
   -7.2179   23.8348  -29.8509 H   0  0  0  0  0  0  0  0  0  0  0  0
  1  2  1  0
  2  3  1  0
  3  4  2  0
  3  5  1  0
  5  6  1  0
  6  7  2  0
  6  8  1  0
  8  9  1  0
  9 10  1  0
 10 11  1  0
 10 12  2  0
  9 13  2  0
 13 14  1  0
 14 15  2  0
 15 16  1  0
 16 17  2  0
 17 18  1  0
 18 19  1  0
 18 20  1  0
 18 21  1  0
 17 22  1  0
 22 23  2  0
  5 24  1  0
 24 25  1  0
 24 26  1  0
 26 27  1  0
 27 28  1  0
 28 29  1  0
 29 30  1  0
 30 31  1  0
 23  8  1  0
 31 26  1  0
 23 14  1  0
  1 32  1  0
  1 33  1  0
  1 34  1  0
 11 35  1  0
 11 36  1  0
 13 37  1  0
 15 38  1  0
 16 39  1  0
 22 40  1  0
 24 41  1  1
 25 42  1  0
 25 43  1  0
 25 44  1  0
 26 45  1  6
 27 46  1  0
 27 47  1  0
 28 48  1  0
 29 49  1  0
 29 50  1  0
 30 51  1  0
 30 52  1  0
M  END
>  <UniqueID>  (50) 
50

>  <SMILES>  (50) 
COC(=O)N(C(=O)n1c(C(N)=O)cc2ccc(C(F)(F)F)cc21)[C@@H](C)[C@@H]1CNCCO1

>  <Energy>  (50) 
105.63856869495933

>  <Genealogy>  (50) 
COC(=O)N(C(=O)n1c(C(N)=O)cc2ccc(C(F)(F)F)cc21)[C@@H](C)[C@@H]1CNCCO1 (chirality)
COC(=O)N(C(=O)n1c(C(N)=O)cc2ccc(C(F)(F)F)cc21)[C@@H](C)[C@@H]1CNCCO1 (3D coordinates assigned)
COC(=O)N(C(=O)n1c(C(N)=O)cc2ccc(C(F)(F)F)cc21)[C@@H](C)[C@@H]1CNCCO1 (nonaromatic ring conformer: 105.63856869495933 kcal/mol)

>  <smiles>  (50) 
COC(=O)N(C(=O)n1c(C(N)=O)cc2ccc(C(F)(F)F)cc21)C(C)C1CNCCO1

>  <score_type>  (50) 
oracle

>  <origin>  (50) 
adg

>  <m_score__min__energy>  (50) 
-9.0199999999999996

>  <m_primary>  (50) 
energy

$$$$
50:0
     RDKit          3D

 35 36  0  0  0  0  0  0  0  0999 V2000
   -0.1620   22.9820  -29.1930 C   0  0  0  0  0  0  0  0  0  0  0  0
   -1.6110   23.1650  -29.1050 N   0  0  0  0  0  0  0  0  0  0  0  0
   -2.4320   22.0050  -28.9090 C   0  0  0  0  0  0  0  0  0  0  0  0
   -3.5270   21.7530  -29.6370 C   0  0  0  0  0  0  0  0  0  0  0  0
   -3.9990   22.5660  -30.7810 C   0  0  0  0  0  0  0  0  0  0  0  0
   -3.1850   23.0720  -31.5990 O   0  0  0  0  0  0  0  0  0  0  0  0
   -5.4070   22.7600  -30.9830 N   0  0  0  0  0  0  0  0  0  0  0  0
   -6.1080   23.9260  -30.9050 C   0  0  0  0  0  0  0  0  0  0  0  0
   -5.5710   25.2350  -30.4720 C   0  0  0  0  0  0  0  0  0  0  0  0
   -4.2410   25.6280  -30.8000 N   0  0  0  0  0  0  0  0  0  0  0  0
   -6.2870   26.0030  -29.7780 O   0  0  0  0  0  0  0  0  0  0  0  0
   -7.4430   23.7160  -31.2470 C   0  0  0  0  0  0  0  0  0  0  0  0
   -7.5380   22.3740  -31.5410 C   0  0  0  0  0  0  0  0  0  0  0  0
   -8.6290   21.6280  -31.9730 C   0  0  0  0  0  0  0  0  0  0  0  0
   -8.4280   20.2640  -32.2480 C   0  0  0  0  0  0  0  0  0  0  0  0
   -7.1490   19.6710  -32.0810 C   0  0  0  0  0  0  0  0  0  0  0  0
   -6.9320   18.2230  -32.4390 C   0  0  0  0  0  0  0  0  0  0  0  0
   -8.1110   17.5080  -32.3210 F   0  0  0  0  0  0  0  0  0  0  0  0
   -5.9890   17.6810  -31.5850 F   0  0  0  0  0  0  0  0  0  0  0  0
   -6.4810   18.1040  -33.7420 F   0  0  0  0  0  0  0  0  0  0  0  0
   -6.0600   20.4710  -31.6650 C   0  0  0  0  0  0  0  0  0  0  0  0
   -6.2960   21.8210  -31.3790 C   0  0  0  0  0  0  0  0  0  0  0  0
   -2.1580   24.4720  -28.8570 C   0  0  0  0  0  0  0  0  0  0  0  0
   -3.2290   24.6040  -28.2060 O   0  0  0  0  0  0  0  0  0  0  0  0
   -1.5130   25.6070  -29.3360 O   0  0  0  0  0  0  0  0  0  0  0  0
    0.2630   22.9283  -28.1798 H   0  0  0  0  0  0  0  0  0  0  0  0
    0.0576   22.0490  -29.7327 H   0  0  0  0  0  0  0  0  0  0  0  0
    0.2827   23.8311  -29.7327 H   0  0  0  0  0  0  0  0  0  0  0  0
   -2.1485   21.2889  -28.1236 H   0  0  0  0  0  0  0  0  0  0  0  0
   -4.1242   20.8708  -29.3632 H   0  0  0  0  0  0  0  0  0  0  0  0
   -3.4980   25.6730  -30.0680 H   0  0  0  0  0  0  0  0  0  0  0  0
   -8.2494   24.4636  -31.2759 H   0  0  0  0  0  0  0  0  0  0  0  0
   -9.6192   22.0910  -32.0958 H   0  0  0  0  0  0  0  0  0  0  0  0
   -9.2711   19.6494  -32.5964 H   0  0  0  0  0  0  0  0  0  0  0  0
   -5.0513   20.0429  -31.5684 H   0  0  0  0  0  0  0  0  0  0  0  0
  1  2  1  0
  2  3  1  0
  3  4  2  3
  4  5  1  0
  5  6  2  0
  5  7  1  0
  7  8  1  0
  8  9  1  0
  9 10  1  0
  9 11  2  0
  8 12  2  0
 12 13  1  0
 13 14  2  0
 14 15  1  0
 15 16  2  0
 16 17  1  0
 17 18  1  0
 17 19  1  0
 17 20  1  0
 16 21  1  0
 21 22  2  0
  2 23  1  0
 23 24  2  0
 23 25  1  0
 22  7  1  0
 22 13  1  0
  1 26  1  0
  1 27  1  0
  1 28  1  0
  3 29  1  0
  4 30  1  0
 10 31  1  0
 12 32  1  0
 14 33  1  0
 15 34  1  0
 21 35  1  0
M  CHG  2  10  -1  25  -1
M  END
>  <UniqueID>  (51) 
51

>  <SMILES>  (51) 
CN(C=CC(=O)n1c(C([NH-])=O)cc2ccc(C(F)(F)F)cc21)C(=O)[O-]

>  <Energy>  (51) 
81.7413140960806

>  <Genealogy>  (51) 
CN(C=CC(=O)n1c(C([NH-])=O)cc2ccc(C(F)(F)F)cc21)C(=O)[O-] (protonated)
CN(C=CC(=O)n1c(C([NH-])=O)cc2ccc(C(F)(F)F)cc21)C(=O)[O-] (3D coordinates assigned)
CN(C=CC(=O)n1c(C([NH-])=O)cc2ccc(C(F)(F)F)cc21)C(=O)[O-] (optimized conformer: 81.7413140960806 kcal/mol)

>  <smiles>  (51) 
CN(C=CC(=O)n1c(C(N)=O)cc2ccc(C(F)(F)F)cc21)C(=O)O

>  <score_type>  (51) 
oracle

>  <origin>  (51) 
adg

>  <m_score__min__energy>  (51) 
-12.06

>  <m_primary>  (51) 
energy

$$$$
51:0
     RDKit          3D

 46 49  0  0  0  0  0  0  0  0999 V2000
   -3.8620   25.3060  -30.5630 N   0  0  0  0  0  0  0  0  0  0  0  0
   -5.2650   25.1840  -30.3310 C   0  0  0  0  0  0  0  0  0  0  0  0
   -5.8850   26.1420  -29.8000 O   0  0  0  0  0  0  0  0  0  0  0  0
   -5.9620   23.9300  -30.6750 C   0  0  0  0  0  0  0  0  0  0  0  0
   -7.3300   23.8490  -30.9310 C   0  0  0  0  0  0  0  0  0  0  0  0
   -7.5530   22.5450  -31.3140 C   0  0  0  0  0  0  0  0  0  0  0  0
   -8.7270   21.9130  -31.7080 C   0  0  0  0  0  0  0  0  0  0  0  0
   -8.6570   20.5520  -32.0580 C   0  0  0  0  0  0  0  0  0  0  0  0
   -7.4280   19.8430  -31.9850 C   0  0  0  0  0  0  0  0  0  0  0  0
   -7.3490   18.3960  -32.4050 C   0  0  0  0  0  0  0  0  0  0  0  0
   -6.8810   18.2960  -33.7040 F   0  0  0  0  0  0  0  0  0  0  0  0
   -6.4890   17.6920  -31.5810 F   0  0  0  0  0  0  0  0  0  0  0  0
   -8.6090   17.8300  -32.3350 F   0  0  0  0  0  0  0  0  0  0  0  0
   -6.2520   20.5310  -31.6030 C   0  0  0  0  0  0  0  0  0  0  0  0
   -6.3530   21.8860  -31.2740 C   0  0  0  0  0  0  0  0  0  0  0  0
   -5.3690   22.7210  -30.8820 N   0  0  0  0  0  0  0  0  0  0  0  0
   -3.9880   22.3740  -30.7060 C   0  0  0  0  0  0  0  0  0  0  0  0
   -3.2790   22.1120  -31.7160 O   0  0  0  0  0  0  0  0  0  0  0  0
   -3.3970   22.2660  -29.3240 C   0  0  0  0  0  0  0  0  0  0  0  0
   -2.9130   23.5760  -28.8320 N   0  0  2  0  0  0  0  0  0  0  0  0
   -1.4810   23.7570  -29.1080 C   0  0  0  0  0  0  0  0  0  0  0  0
   -0.9610   24.7360  -28.0590 C   0  0  2  0  0  0  0  0  0  0  0  0
    0.4800   24.4740  -27.6020 C   0  0  0  0  0  0  0  0  0  0  0  0
    0.4460   24.0290  -26.2050 N   0  0  0  0  0  0  0  0  0  0  0  0
   -0.9380   23.6500  -25.9310 C   0  0  0  0  0  0  0  0  0  0  0  0
   -1.8250   24.4820  -26.8560 C   0  0  2  0  0  0  0  0  0  0  0  0
   -3.0680   23.7470  -27.3750 C   0  0  0  0  0  0  0  0  0  0  0  0
   -3.4890   26.0280  -31.2140 H   0  0  0  0  0  0  0  0  0  0  0  0
   -8.0734   24.6553  -30.8453 H   0  0  0  0  0  0  0  0  0  0  0  0
   -9.6807   22.4599  -31.7449 H   0  0  0  0  0  0  0  0  0  0  0  0
   -9.5657   20.0301  -32.3925 H   0  0  0  0  0  0  0  0  0  0  0  0
   -5.2825   20.0126  -31.5658 H   0  0  0  0  0  0  0  0  0  0  0  0
   -4.1673   21.8889  -28.6352 H   0  0  0  0  0  0  0  0  0  0  0  0
   -2.5394   21.5787  -29.3703 H   0  0  0  0  0  0  0  0  0  0  0  0
   -3.4340   24.3430  -29.3250 H   0  0  0  0  0  0  0  0  0  0  0  0
   -1.3372   24.1692  -30.1176 H   0  0  0  0  0  0  0  0  0  0  0  0
   -0.9416   22.7994  -29.0622 H   0  0  0  0  0  0  0  0  0  0  0  0
   -0.9853   25.7503  -28.4839 H   0  0  0  0  0  0  0  0  0  0  0  0
    1.0701   25.3987  -27.6836 H   0  0  0  0  0  0  0  0  0  0  0  0
    0.9440   23.7028  -28.2344 H   0  0  0  0  0  0  0  0  0  0  0  0
    0.6760   24.8520  -25.5980 H   0  0  0  0  0  0  0  0  0  0  0  0
   -1.1859   23.8614  -24.8804 H   0  0  0  0  0  0  0  0  0  0  0  0
   -1.0907   22.5748  -26.1060 H   0  0  0  0  0  0  0  0  0  0  0  0
   -2.1818   25.3647  -26.3050 H   0  0  0  0  0  0  0  0  0  0  0  0
   -3.9699   24.3394  -27.1613 H   0  0  0  0  0  0  0  0  0  0  0  0
   -3.1713   22.7694  -26.8815 H   0  0  0  0  0  0  0  0  0  0  0  0
  1  2  1  0
  2  3  2  0
  2  4  1  0
  4  5  2  0
  5  6  1  0
  6  7  2  0
  7  8  1  0
  8  9  2  0
  9 10  1  0
 10 11  1  0
 10 12  1  0
 10 13  1  0
  9 14  1  0
 14 15  2  0
 15 16  1  0
 16 17  1  0
 17 18  2  0
 17 19  1  0
 19 20  1  0
 20 21  1  0
 21 22  1  0
 22 23  1  0
 23 24  1  0
 24 25  1  0
 25 26  1  0
 26 27  1  0
 16  4  1  0
 27 20  1  0
 15  6  1  0
 26 22  1  0
  1 28  1  0
  5 29  1  0
  7 30  1  0
  8 31  1  0
 14 32  1  0
 19 33  1  0
 19 34  1  0
 20 35  1  6
 21 36  1  0
 21 37  1  0
 22 38  1  6
 23 39  1  0
 23 40  1  0
 24 41  1  0
 25 42  1  0
 25 43  1  0
 26 44  1  1
 27 45  1  0
 27 46  1  0
M  CHG  2   1  -1  20   1
M  END
>  <UniqueID>  (52) 
52

>  <SMILES>  (52) 
[NH-]C(=O)c1cc2ccc(C(F)(F)F)cc2n1C(=O)C[NH+]1C[C@H]2CNC[C@H]2C1

>  <Energy>  (52) 
95.59418994884628

>  <Genealogy>  (52) 
[NH-]C(=O)c1cc2ccc(C(F)(F)F)cc2n1C(=O)C[NH+]1CC2CNCC2C1 (protonated)
[NH-]C(=O)c1cc2ccc(C(F)(F)F)cc2n1C(=O)C[NH+]1C[C@H]2CNC[C@H]2C1 (chirality)
[NH-]C(=O)c1cc2ccc(C(F)(F)F)cc2n1C(=O)C[NH+]1C[C@H]2CNC[C@H]2C1 (3D coordinates assigned)
[NH-]C(=O)c1cc2ccc(C(F)(F)F)cc2n1C(=O)C[NH+]1C[C@H]2CNC[C@H]2C1 (nonaromatic ring conformer: 95.59418994884628 kcal/mol)

>  <smiles>  (52) 
NC(=O)c1cc2ccc(C(F)(F)F)cc2n1C(=O)CN1CC2CNCC2C1

>  <score_type>  (52) 
oracle

>  <origin>  (52) 
adg

>  <m_score__min__energy>  (52) 
-10.140000000000001

>  <m_primary>  (52) 
energy

$$$$
52:0
     RDKit          3D

 40 41  0  0  0  0  0  0  0  0999 V2000
   -1.2500   20.9760  -26.1100 C   0  0  0  0  0  0  0  0  0  0  0  0
   -2.2600   20.4560  -27.1510 C   0  0  0  0  0  0  0  0  0  0  0  0
   -2.9600   19.1840  -26.6380 C   0  0  0  0  0  0  0  0  0  0  0  0
   -1.5070   20.1190  -28.4470 C   0  0  0  0  0  0  0  0  0  0  0  0
   -3.2240   21.4700  -27.4710 O   0  0  0  0  0  0  0  0  0  0  0  0
   -3.2030   22.3150  -28.5910 C   0  0  0  0  0  0  0  0  0  0  0  0
   -2.9630   23.5460  -28.4680 O   0  0  0  0  0  0  0  0  0  0  0  0
   -3.4570   21.7550  -29.8490 O   0  0  0  0  0  0  0  0  0  0  0  0
   -3.9250   22.4600  -30.9660 C   0  0  0  0  0  0  0  0  0  0  0  0
   -3.1480   22.7650  -31.9110 O   0  0  0  0  0  0  0  0  0  0  0  0
   -5.3030   22.8620  -31.0190 N   0  0  0  0  0  0  0  0  0  0  0  0
   -5.8310   24.0900  -30.7440 C   0  0  0  0  0  0  0  0  0  0  0  0
   -5.0630   25.3200  -30.4580 C   0  0  0  0  0  0  0  0  0  0  0  0
   -3.6380   25.2910  -30.4950 N   0  0  0  0  0  0  0  0  0  0  0  0
   -5.6480   26.3900  -30.1460 O   0  0  0  0  0  0  0  0  0  0  0  0
   -7.2190   24.0600  -30.8500 C   0  0  0  0  0  0  0  0  0  0  0  0
   -7.5300   22.7680  -31.2090 C   0  0  0  0  0  0  0  0  0  0  0  0
   -8.7690   22.1750  -31.4290 C   0  0  0  0  0  0  0  0  0  0  0  0
   -8.7970   20.8080  -31.7550 C   0  0  0  0  0  0  0  0  0  0  0  0
   -7.5930   20.0650  -31.8670 C   0  0  0  0  0  0  0  0  0  0  0  0
   -7.6410   18.5850  -32.1550 C   0  0  0  0  0  0  0  0  0  0  0  0
   -8.9410   18.1360  -32.0230 F   0  0  0  0  0  0  0  0  0  0  0  0
   -6.8310   17.8900  -31.2720 F   0  0  0  0  0  0  0  0  0  0  0  0
   -7.2020   18.3240  -33.4410 F   0  0  0  0  0  0  0  0  0  0  0  0
   -6.3560   20.6990  -31.6100 C   0  0  0  0  0  0  0  0  0  0  0  0
   -6.3570   22.0660  -31.3050 C   0  0  0  0  0  0  0  0  0  0  0  0
   -1.6326   20.7790  -25.0977 H   0  0  0  0  0  0  0  0  0  0  0  0
   -0.2871   20.4616  -26.2446 H   0  0  0  0  0  0  0  0  0  0  0  0
   -1.1093   22.0586  -26.2446 H   0  0  0  0  0  0  0  0  0  0  0  0
   -2.9601   19.1838  -25.5380 H   0  0  0  0  0  0  0  0  0  0  0  0
   -3.9968   19.1628  -27.0048 H   0  0  0  0  0  0  0  0  0  0  0  0
   -2.4231   18.2967  -27.0048 H   0  0  0  0  0  0  0  0  0  0  0  0
   -0.5287   19.6812  -28.1994 H   0  0  0  0  0  0  0  0  0  0  0  0
   -2.0934   19.3975  -29.0348 H   0  0  0  0  0  0  0  0  0  0  0  0
   -1.3597   21.0371  -29.0348 H   0  0  0  0  0  0  0  0  0  0  0  0
   -3.1180   24.3850  -30.4600 H   0  0  0  0  0  0  0  0  0  0  0  0
   -7.9186   24.8922  -30.6824 H   0  0  0  0  0  0  0  0  0  0  0  0
   -9.6984   22.7581  -31.3503 H   0  0  0  0  0  0  0  0  0  0  0  0
   -9.7623   20.3088  -31.9251 H   0  0  0  0  0  0  0  0  0  0  0  0
   -5.4143   20.1318  -31.6487 H   0  0  0  0  0  0  0  0  0  0  0  0
  1  2  1  0
  2  3  1  0
  2  4  1  0
  2  5  1  0
  5  6  1  0
  6  7  2  0
  6  8  1  0
  8  9  1  0
  9 10  2  0
  9 11  1  0
 11 12  1  0
 12 13  1  0
 13 14  1  0
 13 15  2  0
 12 16  2  0
 16 17  1  0
 17 18  2  0
 18 19  1  0
 19 20  2  0
 20 21  1  0
 21 22  1  0
 21 23  1  0
 21 24  1  0
 20 25  1  0
 25 26  2  0
 26 11  1  0
 26 17  1  0
  1 27  1  0
  1 28  1  0
  1 29  1  0
  3 30  1  0
  3 31  1  0
  3 32  1  0
  4 33  1  0
  4 34  1  0
  4 35  1  0
 14 36  1  0
 16 37  1  0
 18 38  1  0
 19 39  1  0
 25 40  1  0
M  CHG  1  14  -1
M  END
>  <UniqueID>  (53) 
53

>  <SMILES>  (53) 
CC(C)(C)OC(=O)OC(=O)n1c(C([NH-])=O)cc2ccc(C(F)(F)F)cc21

>  <Energy>  (53) 
76.18536410209174

>  <Genealogy>  (53) 
CC(C)(C)OC(=O)OC(=O)n1c(C([NH-])=O)cc2ccc(C(F)(F)F)cc21 (protonated)
CC(C)(C)OC(=O)OC(=O)n1c(C([NH-])=O)cc2ccc(C(F)(F)F)cc21 (3D coordinates assigned)
CC(C)(C)OC(=O)OC(=O)n1c(C([NH-])=O)cc2ccc(C(F)(F)F)cc21 (optimized conformer: 76.18536410209174 kcal/mol)

>  <smiles>  (53) 
CC(C)(C)OC(=O)OC(=O)n1c(C(N)=O)cc2ccc(C(F)(F)F)cc21

>  <score_type>  (53) 
oracle

>  <origin>  (53) 
adg

>  <m_score__min__energy>  (53) 
-9.9299999999999997

>  <m_primary>  (53) 
energy

$$$$
53:0
     RDKit          3D

 36 37  0  0  0  0  0  0  0  0999 V2000
   -4.1290   24.6230  -29.4670 N   0  0  0  0  0  0  0  0  0  0  0  0
   -4.9900   24.6170  -30.6070 C   0  0  0  0  0  0  0  0  0  0  0  0
   -5.2630   25.7060  -31.1780 O   0  0  0  0  0  0  0  0  0  0  0  0
   -5.5130   23.3540  -31.1640 C   0  0  0  0  0  0  0  0  0  0  0  0
   -6.8640   23.0150  -31.1570 C   0  0  0  0  0  0  0  0  0  0  0  0
   -6.9380   21.8060  -31.8110 C   0  0  0  0  0  0  0  0  0  0  0  0
   -8.0380   20.9940  -32.0670 C   0  0  0  0  0  0  0  0  0  0  0  0
   -7.8170   19.7690  -32.7190 C   0  0  0  0  0  0  0  0  0  0  0  0
   -6.5080   19.3810  -33.1080 C   0  0  0  0  0  0  0  0  0  0  0  0
   -6.2730   18.0350  -33.7460 C   0  0  0  0  0  0  0  0  0  0  0  0
   -7.3490   17.2110  -33.4770 F   0  0  0  0  0  0  0  0  0  0  0  0
   -6.1310   18.1610  -35.1170 F   0  0  0  0  0  0  0  0  0  0  0  0
   -5.1220   17.4520  -33.2430 F   0  0  0  0  0  0  0  0  0  0  0  0
   -5.4130   20.2230  -32.8050 C   0  0  0  0  0  0  0  0  0  0  0  0
   -5.6660   21.4480  -32.1780 C   0  0  0  0  0  0  0  0  0  0  0  0
   -4.7790   22.3890  -31.7840 N   0  0  0  0  0  0  0  0  0  0  0  0
   -3.3490   22.3130  -31.9010 C   0  0  0  0  0  0  0  0  0  0  0  0
   -2.8310   21.8330  -32.9460 O   0  0  0  0  0  0  0  0  0  0  0  0
   -2.5450   22.7750  -30.8500 O   0  0  0  0  0  0  0  0  0  0  0  0
   -2.4810   22.2040  -29.5730 C   0  0  0  0  0  0  0  0  0  0  0  0
   -3.5130   21.7550  -29.0060 O   0  0  0  0  0  0  0  0  0  0  0  0
   -1.1580   22.1210  -28.8740 C   0  0  0  0  0  0  0  0  0  0  0  0
   -0.5270   23.5050  -28.6780 C   0  0  0  0  0  0  0  0  0  0  0  0
   -1.5690   24.5640  -28.4820 C   0  0  0  0  0  0  0  0  0  0  0  0
   -2.4340   24.4420  -27.5750 O   0  0  0  0  0  0  0  0  0  0  0  0
   -1.6080   25.6650  -29.3280 O   0  0  0  0  0  0  0  0  0  0  0  0
   -3.7420   23.7350  -29.0780 H   0  0  0  0  0  0  0  0  0  0  0  0
   -3.8030   25.5280  -29.0620 H   0  0  0  0  0  0  0  0  0  0  0  0
   -7.6944   23.5904  -30.7218 H   0  0  0  0  0  0  0  0  0  0  0  0
   -9.0509   21.3017  -31.7679 H   0  0  0  0  0  0  0  0  0  0  0  0
   -8.6672   19.1037  -32.9302 H   0  0  0  0  0  0  0  0  0  0  0  0
   -4.3854   19.9217  -33.0566 H   0  0  0  0  0  0  0  0  0  0  0  0
   -1.3050   21.6544  -27.8888 H   0  0  0  0  0  0  0  0  0  0  0  0
   -0.4792   21.5222  -29.4990 H   0  0  0  0  0  0  0  0  0  0  0  0
    0.1252   23.4778  -27.7926 H   0  0  0  0  0  0  0  0  0  0  0  0
    0.0483   23.7519  -29.5825 H   0  0  0  0  0  0  0  0  0  0  0  0
  1  2  1  0
  2  3  2  0
  2  4  1  0
  4  5  2  0
  5  6  1  0
  6  7  2  0
  7  8  1  0
  8  9  2  0
  9 10  1  0
 10 11  1  0
 10 12  1  0
 10 13  1  0
  9 14  1  0
 14 15  2  0
 15 16  1  0
 16 17  1  0
 17 18  2  0
 17 19  1  0
 19 20  1  0
 20 21  2  0
 20 22  1  0
 22 23  1  0
 23 24  1  0
 24 25  2  0
 24 26  1  0
 16  4  1  0
 15  6  1  0
  1 27  1  0
  1 28  1  0
  5 29  1  0
  7 30  1  0
  8 31  1  0
 14 32  1  0
 22 33  1  0
 22 34  1  0
 23 35  1  0
 23 36  1  0
M  CHG  1  26  -1
M  END
>  <UniqueID>  (54) 
54

>  <SMILES>  (54) 
NC(=O)c1cc2ccc(C(F)(F)F)cc2n1C(=O)OC(=O)CCC(=O)[O-]

>  <Energy>  (54) 
72.5064310249531

>  <Genealogy>  (54) 
NC(=O)c1cc2ccc(C(F)(F)F)cc2n1C(=O)OC(=O)CCC(=O)[O-] (protonated)
NC(=O)c1cc2ccc(C(F)(F)F)cc2n1C(=O)OC(=O)CCC(=O)[O-] (3D coordinates assigned)
NC(=O)c1cc2ccc(C(F)(F)F)cc2n1C(=O)OC(=O)CCC(=O)[O-] (optimized conformer: 72.5064310249531 kcal/mol)

>  <smiles>  (54) 
NC(=O)c1cc2ccc(C(F)(F)F)cc2n1C(=O)OC(=O)CCC(=O)O

>  <score_type>  (54) 
oracle

>  <origin>  (54) 
adg

>  <m_score__min__energy>  (54) 
-10.31

>  <m_primary>  (54) 
energy

$$$$
54:0
     RDKit          3D

 45 46  0  0  0  0  0  0  0  0999 V2000
   -5.0120   15.9900  -32.2600 C   0  0  0  0  0  0  0  0  0  0  0  0
   -5.3610   17.3340  -32.7510 N   0  0  1  0  0  0  0  0  0  0  0  0
   -5.8520   17.3100  -34.1500 C   0  0  0  0  0  0  0  0  0  0  0  0
   -5.4030   18.5330  -34.9690 C   0  0  0  0  0  0  0  0  0  0  0  0
   -4.6630   19.4110  -34.1710 O   0  0  0  0  0  0  0  0  0  0  0  0
   -6.3770   17.9070  -31.8870 C   0  0  0  0  0  0  0  0  0  0  0  0
   -6.2620   17.8310  -30.6700 O   0  0  0  0  0  0  0  0  0  0  0  0
   -7.5800   18.6120  -32.4580 C   0  0  0  0  0  0  0  0  0  0  0  0
   -7.5470   20.0650  -32.0760 C   0  0  0  0  0  0  0  0  0  0  0  0
   -8.7350   20.7250  -31.6750 C   0  0  0  0  0  0  0  0  0  0  0  0
   -8.7040   22.0630  -31.2430 C   0  0  0  0  0  0  0  0  0  0  0  0
   -7.4700   22.7080  -31.2100 C   0  0  0  0  0  0  0  0  0  0  0  0
   -7.1380   23.9770  -30.7930 C   0  0  0  0  0  0  0  0  0  0  0  0
   -5.7530   24.0700  -30.9460 C   0  0  0  0  0  0  0  0  0  0  0  0
   -4.9770   25.2940  -30.6550 C   0  0  0  0  0  0  0  0  0  0  0  0
   -3.6400   25.2240  -30.1740 N   0  0  0  0  0  0  0  0  0  0  0  0
   -5.5020   26.4240  -30.8430 O   0  0  0  0  0  0  0  0  0  0  0  0
   -5.2550   22.9030  -31.4430 N   0  0  0  0  0  0  0  0  0  0  0  0
   -3.8940   22.5810  -31.7480 C   0  0  0  0  0  0  0  0  0  0  0  0
   -2.9700   23.0850  -31.0520 O   0  0  0  0  0  0  0  0  0  0  0  0
   -3.5920   21.7330  -32.8650 N   0  0  0  0  0  0  0  0  0  0  0  0
   -2.2760   21.2490  -33.1720 C   0  0  0  0  0  0  0  0  0  0  0  0
   -2.0600   20.4710  -34.3480 N   0  0  0  0  0  0  0  0  0  0  0  0
   -1.3040   21.5000  -32.4130 O   0  0  0  0  0  0  0  0  0  0  0  0
   -6.3140   22.0840  -31.6010 C   0  0  0  0  0  0  0  0  0  0  0  0
   -6.3160   20.7550  -32.0360 C   0  0  0  0  0  0  0  0  0  0  0  0
   -5.0120   15.9900  -31.1600 H   0  0  0  0  0  0  0  0  0  0  0  0
   -5.7510   15.2623  -32.6266 H   0  0  0  0  0  0  0  0  0  0  0  0
   -4.0124   15.7138  -32.6266 H   0  0  0  0  0  0  0  0  0  0  0  0
   -4.4980   17.9260  -32.7090 H   0  0  0  0  0  0  0  0  0  0  0  0
   -5.4703   16.4018  -34.6393 H   0  0  0  0  0  0  0  0  0  0  0  0
   -6.9512   17.3267  -34.1119 H   0  0  0  0  0  0  0  0  0  0  0  0
   -4.7801   18.1963  -35.8108 H   0  0  0  0  0  0  0  0  0  0  0  0
   -6.2944   19.0575  -35.3435 H   0  0  0  0  0  0  0  0  0  0  0  0
   -5.1410   20.2810  -34.2000 H   0  0  0  0  0  0  0  0  0  0  0  0
   -7.5697   18.5222  -33.5543 H   0  0  0  0  0  0  0  0  0  0  0  0
   -8.4951   18.1516  -32.0572 H   0  0  0  0  0  0  0  0  0  0  0  0
   -9.6927   20.1845  -31.7019 H   0  0  0  0  0  0  0  0  0  0  0  0
   -9.6248   22.5834  -30.9409 H   0  0  0  0  0  0  0  0  0  0  0  0
   -7.8201   24.7543  -30.4181 H   0  0  0  0  0  0  0  0  0  0  0  0
   -2.8280   25.2700  -30.8330 H   0  0  0  0  0  0  0  0  0  0  0  0
   -4.3820   21.4420  -33.4860 H   0  0  0  0  0  0  0  0  0  0  0  0
   -1.1080   20.1050  -34.5710 H   0  0  0  0  0  0  0  0  0  0  0  0
   -2.8470   20.2680  -35.0020 H   0  0  0  0  0  0  0  0  0  0  0  0
   -5.3819   20.2596  -32.3394 H   0  0  0  0  0  0  0  0  0  0  0  0
  1  2  1  0
  2  3  1  0
  3  4  1  0
  4  5  1  0
  2  6  1  0
  6  7  2  0
  6  8  1  0
  8  9  1  0
  9 10  2  0
 10 11  1  0
 11 12  2  0
 12 13  1  0
 13 14  2  0
 14 15  1  0
 15 16  1  0
 15 17  2  0
 14 18  1  0
 18 19  1  0
 19 20  2  0
 19 21  1  0
 21 22  1  0
 22 23  1  0
 22 24  2  0
 18 25  1  0
 25 26  2  0
 26  9  1  0
 25 12  1  0
  1 27  1  0
  1 28  1  0
  1 29  1  0
  2 30  1  6
  3 31  1  0
  3 32  1  0
  4 33  1  0
  4 34  1  0
  5 35  1  0
  8 36  1  0
  8 37  1  0
 10 38  1  0
 11 39  1  0
 13 40  1  0
 16 41  1  0
 21 42  1  0
 23 43  1  0
 23 44  1  0
 26 45  1  0
M  CHG  2   2   1  16  -1
M  END
>  <UniqueID>  (55) 
55

>  <SMILES>  (55) 
C[N@@H+](CCO)C(=O)Cc1ccc2cc(C([NH-])=O)n(C(=O)NC(N)=O)c2c1

>  <Energy>  (55) 
81.54787755890347

>  <Genealogy>  (55) 
C[NH+](CCO)C(=O)Cc1ccc2cc(C([NH-])=O)n(C(=O)NC(N)=O)c2c1 (protonated)
C[N@@H+](CCO)C(=O)Cc1ccc2cc(C([NH-])=O)n(C(=O)NC(N)=O)c2c1 (chirality)
C[N@@H+](CCO)C(=O)Cc1ccc2cc(C([NH-])=O)n(C(=O)NC(N)=O)c2c1 (3D coordinates assigned)
C[N@@H+](CCO)C(=O)Cc1ccc2cc(C([NH-])=O)n(C(=O)NC(N)=O)c2c1 (optimized conformer: 81.54787755890347 kcal/mol)

>  <smiles>  (55) 
CN(CCO)C(=O)Cc1ccc2cc(C(N)=O)n(C(=O)NC(N)=O)c2c1

>  <score_type>  (55) 
oracle

>  <origin>  (55) 
adg

>  <m_score__min__energy>  (55) 
-10.119999999999999

>  <m_primary>  (55) 
energy

$$$$
55:0
     RDKit          3D

 37 38  0  0  0  0  0  0  0  0999 V2000
   -6.8430   24.8600  -30.1590 C   0  0  0  0  0  0  0  0  0  0  0  0
   -6.2030   23.5590  -29.9320 N   0  0  0  0  0  0  0  0  0  0  0  0
   -5.0870   23.4560  -28.9740 C   0  0  0  0  0  0  0  0  0  0  0  0
   -3.7310   23.4650  -29.6900 C   0  0  0  0  0  0  0  0  0  0  0  0
   -3.2440   24.8640  -29.9150 C   0  0  0  0  0  0  0  0  0  0  0  0
   -2.2500   25.2980  -29.2770 O   0  0  0  0  0  0  0  0  0  0  0  0
   -3.8600   25.6700  -30.8620 O   0  0  0  0  0  0  0  0  0  0  0  0
   -6.6510   22.4070  -30.6810 C   0  0  0  0  0  0  0  0  0  0  0  0
   -8.0110   21.9990  -30.6370 C   0  0  0  0  0  0  0  0  0  0  0  0
   -8.4490   20.8680  -31.3480 C   0  0  0  0  0  0  0  0  0  0  0  0
   -7.5120   20.1690  -32.1010 C   0  0  0  0  0  0  0  0  0  0  0  0
   -7.6560   19.0250  -32.8550 C   0  0  0  0  0  0  0  0  0  0  0  0
   -6.3860   18.7590  -33.3690 C   0  0  0  0  0  0  0  0  0  0  0  0
   -6.0710   17.6370  -34.2840 C   0  0  0  0  0  0  0  0  0  0  0  0
   -4.9480   17.7000  -35.1650 N   0  0  0  0  0  0  0  0  0  0  0  0
   -6.7880   16.6010  -34.2810 O   0  0  0  0  0  0  0  0  0  0  0  0
   -5.5000   19.7070  -32.9560 N   0  0  0  0  0  0  0  0  0  0  0  0
   -4.0880   19.7530  -33.2170 C   0  0  0  0  0  0  0  0  0  0  0  0
   -3.4310   18.6810  -33.2910 O   0  0  0  0  0  0  0  0  0  0  0  0
   -3.3960   21.0320  -33.4170 C   0  0  0  0  0  0  0  0  0  0  0  0
   -2.2090   21.0640  -33.8330 O   0  0  0  0  0  0  0  0  0  0  0  0
   -6.2010   20.5580  -32.1750 C   0  0  0  0  0  0  0  0  0  0  0  0
   -5.7330   21.6650  -31.4620 C   0  0  0  0  0  0  0  0  0  0  0  0
   -7.0737   25.3290  -29.1911 H   0  0  0  0  0  0  0  0  0  0  0  0
   -6.1616   25.5095  -30.7280 H   0  0  0  0  0  0  0  0  0  0  0  0
   -7.7734   24.7166  -30.7280 H   0  0  0  0  0  0  0  0  0  0  0  0
   -5.1310   24.3087  -28.2805 H   0  0  0  0  0  0  0  0  0  0  0  0
   -5.1847   22.5047  -28.4304 H   0  0  0  0  0  0  0  0  0  0  0  0
   -2.9969   22.9246  -29.0742 H   0  0  0  0  0  0  0  0  0  0  0  0
   -3.8517   22.9775  -30.6687 H   0  0  0  0  0  0  0  0  0  0  0  0
   -8.7313   22.5759  -30.0384 H   0  0  0  0  0  0  0  0  0  0  0  0
   -9.5001   20.5461  -31.3098 H   0  0  0  0  0  0  0  0  0  0  0  0
   -8.5762   18.4446  -33.0174 H   0  0  0  0  0  0  0  0  0  0  0  0
   -4.7180   16.8860  -35.7770 H   0  0  0  0  0  0  0  0  0  0  0  0
   -4.3670   18.5630  -35.2500 H   0  0  0  0  0  0  0  0  0  0  0  0
   -3.9215   21.9738  -33.2006 H   0  0  0  0  0  0  0  0  0  0  0  0
   -4.6726   21.9539  -31.5068 H   0  0  0  0  0  0  0  0  0  0  0  0
  1  2  1  0
  2  3  1  0
  3  4  1  0
  4  5  1  0
  5  6  2  0
  5  7  1  0
  2  8  1  0
  8  9  2  0
  9 10  1  0
 10 11  2  0
 11 12  1  0
 12 13  2  0
 13 14  1  0
 14 15  1  0
 14 16  2  0
 13 17  1  0
 17 18  1  0
 18 19  2  0
 18 20  1  0
 20 21  2  0
 17 22  1  0
 22 23  2  0
 23  8  1  0
 22 11  1  0
  1 24  1  0
  1 25  1  0
  1 26  1  0
  3 27  1  0
  3 28  1  0
  4 29  1  0
  4 30  1  0
  9 31  1  0
 10 32  1  0
 12 33  1  0
 15 34  1  0
 15 35  1  0
 20 36  1  0
 23 37  1  0
M  CHG  1   7  -1
M  END
>  <UniqueID>  (56) 
56

>  <SMILES>  (56) 
CN(CCC(=O)[O-])c1ccc2cc(C(N)=O)n(C(=O)C=O)c2c1

>  <Energy>  (56) 
74.80572971700185

>  <Genealogy>  (56) 
CN(CCC(=O)[O-])c1ccc2cc(C(N)=O)n(C(=O)C=O)c2c1 (protonated)
CN(CCC(=O)[O-])c1ccc2cc(C(N)=O)n(C(=O)C=O)c2c1 (3D coordinates assigned)
CN(CCC(=O)[O-])c1ccc2cc(C(N)=O)n(C(=O)C=O)c2c1 (optimized conformer: 74.80572971700185 kcal/mol)

>  <smiles>  (56) 
CN(CCC(=O)O)c1ccc2cc(C(N)=O)n(C(=O)C=O)c2c1

>  <score_type>  (56) 
oracle

>  <origin>  (56) 
adg

>  <m_score__min__energy>  (56) 
-9.6600000000000001

>  <m_primary>  (56) 
energy

$$$$
56:0
     RDKit          3D

 43 44  0  0  0  0  0  0  0  0999 V2000
   -1.2530   20.1820  -32.6160 C   0  0  0  0  0  0  0  0  0  0  0  0
   -2.2520   19.2160  -32.3080 O   0  0  0  0  0  0  0  0  0  0  0  0
   -3.1420   18.7230  -33.2650 C   0  0  0  0  0  0  0  0  0  0  0  0
   -3.3010   19.3310  -34.3600 O   0  0  0  0  0  0  0  0  0  0  0  0
   -3.8700   17.5200  -32.9900 N   0  0  0  0  0  0  0  0  0  0  0  0
   -5.0530   17.1090  -33.7520 C   0  0  1  0  0  0  0  0  0  0  0  0
   -5.7060   15.8840  -33.0960 C   0  0  0  0  0  0  0  0  0  0  0  0
   -4.9960   15.5100  -31.9470 O   0  0  0  0  0  0  0  0  0  0  0  0
   -6.0210   18.2670  -33.8260 C   0  0  0  0  0  0  0  0  0  0  0  0
   -5.9620   19.0500  -34.7620 O   0  0  0  0  0  0  0  0  0  0  0  0
   -7.1160   18.4180  -32.8050 C   0  0  0  0  0  0  0  0  0  0  0  0
   -7.2200   19.8550  -32.3760 C   0  0  0  0  0  0  0  0  0  0  0  0
   -8.4900   20.4200  -32.0920 C   0  0  0  0  0  0  0  0  0  0  0  0
   -8.5960   21.7300  -31.5960 C   0  0  0  0  0  0  0  0  0  0  0  0
   -7.4210   22.4460  -31.3890 C   0  0  0  0  0  0  0  0  0  0  0  0
   -7.2290   23.7090  -30.8760 C   0  0  0  0  0  0  0  0  0  0  0  0
   -5.8480   23.8960  -30.8610 C   0  0  0  0  0  0  0  0  0  0  0  0
   -5.1930   25.1550  -30.4470 C   0  0  0  0  0  0  0  0  0  0  0  0
   -3.8610   25.4340  -30.8680 N   0  0  0  0  0  0  0  0  0  0  0  0
   -5.7910   25.9750  -29.7020 O   0  0  0  0  0  0  0  0  0  0  0  0
   -5.2130   22.7890  -31.3390 N   0  0  0  0  0  0  0  0  0  0  0  0
   -3.8010   22.5450  -31.4310 C   0  0  0  0  0  0  0  0  0  0  0  0
   -3.2830   22.3040  -32.5530 O   0  0  0  0  0  0  0  0  0  0  0  0
   -2.9590   22.5140  -30.2250 C   0  0  0  0  0  0  0  0  0  0  0  0
   -2.0440   23.3650  -30.0640 O   0  0  0  0  0  0  0  0  0  0  0  0
   -3.1780   21.5530  -29.2470 O   0  0  0  0  0  0  0  0  0  0  0  0
   -6.1890   21.9170  -31.6670 C   0  0  0  0  0  0  0  0  0  0  0  0
   -6.0500   20.6170  -32.1620 C   0  0  0  0  0  0  0  0  0  0  0  0
   -0.8343   20.5868  -31.6828 H   0  0  0  0  0  0  0  0  0  0  0  0
   -0.4520   19.7072  -33.2016 H   0  0  0  0  0  0  0  0  0  0  0  0
   -1.7006   20.9985  -33.2016 H   0  0  0  0  0  0  0  0  0  0  0  0
   -3.6140   16.9790  -32.1340 H   0  0  0  0  0  0  0  0  0  0  0  0
   -4.7585   16.8260  -34.7734 H   0  0  0  0  0  0  0  0  0  0  0  0
   -6.7415   16.1301  -32.8184 H   0  0  0  0  0  0  0  0  0  0  0  0
   -5.6955   15.0478  -33.8106 H   0  0  0  0  0  0  0  0  0  0  0  0
   -5.5840   15.7100  -31.1720 H   0  0  0  0  0  0  0  0  0  0  0  0
   -8.0721   18.0986  -33.2454 H   0  0  0  0  0  0  0  0  0  0  0  0
   -6.8835   17.7942  -31.9293 H   0  0  0  0  0  0  0  0  0  0  0  0
   -9.4005   19.8265  -32.2618 H   0  0  0  0  0  0  0  0  0  0  0  0
   -9.5776   22.1760  -31.3780 H   0  0  0  0  0  0  0  0  0  0  0  0
   -8.0016   24.4198  -30.5476 H   0  0  0  0  0  0  0  0  0  0  0  0
   -3.0510   25.2740  -30.2290 H   0  0  0  0  0  0  0  0  0  0  0  0
   -5.0561   20.1987  -32.3790 H   0  0  0  0  0  0  0  0  0  0  0  0
  1  2  1  0
  2  3  1  0
  3  4  2  0
  3  5  1  0
  5  6  1  0
  6  7  1  0
  7  8  1  0
  6  9  1  0
  9 10  2  0
  9 11  1  0
 11 12  1  0
 12 13  2  0
 13 14  1  0
 14 15  2  0
 15 16  1  0
 16 17  2  0
 17 18  1  0
 18 19  1  0
 18 20  2  0
 17 21  1  0
 21 22  1  0
 22 23  2  0
 22 24  1  0
 24 25  2  0
 24 26  1  0
 21 27  1  0
 27 28  2  0
 28 12  1  0
 27 15  1  0
  1 29  1  0
  1 30  1  0
  1 31  1  0
  5 32  1  0
  6 33  1  6
  7 34  1  0
  7 35  1  0
  8 36  1  0
 11 37  1  0
 11 38  1  0
 13 39  1  0
 14 40  1  0
 16 41  1  0
 19 42  1  0
 28 43  1  0
M  CHG  2  19  -1  26  -1
M  END
>  <UniqueID>  (57) 
57

>  <SMILES>  (57) 
COC(=O)N[C@@H](CO)C(=O)Cc1ccc2cc(C([NH-])=O)n(C(=O)C(=O)[O-])c2c1

>  <Energy>  (57) 
70.6032467617204

>  <Genealogy>  (57) 
COC(=O)NC(CO)C(=O)Cc1ccc2cc(C([NH-])=O)n(C(=O)C(=O)[O-])c2c1 (protonated)
COC(=O)N[C@@H](CO)C(=O)Cc1ccc2cc(C([NH-])=O)n(C(=O)C(=O)[O-])c2c1 (chirality)
COC(=O)N[C@@H](CO)C(=O)Cc1ccc2cc(C([NH-])=O)n(C(=O)C(=O)[O-])c2c1 (3D coordinates assigned)
COC(=O)N[C@@H](CO)C(=O)Cc1ccc2cc(C([NH-])=O)n(C(=O)C(=O)[O-])c2c1 (optimized conformer: 70.6032467617204 kcal/mol)

>  <smiles>  (57) 
COC(=O)NC(CO)C(=O)Cc1ccc2cc(C(N)=O)n(C(=O)C(=O)O)c2c1

>  <score_type>  (57) 
oracle

>  <origin>  (57) 
adg

>  <m_score__min__energy>  (57) 
-10.93

>  <m_primary>  (57) 
energy

$$$$
57:0
     RDKit          3D

 44 45  0  0  0  0  0  0  0  0999 V2000
   -0.6130   21.4650  -30.3330 C   0  0  0  0  0  0  0  0  0  0  0  0
   -1.6500   22.3760  -29.8360 N   0  0  0  0  0  0  0  0  0  0  0  0
   -2.8220   22.5100  -30.6560 C   0  0  0  0  0  0  0  0  0  0  0  0
   -2.8750   23.4330  -31.5140 O   0  0  0  0  0  0  0  0  0  0  0  0
   -3.9750   21.6140  -30.4620 C   0  0  0  0  0  0  0  0  0  0  0  0
   -3.8150   20.5080  -29.8790 O   0  0  0  0  0  0  0  0  0  0  0  0
   -5.2860   21.9980  -30.9070 N   0  0  0  0  0  0  0  0  0  0  0  0
   -5.8540   23.2360  -30.8450 C   0  0  0  0  0  0  0  0  0  0  0  0
   -5.1880   24.4630  -30.3360 C   0  0  0  0  0  0  0  0  0  0  0  0
   -5.1150   24.7410  -28.9350 N   0  0  0  0  0  0  0  0  0  0  0  0
   -4.6830   25.2890  -31.1420 O   0  0  0  0  0  0  0  0  0  0  0  0
   -7.1470   23.1950  -31.3760 C   0  0  0  0  0  0  0  0  0  0  0  0
   -7.3450   21.8880  -31.7620 C   0  0  0  0  0  0  0  0  0  0  0  0
   -8.4530   21.2860  -32.3530 C   0  0  0  0  0  0  0  0  0  0  0  0
   -8.3800   19.9120  -32.6400 C   0  0  0  0  0  0  0  0  0  0  0  0
   -7.2220   19.1620  -32.3090 C   0  0  0  0  0  0  0  0  0  0  0  0
   -7.1330   17.6980  -32.6590 C   0  0  0  0  0  0  0  0  0  0  0  0
   -8.3400   17.0880  -32.3720 F   0  0  0  0  0  0  0  0  0  0  0  0
   -6.8550   17.5350  -34.0050 F   0  0  0  0  0  0  0  0  0  0  0  0
   -6.1310   17.0790  -31.9320 F   0  0  0  0  0  0  0  0  0  0  0  0
   -6.1140   19.8170  -31.7240 C   0  0  0  0  0  0  0  0  0  0  0  0
   -6.2080   21.1880  -31.4660 C   0  0  0  0  0  0  0  0  0  0  0  0
   -1.4960   23.0870  -28.5420 C   0  0  0  0  0  0  0  0  0  0  0  0
   -0.2320   22.6300  -27.7760 C   0  0  0  0  0  0  0  0  0  0  0  0
   -2.7220   22.7860  -27.6500 C   0  0  0  0  0  0  0  0  0  0  0  0
   -1.3590   24.5730  -28.8090 C   0  0  0  0  0  0  0  0  0  0  0  0
   -2.4650   25.2960  -29.3460 N   0  0  0  0  0  0  0  0  0  0  0  0
   -0.2810   25.1830  -28.5680 O   0  0  0  0  0  0  0  0  0  0  0  0
   -0.0899   21.0054  -29.4814 H   0  0  0  0  0  0  0  0  0  0  0  0
   -1.0786   20.6785  -30.9451 H   0  0  0  0  0  0  0  0  0  0  0  0
    0.1070   22.0280  -30.9451 H   0  0  0  0  0  0  0  0  0  0  0  0
   -5.5840   24.1420  -28.2230 H   0  0  0  0  0  0  0  0  0  0  0  0
   -4.6080   25.5910  -28.6000 H   0  0  0  0  0  0  0  0  0  0  0  0
   -7.8565   24.0307  -31.4663 H   0  0  0  0  0  0  0  0  0  0  0  0
   -9.3568   21.8674  -32.5878 H   0  0  0  0  0  0  0  0  0  0  0  0
   -9.2305   19.4124  -33.1269 H   0  0  0  0  0  0  0  0  0  0  0  0
   -5.1980   19.2602  -31.4772 H   0  0  0  0  0  0  0  0  0  0  0  0
   -0.4153   22.6963  -26.6934 H   0  0  0  0  0  0  0  0  0  0  0  0
    0.0037   21.5897  -28.0450 H   0  0  0  0  0  0  0  0  0  0  0  0
    0.6144   23.2790  -28.0450 H   0  0  0  0  0  0  0  0  0  0  0  0
   -2.4316   22.8573  -26.5914 H   0  0  0  0  0  0  0  0  0  0  0  0
   -3.5176   23.5155  -27.8619 H   0  0  0  0  0  0  0  0  0  0  0  0
   -3.0893   21.7710  -27.8619 H   0  0  0  0  0  0  0  0  0  0  0  0
   -2.6660   25.2920  -30.3700 H   0  0  0  0  0  0  0  0  0  0  0  0
  1  2  1  0
  2  3  1  0
  3  4  2  0
  3  5  1  0
  5  6  2  0
  5  7  1  0
  7  8  1  0
  8  9  1  0
  9 10  1  0
  9 11  2  0
  8 12  2  0
 12 13  1  0
 13 14  2  0
 14 15  1  0
 15 16  2  0
 16 17  1  0
 17 18  1  0
 17 19  1  0
 17 20  1  0
 16 21  1  0
 21 22  2  0
  2 23  1  0
 23 24  1  0
 23 25  1  0
 23 26  1  0
 26 27  1  0
 26 28  2  0
 22  7  1  0
 22 13  1  0
  1 29  1  0
  1 30  1  0
  1 31  1  0
 10 32  1  0
 10 33  1  0
 12 34  1  0
 14 35  1  0
 15 36  1  0
 21 37  1  0
 24 38  1  0
 24 39  1  0
 24 40  1  0
 25 41  1  0
 25 42  1  0
 25 43  1  0
 27 44  1  0
M  CHG  1  27  -1
M  END
>  <UniqueID>  (58) 
58

>  <SMILES>  (58) 
CN(C(=O)C(=O)n1c(C(N)=O)cc2ccc(C(F)(F)F)cc21)C(C)(C)C([NH-])=O

>  <Energy>  (58) 
89.20950424604982

>  <Genealogy>  (58) 
CN(C(=O)C(=O)n1c(C(N)=O)cc2ccc(C(F)(F)F)cc21)C(C)(C)C([NH-])=O (protonated)
CN(C(=O)C(=O)n1c(C(N)=O)cc2ccc(C(F)(F)F)cc21)C(C)(C)C([NH-])=O (3D coordinates assigned)
CN(C(=O)C(=O)n1c(C(N)=O)cc2ccc(C(F)(F)F)cc21)C(C)(C)C([NH-])=O (optimized conformer: 89.20950424604982 kcal/mol)

>  <smiles>  (58) 
CN(C(=O)C(=O)n1c(C(N)=O)cc2ccc(C(F)(F)F)cc21)C(C)(C)C(N)=O

>  <score_type>  (58) 
oracle

>  <origin>  (58) 
adg

>  <m_score__min__energy>  (58) 
-12.26

>  <m_primary>  (58) 
energy

$$$$
58:0
     RDKit          3D

 45 46  0  0  0  0  0  0  0  0999 V2000
    0.0420   21.7460  -28.5380 C   0  0  0  0  0  0  0  0  0  0  0  0
   -1.3430   21.9790  -28.1240 N   0  0  0  0  0  0  0  0  0  0  0  0
   -1.6100   22.6060  -26.8550 C   0  0  0  0  0  0  0  0  0  0  0  0
   -1.1820   22.0810  -25.7890 O   0  0  0  0  0  0  0  0  0  0  0  0
   -2.3350   23.8050  -26.8030 O   0  0  0  0  0  0  0  0  0  0  0  0
   -1.7240   25.0920  -26.7490 C   0  0  0  0  0  0  0  0  0  0  0  0
   -1.0010   25.3790  -28.0250 C   0  0  0  0  0  0  0  0  0  0  0  0
   -1.5850   25.9950  -28.9560 O   0  0  0  0  0  0  0  0  0  0  0  0
    0.3140   24.9600  -28.1930 O   0  0  0  0  0  0  0  0  0  0  0  0
   -2.4270   21.5300  -28.9580 C   0  0  0  0  0  0  0  0  0  0  0  0
   -3.5980   21.4830  -28.4900 O   0  0  0  0  0  0  0  0  0  0  0  0
   -2.1960   21.1170  -30.3180 N   0  0  0  0  0  0  0  0  0  0  0  0
   -1.4670   19.8680  -30.5530 C   0  0  0  0  0  0  0  0  0  0  0  0
   -2.7740   21.8570  -31.4150 C   0  0  0  0  0  0  0  0  0  0  0  0
   -2.0490   22.2490  -32.3700 O   0  0  0  0  0  0  0  0  0  0  0  0
   -4.1770   22.1560  -31.4470 N   0  0  0  0  0  0  0  0  0  0  0  0
   -4.8280   23.2070  -30.8750 C   0  0  0  0  0  0  0  0  0  0  0  0
   -4.1950   24.3430  -30.1710 C   0  0  0  0  0  0  0  0  0  0  0  0
   -3.8420   24.2640  -28.7890 N   0  0  0  0  0  0  0  0  0  0  0  0
   -3.9250   25.3940  -30.8130 O   0  0  0  0  0  0  0  0  0  0  0  0
   -6.2050   23.0800  -31.0510 C   0  0  0  0  0  0  0  0  0  0  0  0
   -6.3730   21.9190  -31.7720 C   0  0  0  0  0  0  0  0  0  0  0  0
   -7.5350   21.3050  -32.2280 C   0  0  0  0  0  0  0  0  0  0  0  0
   -7.4100   20.0950  -32.9340 C   0  0  0  0  0  0  0  0  0  0  0  0
   -6.1330   19.5140  -33.1560 C   0  0  0  0  0  0  0  0  0  0  0  0
   -5.9930   18.2410  -33.9530 C   0  0  0  0  0  0  0  0  0  0  0  0
   -6.0640   18.5170  -35.3070 F   0  0  0  0  0  0  0  0  0  0  0  0
   -4.7810   17.6210  -33.7000 F   0  0  0  0  0  0  0  0  0  0  0  0
   -7.0180   17.3770  -33.6140 F   0  0  0  0  0  0  0  0  0  0  0  0
   -4.9750   20.1780  -32.6900 C   0  0  0  0  0  0  0  0  0  0  0  0
   -5.1330   21.3830  -31.9990 C   0  0  0  0  0  0  0  0  0  0  0  0
    0.6780   21.6390  -27.6469 H   0  0  0  0  0  0  0  0  0  0  0  0
    0.0952   20.8263  -29.1391 H   0  0  0  0  0  0  0  0  0  0  0  0
    0.3932   22.5977  -29.1391 H   0  0  0  0  0  0  0  0  0  0  0  0
   -2.5002   25.8555  -26.5925 H   0  0  0  0  0  0  0  0  0  0  0  0
   -1.0031   25.1103  -25.9183 H   0  0  0  0  0  0  0  0  0  0  0  0
   -1.2007   19.4118  -29.5881 H   0  0  0  0  0  0  0  0  0  0  0  0
   -2.1022   19.1745  -31.1236 H   0  0  0  0  0  0  0  0  0  0  0  0
   -0.5508   20.0800  -31.1236 H   0  0  0  0  0  0  0  0  0  0  0  0
   -3.4680   25.1070  -28.2980 H   0  0  0  0  0  0  0  0  0  0  0  0
   -3.8260   23.3530  -28.2810 H   0  0  0  0  0  0  0  0  0  0  0  0
   -6.9897   23.7616  -30.6909 H   0  0  0  0  0  0  0  0  0  0  0  0
   -8.5224   21.7526  -32.0419 H   0  0  0  0  0  0  0  0  0  0  0  0
   -8.3105   19.5934  -33.3182 H   0  0  0  0  0  0  0  0  0  0  0  0
   -3.9743   19.7568  -32.8668 H   0  0  0  0  0  0  0  0  0  0  0  0
  1  2  1  0
  2  3  1  0
  3  4  2  0
  3  5  1  0
  5  6  1  0
  6  7  1  0
  7  8  2  0
  7  9  1  0
  2 10  1  0
 10 11  2  0
 10 12  1  0
 12 13  1  0
 12 14  1  0
 14 15  2  0
 14 16  1  0
 16 17  1  0
 17 18  1  0
 18 19  1  0
 18 20  2  0
 17 21  2  0
 21 22  1  0
 22 23  2  0
 23 24  1  0
 24 25  2  0
 25 26  1  0
 26 27  1  0
 26 28  1  0
 26 29  1  0
 25 30  1  0
 30 31  2  0
 31 16  1  0
 31 22  1  0
  1 32  1  0
  1 33  1  0
  1 34  1  0
  6 35  1  0
  6 36  1  0
 13 37  1  0
 13 38  1  0
 13 39  1  0
 19 40  1  0
 19 41  1  0
 21 42  1  0
 23 43  1  0
 24 44  1  0
 30 45  1  0
M  CHG  1   9  -1
M  END
>  <UniqueID>  (59) 
59

>  <SMILES>  (59) 
CN(C(=O)OCC(=O)[O-])C(=O)N(C)C(=O)n1c(C(N)=O)cc2ccc(C(F)(F)F)cc21

>  <Energy>  (59) 
88.07667315976681

>  <Genealogy>  (59) 
CN(C(=O)OCC(=O)[O-])C(=O)N(C)C(=O)n1c(C(N)=O)cc2ccc(C(F)(F)F)cc21 (protonated)
CN(C(=O)OCC(=O)[O-])C(=O)N(C)C(=O)n1c(C(N)=O)cc2ccc(C(F)(F)F)cc21 (3D coordinates assigned)
CN(C(=O)OCC(=O)[O-])C(=O)N(C)C(=O)n1c(C(N)=O)cc2ccc(C(F)(F)F)cc21 (optimized conformer: 88.07667315976681 kcal/mol)

>  <smiles>  (59) 
CN(C(=O)OCC(=O)O)C(=O)N(C)C(=O)n1c(C(N)=O)cc2ccc(C(F)(F)F)cc21

>  <score_type>  (59) 
oracle

>  <origin>  (59) 
adg

>  <m_score__min__energy>  (59) 
-10.949999999999999

>  <m_primary>  (59) 
energy

$$$$
59:0
     RDKit          3D

 36 37  0  0  0  0  0  0  0  0999 V2000
   -2.9742   21.6645  -29.2778 H   0  0  0  0  0  0  0  0  0  0  0  0
   -2.6170   22.6940  -29.4280 C   0  0  0  0  0  0  0  0  0  0  0  0
   -2.9810   23.3810  -30.5900 O   0  0  0  0  0  0  0  0  0  0  0  0
   -3.7420   22.8090  -31.6150 C   0  0  0  0  0  0  0  0  0  0  0  0
   -3.1750   22.3090  -32.6250 O   0  0  0  0  0  0  0  0  0  0  0  0
   -5.1760   22.7980  -31.5130 N   0  0  0  0  0  0  0  0  0  0  0  0
   -5.9650   23.7330  -30.9120 C   0  0  0  0  0  0  0  0  0  0  0  0
   -5.5150   25.0380  -30.3910 C   0  0  0  0  0  0  0  0  0  0  0  0
   -6.3360   25.7820  -29.7920 O   0  0  0  0  0  0  0  0  0  0  0  0
   -4.1810   25.5010  -30.6050 N   0  0  0  0  0  0  0  0  0  0  0  0
   -3.8650   26.4050  -30.1880 H   0  0  0  0  0  0  0  0  0  0  0  0
   -3.5250   24.9840  -31.2310 H   0  0  0  0  0  0  0  0  0  0  0  0
   -7.2930   23.3190  -30.8920 C   0  0  0  0  0  0  0  0  0  0  0  0
   -8.1537   23.8576  -30.4688 H   0  0  0  0  0  0  0  0  0  0  0  0
   -7.3000   22.0910  -31.5150 C   0  0  0  0  0  0  0  0  0  0  0  0
   -8.3580   21.2250  -31.7670 C   0  0  0  0  0  0  0  0  0  0  0  0
   -9.3865   21.4883  -31.4792 H   0  0  0  0  0  0  0  0  0  0  0  0
   -8.0740   20.0040  -32.4000 C   0  0  0  0  0  0  0  0  0  0  0  0
   -8.8934   19.3074  -32.6310 H   0  0  0  0  0  0  0  0  0  0  0  0
   -6.7410   19.6590  -32.7450 C   0  0  0  0  0  0  0  0  0  0  0  0
   -6.4530   18.3600  -33.4540 C   0  0  0  0  0  0  0  0  0  0  0  0
   -6.0830   18.6270  -34.7600 F   0  0  0  0  0  0  0  0  0  0  0  0
   -5.4270   17.6760  -32.8250 F   0  0  0  0  0  0  0  0  0  0  0  0
   -7.5730   17.5470  -33.4610 F   0  0  0  0  0  0  0  0  0  0  0  0
   -5.6950   20.5780  -32.4920 C   0  0  0  0  0  0  0  0  0  0  0  0
   -4.6580   20.3407  -32.7718 H   0  0  0  0  0  0  0  0  0  0  0  0
   -6.0100   21.7970  -31.8770 C   0  0  0  0  0  0  0  0  0  0  0  0
   -1.8450   23.2600  -28.4960 C   0  0  0  0  0  0  0  0  0  0  0  0
   -1.5927   22.6643  -27.6063 H   0  0  0  0  0  0  0  0  0  0  0  0
   -1.3090   24.6310  -28.5820 C   0  0  0  0  0  0  0  0  0  0  0  0
   -2.0320   25.5920  -28.9670 O   0  0  0  0  0  0  0  0  0  0  0  0
    0.0220   24.8530  -28.2230 O   0  0  0  0  0  0  0  0  0  0  0  0
    0.6490   24.1720  -27.1430 C   0  0  0  0  0  0  0  0  0  0  0  0
    0.2773   24.5757  -26.1897 H   0  0  0  0  0  0  0  0  0  0  0  0
    0.4166   23.0985  -27.2021 H   0  0  0  0  0  0  0  0  0  0  0  0
    1.7380   24.3152  -27.2021 H   0  0  0  0  0  0  0  0  0  0  0  0
  1  2  1  0
  2  3  1  0
  3  4  1  0
  4  5  2  0
  4  6  1  0
  6  7  1  0
  7  8  1  0
  8  9  2  0
  8 10  1  0
 10 11  1  0
 10 12  1  0
  7 13  2  0
 13 14  1  0
 13 15  1  0
 15 16  2  0
 16 17  1  0
 16 18  1  0
 18 19  1  0
 18 20  2  0
 20 21  1  0
 21 22  1  0
 21 23  1  0
 21 24  1  0
 20 25  1  0
 25 26  1  0
 25 27  2  0
  2 28  2  0
 28 29  1  0
 28 30  1  0
 30 31  2  0
 30 32  1  0
 32 33  1  0
 33 34  1  0
 33 35  1  0
 33 36  1  0
 27  6  1  0
 27 15  1  0
M  END
>  <UniqueID>  (60) 
60

>  <SMILES>  (60) 
COC(=O)/C=C\OC(=O)n1c(C(N)=O)cc2ccc(C(F)(F)F)cc21

>  <Energy>  (60) 
71.92973854766402

>  <Genealogy>  (60) 
COC(=O)/C=C\OC(=O)n1c(C(N)=O)cc2ccc(C(F)(F)F)cc21 (cis-trans isomerization)
COC(=O)/C=C\OC(=O)n1c(C(N)=O)cc2ccc(C(F)(F)F)cc21 (3D coordinates assigned)
COC(=O)/C=C\OC(=O)n1c(C(N)=O)cc2ccc(C(F)(F)F)cc21 (optimized conformer: 71.92973854766402 kcal/mol)

>  <smiles>  (60) 
COC(=O)/C=C\OC(=O)n1c(C(N)=O)cc2ccc(C(F)(F)F)cc21

>  <score_type>  (60) 
oracle

>  <origin>  (60) 
adg

>  <m_score__min__energy>  (60) 
-8.6500000000000004

>  <m_primary>  (60) 
energy

$$$$
60:0
     RDKit          3D

 44 45  0  0  0  0  0  0  0  0999 V2000
   -4.0980   22.3720  -28.4140 C   0  0  0  0  0  0  0  0  0  0  0  0
   -3.4470   22.0250  -29.6800 N   0  0  0  0  0  0  0  0  0  0  0  0
   -2.1920   21.3180  -29.6650 C   0  0  0  0  0  0  0  0  0  0  0  0
   -2.0740   20.2300  -30.2930 O   0  0  0  0  0  0  0  0  0  0  0  0
   -1.1060   21.8340  -28.9480 O   0  0  0  0  0  0  0  0  0  0  0  0
   -0.8760   21.5880  -27.5650 C   0  0  0  0  0  0  0  0  0  0  0  0
   -0.0990   22.6460  -27.0050 O   0  0  0  0  0  0  0  0  0  0  0  0
   -0.0050   23.9260  -27.5620 C   0  0  0  0  0  0  0  0  0  0  0  0
    1.0020   24.2670  -28.2390 O   0  0  0  0  0  0  0  0  0  0  0  0
   -1.0980   24.9120  -27.3140 C   0  0  0  0  0  0  0  0  0  0  0  0
   -1.4670   25.5870  -28.5950 C   0  0  0  0  0  0  0  0  0  0  0  0
   -1.0460   26.7470  -28.8440 O   0  0  0  0  0  0  0  0  0  0  0  0
   -2.3220   24.9570  -29.4910 O   0  0  0  0  0  0  0  0  0  0  0  0
   -3.9660   22.5630  -30.9120 C   0  0  0  0  0  0  0  0  0  0  0  0
   -3.1720   22.8900  -31.8360 O   0  0  0  0  0  0  0  0  0  0  0  0
   -5.3800   22.7460  -31.1000 N   0  0  0  0  0  0  0  0  0  0  0  0
   -6.1230   23.8520  -30.8160 C   0  0  0  0  0  0  0  0  0  0  0  0
   -5.5940   25.1620  -30.3860 C   0  0  0  0  0  0  0  0  0  0  0  0
   -4.2350   25.5270  -30.6250 N   0  0  0  0  0  0  0  0  0  0  0  0
   -6.3670   25.9900  -29.8350 O   0  0  0  0  0  0  0  0  0  0  0  0
   -7.4790   23.5920  -31.0040 C   0  0  0  0  0  0  0  0  0  0  0  0
   -7.5420   22.2850  -31.4300 C   0  0  0  0  0  0  0  0  0  0  0  0
   -8.6450   21.5010  -31.7560 C   0  0  0  0  0  0  0  0  0  0  0  0
   -8.4170   20.1660  -32.1320 C   0  0  0  0  0  0  0  0  0  0  0  0
   -7.1020   19.6310  -32.1500 C   0  0  0  0  0  0  0  0  0  0  0  0
   -6.8680   18.2100  -32.5920 C   0  0  0  0  0  0  0  0  0  0  0  0
   -5.8170   17.6450  -31.8900 F   0  0  0  0  0  0  0  0  0  0  0  0
   -6.5670   18.1960  -33.9410 F   0  0  0  0  0  0  0  0  0  0  0  0
   -7.9970   17.4380  -32.3750 F   0  0  0  0  0  0  0  0  0  0  0  0
   -6.0060   20.4670  -31.8320 C   0  0  0  0  0  0  0  0  0  0  0  0
   -6.2620   21.7970  -31.4790 C   0  0  0  0  0  0  0  0  0  0  0  0
   -3.4702   22.0373  -27.5751 H   0  0  0  0  0  0  0  0  0  0  0  0
   -4.2338   23.4622  -28.3583 H   0  0  0  0  0  0  0  0  0  0  0  0
   -5.0787   21.8770  -28.3583 H   0  0  0  0  0  0  0  0  0  0  0  0
   -1.8408   21.5271  -27.0402 H   0  0  0  0  0  0  0  0  0  0  0  0
   -0.3302   20.6396  -27.4522 H   0  0  0  0  0  0  0  0  0  0  0  0
   -1.9773   24.3892  -26.9096 H   0  0  0  0  0  0  0  0  0  0  0  0
   -0.7519   25.6657  -26.5914 H   0  0  0  0  0  0  0  0  0  0  0  0
   -3.6190   24.9480  -31.2370 H   0  0  0  0  0  0  0  0  0  0  0  0
   -3.8650   26.4330  -30.2600 H   0  0  0  0  0  0  0  0  0  0  0  0
   -8.3195   24.2837  -30.8457 H   0  0  0  0  0  0  0  0  0  0  0  0
   -9.6640   21.9137  -31.7204 H   0  0  0  0  0  0  0  0  0  0  0  0
   -9.2673   19.5283  -32.4156 H   0  0  0  0  0  0  0  0  0  0  0  0
   -4.9765   20.0808  -31.8615 H   0  0  0  0  0  0  0  0  0  0  0  0
  1  2  1  0
  2  3  1  0
  3  4  2  0
  3  5  1  0
  5  6  1  0
  6  7  1  0
  7  8  1  0
  8  9  2  0
  8 10  1  0
 10 11  1  0
 11 12  2  0
 11 13  1  0
  2 14  1  0
 14 15  2  0
 14 16  1  0
 16 17  1  0
 17 18  1  0
 18 19  1  0
 18 20  2  0
 17 21  2  0
 21 22  1  0
 22 23  2  0
 23 24  1  0
 24 25  2  0
 25 26  1  0
 26 27  1  0
 26 28  1  0
 26 29  1  0
 25 30  1  0
 30 31  2  0
 31 16  1  0
 31 22  1  0
  1 32  1  0
  1 33  1  0
  1 34  1  0
  6 35  1  0
  6 36  1  0
 10 37  1  0
 10 38  1  0
 19 39  1  0
 19 40  1  0
 21 41  1  0
 23 42  1  0
 24 43  1  0
 30 44  1  0
M  CHG  1  13  -1
M  END
>  <UniqueID>  (61) 
61

>  <SMILES>  (61) 
CN(C(=O)OCOC(=O)CC(=O)[O-])C(=O)n1c(C(N)=O)cc2ccc(C(F)(F)F)cc21

>  <Energy>  (61) 
81.30492989337016

>  <Genealogy>  (61) 
CN(C(=O)OCOC(=O)CC(=O)[O-])C(=O)n1c(C(N)=O)cc2ccc(C(F)(F)F)cc21 (protonated)
CN(C(=O)OCOC(=O)CC(=O)[O-])C(=O)n1c(C(N)=O)cc2ccc(C(F)(F)F)cc21 (3D coordinates assigned)
CN(C(=O)OCOC(=O)CC(=O)[O-])C(=O)n1c(C(N)=O)cc2ccc(C(F)(F)F)cc21 (optimized conformer: 81.30492989337016 kcal/mol)

>  <smiles>  (61) 
CN(C(=O)OCOC(=O)CC(=O)O)C(=O)n1c(C(N)=O)cc2ccc(C(F)(F)F)cc21

>  <score_type>  (61) 
oracle

>  <origin>  (61) 
adg

>  <m_score__min__energy>  (61) 
-10.75

>  <m_primary>  (61) 
energy

$$$$
61:0
     RDKit          3D

 46 47  0  0  0  0  0  0  0  0999 V2000
   -6.3280   26.0490  -29.6530 C   0  0  0  0  0  0  0  0  0  0  0  0
   -5.7200   24.7820  -29.2680 N   0  0  0  0  0  0  0  0  0  0  0  0
   -4.4180   24.3980  -29.7350 C   0  0  0  0  0  0  0  0  0  0  0  0
   -3.7690   25.1690  -30.4950 O   0  0  0  0  0  0  0  0  0  0  0  0
   -3.8310   23.1030  -29.3440 C   0  0  0  0  0  0  0  0  0  0  0  0
   -4.2470   22.5130  -28.3110 O   0  0  0  0  0  0  0  0  0  0  0  0
   -2.7970   22.4980  -30.1380 N   0  0  0  0  0  0  0  0  0  0  0  0
   -1.4750   22.8220  -30.1750 C   0  0  0  0  0  0  0  0  0  0  0  0
   -0.7970   23.8020  -29.3000 C   0  0  0  0  0  0  0  0  0  0  0  0
   -1.2520   25.1500  -29.2150 N   0  0  0  0  0  0  0  0  0  0  0  0
    0.1820   23.4370  -28.5960 O   0  0  0  0  0  0  0  0  0  0  0  0
   -0.8110   22.0520  -31.1300 C   0  0  0  0  0  0  0  0  0  0  0  0
   -1.7780   21.2400  -31.6790 C   0  0  0  0  0  0  0  0  0  0  0  0
   -1.6800   20.2820  -32.6820 C   0  0  0  0  0  0  0  0  0  0  0  0
   -2.8530   19.6130  -33.0710 C   0  0  0  0  0  0  0  0  0  0  0  0
   -4.1030   19.9190  -32.4660 C   0  0  0  0  0  0  0  0  0  0  0  0
   -5.3100   19.2410  -32.8810 N   0  0  0  0  0  0  0  0  0  0  0  0
   -5.6310   17.9310  -32.2990 C   0  0  0  0  0  0  0  0  0  0  0  0
   -6.3850   20.0300  -33.5070 C   0  0  0  0  0  0  0  0  0  0  0  0
   -7.5700   20.2110  -32.5880 C   0  0  0  0  0  0  0  0  0  0  0  0
   -8.3150   19.2160  -32.3720 O   0  0  0  0  0  0  0  0  0  0  0  0
   -7.8780   21.4810  -31.9690 N   0  0  0  0  0  0  0  0  0  0  0  0
   -9.1240   21.6160  -31.2070 C   0  0  0  0  0  0  0  0  0  0  0  0
   -6.9560   22.6150  -32.0740 C   0  0  0  0  0  0  0  0  0  0  0  0
   -4.1550   20.9020  -31.4500 C   0  0  0  0  0  0  0  0  0  0  0  0
   -2.9670   21.5330  -31.0670 C   0  0  0  0  0  0  0  0  0  0  0  0
   -6.5995   26.6149  -28.7496 H   0  0  0  0  0  0  0  0  0  0  0  0
   -5.6120   26.6329  -30.2500 H   0  0  0  0  0  0  0  0  0  0  0  0
   -7.2315   25.8557  -30.2500 H   0  0  0  0  0  0  0  0  0  0  0  0
   -6.2550   24.1450  -28.6360 H   0  0  0  0  0  0  0  0  0  0  0  0
   -1.6180   25.6490  -30.0550 H   0  0  0  0  0  0  0  0  0  0  0  0
    0.2575   22.0862  -31.3892 H   0  0  0  0  0  0  0  0  0  0  0  0
   -0.7139   20.0548  -33.1564 H   0  0  0  0  0  0  0  0  0  0  0  0
   -2.8036   18.8421  -33.8541 H   0  0  0  0  0  0  0  0  0  0  0  0
   -5.6133   18.0031  -31.2015 H   0  0  0  0  0  0  0  0  0  0  0  0
   -6.6324   17.6182  -32.6298 H   0  0  0  0  0  0  0  0  0  0  0  0
   -4.8877   17.1907  -32.6298 H   0  0  0  0  0  0  0  0  0  0  0  0
   -5.9883   21.0210  -33.7726 H   0  0  0  0  0  0  0  0  0  0  0  0
   -6.7292   19.4842  -34.3979 H   0  0  0  0  0  0  0  0  0  0  0  0
   -8.8998   21.5917  -30.1304 H   0  0  0  0  0  0  0  0  0  0  0  0
   -9.6066   22.5717  -31.4596 H   0  0  0  0  0  0  0  0  0  0  0  0
   -9.8000   20.7858  -31.4596 H   0  0  0  0  0  0  0  0  0  0  0  0
   -6.6784   22.9564  -31.0659 H   0  0  0  0  0  0  0  0  0  0  0  0
   -6.0518   22.3033  -32.6175 H   0  0  0  0  0  0  0  0  0  0  0  0
   -7.4456   23.4365  -32.6175 H   0  0  0  0  0  0  0  0  0  0  0  0
   -5.1099   21.1646  -30.9712 H   0  0  0  0  0  0  0  0  0  0  0  0
  1  2  1  0
  2  3  1  0
  3  4  2  0
  3  5  1  0
  5  6  2  0
  5  7  1  0
  7  8  1  0
  8  9  1  0
  9 10  1  0
  9 11  2  0
  8 12  2  0
 12 13  1  0
 13 14  2  0
 14 15  1  0
 15 16  2  0
 16 17  1  0
 17 18  1  0
 17 19  1  0
 19 20  1  0
 20 21  2  0
 20 22  1  0
 22 23  1  0
 22 24  1  0
 16 25  1  0
 25 26  2  0
 26  7  1  0
 26 13  1  0
  1 27  1  0
  1 28  1  0
  1 29  1  0
  2 30  1  0
 10 31  1  0
 12 32  1  0
 14 33  1  0
 15 34  1  0
 18 35  1  0
 18 36  1  0
 18 37  1  0
 19 38  1  0
 19 39  1  0
 23 40  1  0
 23 41  1  0
 23 42  1  0
 24 43  1  0
 24 44  1  0
 24 45  1  0
 25 46  1  0
M  CHG  1  10  -1
M  END
>  <UniqueID>  (62) 
62

>  <SMILES>  (62) 
CNC(=O)C(=O)n1c(C([NH-])=O)cc2ccc(N(C)CC(=O)N(C)C)cc21

>  <Energy>  (62) 
82.66489374378556

>  <Genealogy>  (62) 
CNC(=O)C(=O)n1c(C([NH-])=O)cc2ccc(N(C)CC(=O)N(C)C)cc21 (protonated)
CNC(=O)C(=O)n1c(C([NH-])=O)cc2ccc(N(C)CC(=O)N(C)C)cc21 (3D coordinates assigned)
CNC(=O)C(=O)n1c(C([NH-])=O)cc2ccc(N(C)CC(=O)N(C)C)cc21 (optimized conformer: 82.66489374378556 kcal/mol)

>  <smiles>  (62) 
CNC(=O)C(=O)n1c(C(N)=O)cc2ccc(N(C)CC(=O)N(C)C)cc21

>  <score_type>  (62) 
oracle

>  <origin>  (62) 
adg

>  <m_score__min__energy>  (62) 
-10.35

>  <m_primary>  (62) 
energy

$$$$
62:0
     RDKit          3D

 42 43  0  0  0  0  0  0  0  0999 V2000
   -1.4980   22.9180  -28.4970 C   0  0  0  0  0  0  0  0  0  0  0  0
   -2.8660   22.5450  -29.0890 C   0  0  0  0  0  0  0  0  0  0  0  0
   -3.9730   23.0970  -28.1690 C   0  0  0  0  0  0  0  0  0  0  0  0
   -2.9610   21.0110  -29.1940 C   0  0  0  0  0  0  0  0  0  0  0  0
   -2.9430   23.1490  -30.3880 O   0  0  0  0  0  0  0  0  0  0  0  0
   -3.7620   22.7370  -31.4510 C   0  0  0  0  0  0  0  0  0  0  0  0
   -3.2730   22.1540  -32.4560 O   0  0  0  0  0  0  0  0  0  0  0  0
   -5.1780   22.9610  -31.3780 N   0  0  0  0  0  0  0  0  0  0  0  0
   -5.8240   24.0450  -30.8630 C   0  0  0  0  0  0  0  0  0  0  0  0
   -5.1900   25.3060  -30.4270 C   0  0  0  0  0  0  0  0  0  0  0  0
   -3.8720   25.6460  -30.8460 N   0  0  0  0  0  0  0  0  0  0  0  0
   -5.8390   26.1170  -29.7150 O   0  0  0  0  0  0  0  0  0  0  0  0
   -7.2030   23.8410  -30.8690 C   0  0  0  0  0  0  0  0  0  0  0  0
   -7.3840   22.5910  -31.4130 C   0  0  0  0  0  0  0  0  0  0  0  0
   -8.5560   21.8730  -31.6360 C   0  0  0  0  0  0  0  0  0  0  0  0
   -8.4440   20.5810  -32.1750 C   0  0  0  0  0  0  0  0  0  0  0  0
   -7.1730   20.0320  -32.4780 C   0  0  0  0  0  0  0  0  0  0  0  0
   -7.0610   18.6260  -33.0100 C   0  0  0  0  0  0  0  0  0  0  0  0
   -6.0600   18.5340  -34.1680 C   0  0  0  0  0  0  0  0  0  0  0  0
   -5.7250   17.1110  -34.4990 C   0  0  0  0  0  0  0  0  0  0  0  0
   -6.5220   16.1850  -34.1930 O   0  0  0  0  0  0  0  0  0  0  0  0
   -4.5130   16.8050  -35.1060 O   0  0  0  0  0  0  0  0  0  0  0  0
   -6.0050   20.7870  -32.2320 C   0  0  0  0  0  0  0  0  0  0  0  0
   -6.1470   22.0790  -31.7110 C   0  0  0  0  0  0  0  0  0  0  0  0
   -1.5571   22.9019  -27.3987 H   0  0  0  0  0  0  0  0  0  0  0  0
   -0.7425   22.1930  -28.8342 H   0  0  0  0  0  0  0  0  0  0  0  0
   -1.2151   23.9261  -28.8342 H   0  0  0  0  0  0  0  0  0  0  0  0
   -3.6824   22.9521  -27.1180 H   0  0  0  0  0  0  0  0  0  0  0  0
   -4.1124   24.1701  -28.3663 H   0  0  0  0  0  0  0  0  0  0  0  0
   -4.9140   22.5626  -28.3663 H   0  0  0  0  0  0  0  0  0  0  0  0
   -2.9880   20.5753  -28.1843 H   0  0  0  0  0  0  0  0  0  0  0  0
   -3.8779   20.7367  -29.7363 H   0  0  0  0  0  0  0  0  0  0  0  0
   -2.0850   20.6256  -29.7363 H   0  0  0  0  0  0  0  0  0  0  0  0
   -3.0350   25.2910  -30.3320 H   0  0  0  0  0  0  0  0  0  0  0  0
   -7.9810   24.5329  -30.5140 H   0  0  0  0  0  0  0  0  0  0  0  0
   -9.5393   22.3045  -31.3973 H   0  0  0  0  0  0  0  0  0  0  0  0
   -9.3518   19.9892  -32.3639 H   0  0  0  0  0  0  0  0  0  0  0  0
   -6.7278   17.9633  -32.1977 H   0  0  0  0  0  0  0  0  0  0  0  0
   -8.0490   18.3230  -33.3869 H   0  0  0  0  0  0  0  0  0  0  0  0
   -6.4974   19.0132  -35.0563 H   0  0  0  0  0  0  0  0  0  0  0  0
   -5.1337   19.0422  -33.8620 H   0  0  0  0  0  0  0  0  0  0  0  0
   -5.0092   20.3707  -32.4443 H   0  0  0  0  0  0  0  0  0  0  0  0
  1  2  1  0
  2  3  1  0
  2  4  1  0
  2  5  1  0
  5  6  1  0
  6  7  2  0
  6  8  1  0
  8  9  1  0
  9 10  1  0
 10 11  1  0
 10 12  2  0
  9 13  2  0
 13 14  1  0
 14 15  2  0
 15 16  1  0
 16 17  2  0
 17 18  1  0
 18 19  1  0
 19 20  1  0
 20 21  2  0
 20 22  1  0
 17 23  1  0
 23 24  2  0
 24  8  1  0
 24 14  1  0
  1 25  1  0
  1 26  1  0
  1 27  1  0
  3 28  1  0
  3 29  1  0
  3 30  1  0
  4 31  1  0
  4 32  1  0
  4 33  1  0
 11 34  1  0
 13 35  1  0
 15 36  1  0
 16 37  1  0
 18 38  1  0
 18 39  1  0
 19 40  1  0
 19 41  1  0
 23 42  1  0
M  CHG  2  11  -1  22  -1
M  END
>  <UniqueID>  (63) 
63

>  <SMILES>  (63) 
CC(C)(C)OC(=O)n1c(C([NH-])=O)cc2ccc(CCC(=O)[O-])cc21

>  <Energy>  (63) 
72.48694228807497

>  <Genealogy>  (63) 
CC(C)(C)OC(=O)n1c(C([NH-])=O)cc2ccc(CCC(=O)[O-])cc21 (protonated)
CC(C)(C)OC(=O)n1c(C([NH-])=O)cc2ccc(CCC(=O)[O-])cc21 (3D coordinates assigned)
CC(C)(C)OC(=O)n1c(C([NH-])=O)cc2ccc(CCC(=O)[O-])cc21 (optimized conformer: 72.48694228807497 kcal/mol)

>  <smiles>  (63) 
CC(C)(C)OC(=O)n1c(C(N)=O)cc2ccc(CCC(=O)O)cc21

>  <score_type>  (63) 
oracle

>  <origin>  (63) 
adg

>  <m_score__min__energy>  (63) 
-10.609999999999999

>  <m_primary>  (63) 
energy

$$$$
63:0
     RDKit          3D

 36 37  0  0  0  0  0  0  0  0999 V2000
   -5.6690   18.2790  -34.6700 C   0  0  0  0  0  0  0  0  0  0  0  0
   -6.3870   18.4060  -33.3960 N   0  0  0  0  0  0  0  0  0  0  0  0
   -6.7870   17.1860  -32.6840 C   0  0  0  0  0  0  0  0  0  0  0  0
   -6.6970   19.7140  -32.8500 C   0  0  0  0  0  0  0  0  0  0  0  0
   -8.0470   20.1520  -32.7340 C   0  0  0  0  0  0  0  0  0  0  0  0
   -8.3590   21.4100  -32.1940 C   0  0  0  0  0  0  0  0  0  0  0  0
   -7.3090   22.2220  -31.7830 C   0  0  0  0  0  0  0  0  0  0  0  0
   -7.3320   23.4710  -31.2060 C   0  0  0  0  0  0  0  0  0  0  0  0
   -5.9960   23.8020  -30.9900 C   0  0  0  0  0  0  0  0  0  0  0  0
   -5.5440   25.1080  -30.4610 C   0  0  0  0  0  0  0  0  0  0  0  0
   -4.1800   25.5150  -30.5930 N   0  0  0  0  0  0  0  0  0  0  0  0
   -6.3530   25.8620  -29.8590 O   0  0  0  0  0  0  0  0  0  0  0  0
   -5.1810   22.7980  -31.4180 N   0  0  0  0  0  0  0  0  0  0  0  0
   -3.7500   22.7280  -31.3070 C   0  0  0  0  0  0  0  0  0  0  0  0
   -3.0560   22.3990  -32.3070 O   0  0  0  0  0  0  0  0  0  0  0  0
   -3.1330   23.0180  -30.0840 O   0  0  0  0  0  0  0  0  0  0  0  0
   -1.7190   23.0500  -29.9070 C   0  0  0  0  0  0  0  0  0  0  0  0
   -1.2960   24.3590  -29.3220 C   0  0  0  0  0  0  0  0  0  0  0  0
   -2.0850   25.3400  -29.3340 O   0  0  0  0  0  0  0  0  0  0  0  0
   -0.0430   24.4890  -28.7370 O   0  0  0  0  0  0  0  0  0  0  0  0
   -6.0010   21.8370  -31.9010 C   0  0  0  0  0  0  0  0  0  0  0  0
   -5.6600   20.5810  -32.4160 C   0  0  0  0  0  0  0  0  0  0  0  0
   -4.6033   18.0905  -34.4731 H   0  0  0  0  0  0  0  0  0  0  0  0
   -6.0893   17.4412  -35.2458 H   0  0  0  0  0  0  0  0  0  0  0  0
   -5.7764   19.2101  -35.2458 H   0  0  0  0  0  0  0  0  0  0  0  0
   -6.7302   17.3592  -31.5992 H   0  0  0  0  0  0  0  0  0  0  0  0
   -7.8187   16.9221  -32.9597 H   0  0  0  0  0  0  0  0  0  0  0  0
   -6.1118   16.3625  -32.9597 H   0  0  0  0  0  0  0  0  0  0  0  0
   -8.8598   19.4931  -33.0735 H   0  0  0  0  0  0  0  0  0  0  0  0
   -9.4032   21.7427  -32.0992 H   0  0  0  0  0  0  0  0  0  0  0  0
   -8.2169   24.0788  -30.9663 H   0  0  0  0  0  0  0  0  0  0  0  0
   -3.4930   24.9450  -31.1320 H   0  0  0  0  0  0  0  0  0  0  0  0
   -3.8630   26.4220  -30.1820 H   0  0  0  0  0  0  0  0  0  0  0  0
   -1.4202   22.2368  -29.2293 H   0  0  0  0  0  0  0  0  0  0  0  0
   -1.2341   22.9237  -30.8863 H   0  0  0  0  0  0  0  0  0  0  0  0
   -4.6067   20.2710  -32.4833 H   0  0  0  0  0  0  0  0  0  0  0  0
  1  2  1  0
  2  3  1  0
  2  4  1  0
  4  5  2  0
  5  6  1  0
  6  7  2  0
  7  8  1  0
  8  9  2  0
  9 10  1  0
 10 11  1  0
 10 12  2  0
  9 13  1  0
 13 14  1  0
 14 15  2  0
 14 16  1  0
 16 17  1  0
 17 18  1  0
 18 19  2  0
 18 20  1  0
 13 21  1  0
 21 22  2  0
 22  4  1  0
 21  7  1  0
  1 23  1  0
  1 24  1  0
  1 25  1  0
  3 26  1  0
  3 27  1  0
  3 28  1  0
  5 29  1  0
  6 30  1  0
  8 31  1  0
 11 32  1  0
 11 33  1  0
 17 34  1  0
 17 35  1  0
 22 36  1  0
M  CHG  1  20  -1
M  END
>  <UniqueID>  (64) 
64

>  <SMILES>  (64) 
CN(C)c1ccc2cc(C(N)=O)n(C(=O)OCC(=O)[O-])c2c1

>  <Energy>  (64) 
73.7814690645932

>  <Genealogy>  (64) 
CN(C)c1ccc2cc(C(N)=O)n(C(=O)OCC(=O)[O-])c2c1 (protonated)
CN(C)c1ccc2cc(C(N)=O)n(C(=O)OCC(=O)[O-])c2c1 (3D coordinates assigned)
CN(C)c1ccc2cc(C(N)=O)n(C(=O)OCC(=O)[O-])c2c1 (optimized conformer: 73.7814690645932 kcal/mol)

>  <smiles>  (64) 
CN(C)c1ccc2cc(C(N)=O)n(C(=O)OCC(=O)O)c2c1

>  <score_type>  (64) 
oracle

>  <origin>  (64) 
adg

>  <m_score__min__energy>  (64) 
-10.699999999999999

>  <m_primary>  (64) 
energy

$$$$
64:0
     RDKit          3D

 35 37  0  0  0  0  0  0  0  0999 V2000
   -6.8740   21.5070  -31.7380 C   0  0  0  0  0  0  0  0  0  0  0  0
   -5.8370   21.3890  -32.7040 O   0  0  0  0  0  0  0  0  0  0  0  0
   -5.4970   20.1950  -33.3610 C   0  0  0  0  0  0  0  0  0  0  0  0
   -6.4060   19.5300  -34.1400 N   0  0  0  0  0  0  0  0  0  0  0  0
   -6.0980   18.3550  -34.7540 C   0  0  0  0  0  0  0  0  0  0  0  0
   -4.8330   17.7930  -34.6020 C   0  0  0  0  0  0  0  0  0  0  0  0
   -3.8830   18.4480  -33.8210 C   0  0  0  0  0  0  0  0  0  0  0  0
   -4.2000   19.6650  -33.1960 C   0  0  0  0  0  0  0  0  0  0  0  0
   -3.1770   20.3590  -32.3790 C   0  0  0  0  0  0  0  0  0  0  0  0
   -1.8770   19.8060  -32.2450 C   0  0  0  0  0  0  0  0  0  0  0  0
   -0.8990   20.4500  -31.4700 C   0  0  0  0  0  0  0  0  0  0  0  0
   -1.2410   21.6490  -30.8520 C   0  0  0  0  0  0  0  0  0  0  0  0
   -0.4970   22.4620  -30.0290 C   0  0  0  0  0  0  0  0  0  0  0  0
   -1.3410   23.5200  -29.6960 C   0  0  0  0  0  0  0  0  0  0  0  0
   -0.9080   24.6800  -28.8890 C   0  0  0  0  0  0  0  0  0  0  0  0
   -1.6090   25.9190  -28.9510 N   0  0  0  0  0  0  0  0  0  0  0  0
    0.1260   24.5910  -28.1740 O   0  0  0  0  0  0  0  0  0  0  0  0
   -2.5620   23.3620  -30.2820 N   0  0  0  0  0  0  0  0  0  0  0  0
   -3.7310   24.1800  -30.1090 C   0  0  0  0  0  0  0  0  0  0  0  0
   -4.6650   23.8020  -29.3550 O   0  0  0  0  0  0  0  0  0  0  0  0
   -3.8270   25.4090  -30.7490 O   0  0  0  0  0  0  0  0  0  0  0  0
   -2.4830   22.2130  -30.9890 C   0  0  0  0  0  0  0  0  0  0  0  0
   -3.4830   21.5840  -31.7410 C   0  0  0  0  0  0  0  0  0  0  0  0
   -6.4414   21.4578  -30.7278 H   0  0  0  0  0  0  0  0  0  0  0  0
   -7.3898   22.4696  -31.8695 H   0  0  0  0  0  0  0  0  0  0  0  0
   -7.5929   20.6849  -31.8695 H   0  0  0  0  0  0  0  0  0  0  0  0
   -7.3690   19.9070  -34.2770 H   0  0  0  0  0  0  0  0  0  0  0  0
   -6.8519   17.8469  -35.3732 H   0  0  0  0  0  0  0  0  0  0  0  0
   -4.5860   16.8407  -35.0940 H   0  0  0  0  0  0  0  0  0  0  0  0
   -2.8818   18.0106  -33.6936 H   0  0  0  0  0  0  0  0  0  0  0  0
   -1.6326   18.8620  -32.7541 H   0  0  0  0  0  0  0  0  0  0  0  0
    0.1068   20.0198  -31.3549 H   0  0  0  0  0  0  0  0  0  0  0  0
    0.5425   22.3097  -29.7031 H   0  0  0  0  0  0  0  0  0  0  0  0
   -2.6530   25.9440  -28.9740 H   0  0  0  0  0  0  0  0  0  0  0  0
   -4.4833   22.0321  -31.8335 H   0  0  0  0  0  0  0  0  0  0  0  0
  1  2  1  0
  2  3  1  0
  3  4  2  0
  4  5  1  0
  5  6  2  0
  6  7  1  0
  7  8  2  0
  8  9  1  0
  9 10  2  0
 10 11  1  0
 11 12  2  0
 12 13  1  0
 13 14  2  0
 14 15  1  0
 15 16  1  0
 15 17  2  0
 14 18  1  0
 18 19  1  0
 19 20  2  0
 19 21  1  0
 18 22  1  0
 22 23  2  0
  8  3  1  0
 23  9  1  0
 22 12  1  0
  1 24  1  0
  1 25  1  0
  1 26  1  0
  4 27  1  0
  5 28  1  0
  6 29  1  0
  7 30  1  0
 10 31  1  0
 11 32  1  0
 13 33  1  0
 16 34  1  0
 23 35  1  0
M  CHG  3   4   1  16  -1  21  -1
M  END
>  <UniqueID>  (65) 
65

>  <SMILES>  (65) 
COc1[nH+]cccc1-c1ccc2cc(C([NH-])=O)n(C(=O)[O-])c2c1

>  <Energy>  (65) 
82.99168988037344

>  <Genealogy>  (65) 
COc1[nH+]cccc1-c1ccc2cc(C([NH-])=O)n(C(=O)[O-])c2c1 (protonated)
COc1[nH+]cccc1-c1ccc2cc(C([NH-])=O)n(C(=O)[O-])c2c1 (3D coordinates assigned)
COc1[nH+]cccc1-c1ccc2cc(C([NH-])=O)n(C(=O)[O-])c2c1 (optimized conformer: 82.99168988037344 kcal/mol)

>  <smiles>  (65) 
COc1ncccc1-c1ccc2cc(C(N)=O)n(C(=O)O)c2c1

>  <score_type>  (65) 
oracle

>  <origin>  (65) 
adg

>  <m_score__min__energy>  (65) 
-10.949999999999999

>  <m_primary>  (65) 
energy

$$$$
65:0
     RDKit          3D

 34 35  0  0  0  0  0  0  0  0999 V2000
   -3.4870   26.0160  -31.2250 H   0  0  0  0  0  0  0  0  0  0  0  0
   -3.8800   25.3010  -30.5740 N   0  0  0  0  0  0  0  0  0  0  0  0
   -5.2870   25.1140  -30.4530 C   0  0  0  0  0  0  0  0  0  0  0  0
   -5.9910   26.0380  -29.9640 O   0  0  0  0  0  0  0  0  0  0  0  0
   -5.9260   23.8460  -30.8630 C   0  0  0  0  0  0  0  0  0  0  0  0
   -7.3050   23.6780  -30.9910 C   0  0  0  0  0  0  0  0  0  0  0  0
   -8.0854   24.4402  -30.8495 H   0  0  0  0  0  0  0  0  0  0  0  0
   -7.4820   22.3560  -31.3320 C   0  0  0  0  0  0  0  0  0  0  0  0
   -8.6480   21.6450  -31.5970 C   0  0  0  0  0  0  0  0  0  0  0  0
   -9.6338   22.1290  -31.5338 H   0  0  0  0  0  0  0  0  0  0  0  0
   -8.5280   20.2890  -31.9480 C   0  0  0  0  0  0  0  0  0  0  0  0
   -9.4316   19.7042  -32.1750 H   0  0  0  0  0  0  0  0  0  0  0  0
   -7.2530   19.6650  -32.0130 C   0  0  0  0  0  0  0  0  0  0  0  0
   -7.1350   18.2260  -32.4440 C   0  0  0  0  0  0  0  0  0  0  0  0
   -6.7180   18.1420  -33.7610 F   0  0  0  0  0  0  0  0  0  0  0  0
   -6.2130   17.5840  -31.6370 F   0  0  0  0  0  0  0  0  0  0  0  0
   -8.3550   17.5810  -32.3360 F   0  0  0  0  0  0  0  0  0  0  0  0
   -6.0910   20.4300  -31.7600 C   0  0  0  0  0  0  0  0  0  0  0  0
   -5.0910   19.9787  -31.8397 H   0  0  0  0  0  0  0  0  0  0  0  0
   -6.2440   21.7740  -31.4060 C   0  0  0  0  0  0  0  0  0  0  0  0
   -5.2810   22.6760  -31.1300 N   0  0  0  0  0  0  0  0  0  0  0  0
   -3.8670   22.4260  -31.1500 C   0  0  0  0  0  0  0  0  0  0  0  0
   -3.3330   21.9880  -32.2040 O   0  0  0  0  0  0  0  0  0  0  0  0
   -3.0140   22.7000  -29.9770 C   0  0  0  0  0  0  0  0  0  0  0  0
   -3.4658   22.6645  -28.9747 H   0  0  0  0  0  0  0  0  0  0  0  0
   -1.7120   22.9900  -30.0860 C   0  0  0  0  0  0  0  0  0  0  0  0
   -1.2591   23.0278  -31.0877 H   0  0  0  0  0  0  0  0  0  0  0  0
   -0.8650   23.2600  -28.9140 C   0  0  0  0  0  0  0  0  0  0  0  0
   -0.5560   22.3340  -28.1140 O   0  0  0  0  0  0  0  0  0  0  0  0
   -0.4050   24.5620  -28.7000 O   0  0  0  0  0  0  0  0  0  0  0  0
   -0.9330   25.4030  -27.6810 C   0  0  0  0  0  0  0  0  0  0  0  0
   -0.6741   24.9907  -26.6946 H   0  0  0  0  0  0  0  0  0  0  0  0
   -0.5059   26.4118  -27.7803 H   0  0  0  0  0  0  0  0  0  0  0  0
   -2.0272   25.4567  -27.7803 H   0  0  0  0  0  0  0  0  0  0  0  0
  1  2  1  0
  2  3  1  0
  3  4  2  0
  3  5  1  0
  5  6  2  0
  6  7  1  0
  6  8  1  0
  8  9  2  0
  9 10  1  0
  9 11  1  0
 11 12  1  0
 11 13  2  0
 13 14  1  0
 14 15  1  0
 14 16  1  0
 14 17  1  0
 13 18  1  0
 18 19  1  0
 18 20  2  0
 20 21  1  0
 21 22  1  0
 22 23  2  0
 22 24  1  0
 24 25  1  0
 24 26  2  0
 26 27  1  0
 26 28  1  0
 28 29  2  0
 28 30  1  0
 30 31  1  0
 31 32  1  0
 31 33  1  0
 31 34  1  0
 21  5  1  0
 20  8  1  0
M  CHG  1   2  -1
M  END
>  <UniqueID>  (66) 
66

>  <SMILES>  (66) 
COC(=O)/C=C/C(=O)n1c(C([NH-])=O)cc2ccc(C(F)(F)F)cc21

>  <Energy>  (66) 
71.10905183271282

>  <Genealogy>  (66) 
COC(=O)/C=C/C(=O)n1c(C([NH-])=O)cc2ccc(C(F)(F)F)cc21 (protonated)
COC(=O)/C=C/C(=O)n1c(C([NH-])=O)cc2ccc(C(F)(F)F)cc21 (cis-trans isomerization)
COC(=O)/C=C/C(=O)n1c(C([NH-])=O)cc2ccc(C(F)(F)F)cc21 (3D coordinates assigned)
COC(=O)/C=C/C(=O)n1c(C([NH-])=O)cc2ccc(C(F)(F)F)cc21 (optimized conformer: 71.10905183271282 kcal/mol)

>  <smiles>  (66) 
COC(=O)/C=C/C(=O)n1c(C(N)=O)cc2ccc(C(F)(F)F)cc21

>  <score_type>  (66) 
oracle

>  <origin>  (66) 
adg

>  <m_score__min__energy>  (66) 
-10.02

>  <m_primary>  (66) 
energy

$$$$
66:0
     RDKit          3D

 42 43  0  0  0  0  0  0  0  0999 V2000
   -2.1730   23.1260  -27.5200 C   0  0  0  0  0  0  0  0  0  0  0  0
   -2.4440   24.3020  -28.4580 C   0  0  2  0  0  0  0  0  0  0  0  0
   -2.9480   23.8180  -29.7410 N   0  0  0  0  0  0  0  0  0  0  0  0
   -4.0130   24.4370  -30.4690 C   0  0  0  0  0  0  0  0  0  0  0  0
   -3.9350   25.6500  -30.8050 O   0  0  0  0  0  0  0  0  0  0  0  0
   -5.2490   23.6520  -30.7920 C   0  0  0  0  0  0  0  0  0  0  0  0
   -6.1060   24.4240  -31.5590 F   0  0  0  0  0  0  0  0  0  0  0  0
   -5.9100   23.3330  -29.6180 F   0  0  0  0  0  0  0  0  0  0  0  0
   -4.8680   22.4030  -31.5520 C   0  0  0  0  0  0  0  0  0  0  0  0
   -5.8640   21.4490  -31.8860 C   0  0  0  0  0  0  0  0  0  0  0  0
   -5.5430   20.3070  -32.6390 C   0  0  0  0  0  0  0  0  0  0  0  0
   -4.2240   20.1450  -33.0480 C   0  0  0  0  0  0  0  0  0  0  0  0
   -3.6490   19.1510  -33.8060 C   0  0  0  0  0  0  0  0  0  0  0  0
   -2.3060   19.5050  -33.9240 C   0  0  0  0  0  0  0  0  0  0  0  0
   -1.2850   18.6640  -34.5870 C   0  0  0  0  0  0  0  0  0  0  0  0
   -0.2760   19.2540  -35.4070 N   0  0  0  0  0  0  0  0  0  0  0  0
   -1.3130   17.4120  -34.4580 O   0  0  0  0  0  0  0  0  0  0  0  0
   -2.0620   20.6740  -33.2650 N   0  0  0  0  0  0  0  0  0  0  0  0
   -0.8240   21.4010  -33.2000 C   0  0  0  0  0  0  0  0  0  0  0  0
   -0.2640   21.5900  -32.0860 O   0  0  0  0  0  0  0  0  0  0  0  0
   -0.2540   21.9150  -34.3720 O   0  0  0  0  0  0  0  0  0  0  0  0
    1.1470   21.8980  -34.6380 C   0  0  0  0  0  0  0  0  0  0  0  0
    1.3930   21.8070  -36.1100 C   0  0  0  0  0  0  0  0  0  0  0  0
    1.5440   22.8530  -36.7950 O   0  0  0  0  0  0  0  0  0  0  0  0
    1.4220   20.5660  -36.7300 O   0  0  0  0  0  0  0  0  0  0  0  0
   -3.2470   21.0520  -32.7350 C   0  0  0  0  0  0  0  0  0  0  0  0
   -3.5420   22.2100  -32.0040 C   0  0  0  0  0  0  0  0  0  0  0  0
   -1.1830   25.0770  -28.6840 C   0  0  0  0  0  0  0  0  0  0  0  0
   -0.0700   24.4910  -28.6600 O   0  0  0  0  0  0  0  0  0  0  0  0
   -1.2370   26.4350  -28.9600 O   0  0  0  0  0  0  0  0  0  0  0  0
   -2.2509   23.4641  -26.4761 H   0  0  0  0  0  0  0  0  0  0  0  0
   -2.9117   22.3321  -27.7044 H   0  0  0  0  0  0  0  0  0  0  0  0
   -1.1613   22.7355  -27.7044 H   0  0  0  0  0  0  0  0  0  0  0  0
   -3.1983   24.9540  -27.9934 H   0  0  0  0  0  0  0  0  0  0  0  0
   -6.9001   21.6055  -31.5513 H   0  0  0  0  0  0  0  0  0  0  0  0
   -6.3118   19.5638  -32.8971 H   0  0  0  0  0  0  0  0  0  0  0  0
   -4.1443   18.2647  -34.2292 H   0  0  0  0  0  0  0  0  0  0  0  0
   -0.1770   20.2890  -35.4860 H   0  0  0  0  0  0  0  0  0  0  0  0
    0.4090   18.6460  -35.9100 H   0  0  0  0  0  0  0  0  0  0  0  0
    1.6015   22.8216  -34.2502 H   0  0  0  0  0  0  0  0  0  0  0  0
    1.5950   21.0227  -34.1449 H   0  0  0  0  0  0  0  0  0  0  0  0
   -2.7599   22.9524  -31.7865 H   0  0  0  0  0  0  0  0  0  0  0  0
  1  2  1  0
  2  3  1  0
  3  4  1  0
  4  5  2  0
  4  6  1  0
  6  7  1  0
  6  8  1  0
  6  9  1  0
  9 10  2  0
 10 11  1  0
 11 12  2  0
 12 13  1  0
 13 14  2  0
 14 15  1  0
 15 16  1  0
 15 17  2  0
 14 18  1  0
 18 19  1  0
 19 20  2  0
 19 21  1  0
 21 22  1  0
 22 23  1  0
 23 24  2  0
 23 25  1  0
 18 26  1  0
 26 27  2  0
  2 28  1  0
 28 29  2  0
 28 30  1  0
 27  9  1  0
 26 12  1  0
  1 31  1  0
  1 32  1  0
  1 33  1  0
  2 34  1  1
 10 35  1  0
 11 36  1  0
 13 37  1  0
 16 38  1  0
 16 39  1  0
 22 40  1  0
 22 41  1  0
 27 42  1  0
M  CHG  3   3  -1  25  -1  30  -1
M  END
>  <UniqueID>  (67) 
67

>  <SMILES>  (67) 
C[C@H]([N-]C(=O)C(F)(F)c1ccc2cc(C(N)=O)n(C(=O)OCC(=O)[O-])c2c1)C(=O)[O-]

>  <Energy>  (67) 
73.59356373175508

>  <Genealogy>  (67) 
CC([N-]C(=O)C(F)(F)c1ccc2cc(C(N)=O)n(C(=O)OCC(=O)[O-])c2c1)C(=O)[O-] (protonated)
C[C@H]([N-]C(=O)C(F)(F)c1ccc2cc(C(N)=O)n(C(=O)OCC(=O)[O-])c2c1)C(=O)[O-] (chirality)
C[C@H]([N-]C(=O)C(F)(F)c1ccc2cc(C(N)=O)n(C(=O)OCC(=O)[O-])c2c1)C(=O)[O-] (3D coordinates assigned)
C[C@H]([N-]C(=O)C(F)(F)c1ccc2cc(C(N)=O)n(C(=O)OCC(=O)[O-])c2c1)C(=O)[O-] (optimized conformer: 73.59356373175508 kcal/mol)

>  <smiles>  (67) 
CC(NC(=O)C(F)(F)c1ccc2cc(C(N)=O)n(C(=O)OCC(=O)O)c2c1)C(=O)O

>  <score_type>  (67) 
oracle

>  <origin>  (67) 
adg

>  <m_score__min__energy>  (67) 
-11.77

>  <m_primary>  (67) 
energy

$$$$
67:0
     RDKit          3D

 57 59  0  0  0  0  0  0  0  0999 V2000
   -1.5040   19.8980  -28.5730 C   0  0  0  0  0  0  0  0  0  0  0  0
   -2.1260   20.8620  -29.5850 C   0  0  1  0  0  0  0  0  0  0  0  0
   -2.2220   22.2100  -29.0160 N   0  0  0  0  0  0  0  0  0  0  0  0
   -3.1370   22.5350  -27.9640 C   0  0  0  0  0  0  0  0  0  0  0  0
   -3.8710   21.6380  -27.4640 O   0  0  0  0  0  0  0  0  0  0  0  0
   -3.2030   23.8590  -27.5090 O   0  0  0  0  0  0  0  0  0  0  0  0
   -2.1110   24.6370  -26.9970 C   0  0  0  0  0  0  0  0  0  0  0  0
   -1.0390   23.7220  -26.3720 C   0  0  0  0  0  0  0  0  0  0  0  0
   -2.6140   25.6670  -25.9680 C   0  0  0  0  0  0  0  0  0  0  0  0
   -1.4910   25.3860  -28.1870 C   0  0  0  0  0  0  0  0  0  0  0  0
   -1.2980   20.8810  -30.8370 C   0  0  0  0  0  0  0  0  0  0  0  0
   -0.1060   21.2900  -30.7880 O   0  0  0  0  0  0  0  0  0  0  0  0
   -1.8680   20.4880  -32.0520 O   0  0  0  0  0  0  0  0  0  0  0  0
   -1.9950   21.3670  -33.1670 C   0  0  0  0  0  0  0  0  0  0  0  0
   -3.2300   22.0740  -33.0980 O   0  0  0  0  0  0  0  0  0  0  0  0
   -3.6500   22.7600  -31.9540 C   0  0  0  0  0  0  0  0  0  0  0  0
   -2.8040   23.3090  -31.1960 O   0  0  0  0  0  0  0  0  0  0  0  0
   -5.0480   22.8160  -31.6270 N   0  0  0  0  0  0  0  0  0  0  0  0
   -5.7160   23.8160  -30.9820 C   0  0  0  0  0  0  0  0  0  0  0  0
   -5.1620   25.1360  -30.6180 C   0  0  0  0  0  0  0  0  0  0  0  0
   -3.7590   25.2860  -30.4140 N   0  0  0  0  0  0  0  0  0  0  0  0
   -5.9190   26.1260  -30.4450 O   0  0  0  0  0  0  0  0  0  0  0  0
   -7.0480   23.4620  -30.7800 C   0  0  0  0  0  0  0  0  0  0  0  0
   -7.1800   22.2090  -31.3330 C   0  0  0  0  0  0  0  0  0  0  0  0
   -8.2920   21.3780  -31.4070 C   0  0  0  0  0  0  0  0  0  0  0  0
   -8.1370   20.1210  -32.0150 C   0  0  0  0  0  0  0  0  0  0  0  0
   -6.8780   19.7120  -32.5290 C   0  0  0  0  0  0  0  0  0  0  0  0
   -6.6990   18.3870  -33.1640 C   0  0  0  0  0  0  0  0  0  0  0  0
   -5.9630   18.0760  -34.2890 C   0  0  0  0  0  0  0  0  0  0  0  0
   -6.0660   16.7540  -34.5250 N   0  0  0  0  0  0  0  0  0  0  0  0
   -6.8640   16.3130  -33.5300 C   0  0  0  0  0  0  0  0  0  0  0  0
   -7.2390   17.2790  -32.7220 O   0  0  0  0  0  0  0  0  0  0  0  0
   -5.7710   20.5870  -32.4290 C   0  0  0  0  0  0  0  0  0  0  0  0
   -5.9600   21.8410  -31.8370 C   0  0  0  0  0  0  0  0  0  0  0  0
   -1.7269   20.2434  -27.5527 H   0  0  0  0  0  0  0  0  0  0  0  0
   -1.9236   18.8918  -28.7193 H   0  0  0  0  0  0  0  0  0  0  0  0
   -0.4143   19.8657  -28.7193 H   0  0  0  0  0  0  0  0  0  0  0  0
   -3.1418   20.5185  -29.8303 H   0  0  0  0  0  0  0  0  0  0  0  0
   -1.6160   22.9770  -29.3880 H   0  0  0  0  0  0  0  0  0  0  0  0
   -1.1038   23.7773  -25.2753 H   0  0  0  0  0  0  0  0  0  0  0  0
   -1.2073   22.6848  -26.6974 H   0  0  0  0  0  0  0  0  0  0  0  0
   -0.0411   24.0511  -26.6974 H   0  0  0  0  0  0  0  0  0  0  0  0
   -2.4297   25.2896  -24.9513 H   0  0  0  0  0  0  0  0  0  0  0  0
   -2.0787   26.6176  -26.1089 H   0  0  0  0  0  0  0  0  0  0  0  0
   -3.6928   25.8293  -26.1089 H   0  0  0  0  0  0  0  0  0  0  0  0
   -0.8310   26.1834  -27.8147 H   0  0  0  0  0  0  0  0  0  0  0  0
   -0.9073   24.6827  -28.7990 H   0  0  0  0  0  0  0  0  0  0  0  0
   -2.2910   25.8281  -28.7990 H   0  0  0  0  0  0  0  0  0  0  0  0
   -1.1633   22.0868  -33.1588 H   0  0  0  0  0  0  0  0  0  0  0  0
   -1.9711   20.7760  -34.0945 H   0  0  0  0  0  0  0  0  0  0  0  0
   -3.1170   25.4780  -31.2140 H   0  0  0  0  0  0  0  0  0  0  0  0
   -7.8285   24.0576  -30.2838 H   0  0  0  0  0  0  0  0  0  0  0  0
   -9.2642   21.6952  -31.0016 H   0  0  0  0  0  0  0  0  0  0  0  0
   -9.0015   19.4454  -32.0939 H   0  0  0  0  0  0  0  0  0  0  0  0
   -5.3864   18.7910  -34.8942 H   0  0  0  0  0  0  0  0  0  0  0  0
   -7.1667   15.2624  -33.4089 H   0  0  0  0  0  0  0  0  0  0  0  0
   -4.7827   20.2882  -32.8084 H   0  0  0  0  0  0  0  0  0  0  0  0
  1  2  1  0
  2  3  1  0
  3  4  1  0
  4  5  2  0
  4  6  1  0
  6  7  1  0
  7  8  1  0
  7  9  1  0
  7 10  1  0
  2 11  1  0
 11 12  2  0
 11 13  1  0
 13 14  1  0
 14 15  1  0
 15 16  1  0
 16 17  2  0
 16 18  1  0
 18 19  1  0
 19 20  1  0
 20 21  1  0
 20 22  2  0
 19 23  2  0
 23 24  1  0
 24 25  2  0
 25 26  1  0
 26 27  2  0
 27 28  1  0
 28 29  2  0
 29 30  1  0
 30 31  2  0
 31 32  1  0
 27 33  1  0
 33 34  2  0
 34 18  1  0
 34 24  1  0
 32 28  1  0
  1 35  1  0
  1 36  1  0
  1 37  1  0
  2 38  1  6
  3 39  1  0
  8 40  1  0
  8 41  1  0
  8 42  1  0
  9 43  1  0
  9 44  1  0
  9 45  1  0
 10 46  1  0
 10 47  1  0
 10 48  1  0
 14 49  1  0
 14 50  1  0
 21 51  1  0
 23 52  1  0
 25 53  1  0
 26 54  1  0
 29 55  1  0
 31 56  1  0
 33 57  1  0
M  CHG  1  21  -1
M  END
>  <UniqueID>  (68) 
68

>  <SMILES>  (68) 
C[C@@H](NC(=O)OC(C)(C)C)C(=O)OCOC(=O)n1c(C([NH-])=O)cc2ccc(-c3cnco3)cc21

>  <Energy>  (68) 
114.49211366855445

>  <Genealogy>  (68) 
CC(NC(=O)OC(C)(C)C)C(=O)OCOC(=O)n1c(C([NH-])=O)cc2ccc(-c3cnco3)cc21 (protonated)
C[C@@H](NC(=O)OC(C)(C)C)C(=O)OCOC(=O)n1c(C([NH-])=O)cc2ccc(-c3cnco3)cc21 (chirality)
C[C@@H](NC(=O)OC(C)(C)C)C(=O)OCOC(=O)n1c(C([NH-])=O)cc2ccc(-c3cnco3)cc21 (3D coordinates assigned)
C[C@@H](NC(=O)OC(C)(C)C)C(=O)OCOC(=O)n1c(C([NH-])=O)cc2ccc(-c3cnco3)cc21 (optimized conformer: 114.49211366855445 kcal/mol)

>  <smiles>  (68) 
CC(NC(=O)OC(C)(C)C)C(=O)OCOC(=O)n1c(C(N)=O)cc2ccc(-c3cnco3)cc21

>  <score_type>  (68) 
oracle

>  <origin>  (68) 
adg

>  <m_score__min__energy>  (68) 
-11.65

>  <m_primary>  (68) 
energy

$$$$
68:0
     RDKit          3D

 34 35  0  0  0  0  0  0  0  0999 V2000
   -3.8740   25.4590  -30.8450 N   0  0  0  0  0  0  0  0  0  0  0  0
   -5.2350   25.2310  -30.4850 C   0  0  0  0  0  0  0  0  0  0  0  0
   -5.8510   26.1030  -29.8180 O   0  0  0  0  0  0  0  0  0  0  0  0
   -5.9120   23.9880  -30.9130 C   0  0  0  0  0  0  0  0  0  0  0  0
   -7.2940   23.8100  -30.8870 C   0  0  0  0  0  0  0  0  0  0  0  0
   -7.5040   22.5180  -31.3170 C   0  0  0  0  0  0  0  0  0  0  0  0
   -8.6890   21.8130  -31.4950 C   0  0  0  0  0  0  0  0  0  0  0  0
   -8.6060   20.4940  -31.9750 C   0  0  0  0  0  0  0  0  0  0  0  0
   -7.3490   19.9190  -32.2860 C   0  0  0  0  0  0  0  0  0  0  0  0
   -7.2710   18.5020  -32.7740 C   0  0  0  0  0  0  0  0  0  0  0  0
   -8.3280   17.7780  -32.2550 F   0  0  0  0  0  0  0  0  0  0  0  0
   -6.1660   20.6610  -32.0810 C   0  0  0  0  0  0  0  0  0  0  0  0
   -6.2790   21.9630  -31.5840 C   0  0  0  0  0  0  0  0  0  0  0  0
   -5.2930   22.8520  -31.3350 N   0  0  0  0  0  0  0  0  0  0  0  0
   -3.8870   22.6460  -31.5450 C   0  0  0  0  0  0  0  0  0  0  0  0
   -3.4710   22.3060  -32.6840 O   0  0  0  0  0  0  0  0  0  0  0  0
   -2.9270   22.8380  -30.4490 C   0  0  0  0  0  0  0  0  0  0  0  0
   -1.6990   22.6310  -30.6450 O   0  0  0  0  0  0  0  0  0  0  0  0
   -3.3930   23.2540  -29.1600 N   0  0  0  0  0  0  0  0  0  0  0  0
   -2.5180   23.5100  -28.0210 C   0  0  0  0  0  0  0  0  0  0  0  0
   -2.0100   24.9520  -28.0340 C   0  0  0  0  0  0  0  0  0  0  0  0
   -1.5780   25.3180  -29.3170 O   0  0  0  0  0  0  0  0  0  0  0  0
   -3.0980   25.2350  -30.1820 H   0  0  0  0  0  0  0  0  0  0  0  0
   -8.0554   24.5449  -30.5869 H   0  0  0  0  0  0  0  0  0  0  0  0
   -9.6619   22.2731  -31.2673 H   0  0  0  0  0  0  0  0  0  0  0  0
   -9.5244   19.9038  -32.1101 H   0  0  0  0  0  0  0  0  0  0  0  0
   -7.3219   18.4891  -33.8727 H   0  0  0  0  0  0  0  0  0  0  0  0
   -6.3221   18.0525  -32.4461 H   0  0  0  0  0  0  0  0  0  0  0  0
   -5.1809   20.2264  -32.3063 H   0  0  0  0  0  0  0  0  0  0  0  0
   -3.0778   23.3341  -27.0906 H   0  0  0  0  0  0  0  0  0  0  0  0
   -1.6533   22.8331  -28.0841 H   0  0  0  0  0  0  0  0  0  0  0  0
   -2.8237   25.6235  -27.7226 H   0  0  0  0  0  0  0  0  0  0  0  0
   -1.1599   25.0318  -27.3405 H   0  0  0  0  0  0  0  0  0  0  0  0
   -1.9850   24.6740  -29.9520 H   0  0  0  0  0  0  0  0  0  0  0  0
  1  2  1  0
  2  3  2  0
  2  4  1  0
  4  5  2  0
  5  6  1  0
  6  7  2  0
  7  8  1  0
  8  9  2  0
  9 10  1  0
 10 11  1  0
  9 12  1  0
 12 13  2  0
 13 14  1  0
 14 15  1  0
 15 16  2  0
 15 17  1  0
 17 18  2  0
 17 19  1  0
 19 20  1  0
 20 21  1  0
 21 22  1  0
 14  4  1  0
 13  6  1  0
  1 23  1  0
  5 24  1  0
  7 25  1  0
  8 26  1  0
 10 27  1  0
 10 28  1  0
 12 29  1  0
 20 30  1  0
 20 31  1  0
 21 32  1  0
 21 33  1  0
 22 34  1  0
M  CHG  2   1  -1  19  -1
M  END
>  <UniqueID>  (69) 
69

>  <SMILES>  (69) 
[NH-]C(=O)c1cc2ccc(CF)cc2n1C(=O)C(=O)[N-]CCO

>  <Energy>  (69) 
68.92157526423998

>  <Genealogy>  (69) 
[NH-]C(=O)c1cc2ccc(CF)cc2n1C(=O)C(=O)[N-]CCO (protonated)
[NH-]C(=O)c1cc2ccc(CF)cc2n1C(=O)C(=O)[N-]CCO (3D coordinates assigned)
[NH-]C(=O)c1cc2ccc(CF)cc2n1C(=O)C(=O)[N-]CCO (optimized conformer: 68.92157526423998 kcal/mol)

>  <smiles>  (69) 
NC(=O)c1cc2ccc(CF)cc2n1C(=O)C(=O)NCCO

>  <score_type>  (69) 
oracle

>  <origin>  (69) 
adg

>  <m_score__min__energy>  (69) 
-10.609999999999999

>  <m_primary>  (69) 
energy

$$$$
69:0
     RDKit          3D

 37 38  0  0  0  0  0  0  0  0999 V2000
   -6.1150   25.7120  -29.0170 N   0  0  0  0  0  0  0  0  0  0  0  0
   -5.4120   25.1120  -30.1070 C   0  0  0  0  0  0  0  0  0  0  0  0
   -4.3370   25.6330  -30.5090 O   0  0  0  0  0  0  0  0  0  0  0  0
   -5.8880   23.8610  -30.7270 C   0  0  0  0  0  0  0  0  0  0  0  0
   -7.2350   23.5530  -30.8970 C   0  0  0  0  0  0  0  0  0  0  0  0
   -7.2500   22.3520  -31.5660 C   0  0  0  0  0  0  0  0  0  0  0  0
   -8.3260   21.5700  -31.9740 C   0  0  0  0  0  0  0  0  0  0  0  0
   -8.0510   20.3490  -32.6100 C   0  0  0  0  0  0  0  0  0  0  0  0
   -6.7130   19.9330  -32.8350 C   0  0  0  0  0  0  0  0  0  0  0  0
   -6.4310   18.5910  -33.4600 C   0  0  0  0  0  0  0  0  0  0  0  0
   -5.3450   17.9860  -32.8500 F   0  0  0  0  0  0  0  0  0  0  0  0
   -6.1480   18.7290  -34.8090 F   0  0  0  0  0  0  0  0  0  0  0  0
   -7.5400   17.7780  -33.3140 F   0  0  0  0  0  0  0  0  0  0  0  0
   -5.6470   20.7430  -32.3810 C   0  0  0  0  0  0  0  0  0  0  0  0
   -5.9500   21.9670  -31.7710 C   0  0  0  0  0  0  0  0  0  0  0  0
   -5.1000   22.8820  -31.2550 N   0  0  0  0  0  0  0  0  0  0  0  0
   -3.6690   22.7810  -31.1860 C   0  0  0  0  0  0  0  0  0  0  0  0
   -3.0290   22.2700  -32.1470 O   0  0  0  0  0  0  0  0  0  0  0  0
   -2.9910   23.2590  -30.0600 O   0  0  0  0  0  0  0  0  0  0  0  0
   -3.1270   22.7020  -28.7530 C   0  0  0  0  0  0  0  0  0  0  0  0
   -3.0200   23.7820  -27.6590 C   0  0  2  0  0  0  0  0  0  0  0  0
   -4.2020   24.5360  -27.5990 O   0  0  0  0  0  0  0  0  0  0  0  0
   -1.8370   24.7310  -27.8960 C   0  0  0  0  0  0  0  0  0  0  0  0
   -2.1010   25.6020  -28.9650 O   0  0  0  0  0  0  0  0  0  0  0  0
   -6.9030   25.2140  -28.5460 H   0  0  0  0  0  0  0  0  0  0  0  0
   -5.7890   26.6200  -28.6190 H   0  0  0  0  0  0  0  0  0  0  0  0
   -8.1019   24.1441  -30.5667 H   0  0  0  0  0  0  0  0  0  0  0  0
   -9.3617   21.8988  -31.8033 H   0  0  0  0  0  0  0  0  0  0  0  0
   -8.8822   19.7074  -32.9377 H   0  0  0  0  0  0  0  0  0  0  0  0
   -4.6029   20.4193  -32.5040 H   0  0  0  0  0  0  0  0  0  0  0  0
   -4.1085   22.2115  -28.6749 H   0  0  0  0  0  0  0  0  0  0  0  0
   -2.3118   21.9790  -28.6019 H   0  0  0  0  0  0  0  0  0  0  0  0
   -2.8566   23.2552  -26.7072 H   0  0  0  0  0  0  0  0  0  0  0  0
   -4.1450   25.2200  -28.3160 H   0  0  0  0  0  0  0  0  0  0  0  0
   -1.6608   25.3217  -26.9850 H   0  0  0  0  0  0  0  0  0  0  0  0
   -0.9485   24.1311  -28.1421 H   0  0  0  0  0  0  0  0  0  0  0  0
   -3.0020   25.3680  -29.3100 H   0  0  0  0  0  0  0  0  0  0  0  0
  1  2  1  0
  2  3  2  0
  2  4  1  0
  4  5  2  0
  5  6  1  0
  6  7  2  0
  7  8  1  0
  8  9  2  0
  9 10  1  0
 10 11  1  0
 10 12  1  0
 10 13  1  0
  9 14  1  0
 14 15  2  0
 15 16  1  0
 16 17  1  0
 17 18  2  0
 17 19  1  0
 19 20  1  0
 20 21  1  0
 21 22  1  0
 21 23  1  0
 23 24  1  0
 16  4  1  0
 15  6  1  0
  1 25  1  0
  1 26  1  0
  5 27  1  0
  7 28  1  0
  8 29  1  0
 14 30  1  0
 20 31  1  0
 20 32  1  0
 21 33  1  1
 22 34  1  0
 23 35  1  0
 23 36  1  0
 24 37  1  0
M  END
>  <UniqueID>  (70) 
70

>  <SMILES>  (70) 
NC(=O)c1cc2ccc(C(F)(F)F)cc2n1C(=O)OC[C@H](O)CO

>  <Energy>  (70) 
72.97245672833628

>  <Genealogy>  (70) 
NC(=O)c1cc2ccc(C(F)(F)F)cc2n1C(=O)OC[C@H](O)CO (chirality)
NC(=O)c1cc2ccc(C(F)(F)F)cc2n1C(=O)OC[C@H](O)CO (3D coordinates assigned)
NC(=O)c1cc2ccc(C(F)(F)F)cc2n1C(=O)OC[C@H](O)CO (optimized conformer: 72.97245672833628 kcal/mol)

>  <smiles>  (70) 
NC(=O)c1cc2ccc(C(F)(F)F)cc2n1C(=O)OCC(O)CO

>  <score_type>  (70) 
oracle

>  <origin>  (70) 
adg

>  <m_score__min__energy>  (70) 
-8.3200000000000003

>  <m_primary>  (70) 
energy

$$$$
70:0
     RDKit          3D

 30 31  0  0  0  0  0  0  0  0999 V2000
   -1.6150   20.5070  -30.9080 C   0  0  0  0  0  0  0  0  0  0  0  0
   -1.8380   21.2950  -32.0710 O   0  0  0  0  0  0  0  0  0  0  0  0
   -3.0490   21.9480  -32.3150 C   0  0  0  0  0  0  0  0  0  0  0  0
   -3.5780   21.9090  -33.4600 O   0  0  0  0  0  0  0  0  0  0  0  0
   -3.7150   22.6720  -31.2230 C   0  0  0  0  0  0  0  0  0  0  0  0
   -3.0280   23.1230  -30.2690 O   0  0  0  0  0  0  0  0  0  0  0  0
   -5.1380   22.8670  -31.2290 N   0  0  0  0  0  0  0  0  0  0  0  0
   -5.8210   24.0100  -30.9410 C   0  0  0  0  0  0  0  0  0  0  0  0
   -5.2230   25.2740  -30.4600 C   0  0  0  0  0  0  0  0  0  0  0  0
   -3.8940   25.6230  -30.8440 N   0  0  0  0  0  0  0  0  0  0  0  0
   -5.8790   26.0590  -29.7260 O   0  0  0  0  0  0  0  0  0  0  0  0
   -7.1900   23.8150  -31.1130 C   0  0  0  0  0  0  0  0  0  0  0  0
   -7.3240   22.5090  -31.5250 C   0  0  0  0  0  0  0  0  0  0  0  0
   -8.4660   21.7830  -31.8480 C   0  0  0  0  0  0  0  0  0  0  0  0
   -8.3040   20.4510  -32.2660 C   0  0  0  0  0  0  0  0  0  0  0  0
   -7.0110   19.8780  -32.3800 C   0  0  0  0  0  0  0  0  0  0  0  0
   -6.8530   18.4370  -32.7920 C   0  0  0  0  0  0  0  0  0  0  0  0
   -6.4660   18.3470  -34.1180 F   0  0  0  0  0  0  0  0  0  0  0  0
   -8.0590   17.7820  -32.6290 F   0  0  0  0  0  0  0  0  0  0  0  0
   -5.8910   17.8100  -32.0180 F   0  0  0  0  0  0  0  0  0  0  0  0
   -5.8770   20.6440  -32.0210 C   0  0  0  0  0  0  0  0  0  0  0  0
   -6.0710   21.9600  -31.5910 C   0  0  0  0  0  0  0  0  0  0  0  0
   -1.7884   21.1198  -30.0111 H   0  0  0  0  0  0  0  0  0  0  0  0
   -2.3063   19.6513  -30.9068 H   0  0  0  0  0  0  0  0  0  0  0  0
   -0.5779   20.1405  -30.9068 H   0  0  0  0  0  0  0  0  0  0  0  0
   -3.0720   25.2860  -30.2970 H   0  0  0  0  0  0  0  0  0  0  0  0
   -7.9932   24.5494  -30.9533 H   0  0  0  0  0  0  0  0  0  0  0  0
   -9.4652   22.2376  -31.7783 H   0  0  0  0  0  0  0  0  0  0  0  0
   -9.1900   19.8456  -32.5076 H   0  0  0  0  0  0  0  0  0  0  0  0
   -4.8661   20.2141  -32.0789 H   0  0  0  0  0  0  0  0  0  0  0  0
  1  2  1  0
  2  3  1  0
  3  4  2  0
  3  5  1  0
  5  6  2  0
  5  7  1  0
  7  8  1  0
  8  9  1  0
  9 10  1  0
  9 11  2  0
  8 12  2  0
 12 13  1  0
 13 14  2  0
 14 15  1  0
 15 16  2  0
 16 17  1  0
 17 18  1  0
 17 19  1  0
 17 20  1  0
 16 21  1  0
 21 22  2  0
 22  7  1  0
 22 13  1  0
  1 23  1  0
  1 24  1  0
  1 25  1  0
 10 26  1  0
 12 27  1  0
 14 28  1  0
 15 29  1  0
 21 30  1  0
M  CHG  1  10  -1
M  END
>  <UniqueID>  (71) 
71

>  <SMILES>  (71) 
COC(=O)C(=O)n1c(C([NH-])=O)cc2ccc(C(F)(F)F)cc21

>  <Energy>  (71) 
67.64314848391017

>  <Genealogy>  (71) 
COC(=O)C(=O)n1c(C([NH-])=O)cc2ccc(C(F)(F)F)cc21 (protonated)
COC(=O)C(=O)n1c(C([NH-])=O)cc2ccc(C(F)(F)F)cc21 (3D coordinates assigned)
COC(=O)C(=O)n1c(C([NH-])=O)cc2ccc(C(F)(F)F)cc21 (optimized conformer: 67.64314848391017 kcal/mol)

>  <smiles>  (71) 
COC(=O)C(=O)n1c(C(N)=O)cc2ccc(C(F)(F)F)cc21

>  <score_type>  (71) 
oracle

>  <origin>  (71) 
adg

>  <m_score__min__energy>  (71) 
-9.1500000000000004

>  <m_primary>  (71) 
energy

$$$$
71:0
     RDKit          3D

 36 37  0  0  0  0  0  0  0  0999 V2000
   -3.8380   25.3070  -30.8080 N   0  0  0  0  0  0  0  0  0  0  0  0
   -5.2270   25.2010  -30.5090 C   0  0  0  0  0  0  0  0  0  0  0  0
   -5.7900   26.1210  -29.8570 O   0  0  0  0  0  0  0  0  0  0  0  0
   -6.0000   24.0040  -30.9020 C   0  0  0  0  0  0  0  0  0  0  0  0
   -7.3210   24.0550  -31.3410 C   0  0  0  0  0  0  0  0  0  0  0  0
   -7.6960   22.7430  -31.5210 C   0  0  0  0  0  0  0  0  0  0  0  0
   -8.8980   22.2100  -31.9720 C   0  0  0  0  0  0  0  0  0  0  0  0
   -8.9940   20.8140  -32.1020 C   0  0  0  0  0  0  0  0  0  0  0  0
   -7.8960   19.9780  -31.7720 C   0  0  0  0  0  0  0  0  0  0  0  0
   -7.9900   18.4860  -31.9760 C   0  0  0  0  0  0  0  0  0  0  0  0
   -9.2870   18.0470  -31.7740 F   0  0  0  0  0  0  0  0  0  0  0  0
   -7.6140   18.1450  -33.2640 F   0  0  0  0  0  0  0  0  0  0  0  0
   -7.1530   17.8500  -31.0790 F   0  0  0  0  0  0  0  0  0  0  0  0
   -6.6820   20.5600  -31.3410 C   0  0  0  0  0  0  0  0  0  0  0  0
   -6.6220   21.9520  -31.2010 C   0  0  0  0  0  0  0  0  0  0  0  0
   -5.5710   22.7120  -30.8230 N   0  0  0  0  0  0  0  0  0  0  0  0
   -4.2510   22.2440  -30.5110 C   0  0  0  0  0  0  0  0  0  0  0  0
   -3.7560   21.2820  -31.1580 O   0  0  0  0  0  0  0  0  0  0  0  0
   -3.5130   22.8710  -29.5000 O   0  0  0  0  0  0  0  0  0  0  0  0
   -3.4710   22.4060  -28.1520 C   0  0  0  0  0  0  0  0  0  0  0  0
   -2.1240   22.7310  -27.5120 C   0  0  0  0  0  0  0  0  0  0  0  0
   -2.0240   24.1240  -27.3390 O   0  0  0  0  0  0  0  0  0  0  0  0
   -1.0860   24.7600  -28.6150 P   0  0  2  0  0  0  0  0  0  0  0  0
    0.3780   24.7550  -28.2330 O   0  0  0  0  0  0  0  0  0  0  0  0
   -1.5720   26.3420  -28.9690 O   0  0  0  0  0  0  0  0  0  0  0  0
   -1.3050   23.7940  -29.9860 O   0  0  0  0  0  0  0  0  0  0  0  0
   -3.1150   25.0580  -30.0970 H   0  0  0  0  0  0  0  0  0  0  0  0
   -7.9341   24.9529  -31.5082 H   0  0  0  0  0  0  0  0  0  0  0  0
   -9.7489   22.8616  -32.2198 H   0  0  0  0  0  0  0  0  0  0  0  0
   -9.9306   20.3645  -32.4635 H   0  0  0  0  0  0  0  0  0  0  0  0
   -5.8048   19.9339  -31.1207 H   0  0  0  0  0  0  0  0  0  0  0  0
   -4.2715   22.8938  -27.5765 H   0  0  0  0  0  0  0  0  0  0  0  0
   -3.6102   21.3148  -28.1493 H   0  0  0  0  0  0  0  0  0  0  0  0
   -2.0498   22.2316  -26.5347 H   0  0  0  0  0  0  0  0  0  0  0  0
   -1.3090   22.3773  -28.1606 H   0  0  0  0  0  0  0  0  0  0  0  0
   -2.2390   23.9660  -30.2700 H   0  0  0  0  0  0  0  0  0  0  0  0
  1  2  1  0
  2  3  2  0
  2  4  1  0
  4  5  2  0
  5  6  1  0
  6  7  2  0
  7  8  1  0
  8  9  2  0
  9 10  1  0
 10 11  1  0
 10 12  1  0
 10 13  1  0
  9 14  1  0
 14 15  2  0
 15 16  1  0
 16 17  1  0
 17 18  2  0
 17 19  1  0
 19 20  1  0
 20 21  1  0
 21 22  1  0
 22 23  1  0
 23 24  2  0
 23 25  1  6
 23 26  1  0
 16  4  1  0
 15  6  1  0
  1 27  1  0
  5 28  1  0
  7 29  1  0
  8 30  1  0
 14 31  1  0
 20 32  1  0
 20 33  1  0
 21 34  1  0
 21 35  1  0
 26 36  1  0
M  CHG  2   1  -1  25  -1
M  END
>  <UniqueID>  (72) 
72

>  <SMILES>  (72) 
[NH-]C(=O)c1cc2ccc(C(F)(F)F)cc2n1C(=O)OCCO[P@](=O)([O-])O

>  <Energy>  (72) 
70.31129254966146

>  <Genealogy>  (72) 
[NH-]C(=O)c1cc2ccc(C(F)(F)F)cc2n1C(=O)OCCOP(=O)([O-])O (protonated)
[NH-]C(=O)c1cc2ccc(C(F)(F)F)cc2n1C(=O)OCCO[P@](=O)([O-])O (chirality)
[NH-]C(=O)c1cc2ccc(C(F)(F)F)cc2n1C(=O)OCCO[P@](=O)([O-])O (3D coordinates assigned)
[NH-]C(=O)c1cc2ccc(C(F)(F)F)cc2n1C(=O)OCCO[P@](=O)([O-])O (optimized conformer: 70.31129254966146 kcal/mol)

>  <smiles>  (72) 
NC(=O)c1cc2ccc(C(F)(F)F)cc2n1C(=O)OCCOP(=O)(O)O

>  <score_type>  (72) 
oracle

>  <origin>  (72) 
adg

>  <m_score__min__energy>  (72) 
-11.949999999999999

>  <m_primary>  (72) 
energy

$$$$
72:0
     RDKit          3D

 47 48  0  0  0  0  0  0  0  0999 V2000
   -0.1160   23.4520  -28.9590 C   0  0  0  0  0  0  0  0  0  0  0  0
   -0.5040   24.8290  -28.5910 N   0  0  0  0  0  0  0  0  0  0  0  0
    0.2730   25.3230  -27.4390 C   0  0  0  0  0  0  0  0  0  0  0  0
   -1.9690   25.0130  -28.4410 C   0  0  0  0  0  0  0  0  0  0  0  0
   -2.5990   24.3120  -27.2160 C   0  0  0  0  0  0  0  0  0  0  0  0
   -2.8490   22.9350  -27.4890 O   0  0  0  0  0  0  0  0  0  0  0  0
   -3.7400   22.4770  -28.4730 C   0  0  0  0  0  0  0  0  0  0  0  0
   -4.9820   22.6710  -28.3540 O   0  0  0  0  0  0  0  0  0  0  0  0
   -3.2250   21.8310  -29.6440 N   0  0  0  0  0  0  0  0  0  0  0  0
   -2.2730   20.7270  -29.5130 C   0  0  0  0  0  0  0  0  0  0  0  0
   -3.6460   22.2640  -30.9490 C   0  0  0  0  0  0  0  0  0  0  0  0
   -2.7970   22.4230  -31.8680 O   0  0  0  0  0  0  0  0  0  0  0  0
   -5.0340   22.4890  -31.2260 N   0  0  0  0  0  0  0  0  0  0  0  0
   -5.7870   23.5840  -30.9220 C   0  0  0  0  0  0  0  0  0  0  0  0
   -5.2980   24.8230  -30.2760 C   0  0  0  0  0  0  0  0  0  0  0  0
   -5.7070   25.1980  -28.9570 N   0  0  0  0  0  0  0  0  0  0  0  0
   -4.4680   25.5490  -30.8870 O   0  0  0  0  0  0  0  0  0  0  0  0
   -7.1190   23.3670  -31.2790 C   0  0  0  0  0  0  0  0  0  0  0  0
   -7.1560   22.0920  -31.8070 C   0  0  0  0  0  0  0  0  0  0  0  0
   -8.2280   21.3480  -32.2980 C   0  0  0  0  0  0  0  0  0  0  0  0
   -7.9800   20.0240  -32.7090 C   0  0  0  0  0  0  0  0  0  0  0  0
   -6.6800   19.4630  -32.6070 C   0  0  0  0  0  0  0  0  0  0  0  0
   -6.4430   18.0410  -33.0530 C   0  0  0  0  0  0  0  0  0  0  0  0
   -7.5880   17.2840  -32.8490 F   0  0  0  0  0  0  0  0  0  0  0  0
   -5.4060   17.4620  -32.3410 F   0  0  0  0  0  0  0  0  0  0  0  0
   -6.1250   18.0250  -34.4020 F   0  0  0  0  0  0  0  0  0  0  0  0
   -5.6080   20.2690  -32.1460 C   0  0  0  0  0  0  0  0  0  0  0  0
   -5.8850   21.5850  -31.7540 C   0  0  0  0  0  0  0  0  0  0  0  0
    0.0504   22.8615  -28.0459 H   0  0  0  0  0  0  0  0  0  0  0  0
   -0.9192   22.9910  -29.5525 H   0  0  0  0  0  0  0  0  0  0  0  0
    0.8098   23.4781  -29.5525 H   0  0  0  0  0  0  0  0  0  0  0  0
   -0.2175   25.0112  -26.5051 H   0  0  0  0  0  0  0  0  0  0  0  0
    1.2899   24.9052  -27.4763 H   0  0  0  0  0  0  0  0  0  0  0  0
    0.3261   26.4211  -27.4763 H   0  0  0  0  0  0  0  0  0  0  0  0
   -2.1695   26.0913  -28.3563 H   0  0  0  0  0  0  0  0  0  0  0  0
   -2.4269   24.5488  -29.3269 H   0  0  0  0  0  0  0  0  0  0  0  0
   -1.9095   24.3903  -26.3625 H   0  0  0  0  0  0  0  0  0  0  0  0
   -3.5556   24.8031  -26.9843 H   0  0  0  0  0  0  0  0  0  0  0  0
   -2.0951   20.5207  -28.4473 H   0  0  0  0  0  0  0  0  0  0  0  0
   -2.6844   19.8288  -29.9966 H   0  0  0  0  0  0  0  0  0  0  0  0
   -1.3240   21.0018  -29.9966 H   0  0  0  0  0  0  0  0  0  0  0  0
   -6.1610   24.5130  -28.3150 H   0  0  0  0  0  0  0  0  0  0  0  0
   -5.3780   26.1050  -28.5500 H   0  0  0  0  0  0  0  0  0  0  0  0
   -7.9615   24.0648  -31.1639 H   0  0  0  0  0  0  0  0  0  0  0  0
   -9.2368   21.7819  -32.3624 H   0  0  0  0  0  0  0  0  0  0  0  0
   -8.8035   19.4174  -33.1139 H   0  0  0  0  0  0  0  0  0  0  0  0
   -4.5839   19.8704  -32.0974 H   0  0  0  0  0  0  0  0  0  0  0  0
  1  2  1  0
  2  3  1  0
  2  4  1  0
  4  5  1  0
  5  6  1  0
  6  7  1  0
  7  8  2  0
  7  9  1  0
  9 10  1  0
  9 11  1  0
 11 12  2  0
 11 13  1  0
 13 14  1  0
 14 15  1  0
 15 16  1  0
 15 17  2  0
 14 18  2  0
 18 19  1  0
 19 20  2  0
 20 21  1  0
 21 22  2  0
 22 23  1  0
 23 24  1  0
 23 25  1  0
 23 26  1  0
 22 27  1  0
 27 28  2  0
 28 13  1  0
 28 19  1  0
  1 29  1  0
  1 30  1  0
  1 31  1  0
  3 32  1  0
  3 33  1  0
  3 34  1  0
  4 35  1  0
  4 36  1  0
  5 37  1  0
  5 38  1  0
 10 39  1  0
 10 40  1  0
 10 41  1  0
 16 42  1  0
 16 43  1  0
 18 44  1  0
 20 45  1  0
 21 46  1  0
 27 47  1  0
M  END
>  <UniqueID>  (73) 
73

>  <SMILES>  (73) 
CN(C)CCOC(=O)N(C)C(=O)n1c(C(N)=O)cc2ccc(C(F)(F)F)cc21

>  <Energy>  (73) 
93.70024153116042

>  <Genealogy>  (73) 
CN(C)CCOC(=O)N(C)C(=O)n1c(C(N)=O)cc2ccc(C(F)(F)F)cc21 (3D coordinates assigned)
CN(C)CCOC(=O)N(C)C(=O)n1c(C(N)=O)cc2ccc(C(F)(F)F)cc21 (optimized conformer: 93.70024153116042 kcal/mol)

>  <smiles>  (73) 
CN(C)CCOC(=O)N(C)C(=O)n1c(C(N)=O)cc2ccc(C(F)(F)F)cc21

>  <score_type>  (73) 
oracle

>  <origin>  (73) 
adg

>  <m_score__min__energy>  (73) 
-8.7599999999999998

>  <m_primary>  (73) 
energy

$$$$
73:0
     RDKit          3D

 36 37  0  0  0  0  0  0  0  0999 V2000
   -5.1130   15.3190  -33.1000 N   0  0  0  0  0  0  0  0  0  0  0  0
   -6.3420   15.4590  -33.8740 C   0  0  0  0  0  0  0  0  0  0  0  0
   -6.8880   16.8840  -33.7430 C   0  0  0  0  0  0  0  0  0  0  0  0
   -5.9030   17.7680  -33.1180 N   0  0  0  0  0  0  0  0  0  0  0  0
   -6.2060   19.1100  -32.6920 C   0  0  0  0  0  0  0  0  0  0  0  0
   -7.4990   19.6740  -32.8670 C   0  0  0  0  0  0  0  0  0  0  0  0
   -7.7710   20.9890  -32.4560 C   0  0  0  0  0  0  0  0  0  0  0  0
   -6.7420   21.7160  -31.8680 C   0  0  0  0  0  0  0  0  0  0  0  0
   -6.7240   23.0130  -31.4130 C   0  0  0  0  0  0  0  0  0  0  0  0
   -5.4320   23.2190  -30.9380 C   0  0  0  0  0  0  0  0  0  0  0  0
   -4.9960   24.4710  -30.2900 C   0  0  0  0  0  0  0  0  0  0  0  0
   -5.4030   24.7970  -28.9600 N   0  0  0  0  0  0  0  0  0  0  0  0
   -4.2960   25.2930  -30.9390 O   0  0  0  0  0  0  0  0  0  0  0  0
   -4.6720   22.0980  -31.1080 N   0  0  0  0  0  0  0  0  0  0  0  0
   -3.2640   21.9410  -30.8630 C   0  0  0  0  0  0  0  0  0  0  0  0
   -2.6660   20.9020  -31.2490 O   0  0  0  0  0  0  0  0  0  0  0  0
   -2.5120   22.9750  -30.2020 C   0  0  0  0  0  0  0  0  0  0  0  0
   -1.8870   23.8420  -29.6460 C   0  0  0  0  0  0  0  0  0  0  0  0
   -1.1400   24.8720  -28.9820 C   0  0  0  0  0  0  0  0  0  0  0  0
   -1.5830   26.0480  -28.9500 O   0  0  0  0  0  0  0  0  0  0  0  0
    0.0700   24.5690  -28.3740 O   0  0  0  0  0  0  0  0  0  0  0  0
   -5.4930   21.1860  -31.6750 C   0  0  0  0  0  0  0  0  0  0  0  0
   -5.1880   19.8850  -32.0910 C   0  0  0  0  0  0  0  0  0  0  0  0
   -5.2690   15.7430  -32.1570 H   0  0  0  0  0  0  0  0  0  0  0  0
   -4.3770   15.8980  -33.5670 H   0  0  0  0  0  0  0  0  0  0  0  0
   -6.1314   15.2461  -34.9325 H   0  0  0  0  0  0  0  0  0  0  0  0
   -7.0910   14.7502  -33.4910 H   0  0  0  0  0  0  0  0  0  0  0  0
   -7.1327   17.2689  -34.7440 H   0  0  0  0  0  0  0  0  0  0  0  0
   -7.7870   16.8579  -33.1097 H   0  0  0  0  0  0  0  0  0  0  0  0
   -4.9300   17.4120  -32.9690 H   0  0  0  0  0  0  0  0  0  0  0  0
   -8.2959   19.0734  -33.3298 H   0  0  0  0  0  0  0  0  0  0  0  0
   -8.7687   21.4308  -32.5952 H   0  0  0  0  0  0  0  0  0  0  0  0
   -7.5541   23.7346  -31.4223 H   0  0  0  0  0  0  0  0  0  0  0  0
   -5.0510   25.6660  -28.5020 H   0  0  0  0  0  0  0  0  0  0  0  0
   -6.1100   24.2180  -28.4560 H   0  0  0  0  0  0  0  0  0  0  0  0
   -4.1770   19.4740  -31.9531 H   0  0  0  0  0  0  0  0  0  0  0  0
  1  2  1  0
  2  3  1  0
  3  4  1  0
  4  5  1  0
  5  6  2  0
  6  7  1  0
  7  8  2  0
  8  9  1  0
  9 10  2  0
 10 11  1  0
 11 12  1  0
 11 13  2  0
 10 14  1  0
 14 15  1  0
 15 16  2  0
 15 17  1  0
 17 18  3  0
 18 19  1  0
 19 20  2  0
 19 21  1  0
 14 22  1  0
 22 23  2  0
 23  5  1  0
 22  8  1  0
  1 24  1  0
  1 25  1  0
  2 26  1  0
  2 27  1  0
  3 28  1  0
  3 29  1  0
  4 30  1  0
  6 31  1  0
  7 32  1  0
  9 33  1  0
 12 34  1  0
 12 35  1  0
 23 36  1  0
M  CHG  1  21  -1
M  END
>  <UniqueID>  (74) 
74

>  <SMILES>  (74) 
NCCNc1ccc2cc(C(N)=O)n(C(=O)C#CC(=O)[O-])c2c1

>  <Energy>  (74) 
67.84975390937726

>  <Genealogy>  (74) 
NCCNc1ccc2cc(C(N)=O)n(C(=O)C#CC(=O)[O-])c2c1 (protonated)
NCCNc1ccc2cc(C(N)=O)n(C(=O)C#CC(=O)[O-])c2c1 (3D coordinates assigned)
NCCNc1ccc2cc(C(N)=O)n(C(=O)C#CC(=O)[O-])c2c1 (optimized conformer: 67.84975390937726 kcal/mol)

>  <smiles>  (74) 
NCCNc1ccc2cc(C(N)=O)n(C(=O)C#CC(=O)O)c2c1

>  <score_type>  (74) 
oracle

>  <origin>  (74) 
adg

>  <m_score__min__energy>  (74) 
-11.01

>  <m_primary>  (74) 
energy

$$$$
74:0
     RDKit          3D

 58 60  0  0  0  0  0  0  0  0999 V2000
   -4.6120   13.7020  -31.1780 C   0  0  0  0  0  0  0  0  0  0  0  0
   -4.8650   14.5830  -32.2660 O   0  0  0  0  0  0  0  0  0  0  0  0
   -5.2920   15.9030  -32.0860 C   0  0  0  0  0  0  0  0  0  0  0  0
   -5.7020   16.2840  -30.9580 O   0  0  0  0  0  0  0  0  0  0  0  0
   -5.2710   16.8170  -33.2480 C   0  0  0  0  0  0  0  0  0  0  0  0
   -4.1700   16.9340  -34.0220 N   0  0  0  0  0  0  0  0  0  0  0  0
   -4.5090   17.8350  -34.9630 C   0  0  0  0  0  0  0  0  0  0  0  0
   -5.8000   18.2550  -34.7530 C   0  0  0  0  0  0  0  0  0  0  0  0
   -6.2880   17.6100  -33.6770 N   0  0  0  0  0  0  0  0  0  0  0  0
   -7.6050   17.8710  -33.0890 C   0  0  0  0  0  0  0  0  0  0  0  0
   -7.5980   19.1920  -32.3670 C   0  0  0  0  0  0  0  0  0  0  0  0
   -8.7870   19.6880  -31.7750 C   0  0  0  0  0  0  0  0  0  0  0  0
   -8.7990   20.9340  -31.1270 C   0  0  0  0  0  0  0  0  0  0  0  0
   -7.6120   21.6580  -31.0830 C   0  0  0  0  0  0  0  0  0  0  0  0
   -7.3510   22.9010  -30.5500 C   0  0  0  0  0  0  0  0  0  0  0  0
   -6.0030   23.1360  -30.8110 C   0  0  0  0  0  0  0  0  0  0  0  0
   -5.2880   24.3510  -30.3720 C   0  0  0  0  0  0  0  0  0  0  0  0
   -5.4040   24.8400  -29.0340 N   0  0  0  0  0  0  0  0  0  0  0  0
   -4.6000   24.9990  -31.2060 O   0  0  0  0  0  0  0  0  0  0  0  0
   -5.4530   22.0870  -31.4830 N   0  0  0  0  0  0  0  0  0  0  0  0
   -4.1270   22.0030  -32.0360 C   0  0  0  0  0  0  0  0  0  0  0  0
   -3.9300   22.3720  -33.2270 O   0  0  0  0  0  0  0  0  0  0  0  0
   -3.0300   21.4880  -31.2570 N   0  0  0  0  0  0  0  0  0  0  0  0
   -2.4490   20.1890  -31.6020 C   0  0  0  0  0  0  0  0  0  0  0  0
   -2.4100   22.2930  -30.2370 C   0  0  0  0  0  0  0  0  0  0  0  0
   -2.3600   23.5470  -30.3690 O   0  0  0  0  0  0  0  0  0  0  0  0
   -1.8780   21.6730  -29.0960 O   0  0  0  0  0  0  0  0  0  0  0  0
   -2.4990   21.5960  -27.8050 C   0  0  0  0  0  0  0  0  0  0  0  0
   -1.5750   22.1840  -26.7210 C   0  0  0  0  0  0  0  0  0  0  0  0
   -2.7360   20.1080  -27.5040 C   0  0  0  0  0  0  0  0  0  0  0  0
   -3.8580   22.3240  -27.8150 C   0  0  0  0  0  0  0  0  0  0  0  0
   -6.4530   21.1920  -31.6450 C   0  0  0  0  0  0  0  0  0  0  0  0
   -6.4180   19.9660  -32.3200 C   0  0  0  0  0  0  0  0  0  0  0  0
   -4.7657   14.2373  -30.2294 H   0  0  0  0  0  0  0  0  0  0  0  0
   -5.3006   12.8459  -31.2317 H   0  0  0  0  0  0  0  0  0  0  0  0
   -3.5741   13.3417  -31.2317 H   0  0  0  0  0  0  0  0  0  0  0  0
   -3.8531   18.1816  -35.7752 H   0  0  0  0  0  0  0  0  0  0  0  0
   -6.3430   18.9934  -35.3612 H   0  0  0  0  0  0  0  0  0  0  0  0
   -8.3610   17.8971  -33.8876 H   0  0  0  0  0  0  0  0  0  0  0  0
   -7.8438   17.0711  -32.3727 H   0  0  0  0  0  0  0  0  0  0  0  0
   -9.7095   19.0908  -31.8237 H   0  0  0  0  0  0  0  0  0  0  0  0
   -9.7190   21.3254  -30.6683 H   0  0  0  0  0  0  0  0  0  0  0  0
   -8.0561   23.5658  -30.0296 H   0  0  0  0  0  0  0  0  0  0  0  0
   -6.1050   24.4400  -28.3720 H   0  0  0  0  0  0  0  0  0  0  0  0
   -4.8530   25.6730  -28.7320 H   0  0  0  0  0  0  0  0  0  0  0  0
   -2.2037   19.6407  -30.6805 H   0  0  0  0  0  0  0  0  0  0  0  0
   -3.1733   19.6085  -32.1923 H   0  0  0  0  0  0  0  0  0  0  0  0
   -1.5335   20.3419  -32.1923 H   0  0  0  0  0  0  0  0  0  0  0  0
   -1.9706   21.9322  -25.7260 H   0  0  0  0  0  0  0  0  0  0  0  0
   -0.5652   21.7620  -26.8316 H   0  0  0  0  0  0  0  0  0  0  0  0
   -1.5296   23.2775  -26.8316 H   0  0  0  0  0  0  0  0  0  0  0  0
   -2.7606   19.9536  -26.4152 H   0  0  0  0  0  0  0  0  0  0  0  0
   -3.6955   19.7939  -27.9407 H   0  0  0  0  0  0  0  0  0  0  0  0
   -1.9216   19.5113  -27.9407 H   0  0  0  0  0  0  0  0  0  0  0  0
   -4.1871   22.5003  -26.7803 H   0  0  0  0  0  0  0  0  0  0  0  0
   -3.7541   23.2873  -28.3359 H   0  0  0  0  0  0  0  0  0  0  0  0
   -4.6023   21.7038  -28.3359 H   0  0  0  0  0  0  0  0  0  0  0  0
   -5.4939   19.6143  -32.8019 H   0  0  0  0  0  0  0  0  0  0  0  0
  1  2  1  0
  2  3  1  0
  3  4  2  0
  3  5  1  0
  5  6  2  0
  6  7  1  0
  7  8  2  0
  8  9  1  0
  9 10  1  0
 10 11  1  0
 11 12  2  0
 12 13  1  0
 13 14  2  0
 14 15  1  0
 15 16  2  0
 16 17  1  0
 17 18  1  0
 17 19  2  0
 16 20  1  0
 20 21  1  0
 21 22  2  0
 21 23  1  0
 23 24  1  0
 23 25  1  0
 25 26  2  0
 25 27  1  0
 27 28  1  0
 28 29  1  0
 28 30  1  0
 28 31  1  0
 20 32  1  0
 32 33  2  0
  9  5  1  0
 33 11  1  0
 32 14  1  0
  1 34  1  0
  1 35  1  0
  1 36  1  0
  7 37  1  0
  8 38  1  0
 10 39  1  0
 10 40  1  0
 12 41  1  0
 13 42  1  0
 15 43  1  0
 18 44  1  0
 18 45  1  0
 24 46  1  0
 24 47  1  0
 24 48  1  0
 29 49  1  0
 29 50  1  0
 29 51  1  0
 30 52  1  0
 30 53  1  0
 30 54  1  0
 31 55  1  0
 31 56  1  0
 31 57  1  0
 33 58  1  0
M  END
>  <UniqueID>  (75) 
75

>  <SMILES>  (75) 
COC(=O)c1nccn1Cc1ccc2cc(C(N)=O)n(C(=O)N(C)C(=O)OC(C)(C)C)c2c1

>  <Energy>  (75) 
120.69293161422615

>  <Genealogy>  (75) 
COC(=O)c1nccn1Cc1ccc2cc(C(N)=O)n(C(=O)N(C)C(=O)OC(C)(C)C)c2c1 (3D coordinates assigned)
COC(=O)c1nccn1Cc1ccc2cc(C(N)=O)n(C(=O)N(C)C(=O)OC(C)(C)C)c2c1 (optimized conformer: 120.69293161422615 kcal/mol)

>  <smiles>  (75) 
COC(=O)c1nccn1Cc1ccc2cc(C(N)=O)n(C(=O)N(C)C(=O)OC(C)(C)C)c2c1

>  <score_type>  (75) 
oracle

>  <origin>  (75) 
adg

>  <m_score__min__energy>  (75) 
-9.7300000000000004

>  <m_primary>  (75) 
energy

$$$$
75:0
     RDKit          3D

 55 57  0  0  0  0  0  0  0  0999 V2000
   -0.2080   26.9530  -26.1290 C   0  0  0  0  0  0  0  0  0  0  0  0
   -0.7470   25.7910  -25.2730 C   0  0  0  0  0  0  0  0  0  0  0  0
   -0.4830   26.1020  -23.7930 C   0  0  0  0  0  0  0  0  0  0  0  0
   -2.2640   25.6190  -25.4830 C   0  0  0  0  0  0  0  0  0  0  0  0
   -0.0530   24.5730  -25.5810 O   0  0  0  0  0  0  0  0  0  0  0  0
   -0.6140   23.2870  -25.6560 C   0  0  0  0  0  0  0  0  0  0  0  0
   -0.4270   22.4570  -24.7250 O   0  0  0  0  0  0  0  0  0  0  0  0
   -1.4060   22.9180  -26.8020 N   0  0  0  0  0  0  0  0  0  0  0  0
   -1.5030   23.8430  -27.9440 C   0  0  0  0  0  0  0  0  0  0  0  0
   -2.8660   23.7170  -28.6300 C   0  0  0  0  0  0  0  0  0  0  0  0
   -3.1650   22.3030  -28.8670 N   0  0  0  0  0  0  0  0  0  0  0  0
   -3.0920   21.7460  -30.1910 C   0  0  0  0  0  0  0  0  0  0  0  0
   -2.3810   20.7270  -30.3990 O   0  0  0  0  0  0  0  0  0  0  0  0
   -3.8480   22.3420  -31.3090 C   0  0  0  0  0  0  0  0  0  0  0  0
   -3.2610   22.6320  -32.3870 O   0  0  0  0  0  0  0  0  0  0  0  0
   -5.2580   22.5810  -31.1920 N   0  0  0  0  0  0  0  0  0  0  0  0
   -5.8900   23.7200  -30.7940 C   0  0  0  0  0  0  0  0  0  0  0  0
   -5.2400   25.0150  -30.5050 C   0  0  0  0  0  0  0  0  0  0  0  0
   -3.8460   25.2040  -30.7360 N   0  0  0  0  0  0  0  0  0  0  0  0
   -5.9290   25.9780  -30.0740 O   0  0  0  0  0  0  0  0  0  0  0  0
   -7.2690   23.5190  -30.7540 C   0  0  0  0  0  0  0  0  0  0  0  0
   -7.4600   22.2150  -31.1540 C   0  0  0  0  0  0  0  0  0  0  0  0
   -8.6330   21.4780  -31.2840 C   0  0  0  0  0  0  0  0  0  0  0  0
   -8.5260   20.1390  -31.6990 C   0  0  0  0  0  0  0  0  0  0  0  0
   -7.2600   19.5650  -31.9860 C   0  0  0  0  0  0  0  0  0  0  0  0
   -7.1590   18.1120  -32.3730 C   0  0  0  0  0  0  0  0  0  0  0  0
   -8.3860   17.4830  -32.2440 F   0  0  0  0  0  0  0  0  0  0  0  0
   -6.7420   18.0190  -33.6870 F   0  0  0  0  0  0  0  0  0  0  0  0
   -6.2500   17.4560  -31.5630 F   0  0  0  0  0  0  0  0  0  0  0  0
   -6.0900   20.3430  -31.8180 C   0  0  0  0  0  0  0  0  0  0  0  0
   -6.2310   21.6740  -31.4150 C   0  0  0  0  0  0  0  0  0  0  0  0
   -3.1550   21.4250  -27.6960 C   0  0  0  0  0  0  0  0  0  0  0  0
   -1.7930   21.5110  -27.0060 C   0  0  0  0  0  0  0  0  0  0  0  0
    0.1628   27.7523  -25.4705 H   0  0  0  0  0  0  0  0  0  0  0  0
    0.6138   26.5903  -26.7639 H   0  0  0  0  0  0  0  0  0  0  0  0
   -1.0157   27.3461  -26.7639 H   0  0  0  0  0  0  0  0  0  0  0  0
   -1.0670   25.4141  -23.1639 H   0  0  0  0  0  0  0  0  0  0  0  0
    0.5883   25.9761  -23.5773 H   0  0  0  0  0  0  0  0  0  0  0  0
   -0.7811   27.1386  -23.5773 H   0  0  0  0  0  0  0  0  0  0  0  0
   -2.7654   25.5622  -24.5055 H   0  0  0  0  0  0  0  0  0  0  0  0
   -2.6559   26.4785  -26.0467 H   0  0  0  0  0  0  0  0  0  0  0  0
   -2.4535   24.6936  -26.0467 H   0  0  0  0  0  0  0  0  0  0  0  0
   -1.3738   24.8746  -27.5847 H   0  0  0  0  0  0  0  0  0  0  0  0
   -0.7171   23.5901  -28.6709 H   0  0  0  0  0  0  0  0  0  0  0  0
   -3.6429   24.1528  -27.9846 H   0  0  0  0  0  0  0  0  0  0  0  0
   -2.8438   24.2528  -29.5904 H   0  0  0  0  0  0  0  0  0  0  0  0
   -3.4930   26.0540  -31.2290 H   0  0  0  0  0  0  0  0  0  0  0  0
   -8.0408   24.2474  -30.4644 H   0  0  0  0  0  0  0  0  0  0  0  0
   -9.6131   21.9287  -31.0689 H   0  0  0  0  0  0  0  0  0  0  0  0
   -9.4351   19.5284  -31.8026 H   0  0  0  0  0  0  0  0  0  0  0  0
   -5.0948   19.9113  -31.9999 H   0  0  0  0  0  0  0  0  0  0  0  0
   -3.9418   21.7400  -26.9948 H   0  0  0  0  0  0  0  0  0  0  0  0
   -3.3404   20.3883  -28.0135 H   0  0  0  0  0  0  0  0  0  0  0  0
   -1.8488   21.0058  -26.0305 H   0  0  0  0  0  0  0  0  0  0  0  0
   -1.0401   21.0236  -27.6428 H   0  0  0  0  0  0  0  0  0  0  0  0
  1  2  1  0
  2  3  1  0
  2  4  1  0
  2  5  1  0
  5  6  1  0
  6  7  2  0
  6  8  1  0
  8  9  1  0
  9 10  1  0
 10 11  1  0
 11 12  1  0
 12 13  2  0
 12 14  1  0
 14 15  2  0
 14 16  1  0
 16 17  1  0
 17 18  1  0
 18 19  1  0
 18 20  2  0
 17 21  2  0
 21 22  1  0
 22 23  2  0
 23 24  1  0
 24 25  2  0
 25 26  1  0
 26 27  1  0
 26 28  1  0
 26 29  1  0
 25 30  1  0
 30 31  2  0
 11 32  1  0
 32 33  1  0
 33  8  1  0
 31 16  1  0
 31 22  1  0
  1 34  1  0
  1 35  1  0
  1 36  1  0
  3 37  1  0
  3 38  1  0
  3 39  1  0
  4 40  1  0
  4 41  1  0
  4 42  1  0
  9 43  1  0
  9 44  1  0
 10 45  1  0
 10 46  1  0
 19 47  1  0
 21 48  1  0
 23 49  1  0
 24 50  1  0
 30 51  1  0
 32 52  1  0
 32 53  1  0
 33 54  1  0
 33 55  1  0
M  CHG  1  19  -1
M  END
>  <UniqueID>  (76) 
76

>  <SMILES>  (76) 
CC(C)(C)OC(=O)N1CCN(C(=O)C(=O)n2c(C([NH-])=O)cc3ccc(C(F)(F)F)cc32)CC1

>  <Energy>  (76) 
94.60987113395137

>  <Genealogy>  (76) 
CC(C)(C)OC(=O)N1CCN(C(=O)C(=O)n2c(C([NH-])=O)cc3ccc(C(F)(F)F)cc32)CC1 (protonated)
CC(C)(C)OC(=O)N1CCN(C(=O)C(=O)n2c(C([NH-])=O)cc3ccc(C(F)(F)F)cc32)CC1 (3D coordinates assigned)
CC(C)(C)OC(=O)N1CCN(C(=O)C(=O)n2c(C([NH-])=O)cc3ccc(C(F)(F)F)cc32)CC1 (nonaromatic ring conformer: 94.60987113395137 kcal/mol)

>  <smiles>  (76) 
CC(C)(C)OC(=O)N1CCN(C(=O)C(=O)n2c(C(N)=O)cc3ccc(C(F)(F)F)cc32)CC1

>  <score_type>  (76) 
oracle

>  <origin>  (76) 
adg

>  <m_score__min__energy>  (76) 
-11.550000000000001

>  <m_primary>  (76) 
energy

$$$$
76:0
     RDKit          3D

 46 47  0  0  0  0  0  0  0  0999 V2000
   -6.7850   17.1980  -32.9690 C   0  0  0  0  0  0  0  0  0  0  0  0
   -6.9620   18.3390  -32.6260 C   0  0  0  0  0  0  0  0  0  0  0  0
   -7.1750   19.7010  -32.2120 C   0  0  0  0  0  0  0  0  0  0  0  0
   -8.4920   20.2030  -32.0950 C   0  0  0  0  0  0  0  0  0  0  0  0
   -8.7140   21.5270  -31.6730 C   0  0  0  0  0  0  0  0  0  0  0  0
   -7.6030   22.3180  -31.3940 C   0  0  0  0  0  0  0  0  0  0  0  0
   -7.5300   23.6110  -30.9300 C   0  0  0  0  0  0  0  0  0  0  0  0
   -6.1680   23.8780  -30.7960 C   0  0  0  0  0  0  0  0  0  0  0  0
   -5.6270   25.1700  -30.3250 C   0  0  0  0  0  0  0  0  0  0  0  0
   -4.2690   25.5350  -30.5630 N   0  0  0  0  0  0  0  0  0  0  0  0
   -6.3890   25.9890  -29.7450 O   0  0  0  0  0  0  0  0  0  0  0  0
   -5.4300   22.7950  -31.1660 N   0  0  0  0  0  0  0  0  0  0  0  0
   -4.0110   22.6220  -31.0370 C   0  0  0  0  0  0  0  0  0  0  0  0
   -3.2290   23.4400  -31.5990 O   0  0  0  0  0  0  0  0  0  0  0  0
   -3.4580   21.4840  -30.2860 C   0  0  0  0  0  0  0  0  0  0  0  0
   -3.3260   20.3650  -30.8480 O   0  0  0  0  0  0  0  0  0  0  0  0
   -3.0320   21.6570  -28.9210 N   0  0  0  0  0  0  0  0  0  0  0  0
   -2.6640   20.4340  -28.1950 C   0  0  0  0  0  0  0  0  0  0  0  0
   -2.7950   23.0120  -28.3530 C   0  0  0  0  0  0  0  0  0  0  0  0
   -2.0670   22.8830  -27.0010 C   0  0  0  0  0  0  0  0  0  0  0  0
   -4.1390   23.7460  -28.1330 C   0  0  0  0  0  0  0  0  0  0  0  0
   -1.9570   23.8580  -29.3060 C   0  0  0  0  0  0  0  0  0  0  0  0
   -1.1500   23.2970  -30.0970 O   0  0  0  0  0  0  0  0  0  0  0  0
   -2.0170   25.2560  -29.2460 O   0  0  0  0  0  0  0  0  0  0  0  0
   -1.2820   26.0140  -28.2930 C   0  0  0  0  0  0  0  0  0  0  0  0
   -6.3210   21.8460  -31.5220 C   0  0  0  0  0  0  0  0  0  0  0  0
   -6.0700   20.5260  -31.9170 C   0  0  0  0  0  0  0  0  0  0  0  0
   -6.6234   16.1560  -33.2822 H   0  0  0  0  0  0  0  0  0  0  0  0
   -9.3477   19.5548  -32.3352 H   0  0  0  0  0  0  0  0  0  0  0  0
   -9.7341   21.9247  -31.5669 H   0  0  0  0  0  0  0  0  0  0  0  0
   -8.3676   24.2897  -30.7113 H   0  0  0  0  0  0  0  0  0  0  0  0
   -3.8860   26.4260  -30.1720 H   0  0  0  0  0  0  0  0  0  0  0  0
   -3.6820   24.9780  -31.2220 H   0  0  0  0  0  0  0  0  0  0  0  0
   -2.7198   20.6195  -27.1122 H   0  0  0  0  0  0  0  0  0  0  0  0
   -3.3584   19.6246  -28.4646 H   0  0  0  0  0  0  0  0  0  0  0  0
   -1.6383   20.1422  -28.4646 H   0  0  0  0  0  0  0  0  0  0  0  0
   -2.7897   23.0111  -26.1817 H   0  0  0  0  0  0  0  0  0  0  0  0
   -1.6025   21.8886  -26.9281 H   0  0  0  0  0  0  0  0  0  0  0  0
   -1.2891   23.6573  -26.9281 H   0  0  0  0  0  0  0  0  0  0  0  0
   -4.3281   23.8493  -27.0543 H   0  0  0  0  0  0  0  0  0  0  0  0
   -4.0918   24.7436  -28.5941 H   0  0  0  0  0  0  0  0  0  0  0  0
   -4.9527   23.1671  -28.5941 H   0  0  0  0  0  0  0  0  0  0  0  0
   -1.5763   25.7105  -27.2775 H   0  0  0  0  0  0  0  0  0  0  0  0
   -0.2059   25.8336  -28.4323 H   0  0  0  0  0  0  0  0  0  0  0  0
   -1.4954   27.0841  -28.4323 H   0  0  0  0  0  0  0  0  0  0  0  0
   -5.0414   20.1441  -31.9948 H   0  0  0  0  0  0  0  0  0  0  0  0
  1  2  3  0
  2  3  1  0
  3  4  2  0
  4  5  1  0
  5  6  2  0
  6  7  1  0
  7  8  2  0
  8  9  1  0
  9 10  1  0
  9 11  2  0
  8 12  1  0
 12 13  1  0
 13 14  2  0
 13 15  1  0
 15 16  2  0
 15 17  1  0
 17 18  1  0
 17 19  1  0
 19 20  1  0
 19 21  1  0
 19 22  1  0
 22 23  2  0
 22 24  1  0
 24 25  1  0
 12 26  1  0
 26 27  2  0
 27  3  1  0
 26  6  1  0
  1 28  1  0
  4 29  1  0
  5 30  1  0
  7 31  1  0
 10 32  1  0
 10 33  1  0
 18 34  1  0
 18 35  1  0
 18 36  1  0
 20 37  1  0
 20 38  1  0
 20 39  1  0
 21 40  1  0
 21 41  1  0
 21 42  1  0
 25 43  1  0
 25 44  1  0
 25 45  1  0
 27 46  1  0
M  END
>  <UniqueID>  (77) 
77

>  <SMILES>  (77) 
C#Cc1ccc2cc(C(N)=O)n(C(=O)C(=O)N(C)C(C)(C)C(=O)OC)c2c1

>  <Energy>  (77) 
87.2487379059999

>  <Genealogy>  (77) 
C#Cc1ccc2cc(C(N)=O)n(C(=O)C(=O)N(C)C(C)(C)C(=O)OC)c2c1 (3D coordinates assigned)
C#Cc1ccc2cc(C(N)=O)n(C(=O)C(=O)N(C)C(C)(C)C(=O)OC)c2c1 (optimized conformer: 87.2487379059999 kcal/mol)

>  <smiles>  (77) 
C#Cc1ccc2cc(C(N)=O)n(C(=O)C(=O)N(C)C(C)(C)C(=O)OC)c2c1

>  <score_type>  (77) 
oracle

>  <origin>  (77) 
adg

>  <m_score__min__energy>  (77) 
-10.69

>  <m_primary>  (77) 
energy

$$$$
77:0
     RDKit          3D

 34 35  0  0  0  0  0  0  0  0999 V2000
   -5.1480   24.7740  -28.9840 N   0  0  0  0  0  0  0  0  0  0  0  0
   -5.0300   24.3890  -30.3560 C   0  0  0  0  0  0  0  0  0  0  0  0
   -4.3870   25.1290  -31.1460 O   0  0  0  0  0  0  0  0  0  0  0  0
   -5.6790   23.1560  -30.8540 C   0  0  0  0  0  0  0  0  0  0  0  0
   -6.9990   23.0900  -31.2980 C   0  0  0  0  0  0  0  0  0  0  0  0
   -7.1640   21.8060  -31.7660 C   0  0  0  0  0  0  0  0  0  0  0  0
   -8.2790   21.1950  -32.3290 C   0  0  0  0  0  0  0  0  0  0  0  0
   -8.1680   19.8500  -32.7160 C   0  0  0  0  0  0  0  0  0  0  0  0
   -6.9590   19.1330  -32.5140 C   0  0  0  0  0  0  0  0  0  0  0  0
   -6.8400   17.7020  -32.9700 C   0  0  0  0  0  0  0  0  0  0  0  0
   -6.6370   17.6400  -34.3390 F   0  0  0  0  0  0  0  0  0  0  0  0
   -5.7750   17.0760  -32.3470 F   0  0  0  0  0  0  0  0  0  0  0  0
   -8.0040   17.0260  -32.6580 F   0  0  0  0  0  0  0  0  0  0  0  0
   -5.8400   19.8000  -31.9610 C   0  0  0  0  0  0  0  0  0  0  0  0
   -5.9760   21.1440  -31.5990 C   0  0  0  0  0  0  0  0  0  0  0  0
   -5.0550   21.9580  -31.0390 N   0  0  0  0  0  0  0  0  0  0  0  0
   -3.7150   21.5980  -30.6680 C   0  0  0  0  0  0  0  0  0  0  0  0
   -3.4290   20.3860  -30.4730 O   0  0  0  0  0  0  0  0  0  0  0  0
   -2.7220   22.6200  -30.4870 N   0  0  0  0  0  0  0  0  0  0  0  0
   -1.3340   22.3610  -30.2370 C   0  0  0  0  0  0  0  0  0  0  0  0
   -0.9000   21.1780  -30.2020 O   0  0  0  0  0  0  0  0  0  0  0  0
   -0.4700   23.4480  -30.0410 O   0  0  0  0  0  0  0  0  0  0  0  0
   -0.5080   24.3190  -28.9440 C   0  0  0  0  0  0  0  0  0  0  0  0
    0.2390   24.1430  -27.9440 O   0  0  0  0  0  0  0  0  0  0  0  0
   -1.4340   25.4550  -28.9610 C   0  0  0  0  0  0  0  0  0  0  0  0
   -2.6300   25.2900  -29.3140 O   0  0  0  0  0  0  0  0  0  0  0  0
   -0.9950   26.7200  -28.5880 O   0  0  0  0  0  0  0  0  0  0  0  0
   -4.7170   25.6650  -28.6530 H   0  0  0  0  0  0  0  0  0  0  0  0
   -5.6200   24.1600  -28.2860 H   0  0  0  0  0  0  0  0  0  0  0  0
   -7.7497   23.8938  -31.2785 H   0  0  0  0  0  0  0  0  0  0  0  0
   -9.2195   21.7486  -32.4670 H   0  0  0  0  0  0  0  0  0  0  0  0
   -9.0277   19.3456  -33.1812 H   0  0  0  0  0  0  0  0  0  0  0  0
   -4.8848   19.2732  -31.8191 H   0  0  0  0  0  0  0  0  0  0  0  0
   -3.0270   23.6180  -30.5300 H   0  0  0  0  0  0  0  0  0  0  0  0
  1  2  1  0
  2  3  2  0
  2  4  1  0
  4  5  2  0
  5  6  1  0
  6  7  2  0
  7  8  1  0
  8  9  2  0
  9 10  1  0
 10 11  1  0
 10 12  1  0
 10 13  1  0
  9 14  1  0
 14 15  2  0
 15 16  1  0
 16 17  1  0
 17 18  2  0
 17 19  1  0
 19 20  1  0
 20 21  2  0
 20 22  1  0
 22 23  1  0
 23 24  2  0
 23 25  1  0
 25 26  2  0
 25 27  1  0
 16  4  1  0
 15  6  1  0
  1 28  1  0
  1 29  1  0
  5 30  1  0
  7 31  1  0
  8 32  1  0
 14 33  1  0
 19 34  1  0
M  CHG  1  27  -1
M  END
>  <UniqueID>  (78) 
78

>  <SMILES>  (78) 
NC(=O)c1cc2ccc(C(F)(F)F)cc2n1C(=O)NC(=O)OC(=O)C(=O)[O-]

>  <Energy>  (78) 
73.46827565634179

>  <Genealogy>  (78) 
NC(=O)c1cc2ccc(C(F)(F)F)cc2n1C(=O)NC(=O)OC(=O)C(=O)[O-] (protonated)
NC(=O)c1cc2ccc(C(F)(F)F)cc2n1C(=O)NC(=O)OC(=O)C(=O)[O-] (3D coordinates assigned)
NC(=O)c1cc2ccc(C(F)(F)F)cc2n1C(=O)NC(=O)OC(=O)C(=O)[O-] (optimized conformer: 73.46827565634179 kcal/mol)

>  <smiles>  (78) 
NC(=O)c1cc2ccc(C(F)(F)F)cc2n1C(=O)NC(=O)OC(=O)C(=O)O

>  <score_type>  (78) 
oracle

>  <origin>  (78) 
adg

>  <m_score__min__energy>  (78) 
-11.09

>  <m_primary>  (78) 
energy

$$$$
78:0
     RDKit          3D

 34 35  0  0  0  0  0  0  0  0999 V2000
   -7.4460   18.4640  -32.7100 C   0  0  0  0  0  0  0  0  0  0  0  0
   -7.4820   19.9000  -32.2830 C   0  0  0  0  0  0  0  0  0  0  0  0
   -8.7260   20.5650  -32.1490 C   0  0  0  0  0  0  0  0  0  0  0  0
   -8.7830   21.8980  -31.7100 C   0  0  0  0  0  0  0  0  0  0  0  0
   -7.5820   22.5340  -31.4070 C   0  0  0  0  0  0  0  0  0  0  0  0
   -7.3440   23.8100  -30.9450 C   0  0  0  0  0  0  0  0  0  0  0  0
   -5.9590   23.9010  -30.8020 C   0  0  0  0  0  0  0  0  0  0  0  0
   -5.2590   25.1270  -30.3600 C   0  0  0  0  0  0  0  0  0  0  0  0
   -3.8630   25.3000  -30.5850 N   0  0  0  0  0  0  0  0  0  0  0  0
   -5.9070   26.0430  -29.7850 O   0  0  0  0  0  0  0  0  0  0  0  0
   -5.3680   22.7290  -31.1640 N   0  0  0  0  0  0  0  0  0  0  0  0
   -3.9710   22.4010  -31.1280 C   0  0  0  0  0  0  0  0  0  0  0  0
   -3.3530   22.4930  -30.0340 O   0  0  0  0  0  0  0  0  0  0  0  0
   -3.2830   21.9410  -32.3580 C   0  0  0  0  0  0  0  0  0  0  0  0
   -3.8660   22.1180  -33.4650 O   0  0  0  0  0  0  0  0  0  0  0  0
   -1.9830   21.3080  -32.3450 N   0  0  0  0  0  0  0  0  0  0  0  0
   -1.5730   20.5200  -33.5120 C   0  0  0  0  0  0  0  0  0  0  0  0
   -1.0370   21.5180  -31.2430 C   0  0  0  0  0  0  0  0  0  0  0  0
   -6.3720   21.9040  -31.5280 C   0  0  0  0  0  0  0  0  0  0  0  0
   -6.2850   20.5730  -31.9500 C   0  0  0  0  0  0  0  0  0  0  0  0
   -7.4298   17.8172  -31.8204 H   0  0  0  0  0  0  0  0  0  0  0  0
   -8.3388   18.2378  -33.3115 H   0  0  0  0  0  0  0  0  0  0  0  0
   -6.5430   18.2829  -33.3115 H   0  0  0  0  0  0  0  0  0  0  0  0
   -9.6570   20.0316  -32.3914 H   0  0  0  0  0  0  0  0  0  0  0  0
   -9.7448   22.4222  -31.6089 H   0  0  0  0  0  0  0  0  0  0  0  0
   -8.0884   24.5917  -30.7336 H   0  0  0  0  0  0  0  0  0  0  0  0
   -3.5110   26.0460  -31.2260 H   0  0  0  0  0  0  0  0  0  0  0  0
   -1.0896   19.5909  -33.1756 H   0  0  0  0  0  0  0  0  0  0  0  0
   -2.4577   20.2745  -34.1178 H   0  0  0  0  0  0  0  0  0  0  0  0
   -0.8642   21.1036  -34.1178 H   0  0  0  0  0  0  0  0  0  0  0  0
   -1.5609   21.4017  -30.2828 H   0  0  0  0  0  0  0  0  0  0  0  0
   -0.2258   20.7781  -31.3101 H   0  0  0  0  0  0  0  0  0  0  0  0
   -0.6151   22.5317  -31.3101 H   0  0  0  0  0  0  0  0  0  0  0  0
   -5.3121   20.0647  -32.0206 H   0  0  0  0  0  0  0  0  0  0  0  0
  1  2  1  0
  2  3  2  0
  3  4  1  0
  4  5  2  0
  5  6  1  0
  6  7  2  0
  7  8  1  0
  8  9  1  0
  8 10  2  0
  7 11  1  0
 11 12  1  0
 12 13  2  0
 12 14  1  0
 14 15  2  0
 14 16  1  0
 16 17  1  0
 16 18  1  0
 11 19  1  0
 19 20  2  0
 20  2  1  0
 19  5  1  0
  1 21  1  0
  1 22  1  0
  1 23  1  0
  3 24  1  0
  4 25  1  0
  6 26  1  0
  9 27  1  0
 17 28  1  0
 17 29  1  0
 17 30  1  0
 18 31  1  0
 18 32  1  0
 18 33  1  0
 20 34  1  0
M  CHG  1   9  -1
M  END
>  <UniqueID>  (79) 
79

>  <SMILES>  (79) 
Cc1ccc2cc(C([NH-])=O)n(C(=O)C(=O)N(C)C)c2c1

>  <Energy>  (79) 
73.67418413303389

>  <Genealogy>  (79) 
Cc1ccc2cc(C([NH-])=O)n(C(=O)C(=O)N(C)C)c2c1 (protonated)
Cc1ccc2cc(C([NH-])=O)n(C(=O)C(=O)N(C)C)c2c1 (3D coordinates assigned)
Cc1ccc2cc(C([NH-])=O)n(C(=O)C(=O)N(C)C)c2c1 (optimized conformer: 73.67418413303389 kcal/mol)

>  <smiles>  (79) 
Cc1ccc2cc(C(N)=O)n(C(=O)C(=O)N(C)C)c2c1

>  <score_type>  (79) 
oracle

>  <origin>  (79) 
adg

>  <m_score__min__energy>  (79) 
-10.26

>  <m_primary>  (79) 
energy

$$$$
79:0
     RDKit          3D

 35 37  0  0  0  0  0  0  0  0999 V2000
   -3.9260   25.6730  -30.8390 N   0  0  0  0  0  0  0  0  0  0  0  0
   -5.1880   25.0710  -30.5640 C   0  0  0  0  0  0  0  0  0  0  0  0
   -5.9930   25.6540  -29.7910 O   0  0  0  0  0  0  0  0  0  0  0  0
   -5.5400   23.7510  -31.1260 C   0  0  0  0  0  0  0  0  0  0  0  0
   -6.8410   23.3810  -31.4600 C   0  0  0  0  0  0  0  0  0  0  0  0
   -6.7580   22.0660  -31.8540 C   0  0  0  0  0  0  0  0  0  0  0  0
   -7.7530   21.2010  -32.2970 C   0  0  0  0  0  0  0  0  0  0  0  0
   -7.3770   19.8990  -32.6670 C   0  0  0  0  0  0  0  0  0  0  0  0
   -6.0180   19.4840  -32.5940 C   0  0  0  0  0  0  0  0  0  0  0  0
   -5.5800   18.0880  -32.9970 C   0  0  0  0  0  0  0  0  0  0  0  0
   -6.7030   17.0880  -33.1740 C   0  0  0  0  0  0  0  0  0  0  0  0
   -6.4640   16.9640  -34.5560 O   0  0  0  0  0  0  0  0  0  0  0  0
   -5.3950   17.8780  -34.4840 C   0  0  0  0  0  0  0  0  0  0  0  0
   -5.0400   20.3960  -32.1360 C   0  0  0  0  0  0  0  0  0  0  0  0
   -5.4470   21.6810  -31.7570 C   0  0  0  0  0  0  0  0  0  0  0  0
   -4.6840   22.7060  -31.3170 N   0  0  0  0  0  0  0  0  0  0  0  0
   -3.2560   22.6970  -31.1670 C   0  0  0  0  0  0  0  0  0  0  0  0
   -2.5300   22.2290  -32.0860 O   0  0  0  0  0  0  0  0  0  0  0  0
   -2.6800   23.1860  -29.9890 O   0  0  0  0  0  0  0  0  0  0  0  0
   -1.2740   23.2000  -29.7520 C   0  0  0  0  0  0  0  0  0  0  0  0
   -0.8720   24.4800  -29.0920 C   0  0  0  0  0  0  0  0  0  0  0  0
    0.1440   24.5190  -28.3480 O   0  0  0  0  0  0  0  0  0  0  0  0
   -1.6000   25.6400  -29.3240 O   0  0  0  0  0  0  0  0  0  0  0  0
   -3.0420   25.2630  -30.4630 H   0  0  0  0  0  0  0  0  0  0  0  0
   -7.7437   24.0081  -31.4175 H   0  0  0  0  0  0  0  0  0  0  0  0
   -8.8021   21.5264  -32.3558 H   0  0  0  0  0  0  0  0  0  0  0  0
   -8.1428   19.1915  -33.0176 H   0  0  0  0  0  0  0  0  0  0  0  0
   -4.7737   17.9809  -32.2564 H   0  0  0  0  0  0  0  0  0  0  0  0
   -6.5486   16.1523  -32.6167 H   0  0  0  0  0  0  0  0  0  0  0  0
   -7.7131   17.3553  -32.8302 H   0  0  0  0  0  0  0  0  0  0  0  0
   -4.4224   17.4364  -34.7466 H   0  0  0  0  0  0  0  0  0  0  0  0
   -5.3978   18.7538  -35.1496 H   0  0  0  0  0  0  0  0  0  0  0  0
   -3.9815   20.1024  -32.0785 H   0  0  0  0  0  0  0  0  0  0  0  0
   -1.0076   22.3557  -29.0991 H   0  0  0  0  0  0  0  0  0  0  0  0
   -0.7480   23.1128  -30.7141 H   0  0  0  0  0  0  0  0  0  0  0  0
  1  2  1  0
  2  3  2  0
  2  4  1  0
  4  5  2  0
  5  6  1  0
  6  7  2  0
  7  8  1  0
  8  9  2  0
  9 10  1  0
 10 11  1  0
 11 12  1  0
 12 13  1  0
  9 14  1  0
 14 15  2  0
 15 16  1  0
 16 17  1  0
 17 18  2  0
 17 19  1  0
 19 20  1  0
 20 21  1  0
 21 22  2  0
 21 23  1  0
 16  4  1  0
 15  6  1  0
 13 10  1  0
  1 24  1  0
  5 25  1  0
  7 26  1  0
  8 27  1  0
 10 28  1  0
 11 29  1  0
 11 30  1  0
 13 31  1  0
 13 32  1  0
 14 33  1  0
 20 34  1  0
 20 35  1  0
M  CHG  2   1  -1  23  -1
M  END
>  <UniqueID>  (80) 
80

>  <SMILES>  (80) 
[NH-]C(=O)c1cc2ccc(C3COC3)cc2n1C(=O)OCC(=O)[O-]

>  <Energy>  (80) 
138.89306708825066

>  <Genealogy>  (80) 
[NH-]C(=O)c1cc2ccc(C3COC3)cc2n1C(=O)OCC(=O)[O-] (protonated)
[NH-]C(=O)c1cc2ccc(C3COC3)cc2n1C(=O)OCC(=O)[O-] (3D coordinates assigned)
[NH-]C(=O)c1cc2ccc(C3COC3)cc2n1C(=O)OCC(=O)[O-] (nonaromatic ring conformer: 138.89306708825066 kcal/mol)

>  <smiles>  (80) 
NC(=O)c1cc2ccc(C3COC3)cc2n1C(=O)OCC(=O)O

>  <score_type>  (80) 
oracle

>  <origin>  (80) 
adg

>  <m_score__min__energy>  (80) 
-12.49

>  <m_primary>  (80) 
energy

$$$$
80:0
     RDKit          3D

 40 41  0  0  0  0  0  0  0  0999 V2000
   -1.6870   19.7970  -33.8850 C   0  0  0  0  0  0  0  0  0  0  0  0
   -1.9970   20.6570  -32.7400 N   0  0  0  0  0  0  0  0  0  0  0  0
   -0.9390   21.0960  -31.8690 C   0  0  0  0  0  0  0  0  0  0  0  0
    0.2140   20.5960  -31.9820 O   0  0  0  0  0  0  0  0  0  0  0  0
   -1.1870   22.1040  -30.9250 O   0  0  0  0  0  0  0  0  0  0  0  0
   -0.7970   22.0560  -29.5780 C   0  0  0  0  0  0  0  0  0  0  0  0
   -0.7600   23.1010  -28.8730 O   0  0  0  0  0  0  0  0  0  0  0  0
   -0.3550   20.7550  -28.9920 C   0  0  0  0  0  0  0  0  0  0  0  0
   -1.2380   19.7480  -29.3400 F   0  0  0  0  0  0  0  0  0  0  0  0
   -0.3120   20.8640  -27.6140 F   0  0  0  0  0  0  0  0  0  0  0  0
    0.9030   20.4310  -29.4650 F   0  0  0  0  0  0  0  0  0  0  0  0
   -3.3100   21.2340  -32.6430 C   0  0  0  0  0  0  0  0  0  0  0  0
   -3.9380   21.5250  -33.6980 O   0  0  0  0  0  0  0  0  0  0  0  0
   -3.9540   21.4490  -31.3320 C   0  0  0  0  0  0  0  0  0  0  0  0
   -3.4660   20.9250  -30.2960 O   0  0  0  0  0  0  0  0  0  0  0  0
   -5.1540   22.2330  -31.2270 N   0  0  0  0  0  0  0  0  0  0  0  0
   -5.2610   23.5320  -30.8310 C   0  0  0  0  0  0  0  0  0  0  0  0
   -4.1190   24.4290  -30.5400 C   0  0  0  0  0  0  0  0  0  0  0  0
   -2.9300   23.9310  -29.9230 N   0  0  0  0  0  0  0  0  0  0  0  0
   -4.1920   25.6540  -30.8230 O   0  0  0  0  0  0  0  0  0  0  0  0
   -6.6010   23.9180  -30.7910 C   0  0  0  0  0  0  0  0  0  0  0  0
   -7.3140   22.8010  -31.1640 C   0  0  0  0  0  0  0  0  0  0  0  0
   -8.6870   22.6130  -31.2860 C   0  0  0  0  0  0  0  0  0  0  0  0
   -9.1470   21.3400  -31.6620 C   0  0  0  0  0  0  0  0  0  0  0  0
   -8.2360   20.2730  -31.8810 C   0  0  0  0  0  0  0  0  0  0  0  0
   -8.7400   18.9230  -32.3200 C   0  0  0  0  0  0  0  0  0  0  0  0
   -9.8750   19.0890  -33.0920 F   0  0  0  0  0  0  0  0  0  0  0  0
   -7.7800   18.2610  -33.0670 F   0  0  0  0  0  0  0  0  0  0  0  0
   -9.0520   18.1380  -31.2230 F   0  0  0  0  0  0  0  0  0  0  0  0
   -6.8470   20.5120  -31.7680 C   0  0  0  0  0  0  0  0  0  0  0  0
   -6.4180   21.7960  -31.4150 C   0  0  0  0  0  0  0  0  0  0  0  0
   -1.3346   18.8193  -33.5245 H   0  0  0  0  0  0  0  0  0  0  0  0
   -2.5918   19.6584  -34.4951 H   0  0  0  0  0  0  0  0  0  0  0  0
   -0.9019   20.2676  -34.4951 H   0  0  0  0  0  0  0  0  0  0  0  0
   -2.7960   22.9140  -29.7320 H   0  0  0  0  0  0  0  0  0  0  0  0
   -2.1490   24.5840  -29.6930 H   0  0  0  0  0  0  0  0  0  0  0  0
   -7.0026   24.9053  -30.5191 H   0  0  0  0  0  0  0  0  0  0  0  0
   -9.3910   23.4361  -31.0939 H   0  0  0  0  0  0  0  0  0  0  0  0
  -10.2261   21.1677  -31.7883 H   0  0  0  0  0  0  0  0  0  0  0  0
   -6.1206   19.7071  -31.9533 H   0  0  0  0  0  0  0  0  0  0  0  0
  1  2  1  0
  2  3  1  0
  3  4  2  0
  3  5  1  0
  5  6  1  0
  6  7  2  0
  6  8  1  0
  8  9  1  0
  8 10  1  0
  8 11  1  0
  2 12  1  0
 12 13  2  0
 12 14  1  0
 14 15  2  0
 14 16  1  0
 16 17  1  0
 17 18  1  0
 18 19  1  0
 18 20  2  0
 17 21  2  0
 21 22  1  0
 22 23  2  0
 23 24  1  0
 24 25  2  0
 25 26  1  0
 26 27  1  0
 26 28  1  0
 26 29  1  0
 25 30  1  0
 30 31  2  0
 31 16  1  0
 31 22  1  0
  1 32  1  0
  1 33  1  0
  1 34  1  0
 19 35  1  0
 19 36  1  0
 21 37  1  0
 23 38  1  0
 24 39  1  0
 30 40  1  0
M  END
>  <UniqueID>  (81) 
81

>  <SMILES>  (81) 
CN(C(=O)OC(=O)C(F)(F)F)C(=O)C(=O)n1c(C(N)=O)cc2ccc(C(F)(F)F)cc21

>  <Energy>  (81) 
83.04066016053723

>  <Genealogy>  (81) 
CN(C(=O)OC(=O)C(F)(F)F)C(=O)C(=O)n1c(C(N)=O)cc2ccc(C(F)(F)F)cc21 (3D coordinates assigned)
CN(C(=O)OC(=O)C(F)(F)F)C(=O)C(=O)n1c(C(N)=O)cc2ccc(C(F)(F)F)cc21 (optimized conformer: 83.04066016053723 kcal/mol)

>  <smiles>  (81) 
CN(C(=O)OC(=O)C(F)(F)F)C(=O)C(=O)n1c(C(N)=O)cc2ccc(C(F)(F)F)cc21

>  <score_type>  (81) 
oracle

>  <origin>  (81) 
adg

>  <m_score__min__energy>  (81) 
-7.9100000000000001

>  <m_primary>  (81) 
energy

$$$$
81:0
     RDKit          3D

 38 39  0  0  0  0  0  0  0  0999 V2000
   -6.9080   17.4920  -32.3900 C   0  0  0  0  0  0  0  0  0  0  0  0
   -7.6820   18.5840  -32.9760 N   0  0  0  0  0  0  0  0  0  0  0  0
   -7.7120   19.9170  -32.4330 C   0  0  0  0  0  0  0  0  0  0  0  0
   -8.9640   20.5170  -32.1460 C   0  0  0  0  0  0  0  0  0  0  0  0
   -9.0370   21.8210  -31.6270 C   0  0  0  0  0  0  0  0  0  0  0  0
   -7.8450   22.4980  -31.3910 C   0  0  0  0  0  0  0  0  0  0  0  0
   -7.6240   23.7780  -30.9300 C   0  0  0  0  0  0  0  0  0  0  0  0
   -6.2380   23.9340  -30.9210 C   0  0  0  0  0  0  0  0  0  0  0  0
   -5.5500   25.1600  -30.4670 C   0  0  0  0  0  0  0  0  0  0  0  0
   -4.1910   25.3910  -30.8340 N   0  0  0  0  0  0  0  0  0  0  0  0
   -6.1530   26.0130  -29.7650 O   0  0  0  0  0  0  0  0  0  0  0  0
   -5.6280   22.7970  -31.3570 N   0  0  0  0  0  0  0  0  0  0  0  0
   -4.2230   22.5760  -31.5630 C   0  0  0  0  0  0  0  0  0  0  0  0
   -3.7750   22.4800  -32.7380 O   0  0  0  0  0  0  0  0  0  0  0  0
   -3.3010   22.4660  -30.4160 C   0  0  0  0  0  0  0  0  0  0  0  0
   -3.2070   21.3690  -29.8000 O   0  0  0  0  0  0  0  0  0  0  0  0
   -2.5190   23.5950  -29.9970 N   0  0  0  0  0  0  0  0  0  0  0  0
   -1.5780   23.5210  -28.8730 C   0  0  1  0  0  0  0  0  0  0  0  0
   -0.4930   22.4770  -29.1640 C   0  0  0  0  0  0  0  0  0  0  0  0
   -0.9570   24.8680  -28.6170 C   0  0  0  0  0  0  0  0  0  0  0  0
    0.1850   24.9440  -28.0900 O   0  0  0  0  0  0  0  0  0  0  0  0
   -1.6260   26.0380  -28.9610 O   0  0  0  0  0  0  0  0  0  0  0  0
   -6.6240   21.9290  -31.6450 C   0  0  0  0  0  0  0  0  0  0  0  0
   -6.5230   20.6420  -32.1850 C   0  0  0  0  0  0  0  0  0  0  0  0
   -6.9543   17.5573  -31.2929 H   0  0  0  0  0  0  0  0  0  0  0  0
   -7.3263   16.5289  -32.7180 H   0  0  0  0  0  0  0  0  0  0  0  0
   -5.8608   17.5677  -32.7180 H   0  0  0  0  0  0  0  0  0  0  0  0
   -8.2590   18.3710  -33.8190 H   0  0  0  0  0  0  0  0  0  0  0  0
   -9.8907   19.9544  -32.3320 H   0  0  0  0  0  0  0  0  0  0  0  0
  -10.0078   22.2922  -31.4138 H   0  0  0  0  0  0  0  0  0  0  0  0
   -8.3803   24.5193  -30.6323 H   0  0  0  0  0  0  0  0  0  0  0  0
   -3.4860   25.6830  -30.1210 H   0  0  0  0  0  0  0  0  0  0  0  0
   -2.6630   24.5140  -30.4750 H   0  0  0  0  0  0  0  0  0  0  0  0
   -2.1284   23.2170  -27.9704 H   0  0  0  0  0  0  0  0  0  0  0  0
   -0.0918   22.0909  -28.2153 H   0  0  0  0  0  0  0  0  0  0  0  0
   -0.9272   21.6484  -29.7427 H   0  0  0  0  0  0  0  0  0  0  0  0
    0.3183   22.9428  -29.7427 H   0  0  0  0  0  0  0  0  0  0  0  0
   -5.5400   20.2035  -32.4118 H   0  0  0  0  0  0  0  0  0  0  0  0
  1  2  1  0
  2  3  1  0
  3  4  2  0
  4  5  1  0
  5  6  2  0
  6  7  1  0
  7  8  2  0
  8  9  1  0
  9 10  1  0
  9 11  2  0
  8 12  1  0
 12 13  1  0
 13 14  2  0
 13 15  1  0
 15 16  2  0
 15 17  1  0
 17 18  1  0
 18 19  1  0
 18 20  1  0
 20 21  2  0
 20 22  1  0
 12 23  1  0
 23 24  2  0
 24  3  1  0
 23  6  1  0
  1 25  1  0
  1 26  1  0
  1 27  1  0
  2 28  1  0
  4 29  1  0
  5 30  1  0
  7 31  1  0
 10 32  1  0
 17 33  1  0
 18 34  1  1
 19 35  1  0
 19 36  1  0
 19 37  1  0
 24 38  1  0
M  CHG  2  10  -1  22  -1
M  END
>  <UniqueID>  (82) 
82

>  <SMILES>  (82) 
CNc1ccc2cc(C([NH-])=O)n(C(=O)C(=O)N[C@@H](C)C(=O)[O-])c2c1

>  <Energy>  (82) 
72.40104823280663

>  <Genealogy>  (82) 
CNc1ccc2cc(C([NH-])=O)n(C(=O)C(=O)NC(C)C(=O)[O-])c2c1 (protonated)
CNc1ccc2cc(C([NH-])=O)n(C(=O)C(=O)N[C@@H](C)C(=O)[O-])c2c1 (chirality)
CNc1ccc2cc(C([NH-])=O)n(C(=O)C(=O)N[C@@H](C)C(=O)[O-])c2c1 (3D coordinates assigned)
CNc1ccc2cc(C([NH-])=O)n(C(=O)C(=O)N[C@@H](C)C(=O)[O-])c2c1 (optimized conformer: 72.40104823280663 kcal/mol)

>  <smiles>  (82) 
CNc1ccc2cc(C(N)=O)n(C(=O)C(=O)NC(C)C(=O)O)c2c1

>  <score_type>  (82) 
oracle

>  <origin>  (82) 
adg

>  <m_score__min__energy>  (82) 
-12.81

>  <m_primary>  (82) 
energy

$$$$
82:0
     RDKit          3D

 55 57  0  0  0  0  0  0  0  0999 V2000
   -6.1370   19.6750  -33.7170 C   0  0  0  0  0  0  0  0  0  0  0  0
   -5.7840   20.1150  -32.3580 N   0  0  0  0  0  0  0  0  0  0  0  0
   -6.9550   20.6990  -31.6580 C   0  0  0  0  0  0  0  0  0  0  0  0
   -6.9530   22.2350  -31.7070 C   0  0  0  0  0  0  0  0  0  0  0  0
   -5.7420   22.8120  -31.0670 N   0  0  0  0  0  0  0  0  0  0  0  0
   -5.4340   24.1590  -31.5980 C   0  0  0  0  0  0  0  0  0  0  0  0
   -4.9220   25.1130  -30.5020 C   0  0  0  0  0  0  0  0  0  0  0  0
   -3.4900   24.9490  -30.2630 N   0  0  0  0  0  0  0  0  0  0  0  0
   -2.8570   24.2350  -29.1890 C   0  0  0  0  0  0  0  0  0  0  0  0
   -3.4810   24.1320  -28.1000 O   0  0  0  0  0  0  0  0  0  0  0  0
   -1.5060   23.6390  -29.2930 C   0  0  0  0  0  0  0  0  0  0  0  0
   -0.4790   24.3660  -29.3260 O   0  0  0  0  0  0  0  0  0  0  0  0
   -1.3440   22.2140  -29.3290 N   0  0  0  0  0  0  0  0  0  0  0  0
   -1.2720   21.3440  -28.2840 C   0  0  0  0  0  0  0  0  0  0  0  0
   -1.4390   21.6880  -26.8550 C   0  0  0  0  0  0  0  0  0  0  0  0
   -1.4920   23.0470  -26.4170 N   0  0  0  0  0  0  0  0  0  0  0  0
   -1.5760   20.7650  -26.0100 O   0  0  0  0  0  0  0  0  0  0  0  0
   -1.0340   20.0500  -28.7430 C   0  0  0  0  0  0  0  0  0  0  0  0
   -0.9770   20.1560  -30.1160 C   0  0  0  0  0  0  0  0  0  0  0  0
   -0.7620   19.1820  -31.0850 C   0  0  0  0  0  0  0  0  0  0  0  0
   -0.7290   19.5870  -32.4310 C   0  0  0  0  0  0  0  0  0  0  0  0
   -0.8930   20.9500  -32.7860 C   0  0  0  0  0  0  0  0  0  0  0  0
   -0.8350   21.3230  -34.1760 N   0  0  0  0  0  0  0  0  0  0  0  0
    0.1790   20.8450  -35.1160 C   0  0  0  0  0  0  0  0  0  0  0  0
    0.8190   21.9880  -35.8390 C   0  0  0  0  0  0  0  0  0  0  0  0
    1.7650   21.7820  -36.6450 O   0  0  0  0  0  0  0  0  0  0  0  0
    0.3940   23.2880  -35.5960 O   0  0  0  0  0  0  0  0  0  0  0  0
   -1.1090   21.9110  -31.7670 C   0  0  0  0  0  0  0  0  0  0  0  0
   -1.1620   21.4730  -30.4410 C   0  0  0  0  0  0  0  0  0  0  0  0
   -4.5590   21.9160  -31.1540 C   0  0  0  0  0  0  0  0  0  0  0  0
   -4.6110   21.0170  -32.3960 C   0  0  0  0  0  0  0  0  0  0  0  0
   -6.8244   18.8182  -33.6581 H   0  0  0  0  0  0  0  0  0  0  0  0
   -6.6258   20.5010  -34.2544 H   0  0  0  0  0  0  0  0  0  0  0  0
   -5.2247   19.3769  -34.2544 H   0  0  0  0  0  0  0  0  0  0  0  0
   -7.8742   20.3304  -32.1368 H   0  0  0  0  0  0  0  0  0  0  0  0
   -6.9041   20.3944  -30.6022 H   0  0  0  0  0  0  0  0  0  0  0  0
   -6.9862   22.5566  -32.7584 H   0  0  0  0  0  0  0  0  0  0  0  0
   -7.8330   22.5933  -31.1528 H   0  0  0  0  0  0  0  0  0  0  0  0
   -4.6614   24.0653  -32.3754 H   0  0  0  0  0  0  0  0  0  0  0  0
   -6.3636   24.5818  -32.0067 H   0  0  0  0  0  0  0  0  0  0  0  0
   -5.1139   26.1499  -30.8149 H   0  0  0  0  0  0  0  0  0  0  0  0
   -5.4530   24.8761  -29.5682 H   0  0  0  0  0  0  0  0  0  0  0  0
   -1.5850   23.8340  -27.0930 H   0  0  0  0  0  0  0  0  0  0  0  0
   -1.5420   23.2630  -25.3950 H   0  0  0  0  0  0  0  0  0  0  0  0
   -0.9167   19.1385  -28.1385 H   0  0  0  0  0  0  0  0  0  0  0  0
   -0.6220   18.1270  -30.8069 H   0  0  0  0  0  0  0  0  0  0  0  0
   -0.5738   18.8360  -33.2197 H   0  0  0  0  0  0  0  0  0  0  0  0
   -1.6090   21.9070  -34.5670 H   0  0  0  0  0  0  0  0  0  0  0  0
    0.9515   20.2918  -34.5617 H   0  0  0  0  0  0  0  0  0  0  0  0
   -0.3074   20.1906  -35.8544 H   0  0  0  0  0  0  0  0  0  0  0  0
   -1.2320   22.9759  -32.0139 H   0  0  0  0  0  0  0  0  0  0  0  0
   -3.6490   22.5323  -31.1992 H   0  0  0  0  0  0  0  0  0  0  0  0
   -4.5563   21.2684  -30.2649 H   0  0  0  0  0  0  0  0  0  0  0  0
   -4.6742   21.6494  -33.2938 H   0  0  0  0  0  0  0  0  0  0  0  0
   -3.6998   20.4011  -32.4173 H   0  0  0  0  0  0  0  0  0  0  0  0
  1  2  1  0
  2  3  1  0
  3  4  1  0
  4  5  1  0
  5  6  1  0
  6  7  1  0
  7  8  1  0
  8  9  1  0
  9 10  2  0
  9 11  1  0
 11 12  2  0
 11 13  1  0
 13 14  1  0
 14 15  1  0
 15 16  1  0
 15 17  2  0
 14 18  2  0
 18 19  1  0
 19 20  2  0
 20 21  1  0
 21 22  2  0
 22 23  1  0
 23 24  1  0
 24 25  1  0
 25 26  2  0
 25 27  1  0
 22 28  1  0
 28 29  2  0
  5 30  1  0
 30 31  1  0
 31  2  1  0
 29 13  1  0
 29 19  1  0
  1 32  1  0
  1 33  1  0
  1 34  1  0
  3 35  1  0
  3 36  1  0
  4 37  1  0
  4 38  1  0
  6 39  1  0
  6 40  1  0
  7 41  1  0
  7 42  1  0
 16 43  1  0
 16 44  1  0
 18 45  1  0
 20 46  1  0
 21 47  1  0
 23 48  1  0
 24 49  1  0
 24 50  1  0
 28 51  1  0
 30 52  1  0
 30 53  1  0
 31 54  1  0
 31 55  1  0
M  CHG  2   8  -1  27  -1
M  END
>  <UniqueID>  (83) 
83

>  <SMILES>  (83) 
CN1CCN(CC[N-]C(=O)C(=O)n2c(C(N)=O)cc3ccc(NCC(=O)[O-])cc32)CC1

>  <Energy>  (83) 
106.38650999205692

>  <Genealogy>  (83) 
CN1CCN(CC[N-]C(=O)C(=O)n2c(C(N)=O)cc3ccc(NCC(=O)[O-])cc32)CC1 (protonated)
CN1CCN(CC[N-]C(=O)C(=O)n2c(C(N)=O)cc3ccc(NCC(=O)[O-])cc32)CC1 (3D coordinates assigned)
CN1CCN(CC[N-]C(=O)C(=O)n2c(C(N)=O)cc3ccc(NCC(=O)[O-])cc32)CC1 (nonaromatic ring conformer: 106.38650999205692 kcal/mol)

>  <smiles>  (83) 
CN1CCN(CCNC(=O)C(=O)n2c(C(N)=O)cc3ccc(NCC(=O)O)cc32)CC1

>  <score_type>  (83) 
oracle

>  <origin>  (83) 
adg

>  <m_score__min__energy>  (83) 
-10.57

>  <m_primary>  (83) 
energy

$$$$
83:0
     RDKit          3D

 58 62  0  0  0  0  0  0  0  0999 V2000
    3.0980   12.7790  -29.0130 C   0  0  0  0  0  0  0  0  0  0  0  0
    2.6040   13.8030  -28.0820 N   0  0  0  0  0  0  0  0  0  0  0  0
    3.7060   14.5220  -27.4230 C   0  0  0  0  0  0  0  0  0  0  0  0
    3.2030   15.9260  -27.0810 C   0  0  0  0  0  0  0  0  0  0  0  0
    1.9140   16.0680  -27.8910 C   0  0  0  0  0  0  0  0  0  0  0  0
    1.8110   14.8260  -28.7700 C   0  0  0  0  0  0  0  0  0  0  0  0
    1.6660   17.3870  -28.5670 C   0  0  0  0  0  0  0  0  0  0  0  0
    0.4450   17.7220  -27.8070 N   0  0  0  0  0  0  0  0  0  0  0  0
   -0.5270   18.7690  -27.7840 C   0  0  0  0  0  0  0  0  0  0  0  0
   -1.6880   18.6340  -27.0110 C   0  0  0  0  0  0  0  0  0  0  0  0
   -2.6300   19.6650  -26.9720 C   0  0  0  0  0  0  0  0  0  0  0  0
   -2.4120   20.8520  -27.6830 C   0  0  0  0  0  0  0  0  0  0  0  0
   -3.4040   21.8870  -27.6340 N   0  0  0  0  0  0  0  0  0  0  0  0
   -3.7000   22.8310  -28.6710 C   0  0  0  0  0  0  0  0  0  0  0  0
   -3.7360   24.0550  -28.3790 O   0  0  0  0  0  0  0  0  0  0  0  0
   -3.8690   22.4200  -30.0810 C   0  0  0  0  0  0  0  0  0  0  0  0
   -2.8920   21.9680  -30.7350 O   0  0  0  0  0  0  0  0  0  0  0  0
   -5.1410   22.5560  -30.7250 N   0  0  0  0  0  0  0  0  0  0  0  0
   -5.8280   23.7040  -30.9840 C   0  0  0  0  0  0  0  0  0  0  0  0
   -5.3730   25.0710  -30.6560 C   0  0  0  0  0  0  0  0  0  0  0  0
   -3.9790   25.3800  -30.6650 N   0  0  0  0  0  0  0  0  0  0  0  0
   -6.2000   25.9680  -30.3500 O   0  0  0  0  0  0  0  0  0  0  0  0
   -7.0060   23.4190  -31.6740 C   0  0  0  0  0  0  0  0  0  0  0  0
   -7.0100   22.0490  -31.8380 C   0  0  0  0  0  0  0  0  0  0  0  0
   -7.9210   21.2260  -32.4920 C   0  0  0  0  0  0  0  0  0  0  0  0
   -7.6480   19.8490  -32.5370 C   0  0  0  0  0  0  0  0  0  0  0  0
   -6.4850   19.3180  -31.9170 C   0  0  0  0  0  0  0  0  0  0  0  0
   -6.1830   17.8420  -31.9990 C   0  0  0  0  0  0  0  0  0  0  0  0
   -6.1510   17.2810  -30.7340 F   0  0  0  0  0  0  0  0  0  0  0  0
   -4.9520   17.6600  -32.6040 F   0  0  0  0  0  0  0  0  0  0  0  0
   -7.1500   17.1830  -32.7410 F   0  0  0  0  0  0  0  0  0  0  0  0
   -5.5680   20.1930  -31.2920 C   0  0  0  0  0  0  0  0  0  0  0  0
   -5.8680   21.5570  -31.2630 C   0  0  0  0  0  0  0  0  0  0  0  0
   -1.2600   20.9760  -28.4790 C   0  0  0  0  0  0  0  0  0  0  0  0
   -0.3210   19.9410  -28.5250 C   0  0  0  0  0  0  0  0  0  0  0  0
    0.6760   16.4370  -27.1170 C   0  0  0  0  0  0  0  0  0  0  0  0
    3.5068   11.9317  -28.4429 H   0  0  0  0  0  0  0  0  0  0  0  0
    2.2696   12.4291  -29.6465 H   0  0  0  0  0  0  0  0  0  0  0  0
    3.8875   13.2096  -29.6465 H   0  0  0  0  0  0  0  0  0  0  0  0
    4.0010   13.9950  -26.5037 H   0  0  0  0  0  0  0  0  0  0  0  0
    4.5826   14.5763  -28.0853 H   0  0  0  0  0  0  0  0  0  0  0  0
    2.9992   16.0161  -26.0038 H   0  0  0  0  0  0  0  0  0  0  0  0
    3.9393   16.7078  -27.3189 H   0  0  0  0  0  0  0  0  0  0  0  0
    0.7631   14.5045  -28.8626 H   0  0  0  0  0  0  0  0  0  0  0  0
    2.1763   15.0126  -29.7907 H   0  0  0  0  0  0  0  0  0  0  0  0
    2.4801   18.1084  -28.4030 H   0  0  0  0  0  0  0  0  0  0  0  0
    1.5889   17.3821  -29.6643 H   0  0  0  0  0  0  0  0  0  0  0  0
   -1.8582   17.7136  -26.4332 H   0  0  0  0  0  0  0  0  0  0  0  0
   -3.5487   19.5438  -26.3792 H   0  0  0  0  0  0  0  0  0  0  0  0
   -3.4900   25.6670  -29.7870 H   0  0  0  0  0  0  0  0  0  0  0  0
   -7.7693   24.1340  -32.0148 H   0  0  0  0  0  0  0  0  0  0  0  0
   -8.8265   21.6405  -32.9591 H   0  0  0  0  0  0  0  0  0  0  0  0
   -8.3426   19.1738  -33.0583 H   0  0  0  0  0  0  0  0  0  0  0  0
   -4.6414   19.8097  -30.8398 H   0  0  0  0  0  0  0  0  0  0  0  0
   -1.0967   21.8906  -29.0679 H   0  0  0  0  0  0  0  0  0  0  0  0
    0.5819   20.0467  -29.1444 H   0  0  0  0  0  0  0  0  0  0  0  0
    0.8678   16.5602  -26.0409 H   0  0  0  0  0  0  0  0  0  0  0  0
   -0.1508   15.7114  -27.1141 H   0  0  0  0  0  0  0  0  0  0  0  0
  1  2  1  0
  2  3  1  0
  3  4  1  0
  4  5  1  0
  5  6  1  0
  5  7  1  0
  7  8  1  0
  8  9  1  0
  9 10  2  0
 10 11  1  0
 11 12  2  0
 12 13  1  0
 13 14  1  0
 14 15  2  0
 14 16  1  0
 16 17  2  0
 16 18  1  0
 18 19  1  0
 19 20  1  0
 20 21  1  0
 20 22  2  0
 19 23  2  0
 23 24  1  0
 24 25  2  0
 25 26  1  0
 26 27  2  0
 27 28  1  0
 28 29  1  0
 28 30  1  0
 28 31  1  0
 27 32  1  0
 32 33  2  0
 12 34  1  0
 34 35  2  0
  8 36  1  0
  6  2  1  0
 35  9  1  0
 36  5  1  0
 33 18  1  0
 33 24  1  0
  1 37  1  0
  1 38  1  0
  1 39  1  0
  3 40  1  0
  3 41  1  0
  4 42  1  0
  4 43  1  0
  6 44  1  0
  6 45  1  0
  7 46  1  0
  7 47  1  0
 10 48  1  0
 11 49  1  0
 21 50  1  0
 23 51  1  0
 25 52  1  0
 26 53  1  0
 32 54  1  0
 34 55  1  0
 35 56  1  0
 36 57  1  0
 36 58  1  0
M  CHG  2  13  -1  21  -1
M  END
>  <UniqueID>  (84) 
84

>  <SMILES>  (84) 
CN1CCC2(C1)CN(c1ccc([N-]C(=O)C(=O)n3c(C([NH-])=O)cc4ccc(C(F)(F)F)cc43)cc1)C2

>  <Energy>  (84) 
160.7703344919442

>  <Genealogy>  (84) 
CN1CCC2(C1)CN(c1ccc([N-]C(=O)C(=O)n3c(C([NH-])=O)cc4ccc(C(F)(F)F)cc43)cc1)C2 (protonated)
CN1CCC2(C1)CN(c1ccc([N-]C(=O)C(=O)n3c(C([NH-])=O)cc4ccc(C(F)(F)F)cc43)cc1)C2 (3D coordinates assigned)
CN1CCC2(C1)CN(c1ccc([N-]C(=O)C(=O)n3c(C([NH-])=O)cc4ccc(C(F)(F)F)cc43)cc1)C2 (nonaromatic ring conformer: 160.7703344919442 kcal/mol)

>  <smiles>  (84) 
CN1CCC2(C1)CN(c1ccc(NC(=O)C(=O)n3c(C(N)=O)cc4ccc(C(F)(F)F)cc43)cc1)C2

>  <score_type>  (84) 
oracle

>  <origin>  (84) 
adg

>  <m_score__min__energy>  (84) 
-11.869999999999999

>  <m_primary>  (84) 
energy

$$$$
84:0
     RDKit          3D

 43 44  0  0  0  0  0  0  0  0999 V2000
   -3.8070   23.1870  -27.6680 C   0  0  0  0  0  0  0  0  0  0  0  0
   -2.8760   22.7170  -28.6990 N   0  0  0  0  0  0  0  0  0  0  0  0
   -3.4460   21.9430  -29.7670 C   0  0  0  0  0  0  0  0  0  0  0  0
   -3.4610   20.6860  -29.6800 O   0  0  0  0  0  0  0  0  0  0  0  0
   -3.9490   22.6060  -30.9820 C   0  0  0  0  0  0  0  0  0  0  0  0
   -3.1330   22.9870  -31.8650 O   0  0  0  0  0  0  0  0  0  0  0  0
   -5.3580   22.7770  -31.2020 N   0  0  0  0  0  0  0  0  0  0  0  0
   -6.1120   23.8670  -30.8890 C   0  0  0  0  0  0  0  0  0  0  0  0
   -5.5940   25.1620  -30.3990 C   0  0  0  0  0  0  0  0  0  0  0  0
   -4.2250   25.5300  -30.5720 N   0  0  0  0  0  0  0  0  0  0  0  0
   -6.3870   25.9790  -29.8580 O   0  0  0  0  0  0  0  0  0  0  0  0
   -7.4620   23.6090  -31.1060 C   0  0  0  0  0  0  0  0  0  0  0  0
   -7.5140   22.3160  -31.5750 C   0  0  0  0  0  0  0  0  0  0  0  0
   -8.6080   21.5330  -31.9270 C   0  0  0  0  0  0  0  0  0  0  0  0
   -8.3690   20.2100  -32.3370 C   0  0  0  0  0  0  0  0  0  0  0  0
   -7.0490   19.6940  -32.3920 C   0  0  0  0  0  0  0  0  0  0  0  0
   -6.8090   18.2590  -32.7860 C   0  0  0  0  0  0  0  0  0  0  0  0
   -6.4650   18.1720  -34.1230 F   0  0  0  0  0  0  0  0  0  0  0  0
   -7.9610   17.5270  -32.5670 F   0  0  0  0  0  0  0  0  0  0  0  0
   -5.7790   17.7120  -32.0390 F   0  0  0  0  0  0  0  0  0  0  0  0
   -5.9650   20.5130  -31.9950 C   0  0  0  0  0  0  0  0  0  0  0  0
   -6.2300   21.8330  -31.6190 C   0  0  0  0  0  0  0  0  0  0  0  0
   -1.4180   22.9990  -28.6090 C   0  0  0  0  0  0  0  0  0  0  0  0
   -0.6110   22.2360  -29.6840 C   0  0  0  0  0  0  0  0  0  0  0  0
   -0.9060   22.5610  -27.2200 C   0  0  0  0  0  0  0  0  0  0  0  0
   -1.1760   24.4780  -28.8260 C   0  0  0  0  0  0  0  0  0  0  0  0
   -0.0740   24.9910  -28.4900 O   0  0  0  0  0  0  0  0  0  0  0  0
   -2.1780   25.3000  -29.3350 O   0  0  0  0  0  0  0  0  0  0  0  0
   -3.3889   22.9759  -26.6727 H   0  0  0  0  0  0  0  0  0  0  0  0
   -3.9605   24.2706  -27.7790 H   0  0  0  0  0  0  0  0  0  0  0  0
   -4.7700   22.6670  -27.7790 H   0  0  0  0  0  0  0  0  0  0  0  0
   -3.8680   26.4220  -30.1620 H   0  0  0  0  0  0  0  0  0  0  0  0
   -3.5870   24.9750  -31.1830 H   0  0  0  0  0  0  0  0  0  0  0  0
   -8.3074   24.2926  -30.9385 H   0  0  0  0  0  0  0  0  0  0  0  0
   -9.6302   21.9371  -31.8858 H   0  0  0  0  0  0  0  0  0  0  0  0
   -9.2159   19.5670  -32.6186 H   0  0  0  0  0  0  0  0  0  0  0  0
   -4.9377   20.1198  -31.9826 H   0  0  0  0  0  0  0  0  0  0  0  0
    0.1046   21.5595  -29.1938 H   0  0  0  0  0  0  0  0  0  0  0  0
   -1.2987   21.6501  -30.3116 H   0  0  0  0  0  0  0  0  0  0  0  0
   -0.0646   22.9554  -30.3116 H   0  0  0  0  0  0  0  0  0  0  0  0
   -1.4934   23.0635  -26.4375 H   0  0  0  0  0  0  0  0  0  0  0  0
   -1.0137   21.4712  -27.1164 H   0  0  0  0  0  0  0  0  0  0  0  0
    0.1540   22.8362  -27.1164 H   0  0  0  0  0  0  0  0  0  0  0  0
  1  2  1  0
  2  3  1  0
  3  4  2  0
  3  5  1  0
  5  6  2  0
  5  7  1  0
  7  8  1  0
  8  9  1  0
  9 10  1  0
  9 11  2  0
  8 12  2  0
 12 13  1  0
 13 14  2  0
 14 15  1  0
 15 16  2  0
 16 17  1  0
 17 18  1  0
 17 19  1  0
 17 20  1  0
 16 21  1  0
 21 22  2  0
  2 23  1  0
 23 24  1  0
 23 25  1  0
 23 26  1  0
 26 27  2  0
 26 28  1  0
 22  7  1  0
 22 13  1  0
  1 29  1  0
  1 30  1  0
  1 31  1  0
 10 32  1  0
 10 33  1  0
 12 34  1  0
 14 35  1  0
 15 36  1  0
 21 37  1  0
 24 38  1  0
 24 39  1  0
 24 40  1  0
 25 41  1  0
 25 42  1  0
 25 43  1  0
M  CHG  1  28  -1
M  END
>  <UniqueID>  (85) 
85

>  <SMILES>  (85) 
CN(C(=O)C(=O)n1c(C(N)=O)cc2ccc(C(F)(F)F)cc21)C(C)(C)C(=O)[O-]

>  <Energy>  (85) 
89.06938504124365

>  <Genealogy>  (85) 
CN(C(=O)C(=O)n1c(C(N)=O)cc2ccc(C(F)(F)F)cc21)C(C)(C)C(=O)[O-] (protonated)
CN(C(=O)C(=O)n1c(C(N)=O)cc2ccc(C(F)(F)F)cc21)C(C)(C)C(=O)[O-] (3D coordinates assigned)
CN(C(=O)C(=O)n1c(C(N)=O)cc2ccc(C(F)(F)F)cc21)C(C)(C)C(=O)[O-] (optimized conformer: 89.06938504124365 kcal/mol)

>  <smiles>  (85) 
CN(C(=O)C(=O)n1c(C(N)=O)cc2ccc(C(F)(F)F)cc21)C(C)(C)C(=O)O

>  <score_type>  (85) 
oracle

>  <origin>  (85) 
adg

>  <m_score__min__energy>  (85) 
-11.18

>  <m_primary>  (85) 
energy

$$$$
85:0
     RDKit          3D

 43 44  0  0  0  0  0  0  0  0999 V2000
   -5.0740   16.5430  -32.7250 C   0  0  0  0  0  0  0  0  0  0  0  0
   -5.0720   17.5430  -33.7360 O   0  0  0  0  0  0  0  0  0  0  0  0
   -6.1070   18.4730  -33.8760 C   0  0  0  0  0  0  0  0  0  0  0  0
   -6.1220   19.2800  -34.8450 O   0  0  0  0  0  0  0  0  0  0  0  0
   -7.1780   18.5400  -32.8360 C   0  0  0  0  0  0  0  0  0  0  0  0
   -7.2640   19.9320  -32.2780 C   0  0  0  0  0  0  0  0  0  0  0  0
   -8.5280   20.5200  -32.0220 C   0  0  0  0  0  0  0  0  0  0  0  0
   -8.6210   21.8380  -31.5440 C   0  0  0  0  0  0  0  0  0  0  0  0
   -7.4380   22.5420  -31.3360 C   0  0  0  0  0  0  0  0  0  0  0  0
   -7.2410   23.8360  -30.9140 C   0  0  0  0  0  0  0  0  0  0  0  0
   -5.8600   24.0180  -30.9100 C   0  0  0  0  0  0  0  0  0  0  0  0
   -5.2010   25.2560  -30.4440 C   0  0  0  0  0  0  0  0  0  0  0  0
   -3.8700   25.5520  -30.8590 N   0  0  0  0  0  0  0  0  0  0  0  0
   -5.8150   26.0750  -29.7110 O   0  0  0  0  0  0  0  0  0  0  0  0
   -5.2270   22.8820  -31.3200 N   0  0  0  0  0  0  0  0  0  0  0  0
   -3.8210   22.6890  -31.5320 C   0  0  0  0  0  0  0  0  0  0  0  0
   -2.9990   23.0960  -30.6680 O   0  0  0  0  0  0  0  0  0  0  0  0
   -3.3820   22.0260  -32.6870 O   0  0  0  0  0  0  0  0  0  0  0  0
   -2.5810   20.8350  -32.7340 C   0  0  0  0  0  0  0  0  0  0  0  0
   -2.7340   20.1340  -31.3760 C   0  0  0  0  0  0  0  0  0  0  0  0
   -3.0800   19.8880  -33.8410 C   0  0  0  0  0  0  0  0  0  0  0  0
   -1.0980   21.1890  -32.9490 C   0  0  0  0  0  0  0  0  0  0  0  0
   -6.2080   21.9870  -31.5740 C   0  0  0  0  0  0  0  0  0  0  0  0
   -6.0850   20.6820  -32.0650 C   0  0  0  0  0  0  0  0  0  0  0  0
   -5.0730   17.0225  -31.7350 H   0  0  0  0  0  0  0  0  0  0  0  0
   -5.9734   15.9183  -32.8290 H   0  0  0  0  0  0  0  0  0  0  0  0
   -4.1771   15.9147  -32.8290 H   0  0  0  0  0  0  0  0  0  0  0  0
   -8.1431   18.2684  -33.2886 H   0  0  0  0  0  0  0  0  0  0  0  0
   -6.9374   17.8388  -32.0233 H   0  0  0  0  0  0  0  0  0  0  0  0
   -9.4450   19.9389  -32.1992 H   0  0  0  0  0  0  0  0  0  0  0  0
   -9.5985   22.2995  -31.3404 H   0  0  0  0  0  0  0  0  0  0  0  0
   -8.0110   24.5715  -30.6381 H   0  0  0  0  0  0  0  0  0  0  0  0
   -3.0500   25.2490  -30.2890 H   0  0  0  0  0  0  0  0  0  0  0  0
   -2.5750   20.8625  -30.5673 H   0  0  0  0  0  0  0  0  0  0  0  0
   -3.7458   19.7102  -31.2940 H   0  0  0  0  0  0  0  0  0  0  0  0
   -1.9908   19.3272  -31.2940 H   0  0  0  0  0  0  0  0  0  0  0  0
   -3.5464   19.0029  -33.3837 H   0  0  0  0  0  0  0  0  0  0  0  0
   -3.8196   20.4110  -34.4650 H   0  0  0  0  0  0  0  0  0  0  0  0
   -2.2305   19.5736  -34.4650 H   0  0  0  0  0  0  0  0  0  0  0  0
   -0.6040   21.3069  -31.9733 H   0  0  0  0  0  0  0  0  0  0  0  0
   -0.6067   20.3829  -33.5137 H   0  0  0  0  0  0  0  0  0  0  0  0
   -1.0238   22.1301  -33.5137 H   0  0  0  0  0  0  0  0  0  0  0  0
   -5.0959   20.2511  -32.2796 H   0  0  0  0  0  0  0  0  0  0  0  0
  1  2  1  0
  2  3  1  0
  3  4  2  0
  3  5  1  0
  5  6  1  0
  6  7  2  0
  7  8  1  0
  8  9  2  0
  9 10  1  0
 10 11  2  0
 11 12  1  0
 12 13  1  0
 12 14  2  0
 11 15  1  0
 15 16  1  0
 16 17  2  0
 16 18  1  0
 18 19  1  0
 19 20  1  0
 19 21  1  0
 19 22  1  0
 15 23  1  0
 23 24  2  0
 24  6  1  0
 23  9  1  0
  1 25  1  0
  1 26  1  0
  1 27  1  0
  5 28  1  0
  5 29  1  0
  7 30  1  0
  8 31  1  0
 10 32  1  0
 13 33  1  0
 20 34  1  0
 20 35  1  0
 20 36  1  0
 21 37  1  0
 21 38  1  0
 21 39  1  0
 22 40  1  0
 22 41  1  0
 22 42  1  0
 24 43  1  0
M  CHG  1  13  -1
M  END
>  <UniqueID>  (86) 
86

>  <SMILES>  (86) 
COC(=O)Cc1ccc2cc(C([NH-])=O)n(C(=O)OC(C)(C)C)c2c1

>  <Energy>  (86) 
72.27750876522686

>  <Genealogy>  (86) 
COC(=O)Cc1ccc2cc(C([NH-])=O)n(C(=O)OC(C)(C)C)c2c1 (protonated)
COC(=O)Cc1ccc2cc(C([NH-])=O)n(C(=O)OC(C)(C)C)c2c1 (3D coordinates assigned)
COC(=O)Cc1ccc2cc(C([NH-])=O)n(C(=O)OC(C)(C)C)c2c1 (optimized conformer: 72.27750876522686 kcal/mol)

>  <smiles>  (86) 
COC(=O)Cc1ccc2cc(C(N)=O)n(C(=O)OC(C)(C)C)c2c1

>  <score_type>  (86) 
oracle

>  <origin>  (86) 
adg

>  <m_score__min__energy>  (86) 
-9.8800000000000008

>  <m_primary>  (86) 
energy

$$$$
86:0
     RDKit          3D

 28 29  0  0  0  0  0  0  0  0999 V2000
   -4.8590   17.0440  -34.3690 N   0  0  0  0  0  0  0  0  0  0  0  0
   -5.3600   18.3770  -34.4710 C   0  0  0  0  0  0  0  0  0  0  0  0
   -6.1000   18.6860  -35.4420 O   0  0  0  0  0  0  0  0  0  0  0  0
   -4.9730   19.4160  -33.4950 C   0  0  0  0  0  0  0  0  0  0  0  0
   -5.8940   20.1250  -32.7290 C   0  0  0  0  0  0  0  0  0  0  0  0
   -5.1470   21.0290  -32.0100 C   0  0  0  0  0  0  0  0  0  0  0  0
   -5.5510   21.9730  -31.0700 C   0  0  0  0  0  0  0  0  0  0  0  0
   -4.5580   22.7480  -30.4480 C   0  0  0  0  0  0  0  0  0  0  0  0
   -3.1910   22.5650  -30.7700 C   0  0  0  0  0  0  0  0  0  0  0  0
   -2.1360   23.3660  -30.0600 C   0  0  0  0  0  0  0  0  0  0  0  0
   -2.8580   24.8850  -29.3670 P   0  0  0  0  0  0  0  0  0  0  0  0
   -3.6620   24.5510  -28.1310 O   0  0  0  0  0  0  0  0  0  0  0  0
   -1.6260   25.9690  -28.9610 O   0  0  0  0  0  0  0  0  0  0  0  0
   -3.8730   25.5960  -30.5180 O   0  0  0  0  0  0  0  0  0  0  0  0
   -2.8170   21.5880  -31.7210 C   0  0  0  0  0  0  0  0  0  0  0  0
   -3.8290   20.8440  -32.3420 C   0  0  0  0  0  0  0  0  0  0  0  0
   -3.7050   19.8510  -33.2530 N   0  0  0  0  0  0  0  0  0  0  0  0
   -2.4800   19.2880  -33.7550 C   0  0  0  0  0  0  0  0  0  0  0  0
   -1.5770   20.0320  -34.2170 O   0  0  0  0  0  0  0  0  0  0  0  0
   -2.2790   17.9130  -33.7270 O   0  0  0  0  0  0  0  0  0  0  0  0
   -4.1170   16.7980  -33.6770 H   0  0  0  0  0  0  0  0  0  0  0  0
   -5.1710   16.3140  -35.0470 H   0  0  0  0  0  0  0  0  0  0  0  0
   -6.9855   19.9910  -32.7040 H   0  0  0  0  0  0  0  0  0  0  0  0
   -6.6142   22.1078  -30.8221 H   0  0  0  0  0  0  0  0  0  0  0  0
   -4.8452   23.5048  -29.7032 H   0  0  0  0  0  0  0  0  0  0  0  0
   -1.7089   22.7626  -29.2454 H   0  0  0  0  0  0  0  0  0  0  0  0
   -1.3492   23.6389  -30.7787 H   0  0  0  0  0  0  0  0  0  0  0  0
   -1.7587   21.4163  -31.9671 H   0  0  0  0  0  0  0  0  0  0  0  0
  1  2  1  0
  2  3  2  0
  2  4  1  0
  4  5  2  0
  5  6  1  0
  6  7  2  0
  7  8  1  0
  8  9  2  0
  9 10  1  0
 10 11  1  0
 11 12  2  0
 11 13  1  0
 11 14  1  0
  9 15  1  0
 15 16  2  0
 16 17  1  0
 17 18  1  0
 18 19  2  0
 18 20  1  0
 17  4  1  0
 16  6  1  0
  1 21  1  0
  1 22  1  0
  5 23  1  0
  7 24  1  0
  8 25  1  0
 10 26  1  0
 10 27  1  0
 15 28  1  0
M  CHG  3  13  -1  14  -1  20  -1
M  END
>  <UniqueID>  (87) 
87

>  <SMILES>  (87) 
NC(=O)c1cc2ccc(CP(=O)([O-])[O-])cc2n1C(=O)[O-]

>  <Energy>  (87) 
63.66694894895853

>  <Genealogy>  (87) 
NC(=O)c1cc2ccc(CP(=O)([O-])[O-])cc2n1C(=O)[O-] (protonated)
NC(=O)c1cc2ccc(CP(=O)([O-])[O-])cc2n1C(=O)[O-] (3D coordinates assigned)
NC(=O)c1cc2ccc(CP(=O)([O-])[O-])cc2n1C(=O)[O-] (optimized conformer: 63.66694894895853 kcal/mol)

>  <smiles>  (87) 
NC(=O)c1cc2ccc(CP(=O)(O)O)cc2n1C(=O)O

>  <score_type>  (87) 
oracle

>  <origin>  (87) 
adg

>  <m_score__min__energy>  (87) 
-10.720000000000001

>  <m_primary>  (87) 
energy

$$$$
87:0
     RDKit          3D

 41 42  0  0  0  0  0  0  0  0999 V2000
   -3.1350   18.9830  -26.5540 C   0  0  0  0  0  0  0  0  0  0  0  0
   -2.2740   19.8620  -27.0760 C   0  0  0  0  0  0  0  0  0  0  0  0
   -2.7420   21.0930  -27.8020 C   0  0  0  0  0  0  0  0  0  0  0  0
   -1.6180   22.1260  -27.9920 C   0  0  0  0  0  0  0  0  0  0  0  0
   -1.7320   22.9190  -29.3070 C   0  0  1  0  0  0  0  0  0  0  0  0
   -3.1020   23.0240  -29.6890 O   0  0  0  0  0  0  0  0  0  0  0  0
   -3.5780   22.6340  -30.9510 C   0  0  0  0  0  0  0  0  0  0  0  0
   -2.7740   22.2380  -31.8340 O   0  0  0  0  0  0  0  0  0  0  0  0
   -4.9900   22.6880  -31.2290 N   0  0  0  0  0  0  0  0  0  0  0  0
   -5.8510   23.6950  -30.9020 C   0  0  0  0  0  0  0  0  0  0  0  0
   -5.4690   25.0170  -30.3660 C   0  0  0  0  0  0  0  0  0  0  0  0
   -4.1240   25.4850  -30.4710 N   0  0  0  0  0  0  0  0  0  0  0  0
   -6.3520   25.7660  -29.8680 O   0  0  0  0  0  0  0  0  0  0  0  0
   -7.1600   23.3580  -31.2270 C   0  0  0  0  0  0  0  0  0  0  0  0
   -7.0790   22.1060  -31.7900 C   0  0  0  0  0  0  0  0  0  0  0  0
   -8.0850   21.2960  -32.3050 C   0  0  0  0  0  0  0  0  0  0  0  0
   -7.7220   20.0360  -32.8150 C   0  0  0  0  0  0  0  0  0  0  0  0
   -6.3700   19.6100  -32.7930 C   0  0  0  0  0  0  0  0  0  0  0  0
   -5.9860   18.2620  -33.3330 C   0  0  0  0  0  0  0  0  0  0  0  0
   -6.1900   18.2320  -34.6970 F   0  0  0  0  0  0  0  0  0  0  0  0
   -4.6510   18.0200  -33.0670 F   0  0  0  0  0  0  0  0  0  0  0  0
   -5.3750   20.4550  -32.2560 C   0  0  0  0  0  0  0  0  0  0  0  0
   -5.7600   21.7180  -31.7760 C   0  0  0  0  0  0  0  0  0  0  0  0
   -1.1740   24.3030  -29.1700 C   0  0  0  0  0  0  0  0  0  0  0  0
    0.0510   24.4770  -28.9290 O   0  0  0  0  0  0  0  0  0  0  0  0
   -2.0100   25.4050  -29.2930 O   0  0  0  0  0  0  0  0  0  0  0  0
   -2.7607   18.0920  -26.0286 H   0  0  0  0  0  0  0  0  0  0  0  0
   -4.2179   19.1506  -26.6498 H   0  0  0  0  0  0  0  0  0  0  0  0
   -1.1942   19.6801  -26.9718 H   0  0  0  0  0  0  0  0  0  0  0  0
   -3.1203   20.7969  -28.7915 H   0  0  0  0  0  0  0  0  0  0  0  0
   -3.5287   21.5622  -27.1930 H   0  0  0  0  0  0  0  0  0  0  0  0
   -1.6515   22.8361  -27.1526 H   0  0  0  0  0  0  0  0  0  0  0  0
   -0.6693   21.5705  -28.0291 H   0  0  0  0  0  0  0  0  0  0  0  0
   -1.1535   22.3765  -30.0693 H   0  0  0  0  0  0  0  0  0  0  0  0
   -3.3970   24.9070  -30.9400 H   0  0  0  0  0  0  0  0  0  0  0  0
   -3.8650   26.4370  -30.1300 H   0  0  0  0  0  0  0  0  0  0  0  0
   -8.0652   23.9624  -31.0681 H   0  0  0  0  0  0  0  0  0  0  0  0
   -9.1330   21.6302  -32.3134 H   0  0  0  0  0  0  0  0  0  0  0  0
   -8.4946   19.3751  -33.2348 H   0  0  0  0  0  0  0  0  0  0  0  0
   -6.6050   17.4904  -32.8519 H   0  0  0  0  0  0  0  0  0  0  0  0
   -4.3241   20.1326  -32.2144 H   0  0  0  0  0  0  0  0  0  0  0  0
  1  2  2  0
  2  3  1  0
  3  4  1  0
  4  5  1  0
  5  6  1  0
  6  7  1  0
  7  8  2  0
  7  9  1  0
  9 10  1  0
 10 11  1  0
 11 12  1  0
 11 13  2  0
 10 14  2  0
 14 15  1  0
 15 16  2  0
 16 17  1  0
 17 18  2  0
 18 19  1  0
 19 20  1  0
 19 21  1  0
 18 22  1  0
 22 23  2  0
  5 24  1  0
 24 25  2  0
 24 26  1  0
 23  9  1  0
 23 15  1  0
  1 27  1  0
  1 28  1  0
  2 29  1  0
  3 30  1  0
  3 31  1  0
  4 32  1  0
  4 33  1  0
  5 34  1  6
 12 35  1  0
 12 36  1  0
 14 37  1  0
 16 38  1  0
 17 39  1  0
 19 40  1  0
 22 41  1  0
M  CHG  1  26  -1
M  END
>  <UniqueID>  (88) 
88

>  <SMILES>  (88) 
C=CCC[C@@H](OC(=O)n1c(C(N)=O)cc2ccc(C(F)F)cc21)C(=O)[O-]

>  <Energy>  (88) 
73.07110402305324

>  <Genealogy>  (88) 
C=CCCC(OC(=O)n1c(C(N)=O)cc2ccc(C(F)F)cc21)C(=O)[O-] (protonated)
C=CCC[C@@H](OC(=O)n1c(C(N)=O)cc2ccc(C(F)F)cc21)C(=O)[O-] (chirality)
C=CCC[C@@H](OC(=O)n1c(C(N)=O)cc2ccc(C(F)F)cc21)C(=O)[O-] (3D coordinates assigned)
C=CCC[C@@H](OC(=O)n1c(C(N)=O)cc2ccc(C(F)F)cc21)C(=O)[O-] (optimized conformer: 73.07110402305324 kcal/mol)

>  <smiles>  (88) 
C=CCCC(OC(=O)n1c(C(N)=O)cc2ccc(C(F)F)cc21)C(=O)O

>  <score_type>  (88) 
oracle

>  <origin>  (88) 
adg

>  <m_score__min__energy>  (88) 
-10.75

>  <m_primary>  (88) 
energy

$$$$
88:0
     RDKit          3D

 39 41  0  0  0  0  0  0  0  0999 V2000
   -6.0380   24.3050  -31.7500 N   0  0  0  0  0  0  0  0  0  0  0  0
   -7.1440   23.4030  -31.7620 C   0  0  0  0  0  0  0  0  0  0  0  0
   -8.3090   23.8430  -31.5750 O   0  0  0  0  0  0  0  0  0  0  0  0
   -6.9490   21.9790  -32.0780 C   0  0  0  0  0  0  0  0  0  0  0  0
   -7.9590   21.0330  -31.9480 C   0  0  0  0  0  0  0  0  0  0  0  0
   -7.4000   19.8480  -32.3580 C   0  0  0  0  0  0  0  0  0  0  0  0
   -7.9740   18.5860  -32.4670 C   0  0  0  0  0  0  0  0  0  0  0  0
   -7.1770   17.5380  -32.9520 C   0  0  0  0  0  0  0  0  0  0  0  0
   -5.8240   17.7640  -33.3130 C   0  0  0  0  0  0  0  0  0  0  0  0
   -4.9970   16.6480  -33.8980 C   0  0  0  0  0  0  0  0  0  0  0  0
   -5.8130   15.5590  -34.1450 F   0  0  0  0  0  0  0  0  0  0  0  0
   -4.4060   17.0480  -35.0840 F   0  0  0  0  0  0  0  0  0  0  0  0
   -3.9930   16.2690  -33.0220 F   0  0  0  0  0  0  0  0  0  0  0  0
   -5.2850   19.0670  -33.2120 C   0  0  0  0  0  0  0  0  0  0  0  0
   -6.0950   20.0940  -32.7050 C   0  0  0  0  0  0  0  0  0  0  0  0
   -5.7930   21.4040  -32.5230 N   0  0  0  0  0  0  0  0  0  0  0  0
   -4.4910   22.0200  -32.6250 C   0  0  0  0  0  0  0  0  0  0  0  0
   -3.7900   21.8640  -33.6590 O   0  0  0  0  0  0  0  0  0  0  0  0
   -4.0180   22.8320  -31.5880 O   0  0  0  0  0  0  0  0  0  0  0  0
   -4.0880   22.4660  -30.2090 C   0  0  1  0  0  0  0  0  0  0  0  0
   -2.8070   21.7860  -29.7580 C   0  0  0  0  0  0  0  0  0  0  0  0
   -2.5180   22.1640  -28.4300 O   0  0  0  0  0  0  0  0  0  0  0  0
   -3.4630   23.1370  -28.0430 C   0  0  0  0  0  0  0  0  0  0  0  0
   -4.1880   23.6520  -29.2760 C   0  0  1  0  0  0  0  0  0  0  0  0
   -3.5190   24.8900  -29.8270 C   0  0  0  0  0  0  0  0  0  0  0  0
   -2.4280   25.2850  -29.3380 O   0  0  0  0  0  0  0  0  0  0  0  0
   -4.1120   25.6200  -30.8520 O   0  0  0  0  0  0  0  0  0  0  0  0
   -5.0840   23.9810  -32.0220 H   0  0  0  0  0  0  0  0  0  0  0  0
   -6.1830   25.3130  -31.5180 H   0  0  0  0  0  0  0  0  0  0  0  0
   -8.9867   21.1985  -31.5925 H   0  0  0  0  0  0  0  0  0  0  0  0
   -9.0223   18.4144  -32.1813 H   0  0  0  0  0  0  0  0  0  0  0  0
   -7.6061   16.5302  -33.0534 H   0  0  0  0  0  0  0  0  0  0  0  0
   -4.2505   19.2716  -33.5249 H   0  0  0  0  0  0  0  0  0  0  0  0
   -4.9807   21.8257  -30.1534 H   0  0  0  0  0  0  0  0  0  0  0  0
   -2.9332   20.6945  -29.8096 H   0  0  0  0  0  0  0  0  0  0  0  0
   -1.9788   22.0901  -30.4150 H   0  0  0  0  0  0  0  0  0  0  0  0
   -4.1899   22.6880  -27.3501 H   0  0  0  0  0  0  0  0  0  0  0  0
   -2.9492   23.9710  -27.5426 H   0  0  0  0  0  0  0  0  0  0  0  0
   -5.2251   23.9716  -29.0966 H   0  0  0  0  0  0  0  0  0  0  0  0
  1  2  1  0
  2  3  2  0
  2  4  1  0
  4  5  2  0
  5  6  1  0
  6  7  2  0
  7  8  1  0
  8  9  2  0
  9 10  1  0
 10 11  1  0
 10 12  1  0
 10 13  1  0
  9 14  1  0
 14 15  2  0
 15 16  1  0
 16 17  1  0
 17 18  2  0
 17 19  1  0
 19 20  1  0
 20 21  1  0
 21 22  1  0
 22 23  1  0
 23 24  1  0
 24 25  1  0
 25 26  2  0
 25 27  1  0
 16  4  1  0
 24 20  1  0
 15  6  1  0
  1 28  1  0
  1 29  1  0
  5 30  1  0
  7 31  1  0
  8 32  1  0
 14 33  1  0
 20 34  1  6
 21 35  1  0
 21 36  1  0
 23 37  1  0
 23 38  1  0
 24 39  1  1
M  CHG  1  27  -1
M  END
>  <UniqueID>  (89) 
89

>  <SMILES>  (89) 
NC(=O)c1cc2ccc(C(F)(F)F)cc2n1C(=O)O[C@H]1COC[C@H]1C(=O)[O-]

>  <Energy>  (89) 
83.14134765845424

>  <Genealogy>  (89) 
NC(=O)c1cc2ccc(C(F)(F)F)cc2n1C(=O)O[C@H]1COC[C@H]1C(=O)[O-] (protonated)
NC(=O)c1cc2ccc(C(F)(F)F)cc2n1C(=O)O[C@H]1COC[C@H]1C(=O)[O-] (3D coordinates assigned)
NC(=O)c1cc2ccc(C(F)(F)F)cc2n1C(=O)O[C@H]1COC[C@H]1C(=O)[O-] (nonaromatic ring conformer: 83.14134765845424 kcal/mol)

>  <smiles>  (89) 
NC(=O)c1cc2ccc(C(F)(F)F)cc2n1C(=O)O[C@H]1COC[C@H]1C(=O)O

>  <score_type>  (89) 
oracle

>  <origin>  (89) 
adg

>  <m_score__min__energy>  (89) 
-10.960000000000001

>  <m_primary>  (89) 
energy

$$$$
89:0
     RDKit          3D

 42 43  0  0  0  0  0  0  0  0999 V2000
   -1.1310   22.8410  -26.7340 C   0  0  0  0  0  0  0  0  0  0  0  0
   -1.2700   24.1720  -27.3370 N   0  0  0  0  0  0  0  0  0  0  0  0
   -1.1610   25.3690  -26.4970 C   0  0  0  0  0  0  0  0  0  0  0  0
   -1.5010   24.3290  -28.7530 C   0  0  0  0  0  0  0  0  0  0  0  0
   -1.5530   25.4880  -29.2520 O   0  0  0  0  0  0  0  0  0  0  0  0
   -1.6800   23.1490  -29.6750 C   0  0  0  0  0  0  0  0  0  0  0  0
   -3.0950   22.7590  -29.7770 N   0  0  0  0  0  0  0  0  0  0  0  0
   -3.8480   22.4210  -28.5660 C   0  0  0  0  0  0  0  0  0  0  0  0
   -3.7450   22.6240  -31.0590 C   0  0  0  0  0  0  0  0  0  0  0  0
   -3.0770   22.2660  -32.0660 O   0  0  0  0  0  0  0  0  0  0  0  0
   -5.1520   22.8700  -31.2070 N   0  0  0  0  0  0  0  0  0  0  0  0
   -5.8440   24.0000  -30.8950 C   0  0  0  0  0  0  0  0  0  0  0  0
   -5.2530   25.2790  -30.4480 C   0  0  0  0  0  0  0  0  0  0  0  0
   -3.9420   25.6600  -30.8530 N   0  0  0  0  0  0  0  0  0  0  0  0
   -5.9260   26.0600  -29.7240 O   0  0  0  0  0  0  0  0  0  0  0  0
   -7.2100   23.8060  -31.0960 C   0  0  0  0  0  0  0  0  0  0  0  0
   -7.3300   22.5150  -31.5580 C   0  0  0  0  0  0  0  0  0  0  0  0
   -8.4650   21.7830  -31.8960 C   0  0  0  0  0  0  0  0  0  0  0  0
   -8.2910   20.4520  -32.3110 C   0  0  0  0  0  0  0  0  0  0  0  0
   -6.9940   19.8800  -32.3970 C   0  0  0  0  0  0  0  0  0  0  0  0
   -6.8200   18.4330  -32.7780 C   0  0  0  0  0  0  0  0  0  0  0  0
   -7.9900   17.7230  -32.5710 F   0  0  0  0  0  0  0  0  0  0  0  0
   -6.4770   18.3230  -34.1150 F   0  0  0  0  0  0  0  0  0  0  0  0
   -5.8140   17.8780  -32.0080 F   0  0  0  0  0  0  0  0  0  0  0  0
   -5.8680   20.6520  -32.0280 C   0  0  0  0  0  0  0  0  0  0  0  0
   -6.0730   21.9750  -31.6240 C   0  0  0  0  0  0  0  0  0  0  0  0
   -1.1405   22.9323  -25.6378 H   0  0  0  0  0  0  0  0  0  0  0  0
   -1.9674   22.2033  -27.0561 H   0  0  0  0  0  0  0  0  0  0  0  0
   -0.1809   22.3899  -27.0561 H   0  0  0  0  0  0  0  0  0  0  0  0
   -1.1876   25.0767  -25.4369 H   0  0  0  0  0  0  0  0  0  0  0  0
   -0.2124   25.8827  -26.7120 H   0  0  0  0  0  0  0  0  0  0  0  0
   -2.0013   26.0456  -26.7120 H   0  0  0  0  0  0  0  0  0  0  0  0
   -1.3093   23.4167  -30.6754 H   0  0  0  0  0  0  0  0  0  0  0  0
   -1.1148   22.2993  -29.2645 H   0  0  0  0  0  0  0  0  0  0  0  0
   -3.2546   22.6874  -27.6789 H   0  0  0  0  0  0  0  0  0  0  0  0
   -4.7951   22.9803  -28.5551 H   0  0  0  0  0  0  0  0  0  0  0  0
   -4.0595   21.3416  -28.5551 H   0  0  0  0  0  0  0  0  0  0  0  0
   -3.0990   25.2950  -30.3580 H   0  0  0  0  0  0  0  0  0  0  0  0
   -8.0194   24.5304  -30.9223 H   0  0  0  0  0  0  0  0  0  0  0  0
   -9.4672   22.2329  -31.8399 H   0  0  0  0  0  0  0  0  0  0  0  0
   -9.1705   19.8453  -32.5726 H   0  0  0  0  0  0  0  0  0  0  0  0
   -4.8558   20.2224  -32.0580 H   0  0  0  0  0  0  0  0  0  0  0  0
  1  2  1  0
  2  3  1  0
  2  4  1  0
  4  5  2  0
  4  6  1  0
  6  7  1  0
  7  8  1  0
  7  9  1  0
  9 10  2  0
  9 11  1  0
 11 12  1  0
 12 13  1  0
 13 14  1  0
 13 15  2  0
 12 16  2  0
 16 17  1  0
 17 18  2  0
 18 19  1  0
 19 20  2  0
 20 21  1  0
 21 22  1  0
 21 23  1  0
 21 24  1  0
 20 25  1  0
 25 26  2  0
 26 11  1  0
 26 17  1  0
  1 27  1  0
  1 28  1  0
  1 29  1  0
  3 30  1  0
  3 31  1  0
  3 32  1  0
  6 33  1  0
  6 34  1  0
  8 35  1  0
  8 36  1  0
  8 37  1  0
 14 38  1  0
 16 39  1  0
 18 40  1  0
 19 41  1  0
 25 42  1  0
M  CHG  1  14  -1
M  END
>  <UniqueID>  (90) 
90

>  <SMILES>  (90) 
CN(C)C(=O)CN(C)C(=O)n1c(C([NH-])=O)cc2ccc(C(F)(F)F)cc21

>  <Energy>  (90) 
76.1557350920217

>  <Genealogy>  (90) 
CN(C)C(=O)CN(C)C(=O)n1c(C([NH-])=O)cc2ccc(C(F)(F)F)cc21 (protonated)
CN(C)C(=O)CN(C)C(=O)n1c(C([NH-])=O)cc2ccc(C(F)(F)F)cc21 (3D coordinates assigned)
CN(C)C(=O)CN(C)C(=O)n1c(C([NH-])=O)cc2ccc(C(F)(F)F)cc21 (optimized conformer: 76.1557350920217 kcal/mol)

>  <smiles>  (90) 
CN(C)C(=O)CN(C)C(=O)n1c(C(N)=O)cc2ccc(C(F)(F)F)cc21

>  <score_type>  (90) 
oracle

>  <origin>  (90) 
adg

>  <m_score__min__energy>  (90) 
-10.390000000000001

>  <m_primary>  (90) 
energy

$$$$
90:0
     RDKit          3D

 52 54  0  0  0  0  0  0  0  0999 V2000
   -1.7630   21.4870  -30.2870 C   0  0  0  0  0  0  0  0  0  0  0  0
   -2.6370   22.7160  -29.9720 C   0  0  0  0  0  0  0  0  0  0  0  0
   -1.7920   23.8360  -29.3340 C   0  0  0  0  0  0  0  0  0  0  0  0
   -3.7380   22.3030  -28.9830 C   0  0  0  0  0  0  0  0  0  0  0  0
   -3.2910   23.1890  -31.1580 O   0  0  0  0  0  0  0  0  0  0  0  0
   -4.2240   22.4810  -31.9320 C   0  0  0  0  0  0  0  0  0  0  0  0
   -3.8470   21.7300  -32.8700 O   0  0  0  0  0  0  0  0  0  0  0  0
   -5.6250   22.6170  -31.6430 N   0  0  0  0  0  0  0  0  0  0  0  0
   -6.2310   23.6220  -30.9500 C   0  0  0  0  0  0  0  0  0  0  0  0
   -5.5830   24.8680  -30.4920 C   0  0  0  0  0  0  0  0  0  0  0  0
   -5.8920   25.4360  -29.2190 N   0  0  0  0  0  0  0  0  0  0  0  0
   -4.7050   25.4100  -31.2130 O   0  0  0  0  0  0  0  0  0  0  0  0
   -7.5800   23.3410  -30.7550 C   0  0  0  0  0  0  0  0  0  0  0  0
   -7.7890   22.1250  -31.3650 C   0  0  0  0  0  0  0  0  0  0  0  0
   -8.9440   21.3590  -31.4570 C   0  0  0  0  0  0  0  0  0  0  0  0
   -8.8600   20.1160  -32.1050 C   0  0  0  0  0  0  0  0  0  0  0  0
   -7.6330   19.6500  -32.6430 C   0  0  0  0  0  0  0  0  0  0  0  0
   -7.6070   18.3510  -33.2770 N   0  0  0  0  0  0  0  0  0  0  0  0
   -6.4220   17.5800  -33.6840 C   0  0  0  0  0  0  0  0  0  0  0  0
   -5.7400   18.1900  -34.9260 C   0  0  0  0  0  0  0  0  0  0  0  0
   -4.4810   17.3930  -35.3410 C   0  0  0  0  0  0  0  0  0  0  0  0
   -3.8690   16.6330  -34.2340 N   0  0  0  0  0  0  0  0  0  0  0  0
   -3.9890   17.3370  -32.9530 C   0  0  0  0  0  0  0  0  0  0  0  0
   -5.4540   17.3370  -32.5000 C   0  0  0  0  0  0  0  0  0  0  0  0
   -6.4770   20.4620  -32.5170 C   0  0  0  0  0  0  0  0  0  0  0  0
   -6.5940   21.7070  -31.8900 C   0  0  0  0  0  0  0  0  0  0  0  0
   -1.4321   21.0217  -29.3468 H   0  0  0  0  0  0  0  0  0  0  0  0
   -2.3484   20.7604  -30.8696 H   0  0  0  0  0  0  0  0  0  0  0  0
   -0.8845   21.8014  -30.8696 H   0  0  0  0  0  0  0  0  0  0  0  0
   -1.8495   23.7597  -28.2382 H   0  0  0  0  0  0  0  0  0  0  0  0
   -0.7447   23.7329  -29.6543 H   0  0  0  0  0  0  0  0  0  0  0  0
   -2.1787   24.8147  -29.6543 H   0  0  0  0  0  0  0  0  0  0  0  0
   -3.3757   22.4389  -27.9533 H   0  0  0  0  0  0  0  0  0  0  0  0
   -4.6287   22.9281  -29.1438 H   0  0  0  0  0  0  0  0  0  0  0  0
   -3.9978   21.2463  -29.1438 H   0  0  0  0  0  0  0  0  0  0  0  0
   -6.4800   24.9220  -28.5270 H   0  0  0  0  0  0  0  0  0  0  0  0
   -5.4650   26.3460  -28.9330 H   0  0  0  0  0  0  0  0  0  0  0  0
   -8.3209   23.9587  -30.2263 H   0  0  0  0  0  0  0  0  0  0  0  0
   -9.8954   21.7151  -31.0352 H   0  0  0  0  0  0  0  0  0  0  0  0
   -9.7617   19.4927  -32.1970 H   0  0  0  0  0  0  0  0  0  0  0  0
   -8.5290   17.9280  -33.5300 H   0  0  0  0  0  0  0  0  0  0  0  0
   -6.7647   16.5815  -33.9932 H   0  0  0  0  0  0  0  0  0  0  0  0
   -6.4548   18.1868  -35.7621 H   0  0  0  0  0  0  0  0  0  0  0  0
   -5.4282   19.2147  -34.6756 H   0  0  0  0  0  0  0  0  0  0  0  0
   -4.7638   16.6849  -36.1338 H   0  0  0  0  0  0  0  0  0  0  0  0
   -3.7337   18.1256  -35.6799 H   0  0  0  0  0  0  0  0  0  0  0  0
   -2.8520   16.5100  -34.4450 H   0  0  0  0  0  0  0  0  0  0  0  0
   -3.3723   16.8288  -32.1971 H   0  0  0  0  0  0  0  0  0  0  0  0
   -3.6443   18.3747  -33.0733 H   0  0  0  0  0  0  0  0  0  0  0  0
   -5.6859   16.3629  -32.0446 H   0  0  0  0  0  0  0  0  0  0  0  0
   -5.5879   18.1539  -31.7756 H   0  0  0  0  0  0  0  0  0  0  0  0
   -5.5065   20.1192  -32.9051 H   0  0  0  0  0  0  0  0  0  0  0  0
  1  2  1  0
  2  3  1  0
  2  4  1  0
  2  5  1  0
  5  6  1  0
  6  7  2  0
  6  8  1  0
  8  9  1  0
  9 10  1  0
 10 11  1  0
 10 12  2  0
  9 13  2  0
 13 14  1  0
 14 15  2  0
 15 16  1  0
 16 17  2  0
 17 18  1  0
 18 19  1  0
 19 20  1  0
 20 21  1  0
 21 22  1  0
 22 23  1  0
 23 24  1  0
 17 25  1  0
 25 26  2  0
 26  8  1  0
 26 14  1  0
 24 19  1  0
  1 27  1  0
  1 28  1  0
  1 29  1  0
  3 30  1  0
  3 31  1  0
  3 32  1  0
  4 33  1  0
  4 34  1  0
  4 35  1  0
 11 36  1  0
 11 37  1  0
 13 38  1  0
 15 39  1  0
 16 40  1  0
 18 41  1  0
 19 42  1  0
 20 43  1  0
 20 44  1  0
 21 45  1  0
 21 46  1  0
 22 47  1  0
 23 48  1  0
 23 49  1  0
 24 50  1  0
 24 51  1  0
 25 52  1  0
M  END
>  <UniqueID>  (91) 
91

>  <SMILES>  (91) 
CC(C)(C)OC(=O)n1c(C(N)=O)cc2ccc(NC3CCNCC3)cc21

>  <Energy>  (91) 
93.51778744757353

>  <Genealogy>  (91) 
CC(C)(C)OC(=O)n1c(C(N)=O)cc2ccc(NC3CCNCC3)cc21 (3D coordinates assigned)
CC(C)(C)OC(=O)n1c(C(N)=O)cc2ccc(NC3CCNCC3)cc21 (nonaromatic ring conformer: 93.51778744757353 kcal/mol)

>  <smiles>  (91) 
CC(C)(C)OC(=O)n1c(C(N)=O)cc2ccc(NC3CCNCC3)cc21

>  <score_type>  (91) 
oracle

>  <origin>  (91) 
adg

>  <m_score__min__energy>  (91) 
-9.9900000000000002

>  <m_primary>  (91) 
energy

$$$$
91:0
     RDKit          3D

 53 54  0  0  0  0  0  0  0  0999 V2000
   -2.2090   19.7300  -33.3990 C   0  0  0  0  0  0  0  0  0  0  0  0
   -3.5170   19.7990  -33.9270 O   0  0  0  0  0  0  0  0  0  0  0  0
   -3.9970   18.5020  -34.2380 C   0  0  0  0  0  0  0  0  0  0  0  0
   -4.4260   17.7480  -32.9590 C   0  0  0  0  0  0  0  0  0  0  0  0
   -5.9060   17.9440  -32.4710 C   0  0  0  0  0  0  0  0  0  0  0  0
   -6.8740   17.4440  -33.5720 C   0  0  0  0  0  0  0  0  0  0  0  0
   -6.1360   17.1310  -31.1750 C   0  0  0  0  0  0  0  0  0  0  0  0
   -6.2150   19.4320  -32.1590 C   0  0  0  0  0  0  0  0  0  0  0  0
   -7.5420   19.9350  -32.3340 C   0  0  0  0  0  0  0  0  0  0  0  0
   -7.8630   21.2760  -32.0640 C   0  0  0  0  0  0  0  0  0  0  0  0
   -6.8550   22.1070  -31.5990 C   0  0  0  0  0  0  0  0  0  0  0  0
   -6.8820   23.4470  -31.2720 C   0  0  0  0  0  0  0  0  0  0  0  0
   -5.5830   23.7540  -30.8660 C   0  0  0  0  0  0  0  0  0  0  0  0
   -5.1560   25.0920  -30.4040 C   0  0  0  0  0  0  0  0  0  0  0  0
   -3.9190   25.6560  -30.8310 N   0  0  0  0  0  0  0  0  0  0  0  0
   -5.8880   25.7420  -29.6110 O   0  0  0  0  0  0  0  0  0  0  0  0
   -4.7960   22.6460  -30.9370 N   0  0  0  0  0  0  0  0  0  0  0  0
   -3.4000   22.5290  -30.6400 C   0  0  0  0  0  0  0  0  0  0  0  0
   -2.5570   23.0800  -31.4000 O   0  0  0  0  0  0  0  0  0  0  0  0
   -2.9590   21.8410  -29.4090 C   0  0  0  0  0  0  0  0  0  0  0  0
   -3.5070   20.7470  -29.0950 O   0  0  0  0  0  0  0  0  0  0  0  0
   -1.9820   22.4520  -28.5280 N   0  0  2  0  0  0  0  0  0  0  0  0
   -1.7880   21.6690  -27.2910 C   0  0  0  0  0  0  0  0  0  0  0  0
   -2.3230   23.8690  -28.2450 C   0  0  0  0  0  0  0  0  0  0  0  0
   -1.2860   24.8450  -28.7330 C   0  0  0  0  0  0  0  0  0  0  0  0
   -1.6010   26.0420  -28.9650 O   0  0  0  0  0  0  0  0  0  0  0  0
    0.0220   24.4250  -28.9430 O   0  0  0  0  0  0  0  0  0  0  0  0
   -5.5860   21.6520  -31.3880 C   0  0  0  0  0  0  0  0  0  0  0  0
   -5.2290   20.3270  -31.6510 C   0  0  0  0  0  0  0  0  0  0  0  0
   -2.2566   19.7325  -32.3000 H   0  0  0  0  0  0  0  0  0  0  0  0
   -1.7231   18.8050  -33.7429 H   0  0  0  0  0  0  0  0  0  0  0  0
   -1.6285   20.5988  -33.7429 H   0  0  0  0  0  0  0  0  0  0  0  0
   -4.8629   18.5907  -34.9106 H   0  0  0  0  0  0  0  0  0  0  0  0
   -3.1880   17.9363  -34.7232 H   0  0  0  0  0  0  0  0  0  0  0  0
   -4.2781   16.6737  -33.1432 H   0  0  0  0  0  0  0  0  0  0  0  0
   -3.8049   18.1743  -32.1574 H   0  0  0  0  0  0  0  0  0  0  0  0
   -7.7581   16.9873  -33.1031 H   0  0  0  0  0  0  0  0  0  0  0  0
   -7.1878   18.2928  -34.1974 H   0  0  0  0  0  0  0  0  0  0  0  0
   -6.3635   16.6968  -34.1974 H   0  0  0  0  0  0  0  0  0  0  0  0
   -5.9540   17.7743  -30.3015 H   0  0  0  0  0  0  0  0  0  0  0  0
   -7.1730   16.7648  -31.1510 H   0  0  0  0  0  0  0  0  0  0  0  0
   -5.4445   16.2758  -31.1510 H   0  0  0  0  0  0  0  0  0  0  0  0
   -8.3309   19.2554  -32.6887 H   0  0  0  0  0  0  0  0  0  0  0  0
   -8.8840   21.6555  -32.2170 H   0  0  0  0  0  0  0  0  0  0  0  0
   -7.7442   24.1284  -31.3210 H   0  0  0  0  0  0  0  0  0  0  0  0
   -3.0090   25.2900  -30.4730 H   0  0  0  0  0  0  0  0  0  0  0  0
   -1.0550   22.4480  -29.0190 H   0  0  0  0  0  0  0  0  0  0  0  0
   -1.9487   22.3178  -26.4174 H   0  0  0  0  0  0  0  0  0  0  0  0
   -2.5072   20.8370  -27.2671 H   0  0  0  0  0  0  0  0  0  0  0  0
   -0.7636   21.2690  -27.2671 H   0  0  0  0  0  0  0  0  0  0  0  0
   -3.2791   24.1019  -28.7366 H   0  0  0  0  0  0  0  0  0  0  0  0
   -2.3792   23.9762  -27.1517 H   0  0  0  0  0  0  0  0  0  0  0  0
   -4.2014   19.9795  -31.4685 H   0  0  0  0  0  0  0  0  0  0  0  0
  1  2  1  0
  2  3  1  0
  3  4  1  0
  4  5  1  0
  5  6  1  0
  5  7  1  0
  5  8  1  0
  8  9  2  0
  9 10  1  0
 10 11  2  0
 11 12  1  0
 12 13  2  0
 13 14  1  0
 14 15  1  0
 14 16  2  0
 13 17  1  0
 17 18  1  0
 18 19  2  0
 18 20  1  0
 20 21  2  0
 20 22  1  0
 22 23  1  0
 22 24  1  0
 24 25  1  0
 25 26  2  0
 25 27  1  0
 17 28  1  0
 28 29  2  0
 29  8  1  0
 28 11  1  0
  1 30  1  0
  1 31  1  0
  1 32  1  0
  3 33  1  0
  3 34  1  0
  4 35  1  0
  4 36  1  0
  6 37  1  0
  6 38  1  0
  6 39  1  0
  7 40  1  0
  7 41  1  0
  7 42  1  0
  9 43  1  0
 10 44  1  0
 12 45  1  0
 15 46  1  0
 22 47  1  6
 23 48  1  0
 23 49  1  0
 23 50  1  0
 24 51  1  0
 24 52  1  0
 29 53  1  0
M  CHG  3  15  -1  22   1  27  -1
M  END
>  <UniqueID>  (92) 
92

>  <SMILES>  (92) 
COCCC(C)(C)c1ccc2cc(C([NH-])=O)n(C(=O)C(=O)[N@H+](C)CC(=O)[O-])c2c1

>  <Energy>  (92) 
103.7132111605217

>  <Genealogy>  (92) 
COCCC(C)(C)c1ccc2cc(C([NH-])=O)n(C(=O)C(=O)[NH+](C)CC(=O)[O-])c2c1 (protonated)
COCCC(C)(C)c1ccc2cc(C([NH-])=O)n(C(=O)C(=O)[N@H+](C)CC(=O)[O-])c2c1 (chirality)
COCCC(C)(C)c1ccc2cc(C([NH-])=O)n(C(=O)C(=O)[N@H+](C)CC(=O)[O-])c2c1 (3D coordinates assigned)
COCCC(C)(C)c1ccc2cc(C([NH-])=O)n(C(=O)C(=O)[N@H+](C)CC(=O)[O-])c2c1 (optimized conformer: 103.7132111605217 kcal/mol)

>  <smiles>  (92) 
COCCC(C)(C)c1ccc2cc(C(N)=O)n(C(=O)C(=O)N(C)CC(=O)O)c2c1

>  <score_type>  (92) 
oracle

>  <origin>  (92) 
adg

>  <m_score__min__energy>  (92) 
-11.9

>  <m_primary>  (92) 
energy

$$$$
92:0
     RDKit          3D

 53 54  0  0  0  0  0  0  0  0999 V2000
   -6.1240   17.0830  -30.6870 C   0  0  0  0  0  0  0  0  0  0  0  0
   -7.2050   17.4720  -31.6890 C   0  0  0  0  0  0  0  0  0  0  0  0
   -6.6890   18.4560  -32.6570 N   0  0  0  0  0  0  0  0  0  0  0  0
   -6.8690   19.8430  -32.3150 C   0  0  0  0  0  0  0  0  0  0  0  0
   -8.1590   20.4190  -32.3650 C   0  0  0  0  0  0  0  0  0  0  0  0
   -8.3540   21.7650  -32.0130 C   0  0  0  0  0  0  0  0  0  0  0  0
   -7.2400   22.5040  -31.6230 C   0  0  0  0  0  0  0  0  0  0  0  0
   -7.1480   23.8090  -31.1930 C   0  0  0  0  0  0  0  0  0  0  0  0
   -5.7990   24.0110  -30.9100 C   0  0  0  0  0  0  0  0  0  0  0  0
   -5.2430   25.3110  -30.4830 C   0  0  0  0  0  0  0  0  0  0  0  0
   -3.9020   25.6730  -30.7970 N   0  0  0  0  0  0  0  0  0  0  0  0
   -5.9790   26.1340  -29.8740 O   0  0  0  0  0  0  0  0  0  0  0  0
   -5.0850   22.8750  -31.1480 N   0  0  0  0  0  0  0  0  0  0  0  0
   -3.6960   22.6380  -30.8700 C   0  0  0  0  0  0  0  0  0  0  0  0
   -2.8350   22.8330  -31.7700 O   0  0  0  0  0  0  0  0  0  0  0  0
   -3.3190   22.1710  -29.6040 O   0  0  0  0  0  0  0  0  0  0  0  0
   -3.3370   22.9280  -28.4240 C   0  0  0  0  0  0  0  0  0  0  0  0
   -4.2250   22.7390  -27.5460 O   0  0  0  0  0  0  0  0  0  0  0  0
   -2.2460   23.9480  -28.1820 C   0  0  0  0  0  0  0  0  0  0  0  0
   -2.6580   24.9240  -27.0620 C   0  0  0  0  0  0  0  0  0  0  0  0
   -0.9600   23.2140  -27.7810 C   0  0  0  0  0  0  0  0  0  0  0  0
   -1.9860   24.6690  -29.3650 O   0  0  0  0  0  0  0  0  0  0  0  0
   -5.9810   21.9620  -31.5860 C   0  0  0  0  0  0  0  0  0  0  0  0
   -5.7620   20.6190  -31.9130 C   0  0  0  0  0  0  0  0  0  0  0  0
   -5.7770   18.0580  -33.7640 C   0  0  0  0  0  0  0  0  0  0  0  0
   -4.3030   18.2800  -33.3540 C   0  0  0  0  0  0  0  0  0  0  0  0
   -6.0830   18.9110  -35.0140 C   0  0  0  0  0  0  0  0  0  0  0  0
   -5.9450   16.5800  -34.1000 C   0  0  0  0  0  0  0  0  0  0  0  0
   -4.9400   15.8400  -34.2810 O   0  0  0  0  0  0  0  0  0  0  0  0
   -7.2140   16.0470  -34.3020 O   0  0  0  0  0  0  0  0  0  0  0  0
   -6.5054   17.2202  -29.6644 H   0  0  0  0  0  0  0  0  0  0  0  0
   -5.8474   16.0289  -30.8368 H   0  0  0  0  0  0  0  0  0  0  0  0
   -5.2392   17.7191  -30.8368 H   0  0  0  0  0  0  0  0  0  0  0  0
   -7.5363   16.5732  -32.2297 H   0  0  0  0  0  0  0  0  0  0  0  0
   -8.0476   17.9216  -31.1431 H   0  0  0  0  0  0  0  0  0  0  0  0
   -9.0172   19.8083  -32.6821 H   0  0  0  0  0  0  0  0  0  0  0  0
   -9.3547   22.2206  -32.0444 H   0  0  0  0  0  0  0  0  0  0  0  0
   -7.9662   24.5375  -31.0940 H   0  0  0  0  0  0  0  0  0  0  0  0
   -3.1860   24.9450  -31.0180 H   0  0  0  0  0  0  0  0  0  0  0  0
   -2.4630   24.4620  -26.0830 H   0  0  0  0  0  0  0  0  0  0  0  0
   -2.0751   25.8525  -27.1520 H   0  0  0  0  0  0  0  0  0  0  0  0
   -3.7299   25.1539  -27.1520 H   0  0  0  0  0  0  0  0  0  0  0  0
   -0.8881   23.1729  -26.6841 H   0  0  0  0  0  0  0  0  0  0  0  0
   -0.9801   22.1913  -28.1857 H   0  0  0  0  0  0  0  0  0  0  0  0
   -0.0897   23.7514  -28.1857 H   0  0  0  0  0  0  0  0  0  0  0  0
   -2.4500   24.2070  -30.1130 H   0  0  0  0  0  0  0  0  0  0  0  0
   -4.7545   20.1808  -31.8580 H   0  0  0  0  0  0  0  0  0  0  0  0
   -4.2254   18.2917  -32.2568 H   0  0  0  0  0  0  0  0  0  0  0  0
   -3.6837   17.4650  -33.7567 H   0  0  0  0  0  0  0  0  0  0  0  0
   -3.9512   19.2413  -33.7567 H   0  0  0  0  0  0  0  0  0  0  0  0
   -6.4392   19.9039  -34.7021 H   0  0  0  0  0  0  0  0  0  0  0  0
   -5.1685   19.0217  -35.6152 H   0  0  0  0  0  0  0  0  0  0  0  0
   -6.8593   18.4151  -35.6152 H   0  0  0  0  0  0  0  0  0  0  0  0
  1  2  1  0
  2  3  1  0
  3  4  1  0
  4  5  2  0
  5  6  1  0
  6  7  2  0
  7  8  1  0
  8  9  2  0
  9 10  1  0
 10 11  1  0
 10 12  2  0
  9 13  1  0
 13 14  1  0
 14 15  2  0
 14 16  1  0
 16 17  1  0
 17 18  2  0
 17 19  1  0
 19 20  1  0
 19 21  1  0
 19 22  1  0
 13 23  1  0
 23 24  2  0
  3 25  1  0
 25 26  1  0
 25 27  1  0
 25 28  1  0
 28 29  2  0
 28 30  1  0
 24  4  1  0
 23  7  1  0
  1 31  1  0
  1 32  1  0
  1 33  1  0
  2 34  1  0
  2 35  1  0
  5 36  1  0
  6 37  1  0
  8 38  1  0
 11 39  1  0
 20 40  1  0
 20 41  1  0
 20 42  1  0
 21 43  1  0
 21 44  1  0
 21 45  1  0
 22 46  1  0
 24 47  1  0
 26 48  1  0
 26 49  1  0
 26 50  1  0
 27 51  1  0
 27 52  1  0
 27 53  1  0
M  CHG  2  11  -1  30  -1
M  END
>  <UniqueID>  (93) 
93

>  <SMILES>  (93) 
CCN(c1ccc2cc(C([NH-])=O)n(C(=O)OC(=O)C(C)(C)O)c2c1)C(C)(C)C(=O)[O-]

>  <Energy>  (93) 
94.00858343551513

>  <Genealogy>  (93) 
CCN(c1ccc2cc(C([NH-])=O)n(C(=O)OC(=O)C(C)(C)O)c2c1)C(C)(C)C(=O)[O-] (protonated)
CCN(c1ccc2cc(C([NH-])=O)n(C(=O)OC(=O)C(C)(C)O)c2c1)C(C)(C)C(=O)[O-] (3D coordinates assigned)
CCN(c1ccc2cc(C([NH-])=O)n(C(=O)OC(=O)C(C)(C)O)c2c1)C(C)(C)C(=O)[O-] (optimized conformer: 94.00858343551513 kcal/mol)

>  <smiles>  (93) 
CCN(c1ccc2cc(C(N)=O)n(C(=O)OC(=O)C(C)(C)O)c2c1)C(C)(C)C(=O)O

>  <score_type>  (93) 
oracle

>  <origin>  (93) 
adg

>  <m_score__min__energy>  (93) 
-11.130000000000001

>  <m_primary>  (93) 
energy

$$$$
93:0
     RDKit          3D

 33 34  0  0  0  0  0  0  0  0999 V2000
   -4.1980   23.0160  -28.4800 C   0  0  0  0  0  0  0  0  0  0  0  0
   -4.5690   23.9290  -29.3850 C   0  0  0  0  0  0  0  0  0  0  0  0
   -3.6020   24.9250  -29.8990 C   0  0  0  0  0  0  0  0  0  0  0  0
   -3.8900   25.6650  -30.8760 O   0  0  0  0  0  0  0  0  0  0  0  0
   -2.3520   25.0480  -29.3040 O   0  0  0  0  0  0  0  0  0  0  0  0
   -5.9220   23.9310  -29.8790 N   0  0  0  0  0  0  0  0  0  0  0  0
   -6.7250   25.1500  -29.7410 C   0  0  0  0  0  0  0  0  0  0  0  0
   -6.4160   22.8070  -30.6450 C   0  0  0  0  0  0  0  0  0  0  0  0
   -7.8100   22.5420  -30.7340 C   0  0  0  0  0  0  0  0  0  0  0  0
   -8.2910   21.4490  -31.4730 C   0  0  0  0  0  0  0  0  0  0  0  0
   -7.3630   20.6380  -32.1170 C   0  0  0  0  0  0  0  0  0  0  0  0
   -7.5540   19.5100  -32.8820 C   0  0  0  0  0  0  0  0  0  0  0  0
   -6.2780   19.1100  -33.2700 C   0  0  0  0  0  0  0  0  0  0  0  0
   -6.0280   17.9740  -34.1780 C   0  0  0  0  0  0  0  0  0  0  0  0
   -4.9260   17.9860  -35.0850 N   0  0  0  0  0  0  0  0  0  0  0  0
   -6.8370   17.0080  -34.1990 O   0  0  0  0  0  0  0  0  0  0  0  0
   -5.3330   19.9430  -32.7490 N   0  0  0  0  0  0  0  0  0  0  0  0
   -3.9020   19.8130  -32.8060 C   0  0  0  0  0  0  0  0  0  0  0  0
   -3.2640   20.1290  -33.8430 O   0  0  0  0  0  0  0  0  0  0  0  0
   -6.0160   20.8780  -32.0530 C   0  0  0  0  0  0  0  0  0  0  0  0
   -5.5080   21.9520  -31.3140 C   0  0  0  0  0  0  0  0  0  0  0  0
   -4.9282   22.2824  -28.1076 H   0  0  0  0  0  0  0  0  0  0  0  0
   -3.1628   22.9990  -28.1084 H   0  0  0  0  0  0  0  0  0  0  0  0
   -6.8721   25.3733  -28.6740 H   0  0  0  0  0  0  0  0  0  0  0  0
   -6.2026   25.9897  -30.2227 H   0  0  0  0  0  0  0  0  0  0  0  0
   -7.7027   25.0015  -30.2227 H   0  0  0  0  0  0  0  0  0  0  0  0
   -8.5217   23.2023  -30.2168 H   0  0  0  0  0  0  0  0  0  0  0  0
   -9.3690   21.2407  -31.5404 H   0  0  0  0  0  0  0  0  0  0  0  0
   -8.5102   19.0276  -33.1332 H   0  0  0  0  0  0  0  0  0  0  0  0
   -4.7460   17.1640  -35.7030 H   0  0  0  0  0  0  0  0  0  0  0  0
   -4.3330   18.8390  -35.1970 H   0  0  0  0  0  0  0  0  0  0  0  0
   -3.3572   19.4316  -31.9298 H   0  0  0  0  0  0  0  0  0  0  0  0
   -4.4239   22.1284  -31.2541 H   0  0  0  0  0  0  0  0  0  0  0  0
  1  2  2  0
  2  3  1  0
  3  4  2  0
  3  5  1  0
  2  6  1  0
  6  7  1  0
  6  8  1  0
  8  9  2  0
  9 10  1  0
 10 11  2  0
 11 12  1  0
 12 13  2  0
 13 14  1  0
 14 15  1  0
 14 16  2  0
 13 17  1  0
 17 18  1  0
 18 19  2  0
 17 20  1  0
 20 21  2  0
 21  8  1  0
 20 11  1  0
  1 22  1  0
  1 23  1  0
  7 24  1  0
  7 25  1  0
  7 26  1  0
  9 27  1  0
 10 28  1  0
 12 29  1  0
 15 30  1  0
 15 31  1  0
 18 32  1  0
 21 33  1  0
M  CHG  1   5  -1
M  END
>  <UniqueID>  (94) 
94

>  <SMILES>  (94) 
C=C(C(=O)[O-])N(C)c1ccc2cc(C(N)=O)n(C=O)c2c1

>  <Energy>  (94) 
79.65795539724914

>  <Genealogy>  (94) 
C=C(C(=O)[O-])N(C)c1ccc2cc(C(N)=O)n(C=O)c2c1 (protonated)
C=C(C(=O)[O-])N(C)c1ccc2cc(C(N)=O)n(C=O)c2c1 (3D coordinates assigned)
C=C(C(=O)[O-])N(C)c1ccc2cc(C(N)=O)n(C=O)c2c1 (optimized conformer: 79.65795539724914 kcal/mol)

>  <smiles>  (94) 
C=C(C(=O)O)N(C)c1ccc2cc(C(N)=O)n(C=O)c2c1

>  <score_type>  (94) 
oracle

>  <origin>  (94) 
adg

>  <m_score__min__energy>  (94) 
-9.75

>  <m_primary>  (94) 
energy

$$$$
94:0
     RDKit          3D

 38 39  0  0  0  0  0  0  0  0999 V2000
   -1.9980   25.1570  -27.4450 C   0  0  0  0  0  0  0  0  0  0  0  0
   -1.5450   25.1070  -28.7800 O   0  0  0  0  0  0  0  0  0  0  0  0
   -0.5570   24.1050  -28.9360 C   0  0  0  0  0  0  0  0  0  0  0  0
   -1.2210   22.7310  -29.0350 C   0  0  0  0  0  0  0  0  0  0  0  0
   -1.8740   22.5710  -30.2940 O   0  0  0  0  0  0  0  0  0  0  0  0
   -3.0070   21.7700  -30.4770 C   0  0  0  0  0  0  0  0  0  0  0  0
   -3.2040   20.7590  -29.7480 O   0  0  0  0  0  0  0  0  0  0  0  0
   -3.9820   22.1260  -31.5180 C   0  0  0  0  0  0  0  0  0  0  0  0
   -3.6190   22.1460  -32.7240 O   0  0  0  0  0  0  0  0  0  0  0  0
   -5.3310   22.4820  -31.1760 N   0  0  0  0  0  0  0  0  0  0  0  0
   -5.7960   23.7170  -30.8380 C   0  0  0  0  0  0  0  0  0  0  0  0
   -4.9660   24.9170  -30.6060 C   0  0  0  0  0  0  0  0  0  0  0  0
   -3.6800   24.8220  -29.9880 N   0  0  0  0  0  0  0  0  0  0  0  0
   -5.4180   26.0510  -30.9170 O   0  0  0  0  0  0  0  0  0  0  0  0
   -7.1840   23.7060  -30.7290 C   0  0  0  0  0  0  0  0  0  0  0  0
   -7.5600   22.4120  -31.0130 C   0  0  0  0  0  0  0  0  0  0  0  0
   -8.8270   21.8390  -31.0690 C   0  0  0  0  0  0  0  0  0  0  0  0
   -8.9220   20.4870  -31.4360 C   0  0  0  0  0  0  0  0  0  0  0  0
   -7.7620   19.7410  -31.7710 C   0  0  0  0  0  0  0  0  0  0  0  0
   -7.8750   18.2810  -32.1320 C   0  0  0  0  0  0  0  0  0  0  0  0
   -7.5130   18.1110  -33.4550 F   0  0  0  0  0  0  0  0  0  0  0  0
   -7.0440   17.5150  -31.3340 F   0  0  0  0  0  0  0  0  0  0  0  0
   -9.1740   17.8350  -31.9600 F   0  0  0  0  0  0  0  0  0  0  0  0
   -6.4910   20.3550  -31.6840 C   0  0  0  0  0  0  0  0  0  0  0  0
   -6.4240   21.6950  -31.2870 C   0  0  0  0  0  0  0  0  0  0  0  0
   -1.1402   25.0623  -26.7629 H   0  0  0  0  0  0  0  0  0  0  0  0
   -2.5050   26.1166  -27.2655 H   0  0  0  0  0  0  0  0  0  0  0  0
   -2.7021   24.3311  -27.2655 H   0  0  0  0  0  0  0  0  0  0  0  0
    0.0180   24.2993  -29.8534 H   0  0  0  0  0  0  0  0  0  0  0  0
    0.1155   24.1206  -28.0657 H   0  0  0  0  0  0  0  0  0  0  0  0
   -0.4530   21.9511  -28.9258 H   0  0  0  0  0  0  0  0  0  0  0  0
   -1.9720   22.6449  -28.2359 H   0  0  0  0  0  0  0  0  0  0  0  0
   -3.3620   23.9370  -29.5380 H   0  0  0  0  0  0  0  0  0  0  0  0
   -3.0860   25.6740  -29.8880 H   0  0  0  0  0  0  0  0  0  0  0  0
   -7.8401   24.5505  -30.4711 H   0  0  0  0  0  0  0  0  0  0  0  0
   -9.7262   22.4270  -30.8331 H   0  0  0  0  0  0  0  0  0  0  0  0
   -9.9079   19.9999  -31.4642 H   0  0  0  0  0  0  0  0  0  0  0  0
   -5.5765   19.7923  -31.9228 H   0  0  0  0  0  0  0  0  0  0  0  0
  1  2  1  0
  2  3  1  0
  3  4  1  0
  4  5  1  0
  5  6  1  0
  6  7  2  0
  6  8  1  0
  8  9  2  0
  8 10  1  0
 10 11  1  0
 11 12  1  0
 12 13  1  0
 12 14  2  0
 11 15  2  0
 15 16  1  0
 16 17  2  0
 17 18  1  0
 18 19  2  0
 19 20  1  0
 20 21  1  0
 20 22  1  0
 20 23  1  0
 19 24  1  0
 24 25  2  0
 25 10  1  0
 25 16  1  0
  1 26  1  0
  1 27  1  0
  1 28  1  0
  3 29  1  0
  3 30  1  0
  4 31  1  0
  4 32  1  0
 13 33  1  0
 13 34  1  0
 15 35  1  0
 17 36  1  0
 18 37  1  0
 24 38  1  0
M  END
>  <UniqueID>  (95) 
95

>  <SMILES>  (95) 
COCCOC(=O)C(=O)n1c(C(N)=O)cc2ccc(C(F)(F)F)cc21

>  <Energy>  (95) 
76.9252721786486

>  <Genealogy>  (95) 
COCCOC(=O)C(=O)n1c(C(N)=O)cc2ccc(C(F)(F)F)cc21 (3D coordinates assigned)
COCCOC(=O)C(=O)n1c(C(N)=O)cc2ccc(C(F)(F)F)cc21 (optimized conformer: 76.9252721786486 kcal/mol)

>  <smiles>  (95) 
COCCOC(=O)C(=O)n1c(C(N)=O)cc2ccc(C(F)(F)F)cc21

>  <score_type>  (95) 
oracle

>  <origin>  (95) 
adg

>  <m_score__min__energy>  (95) 
-7.4900000000000002

>  <m_primary>  (95) 
energy

$$$$
95:0
     RDKit          3D

 40 41  0  0  0  0  0  0  0  0999 V2000
   -9.3070   19.4820  -32.6690 C   0  0  0  0  0  0  0  0  0  0  0  0
   -7.9740   19.2860  -32.0300 C   0  0  0  0  0  0  0  0  0  0  0  0
   -7.4820   20.2050  -31.3190 O   0  0  0  0  0  0  0  0  0  0  0  0
   -7.2630   18.1050  -32.2690 O   0  0  0  0  0  0  0  0  0  0  0  0
   -6.4580   17.8940  -33.4270 C   0  0  0  0  0  0  0  0  0  0  0  0
   -5.1490   18.6800  -33.3220 C   0  0  0  0  0  0  0  0  0  0  0  0
   -4.9800   19.2430  -31.9810 N   0  0  0  0  0  0  0  0  0  0  0  0
   -3.8760   20.0950  -31.6190 C   0  0  0  0  0  0  0  0  0  0  0  0
   -2.6070   19.8680  -32.2100 C   0  0  0  0  0  0  0  0  0  0  0  0
   -1.5060   20.6830  -31.8930 C   0  0  0  0  0  0  0  0  0  0  0  0
   -1.7000   21.7140  -30.9800 C   0  0  0  0  0  0  0  0  0  0  0  0
   -0.8200   22.6630  -30.5080 C   0  0  0  0  0  0  0  0  0  0  0  0
   -1.5630   23.4490  -29.6270 C   0  0  0  0  0  0  0  0  0  0  0  0
   -1.0000   24.5660  -28.8420 C   0  0  0  0  0  0  0  0  0  0  0  0
   -1.5850   25.8640  -28.9300 N   0  0  0  0  0  0  0  0  0  0  0  0
    0.0080   24.3920  -28.1060 O   0  0  0  0  0  0  0  0  0  0  0  0
   -2.8470   23.0020  -29.5620 N   0  0  0  0  0  0  0  0  0  0  0  0
   -3.9400   23.5620  -28.8220 C   0  0  0  0  0  0  0  0  0  0  0  0
   -3.8630   23.6520  -27.5680 O   0  0  0  0  0  0  0  0  0  0  0  0
   -5.2150   23.9300  -29.5170 C   0  0  0  0  0  0  0  0  0  0  0  0
   -4.9060   24.7040  -30.7570 C   0  0  0  0  0  0  0  0  0  0  0  0
   -5.5920   24.5300  -31.7980 O   0  0  0  0  0  0  0  0  0  0  0  0
   -3.8950   25.6570  -30.7490 O   0  0  0  0  0  0  0  0  0  0  0  0
   -2.9150   21.9420  -30.3910 C   0  0  0  0  0  0  0  0  0  0  0  0
   -4.0310   21.1550  -30.6920 C   0  0  0  0  0  0  0  0  0  0  0  0
  -10.0745   19.5948  -31.8891 H   0  0  0  0  0  0  0  0  0  0  0  0
   -9.2843   20.3865  -33.2946 H   0  0  0  0  0  0  0  0  0  0  0  0
   -9.5456   18.6093  -33.2946 H   0  0  0  0  0  0  0  0  0  0  0  0
   -6.2298   16.8218  -33.5185 H   0  0  0  0  0  0  0  0  0  0  0  0
   -7.0110   18.2416  -34.3121 H   0  0  0  0  0  0  0  0  0  0  0  0
   -4.3067   18.0062  -33.5378 H   0  0  0  0  0  0  0  0  0  0  0  0
   -5.1778   19.5064  -34.0475 H   0  0  0  0  0  0  0  0  0  0  0  0
   -5.6850   19.0130  -31.2450 H   0  0  0  0  0  0  0  0  0  0  0  0
   -2.4823   19.0427  -32.9265 H   0  0  0  0  0  0  0  0  0  0  0  0
   -0.5217   20.5105  -32.3529 H   0  0  0  0  0  0  0  0  0  0  0  0
    0.2423   22.7767  -30.7700 H   0  0  0  0  0  0  0  0  0  0  0  0
   -2.6210   25.9840  -28.9660 H   0  0  0  0  0  0  0  0  0  0  0  0
   -5.7634   23.0146  -29.7842 H   0  0  0  0  0  0  0  0  0  0  0  0
   -5.8313   24.5466  -28.8462 H   0  0  0  0  0  0  0  0  0  0  0  0
   -5.0048   21.3540  -30.2208 H   0  0  0  0  0  0  0  0  0  0  0  0
  1  2  1  0
  2  3  2  0
  2  4  1  0
  4  5  1  0
  5  6  1  0
  6  7  1  0
  7  8  1  0
  8  9  2  0
  9 10  1  0
 10 11  2  0
 11 12  1  0
 12 13  2  0
 13 14  1  0
 14 15  1  0
 14 16  2  0
 13 17  1  0
 17 18  1  0
 18 19  2  0
 18 20  1  0
 20 21  1  0
 21 22  2  0
 21 23  1  0
 17 24  1  0
 24 25  2  0
 25  8  1  0
 24 11  1  0
  1 26  1  0
  1 27  1  0
  1 28  1  0
  5 29  1  0
  5 30  1  0
  6 31  1  0
  6 32  1  0
  7 33  1  0
  9 34  1  0
 10 35  1  0
 12 36  1  0
 15 37  1  0
 20 38  1  0
 20 39  1  0
 25 40  1  0
M  CHG  2  15  -1  23  -1
M  END
>  <UniqueID>  (96) 
96

>  <SMILES>  (96) 
CC(=O)OCCNc1ccc2cc(C([NH-])=O)n(C(=O)CC(=O)[O-])c2c1

>  <Energy>  (96) 
71.69298170906094

>  <Genealogy>  (96) 
CC(=O)OCCNc1ccc2cc(C([NH-])=O)n(C(=O)CC(=O)[O-])c2c1 (protonated)
CC(=O)OCCNc1ccc2cc(C([NH-])=O)n(C(=O)CC(=O)[O-])c2c1 (3D coordinates assigned)
CC(=O)OCCNc1ccc2cc(C([NH-])=O)n(C(=O)CC(=O)[O-])c2c1 (optimized conformer: 71.69298170906094 kcal/mol)

>  <smiles>  (96) 
CC(=O)OCCNc1ccc2cc(C(N)=O)n(C(=O)CC(=O)O)c2c1

>  <score_type>  (96) 
oracle

>  <origin>  (96) 
adg

>  <m_score__min__energy>  (96) 
-10.9

>  <m_primary>  (96) 
energy

$$$$
96:0
     RDKit          3D

 36 37  0  0  0  0  0  0  0  0999 V2000
   -2.9020   25.3050  -30.5070 H   0  0  0  0  0  0  0  0  0  0  0  0
   -3.8750   25.4740  -30.8430 N   0  0  0  0  0  0  0  0  0  0  0  0
   -4.9860   24.8320  -30.2240 C   0  0  0  0  0  0  0  0  0  0  0  0
   -5.4140   25.2660  -29.1220 O   0  0  0  0  0  0  0  0  0  0  0  0
   -5.6080   23.6350  -30.8290 C   0  0  0  0  0  0  0  0  0  0  0  0
   -6.9710   23.5330  -31.1000 C   0  0  0  0  0  0  0  0  0  0  0  0
   -7.7367   24.3117  -30.9688 H   0  0  0  0  0  0  0  0  0  0  0  0
   -7.1560   22.2530  -31.5660 C   0  0  0  0  0  0  0  0  0  0  0  0
   -8.3190   21.6120  -31.9860 C   0  0  0  0  0  0  0  0  0  0  0  0
   -9.2902   22.1281  -31.9638 H   0  0  0  0  0  0  0  0  0  0  0  0
   -8.2140   20.2860  -32.4390 C   0  0  0  0  0  0  0  0  0  0  0  0
   -9.1170   19.7465  -32.7606 H   0  0  0  0  0  0  0  0  0  0  0  0
   -6.9550   19.6380  -32.4850 C   0  0  0  0  0  0  0  0  0  0  0  0
   -6.8600   18.2130  -32.9450 C   0  0  0  0  0  0  0  0  0  0  0  0
   -6.8156   17.5475  -32.0703 H   0  0  0  0  0  0  0  0  0  0  0  0
   -7.7435   17.9636  -33.5510 H   0  0  0  0  0  0  0  0  0  0  0  0
   -5.9512   18.0831  -33.5510 H   0  0  0  0  0  0  0  0  0  0  0  0
   -5.7990   20.3140  -32.0390 C   0  0  0  0  0  0  0  0  0  0  0  0
   -4.8154   19.8219  -32.0578 H   0  0  0  0  0  0  0  0  0  0  0  0
   -5.9360   21.6270  -31.5720 C   0  0  0  0  0  0  0  0  0  0  0  0
   -4.9730   22.4640  -31.1240 N   0  0  0  0  0  0  0  0  0  0  0  0
   -3.5670   22.1840  -31.0540 C   0  0  0  0  0  0  0  0  0  0  0  0
   -3.1370   21.0660  -31.4460 O   0  0  0  0  0  0  0  0  0  0  0  0
   -2.6780   23.1740  -30.5070 N   0  0  0  0  0  0  0  0  0  0  0  0
   -2.0610   23.1800  -29.3570 C   0  0  0  0  0  0  0  0  0  0  0  0
   -1.2260   24.3530  -29.0360 C   0  0  0  0  0  0  0  0  0  0  0  0
   -1.7380   25.5030  -28.9550 O   0  0  0  0  0  0  0  0  0  0  0  0
    0.1470   24.1790  -28.8270 O   0  0  0  0  0  0  0  0  0  0  0  0
    0.7150   24.0410  -27.5300 C   0  0  0  0  0  0  0  0  0  0  0  0
   -0.0574   24.2287  -26.7696 H   0  0  0  0  0  0  0  0  0  0  0  0
    1.1087   23.0211  -27.4088 H   0  0  0  0  0  0  0  0  0  0  0  0
    1.5328   24.7666  -27.4088 H   0  0  0  0  0  0  0  0  0  0  0  0
   -2.1870   22.0440  -28.3710 C   0  0  0  0  0  0  0  0  0  0  0  0
   -2.1429   22.4414  -27.3462 H   0  0  0  0  0  0  0  0  0  0  0  0
   -3.1476   21.5304  -28.5241 H   0  0  0  0  0  0  0  0  0  0  0  0
   -1.3623   21.3324  -28.5241 H   0  0  0  0  0  0  0  0  0  0  0  0
  1  2  1  0
  2  3  1  0
  3  4  2  0
  3  5  1  0
  5  6  2  0
  6  7  1  0
  6  8  1  0
  8  9  2  0
  9 10  1  0
  9 11  1  0
 11 12  1  0
 11 13  2  0
 13 14  1  0
 14 15  1  0
 14 16  1  0
 14 17  1  0
 13 18  1  0
 18 19  1  0
 18 20  2  0
 20 21  1  0
 21 22  1  0
 22 23  2  0
 22 24  1  0
 24 25  2  0
 25 26  1  0
 26 27  2  0
 26 28  1  0
 28 29  1  0
 29 30  1  0
 29 31  1  0
 29 32  1  0
 25 33  1  0
 33 34  1  0
 33 35  1  0
 33 36  1  0
 21  5  1  0
 20  8  1  0
M  CHG  1   2  -1
M  END
>  <UniqueID>  (97) 
97

>  <SMILES>  (97) 
COC(=O)/C(C)=N/C(=O)n1c(C([NH-])=O)cc2ccc(C)cc21

>  <Energy>  (97) 
75.0346149998023

>  <Genealogy>  (97) 
COC(=O)/C(C)=N/C(=O)n1c(C([NH-])=O)cc2ccc(C)cc21 (protonated)
COC(=O)/C(C)=N/C(=O)n1c(C([NH-])=O)cc2ccc(C)cc21 (cis-trans isomerization)
COC(=O)/C(C)=N/C(=O)n1c(C([NH-])=O)cc2ccc(C)cc21 (3D coordinates assigned)
COC(=O)/C(C)=N/C(=O)n1c(C([NH-])=O)cc2ccc(C)cc21 (optimized conformer: 75.0346149998023 kcal/mol)

>  <smiles>  (97) 
COC(=O)/C(C)=N/C(=O)n1c(C(N)=O)cc2ccc(C)cc21

>  <score_type>  (97) 
oracle

>  <origin>  (97) 
adg

>  <m_score__min__energy>  (97) 
-10.58

>  <m_primary>  (97) 
energy

$$$$
97:0
     RDKit          3D

 42 43  0  0  0  0  0  0  0  0999 V2000
    0.0320   25.7560  -27.2310 C   0  0  0  0  0  0  0  0  0  0  0  0
    0.4880   24.7530  -28.1110 O   0  0  0  0  0  0  0  0  0  0  0  0
    0.6680   23.5500  -27.3950 C   0  0  0  0  0  0  0  0  0  0  0  0
   -0.1310   22.4410  -28.0660 C   0  0  0  0  0  0  0  0  0  0  0  0
   -0.7010   22.9270  -29.2760 O   0  0  0  0  0  0  0  0  0  0  0  0
   -1.9220   23.6080  -29.3230 C   0  0  0  0  0  0  0  0  0  0  0  0
   -1.9460   24.8680  -29.2600 O   0  0  0  0  0  0  0  0  0  0  0  0
   -3.1520   22.8640  -29.4190 N   0  0  0  0  0  0  0  0  0  0  0  0
   -3.9280   22.5780  -28.2070 C   0  0  0  0  0  0  0  0  0  0  0  0
   -3.7050   22.5470  -30.7110 C   0  0  0  0  0  0  0  0  0  0  0  0
   -2.9640   22.0900  -31.6230 O   0  0  0  0  0  0  0  0  0  0  0  0
   -5.0920   22.7830  -30.9950 N   0  0  0  0  0  0  0  0  0  0  0  0
   -5.7770   23.9580  -30.9120 C   0  0  0  0  0  0  0  0  0  0  0  0
   -5.2240   25.2570  -30.4660 C   0  0  0  0  0  0  0  0  0  0  0  0
   -3.9140   25.6720  -30.8480 N   0  0  0  0  0  0  0  0  0  0  0  0
   -5.9140   26.0060  -29.7200 O   0  0  0  0  0  0  0  0  0  0  0  0
   -7.1150   23.7650  -31.2540 C   0  0  0  0  0  0  0  0  0  0  0  0
   -7.2280   22.4220  -31.5420 C   0  0  0  0  0  0  0  0  0  0  0  0
   -8.3360   21.6750  -31.9310 C   0  0  0  0  0  0  0  0  0  0  0  0
   -8.1570   20.3000  -32.1570 C   0  0  0  0  0  0  0  0  0  0  0  0
   -6.8850   19.6990  -31.9860 C   0  0  0  0  0  0  0  0  0  0  0  0
   -6.7130   18.2280  -32.2430 C   0  0  0  0  0  0  0  0  0  0  0  0
   -6.1280   17.6260  -31.1420 F   0  0  0  0  0  0  0  0  0  0  0  0
   -7.9480   17.6510  -32.4780 F   0  0  0  0  0  0  0  0  0  0  0  0
   -5.7820   20.4890  -31.5910 C   0  0  0  0  0  0  0  0  0  0  0  0
   -5.9930   21.8530  -31.3720 C   0  0  0  0  0  0  0  0  0  0  0  0
    0.1813   25.4276  -26.1918 H   0  0  0  0  0  0  0  0  0  0  0  0
    0.5971   26.6831  -27.4073 H   0  0  0  0  0  0  0  0  0  0  0  0
   -1.0381   25.9397  -27.4073 H   0  0  0  0  0  0  0  0  0  0  0  0
    1.7349   23.2822  -27.3888 H   0  0  0  0  0  0  0  0  0  0  0  0
    0.3191   23.6813  -26.3601 H   0  0  0  0  0  0  0  0  0  0  0  0
    0.5346   21.5942  -28.2893 H   0  0  0  0  0  0  0  0  0  0  0  0
   -0.9344   22.1105  -27.3912 H   0  0  0  0  0  0  0  0  0  0  0  0
   -3.3181   22.8028  -27.3196 H   0  0  0  0  0  0  0  0  0  0  0  0
   -4.8344   23.2011  -28.1964 H   0  0  0  0  0  0  0  0  0  0  0  0
   -4.2132   21.5157  -28.1964 H   0  0  0  0  0  0  0  0  0  0  0  0
   -3.0670   25.2760  -30.3850 H   0  0  0  0  0  0  0  0  0  0  0  0
   -7.9110   24.5234  -31.2869 H   0  0  0  0  0  0  0  0  0  0  0  0
   -9.3216   22.1467  -32.0576 H   0  0  0  0  0  0  0  0  0  0  0  0
   -9.0128   19.6837  -32.4698 H   0  0  0  0  0  0  0  0  0  0  0  0
   -6.0672   18.0881  -33.1225 H   0  0  0  0  0  0  0  0  0  0  0  0
   -4.7852   20.0428  -31.4596 H   0  0  0  0  0  0  0  0  0  0  0  0
  1  2  1  0
  2  3  1  0
  3  4  1  0
  4  5  1  0
  5  6  1  0
  6  7  2  0
  6  8  1  0
  8  9  1  0
  8 10  1  0
 10 11  2  0
 10 12  1  0
 12 13  1  0
 13 14  1  0
 14 15  1  0
 14 16  2  0
 13 17  2  0
 17 18  1  0
 18 19  2  0
 19 20  1  0
 20 21  2  0
 21 22  1  0
 22 23  1  0
 22 24  1  0
 21 25  1  0
 25 26  2  0
 26 12  1  0
 26 18  1  0
  1 27  1  0
  1 28  1  0
  1 29  1  0
  3 30  1  0
  3 31  1  0
  4 32  1  0
  4 33  1  0
  9 34  1  0
  9 35  1  0
  9 36  1  0
 15 37  1  0
 17 38  1  0
 19 39  1  0
 20 40  1  0
 22 41  1  0
 25 42  1  0
M  CHG  1  15  -1
M  END
>  <UniqueID>  (98) 
98

>  <SMILES>  (98) 
COCCOC(=O)N(C)C(=O)n1c(C([NH-])=O)cc2ccc(C(F)F)cc21

>  <Energy>  (98) 
79.0915297168431

>  <Genealogy>  (98) 
COCCOC(=O)N(C)C(=O)n1c(C([NH-])=O)cc2ccc(C(F)F)cc21 (protonated)
COCCOC(=O)N(C)C(=O)n1c(C([NH-])=O)cc2ccc(C(F)F)cc21 (3D coordinates assigned)
COCCOC(=O)N(C)C(=O)n1c(C([NH-])=O)cc2ccc(C(F)F)cc21 (optimized conformer: 79.0915297168431 kcal/mol)

>  <smiles>  (98) 
COCCOC(=O)N(C)C(=O)n1c(C(N)=O)cc2ccc(C(F)F)cc21

>  <score_type>  (98) 
oracle

>  <origin>  (98) 
adg

>  <m_score__min__energy>  (98) 
-9.5099999999999998

>  <m_primary>  (98) 
energy

$$$$
