0:0
     RDKit          3D

 57 59  0  0  0  0  0  0  0  0999 V2000
  143.5440  155.6400  135.2710 C   0  0  0  0  0  0  0  0  0  0  0  0
  143.3270  154.3100  134.5240 C   0  0  0  0  0  0  0  0  0  0  0  0
  142.7950  154.6140  133.1160 C   0  0  0  0  0  0  0  0  0  0  0  0
  142.3020  153.4300  135.2650 C   0  0  0  0  0  0  0  0  0  0  0  0
  144.5700  153.6110  134.3640 O   0  0  0  0  0  0  0  0  0  0  0  0
  145.2230  153.3380  133.1510 C   0  0  0  0  0  0  0  0  0  0  0  0
  144.6690  152.6330  132.2650 O   0  0  0  0  0  0  0  0  0  0  0  0
  146.5320  153.8820  132.9160 N   0  0  0  0  0  0  0  0  0  0  0  0
  147.6860  153.1920  132.6970 C   0  0  0  0  0  0  0  0  0  0  0  0
  147.7870  151.7290  132.4970 C   0  0  0  0  0  0  0  0  0  0  0  0
  146.7360  151.0060  131.8510 N   0  0  0  0  0  0  0  0  0  0  0  0
  148.7920  151.1010  132.9230 O   0  0  0  0  0  0  0  0  0  0  0  0
  148.7650  154.0670  132.5900 C   0  0  0  0  0  0  0  0  0  0  0  0
  148.2310  155.3250  132.7540 C   0  0  0  0  0  0  0  0  0  0  0  0
  148.8560  156.5680  132.7540 C   0  0  0  0  0  0  0  0  0  0  0  0
  148.0630  157.7040  132.9770 C   0  0  0  0  0  0  0  0  0  0  0  0
  146.6660  157.5840  133.2030 C   0  0  0  0  0  0  0  0  0  0  0  0
  145.8380  158.7920  133.4530 C   0  0  0  0  0  0  0  0  0  0  0  0
  146.4420  160.0570  133.5740 C   0  0  0  0  0  0  0  0  0  0  0  0
  145.6610  161.1910  133.8090 C   0  0  0  0  0  0  0  0  0  0  0  0
  144.2750  161.0800  133.9240 C   0  0  0  0  0  0  0  0  0  0  0  0
  143.6530  159.8230  133.8040 C   0  0  0  0  0  0  0  0  0  0  0  0
  142.2640  159.6580  133.9080 O   0  0  0  0  0  0  0  0  0  0  0  0
  141.6250  158.4640  134.3570 C   0  0  0  0  0  0  0  0  0  0  0  0
  141.1410  157.6450  133.1560 C   0  0  2  0  0  0  0  0  0  0  0  0
  142.2080  157.4890  132.2560 O   0  0  0  0  0  0  0  0  0  0  0  0
  139.9650  158.3400  132.4540 C   0  0  0  0  0  0  0  0  0  0  0  0
  140.4450  159.3590  131.6210 O   0  0  0  0  0  0  0  0  0  0  0  0
  144.4400  158.6900  133.5700 C   0  0  0  0  0  0  0  0  0  0  0  0
  146.0700  156.3000  133.1930 C   0  0  0  0  0  0  0  0  0  0  0  0
  146.8820  155.1870  132.9490 C   0  0  0  0  0  0  0  0  0  0  0  0
  143.5147  155.4603  136.3558 H   0  0  0  0  0  0  0  0  0  0  0  0
  144.5226  156.0600  134.9952 H   0  0  0  0  0  0  0  0  0  0  0  0
  142.7497  156.3493  134.9952 H   0  0  0  0  0  0  0  0  0  0  0  0
  141.8423  155.1584  133.1936 H   0  0  0  0  0  0  0  0  0  0  0  0
  143.5264  155.2305  132.5729 H   0  0  0  0  0  0  0  0  0  0  0  0
  142.6352  153.6709  132.5729 H   0  0  0  0  0  0  0  0  0  0  0  0
  142.4365  153.5455  136.3506 H   0  0  0  0  0  0  0  0  0  0  0  0
  141.2838  153.7396  134.9867 H   0  0  0  0  0  0  0  0  0  0  0  0
  142.4539  152.3767  134.9867 H   0  0  0  0  0  0  0  0  0  0  0  0
  146.8020  149.9690  131.7490 H   0  0  0  0  0  0  0  0  0  0  0  0
  145.9150  151.4980  131.4370 H   0  0  0  0  0  0  0  0  0  0  0  0
  149.8191  153.8077  132.4123 H   0  0  0  0  0  0  0  0  0  0  0  0
  149.9391  156.6575  132.5843 H   0  0  0  0  0  0  0  0  0  0  0  0
  148.5294  158.7002  132.9768 H   0  0  0  0  0  0  0  0  0  0  0  0
  147.5340  160.1534  133.4831 H   0  0  0  0  0  0  0  0  0  0  0  0
  146.1410  162.1762  133.9039 H   0  0  0  0  0  0  0  0  0  0  0  0
  143.6665  161.9775  134.1090 H   0  0  0  0  0  0  0  0  0  0  0  0
  142.3398  157.8660  134.9414 H   0  0  0  0  0  0  0  0  0  0  0  0
  140.7613  158.7306  134.9838 H   0  0  0  0  0  0  0  0  0  0  0  0
  140.7935  156.6625  133.5081 H   0  0  0  0  0  0  0  0  0  0  0  0
  142.4590  158.3990  131.9450 H   0  0  0  0  0  0  0  0  0  0  0  0
  139.4135  157.6042  131.8503 H   0  0  0  0  0  0  0  0  0  0  0  0
  139.2955  158.7746  133.2109 H   0  0  0  0  0  0  0  0  0  0  0  0
  141.3990  159.4880  131.8660 H   0  0  0  0  0  0  0  0  0  0  0  0
  143.9585  157.7054  133.4762 H   0  0  0  0  0  0  0  0  0  0  0  0
  144.9915  156.1799  133.3732 H   0  0  0  0  0  0  0  0  0  0  0  0
  1  2  1  0
  2  3  1  0
  2  4  1  0
  2  5  1  0
  5  6  1  0
  6  7  2  0
  6  8  1  0
  8  9  1  0
  9 10  1  0
 10 11  1  0
 10 12  2  0
  9 13  2  0
 13 14  1  0
 14 15  2  0
 15 16  1  0
 16 17  2  0
 17 18  1  0
 18 19  2  0
 19 20  1  0
 20 21  2  0
 21 22  1  0
 22 23  1  0
 23 24  1  0
 24 25  1  0
 25 26  1  0
 25 27  1  0
 27 28  1  0
 22 29  2  0
 17 30  1  0
 30 31  2  0
 31  8  1  0
 31 14  1  0
 29 18  1  0
  1 32  1  0
  1 33  1  0
  1 34  1  0
  3 35  1  0
  3 36  1  0
  3 37  1  0
  4 38  1  0
  4 39  1  0
  4 40  1  0
 11 41  1  0
 11 42  1  0
 13 43  1  0
 15 44  1  0
 16 45  1  0
 19 46  1  0
 20 47  1  0
 21 48  1  0
 24 49  1  0
 24 50  1  0
 25 51  1  1
 26 52  1  0
 27 53  1  0
 27 54  1  0
 28 55  1  0
 29 56  1  0
 30 57  1  0
M  END
>  <UniqueID>  (1) 
1

>  <SMILES>  (1) 
CC(C)(C)OC(=O)n1c(C(N)=O)cc2ccc(-c3cccc(OC[C@H](O)CO)c3)cc21

>  <Energy>  (1) 
93.08872857918361

>  <Genealogy>  (1) 
CC(C)(C)OC(=O)n1c(C(N)=O)cc2ccc(-c3cccc(OC[C@H](O)CO)c3)cc21 (chirality)
CC(C)(C)OC(=O)n1c(C(N)=O)cc2ccc(-c3cccc(OC[C@H](O)CO)c3)cc21 (3D coordinates assigned)
CC(C)(C)OC(=O)n1c(C(N)=O)cc2ccc(-c3cccc(OC[C@H](O)CO)c3)cc21 (optimized conformer: 93.08872857918361 kcal/mol)

>  <smiles>  (1) 
CC(C)(C)OC(=O)n1c(C(N)=O)cc2ccc(-c3cccc(OCC(O)CO)c3)cc21

>  <score_type>  (1) 
oracle

>  <origin>  (1) 
adg

>  <m_score__min__energy>  (1) 
-9.3000000000000007

>  <m_primary>  (1) 
energy

$$$$
1:0
     RDKit          3D

 36 37  0  0  0  0  0  0  0  0999 V2000
  149.9600  159.7670  129.2980 C   0  0  0  0  0  0  0  0  0  0  0  0
  149.6170  161.1660  129.8090 C   0  0  0  0  0  0  0  0  0  0  0  0
  149.0140  161.1540  131.2250 C   0  0  0  0  0  0  0  0  0  0  0  0
  149.1520  159.8090  131.9600 C   0  0  0  0  0  0  0  0  0  0  0  0
  147.8310  159.3140  132.4890 C   0  0  0  0  0  0  0  0  0  0  0  0
  147.5730  157.9230  132.5640 C   0  0  0  0  0  0  0  0  0  0  0  0
  146.3370  157.4480  133.0340 C   0  0  0  0  0  0  0  0  0  0  0  0
  145.3760  158.3850  133.4040 C   0  0  0  0  0  0  0  0  0  0  0  0
  144.1080  158.2030  133.9050 C   0  0  0  0  0  0  0  0  0  0  0  0
  143.5990  159.4860  134.1000 C   0  0  0  0  0  0  0  0  0  0  0  0
  142.2240  159.7560  134.5730 C   0  0  0  0  0  0  0  0  0  0  0  0
  141.2840  160.4390  133.7490 N   0  0  0  0  0  0  0  0  0  0  0  0
  141.8640  159.3470  135.7090 O   0  0  0  0  0  0  0  0  0  0  0  0
  144.5180  160.4240  133.7340 N   0  0  0  0  0  0  0  0  0  0  0  0
  144.4020  161.8520  133.8330 C   0  0  0  0  0  0  0  0  0  0  0  0
  145.4640  162.6640  134.5020 C   0  0  0  0  0  0  0  0  0  0  0  0
  143.3880  162.4320  133.3590 O   0  0  0  0  0  0  0  0  0  0  0  0
  145.6020  159.7340  133.3150 C   0  0  0  0  0  0  0  0  0  0  0  0
  146.8310  160.2340  132.8780 C   0  0  0  0  0  0  0  0  0  0  0  0
  150.1249  159.0946  130.1528 H   0  0  0  0  0  0  0  0  0  0  0  0
  149.1287  159.3859  128.6867 H   0  0  0  0  0  0  0  0  0  0  0  0
  150.8733  159.8136  128.6867 H   0  0  0  0  0  0  0  0  0  0  0  0
  150.5364  161.7697  129.8239 H   0  0  0  0  0  0  0  0  0  0  0  0
  148.8610  161.5894  129.1313 H   0  0  0  0  0  0  0  0  0  0  0  0
  149.5208  161.9265  131.8220 H   0  0  0  0  0  0  0  0  0  0  0  0
  147.9362  161.3415  131.1103 H   0  0  0  0  0  0  0  0  0  0  0  0
  149.5562  159.0624  131.2605 H   0  0  0  0  0  0  0  0  0  0  0  0
  149.8253  159.9588  132.8169 H   0  0  0  0  0  0  0  0  0  0  0  0
  148.3480  157.2078  132.2512 H   0  0  0  0  0  0  0  0  0  0  0  0
  146.1349  156.3692  133.1073 H   0  0  0  0  0  0  0  0  0  0  0  0
  143.6026  157.2474  134.1086 H   0  0  0  0  0  0  0  0  0  0  0  0
  141.5470  161.3170  133.2480 H   0  0  0  0  0  0  0  0  0  0  0  0
  145.3558  162.5813  135.5935 H   0  0  0  0  0  0  0  0  0  0  0  0
  146.4544  162.2906  134.2024 H   0  0  0  0  0  0  0  0  0  0  0  0
  145.3633  163.7176  134.2024 H   0  0  0  0  0  0  0  0  0  0  0  0
  147.0160  161.3176  132.8376 H   0  0  0  0  0  0  0  0  0  0  0  0
  1  2  1  0
  2  3  1  0
  3  4  1  0
  4  5  1  0
  5  6  2  0
  6  7  1  0
  7  8  2  0
  8  9  1  0
  9 10  2  0
 10 11  1  0
 11 12  1  0
 11 13  2  0
 10 14  1  0
 14 15  1  0
 15 16  1  0
 15 17  2  0
 14 18  1  0
 18 19  2  0
 19  5  1  0
 18  8  1  0
  1 20  1  0
  1 21  1  0
  1 22  1  0
  2 23  1  0
  2 24  1  0
  3 25  1  0
  3 26  1  0
  4 27  1  0
  4 28  1  0
  6 29  1  0
  7 30  1  0
  9 31  1  0
 12 32  1  0
 16 33  1  0
 16 34  1  0
 16 35  1  0
 19 36  1  0
M  CHG  1  12  -1
M  END
>  <UniqueID>  (2) 
2

>  <SMILES>  (2) 
CCCCc1ccc2cc(C([NH-])=O)n(C(C)=O)c2c1

>  <Energy>  (2) 
67.97687744671101

>  <Genealogy>  (2) 
CCCCc1ccc2cc(C([NH-])=O)n(C(C)=O)c2c1 (protonated)
CCCCc1ccc2cc(C([NH-])=O)n(C(C)=O)c2c1 (3D coordinates assigned)
CCCCc1ccc2cc(C([NH-])=O)n(C(C)=O)c2c1 (optimized conformer: 67.97687744671101 kcal/mol)

>  <smiles>  (2) 
CCCCc1ccc2cc(C(N)=O)n(C(C)=O)c2c1

>  <score_type>  (2) 
oracle

>  <origin>  (2) 
adg

>  <m_score__min__energy>  (2) 
-7.1699999999999999

>  <m_primary>  (2) 
energy

$$$$
2:0
     RDKit          3D

 45 47  0  0  0  0  0  0  0  0999 V2000
  149.8580  159.6980  131.3800 C   0  0  0  0  0  0  0  0  0  0  0  0
  148.7320  159.3070  132.2170 N   0  0  0  0  0  0  0  0  0  0  0  0
  147.4800  159.7880  132.1280 C   0  0  0  0  0  0  0  0  0  0  0  0
  146.6900  159.1100  133.0410 C   0  0  0  0  0  0  0  0  0  0  0  0
  145.2410  159.3060  133.3110 C   0  0  0  0  0  0  0  0  0  0  0  0
  144.7130  160.6110  133.5040 C   0  0  0  0  0  0  0  0  0  0  0  0
  143.3450  160.8070  133.7500 C   0  0  0  0  0  0  0  0  0  0  0  0
  142.5240  159.6870  133.8130 C   0  0  0  0  0  0  0  0  0  0  0  0
  141.1650  159.5990  134.0060 C   0  0  0  0  0  0  0  0  0  0  0  0
  140.8760  158.2380  133.9600 C   0  0  0  0  0  0  0  0  0  0  0  0
  139.5260  157.6860  134.1880 C   0  0  0  0  0  0  0  0  0  0  0  0
  138.8770  156.8890  133.1960 N   0  0  0  0  0  0  0  0  0  0  0  0
  138.9630  157.8680  135.3000 O   0  0  0  0  0  0  0  0  0  0  0  0
  142.0080  157.5110  133.7360 N   0  0  0  0  0  0  0  0  0  0  0  0
  142.0980  156.0960  133.5030 C   0  0  0  0  0  0  0  0  0  0  0  0
  141.1280  155.4810  132.9850 O   0  0  0  0  0  0  0  0  0  0  0  0
  143.2760  155.4160  133.8570 O   0  0  0  0  0  0  0  0  0  0  0  0
  143.9030  154.3590  133.1160 C   0  0  0  0  0  0  0  0  0  0  0  0
  144.3500  154.8560  131.7280 C   0  0  0  0  0  0  0  0  0  0  0  0
  142.9540  153.1530  132.9830 C   0  0  0  0  0  0  0  0  0  0  0  0
  145.1450  153.9260  133.9110 C   0  0  0  0  0  0  0  0  0  0  0  0
  143.0120  158.4170  133.6510 C   0  0  0  0  0  0  0  0  0  0  0  0
  144.3670  158.1920  133.3790 C   0  0  0  0  0  0  0  0  0  0  0  0
  147.5540  158.2050  133.6450 C   0  0  0  0  0  0  0  0  0  0  0  0
  148.7870  158.3410  133.1190 N   0  0  0  0  0  0  0  0  0  0  0  0
  150.7045  159.9919  132.0180 H   0  0  0  0  0  0  0  0  0  0  0  0
  150.1546  158.8502  130.7449 H   0  0  0  0  0  0  0  0  0  0  0  0
  149.5654  160.5471  130.7449 H   0  0  0  0  0  0  0  0  0  0  0  0
  147.1414  160.5830  131.4473 H   0  0  0  0  0  0  0  0  0  0  0  0
  145.3859  161.4801  133.4600 H   0  0  0  0  0  0  0  0  0  0  0  0
  142.9344  161.8180  133.8890 H   0  0  0  0  0  0  0  0  0  0  0  0
  140.4579  160.4268  134.1631 H   0  0  0  0  0  0  0  0  0  0  0  0
  139.3800  156.5890  132.3340 H   0  0  0  0  0  0  0  0  0  0  0  0
  137.9040  156.5460  133.3530 H   0  0  0  0  0  0  0  0  0  0  0  0
  145.0812  155.6690  131.8476 H   0  0  0  0  0  0  0  0  0  0  0  0
  144.8118  154.0263  131.1726 H   0  0  0  0  0  0  0  0  0  0  0  0
  143.4762  155.2275  131.1726 H   0  0  0  0  0  0  0  0  0  0  0  0
  142.6727  152.7956  133.9846 H   0  0  0  0  0  0  0  0  0  0  0  0
  142.0500  153.4565  132.4347 H   0  0  0  0  0  0  0  0  0  0  0  0
  143.4616  152.3457  132.4347 H   0  0  0  0  0  0  0  0  0  0  0  0
  144.9348  153.9993  134.9882 H   0  0  0  0  0  0  0  0  0  0  0  0
  145.3989  152.8863  133.6569 H   0  0  0  0  0  0  0  0  0  0  0  0
  145.9903  154.5825  133.6569 H   0  0  0  0  0  0  0  0  0  0  0  0
  144.7457  157.1713  133.2213 H   0  0  0  0  0  0  0  0  0  0  0  0
  147.2746  157.4882  134.4312 H   0  0  0  0  0  0  0  0  0  0  0  0
  1  2  1  0
  2  3  1  0
  3  4  2  0
  4  5  1  0
  5  6  2  0
  6  7  1  0
  7  8  2  0
  8  9  1  0
  9 10  2  0
 10 11  1  0
 11 12  1  0
 11 13  2  0
 10 14  1  0
 14 15  1  0
 15 16  2  0
 15 17  1  0
 17 18  1  0
 18 19  1  0
 18 20  1  0
 18 21  1  0
 14 22  1  0
 22 23  2  0
  4 24  1  0
 24 25  2  0
 25  2  1  0
 23  5  1  0
 22  8  1  0
  1 26  1  0
  1 27  1  0
  1 28  1  0
  3 29  1  0
  6 30  1  0
  7 31  1  0
  9 32  1  0
 12 33  1  0
 12 34  1  0
 19 35  1  0
 19 36  1  0
 19 37  1  0
 20 38  1  0
 20 39  1  0
 20 40  1  0
 21 41  1  0
 21 42  1  0
 21 43  1  0
 23 44  1  0
 24 45  1  0
M  END
>  <UniqueID>  (3) 
3

>  <SMILES>  (3) 
Cn1cc(-c2ccc3cc(C(N)=O)n(C(=O)OC(C)(C)C)c3c2)cn1

>  <Energy>  (3) 
111.99079583496594

>  <Genealogy>  (3) 
Cn1cc(-c2ccc3cc(C(N)=O)n(C(=O)OC(C)(C)C)c3c2)cn1 (3D coordinates assigned)
Cn1cc(-c2ccc3cc(C(N)=O)n(C(=O)OC(C)(C)C)c3c2)cn1 (optimized conformer: 111.99079583496594 kcal/mol)

>  <smiles>  (3) 
Cn1cc(-c2ccc3cc(C(N)=O)n(C(=O)OC(C)(C)C)c3c2)cn1

>  <score_type>  (3) 
oracle

>  <origin>  (3) 
adg

>  <m_score__min__energy>  (3) 
-7.9699999999999998

>  <m_primary>  (3) 
energy

$$$$
3:0
     RDKit          3D

 52 55  0  0  0  0  0  0  0  0999 V2000
  149.6100  152.9470  131.5110 N   0  0  0  0  0  0  0  0  0  0  0  0
  148.7390  152.4420  132.5200 C   0  0  0  0  0  0  0  0  0  0  0  0
  149.1440  151.5200  133.2770 O   0  0  0  0  0  0  0  0  0  0  0  0
  147.3950  153.0310  132.6930 C   0  0  0  0  0  0  0  0  0  0  0  0
  146.2160  152.2910  132.6160 C   0  0  0  0  0  0  0  0  0  0  0  0
  145.2000  153.2120  132.7310 C   0  0  0  0  0  0  0  0  0  0  0  0
  143.8190  153.0280  132.7250 C   0  0  0  0  0  0  0  0  0  0  0  0
  143.0040  154.1610  132.8820 C   0  0  0  0  0  0  0  0  0  0  0  0
  143.5810  155.4410  133.0470 C   0  0  0  0  0  0  0  0  0  0  0  0
  142.7370  156.5930  133.2170 C   0  0  0  0  0  0  0  0  0  0  0  0
  142.0380  157.5640  133.3620 C   0  0  0  0  0  0  0  0  0  0  0  0
  141.1760  158.7470  133.5500 C   0  0  0  0  0  0  0  0  0  0  0  0
  141.7120  159.7860  132.7690 O   0  0  0  0  0  0  0  0  0  0  0  0
  141.1670  159.1480  135.0430 C   0  0  0  0  0  0  0  0  0  0  0  0
  140.3550  158.1440  135.8770 C   0  0  0  0  0  0  0  0  0  0  0  0
  139.0320  158.0340  135.3850 O   0  0  0  0  0  0  0  0  0  0  0  0
  139.0440  157.4760  134.0840 C   0  0  0  0  0  0  0  0  0  0  0  0
  139.7380  158.4180  133.0880 C   0  0  0  0  0  0  0  0  0  0  0  0
  144.9820  155.5950  133.0500 C   0  0  0  0  0  0  0  0  0  0  0  0
  145.7700  154.4500  132.8740 C   0  0  0  0  0  0  0  0  0  0  0  0
  147.1170  154.3560  132.8570 N   0  0  0  0  0  0  0  0  0  0  0  0
  148.0460  155.4370  133.0290 C   0  0  0  0  0  0  0  0  0  0  0  0
  149.2650  155.2720  132.7460 O   0  0  0  0  0  0  0  0  0  0  0  0
  147.5970  156.6640  133.5290 O   0  0  0  0  0  0  0  0  0  0  0  0
  148.4740  157.7000  133.9660 C   0  0  0  0  0  0  0  0  0  0  0  0
  148.6870  158.7010  132.8630 C   0  0  0  0  0  0  0  0  0  0  0  0
  149.6230  158.4370  131.8500 C   0  0  0  0  0  0  0  0  0  0  0  0
  149.8460  159.3740  130.8350 C   0  0  0  0  0  0  0  0  0  0  0  0
  149.1430  160.5810  130.8300 C   0  0  0  0  0  0  0  0  0  0  0  0
  148.2140  160.8540  131.8390 C   0  0  0  0  0  0  0  0  0  0  0  0
  147.9870  159.9190  132.8540 C   0  0  0  0  0  0  0  0  0  0  0  0
  150.3480  153.6490  131.7400 H   0  0  0  0  0  0  0  0  0  0  0  0
  146.1186  151.2026  132.4901 H   0  0  0  0  0  0  0  0  0  0  0  0
  143.3807  152.0267  132.6012 H   0  0  0  0  0  0  0  0  0  0  0  0
  141.9095  154.0517  132.8765 H   0  0  0  0  0  0  0  0  0  0  0  0
  142.0090  159.4000  131.9030 H   0  0  0  0  0  0  0  0  0  0  0  0
  142.2017  159.1717  135.4156 H   0  0  0  0  0  0  0  0  0  0  0  0
  140.7013  160.1401  135.1371 H   0  0  0  0  0  0  0  0  0  0  0  0
  140.8409  157.1584  135.8279 H   0  0  0  0  0  0  0  0  0  0  0  0
  140.3155  158.5006  136.9168 H   0  0  0  0  0  0  0  0  0  0  0  0
  139.5833  156.5176  134.1085 H   0  0  0  0  0  0  0  0  0  0  0  0
  138.0045  157.3246  133.7576 H   0  0  0  0  0  0  0  0  0  0  0  0
  139.7788  157.9326  132.1017 H   0  0  0  0  0  0  0  0  0  0  0  0
  139.1640  159.3547  133.0318 H   0  0  0  0  0  0  0  0  0  0  0  0
  145.4429  156.5844  133.1864 H   0  0  0  0  0  0  0  0  0  0  0  0
  148.0319  158.2071  134.8363 H   0  0  0  0  0  0  0  0  0  0  0  0
  149.4429  157.2576  134.2408 H   0  0  0  0  0  0  0  0  0  0  0  0
  150.1829  157.4902  131.8544 H   0  0  0  0  0  0  0  0  0  0  0  0
  150.5757  159.1598  130.0402 H   0  0  0  0  0  0  0  0  0  0  0  0
  149.3202  161.3171  130.0320 H   0  0  0  0  0  0  0  0  0  0  0  0
  147.6613  161.8050  131.8343 H   0  0  0  0  0  0  0  0  0  0  0  0
  147.2579  160.1381  133.6480 H   0  0  0  0  0  0  0  0  0  0  0  0
  1  2  1  0
  2  3  2  0
  2  4  1  0
  4  5  2  0
  5  6  1  0
  6  7  2  0
  7  8  1  0
  8  9  2  0
  9 10  1  0
 10 11  3  0
 11 12  1  0
 12 13  1  0
 12 14  1  0
 14 15  1  0
 15 16  1  0
 16 17  1  0
 17 18  1  0
  9 19  1  0
 19 20  2  0
 20 21  1  0
 21 22  1  0
 22 23  2  0
 22 24  1  0
 24 25  1  0
 25 26  1  0
 26 27  2  0
 27 28  1  0
 28 29  2  0
 29 30  1  0
 30 31  2  0
 21  4  1  0
 31 26  1  0
 20  6  1  0
 18 12  1  0
  1 32  1  0
  5 33  1  0
  7 34  1  0
  8 35  1  0
 13 36  1  0
 14 37  1  0
 14 38  1  0
 15 39  1  0
 15 40  1  0
 17 41  1  0
 17 42  1  0
 18 43  1  0
 18 44  1  0
 19 45  1  0
 25 46  1  0
 25 47  1  0
 27 48  1  0
 28 49  1  0
 29 50  1  0
 30 51  1  0
 31 52  1  0
M  CHG  1   1  -1
M  END
>  <UniqueID>  (4) 
4

>  <SMILES>  (4) 
[NH-]C(=O)c1cc2ccc(C#CC3(O)CCOCC3)cc2n1C(=O)OCc1ccccc1

>  <Energy>  (4) 
88.94699625746507

>  <Genealogy>  (4) 
[NH-]C(=O)c1cc2ccc(C#CC3(O)CCOCC3)cc2n1C(=O)OCc1ccccc1 (protonated)
[NH-]C(=O)c1cc2ccc(C#CC3(O)CCOCC3)cc2n1C(=O)OCc1ccccc1 (3D coordinates assigned)
[NH-]C(=O)c1cc2ccc(C#CC3(O)CCOCC3)cc2n1C(=O)OCc1ccccc1 (nonaromatic ring conformer: 88.94699625746507 kcal/mol)

>  <smiles>  (4) 
NC(=O)c1cc2ccc(C#CC3(O)CCOCC3)cc2n1C(=O)OCc1ccccc1

>  <score_type>  (4) 
oracle

>  <origin>  (4) 
adg

>  <m_score__min__energy>  (4) 
-9.9600000000000009

>  <m_primary>  (4) 
energy

$$$$
4:0
     RDKit          3D

 47 49  0  0  0  0  0  0  0  0999 V2000
  138.6400  149.2400  129.2700 C   0  0  0  0  0  0  0  0  0  0  0  0
  138.6040  148.0870  129.9430 C   0  0  0  0  0  0  0  0  0  0  0  0
  139.8710  147.4040  130.3750 C   0  0  0  0  0  0  0  0  0  0  0  0
  140.2320  147.8010  131.6970 O   0  0  0  0  0  0  0  0  0  0  0  0
  140.7050  149.0730  132.0600 C   0  0  0  0  0  0  0  0  0  0  0  0
  142.0800  149.2360  132.2560 C   0  0  0  0  0  0  0  0  0  0  0  0
  142.6060  150.4800  132.6180 C   0  0  0  0  0  0  0  0  0  0  0  0
  141.7590  151.5880  132.7930 C   0  0  0  0  0  0  0  0  0  0  0  0
  142.3150  152.9100  133.1780 C   0  0  0  0  0  0  0  0  0  0  0  0
  143.6540  153.0180  133.6400 C   0  0  0  0  0  0  0  0  0  0  0  0
  144.1950  154.2640  133.9930 C   0  0  0  0  0  0  0  0  0  0  0  0
  143.3790  155.3850  133.8840 C   0  0  0  0  0  0  0  0  0  0  0  0
  143.6570  156.7090  134.1360 C   0  0  0  0  0  0  0  0  0  0  0  0
  142.4780  157.3960  133.8470 C   0  0  0  0  0  0  0  0  0  0  0  0
  142.2950  158.8480  134.0620 C   0  0  0  0  0  0  0  0  0  0  0  0
  141.9360  159.7070  132.9790 N   0  0  0  0  0  0  0  0  0  0  0  0
  142.4870  159.3470  135.2030 O   0  0  0  0  0  0  0  0  0  0  0  0
  141.5110  156.5290  133.4320 N   0  0  0  0  0  0  0  0  0  0  0  0
  140.1880  156.8520  132.9750 C   0  0  0  0  0  0  0  0  0  0  0  0
  139.2230  156.0890  133.2490 O   0  0  0  0  0  0  0  0  0  0  0  0
  139.9800  158.0120  132.2180 O   0  0  0  0  0  0  0  0  0  0  0  0
  138.6940  158.5890  132.0020 C   0  0  0  0  0  0  0  0  0  0  0  0
  138.7020  159.4730  130.7600 C   0  0  0  0  0  0  0  0  0  0  0  0
  142.0790  155.3020  133.4580 C   0  0  0  0  0  0  0  0  0  0  0  0
  141.5190  154.0760  133.0820 C   0  0  0  0  0  0  0  0  0  0  0  0
  140.3780  151.4250  132.5960 C   0  0  0  0  0  0  0  0  0  0  0  0
  139.8530  150.1810  132.2320 C   0  0  0  0  0  0  0  0  0  0  0  0
  137.7028  149.7263  128.9615 H   0  0  0  0  0  0  0  0  0  0  0  0
  139.6069  149.7034  129.0242 H   0  0  0  0  0  0  0  0  0  0  0  0
  137.6328  147.6306  130.1846 H   0  0  0  0  0  0  0  0  0  0  0  0
  139.7194  146.3147  130.3537 H   0  0  0  0  0  0  0  0  0  0  0  0
  140.6797  147.6901  129.6864 H   0  0  0  0  0  0  0  0  0  0  0  0
  142.7545  148.3771  132.1241 H   0  0  0  0  0  0  0  0  0  0  0  0
  143.6901  150.5923  132.7668 H   0  0  0  0  0  0  0  0  0  0  0  0
  144.2747  152.1136  133.7221 H   0  0  0  0  0  0  0  0  0  0  0  0
  145.2334  154.3514  134.3453 H   0  0  0  0  0  0  0  0  0  0  0  0
  144.6073  157.1351  134.4902 H   0  0  0  0  0  0  0  0  0  0  0  0
  141.8480  160.7360  133.1340 H   0  0  0  0  0  0  0  0  0  0  0  0
  141.7160  159.3250  132.0330 H   0  0  0  0  0  0  0  0  0  0  0  0
  137.9553  157.7850  131.8683 H   0  0  0  0  0  0  0  0  0  0  0  0
  138.4323  159.2064  132.8740 H   0  0  0  0  0  0  0  0  0  0  0  0
  138.7116  160.5305  131.0627 H   0  0  0  0  0  0  0  0  0  0  0  0
  139.5982  159.2551  130.1606 H   0  0  0  0  0  0  0  0  0  0  0  0
  137.8020  159.2713  130.1606 H   0  0  0  0  0  0  0  0  0  0  0  0
  140.4820  154.0198  132.7195 H   0  0  0  0  0  0  0  0  0  0  0  0
  139.7033  152.2835  132.7292 H   0  0  0  0  0  0  0  0  0  0  0  0
  138.7696  150.0674  132.0793 H   0  0  0  0  0  0  0  0  0  0  0  0
  1  2  2  0
  2  3  1  0
  3  4  1  0
  4  5  1  0
  5  6  2  0
  6  7  1  0
  7  8  2  0
  8  9  1  0
  9 10  2  0
 10 11  1  0
 11 12  2  0
 12 13  1  0
 13 14  2  0
 14 15  1  0
 15 16  1  0
 15 17  2  0
 14 18  1  0
 18 19  1  0
 19 20  2  0
 19 21  1  0
 21 22  1  0
 22 23  1  0
 18 24  1  0
 24 25  2  0
  8 26  1  0
 26 27  2  0
 27  5  1  0
 25  9  1  0
 24 12  1  0
  1 28  1  0
  1 29  1  0
  2 30  1  0
  3 31  1  0
  3 32  1  0
  6 33  1  0
  7 34  1  0
 10 35  1  0
 11 36  1  0
 13 37  1  0
 16 38  1  0
 16 39  1  0
 22 40  1  0
 22 41  1  0
 23 42  1  0
 23 43  1  0
 23 44  1  0
 25 45  1  0
 26 46  1  0
 27 47  1  0
M  END
>  <UniqueID>  (5) 
5

>  <SMILES>  (5) 
C=CCOc1ccc(-c2ccc3cc(C(N)=O)n(C(=O)OCC)c3c2)cc1

>  <Energy>  (5) 
86.37774887132586

>  <Genealogy>  (5) 
C=CCOc1ccc(-c2ccc3cc(C(N)=O)n(C(=O)OCC)c3c2)cc1 (3D coordinates assigned)
C=CCOc1ccc(-c2ccc3cc(C(N)=O)n(C(=O)OCC)c3c2)cc1 (optimized conformer: 86.37774887132586 kcal/mol)

>  <smiles>  (5) 
C=CCOc1ccc(-c2ccc3cc(C(N)=O)n(C(=O)OCC)c3c2)cc1

>  <score_type>  (5) 
oracle

>  <origin>  (5) 
adg

>  <m_score__min__energy>  (5) 
-8.2200000000000006

>  <m_primary>  (5) 
energy

$$$$
5:0
     RDKit          3D

 35 37  0  0  0  0  0  0  0  0999 V2000
  147.3000  154.8610  135.1010 C   0  0  0  0  0  0  0  0  0  0  0  0
  146.5290  156.0120  134.7790 O   0  0  0  0  0  0  0  0  0  0  0  0
  146.5320  156.5930  133.5070 C   0  0  0  0  0  0  0  0  0  0  0  0
  146.7000  155.8740  132.4830 O   0  0  0  0  0  0  0  0  0  0  0  0
  146.3630  158.0150  133.3640 N   0  0  0  0  0  0  0  0  0  0  0  0
  147.3170  158.9360  133.0420 C   0  0  0  0  0  0  0  0  0  0  0  0
  148.6960  158.6400  132.6020 C   0  0  0  0  0  0  0  0  0  0  0  0
  149.0000  157.4630  131.8530 N   0  0  0  0  0  0  0  0  0  0  0  0
  149.6090  159.4740  132.8370 O   0  0  0  0  0  0  0  0  0  0  0  0
  146.8060  160.2260  133.1240 C   0  0  0  0  0  0  0  0  0  0  0  0
  145.4910  160.0720  133.4940 C   0  0  0  0  0  0  0  0  0  0  0  0
  144.5120  161.0320  133.7270 C   0  0  0  0  0  0  0  0  0  0  0  0
  143.2390  160.5950  134.1290 C   0  0  0  0  0  0  0  0  0  0  0  0
  142.9670  159.2130  134.3040 C   0  0  0  0  0  0  0  0  0  0  0  0
  141.6230  158.7660  134.7510 C   0  0  0  0  0  0  0  0  0  0  0  0
  140.6750  158.2960  133.8260 C   0  0  0  0  0  0  0  0  0  0  0  0
  139.4170  157.8810  134.2610 C   0  0  0  0  0  0  0  0  0  0  0  0
  139.1080  157.9370  135.6200 C   0  0  0  0  0  0  0  0  0  0  0  0
  140.0280  158.3950  136.5070 N   0  0  0  0  0  0  0  0  0  0  0  0
  141.2630  158.8030  136.1110 C   0  0  0  0  0  0  0  0  0  0  0  0
  143.9910  158.2660  134.0560 C   0  0  0  0  0  0  0  0  0  0  0  0
  145.2460  158.7300  133.6360 C   0  0  0  0  0  0  0  0  0  0  0  0
  147.3681  154.7593  136.1942 H   0  0  0  0  0  0  0  0  0  0  0  0
  146.8179  153.9669  134.6789 H   0  0  0  0  0  0  0  0  0  0  0  0
  148.3103  154.9666  134.6789 H   0  0  0  0  0  0  0  0  0  0  0  0
  148.2420  156.8300  131.5150 H   0  0  0  0  0  0  0  0  0  0  0  0
  149.9810  157.2640  131.5580 H   0  0  0  0  0  0  0  0  0  0  0  0
  147.3398  161.1687  132.9335 H   0  0  0  0  0  0  0  0  0  0  0  0
  144.7284  162.1030  133.6001 H   0  0  0  0  0  0  0  0  0  0  0  0
  142.4434  161.3327  134.3103 H   0  0  0  0  0  0  0  0  0  0  0  0
  140.9262  158.2554  132.7558 H   0  0  0  0  0  0  0  0  0  0  0  0
  138.6742  157.5124  133.5383 H   0  0  0  0  0  0  0  0  0  0  0  0
  138.1188  157.6100  135.9730 H   0  0  0  0  0  0  0  0  0  0  0  0
  141.9851  159.1641  136.8581 H   0  0  0  0  0  0  0  0  0  0  0  0
  143.8057  157.1900  134.1900 H   0  0  0  0  0  0  0  0  0  0  0  0
  1  2  1  0
  2  3  1  0
  3  4  2  0
  3  5  1  0
  5  6  1  0
  6  7  1  0
  7  8  1  0
  7  9  2  0
  6 10  2  0
 10 11  1  0
 11 12  2  0
 12 13  1  0
 13 14  2  0
 14 15  1  0
 15 16  2  0
 16 17  1  0
 17 18  2  0
 18 19  1  0
 19 20  2  0
 14 21  1  0
 21 22  2  0
 22  5  1  0
 22 11  1  0
 20 15  1  0
  1 23  1  0
  1 24  1  0
  1 25  1  0
  8 26  1  0
  8 27  1  0
 10 28  1  0
 12 29  1  0
 13 30  1  0
 16 31  1  0
 17 32  1  0
 18 33  1  0
 20 34  1  0
 21 35  1  0
M  END
>  <UniqueID>  (6) 
6

>  <SMILES>  (6) 
COC(=O)n1c(C(N)=O)cc2ccc(-c3cccnc3)cc21

>  <Energy>  (6) 
81.48885540111682

>  <Genealogy>  (6) 
COC(=O)n1c(C(N)=O)cc2ccc(-c3cccnc3)cc21 (3D coordinates assigned)
COC(=O)n1c(C(N)=O)cc2ccc(-c3cccnc3)cc21 (optimized conformer: 81.48885540111682 kcal/mol)

>  <smiles>  (6) 
COC(=O)n1c(C(N)=O)cc2ccc(-c3cccnc3)cc21

>  <score_type>  (6) 
oracle

>  <origin>  (6) 
adg

>  <m_score__min__energy>  (6) 
-7.0499999999999998

>  <m_primary>  (6) 
energy

$$$$
6:0
     RDKit          3D

 45 47  0  0  0  0  0  0  0  0999 V2000
  142.6330  156.5440  134.9010 C   0  0  0  0  0  0  0  0  0  0  0  0
  142.8170  157.3410  133.6490 C   0  0  0  0  0  0  0  0  0  0  0  0
  142.0930  157.0930  132.6480 O   0  0  0  0  0  0  0  0  0  0  0  0
  143.7560  158.4270  133.5980 N   0  0  0  0  0  0  0  0  0  0  0  0
  143.5050  159.7490  133.3820 C   0  0  0  0  0  0  0  0  0  0  0  0
  142.1670  160.3690  133.2830 C   0  0  0  0  0  0  0  0  0  0  0  0
  141.1290  159.7080  132.5640 N   0  0  0  0  0  0  0  0  0  0  0  0
  141.9390  161.4940  133.8020 O   0  0  0  0  0  0  0  0  0  0  0  0
  144.6950  160.4710  133.3450 C   0  0  0  0  0  0  0  0  0  0  0  0
  145.6910  159.5450  133.5580 C   0  0  0  0  0  0  0  0  0  0  0  0
  147.0710  159.7080  133.6180 C   0  0  0  0  0  0  0  0  0  0  0  0
  147.8610  158.5670  133.8360 C   0  0  0  0  0  0  0  0  0  0  0  0
  147.2640  157.2860  133.9870 C   0  0  0  0  0  0  0  0  0  0  0  0
  148.1170  156.0480  134.2100 C   0  0  1  0  0  0  0  0  0  0  0  0
  147.4170  155.0540  135.1570 C   0  0  0  0  0  0  0  0  0  0  0  0
  148.1050  153.6890  135.0700 C   0  0  0  0  0  0  0  0  0  0  0  0
  147.9540  153.0770  133.7220 N   0  0  2  0  0  0  0  0  0  0  0  0
  149.0390  152.1470  133.4740 C   0  0  0  0  0  0  0  0  0  0  0  0
  149.4920  151.8640  132.0720 C   0  0  0  0  0  0  0  0  0  0  0  0
  149.6030  151.5900  134.4070 O   0  0  0  0  0  0  0  0  0  0  0  0
  147.8290  154.0560  132.6060 C   0  0  0  0  0  0  0  0  0  0  0  0
  148.5590  155.3850  132.8770 C   0  0  0  0  0  0  0  0  0  0  0  0
  145.8560  157.1650  133.9170 C   0  0  0  0  0  0  0  0  0  0  0  0
  145.0970  158.3210  133.7110 C   0  0  0  0  0  0  0  0  0  0  0  0
  142.7832  157.1946  135.7752 H   0  0  0  0  0  0  0  0  0  0  0  0
  141.6151  156.1277  134.9243 H   0  0  0  0  0  0  0  0  0  0  0  0
  143.3653  155.7236  134.9243 H   0  0  0  0  0  0  0  0  0  0  0  0
  141.3520  158.9890  131.8400 H   0  0  0  0  0  0  0  0  0  0  0  0
  144.8140  161.5521  133.1805 H   0  0  0  0  0  0  0  0  0  0  0  0
  147.5300  160.7005  133.4983 H   0  0  0  0  0  0  0  0  0  0  0  0
  148.9552  158.6662  133.8905 H   0  0  0  0  0  0  0  0  0  0  0  0
  149.0435  156.3743  134.7051 H   0  0  0  0  0  0  0  0  0  0  0  0
  146.3616  154.9512  134.8644 H   0  0  0  0  0  0  0  0  0  0  0  0
  147.4785  155.4285  136.1894 H   0  0  0  0  0  0  0  0  0  0  0  0
  147.6583  153.0172  135.8177 H   0  0  0  0  0  0  0  0  0  0  0  0
  149.1786  153.8353  135.2599 H   0  0  0  0  0  0  0  0  0  0  0  0
  147.0620  152.5290  133.7380 H   0  0  0  0  0  0  0  0  0  0  0  0
  150.4246  151.2814  132.0986 H   0  0  0  0  0  0  0  0  0  0  0  0
  148.7159  151.2899  131.5447 H   0  0  0  0  0  0  0  0  0  0  0  0
  149.6676  152.8133  131.5447 H   0  0  0  0  0  0  0  0  0  0  0  0
  146.7618  154.2699  132.4471 H   0  0  0  0  0  0  0  0  0  0  0  0
  148.2970  153.6019  131.7202 H   0  0  0  0  0  0  0  0  0  0  0  0
  148.3457  156.0790  132.0506 H   0  0  0  0  0  0  0  0  0  0  0  0
  149.6340  155.1649  132.9547 H   0  0  0  0  0  0  0  0  0  0  0  0
  145.3697  156.1840  134.0223 H   0  0  0  0  0  0  0  0  0  0  0  0
  1  2  1  0
  2  3  2  0
  2  4  1  0
  4  5  1  0
  5  6  1  0
  6  7  1  0
  6  8  2  0
  5  9  2  0
  9 10  1  0
 10 11  2  0
 11 12  1  0
 12 13  2  0
 13 14  1  0
 14 15  1  0
 15 16  1  0
 16 17  1  0
 17 18  1  0
 18 19  1  0
 18 20  2  0
 17 21  1  0
 21 22  1  0
 13 23  1  0
 23 24  2  0
 24  4  1  0
 24 10  1  0
 22 14  1  0
  1 25  1  0
  1 26  1  0
  1 27  1  0
  7 28  1  0
  9 29  1  0
 11 30  1  0
 12 31  1  0
 14 32  1  1
 15 33  1  0
 15 34  1  0
 16 35  1  0
 16 36  1  0
 17 37  1  1
 19 38  1  0
 19 39  1  0
 19 40  1  0
 21 41  1  0
 21 42  1  0
 22 43  1  0
 22 44  1  0
 23 45  1  0
M  CHG  2   7  -1  17   1
M  END
>  <UniqueID>  (7) 
7

>  <SMILES>  (7) 
CC(=O)n1c(C([NH-])=O)cc2ccc(C3CC[NH+](C(C)=O)CC3)cc21

>  <Energy>  (7) 
93.73782809860266

>  <Genealogy>  (7) 
CC(=O)n1c(C([NH-])=O)cc2ccc(C3CC[NH+](C(C)=O)CC3)cc21 (protonated)
CC(=O)n1c(C([NH-])=O)cc2ccc(C3CC[NH+](C(C)=O)CC3)cc21 (3D coordinates assigned)
CC(=O)n1c(C([NH-])=O)cc2ccc(C3CC[NH+](C(C)=O)CC3)cc21 (nonaromatic ring conformer: 93.73782809860266 kcal/mol)

>  <smiles>  (7) 
CC(=O)N1CCC(c2ccc3cc(C(N)=O)n(C(C)=O)c3c2)CC1

>  <score_type>  (7) 
oracle

>  <origin>  (7) 
adg

>  <m_score__min__energy>  (7) 
-7.7199999999999998

>  <m_primary>  (7) 
energy

$$$$
7:0
     RDKit          3D

 59 61  0  0  0  0  0  0  0  0999 V2000
  141.3510  158.6030  137.8850 C   0  0  0  0  0  0  0  0  0  0  0  0
  141.0920  157.3250  137.5790 C   0  0  0  0  0  0  0  0  0  0  0  0
  140.6540  157.0200  136.1950 C   0  0  0  0  0  0  0  0  0  0  0  0
  139.5760  157.7450  135.6630 C   0  0  0  0  0  0  0  0  0  0  0  0
  139.1240  157.4950  134.3670 C   0  0  0  0  0  0  0  0  0  0  0  0
  139.7440  156.5210  133.5860 C   0  0  0  0  0  0  0  0  0  0  0  0
  139.2990  156.2780  132.3290 F   0  0  0  0  0  0  0  0  0  0  0  0
  140.8190  155.7920  134.0990 C   0  0  0  0  0  0  0  0  0  0  0  0
  141.2930  156.0310  135.4020 C   0  0  0  0  0  0  0  0  0  0  0  0
  142.4370  155.1900  135.9320 C   0  0  0  0  0  0  0  0  0  0  0  0
  143.7180  155.4870  135.1950 C   0  0  0  0  0  0  0  0  0  0  0  0
  144.6410  154.4430  134.9290 C   0  0  0  0  0  0  0  0  0  0  0  0
  145.8590  154.7120  134.2860 C   0  0  0  0  0  0  0  0  0  0  0  0
  146.1230  156.0240  133.9080 C   0  0  0  0  0  0  0  0  0  0  0  0
  147.2050  156.5480  133.2400 C   0  0  0  0  0  0  0  0  0  0  0  0
  146.9200  157.9020  133.0830 C   0  0  0  0  0  0  0  0  0  0  0  0
  147.8550  158.8650  132.4670 C   0  0  0  0  0  0  0  0  0  0  0  0
  147.3730  159.9140  131.6290 N   0  0  0  0  0  0  0  0  0  0  0  0
  149.0870  158.7920  132.7220 O   0  0  0  0  0  0  0  0  0  0  0  0
  145.7060  158.2050  133.6250 N   0  0  0  0  0  0  0  0  0  0  0  0
  144.9800  159.4390  133.4990 C   0  0  0  0  0  0  0  0  0  0  0  0
  145.5560  160.5280  133.7620 O   0  0  0  0  0  0  0  0  0  0  0  0
  143.6500  159.4210  133.0490 O   0  0  0  0  0  0  0  0  0  0  0  0
  142.5290  160.0460  133.6920 C   0  0  0  0  0  0  0  0  0  0  0  0
  142.7060  161.5770  133.7270 C   0  0  0  0  0  0  0  0  0  0  0  0
  141.2180  159.6660  132.9770 C   0  0  0  0  0  0  0  0  0  0  0  0
  142.4760  159.5190  135.1340 C   0  0  0  0  0  0  0  0  0  0  0  0
  145.2360  157.0450  134.1360 C   0  0  0  0  0  0  0  0  0  0  0  0
  144.0090  156.8050  134.7710 C   0  0  0  0  0  0  0  0  0  0  0  0
  141.1850  156.2630  138.5690 N   0  0  0  0  0  0  0  0  0  0  0  0
  140.2320  155.1430  138.5790 C   0  0  0  0  0  0  0  0  0  0  0  0
  142.2170  156.3260  139.6140 C   0  0  0  0  0  0  0  0  0  0  0  0
  141.6782  158.8699  138.9007 H   0  0  0  0  0  0  0  0  0  0  0  0
  141.2365  159.3857  137.1206 H   0  0  0  0  0  0  0  0  0  0  0  0
  139.0836  158.5166  136.2730 H   0  0  0  0  0  0  0  0  0  0  0  0
  138.2770  158.0674  133.9609 H   0  0  0  0  0  0  0  0  0  0  0  0
  141.3004  155.0225  133.4776 H   0  0  0  0  0  0  0  0  0  0  0  0
  142.5786  155.4092  137.0006 H   0  0  0  0  0  0  0  0  0  0  0  0
  142.1875  154.1290  135.7838 H   0  0  0  0  0  0  0  0  0  0  0  0
  144.3996  153.4128  135.2296 H   0  0  0  0  0  0  0  0  0  0  0  0
  146.5836  153.9087  134.0868 H   0  0  0  0  0  0  0  0  0  0  0  0
  148.1040  156.0118  132.9018 H   0  0  0  0  0  0  0  0  0  0  0  0
  146.5470  160.4920  131.9120 H   0  0  0  0  0  0  0  0  0  0  0  0
  142.7454  161.9177  134.7722 H   0  0  0  0  0  0  0  0  0  0  0  0
  143.6416  161.8497  133.2169 H   0  0  0  0  0  0  0  0  0  0  0  0
  141.8572  162.0560  133.2169 H   0  0  0  0  0  0  0  0  0  0  0  0
  140.4438  159.4416  133.7256 H   0  0  0  0  0  0  0  0  0  0  0  0
  140.8871  160.5052  132.3475 H   0  0  0  0  0  0  0  0  0  0  0  0
  141.3872  158.7799  132.3475 H   0  0  0  0  0  0  0  0  0  0  0  0
  142.5608  160.3618  135.8358 H   0  0  0  0  0  0  0  0  0  0  0  0
  141.5210  158.9988  135.2994 H   0  0  0  0  0  0  0  0  0  0  0  0
  143.3083  158.8190  135.2994 H   0  0  0  0  0  0  0  0  0  0  0  0
  143.2904  157.6214  134.9354 H   0  0  0  0  0  0  0  0  0  0  0  0
  139.9990  154.8691  139.6186 H   0  0  0  0  0  0  0  0  0  0  0  0
  139.3081  155.4431  138.0630 H   0  0  0  0  0  0  0  0  0  0  0  0
  140.6761  154.2790  138.0630 H   0  0  0  0  0  0  0  0  0  0  0  0
  141.7385  156.2968  140.6041 H   0  0  0  0  0  0  0  0  0  0  0  0
  142.8971  155.4677  139.5099 H   0  0  0  0  0  0  0  0  0  0  0  0
  142.7876  157.2607  139.5099 H   0  0  0  0  0  0  0  0  0  0  0  0
  1  2  2  0
  2  3  1  0
  3  4  2  0
  4  5  1  0
  5  6  2  0
  6  7  1  0
  6  8  1  0
  8  9  2  0
  9 10  1  0
 10 11  1  0
 11 12  2  0
 12 13  1  0
 13 14  2  0
 14 15  1  0
 15 16  2  0
 16 17  1  0
 17 18  1  0
 17 19  2  0
 16 20  1  0
 20 21  1  0
 21 22  2  0
 21 23  1  0
 23 24  1  0
 24 25  1  0
 24 26  1  0
 24 27  1  0
 20 28  1  0
 28 29  2  0
  2 30  1  0
 30 31  1  0
 30 32  1  0
  9  3  1  0
 29 11  1  0
 28 14  1  0
  1 33  1  0
  1 34  1  0
  4 35  1  0
  5 36  1  0
  8 37  1  0
 10 38  1  0
 10 39  1  0
 12 40  1  0
 13 41  1  0
 15 42  1  0
 18 43  1  0
 25 44  1  0
 25 45  1  0
 25 46  1  0
 26 47  1  0
 26 48  1  0
 26 49  1  0
 27 50  1  0
 27 51  1  0
 27 52  1  0
 29 53  1  0
 31 54  1  0
 31 55  1  0
 31 56  1  0
 32 57  1  0
 32 58  1  0
 32 59  1  0
M  CHG  1  18  -1
M  END
>  <UniqueID>  (8) 
8

>  <SMILES>  (8) 
C=C(c1ccc(F)cc1Cc1ccc2cc(C([NH-])=O)n(C(=O)OC(C)(C)C)c2c1)N(C)C

>  <Energy>  (8) 
96.76012307066404

>  <Genealogy>  (8) 
C=C(c1ccc(F)cc1Cc1ccc2cc(C([NH-])=O)n(C(=O)OC(C)(C)C)c2c1)N(C)C (protonated)
C=C(c1ccc(F)cc1Cc1ccc2cc(C([NH-])=O)n(C(=O)OC(C)(C)C)c2c1)N(C)C (3D coordinates assigned)
C=C(c1ccc(F)cc1Cc1ccc2cc(C([NH-])=O)n(C(=O)OC(C)(C)C)c2c1)N(C)C (optimized conformer: 96.76012307066404 kcal/mol)

>  <smiles>  (8) 
C=C(c1ccc(F)cc1Cc1ccc2cc(C(N)=O)n(C(=O)OC(C)(C)C)c2c1)N(C)C

>  <score_type>  (8) 
oracle

>  <origin>  (8) 
adg

>  <m_score__min__energy>  (8) 
-8.9000000000000004

>  <m_primary>  (8) 
energy

$$$$
8:0
     RDKit          3D

 35 37  0  0  0  0  0  0  0  0999 V2000
  149.0740  158.4410  131.9240 N   0  0  0  0  0  0  0  0  0  0  0  0
  148.4940  158.8340  133.1660 C   0  0  0  0  0  0  0  0  0  0  0  0
  149.2350  158.9780  134.1740 O   0  0  0  0  0  0  0  0  0  0  0  0
  147.0430  159.1070  133.2460 C   0  0  0  0  0  0  0  0  0  0  0  0
  146.5100  160.3820  133.4310 C   0  0  0  0  0  0  0  0  0  0  0  0
  145.1500  160.1980  133.5310 C   0  0  0  0  0  0  0  0  0  0  0  0
  144.1320  161.1310  133.7050 C   0  0  0  0  0  0  0  0  0  0  0  0
  142.8090  160.6620  133.7450 C   0  0  0  0  0  0  0  0  0  0  0  0
  142.5320  159.2780  133.6100 C   0  0  0  0  0  0  0  0  0  0  0  0
  141.1320  158.8040  133.6300 C   0  0  0  0  0  0  0  0  0  0  0  0
  140.4350  158.7530  132.4120 C   0  0  0  0  0  0  0  0  0  0  0  0
  139.1270  158.2720  132.3610 C   0  0  0  0  0  0  0  0  0  0  0  0
  138.5000  157.8320  133.5250 C   0  0  0  0  0  0  0  0  0  0  0  0
  139.1720  157.8880  134.7480 C   0  0  0  0  0  0  0  0  0  0  0  0
  140.4830  158.3980  134.8290 C   0  0  0  0  0  0  0  0  0  0  0  0
  141.1710  158.4600  136.1800 C   0  0  0  0  0  0  0  0  0  0  0  0
  141.4630  159.7750  136.4910 F   0  0  0  0  0  0  0  0  0  0  0  0
  142.3530  157.7390  136.1730 F   0  0  0  0  0  0  0  0  0  0  0  0
  140.3630  157.9260  137.1680 F   0  0  0  0  0  0  0  0  0  0  0  0
  143.5890  158.3630  133.4180 C   0  0  0  0  0  0  0  0  0  0  0  0
  144.8990  158.8560  133.4050 C   0  0  0  0  0  0  0  0  0  0  0  0
  146.0500  158.1720  133.2270 N   0  0  0  0  0  0  0  0  0  0  0  0
  146.1770  156.7570  133.0090 C   0  0  0  0  0  0  0  0  0  0  0  0
  147.2330  156.2480  132.1980 N   0  0  0  0  0  0  0  0  0  0  0  0
  145.3620  155.9590  133.5440 O   0  0  0  0  0  0  0  0  0  0  0  0
  148.8710  157.5030  131.5110 H   0  0  0  0  0  0  0  0  0  0  0  0
  147.0599  161.3331  133.4854 H   0  0  0  0  0  0  0  0  0  0  0  0
  144.3569  162.2028  133.8080 H   0  0  0  0  0  0  0  0  0  0  0  0
  141.9814  161.3736  133.8821 H   0  0  0  0  0  0  0  0  0  0  0  0
  140.9256  159.0958  131.4891 H   0  0  0  0  0  0  0  0  0  0  0  0
  138.5900  158.2399  131.4015 H   0  0  0  0  0  0  0  0  0  0  0  0
  137.4733  157.4396  133.4805 H   0  0  0  0  0  0  0  0  0  0  0  0
  138.6715  157.5294  135.6596 H   0  0  0  0  0  0  0  0  0  0  0  0
  143.3886  157.2900  133.2821 H   0  0  0  0  0  0  0  0  0  0  0  0
  147.6900  156.8460  131.4740 H   0  0  0  0  0  0  0  0  0  0  0  0
  1  2  1  0
  2  3  2  0
  2  4  1  0
  4  5  2  0
  5  6  1  0
  6  7  2  0
  7  8  1  0
  8  9  2  0
  9 10  1  0
 10 11  2  0
 11 12  1  0
 12 13  2  0
 13 14  1  0
 14 15  2  0
 15 16  1  0
 16 17  1  0
 16 18  1  0
 16 19  1  0
  9 20  1  0
 20 21  2  0
 21 22  1  0
 22 23  1  0
 23 24  1  0
 23 25  2  0
 22  4  1  0
 21  6  1  0
 15 10  1  0
  1 26  1  0
  5 27  1  0
  7 28  1  0
  8 29  1  0
 11 30  1  0
 12 31  1  0
 13 32  1  0
 14 33  1  0
 20 34  1  0
 24 35  1  0
M  CHG  2   1  -1  24  -1
M  END
>  <UniqueID>  (9) 
9

>  <SMILES>  (9) 
[NH-]C(=O)c1cc2ccc(-c3ccccc3C(F)(F)F)cc2n1C([NH-])=O

>  <Energy>  (9) 
86.30282533950303

>  <Genealogy>  (9) 
[NH-]C(=O)c1cc2ccc(-c3ccccc3C(F)(F)F)cc2n1C([NH-])=O (protonated)
[NH-]C(=O)c1cc2ccc(-c3ccccc3C(F)(F)F)cc2n1C([NH-])=O (3D coordinates assigned)
[NH-]C(=O)c1cc2ccc(-c3ccccc3C(F)(F)F)cc2n1C([NH-])=O (optimized conformer: 86.30282533950303 kcal/mol)

>  <smiles>  (9) 
NC(=O)c1cc2ccc(-c3ccccc3C(F)(F)F)cc2n1C(N)=O

>  <score_type>  (9) 
oracle

>  <origin>  (9) 
adg

>  <m_score__min__energy>  (9) 
-7.4299999999999997

>  <m_primary>  (9) 
energy

$$$$
9:0
     RDKit          3D

 38 39  0  0  0  0  0  0  0  0999 V2000
  149.2230  158.9910  129.6420 C   0  0  0  0  0  0  0  0  0  0  0  0
  148.8350  159.4630  131.0560 C   0  0  0  0  0  0  0  0  0  0  0  0
  147.5560  160.3190  131.0140 C   0  0  0  0  0  0  0  0  0  0  0  0
  149.9820  160.3110  131.6270 C   0  0  0  0  0  0  0  0  0  0  0  0
  148.6640  158.3400  131.9330 O   0  0  0  0  0  0  0  0  0  0  0  0
  148.0560  158.3560  133.1970 C   0  0  0  0  0  0  0  0  0  0  0  0
  148.7460  158.4540  134.2460 O   0  0  0  0  0  0  0  0  0  0  0  0
  146.6250  158.2750  133.2920 N   0  0  0  0  0  0  0  0  0  0  0  0
  145.8440  157.1620  133.1900 C   0  0  0  0  0  0  0  0  0  0  0  0
  146.3170  155.8110  132.8140 C   0  0  0  0  0  0  0  0  0  0  0  0
  147.3760  155.6440  131.8690 N   0  0  0  0  0  0  0  0  0  0  0  0
  145.8090  154.7910  133.3490 O   0  0  0  0  0  0  0  0  0  0  0  0
  144.5040  157.4870  133.3950 C   0  0  0  0  0  0  0  0  0  0  0  0
  144.4890  158.8440  133.6260 C   0  0  0  0  0  0  0  0  0  0  0  0
  143.4200  159.6940  133.8860 C   0  0  0  0  0  0  0  0  0  0  0  0
  143.6960  161.0550  134.1030 C   0  0  0  0  0  0  0  0  0  0  0  0
  145.0320  161.5360  134.0820 C   0  0  0  0  0  0  0  0  0  0  0  0
  145.3140  163.0030  134.2800 C   0  0  0  0  0  0  0  0  0  0  0  0
  145.2640  163.3340  135.6230 F   0  0  0  0  0  0  0  0  0  0  0  0
  146.5740  163.2940  133.7910 F   0  0  0  0  0  0  0  0  0  0  0  0
  144.3810  163.7750  133.6090 F   0  0  0  0  0  0  0  0  0  0  0  0
  146.0890  160.6420  133.7900 C   0  0  0  0  0  0  0  0  0  0  0  0
  145.7800  159.2950  133.5590 C   0  0  0  0  0  0  0  0  0  0  0  0
  149.9199  158.1432  129.7168 H   0  0  0  0  0  0  0  0  0  0  0  0
  148.3193  158.6760  129.0997 H   0  0  0  0  0  0  0  0  0  0  0  0
  149.7069  159.8167  129.0997 H   0  0  0  0  0  0  0  0  0  0  0  0
  147.2279  160.5386  132.0407 H   0  0  0  0  0  0  0  0  0  0  0  0
  147.7627  161.2614  130.4857 H   0  0  0  0  0  0  0  0  0  0  0  0
  146.7636  159.7686  130.4857 H   0  0  0  0  0  0  0  0  0  0  0  0
  149.9458  160.2842  132.7261 H   0  0  0  0  0  0  0  0  0  0  0  0
  150.9446  159.9057  131.2819 H   0  0  0  0  0  0  0  0  0  0  0  0
  149.8767  161.3501  131.2819 H   0  0  0  0  0  0  0  0  0  0  0  0
  147.7850  156.4600  131.3630 H   0  0  0  0  0  0  0  0  0  0  0  0
  147.7290  154.6890  131.6410 H   0  0  0  0  0  0  0  0  0  0  0  0
  143.6418  156.8042  133.3762 H   0  0  0  0  0  0  0  0  0  0  0  0
  142.3888  159.3127  133.9209 H   0  0  0  0  0  0  0  0  0  0  0  0
  142.8685  161.7549  134.2911 H   0  0  0  0  0  0  0  0  0  0  0  0
  147.1294  160.9963  133.7453 H   0  0  0  0  0  0  0  0  0  0  0  0
  1  2  1  0
  2  3  1  0
  2  4  1  0
  2  5  1  0
  5  6  1  0
  6  7  2  0
  6  8  1  0
  8  9  1  0
  9 10  1  0
 10 11  1  0
 10 12  2  0
  9 13  2  0
 13 14  1  0
 14 15  2  0
 15 16  1  0
 16 17  2  0
 17 18  1  0
 18 19  1  0
 18 20  1  0
 18 21  1  0
 17 22  1  0
 22 23  2  0
 23  8  1  0
 23 14  1  0
  1 24  1  0
  1 25  1  0
  1 26  1  0
  3 27  1  0
  3 28  1  0
  3 29  1  0
  4 30  1  0
  4 31  1  0
  4 32  1  0
 11 33  1  0
 11 34  1  0
 13 35  1  0
 15 36  1  0
 16 37  1  0
 22 38  1  0
M  END
>  <UniqueID>  (10) 
10

>  <SMILES>  (10) 
CC(C)(C)OC(=O)n1c(C(N)=O)cc2ccc(C(F)(F)F)cc21

>  <Energy>  (10) 
72.18323239438146

>  <Genealogy>  (10) 
CC(C)(C)OC(=O)n1c(C(N)=O)cc2ccc(C(F)(F)F)cc21 (3D coordinates assigned)
CC(C)(C)OC(=O)n1c(C(N)=O)cc2ccc(C(F)(F)F)cc21 (optimized conformer: 72.18323239438146 kcal/mol)

>  <smiles>  (10) 
CC(C)(C)OC(=O)n1c(C(N)=O)cc2ccc(C(F)(F)F)cc21

>  <score_type>  (10) 
oracle

>  <origin>  (10) 
adg

>  <m_score__min__energy>  (10) 
-6.5499999999999998

>  <m_primary>  (10) 
energy

$$$$
10:0
     RDKit          3D

 44 46  0  0  0  0  0  0  0  0999 V2000
  148.8650  159.0270  129.9740 C   0  0  0  0  0  0  0  0  0  0  0  0
  148.6980  159.8280  131.2750 C   0  0  0  0  0  0  0  0  0  0  0  0
  149.5520  159.1740  132.3770 C   0  0  0  0  0  0  0  0  0  0  0  0
  149.1470  161.2800  131.0250 C   0  0  0  0  0  0  0  0  0  0  0  0
  147.3060  159.7840  131.6210 O   0  0  0  0  0  0  0  0  0  0  0  0
  146.7650  159.8970  132.9100 C   0  0  0  0  0  0  0  0  0  0  0  0
  147.1770  160.7770  133.7110 O   0  0  0  0  0  0  0  0  0  0  0  0
  145.7050  159.0140  133.3070 N   0  0  0  0  0  0  0  0  0  0  0  0
  144.4160  159.3330  133.6160 C   0  0  0  0  0  0  0  0  0  0  0  0
  143.8690  160.6980  133.7600 C   0  0  0  0  0  0  0  0  0  0  0  0
  144.7320  161.8250  133.8940 N   0  0  0  0  0  0  0  0  0  0  0  0
  142.6210  160.8670  133.8120 O   0  0  0  0  0  0  0  0  0  0  0  0
  143.6760  158.1800  133.8690 C   0  0  0  0  0  0  0  0  0  0  0  0
  144.5610  157.1370  133.7140 C   0  0  0  0  0  0  0  0  0  0  0  0
  144.3610  155.7660  133.8390 C   0  0  0  0  0  0  0  0  0  0  0  0
  145.4510  154.9140  133.5960 C   0  0  0  0  0  0  0  0  0  0  0  0
  146.7160  155.4430  133.2250 C   0  0  0  0  0  0  0  0  0  0  0  0
  147.8740  154.5590  132.9570 C   0  0  0  0  0  0  0  0  0  0  0  0
  148.9910  154.9020  132.2850 N   0  0  0  0  0  0  0  0  0  0  0  0
  149.7820  153.8420  132.2550 N   0  0  0  0  0  0  0  0  0  0  0  0
  149.1150  152.8800  132.9230 C   0  0  0  0  0  0  0  0  0  0  0  0
  149.6220  151.4920  133.1170 C   0  0  0  0  0  0  0  0  0  0  0  0
  150.9040  151.3860  132.5680 O   0  0  0  0  0  0  0  0  0  0  0  0
  147.9490  153.3090  133.3500 O   0  0  0  0  0  0  0  0  0  0  0  0
  146.8760  156.8420  133.1070 C   0  0  0  0  0  0  0  0  0  0  0  0
  145.7780  157.6670  133.3760 C   0  0  0  0  0  0  0  0  0  0  0  0
  149.0840  157.9765  130.2158 H   0  0  0  0  0  0  0  0  0  0  0  0
  147.9360  159.0823  129.3875 H   0  0  0  0  0  0  0  0  0  0  0  0
  149.6945  159.4489  129.3875 H   0  0  0  0  0  0  0  0  0  0  0  0
  149.1661  159.4695  133.3638 H   0  0  0  0  0  0  0  0  0  0  0  0
  149.5039  158.0796  132.2772 H   0  0  0  0  0  0  0  0  0  0  0  0
  150.5960  159.5057  132.2772 H   0  0  0  0  0  0  0  0  0  0  0  0
  149.3036  161.7865  131.9888 H   0  0  0  0  0  0  0  0  0  0  0  0
  150.0871  161.2799  130.4538 H   0  0  0  0  0  0  0  0  0  0  0  0
  148.3710  161.8106  130.4538 H   0  0  0  0  0  0  0  0  0  0  0  0
  145.6350  161.8740  133.3730 H   0  0  0  0  0  0  0  0  0  0  0  0
  142.6108  158.1165  134.1359 H   0  0  0  0  0  0  0  0  0  0  0  0
  143.3777  155.3609  134.1200 H   0  0  0  0  0  0  0  0  0  0  0  0
  145.3237  153.8258  133.6940 H   0  0  0  0  0  0  0  0  0  0  0  0
  149.2280  155.8180  131.8480 H   0  0  0  0  0  0  0  0  0  0  0  0
  149.6628  151.2629  134.1921 H   0  0  0  0  0  0  0  0  0  0  0  0
  148.9478  150.7808  132.6174 H   0  0  0  0  0  0  0  0  0  0  0  0
  151.0550  152.2230  132.0580 H   0  0  0  0  0  0  0  0  0  0  0  0
  147.8432  157.2735  132.8099 H   0  0  0  0  0  0  0  0  0  0  0  0
  1  2  1  0
  2  3  1  0
  2  4  1  0
  2  5  1  0
  5  6  1  0
  6  7  2  0
  6  8  1  0
  8  9  1  0
  9 10  1  0
 10 11  1  0
 10 12  2  0
  9 13  2  0
 13 14  1  0
 14 15  2  0
 15 16  1  0
 16 17  2  0
 17 18  1  0
 18 19  2  0
 19 20  1  0
 20 21  2  0
 21 22  1  0
 22 23  1  0
 21 24  1  0
 17 25  1  0
 25 26  2  0
 26  8  1  0
 26 14  1  0
 24 18  1  0
  1 27  1  0
  1 28  1  0
  1 29  1  0
  3 30  1  0
  3 31  1  0
  3 32  1  0
  4 33  1  0
  4 34  1  0
  4 35  1  0
 11 36  1  0
 13 37  1  0
 15 38  1  0
 16 39  1  0
 19 40  1  0
 22 41  1  0
 22 42  1  0
 23 43  1  0
 25 44  1  0
M  CHG  2  11  -1  19   1
M  END
>  <UniqueID>  (11) 
11

>  <SMILES>  (11) 
CC(C)(C)OC(=O)n1c(C([NH-])=O)cc2ccc(-c3[nH+]nc(CO)o3)cc21

>  <Energy>  (11) 
114.43664213059031

>  <Genealogy>  (11) 
CC(C)(C)OC(=O)n1c(C([NH-])=O)cc2ccc(-c3[nH+]nc(CO)o3)cc21 (protonated)
CC(C)(C)OC(=O)n1c(C([NH-])=O)cc2ccc(-c3[nH+]nc(CO)o3)cc21 (3D coordinates assigned)
CC(C)(C)OC(=O)n1c(C([NH-])=O)cc2ccc(-c3[nH+]nc(CO)o3)cc21 (optimized conformer: 114.43664213059031 kcal/mol)

>  <smiles>  (11) 
CC(C)(C)OC(=O)n1c(C(N)=O)cc2ccc(-c3nnc(CO)o3)cc21

>  <score_type>  (11) 
oracle

>  <origin>  (11) 
adg

>  <m_score__min__energy>  (11) 
-7.8899999999999997

>  <m_primary>  (11) 
energy

$$$$
11:0
     RDKit          3D

 48 50  0  0  0  0  0  0  0  0999 V2000
  145.6450  154.1150  133.9200 C   0  0  0  0  0  0  0  0  0  0  0  0
  146.4090  154.4510  132.6350 C   0  0  0  0  0  0  0  0  0  0  0  0
  147.8460  153.9260  132.7160 C   0  0  0  0  0  0  0  0  0  0  0  0
  146.4170  155.9000  132.4120 N   0  0  0  0  0  0  0  0  0  0  0  0
  147.0520  156.8130  133.3170 C   0  0  0  0  0  0  0  0  0  0  0  0
  147.8160  156.3800  134.2230 O   0  0  0  0  0  0  0  0  0  0  0  0
  146.8040  158.2230  133.2070 N   0  0  0  0  0  0  0  0  0  0  0  0
  147.6930  159.2080  132.8930 C   0  0  0  0  0  0  0  0  0  0  0  0
  149.0910  159.0050  132.4590 C   0  0  0  0  0  0  0  0  0  0  0  0
  149.6080  157.6830  132.3300 N   0  0  0  0  0  0  0  0  0  0  0  0
  149.8430  159.9870  132.2270 O   0  0  0  0  0  0  0  0  0  0  0  0
  147.0820  160.4590  132.9760 C   0  0  0  0  0  0  0  0  0  0  0  0
  145.7830  160.2060  133.3540 C   0  0  0  0  0  0  0  0  0  0  0  0
  144.7380  161.0890  133.6190 C   0  0  0  0  0  0  0  0  0  0  0  0
  143.5110  160.5490  134.0410 C   0  0  0  0  0  0  0  0  0  0  0  0
  143.3510  159.1480  134.1870 C   0  0  0  0  0  0  0  0  0  0  0  0
  142.0520  158.5800  134.6890 C   0  0  0  0  0  0  0  0  0  0  0  0
  140.9640  158.7950  133.6720 C   0  0  0  0  0  0  0  0  0  0  0  0
  140.1550  157.7240  133.2610 C   0  0  0  0  0  0  0  0  0  0  0  0
  139.1180  157.9320  132.3470 C   0  0  0  0  0  0  0  0  0  0  0  0
  138.8700  159.2170  131.8370 C   0  0  0  0  0  0  0  0  0  0  0  0
  137.7540  159.4510  130.8590 C   0  0  0  0  0  0  0  0  0  0  0  0
  138.2690  159.9320  129.6690 F   0  0  0  0  0  0  0  0  0  0  0  0
  136.8660  160.3750  131.3790 F   0  0  0  0  0  0  0  0  0  0  0  0
  139.6710  160.2900  132.2580 C   0  0  0  0  0  0  0  0  0  0  0  0
  140.7080  160.0810  133.1730 C   0  0  0  0  0  0  0  0  0  0  0  0
  144.4370  158.2860  133.9200 C   0  0  0  0  0  0  0  0  0  0  0  0
  145.6410  158.8500  133.4870 C   0  0  0  0  0  0  0  0  0  0  0  0
  146.2583  154.3847  134.7924 H   0  0  0  0  0  0  0  0  0  0  0  0
  144.7025  154.6817  133.9450 H   0  0  0  0  0  0  0  0  0  0  0  0
  145.4257  153.0374  133.9450 H   0  0  0  0  0  0  0  0  0  0  0  0
  145.9006  153.9637  131.7899 H   0  0  0  0  0  0  0  0  0  0  0  0
  148.1384  153.8192  133.7710 H   0  0  0  0  0  0  0  0  0  0  0  0
  147.9075  152.9473  132.2176 H   0  0  0  0  0  0  0  0  0  0  0  0
  148.5239  154.6345  132.2176 H   0  0  0  0  0  0  0  0  0  0  0  0
  145.9410  156.2950  131.5680 H   0  0  0  0  0  0  0  0  0  0  0  0
  149.5820  157.0150  133.1320 H   0  0  0  0  0  0  0  0  0  0  0  0
  147.5408  161.4395  132.7808 H   0  0  0  0  0  0  0  0  0  0  0  0
  144.8694  162.1748  133.5016 H   0  0  0  0  0  0  0  0  0  0  0  0
  142.6670  161.2196  134.2600 H   0  0  0  0  0  0  0  0  0  0  0  0
  142.1726  157.5017  134.8698 H   0  0  0  0  0  0  0  0  0  0  0  0
  141.7751  159.0887  135.6242 H   0  0  0  0  0  0  0  0  0  0  0  0
  140.3381  156.7155  133.6604 H   0  0  0  0  0  0  0  0  0  0  0  0
  138.4934  157.0855  132.0257 H   0  0  0  0  0  0  0  0  0  0  0  0
  137.2313  158.5008  130.6750 H   0  0  0  0  0  0  0  0  0  0  0  0
  139.4822  161.3004  131.8663 H   0  0  0  0  0  0  0  0  0  0  0  0
  141.3259  160.9291  133.5030 H   0  0  0  0  0  0  0  0  0  0  0  0
  144.3384  157.1981  134.0494 H   0  0  0  0  0  0  0  0  0  0  0  0
  1  2  1  0
  2  3  1  0
  2  4  1  0
  4  5  1  0
  5  6  2  0
  5  7  1  0
  7  8  1  0
  8  9  1  0
  9 10  1  0
  9 11  2  0
  8 12  2  0
 12 13  1  0
 13 14  2  0
 14 15  1  0
 15 16  2  0
 16 17  1  0
 17 18  1  0
 18 19  2  0
 19 20  1  0
 20 21  2  0
 21 22  1  0
 22 23  1  0
 22 24  1  0
 21 25  1  0
 25 26  2  0
 16 27  1  0
 27 28  2  0
 28  7  1  0
 28 13  1  0
 26 18  1  0
  1 29  1  0
  1 30  1  0
  1 31  1  0
  2 32  1  0
  3 33  1  0
  3 34  1  0
  3 35  1  0
  4 36  1  0
 10 37  1  0
 12 38  1  0
 14 39  1  0
 15 40  1  0
 17 41  1  0
 17 42  1  0
 19 43  1  0
 20 44  1  0
 22 45  1  0
 25 46  1  0
 26 47  1  0
 27 48  1  0
M  CHG  1  10  -1
M  END
>  <UniqueID>  (12) 
12

>  <SMILES>  (12) 
CC(C)NC(=O)n1c(C([NH-])=O)cc2ccc(Cc3ccc(C(F)F)cc3)cc21

>  <Energy>  (12) 
79.99824801810742

>  <Genealogy>  (12) 
CC(C)NC(=O)n1c(C([NH-])=O)cc2ccc(Cc3ccc(C(F)F)cc3)cc21 (protonated)
CC(C)NC(=O)n1c(C([NH-])=O)cc2ccc(Cc3ccc(C(F)F)cc3)cc21 (3D coordinates assigned)
CC(C)NC(=O)n1c(C([NH-])=O)cc2ccc(Cc3ccc(C(F)F)cc3)cc21 (optimized conformer: 79.99824801810742 kcal/mol)

>  <smiles>  (12) 
CC(C)NC(=O)n1c(C(N)=O)cc2ccc(Cc3ccc(C(F)F)cc3)cc21

>  <score_type>  (12) 
oracle

>  <origin>  (12) 
adg

>  <m_score__min__energy>  (12) 
-8.8200000000000003

>  <m_primary>  (12) 
energy

$$$$
12:0
     RDKit          3D

 40 41  0  0  0  0  0  0  0  0999 V2000
  149.3220  160.3690  130.3310 C   0  0  0  0  0  0  0  0  0  0  0  0
  149.4280  159.7460  131.3580 C   0  0  0  0  0  0  0  0  0  0  0  0
  149.5550  158.9890  132.6070 C   0  0  0  0  0  0  0  0  0  0  0  0
  148.3800  158.0680  132.7700 C   0  0  0  0  0  0  0  0  0  0  0  0
  147.0850  158.6000  132.9960 C   0  0  0  0  0  0  0  0  0  0  0  0
  145.9760  157.7490  133.1330 C   0  0  0  0  0  0  0  0  0  0  0  0
  146.1870  156.3790  133.0230 C   0  0  0  0  0  0  0  0  0  0  0  0
  145.2980  155.3350  133.1350 C   0  0  0  0  0  0  0  0  0  0  0  0
  146.0540  154.1810  132.9420 C   0  0  0  0  0  0  0  0  0  0  0  0
  145.4820  152.8180  132.8890 C   0  0  0  0  0  0  0  0  0  0  0  0
  145.8680  151.9030  131.8610 N   0  0  0  0  0  0  0  0  0  0  0  0
  144.6680  152.4390  133.7730 O   0  0  0  0  0  0  0  0  0  0  0  0
  147.3610  154.4990  132.7210 N   0  0  0  0  0  0  0  0  0  0  0  0
  148.4620  153.5910  132.5520 C   0  0  0  0  0  0  0  0  0  0  0  0
  149.6420  154.0330  132.5440 O   0  0  0  0  0  0  0  0  0  0  0  0
  148.2070  152.2180  132.4110 O   0  0  0  0  0  0  0  0  0  0  0  0
  149.1040  151.1470  132.7380 C   0  0  0  0  0  0  0  0  0  0  0  0
  149.6060  151.2850  134.1880 C   0  0  0  0  0  0  0  0  0  0  0  0
  148.3120  149.8370  132.6100 C   0  0  0  0  0  0  0  0  0  0  0  0
  150.2880  151.1120  131.7540 C   0  0  0  0  0  0  0  0  0  0  0  0
  147.4270  155.8480  132.7750 C   0  0  0  0  0  0  0  0  0  0  0  0
  148.5540  156.6700  132.6530 C   0  0  0  0  0  0  0  0  0  0  0  0
  149.2253  160.9373  129.3941 H   0  0  0  0  0  0  0  0  0  0  0  0
  150.4816  158.3967  132.5816 H   0  0  0  0  0  0  0  0  0  0  0  0
  149.5845  159.6907  133.4536 H   0  0  0  0  0  0  0  0  0  0  0  0
  146.9478  159.6892  133.0647 H   0  0  0  0  0  0  0  0  0  0  0  0
  144.9709  158.1541  133.3216 H   0  0  0  0  0  0  0  0  0  0  0  0
  144.2181  155.3982  133.3348 H   0  0  0  0  0  0  0  0  0  0  0  0
  145.4860  150.9310  131.8550 H   0  0  0  0  0  0  0  0  0  0  0  0
  146.4970  152.1980  131.0830 H   0  0  0  0  0  0  0  0  0  0  0  0
  148.7843  151.0591  134.8836 H   0  0  0  0  0  0  0  0  0  0  0  0
  150.4341  150.5812  134.3579 H   0  0  0  0  0  0  0  0  0  0  0  0
  149.9580  152.3132  134.3579 H   0  0  0  0  0  0  0  0  0  0  0  0
  148.0782  149.4504  133.6129 H   0  0  0  0  0  0  0  0  0  0  0  0
  147.3767  150.0260  132.0627 H   0  0  0  0  0  0  0  0  0  0  0  0
  148.9139  149.0966  132.0627 H   0  0  0  0  0  0  0  0  0  0  0  0
  151.2323  151.0841  132.3174 H   0  0  0  0  0  0  0  0  0  0  0  0
  150.2122  150.2157  131.1208 H   0  0  0  0  0  0  0  0  0  0  0  0
  150.2652  152.0112  131.1208 H   0  0  0  0  0  0  0  0  0  0  0  0
  149.5494  156.2389  132.4707 H   0  0  0  0  0  0  0  0  0  0  0  0
  1  2  3  0
  2  3  1  0
  3  4  1  0
  4  5  2  0
  5  6  1  0
  6  7  2  0
  7  8  1  0
  8  9  2  0
  9 10  1  0
 10 11  1  0
 10 12  2  0
  9 13  1  0
 13 14  1  0
 14 15  2  0
 14 16  1  0
 16 17  1  0
 17 18  1  0
 17 19  1  0
 17 20  1  0
 13 21  1  0
 21 22  2  0
 22  4  1  0
 21  7  1  0
  1 23  1  0
  3 24  1  0
  3 25  1  0
  5 26  1  0
  6 27  1  0
  8 28  1  0
 11 29  1  0
 11 30  1  0
 18 31  1  0
 18 32  1  0
 18 33  1  0
 19 34  1  0
 19 35  1  0
 19 36  1  0
 20 37  1  0
 20 38  1  0
 20 39  1  0
 22 40  1  0
M  END
>  <UniqueID>  (13) 
13

>  <SMILES>  (13) 
C#CCc1ccc2cc(C(N)=O)n(C(=O)OC(C)(C)C)c2c1

>  <Energy>  (13) 
70.37011243166872

>  <Genealogy>  (13) 
C#CCc1ccc2cc(C(N)=O)n(C(=O)OC(C)(C)C)c2c1 (3D coordinates assigned)
C#CCc1ccc2cc(C(N)=O)n(C(=O)OC(C)(C)C)c2c1 (optimized conformer: 70.37011243166872 kcal/mol)

>  <smiles>  (13) 
C#CCc1ccc2cc(C(N)=O)n(C(=O)OC(C)(C)C)c2c1

>  <score_type>  (13) 
oracle

>  <origin>  (13) 
adg

>  <m_score__min__energy>  (13) 
-7.9400000000000004

>  <m_primary>  (13) 
energy

$$$$
13:0
     RDKit          3D

 52 54  0  0  0  0  0  0  0  0999 V2000
  144.1960  153.5280  134.3780 C   0  0  0  0  0  0  0  0  0  0  0  0
  143.2030  154.1920  133.4130 C   0  0  0  0  0  0  0  0  0  0  0  0
  142.1950  153.1340  132.9280 C   0  0  0  0  0  0  0  0  0  0  0  0
  143.9820  154.7870  132.2250 C   0  0  0  0  0  0  0  0  0  0  0  0
  142.5320  155.2280  134.1440 O   0  0  0  0  0  0  0  0  0  0  0  0
  141.5590  156.1070  133.6470 C   0  0  0  0  0  0  0  0  0  0  0  0
  140.5560  155.6730  133.0180 O   0  0  0  0  0  0  0  0  0  0  0  0
  141.6970  157.5150  133.8870 N   0  0  0  0  0  0  0  0  0  0  0  0
  140.7430  158.3970  134.3030 C   0  0  0  0  0  0  0  0  0  0  0  0
  139.3070  158.1010  134.4860 C   0  0  0  0  0  0  0  0  0  0  0  0
  138.5300  157.6530  133.3780 N   0  0  0  0  0  0  0  0  0  0  0  0
  138.7640  158.2060  135.6170 O   0  0  0  0  0  0  0  0  0  0  0  0
  141.2910  159.6700  134.4560 C   0  0  0  0  0  0  0  0  0  0  0  0
  142.6170  159.5410  134.1100 C   0  0  0  0  0  0  0  0  0  0  0  0
  143.6320  160.4940  134.0780 C   0  0  0  0  0  0  0  0  0  0  0  0
  144.9170  160.0750  133.6940 C   0  0  0  0  0  0  0  0  0  0  0  0
  145.1650  158.7200  133.3590 C   0  0  0  0  0  0  0  0  0  0  0  0
  146.5460  158.2740  132.9460 C   0  0  0  0  0  0  0  0  0  0  0  0
  147.5350  159.4560  132.8420 C   0  0  0  0  0  0  0  0  0  0  0  0
  147.4420  160.1020  131.4400 C   0  0  0  0  0  0  0  0  0  0  0  0
  148.7390  160.8410  131.0910 C   0  0  0  0  0  0  0  0  0  0  0  0
  149.9000  159.9320  131.0270 N   0  0  0  0  0  0  0  0  0  0  0  0
  149.8080  158.7550  131.9150 C   0  0  0  0  0  0  0  0  0  0  0  0
  148.9910  159.0380  133.1830 C   0  0  0  0  0  0  0  0  0  0  0  0
  144.1100  157.7820  133.4090 C   0  0  0  0  0  0  0  0  0  0  0  0
  142.8360  158.2320  133.7710 C   0  0  0  0  0  0  0  0  0  0  0  0
  143.8913  153.7317  135.4152 H   0  0  0  0  0  0  0  0  0  0  0  0
  144.2047  152.4417  134.2051 H   0  0  0  0  0  0  0  0  0  0  0  0
  145.2032  153.9349  134.2051 H   0  0  0  0  0  0  0  0  0  0  0  0
  141.7296  152.6455  133.7968 H   0  0  0  0  0  0  0  0  0  0  0  0
  141.4174  153.6198  132.3203 H   0  0  0  0  0  0  0  0  0  0  0  0
  142.7179  152.3808  132.3203 H   0  0  0  0  0  0  0  0  0  0  0  0
  144.8032  155.4142  132.6022 H   0  0  0  0  0  0  0  0  0  0  0  0
  144.3948  153.9721  131.6122 H   0  0  0  0  0  0  0  0  0  0  0  0
  143.3044  155.3996  131.6122 H   0  0  0  0  0  0  0  0  0  0  0  0
  138.5990  156.6680  133.0370 H   0  0  0  0  0  0  0  0  0  0  0  0
  140.7734  160.5836  134.7837 H   0  0  0  0  0  0  0  0  0  0  0  0
  143.4338  161.5425  134.3451 H   0  0  0  0  0  0  0  0  0  0  0  0
  145.7385  160.8054  133.6529 H   0  0  0  0  0  0  0  0  0  0  0  0
  146.9251  157.5596  133.6916 H   0  0  0  0  0  0  0  0  0  0  0  0
  146.4676  157.8112  131.9512 H   0  0  0  0  0  0  0  0  0  0  0  0
  147.2468  160.2048  133.5944 H   0  0  0  0  0  0  0  0  0  0  0  0
  147.2633  159.3154  130.6921 H   0  0  0  0  0  0  0  0  0  0  0  0
  146.6142  160.8264  131.4411 H   0  0  0  0  0  0  0  0  0  0  0  0
  148.6165  161.3283  130.1125 H   0  0  0  0  0  0  0  0  0  0  0  0
  148.9312  161.5780  131.8847 H   0  0  0  0  0  0  0  0  0  0  0  0
  150.7540  160.4780  131.2860 H   0  0  0  0  0  0  0  0  0  0  0  0
  149.3290  157.9331  131.3628 H   0  0  0  0  0  0  0  0  0  0  0  0
  150.8292  158.4912  132.2273 H   0  0  0  0  0  0  0  0  0  0  0  0
  148.9660  158.1291  133.8021 H   0  0  0  0  0  0  0  0  0  0  0  0
  149.4700  159.8677  133.7235 H   0  0  0  0  0  0  0  0  0  0  0  0
  144.2861  156.7230  133.1690 H   0  0  0  0  0  0  0  0  0  0  0  0
  1  2  1  0
  2  3  1  0
  2  4  1  0
  2  5  1  0
  5  6  1  0
  6  7  2  0
  6  8  1  0
  8  9  1  0
  9 10  1  0
 10 11  1  0
 10 12  2  0
  9 13  2  0
 13 14  1  0
 14 15  2  0
 15 16  1  0
 16 17  2  0
 17 18  1  0
 18 19  1  0
 19 20  1  0
 20 21  1  0
 21 22  1  0
 22 23  1  0
 23 24  1  0
 17 25  1  0
 25 26  2  0
 26  8  1  0
 26 14  1  0
 24 19  1  0
  1 27  1  0
  1 28  1  0
  1 29  1  0
  3 30  1  0
  3 31  1  0
  3 32  1  0
  4 33  1  0
  4 34  1  0
  4 35  1  0
 11 36  1  0
 13 37  1  0
 15 38  1  0
 16 39  1  0
 18 40  1  0
 18 41  1  0
 19 42  1  0
 20 43  1  0
 20 44  1  0
 21 45  1  0
 21 46  1  0
 22 47  1  0
 23 48  1  0
 23 49  1  0
 24 50  1  0
 24 51  1  0
 25 52  1  0
M  CHG  1  11  -1
M  END
>  <UniqueID>  (14) 
14

>  <SMILES>  (14) 
CC(C)(C)OC(=O)n1c(C([NH-])=O)cc2ccc(CC3CCNCC3)cc21

>  <Energy>  (14) 
90.32484877336768

>  <Genealogy>  (14) 
CC(C)(C)OC(=O)n1c(C([NH-])=O)cc2ccc(CC3CCNCC3)cc21 (protonated)
CC(C)(C)OC(=O)n1c(C([NH-])=O)cc2ccc(CC3CCNCC3)cc21 (3D coordinates assigned)
CC(C)(C)OC(=O)n1c(C([NH-])=O)cc2ccc(CC3CCNCC3)cc21 (nonaromatic ring conformer: 90.32484877336768 kcal/mol)

>  <smiles>  (14) 
CC(C)(C)OC(=O)n1c(C(N)=O)cc2ccc(CC3CCNCC3)cc21

>  <score_type>  (14) 
oracle

>  <origin>  (14) 
adg

>  <m_score__min__energy>  (14) 
-8.7400000000000002

>  <m_primary>  (14) 
energy

$$$$
14:0
     RDKit          3D

 59 61  0  0  0  0  0  0  0  0999 V2000
  147.8290  156.7070  132.6160 C   0  0  0  0  0  0  0  0  0  0  0  0
  148.1760  158.1940  132.8130 C   0  0  0  0  0  0  0  0  0  0  0  0
  148.4720  158.4420  134.3010 C   0  0  0  0  0  0  0  0  0  0  0  0
  149.4200  158.5780  131.9900 C   0  0  0  0  0  0  0  0  0  0  0  0
  147.0600  159.0250  132.4600 O   0  0  0  0  0  0  0  0  0  0  0  0
  146.5580  160.1060  133.1980 C   0  0  0  0  0  0  0  0  0  0  0  0
  147.3210  161.0500  133.5340 O   0  0  0  0  0  0  0  0  0  0  0  0
  145.1740  160.1190  133.6100 N   0  0  0  0  0  0  0  0  0  0  0  0
  144.4220  161.2090  133.9430 C   0  0  0  0  0  0  0  0  0  0  0  0
  144.9120  162.5850  134.1110 C   0  0  0  0  0  0  0  0  0  0  0  0
  145.9650  162.8700  135.0270 N   0  0  0  0  0  0  0  0  0  0  0  0
  144.3420  163.5290  133.5030 O   0  0  0  0  0  0  0  0  0  0  0  0
  143.0810  160.8670  134.0800 C   0  0  0  0  0  0  0  0  0  0  0  0
  143.0280  159.5150  133.8460 C   0  0  0  0  0  0  0  0  0  0  0  0
  141.9350  158.6530  133.8540 C   0  0  0  0  0  0  0  0  0  0  0  0
  142.1600  157.3010  133.5560 C   0  0  0  0  0  0  0  0  0  0  0  0
  143.4640  156.8350  133.2510 C   0  0  0  0  0  0  0  0  0  0  0  0
  143.6840  155.3810  132.9020 C   0  0  0  0  0  0  0  0  0  0  0  0
  142.7440  154.4130  133.6510 C   0  0  0  0  0  0  0  0  0  0  0  0
  143.1650  152.9300  133.6110 C   0  0  0  0  0  0  0  0  0  0  0  0
  142.0230  151.8880  133.6270 C   0  0  0  0  0  0  0  0  0  0  0  0
  141.7740  151.2480  132.3070 N   0  0  0  0  0  0  0  0  0  0  0  0
  140.3380  151.0120  132.0890 C   0  0  0  0  0  0  0  0  0  0  0  0
  140.0200  149.6300  132.6320 C   0  0  0  0  0  0  0  0  0  0  0  0
  141.3390  148.8790  132.5930 C   0  0  0  0  0  0  0  0  0  0  0  0
  142.3930  149.9130  132.2130 C   0  0  0  0  0  0  0  0  0  0  0  0
  144.5560  157.7310  133.3050 C   0  0  0  0  0  0  0  0  0  0  0  0
  144.3000  159.0830  133.5710 C   0  0  0  0  0  0  0  0  0  0  0  0
  147.7162  156.2236  133.5976 H   0  0  0  0  0  0  0  0  0  0  0  0
  146.8868  156.6216  132.0548 H   0  0  0  0  0  0  0  0  0  0  0  0
  148.6361  156.2134  132.0548 H   0  0  0  0  0  0  0  0  0  0  0  0
  147.7731  157.8565  134.9164 H   0  0  0  0  0  0  0  0  0  0  0  0
  149.5041  158.1350  134.5256 H   0  0  0  0  0  0  0  0  0  0  0  0
  148.3505  159.5119  134.5256 H   0  0  0  0  0  0  0  0  0  0  0  0
  150.2456  158.8329  132.6707 H   0  0  0  0  0  0  0  0  0  0  0  0
  149.7163  157.7295  131.3558 H   0  0  0  0  0  0  0  0  0  0  0  0
  149.1865  159.4459  131.3558 H   0  0  0  0  0  0  0  0  0  0  0  0
  146.9530  162.6170  134.8040 H   0  0  0  0  0  0  0  0  0  0  0  0
  142.2426  161.5361  134.3236 H   0  0  0  0  0  0  0  0  0  0  0  0
  140.9250  159.0212  134.0871 H   0  0  0  0  0  0  0  0  0  0  0  0
  141.3164  156.5951  133.5589 H   0  0  0  0  0  0  0  0  0  0  0  0
  143.5222  155.2552  131.8213 H   0  0  0  0  0  0  0  0  0  0  0  0
  144.7111  155.1300  133.2053 H   0  0  0  0  0  0  0  0  0  0  0  0
  142.7010  154.7267  134.7045 H   0  0  0  0  0  0  0  0  0  0  0  0
  141.7732  154.4697  133.1369 H   0  0  0  0  0  0  0  0  0  0  0  0
  143.7480  152.7728  132.6915 H   0  0  0  0  0  0  0  0  0  0  0  0
  143.7259  152.7614  134.5421 H   0  0  0  0  0  0  0  0  0  0  0  0
  142.2821  151.1009  134.3504 H   0  0  0  0  0  0  0  0  0  0  0  0
  141.1031  152.4257  133.9004 H   0  0  0  0  0  0  0  0  0  0  0  0
  142.1250  151.8520  131.5310 H   0  0  0  0  0  0  0  0  0  0  0  0
  139.7466  151.7711  132.6219 H   0  0  0  0  0  0  0  0  0  0  0  0
  140.0908  151.0764  131.0191 H   0  0  0  0  0  0  0  0  0  0  0  0
  139.6437  149.6971  133.6635 H   0  0  0  0  0  0  0  0  0  0  0  0
  139.2395  149.1248  132.0441 H   0  0  0  0  0  0  0  0  0  0  0  0
  141.5637  148.4474  133.5795 H   0  0  0  0  0  0  0  0  0  0  0  0
  141.3104  148.0464  131.8747 H   0  0  0  0  0  0  0  0  0  0  0  0
  143.2466  149.8475  132.9037 H   0  0  0  0  0  0  0  0  0  0  0  0
  142.7570  149.7309  131.1911 H   0  0  0  0  0  0  0  0  0  0  0  0
  145.5839  157.3750  133.1418 H   0  0  0  0  0  0  0  0  0  0  0  0
  1  2  1  0
  2  3  1  0
  2  4  1  0
  2  5  1  0
  5  6  1  0
  6  7  2  0
  6  8  1  0
  8  9  1  0
  9 10  1  0
 10 11  1  0
 10 12  2  0
  9 13  2  0
 13 14  1  0
 14 15  2  0
 15 16  1  0
 16 17  2  0
 17 18  1  0
 18 19  1  0
 19 20  1  0
 20 21  1  0
 21 22  1  0
 22 23  1  0
 23 24  1  0
 24 25  1  0
 25 26  1  0
 17 27  1  0
 27 28  2  0
 28  8  1  0
 28 14  1  0
 26 22  1  0
  1 29  1  0
  1 30  1  0
  1 31  1  0
  3 32  1  0
  3 33  1  0
  3 34  1  0
  4 35  1  0
  4 36  1  0
  4 37  1  0
 11 38  1  0
 13 39  1  0
 15 40  1  0
 16 41  1  0
 18 42  1  0
 18 43  1  0
 19 44  1  0
 19 45  1  0
 20 46  1  0
 20 47  1  0
 21 48  1  0
 21 49  1  0
 22 50  1  0
 23 51  1  0
 23 52  1  0
 24 53  1  0
 24 54  1  0
 25 55  1  0
 25 56  1  0
 26 57  1  0
 26 58  1  0
 27 59  1  0
M  CHG  2  11  -1  22   1
M  END
>  <UniqueID>  (15) 
15

>  <SMILES>  (15) 
CC(C)(C)OC(=O)n1c(C([NH-])=O)cc2ccc(CCCC[NH+]3CCCC3)cc21

>  <Energy>  (15) 
97.52351121789665

>  <Genealogy>  (15) 
CC(C)(C)OC(=O)n1c(C([NH-])=O)cc2ccc(CCCC[NH+]3CCCC3)cc21 (protonated)
CC(C)(C)OC(=O)n1c(C([NH-])=O)cc2ccc(CCCC[NH+]3CCCC3)cc21 (3D coordinates assigned)
CC(C)(C)OC(=O)n1c(C([NH-])=O)cc2ccc(CCCC[NH+]3CCCC3)cc21 (nonaromatic ring conformer: 97.52351121789665 kcal/mol)

>  <smiles>  (15) 
CC(C)(C)OC(=O)n1c(C(N)=O)cc2ccc(CCCCN3CCCC3)cc21

>  <score_type>  (15) 
oracle

>  <origin>  (15) 
adg

>  <m_score__min__energy>  (15) 
-8.4600000000000009

>  <m_primary>  (15) 
energy

$$$$
15:0
     RDKit          3D

 61 63  0  0  0  0  0  0  0  0999 V2000
  142.3770  155.1680  133.5580 C   0  0  0  0  0  0  0  0  0  0  0  0
  142.7550  153.8350  132.9210 C   0  0  0  0  0  0  0  0  0  0  0  0
  144.0160  153.9300  132.2670 O   0  0  0  0  0  0  0  0  0  0  0  0
  145.1370  153.1790  132.6430 C   0  0  0  0  0  0  0  0  0  0  0  0
  145.0300  151.9450  132.8760 O   0  0  0  0  0  0  0  0  0  0  0  0
  146.4130  153.8220  132.7830 N   0  0  0  0  0  0  0  0  0  0  0  0
  147.6430  153.2450  132.6890 C   0  0  0  0  0  0  0  0  0  0  0  0
  147.9070  151.8350  132.3240 C   0  0  0  0  0  0  0  0  0  0  0  0
  146.9860  151.1110  131.5040 N   0  0  0  0  0  0  0  0  0  0  0  0
  148.9280  151.2480  132.7680 O   0  0  0  0  0  0  0  0  0  0  0  0
  148.6430  154.2050  132.8480 C   0  0  0  0  0  0  0  0  0  0  0  0
  147.9790  155.3950  133.0400 C   0  0  0  0  0  0  0  0  0  0  0  0
  148.4800  156.6810  133.2140 C   0  0  0  0  0  0  0  0  0  0  0  0
  147.5580  157.7280  133.3780 C   0  0  0  0  0  0  0  0  0  0  0  0
  146.1610  157.4750  133.3940 C   0  0  0  0  0  0  0  0  0  0  0  0
  145.2280  158.5550  133.5940 N   0  0  0  0  0  0  0  0  0  0  0  0
  143.8410  158.3790  133.9780 C   0  0  0  0  0  0  0  0  0  0  0  0
  143.3480  159.7980  134.2750 C   0  0  2  0  0  0  0  0  0  0  0  0
  141.8730  159.9790  133.8400 C   0  0  0  0  0  0  0  0  0  0  0  0
  141.3580  158.8030  132.9860 C   0  0  0  0  0  0  0  0  0  0  0  0
  139.8310  158.8130  132.7290 C   0  0  0  0  0  0  0  0  0  0  0  0
  139.1770  157.4480  132.9960 C   0  0  0  0  0  0  0  0  0  0  0  0
  139.4740  159.3290  131.3280 C   0  0  0  0  0  0  0  0  0  0  0  0
  144.2650  160.6820  133.5230 N   0  0  0  0  0  0  0  0  0  0  0  0
  144.4180  162.0810  133.9880 C   0  0  0  0  0  0  0  0  0  0  0  0
  145.8270  162.4620  134.4720 C   0  0  0  0  0  0  0  0  0  0  0  0
  145.5410  159.9620  133.4100 C   0  0  0  0  0  0  0  0  0  0  0  0
  145.6940  156.1540  133.2020 C   0  0  0  0  0  0  0  0  0  0  0  0
  146.6340  155.1360  133.0040 C   0  0  0  0  0  0  0  0  0  0  0  0
  142.4043  155.0717  134.6534 H   0  0  0  0  0  0  0  0  0  0  0  0
  143.0911  155.9419  133.2400 H   0  0  0  0  0  0  0  0  0  0  0  0
  141.3629  155.4519  133.2400 H   0  0  0  0  0  0  0  0  0  0  0  0
  142.8111  153.0638  133.7034 H   0  0  0  0  0  0  0  0  0  0  0  0
  141.9897  153.5686  132.1771 H   0  0  0  0  0  0  0  0  0  0  0  0
  146.1690  151.5830  131.0580 H   0  0  0  0  0  0  0  0  0  0  0  0
  147.1510  150.0990  131.3000 H   0  0  0  0  0  0  0  0  0  0  0  0
  149.7310  154.0447  132.8248 H   0  0  0  0  0  0  0  0  0  0  0  0
  149.5633  156.8719  133.2229 H   0  0  0  0  0  0  0  0  0  0  0  0
  147.9236  158.7588  133.4957 H   0  0  0  0  0  0  0  0  0  0  0  0
  143.2633  157.9296  133.1568 H   0  0  0  0  0  0  0  0  0  0  0  0
  143.7256  157.7049  134.8396 H   0  0  0  0  0  0  0  0  0  0  0  0
  143.3597  160.0300  135.3502 H   0  0  0  0  0  0  0  0  0  0  0  0
  141.2474  160.0605  134.7411 H   0  0  0  0  0  0  0  0  0  0  0  0
  141.8167  160.8882  133.2234 H   0  0  0  0  0  0  0  0  0  0  0  0
  141.8699  158.8356  132.0129 H   0  0  0  0  0  0  0  0  0  0  0  0
  141.5722  157.8867  133.5557 H   0  0  0  0  0  0  0  0  0  0  0  0
  139.4137  159.5234  133.4579 H   0  0  0  0  0  0  0  0  0  0  0  0
  139.0988  157.2848  134.0810 H   0  0  0  0  0  0  0  0  0  0  0  0
  138.1721  157.4292  132.5490 H   0  0  0  0  0  0  0  0  0  0  0  0
  139.7920  156.6530  132.5490 H   0  0  0  0  0  0  0  0  0  0  0  0
  138.8502  160.2306  131.4173 H   0  0  0  0  0  0  0  0  0  0  0  0
  140.3966  159.5741  130.7814 H   0  0  0  0  0  0  0  0  0  0  0  0
  138.9194  158.5520  130.7814 H   0  0  0  0  0  0  0  0  0  0  0  0
  144.1535  162.7473  133.1537 H   0  0  0  0  0  0  0  0  0  0  0  0
  143.7577  162.1852  134.8616 H   0  0  0  0  0  0  0  0  0  0  0  0
  145.8479  162.4676  135.5718 H   0  0  0  0  0  0  0  0  0  0  0  0
  146.5550  161.7285  134.0952 H   0  0  0  0  0  0  0  0  0  0  0  0
  146.0861  163.4625  134.0952 H   0  0  0  0  0  0  0  0  0  0  0  0
  145.9860  160.1274  132.4177 H   0  0  0  0  0  0  0  0  0  0  0  0
  146.2677  160.3129  134.1575 H   0  0  0  0  0  0  0  0  0  0  0  0
  144.6167  155.9316  133.2081 H   0  0  0  0  0  0  0  0  0  0  0  0
  1  2  1  0
  2  3  1  0
  3  4  1  0
  4  5  2  0
  4  6  1  0
  6  7  1  0
  7  8  1  0
  8  9  1  0
  8 10  2  0
  7 11  2  0
 11 12  1  0
 12 13  2  0
 13 14  1  0
 14 15  2  0
 15 16  1  0
 16 17  1  0
 17 18  1  0
 18 19  1  0
 19 20  1  0
 20 21  1  0
 21 22  1  0
 21 23  1  0
 18 24  1  0
 24 25  1  0
 25 26  1  0
 24 27  1  0
 15 28  1  0
 28 29  2  0
 29  6  1  0
 29 12  1  0
 27 16  1  0
  1 30  1  0
  1 31  1  0
  1 32  1  0
  2 33  1  0
  2 34  1  0
  9 35  1  0
  9 36  1  0
 11 37  1  0
 13 38  1  0
 14 39  1  0
 17 40  1  0
 17 41  1  0
 18 42  1  1
 19 43  1  0
 19 44  1  0
 20 45  1  0
 20 46  1  0
 21 47  1  0
 22 48  1  0
 22 49  1  0
 22 50  1  0
 23 51  1  0
 23 52  1  0
 23 53  1  0
 25 54  1  0
 25 55  1  0
 26 56  1  0
 26 57  1  0
 26 58  1  0
 27 59  1  0
 27 60  1  0
 28 61  1  0
M  END
>  <UniqueID>  (16) 
16

>  <SMILES>  (16) 
CCOC(=O)n1c(C(N)=O)cc2ccc(N3C[C@H](CCC(C)C)N(CC)C3)cc21

>  <Energy>  (16) 
100.97105294991809

>  <Genealogy>  (16) 
CCOC(=O)n1c(C(N)=O)cc2ccc(N3C[C@H](CCC(C)C)N(CC)C3)cc21 (chirality)
CCOC(=O)n1c(C(N)=O)cc2ccc(N3C[C@H](CCC(C)C)N(CC)C3)cc21 (3D coordinates assigned)
CCOC(=O)n1c(C(N)=O)cc2ccc(N3C[C@H](CCC(C)C)N(CC)C3)cc21 (nonaromatic ring conformer: 100.97105294991809 kcal/mol)

>  <smiles>  (16) 
CCOC(=O)n1c(C(N)=O)cc2ccc(N3CC(CCC(C)C)N(CC)C3)cc21

>  <score_type>  (16) 
oracle

>  <origin>  (16) 
adg

>  <m_score__min__energy>  (16) 
-9.0700000000000003

>  <m_primary>  (16) 
energy

$$$$
16:0
     RDKit          3D

 53 57  0  0  0  0  0  0  0  0999 V2000
  145.5660  152.5960  132.9570 C   0  0  0  0  0  0  0  0  0  0  0  0
  146.9190  153.2020  133.1450 C   0  0  0  0  0  0  0  0  0  0  0  0
  147.9890  152.8650  132.4650 O   0  0  0  0  0  0  0  0  0  0  0  0
  148.9530  153.6400  132.9080 C   0  0  0  0  0  0  0  0  0  0  0  0
  150.1370  153.5960  132.4800 O   0  0  0  0  0  0  0  0  0  0  0  0
  148.5480  154.4670  133.8440 O   0  0  0  0  0  0  0  0  0  0  0  0
  147.2710  154.2190  134.0130 C   0  0  0  0  0  0  0  0  0  0  0  0
  146.3860  154.9330  134.9890 C   0  0  0  0  0  0  0  0  0  0  0  0
  145.6410  155.9570  134.3350 O   0  0  0  0  0  0  0  0  0  0  0  0
  146.1290  156.6840  133.2430 C   0  0  0  0  0  0  0  0  0  0  0  0
  146.6160  156.0850  132.2450 O   0  0  0  0  0  0  0  0  0  0  0  0
  146.0600  158.1180  133.2580 N   0  0  0  0  0  0  0  0  0  0  0  0
  147.0990  158.9950  133.1780 C   0  0  0  0  0  0  0  0  0  0  0  0
  148.5020  158.6470  132.8750 C   0  0  0  0  0  0  0  0  0  0  0  0
  149.0100  157.3360  133.1250 N   0  0  0  0  0  0  0  0  0  0  0  0
  149.2500  159.5040  132.3340 O   0  0  0  0  0  0  0  0  0  0  0  0
  146.6600  160.3000  133.3870 C   0  0  0  0  0  0  0  0  0  0  0  0
  145.3040  160.1970  133.5920 C   0  0  0  0  0  0  0  0  0  0  0  0
  144.3660  161.1840  133.8750 C   0  0  0  0  0  0  0  0  0  0  0  0
  143.0370  160.7890  134.0920 C   0  0  0  0  0  0  0  0  0  0  0  0
  142.6660  159.4180  134.0350 C   0  0  0  0  0  0  0  0  0  0  0  0
  141.2290  158.9890  134.2840 C   0  0  2  0  0  0  0  0  0  0  0  0
  141.1870  157.5890  134.9480 C   0  0  0  0  0  0  0  0  0  0  0  0
  141.5080  156.3970  134.0190 C   0  0  0  0  0  0  0  0  0  0  0  0
  140.2740  155.7940  133.3270 C   0  0  0  0  0  0  0  0  0  0  0  0
  139.1110  156.7960  133.1810 C   0  0  0  0  0  0  0  0  0  0  0  0
  139.4770  158.1300  132.5850 C   0  0  0  0  0  0  0  0  0  0  0  0
  138.8950  158.6290  131.4800 N   0  0  0  0  0  0  0  0  0  0  0  0
  139.4340  159.8210  131.2670 N   0  0  0  0  0  0  0  0  0  0  0  0
  140.3360  160.1160  132.1920 N   0  0  0  0  0  0  0  0  0  0  0  0
  140.3890  159.0650  133.0330 C   0  0  0  0  0  0  0  0  0  0  0  0
  143.6520  158.4450  133.7460 C   0  0  0  0  0  0  0  0  0  0  0  0
  144.9650  158.8710  133.5130 C   0  0  0  0  0  0  0  0  0  0  0  0
  145.1149  152.3940  133.9397 H   0  0  0  0  0  0  0  0  0  0  0  0
  144.9264  153.2937  132.3964 H   0  0  0  0  0  0  0  0  0  0  0  0
  145.6607  151.6543  132.3964 H   0  0  0  0  0  0  0  0  0  0  0  0
  145.6893  154.2112  135.4402 H   0  0  0  0  0  0  0  0  0  0  0  0
  147.0140  155.3929  135.7663 H   0  0  0  0  0  0  0  0  0  0  0  0
  148.3780  156.5570  133.4120 H   0  0  0  0  0  0  0  0  0  0  0  0
  150.0150  157.1200  132.9440 H   0  0  0  0  0  0  0  0  0  0  0  0
  147.2677  161.2169  133.3879 H   0  0  0  0  0  0  0  0  0  0  0  0
  144.6573  162.2434  133.9272 H   0  0  0  0  0  0  0  0  0  0  0  0
  142.2728  161.5499  134.3089 H   0  0  0  0  0  0  0  0  0  0  0  0
  140.7774  159.7020  134.9894 H   0  0  0  0  0  0  0  0  0  0  0  0
  141.9176  157.5829  135.7703 H   0  0  0  0  0  0  0  0  0  0  0  0
  140.1467  157.4431  135.2744 H   0  0  0  0  0  0  0  0  0  0  0  0
  142.2063  156.7420  133.2422 H   0  0  0  0  0  0  0  0  0  0  0  0
  141.9364  155.6061  134.6522 H   0  0  0  0  0  0  0  0  0  0  0  0
  140.5681  155.4507  132.3242 H   0  0  0  0  0  0  0  0  0  0  0  0
  139.9164  154.9668  133.9577 H   0  0  0  0  0  0  0  0  0  0  0  0
  138.3457  156.3360  132.5386 H   0  0  0  0  0  0  0  0  0  0  0  0
  138.7629  157.0065  134.2030 H   0  0  0  0  0  0  0  0  0  0  0  0
  143.3923  157.3769  133.7053 H   0  0  0  0  0  0  0  0  0  0  0  0
  1  2  1  0
  2  3  1  0
  3  4  1  0
  4  5  2  0
  4  6  1  0
  6  7  1  0
  7  8  1  0
  8  9  1  0
  9 10  1  0
 10 11  2  0
 10 12  1  0
 12 13  1  0
 13 14  1  0
 14 15  1  0
 14 16  2  0
 13 17  2  0
 17 18  1  0
 18 19  2  0
 19 20  1  0
 20 21  2  0
 21 22  1  0
 22 23  1  0
 23 24  1  0
 24 25  1  0
 25 26  1  0
 26 27  1  0
 27 28  2  0
 28 29  1  0
 29 30  1  0
 30 31  2  0
 21 32  1  0
 32 33  2  0
  7  2  2  0
 33 12  1  0
 33 18  1  0
 31 22  1  0
 31 27  1  0
  1 34  1  0
  1 35  1  0
  1 36  1  0
  8 37  1  0
  8 38  1  0
 15 39  1  0
 15 40  1  0
 17 41  1  0
 19 42  1  0
 20 43  1  0
 22 44  1  1
 23 45  1  0
 23 46  1  0
 24 47  1  0
 24 48  1  0
 25 49  1  0
 25 50  1  0
 26 51  1  0
 26 52  1  0
 32 53  1  0
M  CHG  1  29  -1
M  END
>  <UniqueID>  (17) 
17

>  <SMILES>  (17) 
Cc1oc(=O)oc1COC(=O)n1c(C(N)=O)cc2ccc([C@@H]3CCCCc4n[n-]nc43)cc21

>  <Energy>  (17) 
167.76542618646732

>  <Genealogy>  (17) 
Cc1oc(=O)oc1COC(=O)n1c(C(N)=O)cc2ccc(C3CCCCc4n[n-]nc43)cc21 (protonated)
Cc1oc(=O)oc1COC(=O)n1c(C(N)=O)cc2ccc([C@@H]3CCCCc4n[n-]nc43)cc21 (chirality)
Cc1oc(=O)oc1COC(=O)n1c(C(N)=O)cc2ccc([C@@H]3CCCCc4n[n-]nc43)cc21 (3D coordinates assigned)
Cc1oc(=O)oc1COC(=O)n1c(C(N)=O)cc2ccc([C@@H]3CCCCc4n[n-]nc43)cc21 (nonaromatic ring conformer: 167.76542618646732 kcal/mol)

>  <smiles>  (17) 
Cc1oc(=O)oc1COC(=O)n1c(C(N)=O)cc2ccc(C3CCCCc4n[nH]nc43)cc21

>  <score_type>  (17) 
oracle

>  <origin>  (17) 
adg

>  <m_score__min__energy>  (17) 
-7.96

>  <m_primary>  (17) 
energy

$$$$
17:0
     RDKit          3D

 40 41  0  0  0  0  0  0  0  0999 V2000
  141.2570  157.2410  135.0410 C   0  0  0  0  0  0  0  0  0  0  0  0
  141.5630  158.7460  135.0170 C   0  0  0  0  0  0  0  0  0  0  0  0
  140.7960  159.3920  133.8490 C   0  0  0  0  0  0  0  0  0  0  0  0
  141.1290  159.3630  136.3610 C   0  0  0  0  0  0  0  0  0  0  0  0
  142.9790  158.8850  134.8290 O   0  0  0  0  0  0  0  0  0  0  0  0
  143.6870  158.6640  133.6370 C   0  0  0  0  0  0  0  0  0  0  0  0
  143.1650  158.0280  132.6830 O   0  0  0  0  0  0  0  0  0  0  0  0
  145.0330  159.1490  133.5170 N   0  0  0  0  0  0  0  0  0  0  0  0
  145.4800  160.4200  133.7180 C   0  0  0  0  0  0  0  0  0  0  0  0
  144.6360  161.6140  133.9310 C   0  0  0  0  0  0  0  0  0  0  0  0
  143.2260  161.5600  133.7280 N   0  0  0  0  0  0  0  0  0  0  0  0
  145.1710  162.7100  134.2490 O   0  0  0  0  0  0  0  0  0  0  0  0
  146.8680  160.4730  133.6210 C   0  0  0  0  0  0  0  0  0  0  0  0
  147.2630  159.1840  133.3430 C   0  0  0  0  0  0  0  0  0  0  0  0
  148.5380  158.6570  133.1630 C   0  0  0  0  0  0  0  0  0  0  0  0
  148.6550  157.2780  132.9260 C   0  0  0  0  0  0  0  0  0  0  0  0
  147.5020  156.4540  132.8770 C   0  0  0  0  0  0  0  0  0  0  0  0
  147.6380  154.9690  132.6620 C   0  0  0  0  0  0  0  0  0  0  0  0
  149.1050  154.5400  132.6050 C   0  0  0  0  0  0  0  0  0  0  0  0
  149.2580  152.7640  132.5170 Cl  0  0  0  0  0  0  0  0  0  0  0  0
  146.2240  157.0240  133.0700 C   0  0  0  0  0  0  0  0  0  0  0  0
  146.1370  158.4030  133.2860 C   0  0  0  0  0  0  0  0  0  0  0  0
  141.1872  156.8976  136.0837 H   0  0  0  0  0  0  0  0  0  0  0  0
  140.3022  157.0527  134.5282 H   0  0  0  0  0  0  0  0  0  0  0  0
  142.0625  156.6948  134.5282 H   0  0  0  0  0  0  0  0  0  0  0  0
  140.0115  160.0528  134.2464 H   0  0  0  0  0  0  0  0  0  0  0  0
  141.4928  159.9794  133.2330 H   0  0  0  0  0  0  0  0  0  0  0  0
  140.3357  158.6055  133.2330 H   0  0  0  0  0  0  0  0  0  0  0  0
  141.5461  158.7701  137.1883 H   0  0  0  0  0  0  0  0  0  0  0  0
  141.5002  160.3964  136.4269 H   0  0  0  0  0  0  0  0  0  0  0  0
  140.0310  159.3629  136.4269 H   0  0  0  0  0  0  0  0  0  0  0  0
  142.7350  160.6480  133.5950 H   0  0  0  0  0  0  0  0  0  0  0  0
  147.5118  161.3568  133.7410 H   0  0  0  0  0  0  0  0  0  0  0  0
  149.4282  159.3017  133.2051 H   0  0  0  0  0  0  0  0  0  0  0  0
  149.6499  156.8329  132.7770 H   0  0  0  0  0  0  0  0  0  0  0  0
  147.1439  154.4416  133.4913 H   0  0  0  0  0  0  0  0  0  0  0  0
  147.1682  154.7163  131.7000 H   0  0  0  0  0  0  0  0  0  0  0  0
  149.5741  154.9846  131.7149 H   0  0  0  0  0  0  0  0  0  0  0  0
  149.6041  154.8866  133.5219 H   0  0  0  0  0  0  0  0  0  0  0  0
  145.3194  156.3985  133.0509 H   0  0  0  0  0  0  0  0  0  0  0  0
  1  2  1  0
  2  3  1  0
  2  4  1  0
  2  5  1  0
  5  6  1  0
  6  7  2  0
  6  8  1  0
  8  9  1  0
  9 10  1  0
 10 11  1  0
 10 12  2  0
  9 13  2  0
 13 14  1  0
 14 15  2  0
 15 16  1  0
 16 17  2  0
 17 18  1  0
 18 19  1  0
 19 20  1  0
 17 21  1  0
 21 22  2  0
 22  8  1  0
 22 14  1  0
  1 23  1  0
  1 24  1  0
  1 25  1  0
  3 26  1  0
  3 27  1  0
  3 28  1  0
  4 29  1  0
  4 30  1  0
  4 31  1  0
 11 32  1  0
 13 33  1  0
 15 34  1  0
 16 35  1  0
 18 36  1  0
 18 37  1  0
 19 38  1  0
 19 39  1  0
 21 40  1  0
M  CHG  1  11  -1
M  END
>  <UniqueID>  (18) 
18

>  <SMILES>  (18) 
CC(C)(C)OC(=O)n1c(C([NH-])=O)cc2ccc(CCCl)cc21

>  <Energy>  (18) 
71.09521401847076

>  <Genealogy>  (18) 
CC(C)(C)OC(=O)n1c(C([NH-])=O)cc2ccc(CCCl)cc21 (protonated)
CC(C)(C)OC(=O)n1c(C([NH-])=O)cc2ccc(CCCl)cc21 (3D coordinates assigned)
CC(C)(C)OC(=O)n1c(C([NH-])=O)cc2ccc(CCCl)cc21 (optimized conformer: 71.09521401847076 kcal/mol)

>  <smiles>  (18) 
CC(C)(C)OC(=O)n1c(C(N)=O)cc2ccc(CCCl)cc21

>  <score_type>  (18) 
oracle

>  <origin>  (18) 
adg

>  <m_score__min__energy>  (18) 
-7.1799999999999997

>  <m_primary>  (18) 
energy

$$$$
18:0
     RDKit          3D

 49 51  0  0  0  0  0  0  0  0999 V2000
  140.6090  150.7640  137.2360 C   0  0  0  0  0  0  0  0  0  0  0  0
  141.0040  151.0990  135.9090 O   0  0  0  0  0  0  0  0  0  0  0  0
  141.6770  152.2770  135.5530 C   0  0  0  0  0  0  0  0  0  0  0  0
  142.1240  153.2040  136.5150 C   0  0  0  0  0  0  0  0  0  0  0  0
  142.8000  154.3600  136.1220 C   0  0  0  0  0  0  0  0  0  0  0  0
  143.0430  154.6210  134.7620 C   0  0  0  0  0  0  0  0  0  0  0  0
  143.7670  155.8500  134.3460 C   0  0  0  0  0  0  0  0  0  0  0  0
  143.1490  157.1220  134.4700 C   0  0  0  0  0  0  0  0  0  0  0  0
  143.8220  158.2890  134.0810 C   0  0  0  0  0  0  0  0  0  0  0  0
  145.1060  158.1610  133.5620 C   0  0  0  0  0  0  0  0  0  0  0  0
  145.9780  159.1310  133.1270 C   0  0  0  0  0  0  0  0  0  0  0  0
  147.1160  158.4430  132.7180 C   0  0  0  0  0  0  0  0  0  0  0  0
  148.2810  159.1050  132.1000 C   0  0  0  0  0  0  0  0  0  0  0  0
  149.5870  158.9760  132.6690 N   0  0  0  0  0  0  0  0  0  0  0  0
  148.1340  159.7480  131.0260 O   0  0  0  0  0  0  0  0  0  0  0  0
  146.9690  157.0990  132.9050 N   0  0  0  0  0  0  0  0  0  0  0  0
  147.9790  156.0860  132.7300 C   0  0  0  0  0  0  0  0  0  0  0  0
  149.1870  156.3500  132.9640 O   0  0  0  0  0  0  0  0  0  0  0  0
  147.6070  154.8120  132.2750 O   0  0  0  0  0  0  0  0  0  0  0  0
  147.7000  153.5780  133.0030 C   0  0  0  0  0  0  0  0  0  0  0  0
  146.5280  152.6390  132.6500 C   0  0  0  0  0  0  0  0  0  0  0  0
  149.0170  152.9040  132.5870 C   0  0  0  0  0  0  0  0  0  0  0  0
  147.7300  153.8590  134.5170 C   0  0  0  0  0  0  0  0  0  0  0  0
  145.7240  156.9430  133.4200 C   0  0  0  0  0  0  0  0  0  0  0  0
  145.0810  155.7630  133.8200 C   0  0  0  0  0  0  0  0  0  0  0  0
  142.5920  153.6970  133.8010 C   0  0  0  0  0  0  0  0  0  0  0  0
  141.9160  152.5370  134.1930 C   0  0  0  0  0  0  0  0  0  0  0  0
  141.3720  151.4070  132.9620 Cl  0  0  0  0  0  0  0  0  0  0  0  0
  141.2441  151.3027  137.9546 H   0  0  0  0  0  0  0  0  0  0  0  0
  139.5580  151.0503  137.3890 H   0  0  0  0  0  0  0  0  0  0  0  0
  140.7198  149.6804  137.3890 H   0  0  0  0  0  0  0  0  0  0  0  0
  141.9390  153.0155  137.5828 H   0  0  0  0  0  0  0  0  0  0  0  0
  143.1461  155.0740  136.8838 H   0  0  0  0  0  0  0  0  0  0  0  0
  142.1293  157.1930  134.8764 H   0  0  0  0  0  0  0  0  0  0  0  0
  143.3484  159.2766  134.1833 H   0  0  0  0  0  0  0  0  0  0  0  0
  145.8115  160.2181  133.1067 H   0  0  0  0  0  0  0  0  0  0  0  0
  149.7530  158.3630  133.5000 H   0  0  0  0  0  0  0  0  0  0  0  0
  150.4150  159.3800  132.1800 H   0  0  0  0  0  0  0  0  0  0  0  0
  146.0642  152.2674  133.5757 H   0  0  0  0  0  0  0  0  0  0  0  0
  145.7805  153.1909  132.0613 H   0  0  0  0  0  0  0  0  0  0  0  0
  146.9036  151.7891  132.0613 H   0  0  0  0  0  0  0  0  0  0  0  0
  149.5811  152.6153  133.4861 H   0  0  0  0  0  0  0  0  0  0  0  0
  148.7971  152.0076  131.9886 H   0  0  0  0  0  0  0  0  0  0  0  0
  149.6154  153.6067  131.9886 H   0  0  0  0  0  0  0  0  0  0  0  0
  147.6289  152.9122  135.0677 H   0  0  0  0  0  0  0  0  0  0  0  0
  148.6843  154.3374  134.7823 H   0  0  0  0  0  0  0  0  0  0  0  0
  146.8982  154.5281  134.7823 H   0  0  0  0  0  0  0  0  0  0  0  0
  145.5854  154.7898  133.7277 H   0  0  0  0  0  0  0  0  0  0  0  0
  142.7726  153.8887  132.7330 H   0  0  0  0  0  0  0  0  0  0  0  0
  1  2  1  0
  2  3  1  0
  3  4  2  0
  4  5  1  0
  5  6  2  0
  6  7  1  0
  7  8  2  0
  8  9  1  0
  9 10  2  0
 10 11  1  0
 11 12  2  0
 12 13  1  0
 13 14  1  0
 13 15  2  0
 12 16  1  0
 16 17  1  0
 17 18  2  0
 17 19  1  0
 19 20  1  0
 20 21  1  0
 20 22  1  0
 20 23  1  0
 16 24  1  0
 24 25  2  0
  6 26  1  0
 26 27  2  0
 27 28  1  0
 27  3  1  0
 25  7  1  0
 24 10  1  0
  1 29  1  0
  1 30  1  0
  1 31  1  0
  4 32  1  0
  5 33  1  0
  8 34  1  0
  9 35  1  0
 11 36  1  0
 14 37  1  0
 14 38  1  0
 21 39  1  0
 21 40  1  0
 21 41  1  0
 22 42  1  0
 22 43  1  0
 22 44  1  0
 23 45  1  0
 23 46  1  0
 23 47  1  0
 25 48  1  0
 26 49  1  0
M  END
>  <UniqueID>  (19) 
19

>  <SMILES>  (19) 
COc1ccc(-c2ccc3cc(C(N)=O)n(C(=O)OC(C)(C)C)c3c2)cc1Cl

>  <Energy>  (19) 
90.89881397205575

>  <Genealogy>  (19) 
COc1ccc(-c2ccc3cc(C(N)=O)n(C(=O)OC(C)(C)C)c3c2)cc1Cl (3D coordinates assigned)
COc1ccc(-c2ccc3cc(C(N)=O)n(C(=O)OC(C)(C)C)c3c2)cc1Cl (optimized conformer: 90.89881397205575 kcal/mol)

>  <smiles>  (19) 
COc1ccc(-c2ccc3cc(C(N)=O)n(C(=O)OC(C)(C)C)c3c2)cc1Cl

>  <score_type>  (19) 
oracle

>  <origin>  (19) 
adg

>  <m_score__min__energy>  (19) 
-8.6899999999999995

>  <m_primary>  (19) 
energy

$$$$
19:0
     RDKit          3D

101104  0  0  0  0  0  0  0  0999 V2000
  140.9040  153.0490  140.2840 C   0  0  0  0  0  0  0  0  0  0  0  0
  141.2470  152.0450  139.1660 C   0  0  0  0  0  0  0  0  0  0  0  0
  140.2440  150.8800  139.2240 C   0  0  0  0  0  0  0  0  0  0  0  0
  142.6700  151.4840  139.3540 C   0  0  0  0  0  0  0  0  0  0  0  0
  141.1060  152.6650  137.8810 O   0  0  0  0  0  0  0  0  0  0  0  0
  141.3720  152.0670  136.6430 C   0  0  0  0  0  0  0  0  0  0  0  0
  140.8540  150.9610  136.3390 O   0  0  0  0  0  0  0  0  0  0  0  0
  142.2480  152.6930  135.6980 N   0  0  0  0  0  0  0  0  0  0  0  0
  142.6640  154.1000  135.6150 C   0  0  1  0  0  0  0  0  0  0  0  0
  141.4640  155.0740  135.6140 C   0  0  0  0  0  0  0  0  0  0  0  0
  141.5400  156.1950  136.6210 C   0  0  0  0  0  0  0  0  0  0  0  0
  141.6910  157.5260  136.1940 C   0  0  0  0  0  0  0  0  0  0  0  0
  141.7250  158.5650  137.1260 C   0  0  0  0  0  0  0  0  0  0  0  0
  141.5950  158.2890  138.4910 C   0  0  0  0  0  0  0  0  0  0  0  0
  141.4290  156.9720  138.9240 C   0  0  0  0  0  0  0  0  0  0  0  0
  141.3950  155.9270  137.9940 C   0  0  0  0  0  0  0  0  0  0  0  0
  143.8250  154.4900  136.5800 C   0  0  1  0  0  0  0  0  0  0  0  0
  143.5530  154.0730  137.8910 O   0  0  0  0  0  0  0  0  0  0  0  0
  145.1870  153.9170  136.1260 C   0  0  0  0  0  0  0  0  0  0  0  0
  145.6400  154.4880  134.8380 N   0  0  0  0  0  0  0  0  0  0  0  0
  145.2520  153.6350  133.6950 C   0  0  0  0  0  0  0  0  0  0  0  0
  145.1010  154.5020  132.4450 C   0  0  0  0  0  0  0  0  0  0  0  0
  144.6470  155.8940  132.8040 C   0  0  0  0  0  0  0  0  0  0  0  0
  143.2670  156.1800  132.9480 C   0  0  0  0  0  0  0  0  0  0  0  0
  142.8350  157.4740  133.2780 C   0  0  0  0  0  0  0  0  0  0  0  0
  143.8030  158.4570  133.4620 C   0  0  0  0  0  0  0  0  0  0  0  0
  143.6600  159.7820  133.8040 C   0  0  0  0  0  0  0  0  0  0  0  0
  144.9560  160.2900  133.8680 C   0  0  0  0  0  0  0  0  0  0  0  0
  145.2700  161.7160  134.1090 C   0  0  0  0  0  0  0  0  0  0  0  0
  146.5990  162.1260  134.4360 N   0  0  0  0  0  0  0  0  0  0  0  0
  144.3540  162.5800  134.0680 O   0  0  0  0  0  0  0  0  0  0  0  0
  145.8680  159.3150  133.5840 N   0  0  0  0  0  0  0  0  0  0  0  0
  147.3030  159.4160  133.6400 C   0  0  0  0  0  0  0  0  0  0  0  0
  147.9510  158.7050  134.4540 O   0  0  0  0  0  0  0  0  0  0  0  0
  147.9690  160.2900  132.7620 O   0  0  0  0  0  0  0  0  0  0  0  0
  148.5790  159.9360  131.5130 C   0  0  0  0  0  0  0  0  0  0  0  0
  147.7480  160.4800  130.3350 C   0  0  0  0  0  0  0  0  0  0  0  0
  148.6040  158.4010  131.4440 C   0  0  0  0  0  0  0  0  0  0  0  0
  150.0290  160.4590  131.4400 C   0  0  0  0  0  0  0  0  0  0  0  0
  145.1450  158.1990  133.3360 C   0  0  0  0  0  0  0  0  0  0  0  0
  145.6030  156.9100  133.0250 C   0  0  0  0  0  0  0  0  0  0  0  0
  147.3710  154.8010  134.8110 S   0  0  0  0  0  0  0  0  0  0  0  0
  148.0550  153.9570  135.8500 O   0  0  0  0  0  0  0  0  0  0  0  0
  147.6210  156.2470  135.1480 O   0  0  0  0  0  0  0  0  0  0  0  0
  148.0850  154.4510  133.2070 C   0  0  0  0  0  0  0  0  0  0  0  0
  149.0090  153.2190  133.2830 C   0  0  0  0  0  0  0  0  0  0  0  0
  148.9170  152.2140  132.1100 C   0  0  0  0  0  0  0  0  0  0  0  0
  149.9700  151.1040  132.0680 C   0  0  0  0  0  0  0  0  0  0  0  0
  148.8690  150.0620  132.2230 C   0  0  0  0  0  0  0  0  0  0  0  0
  147.8130  151.1620  132.2330 C   0  0  0  0  0  0  0  0  0  0  0  0
  141.0656  152.5760  141.2639 H   0  0  0  0  0  0  0  0  0  0  0  0
  141.5507  153.9341  140.1930 H   0  0  0  0  0  0  0  0  0  0  0  0
  139.8509  153.3534  140.1930 H   0  0  0  0  0  0  0  0  0  0  0  0
  140.0305  150.6320  140.2742 H   0  0  0  0  0  0  0  0  0  0  0  0
  139.3115  151.1735  138.7196 H   0  0  0  0  0  0  0  0  0  0  0  0
  140.6728  150.0015  138.7196 H   0  0  0  0  0  0  0  0  0  0  0  0
  142.8909  151.3969  140.4281 H   0  0  0  0  0  0  0  0  0  0  0  0
  142.7380  150.4918  138.8841 H   0  0  0  0  0  0  0  0  0  0  0  0
  143.3968  152.1629  138.8841 H   0  0  0  0  0  0  0  0  0  0  0  0
  143.1268  154.2133  134.6235 H   0  0  0  0  0  0  0  0  0  0  0  0
  141.3914  155.5221  134.6120 H   0  0  0  0  0  0  0  0  0  0  0  0
  140.5859  154.4736  135.8942 H   0  0  0  0  0  0  0  0  0  0  0  0
  141.7827  157.7498  135.1209 H   0  0  0  0  0  0  0  0  0  0  0  0
  141.8544  159.6031  136.7860 H   0  0  0  0  0  0  0  0  0  0  0  0
  141.6235  159.1094  139.2233 H   0  0  0  0  0  0  0  0  0  0  0  0
  141.3248  156.7557  139.9975 H   0  0  0  0  0  0  0  0  0  0  0  0
  141.2543  154.8918  138.3382 H   0  0  0  0  0  0  0  0  0  0  0  0
  143.8937  155.5875  136.5534 H   0  0  0  0  0  0  0  0  0  0  0  0
  142.8510  153.3730  137.8400 H   0  0  0  0  0  0  0  0  0  0  0  0
  145.9393  154.1427  136.8962 H   0  0  0  0  0  0  0  0  0  0  0  0
  145.0643  152.8328  135.9867 H   0  0  0  0  0  0  0  0  0  0  0  0
  146.0287  152.8752  133.5234 H   0  0  0  0  0  0  0  0  0  0  0  0
  144.2964  153.1367  133.9151 H   0  0  0  0  0  0  0  0  0  0  0  0
  146.0709  154.5618  131.9295 H   0  0  0  0  0  0  0  0  0  0  0  0
  144.3441  154.0446  131.7908 H   0  0  0  0  0  0  0  0  0  0  0  0
  142.5267  155.3800  132.7997 H   0  0  0  0  0  0  0  0  0  0  0  0
  141.7649  157.7040  133.3878 H   0  0  0  0  0  0  0  0  0  0  0  0
  142.7214  160.3253  133.9880 H   0  0  0  0  0  0  0  0  0  0  0  0
  147.3880  161.4440  134.4380 H   0  0  0  0  0  0  0  0  0  0  0  0
  146.8070  163.1300  134.6310 H   0  0  0  0  0  0  0  0  0  0  0  0
  146.8869  161.0437  130.7232 H   0  0  0  0  0  0  0  0  0  0  0  0
  148.3739  161.1438  129.7204 H   0  0  0  0  0  0  0  0  0  0  0  0
  147.3900  159.6409  129.7204 H   0  0  0  0  0  0  0  0  0  0  0  0
  148.6107  157.9882  132.4636 H   0  0  0  0  0  0  0  0  0  0  0  0
  147.7116  158.0434  130.9095 H   0  0  0  0  0  0  0  0  0  0  0  0
  149.5076  158.0727  130.9095 H   0  0  0  0  0  0  0  0  0  0  0  0
  150.4197  160.5999  132.4586 H   0  0  0  0  0  0  0  0  0  0  0  0
  150.6552  159.7301  130.9047 H   0  0  0  0  0  0  0  0  0  0  0  0
  150.0457  161.4198  130.9047 H   0  0  0  0  0  0  0  0  0  0  0  0
  146.6797  156.6959  132.9550 H   0  0  0  0  0  0  0  0  0  0  0  0
  147.2774  154.2536  132.4868 H   0  0  0  0  0  0  0  0  0  0  0  0
  148.6774  155.3200  132.8846 H   0  0  0  0  0  0  0  0  0  0  0  0
  150.0463  153.5817  133.3319 H   0  0  0  0  0  0  0  0  0  0  0  0
  148.6780  152.6610  134.1713 H   0  0  0  0  0  0  0  0  0  0  0  0
  148.8915  152.9677  131.3092 H   0  0  0  0  0  0  0  0  0  0  0  0
  150.5191  151.0404  131.1169 H   0  0  0  0  0  0  0  0  0  0  0  0
  150.8260  151.1194  132.7587 H   0  0  0  0  0  0  0  0  0  0  0  0
  148.7855  149.3695  131.3724 H   0  0  0  0  0  0  0  0  0  0  0  0
  148.9123  149.3298  133.0428 H   0  0  0  0  0  0  0  0  0  0  0  0
  147.1232  151.1314  131.3767 H   0  0  0  0  0  0  0  0  0  0  0  0
  147.0739  151.2199  133.0457 H   0  0  0  0  0  0  0  0  0  0  0  0
  1  2  1  0
  2  3  1  0
  2  4  1  0
  2  5  1  0
  5  6  1  0
  6  7  2  0
  6  8  1  0
  8  9  1  0
  9 10  1  0
 10 11  1  0
 11 12  2  0
 12 13  1  0
 13 14  2  0
 14 15  1  0
 15 16  2  0
  9 17  1  0
 17 18  1  0
 17 19  1  0
 19 20  1  0
 20 21  1  0
 21 22  1  0
 22 23  1  0
 23 24  2  0
 24 25  1  0
 25 26  2  0
 26 27  1  0
 27 28  2  0
 28 29  1  0
 29 30  1  0
 29 31  2  0
 28 32  1  0
 32 33  1  0
 33 34  2  0
 33 35  1  0
 35 36  1  0
 36 37  1  0
 36 38  1  0
 36 39  1  0
 32 40  1  0
 40 41  2  0
 20 42  1  0
 42 43  2  0
 42 44  2  0
 42 45  1  0
 45 46  1  0
 46 47  1  0
 47 48  1  0
 48 49  1  0
 49 50  1  0
 16 11  1  0
 41 23  1  0
 50 47  1  0
 40 26  1  0
  1 51  1  0
  1 52  1  0
  1 53  1  0
  3 54  1  0
  3 55  1  0
  3 56  1  0
  4 57  1  0
  4 58  1  0
  4 59  1  0
  9 60  1  6
 10 61  1  0
 10 62  1  0
 12 63  1  0
 13 64  1  0
 14 65  1  0
 15 66  1  0
 16 67  1  0
 17 68  1  1
 18 69  1  0
 19 70  1  0
 19 71  1  0
 21 72  1  0
 21 73  1  0
 22 74  1  0
 22 75  1  0
 24 76  1  0
 25 77  1  0
 27 78  1  0
 30 79  1  0
 30 80  1  0
 37 81  1  0
 37 82  1  0
 37 83  1  0
 38 84  1  0
 38 85  1  0
 38 86  1  0
 39 87  1  0
 39 88  1  0
 39 89  1  0
 41 90  1  0
 45 91  1  0
 45 92  1  0
 46 93  1  0
 46 94  1  0
 47 95  1  0
 48 96  1  0
 48 97  1  0
 49 98  1  0
 49 99  1  0
 50100  1  0
 50101  1  0
M  CHG  1   8  -1
M  END
>  <UniqueID>  (20) 
20

>  <SMILES>  (20) 
CC(C)(C)OC(=O)[N-][C@@H](Cc1ccccc1)[C@@H](O)CN(CCc1ccc2cc(C(N)=O)n(C(=O)OC(C)(C)C)c2c1)S(=O)(=O)CCC1CCC1

>  <Energy>  (20) 
183.91169064131782

>  <Genealogy>  (20) 
CC(C)(C)OC(=O)[N-]C(Cc1ccccc1)C(O)CN(CCc1ccc2cc(C(N)=O)n(C(=O)OC(C)(C)C)c2c1)S(=O)(=O)CCC1CCC1 (protonated)
CC(C)(C)OC(=O)[N-][C@@H](Cc1ccccc1)[C@@H](O)CN(CCc1ccc2cc(C(N)=O)n(C(=O)OC(C)(C)C)c2c1)S(=O)(=O)CCC1CCC1 (chirality)
CC(C)(C)OC(=O)[N-][C@@H](Cc1ccccc1)[C@@H](O)CN(CCc1ccc2cc(C(N)=O)n(C(=O)OC(C)(C)C)c2c1)S(=O)(=O)CCC1CCC1 (3D coordinates assigned)
CC(C)(C)OC(=O)[N-][C@@H](Cc1ccccc1)[C@@H](O)CN(CCc1ccc2cc(C(N)=O)n(C(=O)OC(C)(C)C)c2c1)S(=O)(=O)CCC1CCC1 (nonaromatic ring conformer: 183.91169064131782 kcal/mol)

>  <smiles>  (20) 
CC(C)(C)OC(=O)NC(Cc1ccccc1)C(O)CN(CCc1ccc2cc(C(N)=O)n(C(=O)OC(C)(C)C)c2c1)S(=O)(=O)CCC1CCC1

>  <score_type>  (20) 
oracle

>  <origin>  (20) 
adg

>  <m_score__min__energy>  (20) 
-13.1

>  <m_primary>  (20) 
energy

$$$$
20:0
     RDKit          3D

 75 79  0  0  0  0  0  0  0  0999 V2000
  144.9530  153.5470  137.1420 N   0  0  0  0  0  0  0  0  0  0  0  0
  144.1930  154.4270  136.3180 C   0  0  0  0  0  0  0  0  0  0  0  0
  144.7870  155.3320  135.6760 O   0  0  0  0  0  0  0  0  0  0  0  0
  142.6830  154.3480  136.2680 C   0  0  1  0  0  0  0  0  0  0  0  0
  142.0680  155.6790  136.3390 N   0  0  0  0  0  0  0  0  0  0  0  0
  141.0900  156.1240  137.2920 C   0  0  0  0  0  0  0  0  0  0  0  0
  140.6030  155.3170  138.1320 O   0  0  0  0  0  0  0  0  0  0  0  0
  140.5860  157.5440  137.2110 C   0  0  0  0  0  0  0  0  0  0  0  0
  139.3260  157.6830  136.3200 C   0  0  0  0  0  0  0  0  0  0  0  0
  139.7130  158.0220  134.8740 C   0  0  0  0  0  0  0  0  0  0  0  0
  140.4090  159.3260  134.7810 N   0  0  0  0  0  0  0  0  0  0  0  0
  141.3620  159.4160  133.3160 S   0  0  0  0  0  0  0  0  0  0  0  0
  140.5200  158.9960  132.1430 O   0  0  0  0  0  0  0  0  0  0  0  0
  141.7980  160.8370  133.0900 O   0  0  0  0  0  0  0  0  0  0  0  0
  142.7870  158.3790  133.4120 C   0  0  0  0  0  0  0  0  0  0  0  0
  144.0360  158.9210  133.7440 C   0  0  0  0  0  0  0  0  0  0  0  0
  145.1860  158.1270  133.6970 C   0  0  0  0  0  0  0  0  0  0  0  0
  145.1010  156.7770  133.3150 C   0  0  0  0  0  0  0  0  0  0  0  0
  146.3290  155.9670  133.1530 C   0  0  0  0  0  0  0  0  0  0  0  0
  147.6060  156.5760  133.2120 C   0  0  0  0  0  0  0  0  0  0  0  0
  148.7700  155.8240  132.9860 C   0  0  0  0  0  0  0  0  0  0  0  0
  148.6270  154.4700  132.6990 C   0  0  0  0  0  0  0  0  0  0  0  0
  149.5830  153.5350  132.3800 C   0  0  0  0  0  0  0  0  0  0  0  0
  148.8770  152.3670  132.1220 C   0  0  0  0  0  0  0  0  0  0  0  0
  149.5210  151.1240  131.6710 C   0  0  0  0  0  0  0  0  0  0  0  0
  149.3310  149.9080  132.3950 N   0  0  0  0  0  0  0  0  0  0  0  0
  150.2020  151.1230  130.6130 O   0  0  0  0  0  0  0  0  0  0  0  0
  147.5380  152.5500  132.2990 N   0  0  0  0  0  0  0  0  0  0  0  0
  146.5030  151.5430  132.2250 C   0  0  0  0  0  0  0  0  0  0  0  0
  145.2900  151.8710  132.1760 O   0  0  0  0  0  0  0  0  0  0  0  0
  146.8220  150.1920  132.2550 O   0  0  0  0  0  0  0  0  0  0  0  0
  147.4010  153.8550  132.6470 C   0  0  0  0  0  0  0  0  0  0  0  0
  146.2260  154.5840  132.8730 C   0  0  0  0  0  0  0  0  0  0  0  0
  143.8400  156.2260  133.0260 C   0  0  0  0  0  0  0  0  0  0  0  0
  142.6920  157.0190  133.0840 C   0  0  0  0  0  0  0  0  0  0  0  0
  141.2060  159.6920  135.9780 C   0  0  0  0  0  0  0  0  0  0  0  0
  141.7330  158.4670  136.7410 C   0  0  0  0  0  0  0  0  0  0  0  0
  142.1180  153.5110  135.0850 C   0  0  0  0  0  0  0  0  0  0  0  0
  141.3010  154.4020  134.1250 C   0  0  0  0  0  0  0  0  0  0  0  0
  140.6690  153.5680  133.0010 C   0  0  0  0  0  0  0  0  0  0  0  0
  141.7330  152.7760  132.2340 C   0  0  0  0  0  0  0  0  0  0  0  0
  142.5590  151.8980  133.1820 C   0  0  0  0  0  0  0  0  0  0  0  0
  143.1990  152.7430  134.2910 C   0  0  0  0  0  0  0  0  0  0  0  0
  145.4080  153.8880  138.0170 H   0  0  0  0  0  0  0  0  0  0  0  0
  142.3961  153.7887  137.1707 H   0  0  0  0  0  0  0  0  0  0  0  0
  140.2656  157.8536  138.2167 H   0  0  0  0  0  0  0  0  0  0  0  0
  138.7704  156.7337  136.3311 H   0  0  0  0  0  0  0  0  0  0  0  0
  138.7025  158.4975  136.7173 H   0  0  0  0  0  0  0  0  0  0  0  0
  140.3788  157.2351  134.4900 H   0  0  0  0  0  0  0  0  0  0  0  0
  138.7898  158.0846  134.2792 H   0  0  0  0  0  0  0  0  0  0  0  0
  144.1121  159.9768  134.0432 H   0  0  0  0  0  0  0  0  0  0  0  0
  146.1619  158.5610  133.9603 H   0  0  0  0  0  0  0  0  0  0  0  0
  147.6870  157.6496  133.4373 H   0  0  0  0  0  0  0  0  0  0  0  0
  149.7647  156.2911  133.0343 H   0  0  0  0  0  0  0  0  0  0  0  0
  150.6725  153.6805  132.3381 H   0  0  0  0  0  0  0  0  0  0  0  0
  149.7930  149.0270  132.0770 H   0  0  0  0  0  0  0  0  0  0  0  0
  148.7220  149.8860  133.2420 H   0  0  0  0  0  0  0  0  0  0  0  0
  145.2434  154.0911  132.8335 H   0  0  0  0  0  0  0  0  0  0  0  0
  143.7573  155.1637  132.7525 H   0  0  0  0  0  0  0  0  0  0  0  0
  141.7085  156.5746  132.8714 H   0  0  0  0  0  0  0  0  0  0  0  0
  142.0636  160.3011  135.6562 H   0  0  0  0  0  0  0  0  0  0  0  0
  140.5439  160.2464  136.6594 H   0  0  0  0  0  0  0  0  0  0  0  0
  142.4006  157.8959  136.0791 H   0  0  0  0  0  0  0  0  0  0  0  0
  142.2696  158.8250  137.6320 H   0  0  0  0  0  0  0  0  0  0  0  0
  141.4651  152.7541  135.5441 H   0  0  0  0  0  0  0  0  0  0  0  0
  140.5033  154.9041  134.6920 H   0  0  0  0  0  0  0  0  0  0  0  0
  141.9781  155.1418  133.6731 H   0  0  0  0  0  0  0  0  0  0  0  0
  139.9450  152.8653  133.4392 H   0  0  0  0  0  0  0  0  0  0  0  0
  140.1695  154.2514  132.2986 H   0  0  0  0  0  0  0  0  0  0  0  0
  141.2369  152.1343  131.4910 H   0  0  0  0  0  0  0  0  0  0  0  0
  142.4097  153.4885  131.7397 H   0  0  0  0  0  0  0  0  0  0  0  0
  141.9019  151.1429  133.6381 H   0  0  0  0  0  0  0  0  0  0  0  0
  143.3588  151.4119  132.6041 H   0  0  0  0  0  0  0  0  0  0  0  0
  143.7493  152.0819  134.9767 H   0  0  0  0  0  0  0  0  0  0  0  0
  143.8837  153.4706  133.8308 H   0  0  0  0  0  0  0  0  0  0  0  0
  1  2  1  0
  2  3  2  0
  2  4  1  0
  4  5  1  0
  5  6  1  0
  6  7  2  0
  6  8  1  0
  8  9  1  0
  9 10  1  0
 10 11  1  0
 11 12  1  0
 12 13  2  0
 12 14  2  0
 12 15  1  0
 15 16  2  0
 16 17  1  0
 17 18  2  0
 18 19  1  0
 19 20  2  0
 20 21  1  0
 21 22  2  0
 22 23  1  0
 23 24  2  0
 24 25  1  0
 25 26  1  0
 25 27  2  0
 24 28  1  0
 28 29  1  0
 29 30  2  0
 29 31  1  0
 28 32  1  0
 32 33  2  0
 18 34  1  0
 34 35  2  0
 11 36  1  0
 36 37  1  0
  4 38  1  0
 38 39  1  0
 39 40  1  0
 40 41  1  0
 41 42  1  0
 42 43  1  0
 37  8  1  0
 43 38  1  0
 35 15  1  0
 33 19  1  0
 32 22  1  0
  1 44  1  0
  4 45  1  1
  8 46  1  0
  9 47  1  0
  9 48  1  0
 10 49  1  0
 10 50  1  0
 16 51  1  0
 17 52  1  0
 20 53  1  0
 21 54  1  0
 23 55  1  0
 26 56  1  0
 26 57  1  0
 33 58  1  0
 34 59  1  0
 35 60  1  0
 36 61  1  0
 36 62  1  0
 37 63  1  0
 37 64  1  0
 38 65  1  0
 39 66  1  0
 39 67  1  0
 40 68  1  0
 40 69  1  0
 41 70  1  0
 41 71  1  0
 42 72  1  0
 42 73  1  0
 43 74  1  0
 43 75  1  0
M  CHG  3   1  -1   5  -1  31  -1
M  END
>  <UniqueID>  (21) 
21

>  <SMILES>  (21) 
[NH-]C(=O)[C@@H]([N-]C(=O)C1CCN(S(=O)(=O)c2ccc(-c3ccc4cc(C(N)=O)n(C(=O)[O-])c4c3)cc2)CC1)C1CCCCC1

>  <Energy>  (21) 
125.86202085540654

>  <Genealogy>  (21) 
[NH-]C(=O)[C@@H]([N-]C(=O)C1CCN(S(=O)(=O)c2ccc(-c3ccc4cc(C(N)=O)n(C(=O)[O-])c4c3)cc2)CC1)C1CCCCC1 (protonated)
[NH-]C(=O)[C@@H]([N-]C(=O)C1CCN(S(=O)(=O)c2ccc(-c3ccc4cc(C(N)=O)n(C(=O)[O-])c4c3)cc2)CC1)C1CCCCC1 (3D coordinates assigned)
[NH-]C(=O)[C@@H]([N-]C(=O)C1CCN(S(=O)(=O)c2ccc(-c3ccc4cc(C(N)=O)n(C(=O)[O-])c4c3)cc2)CC1)C1CCCCC1 (nonaromatic ring conformer: 125.86202085540654 kcal/mol)

>  <smiles>  (21) 
NC(=O)c1cc2ccc(-c3ccc(S(=O)(=O)N4CCC(C(=O)N[C@H](C(N)=O)C5CCCCC5)CC4)cc3)cc2n1C(=O)O

>  <score_type>  (21) 
oracle

>  <origin>  (21) 
adg

>  <m_score__min__energy>  (21) 
-11.69

>  <m_primary>  (21) 
energy

$$$$
21:0
     RDKit          3D

 55 58  0  0  0  0  0  0  0  0999 V2000
  138.6980  148.5090  131.1000 C   0  0  0  0  0  0  0  0  0  0  0  0
  139.3340  148.8660  132.3230 O   0  0  0  0  0  0  0  0  0  0  0  0
  140.4890  149.6570  132.4150 C   0  0  0  0  0  0  0  0  0  0  0  0
  141.7830  149.1220  132.2560 C   0  0  0  0  0  0  0  0  0  0  0  0
  142.9060  149.9470  132.3560 C   0  0  0  0  0  0  0  0  0  0  0  0
  142.7570  151.3180  132.6150 C   0  0  0  0  0  0  0  0  0  0  0  0
  143.8800  152.1530  132.7170 C   0  0  0  0  0  0  0  0  0  0  0  0
  143.7270  153.5270  132.9740 C   0  0  0  0  0  0  0  0  0  0  0  0
  144.9170  154.4100  133.0820 C   0  0  0  0  0  0  0  0  0  0  0  0
  146.2250  153.8620  133.0230 C   0  0  0  0  0  0  0  0  0  0  0  0
  147.3550  154.6900  133.1080 C   0  0  0  0  0  0  0  0  0  0  0  0
  147.1550  156.0570  133.2620 C   0  0  0  0  0  0  0  0  0  0  0  0
  148.0700  157.0810  133.3330 C   0  0  0  0  0  0  0  0  0  0  0  0
  147.3120  158.2420  133.4660 C   0  0  0  0  0  0  0  0  0  0  0  0
  147.9040  159.5840  133.6330 C   0  0  0  0  0  0  0  0  0  0  0  0
  147.3240  160.7300  133.0090 N   0  0  0  0  0  0  0  0  0  0  0  0
  148.9060  159.7300  134.3820 O   0  0  0  0  0  0  0  0  0  0  0  0
  145.9820  157.9510  133.4660 N   0  0  0  0  0  0  0  0  0  0  0  0
  144.8890  158.8860  133.4600 C   0  0  0  0  0  0  0  0  0  0  0  0
  144.8690  159.8220  132.6160 O   0  0  0  0  0  0  0  0  0  0  0  0
  143.8580  158.7440  134.4000 O   0  0  0  0  0  0  0  0  0  0  0  0
  142.4490  158.7400  134.1270 C   0  0  0  0  0  0  0  0  0  0  0  0
  142.0530  160.1800  133.7700 C   0  0  0  0  0  0  0  0  0  0  0  0
  142.1330  157.8250  132.9280 C   0  0  0  0  0  0  0  0  0  0  0  0
  141.6530  158.2990  135.3700 C   0  0  0  0  0  0  0  0  0  0  0  0
  145.9000  156.6060  133.3430 C   0  0  0  0  0  0  0  0  0  0  0  0
  144.7550  155.8080  133.2380 C   0  0  0  0  0  0  0  0  0  0  0  0
  142.4330  154.0550  133.1290 C   0  0  0  0  0  0  0  0  0  0  0  0
  141.3110  153.2300  133.0310 C   0  0  0  0  0  0  0  0  0  0  0  0
  141.4610  151.8610  132.7740 C   0  0  0  0  0  0  0  0  0  0  0  0
  140.3390  151.0240  132.6720 C   0  0  0  0  0  0  0  0  0  0  0  0
  137.7575  147.9811  131.3163 H   0  0  0  0  0  0  0  0  0  0  0  0
  138.4830  149.4183  130.5195 H   0  0  0  0  0  0  0  0  0  0  0  0
  139.3622  147.8519  130.5195 H   0  0  0  0  0  0  0  0  0  0  0  0
  141.9096  148.0485  132.0520 H   0  0  0  0  0  0  0  0  0  0  0  0
  143.9119  149.5197  132.2311 H   0  0  0  0  0  0  0  0  0  0  0  0
  144.8879  151.7295  132.5950 H   0  0  0  0  0  0  0  0  0  0  0  0
  146.3545  152.7756  132.9093 H   0  0  0  0  0  0  0  0  0  0  0  0
  148.3699  154.2693  133.0543 H   0  0  0  0  0  0  0  0  0  0  0  0
  149.1663  157.0005  133.2932 H   0  0  0  0  0  0  0  0  0  0  0  0
  147.7830  161.6640  133.0960 H   0  0  0  0  0  0  0  0  0  0  0  0
  146.4010  160.6690  132.5250 H   0  0  0  0  0  0  0  0  0  0  0  0
  141.8945  160.7563  134.6934 H   0  0  0  0  0  0  0  0  0  0  0  0
  142.8564  160.6458  133.1804 H   0  0  0  0  0  0  0  0  0  0  0  0
  141.1244  160.1694  133.1804 H   0  0  0  0  0  0  0  0  0  0  0  0
  141.7944  156.8446  133.2942 H   0  0  0  0  0  0  0  0  0  0  0  0
  141.3406  158.2818  132.3170 H   0  0  0  0  0  0  0  0  0  0  0  0
  143.0385  157.6954  132.3170 H   0  0  0  0  0  0  0  0  0  0  0  0
  142.1955  158.5996  136.2785 H   0  0  0  0  0  0  0  0  0  0  0  0
  140.6623  158.7769  135.3595 H   0  0  0  0  0  0  0  0  0  0  0  0
  141.5328  157.2056  135.3595 H   0  0  0  0  0  0  0  0  0  0  0  0
  143.7515  156.2569  133.2758 H   0  0  0  0  0  0  0  0  0  0  0  0
  142.3035  155.1288  133.3295 H   0  0  0  0  0  0  0  0  0  0  0  0
  140.3049  153.6567  133.1561 H   0  0  0  0  0  0  0  0  0  0  0  0
  139.3312  151.4472  132.7954 H   0  0  0  0  0  0  0  0  0  0  0  0
  1  2  1  0
  2  3  1  0
  3  4  2  0
  4  5  1  0
  5  6  2  0
  6  7  1  0
  7  8  2  0
  8  9  1  0
  9 10  2  0
 10 11  1  0
 11 12  2  0
 12 13  1  0
 13 14  2  0
 14 15  1  0
 15 16  1  0
 15 17  2  0
 14 18  1  0
 18 19  1  0
 19 20  2  0
 19 21  1  0
 21 22  1  0
 22 23  1  0
 22 24  1  0
 22 25  1  0
 18 26  1  0
 26 27  2  0
  8 28  1  0
 28 29  2  0
 29 30  1  0
 30 31  2  0
 31  3  1  0
 30  6  1  0
 27  9  1  0
 26 12  1  0
  1 32  1  0
  1 33  1  0
  1 34  1  0
  4 35  1  0
  5 36  1  0
  7 37  1  0
 10 38  1  0
 11 39  1  0
 13 40  1  0
 16 41  1  0
 16 42  1  0
 23 43  1  0
 23 44  1  0
 23 45  1  0
 24 46  1  0
 24 47  1  0
 24 48  1  0
 25 49  1  0
 25 50  1  0
 25 51  1  0
 27 52  1  0
 28 53  1  0
 29 54  1  0
 31 55  1  0
M  END
>  <UniqueID>  (22) 
22

>  <SMILES>  (22) 
COc1ccc2cc(-c3ccc4cc(C(N)=O)n(C(=O)OC(C)(C)C)c4c3)ccc2c1

>  <Energy>  (22) 
100.82445047440058

>  <Genealogy>  (22) 
COc1ccc2cc(-c3ccc4cc(C(N)=O)n(C(=O)OC(C)(C)C)c4c3)ccc2c1 (3D coordinates assigned)
COc1ccc2cc(-c3ccc4cc(C(N)=O)n(C(=O)OC(C)(C)C)c4c3)ccc2c1 (optimized conformer: 100.82445047440058 kcal/mol)

>  <smiles>  (22) 
COc1ccc2cc(-c3ccc4cc(C(N)=O)n(C(=O)OC(C)(C)C)c4c3)ccc2c1

>  <score_type>  (22) 
oracle

>  <origin>  (22) 
adg

>  <m_score__min__energy>  (22) 
-10.33

>  <m_primary>  (22) 
energy

$$$$
22:0
     RDKit          3D

 58 61  0  0  0  0  0  0  0  0999 V2000
  149.5530  160.8530  129.9630 C   0  0  0  0  0  0  0  0  0  0  0  0
  149.8660  160.5130  131.3070 O   0  0  0  0  0  0  0  0  0  0  0  0
  149.4940  159.2940  131.8850 C   0  0  0  0  0  0  0  0  0  0  0  0
  150.2950  158.3170  131.8760 O   0  0  0  0  0  0  0  0  0  0  0  0
  148.1410  159.1310  132.4660 C   0  0  0  0  0  0  0  0  0  0  0  0
  147.4140  160.2830  132.8190 C   0  0  0  0  0  0  0  0  0  0  0  0
  146.1720  160.1760  133.4460 C   0  0  0  0  0  0  0  0  0  0  0  0
  145.6370  158.9200  133.7270 C   0  0  0  0  0  0  0  0  0  0  0  0
  146.3340  157.7650  133.3660 C   0  0  0  0  0  0  0  0  0  0  0  0
  147.5830  157.8520  132.7230 C   0  0  0  0  0  0  0  0  0  0  0  0
  148.2380  156.6570  132.2610 N   0  0  0  0  0  0  0  0  0  0  0  0
  147.6390  155.3280  132.4080 C   0  0  0  0  0  0  0  0  0  0  0  0
  148.3190  154.5530  133.5450 C   0  0  0  0  0  0  0  0  0  0  0  0
  147.6370  154.7840  134.9000 C   0  0  0  0  0  0  0  0  0  0  0  0
  146.1650  154.5050  134.8400 C   0  0  0  0  0  0  0  0  0  0  0  0
  145.1970  155.0370  135.6830 C   0  0  0  0  0  0  0  0  0  0  0  0
  143.9000  154.6050  135.3830 C   0  0  0  0  0  0  0  0  0  0  0  0
  143.8400  153.7330  134.2970 C   0  0  0  0  0  0  0  0  0  0  0  0
  142.6190  153.1170  133.7280 C   0  0  0  0  0  0  0  0  0  0  0  0
  141.4520  153.9000  133.5290 C   0  0  0  0  0  0  0  0  0  0  0  0
  140.2870  153.3350  132.9860 C   0  0  0  0  0  0  0  0  0  0  0  0
  140.3110  151.9860  132.6510 C   0  0  0  0  0  0  0  0  0  0  0  0
  139.3410  151.2020  132.0700 C   0  0  0  0  0  0  0  0  0  0  0  0
  139.9210  149.9430  131.9280 C   0  0  0  0  0  0  0  0  0  0  0  0
  139.2070  148.7690  131.3820 C   0  0  0  0  0  0  0  0  0  0  0  0
  139.9300  147.7650  130.6750 N   0  0  0  0  0  0  0  0  0  0  0  0
  137.9610  148.6530  131.5150 O   0  0  0  0  0  0  0  0  0  0  0  0
  141.1980  149.9490  132.4060 N   0  0  0  0  0  0  0  0  0  0  0  0
  142.1470  148.8680  132.3800 C   0  0  0  0  0  0  0  0  0  0  0  0
  143.5330  149.0730  131.8580 C   0  0  0  0  0  0  0  0  0  0  0  0
  141.8130  147.7320  132.8150 O   0  0  0  0  0  0  0  0  0  0  0  0
  141.4230  151.2080  132.8430 C   0  0  0  0  0  0  0  0  0  0  0  0
  142.6040  151.7480  133.3680 C   0  0  0  0  0  0  0  0  0  0  0  0
  145.4100  153.5080  133.7190 S   0  0  0  0  0  0  0  0  0  0  0  0
  148.8080  161.6622  129.9535 H   0  0  0  0  0  0  0  0  0  0  0  0
  150.4651  161.1883  129.4476 H   0  0  0  0  0  0  0  0  0  0  0  0
  149.1436  159.9716  129.4476 H   0  0  0  0  0  0  0  0  0  0  0  0
  147.8289  161.2776  132.5985 H   0  0  0  0  0  0  0  0  0  0  0  0
  145.6144  161.0841  133.7189 H   0  0  0  0  0  0  0  0  0  0  0  0
  144.6642  158.8384  134.2339 H   0  0  0  0  0  0  0  0  0  0  0  0
  145.9026  156.7774  133.5863 H   0  0  0  0  0  0  0  0  0  0  0  0
  149.1920  156.7370  131.8410 H   0  0  0  0  0  0  0  0  0  0  0  0
  146.5681  155.4370  132.6345 H   0  0  0  0  0  0  0  0  0  0  0  0
  147.7741  154.7717  131.4687 H   0  0  0  0  0  0  0  0  0  0  0  0
  148.2841  153.4788  133.3105 H   0  0  0  0  0  0  0  0  0  0  0  0
  149.3547  154.9147  133.6249 H   0  0  0  0  0  0  0  0  0  0  0  0
  148.0949  154.1185  135.6466 H   0  0  0  0  0  0  0  0  0  0  0  0
  147.7727  155.8406  135.1742 H   0  0  0  0  0  0  0  0  0  0  0  0
  145.4275  155.7299  136.5057 H   0  0  0  0  0  0  0  0  0  0  0  0
  143.0127  154.9231  135.9500 H   0  0  0  0  0  0  0  0  0  0  0  0
  141.4604  154.9650  133.8042 H   0  0  0  0  0  0  0  0  0  0  0  0
  139.3826  153.9415  132.8303 H   0  0  0  0  0  0  0  0  0  0  0  0
  138.3241  151.5046  131.7795 H   0  0  0  0  0  0  0  0  0  0  0  0
  140.7060  147.2380  131.1350 H   0  0  0  0  0  0  0  0  0  0  0  0
  144.2311  149.1762  132.7018 H   0  0  0  0  0  0  0  0  0  0  0  0
  143.8252  148.2083  131.2441 H   0  0  0  0  0  0  0  0  0  0  0  0
  143.5624  149.9853  131.2441 H   0  0  0  0  0  0  0  0  0  0  0  0
  143.4995  151.1225  133.4976 H   0  0  0  0  0  0  0  0  0  0  0  0
  1  2  1  0
  2  3  1  0
  3  4  2  0
  3  5  1  0
  5  6  2  0
  6  7  1  0
  7  8  2  0
  8  9  1  0
  9 10  2  0
 10 11  1  0
 11 12  1  0
 12 13  1  0
 13 14  1  0
 14 15  1  0
 15 16  2  0
 16 17  1  0
 17 18  2  0
 18 19  1  0
 19 20  2  0
 20 21  1  0
 21 22  2  0
 22 23  1  0
 23 24  2  0
 24 25  1  0
 25 26  1  0
 25 27  2  0
 24 28  1  0
 28 29  1  0
 29 30  1  0
 29 31  2  0
 28 32  1  0
 32 33  2  0
 18 34  1  0
 10  5  1  0
 34 15  1  0
 33 19  1  0
 32 22  1  0
  1 35  1  0
  1 36  1  0
  1 37  1  0
  6 38  1  0
  7 39  1  0
  8 40  1  0
  9 41  1  0
 11 42  1  0
 12 43  1  0
 12 44  1  0
 13 45  1  0
 13 46  1  0
 14 47  1  0
 14 48  1  0
 16 49  1  0
 17 50  1  0
 20 51  1  0
 21 52  1  0
 23 53  1  0
 26 54  1  0
 30 55  1  0
 30 56  1  0
 30 57  1  0
 33 58  1  0
M  CHG  1  26  -1
M  END
>  <UniqueID>  (23) 
23

>  <SMILES>  (23) 
COC(=O)c1ccccc1NCCCc1ccc(-c2ccc3cc(C([NH-])=O)n(C(C)=O)c3c2)s1

>  <Energy>  (23) 
127.06451040714865

>  <Genealogy>  (23) 
COC(=O)c1ccccc1NCCCc1ccc(-c2ccc3cc(C([NH-])=O)n(C(C)=O)c3c2)s1 (protonated)
COC(=O)c1ccccc1NCCCc1ccc(-c2ccc3cc(C([NH-])=O)n(C(C)=O)c3c2)s1 (3D coordinates assigned)
COC(=O)c1ccccc1NCCCc1ccc(-c2ccc3cc(C([NH-])=O)n(C(C)=O)c3c2)s1 (optimized conformer: 127.06451040714865 kcal/mol)

>  <smiles>  (23) 
COC(=O)c1ccccc1NCCCc1ccc(-c2ccc3cc(C(N)=O)n(C(C)=O)c3c2)s1

>  <score_type>  (23) 
oracle

>  <origin>  (23) 
adg

>  <m_score__min__energy>  (23) 
-10.039999999999999

>  <m_primary>  (23) 
energy

$$$$
23:0
     RDKit          3D

 46 49  0  0  0  0  0  0  0  0999 V2000
  139.9660  151.8440  132.6610 N   0  0  0  0  0  0  0  0  0  0  0  0
  141.1840  151.7390  133.3940 C   0  0  0  0  0  0  0  0  0  0  0  0
  141.3320  150.7930  134.2110 O   0  0  0  0  0  0  0  0  0  0  0  0
  142.2490  152.7490  133.2610 C   0  0  0  0  0  0  0  0  0  0  0  0
  143.5860  152.4260  133.0500 C   0  0  0  0  0  0  0  0  0  0  0  0
  144.2570  153.6250  133.0740 C   0  0  0  0  0  0  0  0  0  0  0  0
  145.6130  153.8920  132.9280 C   0  0  0  0  0  0  0  0  0  0  0  0
  146.0330  155.2300  132.9860 C   0  0  0  0  0  0  0  0  0  0  0  0
  145.0940  156.2780  133.1770 C   0  0  0  0  0  0  0  0  0  0  0  0
  145.5520  157.6890  133.2460 C   0  0  0  0  0  0  0  0  0  0  0  0
  146.9240  158.0060  133.1960 C   0  0  0  0  0  0  0  0  0  0  0  0
  147.3470  159.3370  133.2580 C   0  0  0  0  0  0  0  0  0  0  0  0
  146.4090  160.3670  133.3670 C   0  0  0  0  0  0  0  0  0  0  0  0
  145.0450  160.0660  133.4150 C   0  0  0  0  0  0  0  0  0  0  0  0
  144.6170  158.7360  133.3560 C   0  0  0  0  0  0  0  0  0  0  0  0
  143.7220  155.9650  133.3140 C   0  0  0  0  0  0  0  0  0  0  0  0
  143.3350  154.6200  133.2770 C   0  0  0  0  0  0  0  0  0  0  0  0
  142.0930  154.0960  133.3910 N   0  0  0  0  0  0  0  0  0  0  0  0
  140.8610  154.8240  133.5270 C   0  0  0  0  0  0  0  0  0  0  0  0
  139.9960  154.7770  132.6090 O   0  0  0  0  0  0  0  0  0  0  0  0
  140.6210  155.5740  134.6810 O   0  0  0  0  0  0  0  0  0  0  0  0
  140.9560  156.9550  134.8100 C   0  0  0  0  0  0  0  0  0  0  0  0
  140.3330  157.7620  133.7010 C   0  0  0  0  0  0  0  0  0  0  0  0
  141.1250  158.6080  132.9040 C   0  0  0  0  0  0  0  0  0  0  0  0
  140.5450  159.3570  131.8750 C   0  0  0  0  0  0  0  0  0  0  0  0
  139.1710  159.2660  131.6340 C   0  0  0  0  0  0  0  0  0  0  0  0
  138.3750  158.4250  132.4220 C   0  0  0  0  0  0  0  0  0  0  0  0
  138.9520  157.6730  133.4510 C   0  0  0  0  0  0  0  0  0  0  0  0
  139.2480  151.0890  132.7250 H   0  0  0  0  0  0  0  0  0  0  0  0
  139.7600  152.6910  132.0850 H   0  0  0  0  0  0  0  0  0  0  0  0
  144.0144  151.4245  132.8967 H   0  0  0  0  0  0  0  0  0  0  0  0
  146.3363  153.0782  132.7715 H   0  0  0  0  0  0  0  0  0  0  0  0
  147.1016  155.4695  132.8823 H   0  0  0  0  0  0  0  0  0  0  0  0
  147.6677  157.2003  133.1075 H   0  0  0  0  0  0  0  0  0  0  0  0
  148.4205  159.5740  133.2209 H   0  0  0  0  0  0  0  0  0  0  0  0
  146.7438  161.4137  133.4150 H   0  0  0  0  0  0  0  0  0  0  0  0
  144.3066  160.8770  133.4993 H   0  0  0  0  0  0  0  0  0  0  0  0
  143.5420  158.5061  133.3958 H   0  0  0  0  0  0  0  0  0  0  0  0
  142.9747  156.7612  133.4468 H   0  0  0  0  0  0  0  0  0  0  0  0
  140.5875  157.3267  135.7775 H   0  0  0  0  0  0  0  0  0  0  0  0
  142.0494  157.0597  134.7511 H   0  0  0  0  0  0  0  0  0  0  0  0
  142.2065  158.6810  133.0910 H   0  0  0  0  0  0  0  0  0  0  0  0
  141.1697  160.0174  131.2556 H   0  0  0  0  0  0  0  0  0  0  0  0
  138.7147  159.8553  130.8250 H   0  0  0  0  0  0  0  0  0  0  0  0
  137.2939  158.3556  132.2314 H   0  0  0  0  0  0  0  0  0  0  0  0
  138.3243  157.0110  134.0656 H   0  0  0  0  0  0  0  0  0  0  0  0
  1  2  1  0
  2  3  2  0
  2  4  1  0
  4  5  2  0
  5  6  1  0
  6  7  2  0
  7  8  1  0
  8  9  2  0
  9 10  1  0
 10 11  2  0
 11 12  1  0
 12 13  2  0
 13 14  1  0
 14 15  2  0
  9 16  1  0
 16 17  2  0
 17 18  1  0
 18 19  1  0
 19 20  2  0
 19 21  1  0
 21 22  1  0
 22 23  1  0
 23 24  2  0
 24 25  1  0
 25 26  2  0
 26 27  1  0
 27 28  2  0
 18  4  1  0
 28 23  1  0
 17  6  1  0
 15 10  1  0
  1 29  1  0
  1 30  1  0
  5 31  1  0
  7 32  1  0
  8 33  1  0
 11 34  1  0
 12 35  1  0
 13 36  1  0
 14 37  1  0
 15 38  1  0
 16 39  1  0
 22 40  1  0
 22 41  1  0
 24 42  1  0
 25 43  1  0
 26 44  1  0
 27 45  1  0
 28 46  1  0
M  END
>  <UniqueID>  (24) 
24

>  <SMILES>  (24) 
NC(=O)c1cc2ccc(-c3ccccc3)cc2n1C(=O)OCc1ccccc1

>  <Energy>  (24) 
93.17632339216672

>  <Genealogy>  (24) 
NC(=O)c1cc2ccc(-c3ccccc3)cc2n1C(=O)OCc1ccccc1 (3D coordinates assigned)
NC(=O)c1cc2ccc(-c3ccccc3)cc2n1C(=O)OCc1ccccc1 (optimized conformer: 93.17632339216672 kcal/mol)

>  <smiles>  (24) 
NC(=O)c1cc2ccc(-c3ccccc3)cc2n1C(=O)OCc1ccccc1

>  <score_type>  (24) 
oracle

>  <origin>  (24) 
adg

>  <m_score__min__energy>  (24) 
-9.8300000000000001

>  <m_primary>  (24) 
energy

$$$$
24:0
     RDKit          3D

 25 26  0  0  0  0  0  0  0  0999 V2000
  149.2800  161.9820  130.3560 C   0  0  0  0  0  0  0  0  0  0  0  0
  149.0720  160.6830  131.0760 C   0  0  0  0  0  0  0  0  0  0  0  0
  150.1200  159.7330  131.1420 C   0  0  0  0  0  0  0  0  0  0  0  0
  149.9550  158.5340  131.8550 C   0  0  0  0  0  0  0  0  0  0  0  0
  148.7370  158.3160  132.4920 C   0  0  0  0  0  0  0  0  0  0  0  0
  148.3280  157.2640  133.2780 C   0  0  0  0  0  0  0  0  0  0  0  0
  147.0300  157.5810  133.6690 C   0  0  0  0  0  0  0  0  0  0  0  0
  146.1860  156.6810  134.4800 C   0  0  0  0  0  0  0  0  0  0  0  0
  144.7610  156.7250  134.3920 N   0  0  0  0  0  0  0  0  0  0  0  0
  146.7330  155.8210  135.2210 O   0  0  0  0  0  0  0  0  0  0  0  0
  146.6520  158.7870  133.1600 N   0  0  0  0  0  0  0  0  0  0  0  0
  145.4380  159.5070  133.4380 C   0  0  0  0  0  0  0  0  0  0  0  0
  145.4680  160.5750  134.1030 O   0  0  0  0  0  0  0  0  0  0  0  0
  144.2180  159.0270  132.9800 O   0  0  0  0  0  0  0  0  0  0  0  0
  147.7090  159.2240  132.4370 C   0  0  0  0  0  0  0  0  0  0  0  0
  147.8550  160.4360  131.7500 C   0  0  0  0  0  0  0  0  0  0  0  0
  149.4096  162.7912  131.0897 H   0  0  0  0  0  0  0  0  0  0  0  0
  150.1783  161.9118  129.7251 H   0  0  0  0  0  0  0  0  0  0  0  0
  148.4046  162.1958  129.7251 H   0  0  0  0  0  0  0  0  0  0  0  0
  151.0723  159.9359  130.6301 H   0  0  0  0  0  0  0  0  0  0  0  0
  150.7637  157.7902  131.9082 H   0  0  0  0  0  0  0  0  0  0  0  0
  148.9036  156.3644  133.5414 H   0  0  0  0  0  0  0  0  0  0  0  0
  144.1790  156.1060  134.9980 H   0  0  0  0  0  0  0  0  0  0  0  0
  144.2830  157.3080  133.6700 H   0  0  0  0  0  0  0  0  0  0  0  0
  147.0423  161.1771  131.7356 H   0  0  0  0  0  0  0  0  0  0  0  0
  1  2  1  0
  2  3  2  0
  3  4  1  0
  4  5  2  0
  5  6  1  0
  6  7  2  0
  7  8  1  0
  8  9  1  0
  8 10  2  0
  7 11  1  0
 11 12  1  0
 12 13  2  0
 12 14  1  0
 11 15  1  0
 15 16  2  0
 16  2  1  0
 15  5  1  0
  1 17  1  0
  1 18  1  0
  1 19  1  0
  3 20  1  0
  4 21  1  0
  6 22  1  0
  9 23  1  0
  9 24  1  0
 16 25  1  0
M  CHG  1  14  -1
M  END
>  <UniqueID>  (25) 
25

>  <SMILES>  (25) 
Cc1ccc2cc(C(N)=O)n(C(=O)[O-])c2c1

>  <Energy>  (25) 
64.83387183768608

>  <Genealogy>  (25) 
Cc1ccc2cc(C(N)=O)n(C(=O)[O-])c2c1 (protonated)
Cc1ccc2cc(C(N)=O)n(C(=O)[O-])c2c1 (3D coordinates assigned)
Cc1ccc2cc(C(N)=O)n(C(=O)[O-])c2c1 (optimized conformer: 64.83387183768608 kcal/mol)

>  <smiles>  (25) 
Cc1ccc2cc(C(N)=O)n(C(=O)O)c2c1

>  <score_type>  (25) 
oracle

>  <origin>  (25) 
adg

>  <m_score__min__energy>  (25) 
-5.9000000000000004

>  <m_primary>  (25) 
energy

$$$$
25:0
     RDKit          3D

 44 46  0  0  0  0  0  0  0  0999 V2000
  140.8070  155.1350  133.3620 C   0  0  0  0  0  0  0  0  0  0  0  0
  140.7940  156.6700  133.4120 C   0  0  0  0  0  0  0  0  0  0  0  0
  140.8030  157.1200  134.8850 C   0  0  0  0  0  0  0  0  0  0  0  0
  139.5310  157.1830  132.6950 C   0  0  0  0  0  0  0  0  0  0  0  0
  141.9760  157.1240  132.7360 O   0  0  0  0  0  0  0  0  0  0  0  0
  143.2790  157.1380  133.2550 C   0  0  0  0  0  0  0  0  0  0  0  0
  143.8090  156.0850  133.7030 O   0  0  0  0  0  0  0  0  0  0  0  0
  144.0070  158.3750  133.3020 N   0  0  0  0  0  0  0  0  0  0  0  0
  143.5170  159.6180  133.5690 C   0  0  0  0  0  0  0  0  0  0  0  0
  142.0900  159.9810  133.6890 C   0  0  0  0  0  0  0  0  0  0  0  0
  141.1970  159.8130  132.5920 N   0  0  0  0  0  0  0  0  0  0  0  0
  141.6650  160.4910  134.7590 O   0  0  0  0  0  0  0  0  0  0  0  0
  144.5550  160.5460  133.6440 C   0  0  0  0  0  0  0  0  0  0  0  0
  145.7040  159.8290  133.4050 C   0  0  0  0  0  0  0  0  0  0  0  0
  147.0310  160.2460  133.3850 C   0  0  0  0  0  0  0  0  0  0  0  0
  148.0220  159.2780  133.1550 C   0  0  0  0  0  0  0  0  0  0  0  0
  147.6750  157.9180  132.9510 C   0  0  0  0  0  0  0  0  0  0  0  0
  148.7030  156.9260  132.7680 N   0  0  0  0  0  0  0  0  0  0  0  0
  148.2630  155.6750  133.3230 C   0  0  0  0  0  0  0  0  0  0  0  0
  148.3300  154.4590  132.6240 C   0  0  0  0  0  0  0  0  0  0  0  0
  147.8990  153.3700  133.3690 C   0  0  0  0  0  0  0  0  0  0  0  0
  147.4520  153.9240  134.8910 S   0  0  0  0  0  0  0  0  0  0  0  0
  147.7930  155.5470  134.6280 C   0  0  0  0  0  0  0  0  0  0  0  0
  146.3150  157.5320  132.9890 C   0  0  0  0  0  0  0  0  0  0  0  0
  145.3470  158.5200  133.2020 C   0  0  0  0  0  0  0  0  0  0  0  0
  140.8104  154.7348  134.3866 H   0  0  0  0  0  0  0  0  0  0  0  0
  139.9119  154.7778  132.8318 H   0  0  0  0  0  0  0  0  0  0  0  0
  141.7081  154.7930  132.8318 H   0  0  0  0  0  0  0  0  0  0  0  0
  140.7853  156.2355  135.5387 H   0  0  0  0  0  0  0  0  0  0  0  0
  141.7130  157.7050  135.0841 H   0  0  0  0  0  0  0  0  0  0  0  0
  139.9171  157.7409  135.0841 H   0  0  0  0  0  0  0  0  0  0  0  0
  138.7831  157.4868  133.4422 H   0  0  0  0  0  0  0  0  0  0  0  0
  139.7920  158.0464  132.0654 H   0  0  0  0  0  0  0  0  0  0  0  0
  139.1160  156.3822  132.0654 H   0  0  0  0  0  0  0  0  0  0  0  0
  141.3680  159.0840  131.8660 H   0  0  0  0  0  0  0  0  0  0  0  0
  144.4724  161.6233  133.8505 H   0  0  0  0  0  0  0  0  0  0  0  0
  147.2959  161.3017  133.5445 H   0  0  0  0  0  0  0  0  0  0  0  0
  149.0800  159.5781  133.1328 H   0  0  0  0  0  0  0  0  0  0  0  0
  149.5880  157.2290  133.2360 H   0  0  0  0  0  0  0  0  0  0  0  0
  148.9120  156.8080  131.7490 H   0  0  0  0  0  0  0  0  0  0  0  0
  148.6889  154.3774  131.5874 H   0  0  0  0  0  0  0  0  0  0  0  0
  147.8574  152.3265  133.0234 H   0  0  0  0  0  0  0  0  0  0  0  0
  147.6677  156.3625  135.3555 H   0  0  0  0  0  0  0  0  0  0  0  0
  146.0248  156.4796  132.8543 H   0  0  0  0  0  0  0  0  0  0  0  0
  1  2  1  0
  2  3  1  0
  2  4  1  0
  2  5  1  0
  5  6  1  0
  6  7  2  0
  6  8  1  0
  8  9  1  0
  9 10  1  0
 10 11  1  0
 10 12  2  0
  9 13  2  0
 13 14  1  0
 14 15  2  0
 15 16  1  0
 16 17  2  0
 17 18  1  0
 18 19  1  0
 19 20  1  0
 20 21  2  0
 21 22  1  0
 22 23  1  0
 17 24  1  0
 24 25  2  0
 25  8  1  0
 25 14  1  0
 23 19  2  0
  1 26  1  0
  1 27  1  0
  1 28  1  0
  3 29  1  0
  3 30  1  0
  3 31  1  0
  4 32  1  0
  4 33  1  0
  4 34  1  0
 11 35  1  0
 13 36  1  0
 15 37  1  0
 16 38  1  0
 18 39  1  0
 18 40  1  0
 20 41  1  0
 21 42  1  0
 23 43  1  0
 24 44  1  0
M  CHG  2  11  -1  18   1
M  END
>  <UniqueID>  (26) 
26

>  <SMILES>  (26) 
CC(C)(C)OC(=O)n1c(C([NH-])=O)cc2ccc([NH2+]c3ccsc3)cc21

>  <Energy>  (26) 
106.82424731055816

>  <Genealogy>  (26) 
CC(C)(C)OC(=O)n1c(C([NH-])=O)cc2ccc([NH2+]c3ccsc3)cc21 (protonated)
CC(C)(C)OC(=O)n1c(C([NH-])=O)cc2ccc([NH2+]c3ccsc3)cc21 (3D coordinates assigned)
CC(C)(C)OC(=O)n1c(C([NH-])=O)cc2ccc([NH2+]c3ccsc3)cc21 (optimized conformer: 106.82424731055816 kcal/mol)

>  <smiles>  (26) 
CC(C)(C)OC(=O)n1c(C(N)=O)cc2ccc(Nc3ccsc3)cc21

>  <score_type>  (26) 
oracle

>  <origin>  (26) 
adg

>  <m_score__min__energy>  (26) 
-7.46

>  <m_primary>  (26) 
energy

$$$$
26:0
     RDKit          3D

 57 59  0  0  0  0  0  0  0  0999 V2000
  147.9730  160.0760  132.0210 C   0  0  0  0  0  0  0  0  0  0  0  0
  147.1790  160.1220  133.3220 C   0  0  0  0  0  0  0  0  0  0  0  0
  145.8800  159.5640  133.1370 O   0  0  0  0  0  0  0  0  0  0  0  0
  144.7070  160.1530  133.6300 C   0  0  0  0  0  0  0  0  0  0  0  0
  144.6230  161.4080  133.7260 O   0  0  0  0  0  0  0  0  0  0  0  0
  143.6040  159.3170  134.0240 N   0  0  0  0  0  0  0  0  0  0  0  0
  143.6740  157.8750  133.7450 C   0  0  0  0  0  0  0  0  0  0  0  0
  142.3600  157.1740  134.0940 C   0  0  0  0  0  0  0  0  0  0  0  0
  141.9150  157.6070  135.4250 N   0  0  0  0  0  0  0  0  0  0  0  0
  141.6680  156.6420  136.4640 C   0  0  0  0  0  0  0  0  0  0  0  0
  141.4590  157.0660  137.8020 C   0  0  0  0  0  0  0  0  0  0  0  0
  141.2320  156.1290  138.8240 C   0  0  0  0  0  0  0  0  0  0  0  0
  141.2160  154.7800  138.4830 C   0  0  0  0  0  0  0  0  0  0  0  0
  141.0410  153.6660  139.2720 C   0  0  0  0  0  0  0  0  0  0  0  0
  141.1280  152.5800  138.4040 C   0  0  0  0  0  0  0  0  0  0  0  0
  140.9030  151.1810  138.8280 C   0  0  0  0  0  0  0  0  0  0  0  0
  139.8730  150.3920  138.2390 N   0  0  0  0  0  0  0  0  0  0  0  0
  141.5990  150.6930  139.7570 O   0  0  0  0  0  0  0  0  0  0  0  0
  141.3590  153.0040  137.1290 N   0  0  0  0  0  0  0  0  0  0  0  0
  141.5850  152.2100  135.9550 C   0  0  0  0  0  0  0  0  0  0  0  0
  140.9970  151.1040  135.8240 O   0  0  0  0  0  0  0  0  0  0  0  0
  142.4910  152.6650  134.9840 O   0  0  0  0  0  0  0  0  0  0  0  0
  142.2600  152.7400  133.5710 C   0  0  0  0  0  0  0  0  0  0  0  0
  143.4880  153.4220  132.9490 C   0  0  0  0  0  0  0  0  0  0  0  0
  141.0100  153.5860  133.2680 C   0  0  0  0  0  0  0  0  0  0  0  0
  142.1220  151.3270  132.9720 C   0  0  0  0  0  0  0  0  0  0  0  0
  141.4060  154.3530  137.1940 C   0  0  0  0  0  0  0  0  0  0  0  0
  141.6570  155.2630  136.1610 C   0  0  0  0  0  0  0  0  0  0  0  0
  141.8380  159.0420  135.7340 C   0  0  0  0  0  0  0  0  0  0  0  0
  142.3740  159.9040  134.5810 C   0  0  0  0  0  0  0  0  0  0  0  0
  149.0473  160.0138  132.2491 H   0  0  0  0  0  0  0  0  0  0  0  0
  147.6703  159.1939  131.4377 H   0  0  0  0  0  0  0  0  0  0  0  0
  147.7742  160.9872  131.4377 H   0  0  0  0  0  0  0  0  0  0  0  0
  147.7134  159.5465  134.0922 H   0  0  0  0  0  0  0  0  0  0  0  0
  147.0730  161.1709  133.6360 H   0  0  0  0  0  0  0  0  0  0  0  0
  143.8853  157.7273  132.6756 H   0  0  0  0  0  0  0  0  0  0  0  0
  144.4727  157.4411  134.3645 H   0  0  0  0  0  0  0  0  0  0  0  0
  141.5950  157.4356  133.3481 H   0  0  0  0  0  0  0  0  0  0  0  0
  142.5132  156.0847  134.0940 H   0  0  0  0  0  0  0  0  0  0  0  0
  141.4749  158.1395  138.0415 H   0  0  0  0  0  0  0  0  0  0  0  0
  141.0716  156.4523  139.8631 H   0  0  0  0  0  0  0  0  0  0  0  0
  140.8689  153.6389  140.3581 H   0  0  0  0  0  0  0  0  0  0  0  0
  140.0250  149.8990  137.3320 H   0  0  0  0  0  0  0  0  0  0  0  0
  144.1482  153.7886  133.7488 H   0  0  0  0  0  0  0  0  0  0  0  0
  144.0336  152.6977  132.3264 H   0  0  0  0  0  0  0  0  0  0  0  0
  143.1615  154.2680  132.3264 H   0  0  0  0  0  0  0  0  0  0  0  0
  140.5432  153.9019  134.2126 H   0  0  0  0  0  0  0  0  0  0  0  0
  141.3002  154.4741  132.6874 H   0  0  0  0  0  0  0  0  0  0  0  0
  140.2934  152.9865  132.6874 H   0  0  0  0  0  0  0  0  0  0  0  0
  142.0500  150.5895  133.7850 H   0  0  0  0  0  0  0  0  0  0  0  0
  141.2149  151.2787  132.3517 H   0  0  0  0  0  0  0  0  0  0  0  0
  143.0026  151.1041  132.3517 H   0  0  0  0  0  0  0  0  0  0  0  0
  141.8417  154.9116  135.1351 H   0  0  0  0  0  0  0  0  0  0  0  0
  140.7876  159.3101  135.9204 H   0  0  0  0  0  0  0  0  0  0  0  0
  142.4589  159.2342  136.6215 H   0  0  0  0  0  0  0  0  0  0  0  0
  141.6119  159.9644  133.7901 H   0  0  0  0  0  0  0  0  0  0  0  0
  142.6031  160.9087  134.9659 H   0  0  0  0  0  0  0  0  0  0  0  0
  1  2  1  0
  2  3  1  0
  3  4  1  0
  4  5  2  0
  4  6  1  0
  6  7  1  0
  7  8  1  0
  8  9  1  0
  9 10  1  0
 10 11  2  0
 11 12  1  0
 12 13  2  0
 13 14  1  0
 14 15  2  0
 15 16  1  0
 16 17  1  0
 16 18  2  0
 15 19  1  0
 19 20  1  0
 20 21  2  0
 20 22  1  0
 22 23  1  0
 23 24  1  0
 23 25  1  0
 23 26  1  0
 19 27  1  0
 27 28  2  0
  9 29  1  0
 29 30  1  0
 30  6  1  0
 28 10  1  0
 27 13  1  0
  1 31  1  0
  1 32  1  0
  1 33  1  0
  2 34  1  0
  2 35  1  0
  7 36  1  0
  7 37  1  0
  8 38  1  0
  8 39  1  0
 11 40  1  0
 12 41  1  0
 14 42  1  0
 17 43  1  0
 24 44  1  0
 24 45  1  0
 24 46  1  0
 25 47  1  0
 25 48  1  0
 25 49  1  0
 26 50  1  0
 26 51  1  0
 26 52  1  0
 28 53  1  0
 29 54  1  0
 29 55  1  0
 30 56  1  0
 30 57  1  0
M  CHG  1  17  -1
M  END
>  <UniqueID>  (27) 
27

>  <SMILES>  (27) 
CCOC(=O)N1CCN(c2ccc3cc(C([NH-])=O)n(C(=O)OC(C)(C)C)c3c2)CC1

>  <Energy>  (27) 
90.8654515576306

>  <Genealogy>  (27) 
CCOC(=O)N1CCN(c2ccc3cc(C([NH-])=O)n(C(=O)OC(C)(C)C)c3c2)CC1 (protonated)
CCOC(=O)N1CCN(c2ccc3cc(C([NH-])=O)n(C(=O)OC(C)(C)C)c3c2)CC1 (3D coordinates assigned)
CCOC(=O)N1CCN(c2ccc3cc(C([NH-])=O)n(C(=O)OC(C)(C)C)c3c2)CC1 (nonaromatic ring conformer: 90.8654515576306 kcal/mol)

>  <smiles>  (27) 
CCOC(=O)N1CCN(c2ccc3cc(C(N)=O)n(C(=O)OC(C)(C)C)c3c2)CC1

>  <score_type>  (27) 
oracle

>  <origin>  (27) 
adg

>  <m_score__min__energy>  (27) 
-8.0700000000000003

>  <m_primary>  (27) 
energy

$$$$
27:0
     RDKit          3D

 28 29  0  0  0  0  0  0  0  0999 V2000
  141.0560  159.9180  132.9570 N   0  0  0  0  0  0  0  0  0  0  0  0
  141.9510  159.9880  134.0640 C   0  0  0  0  0  0  0  0  0  0  0  0
  141.4880  160.1650  135.2220 O   0  0  0  0  0  0  0  0  0  0  0  0
  143.4140  159.9070  133.8650 C   0  0  0  0  0  0  0  0  0  0  0  0
  144.2820  160.9690  134.1100 C   0  0  0  0  0  0  0  0  0  0  0  0
  145.5230  160.5270  133.7130 C   0  0  0  0  0  0  0  0  0  0  0  0
  146.7550  161.1740  133.7310 C   0  0  0  0  0  0  0  0  0  0  0  0
  147.8780  160.4640  133.2740 C   0  0  0  0  0  0  0  0  0  0  0  0
  147.7530  159.1260  132.8230 C   0  0  0  0  0  0  0  0  0  0  0  0
  148.9580  158.3870  132.3130 C   0  0  0  0  0  0  0  0  0  0  0  0
  149.5110  159.0740  131.1070 C   0  0  0  0  0  0  0  0  0  0  0  0
  150.7220  159.4170  131.0740 O   0  0  0  0  0  0  0  0  0  0  0  0
  148.6780  159.3830  130.0400 O   0  0  0  0  0  0  0  0  0  0  0  0
  146.4830  158.5060  132.8080 C   0  0  0  0  0  0  0  0  0  0  0  0
  145.3810  159.2420  133.2550 C   0  0  0  0  0  0  0  0  0  0  0  0
  144.0930  158.8450  133.3480 N   0  0  0  0  0  0  0  0  0  0  0  0
  143.5860  157.5390  133.0350 C   0  0  0  0  0  0  0  0  0  0  0  0
  142.4130  157.3910  132.2360 N   0  0  0  0  0  0  0  0  0  0  0  0
  144.1580  156.5150  133.4960 O   0  0  0  0  0  0  0  0  0  0  0  0
  141.4100  159.7400  131.9920 H   0  0  0  0  0  0  0  0  0  0  0  0
  144.0287  161.9529  134.5317 H   0  0  0  0  0  0  0  0  0  0  0  0
  146.8467  162.2091  134.0918 H   0  0  0  0  0  0  0  0  0  0  0  0
  148.8641  160.9514  133.2661 H   0  0  0  0  0  0  0  0  0  0  0  0
  149.7266  158.3582  133.0994 H   0  0  0  0  0  0  0  0  0  0  0  0
  148.6626  157.3633  132.0396 H   0  0  0  0  0  0  0  0  0  0  0  0
  146.3644  157.4713  132.4539 H   0  0  0  0  0  0  0  0  0  0  0  0
  142.0510  156.4410  132.0000 H   0  0  0  0  0  0  0  0  0  0  0  0
  141.8840  158.2310  131.9110 H   0  0  0  0  0  0  0  0  0  0  0  0
  1  2  1  0
  2  3  2  0
  2  4  1  0
  4  5  2  0
  5  6  1  0
  6  7  2  0
  7  8  1  0
  8  9  2  0
  9 10  1  0
 10 11  1  0
 11 12  2  0
 11 13  1  0
  9 14  1  0
 14 15  2  0
 15 16  1  0
 16 17  1  0
 17 18  1  0
 17 19  2  0
 16  4  1  0
 15  6  1  0
  1 20  1  0
  5 21  1  0
  7 22  1  0
  8 23  1  0
 10 24  1  0
 10 25  1  0
 14 26  1  0
 18 27  1  0
 18 28  1  0
M  CHG  2   1  -1  13  -1
M  END
>  <UniqueID>  (28) 
28

>  <SMILES>  (28) 
[NH-]C(=O)c1cc2ccc(CC(=O)[O-])cc2n1C(N)=O

>  <Energy>  (28) 
65.40258309092013

>  <Genealogy>  (28) 
[NH-]C(=O)c1cc2ccc(CC(=O)[O-])cc2n1C(N)=O (protonated)
[NH-]C(=O)c1cc2ccc(CC(=O)[O-])cc2n1C(N)=O (3D coordinates assigned)
[NH-]C(=O)c1cc2ccc(CC(=O)[O-])cc2n1C(N)=O (optimized conformer: 65.40258309092013 kcal/mol)

>  <smiles>  (28) 
NC(=O)c1cc2ccc(CC(=O)O)cc2n1C(N)=O

>  <score_type>  (28) 
oracle

>  <origin>  (28) 
adg

>  <m_score__min__energy>  (28) 
-6.3399999999999999

>  <m_primary>  (28) 
energy

$$$$
28:0
     RDKit          3D

 34 35  0  0  0  0  0  0  0  0999 V2000
  141.3630  156.3690  137.3720 C   0  0  0  0  0  0  0  0  0  0  0  0
  140.3580  157.3720  137.4570 O   0  0  0  0  0  0  0  0  0  0  0  0
  140.2490  158.4090  136.5240 C   0  0  0  0  0  0  0  0  0  0  0  0
  140.6430  159.5730  136.8060 O   0  0  0  0  0  0  0  0  0  0  0  0
  139.6040  158.1410  135.2000 C   0  0  0  0  0  0  0  0  0  0  0  0
  140.2140  159.0060  134.0910 C   0  0  0  0  0  0  0  0  0  0  0  0
  141.6700  158.6820  133.8680 C   0  0  0  0  0  0  0  0  0  0  0  0
  142.0800  157.3360  133.6890 C   0  0  0  0  0  0  0  0  0  0  0  0
  143.4400  157.0180  133.5360 C   0  0  0  0  0  0  0  0  0  0  0  0
  144.3620  158.0600  133.5640 C   0  0  0  0  0  0  0  0  0  0  0  0
  145.7340  158.0310  133.4690 C   0  0  0  0  0  0  0  0  0  0  0  0
  146.1410  159.3590  133.5770 C   0  0  0  0  0  0  0  0  0  0  0  0
  147.5450  159.7940  133.4350 C   0  0  0  0  0  0  0  0  0  0  0  0
  147.8670  160.8750  132.5620 N   0  0  0  0  0  0  0  0  0  0  0  0
  148.4610  159.2460  134.1020 O   0  0  0  0  0  0  0  0  0  0  0  0
  145.0620  160.1770  133.7400 N   0  0  0  0  0  0  0  0  0  0  0  0
  145.0580  161.5970  133.9630 C   0  0  0  0  0  0  0  0  0  0  0  0
  146.2150  162.2470  134.4830 N   0  0  0  0  0  0  0  0  0  0  0  0
  144.0180  162.2700  133.7280 O   0  0  0  0  0  0  0  0  0  0  0  0
  143.9800  159.3660  133.7260 C   0  0  0  0  0  0  0  0  0  0  0  0
  142.6350  159.7120  133.8980 C   0  0  0  0  0  0  0  0  0  0  0  0
  141.6659  156.0667  138.3853 H   0  0  0  0  0  0  0  0  0  0  0  0
  140.9657  155.4966  136.8325 H   0  0  0  0  0  0  0  0  0  0  0  0
  142.2346  156.7681  136.8325 H   0  0  0  0  0  0  0  0  0  0  0  0
  139.7431  157.0805  134.9431 H   0  0  0  0  0  0  0  0  0  0  0  0
  138.5352  158.3881  135.2811 H   0  0  0  0  0  0  0  0  0  0  0  0
  139.6621  158.8285  133.1562 H   0  0  0  0  0  0  0  0  0  0  0  0
  140.1404  160.0596  134.3983 H   0  0  0  0  0  0  0  0  0  0  0  0
  141.3269  156.5344  133.6698 H   0  0  0  0  0  0  0  0  0  0  0  0
  143.7662  155.9766  133.3982 H   0  0  0  0  0  0  0  0  0  0  0  0
  146.3742  157.1465  133.3359 H   0  0  0  0  0  0  0  0  0  0  0  0
  147.4830  161.8320  132.7300 H   0  0  0  0  0  0  0  0  0  0  0  0
  147.1640  161.8320  134.3580 H   0  0  0  0  0  0  0  0  0  0  0  0
  142.3373  160.7596  134.0526 H   0  0  0  0  0  0  0  0  0  0  0  0
  1  2  1  0
  2  3  1  0
  3  4  2  0
  3  5  1  0
  5  6  1  0
  6  7  1  0
  7  8  2  0
  8  9  1  0
  9 10  2  0
 10 11  1  0
 11 12  2  0
 12 13  1  0
 13 14  1  0
 13 15  2  0
 12 16  1  0
 16 17  1  0
 17 18  1  0
 17 19  2  0
 16 20  1  0
 20 21  2  0
 21  7  1  0
 20 10  1  0
  1 22  1  0
  1 23  1  0
  1 24  1  0
  5 25  1  0
  5 26  1  0
  6 27  1  0
  6 28  1  0
  8 29  1  0
  9 30  1  0
 11 31  1  0
 14 32  1  0
 18 33  1  0
 21 34  1  0
M  CHG  2  14  -1  18  -1
M  END
>  <UniqueID>  (29) 
29

>  <SMILES>  (29) 
COC(=O)CCc1ccc2cc(C([NH-])=O)n(C([NH-])=O)c2c1

>  <Energy>  (29) 
66.64329035820941

>  <Genealogy>  (29) 
COC(=O)CCc1ccc2cc(C([NH-])=O)n(C([NH-])=O)c2c1 (protonated)
COC(=O)CCc1ccc2cc(C([NH-])=O)n(C([NH-])=O)c2c1 (3D coordinates assigned)
COC(=O)CCc1ccc2cc(C([NH-])=O)n(C([NH-])=O)c2c1 (optimized conformer: 66.64329035820941 kcal/mol)

>  <smiles>  (29) 
COC(=O)CCc1ccc2cc(C(N)=O)n(C(N)=O)c2c1

>  <score_type>  (29) 
oracle

>  <origin>  (29) 
adg

>  <m_score__min__energy>  (29) 
-6.2300000000000004

>  <m_primary>  (29) 
energy

$$$$
29:0
     RDKit          3D

 85 89  0  0  0  0  0  0  0  0999 V2000
  140.7460  152.7120  132.9960 C   0  0  0  0  0  0  0  0  0  0  0  0
  141.9090  153.3580  133.7640 C   0  0  0  0  0  0  0  0  0  0  0  0
  143.0000  153.7700  132.7580 C   0  0  0  0  0  0  0  0  0  0  0  0
  142.4590  152.3420  134.7820 C   0  0  0  0  0  0  0  0  0  0  0  0
  141.3810  154.5080  134.4430 O   0  0  0  0  0  0  0  0  0  0  0  0
  142.1290  155.5550  135.0040 C   0  0  0  0  0  0  0  0  0  0  0  0
  142.9930  156.1670  134.3190 O   0  0  0  0  0  0  0  0  0  0  0  0
  141.8700  155.9620  136.3570 N   0  0  0  0  0  0  0  0  0  0  0  0
  141.5510  157.2080  136.8080 C   0  0  0  0  0  0  0  0  0  0  0  0
  141.5910  158.4590  136.0210 C   0  0  0  0  0  0  0  0  0  0  0  0
  142.7940  158.8880  135.3840 N   0  0  0  0  0  0  0  0  0  0  0  0
  140.5720  159.1950  135.9700 O   0  0  0  0  0  0  0  0  0  0  0  0
  141.2820  157.1730  138.1770 C   0  0  0  0  0  0  0  0  0  0  0  0
  141.4630  155.8620  138.5520 C   0  0  0  0  0  0  0  0  0  0  0  0
  141.3340  155.2660  139.8020 C   0  0  0  0  0  0  0  0  0  0  0  0
  141.5800  153.8870  139.9020 C   0  0  0  0  0  0  0  0  0  0  0  0
  141.9510  153.1370  138.7630 C   0  0  0  0  0  0  0  0  0  0  0  0
  142.2090  151.6600  138.8910 C   0  0  0  0  0  0  0  0  0  0  0  0
  142.6870  151.2920  140.2980 C   0  0  0  0  0  0  0  0  0  0  0  0
  144.0500  151.7720  140.5170 N   0  0  0  0  0  0  0  0  0  0  0  0
  145.1260  150.8780  140.8140 C   0  0  0  0  0  0  0  0  0  0  0  0
  144.9390  149.6330  140.7920 O   0  0  0  0  0  0  0  0  0  0  0  0
  146.4630  151.4210  141.2310 C   0  0  0  0  0  0  0  0  0  0  0  0
  147.5070  151.1470  140.2130 N   0  0  0  0  0  0  0  0  0  0  0  0
  148.4430  152.2840  140.0630 C   0  0  0  0  0  0  0  0  0  0  0  0
  147.7970  153.4950  139.3650 C   0  0  0  0  0  0  0  0  0  0  0  0
  147.0950  153.0850  138.1420 N   0  0  0  0  0  0  0  0  0  0  0  0
  146.9330  154.0060  137.0430 C   0  0  0  0  0  0  0  0  0  0  0  0
  148.0290  154.7720  136.6170 C   0  0  0  0  0  0  0  0  0  0  0  0
  147.9190  155.6240  135.5160 C   0  0  0  0  0  0  0  0  0  0  0  0
  146.7060  155.7240  134.8120 C   0  0  0  0  0  0  0  0  0  0  0  0
  146.5660  156.5500  133.6360 N   0  0  0  0  0  0  0  0  0  0  0  0
  147.2220  157.8570  133.4670 C   0  0  1  0  0  0  0  0  0  0  0  0
  148.3460  157.7460  132.4120 C   0  0  0  0  0  0  0  0  0  0  0  0
  148.9810  159.1100  132.1210 C   0  0  0  0  0  0  0  0  0  0  0  0
  147.9340  160.0870  131.6730 C   0  0  0  0  0  0  0  0  0  0  0  0
  148.2570  161.0650  130.9500 O   0  0  0  0  0  0  0  0  0  0  0  0
  146.5940  159.9710  132.1660 N   0  0  0  0  0  0  0  0  0  0  0  0
  146.2170  158.9140  133.0590 C   0  0  0  0  0  0  0  0  0  0  0  0
  145.0590  158.9070  133.5570 O   0  0  0  0  0  0  0  0  0  0  0  0
  145.6020  154.9810  135.2590 C   0  0  0  0  0  0  0  0  0  0  0  0
  145.7080  154.1310  136.3620 C   0  0  0  0  0  0  0  0  0  0  0  0
  144.6290  153.3960  136.7310 F   0  0  0  0  0  0  0  0  0  0  0  0
  146.2460  151.8880  138.1840 C   0  0  0  0  0  0  0  0  0  0  0  0
  146.9770  150.7430  138.8930 C   0  0  0  0  0  0  0  0  0  0  0  0
  142.0490  153.7710  137.5020 C   0  0  0  0  0  0  0  0  0  0  0  0
  141.8170  155.1500  137.4350 C   0  0  0  0  0  0  0  0  0  0  0  0
  140.0151  152.3060  133.7109 H   0  0  0  0  0  0  0  0  0  0  0  0
  140.2589  153.4688  132.3636 H   0  0  0  0  0  0  0  0  0  0  0  0
  141.1312  151.8985  132.3636 H   0  0  0  0  0  0  0  0  0  0  0  0
  143.8935  154.1074  133.3038 H   0  0  0  0  0  0  0  0  0  0  0  0
  143.2602  152.9082  132.1259 H   0  0  0  0  0  0  0  0  0  0  0  0
  142.6256  154.5887  132.1259 H   0  0  0  0  0  0  0  0  0  0  0  0
  142.2636  152.7030  135.8025 H   0  0  0  0  0  0  0  0  0  0  0  0
  141.9633  151.3710  134.6353 H   0  0  0  0  0  0  0  0  0  0  0  0
  143.5430  152.2262  134.6353 H   0  0  0  0  0  0  0  0  0  0  0  0
  143.2960  158.2740  134.7060 H   0  0  0  0  0  0  0  0  0  0  0  0
  140.9876  158.0155  138.8200 H   0  0  0  0  0  0  0  0  0  0  0  0
  141.0481  155.8565  140.6850 H   0  0  0  0  0  0  0  0  0  0  0  0
  141.4830  153.3857  140.8763 H   0  0  0  0  0  0  0  0  0  0  0  0
  141.2780  151.1149  138.6762 H   0  0  0  0  0  0  0  0  0  0  0  0
  142.9986  151.3851  138.1762 H   0  0  0  0  0  0  0  0  0  0  0  0
  142.0175  151.7521  141.0397 H   0  0  0  0  0  0  0  0  0  0  0  0
  142.6740  150.1971  140.4033 H   0  0  0  0  0  0  0  0  0  0  0  0
  146.3783  152.5087  141.3712 H   0  0  0  0  0  0  0  0  0  0  0  0
  146.7581  150.9252  142.1676 H   0  0  0  0  0  0  0  0  0  0  0  0
  148.7839  152.5937  141.0619 H   0  0  0  0  0  0  0  0  0  0  0  0
  149.2804  151.9454  139.4352 H   0  0  0  0  0  0  0  0  0  0  0  0
  147.0779  153.9648  140.0522 H   0  0  0  0  0  0  0  0  0  0  0  0
  148.5904  154.2063  139.0919 H   0  0  0  0  0  0  0  0  0  0  0  0
  148.9851  154.7005  137.1562 H   0  0  0  0  0  0  0  0  0  0  0  0
  148.7866  156.2205  135.1976 H   0  0  0  0  0  0  0  0  0  0  0  0
  146.0800  156.1340  132.8100 H   0  0  0  0  0  0  0  0  0  0  0  0
  147.6612  158.1579  134.4296 H   0  0  0  0  0  0  0  0  0  0  0  0
  149.1224  157.0633  132.7876 H   0  0  0  0  0  0  0  0  0  0  0  0
  147.9064  157.3642  131.4787 H   0  0  0  0  0  0  0  0  0  0  0  0
  149.4630  159.4882  133.0346 H   0  0  0  0  0  0  0  0  0  0  0  0
  149.7275  158.9939  131.3215 H   0  0  0  0  0  0  0  0  0  0  0  0
  145.8820  160.6800  131.8720 H   0  0  0  0  0  0  0  0  0  0  0  0
  144.6399  155.0696  134.7331 H   0  0  0  0  0  0  0  0  0  0  0  0
  145.3190  152.1194  138.7290 H   0  0  0  0  0  0  0  0  0  0  0  0
  146.0106  151.5796  137.1547 H   0  0  0  0  0  0  0  0  0  0  0  0
  146.2743  149.9086  139.0344 H   0  0  0  0  0  0  0  0  0  0  0  0
  147.8299  150.4481  138.2641 H   0  0  0  0  0  0  0  0  0  0  0  0
  142.3007  153.1960  136.5987 H   0  0  0  0  0  0  0  0  0  0  0  0
  1  2  1  0
  2  3  1  0
  2  4  1  0
  2  5  1  0
  5  6  1  0
  6  7  2  0
  6  8  1  0
  8  9  1  0
  9 10  1  0
 10 11  1  0
 10 12  2  0
  9 13  2  0
 13 14  1  0
 14 15  2  0
 15 16  1  0
 16 17  2  0
 17 18  1  0
 18 19  1  0
 19 20  1  0
 20 21  1  0
 21 22  2  0
 21 23  1  0
 23 24  1  0
 24 25  1  0
 25 26  1  0
 26 27  1  0
 27 28  1  0
 28 29  2  0
 29 30  1  0
 30 31  2  0
 31 32  1  0
 32 33  1  0
 33 34  1  0
 34 35  1  0
 35 36  1  0
 36 37  2  0
 36 38  1  0
 38 39  1  0
 39 40  2  0
 31 41  1  0
 41 42  2  0
 42 43  1  0
 27 44  1  0
 44 45  1  0
 17 46  1  0
 46 47  2  0
 47  8  1  0
 47 14  1  0
 45 24  1  0
 42 28  1  0
 39 33  1  0
  1 48  1  0
  1 49  1  0
  1 50  1  0
  3 51  1  0
  3 52  1  0
  3 53  1  0
  4 54  1  0
  4 55  1  0
  4 56  1  0
 11 57  1  0
 13 58  1  0
 15 59  1  0
 16 60  1  0
 18 61  1  0
 18 62  1  0
 19 63  1  0
 19 64  1  0
 23 65  1  0
 23 66  1  0
 25 67  1  0
 25 68  1  0
 26 69  1  0
 26 70  1  0
 29 71  1  0
 30 72  1  0
 32 73  1  0
 33 74  1  1
 34 75  1  0
 34 76  1  0
 35 77  1  0
 35 78  1  0
 38 79  1  0
 41 80  1  0
 44 81  1  0
 44 82  1  0
 45 83  1  0
 45 84  1  0
 46 85  1  0
M  CHG  2  11  -1  20  -1
M  END
>  <UniqueID>  (30) 
30

>  <SMILES>  (30) 
CC(C)(C)OC(=O)n1c(C([NH-])=O)cc2ccc(CC[N-]C(=O)CN3CCN(c4ccc(N[C@H]5CCC(=O)NC5=O)cc4F)CC3)cc21

>  <Energy>  (30) 
125.95208729630032

>  <Genealogy>  (30) 
CC(C)(C)OC(=O)n1c(C([NH-])=O)cc2ccc(CC[N-]C(=O)CN3CCN(c4ccc(NC5CCC(=O)NC5=O)cc4F)CC3)cc21 (protonated)
CC(C)(C)OC(=O)n1c(C([NH-])=O)cc2ccc(CC[N-]C(=O)CN3CCN(c4ccc(N[C@H]5CCC(=O)NC5=O)cc4F)CC3)cc21 (chirality)
CC(C)(C)OC(=O)n1c(C([NH-])=O)cc2ccc(CC[N-]C(=O)CN3CCN(c4ccc(N[C@H]5CCC(=O)NC5=O)cc4F)CC3)cc21 (3D coordinates assigned)
CC(C)(C)OC(=O)n1c(C([NH-])=O)cc2ccc(CC[N-]C(=O)CN3CCN(c4ccc(N[C@H]5CCC(=O)NC5=O)cc4F)CC3)cc21 (nonaromatic ring conformer: 125.95208729630032 kcal/mol)

>  <smiles>  (30) 
CC(C)(C)OC(=O)n1c(C(N)=O)cc2ccc(CCNC(=O)CN3CCN(c4ccc(NC5CCC(=O)NC5=O)cc4F)CC3)cc21

>  <score_type>  (30) 
oracle

>  <origin>  (30) 
adg

>  <m_score__min__energy>  (30) 
-12.26

>  <m_primary>  (30) 
energy

$$$$
30:0
     RDKit          3D

 44 45  0  0  0  0  0  0  0  0999 V2000
  140.2620  157.0860  135.1490 C   0  0  0  0  0  0  0  0  0  0  0  0
  140.0190  157.4010  133.6610 C   0  0  0  0  0  0  0  0  0  0  0  0
  138.5060  157.5010  133.4150 C   0  0  0  0  0  0  0  0  0  0  0  0
  140.6750  158.7410  133.2750 C   0  0  0  0  0  0  0  0  0  0  0  0
  140.5130  156.3400  132.8320 O   0  0  0  0  0  0  0  0  0  0  0  0
  140.2660  154.9680  132.9970 C   0  0  0  0  0  0  0  0  0  0  0  0
  139.0870  154.5270  133.0500 O   0  0  0  0  0  0  0  0  0  0  0  0
  141.3730  154.0580  133.0910 N   0  0  0  0  0  0  0  0  0  0  0  0
  142.6840  154.3690  133.2970 C   0  0  0  0  0  0  0  0  0  0  0  0
  143.2040  155.7140  133.6300 C   0  0  0  0  0  0  0  0  0  0  0  0
  143.0150  156.8110  132.7360 N   0  0  0  0  0  0  0  0  0  0  0  0
  143.8520  155.8960  134.6950 O   0  0  0  0  0  0  0  0  0  0  0  0
  143.4730  153.2210  133.2430 C   0  0  0  0  0  0  0  0  0  0  0  0
  142.5970  152.1890  132.9970 C   0  0  0  0  0  0  0  0  0  0  0  0
  142.8440  150.8290  132.8270 C   0  0  0  0  0  0  0  0  0  0  0  0
  141.7510  149.9920  132.5470 C   0  0  0  0  0  0  0  0  0  0  0  0
  140.4420  150.5240  132.4460 C   0  0  0  0  0  0  0  0  0  0  0  0
  139.2870  149.6240  132.0960 C   0  0  0  0  0  0  0  0  0  0  0  0
  139.7830  148.3790  131.3510 C   0  0  0  0  0  0  0  0  0  0  0  0
  139.1060  148.2350  129.9880 C   0  0  0  0  0  0  0  0  0  0  0  0
  138.7630  146.9110  129.7810 F   0  0  0  0  0  0  0  0  0  0  0  0
  137.9610  149.0090  129.9380 F   0  0  0  0  0  0  0  0  0  0  0  0
  140.2310  151.9110  132.6130 C   0  0  0  0  0  0  0  0  0  0  0  0
  141.3360  152.7190  132.9080 C   0  0  0  0  0  0  0  0  0  0  0  0
  139.7079  157.8043  135.7711 H   0  0  0  0  0  0  0  0  0  0  0  0
  139.9147  156.0658  135.3693 H   0  0  0  0  0  0  0  0  0  0  0  0
  141.3370  157.1629  135.3693 H   0  0  0  0  0  0  0  0  0  0  0  0
  137.9791  157.5358  134.3800 H   0  0  0  0  0  0  0  0  0  0  0  0
  138.2869  158.4156  132.8444 H   0  0  0  0  0  0  0  0  0  0  0  0
  138.1685  156.6232  132.8444 H   0  0  0  0  0  0  0  0  0  0  0  0
  140.9453  159.2931  134.1872 H   0  0  0  0  0  0  0  0  0  0  0  0
  141.5806  158.5483  132.6811 H   0  0  0  0  0  0  0  0  0  0  0  0
  139.9673  159.3381  132.6811 H   0  0  0  0  0  0  0  0  0  0  0  0
  143.4180  157.7470  132.9620 H   0  0  0  0  0  0  0  0  0  0  0  0
  142.4410  156.7120  131.8690 H   0  0  0  0  0  0  0  0  0  0  0  0
  144.5636  153.1544  133.3700 H   0  0  0  0  0  0  0  0  0  0  0  0
  143.8630  150.4229  132.9094 H   0  0  0  0  0  0  0  0  0  0  0  0
  141.9132  148.9134  132.4048 H   0  0  0  0  0  0  0  0  0  0  0  0
  138.7769  149.3138  133.0199 H   0  0  0  0  0  0  0  0  0  0  0  0
  138.5915  150.1744  131.4454 H   0  0  0  0  0  0  0  0  0  0  0  0
  140.8700  148.4602  131.2034 H   0  0  0  0  0  0  0  0  0  0  0  0
  139.5349  147.4937  131.9549 H   0  0  0  0  0  0  0  0  0  0  0  0
  139.8055  148.5701  129.2080 H   0  0  0  0  0  0  0  0  0  0  0  0
  139.2250  152.3448  132.5139 H   0  0  0  0  0  0  0  0  0  0  0  0
  1  2  1  0
  2  3  1  0
  2  4  1  0
  2  5  1  0
  5  6  1  0
  6  7  2  0
  6  8  1  0
  8  9  1  0
  9 10  1  0
 10 11  1  0
 10 12  2  0
  9 13  2  0
 13 14  1  0
 14 15  2  0
 15 16  1  0
 16 17  2  0
 17 18  1  0
 18 19  1  0
 19 20  1  0
 20 21  1  0
 20 22  1  0
 17 23  1  0
 23 24  2  0
 24  8  1  0
 24 14  1  0
  1 25  1  0
  1 26  1  0
  1 27  1  0
  3 28  1  0
  3 29  1  0
  3 30  1  0
  4 31  1  0
  4 32  1  0
  4 33  1  0
 11 34  1  0
 11 35  1  0
 13 36  1  0
 15 37  1  0
 16 38  1  0
 18 39  1  0
 18 40  1  0
 19 41  1  0
 19 42  1  0
 20 43  1  0
 23 44  1  0
M  END
>  <UniqueID>  (31) 
31

>  <SMILES>  (31) 
CC(C)(C)OC(=O)n1c(C(N)=O)cc2ccc(CCC(F)F)cc21

>  <Energy>  (31) 
72.00319645211673

>  <Genealogy>  (31) 
CC(C)(C)OC(=O)n1c(C(N)=O)cc2ccc(CCC(F)F)cc21 (3D coordinates assigned)
CC(C)(C)OC(=O)n1c(C(N)=O)cc2ccc(CCC(F)F)cc21 (optimized conformer: 72.00319645211673 kcal/mol)

>  <smiles>  (31) 
CC(C)(C)OC(=O)n1c(C(N)=O)cc2ccc(CCC(F)F)cc21

>  <score_type>  (31) 
oracle

>  <origin>  (31) 
adg

>  <m_score__min__energy>  (31) 
-7.2999999999999998

>  <m_primary>  (31) 
energy

$$$$
31:0
     RDKit          3D

 38 40  0  0  0  0  0  0  0  0999 V2000
  147.4580  160.4780  132.6110 N   0  0  0  0  0  0  0  0  0  0  0  0
  147.6170  159.2880  133.3820 C   0  0  0  0  0  0  0  0  0  0  0  0
  148.6800  159.1140  134.0340 O   0  0  0  0  0  0  0  0  0  0  0  0
  146.5560  158.2590  133.3730 C   0  0  0  0  0  0  0  0  0  0  0  0
  146.8110  156.8930  133.2680 C   0  0  0  0  0  0  0  0  0  0  0  0
  145.5840  156.2820  133.3910 C   0  0  0  0  0  0  0  0  0  0  0  0
  145.2480  154.9330  133.3450 C   0  0  0  0  0  0  0  0  0  0  0  0
  143.8920  154.5870  133.4710 C   0  0  0  0  0  0  0  0  0  0  0  0
  142.9010  155.5870  133.6520 C   0  0  0  0  0  0  0  0  0  0  0  0
  141.4440  155.2080  133.7220 C   0  0  0  0  0  0  0  0  0  0  0  0
  141.2590  153.9040  133.2970 F   0  0  0  0  0  0  0  0  0  0  0  0
  140.6840  156.0370  132.9160 F   0  0  0  0  0  0  0  0  0  0  0  0
  141.0060  155.3220  135.0270 F   0  0  0  0  0  0  0  0  0  0  0  0
  143.2820  156.9490  133.6690 C   0  0  0  0  0  0  0  0  0  0  0  0
  144.6420  157.2630  133.5590 C   0  0  0  0  0  0  0  0  0  0  0  0
  145.2220  158.4830  133.5430 N   0  0  0  0  0  0  0  0  0  0  0  0
  144.5450  159.7460  133.6390 C   0  0  0  0  0  0  0  0  0  0  0  0
  145.1120  160.7230  134.2000 O   0  0  0  0  0  0  0  0  0  0  0  0
  143.2650  159.8910  133.0920 O   0  0  0  0  0  0  0  0  0  0  0  0
  142.2200  160.6210  133.7280 C   0  0  0  0  0  0  0  0  0  0  0  0
  141.2580  159.6790  134.3980 C   0  0  0  0  0  0  0  0  0  0  0  0
  141.3930  159.3640  135.7600 C   0  0  0  0  0  0  0  0  0  0  0  0
  140.5100  158.4650  136.3660 C   0  0  0  0  0  0  0  0  0  0  0  0
  139.4900  157.8720  135.6170 C   0  0  0  0  0  0  0  0  0  0  0  0
  139.3520  158.1770  134.2600 C   0  0  0  0  0  0  0  0  0  0  0  0
  140.2340  159.0750  133.6510 C   0  0  0  0  0  0  0  0  0  0  0  0
  146.5510  160.9950  132.6030 H   0  0  0  0  0  0  0  0  0  0  0  0
  147.7861  156.4064  133.1185 H   0  0  0  0  0  0  0  0  0  0  0  0
  146.0202  154.1607  133.2140 H   0  0  0  0  0  0  0  0  0  0  0  0
  143.5949  153.5287  133.4289 H   0  0  0  0  0  0  0  0  0  0  0  0
  142.5272  157.7433  133.7664 H   0  0  0  0  0  0  0  0  0  0  0  0
  142.6543  161.2934  134.4825 H   0  0  0  0  0  0  0  0  0  0  0  0
  141.6787  161.2053  132.9693 H   0  0  0  0  0  0  0  0  0  0  0  0
  142.1965  159.8263  136.3523 H   0  0  0  0  0  0  0  0  0  0  0  0
  140.6183  158.2242  137.4338 H   0  0  0  0  0  0  0  0  0  0  0  0
  138.7959  157.1653  136.0954 H   0  0  0  0  0  0  0  0  0  0  0  0
  138.5490  157.7103  133.6707 H   0  0  0  0  0  0  0  0  0  0  0  0
  140.1251  159.3093  132.5818 H   0  0  0  0  0  0  0  0  0  0  0  0
  1  2  1  0
  2  3  2  0
  2  4  1  0
  4  5  2  0
  5  6  1  0
  6  7  2  0
  7  8  1  0
  8  9  2  0
  9 10  1  0
 10 11  1  0
 10 12  1  0
 10 13  1  0
  9 14  1  0
 14 15  2  0
 15 16  1  0
 16 17  1  0
 17 18  2  0
 17 19  1  0
 19 20  1  0
 20 21  1  0
 21 22  2  0
 22 23  1  0
 23 24  2  0
 24 25  1  0
 25 26  2  0
 16  4  1  0
 26 21  1  0
 15  6  1  0
  1 27  1  0
  5 28  1  0
  7 29  1  0
  8 30  1  0
 14 31  1  0
 20 32  1  0
 20 33  1  0
 22 34  1  0
 23 35  1  0
 24 36  1  0
 25 37  1  0
 26 38  1  0
M  CHG  1   1  -1
M  END
>  <UniqueID>  (32) 
32

>  <SMILES>  (32) 
[NH-]C(=O)c1cc2ccc(C(F)(F)F)cc2n1C(=O)OCc1ccccc1

>  <Energy>  (32) 
77.9681384918611

>  <Genealogy>  (32) 
[NH-]C(=O)c1cc2ccc(C(F)(F)F)cc2n1C(=O)OCc1ccccc1 (protonated)
[NH-]C(=O)c1cc2ccc(C(F)(F)F)cc2n1C(=O)OCc1ccccc1 (3D coordinates assigned)
[NH-]C(=O)c1cc2ccc(C(F)(F)F)cc2n1C(=O)OCc1ccccc1 (optimized conformer: 77.9681384918611 kcal/mol)

>  <smiles>  (32) 
NC(=O)c1cc2ccc(C(F)(F)F)cc2n1C(=O)OCc1ccccc1

>  <score_type>  (32) 
oracle

>  <origin>  (32) 
adg

>  <m_score__min__energy>  (32) 
-7.4699999999999998

>  <m_primary>  (32) 
energy

$$$$
32:0
     RDKit          3D

 43 45  0  0  0  0  0  0  0  0999 V2000
  138.7410  157.5420  133.5000 C   0  0  0  0  0  0  0  0  0  0  0  0
  140.2180  157.3100  133.5170 C   0  0  0  0  0  0  0  0  0  0  0  0
  140.9460  157.9120  132.6820 O   0  0  0  0  0  0  0  0  0  0  0  0
  140.8220  156.4790  134.5200 N   0  0  0  0  0  0  0  0  0  0  0  0
  141.2300  156.8310  135.7730 C   0  0  0  0  0  0  0  0  0  0  0  0
  140.9940  158.1350  136.4260 C   0  0  0  0  0  0  0  0  0  0  0  0
  139.8700  158.9380  136.0770 N   0  0  0  0  0  0  0  0  0  0  0  0
  141.7740  158.5280  137.3350 O   0  0  0  0  0  0  0  0  0  0  0  0
  141.8420  155.7520  136.4060 C   0  0  0  0  0  0  0  0  0  0  0  0
  141.7840  154.7160  135.5000 C   0  0  0  0  0  0  0  0  0  0  0  0
  142.2570  153.4120  135.5960 C   0  0  0  0  0  0  0  0  0  0  0  0
  142.0760  152.5630  134.4920 C   0  0  0  0  0  0  0  0  0  0  0  0
  141.4160  153.0200  133.3190 C   0  0  0  0  0  0  0  0  0  0  0  0
  141.2470  152.1430  132.1790 N   0  0  0  0  0  0  0  0  0  0  0  0
  140.6970  150.8030  132.5050 C   0  0  0  0  0  0  0  0  0  0  0  0
  141.7080  149.6530  132.2340 C   0  0  0  0  0  0  0  0  0  0  0  0
  140.9970  148.2970  132.2340 C   0  0  0  0  0  0  0  0  0  0  0  0
  139.9500  148.2040  131.1020 C   0  0  0  0  0  0  0  0  0  0  0  0
  139.3730  149.5730  130.6840 C   0  0  0  0  0  0  0  0  0  0  0  0
  139.3000  150.5400  131.8720 C   0  0  0  0  0  0  0  0  0  0  0  0
  140.9840  154.3670  133.2510 C   0  0  0  0  0  0  0  0  0  0  0  0
  141.1630  155.1830  134.3720 C   0  0  0  0  0  0  0  0  0  0  0  0
  138.3672  157.6007  134.5329 H   0  0  0  0  0  0  0  0  0  0  0  0
  138.5240  158.4853  132.9773 H   0  0  0  0  0  0  0  0  0  0  0  0
  138.2452  156.7107  132.9773 H   0  0  0  0  0  0  0  0  0  0  0  0
  139.0250  158.9740  136.6890 H   0  0  0  0  0  0  0  0  0  0  0  0
  142.2790  155.7314  137.4153 H   0  0  0  0  0  0  0  0  0  0  0  0
  142.7576  153.0563  136.5086 H   0  0  0  0  0  0  0  0  0  0  0  0
  142.4504  151.5296  134.5357 H   0  0  0  0  0  0  0  0  0  0  0  0
  142.1680  152.0230  131.6960 H   0  0  0  0  0  0  0  0  0  0  0  0
  140.6150  152.6020  131.4820 H   0  0  0  0  0  0  0  0  0  0  0  0
  140.5302  150.8112  133.5923 H   0  0  0  0  0  0  0  0  0  0  0  0
  142.1821  149.8123  131.2543 H   0  0  0  0  0  0  0  0  0  0  0  0
  142.4673  149.6545  133.0298 H   0  0  0  0  0  0  0  0  0  0  0  0
  141.7444  147.5020  132.0951 H   0  0  0  0  0  0  0  0  0  0  0  0
  140.4753  148.1820  133.1955 H   0  0  0  0  0  0  0  0  0  0  0  0
  140.4265  147.7440  130.2237 H   0  0  0  0  0  0  0  0  0  0  0  0
  139.1121  147.6026  131.4845 H   0  0  0  0  0  0  0  0  0  0  0  0
  140.0173  150.0099  129.9068 H   0  0  0  0  0  0  0  0  0  0  0  0
  138.3526  149.4155  130.3047 H   0  0  0  0  0  0  0  0  0  0  0  0
  138.8832  151.4968  131.5244 H   0  0  0  0  0  0  0  0  0  0  0  0
  138.6625  150.0805  132.6417 H   0  0  0  0  0  0  0  0  0  0  0  0
  140.5179  154.7624  132.3364 H   0  0  0  0  0  0  0  0  0  0  0  0
  1  2  1  0
  2  3  2  0
  2  4  1  0
  4  5  1  0
  5  6  1  0
  6  7  1  0
  6  8  2  0
  5  9  2  0
  9 10  1  0
 10 11  2  0
 11 12  1  0
 12 13  2  0
 13 14  1  0
 14 15  1  0
 15 16  1  0
 16 17  1  0
 17 18  1  0
 18 19  1  0
 19 20  1  0
 13 21  1  0
 21 22  2  0
 22  4  1  0
 22 10  1  0
 20 15  1  0
  1 23  1  0
  1 24  1  0
  1 25  1  0
  7 26  1  0
  9 27  1  0
 11 28  1  0
 12 29  1  0
 14 30  1  0
 14 31  1  0
 15 32  1  0
 16 33  1  0
 16 34  1  0
 17 35  1  0
 17 36  1  0
 18 37  1  0
 18 38  1  0
 19 39  1  0
 19 40  1  0
 20 41  1  0
 20 42  1  0
 21 43  1  0
M  CHG  2   7  -1  14   1
M  END
>  <UniqueID>  (33) 
33

>  <SMILES>  (33) 
CC(=O)n1c(C([NH-])=O)cc2ccc([NH2+]C3CCCCC3)cc21

>  <Energy>  (33) 
90.16628526763765

>  <Genealogy>  (33) 
CC(=O)n1c(C([NH-])=O)cc2ccc([NH2+]C3CCCCC3)cc21 (protonated)
CC(=O)n1c(C([NH-])=O)cc2ccc([NH2+]C3CCCCC3)cc21 (3D coordinates assigned)
CC(=O)n1c(C([NH-])=O)cc2ccc([NH2+]C3CCCCC3)cc21 (nonaromatic ring conformer: 90.16628526763765 kcal/mol)

>  <smiles>  (33) 
CC(=O)n1c(C(N)=O)cc2ccc(NC3CCCCC3)cc21

>  <score_type>  (33) 
oracle

>  <origin>  (33) 
adg

>  <m_score__min__energy>  (33) 
-8.1999999999999993

>  <m_primary>  (33) 
energy

$$$$
33:0
     RDKit          3D

 47 49  0  0  0  0  0  0  0  0999 V2000
  143.0600  155.0150  133.8310 C   0  0  0  0  0  0  0  0  0  0  0  0
  144.4690  154.7760  133.2670 C   0  0  0  0  0  0  0  0  0  0  0  0
  144.9590  153.3870  133.7200 C   0  0  0  0  0  0  0  0  0  0  0  0
  144.4090  154.8580  131.7300 C   0  0  0  0  0  0  0  0  0  0  0  0
  145.3150  155.8070  133.7940 O   0  0  0  0  0  0  0  0  0  0  0  0
  146.1330  156.6740  133.0530 C   0  0  0  0  0  0  0  0  0  0  0  0
  146.9370  156.2290  132.1930 O   0  0  0  0  0  0  0  0  0  0  0  0
  146.0250  158.0900  133.2640 N   0  0  0  0  0  0  0  0  0  0  0  0
  147.0270  159.0150  133.2970 C   0  0  0  0  0  0  0  0  0  0  0  0
  148.4760  158.7270  133.2520 C   0  0  0  0  0  0  0  0  0  0  0  0
  149.0560  158.1900  132.0640 N   0  0  0  0  0  0  0  0  0  0  0  0
  149.2160  158.9820  134.2370 O   0  0  0  0  0  0  0  0  0  0  0  0
  146.5040  160.2950  133.4710 C   0  0  0  0  0  0  0  0  0  0  0  0
  145.1410  160.1250  133.5500 C   0  0  0  0  0  0  0  0  0  0  0  0
  144.1280  161.0650  133.7210 C   0  0  0  0  0  0  0  0  0  0  0  0
  142.8010  160.6060  133.7470 C   0  0  0  0  0  0  0  0  0  0  0  0
  142.5120  159.2290  133.5850 C   0  0  0  0  0  0  0  0  0  0  0  0
  141.1140  158.7510  133.6110 C   0  0  0  0  0  0  0  0  0  0  0  0
  140.4080  158.7130  132.3970 C   0  0  0  0  0  0  0  0  0  0  0  0
  139.0980  158.2370  132.3520 C   0  0  0  0  0  0  0  0  0  0  0  0
  138.4770  157.7920  133.5170 C   0  0  0  0  0  0  0  0  0  0  0  0
  139.1570  157.8360  134.7360 C   0  0  0  0  0  0  0  0  0  0  0  0
  140.4720  158.3410  134.8110 C   0  0  0  0  0  0  0  0  0  0  0  0
  141.1700  158.3950  136.1580 C   0  0  0  0  0  0  0  0  0  0  0  0
  142.3100  157.6100  136.1490 F   0  0  0  0  0  0  0  0  0  0  0  0
  141.5540  159.6860  136.4720 F   0  0  0  0  0  0  0  0  0  0  0  0
  140.3110  157.9420  137.1410 F   0  0  0  0  0  0  0  0  0  0  0  0
  143.5640  158.3020  133.4240 C   0  0  0  0  0  0  0  0  0  0  0  0
  144.8780  158.7850  133.4230 C   0  0  0  0  0  0  0  0  0  0  0  0
  143.0991  155.0084  134.9303 H   0  0  0  0  0  0  0  0  0  0  0  0
  142.6863  155.9894  133.4833 H   0  0  0  0  0  0  0  0  0  0  0  0
  142.3859  154.2184  133.4833 H   0  0  0  0  0  0  0  0  0  0  0  0
  144.9742  153.3440  134.8191 H   0  0  0  0  0  0  0  0  0  0  0  0
  144.2793  152.6139  133.3322 H   0  0  0  0  0  0  0  0  0  0  0  0
  145.9733  153.2115  133.3322 H   0  0  0  0  0  0  0  0  0  0  0  0
  143.7837  155.7127  131.4325 H   0  0  0  0  0  0  0  0  0  0  0  0
  145.4251  154.9903  131.3299 H   0  0  0  0  0  0  0  0  0  0  0  0
  143.9754  153.9296  131.3299 H   0  0  0  0  0  0  0  0  0  0  0  0
  148.5720  157.4400  131.5230 H   0  0  0  0  0  0  0  0  0  0  0  0
  147.0625  161.2407  133.5322 H   0  0  0  0  0  0  0  0  0  0  0  0
  144.3601  162.1345  133.8323 H   0  0  0  0  0  0  0  0  0  0  0  0
  141.9791  161.3221  133.8944 H   0  0  0  0  0  0  0  0  0  0  0  0
  140.8930  159.0619  131.4734 H   0  0  0  0  0  0  0  0  0  0  0  0
  138.5546  158.2129  131.3959 H   0  0  0  0  0  0  0  0  0  0  0  0
  137.4482  157.4049  133.4766 H   0  0  0  0  0  0  0  0  0  0  0  0
  138.6614  157.4726  135.6483 H   0  0  0  0  0  0  0  0  0  0  0  0
  143.3569  157.2285  133.3025 H   0  0  0  0  0  0  0  0  0  0  0  0
  1  2  1  0
  2  3  1  0
  2  4  1  0
  2  5  1  0
  5  6  1  0
  6  7  2  0
  6  8  1  0
  8  9  1  0
  9 10  1  0
 10 11  1  0
 10 12  2  0
  9 13  2  0
 13 14  1  0
 14 15  2  0
 15 16  1  0
 16 17  2  0
 17 18  1  0
 18 19  2  0
 19 20  1  0
 20 21  2  0
 21 22  1  0
 22 23  2  0
 23 24  1  0
 24 25  1  0
 24 26  1  0
 24 27  1  0
 17 28  1  0
 28 29  2  0
 29  8  1  0
 29 14  1  0
 23 18  1  0
  1 30  1  0
  1 31  1  0
  1 32  1  0
  3 33  1  0
  3 34  1  0
  3 35  1  0
  4 36  1  0
  4 37  1  0
  4 38  1  0
 11 39  1  0
 13 40  1  0
 15 41  1  0
 16 42  1  0
 19 43  1  0
 20 44  1  0
 21 45  1  0
 22 46  1  0
 28 47  1  0
M  CHG  1  11  -1
M  END
>  <UniqueID>  (34) 
34

>  <SMILES>  (34) 
CC(C)(C)OC(=O)n1c(C([NH-])=O)cc2ccc(-c3ccccc3C(F)(F)F)cc21

>  <Energy>  (34) 
92.5768245884165

>  <Genealogy>  (34) 
CC(C)(C)OC(=O)n1c(C([NH-])=O)cc2ccc(-c3ccccc3C(F)(F)F)cc21 (protonated)
CC(C)(C)OC(=O)n1c(C([NH-])=O)cc2ccc(-c3ccccc3C(F)(F)F)cc21 (3D coordinates assigned)
CC(C)(C)OC(=O)n1c(C([NH-])=O)cc2ccc(-c3ccccc3C(F)(F)F)cc21 (optimized conformer: 92.5768245884165 kcal/mol)

>  <smiles>  (34) 
CC(C)(C)OC(=O)n1c(C(N)=O)cc2ccc(-c3ccccc3C(F)(F)F)cc21

>  <score_type>  (34) 
oracle

>  <origin>  (34) 
adg

>  <m_score__min__energy>  (34) 
-7.9100000000000001

>  <m_primary>  (34) 
energy

$$$$
34:0
     RDKit          3D

 64 66  0  0  0  0  0  0  0  0999 V2000
  144.6520  155.1720  135.2170 C   0  0  0  0  0  0  0  0  0  0  0  0
  145.9230  154.5920  135.4830 O   0  0  0  0  0  0  0  0  0  0  0  0
  147.0770  154.9660  134.7870 C   0  0  0  0  0  0  0  0  0  0  0  0
  147.8400  155.8570  135.2550 O   0  0  0  0  0  0  0  0  0  0  0  0
  147.3580  154.3560  133.4270 C   0  0  2  0  0  0  0  0  0  0  0  0
  146.8590  155.3110  132.2970 C   0  0  0  0  0  0  0  0  0  0  0  0
  146.9800  156.7810  132.6280 C   0  0  0  0  0  0  0  0  0  0  0  0
  148.2380  157.4330  132.5610 C   0  0  0  0  0  0  0  0  0  0  0  0
  148.3590  158.7920  132.8930 C   0  0  0  0  0  0  0  0  0  0  0  0
  147.2060  159.4780  133.2630 C   0  0  0  0  0  0  0  0  0  0  0  0
  147.0390  160.7930  133.6320 C   0  0  0  0  0  0  0  0  0  0  0  0
  145.6740  160.9410  133.8680 C   0  0  0  0  0  0  0  0  0  0  0  0
  145.0410  162.2380  134.1900 C   0  0  0  0  0  0  0  0  0  0  0  0
  143.9070  162.6770  133.4470 N   0  0  0  0  0  0  0  0  0  0  0  0
  145.4690  162.9470  135.1400 O   0  0  0  0  0  0  0  0  0  0  0  0
  145.0230  159.7590  133.6640 N   0  0  0  0  0  0  0  0  0  0  0  0
  143.6210  159.4870  133.8000 C   0  0  0  0  0  0  0  0  0  0  0  0
  142.8020  159.9920  132.9850 O   0  0  0  0  0  0  0  0  0  0  0  0
  143.1790  158.6640  134.8490 O   0  0  0  0  0  0  0  0  0  0  0  0
  141.8160  158.3640  135.1820 C   0  0  0  0  0  0  0  0  0  0  0  0
  141.1340  159.6940  135.5380 C   0  0  0  0  0  0  0  0  0  0  0  0
  141.0830  157.7390  133.9800 C   0  0  0  0  0  0  0  0  0  0  0  0
  141.7530  157.4280  136.4040 C   0  0  0  0  0  0  0  0  0  0  0  0
  145.9760  158.8760  133.2940 C   0  0  0  0  0  0  0  0  0  0  0  0
  145.8310  157.5170  132.9980 C   0  0  0  0  0  0  0  0  0  0  0  0
  146.6550  152.9930  133.3000 C   0  0  0  0  0  0  0  0  0  0  0  0
  147.4520  152.1940  132.2740 C   0  0  0  0  0  0  0  0  0  0  0  0
  148.8580  152.8090  132.2510 C   0  0  2  0  0  0  0  0  0  0  0  0
  149.9220  151.7940  132.4810 N   0  0  0  0  0  0  0  0  0  0  0  0
  149.7470  151.1160  133.7740 C   0  0  0  0  0  0  0  0  0  0  0  0
  150.0920  150.8040  131.3970 C   0  0  0  0  0  0  0  0  0  0  0  0
  148.8430  153.9780  133.2550 C   0  0  0  0  0  0  0  0  0  0  0  0
  144.1478  155.4021  136.1672 H   0  0  0  0  0  0  0  0  0  0  0  0
  144.7854  156.0984  134.6390 H   0  0  0  0  0  0  0  0  0  0  0  0
  144.0397  154.4642  134.6390 H   0  0  0  0  0  0  0  0  0  0  0  0
  147.4504  155.1118  131.3911 H   0  0  0  0  0  0  0  0  0  0  0  0
  145.7870  155.1055  132.1607 H   0  0  0  0  0  0  0  0  0  0  0  0
  149.1278  156.8683  132.2458 H   0  0  0  0  0  0  0  0  0  0  0  0
  149.3348  159.2987  132.8616 H   0  0  0  0  0  0  0  0  0  0  0  0
  147.8183  161.5641  133.7217 H   0  0  0  0  0  0  0  0  0  0  0  0
  143.0910  162.0460  133.2900 H   0  0  0  0  0  0  0  0  0  0  0  0
  141.0809  159.7976  136.6318 H   0  0  0  0  0  0  0  0  0  0  0  0
  141.7156  160.5281  135.1185 H   0  0  0  0  0  0  0  0  0  0  0  0
  140.1172  159.7085  135.1185 H   0  0  0  0  0  0  0  0  0  0  0  0
  140.2927  157.0651  134.3424 H   0  0  0  0  0  0  0  0  0  0  0  0
  140.6337  158.5362  133.3696 H   0  0  0  0  0  0  0  0  0  0  0  0
  141.7992  157.1693  133.3696 H   0  0  0  0  0  0  0  0  0  0  0  0
  141.7932  158.0260  137.3264 H   0  0  0  0  0  0  0  0  0  0  0  0
  140.8143  156.8551  136.3791 H   0  0  0  0  0  0  0  0  0  0  0  0
  142.6065  156.7345  136.3791 H   0  0  0  0  0  0  0  0  0  0  0  0
  144.8453  157.0317  133.0518 H   0  0  0  0  0  0  0  0  0  0  0  0
  146.6535  152.4735  134.2696 H   0  0  0  0  0  0  0  0  0  0  0  0
  145.6069  153.1114  132.9879 H   0  0  0  0  0  0  0  0  0  0  0  0
  147.5033  151.1361  132.5708 H   0  0  0  0  0  0  0  0  0  0  0  0
  146.9807  152.2338  131.2809 H   0  0  0  0  0  0  0  0  0  0  0  0
  149.1137  153.2018  131.2559 H   0  0  0  0  0  0  0  0  0  0  0  0
  149.9313  151.8299  134.5903 H   0  0  0  0  0  0  0  0  0  0  0  0
  148.7198  150.7299  133.8495 H   0  0  0  0  0  0  0  0  0  0  0  0
  150.4590  150.2810  133.8495 H   0  0  0  0  0  0  0  0  0  0  0  0
  150.2629  149.8086  131.8330 H   0  0  0  0  0  0  0  0  0  0  0  0
  149.1846  150.7812  130.7756 H   0  0  0  0  0  0  0  0  0  0  0  0
  150.9550  151.0852  130.7756 H   0  0  0  0  0  0  0  0  0  0  0  0
  149.2734  153.6636  134.2173 H   0  0  0  0  0  0  0  0  0  0  0  0
  149.4416  154.8292  132.8984 H   0  0  0  0  0  0  0  0  0  0  0  0
  1  2  1  0
  2  3  1  0
  3  4  2  0
  3  5  1  0
  5  6  1  6
  6  7  1  0
  7  8  2  0
  8  9  1  0
  9 10  2  0
 10 11  1  0
 11 12  2  0
 12 13  1  0
 13 14  1  0
 13 15  2  0
 12 16  1  0
 16 17  1  0
 17 18  2  0
 17 19  1  0
 19 20  1  0
 20 21  1  0
 20 22  1  0
 20 23  1  0
 16 24  1  0
 24 25  2  0
  5 26  1  0
 26 27  1  0
 27 28  1  0
 28 29  1  0
 29 30  1  0
 29 31  1  0
 28 32  1  0
 32  5  1  0
 25  7  1  0
 24 10  1  0
  1 33  1  0
  1 34  1  0
  1 35  1  0
  6 36  1  0
  6 37  1  0
  8 38  1  0
  9 39  1  0
 11 40  1  0
 14 41  1  0
 21 42  1  0
 21 43  1  0
 21 44  1  0
 22 45  1  0
 22 46  1  0
 22 47  1  0
 23 48  1  0
 23 49  1  0
 23 50  1  0
 25 51  1  0
 26 52  1  0
 26 53  1  0
 27 54  1  0
 27 55  1  0
 28 56  1  6
 30 57  1  0
 30 58  1  0
 30 59  1  0
 31 60  1  0
 31 61  1  0
 31 62  1  0
 32 63  1  0
 32 64  1  0
M  CHG  1  14  -1
M  END
>  <UniqueID>  (35) 
35

>  <SMILES>  (35) 
COC(=O)[C@]1(Cc2ccc3cc(C([NH-])=O)n(C(=O)OC(C)(C)C)c3c2)CC[C@H](N(C)C)C1

>  <Energy>  (35) 
103.8189711611721

>  <Genealogy>  (35) 
COC(=O)[C@]1(Cc2ccc3cc(C([NH-])=O)n(C(=O)OC(C)(C)C)c3c2)CC[C@H](N(C)C)C1 (protonated)
COC(=O)[C@]1(Cc2ccc3cc(C([NH-])=O)n(C(=O)OC(C)(C)C)c3c2)CC[C@H](N(C)C)C1 (3D coordinates assigned)
COC(=O)[C@]1(Cc2ccc3cc(C([NH-])=O)n(C(=O)OC(C)(C)C)c3c2)CC[C@H](N(C)C)C1 (nonaromatic ring conformer: 103.8189711611721 kcal/mol)

>  <smiles>  (35) 
COC(=O)[C@]1(Cc2ccc3cc(C(N)=O)n(C(=O)OC(C)(C)C)c3c2)CC[C@H](N(C)C)C1

>  <score_type>  (35) 
oracle

>  <origin>  (35) 
adg

>  <m_score__min__energy>  (35) 
-8.5299999999999994

>  <m_primary>  (35) 
energy

$$$$
35:0
     RDKit          3D

 42 44  0  0  0  0  0  0  0  0999 V2000
  144.3700  154.7000  131.4820 C   0  0  0  0  0  0  0  0  0  0  0  0
  144.6600  154.3530  132.9240 C   0  0  0  0  0  0  0  0  0  0  0  0
  145.3430  152.9890  132.8850 C   0  0  0  0  0  0  0  0  0  0  0  0
  143.3370  154.1610  133.6150 C   0  0  0  0  0  0  0  0  0  0  0  0
  145.5370  155.2260  133.5440 O   0  0  0  0  0  0  0  0  0  0  0  0
  146.2490  156.2570  133.0070 C   0  0  0  0  0  0  0  0  0  0  0  0
  147.2010  155.9380  132.2320 O   0  0  0  0  0  0  0  0  0  0  0  0
  146.0210  157.6390  133.2360 N   0  0  0  0  0  0  0  0  0  0  0  0
  146.9410  158.6020  133.3760 C   0  0  0  0  0  0  0  0  0  0  0  0
  148.3880  158.5500  133.3410 C   0  0  0  0  0  0  0  0  0  0  0  0
  149.0530  157.4920  132.6130 N   0  0  0  0  0  0  0  0  0  0  0  0
  149.1640  159.3590  133.8990 O   0  0  0  0  0  0  0  0  0  0  0  0
  146.2560  159.8080  133.5850 C   0  0  0  0  0  0  0  0  0  0  0  0
  144.9120  159.5610  133.5700 C   0  0  0  0  0  0  0  0  0  0  0  0
  143.8310  160.4080  133.7280 C   0  0  0  0  0  0  0  0  0  0  0  0
  142.5560  159.8890  133.6670 C   0  0  0  0  0  0  0  0  0  0  0  0
  142.3800  158.5400  133.4510 C   0  0  0  0  0  0  0  0  0  0  0  0
  141.0280  157.9560  133.3820 C   0  0  0  0  0  0  0  0  0  0  0  0
  139.9100  158.5850  133.7540 N   0  0  0  0  0  0  0  0  0  0  0  0
  138.8490  157.7650  133.5580 C   0  0  0  0  0  0  0  0  0  0  0  0
  139.3610  156.5890  133.0440 C   0  0  0  0  0  0  0  0  0  0  0  0
  140.7090  156.7070  132.9350 N   0  0  0  0  0  0  0  0  0  0  0  0
  143.4920  157.7140  133.2960 C   0  0  0  0  0  0  0  0  0  0  0  0
  144.7830  158.2050  133.3520 C   0  0  0  0  0  0  0  0  0  0  0  0
  143.6650  155.5435  131.4425 H   0  0  0  0  0  0  0  0  0  0  0  0
  145.3061  154.9805  130.9770 H   0  0  0  0  0  0  0  0  0  0  0  0
  143.9278  153.8286  130.9770 H   0  0  0  0  0  0  0  0  0  0  0  0
  145.5190  152.6375  133.9124 H   0  0  0  0  0  0  0  0  0  0  0  0
  144.6981  152.2710  132.3572 H   0  0  0  0  0  0  0  0  0  0  0  0
  146.3043  153.0752  132.3572 H   0  0  0  0  0  0  0  0  0  0  0  0
  143.4859  154.1826  134.7047 H   0  0  0  0  0  0  0  0  0  0  0  0
  142.6500  154.9689  133.3227 H   0  0  0  0  0  0  0  0  0  0  0  0
  142.9080  153.1912  133.3227 H   0  0  0  0  0  0  0  0  0  0  0  0
  149.9660  157.1060  132.9310 H   0  0  0  0  0  0  0  0  0  0  0  0
  148.5700  157.1250  131.7400 H   0  0  0  0  0  0  0  0  0  0  0  0
  146.7241  160.7919  133.7363 H   0  0  0  0  0  0  0  0  0  0  0  0
  143.9867  161.4832  133.9003 H   0  0  0  0  0  0  0  0  0  0  0  0
  141.6839  160.5480  133.7901 H   0  0  0  0  0  0  0  0  0  0  0  0
  137.7926  157.9903  133.7662 H   0  0  0  0  0  0  0  0  0  0  0  0
  138.7722  155.7017  132.7681 H   0  0  0  0  0  0  0  0  0  0  0  0
  141.3650  155.9730  132.5750 H   0  0  0  0  0  0  0  0  0  0  0  0
  143.3375  156.6386  133.1239 H   0  0  0  0  0  0  0  0  0  0  0  0
  1  2  1  0
  2  3  1  0
  2  4  1  0
  2  5  1  0
  5  6  1  0
  6  7  2  0
  6  8  1  0
  8  9  1  0
  9 10  1  0
 10 11  1  0
 10 12  2  0
  9 13  2  0
 13 14  1  0
 14 15  2  0
 15 16  1  0
 16 17  2  0
 17 18  1  0
 18 19  2  0
 19 20  1  0
 20 21  2  0
 21 22  1  0
 17 23  1  0
 23 24  2  0
 24  8  1  0
 24 14  1  0
 22 18  1  0
  1 25  1  0
  1 26  1  0
  1 27  1  0
  3 28  1  0
  3 29  1  0
  3 30  1  0
  4 31  1  0
  4 32  1  0
  4 33  1  0
 11 34  1  0
 11 35  1  0
 13 36  1  0
 15 37  1  0
 16 38  1  0
 20 39  1  0
 21 40  1  0
 22 41  1  0
 23 42  1  0
M  END
>  <smiles>  (36) 
CC(C)(C)OC(=O)n1c(C(N)=O)cc2ccc(-c3ncc[nH]3)cc21

>  <score_type>  (36) 
oracle

>  <origin>  (36) 
adg

>  <m_score__min__energy>  (36) 
-7.8200000000000003

>  <m_primary>  (36) 
energy

$$$$
36:0
     RDKit          3D

 48 50  0  0  0  0  0  0  0  0999 V2000
  138.7660  149.2400  130.7610 C   0  0  0  0  0  0  0  0  0  0  0  0
  139.8990  148.2360  130.9340 C   0  0  0  0  0  0  0  0  0  0  0  0
  141.0260  148.8520  131.5540 O   0  0  0  0  0  0  0  0  0  0  0  0
  140.9440  149.6130  132.7270 C   0  0  0  0  0  0  0  0  0  0  0  0
  140.2280  149.2200  133.6880 O   0  0  0  0  0  0  0  0  0  0  0  0
  141.6940  150.8850  132.8320 C   0  0  0  0  0  0  0  0  0  0  0  0
  141.0070  152.1100  132.8830 C   0  0  0  0  0  0  0  0  0  0  0  0
  141.7090  153.3150  132.9800 C   0  0  0  0  0  0  0  0  0  0  0  0
  141.0110  154.4770  133.0550 F   0  0  0  0  0  0  0  0  0  0  0  0
  143.1160  153.3180  133.0300 C   0  0  0  0  0  0  0  0  0  0  0  0
  143.8600  154.5940  133.1330 C   0  0  0  0  0  0  0  0  0  0  0  0
  143.1640  155.8120  133.3460 C   0  0  0  0  0  0  0  0  0  0  0  0
  143.8610  157.0260  133.4590 C   0  0  0  0  0  0  0  0  0  0  0  0
  145.2470  156.9950  133.3440 C   0  0  0  0  0  0  0  0  0  0  0  0
  146.1650  158.0160  133.4490 C   0  0  0  0  0  0  0  0  0  0  0  0
  147.4060  157.4140  133.2680 C   0  0  0  0  0  0  0  0  0  0  0  0
  148.6770  158.1650  133.2450 C   0  0  0  0  0  0  0  0  0  0  0  0
  149.6570  157.9310  132.2320 N   0  0  0  0  0  0  0  0  0  0  0  0
  148.8780  159.0660  134.1020 O   0  0  0  0  0  0  0  0  0  0  0  0
  147.2670  156.0730  133.0700 N   0  0  0  0  0  0  0  0  0  0  0  0
  148.3160  155.0950  132.9680 C   0  0  0  0  0  0  0  0  0  0  0  0
  149.3480  155.3440  132.2870 O   0  0  0  0  0  0  0  0  0  0  0  0
  148.1880  153.8700  133.6330 O   0  0  0  0  0  0  0  0  0  0  0  0
  148.1790  152.6110  132.9640 C   0  0  0  0  0  0  0  0  0  0  0  0
  149.5770  152.2520  132.4750 C   0  0  0  0  0  0  0  0  0  0  0  0
  145.9370  155.8320  133.1170 C   0  0  0  0  0  0  0  0  0  0  0  0
  145.2700  154.6050  133.0230 C   0  0  0  0  0  0  0  0  0  0  0  0
  143.8030  152.0910  132.9810 C   0  0  0  0  0  0  0  0  0  0  0  0
  145.1610  152.0580  132.9940 F   0  0  0  0  0  0  0  0  0  0  0  0
  143.0980  150.8890  132.8820 C   0  0  0  0  0  0  0  0  0  0  0  0
  138.4052  149.5597  131.7498 H   0  0  0  0  0  0  0  0  0  0  0  0
  139.1331  150.1148  130.2042 H   0  0  0  0  0  0  0  0  0  0  0  0
  137.9418  148.7704  130.2042 H   0  0  0  0  0  0  0  0  0  0  0  0
  139.5510  147.4032  131.5627 H   0  0  0  0  0  0  0  0  0  0  0  0
  140.1985  147.8654  129.9426 H   0  0  0  0  0  0  0  0  0  0  0  0
  139.9077  152.1207  132.8463 H   0  0  0  0  0  0  0  0  0  0  0  0
  142.0668  155.8053  133.4234 H   0  0  0  0  0  0  0  0  0  0  0  0
  143.3275  157.9721  133.6331 H   0  0  0  0  0  0  0  0  0  0  0  0
  145.9606  159.0805  133.6361 H   0  0  0  0  0  0  0  0  0  0  0  0
  150.5670  158.4420  132.2570 H   0  0  0  0  0  0  0  0  0  0  0  0
  149.4530  157.3130  131.4160 H   0  0  0  0  0  0  0  0  0  0  0  0
  147.8293  151.8344  133.6602 H   0  0  0  0  0  0  0  0  0  0  0  0
  147.5062  152.6759  132.0962 H   0  0  0  0  0  0  0  0  0  0  0  0
  150.2357  152.0829  133.3396 H   0  0  0  0  0  0  0  0  0  0  0  0
  149.5288  151.3371  131.8662 H   0  0  0  0  0  0  0  0  0  0  0  0
  149.9756  153.0769  131.8662 H   0  0  0  0  0  0  0  0  0  0  0  0
  145.8296  153.6709  132.8672 H   0  0  0  0  0  0  0  0  0  0  0  0
  143.6473  149.9368  132.8428 H   0  0  0  0  0  0  0  0  0  0  0  0
  1  2  1  0
  2  3  1  0
  3  4  1  0
  4  5  2  0
  4  6  1  0
  6  7  2  0
  7  8  1  0
  8  9  1  0
  8 10  2  0
 10 11  1  0
 11 12  2  0
 12 13  1  0
 13 14  2  0
 14 15  1  0
 15 16  2  0
 16 17  1  0
 17 18  1  0
 17 19  2  0
 16 20  1  0
 20 21  1  0
 21 22  2  0
 21 23  1  0
 23 24  1  0
 24 25  1  0
 20 26  1  0
 26 27  2  0
 10 28  1  0
 28 29  1  0
 28 30  2  0
 30  6  1  0
 27 11  1  0
 26 14  1  0
  1 31  1  0
  1 32  1  0
  1 33  1  0
  2 34  1  0
  2 35  1  0
  7 36  1  0
 12 37  1  0
 13 38  1  0
 15 39  1  0
 18 40  1  0
 18 41  1  0
 24 42  1  0
 24 43  1  0
 25 44  1  0
 25 45  1  0
 25 46  1  0
 27 47  1  0
 30 48  1  0
M  END
>  <UniqueID>  (37) 
36

>  <SMILES>  (37) 
CCOC(=O)c1cc(F)c(-c2ccc3cc(C(N)=O)n(C(=O)OCC)c3c2)c(F)c1

>  <Energy>  (37) 
89.02824233061382

>  <Genealogy>  (37) 
CCOC(=O)c1cc(F)c(-c2ccc3cc(C(N)=O)n(C(=O)OCC)c3c2)c(F)c1 (3D coordinates assigned)
CCOC(=O)c1cc(F)c(-c2ccc3cc(C(N)=O)n(C(=O)OCC)c3c2)c(F)c1 (optimized conformer: 89.02824233061382 kcal/mol)

>  <smiles>  (37) 
CCOC(=O)c1cc(F)c(-c2ccc3cc(C(N)=O)n(C(=O)OCC)c3c2)c(F)c1

>  <score_type>  (37) 
oracle

>  <origin>  (37) 
adg

>  <m_score__min__energy>  (37) 
-8.2400000000000002

>  <m_primary>  (37) 
energy

$$$$
37:0
     RDKit          3D

 62 64  0  0  0  0  0  0  0  0999 V2000
  142.2340  155.1710  138.9680 C   0  0  0  0  0  0  0  0  0  0  0  0
  142.5910  155.1460  137.5400 N   0  0  0  0  0  0  0  0  0  0  0  0
  141.9870  156.2900  136.8380 C   0  0  0  0  0  0  0  0  0  0  0  0
  142.1820  153.8840  136.9540 C   0  0  0  0  0  0  0  0  0  0  0  0
  142.1030  152.8730  137.6380 O   0  0  0  0  0  0  0  0  0  0  0  0
  141.9420  153.7600  135.1700 S   0  0  0  0  0  0  0  0  0  0  0  0
  143.7150  153.6830  134.6880 C   0  0  1  0  0  0  0  0  0  0  0  0
  143.9850  154.2190  133.2710 C   0  0  0  0  0  0  0  0  0  0  0  0
  143.8270  155.6340  133.2060 O   0  0  0  0  0  0  0  0  0  0  0  0
  142.5940  156.2910  133.2830 C   0  0  0  0  0  0  0  0  0  0  0  0
  141.5250  155.6660  133.0440 O   0  0  0  0  0  0  0  0  0  0  0  0
  142.5510  157.6850  133.6320 N   0  0  0  0  0  0  0  0  0  0  0  0
  141.5020  158.3760  134.1600 C   0  0  0  0  0  0  0  0  0  0  0  0
  140.1260  157.8670  134.3330 C   0  0  0  0  0  0  0  0  0  0  0  0
  139.3760  157.4380  133.1980 N   0  0  0  0  0  0  0  0  0  0  0  0
  139.6110  157.7830  135.4800 O   0  0  0  0  0  0  0  0  0  0  0  0
  141.8780  159.6830  134.4650 C   0  0  0  0  0  0  0  0  0  0  0  0
  143.2000  159.7770  134.0970 C   0  0  0  0  0  0  0  0  0  0  0  0
  144.0730  160.8570  134.1730 C   0  0  0  0  0  0  0  0  0  0  0  0
  145.3920  160.6700  133.7280 C   0  0  0  0  0  0  0  0  0  0  0  0
  145.8180  159.4080  133.2450 C   0  0  0  0  0  0  0  0  0  0  0  0
  147.2260  159.2250  132.7410 C   0  0  0  0  0  0  0  0  0  0  0  0
  147.4520  157.7970  132.2330 C   0  0  0  0  0  0  0  0  0  0  0  0
  148.4790  157.1230  133.0670 N   0  0  0  0  0  0  0  0  0  0  0  0
  148.7580  155.7410  132.6320 C   0  0  0  0  0  0  0  0  0  0  0  0
  147.5740  154.7950  132.9280 C   0  0  0  0  0  0  0  0  0  0  0  0
  146.7440  155.2360  134.0610 N   0  0  0  0  0  0  0  0  0  0  0  0
  147.5290  155.9330  135.0830 C   0  0  0  0  0  0  0  0  0  0  0  0
  148.2090  157.2020  134.5220 C   0  0  0  0  0  0  0  0  0  0  0  0
  144.9040  158.3320  133.1890 C   0  0  0  0  0  0  0  0  0  0  0  0
  143.5850  158.5570  133.6030 C   0  0  0  0  0  0  0  0  0  0  0  0
  144.5400  154.4250  135.7000 C   0  0  0  0  0  0  0  0  0  0  0  0
  144.6760  155.6710  135.6010 O   0  0  0  0  0  0  0  0  0  0  0  0
  145.1080  153.7610  136.7790 O   0  0  0  0  0  0  0  0  0  0  0  0
  143.1486  155.1069  139.5758 H   0  0  0  0  0  0  0  0  0  0  0  0
  141.7061  156.1083  139.1976 H   0  0  0  0  0  0  0  0  0  0  0  0
  141.5806  154.3164  139.1976 H   0  0  0  0  0  0  0  0  0  0  0  0
  143.6350  155.2310  137.4690 H   0  0  0  0  0  0  0  0  0  0  0  0
  141.6056  157.0124  137.5747 H   0  0  0  0  0  0  0  0  0  0  0  0
  142.7462  156.7756  136.2073 H   0  0  0  0  0  0  0  0  0  0  0  0
  141.1578  155.9369  136.2073 H   0  0  0  0  0  0  0  0  0  0  0  0
  144.0023  152.6213  134.6698 H   0  0  0  0  0  0  0  0  0  0  0  0
  145.0146  153.9612  132.9821 H   0  0  0  0  0  0  0  0  0  0  0  0
  143.2577  153.7599  132.5853 H   0  0  0  0  0  0  0  0  0  0  0  0
  139.5610  156.5120  132.7500 H   0  0  0  0  0  0  0  0  0  0  0  0
  141.2508  160.4717  134.9062 H   0  0  0  0  0  0  0  0  0  0  0  0
  143.7407  161.8278  134.5694 H   0  0  0  0  0  0  0  0  0  0  0  0
  146.1006  161.5109  133.7547 H   0  0  0  0  0  0  0  0  0  0  0  0
  147.4069  159.9315  131.9175 H   0  0  0  0  0  0  0  0  0  0  0  0
  147.9207  159.4126  133.5730 H   0  0  0  0  0  0  0  0  0  0  0  0
  146.5081  157.2351  132.2911 H   0  0  0  0  0  0  0  0  0  0  0  0
  147.7982  157.8333  131.1895 H   0  0  0  0  0  0  0  0  0  0  0  0
  148.9513  155.7410  131.5491 H   0  0  0  0  0  0  0  0  0  0  0  0
  149.6331  155.3775  133.1906 H   0  0  0  0  0  0  0  0  0  0  0  0
  146.9393  154.7393  132.0313 H   0  0  0  0  0  0  0  0  0  0  0  0
  147.9988  153.8167  133.1973 H   0  0  0  0  0  0  0  0  0  0  0  0
  145.9920  155.8770  133.7140 H   0  0  0  0  0  0  0  0  0  0  0  0
  146.8615  156.2225  135.9080 H   0  0  0  0  0  0  0  0  0  0  0  0
  148.3175  155.2498  135.4316 H   0  0  0  0  0  0  0  0  0  0  0  0
  147.5512  158.0635  134.7096 H   0  0  0  0  0  0  0  0  0  0  0  0
  149.1791  157.3056  135.0301 H   0  0  0  0  0  0  0  0  0  0  0  0
  145.2205  157.3419  132.8291 H   0  0  0  0  0  0  0  0  0  0  0  0
  1  2  1  0
  2  3  1  0
  2  4  1  0
  4  5  2  0
  4  6  1  0
  6  7  1  0
  7  8  1  0
  8  9  1  0
  9 10  1  0
 10 11  2  0
 10 12  1  0
 12 13  1  0
 13 14  1  0
 14 15  1  0
 14 16  2  0
 13 17  2  0
 17 18  1  0
 18 19  2  0
 19 20  1  0
 20 21  2  0
 21 22  1  0
 22 23  1  0
 23 24  1  0
 24 25  1  0
 25 26  1  0
 26 27  1  0
 27 28  1  0
 28 29  1  0
 21 30  1  0
 30 31  2  0
  7 32  1  0
 32 33  2  0
 32 34  1  0
 31 12  1  0
 31 18  1  0
 29 24  1  0
  1 35  1  0
  1 36  1  0
  1 37  1  0
  2 38  1  0
  3 39  1  0
  3 40  1  0
  3 41  1  0
  7 42  1  6
  8 43  1  0
  8 44  1  0
 15 45  1  0
 17 46  1  0
 19 47  1  0
 20 48  1  0
 22 49  1  0
 22 50  1  0
 23 51  1  0
 23 52  1  0
 25 53  1  0
 25 54  1  0
 26 55  1  0
 26 56  1  0
 27 57  1  0
 28 58  1  0
 28 59  1  0
 29 60  1  0
 29 61  1  0
 30 62  1  0
M  CHG  3   2   1  15  -1  34  -1
M  END
>  <UniqueID>  (38) 
37

>  <SMILES>  (38) 
C[NH+](C)C(=O)S[C@@H](COC(=O)n1c(C([NH-])=O)cc2ccc(CCN3CCNCC3)cc21)C(=O)[O-]

>  <Energy>  (38) 
105.477981390557

>  <Genealogy>  (38) 
C[NH+](C)C(=O)SC(COC(=O)n1c(C([NH-])=O)cc2ccc(CCN3CCNCC3)cc21)C(=O)[O-] (protonated)
C[NH+](C)C(=O)S[C@@H](COC(=O)n1c(C([NH-])=O)cc2ccc(CCN3CCNCC3)cc21)C(=O)[O-] (chirality)
C[NH+](C)C(=O)S[C@@H](COC(=O)n1c(C([NH-])=O)cc2ccc(CCN3CCNCC3)cc21)C(=O)[O-] (3D coordinates assigned)
C[NH+](C)C(=O)S[C@@H](COC(=O)n1c(C([NH-])=O)cc2ccc(CCN3CCNCC3)cc21)C(=O)[O-] (nonaromatic ring conformer: 105.477981390557 kcal/mol)

>  <smiles>  (38) 
CN(C)C(=O)SC(COC(=O)n1c(C(N)=O)cc2ccc(CCN3CCNCC3)cc21)C(=O)O

>  <score_type>  (38) 
oracle

>  <origin>  (38) 
adg

>  <m_score__min__energy>  (38) 
-7.5099999999999998

>  <m_primary>  (38) 
energy

$$$$
38:0
     RDKit          3D

 38 40  0  0  0  0  0  0  0  0999 V2000
  150.3460  159.8480  129.8510 C   0  0  0  0  0  0  0  0  0  0  0  0
  149.3180  160.3810  130.7550 N   0  0  0  0  0  0  0  0  0  0  0  0
  149.0020  161.8130  130.7320 C   0  0  0  0  0  0  0  0  0  0  0  0
  148.6000  159.5180  131.6700 C   0  0  0  0  0  0  0  0  0  0  0  0
  147.2980  159.8180  132.1070 C   0  0  0  0  0  0  0  0  0  0  0  0
  146.6530  158.9410  132.9930 C   0  0  0  0  0  0  0  0  0  0  0  0
  145.2770  159.2290  133.4700 C   0  0  0  0  0  0  0  0  0  0  0  0
  144.8580  160.5710  133.6660 C   0  0  0  0  0  0  0  0  0  0  0  0
  143.5550  160.8600  134.1040 C   0  0  0  0  0  0  0  0  0  0  0  0
  142.6960  159.7950  134.3470 C   0  0  0  0  0  0  0  0  0  0  0  0
  141.3800  159.7930  134.7500 C   0  0  0  0  0  0  0  0  0  0  0  0
  141.0170  158.4500  134.8190 C   0  0  0  0  0  0  0  0  0  0  0  0
  139.6960  157.9920  135.2980 C   0  0  0  0  0  0  0  0  0  0  0  0
  139.4260  157.8570  136.6910 N   0  0  0  0  0  0  0  0  0  0  0  0
  138.7760  157.7640  134.4680 O   0  0  0  0  0  0  0  0  0  0  0  0
  142.0640  157.6520  134.4640 N   0  0  0  0  0  0  0  0  0  0  0  0
  142.0770  156.2210  134.3260 C   0  0  0  0  0  0  0  0  0  0  0  0
  141.2040  155.6420  133.6270 O   0  0  0  0  0  0  0  0  0  0  0  0
  143.0680  155.4670  134.9420 O   0  0  0  0  0  0  0  0  0  0  0  0
  143.0860  158.4910  134.1820 C   0  0  0  0  0  0  0  0  0  0  0  0
  144.3700  158.1730  133.7270 C   0  0  0  0  0  0  0  0  0  0  0  0
  147.3030  157.8160  133.4080 N   0  0  0  0  0  0  0  0  0  0  0  0
  148.5610  157.5370  132.9770 C   0  0  0  0  0  0  0  0  0  0  0  0
  149.1930  158.3790  132.1220 N   0  0  0  0  0  0  0  0  0  0  0  0
  151.1691  159.4212  130.4428 H   0  0  0  0  0  0  0  0  0  0  0  0
  149.9059  159.0645  129.2166 H   0  0  0  0  0  0  0  0  0  0  0  0
  150.7327  160.6592  129.2166 H   0  0  0  0  0  0  0  0  0  0  0  0
  148.9195  162.1869  131.7632 H   0  0  0  0  0  0  0  0  0  0  0  0
  149.8018  162.3566  130.2078 H   0  0  0  0  0  0  0  0  0  0  0  0
  148.0477  161.9695  130.2078 H   0  0  0  0  0  0  0  0  0  0  0  0
  146.7905  160.7296  131.7586 H   0  0  0  0  0  0  0  0  0  0  0  0
  145.5617  161.3941  133.4727 H   0  0  0  0  0  0  0  0  0  0  0  0
  143.2243  161.8989  134.2504 H   0  0  0  0  0  0  0  0  0  0  0  0
  140.7489  160.6665  134.9707 H   0  0  0  0  0  0  0  0  0  0  0  0
  139.1120  158.6750  137.2590 H   0  0  0  0  0  0  0  0  0  0  0  0
  144.6683  157.1256  133.5723 H   0  0  0  0  0  0  0  0  0  0  0  0
  146.8520  157.1590  134.0830 H   0  0  0  0  0  0  0  0  0  0  0  0
  149.0689  156.6246  133.3229 H   0  0  0  0  0  0  0  0  0  0  0  0
  1  2  1  0
  2  3  1  0
  2  4  1  0
  4  5  2  0
  5  6  1  0
  6  7  1  0
  7  8  2  0
  8  9  1  0
  9 10  2  0
 10 11  1  0
 11 12  2  0
 12 13  1  0
 13 14  1  0
 13 15  2  0
 12 16  1  0
 16 17  1  0
 17 18  2  0
 17 19  1  0
 16 20  1  0
 20 21  2  0
  6 22  2  0
 22 23  1  0
 23 24  2  0
 24  4  1  0
 21  7  1  0
 20 10  1  0
  1 25  1  0
  1 26  1  0
  1 27  1  0
  3 28  1  0
  3 29  1  0
  3 30  1  0
  5 31  1  0
  8 32  1  0
  9 33  1  0
 11 34  1  0
 14 35  1  0
 21 36  1  0
 22 37  1  0
 23 38  1  0
M  CHG  3  14  -1  19  -1  22   1
M  END
>  <UniqueID>  (39) 
38

>  <SMILES>  (39) 
CN(C)c1cc(-c2ccc3cc(C([NH-])=O)n(C(=O)[O-])c3c2)[nH+]cn1

>  <Energy>  (39) 
84.7746806456542

>  <Genealogy>  (39) 
CN(C)c1cc(-c2ccc3cc(C([NH-])=O)n(C(=O)[O-])c3c2)[nH+]cn1 (protonated)
CN(C)c1cc(-c2ccc3cc(C([NH-])=O)n(C(=O)[O-])c3c2)[nH+]cn1 (3D coordinates assigned)
CN(C)c1cc(-c2ccc3cc(C([NH-])=O)n(C(=O)[O-])c3c2)[nH+]cn1 (optimized conformer: 84.7746806456542 kcal/mol)

>  <smiles>  (39) 
CN(C)c1cc(-c2ccc3cc(C(N)=O)n(C(=O)O)c3c2)ncn1

>  <score_type>  (39) 
oracle

>  <origin>  (39) 
adg

>  <m_score__min__energy>  (39) 
-7.21

>  <m_primary>  (39) 
energy

$$$$
39:0
     RDKit          3D

 37 39  0  0  0  0  0  0  0  0999 V2000
  149.6040  159.3440  131.8740 C   0  0  0  0  0  0  0  0  0  0  0  0
  148.2720  159.3840  133.0530 S   0  0  0  0  0  0  0  0  0  0  0  0
  148.8480  159.5980  134.4250 O   0  0  0  0  0  0  0  0  0  0  0  0
  147.3470  160.5270  132.7420 O   0  0  0  0  0  0  0  0  0  0  0  0
  147.3820  157.8560  133.0000 C   0  0  0  0  0  0  0  0  0  0  0  0
  148.0610  156.6800  132.6500 C   0  0  0  0  0  0  0  0  0  0  0  0
  147.3870  155.4590  132.5910 C   0  0  0  0  0  0  0  0  0  0  0  0
  146.0140  155.3880  132.8780 C   0  0  0  0  0  0  0  0  0  0  0  0
  145.2960  154.0900  132.8130 C   0  0  0  0  0  0  0  0  0  0  0  0
  146.0130  152.8830  132.6050 C   0  0  0  0  0  0  0  0  0  0  0  0
  145.3420  151.6510  132.5310 C   0  0  0  0  0  0  0  0  0  0  0  0
  143.9580  151.6520  132.6760 C   0  0  0  0  0  0  0  0  0  0  0  0
  143.0650  150.6070  132.6210 C   0  0  0  0  0  0  0  0  0  0  0  0
  141.8110  151.1830  132.8180 C   0  0  0  0  0  0  0  0  0  0  0  0
  140.5630  150.3990  132.9170 C   0  0  0  0  0  0  0  0  0  0  0  0
  139.5330  150.5790  131.9480 N   0  0  0  0  0  0  0  0  0  0  0  0
  140.4090  149.5430  133.8280 O   0  0  0  0  0  0  0  0  0  0  0  0
  141.9260  152.5330  132.9810 N   0  0  0  0  0  0  0  0  0  0  0  0
  140.8720  153.4950  133.1490 C   0  0  0  0  0  0  0  0  0  0  0  0
  139.7430  153.3000  132.6280 O   0  0  0  0  0  0  0  0  0  0  0  0
  141.0960  154.6640  133.8670 O   0  0  0  0  0  0  0  0  0  0  0  0
  143.2480  152.8020  132.8950 C   0  0  0  0  0  0  0  0  0  0  0  0
  143.8880  154.0460  132.9550 C   0  0  0  0  0  0  0  0  0  0  0  0
  145.3300  156.5670  133.2220 C   0  0  0  0  0  0  0  0  0  0  0  0
  146.0010  157.7930  133.2840 C   0  0  0  0  0  0  0  0  0  0  0  0
  145.0690  159.2230  133.7140 Cl  0  0  0  0  0  0  0  0  0  0  0  0
  150.5654  159.3151  132.4078 H   0  0  0  0  0  0  0  0  0  0  0  0
  149.5081  158.4483  131.2427 H   0  0  0  0  0  0  0  0  0  0  0  0
  149.5620  160.2438  131.2427 H   0  0  0  0  0  0  0  0  0  0  0  0
  149.1358  156.7201  132.4196 H   0  0  0  0  0  0  0  0  0  0  0  0
  147.9354  154.5455  132.3176 H   0  0  0  0  0  0  0  0  0  0  0  0
  147.1076  152.9125  132.5004 H   0  0  0  0  0  0  0  0  0  0  0  0
  145.8937  150.7142  132.3636 H   0  0  0  0  0  0  0  0  0  0  0  0
  143.2922  149.5433  132.4566 H   0  0  0  0  0  0  0  0  0  0  0  0
  139.4090  151.4930  131.4600 H   0  0  0  0  0  0  0  0  0  0  0  0
  143.3095  154.9688  133.1091 H   0  0  0  0  0  0  0  0  0  0  0  0
  144.2537  156.5250  133.4452 H   0  0  0  0  0  0  0  0  0  0  0  0
  1  2  1  0
  2  3  2  0
  2  4  2  0
  2  5  1  0
  5  6  2  0
  6  7  1  0
  7  8  2  0
  8  9  1  0
  9 10  2  0
 10 11  1  0
 11 12  2  0
 12 13  1  0
 13 14  2  0
 14 15  1  0
 15 16  1  0
 15 17  2  0
 14 18  1  0
 18 19  1  0
 19 20  2  0
 19 21  1  0
 18 22  1  0
 22 23  2  0
  8 24  1  0
 24 25  2  0
 25 26  1  0
 25  5  1  0
 23  9  1  0
 22 12  1  0
  1 27  1  0
  1 28  1  0
  1 29  1  0
  6 30  1  0
  7 31  1  0
 10 32  1  0
 11 33  1  0
 13 34  1  0
 16 35  1  0
 23 36  1  0
 24 37  1  0
M  CHG  2  16  -1  21  -1
M  END
>  <UniqueID>  (40) 
39

>  <SMILES>  (40) 
CS(=O)(=O)c1ccc(-c2ccc3cc(C([NH-])=O)n(C(=O)[O-])c3c2)cc1Cl

>  <Energy>  (40) 
83.51125304541962

>  <Genealogy>  (40) 
CS(=O)(=O)c1ccc(-c2ccc3cc(C([NH-])=O)n(C(=O)[O-])c3c2)cc1Cl (protonated)
CS(=O)(=O)c1ccc(-c2ccc3cc(C([NH-])=O)n(C(=O)[O-])c3c2)cc1Cl (3D coordinates assigned)
CS(=O)(=O)c1ccc(-c2ccc3cc(C([NH-])=O)n(C(=O)[O-])c3c2)cc1Cl (optimized conformer: 83.51125304541962 kcal/mol)

>  <smiles>  (40) 
CS(=O)(=O)c1ccc(-c2ccc3cc(C(N)=O)n(C(=O)O)c3c2)cc1Cl

>  <score_type>  (40) 
oracle

>  <origin>  (40) 
adg

>  <m_score__min__energy>  (40) 
-8.6500000000000004

>  <m_primary>  (40) 
energy

$$$$
40:0
     RDKit          3D

 35 37  0  0  0  0  0  0  0  0999 V2000
  148.9550  157.6700  132.6200 N   0  0  0  0  0  0  0  0  0  0  0  0
  148.3810  158.5420  133.5960 C   0  0  0  0  0  0  0  0  0  0  0  0
  149.1110  159.0100  134.5110 O   0  0  0  0  0  0  0  0  0  0  0  0
  146.9380  158.8520  133.5890 C   0  0  0  0  0  0  0  0  0  0  0  0
  146.4350  160.1480  133.6600 C   0  0  0  0  0  0  0  0  0  0  0  0
  145.0670  160.0040  133.6920 C   0  0  0  0  0  0  0  0  0  0  0  0
  144.0680  160.9730  133.7410 C   0  0  0  0  0  0  0  0  0  0  0  0
  142.7310  160.5420  133.7220 C   0  0  0  0  0  0  0  0  0  0  0  0
  142.4210  159.1620  133.6490 C   0  0  0  0  0  0  0  0  0  0  0  0
  141.0090  158.7280  133.6040 C   0  0  0  0  0  0  0  0  0  0  0  0
  140.3660  158.7050  132.3550 C   0  0  0  0  0  0  0  0  0  0  0  0
  139.0480  158.2620  132.2440 C   0  0  0  0  0  0  0  0  0  0  0  0
  138.3580  157.8330  133.3740 C   0  0  0  0  0  0  0  0  0  0  0  0
  138.9750  157.8610  134.6260 C   0  0  0  0  0  0  0  0  0  0  0  0
  140.2970  158.3330  134.7700 C   0  0  0  0  0  0  0  0  0  0  0  0
  140.9270  158.3650  136.1500 C   0  0  0  0  0  0  0  0  0  0  0  0
  141.3260  159.6490  136.4760 F   0  0  0  0  0  0  0  0  0  0  0  0
  142.0240  157.5250  136.1770 F   0  0  0  0  0  0  0  0  0  0  0  0
  140.0300  157.9470  137.1190 F   0  0  0  0  0  0  0  0  0  0  0  0
  143.4590  158.2090  133.5820 C   0  0  0  0  0  0  0  0  0  0  0  0
  144.7830  158.6630  133.6290 C   0  0  0  0  0  0  0  0  0  0  0  0
  145.9250  157.9410  133.5620 N   0  0  0  0  0  0  0  0  0  0  0  0
  146.0310  156.5190  133.3820 C   0  0  0  0  0  0  0  0  0  0  0  0
  146.6810  156.0480  132.4100 O   0  0  0  0  0  0  0  0  0  0  0  0
  145.4180  155.6480  134.2730 O   0  0  0  0  0  0  0  0  0  0  0  0
  148.3540  157.1350  131.9560 H   0  0  0  0  0  0  0  0  0  0  0  0
  149.9840  157.4940  132.6170 H   0  0  0  0  0  0  0  0  0  0  0  0
  147.0084  161.0864  133.6851 H   0  0  0  0  0  0  0  0  0  0  0  0
  144.3181  162.0429  133.7930 H   0  0  0  0  0  0  0  0  0  0  0  0
  141.9185  161.2823  133.7642 H   0  0  0  0  0  0  0  0  0  0  0  0
  140.9065  159.0392  131.4571 H   0  0  0  0  0  0  0  0  0  0  0  0
  138.5531  158.2517  131.2617 H   0  0  0  0  0  0  0  0  0  0  0  0
  137.3236  157.4708  133.2803 H   0  0  0  0  0  0  0  0  0  0  0  0
  138.4238  157.5108  135.5112 H   0  0  0  0  0  0  0  0  0  0  0  0
  143.2340  157.1358  133.4950 H   0  0  0  0  0  0  0  0  0  0  0  0
  1  2  1  0
  2  3  2  0
  2  4  1  0
  4  5  2  0
  5  6  1  0
  6  7  2  0
  7  8  1  0
  8  9  2  0
  9 10  1  0
 10 11  2  0
 11 12  1  0
 12 13  2  0
 13 14  1  0
 14 15  2  0
 15 16  1  0
 16 17  1  0
 16 18  1  0
 16 19  1  0
  9 20  1  0
 20 21  2  0
 21 22  1  0
 22 23  1  0
 23 24  2  0
 23 25  1  0
 22  4  1  0
 21  6  1  0
 15 10  1  0
  1 26  1  0
  1 27  1  0
  5 28  1  0
  7 29  1  0
  8 30  1  0
 11 31  1  0
 12 32  1  0
 13 33  1  0
 14 34  1  0
 20 35  1  0
M  CHG  1  25  -1
M  END
>  <UniqueID>  (41) 
40

>  <SMILES>  (41) 
NC(=O)c1cc2ccc(-c3ccccc3C(F)(F)F)cc2n1C(=O)[O-]

>  <Energy>  (41) 
87.61449064263248

>  <Genealogy>  (41) 
NC(=O)c1cc2ccc(-c3ccccc3C(F)(F)F)cc2n1C(=O)[O-] (protonated)
NC(=O)c1cc2ccc(-c3ccccc3C(F)(F)F)cc2n1C(=O)[O-] (3D coordinates assigned)
NC(=O)c1cc2ccc(-c3ccccc3C(F)(F)F)cc2n1C(=O)[O-] (optimized conformer: 87.61449064263248 kcal/mol)

>  <smiles>  (41) 
NC(=O)c1cc2ccc(-c3ccccc3C(F)(F)F)cc2n1C(=O)O

>  <score_type>  (41) 
oracle

>  <origin>  (41) 
adg

>  <m_score__min__energy>  (41) 
-7.5300000000000002

>  <m_primary>  (41) 
energy

$$$$
41:0
     RDKit          3D

 33 34  0  0  0  0  0  0  0  0999 V2000
  149.6270  160.3110  129.9110 C   0  0  0  0  0  0  0  0  0  0  0  0
  149.1160  160.6700  131.3080 C   0  0  0  0  0  0  0  0  0  0  0  0
  149.1230  159.5020  132.3210 C   0  0  2  0  0  0  0  0  0  0  0  0
  149.9850  158.3170  131.8550 C   0  0  0  0  0  0  0  0  0  0  0  0
  147.7180  159.0960  132.7400 C   0  0  0  0  0  0  0  0  0  0  0  0
  147.2950  157.7390  132.7280 C   0  0  0  0  0  0  0  0  0  0  0  0
  145.9800  157.3920  133.0770 C   0  0  0  0  0  0  0  0  0  0  0  0
  145.1060  158.4140  133.4300 C   0  0  0  0  0  0  0  0  0  0  0  0
  143.7760  158.3590  133.7780 C   0  0  0  0  0  0  0  0  0  0  0  0
  143.3990  159.6800  134.0070 C   0  0  0  0  0  0  0  0  0  0  0  0
  142.0560  160.0700  134.4880 C   0  0  0  0  0  0  0  0  0  0  0  0
  141.2020  160.8480  133.6510 N   0  0  0  0  0  0  0  0  0  0  0  0
  141.6400  159.6950  135.6160 O   0  0  0  0  0  0  0  0  0  0  0  0
  144.4530  160.5210  133.8000 N   0  0  0  0  0  0  0  0  0  0  0  0
  144.4650  161.9560  133.8690 C   0  0  0  0  0  0  0  0  0  0  0  0
  143.5300  162.6260  133.3570 O   0  0  0  0  0  0  0  0  0  0  0  0
  145.5210  162.6200  134.4800 O   0  0  0  0  0  0  0  0  0  0  0  0
  145.4910  159.7280  133.4510 C   0  0  0  0  0  0  0  0  0  0  0  0
  146.7900  160.1050  133.0910 C   0  0  0  0  0  0  0  0  0  0  0  0
  150.5242  159.6807  129.9995 H   0  0  0  0  0  0  0  0  0  0  0  0
  148.8458  159.7622  129.3646 H   0  0  0  0  0  0  0  0  0  0  0  0
  149.8784  161.2320  129.3646 H   0  0  0  0  0  0  0  0  0  0  0  0
  149.7509  161.4741  131.7084 H   0  0  0  0  0  0  0  0  0  0  0  0
  148.0641  160.9676  131.1859 H   0  0  0  0  0  0  0  0  0  0  0  0
  149.6129  159.8780  133.2313 H   0  0  0  0  0  0  0  0  0  0  0  0
  150.3754  157.7803  132.7322 H   0  0  0  0  0  0  0  0  0  0  0  0
  149.3718  157.6332  131.2497 H   0  0  0  0  0  0  0  0  0  0  0  0
  150.8244  158.6898  131.2497 H   0  0  0  0  0  0  0  0  0  0  0  0
  148.0068  156.9508  132.4417 H   0  0  0  0  0  0  0  0  0  0  0  0
  145.6509  156.3424  133.0713 H   0  0  0  0  0  0  0  0  0  0  0  0
  143.1444  157.4620  133.8583 H   0  0  0  0  0  0  0  0  0  0  0  0
  141.5300  161.7480  133.2400 H   0  0  0  0  0  0  0  0  0  0  0  0
  147.0838  161.1650  133.0811 H   0  0  0  0  0  0  0  0  0  0  0  0
  1  2  1  0
  2  3  1  0
  3  4  1  0
  3  5  1  0
  5  6  2  0
  6  7  1  0
  7  8  2  0
  8  9  1  0
  9 10  2  0
 10 11  1  0
 11 12  1  0
 11 13  2  0
 10 14  1  0
 14 15  1  0
 15 16  2  0
 15 17  1  0
 14 18  1  0
 18 19  2  0
 19  5  1  0
 18  8  1  0
  1 20  1  0
  1 21  1  0
  1 22  1  0
  2 23  1  0
  2 24  1  0
  3 25  1  1
  4 26  1  0
  4 27  1  0
  4 28  1  0
  6 29  1  0
  7 30  1  0
  9 31  1  0
 12 32  1  0
 19 33  1  0
M  CHG  2  12  -1  17  -1
M  END
>  <UniqueID>  (42) 
41

>  <SMILES>  (42) 
CC[C@H](C)c1ccc2cc(C([NH-])=O)n(C(=O)[O-])c2c1

>  <Energy>  (42) 
70.00512644823598

>  <Genealogy>  (42) 
CCC(C)c1ccc2cc(C([NH-])=O)n(C(=O)[O-])c2c1 (protonated)
CC[C@H](C)c1ccc2cc(C([NH-])=O)n(C(=O)[O-])c2c1 (chirality)
CC[C@H](C)c1ccc2cc(C([NH-])=O)n(C(=O)[O-])c2c1 (3D coordinates assigned)
CC[C@H](C)c1ccc2cc(C([NH-])=O)n(C(=O)[O-])c2c1 (optimized conformer: 70.00512644823598 kcal/mol)

>  <smiles>  (42) 
CCC(C)c1ccc2cc(C(N)=O)n(C(=O)O)c2c1

>  <score_type>  (42) 
oracle

>  <origin>  (42) 
adg

>  <m_score__min__energy>  (42) 
-6.9100000000000001

>  <m_primary>  (42) 
energy

$$$$
42:0
     RDKit          3D

 51 52  0  0  0  0  0  0  0  0999 V2000
  141.5350  152.9890  133.7670 C   0  0  0  0  0  0  0  0  0  0  0  0
  141.2430  154.4400  134.1900 C   0  0  2  0  0  0  0  0  0  0  0  0
  140.7790  155.3340  133.0210 C   0  0  0  0  0  0  0  0  0  0  0  0
  140.9840  156.8080  133.2560 C   0  0  0  0  0  0  0  0  0  0  0  0
  139.8830  157.6310  133.6060 C   0  0  0  0  0  0  0  0  0  0  0  0
  140.0610  159.0040  133.8420 C   0  0  0  0  0  0  0  0  0  0  0  0
  141.3430  159.5270  133.7120 C   0  0  0  0  0  0  0  0  0  0  0  0
  141.8050  160.8040  133.9320 C   0  0  0  0  0  0  0  0  0  0  0  0
  143.1750  160.7500  133.6880 C   0  0  0  0  0  0  0  0  0  0  0  0
  144.0590  161.9320  133.7380 C   0  0  0  0  0  0  0  0  0  0  0  0
  145.4240  161.7810  134.1190 N   0  0  0  0  0  0  0  0  0  0  0  0
  143.6130  163.0810  133.4810 O   0  0  0  0  0  0  0  0  0  0  0  0
  143.5490  159.4860  133.3350 N   0  0  0  0  0  0  0  0  0  0  0  0
  144.8770  158.9920  133.1060 C   0  0  0  0  0  0  0  0  0  0  0  0
  145.7890  159.7310  132.2970 N   0  0  0  0  0  0  0  0  0  0  0  0
  145.2550  157.9190  133.6470 O   0  0  0  0  0  0  0  0  0  0  0  0
  142.4150  158.7510  133.3520 C   0  0  0  0  0  0  0  0  0  0  0  0
  142.2700  157.3770  133.1270 C   0  0  0  0  0  0  0  0  0  0  0  0
  142.3410  155.0660  134.9650 N   0  0  0  0  0  0  0  0  0  0  0  0
  143.7000  155.0190  134.4130 C   0  0  0  0  0  0  0  0  0  0  0  0
  142.1590  155.6900  136.2580 C   0  0  0  0  0  0  0  0  0  0  0  0
  142.0300  154.9650  137.2820 O   0  0  0  0  0  0  0  0  0  0  0  0
  142.1170  157.0880  136.3770 O   0  0  0  0  0  0  0  0  0  0  0  0
  141.2670  157.8420  137.2560 C   0  0  0  0  0  0  0  0  0  0  0  0
  141.5030  159.3300  136.9560 C   0  0  0  0  0  0  0  0  0  0  0  0
  141.6360  157.5730  138.7280 C   0  0  0  0  0  0  0  0  0  0  0  0
  139.7850  157.5110  136.9980 C   0  0  0  0  0  0  0  0  0  0  0  0
  141.6608  152.3640  134.6634 H   0  0  0  0  0  0  0  0  0  0  0  0
  140.6960  152.6059  133.1677 H   0  0  0  0  0  0  0  0  0  0  0  0
  142.4569  152.9603  133.1677 H   0  0  0  0  0  0  0  0  0  0  0  0
  140.3903  154.3601  134.8803 H   0  0  0  0  0  0  0  0  0  0  0  0
  141.3421  155.0459  132.1210 H   0  0  0  0  0  0  0  0  0  0  0  0
  139.6957  155.1774  132.9121 H   0  0  0  0  0  0  0  0  0  0  0  0
  138.8794  157.1893  133.6935 H   0  0  0  0  0  0  0  0  0  0  0  0
  139.2125  159.6459  134.1211 H   0  0  0  0  0  0  0  0  0  0  0  0
  141.2166  161.6822  134.2363 H   0  0  0  0  0  0  0  0  0  0  0  0
  146.1600  161.5700  133.4080 H   0  0  0  0  0  0  0  0  0  0  0  0
  145.7300  160.7710  132.2350 H   0  0  0  0  0  0  0  0  0  0  0  0
  143.1365  156.7558  132.8564 H   0  0  0  0  0  0  0  0  0  0  0  0
  144.4294  154.9938  135.2360 H   0  0  0  0  0  0  0  0  0  0  0  0
  143.8136  154.1164  133.7946 H   0  0  0  0  0  0  0  0  0  0  0  0
  143.8757  155.9116  133.7946 H   0  0  0  0  0  0  0  0  0  0  0  0
  141.5911  159.8852  137.9015 H   0  0  0  0  0  0  0  0  0  0  0  0
  142.4305  159.4445  136.3758 H   0  0  0  0  0  0  0  0  0  0  0  0
  140.6564  159.7258  136.3758 H   0  0  0  0  0  0  0  0  0  0  0  0
  140.9234  158.0925  139.3855 H   0  0  0  0  0  0  0  0  0  0  0  0
  141.5949  156.4915  138.9246 H   0  0  0  0  0  0  0  0  0  0  0  0
  142.6531  157.9430  138.9246 H   0  0  0  0  0  0  0  0  0  0  0  0
  139.2627  157.3943  137.9590 H   0  0  0  0  0  0  0  0  0  0  0  0
  139.3212  158.3277  136.4254 H   0  0  0  0  0  0  0  0  0  0  0  0
  139.7127  156.5746  136.4254 H   0  0  0  0  0  0  0  0  0  0  0  0
  1  2  1  0
  2  3  1  0
  3  4  1  0
  4  5  2  0
  5  6  1  0
  6  7  2  0
  7  8  1  0
  8  9  2  0
  9 10  1  0
 10 11  1  0
 10 12  2  0
  9 13  1  0
 13 14  1  0
 14 15  1  0
 14 16  2  0
 13 17  1  0
 17 18  2  0
  2 19  1  0
 19 20  1  0
 19 21  1  0
 21 22  2  0
 21 23  1  0
 23 24  1  0
 24 25  1  0
 24 26  1  0
 24 27  1  0
 18  4  1  0
 17  7  1  0
  1 28  1  0
  1 29  1  0
  1 30  1  0
  2 31  1  1
  3 32  1  0
  3 33  1  0
  5 34  1  0
  6 35  1  0
  8 36  1  0
 11 37  1  0
 15 38  1  0
 18 39  1  0
 20 40  1  0
 20 41  1  0
 20 42  1  0
 25 43  1  0
 25 44  1  0
 25 45  1  0
 26 46  1  0
 26 47  1  0
 26 48  1  0
 27 49  1  0
 27 50  1  0
 27 51  1  0
M  CHG  2  11  -1  15  -1
M  END
>  <UniqueID>  (43) 
42

>  <SMILES>  (43) 
C[C@H](Cc1ccc2cc(C([NH-])=O)n(C([NH-])=O)c2c1)N(C)C(=O)OC(C)(C)C

>  <Energy>  (43) 
78.96547810948425

>  <Genealogy>  (43) 
C[C@H](Cc1ccc2cc(C([NH-])=O)n(C([NH-])=O)c2c1)N(C)C(=O)OC(C)(C)C (protonated)
C[C@H](Cc1ccc2cc(C([NH-])=O)n(C([NH-])=O)c2c1)N(C)C(=O)OC(C)(C)C (3D coordinates assigned)
C[C@H](Cc1ccc2cc(C([NH-])=O)n(C([NH-])=O)c2c1)N(C)C(=O)OC(C)(C)C (optimized conformer: 78.96547810948425 kcal/mol)

>  <smiles>  (43) 
C[C@H](Cc1ccc2cc(C(N)=O)n(C(N)=O)c2c1)N(C)C(=O)OC(C)(C)C

>  <score_type>  (43) 
oracle

>  <origin>  (43) 
adg

>  <m_score__min__energy>  (43) 
-7.9100000000000001

>  <m_primary>  (43) 
energy

$$$$
43:0
     RDKit          3D

 43 45  0  0  0  0  0  0  0  0999 V2000
  141.2430  157.1910  135.0400 C   0  0  0  0  0  0  0  0  0  0  0  0
  141.6100  158.6860  134.9870 C   0  0  0  0  0  0  0  0  0  0  0  0
  141.2010  159.3440  136.3140 C   0  0  0  0  0  0  0  0  0  0  0  0
  140.8680  159.3880  133.8340 C   0  0  0  0  0  0  0  0  0  0  0  0
  143.0280  158.8560  134.8510 O   0  0  0  0  0  0  0  0  0  0  0  0
  143.7900  158.6080  133.6990 C   0  0  0  0  0  0  0  0  0  0  0  0
  143.3040  157.9690  132.7280 O   0  0  0  0  0  0  0  0  0  0  0  0
  145.1330  159.1080  133.6210 N   0  0  0  0  0  0  0  0  0  0  0  0
  145.5390  160.4090  133.6380 C   0  0  0  0  0  0  0  0  0  0  0  0
  144.6850  161.5800  133.9210 C   0  0  0  0  0  0  0  0  0  0  0  0
  143.2740  161.5240  133.7250 N   0  0  0  0  0  0  0  0  0  0  0  0
  145.2010  162.6300  134.3910 O   0  0  0  0  0  0  0  0  0  0  0  0
  146.9130  160.4960  133.4220 C   0  0  0  0  0  0  0  0  0  0  0  0
  147.3420  159.1960  133.2800 C   0  0  0  0  0  0  0  0  0  0  0  0
  148.6170  158.6990  133.0350 C   0  0  0  0  0  0  0  0  0  0  0  0
  148.7670  157.3090  132.8990 C   0  0  0  0  0  0  0  0  0  0  0  0
  147.6460  156.4420  133.0020 C   0  0  0  0  0  0  0  0  0  0  0  0
  147.8150  154.9750  132.8430 C   0  0  0  0  0  0  0  0  0  0  0  0
  146.7080  154.1130  132.9230 C   0  0  0  0  0  0  0  0  0  0  0  0
  146.8890  152.7370  132.7710 C   0  0  0  0  0  0  0  0  0  0  0  0
  148.1310  152.2330  132.5450 N   0  0  0  0  0  0  0  0  0  0  0  0
  149.2220  153.0390  132.4630 C   0  0  0  0  0  0  0  0  0  0  0  0
  149.0850  154.4210  132.6100 C   0  0  0  0  0  0  0  0  0  0  0  0
  146.3660  156.9910  133.2520 C   0  0  0  0  0  0  0  0  0  0  0  0
  146.2500  158.3780  133.4020 C   0  0  0  0  0  0  0  0  0  0  0  0
  141.1641  156.8698  136.0891 H   0  0  0  0  0  0  0  0  0  0  0  0
  140.2791  157.0319  134.5344 H   0  0  0  0  0  0  0  0  0  0  0  0
  142.0236  156.6037  134.5344 H   0  0  0  0  0  0  0  0  0  0  0  0
  141.5762  158.7404  137.1535 H   0  0  0  0  0  0  0  0  0  0  0  0
  141.6298  160.3555  136.3692 H   0  0  0  0  0  0  0  0  0  0  0  0
  140.1042  159.4072  136.3692 H   0  0  0  0  0  0  0  0  0  0  0  0
  140.1275  160.0886  134.2473 H   0  0  0  0  0  0  0  0  0  0  0  0
  141.5906  159.9408  133.2157 H   0  0  0  0  0  0  0  0  0  0  0  0
  140.3561  158.6359  133.2157 H   0  0  0  0  0  0  0  0  0  0  0  0
  142.7830  160.6110  133.6020 H   0  0  0  0  0  0  0  0  0  0  0  0
  147.5244  161.4092  133.3750 H   0  0  0  0  0  0  0  0  0  0  0  0
  149.4818  159.3735  132.9503 H   0  0  0  0  0  0  0  0  0  0  0  0
  149.7649  156.8864  132.7104 H   0  0  0  0  0  0  0  0  0  0  0  0
  145.7027  154.5209  133.1047 H   0  0  0  0  0  0  0  0  0  0  0  0
  146.0248  152.0594  132.8342 H   0  0  0  0  0  0  0  0  0  0  0  0
  150.2149  152.6021  132.2805 H   0  0  0  0  0  0  0  0  0  0  0  0
  149.9681  155.0734  132.5436 H   0  0  0  0  0  0  0  0  0  0  0  0
  145.4811  156.3419  133.3269 H   0  0  0  0  0  0  0  0  0  0  0  0
  1  2  1  0
  2  3  1  0
  2  4  1  0
  2  5  1  0
  5  6  1  0
  6  7  2  0
  6  8  1  0
  8  9  1  0
  9 10  1  0
 10 11  1  0
 10 12  2  0
  9 13  2  0
 13 14  1  0
 14 15  2  0
 15 16  1  0
 16 17  2  0
 17 18  1  0
 18 19  2  0
 19 20  1  0
 20 21  2  0
 21 22  1  0
 22 23  2  0
 17 24  1  0
 24 25  2  0
 25  8  1  0
 25 14  1  0
 23 18  1  0
  1 26  1  0
  1 27  1  0
  1 28  1  0
  3 29  1  0
  3 30  1  0
  3 31  1  0
  4 32  1  0
  4 33  1  0
  4 34  1  0
 11 35  1  0
 13 36  1  0
 15 37  1  0
 16 38  1  0
 19 39  1  0
 20 40  1  0
 22 41  1  0
 23 42  1  0
 24 43  1  0
M  CHG  1  11  -1
M  END
>  <UniqueID>  (44) 
43

>  <SMILES>  (44) 
CC(C)(C)OC(=O)n1c(C([NH-])=O)cc2ccc(-c3ccncc3)cc21

>  <Energy>  (44) 
85.62345914694826

>  <Genealogy>  (44) 
CC(C)(C)OC(=O)n1c(C([NH-])=O)cc2ccc(-c3ccncc3)cc21 (protonated)
CC(C)(C)OC(=O)n1c(C([NH-])=O)cc2ccc(-c3ccncc3)cc21 (3D coordinates assigned)
CC(C)(C)OC(=O)n1c(C([NH-])=O)cc2ccc(-c3ccncc3)cc21 (optimized conformer: 85.62345914694826 kcal/mol)

>  <smiles>  (44) 
CC(C)(C)OC(=O)n1c(C(N)=O)cc2ccc(-c3ccncc3)cc21

>  <score_type>  (44) 
oracle

>  <origin>  (44) 
adg

>  <m_score__min__energy>  (44) 
-8.0099999999999998

>  <m_primary>  (44) 
energy

$$$$
44:0
     RDKit          3D

 41 43  0  0  0  0  0  0  0  0999 V2000
  142.3310  157.9730  133.2760 C   0  0  0  0  0  0  0  0  0  0  0  0
  143.5720  158.1850  132.6140 O   0  0  0  0  0  0  0  0  0  0  0  0
  144.7280  158.5870  133.2900 C   0  0  0  0  0  0  0  0  0  0  0  0
  144.7560  159.6910  133.8980 O   0  0  0  0  0  0  0  0  0  0  0  0
  145.8920  157.7440  133.2780 N   0  0  0  0  0  0  0  0  0  0  0  0
  147.2000  158.1300  133.2870 C   0  0  0  0  0  0  0  0  0  0  0  0
  147.6850  159.5170  133.4630 C   0  0  0  0  0  0  0  0  0  0  0  0
  146.9840  160.6150  132.8760 N   0  0  0  0  0  0  0  0  0  0  0  0
  148.7430  159.7400  134.1090 O   0  0  0  0  0  0  0  0  0  0  0  0
  148.0370  157.0190  133.2030 C   0  0  0  0  0  0  0  0  0  0  0  0
  147.1950  155.9320  133.1430 C   0  0  0  0  0  0  0  0  0  0  0  0
  147.4920  154.5770  133.0420 C   0  0  0  0  0  0  0  0  0  0  0  0
  146.4210  153.6710  132.9720 C   0  0  0  0  0  0  0  0  0  0  0  0
  145.0770  154.1290  132.9960 C   0  0  0  0  0  0  0  0  0  0  0  0
  143.9540  153.1630  132.9080 C   0  0  0  0  0  0  0  0  0  0  0  0
  142.6200  153.6020  132.9510 C   0  0  0  0  0  0  0  0  0  0  0  0
  141.5740  152.6810  132.8670 C   0  0  0  0  0  0  0  0  0  0  0  0
  141.8660  151.3210  132.7420 C   0  0  0  0  0  0  0  0  0  0  0  0
  140.5700  150.1430  132.6270 S   0  0  0  0  0  0  0  0  0  0  0  0
  140.9970  148.8950  131.4350 C   0  0  0  0  0  0  0  0  0  0  0  0
  139.2990  150.8320  132.2130 O   0  0  0  0  0  0  0  0  0  0  0  0
  140.3590  149.4950  133.9670 O   0  0  0  0  0  0  0  0  0  0  0  0
  143.1600  150.9080  132.7030 N   0  0  0  0  0  0  0  0  0  0  0  0
  144.1960  151.7850  132.7800 C   0  0  0  0  0  0  0  0  0  0  0  0
  144.8200  155.5170  133.1010 C   0  0  0  0  0  0  0  0  0  0  0  0
  145.9060  156.3950  133.1870 C   0  0  0  0  0  0  0  0  0  0  0  0
  142.4869  157.9996  134.3646 H   0  0  0  0  0  0  0  0  0  0  0  0
  141.6220  158.7630  132.9877 H   0  0  0  0  0  0  0  0  0  0  0  0
  141.9244  156.9924  132.9877 H   0  0  0  0  0  0  0  0  0  0  0  0
  146.0770  160.4780  132.3810 H   0  0  0  0  0  0  0  0  0  0  0  0
  147.3570  161.5860  132.9730 H   0  0  0  0  0  0  0  0  0  0  0  0
  149.1369  157.0122  133.1879 H   0  0  0  0  0  0  0  0  0  0  0  0
  148.5341  154.2255  133.0177 H   0  0  0  0  0  0  0  0  0  0  0  0
  146.6259  152.5928  132.8976 H   0  0  0  0  0  0  0  0  0  0  0  0
  142.3990  154.6749  133.0512 H   0  0  0  0  0  0  0  0  0  0  0  0
  140.5292  153.0235  132.8990 H   0  0  0  0  0  0  0  0  0  0  0  0
  141.3102  147.9797  131.9586 H   0  0  0  0  0  0  0  0  0  0  0  0
  140.1227  148.6758  130.8044 H   0  0  0  0  0  0  0  0  0  0  0  0
  141.8223  149.2573  130.8044 H   0  0  0  0  0  0  0  0  0  0  0  0
  145.2306  151.4132  132.7418 H   0  0  0  0  0  0  0  0  0  0  0  0
  143.7880  155.8974  133.1147 H   0  0  0  0  0  0  0  0  0  0  0  0
  1  2  1  0
  2  3  1  0
  3  4  2  0
  3  5  1  0
  5  6  1  0
  6  7  1  0
  7  8  1  0
  7  9  2  0
  6 10  2  0
 10 11  1  0
 11 12  2  0
 12 13  1  0
 13 14  2  0
 14 15  1  0
 15 16  2  0
 16 17  1  0
 17 18  2  0
 18 19  1  0
 19 20  1  0
 19 21  2  0
 19 22  2  0
 18 23  1  0
 23 24  2  0
 14 25  1  0
 25 26  2  0
 26  5  1  0
 26 11  1  0
 24 15  1  0
  1 27  1  0
  1 28  1  0
  1 29  1  0
  8 30  1  0
  8 31  1  0
 10 32  1  0
 12 33  1  0
 13 34  1  0
 16 35  1  0
 17 36  1  0
 20 37  1  0
 20 38  1  0
 20 39  1  0
 24 40  1  0
 25 41  1  0
M  END
>  <UniqueID>  (45) 
44

>  <SMILES>  (45) 
COC(=O)n1c(C(N)=O)cc2ccc(-c3ccc(S(C)(=O)=O)nc3)cc21

>  <Energy>  (45) 
82.9393129604866

>  <Genealogy>  (45) 
COC(=O)n1c(C(N)=O)cc2ccc(-c3ccc(S(C)(=O)=O)nc3)cc21 (3D coordinates assigned)
COC(=O)n1c(C(N)=O)cc2ccc(-c3ccc(S(C)(=O)=O)nc3)cc21 (optimized conformer: 82.9393129604866 kcal/mol)

>  <smiles>  (45) 
COC(=O)n1c(C(N)=O)cc2ccc(-c3ccc(S(C)(=O)=O)nc3)cc21

>  <score_type>  (45) 
oracle

>  <origin>  (45) 
adg

>  <m_score__min__energy>  (45) 
-8.3100000000000005

>  <m_primary>  (45) 
energy

$$$$
45:0
     RDKit          3D

 26 27  0  0  0  0  0  0  0  0999 V2000
  149.3940  161.9880  130.3120 C   0  0  0  0  0  0  0  0  0  0  0  0
  149.1760  160.7200  131.0830 C   0  0  0  0  0  0  0  0  0  0  0  0
  150.1840  159.7260  131.1140 C   0  0  0  0  0  0  0  0  0  0  0  0
  149.9730  158.5140  131.7900 C   0  0  0  0  0  0  0  0  0  0  0  0
  148.7460  158.3230  132.4200 C   0  0  0  0  0  0  0  0  0  0  0  0
  148.2680  157.2330  133.1090 C   0  0  0  0  0  0  0  0  0  0  0  0
  146.9780  157.5830  133.5000 C   0  0  0  0  0  0  0  0  0  0  0  0
  146.1200  156.7160  134.3310 C   0  0  0  0  0  0  0  0  0  0  0  0
  144.7010  156.7050  134.1670 N   0  0  0  0  0  0  0  0  0  0  0  0
  146.6420  156.0160  135.2390 O   0  0  0  0  0  0  0  0  0  0  0  0
  146.6630  158.8330  133.0590 N   0  0  0  0  0  0  0  0  0  0  0  0
  145.3920  159.5000  133.1520 C   0  0  0  0  0  0  0  0  0  0  0  0
  145.2900  160.7630  133.8070 N   0  0  0  0  0  0  0  0  0  0  0  0
  144.3580  158.9680  132.6670 O   0  0  0  0  0  0  0  0  0  0  0  0
  147.7590  159.2760  132.4010 C   0  0  0  0  0  0  0  0  0  0  0  0
  147.9360  160.4850  131.7170 C   0  0  0  0  0  0  0  0  0  0  0  0
  149.5376  162.8234  131.0131 H   0  0  0  0  0  0  0  0  0  0  0  0
  150.2873  161.8831  129.6787 H   0  0  0  0  0  0  0  0  0  0  0  0
  148.5170  162.1875  129.6787 H   0  0  0  0  0  0  0  0  0  0  0  0
  151.1417  159.9053  130.6034 H   0  0  0  0  0  0  0  0  0  0  0  0
  150.7530  157.7390  131.8211 H   0  0  0  0  0  0  0  0  0  0  0  0
  148.7925  156.2869  133.3086 H   0  0  0  0  0  0  0  0  0  0  0  0
  144.2250  157.3900  133.5400 H   0  0  0  0  0  0  0  0  0  0  0  0
  144.1120  156.0570  134.7380 H   0  0  0  0  0  0  0  0  0  0  0  0
  145.5580  161.6440  133.3160 H   0  0  0  0  0  0  0  0  0  0  0  0
  147.1301  161.2324  131.6746 H   0  0  0  0  0  0  0  0  0  0  0  0
  1  2  1  0
  2  3  2  0
  3  4  1  0
  4  5  2  0
  5  6  1  0
  6  7  2  0
  7  8  1  0
  8  9  1  0
  8 10  2  0
  7 11  1  0
 11 12  1  0
 12 13  1  0
 12 14  2  0
 11 15  1  0
 15 16  2  0
 16  2  1  0
 15  5  1  0
  1 17  1  0
  1 18  1  0
  1 19  1  0
  3 20  1  0
  4 21  1  0
  6 22  1  0
  9 23  1  0
  9 24  1  0
 13 25  1  0
 16 26  1  0
M  CHG  1  13  -1
M  END
>  <UniqueID>  (46) 
45

>  <SMILES>  (46) 
Cc1ccc2cc(C(N)=O)n(C([NH-])=O)c2c1

>  <Energy>  (46) 
65.3014278075573

>  <Genealogy>  (46) 
Cc1ccc2cc(C(N)=O)n(C([NH-])=O)c2c1 (protonated)
Cc1ccc2cc(C(N)=O)n(C([NH-])=O)c2c1 (3D coordinates assigned)
Cc1ccc2cc(C(N)=O)n(C([NH-])=O)c2c1 (optimized conformer: 65.3014278075573 kcal/mol)

>  <smiles>  (46) 
Cc1ccc2cc(C(N)=O)n(C(N)=O)c2c1

>  <score_type>  (46) 
oracle

>  <origin>  (46) 
adg

>  <m_score__min__energy>  (46) 
-6.2699999999999996

>  <m_primary>  (46) 
energy

$$$$
46:0
     RDKit          3D

 40 42  0  0  0  0  0  0  0  0999 V2000
  141.9780  151.9520  133.2420 C   0  0  0  0  0  0  0  0  0  0  0  0
  141.3180  153.2880  133.1960 C   0  0  0  0  0  0  0  0  0  0  0  0
  141.9720  154.4480  133.4140 N   0  0  0  0  0  0  0  0  0  0  0  0
  141.0030  155.3780  133.3010 C   0  0  0  0  0  0  0  0  0  0  0  0
  141.2360  156.8350  133.4600 C   0  0  0  0  0  0  0  0  0  0  0  0
  140.1350  157.7010  133.6890 C   0  0  0  0  0  0  0  0  0  0  0  0
  140.3260  159.0830  133.8540 C   0  0  0  0  0  0  0  0  0  0  0  0
  141.6240  159.5750  133.7800 C   0  0  0  0  0  0  0  0  0  0  0  0
  142.0930  160.8610  133.9270 C   0  0  0  0  0  0  0  0  0  0  0  0
  143.4730  160.7710  133.7640 C   0  0  0  0  0  0  0  0  0  0  0  0
  144.3710  161.9450  133.7590 C   0  0  0  0  0  0  0  0  0  0  0  0
  145.7460  161.7870  134.1020 N   0  0  0  0  0  0  0  0  0  0  0  0
  143.9290  163.0930  133.4920 O   0  0  0  0  0  0  0  0  0  0  0  0
  143.8440  159.4790  133.5330 N   0  0  0  0  0  0  0  0  0  0  0  0
  145.1750  158.9580  133.3890 C   0  0  0  0  0  0  0  0  0  0  0  0
  145.5530  157.9910  134.1050 O   0  0  0  0  0  0  0  0  0  0  0  0
  146.0820  159.5630  132.4610 N   0  0  0  0  0  0  0  0  0  0  0  0
  147.5340  159.5460  132.6140 C   0  0  0  0  0  0  0  0  0  0  0  0
  148.0600  158.1120  132.5080 C   0  0  0  0  0  0  0  0  0  0  0  0
  148.1610  160.4280  131.5340 C   0  0  0  0  0  0  0  0  0  0  0  0
  142.7000  158.7610  133.5420 C   0  0  0  0  0  0  0  0  0  0  0  0
  142.5420  157.3780  133.3910 C   0  0  0  0  0  0  0  0  0  0  0  0
  139.8030  154.7470  133.0250 C   0  0  0  0  0  0  0  0  0  0  0  0
  140.0360  153.4600  132.9710 O   0  0  0  0  0  0  0  0  0  0  0  0
  142.1261  151.6521  134.2899 H   0  0  0  0  0  0  0  0  0  0  0  0
  141.3422  151.2113  132.7350 H   0  0  0  0  0  0  0  0  0  0  0  0
  142.9527  152.0069  132.7350 H   0  0  0  0  0  0  0  0  0  0  0  0
  139.1182  157.2843  133.7379 H   0  0  0  0  0  0  0  0  0  0  0  0
  139.4745  159.7552  134.0362 H   0  0  0  0  0  0  0  0  0  0  0  0
  141.5031  161.7669  134.1300 H   0  0  0  0  0  0  0  0  0  0  0  0
  146.4520  161.5160  133.3820 H   0  0  0  0  0  0  0  0  0  0  0  0
  147.8051  159.9379  133.6054 H   0  0  0  0  0  0  0  0  0  0  0  0
  148.2107  157.7012  133.5172 H   0  0  0  0  0  0  0  0  0  0  0  0
  147.3304  157.4930  131.9653 H   0  0  0  0  0  0  0  0  0  0  0  0
  149.0168  158.1116  131.9653 H   0  0  0  0  0  0  0  0  0  0  0  0
  148.7358  161.2366  132.0090 H   0  0  0  0  0  0  0  0  0  0  0  0
  148.8312  159.8206  130.9079 H   0  0  0  0  0  0  0  0  0  0  0  0
  147.3671  160.8614  130.9079 H   0  0  0  0  0  0  0  0  0  0  0  0
  143.4131  156.7277  133.2225 H   0  0  0  0  0  0  0  0  0  0  0  0
  138.8297  155.2378  132.8777 H   0  0  0  0  0  0  0  0  0  0  0  0
  1  2  1  0
  2  3  2  0
  3  4  1  0
  4  5  1  0
  5  6  2  0
  6  7  1  0
  7  8  2  0
  8  9  1  0
  9 10  2  0
 10 11  1  0
 11 12  1  0
 11 13  2  0
 10 14  1  0
 14 15  1  0
 15 16  2  0
 15 17  1  0
 17 18  1  0
 18 19  1  0
 18 20  1  0
 14 21  1  0
 21 22  2  0
  4 23  2  0
 23 24  1  0
 24  2  1  0
 22  5  1  0
 21  8  1  0
  1 25  1  0
  1 26  1  0
  1 27  1  0
  6 28  1  0
  7 29  1  0
  9 30  1  0
 12 31  1  0
 18 32  1  0
 19 33  1  0
 19 34  1  0
 19 35  1  0
 20 36  1  0
 20 37  1  0
 20 38  1  0
 22 39  1  0
 23 40  1  0
M  CHG  2  12  -1  17  -1
M  END
>  <UniqueID>  (47) 
46

>  <SMILES>  (47) 
Cc1nc(-c2ccc3cc(C([NH-])=O)n(C(=O)[N-]C(C)C)c3c2)co1

>  <Energy>  (47) 
103.89303261266728

>  <Genealogy>  (47) 
Cc1nc(-c2ccc3cc(C([NH-])=O)n(C(=O)[N-]C(C)C)c3c2)co1 (protonated)
Cc1nc(-c2ccc3cc(C([NH-])=O)n(C(=O)[N-]C(C)C)c3c2)co1 (3D coordinates assigned)
Cc1nc(-c2ccc3cc(C([NH-])=O)n(C(=O)[N-]C(C)C)c3c2)co1 (optimized conformer: 103.89303261266728 kcal/mol)

>  <smiles>  (47) 
Cc1nc(-c2ccc3cc(C(N)=O)n(C(=O)NC(C)C)c3c2)co1

>  <score_type>  (47) 
oracle

>  <origin>  (47) 
adg

>  <m_score__min__energy>  (47) 
-7.7599999999999998

>  <m_primary>  (47) 
energy

$$$$
47:0
     RDKit          3D

 54 56  0  0  0  0  0  0  0  0999 V2000
  144.3790  161.3010  134.1270 C   0  0  0  0  0  0  0  0  0  0  0  0
  143.4390  160.3710  133.9600 C   0  0  0  0  0  0  0  0  0  0  0  0
  142.0850  160.5580  134.3470 N   0  0  0  0  0  0  0  0  0  0  0  0
  141.3300  159.3530  134.0110 C   0  0  2  0  0  0  0  0  0  0  0  0
  140.2830  159.6920  133.0340 C   0  0  0  0  0  0  0  0  0  0  0  0
  139.4600  159.9580  132.2640 N   0  0  0  0  0  0  0  0  0  0  0  0
  140.7030  158.7320  135.2820 C   0  0  0  0  0  0  0  0  0  0  0  0
  141.5220  158.9880  136.5520 C   0  0  0  0  0  0  0  0  0  0  0  0
  142.3750  158.4640  133.3720 C   0  0  0  0  0  0  0  0  0  0  0  0
  142.1490  157.2220  132.9280 C   0  0  0  0  0  0  0  0  0  0  0  0
  143.6550  159.1070  133.3400 N   0  0  0  0  0  0  0  0  0  0  0  0
  144.9210  158.4510  133.1660 C   0  0  0  0  0  0  0  0  0  0  0  0
  146.0170  159.1560  132.6160 C   0  0  0  0  0  0  0  0  0  0  0  0
  147.2560  158.5200  132.4370 C   0  0  0  0  0  0  0  0  0  0  0  0
  147.3680  157.1880  132.8260 C   0  0  0  0  0  0  0  0  0  0  0  0
  148.4450  156.3400  132.7540 C   0  0  0  0  0  0  0  0  0  0  0  0
  147.9930  155.1280  133.2630 C   0  0  0  0  0  0  0  0  0  0  0  0
  148.8550  153.9400  133.3670 C   0  0  0  0  0  0  0  0  0  0  0  0
  148.5460  152.9000  134.2900 N   0  0  0  0  0  0  0  0  0  0  0  0
  149.8250  153.8030  132.5740 O   0  0  0  0  0  0  0  0  0  0  0  0
  146.6910  155.2200  133.6650 N   0  0  0  0  0  0  0  0  0  0  0  0
  145.9250  154.2370  134.3920 C   0  0  0  0  0  0  0  0  0  0  0  0
  146.3630  153.7810  135.4820 O   0  0  0  0  0  0  0  0  0  0  0  0
  144.7130  153.7630  133.8680 O   0  0  0  0  0  0  0  0  0  0  0  0
  144.5320  153.0660  132.6270 C   0  0  0  0  0  0  0  0  0  0  0  0
  145.7740  152.2150  132.2970 C   0  0  0  0  0  0  0  0  0  0  0  0
  143.2680  152.1870  132.6750 C   0  0  0  0  0  0  0  0  0  0  0  0
  144.3550  154.1290  131.5320 C   0  0  0  0  0  0  0  0  0  0  0  0
  146.3190  156.4930  133.3760 C   0  0  0  0  0  0  0  0  0  0  0  0
  145.0680  157.1010  133.5470 C   0  0  0  0  0  0  0  0  0  0  0  0
  145.4127  161.1016  133.8083 H   0  0  0  0  0  0  0  0  0  0  0  0
  144.1211  162.2680  134.5836 H   0  0  0  0  0  0  0  0  0  0  0  0
  141.6950  161.4110  134.8100 H   0  0  0  0  0  0  0  0  0  0  0  0
  139.6999  159.1614  135.4215 H   0  0  0  0  0  0  0  0  0  0  0  0
  140.6716  157.6430  135.1298 H   0  0  0  0  0  0  0  0  0  0  0  0
  140.8977  158.7929  137.4364 H   0  0  0  0  0  0  0  0  0  0  0  0
  142.3960  158.3202  136.5655 H   0  0  0  0  0  0  0  0  0  0  0  0
  141.8601  160.0347  136.5655 H   0  0  0  0  0  0  0  0  0  0  0  0
  142.9669  156.6425  132.4750 H   0  0  0  0  0  0  0  0  0  0  0  0
  141.1453  156.7806  133.0160 H   0  0  0  0  0  0  0  0  0  0  0  0
  145.8978  160.2105  132.3263 H   0  0  0  0  0  0  0  0  0  0  0  0
  148.1118  159.0577  132.0028 H   0  0  0  0  0  0  0  0  0  0  0  0
  149.4514  156.5704  132.3744 H   0  0  0  0  0  0  0  0  0  0  0  0
  147.5990  152.4610  134.3080 H   0  0  0  0  0  0  0  0  0  0  0  0
  146.2526  151.8870  133.2315 H   0  0  0  0  0  0  0  0  0  0  0  0
  145.4702  151.3344  131.7120 H   0  0  0  0  0  0  0  0  0  0  0  0
  146.4855  152.8162  131.7120 H   0  0  0  0  0  0  0  0  0  0  0  0
  142.9937  151.9962  133.7230 H   0  0  0  0  0  0  0  0  0  0  0  0
  142.4411  152.7059  132.1681 H   0  0  0  0  0  0  0  0  0  0  0  0
  143.4666  151.2312  132.1681 H   0  0  0  0  0  0  0  0  0  0  0  0
  144.1913  155.1118  131.9981 H   0  0  0  0  0  0  0  0  0  0  0  0
  145.2594  154.1657  130.9069 H   0  0  0  0  0  0  0  0  0  0  0  0
  143.4875  153.8706  130.9069 H   0  0  0  0  0  0  0  0  0  0  0  0
  144.2213  156.5390  133.9681 H   0  0  0  0  0  0  0  0  0  0  0  0
  1  2  2  0
  2  3  1  0
  3  4  1  0
  4  5  1  6
  5  6  3  0
  4  7  1  0
  7  8  1  0
  4  9  1  0
  9 10  2  0
  9 11  1  0
 11 12  1  0
 12 13  2  0
 13 14  1  0
 14 15  2  0
 15 16  1  0
 16 17  2  0
 17 18  1  0
 18 19  1  0
 18 20  2  0
 17 21  1  0
 21 22  1  0
 22 23  2  0
 22 24  1  0
 24 25  1  0
 25 26  1  0
 25 27  1  0
 25 28  1  0
 21 29  1  0
 29 30  2  0
 11  2  1  0
 30 12  1  0
 29 15  1  0
  1 31  1  0
  1 32  1  0
  3 33  1  0
  7 34  1  0
  7 35  1  0
  8 36  1  0
  8 37  1  0
  8 38  1  0
 10 39  1  0
 10 40  1  0
 13 41  1  0
 14 42  1  0
 16 43  1  0
 19 44  1  0
 26 45  1  0
 26 46  1  0
 26 47  1  0
 27 48  1  0
 27 49  1  0
 27 50  1  0
 28 51  1  0
 28 52  1  0
 28 53  1  0
 30 54  1  0
M  CHG  1  19  -1
M  END
>  <UniqueID>  (48) 
47

>  <SMILES>  (48) 
C=C1N[C@](C#N)(CC)C(=C)N1c1ccc2cc(C([NH-])=O)n(C(=O)OC(C)(C)C)c2c1

>  <Energy>  (48) 
111.91896911537222

>  <Genealogy>  (48) 
C=C1NC(C#N)(CC)C(=C)N1c1ccc2cc(C([NH-])=O)n(C(=O)OC(C)(C)C)c2c1 (protonated)
C=C1N[C@](C#N)(CC)C(=C)N1c1ccc2cc(C([NH-])=O)n(C(=O)OC(C)(C)C)c2c1 (chirality)
C=C1N[C@](C#N)(CC)C(=C)N1c1ccc2cc(C([NH-])=O)n(C(=O)OC(C)(C)C)c2c1 (3D coordinates assigned)
C=C1N[C@](C#N)(CC)C(=C)N1c1ccc2cc(C([NH-])=O)n(C(=O)OC(C)(C)C)c2c1 (nonaromatic ring conformer: 111.91896911537222 kcal/mol)

>  <smiles>  (48) 
C=C1NC(C#N)(CC)C(=C)N1c1ccc2cc(C(N)=O)n(C(=O)OC(C)(C)C)c2c1

>  <score_type>  (48) 
oracle

>  <origin>  (48) 
adg

>  <m_score__min__energy>  (48) 
-9.0600000000000005

>  <m_primary>  (48) 
energy

$$$$
48:0
     RDKit          3D

 45 47  0  0  0  0  0  0  0  0999 V2000
  141.4480  153.1730  132.6290 C   0  0  0  0  0  0  0  0  0  0  0  0
  141.7410  151.8490  133.3620 C   0  0  0  0  0  0  0  0  0  0  0  0
  140.7030  150.7760  132.9830 C   0  0  0  0  0  0  0  0  0  0  0  0
  143.1370  151.3550  132.9540 C   0  0  0  0  0  0  0  0  0  0  0  0
  141.7630  152.0530  134.7810 O   0  0  0  0  0  0  0  0  0  0  0  0
  142.4190  153.0900  135.4630 C   0  0  0  0  0  0  0  0  0  0  0  0
  143.5280  153.5310  135.0590 O   0  0  0  0  0  0  0  0  0  0  0  0
  141.8270  153.6310  136.6530 N   0  0  0  0  0  0  0  0  0  0  0  0
  141.2600  152.9530  137.6920 C   0  0  0  0  0  0  0  0  0  0  0  0
  141.2810  151.4880  137.8890 C   0  0  0  0  0  0  0  0  0  0  0  0
  140.6020  150.6170  136.9890 N   0  0  0  0  0  0  0  0  0  0  0  0
  141.9470  150.9960  138.8390 O   0  0  0  0  0  0  0  0  0  0  0  0
  140.7120  153.8430  138.6140 C   0  0  0  0  0  0  0  0  0  0  0  0
  140.9710  155.0970  138.1100 C   0  0  0  0  0  0  0  0  0  0  0  0
  140.6370  156.3500  138.6120 C   0  0  0  0  0  0  0  0  0  0  0  0
  141.0050  157.4800  137.8610 C   0  0  0  0  0  0  0  0  0  0  0  0
  141.6900  157.3370  136.6280 C   0  0  0  0  0  0  0  0  0  0  0  0
  142.0510  158.5510  135.8120 C   0  0  0  0  0  0  0  0  0  0  0  0
  141.3020  158.5900  134.4710 C   0  0  2  0  0  0  0  0  0  0  0  0
  139.6510  157.8000  134.6760 S   0  0  0  0  0  0  0  0  0  0  0  0
  140.1300  156.4890  133.5640 C   0  0  0  0  0  0  0  0  0  0  0  0
  139.4070  155.4810  133.3550 O   0  0  0  0  0  0  0  0  0  0  0  0
  141.3870  156.6480  132.9400 N   0  0  0  0  0  0  0  0  0  0  0  0
  142.0250  157.8250  133.4000 C   0  0  0  0  0  0  0  0  0  0  0  0
  143.1210  158.2080  132.9140 O   0  0  0  0  0  0  0  0  0  0  0  0
  142.0090  156.0470  136.1490 C   0  0  0  0  0  0  0  0  0  0  0  0
  141.6460  154.9410  136.9260 C   0  0  0  0  0  0  0  0  0  0  0  0
  141.2717  153.9694  133.3670 H   0  0  0  0  0  0  0  0  0  0  0  0
  142.3085  153.4413  131.9985 H   0  0  0  0  0  0  0  0  0  0  0  0
  140.5547  153.0531  131.9985 H   0  0  0  0  0  0  0  0  0  0  0  0
  140.2785  150.3372  133.8980 H   0  0  0  0  0  0  0  0  0  0  0  0
  139.8991  151.2367  132.3902 H   0  0  0  0  0  0  0  0  0  0  0  0
  141.1901  149.9878  132.3902 H   0  0  0  0  0  0  0  0  0  0  0  0
  143.7299  151.1452  133.8564 H   0  0  0  0  0  0  0  0  0  0  0  0
  143.0408  150.4363  132.3567 H   0  0  0  0  0  0  0  0  0  0  0  0
  143.6400  152.1297  132.3567 H   0  0  0  0  0  0  0  0  0  0  0  0
  140.9400  150.4850  136.0100 H   0  0  0  0  0  0  0  0  0  0  0  0
  140.1843  153.5955  139.5469 H   0  0  0  0  0  0  0  0  0  0  0  0
  140.1014  156.4538  139.5672 H   0  0  0  0  0  0  0  0  0  0  0  0
  140.7590  158.4852  138.2338 H   0  0  0  0  0  0  0  0  0  0  0  0
  141.7960  159.4534  136.3870 H   0  0  0  0  0  0  0  0  0  0  0  0
  143.1288  158.5060  135.5967 H   0  0  0  0  0  0  0  0  0  0  0  0
  141.2226  159.6462  134.1741 H   0  0  0  0  0  0  0  0  0  0  0  0
  141.7870  155.9930  132.2320 H   0  0  0  0  0  0  0  0  0  0  0  0
  142.5298  155.9150  135.1891 H   0  0  0  0  0  0  0  0  0  0  0  0
  1  2  1  0
  2  3  1  0
  2  4  1  0
  2  5  1  0
  5  6  1  0
  6  7  2  0
  6  8  1  0
  8  9  1  0
  9 10  1  0
 10 11  1  0
 10 12  2  0
  9 13  2  0
 13 14  1  0
 14 15  2  0
 15 16  1  0
 16 17  2  0
 17 18  1  0
 18 19  1  0
 19 20  1  0
 20 21  1  0
 21 22  2  0
 21 23  1  0
 23 24  1  0
 24 25  2  0
 17 26  1  0
 26 27  2  0
 27  8  1  0
 27 14  1  0
 24 19  1  0
  1 28  1  0
  1 29  1  0
  1 30  1  0
  3 31  1  0
  3 32  1  0
  3 33  1  0
  4 34  1  0
  4 35  1  0
  4 36  1  0
 11 37  1  0
 13 38  1  0
 15 39  1  0
 16 40  1  0
 18 41  1  0
 18 42  1  0
 19 43  1  6
 23 44  1  0
 26 45  1  0
M  CHG  1  11  -1
M  END
>  <UniqueID>  (49) 
48

>  <SMILES>  (49) 
CC(C)(C)OC(=O)n1c(C([NH-])=O)cc2ccc(C[C@@H]3SC(=O)NC3=O)cc21

>  <Energy>  (49) 
86.94076091664559

>  <Genealogy>  (49) 
CC(C)(C)OC(=O)n1c(C([NH-])=O)cc2ccc(CC3SC(=O)NC3=O)cc21 (protonated)
CC(C)(C)OC(=O)n1c(C([NH-])=O)cc2ccc(C[C@@H]3SC(=O)NC3=O)cc21 (chirality)
CC(C)(C)OC(=O)n1c(C([NH-])=O)cc2ccc(C[C@@H]3SC(=O)NC3=O)cc21 (3D coordinates assigned)
CC(C)(C)OC(=O)n1c(C([NH-])=O)cc2ccc(C[C@@H]3SC(=O)NC3=O)cc21 (nonaromatic ring conformer: 86.94076091664559 kcal/mol)

>  <smiles>  (49) 
CC(C)(C)OC(=O)n1c(C(N)=O)cc2ccc(CC3SC(=O)NC3=O)cc21

>  <score_type>  (49) 
oracle

>  <origin>  (49) 
adg

>  <m_score__min__energy>  (49) 
-8.7300000000000004

>  <m_primary>  (49) 
energy

$$$$
49:0
     RDKit          3D

 25 26  0  0  0  0  0  0  0  0999 V2000
  147.3660  155.4580  131.8790 N   0  0  0  0  0  0  0  0  0  0  0  0
  146.4030  155.6950  132.9060 C   0  0  0  0  0  0  0  0  0  0  0  0
  145.9040  154.7160  133.5230 O   0  0  0  0  0  0  0  0  0  0  0  0
  145.9310  157.0610  133.2120 C   0  0  0  0  0  0  0  0  0  0  0  0
  144.5920  157.3780  133.4180 C   0  0  0  0  0  0  0  0  0  0  0  0
  144.5670  158.7410  133.6110 C   0  0  0  0  0  0  0  0  0  0  0  0
  143.4960  159.5840  133.8860 C   0  0  0  0  0  0  0  0  0  0  0  0
  143.7650  160.9480  134.0880 C   0  0  0  0  0  0  0  0  0  0  0  0
  145.0920  161.4450  134.0040 C   0  0  0  0  0  0  0  0  0  0  0  0
  145.3750  162.8990  134.2880 C   0  0  0  0  0  0  0  0  0  0  0  0
  146.5870  163.2780  133.7370 F   0  0  0  0  0  0  0  0  0  0  0  0
  145.4280  163.1290  135.6510 F   0  0  0  0  0  0  0  0  0  0  0  0
  144.3690  163.6730  133.7390 F   0  0  0  0  0  0  0  0  0  0  0  0
  146.1570  160.5500  133.7500 C   0  0  0  0  0  0  0  0  0  0  0  0
  145.8570  159.2000  133.5300 C   0  0  0  0  0  0  0  0  0  0  0  0
  146.7090  158.1770  133.2890 N   0  0  0  0  0  0  0  0  0  0  0  0
  148.1450  158.2460  133.2460 C   0  0  0  0  0  0  0  0  0  0  0  0
  148.7890  158.7100  134.2230 O   0  0  0  0  0  0  0  0  0  0  0  0
  148.8380  157.8030  132.1250 O   0  0  0  0  0  0  0  0  0  0  0  0
  147.6690  156.2240  131.2380 H   0  0  0  0  0  0  0  0  0  0  0  0
  147.7150  154.4910  131.7010 H   0  0  0  0  0  0  0  0  0  0  0  0
  143.7360  156.6871  133.4251 H   0  0  0  0  0  0  0  0  0  0  0  0
  142.4689  159.1946  133.9437 H   0  0  0  0  0  0  0  0  0  0  0  0
  142.9386  161.6381  134.3136 H   0  0  0  0  0  0  0  0  0  0  0  0
  147.1975  160.9062  133.7258 H   0  0  0  0  0  0  0  0  0  0  0  0
  1  2  1  0
  2  3  2  0
  2  4  1  0
  4  5  2  0
  5  6  1  0
  6  7  2  0
  7  8  1  0
  8  9  2  0
  9 10  1  0
 10 11  1  0
 10 12  1  0
 10 13  1  0
  9 14  1  0
 14 15  2  0
 15 16  1  0
 16 17  1  0
 17 18  2  0
 17 19  1  0
 16  4  1  0
 15  6  1  0
  1 20  1  0
  1 21  1  0
  5 22  1  0
  7 23  1  0
  8 24  1  0
 14 25  1  0
M  CHG  1  19  -1
M  END
>  <UniqueID>  (50) 
49

>  <SMILES>  (50) 
NC(=O)c1cc2ccc(C(F)(F)F)cc2n1C(=O)[O-]

>  <Energy>  (50) 
66.34749041882516

>  <Genealogy>  (50) 
NC(=O)c1cc2ccc(C(F)(F)F)cc2n1C(=O)[O-] (protonated)
NC(=O)c1cc2ccc(C(F)(F)F)cc2n1C(=O)[O-] (3D coordinates assigned)
NC(=O)c1cc2ccc(C(F)(F)F)cc2n1C(=O)[O-] (optimized conformer: 66.34749041882516 kcal/mol)

>  <smiles>  (50) 
NC(=O)c1cc2ccc(C(F)(F)F)cc2n1C(=O)O

>  <score_type>  (50) 
oracle

>  <origin>  (50) 
adg

>  <m_score__min__energy>  (50) 
-5.3600000000000003

>  <m_primary>  (50) 
energy

$$$$
50:0
     RDKit          3D

 63 67  0  0  0  0  0  0  0  0999 V2000
  142.4310  153.3950  132.5840 C   0  0  0  0  0  0  0  0  0  0  0  0
  143.9470  153.6670  132.6210 C   0  0  0  0  0  0  0  0  0  0  0  0
  144.3380  154.4720  131.3720 C   0  0  0  0  0  0  0  0  0  0  0  0
  144.7370  152.3450  132.6260 C   0  0  0  0  0  0  0  0  0  0  0  0
  144.2860  154.4660  133.7640 O   0  0  0  0  0  0  0  0  0  0  0  0
  145.5710  154.6590  134.2920 C   0  0  0  0  0  0  0  0  0  0  0  0
  145.9630  154.0050  135.2940 O   0  0  0  0  0  0  0  0  0  0  0  0
  146.4420  155.6330  133.6940 N   0  0  0  0  0  0  0  0  0  0  0  0
  147.6460  155.4130  133.0910 C   0  0  0  0  0  0  0  0  0  0  0  0
  148.3790  154.1310  133.0580 C   0  0  0  0  0  0  0  0  0  0  0  0
  147.6700  152.9040  133.2130 N   0  0  0  0  0  0  0  0  0  0  0  0
  149.6210  154.1020  132.8570 O   0  0  0  0  0  0  0  0  0  0  0  0
  148.1530  156.5990  132.5670 C   0  0  0  0  0  0  0  0  0  0  0  0
  147.2200  157.5620  132.8760 C   0  0  0  0  0  0  0  0  0  0  0  0
  147.2150  158.9230  132.5910 C   0  0  0  0  0  0  0  0  0  0  0  0
  146.1110  159.6830  133.0140 C   0  0  0  0  0  0  0  0  0  0  0  0
  145.0250  159.0700  133.6990 C   0  0  0  0  0  0  0  0  0  0  0  0
  143.8660  159.8140  134.1320 N   0  0  0  0  0  0  0  0  0  0  0  0
  142.6120  159.9640  133.3850 C   0  0  0  0  0  0  0  0  0  0  0  0
  141.5890  158.8470  133.7180 C   0  0  1  0  0  0  0  0  0  0  0  0
  141.9490  157.5290  132.9710 C   0  0  0  0  0  0  0  0  0  0  0  0
  140.9480  156.4140  133.3440 C   0  0  2  0  0  0  0  0  0  0  0  0
  139.5200  156.8500  132.9460 C   0  0  0  0  0  0  0  0  0  0  0  0
  139.1450  158.1440  133.7010 C   0  0  1  0  0  0  0  0  0  0  0  0
  139.2020  157.8880  135.2210 C   0  0  0  0  0  0  0  0  0  0  0  0
  140.6280  157.4540  135.6190 C   0  0  1  0  0  0  0  0  0  0  0  0
  141.0040  156.1600  134.8660 C   0  0  0  0  0  0  0  0  0  0  0  0
  141.6270  158.5730  135.2500 C   0  0  0  0  0  0  0  0  0  0  0  0
  140.1420  159.2640  133.3280 C   0  0  0  0  0  0  0  0  0  0  0  0
  145.0740  157.6810  133.9650 C   0  0  0  0  0  0  0  0  0  0  0  0
  146.1980  156.9560  133.5540 C   0  0  0  0  0  0  0  0  0  0  0  0
  142.0457  153.3259  133.6120 H   0  0  0  0  0  0  0  0  0  0  0  0
  141.9238  154.2165  132.0568 H   0  0  0  0  0  0  0  0  0  0  0  0
  142.2411  152.4484  132.0568 H   0  0  0  0  0  0  0  0  0  0  0  0
  144.7996  155.4224  131.6780 H   0  0  0  0  0  0  0  0  0  0  0  0
  145.0550  153.8925  130.7719 H   0  0  0  0  0  0  0  0  0  0  0  0
  143.4393  154.6773  130.7719 H   0  0  0  0  0  0  0  0  0  0  0  0
  144.9234  152.0331  133.6643 H   0  0  0  0  0  0  0  0  0  0  0  0
  144.1550  151.5681  132.1087 H   0  0  0  0  0  0  0  0  0  0  0  0
  145.6969  152.4895  132.1087 H   0  0  0  0  0  0  0  0  0  0  0  0
  147.1690  152.6810  134.1000 H   0  0  0  0  0  0  0  0  0  0  0  0
  149.0984  156.7369  132.0219 H   0  0  0  0  0  0  0  0  0  0  0  0
  148.0507  159.3912  132.0503 H   0  0  0  0  0  0  0  0  0  0  0  0
  146.0863  160.7642  132.8132 H   0  0  0  0  0  0  0  0  0  0  0  0
  143.9210  160.3110  135.0500 H   0  0  0  0  0  0  0  0  0  0  0  0
  142.1659  160.9378  133.6353 H   0  0  0  0  0  0  0  0  0  0  0  0
  142.8492  159.8933  132.3132 H   0  0  0  0  0  0  0  0  0  0  0  0
  142.9644  157.2158  133.2555 H   0  0  0  0  0  0  0  0  0  0  0  0
  141.9008  157.7065  131.8865 H   0  0  0  0  0  0  0  0  0  0  0  0
  141.2117  155.4900  132.8086 H   0  0  0  0  0  0  0  0  0  0  0  0
  138.8076  156.0537  133.2077 H   0  0  0  0  0  0  0  0  0  0  0  0
  139.4829  157.0351  131.8623 H   0  0  0  0  0  0  0  0  0  0  0  0
  138.1268  158.4511  133.4201 H   0  0  0  0  0  0  0  0  0  0  0  0
  138.4899  157.0924  135.4853 H   0  0  0  0  0  0  0  0  0  0  0  0
  138.9378  158.8113  135.7574 H   0  0  0  0  0  0  0  0  0  0  0  0
  140.6655  157.2697  136.7028 H   0  0  0  0  0  0  0  0  0  0  0  0
  140.2942  155.3625  135.1308 H   0  0  0  0  0  0  0  0  0  0  0  0
  142.0221  155.8543  135.1490 H   0  0  0  0  0  0  0  0  0  0  0  0
  142.6422  158.2627  135.5381 H   0  0  0  0  0  0  0  0  0  0  0  0
  141.3481  159.4927  135.7852 H   0  0  0  0  0  0  0  0  0  0  0  0
  140.0958  159.4454  132.2440 H   0  0  0  0  0  0  0  0  0  0  0  0
  139.8731  160.1803  133.8739 H   0  0  0  0  0  0  0  0  0  0  0  0
  144.2440  157.1806  134.4852 H   0  0  0  0  0  0  0  0  0  0  0  0
  1  2  1  0
  2  3  1  0
  2  4  1  0
  2  5  1  0
  5  6  1  0
  6  7  2  0
  6  8  1  0
  8  9  1  0
  9 10  1  0
 10 11  1  0
 10 12  2  0
  9 13  2  0
 13 14  1  0
 14 15  2  0
 15 16  1  0
 16 17  2  0
 17 18  1  0
 18 19  1  0
 20 19  1  1
 20 21  1  0
 21 22  1  0
 22 23  1  0
 23 24  1  0
 24 25  1  0
 25 26  1  0
 26 27  1  0
 26 28  1  0
 24 29  1  0
 17 30  1  0
 30 31  2  0
 31  8  1  0
 31 14  1  0
 28 20  1  0
 29 20  1  0
 27 22  1  0
  1 32  1  0
  1 33  1  0
  1 34  1  0
  3 35  1  0
  3 36  1  0
  3 37  1  0
  4 38  1  0
  4 39  1  0
  4 40  1  0
 11 41  1  0
 13 42  1  0
 15 43  1  0
 16 44  1  0
 18 45  1  0
 19 46  1  0
 19 47  1  0
 21 48  1  0
 21 49  1  0
 22 50  1  6
 23 51  1  0
 23 52  1  0
 24 53  1  6
 25 54  1  0
 25 55  1  0
 26 56  1  1
 27 57  1  0
 27 58  1  0
 28 59  1  0
 28 60  1  0
 29 61  1  0
 29 62  1  0
 30 63  1  0
M  CHG  1  11  -1
M  END
>  <UniqueID>  (51) 
50

>  <SMILES>  (51) 
CC(C)(C)OC(=O)n1c(C([NH-])=O)cc2ccc(NCC34CC5CC(CC(C5)C3)C4)cc21

>  <Energy>  (51) 
98.50085610225257

>  <Genealogy>  (51) 
CC(C)(C)OC(=O)n1c(C([NH-])=O)cc2ccc(NCC34CC5CC(CC(C5)C3)C4)cc21 (protonated)
CC(C)(C)OC(=O)n1c(C([NH-])=O)cc2ccc(NCC34CC5CC(CC(C5)C3)C4)cc21 (3D coordinates assigned)
CC(C)(C)OC(=O)n1c(C([NH-])=O)cc2ccc(NCC34CC5CC(CC(C5)C3)C4)cc21 (nonaromatic ring conformer: 98.50085610225257 kcal/mol)

>  <smiles>  (51) 
CC(C)(C)OC(=O)n1c(C(N)=O)cc2ccc(NCC34CC5CC(CC(C5)C3)C4)cc21

>  <score_type>  (51) 
oracle

>  <origin>  (51) 
adg

>  <m_score__min__energy>  (51) 
-10.220000000000001

>  <m_primary>  (51) 
energy

$$$$
51:0
     RDKit          3D

 43 45  0  0  0  0  0  0  0  0999 V2000
  139.1250  146.2320  129.2690 C   0  0  0  0  0  0  0  0  0  0  0  0
  139.7310  146.8500  130.4420 N   0  0  0  0  0  0  0  0  0  0  0  0
  139.2100  148.0500  131.0180 C   0  0  0  0  0  0  0  0  0  0  0  0
  138.1930  148.6050  130.5200 O   0  0  0  0  0  0  0  0  0  0  0  0
  139.8500  148.6140  132.1670 N   0  0  0  0  0  0  0  0  0  0  0  0
  141.2890  148.8300  132.2650 C   0  0  0  0  0  0  0  0  0  0  0  0
  141.5830  150.2780  132.5540 C   0  0  0  0  0  0  0  0  0  0  0  0
  140.5430  151.2160  132.6290 C   0  0  0  0  0  0  0  0  0  0  0  0
  140.8240  152.5630  132.8740 C   0  0  0  0  0  0  0  0  0  0  0  0
  142.1520  152.9960  133.0450 C   0  0  0  0  0  0  0  0  0  0  0  0
  142.4510  154.4270  133.3030 C   0  0  0  0  0  0  0  0  0  0  0  0
  143.7430  154.9500  133.0370 C   0  0  0  0  0  0  0  0  0  0  0  0
  144.0330  156.3050  133.2650 C   0  0  0  0  0  0  0  0  0  0  0  0
  143.0190  157.1140  133.7690 C   0  0  0  0  0  0  0  0  0  0  0  0
  143.0210  158.4590  134.0540 C   0  0  0  0  0  0  0  0  0  0  0  0
  141.7380  158.7400  134.5190 C   0  0  0  0  0  0  0  0  0  0  0  0
  141.3270  160.0710  135.0150 C   0  0  0  0  0  0  0  0  0  0  0  0
  140.8090  160.2350  136.3330 N   0  0  0  0  0  0  0  0  0  0  0  0
  141.4770  161.0840  134.2810 O   0  0  0  0  0  0  0  0  0  0  0  0
  140.9700  157.6130  134.5140 N   0  0  0  0  0  0  0  0  0  0  0  0
  139.5760  157.4970  134.8390 C   0  0  0  0  0  0  0  0  0  0  0  0
  139.1010  157.8970  136.1210 N   0  0  0  0  0  0  0  0  0  0  0  0
  138.7670  157.0290  133.9940 O   0  0  0  0  0  0  0  0  0  0  0  0
  141.7700  156.6260  134.0520 C   0  0  0  0  0  0  0  0  0  0  0  0
  141.4470  155.2850  133.8150 C   0  0  0  0  0  0  0  0  0  0  0  0
  143.1910  152.0520  132.9640 C   0  0  0  0  0  0  0  0  0  0  0  0
  142.9080  150.7050  132.7190 C   0  0  0  0  0  0  0  0  0  0  0  0
  138.3883  145.4807  129.5897 H   0  0  0  0  0  0  0  0  0  0  0  0
  138.6234  147.0033  128.6661 H   0  0  0  0  0  0  0  0  0  0  0  0
  139.9060  145.7456  128.6661 H   0  0  0  0  0  0  0  0  0  0  0  0
  140.5730  146.4040  130.8720 H   0  0  0  0  0  0  0  0  0  0  0  0
  141.6945  148.2086  133.0771 H   0  0  0  0  0  0  0  0  0  0  0  0
  141.7575  148.5544  131.3087 H   0  0  0  0  0  0  0  0  0  0  0  0
  139.5011  150.8900  132.4943 H   0  0  0  0  0  0  0  0  0  0  0  0
  140.0008  153.2902  132.9336 H   0  0  0  0  0  0  0  0  0  0  0  0
  144.5278  154.2852  132.6470 H   0  0  0  0  0  0  0  0  0  0  0  0
  145.0314  156.7145  133.0517 H   0  0  0  0  0  0  0  0  0  0  0  0
  143.8578  159.1636  133.9393 H   0  0  0  0  0  0  0  0  0  0  0  0
  139.8510  159.9010  136.5790 H   0  0  0  0  0  0  0  0  0  0  0  0
  139.0850  158.9040  136.3980 H   0  0  0  0  0  0  0  0  0  0  0  0
  140.4354  154.9056  134.0219 H   0  0  0  0  0  0  0  0  0  0  0  0
  144.2342  152.3758  133.0944 H   0  0  0  0  0  0  0  0  0  0  0  0
  143.7295  149.9763  132.6553 H   0  0  0  0  0  0  0  0  0  0  0  0
  1  2  1  0
  2  3  1  0
  3  4  2  0
  3  5  1  0
  5  6  1  0
  6  7  1  0
  7  8  2  0
  8  9  1  0
  9 10  2  0
 10 11  1  0
 11 12  2  0
 12 13  1  0
 13 14  2  0
 14 15  1  0
 15 16  2  0
 16 17  1  0
 17 18  1  0
 17 19  2  0
 16 20  1  0
 20 21  1  0
 21 22  1  0
 21 23  2  0
 20 24  1  0
 24 25  2  0
 10 26  1  0
 26 27  2  0
 27  7  1  0
 25 11  1  0
 24 14  1  0
  1 28  1  0
  1 29  1  0
  1 30  1  0
  2 31  1  0
  6 32  1  0
  6 33  1  0
  8 34  1  0
  9 35  1  0
 12 36  1  0
 13 37  1  0
 15 38  1  0
 18 39  1  0
 22 40  1  0
 25 41  1  0
 26 42  1  0
 27 43  1  0
M  CHG  3   5  -1  18  -1  22  -1
M  END
>  <UniqueID>  (52) 
51

>  <SMILES>  (52) 
CNC(=O)[N-]Cc1ccc(-c2ccc3cc(C([NH-])=O)n(C([NH-])=O)c3c2)cc1

>  <Energy>  (52) 
84.17630567195035

>  <Genealogy>  (52) 
CNC(=O)[N-]Cc1ccc(-c2ccc3cc(C([NH-])=O)n(C([NH-])=O)c3c2)cc1 (protonated)
CNC(=O)[N-]Cc1ccc(-c2ccc3cc(C([NH-])=O)n(C([NH-])=O)c3c2)cc1 (3D coordinates assigned)
CNC(=O)[N-]Cc1ccc(-c2ccc3cc(C([NH-])=O)n(C([NH-])=O)c3c2)cc1 (optimized conformer: 84.17630567195035 kcal/mol)

>  <smiles>  (52) 
CNC(=O)NCc1ccc(-c2ccc3cc(C(N)=O)n(C(N)=O)c3c2)cc1

>  <score_type>  (52) 
oracle

>  <origin>  (52) 
adg

>  <m_score__min__energy>  (52) 
-9.3599999999999994

>  <m_primary>  (52) 
energy

$$$$
52:0
     RDKit          3D

 70 74  0  0  0  0  0  0  0  0999 V2000
  145.5970  149.6080  139.7160 C   0  0  0  0  0  0  0  0  0  0  0  0
  146.8900  150.4250  139.5750 C   0  0  2  0  0  0  0  0  0  0  0  0
  146.7870  151.7750  140.2850 C   0  0  2  0  0  0  0  0  0  0  0  0
  145.8370  152.6040  139.6580 O   0  0  0  0  0  0  0  0  0  0  0  0
  148.1860  152.4330  140.2760 C   0  0  2  0  0  0  0  0  0  0  0  0
  148.1630  153.9160  140.6870 C   0  0  0  0  0  0  0  0  0  0  0  0
  147.4680  154.6830  139.7390 O   0  0  0  0  0  0  0  0  0  0  0  0
  148.9700  152.2600  139.0960 O   0  0  0  0  0  0  0  0  0  0  0  0
  148.3290  151.7750  137.9190 C   0  0  2  0  0  0  0  0  0  0  0  0
  147.8280  152.9080  137.0610 C   0  0  0  0  0  0  0  0  0  0  0  0
  148.6030  153.4910  136.1070 N   0  0  0  0  0  0  0  0  0  0  0  0
  147.7660  154.3770  135.5490 C   0  0  0  0  0  0  0  0  0  0  0  0
  148.0270  155.2550  134.5040 C   0  0  0  0  0  0  0  0  0  0  0  0
  146.9770  156.0840  134.0680 C   0  0  0  0  0  0  0  0  0  0  0  0
  145.6940  156.0200  134.6810 C   0  0  0  0  0  0  0  0  0  0  0  0
  144.5870  156.8890  134.2060 C   0  0  0  0  0  0  0  0  0  0  0  0
  144.8280  158.2540  133.8950 C   0  0  0  0  0  0  0  0  0  0  0  0
  143.7920  159.0780  133.4260 C   0  0  0  0  0  0  0  0  0  0  0  0
  142.5260  158.5200  133.2870 C   0  0  0  0  0  0  0  0  0  0  0  0
  141.3570  159.0850  132.8310 C   0  0  0  0  0  0  0  0  0  0  0  0
  140.4060  158.0670  132.8950 C   0  0  0  0  0  0  0  0  0  0  0  0
  138.9740  158.2560  132.5790 C   0  0  0  0  0  0  0  0  0  0  0  0
  137.9660  157.5930  133.3440 N   0  0  0  0  0  0  0  0  0  0  0  0
  138.6310  158.9820  131.6090 O   0  0  0  0  0  0  0  0  0  0  0  0
  140.9660  156.9200  133.3710 N   0  0  0  0  0  0  0  0  0  0  0  0
  140.3330  155.6380  133.5180 C   0  0  0  0  0  0  0  0  0  0  0  0
  139.1920  155.4420  133.0190 O   0  0  0  0  0  0  0  0  0  0  0  0
  140.9900  154.6240  134.2310 O   0  0  0  0  0  0  0  0  0  0  0  0
  141.4270  153.3610  133.7080 C   0  0  0  0  0  0  0  0  0  0  0  0
  141.9920  152.4740  134.8330 C   0  0  0  0  0  0  0  0  0  0  0  0
  140.2720  152.6460  132.9810 C   0  0  0  0  0  0  0  0  0  0  0  0
  142.5450  153.6540  132.6960 C   0  0  0  0  0  0  0  0  0  0  0  0
  142.2660  157.2130  133.6050 C   0  0  0  0  0  0  0  0  0  0  0  0
  143.2830  156.3620  134.0510 C   0  0  0  0  0  0  0  0  0  0  0  0
  145.4810  155.1080  135.7440 C   0  0  0  0  0  0  0  0  0  0  0  0
  146.5470  154.3070  136.1430 C   0  0  0  0  0  0  0  0  0  0  0  0
  146.5540  153.3760  137.1060 N   0  0  0  0  0  0  0  0  0  0  0  0
  147.2520  150.6560  138.1040 C   0  0  1  0  0  0  0  0  0  0  0  0
  147.7100  149.4460  137.5550 O   0  0  0  0  0  0  0  0  0  0  0  0
  145.3688  149.4638  140.7824 H   0  0  0  0  0  0  0  0  0  0  0  0
  144.7683  150.1468  139.2333 H   0  0  0  0  0  0  0  0  0  0  0  0
  145.7279  148.6283  139.2333 H   0  0  0  0  0  0  0  0  0  0  0  0
  147.6847  149.8323  140.0517 H   0  0  0  0  0  0  0  0  0  0  0  0
  146.4500  151.6264  141.3215 H   0  0  0  0  0  0  0  0  0  0  0  0
  146.2960  153.0610  138.9080 H   0  0  0  0  0  0  0  0  0  0  0  0
  148.7046  151.8498  141.0512 H   0  0  0  0  0  0  0  0  0  0  0  0
  147.6662  154.0123  141.6637 H   0  0  0  0  0  0  0  0  0  0  0  0
  149.1985  154.2822  140.7476 H   0  0  0  0  0  0  0  0  0  0  0  0
  147.2950  154.0900  138.9610 H   0  0  0  0  0  0  0  0  0  0  0  0
  149.1345  151.2439  137.3907 H   0  0  0  0  0  0  0  0  0  0  0  0
  149.0204  155.3004  134.0338 H   0  0  0  0  0  0  0  0  0  0  0  0
  147.1499  156.7906  133.2428 H   0  0  0  0  0  0  0  0  0  0  0  0
  145.8380  158.6705  134.0231 H   0  0  0  0  0  0  0  0  0  0  0  0
  143.9765  160.1332  133.1761 H   0  0  0  0  0  0  0  0  0  0  0  0
  141.2050  160.1193  132.4889 H   0  0  0  0  0  0  0  0  0  0  0  0
  138.2090  157.0350  134.1920 H   0  0  0  0  0  0  0  0  0  0  0  0
  136.9590  157.6990  133.0890 H   0  0  0  0  0  0  0  0  0  0  0  0
  141.7195  152.9018  135.8091 H   0  0  0  0  0  0  0  0  0  0  0  0
  141.5725  151.4608  134.7467 H   0  0  0  0  0  0  0  0  0  0  0  0
  143.0876  152.4258  134.7467 H   0  0  0  0  0  0  0  0  0  0  0  0
  139.5810  152.2183  133.7224 H   0  0  0  0  0  0  0  0  0  0  0  0
  139.7324  153.3683  132.3508 H   0  0  0  0  0  0  0  0  0  0  0  0
  140.6779  151.8410  132.3508 H   0  0  0  0  0  0  0  0  0  0  0  0
  143.4727  153.8972  133.2347 H   0  0  0  0  0  0  0  0  0  0  0  0
  142.7091  152.7685  132.0643 H   0  0  0  0  0  0  0  0  0  0  0  0
  142.2537  154.5061  132.0643 H   0  0  0  0  0  0  0  0  0  0  0  0
  143.0734  155.3059  134.2763 H   0  0  0  0  0  0  0  0  0  0  0  0
  144.5017  155.0351  136.2396 H   0  0  0  0  0  0  0  0  0  0  0  0
  146.3480  151.0001  137.5801 H   0  0  0  0  0  0  0  0  0  0  0  0
  147.7530  149.5740  136.5710 H   0  0  0  0  0  0  0  0  0  0  0  0
  1  2  1  0
  2  3  1  0
  3  4  1  0
  3  5  1  0
  5  6  1  0
  6  7  1  0
  5  8  1  0
  8  9  1  0
  9 10  1  0
 10 11  2  0
 11 12  1  0
 12 13  2  0
 13 14  1  0
 14 15  2  0
 15 16  1  0
 16 17  2  0
 17 18  1  0
 18 19  2  0
 19 20  1  0
 20 21  2  0
 21 22  1  0
 22 23  1  0
 22 24  2  0
 21 25  1  0
 25 26  1  0
 26 27  2  0
 26 28  1  0
 28 29  1  0
 29 30  1  0
 29 31  1  0
 29 32  1  0
 25 33  1  0
 33 34  2  0
 15 35  1  0
 35 36  2  0
 36 37  1  0
  9 38  1  0
 38 39  1  0
 38  2  1  0
 37 10  1  0
 36 12  1  0
 34 16  1  0
 33 19  1  0
  1 40  1  0
  1 41  1  0
  1 42  1  0
  2 43  1  1
  3 44  1  1
  4 45  1  0
  5 46  1  1
  6 47  1  0
  6 48  1  0
  7 49  1  0
  9 50  1  6
 13 51  1  0
 14 52  1  0
 17 53  1  0
 18 54  1  0
 20 55  1  0
 23 56  1  0
 23 57  1  0
 30 58  1  0
 30 59  1  0
 30 60  1  0
 31 61  1  0
 31 62  1  0
 31 63  1  0
 32 64  1  0
 32 65  1  0
 32 66  1  0
 34 67  1  0
 35 68  1  0
 38 69  1  6
 39 70  1  0
M  CHG  1  37  -1
M  END
>  <UniqueID>  (53) 
52

>  <SMILES>  (53) 
C[C@@H]1[C@H](O)[C@H](CO)O[C@H](c2nc3ccc(-c4ccc5cc(C(N)=O)n(C(=O)OC(C)(C)C)c5c4)cc3[n-]2)[C@H]1O

>  <Energy>  (53) 
164.8748700088287

>  <Genealogy>  (53) 
CC1[C@H](O)C(CO)O[C@H](c2nc3ccc(-c4ccc5cc(C(N)=O)n(C(=O)OC(C)(C)C)c5c4)cc3[n-]2)[C@H]1O (protonated)
C[C@@H]1[C@H](O)[C@H](CO)O[C@H](c2nc3ccc(-c4ccc5cc(C(N)=O)n(C(=O)OC(C)(C)C)c5c4)cc3[n-]2)[C@H]1O (chirality)
C[C@@H]1[C@H](O)[C@H](CO)O[C@H](c2nc3ccc(-c4ccc5cc(C(N)=O)n(C(=O)OC(C)(C)C)c5c4)cc3[n-]2)[C@H]1O (3D coordinates assigned)
C[C@@H]1[C@H](O)[C@H](CO)O[C@H](c2nc3ccc(-c4ccc5cc(C(N)=O)n(C(=O)OC(C)(C)C)c5c4)cc3[n-]2)[C@H]1O (nonaromatic ring conformer: 164.8748700088287 kcal/mol)

>  <smiles>  (53) 
CC1[C@H](O)C(CO)O[C@H](c2nc3ccc(-c4ccc5cc(C(N)=O)n(C(=O)OC(C)(C)C)c5c4)cc3[nH]2)[C@H]1O

>  <score_type>  (53) 
oracle

>  <origin>  (53) 
adg

>  <m_score__min__energy>  (53) 
-9.3200000000000003

>  <m_primary>  (53) 
energy

$$$$
53:0
     RDKit          3D

 55 58  0  0  0  0  0  0  0  0999 V2000
  149.9820  151.7610  132.5800 C   0  0  0  0  0  0  0  0  0  0  0  0
  148.9010  152.7300  132.7110 N   0  0  0  0  0  0  0  0  0  0  0  0
  149.0240  154.0670  132.6100 C   0  0  0  0  0  0  0  0  0  0  0  0
  147.7900  154.6410  132.8770 C   0  0  0  0  0  0  0  0  0  0  0  0
  147.5150  156.0940  132.9640 C   0  0  0  0  0  0  0  0  0  0  0  0
  148.5810  157.0210  132.8490 C   0  0  0  0  0  0  0  0  0  0  0  0
  148.3450  158.4020  132.9450 C   0  0  0  0  0  0  0  0  0  0  0  0
  147.0390  158.8260  133.1680 C   0  0  0  0  0  0  0  0  0  0  0  0
  146.5380  160.0980  133.3020 C   0  0  0  0  0  0  0  0  0  0  0  0
  145.1690  159.9380  133.5010 C   0  0  0  0  0  0  0  0  0  0  0  0
  144.2670  161.0790  133.7460 C   0  0  0  0  0  0  0  0  0  0  0  0
  142.8880  161.0170  133.3930 N   0  0  0  0  0  0  0  0  0  0  0  0
  144.7380  162.1550  134.2010 O   0  0  0  0  0  0  0  0  0  0  0  0
  144.8340  158.6130  133.5130 N   0  0  0  0  0  0  0  0  0  0  0  0
  143.5590  158.0150  133.8190 C   0  0  0  0  0  0  0  0  0  0  0  0
  143.4210  157.3050  134.8480 O   0  0  0  0  0  0  0  0  0  0  0  0
  142.4690  158.2420  132.9640 O   0  0  0  0  0  0  0  0  0  0  0  0
  141.0810  158.1990  133.3200 C   0  0  0  0  0  0  0  0  0  0  0  0
  140.8420  158.8940  134.6750 C   0  0  0  0  0  0  0  0  0  0  0  0
  140.3140  158.9670  132.2310 C   0  0  0  0  0  0  0  0  0  0  0  0
  140.5800  156.7450  133.3570 C   0  0  0  0  0  0  0  0  0  0  0  0
  145.9950  157.9480  133.3040 C   0  0  0  0  0  0  0  0  0  0  0  0
  146.2050  156.5650  133.2060 C   0  0  0  0  0  0  0  0  0  0  0  0
  146.9440  153.5620  133.1420 C   0  0  0  0  0  0  0  0  0  0  0  0
  145.4910  153.5880  133.4150 C   0  0  0  0  0  0  0  0  0  0  0  0
  144.5760  153.4200  132.3620 C   0  0  0  0  0  0  0  0  0  0  0  0
  143.2010  153.4530  132.6110 C   0  0  0  0  0  0  0  0  0  0  0  0
  142.7270  153.6600  133.9090 C   0  0  0  0  0  0  0  0  0  0  0  0
  141.3930  153.6840  134.1460 F   0  0  0  0  0  0  0  0  0  0  0  0
  143.6300  153.8400  134.9610 C   0  0  0  0  0  0  0  0  0  0  0  0
  143.1720  154.0460  136.2210 F   0  0  0  0  0  0  0  0  0  0  0  0
  145.0060  153.8140  134.7160 C   0  0  0  0  0  0  0  0  0  0  0  0
  147.6600  152.4240  133.0460 N   0  0  0  0  0  0  0  0  0  0  0  0
  150.3233  151.4550  133.5799 H   0  0  0  0  0  0  0  0  0  0  0  0
  149.6197  150.8796  132.0306 H   0  0  0  0  0  0  0  0  0  0  0  0
  150.8187  152.2171  132.0306 H   0  0  0  0  0  0  0  0  0  0  0  0
  149.9462  154.6114  132.3585 H   0  0  0  0  0  0  0  0  0  0  0  0
  149.6047  156.6545  132.6827 H   0  0  0  0  0  0  0  0  0  0  0  0
  149.1673  159.1260  132.8469 H   0  0  0  0  0  0  0  0  0  0  0  0
  147.0994  161.0431  133.2608 H   0  0  0  0  0  0  0  0  0  0  0  0
  142.5550  160.3770  132.6390 H   0  0  0  0  0  0  0  0  0  0  0  0
  141.0816  158.1972  135.4918 H   0  0  0  0  0  0  0  0  0  0  0  0
  141.4862  159.7824  134.7501 H   0  0  0  0  0  0  0  0  0  0  0  0
  139.7876  159.1983  134.7501 H   0  0  0  0  0  0  0  0  0  0  0  0
  139.6120  159.6699  132.7034 H   0  0  0  0  0  0  0  0  0  0  0  0
  141.0261  159.5249  131.6052 H   0  0  0  0  0  0  0  0  0  0  0  0
  139.7551  158.2556  131.6052 H   0  0  0  0  0  0  0  0  0  0  0  0
  140.4687  156.4220  134.4026 H   0  0  0  0  0  0  0  0  0  0  0  0
  139.6074  156.6792  132.8474 H   0  0  0  0  0  0  0  0  0  0  0  0
  141.3057  156.0941  132.8474 H   0  0  0  0  0  0  0  0  0  0  0  0
  145.3669  155.8610  133.3153 H   0  0  0  0  0  0  0  0  0  0  0  0
  144.9433  153.2618  131.3373 H   0  0  0  0  0  0  0  0  0  0  0  0
  142.4901  153.3156  131.7829 H   0  0  0  0  0  0  0  0  0  0  0  0
  145.7127  153.9710  135.5442 H   0  0  0  0  0  0  0  0  0  0  0  0
  147.3020  151.4500  133.1840 H   0  0  0  0  0  0  0  0  0  0  0  0
  1  2  1  0
  2  3  1  0
  3  4  2  0
  4  5  1  0
  5  6  2  0
  6  7  1  0
  7  8  2  0
  8  9  1  0
  9 10  2  0
 10 11  1  0
 11 12  1  0
 11 13  2  0
 10 14  1  0
 14 15  1  0
 15 16  2  0
 15 17  1  0
 17 18  1  0
 18 19  1  0
 18 20  1  0
 18 21  1  0
 14 22  1  0
 22 23  2  0
  4 24  1  0
 24 25  1  0
 25 26  2  0
 26 27  1  0
 27 28  2  0
 28 29  1  0
 28 30  1  0
 30 31  1  0
 30 32  2  0
 24 33  2  0
 33  2  1  0
 23  5  1  0
 32 25  1  0
 22  8  1  0
  1 34  1  0
  1 35  1  0
  1 36  1  0
  3 37  1  0
  6 38  1  0
  7 39  1  0
  9 40  1  0
 12 41  1  0
 19 42  1  0
 19 43  1  0
 19 44  1  0
 20 45  1  0
 20 46  1  0
 20 47  1  0
 21 48  1  0
 21 49  1  0
 21 50  1  0
 23 51  1  0
 26 52  1  0
 27 53  1  0
 32 54  1  0
 33 55  1  0
M  CHG  2  12  -1  33   1
M  END
>  <UniqueID>  (54) 
53

>  <SMILES>  (54) 
Cn1cc(-c2ccc3cc(C([NH-])=O)n(C(=O)OC(C)(C)C)c3c2)c(-c2ccc(F)c(F)c2)[nH+]1

>  <Energy>  (54) 
131.50296257709732

>  <Genealogy>  (54) 
Cn1cc(-c2ccc3cc(C([NH-])=O)n(C(=O)OC(C)(C)C)c3c2)c(-c2ccc(F)c(F)c2)[nH+]1 (protonated)
Cn1cc(-c2ccc3cc(C([NH-])=O)n(C(=O)OC(C)(C)C)c3c2)c(-c2ccc(F)c(F)c2)[nH+]1 (3D coordinates assigned)
Cn1cc(-c2ccc3cc(C([NH-])=O)n(C(=O)OC(C)(C)C)c3c2)c(-c2ccc(F)c(F)c2)[nH+]1 (optimized conformer: 131.50296257709732 kcal/mol)

>  <smiles>  (54) 
Cn1cc(-c2ccc3cc(C(N)=O)n(C(=O)OC(C)(C)C)c3c2)c(-c2ccc(F)c(F)c2)n1

>  <score_type>  (54) 
oracle

>  <origin>  (54) 
adg

>  <m_score__min__energy>  (54) 
-9.3499999999999996

>  <m_primary>  (54) 
energy

$$$$
54:0
     RDKit          3D

 61 64  0  0  0  0  0  0  0  0999 V2000
  149.5760  152.6730  132.5820 C   0  0  0  0  0  0  0  0  0  0  0  0
  148.1500  153.0880  132.9750 C   0  0  0  0  0  0  0  0  0  0  0  0
  147.1790  151.9570  132.5900 C   0  0  0  0  0  0  0  0  0  0  0  0
  148.1080  153.3500  134.4920 C   0  0  0  0  0  0  0  0  0  0  0  0
  147.8430  154.2850  132.2460 O   0  0  0  0  0  0  0  0  0  0  0  0
  148.2140  155.5920  132.5940 C   0  0  0  0  0  0  0  0  0  0  0  0
  149.4270  155.9220  132.6720 O   0  0  0  0  0  0  0  0  0  0  0  0
  147.1920  156.5580  132.8860 N   0  0  0  0  0  0  0  0  0  0  0  0
  147.3430  157.8940  133.1100 C   0  0  0  0  0  0  0  0  0  0  0  0
  148.6050  158.6530  132.9620 C   0  0  0  0  0  0  0  0  0  0  0  0
  149.5570  158.2960  131.9570 N   0  0  0  0  0  0  0  0  0  0  0  0
  148.8670  159.6040  133.7440 O   0  0  0  0  0  0  0  0  0  0  0  0
  146.1130  158.4810  133.4070 C   0  0  0  0  0  0  0  0  0  0  0  0
  145.1970  157.4540  133.3550 C   0  0  0  0  0  0  0  0  0  0  0  0
  143.8240  157.4690  133.5730 C   0  0  0  0  0  0  0  0  0  0  0  0
  143.1280  156.2530  133.4750 C   0  0  0  0  0  0  0  0  0  0  0  0
  143.8110  155.0460  133.1700 C   0  0  0  0  0  0  0  0  0  0  0  0
  143.0680  153.7630  133.0790 C   0  0  0  0  0  0  0  0  0  0  0  0
  141.6640  153.7450  133.1410 C   0  0  0  0  0  0  0  0  0  0  0  0
  140.9660  152.5380  133.0580 C   0  0  0  0  0  0  0  0  0  0  0  0
  141.6540  151.3180  132.9350 C   0  0  0  0  0  0  0  0  0  0  0  0
  140.8770  150.0150  132.8570 C   0  0  0  0  0  0  0  0  0  0  0  0
  140.2350  149.7670  131.5450 N   0  0  0  0  0  0  0  0  0  0  0  0
  138.7590  149.7400  131.5910 C   0  0  0  0  0  0  0  0  0  0  0  0
  138.1980  149.1760  130.2760 C   0  0  0  0  0  0  0  0  0  0  0  0
  138.6190  147.8450  129.9940 O   0  0  0  0  0  0  0  0  0  0  0  0
  139.8480  147.4850  130.6100 C   0  0  0  0  0  0  0  0  0  0  0  0
  140.8270  148.6640  130.7560 C   0  0  0  0  0  0  0  0  0  0  0  0
  143.0580  151.3410  132.8250 C   0  0  0  0  0  0  0  0  0  0  0  0
  143.7580  150.2030  132.5860 F   0  0  0  0  0  0  0  0  0  0  0  0
  143.7540  152.5500  132.9100 C   0  0  0  0  0  0  0  0  0  0  0  0
  145.2090  155.0760  132.9570 C   0  0  0  0  0  0  0  0  0  0  0  0
  145.8730  156.3050  133.0390 C   0  0  0  0  0  0  0  0  0  0  0  0
  150.1711  152.4998  133.4908 H   0  0  0  0  0  0  0  0  0  0  0  0
  149.5380  151.7487  131.9869 H   0  0  0  0  0  0  0  0  0  0  0  0
  150.0399  153.4734  131.9869 H   0  0  0  0  0  0  0  0  0  0  0  0
  146.7788  151.4909  133.5024 H   0  0  0  0  0  0  0  0  0  0  0  0
  146.3508  152.3711  131.9962 H   0  0  0  0  0  0  0  0  0  0  0  0
  147.7137  151.2010  131.9962 H   0  0  0  0  0  0  0  0  0  0  0  0
  148.2597  152.4037  135.0319 H   0  0  0  0  0  0  0  0  0  0  0  0
  148.9040  154.0589  134.7638 H   0  0  0  0  0  0  0  0  0  0  0  0
  147.1303  153.7746  134.7638 H   0  0  0  0  0  0  0  0  0  0  0  0
  149.3530  157.5510  131.2550 H   0  0  0  0  0  0  0  0  0  0  0  0
  150.4620  158.8130  131.8870 H   0  0  0  0  0  0  0  0  0  0  0  0
  145.9165  159.5392  133.6344 H   0  0  0  0  0  0  0  0  0  0  0  0
  143.2988  158.4047  133.8149 H   0  0  0  0  0  0  0  0  0  0  0  0
  142.0401  156.2354  133.6366 H   0  0  0  0  0  0  0  0  0  0  0  0
  141.1106  154.6887  133.2558 H   0  0  0  0  0  0  0  0  0  0  0  0
  139.8665  152.5420  133.0892 H   0  0  0  0  0  0  0  0  0  0  0  0
  141.5710  149.1869  133.0632 H   0  0  0  0  0  0  0  0  0  0  0  0
  140.0660  150.0865  133.5967 H   0  0  0  0  0  0  0  0  0  0  0  0
  138.4330  149.1044  132.4275 H   0  0  0  0  0  0  0  0  0  0  0  0
  138.3851  150.7650  131.7307 H   0  0  0  0  0  0  0  0  0  0  0  0
  137.0996  149.1869  130.3349 H   0  0  0  0  0  0  0  0  0  0  0  0
  138.5832  149.8118  129.4652 H   0  0  0  0  0  0  0  0  0  0  0  0
  139.6320  147.0850  131.6117 H   0  0  0  0  0  0  0  0  0  0  0  0
  140.3310  146.7403  129.9603 H   0  0  0  0  0  0  0  0  0  0  0  0
  141.7378  148.3115  131.2621 H   0  0  0  0  0  0  0  0  0  0  0  0
  141.0597  149.0454  129.7508 H   0  0  0  0  0  0  0  0  0  0  0  0
  144.8520  152.5510  132.8437 H   0  0  0  0  0  0  0  0  0  0  0  0
  145.7626  154.1526  132.7316 H   0  0  0  0  0  0  0  0  0  0  0  0
  1  2  1  0
  2  3  1  0
  2  4  1  0
  2  5  1  0
  5  6  1  0
  6  7  2  0
  6  8  1  0
  8  9  1  0
  9 10  1  0
 10 11  1  0
 10 12  2  0
  9 13  2  0
 13 14  1  0
 14 15  2  0
 15 16  1  0
 16 17  2  0
 17 18  1  0
 18 19  2  0
 19 20  1  0
 20 21  2  0
 21 22  1  0
 22 23  1  0
 23 24  1  0
 24 25  1  0
 25 26  1  0
 26 27  1  0
 27 28  1  0
 21 29  1  0
 29 30  1  0
 29 31  2  0
 17 32  1  0
 32 33  2  0
 33  8  1  0
 33 14  1  0
 31 18  1  0
 28 23  1  0
  1 34  1  0
  1 35  1  0
  1 36  1  0
  3 37  1  0
  3 38  1  0
  3 39  1  0
  4 40  1  0
  4 41  1  0
  4 42  1  0
 11 43  1  0
 11 44  1  0
 13 45  1  0
 15 46  1  0
 16 47  1  0
 19 48  1  0
 20 49  1  0
 22 50  1  0
 22 51  1  0
 24 52  1  0
 24 53  1  0
 25 54  1  0
 25 55  1  0
 27 56  1  0
 27 57  1  0
 28 58  1  0
 28 59  1  0
 31 60  1  0
 32 61  1  0
M  END
>  <UniqueID>  (55) 
54

>  <SMILES>  (55) 
CC(C)(C)OC(=O)n1c(C(N)=O)cc2ccc(-c3ccc(CN4CCOCC4)c(F)c3)cc21

>  <Energy>  (55) 
120.54639939175081

>  <Genealogy>  (55) 
CC(C)(C)OC(=O)n1c(C(N)=O)cc2ccc(-c3ccc(CN4CCOCC4)c(F)c3)cc21 (3D coordinates assigned)
CC(C)(C)OC(=O)n1c(C(N)=O)cc2ccc(-c3ccc(CN4CCOCC4)c(F)c3)cc21 (nonaromatic ring conformer: 120.54639939175081 kcal/mol)

>  <smiles>  (55) 
CC(C)(C)OC(=O)n1c(C(N)=O)cc2ccc(-c3ccc(CN4CCOCC4)c(F)c3)cc21

>  <score_type>  (55) 
oracle

>  <origin>  (55) 
adg

>  <m_score__min__energy>  (55) 
-10.48

>  <m_primary>  (55) 
energy

$$$$
55:0
     RDKit          3D

 35 37  0  0  0  0  0  0  0  0999 V2000
  146.5760  155.8230  134.5950 C   0  0  0  0  0  0  0  0  0  0  0  0
  146.5510  156.5700  133.3000 C   0  0  0  0  0  0  0  0  0  0  0  0
  146.6470  155.9290  132.2190 O   0  0  0  0  0  0  0  0  0  0  0  0
  146.4180  158.0010  133.2720 N   0  0  0  0  0  0  0  0  0  0  0  0
  147.3980  158.9140  133.0200 C   0  0  0  0  0  0  0  0  0  0  0  0
  148.7830  158.5910  132.6050 C   0  0  0  0  0  0  0  0  0  0  0  0
  149.0650  157.4120  131.8480 N   0  0  0  0  0  0  0  0  0  0  0  0
  149.7340  159.3480  132.9350 O   0  0  0  0  0  0  0  0  0  0  0  0
  146.8970  160.2100  133.1360 C   0  0  0  0  0  0  0  0  0  0  0  0
  145.5710  160.0590  133.4760 C   0  0  0  0  0  0  0  0  0  0  0  0
  144.6000  161.0200  133.7320 C   0  0  0  0  0  0  0  0  0  0  0  0
  143.3160  160.5800  134.0950 C   0  0  0  0  0  0  0  0  0  0  0  0
  143.0280  159.1930  134.2050 C   0  0  0  0  0  0  0  0  0  0  0  0
  141.6700  158.7390  134.6020 C   0  0  0  0  0  0  0  0  0  0  0  0
  141.3100  158.6570  135.9600 C   0  0  0  0  0  0  0  0  0  0  0  0
  140.0320  158.2270  136.3300 C   0  0  0  0  0  0  0  0  0  0  0  0
  139.1000  157.8740  135.3510 C   0  0  0  0  0  0  0  0  0  0  0  0
  139.4460  157.9510  133.9990 C   0  0  0  0  0  0  0  0  0  0  0  0
  140.7220  158.3800  133.6240 C   0  0  0  0  0  0  0  0  0  0  0  0
  144.0460  158.2490  133.9360 C   0  0  0  0  0  0  0  0  0  0  0  0
  145.3080  158.7170  133.5550 C   0  0  0  0  0  0  0  0  0  0  0  0
  146.5521  156.5375  135.4310 H   0  0  0  0  0  0  0  0  0  0  0  0
  145.6995  155.1609  134.6534 H   0  0  0  0  0  0  0  0  0  0  0  0
  147.4948  155.2210  134.6534 H   0  0  0  0  0  0  0  0  0  0  0  0
  150.0500  157.1780  131.5940 H   0  0  0  0  0  0  0  0  0  0  0  0
  148.3020  156.7930  131.4980 H   0  0  0  0  0  0  0  0  0  0  0  0
  147.4444  161.1525  132.9875 H   0  0  0  0  0  0  0  0  0  0  0  0
  144.8299  162.0928  133.6528 H   0  0  0  0  0  0  0  0  0  0  0  0
  142.5250  161.3174  134.2963 H   0  0  0  0  0  0  0  0  0  0  0  0
  142.0392  158.9331  136.7359 H   0  0  0  0  0  0  0  0  0  0  0  0
  139.7599  158.1666  137.3941 H   0  0  0  0  0  0  0  0  0  0  0  0
  138.0951  157.5358  135.6438 H   0  0  0  0  0  0  0  0  0  0  0  0
  138.7120  157.6732  133.2282 H   0  0  0  0  0  0  0  0  0  0  0  0
  140.9878  158.4377  132.5582 H   0  0  0  0  0  0  0  0  0  0  0  0
  143.8498  157.1703  134.0244 H   0  0  0  0  0  0  0  0  0  0  0  0
  1  2  1  0
  2  3  2  0
  2  4  1  0
  4  5  1  0
  5  6  1  0
  6  7  1  0
  6  8  2  0
  5  9  2  0
  9 10  1  0
 10 11  2  0
 11 12  1  0
 12 13  2  0
 13 14  1  0
 14 15  2  0
 15 16  1  0
 16 17  2  0
 17 18  1  0
 18 19  2  0
 13 20  1  0
 20 21  2  0
 21  4  1  0
 21 10  1  0
 19 14  1  0
  1 22  1  0
  1 23  1  0
  1 24  1  0
  7 25  1  0
  7 26  1  0
  9 27  1  0
 11 28  1  0
 12 29  1  0
 15 30  1  0
 16 31  1  0
 17 32  1  0
 18 33  1  0
 19 34  1  0
 20 35  1  0
M  END
>  <UniqueID>  (56) 
55

>  <SMILES>  (56) 
CC(=O)n1c(C(N)=O)cc2ccc(-c3ccccc3)cc21

>  <Energy>  (56) 
81.0178383163004

>  <Genealogy>  (56) 
CC(=O)n1c(C(N)=O)cc2ccc(-c3ccccc3)cc21 (3D coordinates assigned)
CC(=O)n1c(C(N)=O)cc2ccc(-c3ccccc3)cc21 (optimized conformer: 81.0178383163004 kcal/mol)

>  <smiles>  (56) 
CC(=O)n1c(C(N)=O)cc2ccc(-c3ccccc3)cc21

>  <score_type>  (56) 
oracle

>  <origin>  (56) 
adg

>  <m_score__min__energy>  (56) 
-7.6600000000000001

>  <m_primary>  (56) 
energy

$$$$
56:0
     RDKit          3D

 45 47  0  0  0  0  0  0  0  0999 V2000
  139.4680  149.0640  129.2490 C   0  0  0  0  0  0  0  0  0  0  0  0
  139.2630  148.4840  130.5890 N   0  0  0  0  0  0  0  0  0  0  0  0
  138.4180  149.3410  131.4410 C   0  0  0  0  0  0  0  0  0  0  0  0
  139.1320  150.6440  131.8700 C   0  0  0  0  0  0  0  0  0  0  0  0
  140.6070  150.5380  131.7750 N   0  0  0  0  0  0  0  0  0  0  0  0
  141.2810  151.6060  132.5480 C   0  0  0  0  0  0  0  0  0  0  0  0
  140.3030  152.7290  132.9280 C   0  0  0  0  0  0  0  0  0  0  0  0
  141.0370  153.9990  133.2700 C   0  0  0  0  0  0  0  0  0  0  0  0
  142.4260  154.1070  133.0130 C   0  0  0  0  0  0  0  0  0  0  0  0
  143.1070  155.3130  133.2480 C   0  0  0  0  0  0  0  0  0  0  0  0
  142.3730  156.3930  133.7330 C   0  0  0  0  0  0  0  0  0  0  0  0
  142.7640  157.6860  133.9920 C   0  0  0  0  0  0  0  0  0  0  0  0
  141.6100  158.3440  134.4150 C   0  0  0  0  0  0  0  0  0  0  0  0
  141.5960  159.7490  134.8720 C   0  0  0  0  0  0  0  0  0  0  0  0
  140.9450  160.1170  136.0830 N   0  0  0  0  0  0  0  0  0  0  0  0
  142.2100  160.6270  134.2080 O   0  0  0  0  0  0  0  0  0  0  0  0
  140.5460  157.4930  134.4100 N   0  0  0  0  0  0  0  0  0  0  0  0
  139.1650  157.8070  134.6520 C   0  0  0  0  0  0  0  0  0  0  0  0
  138.7320  158.1750  135.9600 N   0  0  0  0  0  0  0  0  0  0  0  0
  138.3380  157.7930  133.7030 O   0  0  0  0  0  0  0  0  0  0  0  0
  141.0300  156.3010  133.9970 C   0  0  0  0  0  0  0  0  0  0  0  0
  140.3280  155.1130  133.7710 C   0  0  0  0  0  0  0  0  0  0  0  0
  141.0570  149.2070  132.2150 C   0  0  0  0  0  0  0  0  0  0  0  0
  140.5410  148.1240  131.2460 C   0  0  0  0  0  0  0  0  0  0  0  0
  139.8331  150.0969  129.3485 H   0  0  0  0  0  0  0  0  0  0  0  0
  140.2087  148.4646  128.6994 H   0  0  0  0  0  0  0  0  0  0  0  0
  138.5151  149.0632  128.6994 H   0  0  0  0  0  0  0  0  0  0  0  0
  137.5084  149.6057  130.8819 H   0  0  0  0  0  0  0  0  0  0  0  0
  138.1833  148.7742  132.3541 H   0  0  0  0  0  0  0  0  0  0  0  0
  138.7941  151.4630  131.2181 H   0  0  0  0  0  0  0  0  0  0  0  0
  138.8768  150.8351  132.9228 H   0  0  0  0  0  0  0  0  0  0  0  0
  141.7008  151.1714  133.4672 H   0  0  0  0  0  0  0  0  0  0  0  0
  142.0750  152.0374  131.9208 H   0  0  0  0  0  0  0  0  0  0  0  0
  139.6302  152.9211  132.0792 H   0  0  0  0  0  0  0  0  0  0  0  0
  139.7316  152.4086  133.8116 H   0  0  0  0  0  0  0  0  0  0  0  0
  142.9770  153.2374  132.6254 H   0  0  0  0  0  0  0  0  0  0  0  0
  144.1863  155.4017  133.0550 H   0  0  0  0  0  0  0  0  0  0  0  0
  143.7733  158.1108  133.8875 H   0  0  0  0  0  0  0  0  0  0  0  0
  139.9120  160.0060  136.1940 H   0  0  0  0  0  0  0  0  0  0  0  0
  139.1090  159.0270  136.4300 H   0  0  0  0  0  0  0  0  0  0  0  0
  139.2497  155.0477  133.9784 H   0  0  0  0  0  0  0  0  0  0  0  0
  142.1566  149.1832  132.2346 H   0  0  0  0  0  0  0  0  0  0  0  0
  140.6594  149.0078  133.2211 H   0  0  0  0  0  0  0  0  0  0  0  0
  141.3005  147.9626  130.4668 H   0  0  0  0  0  0  0  0  0  0  0  0
  140.3567  147.2170  131.8405 H   0  0  0  0  0  0  0  0  0  0  0  0
  1  2  1  0
  2  3  1  0
  3  4  1  0
  4  5  1  0
  5  6  1  0
  6  7  1  0
  7  8  1  0
  8  9  2  0
  9 10  1  0
 10 11  2  0
 11 12  1  0
 12 13  2  0
 13 14  1  0
 14 15  1  0
 14 16  2  0
 13 17  1  0
 17 18  1  0
 18 19  1  0
 18 20  2  0
 17 21  1  0
 21 22  2  0
  5 23  1  0
 23 24  1  0
 24  2  1  0
 22  8  1  0
 21 11  1  0
  1 25  1  0
  1 26  1  0
  1 27  1  0
  3 28  1  0
  3 29  1  0
  4 30  1  0
  4 31  1  0
  6 32  1  0
  6 33  1  0
  7 34  1  0
  7 35  1  0
  9 36  1  0
 10 37  1  0
 12 38  1  0
 15 39  1  0
 19 40  1  0
 22 41  1  0
 23 42  1  0
 23 43  1  0
 24 44  1  0
 24 45  1  0
M  CHG  2  15  -1  19  -1
M  END
>  <UniqueID>  (57) 
56

>  <SMILES>  (57) 
CN1CCN(CCc2ccc3cc(C([NH-])=O)n(C([NH-])=O)c3c2)CC1

>  <Energy>  (57) 
92.18003130193327

>  <Genealogy>  (57) 
CN1CCN(CCc2ccc3cc(C([NH-])=O)n(C([NH-])=O)c3c2)CC1 (protonated)
CN1CCN(CCc2ccc3cc(C([NH-])=O)n(C([NH-])=O)c3c2)CC1 (3D coordinates assigned)
CN1CCN(CCc2ccc3cc(C([NH-])=O)n(C([NH-])=O)c3c2)CC1 (nonaromatic ring conformer: 92.18003130193327 kcal/mol)

>  <smiles>  (57) 
CN1CCN(CCc2ccc3cc(C(N)=O)n(C(N)=O)c3c2)CC1

>  <score_type>  (57) 
oracle

>  <origin>  (57) 
adg

>  <m_score__min__energy>  (57) 
-7.8700000000000001

>  <m_primary>  (57) 
energy

$$$$
57:0
     RDKit          3D

 39 41  0  0  0  0  0  0  0  0999 V2000
  141.9150  160.4250  133.1940 N   0  0  0  0  0  0  0  0  0  0  0  0
  141.0220  159.6850  134.0230 C   0  0  0  0  0  0  0  0  0  0  0  0
  140.8190  160.0620  135.2070 O   0  0  0  0  0  0  0  0  0  0  0  0
  140.3660  158.5100  133.5140 N   0  0  0  0  0  0  0  0  0  0  0  0
  139.4140  158.4470  132.5410 C   0  0  0  0  0  0  0  0  0  0  0  0
  138.7260  159.6010  131.9270 C   0  0  0  0  0  0  0  0  0  0  0  0
  139.1680  160.9380  132.1660 N   0  0  0  0  0  0  0  0  0  0  0  0
  137.6960  159.4060  131.2270 O   0  0  0  0  0  0  0  0  0  0  0  0
  139.1150  157.1240  132.2280 C   0  0  0  0  0  0  0  0  0  0  0  0
  139.9110  156.3670  133.0560 C   0  0  0  0  0  0  0  0  0  0  0  0
  140.0260  154.9840  133.1660 C   0  0  0  0  0  0  0  0  0  0  0  0
  140.9510  154.4710  134.0890 C   0  0  0  0  0  0  0  0  0  0  0  0
  141.7540  155.3440  134.8660 C   0  0  0  0  0  0  0  0  0  0  0  0
  142.7210  154.7840  135.8720 C   0  0  0  0  0  0  0  0  0  0  0  0
  141.9780  154.2850  137.0820 C   0  0  0  0  0  0  0  0  0  0  0  0
  141.4490  155.1940  138.0110 C   0  0  0  0  0  0  0  0  0  0  0  0
  140.7390  154.7310  139.1200 C   0  0  0  0  0  0  0  0  0  0  0  0
  140.5350  153.3610  139.3040 C   0  0  0  0  0  0  0  0  0  0  0  0
  141.0240  152.4370  138.3630 C   0  0  0  0  0  0  0  0  0  0  0  0
  140.8410  150.9570  138.5790 C   0  0  0  0  0  0  0  0  0  0  0  0
  140.4340  150.3370  137.4100 F   0  0  0  0  0  0  0  0  0  0  0  0
  142.0280  150.3720  138.9860 F   0  0  0  0  0  0  0  0  0  0  0  0
  139.8810  150.7540  139.5530 F   0  0  0  0  0  0  0  0  0  0  0  0
  141.7620  152.9090  137.2620 C   0  0  0  0  0  0  0  0  0  0  0  0
  141.6040  156.7430  134.7330 C   0  0  0  0  0  0  0  0  0  0  0  0
  140.6580  157.2260  133.8210 C   0  0  0  0  0  0  0  0  0  0  0  0
  142.1260  160.1140  132.2200 H   0  0  0  0  0  0  0  0  0  0  0  0
  139.9110  161.1430  132.8680 H   0  0  0  0  0  0  0  0  0  0  0  0
  138.6910  161.7390  131.6950 H   0  0  0  0  0  0  0  0  0  0  0  0
  138.3959  156.7614  131.4787 H   0  0  0  0  0  0  0  0  0  0  0  0
  139.4106  154.3134  132.5483 H   0  0  0  0  0  0  0  0  0  0  0  0
  141.0538  153.3826  134.2105 H   0  0  0  0  0  0  0  0  0  0  0  0
  143.2770  153.9508  135.4174 H   0  0  0  0  0  0  0  0  0  0  0  0
  143.4191  155.5764  136.1798 H   0  0  0  0  0  0  0  0  0  0  0  0
  141.5943  156.2745  137.8649 H   0  0  0  0  0  0  0  0  0  0  0  0
  140.3384  155.4476  139.8521 H   0  0  0  0  0  0  0  0  0  0  0  0
  139.9891  153.0032  140.1894 H   0  0  0  0  0  0  0  0  0  0  0  0
  142.1738  152.1934  136.5352 H   0  0  0  0  0  0  0  0  0  0  0  0
  142.2152  157.4350  135.3310 H   0  0  0  0  0  0  0  0  0  0  0  0
  1  2  1  0
  2  3  2  0
  2  4  1  0
  4  5  1  0
  5  6  1  0
  6  7  1  0
  6  8  2  0
  5  9  2  0
  9 10  1  0
 10 11  2  0
 11 12  1  0
 12 13  2  0
 13 14  1  0
 14 15  1  0
 15 16  2  0
 16 17  1  0
 17 18  2  0
 18 19  1  0
 19 20  1  0
 20 21  1  0
 20 22  1  0
 20 23  1  0
 19 24  2  0
 13 25  1  0
 25 26  2  0
 26  4  1  0
 26 10  1  0
 24 15  1  0
  1 27  1  0
  7 28  1  0
  7 29  1  0
  9 30  1  0
 11 31  1  0
 12 32  1  0
 14 33  1  0
 14 34  1  0
 16 35  1  0
 17 36  1  0
 18 37  1  0
 24 38  1  0
 25 39  1  0
M  CHG  1   1  -1
M  END
>  <UniqueID>  (58) 
57

>  <SMILES>  (58) 
[NH-]C(=O)n1c(C(N)=O)cc2ccc(Cc3cccc(C(F)(F)F)c3)cc21

>  <Energy>  (58) 
79.98245214197892

>  <Genealogy>  (58) 
[NH-]C(=O)n1c(C(N)=O)cc2ccc(Cc3cccc(C(F)(F)F)c3)cc21 (protonated)
[NH-]C(=O)n1c(C(N)=O)cc2ccc(Cc3cccc(C(F)(F)F)c3)cc21 (3D coordinates assigned)
[NH-]C(=O)n1c(C(N)=O)cc2ccc(Cc3cccc(C(F)(F)F)c3)cc21 (optimized conformer: 79.98245214197892 kcal/mol)

>  <smiles>  (58) 
NC(=O)c1cc2ccc(Cc3cccc(C(F)(F)F)c3)cc2n1C(N)=O

>  <score_type>  (58) 
oracle

>  <origin>  (58) 
adg

>  <m_score__min__energy>  (58) 
-8.3100000000000005

>  <m_primary>  (58) 
energy

$$$$
58:0
     RDKit          3D

 75 79  0  0  0  0  0  0  0  0999 V2000
  148.4190  157.1080  134.7300 C   0  0  0  0  0  0  0  0  0  0  0  0
  147.8760  158.0390  133.6260 C   0  0  0  0  0  0  0  0  0  0  0  0
  148.9730  159.0120  133.1550 C   0  0  0  0  0  0  0  0  0  0  0  0
  147.4260  157.1860  132.4340 C   0  0  0  0  0  0  0  0  0  0  0  0
  146.7250  158.7590  134.0900 O   0  0  0  0  0  0  0  0  0  0  0  0
  145.5910  159.0830  133.3290 C   0  0  0  0  0  0  0  0  0  0  0  0
  145.6830  159.8170  132.3120 O   0  0  0  0  0  0  0  0  0  0  0  0
  144.3070  158.5900  133.7330 N   0  0  0  0  0  0  0  0  0  0  0  0
  143.1290  159.2740  133.7760 C   0  0  0  0  0  0  0  0  0  0  0  0
  142.9760  160.7340  133.6300 C   0  0  0  0  0  0  0  0  0  0  0  0
  144.1060  161.5960  133.7510 N   0  0  0  0  0  0  0  0  0  0  0  0
  141.8320  161.2300  133.4450 O   0  0  0  0  0  0  0  0  0  0  0  0
  142.0790  158.4200  134.1090 C   0  0  0  0  0  0  0  0  0  0  0  0
  142.6600  157.1800  134.2780 C   0  0  0  0  0  0  0  0  0  0  0  0
  142.0850  155.9600  134.6240 C   0  0  0  0  0  0  0  0  0  0  0  0
  142.9270  154.8370  134.7120 C   0  0  0  0  0  0  0  0  0  0  0  0
  144.3140  154.9470  134.4420 C   0  0  0  0  0  0  0  0  0  0  0  0
  145.2190  153.7390  134.6140 C   0  0  1  0  0  0  0  0  0  0  0  0
  145.8290  153.2670  133.2830 C   0  0  0  0  0  0  0  0  0  0  0  0
  147.2420  153.6490  133.3270 N   0  0  0  0  0  0  0  0  0  0  0  0
  148.1040  152.9580  132.3360 C   0  0  0  0  0  0  0  0  0  0  0  0
  149.5690  152.9610  132.8370 C   0  0  0  0  0  0  0  0  0  0  0  0
  150.3490  151.7430  132.3390 C   0  0  0  0  0  0  0  0  0  0  0  0
  149.7270  150.4630  132.8990 C   0  0  0  0  0  0  0  0  0  0  0  0
  148.2050  150.3600  132.6370 C   0  0  0  0  0  0  0  0  0  0  0  0
  147.5960  151.5570  131.8750 C   0  0  0  0  0  0  0  0  0  0  0  0
  147.6370  153.5650  134.7350 C   0  0  0  0  0  0  0  0  0  0  0  0
  146.4280  154.0700  135.5150 C   0  0  2  0  0  0  0  0  0  0  0  0
  146.3150  153.4460  136.8880 C   0  0  0  0  0  0  0  0  0  0  0  0
  145.3200  153.7470  137.5970 O   0  0  0  0  0  0  0  0  0  0  0  0
  147.2940  152.5580  137.4530 N   0  0  0  0  0  0  0  0  0  0  0  0
  148.6340  152.7530  138.0270 C   0  0  0  0  0  0  0  0  0  0  0  0
  149.1940  154.1690  137.9430 C   0  0  0  0  0  0  0  0  0  0  0  0
  149.4020  154.1480  139.4560 C   0  0  0  0  0  0  0  0  0  0  0  0
  148.7420  155.1630  140.1300 F   0  0  0  0  0  0  0  0  0  0  0  0
  150.7430  154.0840  139.7990 F   0  0  0  0  0  0  0  0  0  0  0  0
  148.7110  152.7860  139.5500 C   0  0  0  0  0  0  0  0  0  0  0  0
  144.8580  156.2090  134.0970 C   0  0  0  0  0  0  0  0  0  0  0  0
  144.0020  157.3100  134.0380 C   0  0  0  0  0  0  0  0  0  0  0  0
  148.1742  157.5278  135.7168 H   0  0  0  0  0  0  0  0  0  0  0  0
  147.9592  156.1137  134.6301 H   0  0  0  0  0  0  0  0  0  0  0  0
  149.5108  157.0187  134.6301 H   0  0  0  0  0  0  0  0  0  0  0  0
  149.4715  159.4541  134.0303 H   0  0  0  0  0  0  0  0  0  0  0  0
  149.7115  158.4665  132.5492 H   0  0  0  0  0  0  0  0  0  0  0  0
  148.5196  159.8103  132.5492 H   0  0  0  0  0  0  0  0  0  0  0  0
  146.9422  156.2689  132.8013 H   0  0  0  0  0  0  0  0  0  0  0  0
  146.7121  157.7577  131.8228 H   0  0  0  0  0  0  0  0  0  0  0  0
  148.3009  156.9195  131.8228 H   0  0  0  0  0  0  0  0  0  0  0  0
  144.8100  161.6780  132.9830 H   0  0  0  0  0  0  0  0  0  0  0  0
  141.0152  158.6791  134.2145 H   0  0  0  0  0  0  0  0  0  0  0  0
  141.0062  155.8772  134.8222 H   0  0  0  0  0  0  0  0  0  0  0  0
  142.5040  153.8615  134.9938 H   0  0  0  0  0  0  0  0  0  0  0  0
  144.5736  152.9624  135.0503 H   0  0  0  0  0  0  0  0  0  0  0  0
  145.7312  152.1759  133.1837 H   0  0  0  0  0  0  0  0  0  0  0  0
  145.3162  153.7207  132.4221 H   0  0  0  0  0  0  0  0  0  0  0  0
  148.0507  153.5361  131.4017 H   0  0  0  0  0  0  0  0  0  0  0  0
  150.0660  153.8730  132.4748 H   0  0  0  0  0  0  0  0  0  0  0  0
  149.5515  152.9262  133.9363 H   0  0  0  0  0  0  0  0  0  0  0  0
  150.3170  151.7136  131.2399 H   0  0  0  0  0  0  0  0  0  0  0  0
  151.3927  151.8174  132.6783 H   0  0  0  0  0  0  0  0  0  0  0  0
  150.2218  149.5996  132.4301 H   0  0  0  0  0  0  0  0  0  0  0  0
  149.8708  150.4794  133.9894 H   0  0  0  0  0  0  0  0  0  0  0  0
  148.0202  149.4496  132.0479 H   0  0  0  0  0  0  0  0  0  0  0  0
  147.7214  150.3437  133.6249 H   0  0  0  0  0  0  0  0  0  0  0  0
  147.8367  151.4407  130.8080 H   0  0  0  0  0  0  0  0  0  0  0  0
  146.5161  151.5373  132.0832 H   0  0  0  0  0  0  0  0  0  0  0  0
  147.8680  152.5254  135.0104 H   0  0  0  0  0  0  0  0  0  0  0  0
  148.5409  154.1551  134.9464 H   0  0  0  0  0  0  0  0  0  0  0  0
  146.5011  155.1472  135.7256 H   0  0  0  0  0  0  0  0  0  0  0  0
  149.1258  151.9381  137.4756 H   0  0  0  0  0  0  0  0  0  0  0  0
  150.1224  154.2550  137.3593 H   0  0  0  0  0  0  0  0  0  0  0  0
  148.6216  154.9759  137.4620 H   0  0  0  0  0  0  0  0  0  0  0  0
  149.3322  151.9919  139.9899 H   0  0  0  0  0  0  0  0  0  0  0  0
  147.8099  152.6493  140.1659 H   0  0  0  0  0  0  0  0  0  0  0  0
  145.9309  156.3187  133.8805 H   0  0  0  0  0  0  0  0  0  0  0  0
  1  2  1  0
  2  3  1  0
  2  4  1  0
  2  5  1  0
  5  6  1  0
  6  7  2  0
  6  8  1  0
  8  9  1  0
  9 10  1  0
 10 11  1  0
 10 12  2  0
  9 13  2  0
 13 14  1  0
 14 15  2  0
 15 16  1  0
 16 17  2  0
 17 18  1  0
 18 19  1  0
 19 20  1  0
 20 21  1  0
 21 22  1  0
 22 23  1  0
 23 24  1  0
 24 25  1  0
 25 26  1  0
 20 27  1  0
 27 28  1  0
 28 29  1  0
 29 30  2  0
 29 31  1  0
 31 32  1  0
 32 33  1  0
 33 34  1  0
 34 35  1  0
 34 36  1  0
 34 37  1  0
 17 38  1  0
 38 39  2  0
 39  8  1  0
 39 14  1  0
 28 18  1  0
 37 32  1  0
 26 21  1  0
  1 40  1  0
  1 41  1  0
  1 42  1  0
  3 43  1  0
  3 44  1  0
  3 45  1  0
  4 46  1  0
  4 47  1  0
  4 48  1  0
 11 49  1  0
 13 50  1  0
 15 51  1  0
 16 52  1  0
 18 53  1  1
 19 54  1  0
 19 55  1  0
 21 56  1  0
 22 57  1  0
 22 58  1  0
 23 59  1  0
 23 60  1  0
 24 61  1  0
 24 62  1  0
 25 63  1  0
 25 64  1  0
 26 65  1  0
 26 66  1  0
 27 67  1  0
 27 68  1  0
 28 69  1  1
 32 70  1  0
 33 71  1  0
 33 72  1  0
 37 73  1  0
 37 74  1  0
 38 75  1  0
M  CHG  2  11  -1  31  -1
M  END
>  <UniqueID>  (59) 
58

>  <SMILES>  (59) 
CC(C)(C)OC(=O)n1c(C([NH-])=O)cc2ccc([C@H]3CN(C4CCCCC4)C[C@@H]3C(=O)[N-]C3CC(F)(F)C3)cc21

>  <Energy>  (59) 
194.49170366441243

>  <Genealogy>  (59) 
CC(C)(C)OC(=O)n1c(C([NH-])=O)cc2ccc([C@H]3CN(C4CCCCC4)C[C@@H]3C(=O)[N-]C3CC(F)(F)C3)cc21 (protonated)
CC(C)(C)OC(=O)n1c(C([NH-])=O)cc2ccc([C@H]3CN(C4CCCCC4)C[C@@H]3C(=O)[N-]C3CC(F)(F)C3)cc21 (3D coordinates assigned)
CC(C)(C)OC(=O)n1c(C([NH-])=O)cc2ccc([C@H]3CN(C4CCCCC4)C[C@@H]3C(=O)[N-]C3CC(F)(F)C3)cc21 (nonaromatic ring conformer: 194.49170366441243 kcal/mol)

>  <smiles>  (59) 
CC(C)(C)OC(=O)n1c(C(N)=O)cc2ccc([C@H]3CN(C4CCCCC4)C[C@@H]3C(=O)NC3CC(F)(F)C3)cc21

>  <score_type>  (59) 
oracle

>  <origin>  (59) 
adg

>  <m_score__min__energy>  (59) 
-11.390000000000001

>  <m_primary>  (59) 
energy

$$$$
59:0
     RDKit          3D

 37 38  0  0  0  0  0  0  0  0999 V2000
  139.6720  156.7890  132.9400 C   0  0  0  0  0  0  0  0  0  0  0  0
  141.0270  156.4410  133.5860 C   0  0  0  0  0  0  0  0  0  0  0  0
  141.2530  154.9250  133.4800 C   0  0  0  0  0  0  0  0  0  0  0  0
  141.0390  156.8420  135.0740 C   0  0  0  0  0  0  0  0  0  0  0  0
  142.1020  157.0790  132.8810 O   0  0  0  0  0  0  0  0  0  0  0  0
  143.4460  157.1320  133.2840 C   0  0  0  0  0  0  0  0  0  0  0  0
  144.0670  156.0830  133.6000 O   0  0  0  0  0  0  0  0  0  0  0  0
  144.1130  158.4020  133.3480 N   0  0  0  0  0  0  0  0  0  0  0  0
  143.5540  159.6170  133.6140 C   0  0  0  0  0  0  0  0  0  0  0  0
  142.1040  159.8880  133.7290 C   0  0  0  0  0  0  0  0  0  0  0  0
  141.1960  159.4420  132.7210 N   0  0  0  0  0  0  0  0  0  0  0  0
  141.6510  160.4900  134.7400 O   0  0  0  0  0  0  0  0  0  0  0  0
  144.5360  160.6040  133.6720 C   0  0  0  0  0  0  0  0  0  0  0  0
  145.7230  159.9520  133.4300 C   0  0  0  0  0  0  0  0  0  0  0  0
  147.0230  160.4500  133.3820 C   0  0  0  0  0  0  0  0  0  0  0  0
  148.0660  159.5410  133.1410 C   0  0  0  0  0  0  0  0  0  0  0  0
  147.7940  158.1630  132.9610 C   0  0  0  0  0  0  0  0  0  0  0  0
  148.8670  157.2480  132.7270 N   0  0  0  0  0  0  0  0  0  0  0  0
  146.4650  157.6950  133.0150 C   0  0  0  0  0  0  0  0  0  0  0  0
  145.4420  158.6240  133.2390 C   0  0  0  0  0  0  0  0  0  0  0  0
  138.9285  156.9800  133.7278 H   0  0  0  0  0  0  0  0  0  0  0  0
  139.7835  157.6876  132.3155 H   0  0  0  0  0  0  0  0  0  0  0  0
  139.3367  155.9478  132.3155 H   0  0  0  0  0  0  0  0  0  0  0  0
  141.3175  154.4924  134.4893 H   0  0  0  0  0  0  0  0  0  0  0  0
  140.4133  154.4662  132.9374 H   0  0  0  0  0  0  0  0  0  0  0  0
  142.1900  154.7310  132.9374 H   0  0  0  0  0  0  0  0  0  0  0  0
  141.0119  155.9365  135.6980 H   0  0  0  0  0  0  0  0  0  0  0  0
  141.9546  157.4110  135.2930 H   0  0  0  0  0  0  0  0  0  0  0  0
  140.1591  157.4647  135.2930 H   0  0  0  0  0  0  0  0  0  0  0  0
  141.5380  158.9870  131.8460 H   0  0  0  0  0  0  0  0  0  0  0  0
  140.1710  159.6060  132.8300 H   0  0  0  0  0  0  0  0  0  0  0  0
  144.3925  161.6766  133.8694 H   0  0  0  0  0  0  0  0  0  0  0  0
  147.2262  161.5211  133.5282 H   0  0  0  0  0  0  0  0  0  0  0  0
  149.1036  159.9027  133.0916 H   0  0  0  0  0  0  0  0  0  0  0  0
  148.9260  156.7090  131.8360 H   0  0  0  0  0  0  0  0  0  0  0  0
  149.6130  157.1040  133.4460 H   0  0  0  0  0  0  0  0  0  0  0  0
  146.2377  156.6267  132.8844 H   0  0  0  0  0  0  0  0  0  0  0  0
  1  2  1  0
  2  3  1  0
  2  4  1  0
  2  5  1  0
  5  6  1  0
  6  7  2  0
  6  8  1  0
  8  9  1  0
  9 10  1  0
 10 11  1  0
 10 12  2  0
  9 13  2  0
 13 14  1  0
 14 15  2  0
 15 16  1  0
 16 17  2  0
 17 18  1  0
 17 19  1  0
 19 20  2  0
 20  8  1  0
 20 14  1  0
  1 21  1  0
  1 22  1  0
  1 23  1  0
  3 24  1  0
  3 25  1  0
  3 26  1  0
  4 27  1  0
  4 28  1  0
  4 29  1  0
 11 30  1  0
 11 31  1  0
 13 32  1  0
 15 33  1  0
 16 34  1  0
 18 35  1  0
 18 36  1  0
 19 37  1  0
M  END
>  <UniqueID>  (60) 
59

>  <SMILES>  (60) 
CC(C)(C)OC(=O)n1c(C(N)=O)cc2ccc(N)cc21

>  <Energy>  (60) 
69.7745331498659

>  <Genealogy>  (60) 
CC(C)(C)OC(=O)n1c(C(N)=O)cc2ccc(N)cc21 (3D coordinates assigned)
CC(C)(C)OC(=O)n1c(C(N)=O)cc2ccc(N)cc21 (optimized conformer: 69.7745331498659 kcal/mol)

>  <smiles>  (60) 
CC(C)(C)OC(=O)n1c(C(N)=O)cc2ccc(N)cc21

>  <score_type>  (60) 
oracle

>  <origin>  (60) 
adg

>  <m_score__min__energy>  (60) 
-6.4699999999999998

>  <m_primary>  (60) 
energy

$$$$
60:0
     RDKit          3D

 53 55  0  0  0  0  0  0  0  0999 V2000
  142.1540  155.6820  136.2950 C   0  0  0  0  0  0  0  0  0  0  0  0
  142.8870  154.7400  135.3230 C   0  0  0  0  0  0  0  0  0  0  0  0
  142.4140  153.3000  135.5720 C   0  0  0  0  0  0  0  0  0  0  0  0
  144.4110  154.8070  135.5440 C   0  0  0  0  0  0  0  0  0  0  0  0
  142.5580  155.0620  133.9630 O   0  0  0  0  0  0  0  0  0  0  0  0
  141.5090  155.8880  133.5320 C   0  0  0  0  0  0  0  0  0  0  0  0
  140.4860  155.3970  132.9830 O   0  0  0  0  0  0  0  0  0  0  0  0
  141.6090  157.3090  133.7160 N   0  0  0  0  0  0  0  0  0  0  0  0
  140.6240  158.1560  134.1270 C   0  0  0  0  0  0  0  0  0  0  0  0
  139.2010  157.8050  134.3030 C   0  0  0  0  0  0  0  0  0  0  0  0
  138.5020  157.0390  133.3210 N   0  0  0  0  0  0  0  0  0  0  0  0
  138.5770  158.2320  135.3100 O   0  0  0  0  0  0  0  0  0  0  0  0
  141.1270  159.4380  134.3230 C   0  0  0  0  0  0  0  0  0  0  0  0
  142.4630  159.3570  134.0050 C   0  0  0  0  0  0  0  0  0  0  0  0
  143.4490  160.3370  134.0390 C   0  0  0  0  0  0  0  0  0  0  0  0
  144.7600  159.9660  133.6980 C   0  0  0  0  0  0  0  0  0  0  0  0
  145.0660  158.6260  133.3430 C   0  0  0  0  0  0  0  0  0  0  0  0
  146.4590  158.2410  133.0030 C   0  0  0  0  0  0  0  0  0  0  0  0
  146.9220  156.9410  133.2670 C   0  0  0  0  0  0  0  0  0  0  0  0
  148.2340  156.5800  132.9500 C   0  0  0  0  0  0  0  0  0  0  0  0
  148.6730  155.3260  133.2160 F   0  0  0  0  0  0  0  0  0  0  0  0
  149.0930  157.5090  132.3630 C   0  0  0  0  0  0  0  0  0  0  0  0
  148.6540  158.8080  132.0830 C   0  0  0  0  0  0  0  0  0  0  0  0
  149.5670  159.6950  131.4870 O   0  0  0  0  0  0  0  0  0  0  0  0
  149.9250  159.7360  130.1030 C   0  0  0  0  0  0  0  0  0  0  0  0
  149.6080  161.1020  129.4900 C   0  0  0  0  0  0  0  0  0  0  0  0
  149.8750  162.1370  130.3970 O   0  0  0  0  0  0  0  0  0  0  0  0
  147.3320  159.1720  132.4110 C   0  0  0  0  0  0  0  0  0  0  0  0
  144.0340  157.6580  133.3240 C   0  0  0  0  0  0  0  0  0  0  0  0
  142.7310  158.0610  133.6450 C   0  0  0  0  0  0  0  0  0  0  0  0
  142.3816  155.3895  137.3307 H   0  0  0  0  0  0  0  0  0  0  0  0
  142.4872  156.7164  136.1244 H   0  0  0  0  0  0  0  0  0  0  0  0
  141.0695  155.6133  136.1244 H   0  0  0  0  0  0  0  0  0  0  0  0
  142.3536  153.1160  136.6548 H   0  0  0  0  0  0  0  0  0  0  0  0
  141.4216  153.1567  135.1198 H   0  0  0  0  0  0  0  0  0  0  0  0
  143.1282  152.5961  135.1198 H   0  0  0  0  0  0  0  0  0  0  0  0
  144.6250  154.8164  136.6230 H   0  0  0  0  0  0  0  0  0  0  0  0
  144.8873  153.9289  135.0834 H   0  0  0  0  0  0  0  0  0  0  0  0
  144.8084  155.7235  135.0834 H   0  0  0  0  0  0  0  0  0  0  0  0
  138.9400  156.8170  132.3990 H   0  0  0  0  0  0  0  0  0  0  0  0
  137.5120  156.7510  133.4860 H   0  0  0  0  0  0  0  0  0  0  0  0
  140.5742  160.3272  134.6604 H   0  0  0  0  0  0  0  0  0  0  0  0
  143.2093  161.3719  134.3245 H   0  0  0  0  0  0  0  0  0  0  0  0
  145.5587  160.7223  133.7061 H   0  0  0  0  0  0  0  0  0  0  0  0
  146.2476  156.2031  133.7260 H   0  0  0  0  0  0  0  0  0  0  0  0
  150.1251  157.2179  132.1179 H   0  0  0  0  0  0  0  0  0  0  0  0
  151.0030  159.5402  130.0052 H   0  0  0  0  0  0  0  0  0  0  0  0
  149.3421  158.9708  129.5694 H   0  0  0  0  0  0  0  0  0  0  0  0
  150.2255  161.2442  128.5909 H   0  0  0  0  0  0  0  0  0  0  0  0
  148.5387  161.1299  129.2334 H   0  0  0  0  0  0  0  0  0  0  0  0
  150.3120  161.7220  131.1860 H   0  0  0  0  0  0  0  0  0  0  0  0
  146.9800  160.1930  132.2022 H   0  0  0  0  0  0  0  0  0  0  0  0
  144.2501  156.6115  133.0628 H   0  0  0  0  0  0  0  0  0  0  0  0
  1  2  1  0
  2  3  1  0
  2  4  1  0
  2  5  1  0
  5  6  1  0
  6  7  2  0
  6  8  1  0
  8  9  1  0
  9 10  1  0
 10 11  1  0
 10 12  2  0
  9 13  2  0
 13 14  1  0
 14 15  2  0
 15 16  1  0
 16 17  2  0
 17 18  1  0
 18 19  2  0
 19 20  1  0
 20 21  1  0
 20 22  2  0
 22 23  1  0
 23 24  1  0
 24 25  1  0
 25 26  1  0
 26 27  1  0
 23 28  2  0
 17 29  1  0
 29 30  2  0
 30  8  1  0
 30 14  1  0
 28 18  1  0
  1 31  1  0
  1 32  1  0
  1 33  1  0
  3 34  1  0
  3 35  1  0
  3 36  1  0
  4 37  1  0
  4 38  1  0
  4 39  1  0
 11 40  1  0
 11 41  1  0
 13 42  1  0
 15 43  1  0
 16 44  1  0
 19 45  1  0
 22 46  1  0
 25 47  1  0
 25 48  1  0
 26 49  1  0
 26 50  1  0
 27 51  1  0
 28 52  1  0
 29 53  1  0
M  END
>  <UniqueID>  (61) 
60

>  <SMILES>  (61) 
CC(C)(C)OC(=O)n1c(C(N)=O)cc2ccc(-c3cc(F)cc(OCCO)c3)cc21

>  <Energy>  (61) 
93.61116520025564

>  <Genealogy>  (61) 
CC(C)(C)OC(=O)n1c(C(N)=O)cc2ccc(-c3cc(F)cc(OCCO)c3)cc21 (3D coordinates assigned)
CC(C)(C)OC(=O)n1c(C(N)=O)cc2ccc(-c3cc(F)cc(OCCO)c3)cc21 (optimized conformer: 93.61116520025564 kcal/mol)

>  <smiles>  (61) 
CC(C)(C)OC(=O)n1c(C(N)=O)cc2ccc(-c3cc(F)cc(OCCO)c3)cc21

>  <score_type>  (61) 
oracle

>  <origin>  (61) 
adg

>  <m_score__min__energy>  (61) 
-8.3200000000000003

>  <m_primary>  (61) 
energy

$$$$
61:0
     RDKit          3D

 38 40  0  0  0  0  0  0  0  0999 V2000
  147.7820  160.4750  133.7280 N   0  0  0  0  0  0  0  0  0  0  0  0
  146.9060  159.8010  132.8280 C   0  0  0  0  0  0  0  0  0  0  0  0
  147.1720  159.7950  131.5970 O   0  0  0  0  0  0  0  0  0  0  0  0
  145.6630  159.1650  133.3120 C   0  0  0  0  0  0  0  0  0  0  0  0
  145.4780  157.7840  133.3580 C   0  0  0  0  0  0  0  0  0  0  0  0
  144.1760  157.6050  133.7660 C   0  0  0  0  0  0  0  0  0  0  0  0
  143.4590  156.4310  133.9820 C   0  0  0  0  0  0  0  0  0  0  0  0
  142.1300  156.5440  134.4220 C   0  0  0  0  0  0  0  0  0  0  0  0
  141.5500  157.8170  134.6480 C   0  0  0  0  0  0  0  0  0  0  0  0
  140.1090  157.9260  135.0760 C   0  0  0  0  0  0  0  0  0  0  0  0
  139.1510  157.4650  133.9690 C   0  0  0  0  0  0  0  0  0  0  0  0
  139.1620  158.4060  132.7910 C   0  0  0  0  0  0  0  0  0  0  0  0
  138.7750  157.9550  131.5170 C   0  0  0  0  0  0  0  0  0  0  0  0
  138.7400  158.8420  130.4360 C   0  0  0  0  0  0  0  0  0  0  0  0
  139.0850  160.1830  130.6200 C   0  0  0  0  0  0  0  0  0  0  0  0
  139.4640  160.6410  131.8850 C   0  0  0  0  0  0  0  0  0  0  0  0
  139.4990  159.7590  132.9690 C   0  0  0  0  0  0  0  0  0  0  0  0
  142.3060  158.9850  134.4130 C   0  0  0  0  0  0  0  0  0  0  0  0
  143.6230  158.8440  133.9590 C   0  0  0  0  0  0  0  0  0  0  0  0
  144.5240  159.8130  133.6870 N   0  0  0  0  0  0  0  0  0  0  0  0
  144.3300  161.2260  133.8590 C   0  0  0  0  0  0  0  0  0  0  0  0
  145.4300  162.0650  134.2080 N   0  0  0  0  0  0  0  0  0  0  0  0
  143.1820  161.7270  133.7330 O   0  0  0  0  0  0  0  0  0  0  0  0
  147.4340  161.2450  134.3410 H   0  0  0  0  0  0  0  0  0  0  0  0
  146.2156  157.0037  133.1191 H   0  0  0  0  0  0  0  0  0  0  0  0
  143.9190  155.4461  133.8133 H   0  0  0  0  0  0  0  0  0  0  0  0
  141.5336  155.6356  134.5928 H   0  0  0  0  0  0  0  0  0  0  0  0
  139.9532  157.2988  135.9661 H   0  0  0  0  0  0  0  0  0  0  0  0
  139.8957  158.9825  135.2957 H   0  0  0  0  0  0  0  0  0  0  0  0
  139.4558  156.4645  133.6283 H   0  0  0  0  0  0  0  0  0  0  0  0
  138.1323  157.4483  134.3836 H   0  0  0  0  0  0  0  0  0  0  0  0
  138.4986  156.9005  131.3697 H   0  0  0  0  0  0  0  0  0  0  0  0
  138.4406  158.4832  129.4402 H   0  0  0  0  0  0  0  0  0  0  0  0
  139.0584  160.8791  129.7687 H   0  0  0  0  0  0  0  0  0  0  0  0
  139.7352  161.6974  132.0278 H   0  0  0  0  0  0  0  0  0  0  0  0
  139.7911  160.1249  133.9644 H   0  0  0  0  0  0  0  0  0  0  0  0
  141.8716  159.9813  134.5822 H   0  0  0  0  0  0  0  0  0  0  0  0
  146.3100  162.0560  133.6470 H   0  0  0  0  0  0  0  0  0  0  0  0
  1  2  1  0
  2  3  2  0
  2  4  1  0
  4  5  2  0
  5  6  1  0
  6  7  2  0
  7  8  1  0
  8  9  2  0
  9 10  1  0
 10 11  1  0
 11 12  1  0
 12 13  2  0
 13 14  1  0
 14 15  2  0
 15 16  1  0
 16 17  2  0
  9 18  1  0
 18 19  2  0
 19 20  1  0
 20 21  1  0
 21 22  1  0
 21 23  2  0
 20  4  1  0
 19  6  1  0
 17 12  1  0
  1 24  1  0
  5 25  1  0
  7 26  1  0
  8 27  1  0
 10 28  1  0
 10 29  1  0
 11 30  1  0
 11 31  1  0
 13 32  1  0
 14 33  1  0
 15 34  1  0
 16 35  1  0
 17 36  1  0
 18 37  1  0
 22 38  1  0
M  CHG  2   1  -1  22  -1
M  END
>  <UniqueID>  (62) 
61

>  <SMILES>  (62) 
[NH-]C(=O)c1cc2ccc(CCc3ccccc3)cc2n1C([NH-])=O

>  <Energy>  (62) 
75.96993239942356

>  <Genealogy>  (62) 
[NH-]C(=O)c1cc2ccc(CCc3ccccc3)cc2n1C([NH-])=O (protonated)
[NH-]C(=O)c1cc2ccc(CCc3ccccc3)cc2n1C([NH-])=O (3D coordinates assigned)
[NH-]C(=O)c1cc2ccc(CCc3ccccc3)cc2n1C([NH-])=O (optimized conformer: 75.96993239942356 kcal/mol)

>  <smiles>  (62) 
NC(=O)c1cc2ccc(CCc3ccccc3)cc2n1C(N)=O

>  <score_type>  (62) 
oracle

>  <origin>  (62) 
adg

>  <m_score__min__energy>  (62) 
-8.0099999999999998

>  <m_primary>  (62) 
energy

$$$$
62:0
     RDKit          3D

103111  0  0  0  0  0  0  0  0999 V2000
  148.1340  161.3010  132.5610 N   0  0  0  0  0  0  0  0  0  0  0  0
  149.0950  160.3140  132.1940 C   0  0  0  0  0  0  0  0  0  0  0  0
  150.1800  160.6750  131.6650 O   0  0  0  0  0  0  0  0  0  0  0  0
  148.8120  158.8750  132.3680 C   0  0  0  0  0  0  0  0  0  0  0  0
  149.8050  157.9000  132.3670 C   0  0  0  0  0  0  0  0  0  0  0  0
  149.1360  156.7000  132.4480 C   0  0  0  0  0  0  0  0  0  0  0  0
  149.6330  155.4010  132.4580 C   0  0  0  0  0  0  0  0  0  0  0  0
  148.7150  154.3460  132.5360 C   0  0  0  0  0  0  0  0  0  0  0  0
  147.3190  154.5980  132.6100 C   0  0  0  0  0  0  0  0  0  0  0  0
  146.3550  153.4690  132.6510 C   0  0  0  0  0  0  0  0  0  0  0  0
  146.7990  152.1390  132.6570 C   0  0  0  0  0  0  0  0  0  0  0  0
  145.9020  151.1190  132.6690 N   0  0  0  0  0  0  0  0  0  0  0  0
  144.5610  151.3520  132.6780 C   0  0  0  0  0  0  0  0  0  0  0  0
  143.6350  150.2440  132.6870 N   0  0  0  0  0  0  0  0  0  0  0  0
  142.4770  150.2950  133.5940 C   0  0  0  0  0  0  0  0  0  0  0  0
  141.5310  149.1080  133.3760 C   0  0  0  0  0  0  0  0  0  0  0  0
  141.3270  148.8800  131.8690 C   0  0  0  0  0  0  0  0  0  0  0  0
  140.2260  147.8230  131.6280 C   0  0  0  0  0  0  0  0  0  0  0  0
  139.0460  148.3730  130.9140 N   0  0  0  0  0  0  0  0  0  0  0  0
  138.0840  148.9830  131.8480 C   0  0  0  0  0  0  0  0  0  0  0  0
  138.6300  150.2450  132.5380 C   0  0  0  0  0  0  0  0  0  0  0  0
  139.4950  151.0670  131.6730 N   0  0  0  0  0  0  0  0  0  0  0  0
  139.9970  152.2950  132.2200 C   0  0  0  0  0  0  0  0  0  0  0  0
  141.3890  152.4760  132.3990 C   0  0  0  0  0  0  0  0  0  0  0  0
  141.8890  153.6610  132.9600 C   0  0  0  0  0  0  0  0  0  0  0  0
  140.9770  154.6480  133.3170 C   0  0  0  0  0  0  0  0  0  0  0  0
  139.6210  154.4840  133.1550 C   0  0  0  0  0  0  0  0  0  0  0  0
  139.1020  153.3100  132.6100 C   0  0  0  0  0  0  0  0  0  0  0  0
  138.8680  155.6840  133.6510 C   0  0  0  0  0  0  0  0  0  0  0  0
  139.9280  156.5950  134.1110 N   0  0  0  0  0  0  0  0  0  0  0  0
  139.7310  157.7370  135.0150 C   0  0  1  0  0  0  0  0  0  0  0  0
  139.8180  157.2920  136.4850 C   0  0  0  0  0  0  0  0  0  0  0  0
  139.6670  158.4860  137.4350 C   0  0  0  0  0  0  0  0  0  0  0  0
  140.6810  159.5470  137.1130 C   0  0  0  0  0  0  0  0  0  0  0  0
  141.0720  160.3330  138.0170 O   0  0  0  0  0  0  0  0  0  0  0  0
  141.1670  159.7020  135.7770 N   0  0  0  0  0  0  0  0  0  0  0  0
  140.7410  158.8220  134.7310 C   0  0  0  0  0  0  0  0  0  0  0  0
  141.1610  159.0020  133.5590 O   0  0  0  0  0  0  0  0  0  0  0  0
  141.1830  155.9410  133.9150 C   0  0  0  0  0  0  0  0  0  0  0  0
  142.2970  156.4150  134.2690 O   0  0  0  0  0  0  0  0  0  0  0  0
  140.0710  150.5960  130.4050 C   0  0  0  0  0  0  0  0  0  0  0  0
  139.3700  149.3510  129.8590 C   0  0  0  0  0  0  0  0  0  0  0  0
  142.6650  148.5010  131.1830 C   0  0  0  0  0  0  0  0  0  0  0  0
  143.9160  149.0120  131.9290 C   0  0  0  0  0  0  0  0  0  0  0  0
  144.1100  152.6350  132.6830 N   0  0  0  0  0  0  0  0  0  0  0  0
  144.9690  153.6870  132.6700 C   0  0  0  0  0  0  0  0  0  0  0  0
  146.8540  155.9350  132.6090 C   0  0  0  0  0  0  0  0  0  0  0  0
  147.7940  156.9690  132.5040 C   0  0  0  0  0  0  0  0  0  0  0  0
  147.5790  158.3050  132.4620 N   0  0  0  0  0  0  0  0  0  0  0  0
  146.3130  158.9750  132.5790 C   0  0  0  0  0  0  0  0  0  0  0  0
  146.0580  159.9680  131.8460 O   0  0  0  0  0  0  0  0  0  0  0  0
  145.3740  158.5380  133.5190 O   0  0  0  0  0  0  0  0  0  0  0  0
  144.1310  159.1950  133.7450 C   0  0  0  0  0  0  0  0  0  0  0  0
  144.3650  160.6680  133.9310 C   0  0  0  0  0  0  0  0  0  0  0  0
  143.3810  161.5900  133.5390 C   0  0  0  0  0  0  0  0  0  0  0  0
  143.6110  162.9640  133.6640 C   0  0  0  0  0  0  0  0  0  0  0  0
  144.8300  163.4250  134.1680 C   0  0  0  0  0  0  0  0  0  0  0  0
  145.8230  162.5180  134.5430 C   0  0  0  0  0  0  0  0  0  0  0  0
  145.5920  161.1420  134.4280 C   0  0  0  0  0  0  0  0  0  0  0  0
  147.4440  161.6650  131.8670 H   0  0  0  0  0  0  0  0  0  0  0  0
  150.8926  158.0553  132.3130 H   0  0  0  0  0  0  0  0  0  0  0  0
  150.7147  155.2080  132.4062 H   0  0  0  0  0  0  0  0  0  0  0  0
  149.0800  153.3083  132.5400 H   0  0  0  0  0  0  0  0  0  0  0  0
  147.8771  151.9209  132.6520 H   0  0  0  0  0  0  0  0  0  0  0  0
  142.8374  150.2770  134.6331 H   0  0  0  0  0  0  0  0  0  0  0  0
  141.9193  151.2199  133.3852 H   0  0  0  0  0  0  0  0  0  0  0  0
  141.9674  148.2046  133.8270 H   0  0  0  0  0  0  0  0  0  0  0  0
  140.5606  149.3233  133.8472 H   0  0  0  0  0  0  0  0  0  0  0  0
  140.9862  149.8195  131.4094 H   0  0  0  0  0  0  0  0  0  0  0  0
  140.6500  147.0046  131.0276 H   0  0  0  0  0  0  0  0  0  0  0  0
  139.8831  147.4719  132.6125 H   0  0  0  0  0  0  0  0  0  0  0  0
  137.1768  149.2547  131.2883 H   0  0  0  0  0  0  0  0  0  0  0  0
  137.8763  148.2428  132.6348 H   0  0  0  0  0  0  0  0  0  0  0  0
  137.7774  150.8602  132.8614 H   0  0  0  0  0  0  0  0  0  0  0  0
  139.2486  149.9070  133.3825 H   0  0  0  0  0  0  0  0  0  0  0  0
  142.0855  151.6805  132.0956 H   0  0  0  0  0  0  0  0  0  0  0  0
  142.9689  153.8047  133.1126 H   0  0  0  0  0  0  0  0  0  0  0  0
  138.0167  153.1795  132.4873 H   0  0  0  0  0  0  0  0  0  0  0  0
  138.2817  156.1418  132.8406 H   0  0  0  0  0  0  0  0  0  0  0  0
  138.1452  155.4367  134.4425 H   0  0  0  0  0  0  0  0  0  0  0  0
  138.7246  158.1436  134.8367 H   0  0  0  0  0  0  0  0  0  0  0  0
  139.0157  156.5675  136.6888 H   0  0  0  0  0  0  0  0  0  0  0  0
  140.8045  156.8353  136.6532 H   0  0  0  0  0  0  0  0  0  0  0  0
  138.6564  158.9072  137.3290 H   0  0  0  0  0  0  0  0  0  0  0  0
  139.8284  158.1416  138.4672 H   0  0  0  0  0  0  0  0  0  0  0  0
  141.8490  160.4630  135.5590 H   0  0  0  0  0  0  0  0  0  0  0  0
  139.9865  151.4013  129.6605 H   0  0  0  0  0  0  0  0  0  0  0  0
  141.1196  150.3261  130.5988 H   0  0  0  0  0  0  0  0  0  0  0  0
  138.4362  149.6601  129.3666 H   0  0  0  0  0  0  0  0  0  0  0  0
  140.0591  148.8635  129.1536 H   0  0  0  0  0  0  0  0  0  0  0  0
  142.7233  147.4044  131.1193 H   0  0  0  0  0  0  0  0  0  0  0  0
  142.6643  148.9816  130.1935 H   0  0  0  0  0  0  0  0  0  0  0  0
  144.2567  148.2338  132.6278 H   0  0  0  0  0  0  0  0  0  0  0  0
  144.6910  149.2389  131.1821 H   0  0  0  0  0  0  0  0  0  0  0  0
  144.5764  154.7145  132.6744 H   0  0  0  0  0  0  0  0  0  0  0  0
  145.7796  156.1572  132.6888 H   0  0  0  0  0  0  0  0  0  0  0  0
  143.4703  159.0358  132.8800 H   0  0  0  0  0  0  0  0  0  0  0  0
  143.6596  158.7832  134.6496 H   0  0  0  0  0  0  0  0  0  0  0  0
  142.4247  161.2299  133.1317 H   0  0  0  0  0  0  0  0  0  0  0  0
  142.8324  163.6815  133.3656 H   0  0  0  0  0  0  0  0  0  0  0  0
  145.0078  164.5058  134.2696 H   0  0  0  0  0  0  0  0  0  0  0  0
  146.7860  162.8842  134.9285 H   0  0  0  0  0  0  0  0  0  0  0  0
  146.3738  160.4286  134.7277 H   0  0  0  0  0  0  0  0  0  0  0  0
  1  2  1  0
  2  3  2  0
  2  4  1  0
  4  5  2  0
  5  6  1  0
  6  7  2  0
  7  8  1  0
  8  9  2  0
  9 10  1  0
 10 11  2  0
 11 12  1  0
 12 13  2  0
 13 14  1  0
 14 15  1  0
 15 16  1  0
 16 17  1  0
 17 18  1  0
 18 19  1  0
 19 20  1  0
 20 21  1  0
 21 22  1  0
 22 23  1  0
 23 24  2  0
 24 25  1  0
 25 26  2  0
 26 27  1  0
 27 28  2  0
 27 29  1  0
 29 30  1  0
 30 31  1  0
 31 32  1  0
 32 33  1  0
 33 34  1  0
 34 35  2  0
 34 36  1  0
 36 37  1  0
 37 38  2  0
 30 39  1  0
 39 40  2  0
 22 41  1  0
 41 42  1  0
 17 43  1  0
 43 44  1  0
 13 45  1  0
 45 46  2  0
  9 47  1  0
 47 48  2  0
 48 49  1  0
 49 50  1  0
 50 51  2  0
 50 52  1  0
 52 53  1  0
 53 54  1  0
 54 55  2  0
 55 56  1  0
 56 57  2  0
 57 58  1  0
 58 59  2  0
 49  4  1  0
 59 54  1  0
 48  6  1  0
 46 10  1  0
 44 14  1  0
 42 19  1  0
 28 23  1  0
 37 31  1  0
 39 26  1  0
  1 60  1  0
  5 61  1  0
  7 62  1  0
  8 63  1  0
 11 64  1  0
 15 65  1  0
 15 66  1  0
 16 67  1  0
 16 68  1  0
 17 69  1  0
 18 70  1  0
 18 71  1  0
 20 72  1  0
 20 73  1  0
 21 74  1  0
 21 75  1  0
 24 76  1  0
 25 77  1  0
 28 78  1  0
 29 79  1  0
 29 80  1  0
 31 81  1  1
 32 82  1  0
 32 83  1  0
 33 84  1  0
 33 85  1  0
 36 86  1  0
 41 87  1  0
 41 88  1  0
 42 89  1  0
 42 90  1  0
 43 91  1  0
 43 92  1  0
 44 93  1  0
 44 94  1  0
 46 95  1  0
 47 96  1  0
 53 97  1  0
 53 98  1  0
 55 99  1  0
 56100  1  0
 57101  1  0
 58102  1  0
 59103  1  0
M  CHG  1   1  -1
M  END
>  <UniqueID>  (63) 
62

>  <SMILES>  (63) 
[NH-]C(=O)c1cc2ccc(-c3cnc(N4CCC(CN5CCN(c6ccc7c(c6)CN([C@H]6CCC(=O)NC6=O)C7=O)CC5)CC4)nc3)cc2n1C(=O)OCc1ccccc1

>  <Energy>  (63) 
189.63789838944263

>  <Genealogy>  (63) 
[NH-]C(=O)c1cc2ccc(-c3cnc(N4CCC(CN5CCN(c6ccc7c(c6)CN([C@H]6CCC(=O)NC6=O)C7=O)CC5)CC4)nc3)cc2n1C(=O)OCc1ccccc1 (protonated)
[NH-]C(=O)c1cc2ccc(-c3cnc(N4CCC(CN5CCN(c6ccc7c(c6)CN([C@H]6CCC(=O)NC6=O)C7=O)CC5)CC4)nc3)cc2n1C(=O)OCc1ccccc1 (3D coordinates assigned)
[NH-]C(=O)c1cc2ccc(-c3cnc(N4CCC(CN5CCN(c6ccc7c(c6)CN([C@H]6CCC(=O)NC6=O)C7=O)CC5)CC4)nc3)cc2n1C(=O)OCc1ccccc1 (nonaromatic ring conformer: 189.63789838944263 kcal/mol)

>  <smiles>  (63) 
NC(=O)c1cc2ccc(-c3cnc(N4CCC(CN5CCN(c6ccc7c(c6)CN([C@H]6CCC(=O)NC6=O)C7=O)CC5)CC4)nc3)cc2n1C(=O)OCc1ccccc1

>  <score_type>  (63) 
oracle

>  <origin>  (63) 
adg

>  <m_score__min__energy>  (63) 
-8.3699999999999992

>  <m_primary>  (63) 
energy

$$$$
63:0
     RDKit          3D

 33 35  0  0  0  0  0  0  0  0999 V2000
  149.6990  157.5000  132.1510 N   0  0  0  0  0  0  0  0  0  0  0  0
  149.2240  158.8370  132.2820 C   0  0  0  0  0  0  0  0  0  0  0  0
  149.9770  159.7930  131.9500 O   0  0  0  0  0  0  0  0  0  0  0  0
  147.8580  159.1160  132.7720 C   0  0  0  0  0  0  0  0  0  0  0  0
  147.3590  160.4000  132.9880 C   0  0  0  0  0  0  0  0  0  0  0  0
  146.0500  160.2230  133.3800 C   0  0  0  0  0  0  0  0  0  0  0  0
  145.0810  161.1560  133.7290 C   0  0  0  0  0  0  0  0  0  0  0  0
  143.8140  160.6820  134.1060 C   0  0  0  0  0  0  0  0  0  0  0  0
  143.5320  159.2890  134.1260 C   0  0  0  0  0  0  0  0  0  0  0  0
  142.1990  158.7770  134.5350 C   0  0  0  0  0  0  0  0  0  0  0  0
  141.3610  158.0910  133.6360 C   0  0  0  0  0  0  0  0  0  0  0  0
  140.1180  157.6260  134.0710 C   0  0  0  0  0  0  0  0  0  0  0  0
  139.7180  157.8390  135.3900 C   0  0  0  0  0  0  0  0  0  0  0  0
  140.5740  158.5130  136.2610 C   0  0  0  0  0  0  0  0  0  0  0  0
  141.7800  158.9600  135.8200 N   0  0  0  0  0  0  0  0  0  0  0  0
  144.5520  158.3730  133.7720 C   0  0  0  0  0  0  0  0  0  0  0  0
  145.7990  158.8770  133.3950 C   0  0  0  0  0  0  0  0  0  0  0  0
  146.8980  158.1860  133.0300 N   0  0  0  0  0  0  0  0  0  0  0  0
  147.0100  156.7570  132.9750 C   0  0  0  0  0  0  0  0  0  0  0  0
  146.9980  156.1770  131.8570 O   0  0  0  0  0  0  0  0  0  0  0  0
  147.0320  155.9390  134.2300 C   0  0  0  0  0  0  0  0  0  0  0  0
  147.5840  154.7020  133.9570 F   0  0  0  0  0  0  0  0  0  0  0  0
  145.7510  155.7610  134.7220 F   0  0  0  0  0  0  0  0  0  0  0  0
  147.8000  156.5760  135.1890 F   0  0  0  0  0  0  0  0  0  0  0  0
  149.0800  156.7430  131.7890 H   0  0  0  0  0  0  0  0  0  0  0  0
  147.8965  161.3525  132.8704 H   0  0  0  0  0  0  0  0  0  0  0  0
  145.2999  162.2338  133.7105 H   0  0  0  0  0  0  0  0  0  0  0  0
  143.0291  161.3985  134.3897 H   0  0  0  0  0  0  0  0  0  0  0  0
  141.6829  157.9223  132.5978 H   0  0  0  0  0  0  0  0  0  0  0  0
  139.4551  157.0923  133.3740 H   0  0  0  0  0  0  0  0  0  0  0  0
  138.7388  157.4796  135.7394 H   0  0  0  0  0  0  0  0  0  0  0  0
  140.2732  158.6830  137.3053 H   0  0  0  0  0  0  0  0  0  0  0  0
  144.3666  157.2889  133.7934 H   0  0  0  0  0  0  0  0  0  0  0  0
  1  2  1  0
  2  3  2  0
  2  4  1  0
  4  5  2  0
  5  6  1  0
  6  7  2  0
  7  8  1  0
  8  9  2  0
  9 10  1  0
 10 11  2  0
 11 12  1  0
 12 13  2  0
 13 14  1  0
 14 15  2  0
  9 16  1  0
 16 17  2  0
 17 18  1  0
 18 19  1  0
 19 20  2  0
 19 21  1  0
 21 22  1  0
 21 23  1  0
 21 24  1  0
 18  4  1  0
 17  6  1  0
 15 10  1  0
  1 25  1  0
  5 26  1  0
  7 27  1  0
  8 28  1  0
 11 29  1  0
 12 30  1  0
 13 31  1  0
 14 32  1  0
 16 33  1  0
M  CHG  1   1  -1
M  END
>  <UniqueID>  (64) 
63

>  <SMILES>  (64) 
[NH-]C(=O)c1cc2ccc(-c3ccccn3)cc2n1C(=O)C(F)(F)F

>  <Energy>  (64) 
80.59728266562277

>  <Genealogy>  (64) 
[NH-]C(=O)c1cc2ccc(-c3ccccn3)cc2n1C(=O)C(F)(F)F (protonated)
[NH-]C(=O)c1cc2ccc(-c3ccccn3)cc2n1C(=O)C(F)(F)F (3D coordinates assigned)
[NH-]C(=O)c1cc2ccc(-c3ccccn3)cc2n1C(=O)C(F)(F)F (optimized conformer: 80.59728266562277 kcal/mol)

>  <smiles>  (64) 
NC(=O)c1cc2ccc(-c3ccccn3)cc2n1C(=O)C(F)(F)F

>  <score_type>  (64) 
oracle

>  <origin>  (64) 
adg

>  <m_score__min__energy>  (64) 
-6.7300000000000004

>  <m_primary>  (64) 
energy

$$$$
64:0
     RDKit          3D

 87 91  0  0  0  0  0  0  0  0999 V2000
  141.5540  151.7040  133.1130 C   0  0  0  0  0  0  0  0  0  0  0  0
  141.8750  153.1750  133.4190 C   0  0  0  0  0  0  0  0  0  0  0  0
  140.5890  154.0110  133.3470 C   0  0  0  0  0  0  0  0  0  0  0  0
  142.5370  153.3480  134.8090 C   0  0  0  0  0  0  0  0  0  0  0  0
  142.0690  154.5980  135.5920 C   0  0  2  0  0  0  0  0  0  0  0  0
  142.9730  155.7380  135.3740 N   0  0  0  0  0  0  0  0  0  0  0  0
  143.0000  156.5690  134.2020 C   0  0  0  0  0  0  0  0  0  0  0  0
  142.4440  156.1960  133.1340 O   0  0  0  0  0  0  0  0  0  0  0  0
  143.6410  157.8130  134.2640 O   0  0  0  0  0  0  0  0  0  0  0  0
  143.2160  158.9570  133.5230 C   0  0  0  0  0  0  0  0  0  0  0  0
  141.9220  159.5620  134.0970 C   0  0  0  0  0  0  0  0  0  0  0  0
  140.7630  159.2470  133.1860 C   0  0  0  0  0  0  0  0  0  0  0  0
  140.5580  159.6870  131.8760 C   0  0  0  0  0  0  0  0  0  0  0  0
  139.4080  159.2580  131.1920 C   0  0  0  0  0  0  0  0  0  0  0  0
  138.4840  158.3990  131.8200 C   0  0  0  0  0  0  0  0  0  0  0  0
  138.7000  157.9690  133.1400 C   0  0  0  0  0  0  0  0  0  0  0  0
  139.8490  158.4070  133.7980 C   0  0  0  0  0  0  0  0  0  0  0  0
  140.2850  158.1720  135.1560 C   0  0  0  0  0  0  0  0  0  0  0  0
  139.6460  157.4870  136.1910 C   0  0  0  0  0  0  0  0  0  0  0  0
  140.2210  157.5310  137.4700 C   0  0  0  0  0  0  0  0  0  0  0  0
  141.3920  158.2810  137.6990 C   0  0  0  0  0  0  0  0  0  0  0  0
  142.0060  158.9760  136.6450 C   0  0  0  0  0  0  0  0  0  0  0  0
  141.4590  158.8740  135.3610 C   0  0  0  0  0  0  0  0  0  0  0  0
  141.8900  154.3160  137.0620 C   0  0  0  0  0  0  0  0  0  0  0  0
  142.3220  155.1470  137.9060 O   0  0  0  0  0  0  0  0  0  0  0  0
  141.1810  153.1530  137.4980 N   0  0  0  0  0  0  0  0  0  0  0  0
  140.8650  152.8530  138.8900 C   0  0  0  0  0  0  0  0  0  0  0  0
  141.5120  151.5400  139.3480 C   0  0  0  0  0  0  0  0  0  0  0  0
  142.9990  151.6710  139.5640 C   0  0  0  0  0  0  0  0  0  0  0  0
  143.6010  151.0980  140.7120 C   0  0  0  0  0  0  0  0  0  0  0  0
  144.9910  151.1520  140.8920 C   0  0  0  0  0  0  0  0  0  0  0  0
  145.7540  151.7810  139.9140 C   0  0  0  0  0  0  0  0  0  0  0  0
  147.1150  151.9480  139.8340 C   0  0  0  0  0  0  0  0  0  0  0  0
  147.3320  152.6290  138.6400 C   0  0  0  0  0  0  0  0  0  0  0  0
  148.6780  152.8980  138.1000 C   0  0  0  0  0  0  0  0  0  0  0  0
  149.0940  152.2780  136.8870 N   0  0  0  0  0  0  0  0  0  0  0  0
  149.4400  153.7230  138.6640 O   0  0  0  0  0  0  0  0  0  0  0  0
  146.1490  152.8980  138.0140 N   0  0  0  0  0  0  0  0  0  0  0  0
  145.9480  153.7210  136.8490 C   0  0  0  0  0  0  0  0  0  0  0  0
  144.8820  154.3830  136.7280 O   0  0  0  0  0  0  0  0  0  0  0  0
  146.9180  153.7480  135.8350 O   0  0  0  0  0  0  0  0  0  0  0  0
  146.8100  154.4140  134.5700 C   0  0  0  0  0  0  0  0  0  0  0  0
  146.5670  155.9230  134.7670 C   0  0  0  0  0  0  0  0  0  0  0  0
  145.5960  153.8100  133.8440 C   0  0  0  0  0  0  0  0  0  0  0  0
  148.0730  154.1700  133.7240 C   0  0  0  0  0  0  0  0  0  0  0  0
  145.1910  152.3530  138.8000 C   0  0  0  0  0  0  0  0  0  0  0  0
  143.8020  152.3220  138.6030 C   0  0  0  0  0  0  0  0  0  0  0  0
  141.4334  151.1511  134.0563 H   0  0  0  0  0  0  0  0  0  0  0  0
  140.6219  151.6453  132.5318 H   0  0  0  0  0  0  0  0  0  0  0  0
  142.3769  151.2624  132.5318 H   0  0  0  0  0  0  0  0  0  0  0  0
  142.5936  153.5248  132.6632 H   0  0  0  0  0  0  0  0  0  0  0  0
  140.2412  154.2371  134.3658 H   0  0  0  0  0  0  0  0  0  0  0  0
  140.7918  154.9504  132.8118 H   0  0  0  0  0  0  0  0  0  0  0  0
  139.8128  153.4444  132.8118 H   0  0  0  0  0  0  0  0  0  0  0  0
  142.3058  152.4580  135.4127 H   0  0  0  0  0  0  0  0  0  0  0  0
  143.6143  153.4775  134.6283 H   0  0  0  0  0  0  0  0  0  0  0  0
  141.0802  154.8705  135.1944 H   0  0  0  0  0  0  0  0  0  0  0  0
  143.5600  156.0430  136.1820 H   0  0  0  0  0  0  0  0  0  0  0  0
  144.0099  159.7177  133.5561 H   0  0  0  0  0  0  0  0  0  0  0  0
  143.0155  158.6394  132.4891 H   0  0  0  0  0  0  0  0  0  0  0  0
  142.1583  160.6269  134.2391 H   0  0  0  0  0  0  0  0  0  0  0  0
  141.2828  160.3563  131.3895 H   0  0  0  0  0  0  0  0  0  0  0  0
  139.2279  159.5946  130.1604 H   0  0  0  0  0  0  0  0  0  0  0  0
  137.5897  158.0637  131.2743 H   0  0  0  0  0  0  0  0  0  0  0  0
  137.9814  157.3040  133.6415 H   0  0  0  0  0  0  0  0  0  0  0  0
  138.7165  156.9277  136.0086 H   0  0  0  0  0  0  0  0  0  0  0  0
  139.7553  156.9771  138.2985 H   0  0  0  0  0  0  0  0  0  0  0  0
  141.8270  158.3220  138.7085 H   0  0  0  0  0  0  0  0  0  0  0  0
  142.9009  159.5897  136.8252 H   0  0  0  0  0  0  0  0  0  0  0  0
  141.2342  153.6726  139.5240 H   0  0  0  0  0  0  0  0  0  0  0  0
  139.7737  152.7470  138.9789 H   0  0  0  0  0  0  0  0  0  0  0  0
  141.0447  151.2280  140.2937 H   0  0  0  0  0  0  0  0  0  0  0  0
  141.3549  150.7959  138.5532 H   0  0  0  0  0  0  0  0  0  0  0  0
  142.9723  150.6063  141.4689 H   0  0  0  0  0  0  0  0  0  0  0  0
  145.4640  150.7096  141.7811 H   0  0  0  0  0  0  0  0  0  0  0  0
  147.8720  151.6145  140.5591 H   0  0  0  0  0  0  0  0  0  0  0  0
  148.4520  152.2170  136.0660 H   0  0  0  0  0  0  0  0  0  0  0  0
  146.5303  156.1512  135.8425 H   0  0  0  0  0  0  0  0  0  0  0  0
  147.3854  156.4903  134.2996 H   0  0  0  0  0  0  0  0  0  0  0  0
  145.6119  156.2047  134.2996 H   0  0  0  0  0  0  0  0  0  0  0  0
  144.8683  153.4480  134.5852 H   0  0  0  0  0  0  0  0  0  0  0  0
  145.1257  154.5792  133.2138 H   0  0  0  0  0  0  0  0  0  0  0  0
  145.9258  152.9709  133.2138 H   0  0  0  0  0  0  0  0  0  0  0  0
  148.9333  154.0038  134.3890 H   0  0  0  0  0  0  0  0  0  0  0  0
  147.9237  153.2841  133.0893 H   0  0  0  0  0  0  0  0  0  0  0  0
  148.2644  155.0478  133.0893 H   0  0  0  0  0  0  0  0  0  0  0  0
  143.3490  152.7947  137.7191 H   0  0  0  0  0  0  0  0  0  0  0  0
  1  2  1  0
  2  3  1  0
  2  4  1  0
  4  5  1  0
  5  6  1  0
  6  7  1  0
  7  8  2  0
  7  9  1  0
  9 10  1  0
 10 11  1  0
 11 12  1  0
 12 13  2  0
 13 14  1  0
 14 15  2  0
 15 16  1  0
 16 17  2  0
 17 18  1  0
 18 19  2  0
 19 20  1  0
 20 21  2  0
 21 22  1  0
 22 23  2  0
  5 24  1  0
 24 25  2  0
 24 26  1  0
 26 27  1  0
 27 28  1  0
 28 29  1  0
 29 30  2  0
 30 31  1  0
 31 32  2  0
 32 33  1  0
 33 34  2  0
 34 35  1  0
 35 36  1  0
 35 37  2  0
 34 38  1  0
 38 39  1  0
 39 40  2  0
 39 41  1  0
 41 42  1  0
 42 43  1  0
 42 44  1  0
 42 45  1  0
 38 46  1  0
 46 47  2  0
 23 11  1  0
 47 29  1  0
 17 12  1  0
 23 18  1  0
 46 32  1  0
  1 48  1  0
  1 49  1  0
  1 50  1  0
  2 51  1  0
  3 52  1  0
  3 53  1  0
  3 54  1  0
  4 55  1  0
  4 56  1  0
  5 57  1  6
  6 58  1  0
 10 59  1  0
 10 60  1  0
 11 61  1  0
 13 62  1  0
 14 63  1  0
 15 64  1  0
 16 65  1  0
 19 66  1  0
 20 67  1  0
 21 68  1  0
 22 69  1  0
 27 70  1  0
 27 71  1  0
 28 72  1  0
 28 73  1  0
 30 74  1  0
 31 75  1  0
 33 76  1  0
 36 77  1  0
 43 78  1  0
 43 79  1  0
 43 80  1  0
 44 81  1  0
 44 82  1  0
 44 83  1  0
 45 84  1  0
 45 85  1  0
 45 86  1  0
 47 87  1  0
M  CHG  2  26  -1  36  -1
M  END
>  <UniqueID>  (65) 
64

>  <SMILES>  (65) 
CC(C)C[C@H](NC(=O)OCC1c2ccccc2-c2ccccc21)C(=O)[N-]CCc1ccc2cc(C([NH-])=O)n(C(=O)OC(C)(C)C)c2c1

>  <Energy>  (65) 
135.78400212556005

>  <Genealogy>  (65) 
CC(C)C[C@H](NC(=O)OCC1c2ccccc2-c2ccccc21)C(=O)[N-]CCc1ccc2cc(C([NH-])=O)n(C(=O)OC(C)(C)C)c2c1 (protonated)
CC(C)C[C@H](NC(=O)OCC1c2ccccc2-c2ccccc21)C(=O)[N-]CCc1ccc2cc(C([NH-])=O)n(C(=O)OC(C)(C)C)c2c1 (3D coordinates assigned)
CC(C)C[C@H](NC(=O)OCC1c2ccccc2-c2ccccc21)C(=O)[N-]CCc1ccc2cc(C([NH-])=O)n(C(=O)OC(C)(C)C)c2c1 (nonaromatic ring conformer: 135.78400212556005 kcal/mol)

>  <smiles>  (65) 
CC(C)C[C@H](NC(=O)OCC1c2ccccc2-c2ccccc21)C(=O)NCCc1ccc2cc(C(N)=O)n(C(=O)OC(C)(C)C)c2c1

>  <score_type>  (65) 
oracle

>  <origin>  (65) 
adg

>  <m_score__min__energy>  (65) 
-13.779999999999999

>  <m_primary>  (65) 
energy

$$$$
65:0
     RDKit          3D

 74 75  0  0  0  0  0  0  0  0999 V2000
  148.3710  151.2210  132.2110 C   0  0  0  0  0  0  0  0  0  0  0  0
  149.6300  151.9580  132.5200 C   0  0  0  0  0  0  0  0  0  0  0  0
  150.7160  151.3240  132.6080 O   0  0  0  0  0  0  0  0  0  0  0  0
  149.6010  153.3470  132.6600 O   0  0  0  0  0  0  0  0  0  0  0  0
  148.4920  154.1380  132.2380 C   0  0  0  0  0  0  0  0  0  0  0  0
  147.5910  154.5330  133.4310 C   0  0  1  0  0  0  0  0  0  0  0  0
  148.0860  153.9970  134.7960 C   0  0  0  0  0  0  0  0  0  0  0  0
  147.2060  154.4270  135.9750 C   0  0  0  0  0  0  0  0  0  0  0  0
  146.8280  153.2980  136.7260 O   0  0  0  0  0  0  0  0  0  0  0  0
  148.1860  152.6720  137.6100 Si  0  0  0  0  0  4  0  0  0  0  0  0
  149.2590  151.5860  136.5200 C   0  0  0  0  0  0  0  0  0  0  0  0
  149.2270  154.0940  138.2440 C   0  0  0  0  0  0  0  0  0  0  0  0
  147.5030  151.6620  139.0680 C   0  0  0  0  0  0  0  0  0  0  0  0
  147.3250  150.1980  138.6290 C   0  0  0  0  0  0  0  0  0  0  0  0
  146.1460  152.2290  139.5210 C   0  0  0  0  0  0  0  0  0  0  0  0
  148.5030  151.7270  140.2350 C   0  0  0  0  0  0  0  0  0  0  0  0
  147.3840  156.0370  133.5060 C   0  0  0  0  0  0  0  0  0  0  0  0
  148.5010  156.9030  133.3660 C   0  0  0  0  0  0  0  0  0  0  0  0
  148.3370  158.2980  133.3580 C   0  0  0  0  0  0  0  0  0  0  0  0
  147.0480  158.8030  133.4940 C   0  0  0  0  0  0  0  0  0  0  0  0
  146.6010  160.1060  133.4900 C   0  0  0  0  0  0  0  0  0  0  0  0
  145.2180  160.0220  133.6510 C   0  0  0  0  0  0  0  0  0  0  0  0
  144.3370  161.2040  133.7800 C   0  0  0  0  0  0  0  0  0  0  0  0
  144.8700  162.4910  134.0740 N   0  0  0  0  0  0  0  0  0  0  0  0
  143.0980  161.0800  133.5930 O   0  0  0  0  0  0  0  0  0  0  0  0
  144.8310  158.7200  133.7430 N   0  0  0  0  0  0  0  0  0  0  0  0
  143.5100  158.2000  133.9190 C   0  0  0  0  0  0  0  0  0  0  0  0
  142.9800  157.5190  133.0020 O   0  0  0  0  0  0  0  0  0  0  0  0
  142.8420  158.4380  135.1280 O   0  0  0  0  0  0  0  0  0  0  0  0
  141.4250  158.5590  135.3070 C   0  0  0  0  0  0  0  0  0  0  0  0
  140.8620  157.1340  135.4180 C   0  0  0  0  0  0  0  0  0  0  0  0
  140.7860  159.2580  134.0930 C   0  0  0  0  0  0  0  0  0  0  0  0
  141.1040  159.3210  136.6060 C   0  0  0  0  0  0  0  0  0  0  0  0
  145.9600  157.9870  133.6470 C   0  0  0  0  0  0  0  0  0  0  0  0
  146.0880  156.5940  133.6390 C   0  0  0  0  0  0  0  0  0  0  0  0
  147.8760  150.9312  133.1496 H   0  0  0  0  0  0  0  0  0  0  0  0
  147.7004  151.8692  131.6277 H   0  0  0  0  0  0  0  0  0  0  0  0
  148.6079  150.3190  131.6277 H   0  0  0  0  0  0  0  0  0  0  0  0
  148.8681  155.0524  131.7560 H   0  0  0  0  0  0  0  0  0  0  0  0
  147.8915  153.5429  131.5343 H   0  0  0  0  0  0  0  0  0  0  0  0
  146.6260  154.0448  133.2298 H   0  0  0  0  0  0  0  0  0  0  0  0
  148.1003  152.8979  134.7544 H   0  0  0  0  0  0  0  0  0  0  0  0
  149.0869  154.4200  134.9670 H   0  0  0  0  0  0  0  0  0  0  0  0
  147.7691  155.1205  136.6169 H   0  0  0  0  0  0  0  0  0  0  0  0
  146.3039  154.9259  135.5912 H   0  0  0  0  0  0  0  0  0  0  0  0
  149.8923  150.9450  137.1510 H   0  0  0  0  0  0  0  0  0  0  0  0
  148.6181  150.9568  135.8849 H   0  0  0  0  0  0  0  0  0  0  0  0
  149.8959  152.2193  135.8849 H   0  0  0  0  0  0  0  0  0  0  0  0
  149.2234  154.0891  139.3440 H   0  0  0  0  0  0  0  0  0  0  0  0
  150.2592  153.9835  137.8802 H   0  0  0  0  0  0  0  0  0  0  0  0
  148.8098  155.0446  137.8802 H   0  0  0  0  0  0  0  0  0  0  0  0
  147.2469  149.5554  139.5184 H   0  0  0  0  0  0  0  0  0  0  0  0
  146.4089  150.1044  138.0274 H   0  0  0  0  0  0  0  0  0  0  0  0
  148.1920  149.8876  138.0274 H   0  0  0  0  0  0  0  0  0  0  0  0
  146.1044  152.2464  140.6201 H   0  0  0  0  0  0  0  0  0  0  0  0
  146.0281  153.2517  139.1334 H   0  0  0  0  0  0  0  0  0  0  0  0
  145.3356  151.5942  139.1334 H   0  0  0  0  0  0  0  0  0  0  0  0
  147.9562  151.6915  141.1888 H   0  0  0  0  0  0  0  0  0  0  0  0
  149.1922  150.8718  140.1754 H   0  0  0  0  0  0  0  0  0  0  0  0
  149.0757  152.6643  140.1754 H   0  0  0  0  0  0  0  0  0  0  0  0
  149.5090  156.4751  133.2623 H   0  0  0  0  0  0  0  0  0  0  0  0
  149.2008  158.9701  133.2477 H   0  0  0  0  0  0  0  0  0  0  0  0
  147.2059  161.0185  133.3827 H   0  0  0  0  0  0  0  0  0  0  0  0
  145.8000  162.7860  133.7040 H   0  0  0  0  0  0  0  0  0  0  0  0
  140.7552  156.8636  136.4789 H   0  0  0  0  0  0  0  0  0  0  0  0
  139.8785  157.0891  134.9273 H   0  0  0  0  0  0  0  0  0  0  0  0
  141.5492  156.4290  134.9273 H   0  0  0  0  0  0  0  0  0  0  0  0
  140.0821  160.0280  134.4418 H   0  0  0  0  0  0  0  0  0  0  0  0
  141.5726  159.7287  133.4849 H   0  0  0  0  0  0  0  0  0  0  0  0
  140.2468  158.5167  133.4849 H   0  0  0  0  0  0  0  0  0  0  0  0
  141.3672  158.6962  137.4722 H   0  0  0  0  0  0  0  0  0  0  0  0
  141.6854  160.2543  136.6369 H   0  0  0  0  0  0  0  0  0  0  0  0
  140.0300  159.5569  136.6369 H   0  0  0  0  0  0  0  0  0  0  0  0
  145.2037  155.9466  133.7337 H   0  0  0  0  0  0  0  0  0  0  0  0
  1  2  1  0
  2  3  2  0
  2  4  1  0
  4  5  1  0
  5  6  1  0
  6  7  1  0
  7  8  1  0
  8  9  1  0
  9 10  1  0
 10 11  1  0
 10 12  1  0
 10 13  1  0
 13 14  1  0
 13 15  1  0
 13 16  1  0
  6 17  1  0
 17 18  2  0
 18 19  1  0
 19 20  2  0
 20 21  1  0
 21 22  2  0
 22 23  1  0
 23 24  1  0
 23 25  2  0
 22 26  1  0
 26 27  1  0
 27 28  2  0
 27 29  1  0
 29 30  1  0
 30 31  1  0
 30 32  1  0
 30 33  1  0
 26 34  1  0
 34 35  2  0
 35 17  1  0
 34 20  1  0
  1 36  1  0
  1 37  1  0
  1 38  1  0
  5 39  1  0
  5 40  1  0
  6 41  1  6
  7 42  1  0
  7 43  1  0
  8 44  1  0
  8 45  1  0
 11 46  1  0
 11 47  1  0
 11 48  1  0
 12 49  1  0
 12 50  1  0
 12 51  1  0
 14 52  1  0
 14 53  1  0
 14 54  1  0
 15 55  1  0
 15 56  1  0
 15 57  1  0
 16 58  1  0
 16 59  1  0
 16 60  1  0
 18 61  1  0
 19 62  1  0
 21 63  1  0
 24 64  1  0
 31 65  1  0
 31 66  1  0
 31 67  1  0
 32 68  1  0
 32 69  1  0
 32 70  1  0
 33 71  1  0
 33 72  1  0
 33 73  1  0
 35 74  1  0
M  CHG  1  24  -1
M  END
>  <UniqueID>  (66) 
65

>  <SMILES>  (66) 
CC(=O)OC[C@@H](CCO[Si](C)(C)C(C)(C)C)c1ccc2cc(C([NH-])=O)n(C(=O)OC(C)(C)C)c2c1

>  <Energy>  (66) 
80.24359346989091

>  <Genealogy>  (66) 
CC(=O)OCC(CCO[Si](C)(C)C(C)(C)C)c1ccc2cc(C([NH-])=O)n(C(=O)OC(C)(C)C)c2c1 (protonated)
CC(=O)OC[C@@H](CCO[Si](C)(C)C(C)(C)C)c1ccc2cc(C([NH-])=O)n(C(=O)OC(C)(C)C)c2c1 (chirality)
CC(=O)OC[C@@H](CCO[Si](C)(C)C(C)(C)C)c1ccc2cc(C([NH-])=O)n(C(=O)OC(C)(C)C)c2c1 (3D coordinates assigned)
CC(=O)OC[C@@H](CCO[Si](C)(C)C(C)(C)C)c1ccc2cc(C([NH-])=O)n(C(=O)OC(C)(C)C)c2c1 (optimized conformer: 80.24359346989091 kcal/mol)

>  <smiles>  (66) 
CC(=O)OCC(CCO[Si](C)(C)C(C)(C)C)c1ccc2cc(C(N)=O)n(C(=O)OC(C)(C)C)c2c1

>  <score_type>  (66) 
oracle

>  <origin>  (66) 
adg

>  <m_score__min__energy>  (66) 
-9.6999999999999993

>  <m_primary>  (66) 
energy

$$$$
66:0
     RDKit          3D

 62 63  0  0  0  0  0  0  0  0999 V2000
  149.9630  151.0650  133.9390 C   0  0  0  0  0  0  0  0  0  0  0  0
  149.2960  151.0340  132.5510 C   0  0  0  0  0  0  0  0  0  0  0  0
  148.2470  149.9110  132.5310 C   0  0  0  0  0  0  0  0  0  0  0  0
  150.3400  150.7580  131.4520 C   0  0  0  0  0  0  0  0  0  0  0  0
  148.6040  152.2650  132.2930 O   0  0  0  0  0  0  0  0  0  0  0  0
  149.0720  153.5550  132.5790 C   0  0  0  0  0  0  0  0  0  0  0  0
  150.2380  153.9130  132.2530 O   0  0  0  0  0  0  0  0  0  0  0  0
  148.2210  154.4470  133.2330 O   0  0  0  0  0  0  0  0  0  0  0  0
  147.6520  155.5800  132.5870 C   0  0  0  0  0  0  0  0  0  0  0  0
  148.4250  156.8380  132.9880 C   0  0  0  0  0  0  0  0  0  0  0  0
  147.6110  157.7650  133.9150 C   0  0  0  0  0  0  0  0  0  0  0  0
  147.1790  159.0800  133.2430 C   0  0  0  0  0  0  0  0  0  0  0  0
  145.7430  159.4290  133.5270 C   0  0  0  0  0  0  0  0  0  0  0  0
  145.3690  160.7750  133.7710 C   0  0  0  0  0  0  0  0  0  0  0  0
  144.0350  161.1040  134.0650 C   0  0  0  0  0  0  0  0  0  0  0  0
  143.1040  160.0700  134.1200 C   0  0  0  0  0  0  0  0  0  0  0  0
  141.7520  160.1070  134.3760 C   0  0  0  0  0  0  0  0  0  0  0  0
  141.3270  158.7810  134.3130 C   0  0  0  0  0  0  0  0  0  0  0  0
  139.9460  158.3530  134.6170 C   0  0  0  0  0  0  0  0  0  0  0  0
  139.5380  158.1840  135.9730 N   0  0  0  0  0  0  0  0  0  0  0  0
  139.1290  158.1010  133.6930 O   0  0  0  0  0  0  0  0  0  0  0  0
  142.3760  157.9590  134.0220 N   0  0  0  0  0  0  0  0  0  0  0  0
  142.3630  156.5350  133.8440 C   0  0  0  0  0  0  0  0  0  0  0  0
  141.4250  155.9920  133.2020 O   0  0  0  0  0  0  0  0  0  0  0  0
  143.4150  155.7710  134.3690 O   0  0  0  0  0  0  0  0  0  0  0  0
  144.0100  154.6130  133.7690 C   0  0  0  0  0  0  0  0  0  0  0  0
  145.3060  154.2230  134.5080 C   0  0  0  0  0  0  0  0  0  0  0  0
  144.3570  154.9820  132.3190 C   0  0  0  0  0  0  0  0  0  0  0  0
  143.0150  153.4380  133.7580 C   0  0  0  0  0  0  0  0  0  0  0  0
  143.4540  158.7630  133.9070 C   0  0  0  0  0  0  0  0  0  0  0  0
  144.7690  158.4080  133.5870 C   0  0  0  0  0  0  0  0  0  0  0  0
  149.1882  151.0290  134.7190 H   0  0  0  0  0  0  0  0  0  0  0  0
  150.6303  150.1969  134.0446 H   0  0  0  0  0  0  0  0  0  0  0  0
  150.5469  151.9913  134.0446 H   0  0  0  0  0  0  0  0  0  0  0  0
  147.9875  149.6332  133.5632 H   0  0  0  0  0  0  0  0  0  0  0  0
  147.3450  150.2611  132.0077 H   0  0  0  0  0  0  0  0  0  0  0  0
  148.6577  149.0349  132.0077 H   0  0  0  0  0  0  0  0  0  0  0  0
  151.3036  150.5032  131.9173 H   0  0  0  0  0  0  0  0  0  0  0  0
  150.0013  149.9185  130.8270 H   0  0  0  0  0  0  0  0  0  0  0  0
  150.4604  151.6552  130.8270 H   0  0  0  0  0  0  0  0  0  0  0  0
  147.7085  155.4470  131.4965 H   0  0  0  0  0  0  0  0  0  0  0  0
  146.5997  155.6844  132.8898 H   0  0  0  0  0  0  0  0  0  0  0  0
  149.3437  156.5349  133.5115 H   0  0  0  0  0  0  0  0  0  0  0  0
  148.6480  157.3990  132.0685 H   0  0  0  0  0  0  0  0  0  0  0  0
  146.7081  157.2270  134.2396 H   0  0  0  0  0  0  0  0  0  0  0  0
  148.2637  158.0324  134.7591 H   0  0  0  0  0  0  0  0  0  0  0  0
  147.8196  159.8931  133.6151 H   0  0  0  0  0  0  0  0  0  0  0  0
  147.2818  158.9486  132.1557 H   0  0  0  0  0  0  0  0  0  0  0  0
  146.1299  161.5683  133.7297 H   0  0  0  0  0  0  0  0  0  0  0  0
  143.7352  162.1467  134.2462 H   0  0  0  0  0  0  0  0  0  0  0  0
  141.1373  160.9948  134.5858 H   0  0  0  0  0  0  0  0  0  0  0  0
  139.1110  158.9720  136.5060 H   0  0  0  0  0  0  0  0  0  0  0  0
  145.1382  154.2735  135.5940 H   0  0  0  0  0  0  0  0  0  0  0  0
  145.5933  153.1986  134.2286 H   0  0  0  0  0  0  0  0  0  0  0  0
  146.1109  154.9187  134.2286 H   0  0  0  0  0  0  0  0  0  0  0  0
  145.1106  155.7833  132.3149 H   0  0  0  0  0  0  0  0  0  0  0  0
  144.7587  154.0982  131.8018 H   0  0  0  0  0  0  0  0  0  0  0  0
  143.4502  155.3288  131.8018 H   0  0  0  0  0  0  0  0  0  0  0  0
  142.7733  153.1525  134.7924 H   0  0  0  0  0  0  0  0  0  0  0  0
  142.0950  153.7414  133.2368 H   0  0  0  0  0  0  0  0  0  0  0  0
  143.4659  152.5806  133.2368 H   0  0  0  0  0  0  0  0  0  0  0  0
  145.0375  157.3601  133.3872 H   0  0  0  0  0  0  0  0  0  0  0  0
  1  2  1  0
  2  3  1  0
  2  4  1  0
  2  5  1  0
  5  6  1  0
  6  7  2  0
  6  8  1  0
  8  9  1  0
  9 10  1  0
 10 11  1  0
 11 12  1  0
 12 13  1  0
 13 14  2  0
 14 15  1  0
 15 16  2  0
 16 17  1  0
 17 18  2  0
 18 19  1  0
 19 20  1  0
 19 21  2  0
 18 22  1  0
 22 23  1  0
 23 24  2  0
 23 25  1  0
 25 26  1  0
 26 27  1  0
 26 28  1  0
 26 29  1  0
 22 30  1  0
 30 31  2  0
 31 13  1  0
 30 16  1  0
  1 32  1  0
  1 33  1  0
  1 34  1  0
  3 35  1  0
  3 36  1  0
  3 37  1  0
  4 38  1  0
  4 39  1  0
  4 40  1  0
  9 41  1  0
  9 42  1  0
 10 43  1  0
 10 44  1  0
 11 45  1  0
 11 46  1  0
 12 47  1  0
 12 48  1  0
 14 49  1  0
 15 50  1  0
 17 51  1  0
 20 52  1  0
 27 53  1  0
 27 54  1  0
 27 55  1  0
 28 56  1  0
 28 57  1  0
 28 58  1  0
 29 59  1  0
 29 60  1  0
 29 61  1  0
 31 62  1  0
M  CHG  1  20  -1
M  END
>  <UniqueID>  (67) 
66

>  <SMILES>  (67) 
CC(C)(C)OC(=O)OCCCCc1ccc2cc(C([NH-])=O)n(C(=O)OC(C)(C)C)c2c1

>  <Energy>  (67) 
82.83659226870111

>  <Genealogy>  (67) 
CC(C)(C)OC(=O)OCCCCc1ccc2cc(C([NH-])=O)n(C(=O)OC(C)(C)C)c2c1 (protonated)
CC(C)(C)OC(=O)OCCCCc1ccc2cc(C([NH-])=O)n(C(=O)OC(C)(C)C)c2c1 (3D coordinates assigned)
CC(C)(C)OC(=O)OCCCCc1ccc2cc(C([NH-])=O)n(C(=O)OC(C)(C)C)c2c1 (optimized conformer: 82.83659226870111 kcal/mol)

>  <smiles>  (67) 
CC(C)(C)OC(=O)OCCCCc1ccc2cc(C(N)=O)n(C(=O)OC(C)(C)C)c2c1

>  <score_type>  (67) 
oracle

>  <origin>  (67) 
adg

>  <m_score__min__energy>  (67) 
-8.0800000000000001

>  <m_primary>  (67) 
energy

$$$$
67:0
     RDKit          3D

 42 43  0  0  0  0  0  0  0  0999 V2000
  145.3280  153.5290  132.5860 C   0  0  0  0  0  0  0  0  0  0  0  0
  146.3910  154.4190  133.2610 C   0  0  0  0  0  0  0  0  0  0  0  0
  145.9900  154.6160  134.7390 C   0  0  0  0  0  0  0  0  0  0  0  0
  147.7640  153.7100  133.2320 C   0  0  0  0  0  0  0  0  0  0  0  0
  146.4620  155.8270  132.5920 C   0  0  0  0  0  0  0  0  0  0  0  0
  147.0550  156.9540  133.4100 C   0  0  0  0  0  0  0  0  0  0  0  0
  147.9940  156.7450  134.2210 O   0  0  0  0  0  0  0  0  0  0  0  0
  146.4230  158.2410  133.3950 N   0  0  0  0  0  0  0  0  0  0  0  0
  146.9500  159.4330  132.9990 C   0  0  0  0  0  0  0  0  0  0  0  0
  148.3650  159.6580  132.6320 C   0  0  0  0  0  0  0  0  0  0  0  0
  149.4160  158.9310  133.2720 N   0  0  0  0  0  0  0  0  0  0  0  0
  148.6560  160.4860  131.7280 O   0  0  0  0  0  0  0  0  0  0  0  0
  145.9840  160.4370  133.0710 C   0  0  0  0  0  0  0  0  0  0  0  0
  144.8440  159.8160  133.5280 C   0  0  0  0  0  0  0  0  0  0  0  0
  143.5800  160.3370  133.7910 C   0  0  0  0  0  0  0  0  0  0  0  0
  142.5860  159.4530  134.2460 C   0  0  0  0  0  0  0  0  0  0  0  0
  142.8680  158.0740  134.4170 C   0  0  0  0  0  0  0  0  0  0  0  0
  141.8030  157.1420  134.9240 C   0  0  0  0  0  0  0  0  0  0  0  0
  140.8200  157.8940  135.7630 C   0  0  0  0  0  0  0  0  0  0  0  0
  141.1830  158.4230  136.8460 O   0  0  0  0  0  0  0  0  0  0  0  0
  139.5080  158.0470  135.3290 O   0  0  0  0  0  0  0  0  0  0  0  0
  144.1660  157.5850  134.1530 C   0  0  0  0  0  0  0  0  0  0  0  0
  145.1370  158.4910  133.7150 C   0  0  0  0  0  0  0  0  0  0  0  0
  144.7271  153.0259  133.3579 H   0  0  0  0  0  0  0  0  0  0  0  0
  144.6727  154.1517  131.9593 H   0  0  0  0  0  0  0  0  0  0  0  0
  145.8258  152.7744  131.9593 H   0  0  0  0  0  0  0  0  0  0  0  0
  146.7858  154.2251  135.3901 H   0  0  0  0  0  0  0  0  0  0  0  0
  145.8453  155.6878  134.9399 H   0  0  0  0  0  0  0  0  0  0  0  0
  145.0533  154.0755  134.9399 H   0  0  0  0  0  0  0  0  0  0  0  0
  148.1070  153.5329  134.2620 H   0  0  0  0  0  0  0  0  0  0  0  0
  147.6690  152.7482  132.7067 H   0  0  0  0  0  0  0  0  0  0  0  0
  148.4932  154.3443  132.7067 H   0  0  0  0  0  0  0  0  0  0  0  0
  147.0660  155.7286  131.6779 H   0  0  0  0  0  0  0  0  0  0  0  0
  145.4132  156.1165  132.4301 H   0  0  0  0  0  0  0  0  0  0  0  0
  149.2240  158.2840  134.0680 H   0  0  0  0  0  0  0  0  0  0  0  0
  150.4050  159.0620  132.9660 H   0  0  0  0  0  0  0  0  0  0  0  0
  146.1074  161.5000  132.8164 H   0  0  0  0  0  0  0  0  0  0  0  0
  143.3659  161.4064  133.6474 H   0  0  0  0  0  0  0  0  0  0  0  0
  141.5794  159.8350  134.4716 H   0  0  0  0  0  0  0  0  0  0  0  0
  141.2799  156.6879  134.0695 H   0  0  0  0  0  0  0  0  0  0  0  0
  142.2723  156.3570  135.5352 H   0  0  0  0  0  0  0  0  0  0  0  0
  144.4069  156.5203  134.2882 H   0  0  0  0  0  0  0  0  0  0  0  0
  1  2  1  0
  2  3  1  0
  2  4  1  0
  2  5  1  0
  5  6  1  0
  6  7  2  0
  6  8  1  0
  8  9  1  0
  9 10  1  0
 10 11  1  0
 10 12  2  0
  9 13  2  0
 13 14  1  0
 14 15  2  0
 15 16  1  0
 16 17  2  0
 17 18  1  0
 18 19  1  0
 19 20  2  0
 19 21  1  0
 17 22  1  0
 22 23  2  0
 23  8  1  0
 23 14  1  0
  1 24  1  0
  1 25  1  0
  1 26  1  0
  3 27  1  0
  3 28  1  0
  3 29  1  0
  4 30  1  0
  4 31  1  0
  4 32  1  0
  5 33  1  0
  5 34  1  0
 11 35  1  0
 11 36  1  0
 13 37  1  0
 15 38  1  0
 16 39  1  0
 18 40  1  0
 18 41  1  0
 22 42  1  0
M  CHG  1  21  -1
M  END
>  <UniqueID>  (68) 
67

>  <SMILES>  (68) 
CC(C)(C)CC(=O)n1c(C(N)=O)cc2ccc(CC(=O)[O-])cc21

>  <Energy>  (68) 
78.13459300153824

>  <Genealogy>  (68) 
CC(C)(C)CC(=O)n1c(C(N)=O)cc2ccc(CC(=O)[O-])cc21 (protonated)
CC(C)(C)CC(=O)n1c(C(N)=O)cc2ccc(CC(=O)[O-])cc21 (3D coordinates assigned)
CC(C)(C)CC(=O)n1c(C(N)=O)cc2ccc(CC(=O)[O-])cc21 (optimized conformer: 78.13459300153824 kcal/mol)

>  <smiles>  (68) 
CC(C)(C)CC(=O)n1c(C(N)=O)cc2ccc(CC(=O)O)cc21

>  <score_type>  (68) 
oracle

>  <origin>  (68) 
adg

>  <m_score__min__energy>  (68) 
-7.0300000000000002

>  <m_primary>  (68) 
energy

$$$$
68:0
     RDKit          3D

 51 53  0  0  0  0  0  0  0  0999 V2000
  139.2240  149.6140  131.0880 C   0  0  0  0  0  0  0  0  0  0  0  0
  139.6890  150.7130  131.8640 O   0  0  0  0  0  0  0  0  0  0  0  0
  140.6370  150.5700  132.8830 C   0  0  0  0  0  0  0  0  0  0  0  0
  140.4990  149.6630  133.7480 O   0  0  0  0  0  0  0  0  0  0  0  0
  141.7960  151.4870  132.9480 C   0  0  0  0  0  0  0  0  0  0  0  0
  141.5990  152.8750  133.0350 C   0  0  0  0  0  0  0  0  0  0  0  0
  142.6920  153.7450  133.0860 C   0  0  0  0  0  0  0  0  0  0  0  0
  144.0060  153.2470  133.0420 C   0  0  0  0  0  0  0  0  0  0  0  0
  145.1710  154.1700  133.0630 C   0  0  0  0  0  0  0  0  0  0  0  0
  146.4930  153.6600  132.9850 C   0  0  0  0  0  0  0  0  0  0  0  0
  147.6000  154.5250  132.9740 C   0  0  0  0  0  0  0  0  0  0  0  0
  147.3610  155.8940  133.0380 C   0  0  0  0  0  0  0  0  0  0  0  0
  148.2510  156.9420  133.0470 C   0  0  0  0  0  0  0  0  0  0  0  0
  147.4650  158.0880  133.1090 C   0  0  0  0  0  0  0  0  0  0  0  0
  148.0210  159.4530  133.0400 C   0  0  0  0  0  0  0  0  0  0  0  0
  147.2190  160.5490  132.5850 N   0  0  0  0  0  0  0  0  0  0  0  0
  149.2380  159.6440  133.3240 O   0  0  0  0  0  0  0  0  0  0  0  0
  146.1400  157.7690  133.1540 N   0  0  0  0  0  0  0  0  0  0  0  0
  145.0420  158.6760  133.3710 C   0  0  0  0  0  0  0  0  0  0  0  0
  145.2210  159.7540  133.9970 O   0  0  0  0  0  0  0  0  0  0  0  0
  143.7740  158.3450  132.8670 O   0  0  0  0  0  0  0  0  0  0  0  0
  142.5250  158.4260  133.5670 C   0  0  0  0  0  0  0  0  0  0  0  0
  141.4510  157.8400  132.6360 C   0  0  0  0  0  0  0  0  0  0  0  0
  142.5600  157.5950  134.8640 C   0  0  0  0  0  0  0  0  0  0  0  0
  142.1800  159.8970  133.8700 C   0  0  0  0  0  0  0  0  0  0  0  0
  146.0940  156.4140  133.1060 C   0  0  0  0  0  0  0  0  0  0  0  0
  144.9730  155.5710  133.1390 C   0  0  0  0  0  0  0  0  0  0  0  0
  144.2020  151.8570  132.9560 C   0  0  0  0  0  0  0  0  0  0  0  0
  143.1090  150.9870  132.9110 C   0  0  0  0  0  0  0  0  0  0  0  0
  138.8839  148.8102  131.7575 H   0  0  0  0  0  0  0  0  0  0  0  0
  138.3872  149.9412  130.4534 H   0  0  0  0  0  0  0  0  0  0  0  0
  140.0415  149.2413  130.4534 H   0  0  0  0  0  0  0  0  0  0  0  0
  140.5769  153.2805  133.0632 H   0  0  0  0  0  0  0  0  0  0  0  0
  142.5224  154.8292  133.1612 H   0  0  0  0  0  0  0  0  0  0  0  0
  146.6531  152.5730  132.9325 H   0  0  0  0  0  0  0  0  0  0  0  0
  148.6256  154.1314  132.9165 H   0  0  0  0  0  0  0  0  0  0  0  0
  149.3490  156.8862  133.0126 H   0  0  0  0  0  0  0  0  0  0  0  0
  146.2690  160.3960  132.2140 H   0  0  0  0  0  0  0  0  0  0  0  0
  147.5990  161.5230  132.5990 H   0  0  0  0  0  0  0  0  0  0  0  0
  140.6436  157.3994  133.2393 H   0  0  0  0  0  0  0  0  0  0  0  0
  141.0403  158.6391  132.0013 H   0  0  0  0  0  0  0  0  0  0  0  0
  141.9007  157.0622  132.0013 H   0  0  0  0  0  0  0  0  0  0  0  0
  142.5316  158.2695  135.7325 H   0  0  0  0  0  0  0  0  0  0  0  0
  141.6893  156.9233  134.8927 H   0  0  0  0  0  0  0  0  0  0  0  0
  143.4840  156.9989  134.8927 H   0  0  0  0  0  0  0  0  0  0  0  0
  142.1445  160.0485  134.9589 H   0  0  0  0  0  0  0  0  0  0  0  0
  142.9490  160.5514  133.4337 H   0  0  0  0  0  0  0  0  0  0  0  0
  141.2002  160.1412  133.4337 H   0  0  0  0  0  0  0  0  0  0  0  0
  143.9593  155.9898  133.2223 H   0  0  0  0  0  0  0  0  0  0  0  0
  145.2239  151.4512  132.9239 H   0  0  0  0  0  0  0  0  0  0  0  0
  143.2778  149.9020  132.8461 H   0  0  0  0  0  0  0  0  0  0  0  0
  1  2  1  0
  2  3  1  0
  3  4  2  0
  3  5  1  0
  5  6  2  0
  6  7  1  0
  7  8  2  0
  8  9  1  0
  9 10  2  0
 10 11  1  0
 11 12  2  0
 12 13  1  0
 13 14  2  0
 14 15  1  0
 15 16  1  0
 15 17  2  0
 14 18  1  0
 18 19  1  0
 19 20  2  0
 19 21  1  0
 21 22  1  0
 22 23  1  0
 22 24  1  0
 22 25  1  0
 18 26  1  0
 26 27  2  0
  8 28  1  0
 28 29  2  0
 29  5  1  0
 27  9  1  0
 26 12  1  0
  1 30  1  0
  1 31  1  0
  1 32  1  0
  6 33  1  0
  7 34  1  0
 10 35  1  0
 11 36  1  0
 13 37  1  0
 16 38  1  0
 16 39  1  0
 23 40  1  0
 23 41  1  0
 23 42  1  0
 24 43  1  0
 24 44  1  0
 24 45  1  0
 25 46  1  0
 25 47  1  0
 25 48  1  0
 27 49  1  0
 28 50  1  0
 29 51  1  0
M  END
>  <UniqueID>  (69) 
68

>  <SMILES>  (69) 
COC(=O)c1ccc(-c2ccc3cc(C(N)=O)n(C(=O)OC(C)(C)C)c3c2)cc1

>  <Energy>  (69) 
91.44908281629283

>  <Genealogy>  (69) 
COC(=O)c1ccc(-c2ccc3cc(C(N)=O)n(C(=O)OC(C)(C)C)c3c2)cc1 (3D coordinates assigned)
COC(=O)c1ccc(-c2ccc3cc(C(N)=O)n(C(=O)OC(C)(C)C)c3c2)cc1 (optimized conformer: 91.44908281629283 kcal/mol)

>  <smiles>  (69) 
COC(=O)c1ccc(-c2ccc3cc(C(N)=O)n(C(=O)OC(C)(C)C)c3c2)cc1

>  <score_type>  (69) 
oracle

>  <origin>  (69) 
adg

>  <m_score__min__energy>  (69) 
-9.0199999999999996

>  <m_primary>  (69) 
energy

$$$$
69:0
     RDKit          3D

 43 44  0  0  0  0  0  0  0  0999 V2000
  140.6280  159.7470  137.4000 C   0  0  0  0  0  0  0  0  0  0  0  0
  140.6070  158.7240  136.2550 C   0  0  0  0  0  0  0  0  0  0  0  0
  139.2430  158.0070  136.2540 C   0  0  0  0  0  0  0  0  0  0  0  0
  141.7520  157.7160  136.4630 C   0  0  0  0  0  0  0  0  0  0  0  0
  140.7920  159.4540  135.0340 O   0  0  0  0  0  0  0  0  0  0  0  0
  140.9860  158.9070  133.7560 C   0  0  0  0  0  0  0  0  0  0  0  0
  140.3040  159.3020  132.7720 O   0  0  0  0  0  0  0  0  0  0  0  0
  141.9770  157.8850  133.5720 N   0  0  0  0  0  0  0  0  0  0  0  0
  141.7710  156.5600  133.3260 C   0  0  0  0  0  0  0  0  0  0  0  0
  140.4660  155.8690  133.3420 C   0  0  0  0  0  0  0  0  0  0  0  0
  139.2640  156.5500  132.9800 N   0  0  0  0  0  0  0  0  0  0  0  0
  140.4040  154.6740  133.7370 O   0  0  0  0  0  0  0  0  0  0  0  0
  142.9820  155.9080  133.1060 C   0  0  0  0  0  0  0  0  0  0  0  0
  143.9470  156.8790  133.2400 C   0  0  0  0  0  0  0  0  0  0  0  0
  145.3320  156.7870  133.1250 C   0  0  0  0  0  0  0  0  0  0  0  0
  146.0860  157.9620  133.2890 C   0  0  0  0  0  0  0  0  0  0  0  0
  145.4450  159.2010  133.5410 C   0  0  0  0  0  0  0  0  0  0  0  0
  146.2650  160.4500  133.7320 C   0  0  0  0  0  0  0  0  0  0  0  0
  145.3960  161.6230  134.1970 C   0  0  0  0  0  0  0  0  0  0  0  0
  146.1890  162.8450  134.3160 N   0  0  0  0  0  0  0  0  0  0  0  0
  144.0390  159.2540  133.6560 C   0  0  0  0  0  0  0  0  0  0  0  0
  143.3150  158.0640  133.5170 C   0  0  0  0  0  0  0  0  0  0  0  0
  140.6171  159.2181  138.3645 H   0  0  0  0  0  0  0  0  0  0  0  0
  141.5389  160.3594  137.3279 H   0  0  0  0  0  0  0  0  0  0  0  0
  139.7430  160.3963  137.3279 H   0  0  0  0  0  0  0  0  0  0  0  0
  138.9178  157.8361  137.2908 H   0  0  0  0  0  0  0  0  0  0  0  0
  138.5008  158.6316  135.7352 H   0  0  0  0  0  0  0  0  0  0  0  0
  139.3366  157.0416  135.7352 H   0  0  0  0  0  0  0  0  0  0  0  0
  141.9195  157.5685  137.5401 H   0  0  0  0  0  0  0  0  0  0  0  0
  141.4838  156.7555  135.9987 H   0  0  0  0  0  0  0  0  0  0  0  0
  142.6707  158.1038  135.9987 H   0  0  0  0  0  0  0  0  0  0  0  0
  139.2540  157.5810  132.8200 H   0  0  0  0  0  0  0  0  0  0  0  0
  138.3560  156.0330  132.9560 H   0  0  0  0  0  0  0  0  0  0  0  0
  143.1342  154.8435  132.8744 H   0  0  0  0  0  0  0  0  0  0  0  0
  145.8207  155.8247  132.9124 H   0  0  0  0  0  0  0  0  0  0  0  0
  147.1831  157.9197  133.2212 H   0  0  0  0  0  0  0  0  0  0  0  0
  147.0403  160.2571  134.4881 H   0  0  0  0  0  0  0  0  0  0  0  0
  146.7195  160.7170  132.7665 H   0  0  0  0  0  0  0  0  0  0  0  0
  144.5904  161.7863  133.4660 H   0  0  0  0  0  0  0  0  0  0  0  0
  144.9759  161.3793  135.1840 H   0  0  0  0  0  0  0  0  0  0  0  0
  147.0110  162.6320  134.9250 H   0  0  0  0  0  0  0  0  0  0  0  0
  146.5720  163.0800  133.3710 H   0  0  0  0  0  0  0  0  0  0  0  0
  143.5250  160.2070  133.8501 H   0  0  0  0  0  0  0  0  0  0  0  0
  1  2  1  0
  2  3  1  0
  2  4  1  0
  2  5  1  0
  5  6  1  0
  6  7  2  0
  6  8  1  0
  8  9  1  0
  9 10  1  0
 10 11  1  0
 10 12  2  0
  9 13  2  0
 13 14  1  0
 14 15  2  0
 15 16  1  0
 16 17  2  0
 17 18  1  0
 18 19  1  0
 19 20  1  0
 17 21  1  0
 21 22  2  0
 22  8  1  0
 22 14  1  0
  1 23  1  0
  1 24  1  0
  1 25  1  0
  3 26  1  0
  3 27  1  0
  3 28  1  0
  4 29  1  0
  4 30  1  0
  4 31  1  0
 11 32  1  0
 11 33  1  0
 13 34  1  0
 15 35  1  0
 16 36  1  0
 18 37  1  0
 18 38  1  0
 19 39  1  0
 19 40  1  0
 20 41  1  0
 20 42  1  0
 21 43  1  0
M  END
>  <UniqueID>  (70) 
69

>  <SMILES>  (70) 
CC(C)(C)OC(=O)n1c(C(N)=O)cc2ccc(CCN)cc21

>  <Energy>  (70) 
72.68115096705593

>  <Genealogy>  (70) 
CC(C)(C)OC(=O)n1c(C(N)=O)cc2ccc(CCN)cc21 (3D coordinates assigned)
CC(C)(C)OC(=O)n1c(C(N)=O)cc2ccc(CCN)cc21 (optimized conformer: 72.68115096705593 kcal/mol)

>  <smiles>  (70) 
CC(C)(C)OC(=O)n1c(C(N)=O)cc2ccc(CCN)cc21

>  <score_type>  (70) 
oracle

>  <origin>  (70) 
adg

>  <m_score__min__energy>  (70) 
-7.7000000000000002

>  <m_primary>  (70) 
energy

$$$$
70:0
     RDKit          3D

 52 54  0  0  0  0  0  0  0  0999 V2000
  146.6140  156.2840  132.6500 C   0  0  0  0  0  0  0  0  0  0  0  0
  146.4620  157.6060  133.2800 N   0  0  0  0  0  0  0  0  0  0  0  0
  147.6850  158.3380  133.6570 C   0  0  0  0  0  0  0  0  0  0  0  0
  148.2720  159.0640  132.4740 C   0  0  0  0  0  0  0  0  0  0  0  0
  149.5620  158.7510  132.0140 C   0  0  0  0  0  0  0  0  0  0  0  0
  150.1160  159.4460  130.9340 C   0  0  0  0  0  0  0  0  0  0  0  0
  149.3940  160.4670  130.3150 C   0  0  0  0  0  0  0  0  0  0  0  0
  148.1200  160.7990  130.7790 C   0  0  0  0  0  0  0  0  0  0  0  0
  147.5620  160.1070  131.8580 C   0  0  0  0  0  0  0  0  0  0  0  0
  145.1340  158.1600  133.5180 C   0  0  0  0  0  0  0  0  0  0  0  0
  144.9420  159.5600  133.7110 C   0  0  0  0  0  0  0  0  0  0  0  0
  143.6630  160.0970  133.9350 C   0  0  0  0  0  0  0  0  0  0  0  0
  142.5840  159.2240  133.9750 C   0  0  0  0  0  0  0  0  0  0  0  0
  141.2450  159.4790  134.1630 C   0  0  0  0  0  0  0  0  0  0  0  0
  140.6220  158.2340  134.1130 C   0  0  0  0  0  0  0  0  0  0  0  0
  139.1790  158.0360  134.3720 C   0  0  0  0  0  0  0  0  0  0  0  0
  138.3080  157.5610  133.3500 N   0  0  0  0  0  0  0  0  0  0  0  0
  138.7180  158.2410  135.5250 O   0  0  0  0  0  0  0  0  0  0  0  0
  141.5400  157.2520  133.8900 N   0  0  0  0  0  0  0  0  0  0  0  0
  141.3100  155.8490  133.7040 C   0  0  0  0  0  0  0  0  0  0  0  0
  140.2610  155.4590  133.1260 O   0  0  0  0  0  0  0  0  0  0  0  0
  142.2770  154.9320  134.1420 O   0  0  0  0  0  0  0  0  0  0  0  0
  142.5320  154.5470  135.4990 C   0  0  0  0  0  0  0  0  0  0  0  0
  144.0500  154.6390  135.7170 C   0  0  0  0  0  0  0  0  0  0  0  0
  142.0830  153.0950  135.7420 C   0  0  0  0  0  0  0  0  0  0  0  0
  141.8290  155.5060  136.4780 C   0  0  0  0  0  0  0  0  0  0  0  0
  142.7360  157.8770  133.8120 C   0  0  0  0  0  0  0  0  0  0  0  0
  143.9930  157.3110  133.5650 C   0  0  0  0  0  0  0  0  0  0  0  0
  146.7025  155.5139  133.4304 H   0  0  0  0  0  0  0  0  0  0  0  0
  145.7342  156.0726  132.0244 H   0  0  0  0  0  0  0  0  0  0  0  0
  147.5188  156.2778  132.0244 H   0  0  0  0  0  0  0  0  0  0  0  0
  147.4382  159.0695  134.4406 H   0  0  0  0  0  0  0  0  0  0  0  0
  148.4262  157.6125  134.0234 H   0  0  0  0  0  0  0  0  0  0  0  0
  150.1397  157.9547  132.5061 H   0  0  0  0  0  0  0  0  0  0  0  0
  151.1221  159.1874  130.5722 H   0  0  0  0  0  0  0  0  0  0  0  0
  149.8282  161.0096  129.4624 H   0  0  0  0  0  0  0  0  0  0  0  0
  147.5534  161.6076  130.2942 H   0  0  0  0  0  0  0  0  0  0  0  0
  146.5622  160.3809  132.2260 H   0  0  0  0  0  0  0  0  0  0  0  0
  145.8121  160.2325  133.6840 H   0  0  0  0  0  0  0  0  0  0  0  0
  143.5205  161.1787  134.0748 H   0  0  0  0  0  0  0  0  0  0  0  0
  140.7680  160.4578  134.3195 H   0  0  0  0  0  0  0  0  0  0  0  0
  138.3750  156.5810  132.9990 H   0  0  0  0  0  0  0  0  0  0  0  0
  144.2654  154.6521  136.7956 H   0  0  0  0  0  0  0  0  0  0  0  0
  144.5401  153.7689  135.2557 H   0  0  0  0  0  0  0  0  0  0  0  0
  144.4314  155.5619  135.2557 H   0  0  0  0  0  0  0  0  0  0  0  0
  142.0244  152.9055  136.8240 H   0  0  0  0  0  0  0  0  0  0  0  0
  141.0938  152.9362  135.2879 H   0  0  0  0  0  0  0  0  0  0  0  0
  142.8099  152.4055  135.2879 H   0  0  0  0  0  0  0  0  0  0  0  0
  142.0514  155.2026  137.5117 H   0  0  0  0  0  0  0  0  0  0  0  0
  142.1911  156.5311  136.3107 H   0  0  0  0  0  0  0  0  0  0  0  0
  140.7424  155.4691  136.3107 H   0  0  0  0  0  0  0  0  0  0  0  0
  144.0967  156.2270  133.4097 H   0  0  0  0  0  0  0  0  0  0  0  0
  1  2  1  0
  2  3  1  0
  3  4  1  0
  4  5  2  0
  5  6  1  0
  6  7  2  0
  7  8  1  0
  8  9  2  0
  2 10  1  0
 10 11  2  0
 11 12  1  0
 12 13  2  0
 13 14  1  0
 14 15  2  0
 15 16  1  0
 16 17  1  0
 16 18  2  0
 15 19  1  0
 19 20  1  0
 20 21  2  0
 20 22  1  0
 22 23  1  0
 23 24  1  0
 23 25  1  0
 23 26  1  0
 19 27  1  0
 27 28  2  0
  9  4  1  0
 28 10  1  0
 27 13  1  0
  1 29  1  0
  1 30  1  0
  1 31  1  0
  3 32  1  0
  3 33  1  0
  5 34  1  0
  6 35  1  0
  7 36  1  0
  8 37  1  0
  9 38  1  0
 11 39  1  0
 12 40  1  0
 14 41  1  0
 17 42  1  0
 24 43  1  0
 24 44  1  0
 24 45  1  0
 25 46  1  0
 25 47  1  0
 25 48  1  0
 26 49  1  0
 26 50  1  0
 26 51  1  0
 28 52  1  0
M  CHG  1  17  -1
M  END
>  <UniqueID>  (71) 
70

>  <SMILES>  (71) 
CN(Cc1ccccc1)c1ccc2cc(C([NH-])=O)n(C(=O)OC(C)(C)C)c2c1

>  <Energy>  (71) 
90.13039849599716

>  <Genealogy>  (71) 
CN(Cc1ccccc1)c1ccc2cc(C([NH-])=O)n(C(=O)OC(C)(C)C)c2c1 (protonated)
CN(Cc1ccccc1)c1ccc2cc(C([NH-])=O)n(C(=O)OC(C)(C)C)c2c1 (3D coordinates assigned)
CN(Cc1ccccc1)c1ccc2cc(C([NH-])=O)n(C(=O)OC(C)(C)C)c2c1 (optimized conformer: 90.13039849599716 kcal/mol)

>  <smiles>  (71) 
CN(Cc1ccccc1)c1ccc2cc(C(N)=O)n(C(=O)OC(C)(C)C)c2c1

>  <score_type>  (71) 
oracle

>  <origin>  (71) 
adg

>  <m_score__min__energy>  (71) 
-8.6500000000000004

>  <m_primary>  (71) 
energy

$$$$
71:0
     RDKit          3D

 47 50  0  0  0  0  0  0  0  0999 V2000
  148.1450  153.8160  136.9570 C   0  0  0  0  0  0  0  0  0  0  0  0
  146.8100  153.3530  136.7810 O   0  0  0  0  0  0  0  0  0  0  0  0
  145.8840  153.9240  135.8960 C   0  0  0  0  0  0  0  0  0  0  0  0
  144.5300  154.1100  136.2340 C   0  0  0  0  0  0  0  0  0  0  0  0
  143.6450  154.6800  135.3140 C   0  0  0  0  0  0  0  0  0  0  0  0
  144.0960  155.0620  134.0370 C   0  0  0  0  0  0  0  0  0  0  0  0
  143.2480  155.6490  133.0860 O   0  0  0  0  0  0  0  0  0  0  0  0
  142.0200  156.2630  133.3630 C   0  0  0  0  0  0  0  0  0  0  0  0
  140.9460  155.6060  133.3090 O   0  0  0  0  0  0  0  0  0  0  0  0
  141.9860  157.6660  133.6710 N   0  0  0  0  0  0  0  0  0  0  0  0
  140.9300  158.4000  134.1240 C   0  0  0  0  0  0  0  0  0  0  0  0
  139.5380  157.9120  134.2560 C   0  0  0  0  0  0  0  0  0  0  0  0
  138.9520  157.0950  133.2410 N   0  0  0  0  0  0  0  0  0  0  0  0
  138.8660  158.1870  135.2850 O   0  0  0  0  0  0  0  0  0  0  0  0
  141.3170  159.7170  134.3610 C   0  0  0  0  0  0  0  0  0  0  0  0
  142.6530  159.7690  134.0350 C   0  0  0  0  0  0  0  0  0  0  0  0
  143.5470  160.8330  134.0900 C   0  0  0  0  0  0  0  0  0  0  0  0
  144.8800  160.5950  133.7180 C   0  0  0  0  0  0  0  0  0  0  0  0
  145.3010  159.3020  133.3090 C   0  0  0  0  0  0  0  0  0  0  0  0
  146.7170  159.0560  132.9320 C   0  0  0  0  0  0  0  0  0  0  0  0
  147.2950  157.7850  133.1080 C   0  0  0  0  0  0  0  0  0  0  0  0
  148.6270  157.5560  132.7490 C   0  0  0  0  0  0  0  0  0  0  0  0
  149.3960  158.5910  132.2120 C   0  0  0  0  0  0  0  0  0  0  0  0
  148.8340  159.8570  132.0330 C   0  0  0  0  0  0  0  0  0  0  0  0
  147.5030  160.0920  132.3890 C   0  0  0  0  0  0  0  0  0  0  0  0
  144.3590  158.2460  133.2670 C   0  0  0  0  0  0  0  0  0  0  0  0
  143.0330  158.5190  133.6220 C   0  0  0  0  0  0  0  0  0  0  0  0
  145.4470  154.8940  133.7130 C   0  0  0  0  0  0  0  0  0  0  0  0
  146.3310  154.3240  134.6310 C   0  0  0  0  0  0  0  0  0  0  0  0
  148.3677  153.8932  138.0315 H   0  0  0  0  0  0  0  0  0  0  0  0
  148.8436  153.1077  136.4878 H   0  0  0  0  0  0  0  0  0  0  0  0
  148.2550  154.8048  136.4878 H   0  0  0  0  0  0  0  0  0  0  0  0
  144.1667  153.8054  137.2266 H   0  0  0  0  0  0  0  0  0  0  0  0
  142.5908  154.8306  135.5898 H   0  0  0  0  0  0  0  0  0  0  0  0
  137.9850  156.7210  133.3630 H   0  0  0  0  0  0  0  0  0  0  0  0
  139.4590  156.8830  132.3540 H   0  0  0  0  0  0  0  0  0  0  0  0
  140.6882  160.5406  134.7303 H   0  0  0  0  0  0  0  0  0  0  0  0
  143.2195  161.8315  134.4153 H   0  0  0  0  0  0  0  0  0  0  0  0
  145.6069  161.4202  133.7438 H   0  0  0  0  0  0  0  0  0  0  0  0
  146.6948  156.9659  133.5309 H   0  0  0  0  0  0  0  0  0  0  0  0
  149.0699  156.5590  132.8897 H   0  0  0  0  0  0  0  0  0  0  0  0
  150.4436  158.4091  131.9303 H   0  0  0  0  0  0  0  0  0  0  0  0
  149.4407  160.6716  131.6106 H   0  0  0  0  0  0  0  0  0  0  0  0
  147.0665  161.0913  132.2445 H   0  0  0  0  0  0  0  0  0  0  0  0
  144.6625  157.2336  132.9622 H   0  0  0  0  0  0  0  0  0  0  0  0
  145.8154  155.2136  132.7270 H   0  0  0  0  0  0  0  0  0  0  0  0
  147.3879  154.1880  134.3580 H   0  0  0  0  0  0  0  0  0  0  0  0
  1  2  1  0
  2  3  1  0
  3  4  2  0
  4  5  1  0
  5  6  2  0
  6  7  1  0
  7  8  1  0
  8  9  2  0
  8 10  1  0
 10 11  1  0
 11 12  1  0
 12 13  1  0
 12 14  2  0
 11 15  2  0
 15 16  1  0
 16 17  2  0
 17 18  1  0
 18 19  2  0
 19 20  1  0
 20 21  2  0
 21 22  1  0
 22 23  2  0
 23 24  1  0
 24 25  2  0
 19 26  1  0
 26 27  2  0
  6 28  1  0
 28 29  2  0
 29  3  1  0
 27 10  1  0
 27 16  1  0
 25 20  1  0
  1 30  1  0
  1 31  1  0
  1 32  1  0
  4 33  1  0
  5 34  1  0
 13 35  1  0
 13 36  1  0
 15 37  1  0
 17 38  1  0
 18 39  1  0
 21 40  1  0
 22 41  1  0
 23 42  1  0
 24 43  1  0
 25 44  1  0
 26 45  1  0
 28 46  1  0
 29 47  1  0
M  END
>  <UniqueID>  (72) 
71

>  <SMILES>  (72) 
COc1ccc(OC(=O)n2c(C(N)=O)cc3ccc(-c4ccccc4)cc32)cc1

>  <Energy>  (72) 
99.32672907399518

>  <Genealogy>  (72) 
COc1ccc(OC(=O)n2c(C(N)=O)cc3ccc(-c4ccccc4)cc32)cc1 (3D coordinates assigned)
COc1ccc(OC(=O)n2c(C(N)=O)cc3ccc(-c4ccccc4)cc32)cc1 (optimized conformer: 99.32672907399518 kcal/mol)

>  <smiles>  (72) 
COc1ccc(OC(=O)n2c(C(N)=O)cc3ccc(-c4ccccc4)cc32)cc1

>  <score_type>  (72) 
oracle

>  <origin>  (72) 
adg

>  <m_score__min__energy>  (72) 
-8.9900000000000002

>  <m_primary>  (72) 
energy

$$$$
72:0
     RDKit          3D

 56 58  0  0  0  0  0  0  0  0999 V2000
  144.3440  163.4430  133.7510 C   0  0  0  0  0  0  0  0  0  0  0  0
  145.1360  162.4140  134.5520 C   0  0  0  0  0  0  0  0  0  0  0  0
  145.4770  161.2930  133.7360 O   0  0  0  0  0  0  0  0  0  0  0  0
  144.7560  160.0880  133.6500 C   0  0  0  0  0  0  0  0  0  0  0  0
  143.3580  160.0380  133.8010 C   0  0  0  0  0  0  0  0  0  0  0  0
  142.6780  158.8210  133.7210 C   0  0  0  0  0  0  0  0  0  0  0  0
  143.3790  157.6260  133.4940 C   0  0  0  0  0  0  0  0  0  0  0  0
  142.6560  156.3310  133.4170 C   0  0  0  0  0  0  0  0  0  0  0  0
  141.2400  156.2930  133.5230 C   0  0  0  0  0  0  0  0  0  0  0  0
  140.5470  155.0730  133.4620 C   0  0  0  0  0  0  0  0  0  0  0  0
  141.2880  153.9090  133.2880 C   0  0  0  0  0  0  0  0  0  0  0  0
  140.8750  152.5970  133.2260 C   0  0  0  0  0  0  0  0  0  0  0  0
  142.0400  151.8510  133.0580 C   0  0  0  0  0  0  0  0  0  0  0  0
  142.0500  150.3890  132.8550 C   0  0  0  0  0  0  0  0  0  0  0  0
  142.8070  149.8020  131.8000 N   0  0  0  0  0  0  0  0  0  0  0  0
  141.3420  149.6510  133.5920 O   0  0  0  0  0  0  0  0  0  0  0  0
  143.1300  152.6690  133.0270 N   0  0  0  0  0  0  0  0  0  0  0  0
  144.5110  152.2810  132.9760 C   0  0  0  0  0  0  0  0  0  0  0  0
  144.8620  151.2890  132.2810 O   0  0  0  0  0  0  0  0  0  0  0  0
  145.4640  153.0230  133.6800 O   0  0  0  0  0  0  0  0  0  0  0  0
  146.6930  153.4480  133.0980 C   0  0  0  0  0  0  0  0  0  0  0  0
  146.9630  154.9270  133.4200 C   0  0  0  0  0  0  0  0  0  0  0  0
  148.3730  155.3440  132.9850 C   0  0  0  0  0  0  0  0  0  0  0  0
  146.7490  155.2170  134.9110 C   0  0  0  0  0  0  0  0  0  0  0  0
  142.6530  153.9260  133.1670 C   0  0  0  0  0  0  0  0  0  0  0  0
  143.3720  155.1230  133.2410 C   0  0  0  0  0  0  0  0  0  0  0  0
  144.7740  157.6730  133.3440 C   0  0  0  0  0  0  0  0  0  0  0  0
  145.4630  158.8940  133.4150 C   0  0  0  0  0  0  0  0  0  0  0  0
  147.2190  158.9250  133.2210 S   0  0  0  0  0  0  0  0  0  0  0  0
  147.7950  160.5520  133.1020 N   0  0  0  0  0  0  0  0  0  0  0  0
  147.5910  158.1800  131.9690 O   0  0  0  0  0  0  0  0  0  0  0  0
  147.8670  158.2680  134.4070 O   0  0  0  0  0  0  0  0  0  0  0  0
  143.8216  164.1218  134.4412 H   0  0  0  0  0  0  0  0  0  0  0  0
  145.0314  164.0224  133.1172 H   0  0  0  0  0  0  0  0  0  0  0  0
  143.6080  162.9267  133.1172 H   0  0  0  0  0  0  0  0  0  0  0  0
  146.0584  162.8810  134.9277 H   0  0  0  0  0  0  0  0  0  0  0  0
  144.5158  162.0652  135.3908 H   0  0  0  0  0  0  0  0  0  0  0  0
  142.7958  160.9657  133.9837 H   0  0  0  0  0  0  0  0  0  0  0  0
  141.5843  158.7984  133.8367 H   0  0  0  0  0  0  0  0  0  0  0  0
  140.6796  157.2303  133.6544 H   0  0  0  0  0  0  0  0  0  0  0  0
  139.4510  155.0391  133.5493 H   0  0  0  0  0  0  0  0  0  0  0  0
  139.8445  152.2182  133.2945 H   0  0  0  0  0  0  0  0  0  0  0  0
  143.5890  150.3230  131.3450 H   0  0  0  0  0  0  0  0  0  0  0  0
  147.5137  152.8353  133.4993 H   0  0  0  0  0  0  0  0  0  0  0  0
  146.6274  153.3296  132.0064 H   0  0  0  0  0  0  0  0  0  0  0  0
  146.2400  155.5262  132.8471 H   0  0  0  0  0  0  0  0  0  0  0  0
  148.9923  155.5271  133.8755 H   0  0  0  0  0  0  0  0  0  0  0  0
  148.8238  154.5407  132.3837 H   0  0  0  0  0  0  0  0  0  0  0  0
  148.3144  156.2633  132.3837 H   0  0  0  0  0  0  0  0  0  0  0  0
  147.2964  154.4752  135.5111 H   0  0  0  0  0  0  0  0  0  0  0  0
  147.1212  156.2252  135.1456 H   0  0  0  0  0  0  0  0  0  0  0  0
  145.6759  155.1586  135.1456 H   0  0  0  0  0  0  0  0  0  0  0  0
  144.4693  155.1257  133.1641 H   0  0  0  0  0  0  0  0  0  0  0  0
  145.3336  156.7423  133.1688 H   0  0  0  0  0  0  0  0  0  0  0  0
  147.1770  161.0470  132.4210 H   0  0  0  0  0  0  0  0  0  0  0  0
  147.6380  161.0010  134.0310 H   0  0  0  0  0  0  0  0  0  0  0  0
  1  2  1  0
  2  3  1  0
  3  4  1  0
  4  5  2  0
  5  6  1  0
  6  7  2  0
  7  8  1  0
  8  9  2  0
  9 10  1  0
 10 11  2  0
 11 12  1  0
 12 13  2  0
 13 14  1  0
 14 15  1  0
 14 16  2  0
 13 17  1  0
 17 18  1  0
 18 19  2  0
 18 20  1  0
 20 21  1  0
 21 22  1  0
 22 23  1  0
 22 24  1  0
 17 25  1  0
 25 26  2  0
  7 27  1  0
 27 28  2  0
 28 29  1  0
 29 30  1  0
 29 31  2  0
 29 32  2  0
 28  4  1  0
 26  8  1  0
 25 11  1  0
  1 33  1  0
  1 34  1  0
  1 35  1  0
  2 36  1  0
  2 37  1  0
  5 38  1  0
  6 39  1  0
  9 40  1  0
 10 41  1  0
 12 42  1  0
 15 43  1  0
 21 44  1  0
 21 45  1  0
 22 46  1  0
 23 47  1  0
 23 48  1  0
 23 49  1  0
 24 50  1  0
 24 51  1  0
 24 52  1  0
 26 53  1  0
 27 54  1  0
 30 55  1  0
 30 56  1  0
M  CHG  1  15  -1
M  END
>  <UniqueID>  (73) 
72

>  <SMILES>  (73) 
CCOc1ccc(-c2ccc3cc(C([NH-])=O)n(C(=O)OCC(C)C)c3c2)cc1S(N)(=O)=O

>  <Energy>  (73) 
90.92971548269084

>  <Genealogy>  (73) 
CCOc1ccc(-c2ccc3cc(C([NH-])=O)n(C(=O)OCC(C)C)c3c2)cc1S(N)(=O)=O (protonated)
CCOc1ccc(-c2ccc3cc(C([NH-])=O)n(C(=O)OCC(C)C)c3c2)cc1S(N)(=O)=O (3D coordinates assigned)
CCOc1ccc(-c2ccc3cc(C([NH-])=O)n(C(=O)OCC(C)C)c3c2)cc1S(N)(=O)=O (optimized conformer: 90.92971548269084 kcal/mol)

>  <smiles>  (73) 
CCOc1ccc(-c2ccc3cc(C(N)=O)n(C(=O)OCC(C)C)c3c2)cc1S(N)(=O)=O

>  <score_type>  (73) 
oracle

>  <origin>  (73) 
adg

>  <m_score__min__energy>  (73) 
-8.8000000000000007

>  <m_primary>  (73) 
energy

$$$$
73:0
     RDKit          3D

 41 43  0  0  0  0  0  0  0  0999 V2000
  140.9360  159.3190  136.4930 C   0  0  0  0  0  0  0  0  0  0  0  0
  141.4540  159.4460  135.0650 C   0  0  0  0  0  0  0  0  0  0  0  0
  142.8680  159.2650  135.0250 O   0  0  0  0  0  0  0  0  0  0  0  0
  143.5630  158.8690  133.8770 C   0  0  0  0  0  0  0  0  0  0  0  0
  142.9920  158.1740  132.9920 O   0  0  0  0  0  0  0  0  0  0  0  0
  144.9440  159.2290  133.7220 N   0  0  0  0  0  0  0  0  0  0  0  0
  145.4890  160.4800  133.7130 C   0  0  0  0  0  0  0  0  0  0  0  0
  144.7780  161.7400  134.0170 C   0  0  0  0  0  0  0  0  0  0  0  0
  143.3890  161.8860  133.7320 N   0  0  0  0  0  0  0  0  0  0  0  0
  145.3950  162.6830  134.5790 O   0  0  0  0  0  0  0  0  0  0  0  0
  146.8570  160.4150  133.4600 C   0  0  0  0  0  0  0  0  0  0  0  0
  147.1400  159.0750  133.3230 C   0  0  0  0  0  0  0  0  0  0  0  0
  148.3490  158.4360  133.0640 C   0  0  0  0  0  0  0  0  0  0  0  0
  148.3450  157.0350  132.9580 C   0  0  0  0  0  0  0  0  0  0  0  0
  147.1370  156.3050  133.0910 C   0  0  0  0  0  0  0  0  0  0  0  0
  147.1480  154.8050  133.0060 C   0  0  0  0  0  0  0  0  0  0  0  0
  145.7400  154.2740  133.0330 C   0  0  0  0  0  0  0  0  0  0  0  0
  144.9840  154.1930  131.8530 C   0  0  0  0  0  0  0  0  0  0  0  0
  143.6980  153.7480  131.8920 N   0  0  0  0  0  0  0  0  0  0  0  0
  143.1080  153.3800  133.0620 C   0  0  0  0  0  0  0  0  0  0  0  0
  143.8190  153.4560  134.2610 C   0  0  0  0  0  0  0  0  0  0  0  0
  143.2320  153.0980  135.4290 F   0  0  0  0  0  0  0  0  0  0  0  0
  145.1390  153.9100  134.2460 C   0  0  0  0  0  0  0  0  0  0  0  0
  145.9300  156.9870  133.3620 C   0  0  0  0  0  0  0  0  0  0  0  0
  145.9690  158.3810  133.4850 C   0  0  0  0  0  0  0  0  0  0  0  0
  141.7550  159.5198  137.1993 H   0  0  0  0  0  0  0  0  0  0  0  0
  140.1257  160.0451  136.6551 H   0  0  0  0  0  0  0  0  0  0  0  0
  140.5535  158.3005  136.6551 H   0  0  0  0  0  0  0  0  0  0  0  0
  140.9739  158.6810  134.4371 H   0  0  0  0  0  0  0  0  0  0  0  0
  141.2149  160.4520  134.6897 H   0  0  0  0  0  0  0  0  0  0  0  0
  142.7320  161.0830  133.8370 H   0  0  0  0  0  0  0  0  0  0  0  0
  147.5618  161.2562  133.3855 H   0  0  0  0  0  0  0  0  0  0  0  0
  149.2796  159.0105  132.9458 H   0  0  0  0  0  0  0  0  0  0  0  0
  149.2875  156.4998  132.7701 H   0  0  0  0  0  0  0  0  0  0  0  0
  147.6347  154.4975  132.0687 H   0  0  0  0  0  0  0  0  0  0  0  0
  147.7015  154.4002  133.8661 H   0  0  0  0  0  0  0  0  0  0  0  0
  145.4323  154.4901  130.8934 H   0  0  0  0  0  0  0  0  0  0  0  0
  143.1500  153.6910  131.0050 H   0  0  0  0  0  0  0  0  0  0  0  0
  142.0680  153.0217  133.0628 H   0  0  0  0  0  0  0  0  0  0  0  0
  145.7071  153.9821  135.1852 H   0  0  0  0  0  0  0  0  0  0  0  0
  144.9839  156.4370  133.4735 H   0  0  0  0  0  0  0  0  0  0  0  0
  1  2  1  0
  2  3  1  0
  3  4  1  0
  4  5  2  0
  4  6  1  0
  6  7  1  0
  7  8  1  0
  8  9  1  0
  8 10  2  0
  7 11  2  0
 11 12  1  0
 12 13  2  0
 13 14  1  0
 14 15  2  0
 15 16  1  0
 16 17  1  0
 17 18  2  0
 18 19  1  0
 19 20  2  0
 20 21  1  0
 21 22  1  0
 21 23  2  0
 15 24  1  0
 24 25  2  0
 25  6  1  0
 25 12  1  0
 23 17  1  0
  1 26  1  0
  1 27  1  0
  1 28  1  0
  2 29  1  0
  2 30  1  0
  9 31  1  0
 11 32  1  0
 13 33  1  0
 14 34  1  0
 16 35  1  0
 16 36  1  0
 18 37  1  0
 19 38  1  0
 20 39  1  0
 23 40  1  0
 24 41  1  0
M  CHG  2   9  -1  19   1
M  END
>  <UniqueID>  (74) 
73

>  <SMILES>  (74) 
CCOC(=O)n1c(C([NH-])=O)cc2ccc(Cc3c[nH+]cc(F)c3)cc21

>  <Energy>  (74) 
76.89697784101901

>  <Genealogy>  (74) 
CCOC(=O)n1c(C([NH-])=O)cc2ccc(Cc3c[nH+]cc(F)c3)cc21 (protonated)
CCOC(=O)n1c(C([NH-])=O)cc2ccc(Cc3c[nH+]cc(F)c3)cc21 (3D coordinates assigned)
CCOC(=O)n1c(C([NH-])=O)cc2ccc(Cc3c[nH+]cc(F)c3)cc21 (optimized conformer: 76.89697784101901 kcal/mol)

>  <smiles>  (74) 
CCOC(=O)n1c(C(N)=O)cc2ccc(Cc3cncc(F)c3)cc21

>  <score_type>  (74) 
oracle

>  <origin>  (74) 
adg

>  <m_score__min__energy>  (74) 
-7.0300000000000002

>  <m_primary>  (74) 
energy

$$$$
74:0
     RDKit          3D

 31 32  0  0  0  0  0  0  0  0999 V2000
  138.6560  157.8080  133.7250 C   0  0  0  0  0  0  0  0  0  0  0  0
  139.5400  158.9930  133.3180 C   0  0  0  0  0  0  0  0  0  0  0  0
  139.1120  159.5610  131.9610 C   0  0  0  0  0  0  0  0  0  0  0  0
  141.0060  158.6040  133.3110 C   0  0  0  0  0  0  0  0  0  0  0  0
  141.3770  157.2600  133.0470 C   0  0  0  0  0  0  0  0  0  0  0  0
  142.7270  156.8790  133.0200 C   0  0  0  0  0  0  0  0  0  0  0  0
  143.6870  157.8550  133.2670 C   0  0  0  0  0  0  0  0  0  0  0  0
  145.0600  157.7630  133.2650 C   0  0  0  0  0  0  0  0  0  0  0  0
  145.5130  159.0460  133.5600 C   0  0  0  0  0  0  0  0  0  0  0  0
  146.9410  159.3860  133.7160 C   0  0  0  0  0  0  0  0  0  0  0  0
  147.4510  160.6520  133.2960 N   0  0  0  0  0  0  0  0  0  0  0  0
  147.7140  158.5660  134.2810 O   0  0  0  0  0  0  0  0  0  0  0  0
  144.4650  159.9030  133.7230 N   0  0  0  0  0  0  0  0  0  0  0  0
  144.5220  161.3260  133.9210 C   0  0  0  0  0  0  0  0  0  0  0  0
  145.4520  161.8370  134.6010 O   0  0  0  0  0  0  0  0  0  0  0  0
  143.5550  162.1550  133.3670 O   0  0  0  0  0  0  0  0  0  0  0  0
  143.3520  159.1560  133.5430 C   0  0  0  0  0  0  0  0  0  0  0  0
  142.0140  159.5680  133.5550 C   0  0  0  0  0  0  0  0  0  0  0  0
  138.6092  157.7453  134.8222 H   0  0  0  0  0  0  0  0  0  0  0  0
  137.6424  157.9514  133.3224 H   0  0  0  0  0  0  0  0  0  0  0  0
  139.0822  156.8773  133.3224 H   0  0  0  0  0  0  0  0  0  0  0  0
  139.4068  159.7850  134.0696 H   0  0  0  0  0  0  0  0  0  0  0  0
  138.4568  160.4306  132.1177 H   0  0  0  0  0  0  0  0  0  0  0  0
  140.0033  159.8706  131.3955 H   0  0  0  0  0  0  0  0  0  0  0  0
  138.5687  158.7896  131.3955 H   0  0  0  0  0  0  0  0  0  0  0  0
  140.5964  156.5075  132.8612 H   0  0  0  0  0  0  0  0  0  0  0  0
  143.0178  155.8392  132.8097 H   0  0  0  0  0  0  0  0  0  0  0  0
  145.6691  156.8676  133.0717 H   0  0  0  0  0  0  0  0  0  0  0  0
  146.8090  161.4140  132.9830 H   0  0  0  0  0  0  0  0  0  0  0  0
  148.4700  160.8600  133.3800 H   0  0  0  0  0  0  0  0  0  0  0  0
  141.7514  160.6183  133.7498 H   0  0  0  0  0  0  0  0  0  0  0  0
  1  2  1  0
  2  3  1  0
  2  4  1  0
  4  5  2  0
  5  6  1  0
  6  7  2  0
  7  8  1  0
  8  9  2  0
  9 10  1  0
 10 11  1  0
 10 12  2  0
  9 13  1  0
 13 14  1  0
 14 15  2  0
 14 16  1  0
 13 17  1  0
 17 18  2  0
 18  4  1  0
 17  7  1  0
  1 19  1  0
  1 20  1  0
  1 21  1  0
  2 22  1  0
  3 23  1  0
  3 24  1  0
  3 25  1  0
  5 26  1  0
  6 27  1  0
  8 28  1  0
 11 29  1  0
 11 30  1  0
 18 31  1  0
M  CHG  1  16  -1
M  END
>  <UniqueID>  (75) 
74

>  <SMILES>  (75) 
CC(C)c1ccc2cc(C(N)=O)n(C(=O)[O-])c2c1

>  <Energy>  (75) 
67.71769864256909

>  <Genealogy>  (75) 
CC(C)c1ccc2cc(C(N)=O)n(C(=O)[O-])c2c1 (protonated)
CC(C)c1ccc2cc(C(N)=O)n(C(=O)[O-])c2c1 (3D coordinates assigned)
CC(C)c1ccc2cc(C(N)=O)n(C(=O)[O-])c2c1 (optimized conformer: 67.71769864256909 kcal/mol)

>  <smiles>  (75) 
CC(C)c1ccc2cc(C(N)=O)n(C(=O)O)c2c1

>  <score_type>  (75) 
oracle

>  <origin>  (75) 
adg

>  <m_score__min__energy>  (75) 
-6.4500000000000002

>  <m_primary>  (75) 
energy

$$$$
75:0
     RDKit          3D

 42 44  0  0  0  0  0  0  0  0999 V2000
  144.3840  154.8430  132.0040 C   0  0  0  0  0  0  0  0  0  0  0  0
  143.2790  154.4020  132.9560 C   0  0  0  0  0  0  0  0  0  0  0  0
  142.8520  155.4900  133.7720 O   0  0  0  0  0  0  0  0  0  0  0  0
  141.7300  156.2770  133.4840 C   0  0  0  0  0  0  0  0  0  0  0  0
  140.6820  155.7480  133.0230 O   0  0  0  0  0  0  0  0  0  0  0  0
  141.7660  157.6880  133.7440 N   0  0  0  0  0  0  0  0  0  0  0  0
  140.7470  158.4870  134.1720 C   0  0  0  0  0  0  0  0  0  0  0  0
  139.3310  158.0890  134.3110 C   0  0  0  0  0  0  0  0  0  0  0  0
  138.5890  157.6130  133.1910 N   0  0  0  0  0  0  0  0  0  0  0  0
  138.7540  158.2160  135.4240 O   0  0  0  0  0  0  0  0  0  0  0  0
  141.2040  159.7850  134.3890 C   0  0  0  0  0  0  0  0  0  0  0  0
  142.5410  159.7600  134.0680 C   0  0  0  0  0  0  0  0  0  0  0  0
  143.4890  160.7780  134.1050 C   0  0  0  0  0  0  0  0  0  0  0  0
  144.8090  160.4620  133.7410 C   0  0  0  0  0  0  0  0  0  0  0  0
  145.1610  159.1390  133.3650 C   0  0  0  0  0  0  0  0  0  0  0  0
  146.5560  158.8120  132.9860 C   0  0  0  0  0  0  0  0  0  0  0  0
  147.3020  159.7400  132.2390 C   0  0  0  0  0  0  0  0  0  0  0  0
  148.6220  159.4630  131.8790 C   0  0  0  0  0  0  0  0  0  0  0  0
  149.2110  158.2570  132.2580 C   0  0  0  0  0  0  0  0  0  0  0  0
  148.4810  157.3200  132.9920 C   0  0  0  0  0  0  0  0  0  0  0  0
  147.1450  157.5820  133.3580 C   0  0  0  0  0  0  0  0  0  0  0  0
  146.3710  156.6450  134.0670 O   0  0  0  0  0  0  0  0  0  0  0  0
  146.8770  155.5130  134.7710 C   0  0  0  0  0  0  0  0  0  0  0  0
  147.3620  154.5730  133.8790 F   0  0  0  0  0  0  0  0  0  0  0  0
  147.9080  155.9210  135.5930 F   0  0  0  0  0  0  0  0  0  0  0  0
  145.8810  154.9530  135.5520 F   0  0  0  0  0  0  0  0  0  0  0  0
  144.1660  158.1350  133.3330 C   0  0  0  0  0  0  0  0  0  0  0  0
  142.8560  158.4830  133.6810 C   0  0  0  0  0  0  0  0  0  0  0  0
  145.2517  155.1893  132.5847 H   0  0  0  0  0  0  0  0  0  0  0  0
  144.6819  153.9949  131.3700 H   0  0  0  0  0  0  0  0  0  0  0  0
  144.0161  155.6632  131.3700 H   0  0  0  0  0  0  0  0  0  0  0  0
  142.4241  154.0328  132.3704 H   0  0  0  0  0  0  0  0  0  0  0  0
  143.6697  153.6051  133.6058 H   0  0  0  0  0  0  0  0  0  0  0  0
  138.6860  156.6270  132.8630 H   0  0  0  0  0  0  0  0  0  0  0  0
  140.6193  160.6472  134.7423 H   0  0  0  0  0  0  0  0  0  0  0  0
  143.2136  161.7985  134.4097 H   0  0  0  0  0  0  0  0  0  0  0  0
  145.5781  161.2484  133.7475 H   0  0  0  0  0  0  0  0  0  0  0  0
  146.8420  160.6921  131.9357 H   0  0  0  0  0  0  0  0  0  0  0  0
  149.1981  160.1966  131.2959 H   0  0  0  0  0  0  0  0  0  0  0  0
  150.2531  158.0435  131.9780 H   0  0  0  0  0  0  0  0  0  0  0  0
  148.9517  156.3705  133.2868 H   0  0  0  0  0  0  0  0  0  0  0  0
  144.4158  157.1042  133.0413 H   0  0  0  0  0  0  0  0  0  0  0  0
  1  2  1  0
  2  3  1  0
  3  4  1  0
  4  5  2  0
  4  6  1  0
  6  7  1  0
  7  8  1  0
  8  9  1  0
  8 10  2  0
  7 11  2  0
 11 12  1  0
 12 13  2  0
 13 14  1  0
 14 15  2  0
 15 16  1  0
 16 17  2  0
 17 18  1  0
 18 19  2  0
 19 20  1  0
 20 21  2  0
 21 22  1  0
 22 23  1  0
 23 24  1  0
 23 25  1  0
 23 26  1  0
 15 27  1  0
 27 28  2  0
 28  6  1  0
 28 12  1  0
 21 16  1  0
  1 29  1  0
  1 30  1  0
  1 31  1  0
  2 32  1  0
  2 33  1  0
  9 34  1  0
 11 35  1  0
 13 36  1  0
 14 37  1  0
 17 38  1  0
 18 39  1  0
 19 40  1  0
 20 41  1  0
 27 42  1  0
M  CHG  1   9  -1
M  END
>  <UniqueID>  (76) 
75

>  <SMILES>  (76) 
CCOC(=O)n1c(C([NH-])=O)cc2ccc(-c3ccccc3OC(F)(F)F)cc21

>  <Energy>  (76) 
86.33575113253042

>  <Genealogy>  (76) 
CCOC(=O)n1c(C([NH-])=O)cc2ccc(-c3ccccc3OC(F)(F)F)cc21 (protonated)
CCOC(=O)n1c(C([NH-])=O)cc2ccc(-c3ccccc3OC(F)(F)F)cc21 (3D coordinates assigned)
CCOC(=O)n1c(C([NH-])=O)cc2ccc(-c3ccccc3OC(F)(F)F)cc21 (optimized conformer: 86.33575113253042 kcal/mol)

>  <smiles>  (76) 
CCOC(=O)n1c(C(N)=O)cc2ccc(-c3ccccc3OC(F)(F)F)cc21

>  <score_type>  (76) 
oracle

>  <origin>  (76) 
adg

>  <m_score__min__energy>  (76) 
-7.3700000000000001

>  <m_primary>  (76) 
energy

$$$$
76:0
     RDKit          3D

 49 51  0  0  0  0  0  0  0  0999 V2000
  140.9880  158.4810  135.4710 C   0  0  0  0  0  0  0  0  0  0  0  0
  140.6840  157.5810  134.2640 C   0  0  0  0  0  0  0  0  0  0  0  0
  139.1610  157.5460  134.0360 C   0  0  0  0  0  0  0  0  0  0  0  0
  141.4080  158.1450  133.0270 C   0  0  0  0  0  0  0  0  0  0  0  0
  141.1760  156.2710  134.5820 O   0  0  0  0  0  0  0  0  0  0  0  0
  141.2310  155.1680  133.7180 C   0  0  0  0  0  0  0  0  0  0  0  0
  140.2580  154.8850  132.9670 O   0  0  0  0  0  0  0  0  0  0  0  0
  142.4150  154.3560  133.6850 N   0  0  0  0  0  0  0  0  0  0  0  0
  142.4910  152.9960  133.6490 C   0  0  0  0  0  0  0  0  0  0  0  0
  141.3570  152.0610  133.7950 C   0  0  0  0  0  0  0  0  0  0  0  0
  140.2430  152.1010  132.9010 N   0  0  0  0  0  0  0  0  0  0  0  0
  141.3450  151.2520  134.7600 O   0  0  0  0  0  0  0  0  0  0  0  0
  143.8130  152.5830  133.5080 C   0  0  0  0  0  0  0  0  0  0  0  0
  144.5540  153.7410  133.4730 C   0  0  0  0  0  0  0  0  0  0  0  0
  145.9250  153.9210  133.3360 C   0  0  0  0  0  0  0  0  0  0  0  0
  146.4180  155.2350  133.2970 C   0  0  0  0  0  0  0  0  0  0  0  0
  145.5400  156.3500  133.3830 C   0  0  0  0  0  0  0  0  0  0  0  0
  146.0560  157.7010  133.3340 N   0  0  0  0  0  0  0  0  0  0  0  0
  145.2500  158.8640  132.9900 C   0  0  0  0  0  0  0  0  0  0  0  0
  146.1360  160.0770  133.2480 C   0  0  0  0  0  0  0  0  0  0  0  0
  147.5700  159.5430  133.2930 C   0  0  2  0  0  0  0  0  0  0  0  0
  148.2670  159.7440  131.9720 C   0  0  0  0  0  0  0  0  0  0  0  0
  147.6950  160.3570  131.0310 O   0  0  0  0  0  0  0  0  0  0  0  0
  149.5540  159.2550  131.7880 O   0  0  0  0  0  0  0  0  0  0  0  0
  147.4350  158.0570  133.6370 C   0  0  0  0  0  0  0  0  0  0  0  0
  144.1480  156.1190  133.5170 C   0  0  0  0  0  0  0  0  0  0  0  0
  143.6890  154.7980  133.5790 C   0  0  0  0  0  0  0  0  0  0  0  0
  140.7998  157.9238  136.4005 H   0  0  0  0  0  0  0  0  0  0  0  0
  142.0419  158.7945  135.4384 H   0  0  0  0  0  0  0  0  0  0  0  0
  140.3401  159.3693  135.4384 H   0  0  0  0  0  0  0  0  0  0  0  0
  138.6450  157.5342  135.0074 H   0  0  0  0  0  0  0  0  0  0  0  0
  138.8546  158.4373  133.4689 H   0  0  0  0  0  0  0  0  0  0  0  0
  138.8958  156.6415  133.4689 H   0  0  0  0  0  0  0  0  0  0  0  0
  142.2374  158.7911  133.3505 H   0  0  0  0  0  0  0  0  0  0  0  0
  141.8038  157.3148  132.4236 H   0  0  0  0  0  0  0  0  0  0  0  0
  140.6999  158.7319  132.4236 H   0  0  0  0  0  0  0  0  0  0  0  0
  139.4680  151.4100  133.0000 H   0  0  0  0  0  0  0  0  0  0  0  0
  140.1400  152.8680  132.2010 H   0  0  0  0  0  0  0  0  0  0  0  0
  144.1855  151.5503  133.4392 H   0  0  0  0  0  0  0  0  0  0  0  0
  146.6043  153.0591  133.2603 H   0  0  0  0  0  0  0  0  0  0  0  0
  147.5004  155.4045  133.1984 H   0  0  0  0  0  0  0  0  0  0  0  0
  144.9538  158.8247  131.9314 H   0  0  0  0  0  0  0  0  0  0  0  0
  144.3256  158.9051  133.5848 H   0  0  0  0  0  0  0  0  0  0  0  0
  146.0259  160.8115  132.4366 H   0  0  0  0  0  0  0  0  0  0  0  0
  145.8636  160.5859  134.1844 H   0  0  0  0  0  0  0  0  0  0  0  0
  148.1829  160.0751  134.0354 H   0  0  0  0  0  0  0  0  0  0  0  0
  148.1276  157.4586  133.0269 H   0  0  0  0  0  0  0  0  0  0  0  0
  147.6799  157.8627  134.6916 H   0  0  0  0  0  0  0  0  0  0  0  0
  143.4423  156.9611  133.5712 H   0  0  0  0  0  0  0  0  0  0  0  0
  1  2  1  0
  2  3  1  0
  2  4  1  0
  2  5  1  0
  5  6  1  0
  6  7  2  0
  6  8  1  0
  8  9  1  0
  9 10  1  0
 10 11  1  0
 10 12  2  0
  9 13  2  0
 13 14  1  0
 14 15  2  0
 15 16  1  0
 16 17  2  0
 17 18  1  0
 18 19  1  0
 19 20  1  0
 20 21  1  0
 21 22  1  0
 22 23  2  0
 22 24  1  0
 21 25  1  0
 17 26  1  0
 26 27  2  0
 27  8  1  0
 27 14  1  0
 25 18  1  0
  1 28  1  0
  1 29  1  0
  1 30  1  0
  3 31  1  0
  3 32  1  0
  3 33  1  0
  4 34  1  0
  4 35  1  0
  4 36  1  0
 11 37  1  0
 11 38  1  0
 13 39  1  0
 15 40  1  0
 16 41  1  0
 19 42  1  0
 19 43  1  0
 20 44  1  0
 20 45  1  0
 21 46  1  1
 25 47  1  0
 25 48  1  0
 26 49  1  0
M  CHG  1  24  -1
M  END
>  <UniqueID>  (77) 
76

>  <SMILES>  (77) 
CC(C)(C)OC(=O)n1c(C(N)=O)cc2ccc(N3CC[C@H](C(=O)[O-])C3)cc21

>  <Energy>  (77) 
86.49250023471548

>  <Genealogy>  (77) 
CC(C)(C)OC(=O)n1c(C(N)=O)cc2ccc(N3CCC(C(=O)[O-])C3)cc21 (protonated)
CC(C)(C)OC(=O)n1c(C(N)=O)cc2ccc(N3CC[C@H](C(=O)[O-])C3)cc21 (chirality)
CC(C)(C)OC(=O)n1c(C(N)=O)cc2ccc(N3CC[C@H](C(=O)[O-])C3)cc21 (3D coordinates assigned)
CC(C)(C)OC(=O)n1c(C(N)=O)cc2ccc(N3CC[C@H](C(=O)[O-])C3)cc21 (nonaromatic ring conformer: 86.49250023471548 kcal/mol)

>  <smiles>  (77) 
CC(C)(C)OC(=O)n1c(C(N)=O)cc2ccc(N3CCC(C(=O)O)C3)cc21

>  <score_type>  (77) 
oracle

>  <origin>  (77) 
adg

>  <m_score__min__energy>  (77) 
-8.2200000000000006

>  <m_primary>  (77) 
energy

$$$$
77:0
     RDKit          3D

 35 38  0  0  0  0  0  0  0  0999 V2000
  140.1110  159.0400  134.3390 N   0  0  0  0  0  0  0  0  0  0  0  0
  141.2530  158.7500  135.1430 C   0  0  0  0  0  0  0  0  0  0  0  0
  141.1100  158.6010  136.3850 O   0  0  0  0  0  0  0  0  0  0  0  0
  142.5780  158.5890  134.5060 C   0  0  0  0  0  0  0  0  0  0  0  0
  143.2690  157.3800  134.4720 C   0  0  0  0  0  0  0  0  0  0  0  0
  144.4780  157.6670  133.8820 C   0  0  0  0  0  0  0  0  0  0  0  0
  145.5540  156.8330  133.5980 C   0  0  0  0  0  0  0  0  0  0  0  0
  146.6740  157.3960  132.9630 C   0  0  0  0  0  0  0  0  0  0  0  0
  146.6880  158.7670  132.6030 C   0  0  0  0  0  0  0  0  0  0  0  0
  147.9090  159.3670  131.9540 C   0  0  2  0  0  0  0  0  0  0  0  0
  149.0310  158.4550  131.4740 C   0  0  0  0  0  0  0  0  0  0  0  0
  149.8310  159.7450  131.6360 C   0  0  2  0  0  0  0  0  0  0  0  0
  148.9270  160.1130  132.8090 C   0  0  0  0  0  0  0  0  0  0  0  0
  149.2310  160.6120  130.5140 C   0  0  0  0  0  0  0  0  0  0  0  0
  149.5300  161.9530  130.6840 F   0  0  0  0  0  0  0  0  0  0  0  0
  149.6420  160.1860  129.2610 F   0  0  0  0  0  0  0  0  0  0  0  0
  147.7300  160.3160  130.7640 C   0  0  0  0  0  0  0  0  0  0  0  0
  145.5840  159.5860  132.9280 C   0  0  0  0  0  0  0  0  0  0  0  0
  144.4890  159.0040  133.5770 C   0  0  0  0  0  0  0  0  0  0  0  0
  143.3280  159.5860  133.9530 N   0  0  0  0  0  0  0  0  0  0  0  0
  142.9570  160.9580  133.7430 C   0  0  0  0  0  0  0  0  0  0  0  0
  141.7540  161.2680  133.5400 O   0  0  0  0  0  0  0  0  0  0  0  0
  143.9260  161.9520  133.7360 O   0  0  0  0  0  0  0  0  0  0  0  0
  140.0550  159.9200  133.7820 H   0  0  0  0  0  0  0  0  0  0  0  0
  142.9216  156.4030  134.8391 H   0  0  0  0  0  0  0  0  0  0  0  0
  145.5291  155.7655  133.8623 H   0  0  0  0  0  0  0  0  0  0  0  0
  147.5488  156.7664  132.7430 H   0  0  0  0  0  0  0  0  0  0  0  0
  148.9356  158.0724  130.4471 H   0  0  0  0  0  0  0  0  0  0  0  0
  149.2951  157.4877  131.9263 H   0  0  0  0  0  0  0  0  0  0  0  0
  150.9295  159.7747  131.6843 H   0  0  0  0  0  0  0  0  0  0  0  0
  149.1775  159.6499  133.7748 H   0  0  0  0  0  0  0  0  0  0  0  0
  148.7926  161.1294  133.2076 H   0  0  0  0  0  0  0  0  0  0  0  0
  147.2513  159.8241  129.9044 H   0  0  0  0  0  0  0  0  0  0  0  0
  147.0818  161.1891  130.9298 H   0  0  0  0  0  0  0  0  0  0  0  0
  145.5848  160.6569  132.6767 H   0  0  0  0  0  0  0  0  0  0  0  0
  1  2  1  0
  2  3  2  0
  2  4  1  0
  4  5  2  0
  5  6  1  0
  6  7  2  0
  7  8  1  0
  8  9  2  0
 10  9  1  6
 10 11  1  0
 11 12  1  0
 12 13  1  0
 12 14  1  0
 14 15  1  0
 14 16  1  0
 14 17  1  0
  9 18  1  0
 18 19  2  0
 19 20  1  0
 20 21  1  0
 21 22  2  0
 21 23  1  0
 20  4  1  0
 19  6  1  0
 13 10  1  0
 17 10  1  0
  1 24  1  0
  5 25  1  0
  7 26  1  0
  8 27  1  0
 11 28  1  0
 11 29  1  0
 12 30  1  6
 13 31  1  0
 13 32  1  0
 17 33  1  0
 17 34  1  0
 18 35  1  0
M  CHG  2   1  -1  23  -1
M  END
>  <UniqueID>  (78) 
77

>  <SMILES>  (78) 
[NH-]C(=O)c1cc2ccc(C34CC(C3)C(F)(F)C4)cc2n1C(=O)[O-]

>  <Energy>  (78) 
199.78821503619918

>  <Genealogy>  (78) 
[NH-]C(=O)c1cc2ccc(C34CC(C3)C(F)(F)C4)cc2n1C(=O)[O-] (protonated)
[NH-]C(=O)c1cc2ccc(C34CC(C3)C(F)(F)C4)cc2n1C(=O)[O-] (3D coordinates assigned)
[NH-]C(=O)c1cc2ccc(C34CC(C3)C(F)(F)C4)cc2n1C(=O)[O-] (nonaromatic ring conformer: 199.78821503619918 kcal/mol)

>  <smiles>  (78) 
NC(=O)c1cc2ccc(C34CC(C3)C(F)(F)C4)cc2n1C(=O)O

>  <score_type>  (78) 
oracle

>  <origin>  (78) 
adg

>  <m_score__min__energy>  (78) 
-7.8799999999999999

>  <m_primary>  (78) 
energy

$$$$
78:0
     RDKit          3D

 57 59  0  0  0  0  0  0  0  0999 V2000
  141.0040  157.7450  132.6210 C   0  0  0  0  0  0  0  0  0  0  0  0
  140.4310  158.5830  133.7790 C   0  0  0  0  0  0  0  0  0  0  0  0
  139.0380  158.0460  134.1610 C   0  0  0  0  0  0  0  0  0  0  0  0
  140.3120  160.0510  133.3310 C   0  0  0  0  0  0  0  0  0  0  0  0
  141.5900  158.4820  135.2870 Si  0  0  0  0  0  4  0  0  0  0  0  0
  140.6280  158.8370  136.8520 C   0  0  0  0  0  0  0  0  0  0  0  0
  142.2970  156.7490  135.4900 C   0  0  0  0  0  0  0  0  0  0  0  0
  142.8180  159.7120  135.1620 O   0  0  0  0  0  0  0  0  0  0  0  0
  143.2240  159.9350  133.8260 C   0  0  1  0  0  0  0  0  0  0  0  0
  144.2740  161.0470  133.8160 C   0  0  0  0  0  0  0  0  0  0  0  0
  145.6220  160.3470  133.8750 C   0  0  0  0  0  0  0  0  0  0  0  0
  145.3760  158.9840  133.4280 N   0  0  0  0  0  0  0  0  0  0  0  0
  146.4190  158.0100  133.1920 C   0  0  0  0  0  0  0  0  0  0  0  0
  147.7350  158.4280  132.8620 C   0  0  0  0  0  0  0  0  0  0  0  0
  148.7590  157.4910  132.6450 C   0  0  0  0  0  0  0  0  0  0  0  0
  148.4460  156.1430  132.7530 C   0  0  0  0  0  0  0  0  0  0  0  0
  149.2460  155.0340  132.5990 C   0  0  0  0  0  0  0  0  0  0  0  0
  148.4040  153.9430  132.8060 C   0  0  0  0  0  0  0  0  0  0  0  0
  148.8230  152.5380  132.6140 C   0  0  0  0  0  0  0  0  0  0  0  0
  147.9510  151.4650  132.9760 N   0  0  0  0  0  0  0  0  0  0  0  0
  149.9780  152.2770  132.1780 O   0  0  0  0  0  0  0  0  0  0  0  0
  147.1360  154.3600  133.0840 N   0  0  0  0  0  0  0  0  0  0  0  0
  145.9930  153.5410  133.3890 C   0  0  0  0  0  0  0  0  0  0  0  0
  145.3660  152.7740  132.3650 N   0  0  0  0  0  0  0  0  0  0  0  0
  145.5470  153.4860  134.5650 O   0  0  0  0  0  0  0  0  0  0  0  0
  147.1800  155.7110  133.0470 C   0  0  0  0  0  0  0  0  0  0  0  0
  146.1450  156.6220  133.2900 C   0  0  0  0  0  0  0  0  0  0  0  0
  143.9540  158.7030  133.2880 C   0  0  0  0  0  0  0  0  0  0  0  0
  141.5806  156.9017  133.0289 H   0  0  0  0  0  0  0  0  0  0  0  0
  140.1789  157.3604  132.0035 H   0  0  0  0  0  0  0  0  0  0  0  0
  141.6617  158.3743  132.0035 H   0  0  0  0  0  0  0  0  0  0  0  0
  138.9464  158.0107  135.2566 H   0  0  0  0  0  0  0  0  0  0  0  0
  138.2636  158.7100  133.7495 H   0  0  0  0  0  0  0  0  0  0  0  0
  138.9097  157.0340  133.7495 H   0  0  0  0  0  0  0  0  0  0  0  0
  140.2593  160.7015  134.2165 H   0  0  0  0  0  0  0  0  0  0  0  0
  141.1911  160.3228  132.7282 H   0  0  0  0  0  0  0  0  0  0  0  0
  139.4006  160.1777  132.7282 H   0  0  0  0  0  0  0  0  0  0  0  0
  141.2533  158.6062  137.7271 H   0  0  0  0  0  0  0  0  0  0  0  0
  140.3435  159.8993  136.8745 H   0  0  0  0  0  0  0  0  0  0  0  0
  139.7216  158.2141  136.8745 H   0  0  0  0  0  0  0  0  0  0  0  0
  142.3925  156.5150  136.5606 H   0  0  0  0  0  0  0  0  0  0  0  0
  141.6242  156.0204  135.0140 H   0  0  0  0  0  0  0  0  0  0  0  0
  143.2874  156.6990  135.0140 H   0  0  0  0  0  0  0  0  0  0  0  0
  142.3319  160.1752  133.2290 H   0  0  0  0  0  0  0  0  0  0  0  0
  144.1920  161.6425  132.8948 H   0  0  0  0  0  0  0  0  0  0  0  0
  144.1397  161.7371  134.6620 H   0  0  0  0  0  0  0  0  0  0  0  0
  146.3426  160.8450  133.2096 H   0  0  0  0  0  0  0  0  0  0  0  0
  146.0491  160.3718  134.8884 H   0  0  0  0  0  0  0  0  0  0  0  0
  147.9563  159.5020  132.7749 H   0  0  0  0  0  0  0  0  0  0  0  0
  149.7800  157.8164  132.3965 H   0  0  0  0  0  0  0  0  0  0  0  0
  150.3202  155.0131  132.3630 H   0  0  0  0  0  0  0  0  0  0  0  0
  146.9670  151.6460  133.2800 H   0  0  0  0  0  0  0  0  0  0  0  0
  148.2690  150.4750  132.8760 H   0  0  0  0  0  0  0  0  0  0  0  0
  145.8250  152.6410  131.4350 H   0  0  0  0  0  0  0  0  0  0  0  0
  145.1373  156.2675  133.5522 H   0  0  0  0  0  0  0  0  0  0  0  0
  143.6993  158.5397  132.2304 H   0  0  0  0  0  0  0  0  0  0  0  0
  143.6676  157.7940  133.8373 H   0  0  0  0  0  0  0  0  0  0  0  0
  1  2  1  0
  2  3  1  0
  2  4  1  0
  2  5  1  0
  5  6  1  0
  5  7  1  0
  5  8  1  0
  8  9  1  0
  9 10  1  0
 10 11  1  0
 11 12  1  0
 12 13  1  0
 13 14  2  0
 14 15  1  0
 15 16  2  0
 16 17  1  0
 17 18  2  0
 18 19  1  0
 19 20  1  0
 19 21  2  0
 18 22  1  0
 22 23  1  0
 23 24  1  0
 23 25  2  0
 22 26  1  0
 26 27  2  0
 12 28  1  0
 28  9  1  0
 27 13  1  0
 26 16  1  0
  1 29  1  0
  1 30  1  0
  1 31  1  0
  3 32  1  0
  3 33  1  0
  3 34  1  0
  4 35  1  0
  4 36  1  0
  4 37  1  0
  6 38  1  0
  6 39  1  0
  6 40  1  0
  7 41  1  0
  7 42  1  0
  7 43  1  0
  9 44  1  6
 10 45  1  0
 10 46  1  0
 11 47  1  0
 11 48  1  0
 14 49  1  0
 15 50  1  0
 17 51  1  0
 20 52  1  0
 20 53  1  0
 24 54  1  0
 27 55  1  0
 28 56  1  0
 28 57  1  0
M  CHG  1  24  -1
M  END
>  <UniqueID>  (79) 
78

>  <SMILES>  (79) 
CC(C)(C)[Si](C)(C)O[C@H]1CCN(c2ccc3cc(C(N)=O)n(C([NH-])=O)c3c2)C1

>  <Energy>  (79) 
82.89321755826244

>  <Genealogy>  (79) 
CC(C)(C)[Si](C)(C)OC1CCN(c2ccc3cc(C(N)=O)n(C([NH-])=O)c3c2)C1 (protonated)
CC(C)(C)[Si](C)(C)O[C@H]1CCN(c2ccc3cc(C(N)=O)n(C([NH-])=O)c3c2)C1 (chirality)
CC(C)(C)[Si](C)(C)O[C@H]1CCN(c2ccc3cc(C(N)=O)n(C([NH-])=O)c3c2)C1 (3D coordinates assigned)
CC(C)(C)[Si](C)(C)O[C@H]1CCN(c2ccc3cc(C(N)=O)n(C([NH-])=O)c3c2)C1 (nonaromatic ring conformer: 82.89321755826244 kcal/mol)

>  <smiles>  (79) 
CC(C)(C)[Si](C)(C)OC1CCN(c2ccc3cc(C(N)=O)n(C(N)=O)c3c2)C1

>  <score_type>  (79) 
oracle

>  <origin>  (79) 
adg

>  <m_score__min__energy>  (79) 
-8.7200000000000006

>  <m_primary>  (79) 
energy

$$$$
79:0
     RDKit          3D

 32 34  0  0  0  0  0  0  0  0999 V2000
  142.9860  160.6420  133.3760 N   0  0  0  0  0  0  0  0  0  0  0  0
  144.3550  160.7690  133.7490 C   0  0  0  0  0  0  0  0  0  0  0  0
  144.7310  161.7970  134.3720 O   0  0  0  0  0  0  0  0  0  0  0  0
  145.3270  159.6920  133.4620 C   0  0  0  0  0  0  0  0  0  0  0  0
  146.6750  159.9270  133.2010 C   0  0  0  0  0  0  0  0  0  0  0  0
  147.2430  158.6800  133.0700 C   0  0  0  0  0  0  0  0  0  0  0  0
  148.5580  158.3220  132.7940 C   0  0  0  0  0  0  0  0  0  0  0  0
  148.8600  156.9550  132.6840 C   0  0  0  0  0  0  0  0  0  0  0  0
  147.8470  155.9710  132.8400 C   0  0  0  0  0  0  0  0  0  0  0  0
  148.1760  154.5290  132.7070 C   0  0  0  0  0  0  0  0  0  0  0  0
  147.1590  153.5580  132.7360 C   0  0  0  0  0  0  0  0  0  0  0  0
  147.4710  152.2010  132.6110 C   0  0  0  0  0  0  0  0  0  0  0  0
  148.8010  151.7980  132.4570 C   0  0  0  0  0  0  0  0  0  0  0  0
  149.1010  150.4820  132.3360 F   0  0  0  0  0  0  0  0  0  0  0  0
  149.8190  152.7540  132.4260 C   0  0  0  0  0  0  0  0  0  0  0  0
  149.5120  154.1120  132.5500 C   0  0  0  0  0  0  0  0  0  0  0  0
  146.5210  156.3790  133.1190 C   0  0  0  0  0  0  0  0  0  0  0  0
  146.2540  157.7480  133.2440 C   0  0  0  0  0  0  0  0  0  0  0  0
  145.0690  158.3530  133.4850 N   0  0  0  0  0  0  0  0  0  0  0  0
  143.7970  157.7040  133.6380 C   0  0  0  0  0  0  0  0  0  0  0  0
  142.7890  157.8570  132.6420 N   0  0  0  0  0  0  0  0  0  0  0  0
  143.5620  157.0050  134.6600 O   0  0  0  0  0  0  0  0  0  0  0  0
  142.7020  160.0410  132.5700 H   0  0  0  0  0  0  0  0  0  0  0  0
  147.1784  160.9015  133.1174 H   0  0  0  0  0  0  0  0  0  0  0  0
  149.3383  159.0867  132.6657 H   0  0  0  0  0  0  0  0  0  0  0  0
  149.8936  156.6422  132.4745 H   0  0  0  0  0  0  0  0  0  0  0  0
  146.1108  153.8684  132.8579 H   0  0  0  0  0  0  0  0  0  0  0  0
  146.6686  151.4489  132.6338 H   0  0  0  0  0  0  0  0  0  0  0  0
  150.8653  152.4372  132.3036 H   0  0  0  0  0  0  0  0  0  0  0  0
  150.3187  154.8594  132.5248 H   0  0  0  0  0  0  0  0  0  0  0  0
  145.7174  155.6369  133.2352 H   0  0  0  0  0  0  0  0  0  0  0  0
  142.5380  158.8010  132.2730 H   0  0  0  0  0  0  0  0  0  0  0  0
  1  2  1  0
  2  3  2  0
  2  4  1  0
  4  5  2  0
  5  6  1  0
  6  7  2  0
  7  8  1  0
  8  9  2  0
  9 10  1  0
 10 11  2  0
 11 12  1  0
 12 13  2  0
 13 14  1  0
 13 15  1  0
 15 16  2  0
  9 17  1  0
 17 18  2  0
 18 19  1  0
 19 20  1  0
 20 21  1  0
 20 22  2  0
 19  4  1  0
 18  6  1  0
 16 10  1  0
  1 23  1  0
  5 24  1  0
  7 25  1  0
  8 26  1  0
 11 27  1  0
 12 28  1  0
 15 29  1  0
 16 30  1  0
 17 31  1  0
 21 32  1  0
M  CHG  2   1  -1  21  -1
M  END
>  <UniqueID>  (80) 
79

>  <SMILES>  (80) 
[NH-]C(=O)c1cc2ccc(-c3ccc(F)cc3)cc2n1C([NH-])=O

>  <Energy>  (80) 
79.64550486537445

>  <Genealogy>  (80) 
[NH-]C(=O)c1cc2ccc(-c3ccc(F)cc3)cc2n1C([NH-])=O (protonated)
[NH-]C(=O)c1cc2ccc(-c3ccc(F)cc3)cc2n1C([NH-])=O (3D coordinates assigned)
[NH-]C(=O)c1cc2ccc(-c3ccc(F)cc3)cc2n1C([NH-])=O (optimized conformer: 79.64550486537445 kcal/mol)

>  <smiles>  (80) 
NC(=O)c1cc2ccc(-c3ccc(F)cc3)cc2n1C(N)=O

>  <score_type>  (80) 
oracle

>  <origin>  (80) 
adg

>  <m_score__min__energy>  (80) 
-7.2599999999999998

>  <m_primary>  (80) 
energy

$$$$
80:0
     RDKit          3D

 41 42  0  0  0  0  0  0  0  0999 V2000
  140.9300  159.3800  133.7160 C   0  0  0  0  0  0  0  0  0  0  0  0
  141.6420  158.7300  134.9180 C   0  0  0  0  0  0  0  0  0  0  0  0
  141.3180  157.2290  134.9330 C   0  0  0  0  0  0  0  0  0  0  0  0
  141.1620  159.3570  136.2400 C   0  0  0  0  0  0  0  0  0  0  0  0
  143.0660  158.8530  134.7870 O   0  0  0  0  0  0  0  0  0  0  0  0
  143.8170  158.6260  133.6240 C   0  0  0  0  0  0  0  0  0  0  0  0
  143.3380  157.9710  132.6590 O   0  0  0  0  0  0  0  0  0  0  0  0
  145.1610  159.1250  133.5480 N   0  0  0  0  0  0  0  0  0  0  0  0
  145.5810  160.4210  133.6220 C   0  0  0  0  0  0  0  0  0  0  0  0
  144.7420  161.5890  133.9600 C   0  0  0  0  0  0  0  0  0  0  0  0
  143.3350  161.5720  133.7310 N   0  0  0  0  0  0  0  0  0  0  0  0
  145.2660  162.5990  134.5020 O   0  0  0  0  0  0  0  0  0  0  0  0
  146.9560  160.5000  133.4130 C   0  0  0  0  0  0  0  0  0  0  0  0
  147.3710  159.2020  133.2170 C   0  0  0  0  0  0  0  0  0  0  0  0
  148.6410  158.7000  132.9480 C   0  0  0  0  0  0  0  0  0  0  0  0
  148.7730  157.3140  132.7570 C   0  0  0  0  0  0  0  0  0  0  0  0
  147.6430  156.4620  132.8390 C   0  0  0  0  0  0  0  0  0  0  0  0
  147.7880  154.9860  132.5850 C   0  0  0  0  0  0  0  0  0  0  0  0
  149.2600  154.5780  132.6060 C   0  0  0  0  0  0  0  0  0  0  0  0
  149.4290  153.4070  131.8560 O   0  0  0  0  0  0  0  0  0  0  0  0
  146.3680  157.0110  133.1000 C   0  0  0  0  0  0  0  0  0  0  0  0
  146.2690  158.3920  133.3050 C   0  0  0  0  0  0  0  0  0  0  0  0
  140.1631  160.0801  134.0789 H   0  0  0  0  0  0  0  0  0  0  0  0
  141.6649  159.9253  133.1055 H   0  0  0  0  0  0  0  0  0  0  0  0
  140.4538  158.5986  133.1055 H   0  0  0  0  0  0  0  0  0  0  0  0
  141.2428  156.8805  135.9736 H   0  0  0  0  0  0  0  0  0  0  0  0
  140.3616  157.0552  134.4181 H   0  0  0  0  0  0  0  0  0  0  0  0
  142.1175  156.6761  134.4181 H   0  0  0  0  0  0  0  0  0  0  0  0
  141.5889  158.7993  137.0866 H   0  0  0  0  0  0  0  0  0  0  0  0
  141.4903  160.4057  136.2889 H   0  0  0  0  0  0  0  0  0  0  0  0
  140.0639  159.3138  136.2889 H   0  0  0  0  0  0  0  0  0  0  0  0
  142.8160  160.6700  133.6420 H   0  0  0  0  0  0  0  0  0  0  0  0
  147.5782  161.4071  133.4060 H   0  0  0  0  0  0  0  0  0  0  0  0
  149.5136  159.3669  132.8869 H   0  0  0  0  0  0  0  0  0  0  0  0
  149.7631  156.8859  132.5417 H   0  0  0  0  0  0  0  0  0  0  0  0
  147.2478  154.4302  133.3656 H   0  0  0  0  0  0  0  0  0  0  0  0
  147.3702  154.7543  131.5941 H   0  0  0  0  0  0  0  0  0  0  0  0
  149.8703  155.3834  132.1715 H   0  0  0  0  0  0  0  0  0  0  0  0
  149.5767  154.3984  133.6440 H   0  0  0  0  0  0  0  0  0  0  0  0
  150.4050  153.3190  131.7010 H   0  0  0  0  0  0  0  0  0  0  0  0
  145.4754  156.3694  133.1411 H   0  0  0  0  0  0  0  0  0  0  0  0
  1  2  1  0
  2  3  1  0
  2  4  1  0
  2  5  1  0
  5  6  1  0
  6  7  2  0
  6  8  1  0
  8  9  1  0
  9 10  1  0
 10 11  1  0
 10 12  2  0
  9 13  2  0
 13 14  1  0
 14 15  2  0
 15 16  1  0
 16 17  2  0
 17 18  1  0
 18 19  1  0
 19 20  1  0
 17 21  1  0
 21 22  2  0
 22  8  1  0
 22 14  1  0
  1 23  1  0
  1 24  1  0
  1 25  1  0
  3 26  1  0
  3 27  1  0
  3 28  1  0
  4 29  1  0
  4 30  1  0
  4 31  1  0
 11 32  1  0
 13 33  1  0
 15 34  1  0
 16 35  1  0
 18 36  1  0
 18 37  1  0
 19 38  1  0
 19 39  1  0
 20 40  1  0
 21 41  1  0
M  CHG  1  11  -1
M  END
>  <UniqueID>  (81) 
80

>  <SMILES>  (81) 
CC(C)(C)OC(=O)n1c(C([NH-])=O)cc2ccc(CCO)cc21

>  <Energy>  (81) 
71.46523051571812

>  <Genealogy>  (81) 
CC(C)(C)OC(=O)n1c(C([NH-])=O)cc2ccc(CCO)cc21 (protonated)
CC(C)(C)OC(=O)n1c(C([NH-])=O)cc2ccc(CCO)cc21 (3D coordinates assigned)
CC(C)(C)OC(=O)n1c(C([NH-])=O)cc2ccc(CCO)cc21 (optimized conformer: 71.46523051571812 kcal/mol)

>  <smiles>  (81) 
CC(C)(C)OC(=O)n1c(C(N)=O)cc2ccc(CCO)cc21

>  <score_type>  (81) 
oracle

>  <origin>  (81) 
adg

>  <m_score__min__energy>  (81) 
-6.9299999999999997

>  <m_primary>  (81) 
energy

$$$$
81:0
     RDKit          3D

 36 37  0  0  0  0  0  0  0  0999 V2000
  149.9230  160.1410  129.9810 C   0  0  0  0  0  0  0  0  0  0  0  0
  149.3840  160.0250  131.1980 C   0  0  0  0  0  0  0  0  0  0  0  0
  147.9210  160.2620  131.4440 C   0  0  0  0  0  0  0  0  0  0  0  0
  147.7220  160.7860  132.7550 O   0  0  0  0  0  0  0  0  0  0  0  0
  146.5400  160.6060  133.4840 C   0  0  0  0  0  0  0  0  0  0  0  0
  146.0300  161.5710  134.1160 O   0  0  0  0  0  0  0  0  0  0  0  0
  145.9100  159.3150  133.5100 N   0  0  0  0  0  0  0  0  0  0  0  0
  146.5120  158.1070  133.6940 C   0  0  0  0  0  0  0  0  0  0  0  0
  147.9670  157.8610  133.7290 C   0  0  0  0  0  0  0  0  0  0  0  0
  148.8720  158.8440  134.2370 N   0  0  0  0  0  0  0  0  0  0  0  0
  148.4250  156.7890  133.2520 O   0  0  0  0  0  0  0  0  0  0  0  0
  145.5610  157.0950  133.8020 C   0  0  0  0  0  0  0  0  0  0  0  0
  144.3450  157.7220  133.6650 C   0  0  0  0  0  0  0  0  0  0  0  0
  143.0580  157.1960  133.7170 C   0  0  0  0  0  0  0  0  0  0  0  0
  141.9770  158.0850  133.5930 C   0  0  0  0  0  0  0  0  0  0  0  0
  142.2010  159.4740  133.4230 C   0  0  0  0  0  0  0  0  0  0  0  0
  141.0380  160.4210  133.3430 C   0  0  0  0  0  0  0  0  0  0  0  0
  139.7250  159.7200  132.2970 P   0  0  0  0  0  0  0  0  0  0  0  0
  138.7740  160.8130  131.8680 O   0  0  0  0  0  0  0  0  0  0  0  0
  138.8750  158.5520  133.1770 O   0  0  0  0  0  0  0  0  0  0  0  0
  140.4100  159.0010  130.9290 O   0  0  0  0  0  0  0  0  0  0  0  0
  143.5220  159.9730  133.3860 C   0  0  0  0  0  0  0  0  0  0  0  0
  144.5810  159.0630  133.4910 C   0  0  0  0  0  0  0  0  0  0  0  0
  150.9984  159.9603  129.8362 H   0  0  0  0  0  0  0  0  0  0  0  0
  149.2914  160.4172  129.1238 H   0  0  0  0  0  0  0  0  0  0  0  0
  150.0300  159.7480  132.0442 H   0  0  0  0  0  0  0  0  0  0  0  0
  147.5395  160.9804  130.7035 H   0  0  0  0  0  0  0  0  0  0  0  0
  147.3819  159.3075  131.3527 H   0  0  0  0  0  0  0  0  0  0  0  0
  149.8930  158.6350  134.2920 H   0  0  0  0  0  0  0  0  0  0  0  0
  148.5430  159.8030  134.4830 H   0  0  0  0  0  0  0  0  0  0  0  0
  145.7439  156.0223  133.9627 H   0  0  0  0  0  0  0  0  0  0  0  0
  142.8918  156.1169  133.8511 H   0  0  0  0  0  0  0  0  0  0  0  0
  140.9474  157.6993  133.6282 H   0  0  0  0  0  0  0  0  0  0  0  0
  140.6420  160.5959  134.3542 H   0  0  0  0  0  0  0  0  0  0  0  0
  141.3784  161.3699  132.9027 H   0  0  0  0  0  0  0  0  0  0  0  0
  143.7141  161.0506  133.2773 H   0  0  0  0  0  0  0  0  0  0  0  0
  1  2  2  0
  2  3  1  0
  3  4  1  0
  4  5  1  0
  5  6  2  0
  5  7  1  0
  7  8  1  0
  8  9  1  0
  9 10  1  0
  9 11  2  0
  8 12  2  0
 12 13  1  0
 13 14  2  0
 14 15  1  0
 15 16  2  0
 16 17  1  0
 17 18  1  0
 18 19  2  0
 18 20  1  0
 18 21  1  0
 16 22  1  0
 22 23  2  0
 23  7  1  0
 23 13  1  0
  1 24  1  0
  1 25  1  0
  2 26  1  0
  3 27  1  0
  3 28  1  0
 10 29  1  0
 10 30  1  0
 12 31  1  0
 14 32  1  0
 15 33  1  0
 17 34  1  0
 17 35  1  0
 22 36  1  0
M  CHG  2  20  -1  21  -1
M  END
>  <UniqueID>  (82) 
81

>  <SMILES>  (82) 
C=CCOC(=O)n1c(C(N)=O)cc2ccc(CP(=O)([O-])[O-])cc21

>  <Energy>  (82) 
67.02352439310097

>  <Genealogy>  (82) 
C=CCOC(=O)n1c(C(N)=O)cc2ccc(CP(=O)([O-])[O-])cc21 (protonated)
C=CCOC(=O)n1c(C(N)=O)cc2ccc(CP(=O)([O-])[O-])cc21 (3D coordinates assigned)
C=CCOC(=O)n1c(C(N)=O)cc2ccc(CP(=O)([O-])[O-])cc21 (optimized conformer: 67.02352439310097 kcal/mol)

>  <smiles>  (82) 
C=CCOC(=O)n1c(C(N)=O)cc2ccc(CP(=O)(O)O)cc21

>  <score_type>  (82) 
oracle

>  <origin>  (82) 
adg

>  <m_score__min__energy>  (82) 
-6.9400000000000004

>  <m_primary>  (82) 
energy

$$$$
82:0
     RDKit          3D

 56 58  0  0  0  0  0  0  0  0999 V2000
  140.8180  155.0710  138.6010 C   0  0  0  0  0  0  0  0  0  0  0  0
  139.8710  154.0780  139.2710 C   0  0  0  0  0  0  0  0  0  0  0  0
  140.6060  152.7840  139.6390 C   0  0  0  0  0  0  0  0  0  0  0  0
  140.2410  151.7110  138.7190 N   0  0  0  0  0  0  0  0  0  0  0  0
  140.8810  151.5000  137.4570 C   0  0  0  0  0  0  0  0  0  0  0  0
  140.5420  150.5280  136.7290 O   0  0  0  0  0  0  0  0  0  0  0  0
  141.8800  152.4270  137.0200 N   0  0  0  0  0  0  0  0  0  0  0  0
  142.2350  152.7160  135.6610 C   0  0  0  0  0  0  0  0  0  0  0  0
  143.3580  153.4940  135.3360 C   0  0  0  0  0  0  0  0  0  0  0  0
  143.6360  153.7940  133.9920 C   0  0  0  0  0  0  0  0  0  0  0  0
  144.8080  154.6300  133.6340 C   0  0  0  0  0  0  0  0  0  0  0  0
  146.0570  154.0220  133.3390 C   0  0  0  0  0  0  0  0  0  0  0  0
  147.1720  154.8040  132.9940 C   0  0  0  0  0  0  0  0  0  0  0  0
  147.0170  156.1870  132.9670 C   0  0  0  0  0  0  0  0  0  0  0  0
  147.9260  157.1740  132.6600 C   0  0  0  0  0  0  0  0  0  0  0  0
  147.2310  158.3740  132.8020 C   0  0  0  0  0  0  0  0  0  0  0  0
  147.8650  159.7000  132.6620 C   0  0  0  0  0  0  0  0  0  0  0  0
  147.3390  160.8180  133.3740 N   0  0  0  0  0  0  0  0  0  0  0  0
  148.8450  159.8680  131.8880 O   0  0  0  0  0  0  0  0  0  0  0  0
  145.9410  158.1370  133.1730 N   0  0  0  0  0  0  0  0  0  0  0  0
  144.8920  159.0980  133.3610 C   0  0  0  0  0  0  0  0  0  0  0  0
  144.8480  160.1240  132.6300 O   0  0  0  0  0  0  0  0  0  0  0  0
  143.9440  158.8950  134.3760 O   0  0  0  0  0  0  0  0  0  0  0  0
  142.5170  158.8900  134.2170 C   0  0  0  0  0  0  0  0  0  0  0  0
  142.2030  158.0330  132.9810 C   0  0  0  0  0  0  0  0  0  0  0  0
  141.9870  160.3180  133.9800 C   0  0  0  0  0  0  0  0  0  0  0  0
  141.8400  158.2580  135.4480 C   0  0  0  0  0  0  0  0  0  0  0  0
  145.8260  156.7930  133.2680 C   0  0  0  0  0  0  0  0  0  0  0  0
  144.6910  156.0390  133.5870 C   0  0  0  0  0  0  0  0  0  0  0  0
  142.7740  153.3080  132.9970 C   0  0  0  0  0  0  0  0  0  0  0  0
  141.6580  152.5530  133.3590 C   0  0  0  0  0  0  0  0  0  0  0  0
  141.4120  152.2850  134.6670 N   0  0  0  0  0  0  0  0  0  0  0  0
  141.3594  155.6387  139.3720 H   0  0  0  0  0  0  0  0  0  0  0  0
  141.5383  154.5249  137.9742 H   0  0  0  0  0  0  0  0  0  0  0  0
  140.2384  155.7646  137.9742 H   0  0  0  0  0  0  0  0  0  0  0  0
  139.4612  154.5319  140.1853 H   0  0  0  0  0  0  0  0  0  0  0  0
  139.0617  153.8344  138.5670 H   0  0  0  0  0  0  0  0  0  0  0  0
  141.6911  152.9554  139.5834 H   0  0  0  0  0  0  0  0  0  0  0  0
  140.3210  152.4903  140.6601 H   0  0  0  0  0  0  0  0  0  0  0  0
  144.0186  153.8678  136.1322 H   0  0  0  0  0  0  0  0  0  0  0  0
  146.1525  152.9270  133.3811 H   0  0  0  0  0  0  0  0  0  0  0  0
  148.1384  154.3374  132.7525 H   0  0  0  0  0  0  0  0  0  0  0  0
  148.9777  157.0435  132.3652 H   0  0  0  0  0  0  0  0  0  0  0  0
  146.5470  161.3750  132.9880 H   0  0  0  0  0  0  0  0  0  0  0  0
  141.8411  157.0451  133.3021 H   0  0  0  0  0  0  0  0  0  0  0  0
  141.4283  158.5292  132.3780 H   0  0  0  0  0  0  0  0  0  0  0  0
  143.1149  157.9112  132.3780 H   0  0  0  0  0  0  0  0  0  0  0  0
  141.8055  160.8071  134.9484 H   0  0  0  0  0  0  0  0  0  0  0  0
  142.7307  160.8954  133.4112 H   0  0  0  0  0  0  0  0  0  0  0  0
  141.0467  160.2704  133.4112 H   0  0  0  0  0  0  0  0  0  0  0  0
  142.2846  158.6731  136.3645 H   0  0  0  0  0  0  0  0  0  0  0  0
  140.7631  158.4813  135.4292 H   0  0  0  0  0  0  0  0  0  0  0  0
  141.9889  157.1683  135.4292 H   0  0  0  0  0  0  0  0  0  0  0  0
  143.7296  156.5308  133.7965 H   0  0  0  0  0  0  0  0  0  0  0  0
  142.9771  153.5212  131.9371 H   0  0  0  0  0  0  0  0  0  0  0  0
  140.9763  152.1742  132.5833 H   0  0  0  0  0  0  0  0  0  0  0  0
  1  2  1  0
  2  3  1  0
  3  4  1  0
  4  5  1  0
  5  6  2  0
  5  7  1  0
  7  8  1  0
  8  9  2  0
  9 10  1  0
 10 11  1  0
 11 12  2  0
 12 13  1  0
 13 14  2  0
 14 15  1  0
 15 16  2  0
 16 17  1  0
 17 18  1  0
 17 19  2  0
 16 20  1  0
 20 21  1  0
 21 22  2  0
 21 23  1  0
 23 24  1  0
 24 25  1  0
 24 26  1  0
 24 27  1  0
 20 28  1  0
 28 29  2  0
 10 30  2  0
 30 31  1  0
 31 32  2  0
 32  8  1  0
 29 11  1  0
 28 14  1  0
  1 33  1  0
  1 34  1  0
  1 35  1  0
  2 36  1  0
  2 37  1  0
  3 38  1  0
  3 39  1  0
  9 40  1  0
 12 41  1  0
 13 42  1  0
 15 43  1  0
 18 44  1  0
 25 45  1  0
 25 46  1  0
 25 47  1  0
 26 48  1  0
 26 49  1  0
 26 50  1  0
 27 51  1  0
 27 52  1  0
 27 53  1  0
 29 54  1  0
 30 55  1  0
 31 56  1  0
M  CHG  3   4  -1   7  -1  18  -1
M  END
>  <UniqueID>  (83) 
82

>  <SMILES>  (83) 
CCC[N-]C(=O)[N-]c1cc(-c2ccc3cc(C([NH-])=O)n(C(=O)OC(C)(C)C)c3c2)ccn1

>  <Energy>  (83) 
94.292856280437

>  <Genealogy>  (83) 
CCC[N-]C(=O)[N-]c1cc(-c2ccc3cc(C([NH-])=O)n(C(=O)OC(C)(C)C)c3c2)ccn1 (protonated)
CCC[N-]C(=O)[N-]c1cc(-c2ccc3cc(C([NH-])=O)n(C(=O)OC(C)(C)C)c3c2)ccn1 (3D coordinates assigned)
CCC[N-]C(=O)[N-]c1cc(-c2ccc3cc(C([NH-])=O)n(C(=O)OC(C)(C)C)c3c2)ccn1 (optimized conformer: 94.292856280437 kcal/mol)

>  <smiles>  (83) 
CCCNC(=O)Nc1cc(-c2ccc3cc(C(N)=O)n(C(=O)OC(C)(C)C)c3c2)ccn1

>  <score_type>  (83) 
oracle

>  <origin>  (83) 
adg

>  <m_score__min__energy>  (83) 
-8.7100000000000009

>  <m_primary>  (83) 
energy

$$$$
83:0
     RDKit          3D

 47 49  0  0  0  0  0  0  0  0999 V2000
  141.5310  160.5240  133.7020 C   0  0  0  0  0  0  0  0  0  0  0  0
  140.9980  159.1640  133.2240 C   0  0  0  0  0  0  0  0  0  0  0  0
  142.1910  158.2200  132.9810 C   0  0  0  0  0  0  0  0  0  0  0  0
  140.1950  159.3730  131.9260 C   0  0  0  0  0  0  0  0  0  0  0  0
  140.1540  158.6520  134.2640 O   0  0  0  0  0  0  0  0  0  0  0  0
  139.8140  157.3070  134.4740 C   0  0  0  0  0  0  0  0  0  0  0  0
  138.7520  156.8260  133.9960 O   0  0  0  0  0  0  0  0  0  0  0  0
  140.7000  156.4670  135.2310 N   0  0  0  0  0  0  0  0  0  0  0  0
  141.1780  156.6780  136.4910 C   0  0  0  0  0  0  0  0  0  0  0  0
  140.9830  157.9110  137.2880 C   0  0  0  0  0  0  0  0  0  0  0  0
  139.8800  158.7810  137.0290 N   0  0  0  0  0  0  0  0  0  0  0  0
  141.7750  158.1900  138.2270 O   0  0  0  0  0  0  0  0  0  0  0  0
  141.9640  155.6030  136.9010 C   0  0  0  0  0  0  0  0  0  0  0  0
  141.9550  154.7220  135.8440 C   0  0  0  0  0  0  0  0  0  0  0  0
  142.5620  153.4770  135.7130 C   0  0  0  0  0  0  0  0  0  0  0  0
  142.3600  152.7670  134.5180 C   0  0  0  0  0  0  0  0  0  0  0  0
  141.5650  153.3150  133.4770 C   0  0  0  0  0  0  0  0  0  0  0  0
  141.3180  152.5790  132.2660 N   0  0  0  0  0  0  0  0  0  0  0  0
  141.0350  151.1710  132.2150 C   0  0  0  0  0  0  0  0  0  0  0  0
  139.7290  150.7390  131.9330 C   0  0  0  0  0  0  0  0  0  0  0  0
  139.4380  149.3740  131.8520 C   0  0  0  0  0  0  0  0  0  0  0  0
  140.4510  148.4290  132.0360 C   0  0  0  0  0  0  0  0  0  0  0  0
  141.7580  148.8490  132.2930 C   0  0  0  0  0  0  0  0  0  0  0  0
  142.0540  150.2140  132.3750 C   0  0  0  0  0  0  0  0  0  0  0  0
  140.9500  154.5720  133.6560 C   0  0  0  0  0  0  0  0  0  0  0  0
  141.1850  155.2660  134.8490 C   0  0  0  0  0  0  0  0  0  0  0  0
  141.5405  160.5482  134.8017 H   0  0  0  0  0  0  0  0  0  0  0  0
  142.5532  160.6709  133.3232 H   0  0  0  0  0  0  0  0  0  0  0  0
  140.8808  161.3263  133.3232 H   0  0  0  0  0  0  0  0  0  0  0  0
  142.6032  157.8938  133.9473 H   0  0  0  0  0  0  0  0  0  0  0  0
  141.8535  157.3418  132.4111 H   0  0  0  0  0  0  0  0  0  0  0  0
  142.9681  158.7504  132.4111 H   0  0  0  0  0  0  0  0  0  0  0  0
  139.1583  159.6428  132.1756 H   0  0  0  0  0  0  0  0  0  0  0  0
  140.6529  160.1819  131.3378 H   0  0  0  0  0  0  0  0  0  0  0  0
  140.2005  158.4435  131.3378 H   0  0  0  0  0  0  0  0  0  0  0  0
  139.7300  159.6270  137.6220 H   0  0  0  0  0  0  0  0  0  0  0  0
  139.2350  158.6150  136.2240 H   0  0  0  0  0  0  0  0  0  0  0  0
  142.4815  155.4840  137.8644 H   0  0  0  0  0  0  0  0  0  0  0  0
  143.1816  153.0611  136.5211 H   0  0  0  0  0  0  0  0  0  0  0  0
  142.8220  151.7773  134.3874 H   0  0  0  0  0  0  0  0  0  0  0  0
  141.3520  153.1040  131.3620 H   0  0  0  0  0  0  0  0  0  0  0  0
  138.9304  151.4788  131.7749 H   0  0  0  0  0  0  0  0  0  0  0  0
  138.4099  149.0432  131.6431 H   0  0  0  0  0  0  0  0  0  0  0  0
  140.2192  147.3553  131.9784 H   0  0  0  0  0  0  0  0  0  0  0  0
  142.5564  148.1050  132.4312 H   0  0  0  0  0  0  0  0  0  0  0  0
  143.0871  150.5402  132.5653 H   0  0  0  0  0  0  0  0  0  0  0  0
  140.3008  154.9970  132.8763 H   0  0  0  0  0  0  0  0  0  0  0  0
  1  2  1  0
  2  3  1  0
  2  4  1  0
  2  5  1  0
  5  6  1  0
  6  7  2  0
  6  8  1  0
  8  9  1  0
  9 10  1  0
 10 11  1  0
 10 12  2  0
  9 13  2  0
 13 14  1  0
 14 15  2  0
 15 16  1  0
 16 17  2  0
 17 18  1  0
 18 19  1  0
 19 20  2  0
 20 21  1  0
 21 22  2  0
 22 23  1  0
 23 24  2  0
 17 25  1  0
 25 26  2  0
 26  8  1  0
 26 14  1  0
 24 19  1  0
  1 27  1  0
  1 28  1  0
  1 29  1  0
  3 30  1  0
  3 31  1  0
  3 32  1  0
  4 33  1  0
  4 34  1  0
  4 35  1  0
 11 36  1  0
 11 37  1  0
 13 38  1  0
 15 39  1  0
 16 40  1  0
 18 41  1  0
 20 42  1  0
 21 43  1  0
 22 44  1  0
 23 45  1  0
 24 46  1  0
 25 47  1  0
M  END
>  <UniqueID>  (84) 
83

>  <SMILES>  (84) 
CC(C)(C)OC(=O)n1c(C(N)=O)cc2ccc(Nc3ccccc3)cc21

>  <Energy>  (84) 
88.1567808883476

>  <Genealogy>  (84) 
CC(C)(C)OC(=O)n1c(C(N)=O)cc2ccc(Nc3ccccc3)cc21 (3D coordinates assigned)
CC(C)(C)OC(=O)n1c(C(N)=O)cc2ccc(Nc3ccccc3)cc21 (optimized conformer: 88.1567808883476 kcal/mol)

>  <smiles>  (84) 
CC(C)(C)OC(=O)n1c(C(N)=O)cc2ccc(Nc3ccccc3)cc21

>  <score_type>  (84) 
oracle

>  <origin>  (84) 
adg

>  <m_score__min__energy>  (84) 
-9.1699999999999999

>  <m_primary>  (84) 
energy

$$$$
84:0
     RDKit          3D

 47 48  0  0  0  0  0  0  0  0999 V2000
  147.6830  154.9130  135.0890 C   0  0  0  0  0  0  0  0  0  0  0  0
  147.3400  154.1990  133.7710 C   0  0  0  0  0  0  0  0  0  0  0  0
  145.8170  153.9300  133.7430 C   0  0  0  0  0  0  0  0  0  0  0  0
  148.0540  152.9850  133.7500 O   0  0  0  0  0  0  0  0  0  0  0  0
  147.7820  155.1060  132.5880 C   0  0  0  0  0  0  0  0  0  0  0  0
  147.6060  156.5820  132.8550 C   0  0  0  0  0  0  0  0  0  0  0  0
  148.7290  157.4470  132.8490 C   0  0  0  0  0  0  0  0  0  0  0  0
  148.5760  158.8220  133.0930 C   0  0  0  0  0  0  0  0  0  0  0  0
  147.2910  159.3030  133.3260 C   0  0  0  0  0  0  0  0  0  0  0  0
  146.8580  160.5820  133.5980 C   0  0  0  0  0  0  0  0  0  0  0  0
  145.4740  160.4830  133.7340 C   0  0  0  0  0  0  0  0  0  0  0  0
  144.5920  161.6510  133.9370 C   0  0  0  0  0  0  0  0  0  0  0  0
  143.1850  161.5550  133.7320 N   0  0  0  0  0  0  0  0  0  0  0  0
  145.0940  162.7640  134.2530 O   0  0  0  0  0  0  0  0  0  0  0  0
  145.0700  159.1920  133.5640 N   0  0  0  0  0  0  0  0  0  0  0  0
  143.7430  158.6560  133.6690 C   0  0  0  0  0  0  0  0  0  0  0  0
  143.2440  158.0250  132.6990 O   0  0  0  0  0  0  0  0  0  0  0  0
  143.0100  158.8710  134.8460 O   0  0  0  0  0  0  0  0  0  0  0  0
  141.5950  158.7100  135.0110 C   0  0  0  0  0  0  0  0  0  0  0  0
  141.1320  159.3280  136.3440 C   0  0  0  0  0  0  0  0  0  0  0  0
  141.3120  157.2000  135.0380 C   0  0  0  0  0  0  0  0  0  0  0  0
  140.8360  159.3390  133.8270 C   0  0  0  0  0  0  0  0  0  0  0  0
  146.1920  158.4840  133.3150 C   0  0  0  0  0  0  0  0  0  0  0  0
  146.3190  157.1070  133.1030 C   0  0  0  0  0  0  0  0  0  0  0  0
  147.3799  154.2820  135.9375 H   0  0  0  0  0  0  0  0  0  0  0  0
  148.7668  155.0949  135.1362 H   0  0  0  0  0  0  0  0  0  0  0  0
  147.1477  155.8728  135.1362 H   0  0  0  0  0  0  0  0  0  0  0  0
  145.4375  153.8630  134.7733 H   0  0  0  0  0  0  0  0  0  0  0  0
  145.3090  154.7523  133.2179 H   0  0  0  0  0  0  0  0  0  0  0  0
  145.6214  152.9834  133.2179 H   0  0  0  0  0  0  0  0  0  0  0  0
  147.4020  152.2370  133.7350 H   0  0  0  0  0  0  0  0  0  0  0  0
  148.8456  154.9148  132.3826 H   0  0  0  0  0  0  0  0  0  0  0  0
  147.1372  154.8552  131.7328 H   0  0  0  0  0  0  0  0  0  0  0  0
  149.7306  157.0374  132.6513 H   0  0  0  0  0  0  0  0  0  0  0  0
  149.4444  159.4971  133.0997 H   0  0  0  0  0  0  0  0  0  0  0  0
  147.4736  161.4891  133.6887 H   0  0  0  0  0  0  0  0  0  0  0  0
  142.7230  160.6270  133.6060 H   0  0  0  0  0  0  0  0  0  0  0  0
  141.5599  158.7569  137.1811 H   0  0  0  0  0  0  0  0  0  0  0  0
  141.4716  160.3727  136.4013 H   0  0  0  0  0  0  0  0  0  0  0  0
  140.0340  159.2957  136.4013 H   0  0  0  0  0  0  0  0  0  0  0  0
  141.2478  156.8576  136.0814 H   0  0  0  0  0  0  0  0  0  0  0  0
  140.3600  156.9962  134.5260 H   0  0  0  0  0  0  0  0  0  0  0  0
  142.1256  156.6653  134.5260 H   0  0  0  0  0  0  0  0  0  0  0  0
  140.0417  159.9973  134.2088 H   0  0  0  0  0  0  0  0  0  0  0  0
  141.5353  159.9260  133.2134 H   0  0  0  0  0  0  0  0  0  0  0  0
  140.3891  158.5429  133.2134 H   0  0  0  0  0  0  0  0  0  0  0  0
  145.4376  156.4493  133.1289 H   0  0  0  0  0  0  0  0  0  0  0  0
  1  2  1  0
  2  3  1  0
  2  4  1  0
  2  5  1  0
  5  6  1  0
  6  7  2  0
  7  8  1  0
  8  9  2  0
  9 10  1  0
 10 11  2  0
 11 12  1  0
 12 13  1  0
 12 14  2  0
 11 15  1  0
 15 16  1  0
 16 17  2  0
 16 18  1  0
 18 19  1  0
 19 20  1  0
 19 21  1  0
 19 22  1  0
 15 23  1  0
 23 24  2  0
 24  6  1  0
 23  9  1  0
  1 25  1  0
  1 26  1  0
  1 27  1  0
  3 28  1  0
  3 29  1  0
  3 30  1  0
  4 31  1  0
  5 32  1  0
  5 33  1  0
  7 34  1  0
  8 35  1  0
 10 36  1  0
 13 37  1  0
 20 38  1  0
 20 39  1  0
 20 40  1  0
 21 41  1  0
 21 42  1  0
 21 43  1  0
 22 44  1  0
 22 45  1  0
 22 46  1  0
 24 47  1  0
M  CHG  1  13  -1
M  END
>  <UniqueID>  (85) 
84

>  <SMILES>  (85) 
CC(C)(O)Cc1ccc2cc(C([NH-])=O)n(C(=O)OC(C)(C)C)c2c1

>  <Energy>  (85) 
76.9318259953967

>  <Genealogy>  (85) 
CC(C)(O)Cc1ccc2cc(C([NH-])=O)n(C(=O)OC(C)(C)C)c2c1 (protonated)
CC(C)(O)Cc1ccc2cc(C([NH-])=O)n(C(=O)OC(C)(C)C)c2c1 (3D coordinates assigned)
CC(C)(O)Cc1ccc2cc(C([NH-])=O)n(C(=O)OC(C)(C)C)c2c1 (optimized conformer: 76.9318259953967 kcal/mol)

>  <smiles>  (85) 
CC(C)(O)Cc1ccc2cc(C(N)=O)n(C(=O)OC(C)(C)C)c2c1

>  <score_type>  (85) 
oracle

>  <origin>  (85) 
adg

>  <m_score__min__energy>  (85) 
-7.3499999999999996

>  <m_primary>  (85) 
energy

$$$$
85:0
     RDKit          3D

 65 68  0  0  0  0  0  0  0  0999 V2000
  144.7010  153.7030  131.4890 C   0  0  0  0  0  0  0  0  0  0  0  0
  145.2770  154.2540  132.8070 C   0  0  0  0  0  0  0  0  0  0  0  0
  146.7480  153.8250  132.9240 C   0  0  0  0  0  0  0  0  0  0  0  0
  144.4990  153.7010  134.0160 C   0  0  0  0  0  0  0  0  0  0  0  0
  145.2550  155.6870  132.8070 O   0  0  0  0  0  0  0  0  0  0  0  0
  145.3270  156.5250  133.9290 C   0  0  0  0  0  0  0  0  0  0  0  0
  145.2360  156.0590  135.0960 O   0  0  0  0  0  0  0  0  0  0  0  0
  145.5390  157.9320  133.7370 N   0  0  0  0  0  0  0  0  0  0  0  0
  146.7140  158.5880  133.5140 C   0  0  0  0  0  0  0  0  0  0  0  0
  148.0610  157.9800  133.5060 C   0  0  0  0  0  0  0  0  0  0  0  0
  148.2000  156.5660  133.6280 N   0  0  0  0  0  0  0  0  0  0  0  0
  149.0900  158.6890  133.3610 O   0  0  0  0  0  0  0  0  0  0  0  0
  146.4880  159.9580  133.3830 C   0  0  0  0  0  0  0  0  0  0  0  0
  145.1320  160.1230  133.5450 C   0  0  0  0  0  0  0  0  0  0  0  0
  144.3600  161.2810  133.5360 C   0  0  0  0  0  0  0  0  0  0  0  0
  142.9740  161.1520  133.7340 C   0  0  0  0  0  0  0  0  0  0  0  0
  142.3880  159.8750  133.9150 C   0  0  0  0  0  0  0  0  0  0  0  0
  140.9020  159.7460  134.1480 C   0  0  0  0  0  0  0  0  0  0  0  0
  140.5460  158.7930  135.3250 C   0  0  2  0  0  0  0  0  0  0  0  0
  141.6530  158.8630  136.4180 C   0  0  0  0  0  0  0  0  0  0  0  0
  141.2900  158.2090  137.7570 C   0  0  0  0  0  0  0  0  0  0  0  0
  140.8650  156.7250  137.7190 C   0  0  0  0  0  0  0  0  0  0  0  0
  141.4400  155.8550  136.5760 C   0  0  0  0  0  0  0  0  0  0  0  0
  141.4790  156.4740  135.2210 N   0  0  0  0  0  0  0  0  0  0  0  0
  141.9000  155.5000  134.1880 C   0  0  0  0  0  0  0  0  0  0  0  0
  140.6970  154.7650  133.5770 C   0  0  0  0  0  0  0  0  0  0  0  0
  139.6530  155.7340  132.9860 C   0  0  0  0  0  0  0  0  0  0  0  0
  139.9340  157.1980  133.3510 C   0  0  0  0  0  0  0  0  0  0  0  0
  140.3070  157.3200  134.8500 C   0  0  2  0  0  0  0  0  0  0  0  0
  143.2030  158.7220  133.9150 C   0  0  0  0  0  0  0  0  0  0  0  0
  144.5830  158.8840  133.7500 C   0  0  0  0  0  0  0  0  0  0  0  0
  143.9226  152.9584  131.7119 H   0  0  0  0  0  0  0  0  0  0  0  0
  144.2637  154.5276  130.9069 H   0  0  0  0  0  0  0  0  0  0  0  0
  145.5054  153.2295  130.9069 H   0  0  0  0  0  0  0  0  0  0  0  0
  147.0232  153.7447  133.9860 H   0  0  0  0  0  0  0  0  0  0  0  0
  146.8854  152.8494  132.4349 H   0  0  0  0  0  0  0  0  0  0  0  0
  147.3883  154.5738  132.4349 H   0  0  0  0  0  0  0  0  0  0  0  0
  144.9773  154.0410  134.9464 H   0  0  0  0  0  0  0  0  0  0  0  0
  143.4617  154.0656  133.9825 H   0  0  0  0  0  0  0  0  0  0  0  0
  144.5024  152.6015  133.9825 H   0  0  0  0  0  0  0  0  0  0  0  0
  147.3620  155.9460  133.6840 H   0  0  0  0  0  0  0  0  0  0  0  0
  147.2361  160.7412  133.1907 H   0  0  0  0  0  0  0  0  0  0  0  0
  144.8204  162.2676  133.3787 H   0  0  0  0  0  0  0  0  0  0  0  0
  142.3393  162.0503  133.7485 H   0  0  0  0  0  0  0  0  0  0  0  0
  140.4953  160.7435  134.3707 H   0  0  0  0  0  0  0  0  0  0  0  0
  140.4645  159.3153  133.2353 H   0  0  0  0  0  0  0  0  0  0  0  0
  139.5944  159.1352  135.7578 H   0  0  0  0  0  0  0  0  0  0  0  0
  142.5503  158.3615  136.0264 H   0  0  0  0  0  0  0  0  0  0  0  0
  141.8049  159.9314  136.6310 H   0  0  0  0  0  0  0  0  0  0  0  0
  142.1695  158.2858  138.4132 H   0  0  0  0  0  0  0  0  0  0  0  0
  140.4006  158.7523  138.1089 H   0  0  0  0  0  0  0  0  0  0  0  0
  141.1737  156.2677  138.6706 H   0  0  0  0  0  0  0  0  0  0  0  0
  139.7795  156.7449  137.5423 H   0  0  0  0  0  0  0  0  0  0  0  0
  142.4706  155.5841  136.8489 H   0  0  0  0  0  0  0  0  0  0  0  0
  140.7507  155.0025  136.4856 H   0  0  0  0  0  0  0  0  0  0  0  0
  142.4338  156.0357  133.3892 H   0  0  0  0  0  0  0  0  0  0  0  0
  142.5518  154.7536  134.6655 H   0  0  0  0  0  0  0  0  0  0  0  0
  141.0575  154.1029  132.7759 H   0  0  0  0  0  0  0  0  0  0  0  0
  140.2082  154.1960  134.3816 H   0  0  0  0  0  0  0  0  0  0  0  0
  139.6618  155.6360  131.8904 H   0  0  0  0  0  0  0  0  0  0  0  0
  138.6733  155.4671  133.4091 H   0  0  0  0  0  0  0  0  0  0  0  0
  140.7685  157.5703  132.7386 H   0  0  0  0  0  0  0  0  0  0  0  0
  139.0290  157.7931  133.1594 H   0  0  0  0  0  0  0  0  0  0  0  0
  139.4189  156.9443  135.3792 H   0  0  0  0  0  0  0  0  0  0  0  0
  142.7640  157.7214  134.0415 H   0  0  0  0  0  0  0  0  0  0  0  0
  1  2  1  0
  2  3  1  0
  2  4  1  0
  2  5  1  0
  5  6  1  0
  6  7  2  0
  6  8  1  0
  8  9  1  0
  9 10  1  0
 10 11  1  0
 10 12  2  0
  9 13  2  0
 13 14  1  0
 14 15  2  0
 15 16  1  0
 16 17  2  0
 17 18  1  0
 18 19  1  0
 19 20  1  0
 20 21  1  0
 21 22  1  0
 22 23  1  0
 23 24  1  0
 24 25  1  0
 25 26  1  0
 26 27  1  0
 27 28  1  0
 28 29  1  0
 17 30  1  0
 30 31  2  0
 31  8  1  0
 31 14  1  0
 29 19  1  0
 29 24  1  0
  1 32  1  0
  1 33  1  0
  1 34  1  0
  3 35  1  0
  3 36  1  0
  3 37  1  0
  4 38  1  0
  4 39  1  0
  4 40  1  0
 11 41  1  0
 13 42  1  0
 15 43  1  0
 16 44  1  0
 18 45  1  0
 18 46  1  0
 19 47  1  1
 20 48  1  0
 20 49  1  0
 21 50  1  0
 21 51  1  0
 22 52  1  0
 22 53  1  0
 23 54  1  0
 23 55  1  0
 25 56  1  0
 25 57  1  0
 26 58  1  0
 26 59  1  0
 27 60  1  0
 27 61  1  0
 28 62  1  0
 28 63  1  0
 29 64  1  1
 30 65  1  0
M  CHG  1  11  -1
M  END
>  <UniqueID>  (86) 
85

>  <SMILES>  (86) 
CC(C)(C)OC(=O)n1c(C([NH-])=O)cc2ccc(C[C@@H]3CCCCN4CCCC[C@H]34)cc21

>  <Energy>  (86) 
122.89757518675758

>  <Genealogy>  (86) 
CC(C)(C)OC(=O)n1c(C([NH-])=O)cc2ccc(CC3CCCCN4CCCCC34)cc21 (protonated)
CC(C)(C)OC(=O)n1c(C([NH-])=O)cc2ccc(C[C@@H]3CCCCN4CCCC[C@H]34)cc21 (chirality)
CC(C)(C)OC(=O)n1c(C([NH-])=O)cc2ccc(C[C@@H]3CCCCN4CCCC[C@H]34)cc21 (3D coordinates assigned)
CC(C)(C)OC(=O)n1c(C([NH-])=O)cc2ccc(C[C@@H]3CCCCN4CCCC[C@H]34)cc21 (nonaromatic ring conformer: 122.89757518675758 kcal/mol)

>  <smiles>  (86) 
CC(C)(C)OC(=O)n1c(C(N)=O)cc2ccc(CC3CCCCN4CCCCC34)cc21

>  <score_type>  (86) 
oracle

>  <origin>  (86) 
adg

>  <m_score__min__energy>  (86) 
-7.7699999999999996

>  <m_primary>  (86) 
energy

$$$$
86:0
     RDKit          3D

 60 62  0  0  0  0  0  0  0  0999 V2000
  141.3260  158.6460  135.1920 C   0  0  0  0  0  0  0  0  0  0  0  0
  140.8730  157.6290  134.1280 C   0  0  0  0  0  0  0  0  0  0  0  0
  139.3390  157.5580  134.1310 C   0  0  0  0  0  0  0  0  0  0  0  0
  141.3490  158.0600  132.7270 C   0  0  0  0  0  0  0  0  0  0  0  0
  141.3570  156.3150  134.4450 O   0  0  0  0  0  0  0  0  0  0  0  0
  141.3360  155.1960  133.6000 C   0  0  0  0  0  0  0  0  0  0  0  0
  140.3070  154.9080  132.9310 O   0  0  0  0  0  0  0  0  0  0  0  0
  142.5000  154.3580  133.5120 N   0  0  0  0  0  0  0  0  0  0  0  0
  142.5390  152.9960  133.4890 C   0  0  0  0  0  0  0  0  0  0  0  0
  141.3810  152.1010  133.7090 C   0  0  0  0  0  0  0  0  0  0  0  0
  140.2350  152.1690  132.8580 N   0  0  0  0  0  0  0  0  0  0  0  0
  141.4090  151.2480  134.6350 O   0  0  0  0  0  0  0  0  0  0  0  0
  143.8480  152.5490  133.3140 C   0  0  0  0  0  0  0  0  0  0  0  0
  144.6150  153.6900  133.2300 C   0  0  0  0  0  0  0  0  0  0  0  0
  145.9840  153.8340  133.0400 C   0  0  0  0  0  0  0  0  0  0  0  0
  146.5050  155.1360  132.9570 C   0  0  0  0  0  0  0  0  0  0  0  0
  145.6530  156.2670  133.0530 C   0  0  0  0  0  0  0  0  0  0  0  0
  146.2340  157.6640  132.9330 C   0  0  2  0  0  0  0  0  0  0  0  0
  147.7180  157.7030  133.3790 C   0  0  0  0  0  0  0  0  0  0  0  0
  148.1500  159.0770  133.9320 C   0  0  0  0  0  0  0  0  0  0  0  0
  147.4140  160.2480  133.2440 C   0  0  1  0  0  0  0  0  0  0  0  0
  147.7330  160.2890  131.8000 N   0  0  0  0  0  0  0  0  0  0  0  0
  149.1730  160.1160  131.5250 C   0  0  0  0  0  0  0  0  0  0  0  0
  149.4780  159.9830  130.0270 C   0  0  0  0  0  0  0  0  0  0  0  0
  148.3030  160.1100  129.2750 O   0  0  0  0  0  0  0  0  0  0  0  0
  145.8780  160.1310  133.4550 C   0  0  0  0  0  0  0  0  0  0  0  0
  145.3860  158.6910  133.7050 C   0  0  0  0  0  0  0  0  0  0  0  0
  144.2640  156.0760  133.2520 C   0  0  0  0  0  0  0  0  0  0  0  0
  143.7770  154.7680  133.3500 C   0  0  0  0  0  0  0  0  0  0  0  0
  141.1423  158.2336  136.1951 H   0  0  0  0  0  0  0  0  0  0  0  0
  142.4001  158.8500  135.0705 H   0  0  0  0  0  0  0  0  0  0  0  0
  140.7592  159.5809  135.0705 H   0  0  0  0  0  0  0  0  0  0  0  0
  138.9748  157.5411  135.1688 H   0  0  0  0  0  0  0  0  0  0  0  0
  138.9302  158.4382  133.6132 H   0  0  0  0  0  0  0  0  0  0  0  0
  139.0132  156.6438  133.6132 H   0  0  0  0  0  0  0  0  0  0  0  0
  142.1611  158.7953  132.8258 H   0  0  0  0  0  0  0  0  0  0  0  0
  141.7157  157.1804  132.1776 H   0  0  0  0  0  0  0  0  0  0  0  0
  140.5100  158.5119  132.1776 H   0  0  0  0  0  0  0  0  0  0  0  0
  139.4420  151.5040  132.9970 H   0  0  0  0  0  0  0  0  0  0  0  0
  140.1520  152.8970  132.1150 H   0  0  0  0  0  0  0  0  0  0  0  0
  144.1946  151.5067  133.2555 H   0  0  0  0  0  0  0  0  0  0  0  0
  146.6400  152.9549  132.9571 H   0  0  0  0  0  0  0  0  0  0  0  0
  147.5863  155.2806  132.8159 H   0  0  0  0  0  0  0  0  0  0  0  0
  146.2049  157.9434  131.8695 H   0  0  0  0  0  0  0  0  0  0  0  0
  147.8671  156.9474  134.1644 H   0  0  0  0  0  0  0  0  0  0  0  0
  148.3324  157.5006  132.4893 H   0  0  0  0  0  0  0  0  0  0  0  0
  147.9326  159.1079  135.0099 H   0  0  0  0  0  0  0  0  0  0  0  0
  149.2255  159.1947  133.7336 H   0  0  0  0  0  0  0  0  0  0  0  0
  147.7584  161.1860  133.7039 H   0  0  0  0  0  0  0  0  0  0  0  0
  147.1850  159.5670  131.2750 H   0  0  0  0  0  0  0  0  0  0  0  0
  149.7138  160.9895  131.9180 H   0  0  0  0  0  0  0  0  0  0  0  0
  149.4950  159.1846  132.0136 H   0  0  0  0  0  0  0  0  0  0  0  0
  150.1851  160.7715  129.7299 H   0  0  0  0  0  0  0  0  0  0  0  0
  149.9157  158.9915  129.8392 H   0  0  0  0  0  0  0  0  0  0  0  0
  147.8000  160.8660  129.6780 H   0  0  0  0  0  0  0  0  0  0  0  0
  145.6004  160.7468  134.3232 H   0  0  0  0  0  0  0  0  0  0  0  0
  145.4024  160.4721  132.5236 H   0  0  0  0  0  0  0  0  0  0  0  0
  145.4517  158.4724  134.7811 H   0  0  0  0  0  0  0  0  0  0  0  0
  144.3465  158.6151  133.3532 H   0  0  0  0  0  0  0  0  0  0  0  0
  143.5832  156.9367  133.3278 H   0  0  0  0  0  0  0  0  0  0  0  0
  1  2  1  0
  2  3  1  0
  2  4  1  0
  2  5  1  0
  5  6  1  0
  6  7  2  0
  6  8  1  0
  8  9  1  0
  9 10  1  0
 10 11  1  0
 10 12  2  0
  9 13  2  0
 13 14  1  0
 14 15  2  0
 15 16  1  0
 16 17  2  0
 17 18  1  0
 18 19  1  0
 19 20  1  0
 20 21  1  0
 21 22  1  0
 22 23  1  0
 23 24  1  0
 24 25  1  0
 21 26  1  0
 26 27  1  0
 17 28  1  0
 28 29  2  0
 29  8  1  0
 29 14  1  0
 27 18  1  0
  1 30  1  0
  1 31  1  0
  1 32  1  0
  3 33  1  0
  3 34  1  0
  3 35  1  0
  4 36  1  0
  4 37  1  0
  4 38  1  0
 11 39  1  0
 11 40  1  0
 13 41  1  0
 15 42  1  0
 16 43  1  0
 18 44  1  6
 19 45  1  0
 19 46  1  0
 20 47  1  0
 20 48  1  0
 21 49  1  1
 22 50  1  0
 23 51  1  0
 23 52  1  0
 24 53  1  0
 24 54  1  0
 25 55  1  0
 26 56  1  0
 26 57  1  0
 27 58  1  0
 27 59  1  0
 28 60  1  0
M  END
>  <UniqueID>  (87) 
86

>  <SMILES>  (87) 
CC(C)(C)OC(=O)n1c(C(N)=O)cc2ccc(C3CCC(NCCO)CC3)cc21

>  <Energy>  (87) 
99.08109987943858

>  <Genealogy>  (87) 
CC(C)(C)OC(=O)n1c(C(N)=O)cc2ccc(C3CCC(NCCO)CC3)cc21 (3D coordinates assigned)
CC(C)(C)OC(=O)n1c(C(N)=O)cc2ccc(C3CCC(NCCO)CC3)cc21 (nonaromatic ring conformer: 99.08109987943858 kcal/mol)

>  <smiles>  (87) 
CC(C)(C)OC(=O)n1c(C(N)=O)cc2ccc(C3CCC(NCCO)CC3)cc21

>  <score_type>  (87) 
oracle

>  <origin>  (87) 
adg

>  <m_score__min__energy>  (87) 
-9.0700000000000003

>  <m_primary>  (87) 
energy

$$$$
87:0
     RDKit          3D

 52 58  0  0  0  0  0  0  0  0999 V2000
  144.7200  149.3210  140.9080 N   0  0  0  0  0  0  0  0  0  0  0  0
  145.2340  150.3940  140.1240 C   0  0  0  0  0  0  0  0  0  0  0  0
  146.4730  150.4640  139.9110 O   0  0  0  0  0  0  0  0  0  0  0  0
  144.3080  151.3820  139.5340 C   0  0  0  0  0  0  0  0  0  0  0  0
  142.9240  151.3110  139.6690 C   0  0  0  0  0  0  0  0  0  0  0  0
  142.4280  152.3410  138.9040 C   0  0  0  0  0  0  0  0  0  0  0  0
  141.1130  152.7370  138.6830 C   0  0  0  0  0  0  0  0  0  0  0  0
  140.8910  153.8520  137.8570 C   0  0  0  0  0  0  0  0  0  0  0  0
  141.9800  154.5420  137.2680 C   0  0  0  0  0  0  0  0  0  0  0  0
  141.7350  155.7070  136.3890 C   0  0  0  0  0  0  0  0  0  0  0  0
  141.7620  157.0050  136.9630 C   0  0  0  0  0  0  0  0  0  0  0  0
  141.4790  158.1090  136.2140 N   0  0  0  0  0  0  0  0  0  0  0  0
  141.1690  157.9580  134.9050 C   0  0  0  0  0  0  0  0  0  0  0  0
  140.8990  158.9510  134.0450 N   0  0  0  0  0  0  0  0  0  0  0  0
  140.6960  158.3500  132.8520 C   0  0  0  0  0  0  0  0  0  0  0  0
  140.8410  156.9710  132.9640 C   0  0  0  0  0  0  0  0  0  0  0  0
  141.1380  156.7360  134.2950 C   0  0  0  0  0  0  0  0  0  0  0  0
  141.4280  155.5610  135.0030 C   0  0  0  0  0  0  0  0  0  0  0  0
  141.4550  154.2470  134.3180 C   0  0  0  0  0  0  0  0  0  0  0  0
  142.5510  153.4430  134.3050 N   0  0  0  0  0  0  0  0  0  0  0  0
  142.1390  152.3990  133.5740 C   0  0  0  0  0  0  0  0  0  0  0  0
  142.8640  151.2650  133.2250 C   0  0  0  0  0  0  0  0  0  0  0  0
  142.2250  150.2970  132.4290 C   0  0  0  0  0  0  0  0  0  0  0  0
  140.8790  150.4780  131.9990 C   0  0  0  0  0  0  0  0  0  0  0  0
  140.2150  149.4560  131.1520 C   0  0  0  0  0  0  0  0  0  0  0  0
  140.2540  148.0800  131.2960 C   0  0  0  0  0  0  0  0  0  0  0  0
  139.5140  147.5130  130.3250 N   0  0  0  0  0  0  0  0  0  0  0  0
  139.0050  148.4710  129.5670 N   0  0  0  0  0  0  0  0  0  0  0  0
  139.4120  149.6600  130.0450 C   0  0  0  0  0  0  0  0  0  0  0  0
  140.1850  151.6500  132.3860 C   0  0  0  0  0  0  0  0  0  0  0  0
  140.8560  152.5810  133.1730 C   0  0  0  0  0  0  0  0  0  0  0  0
  140.3900  153.7490  133.6350 N   0  0  0  0  0  0  0  0  0  0  0  0
  143.3030  154.1200  137.5290 C   0  0  0  0  0  0  0  0  0  0  0  0
  143.4930  152.9970  138.3420 C   0  0  0  0  0  0  0  0  0  0  0  0
  144.6570  152.4220  138.7220 N   0  0  0  0  0  0  0  0  0  0  0  0
  145.9800  152.8740  138.3940 C   0  0  0  0  0  0  0  0  0  0  0  0
  146.4790  152.6170  137.2660 O   0  0  0  0  0  0  0  0  0  0  0  0
  146.7130  153.6220  139.3060 O   0  0  0  0  0  0  0  0  0  0  0  0
  144.2860  148.4860  140.4570 H   0  0  0  0  0  0  0  0  0  0  0  0
  142.3488  150.5847  140.2621 H   0  0  0  0  0  0  0  0  0  0  0  0
  140.2728  152.1941  139.1406 H   0  0  0  0  0  0  0  0  0  0  0  0
  139.8626  154.1924  137.6658 H   0  0  0  0  0  0  0  0  0  0  0  0
  142.0148  157.1221  138.0271 H   0  0  0  0  0  0  0  0  0  0  0  0
  140.8680  159.9750  134.2480 H   0  0  0  0  0  0  0  0  0  0  0  0
  140.4497  158.8789  131.9195 H   0  0  0  0  0  0  0  0  0  0  0  0
  140.7406  156.2241  132.1627 H   0  0  0  0  0  0  0  0  0  0  0  0
  143.9028  151.1293  133.5603 H   0  0  0  0  0  0  0  0  0  0  0  0
  142.7716  149.3888  132.1349 H   0  0  0  0  0  0  0  0  0  0  0  0
  140.8024  147.5363  132.0793 H   0  0  0  0  0  0  0  0  0  0  0  0
  139.1478  150.6405  129.6221 H   0  0  0  0  0  0  0  0  0  0  0  0
  139.1442  151.8198  132.0732 H   0  0  0  0  0  0  0  0  0  0  0  0
  144.1616  154.6604  137.1040 H   0  0  0  0  0  0  0  0  0  0  0  0
  1  2  1  0
  2  3  2  0
  2  4  1  0
  4  5  2  0
  5  6  1  0
  6  7  2  0
  7  8  1  0
  8  9  2  0
  9 10  1  0
 10 11  2  0
 11 12  1  0
 12 13  2  0
 13 14  1  0
 14 15  1  0
 15 16  2  0
 16 17  1  0
 17 18  2  0
 18 19  1  0
 19 20  2  0
 20 21  1  0
 21 22  2  0
 22 23  1  0
 23 24  2  0
 24 25  1  0
 25 26  1  0
 26 27  2  0
 27 28  1  0
 28 29  1  0
 24 30  1  0
 30 31  2  0
 31 32  1  0
  9 33  1  0
 33 34  2  0
 34 35  1  0
 35 36  1  0
 36 37  2  0
 36 38  1  0
 35  4  1  0
 34  6  1  0
 18 10  1  0
 32 19  1  0
 17 13  1  0
 31 21  1  0
 29 25  2  0
  1 39  1  0
  5 40  1  0
  7 41  1  0
  8 42  1  0
 11 43  1  0
 14 44  1  0
 15 45  1  0
 16 46  1  0
 22 47  1  0
 23 48  1  0
 26 49  1  0
 29 50  1  0
 30 51  1  0
 33 52  1  0
M  CHG  4   1  -1  28  -1  32  -1  38  -1
M  END
>  <UniqueID>  (88) 
87

>  <SMILES>  (88) 
[NH-]C(=O)c1cc2ccc(-c3cnc4[nH]ccc4c3-c3nc4ccc(-c5cn[n-]c5)cc4[n-]3)cc2n1C(=O)[O-]

>  <Energy>  (88) 
213.54938319674858

>  <Genealogy>  (88) 
[NH-]C(=O)c1cc2ccc(-c3cnc4[nH]ccc4c3-c3nc4ccc(-c5cn[n-]c5)cc4[n-]3)cc2n1C(=O)[O-] (protonated)
[NH-]C(=O)c1cc2ccc(-c3cnc4[nH]ccc4c3-c3nc4ccc(-c5cn[n-]c5)cc4[n-]3)cc2n1C(=O)[O-] (3D coordinates assigned)
[NH-]C(=O)c1cc2ccc(-c3cnc4[nH]ccc4c3-c3nc4ccc(-c5cn[n-]c5)cc4[n-]3)cc2n1C(=O)[O-] (optimized conformer: 213.54938319674858 kcal/mol)

>  <smiles>  (88) 
NC(=O)c1cc2ccc(-c3cnc4[nH]ccc4c3-c3nc4ccc(-c5cn[nH]c5)cc4[nH]3)cc2n1C(=O)O

>  <score_type>  (88) 
oracle

>  <origin>  (88) 
adg

>  <m_score__min__energy>  (88) 
-11.23

>  <m_primary>  (88) 
energy

$$$$
88:0
     RDKit          3D

 43 45  0  0  0  0  0  0  0  0999 V2000
  149.6020  159.6030  131.0790 C   0  0  0  0  0  0  0  0  0  0  0  0
  148.4860  160.6410  131.0360 C   0  0  0  0  0  0  0  0  0  0  0  0
  147.2870  160.1080  131.5920 O   0  0  0  0  0  0  0  0  0  0  0  0
  147.0690  159.9680  132.9670 C   0  0  0  0  0  0  0  0  0  0  0  0
  148.0120  160.1490  133.7860 O   0  0  0  0  0  0  0  0  0  0  0  0
  145.7560  159.6380  133.4480 N   0  0  0  0  0  0  0  0  0  0  0  0
  144.7760  160.4870  133.8670 C   0  0  0  0  0  0  0  0  0  0  0  0
  144.9070  161.9490  134.0370 C   0  0  0  0  0  0  0  0  0  0  0  0
  146.1310  162.5010  134.5180 N   0  0  0  0  0  0  0  0  0  0  0  0
  143.9600  162.7220  133.7330 O   0  0  0  0  0  0  0  0  0  0  0  0
  143.6260  159.7750  134.2030 C   0  0  0  0  0  0  0  0  0  0  0  0
  143.9370  158.4530  133.9790 C   0  0  0  0  0  0  0  0  0  0  0  0
  143.1590  157.3110  134.1360 C   0  0  0  0  0  0  0  0  0  0  0  0
  143.7300  156.0720  133.8000 C   0  0  0  0  0  0  0  0  0  0  0  0
  145.0590  155.9940  133.3080 C   0  0  0  0  0  0  0  0  0  0  0  0
  145.6500  154.6810  132.9420 C   0  0  0  0  0  0  0  0  0  0  0  0
  144.8350  153.6110  132.5470 C   0  0  0  0  0  0  0  0  0  0  0  0
  145.3850  152.4170  132.2110 N   0  0  0  0  0  0  0  0  0  0  0  0
  146.7260  152.1870  132.2450 C   0  0  0  0  0  0  0  0  0  0  0  0
  147.1940  150.8780  131.8710 N   0  0  0  0  0  0  0  0  0  0  0  0
  148.2080  150.1280  132.6060 C   0  0  0  0  0  0  0  0  0  0  0  0
  147.5910  153.2450  132.6150 C   0  0  0  0  0  0  0  0  0  0  0  0
  149.0280  153.1270  132.5940 C   0  0  0  0  0  0  0  0  0  0  0  0
  150.1830  153.0430  132.5790 N   0  0  0  0  0  0  0  0  0  0  0  0
  147.0380  154.4830  132.9680 C   0  0  0  0  0  0  0  0  0  0  0  0
  145.8160  157.1800  133.1630 C   0  0  0  0  0  0  0  0  0  0  0  0
  145.2280  158.3970  133.5240 C   0  0  0  0  0  0  0  0  0  0  0  0
  149.8490  159.3733  132.1260 H   0  0  0  0  0  0  0  0  0  0  0  0
  149.2694  158.6858  130.5710 H   0  0  0  0  0  0  0  0  0  0  0  0
  150.4928  160.0011  130.5710 H   0  0  0  0  0  0  0  0  0  0  0  0
  148.7915  161.5252  131.6147 H   0  0  0  0  0  0  0  0  0  0  0  0
  148.2993  160.9194  129.9883 H   0  0  0  0  0  0  0  0  0  0  0  0
  147.0260  161.9700  134.4420 H   0  0  0  0  0  0  0  0  0  0  0  0
  142.6724  160.1829  134.5694 H   0  0  0  0  0  0  0  0  0  0  0  0
  142.1273  157.3758  134.5120 H   0  0  0  0  0  0  0  0  0  0  0  0
  143.1399  155.1514  133.9197 H   0  0  0  0  0  0  0  0  0  0  0  0
  143.7433  153.7401  132.5092 H   0  0  0  0  0  0  0  0  0  0  0  0
  146.5990  150.3320  131.2070 H   0  0  0  0  0  0  0  0  0  0  0  0
  148.0429  150.2501  133.6867 H   0  0  0  0  0  0  0  0  0  0  0  0
  148.1385  149.0623  132.3426 H   0  0  0  0  0  0  0  0  0  0  0  0
  149.2067  150.5064  132.3426 H   0  0  0  0  0  0  0  0  0  0  0  0
  147.6998  155.3086  133.2688 H   0  0  0  0  0  0  0  0  0  0  0  0
  146.8447  157.1462  132.7748 H   0  0  0  0  0  0  0  0  0  0  0  0
  1  2  1  0
  2  3  1  0
  3  4  1  0
  4  5  2  0
  4  6  1  0
  6  7  1  0
  7  8  1  0
  8  9  1  0
  8 10  2  0
  7 11  2  0
 11 12  1  0
 12 13  2  0
 13 14  1  0
 14 15  2  0
 15 16  1  0
 16 17  2  0
 17 18  1  0
 18 19  2  0
 19 20  1  0
 20 21  1  0
 19 22  1  0
 22 23  1  0
 23 24  3  0
 22 25  2  0
 15 26  1  0
 26 27  2  0
 27  6  1  0
 27 12  1  0
 25 16  1  0
  1 28  1  0
  1 29  1  0
  1 30  1  0
  2 31  1  0
  2 32  1  0
  9 33  1  0
 11 34  1  0
 13 35  1  0
 14 36  1  0
 17 37  1  0
 20 38  1  0
 21 39  1  0
 21 40  1  0
 21 41  1  0
 25 42  1  0
 26 43  1  0
M  CHG  1   9  -1
M  END
>  <UniqueID>  (89) 
88

>  <SMILES>  (89) 
CCOC(=O)n1c(C([NH-])=O)cc2ccc(-c3cnc(NC)c(C#N)c3)cc21

>  <Energy>  (89) 
88.41169687846394

>  <Genealogy>  (89) 
CCOC(=O)n1c(C([NH-])=O)cc2ccc(-c3cnc(NC)c(C#N)c3)cc21 (protonated)
CCOC(=O)n1c(C([NH-])=O)cc2ccc(-c3cnc(NC)c(C#N)c3)cc21 (3D coordinates assigned)
CCOC(=O)n1c(C([NH-])=O)cc2ccc(-c3cnc(NC)c(C#N)c3)cc21 (optimized conformer: 88.41169687846394 kcal/mol)

>  <smiles>  (89) 
CCOC(=O)n1c(C(N)=O)cc2ccc(-c3cnc(NC)c(C#N)c3)cc21

>  <score_type>  (89) 
oracle

>  <origin>  (89) 
adg

>  <m_score__min__energy>  (89) 
-7.8799999999999999

>  <m_primary>  (89) 
energy

$$$$
89:0
     RDKit          3D

 56 59  0  0  0  0  0  0  0  0999 V2000
  148.0140  154.1030  133.6930 C   0  0  0  0  0  0  0  0  0  0  0  0
  147.4700  154.6650  134.8830 O   0  0  0  0  0  0  0  0  0  0  0  0
  146.1070  154.6630  135.2190 C   0  0  0  0  0  0  0  0  0  0  0  0
  145.1590  155.3990  134.4780 C   0  0  0  0  0  0  0  0  0  0  0  0
  143.8090  155.4360  134.8710 C   0  0  0  0  0  0  0  0  0  0  0  0
  142.8220  156.2190  134.0880 C   0  0  0  0  0  0  0  0  0  0  0  0
  142.0610  155.6330  133.2700 O   0  0  0  0  0  0  0  0  0  0  0  0
  142.6880  157.6360  134.2700 N   0  0  0  0  0  0  0  0  0  0  0  0
  141.5840  158.3320  134.6620 C   0  0  0  0  0  0  0  0  0  0  0  0
  140.2880  157.7410  135.0560 C   0  0  0  0  0  0  0  0  0  0  0  0
  139.6850  158.1100  136.2950 N   0  0  0  0  0  0  0  0  0  0  0  0
  139.7130  156.8980  134.3180 O   0  0  0  0  0  0  0  0  0  0  0  0
  141.8570  159.6980  134.6950 C   0  0  0  0  0  0  0  0  0  0  0  0
  143.1760  159.8150  134.3170 C   0  0  0  0  0  0  0  0  0  0  0  0
  143.9740  160.9460  134.1770 C   0  0  0  0  0  0  0  0  0  0  0  0
  145.3040  160.7660  133.7610 C   0  0  0  0  0  0  0  0  0  0  0  0
  145.8100  159.4690  133.4850 C   0  0  0  0  0  0  0  0  0  0  0  0
  147.1780  159.2980  133.0650 N   0  0  0  0  0  0  0  0  0  0  0  0
  147.6640  159.9620  131.8480 C   0  0  0  0  0  0  0  0  0  0  0  0
  148.9780  159.3260  131.3720 C   0  0  0  0  0  0  0  0  0  0  0  0
  148.9330  157.8680  131.5560 N   0  0  0  0  0  0  0  0  0  0  0  0
  148.8530  157.4760  132.9810 C   0  0  0  0  0  0  0  0  0  0  0  0
  148.1230  158.5080  133.8640 C   0  0  0  0  0  0  0  0  0  0  0  0
  144.9690  158.3450  133.6490 C   0  0  0  0  0  0  0  0  0  0  0  0
  143.6540  158.5550  134.0710 C   0  0  0  0  0  0  0  0  0  0  0  0
  143.4120  154.7210  136.0120 C   0  0  0  0  0  0  0  0  0  0  0  0
  144.3420  153.9820  136.7420 C   0  0  0  0  0  0  0  0  0  0  0  0
  145.6800  153.9260  136.3430 C   0  0  0  0  0  0  0  0  0  0  0  0
  146.5690  153.1590  137.1090 O   0  0  0  0  0  0  0  0  0  0  0  0
  147.4200  153.6810  138.0900 C   0  0  0  0  0  0  0  0  0  0  0  0
  148.8130  154.0630  137.7210 C   0  0  0  0  0  0  0  0  0  0  0  0
  146.9980  153.9160  139.2550 O   0  0  0  0  0  0  0  0  0  0  0  0
  148.7568  153.3356  133.9562 H   0  0  0  0  0  0  0  0  0  0  0  0
  147.2074  153.6450  133.1018 H   0  0  0  0  0  0  0  0  0  0  0  0
  148.4980  154.8943  133.1018 H   0  0  0  0  0  0  0  0  0  0  0  0
  145.4793  155.9507  133.5819 H   0  0  0  0  0  0  0  0  0  0  0  0
  139.1260  158.9870  136.3790 H   0  0  0  0  0  0  0  0  0  0  0  0
  141.1660  160.5100  134.9654 H   0  0  0  0  0  0  0  0  0  0  0  0
  143.5761  161.9501  134.3855 H   0  0  0  0  0  0  0  0  0  0  0  0
  145.9610  161.6409  133.6479 H   0  0  0  0  0  0  0  0  0  0  0  0
  146.9072  159.8635  131.0559 H   0  0  0  0  0  0  0  0  0  0  0  0
  147.8452  161.0236  132.0721 H   0  0  0  0  0  0  0  0  0  0  0  0
  149.1262  159.5532  130.3060 H   0  0  0  0  0  0  0  0  0  0  0  0
  149.8099  159.7366  131.9630 H   0  0  0  0  0  0  0  0  0  0  0  0
  149.7940  157.4480  131.1350 H   0  0  0  0  0  0  0  0  0  0  0  0
  148.1060  157.4830  131.0420 H   0  0  0  0  0  0  0  0  0  0  0  0
  148.3161  156.5183  133.0488 H   0  0  0  0  0  0  0  0  0  0  0  0
  149.8851  157.4038  133.3546 H   0  0  0  0  0  0  0  0  0  0  0  0
  147.5726  157.9801  134.6567 H   0  0  0  0  0  0  0  0  0  0  0  0
  148.8681  159.1870  134.3043 H   0  0  0  0  0  0  0  0  0  0  0  0
  145.3410  157.3293  133.4492 H   0  0  0  0  0  0  0  0  0  0  0  0
  142.3599  154.7439  136.3323 H   0  0  0  0  0  0  0  0  0  0  0  0
  144.0191  153.4373  137.6415 H   0  0  0  0  0  0  0  0  0  0  0  0
  149.4032  154.2248  138.6351 H   0  0  0  0  0  0  0  0  0  0  0  0
  149.2694  153.2568  137.1278 H   0  0  0  0  0  0  0  0  0  0  0  0
  148.7943  154.9892  137.1278 H   0  0  0  0  0  0  0  0  0  0  0  0
  1  2  1  0
  2  3  1  0
  3  4  2  0
  4  5  1  0
  5  6  1  0
  6  7  2  0
  6  8  1  0
  8  9  1  0
  9 10  1  0
 10 11  1  0
 10 12  2  0
  9 13  2  0
 13 14  1  0
 14 15  2  0
 15 16  1  0
 16 17  2  0
 17 18  1  0
 18 19  1  0
 19 20  1  0
 20 21  1  0
 21 22  1  0
 22 23  1  0
 17 24  1  0
 24 25  2  0
  5 26  2  0
 26 27  1  0
 27 28  2  0
 28 29  1  0
 29 30  1  0
 30 31  1  0
 30 32  2  0
 28  3  1  0
 25  8  1  0
 25 14  1  0
 23 18  1  0
  1 33  1  0
  1 34  1  0
  1 35  1  0
  4 36  1  0
 11 37  1  0
 13 38  1  0
 15 39  1  0
 16 40  1  0
 19 41  1  0
 19 42  1  0
 20 43  1  0
 20 44  1  0
 21 45  1  0
 21 46  1  0
 22 47  1  0
 22 48  1  0
 23 49  1  0
 23 50  1  0
 24 51  1  0
 26 52  1  0
 27 53  1  0
 31 54  1  0
 31 55  1  0
 31 56  1  0
M  CHG  2  11  -1  21   1
M  END
>  <UniqueID>  (90) 
89

>  <SMILES>  (90) 
COc1cc(C(=O)n2c(C([NH-])=O)cc3ccc(N4CC[NH2+]CC4)cc32)ccc1OC(C)=O

>  <Energy>  (90) 
111.87279429077333

>  <Genealogy>  (90) 
COc1cc(C(=O)n2c(C([NH-])=O)cc3ccc(N4CC[NH2+]CC4)cc32)ccc1OC(C)=O (protonated)
COc1cc(C(=O)n2c(C([NH-])=O)cc3ccc(N4CC[NH2+]CC4)cc32)ccc1OC(C)=O (3D coordinates assigned)
COc1cc(C(=O)n2c(C([NH-])=O)cc3ccc(N4CC[NH2+]CC4)cc32)ccc1OC(C)=O (nonaromatic ring conformer: 111.87279429077333 kcal/mol)

>  <smiles>  (90) 
COc1cc(C(=O)n2c(C(N)=O)cc3ccc(N4CCNCC4)cc32)ccc1OC(C)=O

>  <score_type>  (90) 
oracle

>  <origin>  (90) 
adg

>  <m_score__min__energy>  (90) 
-8.7100000000000009

>  <m_primary>  (90) 
energy

$$$$
90:0
     RDKit          3D

 37 39  0  0  0  0  0  0  0  0999 V2000
  140.5960  150.6790  137.8160 C   0  0  0  0  0  0  0  0  0  0  0  0
  140.6130  151.4720  136.6330 O   0  0  0  0  0  0  0  0  0  0  0  0
  141.6960  152.2560  136.2070 C   0  0  0  0  0  0  0  0  0  0  0  0
  142.1060  152.2570  134.8570 C   0  0  0  0  0  0  0  0  0  0  0  0
  143.1870  153.0350  134.4340 C   0  0  0  0  0  0  0  0  0  0  0  0
  143.5900  153.0350  132.7190 Cl  0  0  0  0  0  0  0  0  0  0  0  0
  143.8880  153.8270  135.3620 C   0  0  0  0  0  0  0  0  0  0  0  0
  145.0470  154.6550  134.9610 C   0  0  0  0  0  0  0  0  0  0  0  0
  146.3680  154.1750  135.1440 C   0  0  0  0  0  0  0  0  0  0  0  0
  147.4730  154.9580  134.7690 C   0  0  0  0  0  0  0  0  0  0  0  0
  147.2270  156.2180  134.2310 C   0  0  0  0  0  0  0  0  0  0  0  0
  148.1070  157.1670  133.7660 C   0  0  0  0  0  0  0  0  0  0  0  0
  147.3130  158.2280  133.3350 C   0  0  0  0  0  0  0  0  0  0  0  0
  147.8630  159.5020  132.8270 C   0  0  0  0  0  0  0  0  0  0  0  0
  147.2810  160.1180  131.6800 N   0  0  0  0  0  0  0  0  0  0  0  0
  148.8610  160.0400  133.3740 O   0  0  0  0  0  0  0  0  0  0  0  0
  145.9930  157.9430  133.5230 N   0  0  0  0  0  0  0  0  0  0  0  0
  144.8580  158.7470  133.1610 C   0  0  0  0  0  0  0  0  0  0  0  0
  144.9090  160.1660  133.2980 N   0  0  0  0  0  0  0  0  0  0  0  0
  143.8070  158.2030  132.7300 O   0  0  0  0  0  0  0  0  0  0  0  0
  145.9570  156.7090  134.0740 C   0  0  0  0  0  0  0  0  0  0  0  0
  144.8380  155.9440  134.4200 C   0  0  0  0  0  0  0  0  0  0  0  0
  143.4740  153.8370  136.7010 C   0  0  0  0  0  0  0  0  0  0  0  0
  142.3930  153.0630  137.1370 C   0  0  0  0  0  0  0  0  0  0  0  0
  142.0650  153.1400  138.4990 O   0  0  0  0  0  0  0  0  0  0  0  0
  140.6960  153.9500  139.1820 Cl  0  0  0  0  0  0  0  0  0  0  0  0
  140.6101  151.3360  138.6981 H   0  0  0  0  0  0  0  0  0  0  0  0
  139.6844  150.0635  137.8318 H   0  0  0  0  0  0  0  0  0  0  0  0
  141.4803  150.0250  137.8318 H   0  0  0  0  0  0  0  0  0  0  0  0
  141.5667  151.6361  134.1265 H   0  0  0  0  0  0  0  0  0  0  0  0
  146.5298  153.1798  135.5839 H   0  0  0  0  0  0  0  0  0  0  0  0
  148.5005  154.5867  134.8966 H   0  0  0  0  0  0  0  0  0  0  0  0
  149.2048  157.1023  133.7398 H   0  0  0  0  0  0  0  0  0  0  0  0
  146.4190  160.7000  131.7620 H   0  0  0  0  0  0  0  0  0  0  0  0
  145.4250  160.7540  132.6070 H   0  0  0  0  0  0  0  0  0  0  0  0
  143.8205  156.3360  134.2746 H   0  0  0  0  0  0  0  0  0  0  0  0
  144.0108  154.4674  137.4252 H   0  0  0  0  0  0  0  0  0  0  0  0
  1  2  1  0
  2  3  1  0
  3  4  2  0
  4  5  1  0
  5  6  1  0
  5  7  2  0
  7  8  1  0
  8  9  2  0
  9 10  1  0
 10 11  2  0
 11 12  1  0
 12 13  2  0
 13 14  1  0
 14 15  1  0
 14 16  2  0
 13 17  1  0
 17 18  1  0
 18 19  1  0
 18 20  2  0
 17 21  1  0
 21 22  2  0
  7 23  1  0
 23 24  2  0
 24 25  1  0
 25 26  1  0
 24  3  1  0
 22  8  1  0
 21 11  1  0
  1 27  1  0
  1 28  1  0
  1 29  1  0
  4 30  1  0
  9 31  1  0
 10 32  1  0
 12 33  1  0
 15 34  1  0
 19 35  1  0
 22 36  1  0
 23 37  1  0
M  CHG  2  15  -1  19  -1
M  END
>  <UniqueID>  (91) 
90

>  <SMILES>  (91) 
COc1cc(Cl)c(-c2ccc3cc(C([NH-])=O)n(C([NH-])=O)c3c2)cc1OCl

>  <Energy>  (91) 
89.89085143565883

>  <Genealogy>  (91) 
COc1cc(Cl)c(-c2ccc3cc(C([NH-])=O)n(C([NH-])=O)c3c2)cc1OCl (protonated)
COc1cc(Cl)c(-c2ccc3cc(C([NH-])=O)n(C([NH-])=O)c3c2)cc1OCl (3D coordinates assigned)
COc1cc(Cl)c(-c2ccc3cc(C([NH-])=O)n(C([NH-])=O)c3c2)cc1OCl (optimized conformer: 89.89085143565883 kcal/mol)

>  <smiles>  (91) 
COc1cc(Cl)c(-c2ccc3cc(C(N)=O)n(C(N)=O)c3c2)cc1OCl

>  <score_type>  (91) 
oracle

>  <origin>  (91) 
adg

>  <m_score__min__energy>  (91) 
-7.5300000000000002

>  <m_primary>  (91) 
energy

$$$$
91:0
     RDKit          3D

 40 42  0  0  0  0  0  0  0  0999 V2000
  149.5750  159.5650  130.6350 C   0  0  0  0  0  0  0  0  0  0  0  0
  149.1070  159.4080  132.0210 N   0  0  0  0  0  0  0  0  0  0  0  0
  148.6310  158.0240  132.2430 C   0  0  0  0  0  0  0  0  0  0  0  0
  147.9050  157.8890  133.5870 C   0  0  0  0  0  0  0  0  0  0  0  0
  146.6950  158.8540  133.7000 C   0  0  0  0  0  0  0  0  0  0  0  0
  145.3680  158.1150  133.7130 C   0  0  0  0  0  0  0  0  0  0  0  0
  145.2930  156.7490  133.3290 C   0  0  0  0  0  0  0  0  0  0  0  0
  144.0650  156.0720  133.3150 C   0  0  0  0  0  0  0  0  0  0  0  0
  142.9270  156.7770  133.6930 C   0  0  0  0  0  0  0  0  0  0  0  0
  141.6130  156.3740  133.7350 C   0  0  0  0  0  0  0  0  0  0  0  0
  140.9000  157.4880  134.1660 C   0  0  0  0  0  0  0  0  0  0  0  0
  139.4450  157.4740  134.4120 C   0  0  0  0  0  0  0  0  0  0  0  0
  138.8660  158.2440  135.4690 N   0  0  0  0  0  0  0  0  0  0  0  0
  138.7050  156.7280  133.7160 O   0  0  0  0  0  0  0  0  0  0  0  0
  141.7350  158.5460  134.3710 N   0  0  0  0  0  0  0  0  0  0  0  0
  141.3640  159.8960  134.6990 C   0  0  0  0  0  0  0  0  0  0  0  0
  140.9740  160.1870  135.8600 O   0  0  0  0  0  0  0  0  0  0  0  0
  141.4360  160.8970  133.7380 O   0  0  0  0  0  0  0  0  0  0  0  0
  142.9760  158.0920  134.0790 C   0  0  0  0  0  0  0  0  0  0  0  0
  144.1850  158.7980  134.0820 C   0  0  0  0  0  0  0  0  0  0  0  0
  146.7030  159.9350  132.6010 C   0  0  0  0  0  0  0  0  0  0  0  0
  148.1270  160.4680  132.3860 C   0  0  0  0  0  0  0  0  0  0  0  0
  150.6179  159.9149  130.6375 H   0  0  0  0  0  0  0  0  0  0  0  0
  149.5142  158.5973  130.1156 H   0  0  0  0  0  0  0  0  0  0  0  0
  148.9429  160.3003  130.1156 H   0  0  0  0  0  0  0  0  0  0  0  0
  147.9386  157.7498  131.4334 H   0  0  0  0  0  0  0  0  0  0  0  0
  149.5047  157.3557  132.2536 H   0  0  0  0  0  0  0  0  0  0  0  0
  147.5444  156.8551  133.6924 H   0  0  0  0  0  0  0  0  0  0  0  0
  148.6184  158.1478  134.3833 H   0  0  0  0  0  0  0  0  0  0  0  0
  146.8057  159.3619  134.6694 H   0  0  0  0  0  0  0  0  0  0  0  0
  146.2102  156.2156  133.0389 H   0  0  0  0  0  0  0  0  0  0  0  0
  144.0035  155.0157  133.0143 H   0  0  0  0  0  0  0  0  0  0  0  0
  141.2112  155.3818  133.4817 H   0  0  0  0  0  0  0  0  0  0  0  0
  137.8310  158.2500  135.6050 H   0  0  0  0  0  0  0  0  0  0  0  0
  139.4650  158.7400  136.1640 H   0  0  0  0  0  0  0  0  0  0  0  0
  144.2146  159.8605  134.3651 H   0  0  0  0  0  0  0  0  0  0  0  0
  146.3332  159.4993  131.6611 H   0  0  0  0  0  0  0  0  0  0  0  0
  146.0537  160.7663  132.9130 H   0  0  0  0  0  0  0  0  0  0  0  0
  148.1019  161.2130  131.5771 H   0  0  0  0  0  0  0  0  0  0  0  0
  148.4587  160.9017  133.3409 H   0  0  0  0  0  0  0  0  0  0  0  0
  1  2  1  0
  2  3  1  0
  3  4  1  0
  4  5  1  0
  5  6  1  0
  6  7  2  0
  7  8  1  0
  8  9  2  0
  9 10  1  0
 10 11  2  0
 11 12  1  0
 12 13  1  0
 12 14  2  0
 11 15  1  0
 15 16  1  0
 16 17  2  0
 16 18  1  0
 15 19  1  0
 19 20  2  0
  5 21  1  0
 21 22  1  0
 22  2  1  0
 20  6  1  0
 19  9  1  0
  1 23  1  0
  1 24  1  0
  1 25  1  0
  3 26  1  0
  3 27  1  0
  4 28  1  0
  4 29  1  0
  5 30  1  0
  7 31  1  0
  8 32  1  0
 10 33  1  0
 13 34  1  0
 13 35  1  0
 20 36  1  0
 21 37  1  0
 21 38  1  0
 22 39  1  0
 22 40  1  0
M  CHG  1  18  -1
M  END
>  <UniqueID>  (92) 
91

>  <SMILES>  (92) 
CN1CCC(c2ccc3cc(C(N)=O)n(C(=O)[O-])c3c2)CC1

>  <Energy>  (92) 
89.94022305581358

>  <Genealogy>  (92) 
CN1CCC(c2ccc3cc(C(N)=O)n(C(=O)[O-])c3c2)CC1 (protonated)
CN1CCC(c2ccc3cc(C(N)=O)n(C(=O)[O-])c3c2)CC1 (3D coordinates assigned)
CN1CCC(c2ccc3cc(C(N)=O)n(C(=O)[O-])c3c2)CC1 (nonaromatic ring conformer: 89.94022305581358 kcal/mol)

>  <smiles>  (92) 
CN1CCC(c2ccc3cc(C(N)=O)n(C(=O)O)c3c2)CC1

>  <score_type>  (92) 
oracle

>  <origin>  (92) 
adg

>  <m_score__min__energy>  (92) 
-7.8300000000000001

>  <m_primary>  (92) 
energy

$$$$
92:0
     RDKit          3D

 57 59  0  0  0  0  0  0  0  0999 V2000
  151.3220  149.6140  129.7630 C   0  0  0  0  0  0  0  0  0  0  0  0
  150.2550  149.8500  130.6730 O   0  0  0  0  0  0  0  0  0  0  0  0
  150.4090  150.6150  131.8360 C   0  0  0  0  0  0  0  0  0  0  0  0
  151.5340  151.1120  132.1200 O   0  0  0  0  0  0  0  0  0  0  0  0
  149.2140  150.9080  132.7290 C   0  0  0  0  0  0  0  0  0  0  0  0
  149.5770  150.4840  134.1700 C   0  0  0  0  0  0  0  0  0  0  0  0
  147.9840  150.1010  132.2710 C   0  0  0  0  0  0  0  0  0  0  0  0
  148.8870  152.3480  132.6590 N   0  0  0  0  0  0  0  0  0  0  0  0
  147.7000  152.9030  132.9930 C   0  0  0  0  0  0  0  0  0  0  0  0
  147.8150  154.2850  132.9250 C   0  0  0  0  0  0  0  0  0  0  0  0
  146.7640  155.2990  133.2120 C   0  0  0  0  0  0  0  0  0  0  0  0
  145.4530  154.8950  133.5830 C   0  0  0  0  0  0  0  0  0  0  0  0
  144.4500  155.8450  133.8410 C   0  0  0  0  0  0  0  0  0  0  0  0
  144.7790  157.1900  133.7310 C   0  0  0  0  0  0  0  0  0  0  0  0
  143.9950  158.3090  133.8880 C   0  0  0  0  0  0  0  0  0  0  0  0
  144.8370  159.3890  133.6330 C   0  0  0  0  0  0  0  0  0  0  0  0
  144.4120  160.8000  133.7550 C   0  0  0  0  0  0  0  0  0  0  0  0
  145.3510  161.8230  134.0760 N   0  0  0  0  0  0  0  0  0  0  0  0
  143.1960  161.0990  133.6190 O   0  0  0  0  0  0  0  0  0  0  0  0
  146.0920  158.9540  133.3270 N   0  0  0  0  0  0  0  0  0  0  0  0
  147.2120  159.7420  132.8970 C   0  0  0  0  0  0  0  0  0  0  0  0
  147.8430  160.4390  133.7360 O   0  0  0  0  0  0  0  0  0  0  0  0
  147.6050  159.7030  131.5500 O   0  0  0  0  0  0  0  0  0  0  0  0
  148.9510  159.7230  131.0560 C   0  0  0  0  0  0  0  0  0  0  0  0
  149.8880  158.9410  131.9970 C   0  0  0  0  0  0  0  0  0  0  0  0
  149.3980  161.1920  131.0220 C   0  0  0  0  0  0  0  0  0  0  0  0
  149.0160  159.1500  129.6260 C   0  0  0  0  0  0  0  0  0  0  0  0
  146.0400  157.6040  133.3920 C   0  0  0  0  0  0  0  0  0  0  0  0
  147.0550  156.6820  133.1100 C   0  0  0  0  0  0  0  0  0  0  0  0
  149.1340  154.5090  132.5560 C   0  0  0  0  0  0  0  0  0  0  0  0
  149.7530  153.3240  132.4160 N   0  0  0  0  0  0  0  0  0  0  0  0
  152.2451  149.4098  130.3253 H   0  0  0  0  0  0  0  0  0  0  0  0
  151.0792  148.7479  129.1299 H   0  0  0  0  0  0  0  0  0  0  0  0
  151.4671  150.5018  129.1299 H   0  0  0  0  0  0  0  0  0  0  0  0
  149.0342  151.1180  134.8865 H   0  0  0  0  0  0  0  0  0  0  0  0
  149.2953  149.4320  134.3246 H   0  0  0  0  0  0  0  0  0  0  0  0
  150.6599  150.6002  134.3246 H   0  0  0  0  0  0  0  0  0  0  0  0
  147.4335  149.7398  133.1522 H   0  0  0  0  0  0  0  0  0  0  0  0
  147.3275  150.7445  131.6669 H   0  0  0  0  0  0  0  0  0  0  0  0
  148.3129  149.2426  131.6669 H   0  0  0  0  0  0  0  0  0  0  0  0
  146.7914  152.3498  133.2729 H   0  0  0  0  0  0  0  0  0  0  0  0
  145.2200  153.8235  133.6694 H   0  0  0  0  0  0  0  0  0  0  0  0
  143.4335  155.5324  134.1220 H   0  0  0  0  0  0  0  0  0  0  0  0
  142.9291  158.3438  134.1577 H   0  0  0  0  0  0  0  0  0  0  0  0
  146.2510  161.9070  133.5530 H   0  0  0  0  0  0  0  0  0  0  0  0
  149.6248  159.1607  133.0422 H   0  0  0  0  0  0  0  0  0  0  0  0
  149.7785  157.8625  131.8102 H   0  0  0  0  0  0  0  0  0  0  0  0
  150.9295  159.2416  131.8102 H   0  0  0  0  0  0  0  0  0  0  0  0
  149.5114  161.5647  132.0507 H   0  0  0  0  0  0  0  0  0  0  0  0
  150.3606  161.2703  130.4955 H   0  0  0  0  0  0  0  0  0  0  0  0
  148.6421  161.7932  130.4955 H   0  0  0  0  0  0  0  0  0  0  0  0
  149.1399  158.0580  129.6738 H   0  0  0  0  0  0  0  0  0  0  0  0
  148.0848  159.3903  129.0920 H   0  0  0  0  0  0  0  0  0  0  0  0
  149.8697  159.5928  129.0920 H   0  0  0  0  0  0  0  0  0  0  0  0
  148.0580  157.0242  132.8152 H   0  0  0  0  0  0  0  0  0  0  0  0
  149.5972  155.4950  132.4031 H   0  0  0  0  0  0  0  0  0  0  0  0
  150.7620  153.2020  132.1730 H   0  0  0  0  0  0  0  0  0  0  0  0
  1  2  1  0
  2  3  1  0
  3  4  2  0
  3  5  1  0
  5  6  1  0
  5  7  1  0
  5  8  1  0
  8  9  1  0
  9 10  2  0
 10 11  1  0
 11 12  2  0
 12 13  1  0
 13 14  2  0
 14 15  1  0
 15 16  2  0
 16 17  1  0
 17 18  1  0
 17 19  2  0
 16 20  1  0
 20 21  1  0
 21 22  2  0
 21 23  1  0
 23 24  1  0
 24 25  1  0
 24 26  1  0
 24 27  1  0
 20 28  1  0
 28 29  2  0
 10 30  1  0
 30 31  2  0
 31  8  1  0
 29 11  1  0
 28 14  1  0
  1 32  1  0
  1 33  1  0
  1 34  1  0
  6 35  1  0
  6 36  1  0
  6 37  1  0
  7 38  1  0
  7 39  1  0
  7 40  1  0
  9 41  1  0
 12 42  1  0
 13 43  1  0
 15 44  1  0
 18 45  1  0
 25 46  1  0
 25 47  1  0
 25 48  1  0
 26 49  1  0
 26 50  1  0
 26 51  1  0
 27 52  1  0
 27 53  1  0
 27 54  1  0
 29 55  1  0
 30 56  1  0
 31 57  1  0
M  CHG  2  18  -1  31   1
M  END
>  <UniqueID>  (93) 
92

>  <SMILES>  (93) 
COC(=O)C(C)(C)n1cc(-c2ccc3cc(C([NH-])=O)n(C(=O)OC(C)(C)C)c3c2)c[nH+]1

>  <Energy>  (93) 
123.11205002178329

>  <Genealogy>  (93) 
COC(=O)C(C)(C)n1cc(-c2ccc3cc(C([NH-])=O)n(C(=O)OC(C)(C)C)c3c2)c[nH+]1 (protonated)
COC(=O)C(C)(C)n1cc(-c2ccc3cc(C([NH-])=O)n(C(=O)OC(C)(C)C)c3c2)c[nH+]1 (3D coordinates assigned)
COC(=O)C(C)(C)n1cc(-c2ccc3cc(C([NH-])=O)n(C(=O)OC(C)(C)C)c3c2)c[nH+]1 (optimized conformer: 123.11205002178329 kcal/mol)

>  <smiles>  (93) 
COC(=O)C(C)(C)n1cc(-c2ccc3cc(C(N)=O)n(C(=O)OC(C)(C)C)c3c2)cn1

>  <score_type>  (93) 
oracle

>  <origin>  (93) 
adg

>  <m_score__min__energy>  (93) 
-9.3499999999999996

>  <m_primary>  (93) 
energy

$$$$
93:0
     RDKit          3D

 52 54  0  0  0  0  0  0  0  0999 V2000
  149.5470  158.6080  132.1400 C   0  0  0  0  0  0  0  0  0  0  0  0
  148.3010  158.0900  132.8790 C   0  0  0  0  0  0  0  0  0  0  0  0
  148.1020  156.5830  132.6150 C   0  0  0  0  0  0  0  0  0  0  0  0
  148.4910  158.3130  134.3860 C   0  0  0  0  0  0  0  0  0  0  0  0
  147.1350  158.8300  132.4860 O   0  0  0  0  0  0  0  0  0  0  0  0
  146.5890  159.9510  133.1480 C   0  0  0  0  0  0  0  0  0  0  0  0
  147.2940  160.9680  133.3960 O   0  0  0  0  0  0  0  0  0  0  0  0
  145.2350  159.9090  133.6160 N   0  0  0  0  0  0  0  0  0  0  0  0
  144.4280  160.9520  133.9940 C   0  0  0  0  0  0  0  0  0  0  0  0
  144.8190  162.3750  134.0690 C   0  0  0  0  0  0  0  0  0  0  0  0
  145.9030  162.7980  134.8720 N   0  0  0  0  0  0  0  0  0  0  0  0
  144.1830  163.2360  133.4100 O   0  0  0  0  0  0  0  0  0  0  0  0
  143.1920  160.4760  134.4280 C   0  0  0  0  0  0  0  0  0  0  0  0
  143.2650  159.1030  134.3030 C   0  0  0  0  0  0  0  0  0  0  0  0
  142.3220  158.1250  134.6010 C   0  0  0  0  0  0  0  0  0  0  0  0
  142.6770  156.7800  134.3960 C   0  0  0  0  0  0  0  0  0  0  0  0
  143.9610  156.4340  133.8930 C   0  0  0  0  0  0  0  0  0  0  0  0
  144.3170  155.0560  133.6860 N   0  0  0  0  0  0  0  0  0  0  0  0
  145.5130  154.4910  134.3230 C   0  0  0  0  0  0  0  0  0  0  0  0
  146.3970  153.7990  133.2740 C   0  0  0  0  0  0  0  0  0  0  0  0
  145.5960  152.9540  132.2430 C   0  0  0  0  0  0  0  0  0  0  0  0
  146.1980  151.6290  132.0800 N   0  0  0  0  0  0  0  0  0  0  0  0
  144.1070  152.8190  132.6180 C   0  0  0  0  0  0  0  0  0  0  0  0
  143.4690  154.1950  132.8440 C   0  0  0  0  0  0  0  0  0  0  0  0
  144.8890  157.4590  133.5960 C   0  0  0  0  0  0  0  0  0  0  0  0
  144.5110  158.7880  133.8220 C   0  0  0  0  0  0  0  0  0  0  0  0
  150.3039  158.9227  132.8735 H   0  0  0  0  0  0  0  0  0  0  0  0
  149.9587  157.8065  131.5091 H   0  0  0  0  0  0  0  0  0  0  0  0
  149.2692  159.4652  131.5091 H   0  0  0  0  0  0  0  0  0  0  0  0
  148.0315  156.0489  133.5741 H   0  0  0  0  0  0  0  0  0  0  0  0
  147.1759  156.4304  132.0414 H   0  0  0  0  0  0  0  0  0  0  0  0
  148.9567  156.1952  132.0414 H   0  0  0  0  0  0  0  0  0  0  0  0
  147.8761  157.5914  134.9438 H   0  0  0  0  0  0  0  0  0  0  0  0
  149.5501  158.1712  134.6470 H   0  0  0  0  0  0  0  0  0  0  0  0
  148.1828  159.3362  134.6470 H   0  0  0  0  0  0  0  0  0  0  0  0
  146.8830  162.7440  134.5160 H   0  0  0  0  0  0  0  0  0  0  0  0
  142.3397  161.0682  134.7925 H   0  0  0  0  0  0  0  0  0  0  0  0
  141.3277  158.3958  134.9858 H   0  0  0  0  0  0  0  0  0  0  0  0
  141.9523  155.9856  134.6277 H   0  0  0  0  0  0  0  0  0  0  0  0
  146.0844  155.2987  134.8037 H   0  0  0  0  0  0  0  0  0  0  0  0
  145.2029  153.7508  135.0752 H   0  0  0  0  0  0  0  0  0  0  0  0
  146.9587  154.5717  132.7286 H   0  0  0  0  0  0  0  0  0  0  0  0
  147.0568  153.1054  133.8158 H   0  0  0  0  0  0  0  0  0  0  0  0
  145.6440  153.4945  131.2861 H   0  0  0  0  0  0  0  0  0  0  0  0
  146.6000  151.3040  132.9870 H   0  0  0  0  0  0  0  0  0  0  0  0
  146.9520  151.6660  131.3550 H   0  0  0  0  0  0  0  0  0  0  0  0
  145.4730  150.9480  131.7640 H   0  0  0  0  0  0  0  0  0  0  0  0
  143.5760  152.3061  131.8026 H   0  0  0  0  0  0  0  0  0  0  0  0
  144.0321  152.2411  133.5509 H   0  0  0  0  0  0  0  0  0  0  0  0
  143.3207  154.6837  131.8697 H   0  0  0  0  0  0  0  0  0  0  0  0
  142.5092  154.0477  133.3608 H   0  0  0  0  0  0  0  0  0  0  0  0
  145.8851  157.2176  133.1965 H   0  0  0  0  0  0  0  0  0  0  0  0
  1  2  1  0
  2  3  1  0
  2  4  1  0
  2  5  1  0
  5  6  1  0
  6  7  2  0
  6  8  1  0
  8  9  1  0
  9 10  1  0
 10 11  1  0
 10 12  2  0
  9 13  2  0
 13 14  1  0
 14 15  2  0
 15 16  1  0
 16 17  2  0
 17 18  1  0
 18 19  1  0
 19 20  1  0
 20 21  1  0
 21 22  1  0
 21 23  1  0
 23 24  1  0
 17 25  1  0
 25 26  2  0
 26  8  1  0
 26 14  1  0
 24 18  1  0
  1 27  1  0
  1 28  1  0
  1 29  1  0
  3 30  1  0
  3 31  1  0
  3 32  1  0
  4 33  1  0
  4 34  1  0
  4 35  1  0
 11 36  1  0
 13 37  1  0
 15 38  1  0
 16 39  1  0
 19 40  1  0
 19 41  1  0
 20 42  1  0
 20 43  1  0
 21 44  1  0
 22 45  1  0
 22 46  1  0
 22 47  1  0
 23 48  1  0
 23 49  1  0
 24 50  1  0
 24 51  1  0
 25 52  1  0
M  CHG  2  11  -1  22   1
M  END
>  <UniqueID>  (94) 
93

>  <SMILES>  (94) 
CC(C)(C)OC(=O)n1c(C([NH-])=O)cc2ccc(N3CCC([NH3+])CC3)cc21

>  <Energy>  (94) 
94.59319412132928

>  <Genealogy>  (94) 
CC(C)(C)OC(=O)n1c(C([NH-])=O)cc2ccc(N3CCC([NH3+])CC3)cc21 (protonated)
CC(C)(C)OC(=O)n1c(C([NH-])=O)cc2ccc(N3CCC([NH3+])CC3)cc21 (3D coordinates assigned)
CC(C)(C)OC(=O)n1c(C([NH-])=O)cc2ccc(N3CCC([NH3+])CC3)cc21 (nonaromatic ring conformer: 94.59319412132928 kcal/mol)

>  <smiles>  (94) 
CC(C)(C)OC(=O)n1c(C(N)=O)cc2ccc(N3CCC(N)CC3)cc21

>  <score_type>  (94) 
oracle

>  <origin>  (94) 
adg

>  <m_score__min__energy>  (94) 
-7.96

>  <m_primary>  (94) 
energy

$$$$
94:0
     RDKit          3D

 41 43  0  0  0  0  0  0  0  0999 V2000
  139.4900  157.7320  136.4440 N   0  0  0  0  0  0  0  0  0  0  0  0
  139.9380  157.5530  135.1020 C   0  0  0  0  0  0  0  0  0  0  0  0
  139.4580  158.2740  134.1890 O   0  0  0  0  0  0  0  0  0  0  0  0
  140.9860  156.5550  134.8050 C   0  0  0  0  0  0  0  0  0  0  0  0
  142.2320  156.5420  135.4290 C   0  0  0  0  0  0  0  0  0  0  0  0
  142.9340  155.5260  134.8210 C   0  0  0  0  0  0  0  0  0  0  0  0
  144.2210  155.0560  135.0680 C   0  0  0  0  0  0  0  0  0  0  0  0
  144.6730  153.9560  134.3210 C   0  0  0  0  0  0  0  0  0  0  0  0
  143.8370  153.3470  133.3530 C   0  0  0  0  0  0  0  0  0  0  0  0
  144.3120  152.1270  132.6070 C   0  0  0  0  0  0  0  0  0  0  0  0
  143.4830  150.8690  132.9340 C   0  0  0  0  0  0  0  0  0  0  0  0
  142.1120  150.7690  132.2310 C   0  0  2  0  0  0  0  0  0  0  0  0
  140.9620  151.3510  133.0870 C   0  0  0  0  0  0  0  0  0  0  0  0
  139.6960  151.3700  132.3300 N   0  0  0  0  0  0  0  0  0  0  0  0
  139.6050  150.2940  131.3220 C   0  0  0  0  0  0  0  0  0  0  0  0
  140.5010  149.0970  131.6850 C   0  0  0  0  0  0  0  0  0  0  0  0
  141.8790  149.4330  131.8000 O   0  0  0  0  0  0  0  0  0  0  0  0
  142.5430  153.8620  133.1200 C   0  0  0  0  0  0  0  0  0  0  0  0
  142.1200  154.9640  133.8720 C   0  0  0  0  0  0  0  0  0  0  0  0
  140.9180  155.5820  133.8530 N   0  0  0  0  0  0  0  0  0  0  0  0
  139.7800  155.2110  133.0560 C   0  0  0  0  0  0  0  0  0  0  0  0
  139.1190  156.0900  132.4440 O   0  0  0  0  0  0  0  0  0  0  0  0
  139.4180  153.8750  132.9290 O   0  0  0  0  0  0  0  0  0  0  0  0
  139.0840  158.6420  136.7570 H   0  0  0  0  0  0  0  0  0  0  0  0
  142.5805  157.2033  136.2360 H   0  0  0  0  0  0  0  0  0  0  0  0
  144.8633  155.5311  135.8241 H   0  0  0  0  0  0  0  0  0  0  0  0
  145.6866  153.5633  134.4893 H   0  0  0  0  0  0  0  0  0  0  0  0
  144.2403  152.3247  131.5273 H   0  0  0  0  0  0  0  0  0  0  0  0
  145.3491  151.9311  132.9169 H   0  0  0  0  0  0  0  0  0  0  0  0
  144.0761  149.9889  132.6448 H   0  0  0  0  0  0  0  0  0  0  0  0
  143.2644  150.9256  134.0106 H   0  0  0  0  0  0  0  0  0  0  0  0
  142.1362  151.4030  131.3324 H   0  0  0  0  0  0  0  0  0  0  0  0
  140.8339  150.7309  133.9865 H   0  0  0  0  0  0  0  0  0  0  0  0
  141.2198  152.3838  133.3641 H   0  0  0  0  0  0  0  0  0  0  0  0
  138.9000  151.2810  133.0040 H   0  0  0  0  0  0  0  0  0  0  0  0
  139.6000  152.2930  131.8450 H   0  0  0  0  0  0  0  0  0  0  0  0
  138.5614  149.9520  131.2589 H   0  0  0  0  0  0  0  0  0  0  0  0
  139.9464  150.6979  130.3575 H   0  0  0  0  0  0  0  0  0  0  0  0
  140.1612  148.6871  132.6476 H   0  0  0  0  0  0  0  0  0  0  0  0
  140.4133  148.3676  130.8663 H   0  0  0  0  0  0  0  0  0  0  0  0
  141.8834  153.4081  132.3657 H   0  0  0  0  0  0  0  0  0  0  0  0
  1  2  1  0
  2  3  2  0
  2  4  1  0
  4  5  2  0
  5  6  1  0
  6  7  2  0
  7  8  1  0
  8  9  2  0
  9 10  1  0
 10 11  1  0
 11 12  1  0
 12 13  1  0
 13 14  1  0
 14 15  1  0
 15 16  1  0
 16 17  1  0
  9 18  1  0
 18 19  2  0
 19 20  1  0
 20 21  1  0
 21 22  2  0
 21 23  1  0
 20  4  1  0
 19  6  1  0
 17 12  1  0
  1 24  1  0
  5 25  1  0
  7 26  1  0
  8 27  1  0
 10 28  1  0
 10 29  1  0
 11 30  1  0
 11 31  1  0
 12 32  1  6
 13 33  1  0
 13 34  1  0
 14 35  1  0
 14 36  1  0
 15 37  1  0
 15 38  1  0
 16 39  1  0
 16 40  1  0
 18 41  1  0
M  CHG  3   1  -1  14   1  23  -1
M  END
>  <UniqueID>  (95) 
94

>  <SMILES>  (95) 
[NH-]C(=O)c1cc2ccc(CC[C@@H]3C[NH2+]CCO3)cc2n1C(=O)[O-]

>  <Energy>  (95) 
89.83981084534707

>  <Genealogy>  (95) 
[NH-]C(=O)c1cc2ccc(CC[C@@H]3C[NH2+]CCO3)cc2n1C(=O)[O-] (protonated)
[NH-]C(=O)c1cc2ccc(CC[C@@H]3C[NH2+]CCO3)cc2n1C(=O)[O-] (3D coordinates assigned)
[NH-]C(=O)c1cc2ccc(CC[C@@H]3C[NH2+]CCO3)cc2n1C(=O)[O-] (nonaromatic ring conformer: 89.83981084534707 kcal/mol)

>  <smiles>  (95) 
NC(=O)c1cc2ccc(CC[C@@H]3CNCCO3)cc2n1C(=O)O

>  <score_type>  (95) 
oracle

>  <origin>  (95) 
adg

>  <m_score__min__energy>  (95) 
-6.3799999999999999

>  <m_primary>  (95) 
energy

$$$$
