0:0
     RDKit          3D

 44 46  0  0  0  0  0  0  0  0999 V2000
  144.5590  161.5790  133.7960 N   0  0  0  0  0  0  0  0  0  0  0  0
  143.5780  160.5440  133.7700 C   0  0  0  0  0  0  0  0  0  0  0  0
  142.3560  160.8490  133.7710 O   0  0  0  0  0  0  0  0  0  0  0  0
  144.0020  159.1280  133.7830 C   0  0  0  0  0  0  0  0  0  0  0  0
  143.1900  158.0830  134.2200 C   0  0  0  0  0  0  0  0  0  0  0  0
  143.9060  156.9350  133.9650 C   0  0  0  0  0  0  0  0  0  0  0  0
  143.5790  155.6030  134.1990 C   0  0  0  0  0  0  0  0  0  0  0  0
  144.5190  154.6220  133.8440 C   0  0  0  0  0  0  0  0  0  0  0  0
  145.7630  154.9850  133.2660 C   0  0  0  0  0  0  0  0  0  0  0  0
  146.7510  153.9420  132.9060 C   0  0  0  0  0  0  0  0  0  0  0  0
  146.3290  152.6330  132.6110 C   0  0  0  0  0  0  0  0  0  0  0  0
  145.0160  152.2990  132.6910 F   0  0  0  0  0  0  0  0  0  0  0  0
  147.2610  151.6460  132.2740 C   0  0  0  0  0  0  0  0  0  0  0  0
  146.8160  150.3850  132.0430 F   0  0  0  0  0  0  0  0  0  0  0  0
  148.6350  151.9530  132.1980 C   0  0  0  0  0  0  0  0  0  0  0  0
  149.6480  150.8760  131.8700 C   0  0  0  0  0  0  0  0  0  0  0  0
  149.1290  149.6430  132.2240 F   0  0  0  0  0  0  0  0  0  0  0  0
  150.8310  151.0790  132.5580 F   0  0  0  0  0  0  0  0  0  0  0  0
  149.9450  150.8670  130.5200 F   0  0  0  0  0  0  0  0  0  0  0  0
  149.0570  153.2560  132.5330 C   0  0  0  0  0  0  0  0  0  0  0  0
  150.3750  153.5790  132.5440 F   0  0  0  0  0  0  0  0  0  0  0  0
  148.1240  154.2420  132.8700 C   0  0  0  0  0  0  0  0  0  0  0  0
  148.5620  155.4970  133.1460 F   0  0  0  0  0  0  0  0  0  0  0  0
  146.0560  156.3490  133.0410 C   0  0  0  0  0  0  0  0  0  0  0  0
  145.0980  157.3020  133.3990 C   0  0  0  0  0  0  0  0  0  0  0  0
  145.1790  158.6460  133.2930 N   0  0  0  0  0  0  0  0  0  0  0  0
  146.3090  159.3880  132.8090 C   0  0  0  0  0  0  0  0  0  0  0  0
  146.1870  160.1140  131.7860 O   0  0  0  0  0  0  0  0  0  0  0  0
  147.6580  159.2500  133.4590 C   0  0  0  0  0  0  0  0  0  0  0  0
  148.7410  158.8400  132.4500 C   0  0  0  0  0  0  0  0  0  0  0  0
  148.9350  159.8660  131.3280 C   0  0  0  0  0  0  0  0  0  0  0  0
  148.6950  161.1600  131.8080 O   0  0  0  0  0  0  0  0  0  0  0  0
  145.3120  161.6210  133.0740 H   0  0  0  0  0  0  0  0  0  0  0  0
  142.1902  158.1592  134.6723 H   0  0  0  0  0  0  0  0  0  0  0  0
  142.6137  155.3268  134.6483 H   0  0  0  0  0  0  0  0  0  0  0  0
  144.2884  153.5603  134.0159 H   0  0  0  0  0  0  0  0  0  0  0  0
  147.0144  156.6534  132.5951 H   0  0  0  0  0  0  0  0  0  0  0  0
  147.9369  160.2149  133.9076 H   0  0  0  0  0  0  0  0  0  0  0  0
  147.5889  158.4622  134.2236 H   0  0  0  0  0  0  0  0  0  0  0  0
  149.6940  158.7236  132.9869 H   0  0  0  0  0  0  0  0  0  0  0  0
  148.4150  157.8993  131.9822 H   0  0  0  0  0  0  0  0  0  0  0  0
  149.9672  159.8033  130.9530 H   0  0  0  0  0  0  0  0  0  0  0  0
  148.2260  159.6476  130.5158 H   0  0  0  0  0  0  0  0  0  0  0  0
  147.7090  161.2730  131.8150 H   0  0  0  0  0  0  0  0  0  0  0  0
  1  2  1  0
  2  3  2  0
  2  4  1  0
  4  5  2  0
  5  6  1  0
  6  7  2  0
  7  8  1  0
  8  9  2  0
  9 10  1  0
 10 11  2  0
 11 12  1  0
 11 13  1  0
 13 14  1  0
 13 15  2  0
 15 16  1  0
 16 17  1  0
 16 18  1  0
 16 19  1  0
 15 20  1  0
 20 21  1  0
 20 22  2  0
 22 23  1  0
  9 24  1  0
 24 25  2  0
 25 26  1  0
 26 27  1  0
 27 28  2  0
 27 29  1  0
 29 30  1  0
 30 31  1  0
 31 32  1  0
 26  4  1  0
 25  6  1  0
 22 10  1  0
  1 33  1  0
  5 34  1  0
  7 35  1  0
  8 36  1  0
 24 37  1  0
 29 38  1  0
 29 39  1  0
 30 40  1  0
 30 41  1  0
 31 42  1  0
 31 43  1  0
 32 44  1  0
M  CHG  1   1  -1
M  END
>  <UniqueID>  (1) 
1

>  <SMILES>  (1) 
[NH-]C(=O)c1cc2ccc(-c3c(F)c(F)c(C(F)(F)F)c(F)c3F)cc2n1C(=O)CCCO

>  <Energy>  (1) 
90.07333903686126

>  <Genealogy>  (1) 
[NH-]C(=O)c1cc2ccc(-c3c(F)c(F)c(C(F)(F)F)c(F)c3F)cc2n1C(=O)CCCO (protonated)
[NH-]C(=O)c1cc2ccc(-c3c(F)c(F)c(C(F)(F)F)c(F)c3F)cc2n1C(=O)CCCO (3D coordinates assigned)
[NH-]C(=O)c1cc2ccc(-c3c(F)c(F)c(C(F)(F)F)c(F)c3F)cc2n1C(=O)CCCO (optimized conformer: 90.07333903686126 kcal/mol)

>  <smiles>  (1) 
NC(=O)c1cc2ccc(-c3c(F)c(F)c(C(F)(F)F)c(F)c3F)cc2n1C(=O)CCCO

>  <score_type>  (1) 
oracle

>  <origin>  (1) 
adg

>  <m_score__min__energy>  (1) 
-7.4400000000000004

>  <m_primary>  (1) 
energy

$$$$
1:0
     RDKit          3D

 37 38  0  0  0  0  0  0  0  0999 V2000
  141.0200  159.3500  137.3020 C   0  0  0  0  0  0  0  0  0  0  0  0
  141.0160  158.3630  136.1290 C   0  0  0  0  0  0  0  0  0  0  0  0
  139.5920  157.8840  135.8290 C   0  0  0  0  0  0  0  0  0  0  0  0
  141.6910  158.9730  134.8850 C   0  0  0  0  0  0  0  0  0  0  0  0
  143.0730  158.6210  134.8100 O   0  0  0  0  0  0  0  0  0  0  0  0
  143.7910  158.5240  133.6120 C   0  0  0  0  0  0  0  0  0  0  0  0
  143.2950  157.9340  132.6150 O   0  0  0  0  0  0  0  0  0  0  0  0
  145.1190  159.0700  133.5330 N   0  0  0  0  0  0  0  0  0  0  0  0
  145.4910  160.3820  133.5800 C   0  0  0  0  0  0  0  0  0  0  0  0
  144.6090  161.5300  133.8790 C   0  0  0  0  0  0  0  0  0  0  0  0
  143.1960  161.4280  133.7370 N   0  0  0  0  0  0  0  0  0  0  0  0
  145.1080  162.6020  134.3150 O   0  0  0  0  0  0  0  0  0  0  0  0
  146.8640  160.5080  133.3800 C   0  0  0  0  0  0  0  0  0  0  0  0
  147.3290  159.2230  133.2180 C   0  0  0  0  0  0  0  0  0  0  0  0
  148.6200  158.7650  132.9780 C   0  0  0  0  0  0  0  0  0  0  0  0
  148.8090  157.3820  132.8200 C   0  0  0  0  0  0  0  0  0  0  0  0
  147.7110  156.4900  132.8980 C   0  0  0  0  0  0  0  0  0  0  0  0
  147.9140  155.0130  132.7100 C   0  0  0  0  0  0  0  0  0  0  0  0
  149.2490  154.7540  132.4590 F   0  0  0  0  0  0  0  0  0  0  0  0
  147.5250  154.3420  133.8540 F   0  0  0  0  0  0  0  0  0  0  0  0
  146.4130  156.9930  133.1400 C   0  0  0  0  0  0  0  0  0  0  0  0
  146.2570  158.3740  133.3140 C   0  0  0  0  0  0  0  0  0  0  0  0
  141.0177  158.7925  138.2503 H   0  0  0  0  0  0  0  0  0  0  0  0
  141.9207  159.9792  137.2487 H   0  0  0  0  0  0  0  0  0  0  0  0
  140.1244  159.9865  137.2487 H   0  0  0  0  0  0  0  0  0  0  0  0
  141.6084  157.4821  136.4172 H   0  0  0  0  0  0  0  0  0  0  0  0
  139.0587  157.7046  136.7742 H   0  0  0  0  0  0  0  0  0  0  0  0
  139.0611  158.6530  135.2487 H   0  0  0  0  0  0  0  0  0  0  0  0
  139.6338  156.9505  135.2487 H   0  0  0  0  0  0  0  0  0  0  0  0
  141.1793  158.6035  133.9841 H   0  0  0  0  0  0  0  0  0  0  0  0
  141.6187  160.0683  134.9570 H   0  0  0  0  0  0  0  0  0  0  0  0
  142.7220  160.4970  133.7210 H   0  0  0  0  0  0  0  0  0  0  0  0
  147.4517  161.4375  133.3566 H   0  0  0  0  0  0  0  0  0  0  0  0
  149.4669  159.4640  132.9139 H   0  0  0  0  0  0  0  0  0  0  0  0
  149.8190  156.9879  132.6340 H   0  0  0  0  0  0  0  0  0  0  0  0
  147.3079  154.6705  131.8583 H   0  0  0  0  0  0  0  0  0  0  0  0
  145.5467  156.3170  133.1905 H   0  0  0  0  0  0  0  0  0  0  0  0
  1  2  1  0
  2  3  1  0
  2  4  1  0
  4  5  1  0
  5  6  1  0
  6  7  2  0
  6  8  1  0
  8  9  1  0
  9 10  1  0
 10 11  1  0
 10 12  2  0
  9 13  2  0
 13 14  1  0
 14 15  2  0
 15 16  1  0
 16 17  2  0
 17 18  1  0
 18 19  1  0
 18 20  1  0
 17 21  1  0
 21 22  2  0
 22  8  1  0
 22 14  1  0
  1 23  1  0
  1 24  1  0
  1 25  1  0
  2 26  1  0
  3 27  1  0
  3 28  1  0
  3 29  1  0
  4 30  1  0
  4 31  1  0
 11 32  1  0
 13 33  1  0
 15 34  1  0
 16 35  1  0
 18 36  1  0
 21 37  1  0
M  CHG  1  11  -1
M  END
>  <UniqueID>  (2) 
2

>  <SMILES>  (2) 
CC(C)COC(=O)n1c(C([NH-])=O)cc2ccc(C(F)F)cc21

>  <Energy>  (2) 
69.72178540753212

>  <Genealogy>  (2) 
CC(C)COC(=O)n1c(C([NH-])=O)cc2ccc(C(F)F)cc21 (protonated)
CC(C)COC(=O)n1c(C([NH-])=O)cc2ccc(C(F)F)cc21 (3D coordinates assigned)
CC(C)COC(=O)n1c(C([NH-])=O)cc2ccc(C(F)F)cc21 (optimized conformer: 69.72178540753212 kcal/mol)

>  <smiles>  (2) 
CC(C)COC(=O)n1c(C(N)=O)cc2ccc(C(F)F)cc21

>  <score_type>  (2) 
oracle

>  <origin>  (2) 
adg

>  <m_score__min__energy>  (2) 
-6.4699999999999998

>  <m_primary>  (2) 
energy

$$$$
2:0
     RDKit          3D

 45 47  0  0  0  0  0  0  0  0999 V2000
  148.5080  158.2190  134.1890 C   0  0  0  0  0  0  0  0  0  0  0  0
  148.9120  159.0660  132.9700 C   0  0  1  0  0  0  0  0  0  0  0  0
  148.6940  158.2890  131.6580 C   0  0  0  0  0  0  0  0  0  0  0  0
  149.3470  159.0140  130.4660 C   0  0  0  0  0  0  0  0  0  0  0  0
  149.6030  160.5030  130.7440 C   0  0  0  0  0  0  0  0  0  0  0  0
  148.4720  161.1000  131.5920 C   0  0  0  0  0  0  0  0  0  0  0  0
  148.2870  160.4270  132.9140 N   0  0  0  0  0  0  0  0  0  0  0  0
  146.8610  160.4700  133.3290 C   0  0  0  0  0  0  0  0  0  0  0  0
  145.9750  159.6010  132.4200 C   0  0  0  0  0  0  0  0  0  0  0  0
  145.0860  158.7080  133.2430 C   0  0  0  0  0  0  0  0  0  0  0  0
  145.3880  157.3290  133.3740 C   0  0  0  0  0  0  0  0  0  0  0  0
  144.5510  156.4830  134.1210 C   0  0  0  0  0  0  0  0  0  0  0  0
  143.4170  157.0360  134.7080 C   0  0  0  0  0  0  0  0  0  0  0  0
  142.4520  156.4490  135.4930 C   0  0  0  0  0  0  0  0  0  0  0  0
  141.5560  157.4710  135.8010 C   0  0  0  0  0  0  0  0  0  0  0  0
  140.3070  157.2540  136.5620 C   0  0  0  0  0  0  0  0  0  0  0  0
  139.1220  157.9550  136.1950 N   0  0  0  0  0  0  0  0  0  0  0  0
  140.2850  156.4830  137.5570 O   0  0  0  0  0  0  0  0  0  0  0  0
  141.9550  158.6450  135.2340 N   0  0  0  0  0  0  0  0  0  0  0  0
  141.3450  159.9390  135.3720 C   0  0  0  0  0  0  0  0  0  0  0  0
  140.7660  160.2580  136.4450 O   0  0  0  0  0  0  0  0  0  0  0  0
  141.3640  160.8420  134.3170 O   0  0  0  0  0  0  0  0  0  0  0  0
  143.0950  158.3610  134.5660 C   0  0  0  0  0  0  0  0  0  0  0  0
  143.9190  159.2320  133.8440 C   0  0  0  0  0  0  0  0  0  0  0  0
  148.7655  158.7588  135.1122 H   0  0  0  0  0  0  0  0  0  0  0  0
  147.4242  158.0329  134.1632 H   0  0  0  0  0  0  0  0  0  0  0  0
  149.0455  157.2596  134.1632 H   0  0  0  0  0  0  0  0  0  0  0  0
  149.9876  159.2584  133.0967 H   0  0  0  0  0  0  0  0  0  0  0  0
  149.1384  157.2876  131.7560 H   0  0  0  0  0  0  0  0  0  0  0  0
  147.6123  158.2168  131.4716 H   0  0  0  0  0  0  0  0  0  0  0  0
  150.3080  158.5278  130.2423 H   0  0  0  0  0  0  0  0  0  0  0  0
  148.6505  158.9501  129.6170 H   0  0  0  0  0  0  0  0  0  0  0  0
  150.5549  160.6107  131.2847 H   0  0  0  0  0  0  0  0  0  0  0  0
  149.6456  161.0391  129.7845 H   0  0  0  0  0  0  0  0  0  0  0  0
  148.6973  162.1615  131.7721 H   0  0  0  0  0  0  0  0  0  0  0  0
  147.5391  160.9566  131.0270 H   0  0  0  0  0  0  0  0  0  0  0  0
  146.7797  160.1021  134.3625 H   0  0  0  0  0  0  0  0  0  0  0  0
  146.5135  161.5108  133.2513 H   0  0  0  0  0  0  0  0  0  0  0  0
  145.3503  160.2541  131.7929 H   0  0  0  0  0  0  0  0  0  0  0  0
  146.6220  158.9733  131.7896 H   0  0  0  0  0  0  0  0  0  0  0  0
  146.2847  156.9181  132.8870 H   0  0  0  0  0  0  0  0  0  0  0  0
  144.7853  155.4147  134.2384 H   0  0  0  0  0  0  0  0  0  0  0  0
  142.3988  155.3970  135.8101 H   0  0  0  0  0  0  0  0  0  0  0  0
  139.0240  158.9780  136.3790 H   0  0  0  0  0  0  0  0  0  0  0  0
  143.6647  160.2978  133.7467 H   0  0  0  0  0  0  0  0  0  0  0  0
  1  2  1  0
  2  3  1  0
  3  4  1  0
  4  5  1  0
  5  6  1  0
  6  7  1  0
  7  8  1  0
  8  9  1  0
  9 10  1  0
 10 11  2  0
 11 12  1  0
 12 13  2  0
 13 14  1  0
 14 15  2  0
 15 16  1  0
 16 17  1  0
 16 18  2  0
 15 19  1  0
 19 20  1  0
 20 21  2  0
 20 22  1  0
 19 23  1  0
 23 24  2  0
  7  2  1  0
 24 10  1  0
 23 13  1  0
  1 25  1  0
  1 26  1  0
  1 27  1  0
  2 28  1  1
  3 29  1  0
  3 30  1  0
  4 31  1  0
  4 32  1  0
  5 33  1  0
  5 34  1  0
  6 35  1  0
  6 36  1  0
  8 37  1  0
  8 38  1  0
  9 39  1  0
  9 40  1  0
 11 41  1  0
 12 42  1  0
 14 43  1  0
 17 44  1  0
 24 45  1  0
M  CHG  2  17  -1  22  -1
M  END
>  <UniqueID>  (3) 
3

>  <SMILES>  (3) 
C[C@H]1CCCCN1CCc1ccc2cc(C([NH-])=O)n(C(=O)[O-])c2c1

>  <Energy>  (3) 
95.6868317145985

>  <Genealogy>  (3) 
CC1CCCCN1CCc1ccc2cc(C([NH-])=O)n(C(=O)[O-])c2c1 (protonated)
C[C@H]1CCCCN1CCc1ccc2cc(C([NH-])=O)n(C(=O)[O-])c2c1 (chirality)
C[C@H]1CCCCN1CCc1ccc2cc(C([NH-])=O)n(C(=O)[O-])c2c1 (3D coordinates assigned)
C[C@H]1CCCCN1CCc1ccc2cc(C([NH-])=O)n(C(=O)[O-])c2c1 (nonaromatic ring conformer: 95.6868317145985 kcal/mol)

>  <smiles>  (3) 
CC1CCCCN1CCc1ccc2cc(C(N)=O)n(C(=O)O)c2c1

>  <score_type>  (3) 
oracle

>  <origin>  (3) 
adg

>  <m_score__min__energy>  (3) 
-8.1899999999999995

>  <m_primary>  (3) 
energy

$$$$
3:0
     RDKit          3D

 43 45  0  0  0  0  0  0  0  0999 V2000
  138.9180  157.8670  132.2220 C   0  0  0  0  0  0  0  0  0  0  0  0
  138.7600  157.1120  133.3060 C   0  0  0  0  0  0  0  0  0  0  0  0
  139.6170  157.2480  134.4990 C   0  0  0  0  0  0  0  0  0  0  0  0
  139.1050  157.4250  135.6380 O   0  0  0  0  0  0  0  0  0  0  0  0
  141.0460  157.1810  134.3680 N   0  0  0  0  0  0  0  0  0  0  0  0
  141.9570  158.1450  134.6830 C   0  0  0  0  0  0  0  0  0  0  0  0
  141.6460  159.5270  135.1110 C   0  0  0  0  0  0  0  0  0  0  0  0
  140.7910  159.7780  136.2220 N   0  0  0  0  0  0  0  0  0  0  0  0
  142.1170  160.5000  134.4630 O   0  0  0  0  0  0  0  0  0  0  0  0
  143.2530  157.6710  134.4890 C   0  0  0  0  0  0  0  0  0  0  0  0
  143.1070  156.3780  134.0420 C   0  0  0  0  0  0  0  0  0  0  0  0
  144.0690  155.4310  133.7080 C   0  0  0  0  0  0  0  0  0  0  0  0
  143.6300  154.1580  133.3080 C   0  0  0  0  0  0  0  0  0  0  0  0
  142.2450  153.8490  133.2550 C   0  0  0  0  0  0  0  0  0  0  0  0
  141.7920  152.4980  132.8400 C   0  0  0  0  0  0  0  0  0  0  0  0
  140.4280  152.2370  132.6240 C   0  0  0  0  0  0  0  0  0  0  0  0
  140.0000  150.9650  132.2300 C   0  0  0  0  0  0  0  0  0  0  0  0
  138.6760  150.7500  132.0220 F   0  0  0  0  0  0  0  0  0  0  0  0
  140.9300  149.9270  132.0490 C   0  0  0  0  0  0  0  0  0  0  0  0
  140.4640  148.5570  131.6010 C   0  0  0  0  0  0  0  0  0  0  0  0
  140.0850  148.5360  130.1800 N   0  0  0  0  0  0  0  0  0  0  0  0
  138.8580  147.7680  129.9540 C   0  0  0  0  0  0  0  0  0  0  0  0
  142.2960  150.1860  132.2610 C   0  0  0  0  0  0  0  0  0  0  0  0
  143.2210  149.2090  132.0880 F   0  0  0  0  0  0  0  0  0  0  0  0
  142.7200  151.4590  132.6540 C   0  0  0  0  0  0  0  0  0  0  0  0
  141.2990  154.8410  133.6050 C   0  0  0  0  0  0  0  0  0  0  0  0
  141.7660  156.1060  133.9800 C   0  0  0  0  0  0  0  0  0  0  0  0
  138.2548  157.7303  131.3551 H   0  0  0  0  0  0  0  0  0  0  0  0
  139.7118  158.6279  132.1927 H   0  0  0  0  0  0  0  0  0  0  0  0
  137.9596  156.3574  133.3129 H   0  0  0  0  0  0  0  0  0  0  0  0
  139.8230  159.3880  136.2540 H   0  0  0  0  0  0  0  0  0  0  0  0
  144.1938  158.2155  134.6576 H   0  0  0  0  0  0  0  0  0  0  0  0
  145.1413  155.6715  133.7556 H   0  0  0  0  0  0  0  0  0  0  0  0
  144.3685  153.3908  133.0323 H   0  0  0  0  0  0  0  0  0  0  0  0
  139.6902  153.0405  132.7661 H   0  0  0  0  0  0  0  0  0  0  0  0
  141.2791  147.8358  131.7609 H   0  0  0  0  0  0  0  0  0  0  0  0
  139.5743  148.2932  132.1916 H   0  0  0  0  0  0  0  0  0  0  0  0
  140.8550  148.1060  129.6160 H   0  0  0  0  0  0  0  0  0  0  0  0
  138.4153  147.4909  130.9221 H   0  0  0  0  0  0  0  0  0  0  0  0
  138.1422  148.3796  129.3851 H   0  0  0  0  0  0  0  0  0  0  0  0
  139.0952  146.8569  129.3851 H   0  0  0  0  0  0  0  0  0  0  0  0
  143.7907  151.6493  132.8193 H   0  0  0  0  0  0  0  0  0  0  0  0
  140.2210  154.6231  133.5829 H   0  0  0  0  0  0  0  0  0  0  0  0
  1  2  2  0
  2  3  1  0
  3  4  2  0
  3  5  1  0
  5  6  1  0
  6  7  1  0
  7  8  1  0
  7  9  2  0
  6 10  2  0
 10 11  1  0
 11 12  2  0
 12 13  1  0
 13 14  2  0
 14 15  1  0
 15 16  2  0
 16 17  1  0
 17 18  1  0
 17 19  2  0
 19 20  1  0
 20 21  1  0
 21 22  1  0
 19 23  1  0
 23 24  1  0
 23 25  2  0
 14 26  1  0
 26 27  2  0
 27  5  1  0
 27 11  1  0
 25 15  1  0
  1 28  1  0
  1 29  1  0
  2 30  1  0
  8 31  1  0
 10 32  1  0
 12 33  1  0
 13 34  1  0
 16 35  1  0
 20 36  1  0
 20 37  1  0
 21 38  1  0
 22 39  1  0
 22 40  1  0
 22 41  1  0
 25 42  1  0
 26 43  1  0
M  CHG  1   8  -1
M  END
>  <UniqueID>  (4) 
4

>  <SMILES>  (4) 
C=CC(=O)n1c(C([NH-])=O)cc2ccc(-c3cc(F)c(CNC)c(F)c3)cc21

>  <Energy>  (4) 
89.0565381011851

>  <Genealogy>  (4) 
C=CC(=O)n1c(C([NH-])=O)cc2ccc(-c3cc(F)c(CNC)c(F)c3)cc21 (protonated)
C=CC(=O)n1c(C([NH-])=O)cc2ccc(-c3cc(F)c(CNC)c(F)c3)cc21 (3D coordinates assigned)
C=CC(=O)n1c(C([NH-])=O)cc2ccc(-c3cc(F)c(CNC)c(F)c3)cc21 (optimized conformer: 89.0565381011851 kcal/mol)

>  <smiles>  (4) 
C=CC(=O)n1c(C(N)=O)cc2ccc(-c3cc(F)c(CNC)c(F)c3)cc21

>  <score_type>  (4) 
oracle

>  <origin>  (4) 
adg

>  <m_score__min__energy>  (4) 
-8.6999999999999993

>  <m_primary>  (4) 
energy

$$$$
4:0
     RDKit          3D

 48 49  0  0  0  0  0  0  0  0999 V2000
  149.9950  150.7230  130.6740 C   0  0  0  0  0  0  0  0  0  0  0  0
  149.3700  150.6810  132.0050 N   0  0  0  0  0  0  0  0  0  0  0  0
  147.9070  150.7640  131.8640 C   0  0  0  0  0  0  0  0  0  0  0  0
  149.8860  151.7770  132.8570 C   0  0  0  0  0  0  0  0  0  0  0  0
  149.5560  153.1440  132.2430 C   0  0  0  0  0  0  0  0  0  0  0  0
  148.6090  153.9540  133.1380 C   0  0  0  0  0  0  0  0  0  0  0  0
  147.8000  154.8700  132.3350 N   0  0  0  0  0  0  0  0  0  0  0  0
  147.6620  156.2810  132.5970 C   0  0  0  0  0  0  0  0  0  0  0  0
  148.8240  157.0940  132.6100 C   0  0  0  0  0  0  0  0  0  0  0  0
  148.7420  158.4670  132.8930 C   0  0  0  0  0  0  0  0  0  0  0  0
  147.4860  159.0050  133.1530 C   0  0  0  0  0  0  0  0  0  0  0  0
  147.1250  160.2890  133.4970 C   0  0  0  0  0  0  0  0  0  0  0  0
  145.7410  160.2510  133.6660 C   0  0  0  0  0  0  0  0  0  0  0  0
  144.9220  161.4400  133.9800 C   0  0  0  0  0  0  0  0  0  0  0  0
  143.5230  161.4570  133.7190 N   0  0  0  0  0  0  0  0  0  0  0  0
  145.4750  162.4700  134.4500 O   0  0  0  0  0  0  0  0  0  0  0  0
  145.2700  158.9930  133.4350 N   0  0  0  0  0  0  0  0  0  0  0  0
  143.9250  158.5160  133.5860 C   0  0  0  0  0  0  0  0  0  0  0  0
  143.3630  157.9210  132.6260 O   0  0  0  0  0  0  0  0  0  0  0  0
  143.2600  158.6890  134.8040 O   0  0  0  0  0  0  0  0  0  0  0  0
  141.9110  158.2830  135.0290 C   0  0  0  0  0  0  0  0  0  0  0  0
  140.9300  159.3390  134.5160 C   0  0  0  0  0  0  0  0  0  0  0  0
  141.2880  159.7730  133.2320 O   0  0  0  0  0  0  0  0  0  0  0  0
  146.3480  158.2440  133.1240 C   0  0  0  0  0  0  0  0  0  0  0  0
  146.4010  156.8700  132.8640 C   0  0  0  0  0  0  0  0  0  0  0  0
  151.0870  150.7964  130.7839 H   0  0  0  0  0  0  0  0  0  0  0  0
  149.7429  149.8059  130.1214 H   0  0  0  0  0  0  0  0  0  0  0  0
  149.6224  151.5981  130.1214 H   0  0  0  0  0  0  0  0  0  0  0  0
  147.4434  150.7903  132.8612 H   0  0  0  0  0  0  0  0  0  0  0  0
  147.6431  151.6786  131.3127 H   0  0  0  0  0  0  0  0  0  0  0  0
  147.5413  149.8852  131.3127 H   0  0  0  0  0  0  0  0  0  0  0  0
  149.4243  151.7078  133.8530 H   0  0  0  0  0  0  0  0  0  0  0  0
  150.9789  151.6793  132.9348 H   0  0  0  0  0  0  0  0  0  0  0  0
  150.4900  153.7093  132.1085 H   0  0  0  0  0  0  0  0  0  0  0  0
  149.0553  152.9749  131.2782 H   0  0  0  0  0  0  0  0  0  0  0  0
  147.9445  153.2642  133.6790 H   0  0  0  0  0  0  0  0  0  0  0  0
  149.2086  154.5409  133.8493 H   0  0  0  0  0  0  0  0  0  0  0  0
  147.3420  154.4760  131.4800 H   0  0  0  0  0  0  0  0  0  0  0  0
  149.8038  156.6425  132.3953 H   0  0  0  0  0  0  0  0  0  0  0  0
  149.6432  159.0975  132.9086 H   0  0  0  0  0  0  0  0  0  0  0  0
  147.7874  161.1594  133.6136 H   0  0  0  0  0  0  0  0  0  0  0  0
  142.9160  160.6500  133.9860 H   0  0  0  0  0  0  0  0  0  0  0  0
  141.7276  157.3350  134.5021 H   0  0  0  0  0  0  0  0  0  0  0  0
  141.7578  158.1573  136.1110 H   0  0  0  0  0  0  0  0  0  0  0  0
  139.9198  158.9051  134.4808 H   0  0  0  0  0  0  0  0  0  0  0  0
  140.9542  160.2018  135.1979 H   0  0  0  0  0  0  0  0  0  0  0  0
  142.2780  159.7340  133.1800 H   0  0  0  0  0  0  0  0  0  0  0  0
  145.4849  156.2611  132.8668 H   0  0  0  0  0  0  0  0  0  0  0  0
  1  2  1  0
  2  3  1  0
  2  4  1  0
  4  5  1  0
  5  6  1  0
  6  7  1  0
  7  8  1  0
  8  9  2  0
  9 10  1  0
 10 11  2  0
 11 12  1  0
 12 13  2  0
 13 14  1  0
 14 15  1  0
 14 16  2  0
 13 17  1  0
 17 18  1  0
 18 19  2  0
 18 20  1  0
 20 21  1  0
 21 22  1  0
 22 23  1  0
 17 24  1  0
 24 25  2  0
 25  8  1  0
 24 11  1  0
  1 26  1  0
  1 27  1  0
  1 28  1  0
  3 29  1  0
  3 30  1  0
  3 31  1  0
  4 32  1  0
  4 33  1  0
  5 34  1  0
  5 35  1  0
  6 36  1  0
  6 37  1  0
  7 38  1  0
  9 39  1  0
 10 40  1  0
 12 41  1  0
 15 42  1  0
 21 43  1  0
 21 44  1  0
 22 45  1  0
 22 46  1  0
 23 47  1  0
 25 48  1  0
M  CHG  1  15  -1
M  END
>  <UniqueID>  (5) 
5

>  <SMILES>  (5) 
CN(C)CCCNc1ccc2cc(C([NH-])=O)n(C(=O)OCCO)c2c1

>  <Energy>  (5) 
78.7296046966415

>  <Genealogy>  (5) 
CN(C)CCCNc1ccc2cc(C([NH-])=O)n(C(=O)OCCO)c2c1 (protonated)
CN(C)CCCNc1ccc2cc(C([NH-])=O)n(C(=O)OCCO)c2c1 (3D coordinates assigned)
CN(C)CCCNc1ccc2cc(C([NH-])=O)n(C(=O)OCCO)c2c1 (optimized conformer: 78.7296046966415 kcal/mol)

>  <smiles>  (5) 
CN(C)CCCNc1ccc2cc(C(N)=O)n(C(=O)OCCO)c2c1

>  <score_type>  (5) 
oracle

>  <origin>  (5) 
adg

>  <m_score__min__energy>  (5) 
-6.3499999999999996

>  <m_primary>  (5) 
energy

$$$$
5:0
     RDKit          3D

 46 47  0  0  0  0  0  0  0  0999 V2000
  139.1150  146.9940  129.9550 C   0  0  0  0  0  0  0  0  0  0  0  0
  139.9740  147.8050  130.8060 N   0  0  0  0  0  0  0  0  0  0  0  0
  139.5950  149.0630  131.3830 C   0  0  0  0  0  0  0  0  0  0  0  0
  138.9910  149.9020  130.6620 O   0  0  0  0  0  0  0  0  0  0  0  0
  139.9540  149.4350  132.8000 C   0  0  0  0  0  0  0  0  0  0  0  0
  141.0160  150.5010  132.8260 C   0  0  0  0  0  0  0  0  0  0  0  0
  142.3820  150.1400  132.7400 C   0  0  0  0  0  0  0  0  0  0  0  0
  143.3850  151.1210  132.7790 C   0  0  0  0  0  0  0  0  0  0  0  0
  142.9910  152.4530  132.8860 C   0  0  0  0  0  0  0  0  0  0  0  0
  143.7520  153.5940  132.9440 C   0  0  0  0  0  0  0  0  0  0  0  0
  142.8410  154.6400  133.0420 C   0  0  0  0  0  0  0  0  0  0  0  0
  143.2390  156.0610  133.0120 C   0  0  0  0  0  0  0  0  0  0  0  0
  142.3170  157.0710  132.6000 N   0  0  0  0  0  0  0  0  0  0  0  0
  144.4180  156.3840  133.3200 O   0  0  0  0  0  0  0  0  0  0  0  0
  141.5610  154.1690  133.0610 N   0  0  0  0  0  0  0  0  0  0  0  0
  140.3580  154.9330  133.2530 C   0  0  0  0  0  0  0  0  0  0  0  0
  139.2830  154.5680  132.6980 O   0  0  0  0  0  0  0  0  0  0  0  0
  140.3780  156.1100  134.0690 N   0  0  0  0  0  0  0  0  0  0  0  0
  139.3110  157.1050  134.0570 C   0  0  0  0  0  0  0  0  0  0  0  0
  139.1490  157.6510  132.6220 C   0  0  0  0  0  0  0  0  0  0  0  0
  140.1900  158.6180  132.2050 N   0  0  0  0  0  0  0  0  0  0  0  0
  139.8350  159.3510  130.9800 C   0  0  0  0  0  0  0  0  0  0  0  0
  140.5740  159.5480  133.2860 C   0  0  0  0  0  0  0  0  0  0  0  0
  141.6710  152.8250  132.9610 C   0  0  0  0  0  0  0  0  0  0  0  0
  140.6530  151.8610  132.9560 C   0  0  0  0  0  0  0  0  0  0  0  0
  138.4579  146.3736  130.5822 H   0  0  0  0  0  0  0  0  0  0  0  0
  138.5025  147.6509  129.3199 H   0  0  0  0  0  0  0  0  0  0  0  0
  139.7356  146.3448  129.3199 H   0  0  0  0  0  0  0  0  0  0  0  0
  139.0555  149.8100  133.3119 H   0  0  0  0  0  0  0  0  0  0  0  0
  140.3430  148.5407  133.3089 H   0  0  0  0  0  0  0  0  0  0  0  0
  142.6601  149.0803  132.6417 H   0  0  0  0  0  0  0  0  0  0  0  0
  144.4490  150.8467  132.7267 H   0  0  0  0  0  0  0  0  0  0  0  0
  144.8494  153.6656  132.9184 H   0  0  0  0  0  0  0  0  0  0  0  0
  141.3760  156.8130  132.2320 H   0  0  0  0  0  0  0  0  0  0  0  0
  142.6110  158.0710  132.5670 H   0  0  0  0  0  0  0  0  0  0  0  0
  138.3691  156.6397  134.3831 H   0  0  0  0  0  0  0  0  0  0  0  0
  139.5629  157.9283  134.7417 H   0  0  0  0  0  0  0  0  0  0  0  0
  139.1749  156.7991  131.9266 H   0  0  0  0  0  0  0  0  0  0  0  0
  138.1940  158.1966  132.6040 H   0  0  0  0  0  0  0  0  0  0  0  0
  139.3701  160.3110  131.2488 H   0  0  0  0  0  0  0  0  0  0  0  0
  140.7431  159.5365  130.3876 H   0  0  0  0  0  0  0  0  0  0  0  0
  139.1264  158.7536  130.3876 H   0  0  0  0  0  0  0  0  0  0  0  0
  140.3796  159.0772  134.2610 H   0  0  0  0  0  0  0  0  0  0  0  0
  141.6444  159.7870  133.2011 H   0  0  0  0  0  0  0  0  0  0  0  0
  139.9840  160.4725  133.2011 H   0  0  0  0  0  0  0  0  0  0  0  0
  139.5975  152.1558  133.0509 H   0  0  0  0  0  0  0  0  0  0  0  0
  1  2  1  0
  2  3  1  0
  3  4  2  0
  3  5  1  0
  5  6  1  0
  6  7  2  0
  7  8  1  0
  8  9  2  0
  9 10  1  0
 10 11  2  0
 11 12  1  0
 12 13  1  0
 12 14  2  0
 11 15  1  0
 15 16  1  0
 16 17  2  0
 16 18  1  0
 18 19  1  0
 19 20  1  0
 20 21  1  0
 21 22  1  0
 21 23  1  0
 15 24  1  0
 24 25  2  0
 25  6  1  0
 24  9  1  0
  1 26  1  0
  1 27  1  0
  1 28  1  0
  5 29  1  0
  5 30  1  0
  7 31  1  0
  8 32  1  0
 10 33  1  0
 13 34  1  0
 13 35  1  0
 19 36  1  0
 19 37  1  0
 20 38  1  0
 20 39  1  0
 22 40  1  0
 22 41  1  0
 22 42  1  0
 23 43  1  0
 23 44  1  0
 23 45  1  0
 25 46  1  0
M  CHG  2   2  -1  18  -1
M  END
>  <UniqueID>  (6) 
6

>  <SMILES>  (6) 
C[N-]C(=O)Cc1ccc2cc(C(N)=O)n(C(=O)[N-]CCN(C)C)c2c1

>  <Energy>  (6) 
82.63478208627184

>  <Genealogy>  (6) 
C[N-]C(=O)Cc1ccc2cc(C(N)=O)n(C(=O)[N-]CCN(C)C)c2c1 (protonated)
C[N-]C(=O)Cc1ccc2cc(C(N)=O)n(C(=O)[N-]CCN(C)C)c2c1 (3D coordinates assigned)
C[N-]C(=O)Cc1ccc2cc(C(N)=O)n(C(=O)[N-]CCN(C)C)c2c1 (optimized conformer: 82.63478208627184 kcal/mol)

>  <smiles>  (6) 
CNC(=O)Cc1ccc2cc(C(N)=O)n(C(=O)NCCN(C)C)c2c1

>  <score_type>  (6) 
oracle

>  <origin>  (6) 
adg

>  <m_score__min__energy>  (6) 
-7.1500000000000004

>  <m_primary>  (6) 
energy

$$$$
6:0
     RDKit          3D

 46 48  0  0  0  0  0  0  0  0999 V2000
  142.8480  149.9760  132.2280 C   0  0  0  0  0  0  0  0  0  0  0  0
  141.7530  151.0090  132.6050 C   0  0  0  0  0  0  0  0  0  0  0  0
  141.3650  150.7190  134.0800 C   0  0  0  0  0  0  0  0  0  0  0  0
  140.5200  150.7570  131.6970 C   0  0  0  0  0  0  0  0  0  0  0  0
  142.2910  152.4100  132.4780 N   0  0  2  0  0  0  0  0  0  0  0  0
  143.5830  152.6540  133.1800 C   0  0  0  0  0  0  0  0  0  0  0  0
  143.3230  153.7370  134.1850 C   0  0  0  0  0  0  0  0  0  0  0  0
  144.3310  154.2490  135.1310 C   0  0  0  0  0  0  0  0  0  0  0  0
  144.3400  153.8290  136.3190 O   0  0  0  0  0  0  0  0  0  0  0  0
  145.2780  155.2530  134.7330 N   0  0  0  0  0  0  0  0  0  0  0  0
  146.6340  155.1490  134.6610 C   0  0  0  0  0  0  0  0  0  0  0  0
  147.4360  153.9780  135.0770 C   0  0  0  0  0  0  0  0  0  0  0  0
  147.2380  153.3650  136.3480 N   0  0  0  0  0  0  0  0  0  0  0  0
  148.3270  153.5280  134.3080 O   0  0  0  0  0  0  0  0  0  0  0  0
  147.1850  156.3330  134.1750 C   0  0  0  0  0  0  0  0  0  0  0  0
  146.1150  157.1730  133.9610 C   0  0  0  0  0  0  0  0  0  0  0  0
  146.0770  158.4730  133.4650 C   0  0  0  0  0  0  0  0  0  0  0  0
  144.8210  159.0890  133.3280 C   0  0  0  0  0  0  0  0  0  0  0  0
  143.6320  158.4080  133.6990 C   0  0  0  0  0  0  0  0  0  0  0  0
  142.2880  159.0580  133.4940 C   0  0  0  0  0  0  0  0  0  0  0  0
  141.5810  159.1060  134.6830 F   0  0  0  0  0  0  0  0  0  0  0  0
  142.4380  160.3520  133.0270 F   0  0  0  0  0  0  0  0  0  0  0  0
  141.5660  158.3260  132.5690 F   0  0  0  0  0  0  0  0  0  0  0  0
  143.7130  157.0790  134.1770 C   0  0  0  0  0  0  0  0  0  0  0  0
  144.9760  156.4970  134.3100 C   0  0  0  0  0  0  0  0  0  0  0  0
  142.0800  154.1630  134.1090 C   0  0  0  0  0  0  0  0  0  0  0  0
  141.4420  153.4160  133.0580 C   0  0  0  0  0  0  0  0  0  0  0  0
  140.3010  153.7090  132.6100 O   0  0  0  0  0  0  0  0  0  0  0  0
  143.2900  149.5590  133.1449 H   0  0  0  0  0  0  0  0  0  0  0  0
  142.3988  149.1651  131.6359 H   0  0  0  0  0  0  0  0  0  0  0  0
  143.6314  150.4717  131.6359 H   0  0  0  0  0  0  0  0  0  0  0  0
  142.0626  151.2404  134.7519 H   0  0  0  0  0  0  0  0  0  0  0  0
  140.3410  151.0749  134.2666 H   0  0  0  0  0  0  0  0  0  0  0  0
  141.4165  149.6362  134.2666 H   0  0  0  0  0  0  0  0  0  0  0  0
  139.6342  150.5760  132.3235 H   0  0  0  0  0  0  0  0  0  0  0  0
  140.3461  151.6382  131.0619 H   0  0  0  0  0  0  0  0  0  0  0  0
  140.7058  149.8783  131.0619 H   0  0  0  0  0  0  0  0  0  0  0  0
  142.4140  152.6450  131.4640 H   0  0  0  0  0  0  0  0  0  0  0  0
  143.9191  151.7375  133.6871 H   0  0  0  0  0  0  0  0  0  0  0  0
  144.3713  152.9490  132.4718 H   0  0  0  0  0  0  0  0  0  0  0  0
  146.3030  152.9920  136.6250 H   0  0  0  0  0  0  0  0  0  0  0  0
  148.2489  156.5505  133.9995 H   0  0  0  0  0  0  0  0  0  0  0  0
  147.0011  159.0019  133.1888 H   0  0  0  0  0  0  0  0  0  0  0  0
  144.7586  160.1119  132.9282 H   0  0  0  0  0  0  0  0  0  0  0  0
  142.8037  156.5176  134.4376 H   0  0  0  0  0  0  0  0  0  0  0  0
  141.6166  154.9427  134.7314 H   0  0  0  0  0  0  0  0  0  0  0  0
  1  2  1  0
  2  3  1  0
  2  4  1  0
  2  5  1  0
  5  6  1  0
  6  7  1  0
  7  8  1  0
  8  9  2  0
  8 10  1  0
 10 11  1  0
 11 12  1  0
 12 13  1  0
 12 14  2  0
 11 15  2  0
 15 16  1  0
 16 17  2  0
 17 18  1  0
 18 19  2  0
 19 20  1  0
 20 21  1  0
 20 22  1  0
 20 23  1  0
 19 24  1  0
 24 25  2  0
  7 26  2  0
 26 27  1  0
 27 28  2  0
 27  5  1  0
 25 10  1  0
 25 16  1  0
  1 29  1  0
  1 30  1  0
  1 31  1  0
  3 32  1  0
  3 33  1  0
  3 34  1  0
  4 35  1  0
  4 36  1  0
  4 37  1  0
  5 38  1  6
  6 39  1  0
  6 40  1  0
 13 41  1  0
 15 42  1  0
 17 43  1  0
 18 44  1  0
 24 45  1  0
 26 46  1  0
M  CHG  2   5   1  13  -1
M  END
>  <UniqueID>  (7) 
7

>  <SMILES>  (7) 
CC(C)(C)[N@@H+]1CC(C(=O)n2c(C([NH-])=O)cc3ccc(C(F)(F)F)cc32)=CC1=O

>  <Energy>  (7) 
105.22036787385898

>  <Genealogy>  (7) 
CC(C)(C)[NH+]1CC(C(=O)n2c(C([NH-])=O)cc3ccc(C(F)(F)F)cc32)=CC1=O (protonated)
CC(C)(C)[N@@H+]1CC(C(=O)n2c(C([NH-])=O)cc3ccc(C(F)(F)F)cc32)=CC1=O (chirality)
CC(C)(C)[N@@H+]1CC(C(=O)n2c(C([NH-])=O)cc3ccc(C(F)(F)F)cc32)=CC1=O (3D coordinates assigned)
CC(C)(C)[N@@H+]1CC(C(=O)n2c(C([NH-])=O)cc3ccc(C(F)(F)F)cc32)=CC1=O (nonaromatic ring conformer: 105.22036787385898 kcal/mol)

>  <smiles>  (7) 
CC(C)(C)N1CC(C(=O)n2c(C(N)=O)cc3ccc(C(F)(F)F)cc32)=CC1=O

>  <score_type>  (7) 
oracle

>  <origin>  (7) 
adg

>  <m_score__min__energy>  (7) 
-7.5

>  <m_primary>  (7) 
energy

$$$$
7:0
     RDKit          3D

 61 64  0  0  0  0  0  0  0  0999 V2000
  139.0540  149.5170  131.4930 C   0  0  0  0  0  0  0  0  0  0  0  0
  140.4200  149.9180  131.8670 N   0  0  0  0  0  0  0  0  0  0  0  0
  141.1080  148.8420  132.5990 C   0  0  0  0  0  0  0  0  0  0  0  0
  140.4650  151.2180  132.5740 C   0  0  0  0  0  0  0  0  0  0  0  0
  141.8700  151.8550  132.6470 C   0  0  0  0  0  0  0  0  0  0  0  0
  141.8870  153.0600  133.5880 C   0  0  0  0  0  0  0  0  0  0  0  0
  142.4010  152.6980  134.8670 O   0  0  0  0  0  0  0  0  0  0  0  0
  141.5840  152.1580  135.8670 C   0  0  0  0  0  0  0  0  0  0  0  0
  140.9970  151.0600  135.6710 O   0  0  0  0  0  0  0  0  0  0  0  0
  141.3850  152.8600  137.1080 N   0  0  0  0  0  0  0  0  0  0  0  0
  140.9340  152.3310  138.2820 C   0  0  0  0  0  0  0  0  0  0  0  0
  140.8300  150.8920  138.6000 C   0  0  0  0  0  0  0  0  0  0  0  0
  139.8200  150.0840  138.0010 N   0  0  0  0  0  0  0  0  0  0  0  0
  141.6780  150.3570  139.3650 O   0  0  0  0  0  0  0  0  0  0  0  0
  140.6420  153.3370  139.1970 C   0  0  0  0  0  0  0  0  0  0  0  0
  140.9410  154.5120  138.5500 C   0  0  0  0  0  0  0  0  0  0  0  0
  140.8110  155.8230  138.9880 C   0  0  0  0  0  0  0  0  0  0  0  0
  141.1590  156.8510  138.1010 C   0  0  0  0  0  0  0  0  0  0  0  0
  141.6370  156.5650  136.7930 C   0  0  0  0  0  0  0  0  0  0  0  0
  142.0320  157.6480  135.9100 N   0  0  0  0  0  0  0  0  0  0  0  0
  141.7200  159.0540  136.1990 C   0  0  0  0  0  0  0  0  0  0  0  0
  140.9720  159.6800  135.0060 C   0  0  0  0  0  0  0  0  0  0  0  0
  141.5020  159.2530  133.6770 N   0  0  0  0  0  0  0  0  0  0  0  0
  140.5740  158.5560  132.7440 C   0  0  0  0  0  0  0  0  0  0  0  0
  139.4270  159.4080  132.2460 C   0  0  0  0  0  0  0  0  0  0  0  0
  138.4630  158.5820  132.8640 O   0  0  0  0  0  0  0  0  0  0  0  0
  139.4650  157.7270  133.3640 C   0  0  0  0  0  0  0  0  0  0  0  0
  142.8150  158.5780  133.7430 C   0  0  0  0  0  0  0  0  0  0  0  0
  142.7710  157.3560  134.6720 C   0  0  0  0  0  0  0  0  0  0  0  0
  141.7600  155.2080  136.3910 C   0  0  0  0  0  0  0  0  0  0  0  0
  141.3960  154.2010  137.2940 C   0  0  0  0  0  0  0  0  0  0  0  0
  138.4609  149.3429  132.4029 H   0  0  0  0  0  0  0  0  0  0  0  0
  138.5872  150.3160  130.8983 H   0  0  0  0  0  0  0  0  0  0  0  0
  139.0931  148.5924  130.8983 H   0  0  0  0  0  0  0  0  0  0  0  0
  141.0016  149.0085  133.6811 H   0  0  0  0  0  0  0  0  0  0  0  0
  140.6616  147.8729  132.3314 H   0  0  0  0  0  0  0  0  0  0  0  0
  142.1750  148.8406  132.3314 H   0  0  0  0  0  0  0  0  0  0  0  0
  139.7966  151.9177  132.0509 H   0  0  0  0  0  0  0  0  0  0  0  0
  140.1540  151.0229  133.6109 H   0  0  0  0  0  0  0  0  0  0  0  0
  142.5850  151.1040  133.0140 H   0  0  0  0  0  0  0  0  0  0  0  0
  142.1478  152.1981  131.6395 H   0  0  0  0  0  0  0  0  0  0  0  0
  142.5214  153.8470  133.1543 H   0  0  0  0  0  0  0  0  0  0  0  0
  140.8563  153.4235  133.7130 H   0  0  0  0  0  0  0  0  0  0  0  0
  139.9170  149.7420  137.0200 H   0  0  0  0  0  0  0  0  0  0  0  0
  140.2547  153.2177  140.2196 H   0  0  0  0  0  0  0  0  0  0  0  0
  140.4458  156.0482  140.0009 H   0  0  0  0  0  0  0  0  0  0  0  0
  141.0604  157.8982  138.4228 H   0  0  0  0  0  0  0  0  0  0  0  0
  141.0869  159.1102  137.0968 H   0  0  0  0  0  0  0  0  0  0  0  0
  142.6563  159.6055  136.3697 H   0  0  0  0  0  0  0  0  0  0  0  0
  139.9131  159.3886  135.0679 H   0  0  0  0  0  0  0  0  0  0  0  0
  141.1111  160.7691  135.0738 H   0  0  0  0  0  0  0  0  0  0  0  0
  141.3561  158.1182  132.1063 H   0  0  0  0  0  0  0  0  0  0  0  0
  139.4409  160.4357  132.6381 H   0  0  0  0  0  0  0  0  0  0  0  0
  139.3427  159.6131  131.1686 H   0  0  0  0  0  0  0  0  0  0  0  0
  139.5045  157.6920  134.4627 H   0  0  0  0  0  0  0  0  0  0  0  0
  139.4115  156.6517  133.1384 H   0  0  0  0  0  0  0  0  0  0  0  0
  143.0996  158.2493  132.7326 H   0  0  0  0  0  0  0  0  0  0  0  0
  143.5509  159.2908  134.1434 H   0  0  0  0  0  0  0  0  0  0  0  0
  142.2760  156.5255  134.1474 H   0  0  0  0  0  0  0  0  0  0  0  0
  143.8036  157.0886  134.9406 H   0  0  0  0  0  0  0  0  0  0  0  0
  142.1343  154.9527  135.3887 H   0  0  0  0  0  0  0  0  0  0  0  0
  1  2  1  0
  2  3  1  0
  2  4  1  0
  4  5  1  0
  5  6  1  0
  6  7  1  0
  7  8  1  0
  8  9  2  0
  8 10  1  0
 10 11  1  0
 11 12  1  0
 12 13  1  0
 12 14  2  0
 11 15  2  0
 15 16  1  0
 16 17  2  0
 17 18  1  0
 18 19  2  0
 19 20  1  0
 20 21  1  0
 21 22  1  0
 22 23  1  0
 23 24  1  0
 24 25  1  0
 25 26  1  0
 26 27  1  0
 23 28  1  0
 28 29  1  0
 19 30  1  0
 30 31  2  0
 31 10  1  0
 31 16  1  0
 29 20  1  0
 27 24  1  0
  1 32  1  0
  1 33  1  0
  1 34  1  0
  3 35  1  0
  3 36  1  0
  3 37  1  0
  4 38  1  0
  4 39  1  0
  5 40  1  0
  5 41  1  0
  6 42  1  0
  6 43  1  0
 13 44  1  0
 15 45  1  0
 17 46  1  0
 18 47  1  0
 21 48  1  0
 21 49  1  0
 22 50  1  0
 22 51  1  0
 24 52  1  0
 25 53  1  0
 25 54  1  0
 27 55  1  0
 27 56  1  0
 28 57  1  0
 28 58  1  0
 29 59  1  0
 29 60  1  0
 30 61  1  0
M  CHG  1  13  -1
M  END
>  <UniqueID>  (8) 
8

>  <SMILES>  (8) 
CN(C)CCCOC(=O)n1c(C([NH-])=O)cc2ccc(N3CCN(C4COC4)CC3)cc21

>  <Energy>  (8) 
179.55589016654767

>  <Genealogy>  (8) 
CN(C)CCCOC(=O)n1c(C([NH-])=O)cc2ccc(N3CCN(C4COC4)CC3)cc21 (protonated)
CN(C)CCCOC(=O)n1c(C([NH-])=O)cc2ccc(N3CCN(C4COC4)CC3)cc21 (3D coordinates assigned)
CN(C)CCCOC(=O)n1c(C([NH-])=O)cc2ccc(N3CCN(C4COC4)CC3)cc21 (nonaromatic ring conformer: 179.55589016654767 kcal/mol)

>  <smiles>  (8) 
CN(C)CCCOC(=O)n1c(C(N)=O)cc2ccc(N3CCN(C4COC4)CC3)cc21

>  <score_type>  (8) 
oracle

>  <origin>  (8) 
adg

>  <m_score__min__energy>  (8) 
-8.7400000000000002

>  <m_primary>  (8) 
energy

$$$$
8:0
     RDKit          3D

 33 34  0  0  0  0  0  0  0  0999 V2000
  143.8440  153.3600  133.6250 C   0  0  0  0  0  0  0  0  0  0  0  0
  144.8260  154.3090  133.0920 N   0  0  0  0  0  0  0  0  0  0  0  0
  144.6940  154.8310  131.7280 C   0  0  0  0  0  0  0  0  0  0  0  0
  145.9000  154.7730  133.9320 C   0  0  0  0  0  0  0  0  0  0  0  0
  145.9600  154.4230  135.1430 O   0  0  0  0  0  0  0  0  0  0  0  0
  146.8990  155.6640  133.4190 N   0  0  0  0  0  0  0  0  0  0  0  0
  148.1690  155.3610  133.0340 C   0  0  0  0  0  0  0  0  0  0  0  0
  148.7830  154.0150  133.0560 C   0  0  0  0  0  0  0  0  0  0  0  0
  148.4090  153.0500  134.0360 N   0  0  0  0  0  0  0  0  0  0  0  0
  149.6500  153.7130  132.1910 O   0  0  0  0  0  0  0  0  0  0  0  0
  148.8420  156.5170  132.6380 C   0  0  0  0  0  0  0  0  0  0  0  0
  147.9350  157.5420  132.8020 C   0  0  0  0  0  0  0  0  0  0  0  0
  148.0720  158.9100  132.5770 C   0  0  0  0  0  0  0  0  0  0  0  0
  146.9690  159.7360  132.8560 C   0  0  0  0  0  0  0  0  0  0  0  0
  145.7570  159.1830  133.3440 C   0  0  0  0  0  0  0  0  0  0  0  0
  144.6020  160.0830  133.6780 C   0  0  0  0  0  0  0  0  0  0  0  0
  145.1010  161.3880  134.1270 C   0  0  0  0  0  0  0  0  0  0  0  0
  145.4960  162.4170  134.4800 N   0  0  0  0  0  0  0  0  0  0  0  0
  145.6580  157.7910  133.5650 C   0  0  0  0  0  0  0  0  0  0  0  0
  146.7730  156.9970  133.2790 C   0  0  0  0  0  0  0  0  0  0  0  0
  143.8695  153.3847  134.7244 H   0  0  0  0  0  0  0  0  0  0  0  0
  142.8387  153.6375  133.2753 H   0  0  0  0  0  0  0  0  0  0  0  0
  144.0869  152.3458  133.2753 H   0  0  0  0  0  0  0  0  0  0  0  0
  144.4245  155.8967  131.7677 H   0  0  0  0  0  0  0  0  0  0  0  0
  145.6500  154.7141  131.1965 H   0  0  0  0  0  0  0  0  0  0  0  0
  143.9085  154.2737  131.1965 H   0  0  0  0  0  0  0  0  0  0  0  0
  147.4280  153.0010  134.3940 H   0  0  0  0  0  0  0  0  0  0  0  0
  149.8766  156.5942  132.2725 H   0  0  0  0  0  0  0  0  0  0  0  0
  149.0132  159.3305  132.1933 H   0  0  0  0  0  0  0  0  0  0  0  0
  147.0464  160.8213  132.6944 H   0  0  0  0  0  0  0  0  0  0  0  0
  143.9754  160.2196  132.7843 H   0  0  0  0  0  0  0  0  0  0  0  0
  144.0068  159.6260  134.4822 H   0  0  0  0  0  0  0  0  0  0  0  0
  144.7299  157.3444  133.9512 H   0  0  0  0  0  0  0  0  0  0  0  0
  1  2  1  0
  2  3  1  0
  2  4  1  0
  4  5  2  0
  4  6  1  0
  6  7  1  0
  7  8  1  0
  8  9  1  0
  8 10  2  0
  7 11  2  0
 11 12  1  0
 12 13  2  0
 13 14  1  0
 14 15  2  0
 15 16  1  0
 16 17  1  0
 17 18  3  0
 15 19  1  0
 19 20  2  0
 20  6  1  0
 20 12  1  0
  1 21  1  0
  1 22  1  0
  1 23  1  0
  3 24  1  0
  3 25  1  0
  3 26  1  0
  9 27  1  0
 11 28  1  0
 13 29  1  0
 14 30  1  0
 16 31  1  0
 16 32  1  0
 19 33  1  0
M  CHG  1   9  -1
M  END
>  <UniqueID>  (9) 
9

>  <SMILES>  (9) 
CN(C)C(=O)n1c(C([NH-])=O)cc2ccc(CC#N)cc21

>  <Energy>  (9) 
68.67747815551498

>  <Genealogy>  (9) 
CN(C)C(=O)n1c(C([NH-])=O)cc2ccc(CC#N)cc21 (protonated)
CN(C)C(=O)n1c(C([NH-])=O)cc2ccc(CC#N)cc21 (3D coordinates assigned)
CN(C)C(=O)n1c(C([NH-])=O)cc2ccc(CC#N)cc21 (optimized conformer: 68.67747815551498 kcal/mol)

>  <smiles>  (9) 
CN(C)C(=O)n1c(C(N)=O)cc2ccc(CC#N)cc21

>  <score_type>  (9) 
oracle

>  <origin>  (9) 
adg

>  <m_score__min__energy>  (9) 
-6.0899999999999999

>  <m_primary>  (9) 
energy

$$$$
9:0
     RDKit          3D

 42 44  0  0  0  0  0  0  0  0999 V2000
  149.4140  153.1090  132.2500 C   0  0  0  0  0  0  0  0  0  0  0  0
  147.9830  153.4740  132.6210 C   0  0  0  0  0  0  0  0  0  0  0  0
  147.8860  155.1130  133.3280 S   0  0  0  0  0  0  0  0  0  0  0  0
  149.1250  155.8700  132.9390 O   0  0  0  0  0  0  0  0  0  0  0  0
  147.8180  155.0100  134.8270 O   0  0  0  0  0  0  0  0  0  0  0  0
  146.4450  155.9680  132.7020 C   0  0  0  0  0  0  0  0  0  0  0  0
  145.7310  156.7360  133.7810 C   0  0  0  0  0  0  0  0  0  0  0  0
  145.3500  156.1310  134.8200 O   0  0  0  0  0  0  0  0  0  0  0  0
  145.4350  158.1380  133.6290 N   0  0  0  0  0  0  0  0  0  0  0  0
  146.3320  159.1580  133.5160 C   0  0  0  0  0  0  0  0  0  0  0  0
  147.8010  159.0200  133.4250 C   0  0  0  0  0  0  0  0  0  0  0  0
  148.4830  157.9240  134.0330 N   0  0  0  0  0  0  0  0  0  0  0  0
  148.4600  159.8610  132.7580 O   0  0  0  0  0  0  0  0  0  0  0  0
  145.6840  160.3900  133.5210 C   0  0  0  0  0  0  0  0  0  0  0  0
  144.3470  160.0950  133.6450 C   0  0  0  0  0  0  0  0  0  0  0  0
  143.2560  160.9510  133.7460 C   0  0  0  0  0  0  0  0  0  0  0  0
  141.9890  160.3810  133.9460 C   0  0  0  0  0  0  0  0  0  0  0  0
  141.8360  158.9730  134.0620 C   0  0  0  0  0  0  0  0  0  0  0  0
  140.4760  158.3440  134.3090 C   0  0  0  0  0  0  0  0  0  0  0  0
  140.5180  156.8310  134.4890 C   0  0  0  0  0  0  0  0  0  0  0  0
  139.4820  156.4610  133.0400 S   0  0  0  0  0  0  0  0  0  0  0  0
  139.5910  158.2790  133.0700 C   0  0  0  0  0  0  0  0  0  0  0  0
  142.9740  158.1410  133.9630 C   0  0  0  0  0  0  0  0  0  0  0  0
  144.2210  158.7320  133.7210 C   0  0  0  0  0  0  0  0  0  0  0  0
  150.0034  152.9586  133.1665 H   0  0  0  0  0  0  0  0  0  0  0  0
  149.4142  152.1820  131.6577 H   0  0  0  0  0  0  0  0  0  0  0  0
  149.8581  153.9226  131.6577 H   0  0  0  0  0  0  0  0  0  0  0  0
  147.3590  153.4379  131.7159 H   0  0  0  0  0  0  0  0  0  0  0  0
  147.6270  152.7531  133.3717 H   0  0  0  0  0  0  0  0  0  0  0  0
  146.7622  156.6703  131.9170 H   0  0  0  0  0  0  0  0  0  0  0  0
  145.7492  155.2143  132.3048 H   0  0  0  0  0  0  0  0  0  0  0  0
  147.9550  157.1140  134.4210 H   0  0  0  0  0  0  0  0  0  0  0  0
  149.5250  157.8730  134.0040 H   0  0  0  0  0  0  0  0  0  0  0  0
  146.1434  161.3864  133.4425 H   0  0  0  0  0  0  0  0  0  0  0  0
  143.3819  162.0412  133.6715 H   0  0  0  0  0  0  0  0  0  0  0  0
  141.1046  161.0315  134.0137 H   0  0  0  0  0  0  0  0  0  0  0  0
  140.1376  158.9579  135.1567 H   0  0  0  0  0  0  0  0  0  0  0  0
  141.5341  156.4182  134.4051 H   0  0  0  0  0  0  0  0  0  0  0  0
  140.1978  156.4253  135.4600 H   0  0  0  0  0  0  0  0  0  0  0  0
  140.0769  158.6937  132.1745 H   0  0  0  0  0  0  0  0  0  0  0  0
  138.6483  158.8455  133.0872 H   0  0  0  0  0  0  0  0  0  0  0  0
  142.8825  157.0504  134.0738 H   0  0  0  0  0  0  0  0  0  0  0  0
  1  2  1  0
  2  3  1  0
  3  4  2  0
  3  5  2  0
  3  6  1  0
  6  7  1  0
  7  8  2  0
  7  9  1  0
  9 10  1  0
 10 11  1  0
 11 12  1  0
 11 13  2  0
 10 14  2  0
 14 15  1  0
 15 16  2  0
 16 17  1  0
 17 18  2  0
 18 19  1  0
 19 20  1  0
 20 21  1  0
 21 22  1  0
 18 23  1  0
 23 24  2  0
 24  9  1  0
 24 15  1  0
 22 19  1  0
  1 25  1  0
  1 26  1  0
  1 27  1  0
  2 28  1  0
  2 29  1  0
  6 30  1  0
  6 31  1  0
 12 32  1  0
 12 33  1  0
 14 34  1  0
 16 35  1  0
 17 36  1  0
 19 37  1  0
 20 38  1  0
 20 39  1  0
 22 40  1  0
 22 41  1  0
 23 42  1  0
M  END
>  <UniqueID>  (10) 
10

>  <SMILES>  (10) 
CCS(=O)(=O)CC(=O)n1c(C(N)=O)cc2ccc(C3CSC3)cc21

>  <Energy>  (10) 
109.21658907185046

>  <Genealogy>  (10) 
CCS(=O)(=O)CC(=O)n1c(C(N)=O)cc2ccc(C3CSC3)cc21 (3D coordinates assigned)
CCS(=O)(=O)CC(=O)n1c(C(N)=O)cc2ccc(C3CSC3)cc21 (nonaromatic ring conformer: 109.21658907185046 kcal/mol)

>  <smiles>  (10) 
CCS(=O)(=O)CC(=O)n1c(C(N)=O)cc2ccc(C3CSC3)cc21

>  <score_type>  (10) 
oracle

>  <origin>  (10) 
adg

>  <m_score__min__energy>  (10) 
-8.3699999999999992

>  <m_primary>  (10) 
energy

$$$$
10:0
     RDKit          3D

 33 34  0  0  0  0  0  0  0  0999 V2000
  149.6050  162.1450  130.1780 C   0  0  0  0  0  0  0  0  0  0  0  0
  149.8430  160.7930  130.5520 O   0  0  0  0  0  0  0  0  0  0  0  0
  148.8550  159.9840  131.1200 C   0  0  0  0  0  0  0  0  0  0  0  0
  147.6320  160.2600  130.9720 O   0  0  0  0  0  0  0  0  0  0  0  0
  149.2550  158.7530  131.8620 C   0  0  0  0  0  0  0  0  0  0  0  0
  148.4850  158.6680  133.1430 C   0  0  0  0  0  0  0  0  0  0  0  0
  148.8630  159.3310  134.1460 O   0  0  0  0  0  0  0  0  0  0  0  0
  147.2720  157.9060  133.2100 N   0  0  0  0  0  0  0  0  0  0  0  0
  146.0020  158.3750  133.3630 C   0  0  0  0  0  0  0  0  0  0  0  0
  145.6150  159.7980  133.4570 C   0  0  0  0  0  0  0  0  0  0  0  0
  146.6200  160.7980  133.6040 N   0  0  0  0  0  0  0  0  0  0  0  0
  144.4050  160.1420  133.4190 O   0  0  0  0  0  0  0  0  0  0  0  0
  145.0940  157.3180  133.3730 C   0  0  0  0  0  0  0  0  0  0  0  0
  145.8550  156.1800  133.2220 C   0  0  0  0  0  0  0  0  0  0  0  0
  145.4700  154.8440  133.1630 C   0  0  0  0  0  0  0  0  0  0  0  0
  146.4770  153.8750  133.0130 C   0  0  0  0  0  0  0  0  0  0  0  0
  147.8440  154.2520  132.9510 C   0  0  0  0  0  0  0  0  0  0  0  0
  148.9100  153.2030  132.7510 C   0  0  0  0  0  0  0  0  0  0  0  0
  150.0530  153.8060  132.2600 F   0  0  0  0  0  0  0  0  0  0  0  0
  149.2090  152.5740  133.9470 F   0  0  0  0  0  0  0  0  0  0  0  0
  148.4830  152.2420  131.8510 F   0  0  0  0  0  0  0  0  0  0  0  0
  148.1910  155.6230  132.9930 C   0  0  0  0  0  0  0  0  0  0  0  0
  147.1660  156.5640  133.1270 C   0  0  0  0  0  0  0  0  0  0  0  0
  149.4964  162.7619  131.0822 H   0  0  0  0  0  0  0  0  0  0  0  0
  150.4518  162.5149  129.5813 H   0  0  0  0  0  0  0  0  0  0  0  0
  148.6827  162.2035  129.5813 H   0  0  0  0  0  0  0  0  0  0  0  0
  149.0398  157.8676  131.2458 H   0  0  0  0  0  0  0  0  0  0  0  0
  150.3316  158.7933  132.0842 H   0  0  0  0  0  0  0  0  0  0  0  0
  147.5330  160.7200  133.1030 H   0  0  0  0  0  0  0  0  0  0  0  0
  144.0008  157.3795  133.4790 H   0  0  0  0  0  0  0  0  0  0  0  0
  144.4108  154.5554  133.2316 H   0  0  0  0  0  0  0  0  0  0  0  0
  146.2025  152.8121  132.9428 H   0  0  0  0  0  0  0  0  0  0  0  0
  149.2417  155.9407  132.9219 H   0  0  0  0  0  0  0  0  0  0  0  0
  1  2  1  0
  2  3  1  0
  3  4  2  0
  3  5  1  0
  5  6  1  0
  6  7  2  0
  6  8  1  0
  8  9  1  0
  9 10  1  0
 10 11  1  0
 10 12  2  0
  9 13  2  0
 13 14  1  0
 14 15  2  0
 15 16  1  0
 16 17  2  0
 17 18  1  0
 18 19  1  0
 18 20  1  0
 18 21  1  0
 17 22  1  0
 22 23  2  0
 23  8  1  0
 23 14  1  0
  1 24  1  0
  1 25  1  0
  1 26  1  0
  5 27  1  0
  5 28  1  0
 11 29  1  0
 13 30  1  0
 15 31  1  0
 16 32  1  0
 22 33  1  0
M  CHG  1  11  -1
M  END
>  <UniqueID>  (11) 
11

>  <SMILES>  (11) 
COC(=O)CC(=O)n1c(C([NH-])=O)cc2ccc(C(F)(F)F)cc21

>  <Energy>  (11) 
68.33564674104466

>  <Genealogy>  (11) 
COC(=O)CC(=O)n1c(C([NH-])=O)cc2ccc(C(F)(F)F)cc21 (protonated)
COC(=O)CC(=O)n1c(C([NH-])=O)cc2ccc(C(F)(F)F)cc21 (3D coordinates assigned)
COC(=O)CC(=O)n1c(C([NH-])=O)cc2ccc(C(F)(F)F)cc21 (optimized conformer: 68.33564674104466 kcal/mol)

>  <smiles>  (11) 
COC(=O)CC(=O)n1c(C(N)=O)cc2ccc(C(F)(F)F)cc21

>  <score_type>  (11) 
oracle

>  <origin>  (11) 
adg

>  <m_score__min__energy>  (11) 
-5.7199999999999998

>  <m_primary>  (11) 
energy

$$$$
11:0
     RDKit          3D

 45 47  0  0  0  0  0  0  0  0999 V2000
  140.2230  155.9440  132.9920 C   0  0  0  0  0  0  0  0  0  0  0  0
  139.1780  156.9730  133.1670 N   0  0  0  0  0  0  0  0  0  0  0  0
  139.1560  157.4950  134.5530 C   0  0  0  0  0  0  0  0  0  0  0  0
  140.4440  158.2650  134.8970 C   0  0  0  0  0  0  0  0  0  0  0  0
  140.9240  159.0180  133.7340 N   0  0  0  0  0  0  0  0  0  0  0  0
  142.3090  159.4000  133.6390 C   0  0  0  0  0  0  0  0  0  0  0  0
  142.6830  160.7630  133.7630 C   0  0  0  0  0  0  0  0  0  0  0  0
  144.0340  161.1440  133.7050 C   0  0  0  0  0  0  0  0  0  0  0  0
  144.9860  160.1470  133.5210 C   0  0  0  0  0  0  0  0  0  0  0  0
  146.3590  160.2320  133.4660 C   0  0  0  0  0  0  0  0  0  0  0  0
  146.8040  158.9230  133.2930 C   0  0  0  0  0  0  0  0  0  0  0  0
  148.2250  158.5650  133.1030 C   0  0  0  0  0  0  0  0  0  0  0  0
  148.6760  157.9770  131.8860 N   0  0  0  0  0  0  0  0  0  0  0  0
  149.0610  158.8260  134.0090 O   0  0  0  0  0  0  0  0  0  0  0  0
  145.7490  158.0620  133.2510 N   0  0  0  0  0  0  0  0  0  0  0  0
  145.7870  156.6280  133.1830 C   0  0  0  0  0  0  0  0  0  0  0  0
  146.5370  156.0580  132.3450 O   0  0  0  0  0  0  0  0  0  0  0  0
  144.9720  155.8710  134.0340 O   0  0  0  0  0  0  0  0  0  0  0  0
  145.2980  154.5500  134.4590 C   0  0  0  0  0  0  0  0  0  0  0  0
  146.3860  154.5870  135.4850 C   0  0  0  0  0  0  0  0  0  0  0  0
  147.1050  155.6140  135.6040 O   0  0  0  0  0  0  0  0  0  0  0  0
  146.5880  153.5020  136.3280 O   0  0  0  0  0  0  0  0  0  0  0  0
  144.6440  158.8270  133.3880 C   0  0  0  0  0  0  0  0  0  0  0  0
  143.3080  158.4160  133.4600 C   0  0  0  0  0  0  0  0  0  0  0  0
  139.9700  159.3350  132.6680 C   0  0  0  0  0  0  0  0  0  0  0  0
  139.2980  158.0510  132.1440 C   0  0  0  0  0  0  0  0  0  0  0  0
  140.5700  155.6023  133.9783 H   0  0  0  0  0  0  0  0  0  0  0  0
  139.8085  155.0917  132.4337 H   0  0  0  0  0  0  0  0  0  0  0  0
  141.0688  156.3716  132.4337 H   0  0  0  0  0  0  0  0  0  0  0  0
  138.2600  156.4900  133.0110 H   0  0  0  0  0  0  0  0  0  0  0  0
  138.2964  158.1722  134.6643 H   0  0  0  0  0  0  0  0  0  0  0  0
  139.0775  156.6384  135.2386 H   0  0  0  0  0  0  0  0  0  0  0  0
  140.2374  158.9649  135.7201 H   0  0  0  0  0  0  0  0  0  0  0  0
  141.2186  157.5431  135.1952 H   0  0  0  0  0  0  0  0  0  0  0  0
  141.9070  161.5294  133.9060 H   0  0  0  0  0  0  0  0  0  0  0  0
  144.3299  162.1990  133.8022 H   0  0  0  0  0  0  0  0  0  0  0  0
  146.9742  161.1406  133.5424 H   0  0  0  0  0  0  0  0  0  0  0  0
  148.2330  157.1070  131.5140 H   0  0  0  0  0  0  0  0  0  0  0  0
  144.4048  154.0784  134.8945 H   0  0  0  0  0  0  0  0  0  0  0  0
  145.6453  153.9708  133.5907 H   0  0  0  0  0  0  0  0  0  0  0  0
  143.0415  157.3518  133.3792 H   0  0  0  0  0  0  0  0  0  0  0  0
  139.1981  160.0120  133.0628 H   0  0  0  0  0  0  0  0  0  0  0  0
  140.5101  159.8167  131.8396 H   0  0  0  0  0  0  0  0  0  0  0  0
  138.2884  158.3076  131.7907 H   0  0  0  0  0  0  0  0  0  0  0  0
  139.9390  157.6595  131.3403 H   0  0  0  0  0  0  0  0  0  0  0  0
  1  2  1  0
  2  3  1  0
  3  4  1  0
  4  5  1  0
  5  6  1  0
  6  7  2  0
  7  8  1  0
  8  9  2  0
  9 10  1  0
 10 11  2  0
 11 12  1  0
 12 13  1  0
 12 14  2  0
 11 15  1  0
 15 16  1  0
 16 17  2  0
 16 18  1  0
 18 19  1  0
 19 20  1  0
 20 21  2  0
 20 22  1  0
 15 23  1  0
 23 24  2  0
  5 25  1  0
 25 26  1  0
 26  2  1  0
 24  6  1  0
 23  9  1  0
  1 27  1  0
  1 28  1  0
  1 29  1  0
  2 30  1  0
  3 31  1  0
  3 32  1  0
  4 33  1  0
  4 34  1  0
  7 35  1  0
  8 36  1  0
 10 37  1  0
 13 38  1  0
 19 39  1  0
 19 40  1  0
 24 41  1  0
 25 42  1  0
 25 43  1  0
 26 44  1  0
 26 45  1  0
M  CHG  3   2   1  13  -1  22  -1
M  END
>  <UniqueID>  (12) 
12

>  <SMILES>  (12) 
C[NH+]1CCN(c2ccc3cc(C([NH-])=O)n(C(=O)OCC(=O)[O-])c3c2)CC1

>  <Energy>  (12) 
94.29513844337932

>  <Genealogy>  (12) 
C[NH+]1CCN(c2ccc3cc(C([NH-])=O)n(C(=O)OCC(=O)[O-])c3c2)CC1 (protonated)
C[NH+]1CCN(c2ccc3cc(C([NH-])=O)n(C(=O)OCC(=O)[O-])c3c2)CC1 (3D coordinates assigned)
C[NH+]1CCN(c2ccc3cc(C([NH-])=O)n(C(=O)OCC(=O)[O-])c3c2)CC1 (nonaromatic ring conformer: 94.29513844337932 kcal/mol)

>  <smiles>  (12) 
CN1CCN(c2ccc3cc(C(N)=O)n(C(=O)OCC(=O)O)c3c2)CC1

>  <score_type>  (12) 
oracle

>  <origin>  (12) 
adg

>  <m_score__min__energy>  (12) 
-6.9199999999999999

>  <m_primary>  (12) 
energy

$$$$
12:0
     RDKit          3D

 42 43  0  0  0  0  0  0  0  0999 V2000
  139.8080  159.4180  137.0640 H   0  0  0  0  0  0  0  0  0  0  0  0
  140.6390  159.5590  136.4460 N   0  0  0  0  0  0  0  0  0  0  0  0
  141.5830  158.5110  136.2380 C   0  0  0  0  0  0  0  0  0  0  0  0
  142.5610  158.7060  135.4690 O   0  0  0  0  0  0  0  0  0  0  0  0
  141.4190  157.2220  136.9410 C   0  0  0  0  0  0  0  0  0  0  0  0
  140.8900  157.1030  138.2250 C   0  0  0  0  0  0  0  0  0  0  0  0
  140.4978  157.9099  138.8615 H   0  0  0  0  0  0  0  0  0  0  0  0
  140.9620  155.7630  138.5280 C   0  0  0  0  0  0  0  0  0  0  0  0
  140.5500  155.0780  139.6680 C   0  0  0  0  0  0  0  0  0  0  0  0
  140.1133  155.6134  140.5239 H   0  0  0  0  0  0  0  0  0  0  0  0
  140.7090  153.6820  139.6920 C   0  0  0  0  0  0  0  0  0  0  0  0
  140.3930  153.1126  140.5785 H   0  0  0  0  0  0  0  0  0  0  0  0
  141.2730  153.0010  138.5840 C   0  0  0  0  0  0  0  0  0  0  0  0
  141.3910  151.5030  138.6010 C   0  0  0  0  0  0  0  0  0  0  0  0
  142.4495  151.2204  138.5027 H   0  0  0  0  0  0  0  0  0  0  0  0
  140.9881  151.1210  139.5506 H   0  0  0  0  0  0  0  0  0  0  0  0
  140.6140  150.9130  137.4670 C   0  0  0  0  0  0  0  0  0  0  0  0
  140.9850  151.1090  136.2790 O   0  0  0  0  0  0  0  0  0  0  0  0
  139.4270  150.1690  137.7280 N   0  0  0  0  0  0  0  0  0  0  0  0
  139.4400  149.1260  137.7380 H   0  0  0  0  0  0  0  0  0  0  0  0
  141.6670  153.7280  137.4380 C   0  0  0  0  0  0  0  0  0  0  0  0
  142.0830  153.2141  136.5589 H   0  0  0  0  0  0  0  0  0  0  0  0
  141.5140  155.1190  137.4510 C   0  0  0  0  0  0  0  0  0  0  0  0
  141.8020  156.0020  136.4700 N   0  0  0  0  0  0  0  0  0  0  0  0
  142.3430  155.6930  135.1760 C   0  0  0  0  0  0  0  0  0  0  0  0
  143.4590  155.1120  135.0910 O   0  0  0  0  0  0  0  0  0  0  0  0
  141.5940  156.0560  133.9580 C   0  0  0  0  0  0  0  0  0  0  0  0
  142.1523  156.4098  133.0787 H   0  0  0  0  0  0  0  0  0  0  0  0
  140.2620  155.9710  133.8830 C   0  0  0  0  0  0  0  0  0  0  0  0
  139.6882  155.6261  134.7558 H   0  0  0  0  0  0  0  0  0  0  0  0
  139.5410  156.3420  132.6180 C   0  0  0  0  0  0  0  0  0  0  0  0
  138.8200  155.5498  132.3677 H   0  0  0  0  0  0  0  0  0  0  0  0
  140.2793  156.4552  131.8104 H   0  0  0  0  0  0  0  0  0  0  0  0
  138.8190  157.6200  132.7840 N   0  0  0  0  0  0  0  0  0  0  0  0
  138.7930  158.0250  134.2000 C   0  0  0  0  0  0  0  0  0  0  0  0
  138.8504  157.1309  134.8382 H   0  0  0  0  0  0  0  0  0  0  0  0
  139.6509  158.6808  134.4096 H   0  0  0  0  0  0  0  0  0  0  0  0
  137.8583  158.5657  134.4096 H   0  0  0  0  0  0  0  0  0  0  0  0
  139.4660  158.6730  131.9850 C   0  0  0  0  0  0  0  0  0  0  0  0
  139.9220  159.4151  132.6569 H   0  0  0  0  0  0  0  0  0  0  0  0
  140.2451  158.2253  131.3505 H   0  0  0  0  0  0  0  0  0  0  0  0
  138.7146  159.1657  131.3505 H   0  0  0  0  0  0  0  0  0  0  0  0
  1  2  1  0
  2  3  1  0
  3  4  2  0
  3  5  1  0
  5  6  2  0
  6  7  1  0
  6  8  1  0
  8  9  2  0
  9 10  1  0
  9 11  1  0
 11 12  1  0
 11 13  2  0
 13 14  1  0
 14 15  1  0
 14 16  1  0
 14 17  1  0
 17 18  2  0
 17 19  1  0
 19 20  1  0
 13 21  1  0
 21 22  1  0
 21 23  2  0
 23 24  1  0
 24 25  1  0
 25 26  2  0
 25 27  1  0
 27 28  1  0
 27 29  2  0
 29 30  1  0
 29 31  1  0
 31 32  1  0
 31 33  1  0
 31 34  1  0
 34 35  1  0
 35 36  1  0
 35 37  1  0
 35 38  1  0
 34 39  1  0
 39 40  1  0
 39 41  1  0
 39 42  1  0
 24  5  1  0
 23  8  1  0
M  CHG  2   2  -1  19  -1
M  END
>  <UniqueID>  (13) 
13

>  <SMILES>  (13) 
CN(C)C/C=C/C(=O)n1c(C([NH-])=O)cc2ccc(CC([NH-])=O)cc21

>  <Energy>  (13) 
75.96119338460622

>  <Genealogy>  (13) 
CN(C)C/C=C/C(=O)n1c(C([NH-])=O)cc2ccc(CC([NH-])=O)cc21 (protonated)
CN(C)C/C=C/C(=O)n1c(C([NH-])=O)cc2ccc(CC([NH-])=O)cc21 (cis-trans isomerization)
CN(C)C/C=C/C(=O)n1c(C([NH-])=O)cc2ccc(CC([NH-])=O)cc21 (3D coordinates assigned)
CN(C)C/C=C/C(=O)n1c(C([NH-])=O)cc2ccc(CC([NH-])=O)cc21 (optimized conformer: 75.96119338460622 kcal/mol)

>  <smiles>  (13) 
CN(C)C/C=C/C(=O)n1c(C(N)=O)cc2ccc(CC(N)=O)cc21

>  <score_type>  (13) 
oracle

>  <origin>  (13) 
adg

>  <m_score__min__energy>  (13) 
-7.29

>  <m_primary>  (13) 
energy

$$$$
13:0
     RDKit          3D

 43 44  0  0  0  0  0  0  0  0999 V2000
  144.0170  158.8170  133.2190 H   0  0  0  0  0  0  0  0  0  0  0  0
  144.7650  159.1050  132.6350 O   0  0  0  0  0  0  0  0  0  0  0  0
  145.4260  160.1280  133.3250 C   0  0  0  0  0  0  0  0  0  0  0  0
  145.9671  160.7604  132.6058 H   0  0  0  0  0  0  0  0  0  0  0  0
  146.1333  159.6802  134.0386 H   0  0  0  0  0  0  0  0  0  0  0  0
  144.4200  160.9840  134.0920 C   0  0  0  0  0  0  0  0  0  0  0  0
  143.8701  161.6176  133.3805 H   0  0  0  0  0  0  0  0  0  0  0  0
  144.9676  161.6048  134.8164 H   0  0  0  0  0  0  0  0  0  0  0  0
  143.4710  160.1480  134.8190 N   0  0  0  0  0  0  0  0  0  0  0  0
  142.2710  159.6190  134.2490 C   0  0  0  0  0  0  0  0  0  0  0  0
  142.0430  159.7430  133.0140 O   0  0  0  0  0  0  0  0  0  0  0  0
  141.3520  158.9740  135.0790 O   0  0  0  0  0  0  0  0  0  0  0  0
  140.0450  158.6120  134.6450 C   0  0  0  0  0  0  0  0  0  0  0  0
  139.5928  159.4542  134.1008 H   0  0  0  0  0  0  0  0  0  0  0  0
  139.4238  158.3643  135.5183 H   0  0  0  0  0  0  0  0  0  0  0  0
  140.1320  157.4230  133.7410 C   0  0  0  0  0  0  0  0  0  0  0  0
  139.9006  157.5387  132.6719 H   0  0  0  0  0  0  0  0  0  0  0  0
  140.4860  156.2230  134.2100 C   0  0  0  0  0  0  0  0  0  0  0  0
  140.6942  156.1150  135.2847 H   0  0  0  0  0  0  0  0  0  0  0  0
  140.6080  155.0380  133.3410 C   0  0  0  0  0  0  0  0  0  0  0  0
  139.5820  154.6100  132.7490 O   0  0  0  0  0  0  0  0  0  0  0  0
  141.8600  154.3540  133.1680 N   0  0  0  0  0  0  0  0  0  0  0  0
  143.0930  154.9110  133.0120 C   0  0  0  0  0  0  0  0  0  0  0  0
  143.3930  156.3590  133.1170 C   0  0  0  0  0  0  0  0  0  0  0  0
  144.1770  156.7790  134.0080 O   0  0  0  0  0  0  0  0  0  0  0  0
  142.8150  157.2970  132.2050 N   0  0  0  0  0  0  0  0  0  0  0  0
  142.1080  157.0060  131.4950 H   0  0  0  0  0  0  0  0  0  0  0  0
  143.0640  158.3090  132.2710 H   0  0  0  0  0  0  0  0  0  0  0  0
  144.0510  153.9190  132.8000 C   0  0  0  0  0  0  0  0  0  0  0  0
  145.1317  154.0571  132.6483 H   0  0  0  0  0  0  0  0  0  0  0  0
  143.3560  152.7300  132.8210 C   0  0  0  0  0  0  0  0  0  0  0  0
  143.8060  151.4240  132.6510 C   0  0  0  0  0  0  0  0  0  0  0  0
  144.8717  151.2092  132.4834 H   0  0  0  0  0  0  0  0  0  0  0  0
  142.8570  150.3870  132.7000 C   0  0  0  0  0  0  0  0  0  0  0  0
  143.1822  149.3437  132.5743 H   0  0  0  0  0  0  0  0  0  0  0  0
  141.4850  150.6750  132.9100 C   0  0  0  0  0  0  0  0  0  0  0  0
  140.4710  149.5680  132.9510 C   0  0  0  0  0  0  0  0  0  0  0  0
  140.8672  148.6973  132.4079 H   0  0  0  0  0  0  0  0  0  0  0  0
  140.2160  149.2160  134.2640 F   0  0  0  0  0  0  0  0  0  0  0  0
  139.2970  149.9900  132.3560 F   0  0  0  0  0  0  0  0  0  0  0  0
  141.0650  152.0140  133.0700 C   0  0  0  0  0  0  0  0  0  0  0  0
  140.0025  152.2582  133.2168 H   0  0  0  0  0  0  0  0  0  0  0  0
  142.0350  153.0220  133.0370 C   0  0  0  0  0  0  0  0  0  0  0  0
  1  2  1  0
  2  3  1  0
  3  4  1  0
  3  5  1  0
  3  6  1  0
  6  7  1  0
  6  8  1  0
  6  9  1  0
  9 10  1  0
 10 11  2  0
 10 12  1  0
 12 13  1  0
 13 14  1  0
 13 15  1  0
 13 16  1  0
 16 17  1  0
 16 18  2  0
 18 19  1  0
 18 20  1  0
 20 21  2  0
 20 22  1  0
 22 23  1  0
 23 24  1  0
 24 25  2  0
 24 26  1  0
 26 27  1  0
 26 28  1  0
 23 29  2  0
 29 30  1  0
 29 31  1  0
 31 32  2  0
 32 33  1  0
 32 34  1  0
 34 35  1  0
 34 36  2  0
 36 37  1  0
 37 38  1  0
 37 39  1  0
 37 40  1  0
 36 41  1  0
 41 42  1  0
 41 43  2  0
 43 22  1  0
 43 31  1  0
M  CHG  1   9  -1
M  END
>  <UniqueID>  (14) 
14

>  <SMILES>  (14) 
NC(=O)c1cc2ccc(C(F)F)cc2n1C(=O)/C=C/COC(=O)[N-]CCO

>  <Energy>  (14) 
72.8035905018748

>  <Genealogy>  (14) 
NC(=O)c1cc2ccc(C(F)F)cc2n1C(=O)/C=C/COC(=O)[N-]CCO (protonated)
NC(=O)c1cc2ccc(C(F)F)cc2n1C(=O)/C=C/COC(=O)[N-]CCO (cis-trans isomerization)
NC(=O)c1cc2ccc(C(F)F)cc2n1C(=O)/C=C/COC(=O)[N-]CCO (3D coordinates assigned)
NC(=O)c1cc2ccc(C(F)F)cc2n1C(=O)/C=C/COC(=O)[N-]CCO (optimized conformer: 72.8035905018748 kcal/mol)

>  <smiles>  (14) 
NC(=O)c1cc2ccc(C(F)F)cc2n1C(=O)/C=C/COC(=O)NCCO

>  <score_type>  (14) 
oracle

>  <origin>  (14) 
adg

>  <m_score__min__energy>  (14) 
-6.9199999999999999

>  <m_primary>  (14) 
energy

$$$$
14:0
     RDKit          3D

 49 51  0  0  0  0  0  0  0  0999 V2000
  144.3580  154.4600  130.7200 C   0  0  0  0  0  0  0  0  0  0  0  0
  144.6110  154.3080  132.1640 N   0  0  2  0  0  0  0  0  0  0  0  0
  144.6520  152.8960  132.6330 C   0  0  0  0  0  0  0  0  0  0  0  0
  145.8960  152.0560  132.2390 C   0  0  0  0  0  0  0  0  0  0  0  0
  147.2330  152.6480  132.6860 C   0  0  0  0  0  0  0  0  0  0  0  0
  147.0280  153.6760  133.6110 O   0  0  0  0  0  0  0  0  0  0  0  0
  143.7390  155.1380  132.9750 C   0  0  0  0  0  0  0  0  0  0  0  0
  142.7510  154.6390  133.5820 O   0  0  0  0  0  0  0  0  0  0  0  0
  144.0130  156.5420  133.1330 N   0  0  0  0  0  0  0  0  0  0  0  0
  145.2160  157.1420  133.3610 C   0  0  0  0  0  0  0  0  0  0  0  0
  146.5370  156.4920  133.2530 C   0  0  0  0  0  0  0  0  0  0  0  0
  146.9430  155.9060  132.0180 N   0  0  0  0  0  0  0  0  0  0  0  0
  147.2950  156.4110  134.2550 O   0  0  0  0  0  0  0  0  0  0  0  0
  145.0460  158.5080  133.5790 C   0  0  0  0  0  0  0  0  0  0  0  0
  143.6940  158.7310  133.4480 C   0  0  0  0  0  0  0  0  0  0  0  0
  142.9670  159.9140  133.5460 C   0  0  0  0  0  0  0  0  0  0  0  0
  141.5770  159.8490  133.3500 C   0  0  0  0  0  0  0  0  0  0  0  0
  140.9400  158.6180  133.0540 C   0  0  0  0  0  0  0  0  0  0  0  0
  139.5140  158.5960  132.8540 N   0  0  0  0  0  0  0  0  0  0  0  0
  138.8880  158.5030  131.5290 C   0  0  0  0  0  0  0  0  0  0  0  0
  139.4570  159.5250  130.5490 C   0  0  0  0  0  0  0  0  0  0  0  0
  138.0980  160.2080  130.4730 C   0  0  0  0  0  0  0  0  0  0  0  0
  137.5260  159.1930  131.4530 C   0  0  0  0  0  0  0  0  0  0  0  0
  141.7190  157.4390  132.9560 C   0  0  0  0  0  0  0  0  0  0  0  0
  143.0970  157.5320  133.1670 C   0  0  0  0  0  0  0  0  0  0  0  0
  143.4241  155.0211  130.5684 H   0  0  0  0  0  0  0  0  0  0  0  0
  145.1931  155.0060  130.2569 H   0  0  0  0  0  0  0  0  0  0  0  0
  144.2680  153.4663  130.2569 H   0  0  0  0  0  0  0  0  0  0  0  0
  145.5810  154.6690  132.3090 H   0  0  0  0  0  0  0  0  0  0  0  0
  144.5960  152.9099  133.7315 H   0  0  0  0  0  0  0  0  0  0  0  0
  143.8060  152.4045  132.1303 H   0  0  0  0  0  0  0  0  0  0  0  0
  145.7939  151.0589  132.6921 H   0  0  0  0  0  0  0  0  0  0  0  0
  145.9189  152.0308  131.1395 H   0  0  0  0  0  0  0  0  0  0  0  0
  147.8412  151.8583  133.1512 H   0  0  0  0  0  0  0  0  0  0  0  0
  147.7523  153.0581  131.8073 H   0  0  0  0  0  0  0  0  0  0  0  0
  147.4300  154.4910  133.2120 H   0  0  0  0  0  0  0  0  0  0  0  0
  146.8160  154.8850  131.8420 H   0  0  0  0  0  0  0  0  0  0  0  0
  145.8258  159.2496  133.8070 H   0  0  0  0  0  0  0  0  0  0  0  0
  143.4646  160.8692  133.7697 H   0  0  0  0  0  0  0  0  0  0  0  0
  140.9749  160.7663  133.4274 H   0  0  0  0  0  0  0  0  0  0  0  0
  138.9020  158.6100  133.7020 H   0  0  0  0  0  0  0  0  0  0  0  0
  138.9717  157.4231  131.3372 H   0  0  0  0  0  0  0  0  0  0  0  0
  140.2538  160.1558  130.9700 H   0  0  0  0  0  0  0  0  0  0  0  0
  139.9658  159.1937  129.6318 H   0  0  0  0  0  0  0  0  0  0  0  0
  138.0949  161.2426  130.8466 H   0  0  0  0  0  0  0  0  0  0  0  0
  137.6137  160.3726  129.4992 H   0  0  0  0  0  0  0  0  0  0  0  0
  137.1889  159.6283  132.4053 H   0  0  0  0  0  0  0  0  0  0  0  0
  136.6233  158.6186  131.1975 H   0  0  0  0  0  0  0  0  0  0  0  0
  141.2499  156.4726  132.7192 H   0  0  0  0  0  0  0  0  0  0  0  0
  1  2  1  0
  2  3  1  0
  3  4  1  0
  4  5  1  0
  5  6  1  0
  2  7  1  0
  7  8  2  0
  7  9  1  0
  9 10  1  0
 10 11  1  0
 11 12  1  0
 11 13  2  0
 10 14  2  0
 14 15  1  0
 15 16  2  0
 16 17  1  0
 17 18  2  0
 18 19  1  0
 19 20  1  0
 20 21  1  0
 21 22  1  0
 22 23  1  0
 18 24  1  0
 24 25  2  0
 25  9  1  0
 25 15  1  0
 23 20  1  0
  1 26  1  0
  1 27  1  0
  1 28  1  0
  2 29  1  6
  3 30  1  0
  3 31  1  0
  4 32  1  0
  4 33  1  0
  5 34  1  0
  5 35  1  0
  6 36  1  0
 12 37  1  0
 14 38  1  0
 16 39  1  0
 17 40  1  0
 19 41  1  0
 20 42  1  0
 21 43  1  0
 21 44  1  0
 22 45  1  0
 22 46  1  0
 23 47  1  0
 23 48  1  0
 24 49  1  0
M  CHG  2   2   1  12  -1
M  END
>  <UniqueID>  (15) 
15

>  <SMILES>  (15) 
C[N@H+](CCCO)C(=O)n1c(C([NH-])=O)cc2ccc(NC3CCC3)cc21

>  <Energy>  (15) 
154.68729415539954

>  <Genealogy>  (15) 
C[NH+](CCCO)C(=O)n1c(C([NH-])=O)cc2ccc(NC3CCC3)cc21 (protonated)
C[N@H+](CCCO)C(=O)n1c(C([NH-])=O)cc2ccc(NC3CCC3)cc21 (chirality)
C[N@H+](CCCO)C(=O)n1c(C([NH-])=O)cc2ccc(NC3CCC3)cc21 (3D coordinates assigned)
C[N@H+](CCCO)C(=O)n1c(C([NH-])=O)cc2ccc(NC3CCC3)cc21 (nonaromatic ring conformer: 154.68729415539954 kcal/mol)

>  <smiles>  (15) 
CN(CCCO)C(=O)n1c(C(N)=O)cc2ccc(NC3CCC3)cc21

>  <score_type>  (15) 
oracle

>  <origin>  (15) 
adg

>  <m_score__min__energy>  (15) 
-6.8600000000000003

>  <m_primary>  (15) 
energy

$$$$
15:0
     RDKit          3D

 44 46  0  0  0  0  0  0  0  0999 V2000
  143.8230  163.4870  133.3450 N   0  0  0  0  0  0  0  0  0  0  0  0
  144.7250  162.7590  134.1740 C   0  0  0  0  0  0  0  0  0  0  0  0
  145.2670  163.3380  135.1540 O   0  0  0  0  0  0  0  0  0  0  0  0
  144.9920  161.3290  133.9230 C   0  0  0  0  0  0  0  0  0  0  0  0
  146.2680  160.7970  133.7310 C   0  0  0  0  0  0  0  0  0  0  0  0
  146.0810  159.4390  133.5980 C   0  0  0  0  0  0  0  0  0  0  0  0
  147.0020  158.4160  133.4020 C   0  0  0  0  0  0  0  0  0  0  0  0
  146.5180  157.1000  133.3090 C   0  0  0  0  0  0  0  0  0  0  0  0
  145.1260  156.8280  133.4110 C   0  0  0  0  0  0  0  0  0  0  0  0
  144.6450  155.4730  133.3530 N   0  0  0  0  0  0  0  0  0  0  0  0
  143.7740  155.0290  132.2570 C   0  0  0  0  0  0  0  0  0  0  0  0
  144.4460  153.8710  131.5170 C   0  0  0  0  0  0  0  0  0  0  0  0
  144.8770  152.7130  132.4640 C   0  0  0  0  0  0  0  0  0  0  0  0
  146.2380  152.2400  132.1320 N   0  0  0  0  0  0  0  0  0  0  0  0
  146.2850  150.8850  132.2690 O   0  0  0  0  0  0  0  0  0  0  0  0
  147.1390  152.7900  132.9940 O   0  0  0  0  0  0  0  0  0  0  0  0
  144.7080  153.0580  133.9750 C   0  0  0  0  0  0  0  0  0  0  0  0
  145.1340  154.4920  134.3320 C   0  0  0  0  0  0  0  0  0  0  0  0
  144.2240  157.8950  133.6190 C   0  0  0  0  0  0  0  0  0  0  0  0
  144.7400  159.1920  133.7070 C   0  0  0  0  0  0  0  0  0  0  0  0
  144.0600  160.3400  133.9020 N   0  0  0  0  0  0  0  0  0  0  0  0
  142.6390  160.4650  134.0490 C   0  0  0  0  0  0  0  0  0  0  0  0
  142.0240  161.3380  133.3850 O   0  0  0  0  0  0  0  0  0  0  0  0
  141.9020  159.6330  135.0560 C   0  0  0  0  0  0  0  0  0  0  0  0
  141.0060  160.4080  135.7630 F   0  0  0  0  0  0  0  0  0  0  0  0
  142.7910  159.0570  135.9430 F   0  0  0  0  0  0  0  0  0  0  0  0
  141.0090  158.3430  134.2200 Cl  0  0  0  0  0  0  0  0  0  0  0  0
  142.7910  163.3480  133.4240 H   0  0  0  0  0  0  0  0  0  0  0  0
  147.2206  161.3458  133.6938 H   0  0  0  0  0  0  0  0  0  0  0  0
  148.0779  158.6305  133.3221 H   0  0  0  0  0  0  0  0  0  0  0  0
  147.2241  156.2707  133.1555 H   0  0  0  0  0  0  0  0  0  0  0  0
  142.8097  154.6936  132.6664 H   0  0  0  0  0  0  0  0  0  0  0  0
  143.6031  155.8629  131.5602 H   0  0  0  0  0  0  0  0  0  0  0  0
  143.7392  153.4721  130.7745 H   0  0  0  0  0  0  0  0  0  0  0  0
  145.3573  154.2667  131.0448 H   0  0  0  0  0  0  0  0  0  0  0  0
  144.1838  151.8773  132.2875 H   0  0  0  0  0  0  0  0  0  0  0  0
  146.4620  152.5000  131.1360 H   0  0  0  0  0  0  0  0  0  0  0  0
  146.8860  150.7000  133.0360 H   0  0  0  0  0  0  0  0  0  0  0  0
  147.2950  152.1290  133.7160 H   0  0  0  0  0  0  0  0  0  0  0  0
  143.6486  152.9332  134.2435 H   0  0  0  0  0  0  0  0  0  0  0  0
  145.3656  152.3777  134.5361 H   0  0  0  0  0  0  0  0  0  0  0  0
  144.7284  154.7465  135.3223 H   0  0  0  0  0  0  0  0  0  0  0  0
  146.2334  154.5297  134.3297 H   0  0  0  0  0  0  0  0  0  0  0  0
  143.1434  157.7106  133.7095 H   0  0  0  0  0  0  0  0  0  0  0  0
  1  2  1  0
  2  3  2  0
  2  4  1  0
  4  5  2  0
  5  6  1  0
  6  7  2  0
  7  8  1  0
  8  9  2  0
  9 10  1  0
 10 11  1  0
 11 12  1  0
 12 13  1  0
 13 14  1  0
 14 15  1  0
 14 16  1  0
 13 17  1  0
 17 18  1  0
  9 19  1  0
 19 20  2  0
 20 21  1  0
 21 22  1  0
 22 23  2  0
 22 24  1  0
 24 25  1  0
 24 26  1  0
 24 27  1  0
 21  4  1  0
 20  6  1  0
 18 10  1  0
  1 28  1  0
  5 29  1  0
  7 30  1  0
  8 31  1  0
 11 32  1  0
 11 33  1  0
 12 34  1  0
 12 35  1  0
 13 36  1  0
 14 37  1  0
 15 38  1  0
 16 39  1  0
 17 40  1  0
 17 41  1  0
 18 42  1  0
 18 43  1  0
 19 44  1  0
M  CHG  2   1  -1  14   1
M  END
>  <UniqueID>  (16) 
16

>  <SMILES>  (16) 
[NH-]C(=O)c1cc2ccc(N3CCC([NH+](O)O)CC3)cc2n1C(=O)C(F)(F)Cl

>  <Energy>  (16) 
97.28005365675463

>  <Genealogy>  (16) 
[NH-]C(=O)c1cc2ccc(N3CCC([NH+](O)O)CC3)cc2n1C(=O)C(F)(F)Cl (protonated)
[NH-]C(=O)c1cc2ccc(N3CCC([NH+](O)O)CC3)cc2n1C(=O)C(F)(F)Cl (3D coordinates assigned)
[NH-]C(=O)c1cc2ccc(N3CCC([NH+](O)O)CC3)cc2n1C(=O)C(F)(F)Cl (nonaromatic ring conformer: 97.28005365675463 kcal/mol)

>  <smiles>  (16) 
NC(=O)c1cc2ccc(N3CCC(N(O)O)CC3)cc2n1C(=O)C(F)(F)Cl

>  <score_type>  (16) 
oracle

>  <origin>  (16) 
adg

>  <m_score__min__energy>  (16) 
-7.7800000000000002

>  <m_primary>  (16) 
energy

$$$$
16:0
     RDKit          3D

 38 39  0  0  0  0  0  0  0  0999 V2000
  138.8010  148.6090  129.1480 C   0  0  0  0  0  0  0  0  0  0  0  0
  138.7320  147.9930  130.5420 C   0  0  0  0  0  0  0  0  0  0  0  0
  138.8070  149.0280  131.5740 N   0  0  0  0  0  0  0  0  0  0  0  0
  140.0040  149.7490  131.9280 C   0  0  0  0  0  0  0  0  0  0  0  0
  141.2400  149.0570  131.9570 C   0  0  0  0  0  0  0  0  0  0  0  0
  142.4300  149.7150  132.3130 C   0  0  0  0  0  0  0  0  0  0  0  0
  142.3570  151.0680  132.6270 C   0  0  0  0  0  0  0  0  0  0  0  0
  143.3420  151.9420  133.0270 C   0  0  0  0  0  0  0  0  0  0  0  0
  142.6990  153.1640  133.2180 C   0  0  0  0  0  0  0  0  0  0  0  0
  143.3990  154.4100  133.5910 C   0  0  0  0  0  0  0  0  0  0  0  0
  143.6520  155.4060  132.6030 N   0  0  0  0  0  0  0  0  0  0  0  0
  143.7560  154.6180  134.7810 O   0  0  0  0  0  0  0  0  0  0  0  0
  141.3690  153.0470  132.9450 N   0  0  0  0  0  0  0  0  0  0  0  0
  140.3540  154.0570  133.0500 C   0  0  0  0  0  0  0  0  0  0  0  0
  139.1380  153.7390  132.9430 O   0  0  0  0  0  0  0  0  0  0  0  0
  140.7250  155.4260  133.2650 N   0  0  0  0  0  0  0  0  0  0  0  0
  139.7670  156.5260  133.1800 C   0  0  0  0  0  0  0  0  0  0  0  0
  140.4510  157.7980  132.6860 C   0  0  0  0  0  0  0  0  0  0  0  0
  141.8380  157.6050  132.6410 O   0  0  0  0  0  0  0  0  0  0  0  0
  141.1750  151.7590  132.5890 C   0  0  0  0  0  0  0  0  0  0  0  0
  139.9730  151.1250  132.2640 C   0  0  0  0  0  0  0  0  0  0  0  0
  138.9231  149.6988  129.2343 H   0  0  0  0  0  0  0  0  0  0  0  0
  139.6574  148.1862  128.6023 H   0  0  0  0  0  0  0  0  0  0  0  0
  137.8723  148.3862  128.6023 H   0  0  0  0  0  0  0  0  0  0  0  0
  137.7831  147.4468  130.6479 H   0  0  0  0  0  0  0  0  0  0  0  0
  139.5846  147.3093  130.6670 H   0  0  0  0  0  0  0  0  0  0  0  0
  137.9170  149.2730  132.0660 H   0  0  0  0  0  0  0  0  0  0  0  0
  141.2688  147.9886  131.6970 H   0  0  0  0  0  0  0  0  0  0  0  0
  143.3889  149.1768  132.3424 H   0  0  0  0  0  0  0  0  0  0  0  0
  144.4108  151.7226  133.1665 H   0  0  0  0  0  0  0  0  0  0  0  0
  142.8730  155.8060  132.0330 H   0  0  0  0  0  0  0  0  0  0  0  0
  141.7140  155.6430  133.5250 H   0  0  0  0  0  0  0  0  0  0  0  0
  138.9638  156.2524  132.4800 H   0  0  0  0  0  0  0  0  0  0  0  0
  139.3521  156.7128  134.1815 H   0  0  0  0  0  0  0  0  0  0  0  0
  140.0836  158.0423  131.6784 H   0  0  0  0  0  0  0  0  0  0  0  0
  140.2218  158.6243  133.3750 H   0  0  0  0  0  0  0  0  0  0  0  0
  141.9820  156.7260  132.2040 H   0  0  0  0  0  0  0  0  0  0  0  0
  139.0242  151.6816  132.2689 H   0  0  0  0  0  0  0  0  0  0  0  0
  1  2  1  0
  2  3  1  0
  3  4  1  0
  4  5  2  0
  5  6  1  0
  6  7  2  0
  7  8  1  0
  8  9  2  0
  9 10  1  0
 10 11  1  0
 10 12  2  0
  9 13  1  0
 13 14  1  0
 14 15  2  0
 14 16  1  0
 16 17  1  0
 17 18  1  0
 18 19  1  0
 13 20  1  0
 20 21  2  0
 21  4  1  0
 20  7  1  0
  1 22  1  0
  1 23  1  0
  1 24  1  0
  2 25  1  0
  2 26  1  0
  3 27  1  0
  5 28  1  0
  6 29  1  0
  8 30  1  0
 11 31  1  0
 16 32  1  0
 17 33  1  0
 17 34  1  0
 18 35  1  0
 18 36  1  0
 19 37  1  0
 21 38  1  0
M  CHG  1  11  -1
M  END
>  <UniqueID>  (17) 
17

>  <SMILES>  (17) 
CCNc1ccc2cc(C([NH-])=O)n(C(=O)NCCO)c2c1

>  <Energy>  (17) 
67.78375407427373

>  <Genealogy>  (17) 
CCNc1ccc2cc(C([NH-])=O)n(C(=O)NCCO)c2c1 (protonated)
CCNc1ccc2cc(C([NH-])=O)n(C(=O)NCCO)c2c1 (3D coordinates assigned)
CCNc1ccc2cc(C([NH-])=O)n(C(=O)NCCO)c2c1 (optimized conformer: 67.78375407427373 kcal/mol)

>  <smiles>  (17) 
CCNc1ccc2cc(C(N)=O)n(C(=O)NCCO)c2c1

>  <score_type>  (17) 
oracle

>  <origin>  (17) 
adg

>  <m_score__min__energy>  (17) 
-6.9199999999999999

>  <m_primary>  (17) 
energy

$$$$
17:0
     RDKit          3D

 38 39  0  0  0  0  0  0  0  0999 V2000
  139.8090  159.3760  131.8040 C   0  0  0  0  0  0  0  0  0  0  0  0
  140.7610  159.4820  132.8340 O   0  0  0  0  0  0  0  0  0  0  0  0
  140.6980  158.3310  133.5580 N   0  0  0  0  0  0  0  0  0  0  0  0
  139.8340  158.2750  134.7360 C   0  0  0  0  0  0  0  0  0  0  0  0
  141.5830  157.2350  133.2540 C   0  0  0  0  0  0  0  0  0  0  0  0
  141.1640  156.0490  133.3190 O   0  0  0  0  0  0  0  0  0  0  0  0
  143.0270  157.4770  132.9240 C   0  0  0  0  0  0  0  0  0  0  0  0
  143.6340  158.3760  133.9560 C   0  0  0  0  0  0  0  0  0  0  0  0
  143.0560  158.5360  135.0670 O   0  0  0  0  0  0  0  0  0  0  0  0
  144.9240  158.9590  133.7370 N   0  0  0  0  0  0  0  0  0  0  0  0
  145.2400  160.2800  133.6440 C   0  0  0  0  0  0  0  0  0  0  0  0
  144.3070  161.4040  133.8700 C   0  0  0  0  0  0  0  0  0  0  0  0
  142.9020  161.2050  133.7090 N   0  0  0  0  0  0  0  0  0  0  0  0
  144.7390  162.5460  134.1860 O   0  0  0  0  0  0  0  0  0  0  0  0
  146.5930  160.4360  133.3560 C   0  0  0  0  0  0  0  0  0  0  0  0
  147.0990  159.1570  133.2780 C   0  0  0  0  0  0  0  0  0  0  0  0
  148.3870  158.7160  132.9940 C   0  0  0  0  0  0  0  0  0  0  0  0
  148.6140  157.3290  132.9530 C   0  0  0  0  0  0  0  0  0  0  0  0
  147.5620  156.4120  133.2090 C   0  0  0  0  0  0  0  0  0  0  0  0
  147.8060  154.9260  133.1090 C   0  0  0  0  0  0  0  0  0  0  0  0
  146.6760  154.3110  132.6000 F   0  0  0  0  0  0  0  0  0  0  0  0
  148.0850  154.3930  134.3570 F   0  0  0  0  0  0  0  0  0  0  0  0
  148.8770  154.6630  132.2740 F   0  0  0  0  0  0  0  0  0  0  0  0
  146.2610  156.9010  133.4700 C   0  0  0  0  0  0  0  0  0  0  0  0
  146.0710  158.2860  133.5150 C   0  0  0  0  0  0  0  0  0  0  0  0
  138.8061  159.2643  132.2418 H   0  0  0  0  0  0  0  0  0  0  0  0
  139.8388  160.2830  131.1824 H   0  0  0  0  0  0  0  0  0  0  0  0
  140.0376  158.4978  131.1824 H   0  0  0  0  0  0  0  0  0  0  0  0
  140.4512  158.3150  135.6456 H   0  0  0  0  0  0  0  0  0  0  0  0
  139.1423  159.1302  134.7243 H   0  0  0  0  0  0  0  0  0  0  0  0
  139.2584  157.3377  134.7243 H   0  0  0  0  0  0  0  0  0  0  0  0
  143.5654  156.5179  132.9116 H   0  0  0  0  0  0  0  0  0  0  0  0
  143.1010  157.9535  131.9353 H   0  0  0  0  0  0  0  0  0  0  0  0
  142.4630  160.2830  133.9210 H   0  0  0  0  0  0  0  0  0  0  0  0
  147.1414  161.3797  133.2197 H   0  0  0  0  0  0  0  0  0  0  0  0
  149.2027  159.4300  132.8073 H   0  0  0  0  0  0  0  0  0  0  0  0
  149.6199  156.9500  132.7195 H   0  0  0  0  0  0  0  0  0  0  0  0
  145.4206  156.2103  133.6333 H   0  0  0  0  0  0  0  0  0  0  0  0
  1  2  1  0
  2  3  1  0
  3  4  1  0
  3  5  1  0
  5  6  2  0
  5  7  1  0
  7  8  1  0
  8  9  2  0
  8 10  1  0
 10 11  1  0
 11 12  1  0
 12 13  1  0
 12 14  2  0
 11 15  2  0
 15 16  1  0
 16 17  2  0
 17 18  1  0
 18 19  2  0
 19 20  1  0
 20 21  1  0
 20 22  1  0
 20 23  1  0
 19 24  1  0
 24 25  2  0
 25 10  1  0
 25 16  1  0
  1 26  1  0
  1 27  1  0
  1 28  1  0
  4 29  1  0
  4 30  1  0
  4 31  1  0
  7 32  1  0
  7 33  1  0
 13 34  1  0
 15 35  1  0
 17 36  1  0
 18 37  1  0
 24 38  1  0
M  CHG  1  13  -1
M  END
>  <UniqueID>  (18) 
18

>  <SMILES>  (18) 
CON(C)C(=O)CC(=O)n1c(C([NH-])=O)cc2ccc(C(F)(F)F)cc21

>  <Energy>  (18) 
72.08781924525448

>  <Genealogy>  (18) 
CON(C)C(=O)CC(=O)n1c(C([NH-])=O)cc2ccc(C(F)(F)F)cc21 (protonated)
CON(C)C(=O)CC(=O)n1c(C([NH-])=O)cc2ccc(C(F)(F)F)cc21 (3D coordinates assigned)
CON(C)C(=O)CC(=O)n1c(C([NH-])=O)cc2ccc(C(F)(F)F)cc21 (optimized conformer: 72.08781924525448 kcal/mol)

>  <smiles>  (18) 
CON(C)C(=O)CC(=O)n1c(C(N)=O)cc2ccc(C(F)(F)F)cc21

>  <score_type>  (18) 
oracle

>  <origin>  (18) 
adg

>  <m_score__min__energy>  (18) 
-6.2199999999999998

>  <m_primary>  (18) 
energy

$$$$
18:0
     RDKit          3D

 31 32  0  0  0  0  0  0  0  0999 V2000
  151.1160  149.9640  129.9230 C   0  0  0  0  0  0  0  0  0  0  0  0
  150.1680  150.3690  130.7740 C   0  0  0  0  0  0  0  0  0  0  0  0
  150.4960  150.8050  132.1730 C   0  0  0  0  0  0  0  0  0  0  0  0
  149.7330  152.0050  132.5320 C   0  0  0  0  0  0  0  0  0  0  0  0
  149.1020  152.9900  132.8250 C   0  0  0  0  0  0  0  0  0  0  0  0
  148.3490  154.1660  133.1740 C   0  0  0  0  0  0  0  0  0  0  0  0
  147.2700  154.0640  134.0810 C   0  0  0  0  0  0  0  0  0  0  0  0
  146.5350  155.2070  134.4410 C   0  0  0  0  0  0  0  0  0  0  0  0
  146.8980  156.4230  133.8700 C   0  0  0  0  0  0  0  0  0  0  0  0
  146.3780  157.6810  134.0670 C   0  0  0  0  0  0  0  0  0  0  0  0
  147.1310  158.5220  133.2530 C   0  0  0  0  0  0  0  0  0  0  0  0
  146.8640  159.9670  133.1110 C   0  0  0  0  0  0  0  0  0  0  0  0
  147.8470  160.8510  132.5710 N   0  0  0  0  0  0  0  0  0  0  0  0
  145.7280  160.4190  133.4170 O   0  0  0  0  0  0  0  0  0  0  0  0
  148.0910  157.8190  132.5870 N   0  0  0  0  0  0  0  0  0  0  0  0
  149.1360  158.3470  131.7530 C   0  0  0  0  0  0  0  0  0  0  0  0
  150.3450  158.2130  132.0800 O   0  0  0  0  0  0  0  0  0  0  0  0
  148.8240  159.0170  130.5760 O   0  0  0  0  0  0  0  0  0  0  0  0
  147.9320  156.5310  132.9720 C   0  0  0  0  0  0  0  0  0  0  0  0
  148.6940  155.4120  132.6140 C   0  0  0  0  0  0  0  0  0  0  0  0
  150.8433  149.6507  128.9044 H   0  0  0  0  0  0  0  0  0  0  0  0
  152.1687  149.9440  130.2413 H   0  0  0  0  0  0  0  0  0  0  0  0
  149.1198  150.3833  130.4406 H   0  0  0  0  0  0  0  0  0  0  0  0
  150.2448  149.9942  132.8726 H   0  0  0  0  0  0  0  0  0  0  0  0
  151.5697  151.0374  132.2295 H   0  0  0  0  0  0  0  0  0  0  0  0
  147.0040  153.0855  134.5073 H   0  0  0  0  0  0  0  0  0  0  0  0
  145.6985  155.1421  135.1523 H   0  0  0  0  0  0  0  0  0  0  0  0
  145.5445  157.9624  134.7273 H   0  0  0  0  0  0  0  0  0  0  0  0
  147.6530  161.8760  132.5100 H   0  0  0  0  0  0  0  0  0  0  0  0
  148.7320  160.4840  132.1560 H   0  0  0  0  0  0  0  0  0  0  0  0
  149.5384  155.5032  131.9150 H   0  0  0  0  0  0  0  0  0  0  0  0
  1  2  2  0
  2  3  1  0
  3  4  1  0
  4  5  3  0
  5  6  1  0
  6  7  2  0
  7  8  1  0
  8  9  2  0
  9 10  1  0
 10 11  2  0
 11 12  1  0
 12 13  1  0
 12 14  2  0
 11 15  1  0
 15 16  1  0
 16 17  2  0
 16 18  1  0
 15 19  1  0
 19 20  2  0
 20  6  1  0
 19  9  1  0
  1 21  1  0
  1 22  1  0
  2 23  1  0
  3 24  1  0
  3 25  1  0
  7 26  1  0
  8 27  1  0
 10 28  1  0
 13 29  1  0
 13 30  1  0
 20 31  1  0
M  CHG  1  18  -1
M  END
>  <UniqueID>  (19) 
19

>  <SMILES>  (19) 
C=CCC#Cc1ccc2cc(C(N)=O)n(C(=O)[O-])c2c1

>  <Energy>  (19) 
63.67152657282464

>  <Genealogy>  (19) 
C=CCC#Cc1ccc2cc(C(N)=O)n(C(=O)[O-])c2c1 (protonated)
C=CCC#Cc1ccc2cc(C(N)=O)n(C(=O)[O-])c2c1 (3D coordinates assigned)
C=CCC#Cc1ccc2cc(C(N)=O)n(C(=O)[O-])c2c1 (optimized conformer: 63.67152657282464 kcal/mol)

>  <smiles>  (19) 
C=CCC#Cc1ccc2cc(C(N)=O)n(C(=O)O)c2c1

>  <score_type>  (19) 
oracle

>  <origin>  (19) 
adg

>  <m_score__min__energy>  (19) 
-7

>  <m_primary>  (19) 
energy

$$$$
19:0
     RDKit          3D

 41 43  0  0  0  0  0  0  0  0999 V2000
  148.4800  157.8480  133.8790 N   0  0  0  0  0  0  0  0  0  0  0  0
  147.6690  158.7740  133.1550 C   0  0  0  0  0  0  0  0  0  0  0  0
  148.1890  159.4570  132.2330 O   0  0  0  0  0  0  0  0  0  0  0  0
  146.2230  158.9080  133.4280 C   0  0  0  0  0  0  0  0  0  0  0  0
  145.5340  160.1140  133.3410 C   0  0  0  0  0  0  0  0  0  0  0  0
  144.2270  159.8080  133.6480 C   0  0  0  0  0  0  0  0  0  0  0  0
  143.1090  160.6330  133.7250 C   0  0  0  0  0  0  0  0  0  0  0  0
  141.8880  160.0530  134.1040 C   0  0  0  0  0  0  0  0  0  0  0  0
  141.8090  158.6740  134.4290 C   0  0  0  0  0  0  0  0  0  0  0  0
  140.4850  158.0530  134.7960 C   0  0  0  0  0  0  0  0  0  0  0  0
  140.5230  156.6810  134.6240 F   0  0  0  0  0  0  0  0  0  0  0  0
  139.4720  158.5610  134.0010 F   0  0  0  0  0  0  0  0  0  0  0  0
  140.2020  158.3340  136.1190 F   0  0  0  0  0  0  0  0  0  0  0  0
  142.9650  157.8670  134.3230 C   0  0  0  0  0  0  0  0  0  0  0  0
  144.1630  158.4650  133.9150 C   0  0  0  0  0  0  0  0  0  0  0  0
  145.3790  157.8960  133.7740 N   0  0  0  0  0  0  0  0  0  0  0  0
  145.7330  156.5420  134.0980 C   0  0  0  0  0  0  0  0  0  0  0  0
  146.2420  156.2870  135.2230 O   0  0  0  0  0  0  0  0  0  0  0  0
  145.4880  155.4700  133.1720 N   0  0  0  0  0  0  0  0  0  0  0  0
  144.2060  155.3450  132.4930 C   0  0  0  0  0  0  0  0  0  0  0  0
  144.0390  153.8660  132.1780 C   0  0  0  0  0  0  0  0  0  0  0  0
  145.4340  153.2660  132.2840 C   0  0  0  0  0  0  0  0  0  0  0  0
  146.2170  154.2020  133.2080 C   0  0  1  0  0  0  0  0  0  0  0  0
  147.6800  154.3400  132.7450 C   0  0  0  0  0  0  0  0  0  0  0  0
  148.3930  155.2140  133.5750 O   0  0  0  0  0  0  0  0  0  0  0  0
  148.0550  157.1380  134.5140 H   0  0  0  0  0  0  0  0  0  0  0  0
  149.5090  157.8070  133.7060 H   0  0  0  0  0  0  0  0  0  0  0  0
  145.9455  161.1008  133.0823 H   0  0  0  0  0  0  0  0  0  0  0  0
  143.1798  161.7066  133.4960 H   0  0  0  0  0  0  0  0  0  0  0  0
  140.9818  160.6749  134.1496 H   0  0  0  0  0  0  0  0  0  0  0  0
  142.9239  156.7928  134.5560 H   0  0  0  0  0  0  0  0  0  0  0  0
  143.3920  155.6904  133.1473 H   0  0  0  0  0  0  0  0  0  0  0  0
  144.1732  155.9570  131.5796 H   0  0  0  0  0  0  0  0  0  0  0  0
  143.3611  153.3928  132.9036 H   0  0  0  0  0  0  0  0  0  0  0  0
  143.6024  153.7085  131.1807 H   0  0  0  0  0  0  0  0  0  0  0  0
  145.3851  152.2548  132.7141 H   0  0  0  0  0  0  0  0  0  0  0  0
  145.9129  153.1740  131.2980 H   0  0  0  0  0  0  0  0  0  0  0  0
  146.2838  153.8199  134.2373 H   0  0  0  0  0  0  0  0  0  0  0  0
  148.1592  153.3502  132.7700 H   0  0  0  0  0  0  0  0  0  0  0  0
  147.6853  154.7475  131.7233 H   0  0  0  0  0  0  0  0  0  0  0  0
  147.9230  155.2250  134.4500 H   0  0  0  0  0  0  0  0  0  0  0  0
  1  2  1  0
  2  3  2  0
  2  4  1  0
  4  5  2  0
  5  6  1  0
  6  7  2  0
  7  8  1  0
  8  9  2  0
  9 10  1  0
 10 11  1  0
 10 12  1  0
 10 13  1  0
  9 14  1  0
 14 15  2  0
 15 16  1  0
 16 17  1  0
 17 18  2  0
 17 19  1  0
 19 20  1  0
 20 21  1  0
 21 22  1  0
 22 23  1  0
 23 24  1  0
 24 25  1  0
 16  4  1  0
 23 19  1  0
 15  6  1  0
  1 26  1  0
  1 27  1  0
  5 28  1  0
  7 29  1  0
  8 30  1  0
 14 31  1  0
 20 32  1  0
 20 33  1  0
 21 34  1  0
 21 35  1  0
 22 36  1  0
 22 37  1  0
 23 38  1  1
 24 39  1  0
 24 40  1  0
 25 41  1  0
M  END
>  <UniqueID>  (20) 
20

>  <SMILES>  (20) 
NC(=O)c1cc2ccc(C(F)(F)F)cc2n1C(=O)N1CCC[C@H]1CO

>  <Energy>  (20) 
85.38897524733183

>  <Genealogy>  (20) 
NC(=O)c1cc2ccc(C(F)(F)F)cc2n1C(=O)N1CCC[C@H]1CO (chirality)
NC(=O)c1cc2ccc(C(F)(F)F)cc2n1C(=O)N1CCC[C@H]1CO (3D coordinates assigned)
NC(=O)c1cc2ccc(C(F)(F)F)cc2n1C(=O)N1CCC[C@H]1CO (nonaromatic ring conformer: 85.38897524733183 kcal/mol)

>  <smiles>  (20) 
NC(=O)c1cc2ccc(C(F)(F)F)cc2n1C(=O)N1CCCC1CO

>  <score_type>  (20) 
oracle

>  <origin>  (20) 
adg

>  <m_score__min__energy>  (20) 
-6.8499999999999996

>  <m_primary>  (20) 
energy

$$$$
20:0
     RDKit          3D

 36 37  0  0  0  0  0  0  0  0999 V2000
  140.6480  159.3630  132.5820 C   0  0  0  0  0  0  0  0  0  0  0  0
  140.6560  160.0840  133.8070 O   0  0  0  0  0  0  0  0  0  0  0  0
  141.0880  159.5170  135.0110 C   0  0  0  0  0  0  0  0  0  0  0  0
  140.8110  160.0630  136.1140 O   0  0  0  0  0  0  0  0  0  0  0  0
  141.8490  158.2270  134.9850 C   0  0  2  0  0  0  0  0  0  0  0  0
  141.5890  157.4430  136.2740 C   0  0  0  0  0  0  0  0  0  0  0  0
  143.2430  158.5070  134.8450 O   0  0  0  0  0  0  0  0  0  0  0  0
  143.9310  158.4330  133.6280 C   0  0  0  0  0  0  0  0  0  0  0  0
  143.3910  157.8960  132.6220 O   0  0  0  0  0  0  0  0  0  0  0  0
  145.2450  159.0010  133.5180 N   0  0  0  0  0  0  0  0  0  0  0  0
  145.5930  160.3170  133.6070 C   0  0  0  0  0  0  0  0  0  0  0  0
  144.6980  161.4250  133.9980 C   0  0  0  0  0  0  0  0  0  0  0  0
  143.2960  161.3220  133.7610 N   0  0  0  0  0  0  0  0  0  0  0  0
  145.1620  162.4810  134.5030 O   0  0  0  0  0  0  0  0  0  0  0  0
  146.9540  160.4810  133.3580 C   0  0  0  0  0  0  0  0  0  0  0  0
  147.4370  159.2150  133.1170 C   0  0  0  0  0  0  0  0  0  0  0  0
  148.7240  158.7950  132.8010 C   0  0  0  0  0  0  0  0  0  0  0  0
  148.9320  157.4230  132.5730 C   0  0  0  0  0  0  0  0  0  0  0  0
  147.8550  156.5080  132.6560 C   0  0  0  0  0  0  0  0  0  0  0  0
  148.0860  155.1160  132.4090 N   0  0  0  0  0  0  0  0  0  0  0  0
  148.7470  154.3480  133.3020 F   0  0  0  0  0  0  0  0  0  0  0  0
  146.5600  156.9710  132.9780 C   0  0  0  0  0  0  0  0  0  0  0  0
  146.3860  158.3390  133.2180 C   0  0  0  0  0  0  0  0  0  0  0  0
  140.6360  158.2833  132.7921 H   0  0  0  0  0  0  0  0  0  0  0  0
  139.7528  159.6339  132.0030 H   0  0  0  0  0  0  0  0  0  0  0  0
  141.5490  159.6139  132.0030 H   0  0  0  0  0  0  0  0  0  0  0  0
  141.5155  157.6168  134.1327 H   0  0  0  0  0  0  0  0  0  0  0  0
  141.8016  158.0840  137.1423 H   0  0  0  0  0  0  0  0  0  0  0  0
  140.5368  157.1235  136.3030 H   0  0  0  0  0  0  0  0  0  0  0  0
  142.2418  156.5581  136.3030 H   0  0  0  0  0  0  0  0  0  0  0  0
  142.8020  160.4050  133.8520 H   0  0  0  0  0  0  0  0  0  0  0  0
  147.5222  161.4229  133.3547 H   0  0  0  0  0  0  0  0  0  0  0  0
  149.5539  159.5136  132.7314 H   0  0  0  0  0  0  0  0  0  0  0  0
  149.9402  157.0577  132.3281 H   0  0  0  0  0  0  0  0  0  0  0  0
  147.7430  154.6730  131.5280 H   0  0  0  0  0  0  0  0  0  0  0  0
  145.7105  156.2748  133.0386 H   0  0  0  0  0  0  0  0  0  0  0  0
  1  2  1  0
  2  3  1  0
  3  4  2  0
  3  5  1  0
  5  6  1  0
  5  7  1  0
  7  8  1  0
  8  9  2  0
  8 10  1  0
 10 11  1  0
 11 12  1  0
 12 13  1  0
 12 14  2  0
 11 15  2  0
 15 16  1  0
 16 17  2  0
 17 18  1  0
 18 19  2  0
 19 20  1  0
 20 21  1  0
 19 22  1  0
 22 23  2  0
 23 10  1  0
 23 16  1  0
  1 24  1  0
  1 25  1  0
  1 26  1  0
  5 27  1  6
  6 28  1  0
  6 29  1  0
  6 30  1  0
 13 31  1  0
 15 32  1  0
 17 33  1  0
 18 34  1  0
 20 35  1  0
 22 36  1  0
M  CHG  1  13  -1
M  END
>  <UniqueID>  (21) 
21

>  <SMILES>  (21) 
COC(=O)[C@H](C)OC(=O)n1c(C([NH-])=O)cc2ccc(NF)cc21

>  <Energy>  (21) 
67.80592534482834

>  <Genealogy>  (21) 
COC(=O)C(C)OC(=O)n1c(C([NH-])=O)cc2ccc(NF)cc21 (protonated)
COC(=O)[C@H](C)OC(=O)n1c(C([NH-])=O)cc2ccc(NF)cc21 (chirality)
COC(=O)[C@H](C)OC(=O)n1c(C([NH-])=O)cc2ccc(NF)cc21 (3D coordinates assigned)
COC(=O)[C@H](C)OC(=O)n1c(C([NH-])=O)cc2ccc(NF)cc21 (optimized conformer: 67.80592534482834 kcal/mol)

>  <smiles>  (21) 
COC(=O)C(C)OC(=O)n1c(C(N)=O)cc2ccc(NF)cc21

>  <score_type>  (21) 
oracle

>  <origin>  (21) 
adg

>  <m_score__min__energy>  (21) 
-6.1299999999999999

>  <m_primary>  (21) 
energy

$$$$
21:0
     RDKit          3D

 43 45  0  0  0  0  0  0  0  0999 V2000
  148.6720  154.6230  132.2880 N   0  0  0  0  0  0  0  0  0  0  0  0
  148.0660  154.0140  133.4690 C   0  0  0  0  0  0  0  0  0  0  0  0
  147.7260  155.0790  134.5160 C   0  0  0  0  0  0  0  0  0  0  0  0
  146.3880  155.7650  134.2190 C   0  0  0  0  0  0  0  0  0  0  0  0
  146.4950  156.5880  132.9720 C   0  0  0  0  0  0  0  0  0  0  0  0
  146.6060  156.0200  131.8530 O   0  0  0  0  0  0  0  0  0  0  0  0
  146.3460  158.0110  133.0320 N   0  0  0  0  0  0  0  0  0  0  0  0
  147.3070  158.9620  132.8680 C   0  0  0  0  0  0  0  0  0  0  0  0
  148.7090  158.6910  132.4730 C   0  0  0  0  0  0  0  0  0  0  0  0
  149.0750  157.4560  131.8540 N   0  0  0  0  0  0  0  0  0  0  0  0
  149.6020  159.5530  132.6910 O   0  0  0  0  0  0  0  0  0  0  0  0
  146.7690  160.2320  133.0880 C   0  0  0  0  0  0  0  0  0  0  0  0
  145.4440  160.0190  133.4010 C   0  0  0  0  0  0  0  0  0  0  0  0
  144.4460  160.9230  133.7530 C   0  0  0  0  0  0  0  0  0  0  0  0
  143.1780  160.4090  134.0820 C   0  0  0  0  0  0  0  0  0  0  0  0
  142.9320  159.0130  134.0400 C   0  0  0  0  0  0  0  0  0  0  0  0
  141.6040  158.4670  134.4780 C   0  0  0  0  0  0  0  0  0  0  0  0
  140.6290  158.6200  133.4010 N   0  0  0  0  0  0  0  0  0  0  0  0
  139.7030  157.7260  133.0180 C   0  0  0  0  0  0  0  0  0  0  0  0
  138.9330  158.3130  132.0390 C   0  0  0  0  0  0  0  0  0  0  0  0
  139.3630  159.5730  131.8170 N   0  0  0  0  0  0  0  0  0  0  0  0
  140.3960  159.7280  132.6710 C   0  0  0  0  0  0  0  0  0  0  0  0
  143.9690  158.1290  133.6780 C   0  0  0  0  0  0  0  0  0  0  0  0
  145.2160  158.6700  133.3570 C   0  0  0  0  0  0  0  0  0  0  0  0
  148.6780  155.6580  132.4320 H   0  0  0  0  0  0  0  0  0  0  0  0
  148.0460  154.4400  131.4700 H   0  0  0  0  0  0  0  0  0  0  0  0
  147.1441  153.4921  133.1728 H   0  0  0  0  0  0  0  0  0  0  0  0
  148.7834  153.3047  133.9075 H   0  0  0  0  0  0  0  0  0  0  0  0
  147.6686  154.6003  135.5047 H   0  0  0  0  0  0  0  0  0  0  0  0
  148.5149  155.8452  134.4919 H   0  0  0  0  0  0  0  0  0  0  0  0
  145.6094  154.9999  134.0838 H   0  0  0  0  0  0  0  0  0  0  0  0
  146.1263  156.4219  135.0616 H   0  0  0  0  0  0  0  0  0  0  0  0
  150.0730  157.2710  131.6120 H   0  0  0  0  0  0  0  0  0  0  0  0
  148.3660  156.7310  131.6130 H   0  0  0  0  0  0  0  0  0  0  0  0
  147.2921  161.1976  133.0248 H   0  0  0  0  0  0  0  0  0  0  0  0
  144.6422  162.0052  133.7734 H   0  0  0  0  0  0  0  0  0  0  0  0
  142.3704  161.0962  134.3744 H   0  0  0  0  0  0  0  0  0  0  0  0
  141.7109  157.4006  134.7256 H   0  0  0  0  0  0  0  0  0  0  0  0
  141.2576  159.0192  135.3640 H   0  0  0  0  0  0  0  0  0  0  0  0
  139.5814  156.7074  133.4152 H   0  0  0  0  0  0  0  0  0  0  0  0
  138.0946  157.8286  131.5170 H   0  0  0  0  0  0  0  0  0  0  0  0
  140.9819  160.6546  132.7610 H   0  0  0  0  0  0  0  0  0  0  0  0
  143.8005  157.0424  133.6491 H   0  0  0  0  0  0  0  0  0  0  0  0
  1  2  1  0
  2  3  1  0
  3  4  1  0
  4  5  1  0
  5  6  2  0
  5  7  1  0
  7  8  1  0
  8  9  1  0
  9 10  1  0
  9 11  2  0
  8 12  2  0
 12 13  1  0
 13 14  2  0
 14 15  1  0
 15 16  2  0
 16 17  1  0
 17 18  1  0
 18 19  1  0
 19 20  2  0
 20 21  1  0
 21 22  2  0
 16 23  1  0
 23 24  2  0
 24  7  1  0
 24 13  1  0
 22 18  1  0
  1 25  1  0
  1 26  1  0
  2 27  1  0
  2 28  1  0
  3 29  1  0
  3 30  1  0
  4 31  1  0
  4 32  1  0
 10 33  1  0
 10 34  1  0
 12 35  1  0
 14 36  1  0
 15 37  1  0
 17 38  1  0
 17 39  1  0
 19 40  1  0
 20 41  1  0
 22 42  1  0
 23 43  1  0
M  END
>  <UniqueID>  (22) 
22

>  <SMILES>  (22) 
NCCCC(=O)n1c(C(N)=O)cc2ccc(Cn3ccnc3)cc21

>  <Energy>  (22) 
104.85300622572395

>  <Genealogy>  (22) 
NCCCC(=O)n1c(C(N)=O)cc2ccc(Cn3ccnc3)cc21 (3D coordinates assigned)
NCCCC(=O)n1c(C(N)=O)cc2ccc(Cn3ccnc3)cc21 (optimized conformer: 104.85300622572395 kcal/mol)

>  <smiles>  (22) 
NCCCC(=O)n1c(C(N)=O)cc2ccc(Cn3ccnc3)cc21

>  <score_type>  (22) 
oracle

>  <origin>  (22) 
adg

>  <m_score__min__energy>  (22) 
-7.4500000000000002

>  <m_primary>  (22) 
energy

$$$$
22:0
     RDKit          3D

 35 36  0  0  0  0  0  0  0  0999 V2000
  149.5820  161.7050  130.3490 C   0  0  0  0  0  0  0  0  0  0  0  0
  149.7420  160.1900  130.4120 C   0  0  0  0  0  0  0  0  0  0  0  0
  148.8090  159.5940  131.4330 C   0  0  0  0  0  0  0  0  0  0  0  0
  149.2050  158.6870  132.1500 O   0  0  0  0  0  0  0  0  0  0  0  0
  147.4010  160.0950  131.5900 C   0  0  0  0  0  0  0  0  0  0  0  0
  147.0360  160.1490  133.0430 C   0  0  0  0  0  0  0  0  0  0  0  0
  147.9140  160.4520  133.8950 O   0  0  0  0  0  0  0  0  0  0  0  0
  145.6870  159.9090  133.4650 N   0  0  0  0  0  0  0  0  0  0  0  0
  144.7960  160.8090  133.9690 C   0  0  0  0  0  0  0  0  0  0  0  0
  145.0140  162.2650  134.1070 C   0  0  0  0  0  0  0  0  0  0  0  0
  146.2230  162.7820  134.6560 N   0  0  0  0  0  0  0  0  0  0  0  0
  144.1270  163.0690  133.7140 O   0  0  0  0  0  0  0  0  0  0  0  0
  143.6040  160.1720  134.3120 C   0  0  0  0  0  0  0  0  0  0  0  0
  143.7960  158.8440  134.0010 C   0  0  0  0  0  0  0  0  0  0  0  0
  142.9500  157.7520  134.1660 C   0  0  0  0  0  0  0  0  0  0  0  0
  143.4290  156.4840  133.7970 C   0  0  0  0  0  0  0  0  0  0  0  0
  144.7350  156.3290  133.2650 C   0  0  0  0  0  0  0  0  0  0  0  0
  145.2630  154.9570  132.9320 C   0  0  0  0  0  0  0  0  0  0  0  0
  146.6020  155.0510  132.6060 F   0  0  0  0  0  0  0  0  0  0  0  0
  144.5740  154.4180  131.8580 F   0  0  0  0  0  0  0  0  0  0  0  0
  145.1200  154.1020  134.0110 F   0  0  0  0  0  0  0  0  0  0  0  0
  145.5750  157.4600  133.1380 C   0  0  0  0  0  0  0  0  0  0  0  0
  145.0620  158.7120  133.4950 C   0  0  0  0  0  0  0  0  0  0  0  0
  149.5390  162.1119  131.3701 H   0  0  0  0  0  0  0  0  0  0  0  0
  150.4390  162.1424  129.8157 H   0  0  0  0  0  0  0  0  0  0  0  0
  148.6526  161.9537  129.8157 H   0  0  0  0  0  0  0  0  0  0  0  0
  149.5157  159.7624  129.4241 H   0  0  0  0  0  0  0  0  0  0  0  0
  150.7770  159.9573  130.7029 H   0  0  0  0  0  0  0  0  0  0  0  0
  147.3224  161.1030  131.1568 H   0  0  0  0  0  0  0  0  0  0  0  0
  146.7139  159.4113  131.0699 H   0  0  0  0  0  0  0  0  0  0  0  0
  147.0480  162.1630  134.8210 H   0  0  0  0  0  0  0  0  0  0  0  0
  142.7015  160.6325  134.7402 H   0  0  0  0  0  0  0  0  0  0  0  0
  141.9360  157.8777  134.5734 H   0  0  0  0  0  0  0  0  0  0  0  0
  142.7843  155.6015  133.9219 H   0  0  0  0  0  0  0  0  0  0  0  0
  146.6058  157.3579  132.7678 H   0  0  0  0  0  0  0  0  0  0  0  0
  1  2  1  0
  2  3  1  0
  3  4  2  0
  3  5  1  0
  5  6  1  0
  6  7  2  0
  6  8  1  0
  8  9  1  0
  9 10  1  0
 10 11  1  0
 10 12  2  0
  9 13  2  0
 13 14  1  0
 14 15  2  0
 15 16  1  0
 16 17  2  0
 17 18  1  0
 18 19  1  0
 18 20  1  0
 18 21  1  0
 17 22  1  0
 22 23  2  0
 23  8  1  0
 23 14  1  0
  1 24  1  0
  1 25  1  0
  1 26  1  0
  2 27  1  0
  2 28  1  0
  5 29  1  0
  5 30  1  0
 11 31  1  0
 13 32  1  0
 15 33  1  0
 16 34  1  0
 22 35  1  0
M  CHG  1  11  -1
M  END
>  <UniqueID>  (23) 
23

>  <SMILES>  (23) 
CCC(=O)CC(=O)n1c(C([NH-])=O)cc2ccc(C(F)(F)F)cc21

>  <Energy>  (23) 
68.22079627775419

>  <Genealogy>  (23) 
CCC(=O)CC(=O)n1c(C([NH-])=O)cc2ccc(C(F)(F)F)cc21 (protonated)
CCC(=O)CC(=O)n1c(C([NH-])=O)cc2ccc(C(F)(F)F)cc21 (3D coordinates assigned)
CCC(=O)CC(=O)n1c(C([NH-])=O)cc2ccc(C(F)(F)F)cc21 (optimized conformer: 68.22079627775419 kcal/mol)

>  <smiles>  (23) 
CCC(=O)CC(=O)n1c(C(N)=O)cc2ccc(C(F)(F)F)cc21

>  <score_type>  (23) 
oracle

>  <origin>  (23) 
adg

>  <m_score__min__energy>  (23) 
-6.5499999999999998

>  <m_primary>  (23) 
energy

$$$$
23:0
     RDKit          3D

 30 31  0  0  0  0  0  0  0  0999 V2000
  149.4830  161.7160  130.3380 C   0  0  0  0  0  0  0  0  0  0  0  0
  149.2460  160.4520  131.1100 C   0  0  0  0  0  0  0  0  0  0  0  0
  150.2250  159.4280  131.1110 C   0  0  0  0  0  0  0  0  0  0  0  0
  149.9940  158.2190  131.7890 C   0  0  0  0  0  0  0  0  0  0  0  0
  148.7790  158.0640  132.4510 C   0  0  0  0  0  0  0  0  0  0  0  0
  148.2870  156.9900  133.1570 C   0  0  0  0  0  0  0  0  0  0  0  0
  147.0190  157.3780  133.5830 C   0  0  0  0  0  0  0  0  0  0  0  0
  146.1660  156.5470  134.4590 C   0  0  0  0  0  0  0  0  0  0  0  0
  144.7450  156.6390  134.4010 N   0  0  0  0  0  0  0  0  0  0  0  0
  146.7010  155.7770  135.3010 O   0  0  0  0  0  0  0  0  0  0  0  0
  146.7330  158.6390  133.1490 N   0  0  0  0  0  0  0  0  0  0  0  0
  145.5080  159.3690  133.3060 C   0  0  0  0  0  0  0  0  0  0  0  0
  144.4040  158.8030  133.0750 O   0  0  0  0  0  0  0  0  0  0  0  0
  145.5460  160.7150  133.6900 O   0  0  0  0  0  0  0  0  0  0  0  0
  144.3890  161.5450  133.7500 C   0  0  0  0  0  0  0  0  0  0  0  0
  144.7680  162.9360  134.1430 C   0  0  0  0  0  0  0  0  0  0  0  0
  144.1470  163.9230  133.6650 O   0  0  0  0  0  0  0  0  0  0  0  0
  145.7870  163.1440  135.0640 O   0  0  0  0  0  0  0  0  0  0  0  0
  147.8240  159.0460  132.4610 C   0  0  0  0  0  0  0  0  0  0  0  0
  148.0180  160.2520  131.7780 C   0  0  0  0  0  0  0  0  0  0  0  0
  149.6393  162.5496  131.0385 H   0  0  0  0  0  0  0  0  0  0  0  0
  150.3745  161.5972  129.7047 H   0  0  0  0  0  0  0  0  0  0  0  0
  148.6090  161.9282  129.7047 H   0  0  0  0  0  0  0  0  0  0  0  0
  151.1742  159.5806  130.5764 H   0  0  0  0  0  0  0  0  0  0  0  0
  150.7498  157.4198  131.7965 H   0  0  0  0  0  0  0  0  0  0  0  0
  148.7886  156.0292  133.3449 H   0  0  0  0  0  0  0  0  0  0  0  0
  144.2510  157.5100  134.6970 H   0  0  0  0  0  0  0  0  0  0  0  0
  143.9059  161.5660  132.7620 H   0  0  0  0  0  0  0  0  0  0  0  0
  143.6952  161.1378  134.5003 H   0  0  0  0  0  0  0  0  0  0  0  0
  147.2345  161.0239  131.7619 H   0  0  0  0  0  0  0  0  0  0  0  0
  1  2  1  0
  2  3  2  0
  3  4  1  0
  4  5  2  0
  5  6  1  0
  6  7  2  0
  7  8  1  0
  8  9  1  0
  8 10  2  0
  7 11  1  0
 11 12  1  0
 12 13  2  0
 12 14  1  0
 14 15  1  0
 15 16  1  0
 16 17  2  0
 16 18  1  0
 11 19  1  0
 19 20  2  0
 20  2  1  0
 19  5  1  0
  1 21  1  0
  1 22  1  0
  1 23  1  0
  3 24  1  0
  4 25  1  0
  6 26  1  0
  9 27  1  0
 15 28  1  0
 15 29  1  0
 20 30  1  0
M  CHG  2   9  -1  18  -1
M  END
>  <UniqueID>  (24) 
24

>  <SMILES>  (24) 
Cc1ccc2cc(C([NH-])=O)n(C(=O)OCC(=O)[O-])c2c1

>  <Energy>  (24) 
66.65857395023502

>  <Genealogy>  (24) 
Cc1ccc2cc(C([NH-])=O)n(C(=O)OCC(=O)[O-])c2c1 (protonated)
Cc1ccc2cc(C([NH-])=O)n(C(=O)OCC(=O)[O-])c2c1 (3D coordinates assigned)
Cc1ccc2cc(C([NH-])=O)n(C(=O)OCC(=O)[O-])c2c1 (optimized conformer: 66.65857395023502 kcal/mol)

>  <smiles>  (24) 
Cc1ccc2cc(C(N)=O)n(C(=O)OCC(=O)O)c2c1

>  <score_type>  (24) 
oracle

>  <origin>  (24) 
adg

>  <m_score__min__energy>  (24) 
-6.1799999999999997

>  <m_primary>  (24) 
energy

$$$$
24:0
     RDKit          3D

 34 36  0  0  0  0  0  0  0  0999 V2000
  141.2060  159.2560  136.5630 C   0  0  0  0  0  0  0  0  0  0  0  0
  140.7400  158.6760  135.3060 N   0  0  0  0  0  0  0  0  0  0  0  0
  139.5350  158.1440  135.1670 N   0  0  0  0  0  0  0  0  0  0  0  0
  139.4530  157.6790  133.9070 C   0  0  0  0  0  0  0  0  0  0  0  0
  138.2990  157.0300  133.3780 N   0  0  0  0  0  0  0  0  0  0  0  0
  140.6250  157.9130  133.2190 C   0  0  0  0  0  0  0  0  0  0  0  0
  141.4240  158.5670  134.1410 C   0  0  0  0  0  0  0  0  0  0  0  0
  142.8020  159.0400  133.8860 C   0  0  0  0  0  0  0  0  0  0  0  0
  143.0920  160.4260  133.9450 C   0  0  0  0  0  0  0  0  0  0  0  0
  144.3970  160.8970  133.7320 C   0  0  0  0  0  0  0  0  0  0  0  0
  145.3920  159.9610  133.4660 C   0  0  0  0  0  0  0  0  0  0  0  0
  146.7390  160.1420  133.2520 C   0  0  0  0  0  0  0  0  0  0  0  0
  147.2570  158.8630  133.0580 C   0  0  0  0  0  0  0  0  0  0  0  0
  148.6680  158.5900  132.7040 C   0  0  0  0  0  0  0  0  0  0  0  0
  149.0080  157.4910  131.8560 N   0  0  0  0  0  0  0  0  0  0  0  0
  149.5880  159.3070  133.1750 O   0  0  0  0  0  0  0  0  0  0  0  0
  146.2680  157.9280  133.1520 N   0  0  0  0  0  0  0  0  0  0  0  0
  146.3990  156.4980  133.0690 C   0  0  0  0  0  0  0  0  0  0  0  0
  146.0550  155.7700  134.0360 O   0  0  0  0  0  0  0  0  0  0  0  0
  146.8940  155.9040  131.9140 O   0  0  0  0  0  0  0  0  0  0  0  0
  145.1320  158.6180  133.4010 C   0  0  0  0  0  0  0  0  0  0  0  0
  143.8440  158.1200  133.6310 C   0  0  0  0  0  0  0  0  0  0  0  0
  140.7640  158.7058  137.4068 H   0  0  0  0  0  0  0  0  0  0  0  0
  142.3026  159.1869  136.6144 H   0  0  0  0  0  0  0  0  0  0  0  0
  140.9023  160.3120  136.6144 H   0  0  0  0  0  0  0  0  0  0  0  0
  138.3670  156.0560  133.0080 H   0  0  0  0  0  0  0  0  0  0  0  0
  137.3790  157.5230  133.3560 H   0  0  0  0  0  0  0  0  0  0  0  0
  140.8680  157.6431  132.1807 H   0  0  0  0  0  0  0  0  0  0  0  0
  142.2846  161.1413  134.1604 H   0  0  0  0  0  0  0  0  0  0  0  0
  144.6260  161.9721  133.7740 H   0  0  0  0  0  0  0  0  0  0  0  0
  147.2899  161.0940  133.2372 H   0  0  0  0  0  0  0  0  0  0  0  0
  148.2710  156.9070  131.4030 H   0  0  0  0  0  0  0  0  0  0  0  0
  150.0090  157.2830  131.6460 H   0  0  0  0  0  0  0  0  0  0  0  0
  143.6476  157.0378  133.6136 H   0  0  0  0  0  0  0  0  0  0  0  0
  1  2  1  0
  2  3  1  0
  3  4  2  0
  4  5  1  0
  4  6  1  0
  6  7  2  0
  7  8  1  0
  8  9  2  0
  9 10  1  0
 10 11  2  0
 11 12  1  0
 12 13  2  0
 13 14  1  0
 14 15  1  0
 14 16  2  0
 13 17  1  0
 17 18  1  0
 18 19  2  0
 18 20  1  0
 17 21  1  0
 21 22  2  0
  7  2  1  0
 22  8  1  0
 21 11  1  0
  1 23  1  0
  1 24  1  0
  1 25  1  0
  5 26  1  0
  5 27  1  0
  6 28  1  0
  9 29  1  0
 10 30  1  0
 12 31  1  0
 15 32  1  0
 15 33  1  0
 22 34  1  0
M  CHG  1  20  -1
M  END
>  <UniqueID>  (25) 
25

>  <SMILES>  (25) 
Cn1nc(N)cc1-c1ccc2cc(C(N)=O)n(C(=O)[O-])c2c1

>  <Energy>  (25) 
109.02973171626915

>  <Genealogy>  (25) 
Cn1nc(N)cc1-c1ccc2cc(C(N)=O)n(C(=O)[O-])c2c1 (protonated)
Cn1nc(N)cc1-c1ccc2cc(C(N)=O)n(C(=O)[O-])c2c1 (3D coordinates assigned)
Cn1nc(N)cc1-c1ccc2cc(C(N)=O)n(C(=O)[O-])c2c1 (optimized conformer: 109.02973171626915 kcal/mol)

>  <smiles>  (25) 
Cn1nc(N)cc1-c1ccc2cc(C(N)=O)n(C(=O)O)c2c1

>  <score_type>  (25) 
oracle

>  <origin>  (25) 
adg

>  <m_score__min__energy>  (25) 
-7.2599999999999998

>  <m_primary>  (25) 
energy

$$$$
25:0
     RDKit          3D

 49 51  0  0  0  0  0  0  0  0999 V2000
  150.8400  150.3170  130.4030 C   0  0  0  0  0  0  0  0  0  0  0  0
  149.5310  150.4270  130.9450 O   0  0  0  0  0  0  0  0  0  0  0  0
  149.2890  150.8810  132.2460 C   0  0  0  0  0  0  0  0  0  0  0  0
  149.4550  150.1060  133.2280 O   0  0  0  0  0  0  0  0  0  0  0  0
  148.8350  152.2720  132.4680 C   0  0  0  0  0  0  0  0  0  0  0  0
  147.4890  152.5400  132.7690 C   0  0  0  0  0  0  0  0  0  0  0  0
  147.0580  153.8510  132.9890 C   0  0  0  0  0  0  0  0  0  0  0  0
  147.9630  154.9230  132.9100 C   0  0  0  0  0  0  0  0  0  0  0  0
  147.5120  156.3170  133.1580 C   0  0  0  0  0  0  0  0  0  0  0  0
  148.4620  157.3480  133.3880 C   0  0  0  0  0  0  0  0  0  0  0  0
  148.0460  158.6720  133.6040 C   0  0  0  0  0  0  0  0  0  0  0  0
  146.6810  158.9420  133.5730 C   0  0  0  0  0  0  0  0  0  0  0  0
  146.0120  160.1280  133.7630 C   0  0  0  0  0  0  0  0  0  0  0  0
  144.6620  159.8150  133.6250 C   0  0  0  0  0  0  0  0  0  0  0  0
  143.5880  160.8260  133.6710 C   0  0  0  0  0  0  0  0  0  0  0  0
  142.2130  160.4520  133.5890 N   0  0  0  0  0  0  0  0  0  0  0  0
  143.8880  162.0460  133.7210 O   0  0  0  0  0  0  0  0  0  0  0  0
  144.4990  158.4840  133.3780 N   0  0  0  0  0  0  0  0  0  0  0  0
  143.2600  157.7570  133.3160 C   0  0  0  0  0  0  0  0  0  0  0  0
  142.5360  157.8300  132.2890 O   0  0  0  0  0  0  0  0  0  0  0  0
  142.8600  156.9700  134.4000 O   0  0  0  0  0  0  0  0  0  0  0  0
  142.4470  157.5170  135.6480 C   0  0  2  0  0  0  0  0  0  0  0  0
  141.4940  156.5270  136.3090 C   0  0  0  0  0  0  0  0  0  0  0  0
  141.7660  158.7290  135.4000 O   0  0  0  0  0  0  0  0  0  0  0  0
  140.2480  158.4240  134.6800 P   0  0  0  0  0  0  0  0  0  0  0  0
  140.3420  157.1590  133.8560 O   0  0  0  0  0  0  0  0  0  0  0  0
  139.0600  158.2200  135.8670 O   0  0  0  0  0  0  0  0  0  0  0  0
  139.8220  159.7110  133.6720 O   0  0  0  0  0  0  0  0  0  0  0  0
  145.7480  157.9640  133.3430 C   0  0  0  0  0  0  0  0  0  0  0  0
  146.1330  156.6310  133.1500 C   0  0  0  0  0  0  0  0  0  0  0  0
  149.3090  154.6550  132.6030 C   0  0  0  0  0  0  0  0  0  0  0  0
  149.7400  153.3440  132.3840 C   0  0  0  0  0  0  0  0  0  0  0  0
  151.5719  150.2555  131.2218 H   0  0  0  0  0  0  0  0  0  0  0  0
  150.9055  149.4102  129.7838 H   0  0  0  0  0  0  0  0  0  0  0  0
  151.0559  151.2002  129.7838 H   0  0  0  0  0  0  0  0  0  0  0  0
  146.7686  151.7111  132.8320 H   0  0  0  0  0  0  0  0  0  0  0  0
  146.0016  154.0453  133.2260 H   0  0  0  0  0  0  0  0  0  0  0  0
  149.5352  157.1067  133.3970 H   0  0  0  0  0  0  0  0  0  0  0  0
  148.7774  159.4718  133.7921 H   0  0  0  0  0  0  0  0  0  0  0  0
  146.4497  161.1140  133.9782 H   0  0  0  0  0  0  0  0  0  0  0  0
  141.9340  159.4660  133.3730 H   0  0  0  0  0  0  0  0  0  0  0  0
  141.4670  161.1800  133.6340 H   0  0  0  0  0  0  0  0  0  0  0  0
  143.3115  157.7023  136.3025 H   0  0  0  0  0  0  0  0  0  0  0  0
  141.5766  156.6128  137.4025 H   0  0  0  0  0  0  0  0  0  0  0  0
  140.4619  156.7499  136.0007 H   0  0  0  0  0  0  0  0  0  0  0  0
  141.7560  155.5041  136.0007 H   0  0  0  0  0  0  0  0  0  0  0  0
  145.3789  155.8452  132.9955 H   0  0  0  0  0  0  0  0  0  0  0  0
  150.0285  155.4843  132.5347 H   0  0  0  0  0  0  0  0  0  0  0  0
  150.7957  153.1495  132.1440 H   0  0  0  0  0  0  0  0  0  0  0  0
  1  2  1  0
  2  3  1  0
  3  4  2  0
  3  5  1  0
  5  6  2  0
  6  7  1  0
  7  8  2  0
  8  9  1  0
  9 10  2  0
 10 11  1  0
 11 12  2  0
 12 13  1  0
 13 14  2  0
 14 15  1  0
 15 16  1  0
 15 17  2  0
 14 18  1  0
 18 19  1  0
 19 20  2  0
 19 21  1  0
 21 22  1  0
 22 23  1  0
 22 24  1  0
 24 25  1  0
 25 26  2  0
 25 27  1  0
 25 28  1  0
 18 29  1  0
 29 30  2  0
  8 31  1  0
 31 32  2  0
 32  5  1  0
 30  9  1  0
 29 12  1  0
  1 33  1  0
  1 34  1  0
  1 35  1  0
  6 36  1  0
  7 37  1  0
 10 38  1  0
 11 39  1  0
 13 40  1  0
 16 41  1  0
 16 42  1  0
 22 43  1  1
 23 44  1  0
 23 45  1  0
 23 46  1  0
 30 47  1  0
 31 48  1  0
 32 49  1  0
M  CHG  2  27  -1  28  -1
M  END
>  <UniqueID>  (26) 
26

>  <SMILES>  (26) 
COC(=O)c1ccc(-c2ccc3cc(C(N)=O)n(C(=O)O[C@H](C)OP(=O)([O-])[O-])c3c2)cc1

>  <Energy>  (26) 
91.03199732377968

>  <Genealogy>  (26) 
COC(=O)c1ccc(-c2ccc3cc(C(N)=O)n(C(=O)OC(C)OP(=O)([O-])[O-])c3c2)cc1 (protonated)
COC(=O)c1ccc(-c2ccc3cc(C(N)=O)n(C(=O)O[C@H](C)OP(=O)([O-])[O-])c3c2)cc1 (chirality)
COC(=O)c1ccc(-c2ccc3cc(C(N)=O)n(C(=O)O[C@H](C)OP(=O)([O-])[O-])c3c2)cc1 (3D coordinates assigned)
COC(=O)c1ccc(-c2ccc3cc(C(N)=O)n(C(=O)O[C@H](C)OP(=O)([O-])[O-])c3c2)cc1 (optimized conformer: 91.03199732377968 kcal/mol)

>  <smiles>  (26) 
COC(=O)c1ccc(-c2ccc3cc(C(N)=O)n(C(=O)OC(C)OP(=O)(O)O)c3c2)cc1

>  <score_type>  (26) 
oracle

>  <origin>  (26) 
adg

>  <m_score__min__energy>  (26) 
-8.4399999999999995

>  <m_primary>  (26) 
energy

$$$$
26:0
     RDKit          3D

 34 36  0  0  0  0  0  0  0  0999 V2000
  148.1950  157.9800  134.3320 N   0  0  0  0  0  0  0  0  0  0  0  0
  147.4390  159.0310  133.7290 C   0  0  0  0  0  0  0  0  0  0  0  0
  148.0450  159.9870  133.1740 O   0  0  0  0  0  0  0  0  0  0  0  0
  145.9650  158.9850  133.6840 C   0  0  0  0  0  0  0  0  0  0  0  0
  145.1630  160.1210  133.7040 C   0  0  0  0  0  0  0  0  0  0  0  0
  143.8730  159.6560  133.5860 C   0  0  0  0  0  0  0  0  0  0  0  0
  142.6750  160.3560  133.5580 C   0  0  0  0  0  0  0  0  0  0  0  0
  141.4840  159.6200  133.4650 C   0  0  0  0  0  0  0  0  0  0  0  0
  141.4930  158.1930  133.4200 C   0  0  0  0  0  0  0  0  0  0  0  0
  140.1690  157.4110  133.3190 C   0  0  0  0  0  0  0  0  0  0  0  0
  140.2750  155.8730  133.1880 C   0  0  0  0  0  0  0  0  0  0  0  0
  139.0020  155.3190  132.9920 O   0  0  0  0  0  0  0  0  0  0  0  0
  139.1870  158.0130  132.3240 C   0  0  0  0  0  0  0  0  0  0  0  0
  138.2740  158.3750  133.3340 O   0  0  0  0  0  0  0  0  0  0  0  0
  139.1070  157.8280  134.3300 C   0  0  0  0  0  0  0  0  0  0  0  0
  142.7490  157.5280  133.4420 C   0  0  0  0  0  0  0  0  0  0  0  0
  143.9210  158.2900  133.5110 C   0  0  0  0  0  0  0  0  0  0  0  0
  145.2030  157.8600  133.5720 N   0  0  0  0  0  0  0  0  0  0  0  0
  145.6500  156.4930  133.6320 C   0  0  0  0  0  0  0  0  0  0  0  0
  146.3100  156.0840  134.6220 O   0  0  0  0  0  0  0  0  0  0  0  0
  145.3620  155.6120  132.5970 O   0  0  0  0  0  0  0  0  0  0  0  0
  149.2360  158.0500  134.3890 H   0  0  0  0  0  0  0  0  0  0  0  0
  147.7360  157.0970  134.6450 H   0  0  0  0  0  0  0  0  0  0  0  0
  145.4898  161.1674  133.7947 H   0  0  0  0  0  0  0  0  0  0  0  0
  142.6596  161.4548  133.6072 H   0  0  0  0  0  0  0  0  0  0  0  0
  140.5230  160.1538  133.4259 H   0  0  0  0  0  0  0  0  0  0  0  0
  140.9166  155.6240  132.3299 H   0  0  0  0  0  0  0  0  0  0  0  0
  140.7094  155.4614  134.1109 H   0  0  0  0  0  0  0  0  0  0  0  0
  138.3680  156.0830  132.9780 H   0  0  0  0  0  0  0  0  0  0  0  0
  139.5944  158.8738  131.7736 H   0  0  0  0  0  0  0  0  0  0  0  0
  138.8334  157.3934  131.4867 H   0  0  0  0  0  0  0  0  0  0  0  0
  139.4639  158.5706  135.0588 H   0  0  0  0  0  0  0  0  0  0  0  0
  138.6937  157.0687  135.0102 H   0  0  0  0  0  0  0  0  0  0  0  0
  142.7992  156.4298  133.4053 H   0  0  0  0  0  0  0  0  0  0  0  0
  1  2  1  0
  2  3  2  0
  2  4  1  0
  4  5  2  0
  5  6  1  0
  6  7  2  0
  7  8  1  0
  8  9  2  0
  9 10  1  0
 10 11  1  0
 11 12  1  0
 10 13  1  0
 13 14  1  0
 14 15  1  0
  9 16  1  0
 16 17  2  0
 17 18  1  0
 18 19  1  0
 19 20  2  0
 19 21  1  0
 18  4  1  0
 17  6  1  0
 15 10  1  0
  1 22  1  0
  1 23  1  0
  5 24  1  0
  7 25  1  0
  8 26  1  0
 11 27  1  0
 11 28  1  0
 12 29  1  0
 13 30  1  0
 13 31  1  0
 15 32  1  0
 15 33  1  0
 16 34  1  0
M  CHG  1  21  -1
M  END
>  <UniqueID>  (27) 
27

>  <SMILES>  (27) 
NC(=O)c1cc2ccc(C3(CO)COC3)cc2n1C(=O)[O-]

>  <Energy>  (27) 
145.11367417947

>  <Genealogy>  (27) 
NC(=O)c1cc2ccc(C3(CO)COC3)cc2n1C(=O)[O-] (protonated)
NC(=O)c1cc2ccc(C3(CO)COC3)cc2n1C(=O)[O-] (3D coordinates assigned)
NC(=O)c1cc2ccc(C3(CO)COC3)cc2n1C(=O)[O-] (nonaromatic ring conformer: 145.11367417947 kcal/mol)

>  <smiles>  (27) 
NC(=O)c1cc2ccc(C3(CO)COC3)cc2n1C(=O)O

>  <score_type>  (27) 
oracle

>  <origin>  (27) 
adg

>  <m_score__min__energy>  (27) 
-6.46

>  <m_primary>  (27) 
energy

$$$$
27:0
     RDKit          3D

 30 31  0  0  0  0  0  0  0  0999 V2000
  147.0070  160.8620  132.6350 H   0  0  0  0  0  0  0  0  0  0  0  0
  146.2710  160.7940  133.3730 N   0  0  0  0  0  0  0  0  0  0  0  0
  145.4020  159.6650  133.4410 C   0  0  0  0  0  0  0  0  0  0  0  0
  144.1610  159.8500  133.5540 O   0  0  0  0  0  0  0  0  0  0  0  0
  145.9300  158.2870  133.3370 C   0  0  0  0  0  0  0  0  0  0  0  0
  145.1350  157.1510  133.4700 C   0  0  0  0  0  0  0  0  0  0  0  0
  144.0598  157.1125  133.6991 H   0  0  0  0  0  0  0  0  0  0  0  0
  145.9800  156.0880  133.2540 C   0  0  0  0  0  0  0  0  0  0  0  0
  145.7190  154.7210  133.2750 C   0  0  0  0  0  0  0  0  0  0  0  0
  144.7038  154.3402  133.4605 H   0  0  0  0  0  0  0  0  0  0  0  0
  146.7920  153.8430  133.0520 C   0  0  0  0  0  0  0  0  0  0  0  0
  146.6125  152.7578  133.0401 H   0  0  0  0  0  0  0  0  0  0  0  0
  148.1040  154.3380  132.8420 C   0  0  0  0  0  0  0  0  0  0  0  0
  149.2420  153.3880  132.5680 C   0  0  0  0  0  0  0  0  0  0  0  0
  148.8980  152.5590  131.5160 F   0  0  0  0  0  0  0  0  0  0  0  0
  149.5120  152.6130  133.6820 F   0  0  0  0  0  0  0  0  0  0  0  0
  150.3910  154.0850  132.2370 F   0  0  0  0  0  0  0  0  0  0  0  0
  148.3240  155.7350  132.8090 C   0  0  0  0  0  0  0  0  0  0  0  0
  149.3307  156.1417  132.6326 H   0  0  0  0  0  0  0  0  0  0  0  0
  147.2310  156.5890  133.0060 C   0  0  0  0  0  0  0  0  0  0  0  0
  147.2150  157.9410  133.0400 N   0  0  0  0  0  0  0  0  0  0  0  0
  148.3530  158.8180  132.9260 C   0  0  0  0  0  0  0  0  0  0  0  0
  148.5250  159.7170  133.7910 O   0  0  0  0  0  0  0  0  0  0  0  0
  149.3910  158.6350  131.8900 C   0  0  0  0  0  0  0  0  0  0  0  0
  150.0686  157.7766  132.0082 H   0  0  0  0  0  0  0  0  0  0  0  0
  149.5830  159.4200  130.8180 C   0  0  0  0  0  0  0  0  0  0  0  0
  150.2751  159.0552  130.0447 H   0  0  0  0  0  0  0  0  0  0  0  0
  148.9460  160.7280  130.5890 C   0  0  0  0  0  0  0  0  0  0  0  0
  147.6900  160.8070  130.5670 O   0  0  0  0  0  0  0  0  0  0  0  0
  149.7030  161.8570  130.3050 O   0  0  0  0  0  0  0  0  0  0  0  0
  1  2  1  0
  2  3  1  0
  3  4  2  0
  3  5  1  0
  5  6  2  0
  6  7  1  0
  6  8  1  0
  8  9  2  0
  9 10  1  0
  9 11  1  0
 11 12  1  0
 11 13  2  0
 13 14  1  0
 14 15  1  0
 14 16  1  0
 14 17  1  0
 13 18  1  0
 18 19  1  0
 18 20  2  0
 20 21  1  0
 21 22  1  0
 22 23  2  0
 22 24  1  0
 24 25  1  0
 24 26  2  0
 26 27  1  0
 26 28  1  0
 28 29  2  0
 28 30  1  0
 21  5  1  0
 20  8  1  0
M  CHG  2   2  -1  30  -1
M  END
>  <UniqueID>  (28) 
28

>  <SMILES>  (28) 
[NH-]C(=O)c1cc2ccc(C(F)(F)F)cc2n1C(=O)/C=C\C(=O)[O-]

>  <Energy>  (28) 
76.02768980022265

>  <Genealogy>  (28) 
[NH-]C(=O)c1cc2ccc(C(F)(F)F)cc2n1C(=O)/C=C\C(=O)[O-] (protonated)
[NH-]C(=O)c1cc2ccc(C(F)(F)F)cc2n1C(=O)/C=C\C(=O)[O-] (cis-trans isomerization)
[NH-]C(=O)c1cc2ccc(C(F)(F)F)cc2n1C(=O)/C=C\C(=O)[O-] (3D coordinates assigned)
[NH-]C(=O)c1cc2ccc(C(F)(F)F)cc2n1C(=O)/C=C\C(=O)[O-] (optimized conformer: 76.02768980022265 kcal/mol)

>  <smiles>  (28) 
NC(=O)c1cc2ccc(C(F)(F)F)cc2n1C(=O)/C=C\C(=O)O

>  <score_type>  (28) 
oracle

>  <origin>  (28) 
adg

>  <m_score__min__energy>  (28) 
-6.2699999999999996

>  <m_primary>  (28) 
energy

$$$$
28:0
     RDKit          3D

 32 33  0  0  0  0  0  0  0  0999 V2000
  140.7300  156.2290  133.7330 C   0  0  0  0  0  0  0  0  0  0  0  0
  141.9350  156.3480  134.6740 C   0  0  0  0  0  0  0  0  0  0  0  0
  142.5500  155.1060  134.7270 F   0  0  0  0  0  0  0  0  0  0  0  0
  141.4810  156.6650  135.9420 F   0  0  0  0  0  0  0  0  0  0  0  0
  142.9520  157.3980  134.2510 C   0  0  0  0  0  0  0  0  0  0  0  0
  142.4890  158.6940  133.9040 C   0  0  0  0  0  0  0  0  0  0  0  0
  143.3790  159.6920  133.4780 C   0  0  0  0  0  0  0  0  0  0  0  0
  144.7240  159.3600  133.3680 C   0  0  0  0  0  0  0  0  0  0  0  0
  145.7940  160.1400  132.9990 C   0  0  0  0  0  0  0  0  0  0  0  0
  146.9000  159.2990  133.0640 C   0  0  0  0  0  0  0  0  0  0  0  0
  148.2680  159.7380  132.7130 C   0  0  0  0  0  0  0  0  0  0  0  0
  149.4220  158.9750  133.0800 N   0  0  0  0  0  0  0  0  0  0  0  0
  148.4190  160.7890  132.0340 O   0  0  0  0  0  0  0  0  0  0  0  0
  146.5350  158.0490  133.4670 N   0  0  0  0  0  0  0  0  0  0  0  0
  147.4090  156.9400  133.7510 C   0  0  0  0  0  0  0  0  0  0  0  0
  147.8290  156.7610  134.9250 O   0  0  0  0  0  0  0  0  0  0  0  0
  147.8680  156.0160  132.6670 C   0  0  0  0  0  0  0  0  0  0  0  0
  149.2700  156.0050  132.6150 O   0  0  0  0  0  0  0  0  0  0  0  0
  145.1940  158.1040  133.6490 C   0  0  0  0  0  0  0  0  0  0  0  0
  144.3330  157.1010  134.1100 C   0  0  0  0  0  0  0  0  0  0  0  0
  139.8086  156.1380  134.3269 H   0  0  0  0  0  0  0  0  0  0  0  0
  140.6703  157.1256  133.0986 H   0  0  0  0  0  0  0  0  0  0  0  0
  140.8468  155.3380  133.0986 H   0  0  0  0  0  0  0  0  0  0  0  0
  141.4145  158.9200  133.9701 H   0  0  0  0  0  0  0  0  0  0  0  0
  143.0232  160.7050  133.2387 H   0  0  0  0  0  0  0  0  0  0  0  0
  145.7789  161.2022  132.7134 H   0  0  0  0  0  0  0  0  0  0  0  0
  149.3380  158.0240  133.5090 H   0  0  0  0  0  0  0  0  0  0  0  0
  150.3740  159.3240  132.8310 H   0  0  0  0  0  0  0  0  0  0  0  0
  147.5021  154.9995  132.8742 H   0  0  0  0  0  0  0  0  0  0  0  0
  147.4711  156.3628  131.7015 H   0  0  0  0  0  0  0  0  0  0  0  0
  149.5870  156.4610  133.4400 H   0  0  0  0  0  0  0  0  0  0  0  0
  144.7193  156.1015  134.3583 H   0  0  0  0  0  0  0  0  0  0  0  0
  1  2  1  0
  2  3  1  0
  2  4  1  0
  2  5  1  0
  5  6  2  0
  6  7  1  0
  7  8  2  0
  8  9  1  0
  9 10  2  0
 10 11  1  0
 11 12  1  0
 11 13  2  0
 10 14  1  0
 14 15  1  0
 15 16  2  0
 15 17  1  0
 17 18  1  0
 14 19  1  0
 19 20  2  0
 20  5  1  0
 19  8  1  0
  1 21  1  0
  1 22  1  0
  1 23  1  0
  6 24  1  0
  7 25  1  0
  9 26  1  0
 12 27  1  0
 12 28  1  0
 17 29  1  0
 17 30  1  0
 18 31  1  0
 20 32  1  0
M  END
>  <UniqueID>  (29) 
29

>  <SMILES>  (29) 
CC(F)(F)c1ccc2cc(C(N)=O)n(C(=O)CO)c2c1

>  <Energy>  (29) 
72.69526806028772

>  <Genealogy>  (29) 
CC(F)(F)c1ccc2cc(C(N)=O)n(C(=O)CO)c2c1 (3D coordinates assigned)
CC(F)(F)c1ccc2cc(C(N)=O)n(C(=O)CO)c2c1 (optimized conformer: 72.69526806028772 kcal/mol)

>  <smiles>  (29) 
CC(F)(F)c1ccc2cc(C(N)=O)n(C(=O)CO)c2c1

>  <score_type>  (29) 
oracle

>  <origin>  (29) 
adg

>  <m_score__min__energy>  (29) 
-5.7000000000000002

>  <m_primary>  (29) 
energy

$$$$
29:0
     RDKit          3D

 43 46  0  0  0  0  0  0  0  0999 V2000
  149.2370  153.9590  138.2370 C   0  0  0  0  0  0  0  0  0  0  0  0
  148.6320  154.5930  137.1160 O   0  0  0  0  0  0  0  0  0  0  0  0
  147.5770  154.0180  136.4040 C   0  0  0  0  0  0  0  0  0  0  0  0
  146.9830  152.9970  136.8460 O   0  0  0  0  0  0  0  0  0  0  0  0
  147.1620  154.6140  135.1310 C   0  0  0  0  0  0  0  0  0  0  0  0
  147.8280  154.5480  133.9240 C   0  0  0  0  0  0  0  0  0  0  0  0
  147.1050  155.2310  133.0200 N   0  0  0  0  0  0  0  0  0  0  0  0
  146.0330  155.6810  133.7020 C   0  0  0  0  0  0  0  0  0  0  0  0
  144.9510  156.4840  133.1140 C   0  0  0  0  0  0  0  0  0  0  0  0
  144.0010  155.9150  132.5130 O   0  0  0  0  0  0  0  0  0  0  0  0
  144.9680  157.9150  133.2280 N   0  0  0  0  0  0  0  0  0  0  0  0
  146.0370  158.7520  133.1180 C   0  0  0  0  0  0  0  0  0  0  0  0
  147.4450  158.3420  132.9290 C   0  0  0  0  0  0  0  0  0  0  0  0
  147.8210  157.4600  131.8740 N   0  0  0  0  0  0  0  0  0  0  0  0
  148.3280  158.7550  133.7280 O   0  0  0  0  0  0  0  0  0  0  0  0
  145.6350  160.0780  133.2810 C   0  0  0  0  0  0  0  0  0  0  0  0
  144.2770  160.0240  133.5000 C   0  0  0  0  0  0  0  0  0  0  0  0
  143.3630  161.0470  133.7390 C   0  0  0  0  0  0  0  0  0  0  0  0
  142.0150  160.6950  133.9290 C   0  0  0  0  0  0  0  0  0  0  0  0
  141.6060  159.3400  133.8540 C   0  0  0  0  0  0  0  0  0  0  0  0
  140.1690  158.9630  134.0800 C   0  0  0  0  0  0  0  0  0  0  0  0
  139.4230  159.0770  132.8310 N   0  0  0  0  0  0  0  0  0  0  0  0
  139.3860  160.1380  132.0070 C   0  0  0  0  0  0  0  0  0  0  0  0
  138.6470  159.8750  130.9140 N   0  0  0  0  0  0  0  0  0  0  0  0
  138.2550  158.5990  131.1240 C   0  0  0  0  0  0  0  0  0  0  0  0
  138.7270  158.0990  132.2830 N   0  0  0  0  0  0  0  0  0  0  0  0
  142.5610  158.3310  133.6100 C   0  0  0  0  0  0  0  0  0  0  0  0
  143.8990  158.7080  133.4560 C   0  0  0  0  0  0  0  0  0  0  0  0
  146.0660  155.3160  134.9650 O   0  0  0  0  0  0  0  0  0  0  0  0
  148.8288  154.3867  139.1646 H   0  0  0  0  0  0  0  0  0  0  0  0
  149.0252  152.8800  138.2065 H   0  0  0  0  0  0  0  0  0  0  0  0
  150.3247  154.1201  138.2065 H   0  0  0  0  0  0  0  0  0  0  0  0
  148.7797  154.0295  133.7357 H   0  0  0  0  0  0  0  0  0  0  0  0
  147.3290  155.3730  132.0100 H   0  0  0  0  0  0  0  0  0  0  0  0
  147.1170  156.8390  131.4170 H   0  0  0  0  0  0  0  0  0  0  0  0
  146.2688  160.9762  133.2427 H   0  0  0  0  0  0  0  0  0  0  0  0
  143.6856  162.0979  133.7779 H   0  0  0  0  0  0  0  0  0  0  0  0
  141.2713  161.4782  134.1377 H   0  0  0  0  0  0  0  0  0  0  0  0
  140.1168  157.9258  134.4426 H   0  0  0  0  0  0  0  0  0  0  0  0
  139.7301  159.6407  134.8270 H   0  0  0  0  0  0  0  0  0  0  0  0
  139.8929  161.0949  132.2006 H   0  0  0  0  0  0  0  0  0  0  0  0
  137.6212  158.0316  130.4266 H   0  0  0  0  0  0  0  0  0  0  0  0
  142.2611  157.2748  133.5426 H   0  0  0  0  0  0  0  0  0  0  0  0
  1  2  1  0
  2  3  1  0
  3  4  2  0
  3  5  1  0
  5  6  2  0
  6  7  1  0
  7  8  2  0
  8  9  1  0
  9 10  2  0
  9 11  1  0
 11 12  1  0
 12 13  1  0
 13 14  1  0
 13 15  2  0
 12 16  2  0
 16 17  1  0
 17 18  2  0
 18 19  1  0
 19 20  2  0
 20 21  1  0
 21 22  1  0
 22 23  1  0
 23 24  2  0
 24 25  1  0
 25 26  2  0
 20 27  1  0
 27 28  2  0
  8 29  1  0
 29  5  1  0
 28 11  1  0
 28 17  1  0
 26 22  1  0
  1 30  1  0
  1 31  1  0
  1 32  1  0
  6 33  1  0
  7 34  1  0
 14 35  1  0
 16 36  1  0
 18 37  1  0
 19 38  1  0
 21 39  1  0
 21 40  1  0
 23 41  1  0
 25 42  1  0
 27 43  1  0
M  CHG  2   7   1  14  -1
M  END
>  <UniqueID>  (30) 
30

>  <SMILES>  (30) 
COC(=O)c1c[nH+]c(C(=O)n2c(C([NH-])=O)cc3ccc(Cn4cncn4)cc32)o1

>  <Energy>  (30) 
142.28699009896363

>  <Genealogy>  (30) 
COC(=O)c1c[nH+]c(C(=O)n2c(C([NH-])=O)cc3ccc(Cn4cncn4)cc32)o1 (protonated)
COC(=O)c1c[nH+]c(C(=O)n2c(C([NH-])=O)cc3ccc(Cn4cncn4)cc32)o1 (3D coordinates assigned)
COC(=O)c1c[nH+]c(C(=O)n2c(C([NH-])=O)cc3ccc(Cn4cncn4)cc32)o1 (optimized conformer: 142.28699009896363 kcal/mol)

>  <smiles>  (30) 
COC(=O)c1cnc(C(=O)n2c(C(N)=O)cc3ccc(Cn4cncn4)cc32)o1

>  <score_type>  (30) 
oracle

>  <origin>  (30) 
adg

>  <m_score__min__energy>  (30) 
-7.0199999999999996

>  <m_primary>  (30) 
energy

$$$$
30:0
     RDKit          3D

 34 36  0  0  0  0  0  0  0  0999 V2000
  147.8640  153.4380  135.6790 N   0  0  0  0  0  0  0  0  0  0  0  0
  146.9030  154.4340  135.3370 C   0  0  0  0  0  0  0  0  0  0  0  0
  145.6990  154.2680  135.6740 O   0  0  0  0  0  0  0  0  0  0  0  0
  147.2900  155.6370  134.5720 C   0  0  0  0  0  0  0  0  0  0  0  0
  146.8450  156.9240  134.8750 C   0  0  0  0  0  0  0  0  0  0  0  0
  147.3820  157.7350  133.9000 C   0  0  0  0  0  0  0  0  0  0  0  0
  147.2590  159.1070  133.7040 C   0  0  0  0  0  0  0  0  0  0  0  0
  147.9300  159.6780  132.6100 C   0  0  0  0  0  0  0  0  0  0  0  0
  148.7250  158.8790  131.7460 C   0  0  0  0  0  0  0  0  0  0  0  0
  149.4040  159.4980  130.5500 C   0  0  0  0  0  0  0  0  0  0  0  0
  149.2620  158.6910  129.4350 F   0  0  0  0  0  0  0  0  0  0  0  0
  150.7560  159.6690  130.7910 F   0  0  0  0  0  0  0  0  0  0  0  0
  148.8320  160.7300  130.2910 F   0  0  0  0  0  0  0  0  0  0  0  0
  148.8040  157.4840  131.9660 C   0  0  0  0  0  0  0  0  0  0  0  0
  148.1180  156.9440  133.0570 C   0  0  0  0  0  0  0  0  0  0  0  0
  148.0770  155.6580  133.4600 N   0  0  0  0  0  0  0  0  0  0  0  0
  148.7630  154.5610  132.8390 C   0  0  0  0  0  0  0  0  0  0  0  0
  149.9870  154.6830  132.5630 O   0  0  0  0  0  0  0  0  0  0  0  0
  148.0640  153.2840  132.5550 C   0  0  0  0  0  0  0  0  0  0  0  0
  148.7950  152.1280  132.2330 C   0  0  0  0  0  0  0  0  0  0  0  0
  148.1220  150.9340  131.9670 C   0  0  0  0  0  0  0  0  0  0  0  0
  146.7640  150.8860  132.0220 N   0  0  0  0  0  0  0  0  0  0  0  0
  146.0300  151.9870  132.3390 C   0  0  0  0  0  0  0  0  0  0  0  0
  146.6630  153.2010  132.6120 C   0  0  0  0  0  0  0  0  0  0  0  0
  148.0630  152.6400  135.0370 H   0  0  0  0  0  0  0  0  0  0  0  0
  146.2018  157.2267  135.7144 H   0  0  0  0  0  0  0  0  0  0  0  0
  146.6551  159.7252  134.3845 H   0  0  0  0  0  0  0  0  0  0  0  0
  147.8385  160.7576  132.4201 H   0  0  0  0  0  0  0  0  0  0  0  0
  149.3911  156.8400  131.2947 H   0  0  0  0  0  0  0  0  0  0  0  0
  149.8936  152.1636  132.1907 H   0  0  0  0  0  0  0  0  0  0  0  0
  148.6924  150.0287  131.7120 H   0  0  0  0  0  0  0  0  0  0  0  0
  146.2750  149.9860  131.8210 H   0  0  0  0  0  0  0  0  0  0  0  0
  144.9328  151.9202  132.3804 H   0  0  0  0  0  0  0  0  0  0  0  0
  146.0671  154.0887  132.8706 H   0  0  0  0  0  0  0  0  0  0  0  0
  1  2  1  0
  2  3  2  0
  2  4  1  0
  4  5  2  0
  5  6  1  0
  6  7  2  0
  7  8  1  0
  8  9  2  0
  9 10  1  0
 10 11  1  0
 10 12  1  0
 10 13  1  0
  9 14  1  0
 14 15  2  0
 15 16  1  0
 16 17  1  0
 17 18  2  0
 17 19  1  0
 19 20  2  0
 20 21  1  0
 21 22  2  0
 22 23  1  0
 23 24  2  0
 16  4  1  0
 24 19  1  0
 15  6  1  0
  1 25  1  0
  5 26  1  0
  7 27  1  0
  8 28  1  0
 14 29  1  0
 20 30  1  0
 21 31  1  0
 22 32  1  0
 23 33  1  0
 24 34  1  0
M  CHG  2   1  -1  22   1
M  END
>  <UniqueID>  (31) 
31

>  <SMILES>  (31) 
[NH-]C(=O)c1cc2ccc(C(F)(F)F)cc2n1C(=O)c1cc[nH+]cc1

>  <Energy>  (31) 
78.46318926248375

>  <Genealogy>  (31) 
[NH-]C(=O)c1cc2ccc(C(F)(F)F)cc2n1C(=O)c1cc[nH+]cc1 (protonated)
[NH-]C(=O)c1cc2ccc(C(F)(F)F)cc2n1C(=O)c1cc[nH+]cc1 (3D coordinates assigned)
[NH-]C(=O)c1cc2ccc(C(F)(F)F)cc2n1C(=O)c1cc[nH+]cc1 (optimized conformer: 78.46318926248375 kcal/mol)

>  <smiles>  (31) 
NC(=O)c1cc2ccc(C(F)(F)F)cc2n1C(=O)c1ccncc1

>  <score_type>  (31) 
oracle

>  <origin>  (31) 
adg

>  <m_score__min__energy>  (31) 
-6.6600000000000001

>  <m_primary>  (31) 
energy

$$$$
31:0
     RDKit          3D

 51 53  0  0  0  0  0  0  0  0999 V2000
  139.1080  157.8820  135.4710 C   0  0  0  0  0  0  0  0  0  0  0  0
  139.1970  157.8740  134.0000 N   0  0  0  0  0  0  0  0  0  0  0  0
  139.6070  156.5310  133.5330 C   0  0  0  0  0  0  0  0  0  0  0  0
  141.0180  156.1300  133.9990 C   0  0  0  0  0  0  0  0  0  0  0  0
  142.1730  157.0480  133.5420 C   0  0  0  0  0  0  0  0  0  0  0  0
  142.4070  158.2980  134.4250 C   0  0  1  0  0  0  0  0  0  0  0  0
  143.7250  158.9520  134.0450 C   0  0  0  0  0  0  0  0  0  0  0  0
  143.8680  160.3620  134.1110 C   0  0  0  0  0  0  0  0  0  0  0  0
  145.0870  160.9770  133.7800 C   0  0  0  0  0  0  0  0  0  0  0  0
  146.1430  160.1630  133.3830 C   0  0  0  0  0  0  0  0  0  0  0  0
  147.4310  160.4940  133.0310 C   0  0  0  0  0  0  0  0  0  0  0  0
  148.0560  159.2850  132.7340 C   0  0  0  0  0  0  0  0  0  0  0  0
  149.4360  159.1740  132.2130 C   0  0  0  0  0  0  0  0  0  0  0  0
  150.1320  157.9260  132.2540 N   0  0  0  0  0  0  0  0  0  0  0  0
  150.0250  160.1900  131.7580 O   0  0  0  0  0  0  0  0  0  0  0  0
  147.1880  158.2460  132.8990 N   0  0  0  0  0  0  0  0  0  0  0  0
  147.4630  156.8420  132.7610 C   0  0  0  0  0  0  0  0  0  0  0  0
  147.0910  156.2240  131.7280 O   0  0  0  0  0  0  0  0  0  0  0  0
  148.1410  156.1410  133.8100 N   0  0  0  0  0  0  0  0  0  0  0  0
  148.0220  154.7020  134.0020 C   0  0  0  0  0  0  0  0  0  0  0  0
  148.9690  153.9780  133.0500 C   0  0  0  0  0  0  0  0  0  0  0  0
  149.7330  154.9040  132.3280 O   0  0  0  0  0  0  0  0  0  0  0  0
  146.0210  158.8010  133.2960 C   0  0  0  0  0  0  0  0  0  0  0  0
  144.8260  158.1590  133.6360 C   0  0  0  0  0  0  0  0  0  0  0  0
  141.2460  159.3440  134.4170 C   0  0  0  0  0  0  0  0  0  0  0  0
  140.0370  159.0000  133.5160 C   0  0  0  0  0  0  0  0  0  0  0  0
  140.1169  157.7912  135.8999 H   0  0  0  0  0  0  0  0  0  0  0  0
  138.6509  158.8249  135.8055 H   0  0  0  0  0  0  0  0  0  0  0  0
  138.4898  157.0359  135.8055 H   0  0  0  0  0  0  0  0  0  0  0  0
  138.8887  155.7926  133.9188 H   0  0  0  0  0  0  0  0  0  0  0  0
  139.6221  156.5585  132.4335 H   0  0  0  0  0  0  0  0  0  0  0  0
  141.0166  156.1145  135.0989 H   0  0  0  0  0  0  0  0  0  0  0  0
  141.2158  155.1534  133.5329 H   0  0  0  0  0  0  0  0  0  0  0  0
  143.0992  156.4546  133.5391 H   0  0  0  0  0  0  0  0  0  0  0  0
  141.8905  157.4239  132.5476 H   0  0  0  0  0  0  0  0  0  0  0  0
  142.4406  157.9310  135.4614 H   0  0  0  0  0  0  0  0  0  0  0  0
  143.0145  160.9809  134.4250 H   0  0  0  0  0  0  0  0  0  0  0  0
  145.2030  162.0696  133.8332 H   0  0  0  0  0  0  0  0  0  0  0  0
  147.8736  161.5003  132.9923 H   0  0  0  0  0  0  0  0  0  0  0  0
  149.6620  157.0520  132.5750 H   0  0  0  0  0  0  0  0  0  0  0  0
  151.1200  157.8670  131.9200 H   0  0  0  0  0  0  0  0  0  0  0  0
  148.2824  154.4485  135.0402 H   0  0  0  0  0  0  0  0  0  0  0  0
  146.9876  154.3904  133.7949 H   0  0  0  0  0  0  0  0  0  0  0  0
  149.6400  153.3276  133.6303 H   0  0  0  0  0  0  0  0  0  0  0  0
  148.3770  153.3752  132.3455 H   0  0  0  0  0  0  0  0  0  0  0  0
  149.0960  155.5690  131.9570 H   0  0  0  0  0  0  0  0  0  0  0  0
  144.7426  157.0633  133.5871 H   0  0  0  0  0  0  0  0  0  0  0  0
  140.8791  159.4490  135.4487 H   0  0  0  0  0  0  0  0  0  0  0  0
  141.6771  160.2660  133.9997 H   0  0  0  0  0  0  0  0  0  0  0  0
  139.4005  159.8941  133.4421 H   0  0  0  0  0  0  0  0  0  0  0  0
  140.4534  158.6811  132.5491 H   0  0  0  0  0  0  0  0  0  0  0  0
  1  2  1  0
  2  3  1  0
  3  4  1  0
  4  5  1  0
  5  6  1  0
  6  7  1  0
  7  8  2  0
  8  9  1  0
  9 10  2  0
 10 11  1  0
 11 12  2  0
 12 13  1  0
 13 14  1  0
 13 15  2  0
 12 16  1  0
 16 17  1  0
 17 18  2  0
 17 19  1  0
 19 20  1  0
 20 21  1  0
 21 22  1  0
 16 23  1  0
 23 24  2  0
  6 25  1  0
 25 26  1  0
 26  2  1  0
 24  7  1  0
 23 10  1  0
  1 27  1  0
  1 28  1  0
  1 29  1  0
  3 30  1  0
  3 31  1  0
  4 32  1  0
  4 33  1  0
  5 34  1  0
  5 35  1  0
  6 36  1  1
  8 37  1  0
  9 38  1  0
 11 39  1  0
 14 40  1  0
 14 41  1  0
 20 42  1  0
 20 43  1  0
 21 44  1  0
 21 45  1  0
 22 46  1  0
 24 47  1  0
 25 48  1  0
 25 49  1  0
 26 50  1  0
 26 51  1  0
M  CHG  1  19  -1
M  END
>  <UniqueID>  (32) 
32

>  <SMILES>  (32) 
CN1CCC[C@@H](c2ccc3cc(C(N)=O)n(C(=O)[N-]CCO)c3c2)CC1

>  <Energy>  (32) 
101.67984769625063

>  <Genealogy>  (32) 
CN1CCCC(c2ccc3cc(C(N)=O)n(C(=O)[N-]CCO)c3c2)CC1 (protonated)
CN1CCC[C@@H](c2ccc3cc(C(N)=O)n(C(=O)[N-]CCO)c3c2)CC1 (chirality)
CN1CCC[C@@H](c2ccc3cc(C(N)=O)n(C(=O)[N-]CCO)c3c2)CC1 (3D coordinates assigned)
CN1CCC[C@@H](c2ccc3cc(C(N)=O)n(C(=O)[N-]CCO)c3c2)CC1 (nonaromatic ring conformer: 101.67984769625063 kcal/mol)

>  <smiles>  (32) 
CN1CCCC(c2ccc3cc(C(N)=O)n(C(=O)NCCO)c3c2)CC1

>  <score_type>  (32) 
oracle

>  <origin>  (32) 
adg

>  <m_score__min__energy>  (32) 
-6.0999999999999996

>  <m_primary>  (32) 
energy

$$$$
32:0
     RDKit          3D

 41 42  0  0  0  0  0  0  0  0999 V2000
  149.6120  151.2310  131.5000 C   0  0  0  0  0  0  0  0  0  0  0  0
  149.8500  151.8460  132.8140 N   0  0  0  0  0  0  0  0  0  0  0  0
  149.9510  150.7950  133.8420 C   0  0  0  0  0  0  0  0  0  0  0  0
  148.7770  152.8090  133.1440 C   0  0  0  0  0  0  0  0  0  0  0  0
  149.1410  154.2230  132.6760 C   0  0  0  0  0  0  0  0  0  0  0  0
  147.9390  154.9960  132.3550 N   0  0  0  0  0  0  0  0  0  0  0  0
  147.7690  156.4000  132.6250 C   0  0  0  0  0  0  0  0  0  0  0  0
  148.8990  157.2530  132.5510 C   0  0  0  0  0  0  0  0  0  0  0  0
  148.7810  158.6300  132.8020 C   0  0  0  0  0  0  0  0  0  0  0  0
  147.5240  159.1280  133.1230 C   0  0  0  0  0  0  0  0  0  0  0  0
  147.1240  160.4190  133.3870 C   0  0  0  0  0  0  0  0  0  0  0  0
  145.7550  160.3400  133.6260 C   0  0  0  0  0  0  0  0  0  0  0  0
  144.9310  161.4960  134.0360 C   0  0  0  0  0  0  0  0  0  0  0  0
  143.5360  161.5110  133.7430 N   0  0  0  0  0  0  0  0  0  0  0  0
  145.4510  162.4900  134.6070 O   0  0  0  0  0  0  0  0  0  0  0  0
  145.3220  159.0520  133.5070 N   0  0  0  0  0  0  0  0  0  0  0  0
  143.9730  158.5660  133.6060 C   0  0  0  0  0  0  0  0  0  0  0  0
  143.4460  157.9700  132.6280 O   0  0  0  0  0  0  0  0  0  0  0  0
  143.2430  158.7760  134.7800 O   0  0  0  0  0  0  0  0  0  0  0  0
  141.8450  159.0400  134.7830 C   0  0  0  0  0  0  0  0  0  0  0  0
  141.4260  159.3570  136.0620 F   0  0  0  0  0  0  0  0  0  0  0  0
  146.4180  158.3230  133.2020 C   0  0  0  0  0  0  0  0  0  0  0  0
  146.5020  156.9510  132.9360 C   0  0  0  0  0  0  0  0  0  0  0  0
  149.2181  150.2132  131.6375 H   0  0  0  0  0  0  0  0  0  0  0  0
  148.8823  151.8340  130.9397 H   0  0  0  0  0  0  0  0  0  0  0  0
  150.5575  151.1857  130.9397 H   0  0  0  0  0  0  0  0  0  0  0  0
  149.9069  151.2536  134.8408 H   0  0  0  0  0  0  0  0  0  0  0  0
  149.1167  150.0875  133.7263 H   0  0  0  0  0  0  0  0  0  0  0  0
  150.9048  150.2593  133.7263 H   0  0  0  0  0  0  0  0  0  0  0  0
  147.8470  152.4946  132.6477 H   0  0  0  0  0  0  0  0  0  0  0  0
  148.6461  152.8254  134.2361 H   0  0  0  0  0  0  0  0  0  0  0  0
  149.6949  154.7353  133.4765 H   0  0  0  0  0  0  0  0  0  0  0  0
  149.7588  154.1436  131.7693 H   0  0  0  0  0  0  0  0  0  0  0  0
  147.1910  154.5050  131.8140 H   0  0  0  0  0  0  0  0  0  0  0  0
  149.8815  156.8307  132.2935 H   0  0  0  0  0  0  0  0  0  0  0  0
  149.6565  159.2936  132.7462 H   0  0  0  0  0  0  0  0  0  0  0  0
  147.7529  161.3213  133.4051 H   0  0  0  0  0  0  0  0  0  0  0  0
  143.0020  160.6210  133.6270 H   0  0  0  0  0  0  0  0  0  0  0  0
  141.6323  159.8840  134.1104 H   0  0  0  0  0  0  0  0  0  0  0  0
  141.3078  158.1439  134.4389 H   0  0  0  0  0  0  0  0  0  0  0  0
  145.6046  156.3157  132.9679 H   0  0  0  0  0  0  0  0  0  0  0  0
  1  2  1  0
  2  3  1  0
  2  4  1  0
  4  5  1  0
  5  6  1  0
  6  7  1  0
  7  8  2  0
  8  9  1  0
  9 10  2  0
 10 11  1  0
 11 12  2  0
 12 13  1  0
 13 14  1  0
 13 15  2  0
 12 16  1  0
 16 17  1  0
 17 18  2  0
 17 19  1  0
 19 20  1  0
 20 21  1  0
 16 22  1  0
 22 23  2  0
 23  7  1  0
 22 10  1  0
  1 24  1  0
  1 25  1  0
  1 26  1  0
  3 27  1  0
  3 28  1  0
  3 29  1  0
  4 30  1  0
  4 31  1  0
  5 32  1  0
  5 33  1  0
  6 34  1  0
  8 35  1  0
  9 36  1  0
 11 37  1  0
 14 38  1  0
 20 39  1  0
 20 40  1  0
 23 41  1  0
M  CHG  1  14  -1
M  END
>  <UniqueID>  (33) 
33

>  <SMILES>  (33) 
CN(C)CCNc1ccc2cc(C([NH-])=O)n(C(=O)OCF)c2c1

>  <Energy>  (33) 
76.19765888699726

>  <Genealogy>  (33) 
CN(C)CCNc1ccc2cc(C([NH-])=O)n(C(=O)OCF)c2c1 (protonated)
CN(C)CCNc1ccc2cc(C([NH-])=O)n(C(=O)OCF)c2c1 (3D coordinates assigned)
CN(C)CCNc1ccc2cc(C([NH-])=O)n(C(=O)OCF)c2c1 (optimized conformer: 76.19765888699726 kcal/mol)

>  <smiles>  (33) 
CN(C)CCNc1ccc2cc(C(N)=O)n(C(=O)OCF)c2c1

>  <score_type>  (33) 
oracle

>  <origin>  (33) 
adg

>  <m_score__min__energy>  (33) 
-6.2199999999999998

>  <m_primary>  (33) 
energy

$$$$
33:0
     RDKit          3D

 33 34  0  0  0  0  0  0  0  0999 V2000
  148.4860  161.0480  131.5170 N   0  0  0  0  0  0  0  0  0  0  0  0
  148.5860  159.8500  130.6900 C   0  0  0  0  0  0  0  0  0  0  0  0
  148.8140  158.6200  131.5690 C   0  0  0  0  0  0  0  0  0  0  0  0
  147.9570  158.6950  132.7980 C   0  0  0  0  0  0  0  0  0  0  0  0
  148.1140  159.6490  133.6060 O   0  0  0  0  0  0  0  0  0  0  0  0
  146.8920  157.7560  133.0050 N   0  0  0  0  0  0  0  0  0  0  0  0
  145.5980  158.0120  133.3460 C   0  0  0  0  0  0  0  0  0  0  0  0
  144.9690  159.3480  133.4200 C   0  0  0  0  0  0  0  0  0  0  0  0
  145.6320  160.5120  132.9230 N   0  0  0  0  0  0  0  0  0  0  0  0
  143.8060  159.4570  133.8910 O   0  0  0  0  0  0  0  0  0  0  0  0
  144.9110  156.8240  133.5870 C   0  0  0  0  0  0  0  0  0  0  0  0
  145.8300  155.8220  133.3680 C   0  0  0  0  0  0  0  0  0  0  0  0
  145.6930  154.4420  133.4660 C   0  0  0  0  0  0  0  0  0  0  0  0
  146.8230  153.6470  133.2080 C   0  0  0  0  0  0  0  0  0  0  0  0
  148.0710  154.2420  132.8850 C   0  0  0  0  0  0  0  0  0  0  0  0
  149.2660  153.3780  132.5730 C   0  0  0  0  0  0  0  0  0  0  0  0
  149.0070  152.5580  131.4880 F   0  0  0  0  0  0  0  0  0  0  0  0
  149.5590  152.5920  133.6720 F   0  0  0  0  0  0  0  0  0  0  0  0
  150.3680  154.1580  132.2710 F   0  0  0  0  0  0  0  0  0  0  0  0
  148.1630  155.6490  132.7740 C   0  0  0  0  0  0  0  0  0  0  0  0
  147.0170  156.4120  133.0210 C   0  0  0  0  0  0  0  0  0  0  0  0
  147.5510  161.0470  131.9840 H   0  0  0  0  0  0  0  0  0  0  0  0
  149.1970  160.9690  132.2790 H   0  0  0  0  0  0  0  0  0  0  0  0
  147.6533  159.7223  130.1210 H   0  0  0  0  0  0  0  0  0  0  0  0
  149.4349  159.9602  129.9992 H   0  0  0  0  0  0  0  0  0  0  0  0
  148.5556  157.7144  131.0006 H   0  0  0  0  0  0  0  0  0  0  0  0
  149.8713  158.5855  131.8705 H   0  0  0  0  0  0  0  0  0  0  0  0
  146.5080  160.4390  132.3610 H   0  0  0  0  0  0  0  0  0  0  0  0
  145.1940  161.4520  133.0380 H   0  0  0  0  0  0  0  0  0  0  0  0
  143.8591  156.7107  133.8880 H   0  0  0  0  0  0  0  0  0  0  0  0
  144.7294  153.9861  133.7373 H   0  0  0  0  0  0  0  0  0  0  0  0
  146.7395  152.5513  133.2569 H   0  0  0  0  0  0  0  0  0  0  0  0
  149.1128  156.1316  132.5001 H   0  0  0  0  0  0  0  0  0  0  0  0
  1  2  1  0
  2  3  1  0
  3  4  1  0
  4  5  2  0
  4  6  1  0
  6  7  1  0
  7  8  1  0
  8  9  1  0
  8 10  2  0
  7 11  2  0
 11 12  1  0
 12 13  2  0
 13 14  1  0
 14 15  2  0
 15 16  1  0
 16 17  1  0
 16 18  1  0
 16 19  1  0
 15 20  1  0
 20 21  2  0
 21  6  1  0
 21 12  1  0
  1 22  1  0
  1 23  1  0
  2 24  1  0
  2 25  1  0
  3 26  1  0
  3 27  1  0
  9 28  1  0
  9 29  1  0
 11 30  1  0
 13 31  1  0
 14 32  1  0
 20 33  1  0
M  END
>  <UniqueID>  (34) 
34

>  <SMILES>  (34) 
NCCC(=O)n1c(C(N)=O)cc2ccc(C(F)(F)F)cc21

>  <Energy>  (34) 
69.53268069221082

>  <Genealogy>  (34) 
NCCC(=O)n1c(C(N)=O)cc2ccc(C(F)(F)F)cc21 (3D coordinates assigned)
NCCC(=O)n1c(C(N)=O)cc2ccc(C(F)(F)F)cc21 (optimized conformer: 69.53268069221082 kcal/mol)

>  <smiles>  (34) 
NCCC(=O)n1c(C(N)=O)cc2ccc(C(F)(F)F)cc21

>  <score_type>  (34) 
oracle

>  <origin>  (34) 
adg

>  <m_score__min__energy>  (34) 
-6.2300000000000004

>  <m_primary>  (34) 
energy

$$$$
34:0
     RDKit          3D

 47 48  0  0  0  0  0  0  0  0999 V2000
  141.2830  148.5000  132.5680 C   0  0  0  0  0  0  0  0  0  0  0  0
  141.3370  149.8900  132.8620 O   0  0  0  0  0  0  0  0  0  0  0  0
  142.4590  150.6790  132.5770 C   0  0  0  0  0  0  0  0  0  0  0  0
  143.5480  150.1300  132.2490 O   0  0  0  0  0  0  0  0  0  0  0  0
  142.3350  152.1190  132.6070 N   0  0  1  0  0  0  0  0  0  0  0  0
  140.9840  152.5720  132.9860 C   0  0  0  0  0  0  0  0  0  0  0  0
  143.4160  152.7500  133.4030 C   0  0  0  0  0  0  0  0  0  0  0  0
  144.2220  153.8650  132.6900 C   0  0  0  0  0  0  0  0  0  0  0  0
  143.7680  155.2600  133.0350 C   0  0  0  0  0  0  0  0  0  0  0  0
  142.4330  155.4930  133.4540 C   0  0  0  0  0  0  0  0  0  0  0  0
  142.0010  156.7880  133.7870 C   0  0  0  0  0  0  0  0  0  0  0  0
  142.9190  157.8290  133.6740 C   0  0  0  0  0  0  0  0  0  0  0  0
  142.7800  159.1720  133.9490 C   0  0  0  0  0  0  0  0  0  0  0  0
  144.0240  159.7380  133.6720 C   0  0  0  0  0  0  0  0  0  0  0  0
  144.3160  161.1810  133.8000 C   0  0  0  0  0  0  0  0  0  0  0  0
  145.6490  161.6480  133.9860 N   0  0  0  0  0  0  0  0  0  0  0  0
  143.3760  162.0160  133.7310 O   0  0  0  0  0  0  0  0  0  0  0  0
  144.8890  158.7830  133.2310 N   0  0  0  0  0  0  0  0  0  0  0  0
  146.2720  158.9380  132.8800 C   0  0  0  0  0  0  0  0  0  0  0  0
  146.5820  159.6870  131.9140 O   0  0  0  0  0  0  0  0  0  0  0  0
  147.3020  158.2670  133.6300 N   0  0  0  0  0  0  0  0  0  0  0  0
  148.7010  158.6640  133.4520 C   0  0  0  0  0  0  0  0  0  0  0  0
  146.9520  157.1710  134.5410 C   0  0  0  0  0  0  0  0  0  0  0  0
  144.2030  157.6230  133.2410 C   0  0  0  0  0  0  0  0  0  0  0  0
  144.6650  156.3450  132.9180 C   0  0  0  0  0  0  0  0  0  0  0  0
  141.2608  147.9272  133.5068 H   0  0  0  0  0  0  0  0  0  0  0  0
  140.3758  148.2835  131.9848 H   0  0  0  0  0  0  0  0  0  0  0  0
  142.1707  148.2138  131.9848 H   0  0  0  0  0  0  0  0  0  0  0  0
  142.4700  152.4450  131.6200 H   0  0  0  0  0  0  0  0  0  0  0  0
  140.9008  152.5999  134.0825 H   0  0  0  0  0  0  0  0  0  0  0  0
  140.8072  153.5786  132.5791 H   0  0  0  0  0  0  0  0  0  0  0  0
  140.2361  151.8755  132.5791 H   0  0  0  0  0  0  0  0  0  0  0  0
  142.9596  153.1877  134.3031 H   0  0  0  0  0  0  0  0  0  0  0  0
  144.1391  151.9474  133.6100 H   0  0  0  0  0  0  0  0  0  0  0  0
  145.2797  153.7643  132.9747 H   0  0  0  0  0  0  0  0  0  0  0  0
  144.0622  153.7344  131.6095 H   0  0  0  0  0  0  0  0  0  0  0  0
  141.7283  154.6509  133.5189 H   0  0  0  0  0  0  0  0  0  0  0  0
  140.9711  156.9734  134.1260 H   0  0  0  0  0  0  0  0  0  0  0  0
  141.8785  159.6884  134.3105 H   0  0  0  0  0  0  0  0  0  0  0  0
  146.4000  161.4190  133.2970 H   0  0  0  0  0  0  0  0  0  0  0  0
  149.1723  158.7978  134.4369 H   0  0  0  0  0  0  0  0  0  0  0  0
  149.2357  157.8821  132.8927 H   0  0  0  0  0  0  0  0  0  0  0  0
  148.7453  159.6102  132.8927 H   0  0  0  0  0  0  0  0  0  0  0  0
  147.0604  157.5105  135.5817 H   0  0  0  0  0  0  0  0  0  0  0  0
  145.9110  156.8638  134.3621 H   0  0  0  0  0  0  0  0  0  0  0  0
  147.6222  156.3173  134.3621 H   0  0  0  0  0  0  0  0  0  0  0  0
  145.7003  156.1875  132.5813 H   0  0  0  0  0  0  0  0  0  0  0  0
  1  2  1  0
  2  3  1  0
  3  4  2  0
  3  5  1  0
  5  6  1  0
  5  7  1  0
  7  8  1  0
  8  9  1  0
  9 10  2  0
 10 11  1  0
 11 12  2  0
 12 13  1  0
 13 14  2  0
 14 15  1  0
 15 16  1  0
 15 17  2  0
 14 18  1  0
 18 19  1  0
 19 20  2  0
 19 21  1  0
 21 22  1  0
 21 23  1  0
 18 24  1  0
 24 25  2  0
 25  9  1  0
 24 12  1  0
  1 26  1  0
  1 27  1  0
  1 28  1  0
  5 29  1  6
  6 30  1  0
  6 31  1  0
  6 32  1  0
  7 33  1  0
  7 34  1  0
  8 35  1  0
  8 36  1  0
 10 37  1  0
 11 38  1  0
 13 39  1  0
 16 40  1  0
 22 41  1  0
 22 42  1  0
 22 43  1  0
 23 44  1  0
 23 45  1  0
 23 46  1  0
 25 47  1  0
M  CHG  2   5   1  16  -1
M  END
>  <UniqueID>  (35) 
35

>  <SMILES>  (35) 
COC(=O)[N@@H+](C)CCc1ccc2cc(C([NH-])=O)n(C(=O)N(C)C)c2c1

>  <Energy>  (35) 
86.42365572512962

>  <Genealogy>  (35) 
COC(=O)[NH+](C)CCc1ccc2cc(C([NH-])=O)n(C(=O)N(C)C)c2c1 (protonated)
COC(=O)[N@@H+](C)CCc1ccc2cc(C([NH-])=O)n(C(=O)N(C)C)c2c1 (chirality)
COC(=O)[N@@H+](C)CCc1ccc2cc(C([NH-])=O)n(C(=O)N(C)C)c2c1 (3D coordinates assigned)
COC(=O)[N@@H+](C)CCc1ccc2cc(C([NH-])=O)n(C(=O)N(C)C)c2c1 (optimized conformer: 86.42365572512962 kcal/mol)

>  <smiles>  (35) 
COC(=O)N(C)CCc1ccc2cc(C(N)=O)n(C(=O)N(C)C)c2c1

>  <score_type>  (35) 
oracle

>  <origin>  (35) 
adg

>  <m_score__min__energy>  (35) 
-6.4199999999999999

>  <m_primary>  (35) 
energy

$$$$
35:0
     RDKit          3D

 27 28  0  0  0  0  0  0  0  0999 V2000
  149.5970  153.8430  132.6030 C   0  0  0  0  0  0  0  0  0  0  0  0
  148.3940  154.7030  132.8500 C   0  0  0  0  0  0  0  0  0  0  0  0
  147.1700  154.1130  133.2520 C   0  0  0  0  0  0  0  0  0  0  0  0
  146.0490  154.9130  133.5340 C   0  0  0  0  0  0  0  0  0  0  0  0
  146.1840  156.2920  133.4090 C   0  0  0  0  0  0  0  0  0  0  0  0
  145.2750  157.2980  133.6500 C   0  0  0  0  0  0  0  0  0  0  0  0
  145.9590  158.4850  133.3900 C   0  0  0  0  0  0  0  0  0  0  0  0
  145.3430  159.8250  133.4800 C   0  0  0  0  0  0  0  0  0  0  0  0
  146.1580  160.9650  133.7390 N   0  0  0  0  0  0  0  0  0  0  0  0
  144.0990  159.9730  133.3490 O   0  0  0  0  0  0  0  0  0  0  0  0
  147.2380  158.2220  133.0000 N   0  0  0  0  0  0  0  0  0  0  0  0
  148.2700  159.1690  132.6880 C   0  0  0  0  0  0  0  0  0  0  0  0
  148.6460  159.9950  133.5620 O   0  0  0  0  0  0  0  0  0  0  0  0
  148.8960  159.1970  131.3290 C   0  0  0  0  0  0  0  0  0  0  0  0
  148.9050  160.8650  130.7060 Cl  0  0  0  0  0  0  0  0  0  0  0  0
  147.3610  156.8760  133.0200 C   0  0  0  0  0  0  0  0  0  0  0  0
  148.4990  156.1080  132.7520 C   0  0  0  0  0  0  0  0  0  0  0  0
  150.0302  153.5333  133.5655 H   0  0  0  0  0  0  0  0  0  0  0  0
  149.2994  152.9517  132.0311 H   0  0  0  0  0  0  0  0  0  0  0  0
  150.3440  154.4130  132.0311 H   0  0  0  0  0  0  0  0  0  0  0  0
  147.0963  153.0194  133.3442 H   0  0  0  0  0  0  0  0  0  0  0  0
  145.0945  154.4625  133.8439 H   0  0  0  0  0  0  0  0  0  0  0  0
  144.2308  157.1884  133.9780 H   0  0  0  0  0  0  0  0  0  0  0  0
  146.9180  161.2430  133.0780 H   0  0  0  0  0  0  0  0  0  0  0  0
  149.9294  158.8258  131.3948 H   0  0  0  0  0  0  0  0  0  0  0  0
  148.3160  158.5571  130.6478 H   0  0  0  0  0  0  0  0  0  0  0  0
  149.4498  156.5854  132.4725 H   0  0  0  0  0  0  0  0  0  0  0  0
  1  2  1  0
  2  3  2  0
  3  4  1  0
  4  5  2  0
  5  6  1  0
  6  7  2  0
  7  8  1  0
  8  9  1  0
  8 10  2  0
  7 11  1  0
 11 12  1  0
 12 13  2  0
 12 14  1  0
 14 15  1  0
 11 16  1  0
 16 17  2  0
 17  2  1  0
 16  5  1  0
  1 18  1  0
  1 19  1  0
  1 20  1  0
  3 21  1  0
  4 22  1  0
  6 23  1  0
  9 24  1  0
 14 25  1  0
 14 26  1  0
 17 27  1  0
M  CHG  1   9  -1
M  END
>  <UniqueID>  (36) 
36

>  <SMILES>  (36) 
Cc1ccc2cc(C([NH-])=O)n(C(=O)CCl)c2c1

>  <Energy>  (36) 
64.7204804615444

>  <Genealogy>  (36) 
Cc1ccc2cc(C([NH-])=O)n(C(=O)CCl)c2c1 (protonated)
Cc1ccc2cc(C([NH-])=O)n(C(=O)CCl)c2c1 (3D coordinates assigned)
Cc1ccc2cc(C([NH-])=O)n(C(=O)CCl)c2c1 (optimized conformer: 64.7204804615444 kcal/mol)

>  <smiles>  (36) 
Cc1ccc2cc(C(N)=O)n(C(=O)CCl)c2c1

>  <score_type>  (36) 
oracle

>  <origin>  (36) 
adg

>  <m_score__min__energy>  (36) 
-5.9699999999999998

>  <m_primary>  (36) 
energy

$$$$
36:0
     RDKit          3D

 54 58  0  0  0  0  0  0  0  0999 V2000
  147.9310  155.1480  132.9660 C   0  0  0  0  0  0  0  0  0  0  0  0
  147.5110  156.5410  133.2960 C   0  0  0  0  0  0  0  0  0  0  0  0
  148.3680  157.5220  133.6410 N   0  0  0  0  0  0  0  0  0  0  0  0
  147.5940  158.6040  133.8330 C   0  0  0  0  0  0  0  0  0  0  0  0
  146.2880  158.2320  133.5890 C   0  0  0  0  0  0  0  0  0  0  0  0
  145.1080  159.0960  133.6750 C   0  0  0  0  0  0  0  0  0  0  0  0
  145.1070  160.4740  133.5730 C   0  0  0  0  0  0  0  0  0  0  0  0
  143.7900  160.8570  133.7170 C   0  0  0  0  0  0  0  0  0  0  0  0
  143.0760  159.6880  133.8970 C   0  0  0  0  0  0  0  0  0  0  0  0
  141.6220  159.5810  134.0950 C   0  0  0  0  0  0  0  0  0  0  0  0
  141.0140  160.4630  134.7590 O   0  0  0  0  0  0  0  0  0  0  0  0
  140.8830  158.5070  133.4950 N   0  0  0  0  0  0  0  0  0  0  0  0
  139.7590  158.5830  132.7280 C   0  0  0  0  0  0  0  0  0  0  0  0
  139.1330  159.8270  132.2350 C   0  0  0  0  0  0  0  0  0  0  0  0
  139.8720  161.0460  132.2490 N   0  0  0  0  0  0  0  0  0  0  0  0
  137.9420  159.8310  131.8270 O   0  0  0  0  0  0  0  0  0  0  0  0
  139.3080  157.3060  132.3980 C   0  0  0  0  0  0  0  0  0  0  0  0
  140.2050  156.4400  132.9820 C   0  0  0  0  0  0  0  0  0  0  0  0
  140.2370  155.0500  132.9850 C   0  0  0  0  0  0  0  0  0  0  0  0
  141.2730  154.4160  133.6930 C   0  0  0  0  0  0  0  0  0  0  0  0
  142.2540  155.1750  134.3850 C   0  0  0  0  0  0  0  0  0  0  0  0
  143.3060  154.5110  135.1190 N   0  0  0  0  0  0  0  0  0  0  0  0
  144.6970  154.6190  134.6470 C   0  0  0  0  0  0  0  0  0  0  0  0
  145.5910  153.5410  135.2680 C   0  0  0  0  0  0  0  0  0  0  0  0
  145.4150  153.5150  136.7260 N   0  0  0  0  0  0  0  0  0  0  0  0
  146.5340  153.2750  137.5980 C   0  0  0  0  0  0  0  0  0  0  0  0
  147.6750  153.0230  137.1270 O   0  0  0  0  0  0  0  0  0  0  0  0
  146.3680  153.3130  138.9790 O   0  0  0  0  0  0  0  0  0  0  0  0
  144.0740  153.6540  137.3100 C   0  0  0  0  0  0  0  0  0  0  0  0
  142.9770  153.6150  136.2380 C   0  0  0  0  0  0  0  0  0  0  0  0
  142.1810  156.5890  134.3580 C   0  0  0  0  0  0  0  0  0  0  0  0
  141.1460  157.1900  133.6350 C   0  0  0  0  0  0  0  0  0  0  0  0
  143.8870  158.6550  133.8650 O   0  0  0  0  0  0  0  0  0  0  0  0
  146.2670  156.9610  133.2590 O   0  0  0  0  0  0  0  0  0  0  0  0
  148.1004  154.5860  133.8963 H   0  0  0  0  0  0  0  0  0  0  0  0
  147.1412  154.6562  132.3792 H   0  0  0  0  0  0  0  0  0  0  0  0
  148.8610  155.1747  132.3792 H   0  0  0  0  0  0  0  0  0  0  0  0
  149.4060  157.4610  133.7380 H   0  0  0  0  0  0  0  0  0  0  0  0
  147.9393  159.6050  134.1308 H   0  0  0  0  0  0  0  0  0  0  0  0
  145.9757  161.1290  133.4107 H   0  0  0  0  0  0  0  0  0  0  0  0
  143.3905  161.8816  133.6934 H   0  0  0  0  0  0  0  0  0  0  0  0
  140.3860  161.3520  133.1060 H   0  0  0  0  0  0  0  0  0  0  0  0
  138.4234  157.0455  131.7984 H   0  0  0  0  0  0  0  0  0  0  0  0
  139.4751  154.4643  132.4498 H   0  0  0  0  0  0  0  0  0  0  0  0
  141.3245  153.3174  133.7113 H   0  0  0  0  0  0  0  0  0  0  0  0
  144.7119  154.5077  133.5528 H   0  0  0  0  0  0  0  0  0  0  0  0
  145.0861  155.6028  134.9483 H   0  0  0  0  0  0  0  0  0  0  0  0
  145.3198  152.5597  134.8516 H   0  0  0  0  0  0  0  0  0  0  0  0
  146.6420  153.7691  135.0371 H   0  0  0  0  0  0  0  0  0  0  0  0
  143.9077  152.8299  138.0193 H   0  0  0  0  0  0  0  0  0  0  0  0
  144.0218  154.6292  137.8163 H   0  0  0  0  0  0  0  0  0  0  0  0
  142.8794  152.5868  135.8596 H   0  0  0  0  0  0  0  0  0  0  0  0
  142.0314  153.9490  136.6899 H   0  0  0  0  0  0  0  0  0  0  0  0
  142.9218  157.2007  134.8937 H   0  0  0  0  0  0  0  0  0  0  0  0
  1  2  1  0
  2  3  2  0
  3  4  1  0
  4  5  2  0
  5  6  1  0
  6  7  2  0
  7  8  1  0
  8  9  2  0
  9 10  1  0
 10 11  2  0
 10 12  1  0
 12 13  1  0
 13 14  1  0
 14 15  1  0
 14 16  2  0
 13 17  2  0
 17 18  1  0
 18 19  2  0
 19 20  1  0
 20 21  2  0
 21 22  1  0
 22 23  1  0
 23 24  1  0
 24 25  1  0
 25 26  1  0
 26 27  2  0
 26 28  1  0
 25 29  1  0
 29 30  1  0
 21 31  1  0
 31 32  2  0
  9 33  1  0
  5 34  1  0
 34  2  1  0
 33  6  1  0
 32 12  1  0
 32 18  1  0
 30 22  1  0
  1 35  1  0
  1 36  1  0
  1 37  1  0
  3 38  1  0
  4 39  1  0
  7 40  1  0
  8 41  1  0
 15 42  1  0
 17 43  1  0
 19 44  1  0
 20 45  1  0
 23 46  1  0
 23 47  1  0
 24 48  1  0
 24 49  1  0
 29 50  1  0
 29 51  1  0
 30 52  1  0
 30 53  1  0
 31 54  1  0
M  CHG  3   3   1  15  -1  28  -1
M  END
>  <UniqueID>  (37) 
37

>  <SMILES>  (37) 
Cc1[nH+]cc(-c2ccc(C(=O)n3c(C([NH-])=O)cc4ccc(N5CCN(C(=O)[O-])CC5)cc43)o2)o1

>  <Energy>  (37) 
155.02867581555077

>  <Genealogy>  (37) 
Cc1[nH+]cc(-c2ccc(C(=O)n3c(C([NH-])=O)cc4ccc(N5CCN(C(=O)[O-])CC5)cc43)o2)o1 (protonated)
Cc1[nH+]cc(-c2ccc(C(=O)n3c(C([NH-])=O)cc4ccc(N5CCN(C(=O)[O-])CC5)cc43)o2)o1 (3D coordinates assigned)
Cc1[nH+]cc(-c2ccc(C(=O)n3c(C([NH-])=O)cc4ccc(N5CCN(C(=O)[O-])CC5)cc43)o2)o1 (nonaromatic ring conformer: 155.02867581555077 kcal/mol)

>  <smiles>  (37) 
Cc1ncc(-c2ccc(C(=O)n3c(C(N)=O)cc4ccc(N5CCN(C(=O)O)CC5)cc43)o2)o1

>  <score_type>  (37) 
oracle

>  <origin>  (37) 
adg

>  <m_score__min__energy>  (37) 
-9.0099999999999998

>  <m_primary>  (37) 
energy

$$$$
37:0
     RDKit          3D

 31 33  0  0  0  0  0  0  0  0999 V2000
  149.5930  161.1990  130.2900 C   0  0  0  0  0  0  0  0  0  0  0  0
  149.0270  160.2170  131.2050 N   0  0  0  0  0  0  0  0  0  0  0  0
  147.7320  160.1210  131.5520 C   0  0  0  0  0  0  0  0  0  0  0  0
  147.5870  159.0230  132.3810 C   0  0  0  0  0  0  0  0  0  0  0  0
  146.3410  158.5200  133.0150 C   0  0  0  0  0  0  0  0  0  0  0  0
  146.2600  157.1800  133.4790 C   0  0  0  0  0  0  0  0  0  0  0  0
  145.0910  156.6970  134.0900 C   0  0  0  0  0  0  0  0  0  0  0  0
  144.0130  157.5670  134.2170 C   0  0  0  0  0  0  0  0  0  0  0  0
  142.7780  157.3660  134.7870 C   0  0  0  0  0  0  0  0  0  0  0  0
  142.1030  158.5760  134.6450 C   0  0  0  0  0  0  0  0  0  0  0  0
  140.6970  158.7760  135.0520 C   0  0  0  0  0  0  0  0  0  0  0  0
  140.3980  159.2570  136.3610 N   0  0  0  0  0  0  0  0  0  0  0  0
  139.7520  158.4940  134.2690 O   0  0  0  0  0  0  0  0  0  0  0  0
  142.8960  159.4930  134.0180 N   0  0  0  0  0  0  0  0  0  0  0  0
  142.5980  160.8700  133.7370 C   0  0  0  0  0  0  0  0  0  0  0  0
  141.4130  161.2340  133.5150 O   0  0  0  0  0  0  0  0  0  0  0  0
  143.6120  161.8200  133.7320 O   0  0  0  0  0  0  0  0  0  0  0  0
  144.0610  158.8570  133.7610 C   0  0  0  0  0  0  0  0  0  0  0  0
  145.2190  159.3720  133.1660 C   0  0  0  0  0  0  0  0  0  0  0  0
  148.8650  158.4890  132.4800 C   0  0  0  0  0  0  0  0  0  0  0  0
  149.7190  159.2290  131.7470 N   0  0  0  0  0  0  0  0  0  0  0  0
  150.0608  162.0106  130.8666 H   0  0  0  0  0  0  0  0  0  0  0  0
  150.3510  160.7155  129.6562 H   0  0  0  0  0  0  0  0  0  0  0  0
  148.7947  161.6125  129.6562 H   0  0  0  0  0  0  0  0  0  0  0  0
  146.9266  160.7985  131.2321 H   0  0  0  0  0  0  0  0  0  0  0  0
  147.1248  156.5111  133.3582 H   0  0  0  0  0  0  0  0  0  0  0  0
  145.0298  155.6619  134.4570 H   0  0  0  0  0  0  0  0  0  0  0  0
  142.4025  156.4445  135.2559 H   0  0  0  0  0  0  0  0  0  0  0  0
  139.4820  159.0480  136.8140 H   0  0  0  0  0  0  0  0  0  0  0  0
  145.2569  160.4164  132.8229 H   0  0  0  0  0  0  0  0  0  0  0  0
  149.1378  157.5992  133.0664 H   0  0  0  0  0  0  0  0  0  0  0  0
  1  2  1  0
  2  3  1  0
  3  4  2  0
  4  5  1  0
  5  6  2  0
  6  7  1  0
  7  8  2  0
  8  9  1  0
  9 10  2  0
 10 11  1  0
 11 12  1  0
 11 13  2  0
 10 14  1  0
 14 15  1  0
 15 16  2  0
 15 17  1  0
 14 18  1  0
 18 19  2  0
  4 20  1  0
 20 21  2  0
 21  2  1  0
 19  5  1  0
 18  8  1  0
  1 22  1  0
  1 23  1  0
  1 24  1  0
  3 25  1  0
  6 26  1  0
  7 27  1  0
  9 28  1  0
 12 29  1  0
 19 30  1  0
 20 31  1  0
M  CHG  2  12  -1  17  -1
M  END
>  <UniqueID>  (38) 
38

>  <SMILES>  (38) 
Cn1cc(-c2ccc3cc(C([NH-])=O)n(C(=O)[O-])c3c2)cn1

>  <Energy>  (38) 
104.02598493990087

>  <Genealogy>  (38) 
Cn1cc(-c2ccc3cc(C([NH-])=O)n(C(=O)[O-])c3c2)cn1 (protonated)
Cn1cc(-c2ccc3cc(C([NH-])=O)n(C(=O)[O-])c3c2)cn1 (3D coordinates assigned)
Cn1cc(-c2ccc3cc(C([NH-])=O)n(C(=O)[O-])c3c2)cn1 (optimized conformer: 104.02598493990087 kcal/mol)

>  <smiles>  (38) 
Cn1cc(-c2ccc3cc(C(N)=O)n(C(=O)O)c3c2)cn1

>  <score_type>  (38) 
oracle

>  <origin>  (38) 
adg

>  <m_score__min__energy>  (38) 
-7.0999999999999996

>  <m_primary>  (38) 
energy

$$$$
38:0
     RDKit          3D

 43 46  0  0  0  0  0  0  0  0999 V2000
  148.8170  158.2480  131.1830 N   0  0  0  0  0  0  0  0  0  0  0  0
  148.5940  158.9570  132.4000 C   0  0  0  0  0  0  0  0  0  0  0  0
  149.5780  159.4290  133.0270 O   0  0  0  0  0  0  0  0  0  0  0  0
  147.2210  159.0950  132.9280 C   0  0  0  0  0  0  0  0  0  0  0  0
  146.5550  160.3140  133.0270 C   0  0  0  0  0  0  0  0  0  0  0  0
  145.2910  160.0050  133.4740 C   0  0  0  0  0  0  0  0  0  0  0  0
  144.2150  160.8390  133.7630 C   0  0  0  0  0  0  0  0  0  0  0  0
  143.0340  160.2490  134.2420 C   0  0  0  0  0  0  0  0  0  0  0  0
  142.9500  158.8450  134.4220 C   0  0  0  0  0  0  0  0  0  0  0  0
  141.6980  158.2250  134.9850 C   0  0  0  0  0  0  0  0  0  0  0  0
  140.5600  158.0650  133.9500 C   0  0  2  0  0  0  0  0  0  0  0  0
  139.1290  157.9130  134.4570 C   0  0  0  0  0  0  0  0  0  0  0  0
  138.4320  156.9340  133.6200 N   0  0  0  0  0  0  0  0  0  0  0  0
  139.4580  156.1670  132.9100 C   0  0  0  0  0  0  0  0  0  0  0  0
  140.7720  156.9240  132.9840 C   0  0  1  0  0  0  0  0  0  0  0  0
  140.7600  158.3500  132.4570 C   0  0  0  0  0  0  0  0  0  0  0  0
  144.0650  158.0320  134.1230 C   0  0  0  0  0  0  0  0  0  0  0  0
  145.2220  158.6450  133.6320 C   0  0  0  0  0  0  0  0  0  0  0  0
  146.4020  158.0710  133.3060 N   0  0  0  0  0  0  0  0  0  0  0  0
  146.7220  156.6740  133.4040 C   0  0  0  0  0  0  0  0  0  0  0  0
  147.3110  156.0940  132.4510 O   0  0  0  0  0  0  0  0  0  0  0  0
  146.4010  155.9700  134.5710 O   0  0  0  0  0  0  0  0  0  0  0  0
  147.3410  155.1730  135.2870 C   0  0  0  0  0  0  0  0  0  0  0  0
  146.6420  154.0730  136.0190 C   0  0  0  0  0  0  0  0  0  0  0  0
  147.3000  153.2730  136.7340 O   0  0  0  0  0  0  0  0  0  0  0  0
  145.2610  153.9480  135.9350 O   0  0  0  0  0  0  0  0  0  0  0  0
  148.3890  157.3090  131.0240 H   0  0  0  0  0  0  0  0  0  0  0  0
  146.9548  161.3125  132.7966 H   0  0  0  0  0  0  0  0  0  0  0  0
  144.2874  161.9273  133.6206 H   0  0  0  0  0  0  0  0  0  0  0  0
  142.1662  160.8818  134.4797 H   0  0  0  0  0  0  0  0  0  0  0  0
  141.9510  157.2295  135.3788 H   0  0  0  0  0  0  0  0  0  0  0  0
  141.3272  158.9053  135.7658 H   0  0  0  0  0  0  0  0  0  0  0  0
  139.1417  157.5647  135.5003 H   0  0  0  0  0  0  0  0  0  0  0  0
  138.6108  158.8821  134.4081 H   0  0  0  0  0  0  0  0  0  0  0  0
  137.8680  157.4580  132.9090 H   0  0  0  0  0  0  0  0  0  0  0  0
  139.5731  155.1793  133.3803 H   0  0  0  0  0  0  0  0  0  0  0  0
  139.1632  156.0310  131.8590 H   0  0  0  0  0  0  0  0  0  0  0  0
  141.4751  156.0952  132.8145 H   0  0  0  0  0  0  0  0  0  0  0  0
  141.6918  158.8159  132.1039 H   0  0  0  0  0  0  0  0  0  0  0  0
  140.1985  158.8928  131.6824 H   0  0  0  0  0  0  0  0  0  0  0  0
  144.0245  156.9430  134.2726 H   0  0  0  0  0  0  0  0  0  0  0  0
  148.0603  154.7367  134.5783 H   0  0  0  0  0  0  0  0  0  0  0  0
  147.8657  155.8087  136.0154 H   0  0  0  0  0  0  0  0  0  0  0  0
  1  2  1  0
  2  3  2  0
  2  4  1  0
  4  5  2  0
  5  6  1  0
  6  7  2  0
  7  8  1  0
  8  9  2  0
  9 10  1  0
 11 10  1  1
 11 12  1  0
 12 13  1  0
 13 14  1  0
 14 15  1  0
 15 16  1  0
  9 17  1  0
 17 18  2  0
 18 19  1  0
 19 20  1  0
 20 21  2  0
 20 22  1  0
 22 23  1  0
 23 24  1  0
 24 25  2  0
 24 26  1  0
 19  4  1  0
 18  6  1  0
 15 11  1  0
 16 11  1  0
  1 27  1  0
  5 28  1  0
  7 29  1  0
  8 30  1  0
 10 31  1  0
 10 32  1  0
 12 33  1  0
 12 34  1  0
 13 35  1  0
 14 36  1  0
 14 37  1  0
 15 38  1  1
 16 39  1  0
 16 40  1  0
 17 41  1  0
 23 42  1  0
 23 43  1  0
M  CHG  2   1  -1  26  -1
M  END
>  <UniqueID>  (39) 
39

>  <SMILES>  (39) 
[NH-]C(=O)c1cc2ccc(C[C@]34CNC[C@H]3C4)cc2n1C(=O)OCC(=O)[O-]

>  <Energy>  (39) 
351.67671663469844

>  <Genealogy>  (39) 
[NH-]C(=O)c1cc2ccc(CC34CNCC3C4)cc2n1C(=O)OCC(=O)[O-] (protonated)
[NH-]C(=O)c1cc2ccc(C[C@]34CNC[C@H]3C4)cc2n1C(=O)OCC(=O)[O-] (chirality)
[NH-]C(=O)c1cc2ccc(C[C@]34CNC[C@H]3C4)cc2n1C(=O)OCC(=O)[O-] (3D coordinates assigned)
[NH-]C(=O)c1cc2ccc(C[C@]34CNC[C@H]3C4)cc2n1C(=O)OCC(=O)[O-] (nonaromatic ring conformer: 351.67671663469844 kcal/mol)

>  <smiles>  (39) 
NC(=O)c1cc2ccc(CC34CNCC3C4)cc2n1C(=O)OCC(=O)O

>  <score_type>  (39) 
oracle

>  <origin>  (39) 
adg

>  <m_score__min__energy>  (39) 
-8.5099999999999998

>  <m_primary>  (39) 
energy

$$$$
39:0
     RDKit          3D

 37 39  0  0  0  0  0  0  0  0999 V2000
  146.1070  154.8210  132.5550 N   0  0  0  0  0  0  0  0  0  0  0  0
  146.8950  155.9020  133.0460 C   0  0  0  0  0  0  0  0  0  0  0  0
  148.1170  155.7120  133.2910 O   0  0  0  0  0  0  0  0  0  0  0  0
  146.2960  157.2320  133.2950 C   0  0  0  0  0  0  0  0  0  0  0  0
  144.9240  157.4540  133.3940 C   0  0  0  0  0  0  0  0  0  0  0  0
  144.7870  158.8110  133.5830 C   0  0  0  0  0  0  0  0  0  0  0  0
  143.6420  159.5830  133.7490 C   0  0  0  0  0  0  0  0  0  0  0  0
  143.8020  160.9650  133.9470 C   0  0  0  0  0  0  0  0  0  0  0  0
  145.0950  161.5450  134.0030 C   0  0  0  0  0  0  0  0  0  0  0  0
  145.2550  163.0340  134.1790 C   0  0  0  0  0  0  0  0  0  0  0  0
  144.2960  163.6860  133.4240 F   0  0  0  0  0  0  0  0  0  0  0  0
  145.1010  163.3880  135.5080 F   0  0  0  0  0  0  0  0  0  0  0  0
  146.5100  163.4440  133.7630 F   0  0  0  0  0  0  0  0  0  0  0  0
  146.2320  160.7280  133.8070 C   0  0  0  0  0  0  0  0  0  0  0  0
  146.0420  159.3600  133.5970 C   0  0  0  0  0  0  0  0  0  0  0  0
  146.9780  158.4050  133.4170 N   0  0  0  0  0  0  0  0  0  0  0  0
  148.4010  158.5920  133.4270 C   0  0  0  0  0  0  0  0  0  0  0  0
  148.9650  158.9870  134.4820 O   0  0  0  0  0  0  0  0  0  0  0  0
  149.2250  158.1770  132.2370 C   0  0  0  0  0  0  0  0  0  0  0  0
  148.9070  158.9770  130.9650 C   0  0  0  0  0  0  0  0  0  0  0  0
  149.6280  160.3320  130.9520 C   0  0  0  0  0  0  0  0  0  0  0  0
  148.7110  161.5310  130.7640 C   0  0  0  0  0  0  0  0  0  0  0  0
  149.6220  161.0870  129.6310 C   0  0  0  0  0  0  0  0  0  0  0  0
  146.4900  154.1560  131.8450 H   0  0  0  0  0  0  0  0  0  0  0  0
  144.1211  156.7045  133.3339 H   0  0  0  0  0  0  0  0  0  0  0  0
  142.6418  159.1257  133.7260 H   0  0  0  0  0  0  0  0  0  0  0  0
  142.9141  161.6044  134.0599 H   0  0  0  0  0  0  0  0  0  0  0  0
  147.2436  161.1598  133.8196 H   0  0  0  0  0  0  0  0  0  0  0  0
  150.2878  158.3199  132.4821 H   0  0  0  0  0  0  0  0  0  0  0  0
  148.9843  157.1244  132.0269 H   0  0  0  0  0  0  0  0  0  0  0  0
  149.2266  158.3946  130.0883 H   0  0  0  0  0  0  0  0  0  0  0  0
  147.8234  159.1647  130.9396 H   0  0  0  0  0  0  0  0  0  0  0  0
  150.4110  160.0398  131.6672 H   0  0  0  0  0  0  0  0  0  0  0  0
  147.6237  161.3846  130.6849 H   0  0  0  0  0  0  0  0  0  0  0  0
  148.5448  162.4750  131.3037 H   0  0  0  0  0  0  0  0  0  0  0  0
  149.1938  160.6193  128.7322 H   0  0  0  0  0  0  0  0  0  0  0  0
  150.3879  161.5765  129.0115 H   0  0  0  0  0  0  0  0  0  0  0  0
  1  2  1  0
  2  3  2  0
  2  4  1  0
  4  5  2  0
  5  6  1  0
  6  7  2  0
  7  8  1  0
  8  9  2  0
  9 10  1  0
 10 11  1  0
 10 12  1  0
 10 13  1  0
  9 14  1  0
 14 15  2  0
 15 16  1  0
 16 17  1  0
 17 18  2  0
 17 19  1  0
 19 20  1  0
 20 21  1  0
 21 22  1  0
 22 23  1  0
 16  4  1  0
 23 21  1  0
 15  6  1  0
  1 24  1  0
  5 25  1  0
  7 26  1  0
  8 27  1  0
 14 28  1  0
 19 29  1  0
 19 30  1  0
 20 31  1  0
 20 32  1  0
 21 33  1  0
 22 34  1  0
 22 35  1  0
 23 36  1  0
 23 37  1  0
M  CHG  1   1  -1
M  END
>  <UniqueID>  (40) 
40

>  <SMILES>  (40) 
[NH-]C(=O)c1cc2ccc(C(F)(F)F)cc2n1C(=O)CCC1CC1

>  <Energy>  (40) 
339.055460930659

>  <Genealogy>  (40) 
[NH-]C(=O)c1cc2ccc(C(F)(F)F)cc2n1C(=O)CCC1CC1 (protonated)
[NH-]C(=O)c1cc2ccc(C(F)(F)F)cc2n1C(=O)CCC1CC1 (3D coordinates assigned)
[NH-]C(=O)c1cc2ccc(C(F)(F)F)cc2n1C(=O)CCC1CC1 (nonaromatic ring conformer: 339.055460930659 kcal/mol)

>  <smiles>  (40) 
NC(=O)c1cc2ccc(C(F)(F)F)cc2n1C(=O)CCC1CC1

>  <score_type>  (40) 
oracle

>  <origin>  (40) 
adg

>  <m_score__min__energy>  (40) 
-6.9000000000000004

>  <m_primary>  (40) 
energy

$$$$
40:0
     RDKit          3D

 46 48  0  0  0  0  0  0  0  0999 V2000
  136.5010  160.1030  130.3700 C   0  0  0  0  0  0  0  0  0  0  0  0
  137.3690  159.0880  131.1120 C   0  0  0  0  0  0  0  0  0  0  0  0
  138.8710  159.3200  130.9010 C   0  0  0  0  0  0  0  0  0  0  0  0
  139.8700  158.9050  132.3330 S   0  0  0  0  0  0  0  0  0  0  0  0
  140.1950  160.1730  133.0730 O   0  0  0  0  0  0  0  0  0  0  0  0
  141.1570  158.2720  131.8800 O   0  0  0  0  0  0  0  0  0  0  0  0
  139.0370  157.7840  133.4490 C   0  0  0  0  0  0  0  0  0  0  0  0
  139.5550  156.3840  133.2900 C   0  0  0  0  0  0  0  0  0  0  0  0
  139.1040  155.6560  132.3650 O   0  0  0  0  0  0  0  0  0  0  0  0
  140.5910  155.8790  134.1480 N   0  0  0  0  0  0  0  0  0  0  0  0
  141.3130  156.5620  135.0820 C   0  0  0  0  0  0  0  0  0  0  0  0
  141.0420  157.9490  135.5250 C   0  0  0  0  0  0  0  0  0  0  0  0
  141.4570  159.0660  134.7400 N   0  0  0  0  0  0  0  0  0  0  0  0
  140.4560  158.1540  136.6210 O   0  0  0  0  0  0  0  0  0  0  0  0
  142.2940  155.7390  135.6350 C   0  0  0  0  0  0  0  0  0  0  0  0
  142.1420  154.5210  135.0100 C   0  0  0  0  0  0  0  0  0  0  0  0
  142.8580  153.3390  135.1650 C   0  0  0  0  0  0  0  0  0  0  0  0
  142.4960  152.2390  134.3700 C   0  0  0  0  0  0  0  0  0  0  0  0
  141.4290  152.3360  133.4370 C   0  0  0  0  0  0  0  0  0  0  0  0
  141.0600  151.1690  132.5950 C   0  0  0  0  0  0  0  0  0  0  0  0
  139.7500  151.0160  132.1100 C   0  0  0  0  0  0  0  0  0  0  0  0
  139.4170  149.9120  131.3250 C   0  0  0  0  0  0  0  0  0  0  0  0
  140.3970  148.9650  131.0240 C   0  0  0  0  0  0  0  0  0  0  0  0
  141.6600  149.1210  131.4980 N   0  0  0  0  0  0  0  0  0  0  0  0
  142.0100  150.1870  132.2660 C   0  0  0  0  0  0  0  0  0  0  0  0
  140.7230  153.5560  133.3140 C   0  0  0  0  0  0  0  0  0  0  0  0
  141.1050  154.6310  134.1230 C   0  0  0  0  0  0  0  0  0  0  0  0
  135.9653  160.7294  131.0985 H   0  0  0  0  0  0  0  0  0  0  0  0
  137.1390  160.7389  129.7386 H   0  0  0  0  0  0  0  0  0  0  0  0
  135.7738  159.5715  129.7386 H   0  0  0  0  0  0  0  0  0  0  0  0
  137.1505  159.1591  132.1877 H   0  0  0  0  0  0  0  0  0  0  0  0
  137.1290  158.0923  130.7107 H   0  0  0  0  0  0  0  0  0  0  0  0
  139.2029  158.7013  130.0543 H   0  0  0  0  0  0  0  0  0  0  0  0
  139.0081  160.3950  130.7125 H   0  0  0  0  0  0  0  0  0  0  0  0
  139.2064  158.1149  134.4843 H   0  0  0  0  0  0  0  0  0  0  0  0
  137.9624  157.7892  133.2141 H   0  0  0  0  0  0  0  0  0  0  0  0
  141.8860  158.9400  133.7970 H   0  0  0  0  0  0  0  0  0  0  0  0
  141.2990  160.0370  135.0880 H   0  0  0  0  0  0  0  0  0  0  0  0
  143.0319  156.0058  136.4060 H   0  0  0  0  0  0  0  0  0  0  0  0
  143.6833  153.2676  135.8887 H   0  0  0  0  0  0  0  0  0  0  0  0
  143.0452  151.2913  134.4710 H   0  0  0  0  0  0  0  0  0  0  0  0
  138.9849  151.7690  132.3501 H   0  0  0  0  0  0  0  0  0  0  0  0
  138.3915  149.7890  130.9467 H   0  0  0  0  0  0  0  0  0  0  0  0
  140.1464  148.0924  130.4029 H   0  0  0  0  0  0  0  0  0  0  0  0
  143.0430  150.2814  132.6321 H   0  0  0  0  0  0  0  0  0  0  0  0
  139.8932  153.6566  132.5989 H   0  0  0  0  0  0  0  0  0  0  0  0
  1  2  1  0
  2  3  1  0
  3  4  1  0
  4  5  2  0
  4  6  2  0
  4  7  1  0
  7  8  1  0
  8  9  2  0
  8 10  1  0
 10 11  1  0
 11 12  1  0
 12 13  1  0
 12 14  2  0
 11 15  2  0
 15 16  1  0
 16 17  2  0
 17 18  1  0
 18 19  2  0
 19 20  1  0
 20 21  2  0
 21 22  1  0
 22 23  2  0
 23 24  1  0
 24 25  2  0
 19 26  1  0
 26 27  2  0
 27 10  1  0
 27 16  1  0
 25 20  1  0
  1 28  1  0
  1 29  1  0
  1 30  1  0
  2 31  1  0
  2 32  1  0
  3 33  1  0
  3 34  1  0
  7 35  1  0
  7 36  1  0
 13 37  1  0
 13 38  1  0
 15 39  1  0
 17 40  1  0
 18 41  1  0
 21 42  1  0
 22 43  1  0
 23 44  1  0
 25 45  1  0
 26 46  1  0
M  END
>  <UniqueID>  (41) 
41

>  <SMILES>  (41) 
CCCS(=O)(=O)CC(=O)n1c(C(N)=O)cc2ccc(-c3cccnc3)cc21

>  <Energy>  (41) 
79.51206291890752

>  <Genealogy>  (41) 
CCCS(=O)(=O)CC(=O)n1c(C(N)=O)cc2ccc(-c3cccnc3)cc21 (3D coordinates assigned)
CCCS(=O)(=O)CC(=O)n1c(C(N)=O)cc2ccc(-c3cccnc3)cc21 (optimized conformer: 79.51206291890752 kcal/mol)

>  <smiles>  (41) 
CCCS(=O)(=O)CC(=O)n1c(C(N)=O)cc2ccc(-c3cccnc3)cc21

>  <score_type>  (41) 
oracle

>  <origin>  (41) 
adg

>  <m_score__min__energy>  (41) 
-8.6600000000000001

>  <m_primary>  (41) 
energy

$$$$
41:0
     RDKit          3D

 36 38  0  0  0  0  0  0  0  0999 V2000
  141.6920  160.5940  133.8600 C   0  0  0  0  0  0  0  0  0  0  0  0
  143.1290  160.4250  133.6950 N   0  0  0  0  0  0  0  0  0  0  0  0
  144.0160  161.3810  133.9120 N   0  0  0  0  0  0  0  0  0  0  0  0
  145.2440  160.8480  133.7440 C   0  0  0  0  0  0  0  0  0  0  0  0
  145.1280  159.5030  133.4200 C   0  0  0  0  0  0  0  0  0  0  0  0
  146.2270  158.5390  133.1740 C   0  0  0  0  0  0  0  0  0  0  0  0
  147.5160  159.0080  132.8060 C   0  0  0  0  0  0  0  0  0  0  0  0
  148.5730  158.1110  132.5840 C   0  0  0  0  0  0  0  0  0  0  0  0
  148.3130  156.7500  132.7160 C   0  0  0  0  0  0  0  0  0  0  0  0
  149.1620  155.6730  132.6030 C   0  0  0  0  0  0  0  0  0  0  0  0
  148.3730  154.5560  132.8620 C   0  0  0  0  0  0  0  0  0  0  0  0
  148.8850  153.1710  132.8310 C   0  0  0  0  0  0  0  0  0  0  0  0
  148.1210  152.0840  133.3550 N   0  0  0  0  0  0  0  0  0  0  0  0
  149.9990  152.9360  132.2900 O   0  0  0  0  0  0  0  0  0  0  0  0
  147.0890  154.9250  133.1290 N   0  0  0  0  0  0  0  0  0  0  0  0
  146.0170  154.0730  133.5650 C   0  0  0  0  0  0  0  0  0  0  0  0
  145.8430  153.8720  134.7970 O   0  0  0  0  0  0  0  0  0  0  0  0
  145.1090  153.4080  132.5770 C   0  0  0  0  0  0  0  0  0  0  0  0
  145.0960  152.0280  132.8100 O   0  0  0  0  0  0  0  0  0  0  0  0
  147.0700  156.2740  133.0420 C   0  0  0  0  0  0  0  0  0  0  0  0
  146.0060  157.1470  133.2980 C   0  0  0  0  0  0  0  0  0  0  0  0
  143.7630  159.2750  133.4050 C   0  0  0  0  0  0  0  0  0  0  0  0
  143.1370  158.0860  133.2170 F   0  0  0  0  0  0  0  0  0  0  0  0
  141.4469  160.6228  134.9320 H   0  0  0  0  0  0  0  0  0  0  0  0
  141.3767  161.5354  133.3863 H   0  0  0  0  0  0  0  0  0  0  0  0
  141.1669  159.7514  133.3863 H   0  0  0  0  0  0  0  0  0  0  0  0
  146.1924  161.3956  133.8479 H   0  0  0  0  0  0  0  0  0  0  0  0
  147.6886  160.0885  132.6934 H   0  0  0  0  0  0  0  0  0  0  0  0
  149.5761  158.4728  132.3140 H   0  0  0  0  0  0  0  0  0  0  0  0
  150.2347  155.6910  132.3600 H   0  0  0  0  0  0  0  0  0  0  0  0
  148.5270  151.1210  133.3730 H   0  0  0  0  0  0  0  0  0  0  0  0
  147.1230  152.2070  133.6300 H   0  0  0  0  0  0  0  0  0  0  0  0
  144.0904  153.8082  132.6881 H   0  0  0  0  0  0  0  0  0  0  0  0
  145.4709  153.6040  131.5569 H   0  0  0  0  0  0  0  0  0  0  0  0
  145.4770  151.8990  133.7170 H   0  0  0  0  0  0  0  0  0  0  0  0
  145.0189  156.7589  133.5894 H   0  0  0  0  0  0  0  0  0  0  0  0
  1  2  1  0
  2  3  1  0
  3  4  2  0
  4  5  1  0
  5  6  1  0
  6  7  2  0
  7  8  1  0
  8  9  2  0
  9 10  1  0
 10 11  2  0
 11 12  1  0
 12 13  1  0
 12 14  2  0
 11 15  1  0
 15 16  1  0
 16 17  2  0
 16 18  1  0
 18 19  1  0
 15 20  1  0
 20 21  2  0
  5 22  2  0
 22 23  1  0
 22  2  1  0
 21  6  1  0
 20  9  1  0
  1 24  1  0
  1 25  1  0
  1 26  1  0
  4 27  1  0
  7 28  1  0
  8 29  1  0
 10 30  1  0
 13 31  1  0
 13 32  1  0
 18 33  1  0
 18 34  1  0
 19 35  1  0
 21 36  1  0
M  END
>  <UniqueID>  (42) 
42

>  <SMILES>  (42) 
Cn1ncc(-c2ccc3cc(C(N)=O)n(C(=O)CO)c3c2)c1F

>  <Energy>  (42) 
110.4704617194103

>  <Genealogy>  (42) 
Cn1ncc(-c2ccc3cc(C(N)=O)n(C(=O)CO)c3c2)c1F (3D coordinates assigned)
Cn1ncc(-c2ccc3cc(C(N)=O)n(C(=O)CO)c3c2)c1F (optimized conformer: 110.4704617194103 kcal/mol)

>  <smiles>  (42) 
Cn1ncc(-c2ccc3cc(C(N)=O)n(C(=O)CO)c3c2)c1F

>  <score_type>  (42) 
oracle

>  <origin>  (42) 
adg

>  <m_score__min__energy>  (42) 
-6.8499999999999996

>  <m_primary>  (42) 
energy

$$$$
42:0
     RDKit          3D

 34 36  0  0  0  0  0  0  0  0999 V2000
  146.3330  161.1620  133.7320 N   0  0  0  0  0  0  0  0  0  0  0  0
  145.3050  160.1780  133.6470 C   0  0  0  0  0  0  0  0  0  0  0  0
  144.0990  160.5410  133.6850 O   0  0  0  0  0  0  0  0  0  0  0  0
  145.6600  158.7520  133.4910 C   0  0  0  0  0  0  0  0  0  0  0  0
  144.7250  157.7210  133.4320 C   0  0  0  0  0  0  0  0  0  0  0  0
  145.4640  156.5610  133.3510 C   0  0  0  0  0  0  0  0  0  0  0  0
  145.0500  155.2370  133.2550 C   0  0  0  0  0  0  0  0  0  0  0  0
  146.0390  154.2420  133.1660 C   0  0  0  0  0  0  0  0  0  0  0  0
  147.4170  154.5830  133.1890 C   0  0  0  0  0  0  0  0  0  0  0  0
  148.4670  153.5120  133.0350 C   0  0  0  0  0  0  0  0  0  0  0  0
  149.5940  154.0610  132.4550 F   0  0  0  0  0  0  0  0  0  0  0  0
  148.0000  152.4840  132.2340 F   0  0  0  0  0  0  0  0  0  0  0  0
  148.8070  152.9790  134.2670 F   0  0  0  0  0  0  0  0  0  0  0  0
  147.7960  155.9440  133.2640 C   0  0  0  0  0  0  0  0  0  0  0  0
  146.7890  156.9090  133.3610 C   0  0  0  0  0  0  0  0  0  0  0  0
  146.9260  158.2490  133.4370 N   0  0  0  0  0  0  0  0  0  0  0  0
  148.1670  158.9710  133.4440 C   0  0  0  0  0  0  0  0  0  0  0  0
  148.8620  158.9840  134.4960 O   0  0  0  0  0  0  0  0  0  0  0  0
  148.6530  159.6640  132.2270 C   0  0  0  0  0  0  0  0  0  0  0  0
  149.6700  159.0890  131.4440 C   0  0  0  0  0  0  0  0  0  0  0  0
  150.1220  159.7550  130.3030 C   0  0  0  0  0  0  0  0  0  0  0  0
  149.5620  160.9800  129.9480 C   0  0  0  0  0  0  0  0  0  0  0  0
  148.5500  161.5250  130.7400 C   0  0  0  0  0  0  0  0  0  0  0  0
  148.1170  160.8640  131.8500 N   0  0  0  0  0  0  0  0  0  0  0  0
  147.3020  160.9020  134.0190 H   0  0  0  0  0  0  0  0  0  0  0  0
  143.6290  157.8134  133.4469 H   0  0  0  0  0  0  0  0  0  0  0  0
  143.9814  154.9762  133.2489 H   0  0  0  0  0  0  0  0  0  0  0  0
  145.7417  153.1866  133.0775 H   0  0  0  0  0  0  0  0  0  0  0  0
  148.8565  156.2357  133.2465 H   0  0  0  0  0  0  0  0  0  0  0  0
  150.1067  158.1204  131.7287 H   0  0  0  0  0  0  0  0  0  0  0  0
  150.9184  159.3133  129.6860 H   0  0  0  0  0  0  0  0  0  0  0  0
  149.9138  161.5127  129.0522 H   0  0  0  0  0  0  0  0  0  0  0  0
  148.1006  162.4912  130.4671 H   0  0  0  0  0  0  0  0  0  0  0  0
  147.3470  161.2990  132.4050 H   0  0  0  0  0  0  0  0  0  0  0  0
  1  2  1  0
  2  3  2  0
  2  4  1  0
  4  5  2  0
  5  6  1  0
  6  7  2  0
  7  8  1  0
  8  9  2  0
  9 10  1  0
 10 11  1  0
 10 12  1  0
 10 13  1  0
  9 14  1  0
 14 15  2  0
 15 16  1  0
 16 17  1  0
 17 18  2  0
 17 19  1  0
 19 20  2  0
 20 21  1  0
 21 22  2  0
 22 23  1  0
 23 24  2  0
 16  4  1  0
 24 19  1  0
 15  6  1  0
  1 25  1  0
  5 26  1  0
  7 27  1  0
  8 28  1  0
 14 29  1  0
 20 30  1  0
 21 31  1  0
 22 32  1  0
 23 33  1  0
 24 34  1  0
M  CHG  2   1  -1  24   1
M  END
>  <UniqueID>  (43) 
43

>  <SMILES>  (43) 
[NH-]C(=O)c1cc2ccc(C(F)(F)F)cc2n1C(=O)c1cccc[nH+]1

>  <Energy>  (43) 
78.04709986387192

>  <Genealogy>  (43) 
[NH-]C(=O)c1cc2ccc(C(F)(F)F)cc2n1C(=O)c1cccc[nH+]1 (protonated)
[NH-]C(=O)c1cc2ccc(C(F)(F)F)cc2n1C(=O)c1cccc[nH+]1 (3D coordinates assigned)
[NH-]C(=O)c1cc2ccc(C(F)(F)F)cc2n1C(=O)c1cccc[nH+]1 (optimized conformer: 78.04709986387192 kcal/mol)

>  <smiles>  (43) 
NC(=O)c1cc2ccc(C(F)(F)F)cc2n1C(=O)c1ccccn1

>  <score_type>  (43) 
oracle

>  <origin>  (43) 
adg

>  <m_score__min__energy>  (43) 
-6.9900000000000002

>  <m_primary>  (43) 
energy

$$$$
43:0
     RDKit          3D

 36 38  0  0  0  0  0  0  0  0999 V2000
  145.6450  155.1000  134.4230 C   0  0  0  0  0  0  0  0  0  0  0  0
  147.0210  155.6150  133.9680 C   0  0  0  0  0  0  0  0  0  0  0  0
  147.7100  156.3390  135.1320 C   0  0  0  0  0  0  0  0  0  0  0  0
  148.1040  154.0720  133.4760 Br  0  0  0  0  0  0  0  0  0  0  0  0
  146.9170  156.5410  132.7720 C   0  0  0  0  0  0  0  0  0  0  0  0
  146.9720  156.0610  131.6080 O   0  0  0  0  0  0  0  0  0  0  0  0
  146.8160  157.9640  132.9310 N   0  0  0  0  0  0  0  0  0  0  0  0
  147.7780  158.8990  132.6980 C   0  0  0  0  0  0  0  0  0  0  0  0
  149.1610  158.6160  132.2640 C   0  0  0  0  0  0  0  0  0  0  0  0
  149.6380  157.2730  132.2400 N   0  0  0  0  0  0  0  0  0  0  0  0
  149.9260  159.5490  131.9060 O   0  0  0  0  0  0  0  0  0  0  0  0
  147.2820  160.1780  132.9480 C   0  0  0  0  0  0  0  0  0  0  0  0
  145.9800  159.9890  133.3580 C   0  0  0  0  0  0  0  0  0  0  0  0
  145.0190  160.9140  133.7510 C   0  0  0  0  0  0  0  0  0  0  0  0
  143.7600  160.4290  134.1430 C   0  0  0  0  0  0  0  0  0  0  0  0
  143.4800  159.0350  134.1420 C   0  0  0  0  0  0  0  0  0  0  0  0
  142.1440  158.5440  134.5650 C   0  0  0  0  0  0  0  0  0  0  0  0
  141.8710  157.5900  135.5480 C   0  0  0  0  0  0  0  0  0  0  0  0
  140.5520  157.3160  135.7360 N   0  0  0  0  0  0  0  0  0  0  0  0
  139.7550  158.0360  134.9180 C   0  0  0  0  0  0  0  0  0  0  0  0
  140.6630  159.0390  133.9250 S   0  0  0  0  0  0  0  0  0  0  0  0
  144.4920  158.1300  133.7420 C   0  0  0  0  0  0  0  0  0  0  0  0
  145.7280  158.6430  133.3460 C   0  0  0  0  0  0  0  0  0  0  0  0
  145.6043  155.0848  135.5221 H   0  0  0  0  0  0  0  0  0  0  0  0
  144.8585  155.7646  134.0361 H   0  0  0  0  0  0  0  0  0  0  0  0
  145.4881  154.0823  134.0361 H   0  0  0  0  0  0  0  0  0  0  0  0
  147.3322  155.9421  136.0858 H   0  0  0  0  0  0  0  0  0  0  0  0
  148.7965  156.1779  135.0724 H   0  0  0  0  0  0  0  0  0  0  0  0
  147.4953  157.4162  135.0724 H   0  0  0  0  0  0  0  0  0  0  0  0
  149.0910  156.5180  131.7710 H   0  0  0  0  0  0  0  0  0  0  0  0
  147.8160  161.1337  132.8408 H   0  0  0  0  0  0  0  0  0  0  0  0
  145.2377  161.9920  133.7549 H   0  0  0  0  0  0  0  0  0  0  0  0
  142.9793  161.1383  134.4553 H   0  0  0  0  0  0  0  0  0  0  0  0
  142.6648  157.0963  136.1278 H   0  0  0  0  0  0  0  0  0  0  0  0
  138.6569  157.9735  134.9042 H   0  0  0  0  0  0  0  0  0  0  0  0
  144.3083  157.0455  133.7432 H   0  0  0  0  0  0  0  0  0  0  0  0
  1  2  1  0
  2  3  1  0
  2  4  1  0
  2  5  1  0
  5  6  2  0
  5  7  1  0
  7  8  1  0
  8  9  1  0
  9 10  1  0
  9 11  2  0
  8 12  2  0
 12 13  1  0
 13 14  2  0
 14 15  1  0
 15 16  2  0
 16 17  1  0
 17 18  2  0
 18 19  1  0
 19 20  2  0
 20 21  1  0
 16 22  1  0
 22 23  2  0
 23  7  1  0
 23 13  1  0
 21 17  1  0
  1 24  1  0
  1 25  1  0
  1 26  1  0
  3 27  1  0
  3 28  1  0
  3 29  1  0
 10 30  1  0
 12 31  1  0
 14 32  1  0
 15 33  1  0
 18 34  1  0
 20 35  1  0
 22 36  1  0
M  CHG  1  10  -1
M  END
>  <UniqueID>  (44) 
44

>  <SMILES>  (44) 
CC(C)(Br)C(=O)n1c(C([NH-])=O)cc2ccc(-c3cncs3)cc21

>  <Energy>  (44) 
106.87319966994467

>  <Genealogy>  (44) 
CC(C)(Br)C(=O)n1c(C([NH-])=O)cc2ccc(-c3cncs3)cc21 (protonated)
CC(C)(Br)C(=O)n1c(C([NH-])=O)cc2ccc(-c3cncs3)cc21 (3D coordinates assigned)
CC(C)(Br)C(=O)n1c(C([NH-])=O)cc2ccc(-c3cncs3)cc21 (optimized conformer: 106.87319966994467 kcal/mol)

>  <smiles>  (44) 
CC(C)(Br)C(=O)n1c(C(N)=O)cc2ccc(-c3cncs3)cc21

>  <score_type>  (44) 
oracle

>  <origin>  (44) 
adg

>  <m_score__min__energy>  (44) 
-7.2699999999999996

>  <m_primary>  (44) 
energy

$$$$
44:0
     RDKit          3D

 33 34  0  0  0  0  0  0  0  0999 V2000
  143.8670  154.4530  136.2340 C   0  0  0  0  0  0  0  0  0  0  0  0
  145.0130  154.0770  135.3370 C   0  0  0  0  0  0  0  0  0  0  0  0
  144.7510  153.7680  134.0510 C   0  0  0  0  0  0  0  0  0  0  0  0
  145.7080  153.1790  133.0890 C   0  0  0  0  0  0  0  0  0  0  0  0
  145.4120  152.0820  132.5440 O   0  0  0  0  0  0  0  0  0  0  0  0
  147.0000  153.7620  132.8380 N   0  0  0  0  0  0  0  0  0  0  0  0
  148.1860  153.1090  132.6740 C   0  0  0  0  0  0  0  0  0  0  0  0
  148.3650  151.6450  132.5640 C   0  0  0  0  0  0  0  0  0  0  0  0
  147.7680  150.9100  131.5000 N   0  0  0  0  0  0  0  0  0  0  0  0
  149.0890  151.0420  133.4000 O   0  0  0  0  0  0  0  0  0  0  0  0
  149.2330  154.0220  132.5510 C   0  0  0  0  0  0  0  0  0  0  0  0
  148.6490  155.2640  132.6520 C   0  0  0  0  0  0  0  0  0  0  0  0
  149.2250  156.5280  132.6010 C   0  0  0  0  0  0  0  0  0  0  0  0
  148.3840  157.6420  132.7590 C   0  0  0  0  0  0  0  0  0  0  0  0
  146.9960  157.4740  132.9970 C   0  0  0  0  0  0  0  0  0  0  0  0
  146.0940  158.6770  133.1270 C   0  0  0  0  0  0  0  0  0  0  0  0
  146.5920  159.5130  134.1090 F   0  0  0  0  0  0  0  0  0  0  0  0
  146.0330  159.3710  131.9310 F   0  0  0  0  0  0  0  0  0  0  0  0
  144.8100  158.2910  133.4710 F   0  0  0  0  0  0  0  0  0  0  0  0
  146.4460  156.1710  133.0230 C   0  0  0  0  0  0  0  0  0  0  0  0
  147.3030  155.0800  132.8350 C   0  0  0  0  0  0  0  0  0  0  0  0
  146.3710  154.0400  135.9240 C   0  0  0  0  0  0  0  0  0  0  0  0
  147.1800  154.9880  135.7370 O   0  0  0  0  0  0  0  0  0  0  0  0
  146.7400  152.9870  136.7500 O   0  0  0  0  0  0  0  0  0  0  0  0
  144.1755  154.3518  137.2850 H   0  0  0  0  0  0  0  0  0  0  0  0
  143.5734  155.4946  136.0367 H   0  0  0  0  0  0  0  0  0  0  0  0
  143.0134  153.7878  136.0367 H   0  0  0  0  0  0  0  0  0  0  0  0
  143.7343  153.9723  133.6842 H   0  0  0  0  0  0  0  0  0  0  0  0
  146.7370  150.7470  131.4720 H   0  0  0  0  0  0  0  0  0  0  0  0
  150.2997  153.7970  132.4043 H   0  0  0  0  0  0  0  0  0  0  0  0
  150.3063  156.6522  132.4418 H   0  0  0  0  0  0  0  0  0  0  0  0
  148.8066  158.6557  132.6975 H   0  0  0  0  0  0  0  0  0  0  0  0
  145.3691  156.0184  133.1872 H   0  0  0  0  0  0  0  0  0  0  0  0
  1  2  1  0
  2  3  2  3
  3  4  1  0
  4  5  2  0
  4  6  1  0
  6  7  1  0
  7  8  1  0
  8  9  1  0
  8 10  2  0
  7 11  2  0
 11 12  1  0
 12 13  2  0
 13 14  1  0
 14 15  2  0
 15 16  1  0
 16 17  1  0
 16 18  1  0
 16 19  1  0
 15 20  1  0
 20 21  2  0
  2 22  1  0
 22 23  2  0
 22 24  1  0
 21  6  1  0
 21 12  1  0
  1 25  1  0
  1 26  1  0
  1 27  1  0
  3 28  1  0
  9 29  1  0
 11 30  1  0
 13 31  1  0
 14 32  1  0
 20 33  1  0
M  CHG  2   9  -1  24  -1
M  END
>  <UniqueID>  (45) 
45

>  <SMILES>  (45) 
CC(=CC(=O)n1c(C([NH-])=O)cc2ccc(C(F)(F)F)cc21)C(=O)[O-]

>  <Energy>  (45) 
79.04514960093472

>  <Genealogy>  (45) 
CC(=CC(=O)n1c(C([NH-])=O)cc2ccc(C(F)(F)F)cc21)C(=O)[O-] (protonated)
CC(=CC(=O)n1c(C([NH-])=O)cc2ccc(C(F)(F)F)cc21)C(=O)[O-] (3D coordinates assigned)
CC(=CC(=O)n1c(C([NH-])=O)cc2ccc(C(F)(F)F)cc21)C(=O)[O-] (optimized conformer: 79.04514960093472 kcal/mol)

>  <smiles>  (45) 
CC(=CC(=O)n1c(C(N)=O)cc2ccc(C(F)(F)F)cc21)C(=O)O

>  <score_type>  (45) 
oracle

>  <origin>  (45) 
adg

>  <m_score__min__energy>  (45) 
-6.8399999999999999

>  <m_primary>  (45) 
energy

$$$$
45:0
     RDKit          3D

 33 34  0  0  0  0  0  0  0  0999 V2000
  145.7900  151.8590  131.9630 N   0  0  0  0  0  0  0  0  0  0  0  0
  145.0260  152.7710  132.7550 C   0  0  0  0  0  0  0  0  0  0  0  0
  143.9170  152.4020  133.2240 O   0  0  0  0  0  0  0  0  0  0  0  0
  145.4840  154.1560  132.9770 C   0  0  0  0  0  0  0  0  0  0  0  0
  144.6300  155.2530  132.9750 C   0  0  0  0  0  0  0  0  0  0  0  0
  145.4450  156.3480  133.1460 C   0  0  0  0  0  0  0  0  0  0  0  0
  145.1220  157.6980  133.2220 C   0  0  0  0  0  0  0  0  0  0  0  0
  146.1650  158.6150  133.4330 C   0  0  0  0  0  0  0  0  0  0  0  0
  147.5030  158.1680  133.5920 C   0  0  0  0  0  0  0  0  0  0  0  0
  148.6180  159.1640  133.7830 C   0  0  0  0  0  0  0  0  0  0  0  0
  149.2250  158.9880  135.0150 F   0  0  0  0  0  0  0  0  0  0  0  0
  148.1340  160.4600  133.7220 F   0  0  0  0  0  0  0  0  0  0  0  0
  149.5610  158.9880  132.7870 F   0  0  0  0  0  0  0  0  0  0  0  0
  147.7940  156.7880  133.4860 C   0  0  0  0  0  0  0  0  0  0  0  0
  146.7370  155.8980  133.2540 C   0  0  0  0  0  0  0  0  0  0  0  0
  146.7770  154.5490  133.1530 N   0  0  0  0  0  0  0  0  0  0  0  0
  147.9250  153.7030  133.3330 C   0  0  0  0  0  0  0  0  0  0  0  0
  148.4700  153.6130  134.4670 O   0  0  0  0  0  0  0  0  0  0  0  0
  148.4220  152.9680  132.2490 O   0  0  0  0  0  0  0  0  0  0  0  0
  149.5130  152.0540  132.3450 C   0  0  0  0  0  0  0  0  0  0  0  0
  149.0620  150.6300  132.0280 C   0  0  0  0  0  0  0  0  0  0  0  0
  147.7010  150.4770  132.3160 O   0  0  0  0  0  0  0  0  0  0  0  0
  146.6240  152.1820  131.4250 H   0  0  0  0  0  0  0  0  0  0  0  0
  145.4730  150.8710  131.8490 H   0  0  0  0  0  0  0  0  0  0  0  0
  143.5359  155.2468  132.8610 H   0  0  0  0  0  0  0  0  0  0  0  0
  144.0808  158.0379  133.1200 H   0  0  0  0  0  0  0  0  0  0  0  0
  145.9425  159.6914  133.4755 H   0  0  0  0  0  0  0  0  0  0  0  0
  148.8267  156.4217  133.5835 H   0  0  0  0  0  0  0  0  0  0  0  0
  150.2953  152.3511  131.6311 H   0  0  0  0  0  0  0  0  0  0  0  0
  149.9016  152.0782  133.3738 H   0  0  0  0  0  0  0  0  0  0  0  0
  149.2327  150.4242  130.9610 H   0  0  0  0  0  0  0  0  0  0  0  0
  149.6399  149.9256  132.6443 H   0  0  0  0  0  0  0  0  0  0  0  0
  147.4900  151.1540  133.0100 H   0  0  0  0  0  0  0  0  0  0  0  0
  1  2  1  0
  2  3  2  0
  2  4  1  0
  4  5  2  0
  5  6  1  0
  6  7  2  0
  7  8  1  0
  8  9  2  0
  9 10  1  0
 10 11  1  0
 10 12  1  0
 10 13  1  0
  9 14  1  0
 14 15  2  0
 15 16  1  0
 16 17  1  0
 17 18  2  0
 17 19  1  0
 19 20  1  0
 20 21  1  0
 21 22  1  0
 16  4  1  0
 15  6  1  0
  1 23  1  0
  1 24  1  0
  5 25  1  0
  7 26  1  0
  8 27  1  0
 14 28  1  0
 20 29  1  0
 20 30  1  0
 21 31  1  0
 21 32  1  0
 22 33  1  0
M  END
>  <UniqueID>  (46) 
46

>  <SMILES>  (46) 
NC(=O)c1cc2ccc(C(F)(F)F)cc2n1C(=O)OCCO

>  <Energy>  (46) 
69.40461434558395

>  <Genealogy>  (46) 
NC(=O)c1cc2ccc(C(F)(F)F)cc2n1C(=O)OCCO (3D coordinates assigned)
NC(=O)c1cc2ccc(C(F)(F)F)cc2n1C(=O)OCCO (optimized conformer: 69.40461434558395 kcal/mol)

>  <smiles>  (46) 
NC(=O)c1cc2ccc(C(F)(F)F)cc2n1C(=O)OCCO

>  <score_type>  (46) 
oracle

>  <origin>  (46) 
adg

>  <m_score__min__energy>  (46) 
-5.6200000000000001

>  <m_primary>  (46) 
energy

$$$$
46:0
     RDKit          3D

 31 32  0  0  0  0  0  0  0  0999 V2000
  145.8620  162.7420  134.5080 C   0  0  0  0  0  0  0  0  0  0  0  0
  146.1800  161.4680  133.9870 O   0  0  0  0  0  0  0  0  0  0  0  0
  145.0840  160.5880  134.1440 C   0  0  0  0  0  0  0  0  0  0  0  0
  145.2290  159.4090  133.2270 C   0  0  0  0  0  0  0  0  0  0  0  0
  144.2230  158.9820  132.6020 O   0  0  0  0  0  0  0  0  0  0  0  0
  146.4800  158.7100  133.1250 N   0  0  0  0  0  0  0  0  0  0  0  0
  146.7930  157.4720  133.6010 C   0  0  0  0  0  0  0  0  0  0  0  0
  145.9280  156.6350  134.4580 C   0  0  0  0  0  0  0  0  0  0  0  0
  144.5110  156.7680  134.3830 N   0  0  0  0  0  0  0  0  0  0  0  0
  146.4270  155.7800  135.2350 O   0  0  0  0  0  0  0  0  0  0  0  0
  148.0900  157.1230  133.2310 C   0  0  0  0  0  0  0  0  0  0  0  0
  148.5670  158.1970  132.5140 C   0  0  0  0  0  0  0  0  0  0  0  0
  149.7980  158.3880  131.8930 C   0  0  0  0  0  0  0  0  0  0  0  0
  150.0050  159.5920  131.1980 C   0  0  0  0  0  0  0  0  0  0  0  0
  148.9900  160.5790  131.1450 C   0  0  0  0  0  0  0  0  0  0  0  0
  149.2050  161.8380  130.3610 C   0  0  0  0  0  0  0  0  0  0  0  0
  149.9280  161.5520  129.2170 F   0  0  0  0  0  0  0  0  0  0  0  0
  147.7490  160.3450  131.7770 C   0  0  0  0  0  0  0  0  0  0  0  0
  147.5760  159.1420  132.4690 C   0  0  0  0  0  0  0  0  0  0  0  0
  145.8721  162.7016  135.6072 H   0  0  0  0  0  0  0  0  0  0  0  0
  146.6046  163.4757  134.1612 H   0  0  0  0  0  0  0  0  0  0  0  0
  144.8617  163.0407  134.1612 H   0  0  0  0  0  0  0  0  0  0  0  0
  145.0474  160.2357  135.1854 H   0  0  0  0  0  0  0  0  0  0  0  0
  144.1559  161.1235  133.8953 H   0  0  0  0  0  0  0  0  0  0  0  0
  144.0430  157.0290  133.4860 H   0  0  0  0  0  0  0  0  0  0  0  0
  148.6204  156.1876  133.4627 H   0  0  0  0  0  0  0  0  0  0  0  0
  150.5844  157.6205  131.9446 H   0  0  0  0  0  0  0  0  0  0  0  0
  150.9645  159.7697  130.6902 H   0  0  0  0  0  0  0  0  0  0  0  0
  148.2312  162.2665  130.0816 H   0  0  0  0  0  0  0  0  0  0  0  0
  149.7618  162.5612  130.9749 H   0  0  0  0  0  0  0  0  0  0  0  0
  146.9402  161.0888  131.7264 H   0  0  0  0  0  0  0  0  0  0  0  0
  1  2  1  0
  2  3  1  0
  3  4  1  0
  4  5  2  0
  4  6  1  0
  6  7  1  0
  7  8  1  0
  8  9  1  0
  8 10  2  0
  7 11  2  0
 11 12  1  0
 12 13  2  0
 13 14  1  0
 14 15  2  0
 15 16  1  0
 16 17  1  0
 15 18  1  0
 18 19  2  0
 19  6  1  0
 19 12  1  0
  1 20  1  0
  1 21  1  0
  1 22  1  0
  3 23  1  0
  3 24  1  0
  9 25  1  0
 11 26  1  0
 13 27  1  0
 14 28  1  0
 16 29  1  0
 16 30  1  0
 18 31  1  0
M  CHG  1   9  -1
M  END
>  <UniqueID>  (47) 
47

>  <SMILES>  (47) 
COCC(=O)n1c(C([NH-])=O)cc2ccc(CF)cc21

>  <Energy>  (47) 
70.66746913745577

>  <Genealogy>  (47) 
COCC(=O)n1c(C([NH-])=O)cc2ccc(CF)cc21 (protonated)
COCC(=O)n1c(C([NH-])=O)cc2ccc(CF)cc21 (3D coordinates assigned)
COCC(=O)n1c(C([NH-])=O)cc2ccc(CF)cc21 (optimized conformer: 70.66746913745577 kcal/mol)

>  <smiles>  (47) 
COCC(=O)n1c(C(N)=O)cc2ccc(CF)cc21

>  <score_type>  (47) 
oracle

>  <origin>  (47) 
adg

>  <m_score__min__energy>  (47) 
-5.2800000000000002

>  <m_primary>  (47) 
energy

$$$$
47:0
     RDKit          3D

 50 54  0  0  0  0  0  0  0  0999 V2000
  140.8240  156.8350  135.8850 C   0  0  0  0  0  0  0  0  0  0  0  0
  141.9880  156.2060  135.0880 C   0  0  2  0  0  0  0  0  0  0  0  0
  143.0060  157.2430  134.5970 C   0  0  0  0  0  0  0  0  0  0  0  0
  142.5120  158.4440  134.0230 C   0  0  0  0  0  0  0  0  0  0  0  0
  143.3720  159.3260  133.3560 C   0  0  0  0  0  0  0  0  0  0  0  0
  144.7230  159.0050  133.3100 C   0  0  0  0  0  0  0  0  0  0  0  0
  145.7470  159.6350  132.6470 C   0  0  0  0  0  0  0  0  0  0  0  0
  146.8760  158.8640  132.9000 C   0  0  0  0  0  0  0  0  0  0  0  0
  148.1960  159.1640  132.3270 C   0  0  0  0  0  0  0  0  0  0  0  0
  149.3550  158.4840  132.8010 N   0  0  0  0  0  0  0  0  0  0  0  0
  148.3090  160.0640  131.4520 O   0  0  0  0  0  0  0  0  0  0  0  0
  146.5770  157.7890  133.6900 N   0  0  0  0  0  0  0  0  0  0  0  0
  147.4580  156.6850  134.0180 C   0  0  0  0  0  0  0  0  0  0  0  0
  147.5150  156.2280  135.1920 O   0  0  0  0  0  0  0  0  0  0  0  0
  148.2710  156.1090  133.0550 O   0  0  0  0  0  0  0  0  0  0  0  0
  145.2460  157.8960  133.9280 C   0  0  0  0  0  0  0  0  0  0  0  0
  144.4050  157.0110  134.6170 C   0  0  0  0  0  0  0  0  0  0  0  0
  141.4450  155.3950  133.9860 N   0  0  0  0  0  0  0  0  0  0  0  0
  140.1650  155.5580  133.6310 N   0  0  0  0  0  0  0  0  0  0  0  0
  139.6630  154.4890  133.0340 N   0  0  0  0  0  0  0  0  0  0  0  0
  140.6600  153.5950  133.0210 C   0  0  0  0  0  0  0  0  0  0  0  0
  140.5860  152.2700  132.6720 C   0  0  0  0  0  0  0  0  0  0  0  0
  139.5180  151.7580  132.2320 O   0  0  0  0  0  0  0  0  0  0  0  0
  141.6920  151.5160  132.8490 N   0  0  0  0  0  0  0  0  0  0  0  0
  142.8720  152.0410  133.3070 C   0  0  0  0  0  0  0  0  0  0  0  0
  143.8550  151.2520  133.3410 O   0  0  0  0  0  0  0  0  0  0  0  0
  142.9950  153.3990  133.6540 N   0  0  0  0  0  0  0  0  0  0  0  0
  144.3490  154.0220  133.4470 C   0  0  1  0  0  0  0  0  0  0  0  0
  145.5670  153.6080  134.2790 C   0  0  0  0  0  0  0  0  0  0  0  0
  146.4140  153.5080  133.0120 C   0  0  1  0  0  0  0  0  0  0  0  0
  147.1070  152.2920  132.9160 O   0  0  0  0  0  0  0  0  0  0  0  0
  145.1460  153.5630  132.1940 C   0  0  0  0  0  0  0  0  0  0  0  0
  141.8030  154.1340  133.5610 C   0  0  0  0  0  0  0  0  0  0  0  0
  141.0185  156.7299  136.9626 H   0  0  0  0  0  0  0  0  0  0  0  0
  140.7393  157.9017  135.6300 H   0  0  0  0  0  0  0  0  0  0  0  0
  139.8853  156.3214  135.6300 H   0  0  0  0  0  0  0  0  0  0  0  0
  142.5524  155.5510  135.7680 H   0  0  0  0  0  0  0  0  0  0  0  0
  141.4416  158.6847  134.1030 H   0  0  0  0  0  0  0  0  0  0  0  0
  142.9900  160.2432  132.8839 H   0  0  0  0  0  0  0  0  0  0  0  0
  145.6870  160.5534  132.0445 H   0  0  0  0  0  0  0  0  0  0  0  0
  149.3080  157.9270  133.6890 H   0  0  0  0  0  0  0  0  0  0  0  0
  150.2760  158.6340  132.3380 H   0  0  0  0  0  0  0  0  0  0  0  0
  144.8225  156.1523  135.1632 H   0  0  0  0  0  0  0  0  0  0  0  0
  143.9290  155.0304  133.5762 H   0  0  0  0  0  0  0  0  0  0  0  0
  145.4421  152.6528  134.8101 H   0  0  0  0  0  0  0  0  0  0  0  0
  145.9012  154.2345  135.1191 H   0  0  0  0  0  0  0  0  0  0  0  0
  147.2382  154.2082  132.8111 H   0  0  0  0  0  0  0  0  0  0  0  0
  146.4940  151.6150  133.3260 H   0  0  0  0  0  0  0  0  0  0  0  0
  144.8287  152.5890  131.7932 H   0  0  0  0  0  0  0  0  0  0  0  0
  145.1096  154.1537  131.2668 H   0  0  0  0  0  0  0  0  0  0  0  0
  1  2  1  0
  2  3  1  0
  3  4  2  0
  4  5  1  0
  5  6  2  0
  6  7  1  0
  7  8  2  0
  8  9  1  0
  9 10  1  0
  9 11  2  0
  8 12  1  0
 12 13  1  0
 13 14  2  0
 13 15  1  0
 12 16  1  0
 16 17  2  0
  2 18  1  0
 18 19  1  0
 19 20  2  0
 20 21  1  0
 21 22  1  0
 22 23  2  0
 22 24  1  0
 24 25  1  0
 25 26  2  0
 25 27  1  0
 27 28  1  0
 28 29  1  0
 29 30  1  0
 30 31  1  0
 30 32  1  0
 27 33  1  0
 17  3  1  0
 33 18  1  0
 16  6  1  0
 33 21  2  0
 32 28  1  0
  1 34  1  0
  1 35  1  0
  1 36  1  0
  2 37  1  1
  4 38  1  0
  5 39  1  0
  7 40  1  0
 10 41  1  0
 10 42  1  0
 17 43  1  0
 28 44  1  6
 29 45  1  0
 29 46  1  0
 30 47  1  6
 31 48  1  0
 32 49  1  0
 32 50  1  0
M  CHG  2  15  -1  24  -1
M  END
>  <UniqueID>  (48) 
48

>  <SMILES>  (48) 
C[C@H](c1ccc2cc(C(N)=O)n(C(=O)[O-])c2c1)n1nnc2c(=O)[n-]c(=O)n(C3CC(O)C3)c21

>  <Energy>  (48) 
260.17661890562573

>  <Genealogy>  (48) 
CC(c1ccc2cc(C(N)=O)n(C(=O)[O-])c2c1)n1nnc2c(=O)[n-]c(=O)n(C3CC(O)C3)c21 (protonated)
C[C@H](c1ccc2cc(C(N)=O)n(C(=O)[O-])c2c1)n1nnc2c(=O)[n-]c(=O)n(C3CC(O)C3)c21 (chirality)
C[C@H](c1ccc2cc(C(N)=O)n(C(=O)[O-])c2c1)n1nnc2c(=O)[n-]c(=O)n(C3CC(O)C3)c21 (3D coordinates assigned)
C[C@H](c1ccc2cc(C(N)=O)n(C(=O)[O-])c2c1)n1nnc2c(=O)[n-]c(=O)n(C3CC(O)C3)c21 (nonaromatic ring conformer: 260.17661890562573 kcal/mol)

>  <smiles>  (48) 
CC(c1ccc2cc(C(N)=O)n(C(=O)O)c2c1)n1nnc2c(=O)[nH]c(=O)n(C3CC(O)C3)c21

>  <score_type>  (48) 
oracle

>  <origin>  (48) 
adg

>  <m_score__min__energy>  (48) 
-9.3800000000000008

>  <m_primary>  (48) 
energy

$$$$
48:0
     RDKit          3D

 35 36  0  0  0  0  0  0  0  0999 V2000
  145.0870  161.2790  134.0960 C   0  0  0  0  0  0  0  0  0  0  0  0
  144.7640  159.9040  133.7330 N   0  0  0  0  0  0  0  0  0  0  0  0
  143.3770  159.4490  133.7180 C   0  0  0  0  0  0  0  0  0  0  0  0
  145.8470  158.9930  133.4220 C   0  0  0  0  0  0  0  0  0  0  0  0
  147.0570  159.5030  132.8990 C   0  0  0  0  0  0  0  0  0  0  0  0
  148.1050  158.6550  132.5980 C   0  0  0  0  0  0  0  0  0  0  0  0
  147.9590  157.3090  132.8250 C   0  0  0  0  0  0  0  0  0  0  0  0
  148.8250  156.2770  132.6210 C   0  0  0  0  0  0  0  0  0  0  0  0
  148.1850  155.1030  133.0240 C   0  0  0  0  0  0  0  0  0  0  0  0
  148.8420  153.8050  132.9170 C   0  0  0  0  0  0  0  0  0  0  0  0
  148.5980  152.8040  133.9190 N   0  0  0  0  0  0  0  0  0  0  0  0
  149.6370  153.4800  132.0070 O   0  0  0  0  0  0  0  0  0  0  0  0
  146.9330  155.4290  133.4630 N   0  0  0  0  0  0  0  0  0  0  0  0
  145.9400  154.5210  133.9620 C   0  0  0  0  0  0  0  0  0  0  0  0
  146.1420  153.7570  134.9180 O   0  0  0  0  0  0  0  0  0  0  0  0
  144.6530  154.4490  133.3850 O   0  0  0  0  0  0  0  0  0  0  0  0
  144.3680  153.3190  132.5830 C   0  0  0  0  0  0  0  0  0  0  0  0
  145.8510  152.2600  132.2620 P   0  0  0  0  0  0  0  0  0  0  0  0
  146.7880  156.7620  133.3490 C   0  0  0  0  0  0  0  0  0  0  0  0
  145.7330  157.6130  133.6430 C   0  0  0  0  0  0  0  0  0  0  0  0
  145.1092  161.3734  135.1917 H   0  0  0  0  0  0  0  0  0  0  0  0
  146.0721  161.5450  133.6850 H   0  0  0  0  0  0  0  0  0  0  0  0
  144.3234  161.9558  133.6850 H   0  0  0  0  0  0  0  0  0  0  0  0
  143.0185  159.3314  134.7513 H   0  0  0  0  0  0  0  0  0  0  0  0
  142.7537  160.1898  133.1957 H   0  0  0  0  0  0  0  0  0  0  0  0
  143.3136  158.4830  133.1957 H   0  0  0  0  0  0  0  0  0  0  0  0
  147.1651  160.5846  132.7302 H   0  0  0  0  0  0  0  0  0  0  0  0
  149.0428  159.0524  132.1825 H   0  0  0  0  0  0  0  0  0  0  0  0
  149.8435  156.3545  132.2129 H   0  0  0  0  0  0  0  0  0  0  0  0
  147.6260  152.5910  134.2380 H   0  0  0  0  0  0  0  0  0  0  0  0
  143.6078  152.7102  133.0943 H   0  0  0  0  0  0  0  0  0  0  0  0
  144.0144  153.6899  131.6096 H   0  0  0  0  0  0  0  0  0  0  0  0
  146.5760  152.1700  133.5170 H   0  0  0  0  0  0  0  0  0  0  0  0
  145.5360  151.0670  131.5140 H   0  0  0  0  0  0  0  0  0  0  0  0
  144.7988  157.2018  134.0531 H   0  0  0  0  0  0  0  0  0  0  0  0
  1  2  1  0
  2  3  1  0
  2  4  1  0
  4  5  2  0
  5  6  1  0
  6  7  2  0
  7  8  1  0
  8  9  2  0
  9 10  1  0
 10 11  1  0
 10 12  2  0
  9 13  1  0
 13 14  1  0
 14 15  2  0
 14 16  1  0
 16 17  1  0
 17 18  1  0
 13 19  1  0
 19 20  2  0
 20  4  1  0
 19  7  1  0
  1 21  1  0
  1 22  1  0
  1 23  1  0
  3 24  1  0
  3 25  1  0
  3 26  1  0
  5 27  1  0
  6 28  1  0
  8 29  1  0
 11 30  1  0
 17 31  1  0
 17 32  1  0
 18 33  1  0
 18 34  1  0
 20 35  1  0
M  CHG  1  11  -1
M  END
>  <UniqueID>  (49) 
49

>  <SMILES>  (49) 
CN(C)c1ccc2cc(C([NH-])=O)n(C(=O)OC[P@@H2])c2c1

>  <Energy>  (49) 
112.11887992885372

>  <Genealogy>  (49) 
CN(C)c1ccc2cc(C([NH-])=O)n(C(=O)OCP)c2c1 (protonated)
CN(C)c1ccc2cc(C([NH-])=O)n(C(=O)OC[P@@H2])c2c1 (chirality)
CN(C)c1ccc2cc(C([NH-])=O)n(C(=O)OC[P@@H2])c2c1 (3D coordinates assigned)
CN(C)c1ccc2cc(C([NH-])=O)n(C(=O)OC[P@@H2])c2c1 (optimized conformer: 112.11887992885372 kcal/mol)

>  <smiles>  (49) 
CN(C)c1ccc2cc(C(N)=O)n(C(=O)OCP)c2c1

>  <score_type>  (49) 
oracle

>  <origin>  (49) 
adg

>  <m_score__min__energy>  (49) 
-6.0199999999999996

>  <m_primary>  (49) 
energy

$$$$
49:0
     RDKit          3D

 36 37  0  0  0  0  0  0  0  0999 V2000
  141.8090  158.9250  134.8460 C   0  0  0  0  0  0  0  0  0  0  0  0
  143.1490  159.3050  134.2940 C   0  0  0  0  0  0  0  0  0  0  0  0
  143.4740  160.6690  134.0940 C   0  0  0  0  0  0  0  0  0  0  0  0
  144.7460  161.0410  133.6280 C   0  0  0  0  0  0  0  0  0  0  0  0
  145.6680  160.0310  133.3730 C   0  0  0  0  0  0  0  0  0  0  0  0
  146.9790  160.1160  132.9610 C   0  0  0  0  0  0  0  0  0  0  0  0
  147.4300  158.7990  132.9000 C   0  0  0  0  0  0  0  0  0  0  0  0
  148.7850  158.4240  132.4490 C   0  0  0  0  0  0  0  0  0  0  0  0
  149.1420  157.0580  132.2350 N   0  0  0  0  0  0  0  0  0  0  0  0
  149.6250  159.3280  132.1960 O   0  0  0  0  0  0  0  0  0  0  0  0
  146.4440  157.9340  133.2710 N   0  0  0  0  0  0  0  0  0  0  0  0
  146.5520  156.5130  133.4480 C   0  0  0  0  0  0  0  0  0  0  0  0
  145.7210  155.7450  132.8920 O   0  0  0  0  0  0  0  0  0  0  0  0
  147.5970  155.9700  134.2630 N   0  0  0  0  0  0  0  0  0  0  0  0
  147.7370  154.5470  134.5580 C   0  0  2  0  0  0  0  0  0  0  0  0
  147.6800  153.7550  133.2440 C   0  0  0  0  0  0  0  0  0  0  0  0
  149.0460  153.5500  132.6630 C   0  0  0  0  0  0  0  0  0  0  0  0
  149.5240  152.3890  132.5600 O   0  0  0  0  0  0  0  0  0  0  0  0
  149.8070  154.6450  132.2730 O   0  0  0  0  0  0  0  0  0  0  0  0
  146.6470  154.1120  135.4990 C   0  0  0  0  0  0  0  0  0  0  0  0
  145.4450  154.4110  135.2660 O   0  0  0  0  0  0  0  0  0  0  0  0
  146.9600  153.3530  136.6190 O   0  0  0  0  0  0  0  0  0  0  0  0
  145.3700  158.7040  133.5570 C   0  0  0  0  0  0  0  0  0  0  0  0
  144.1180  158.3080  134.0440 C   0  0  0  0  0  0  0  0  0  0  0  0
  141.8487  158.9362  135.9452 H   0  0  0  0  0  0  0  0  0  0  0  0
  141.0522  159.6440  134.4990 H   0  0  0  0  0  0  0  0  0  0  0  0
  141.5423  157.9158  134.4990 H   0  0  0  0  0  0  0  0  0  0  0  0
  142.7231  161.4445  134.3056 H   0  0  0  0  0  0  0  0  0  0  0  0
  145.0050  162.0983  133.4697 H   0  0  0  0  0  0  0  0  0  0  0  0
  147.5484  161.0282  132.7296 H   0  0  0  0  0  0  0  0  0  0  0  0
  148.4250  156.3010  132.2610 H   0  0  0  0  0  0  0  0  0  0  0  0
  150.1180  156.8100  131.9570 H   0  0  0  0  0  0  0  0  0  0  0  0
  148.7043  154.3557  135.0456 H   0  0  0  0  0  0  0  0  0  0  0  0
  147.2240  152.7731  133.4387 H   0  0  0  0  0  0  0  0  0  0  0  0
  147.0820  154.3300  132.5217 H   0  0  0  0  0  0  0  0  0  0  0  0
  143.8947  157.2466  134.2273 H   0  0  0  0  0  0  0  0  0  0  0  0
  1  2  1  0
  2  3  2  0
  3  4  1  0
  4  5  2  0
  5  6  1  0
  6  7  2  0
  7  8  1  0
  8  9  1  0
  8 10  2  0
  7 11  1  0
 11 12  1  0
 12 13  2  0
 12 14  1  0
 14 15  1  0
 15 16  1  0
 16 17  1  0
 17 18  2  0
 17 19  1  0
 15 20  1  0
 20 21  2  0
 20 22  1  0
 11 23  1  0
 23 24  2  0
 24  2  1  0
 23  5  1  0
  1 25  1  0
  1 26  1  0
  1 27  1  0
  3 28  1  0
  4 29  1  0
  6 30  1  0
  9 31  1  0
  9 32  1  0
 15 33  1  1
 16 34  1  0
 16 35  1  0
 24 36  1  0
M  CHG  3  14  -1  19  -1  22  -1
M  END
>  <UniqueID>  (50) 
50

>  <SMILES>  (50) 
Cc1ccc2cc(C(N)=O)n(C(=O)[N-][C@H](CC(=O)[O-])C(=O)[O-])c2c1

>  <Energy>  (50) 
70.47222282233493

>  <Genealogy>  (50) 
Cc1ccc2cc(C(N)=O)n(C(=O)[N-]C(CC(=O)[O-])C(=O)[O-])c2c1 (protonated)
Cc1ccc2cc(C(N)=O)n(C(=O)[N-][C@H](CC(=O)[O-])C(=O)[O-])c2c1 (chirality)
Cc1ccc2cc(C(N)=O)n(C(=O)[N-][C@H](CC(=O)[O-])C(=O)[O-])c2c1 (3D coordinates assigned)
Cc1ccc2cc(C(N)=O)n(C(=O)[N-][C@H](CC(=O)[O-])C(=O)[O-])c2c1 (optimized conformer: 70.47222282233493 kcal/mol)

>  <smiles>  (50) 
Cc1ccc2cc(C(N)=O)n(C(=O)NC(CC(=O)O)C(=O)O)c2c1

>  <score_type>  (50) 
oracle

>  <origin>  (50) 
adg

>  <m_score__min__energy>  (50) 
-7.0499999999999998

>  <m_primary>  (50) 
energy

$$$$
50:0
     RDKit          3D

 55 57  0  0  0  0  0  0  0  0999 V2000
  139.8040  155.9880  133.0000 C   0  0  0  0  0  0  0  0  0  0  0  0
  139.8730  157.4190  133.5320 C   0  0  0  0  0  0  0  0  0  0  0  0
  140.9540  158.1860  132.8710 N   0  0  0  0  0  0  0  0  0  0  0  0
  140.3960  159.3380  132.1220 C   0  0  0  0  0  0  0  0  0  0  0  0
  139.0680  159.0210  131.4290 C   0  0  0  0  0  0  0  0  0  0  0  0
  142.0870  158.5140  133.7790 C   0  0  0  0  0  0  0  0  0  0  0  0
  143.3700  157.6770  133.5630 C   0  0  0  0  0  0  0  0  0  0  0  0
  143.1690  156.5970  132.5910 N   0  0  0  0  0  0  0  0  0  0  0  0
  143.9690  155.4000  132.5610 C   0  0  0  0  0  0  0  0  0  0  0  0
  143.3230  154.1410  132.4530 C   0  0  0  0  0  0  0  0  0  0  0  0
  144.0620  152.9470  132.4490 C   0  0  0  0  0  0  0  0  0  0  0  0
  145.4480  153.0380  132.5450 C   0  0  0  0  0  0  0  0  0  0  0  0
  146.4000  152.0460  132.6050 C   0  0  0  0  0  0  0  0  0  0  0  0
  147.6230  152.7090  132.7250 C   0  0  0  0  0  0  0  0  0  0  0  0
  148.9440  152.0320  132.7630 C   0  0  0  0  0  0  0  0  0  0  0  0
  149.9850  152.4040  131.8620 N   0  0  0  0  0  0  0  0  0  0  0  0
  149.1690  151.1200  133.6010 O   0  0  0  0  0  0  0  0  0  0  0  0
  147.4270  154.0570  132.7310 N   0  0  0  0  0  0  0  0  0  0  0  0
  148.4170  155.0870  132.8780 C   0  0  0  0  0  0  0  0  0  0  0  0
  149.5390  154.9590  132.3150 O   0  0  0  0  0  0  0  0  0  0  0  0
  148.1060  156.2500  133.5890 O   0  0  0  0  0  0  0  0  0  0  0  0
  148.1090  157.5430  133.0500 C   0  0  0  0  0  0  0  0  0  0  0  0
  147.0550  158.4070  133.3710 C   0  0  0  0  0  0  0  0  0  0  0  0
  147.0290  159.7070  132.8610 C   0  0  0  0  0  0  0  0  0  0  0  0
  148.0670  160.1590  132.0370 C   0  0  0  0  0  0  0  0  0  0  0  0
  149.1340  159.3130  131.7290 C   0  0  0  0  0  0  0  0  0  0  0  0
  149.1580  158.0090  132.2340 C   0  0  0  0  0  0  0  0  0  0  0  0
  146.0930  154.2430  132.6230 C   0  0  0  0  0  0  0  0  0  0  0  0
  145.3830  155.4500  132.6460 C   0  0  0  0  0  0  0  0  0  0  0  0
  139.7701  155.2841  133.8446 H   0  0  0  0  0  0  0  0  0  0  0  0
  138.8990  155.8682  132.3862 H   0  0  0  0  0  0  0  0  0  0  0  0
  140.6932  155.7817  132.3862 H   0  0  0  0  0  0  0  0  0  0  0  0
  138.9115  157.9187  133.3427 H   0  0  0  0  0  0  0  0  0  0  0  0
  140.0844  157.3791  134.6108 H   0  0  0  0  0  0  0  0  0  0  0  0
  140.2336  160.1672  132.8263 H   0  0  0  0  0  0  0  0  0  0  0  0
  141.1204  159.5988  131.3364 H   0  0  0  0  0  0  0  0  0  0  0  0
  138.2934  158.8361  132.1878 H   0  0  0  0  0  0  0  0  0  0  0  0
  138.7697  159.8732  130.8007 H   0  0  0  0  0  0  0  0  0  0  0  0
  139.1868  158.1260  130.8007 H   0  0  0  0  0  0  0  0  0  0  0  0
  142.3438  159.5736  133.6332 H   0  0  0  0  0  0  0  0  0  0  0  0
  141.7392  158.2812  134.7963 H   0  0  0  0  0  0  0  0  0  0  0  0
  144.1679  158.3396  133.1966 H   0  0  0  0  0  0  0  0  0  0  0  0
  143.6410  157.2192  134.5258 H   0  0  0  0  0  0  0  0  0  0  0  0
  142.4250  156.6980  131.8680 H   0  0  0  0  0  0  0  0  0  0  0  0
  142.2268  154.0999  132.3712 H   0  0  0  0  0  0  0  0  0  0  0  0
  143.5616  151.9704  132.3724 H   0  0  0  0  0  0  0  0  0  0  0  0
  146.2327  150.9595  132.5665 H   0  0  0  0  0  0  0  0  0  0  0  0
  150.9180  151.9380  131.9170 H   0  0  0  0  0  0  0  0  0  0  0  0
  149.8570  153.1570  131.1590 H   0  0  0  0  0  0  0  0  0  0  0  0
  146.2436  158.0603  134.0279 H   0  0  0  0  0  0  0  0  0  0  0  0
  146.1918  160.3768  133.1070 H   0  0  0  0  0  0  0  0  0  0  0  0
  148.0417  161.1814  131.6321 H   0  0  0  0  0  0  0  0  0  0  0  0
  149.9546  159.6715  131.0901 H   0  0  0  0  0  0  0  0  0  0  0  0
  150.0004  157.3441  131.9926 H   0  0  0  0  0  0  0  0  0  0  0  0
  145.9093  156.4124  132.7279 H   0  0  0  0  0  0  0  0  0  0  0  0
  1  2  1  0
  2  3  1  0
  3  4  1  0
  4  5  1  0
  3  6  1  0
  6  7  1  0
  7  8  1  0
  8  9  1  0
  9 10  2  0
 10 11  1  0
 11 12  2  0
 12 13  1  0
 13 14  2  0
 14 15  1  0
 15 16  1  0
 15 17  2  0
 14 18  1  0
 18 19  1  0
 19 20  2  0
 19 21  1  0
 21 22  1  0
 22 23  2  0
 23 24  1  0
 24 25  2  0
 25 26  1  0
 26 27  2  0
 18 28  1  0
 28 29  2  0
 29  9  1  0
 28 12  1  0
 27 22  1  0
  1 30  1  0
  1 31  1  0
  1 32  1  0
  2 33  1  0
  2 34  1  0
  4 35  1  0
  4 36  1  0
  5 37  1  0
  5 38  1  0
  5 39  1  0
  6 40  1  0
  6 41  1  0
  7 42  1  0
  7 43  1  0
  8 44  1  0
 10 45  1  0
 11 46  1  0
 13 47  1  0
 16 48  1  0
 16 49  1  0
 23 50  1  0
 24 51  1  0
 25 52  1  0
 26 53  1  0
 27 54  1  0
 29 55  1  0
M  END
>  <UniqueID>  (51) 
51

>  <SMILES>  (51) 
CCN(CC)CCNc1ccc2cc(C(N)=O)n(C(=O)Oc3ccccc3)c2c1

>  <Energy>  (51) 
104.04794820441448

>  <Genealogy>  (51) 
CCN(CC)CCNc1ccc2cc(C(N)=O)n(C(=O)Oc3ccccc3)c2c1 (3D coordinates assigned)
CCN(CC)CCNc1ccc2cc(C(N)=O)n(C(=O)Oc3ccccc3)c2c1 (optimized conformer: 104.04794820441448 kcal/mol)

>  <smiles>  (51) 
CCN(CC)CCNc1ccc2cc(C(N)=O)n(C(=O)Oc3ccccc3)c2c1

>  <score_type>  (51) 
oracle

>  <origin>  (51) 
adg

>  <m_score__min__energy>  (51) 
-9.1099999999999994

>  <m_primary>  (51) 
energy

$$$$
51:0
     RDKit          3D

 35 36  0  0  0  0  0  0  0  0999 V2000
  148.4608  159.5970  134.2580 H   0  0  0  0  0  0  0  0  0  0  0  0
  148.3780  159.3890  133.1810 C   0  0  0  0  0  0  0  0  0  0  0  0
  147.0110  159.3090  132.6140 C   0  0  0  0  0  0  0  0  0  0  0  0
  146.6310  160.1070  131.7150 O   0  0  0  0  0  0  0  0  0  0  0  0
  146.1160  158.2780  133.0570 N   0  0  0  0  0  0  0  0  0  0  0  0
  144.8850  158.4400  133.6190 C   0  0  0  0  0  0  0  0  0  0  0  0
  144.1570  159.7180  133.7520 C   0  0  0  0  0  0  0  0  0  0  0  0
  142.9770  159.7150  134.1940 O   0  0  0  0  0  0  0  0  0  0  0  0
  144.7450  160.9550  133.3430 N   0  0  0  0  0  0  0  0  0  0  0  0
  145.6370  160.9770  132.8030 H   0  0  0  0  0  0  0  0  0  0  0  0
  144.2350  161.8520  133.4960 H   0  0  0  0  0  0  0  0  0  0  0  0
  144.3770  157.2170  134.0500 C   0  0  0  0  0  0  0  0  0  0  0  0
  143.4114  157.0326  134.5436 H   0  0  0  0  0  0  0  0  0  0  0  0
  145.3400  156.2880  133.7270 C   0  0  0  0  0  0  0  0  0  0  0  0
  145.3750  154.9170  133.9590 C   0  0  0  0  0  0  0  0  0  0  0  0
  144.5271  154.4004  134.4324 H   0  0  0  0  0  0  0  0  0  0  0  0
  146.5270  154.2120  133.5700 C   0  0  0  0  0  0  0  0  0  0  0  0
  146.5845  153.1265  133.7383 H   0  0  0  0  0  0  0  0  0  0  0  0
  147.6150  154.8870  132.9630 C   0  0  0  0  0  0  0  0  0  0  0  0
  148.8610  154.1320  132.6070 C   0  0  0  0  0  0  0  0  0  0  0  0
  149.3762  153.8198  133.5274 H   0  0  0  0  0  0  0  0  0  0  0  0
  148.5949  153.2431  132.0162 H   0  0  0  0  0  0  0  0  0  0  0  0
  149.5258  154.7793  132.0162 H   0  0  0  0  0  0  0  0  0  0  0  0
  147.5530  156.2830  132.7630 C   0  0  0  0  0  0  0  0  0  0  0  0
  148.4023  156.8286  132.3261 H   0  0  0  0  0  0  0  0  0  0  0  0
  146.3830  156.9550  133.1350 C   0  0  0  0  0  0  0  0  0  0  0  0
  149.5240  159.2310  132.5010 C   0  0  0  0  0  0  0  0  0  0  0  0
  150.4670  159.3028  133.0628 H   0  0  0  0  0  0  0  0  0  0  0  0
  149.6080  158.9620  131.0210 C   0  0  0  0  0  0  0  0  0  0  0  0
  150.2097  158.0557  130.8579 H   0  0  0  0  0  0  0  0  0  0  0  0
  148.5844  158.8325  130.6395 H   0  0  0  0  0  0  0  0  0  0  0  0
  150.2520  160.1260  130.2650 C   0  0  0  0  0  0  0  0  0  0  0  0
  151.2317  160.3475  130.7134 H   0  0  0  0  0  0  0  0  0  0  0  0
  150.3664  159.8368  129.2099 H   0  0  0  0  0  0  0  0  0  0  0  0
  149.2300  161.5880  130.3450 Cl  0  0  0  0  0  0  0  0  0  0  0  0
  1  2  1  0
  2  3  1  0
  3  4  2  0
  3  5  1  0
  5  6  1  0
  6  7  1  0
  7  8  2  0
  7  9  1  0
  9 10  1  0
  9 11  1  0
  6 12  2  0
 12 13  1  0
 12 14  1  0
 14 15  2  0
 15 16  1  0
 15 17  1  0
 17 18  1  0
 17 19  2  0
 19 20  1  0
 20 21  1  0
 20 22  1  0
 20 23  1  0
 19 24  1  0
 24 25  1  0
 24 26  2  0
  2 27  2  0
 27 28  1  0
 27 29  1  0
 29 30  1  0
 29 31  1  0
 29 32  1  0
 32 33  1  0
 32 34  1  0
 32 35  1  0
 26  5  1  0
 26 14  1  0
M  END
>  <UniqueID>  (52) 
52

>  <SMILES>  (52) 
Cc1ccc2cc(C(N)=O)n(C(=O)/C=C\CCCl)c2c1

>  <Energy>  (52) 
72.66035852935154

>  <Genealogy>  (52) 
Cc1ccc2cc(C(N)=O)n(C(=O)/C=C\CCCl)c2c1 (cis-trans isomerization)
Cc1ccc2cc(C(N)=O)n(C(=O)/C=C\CCCl)c2c1 (3D coordinates assigned)
Cc1ccc2cc(C(N)=O)n(C(=O)/C=C\CCCl)c2c1 (optimized conformer: 72.66035852935154 kcal/mol)

>  <smiles>  (52) 
Cc1ccc2cc(C(N)=O)n(C(=O)C=CCCCl)c2c1

>  <score_type>  (52) 
oracle

>  <origin>  (52) 
adg

>  <m_score__min__energy>  (52) 
-7.8600000000000003

>  <m_primary>  (52) 
energy

$$$$
52:0
     RDKit          3D

 35 37  0  0  0  0  0  0  0  0999 V2000
  138.3610  158.0170  131.3500 N   0  0  0  0  0  0  0  0  0  0  0  0
  139.5650  158.6280  131.8160 C   0  0  0  0  0  0  0  0  0  0  0  0
  140.2450  159.3260  131.0180 O   0  0  0  0  0  0  0  0  0  0  0  0
  140.0250  158.4370  133.2120 C   0  0  0  0  0  0  0  0  0  0  0  0
  140.3860  159.4720  134.0740 C   0  0  0  0  0  0  0  0  0  0  0  0
  140.6920  158.8630  135.2700 C   0  0  0  0  0  0  0  0  0  0  0  0
  141.1090  159.4130  136.4780 C   0  0  0  0  0  0  0  0  0  0  0  0
  141.3640  158.5380  137.5480 C   0  0  0  0  0  0  0  0  0  0  0  0
  141.2230  157.1360  137.3890 C   0  0  0  0  0  0  0  0  0  0  0  0
  141.4570  156.2100  138.5560 C   0  0  0  0  0  0  0  0  0  0  0  0
  142.3400  155.2160  138.1770 F   0  0  0  0  0  0  0  0  0  0  0  0
  140.2690  155.6270  138.9630 F   0  0  0  0  0  0  0  0  0  0  0  0
  141.9900  156.9020  139.6290 F   0  0  0  0  0  0  0  0  0  0  0  0
  140.7770  156.6180  136.1510 C   0  0  0  0  0  0  0  0  0  0  0  0
  140.5140  157.5140  135.1110 C   0  0  0  0  0  0  0  0  0  0  0  0
  140.0950  157.2390  133.8570 N   0  0  0  0  0  0  0  0  0  0  0  0
  139.8590  155.9340  133.3030 C   0  0  0  0  0  0  0  0  0  0  0  0
  138.7330  155.6790  132.7950 O   0  0  0  0  0  0  0  0  0  0  0  0
  140.9130  154.8920  133.3200 C   0  0  0  0  0  0  0  0  0  0  0  0
  142.2610  155.2470  133.5050 C   0  0  0  0  0  0  0  0  0  0  0  0
  143.2560  154.2650  133.5260 C   0  0  0  0  0  0  0  0  0  0  0  0
  142.9180  152.9190  133.3590 C   0  0  0  0  0  0  0  0  0  0  0  0
  143.8920  151.9750  133.3840 F   0  0  0  0  0  0  0  0  0  0  0  0
  141.5810  152.5530  133.1650 C   0  0  0  0  0  0  0  0  0  0  0  0
  141.1460  150.8670  132.9490 Cl  0  0  0  0  0  0  0  0  0  0  0  0
  140.5840  153.5350  133.1410 C   0  0  0  0  0  0  0  0  0  0  0  0
  137.7310  157.4870  131.9910 H   0  0  0  0  0  0  0  0  0  0  0  0
  138.0690  158.1320  130.3540 H   0  0  0  0  0  0  0  0  0  0  0  0
  140.4192  160.5477  133.8464 H   0  0  0  0  0  0  0  0  0  0  0  0
  141.2353  160.4997  136.5922 H   0  0  0  0  0  0  0  0  0  0  0  0
  141.6767  158.9458  138.5206 H   0  0  0  0  0  0  0  0  0  0  0  0
  140.6403  155.5357  136.0099 H   0  0  0  0  0  0  0  0  0  0  0  0
  142.5345  156.3046  133.6341 H   0  0  0  0  0  0  0  0  0  0  0  0
  144.3074  154.5523  133.6743 H   0  0  0  0  0  0  0  0  0  0  0  0
  139.5353  153.2442  132.9810 H   0  0  0  0  0  0  0  0  0  0  0  0
  1  2  1  0
  2  3  2  0
  2  4  1  0
  4  5  2  0
  5  6  1  0
  6  7  2  0
  7  8  1  0
  8  9  2  0
  9 10  1  0
 10 11  1  0
 10 12  1  0
 10 13  1  0
  9 14  1  0
 14 15  2  0
 15 16  1  0
 16 17  1  0
 17 18  2  0
 17 19  1  0
 19 20  2  0
 20 21  1  0
 21 22  2  0
 22 23  1  0
 22 24  1  0
 24 25  1  0
 24 26  2  0
 16  4  1  0
 26 19  1  0
 15  6  1  0
  1 27  1  0
  1 28  1  0
  5 29  1  0
  7 30  1  0
  8 31  1  0
 14 32  1  0
 20 33  1  0
 21 34  1  0
 26 35  1  0
M  END
>  <UniqueID>  (53) 
53

>  <SMILES>  (53) 
NC(=O)c1cc2ccc(C(F)(F)F)cc2n1C(=O)c1ccc(F)c(Cl)c1

>  <Energy>  (53) 
78.87145476511098

>  <Genealogy>  (53) 
NC(=O)c1cc2ccc(C(F)(F)F)cc2n1C(=O)c1ccc(F)c(Cl)c1 (3D coordinates assigned)
NC(=O)c1cc2ccc(C(F)(F)F)cc2n1C(=O)c1ccc(F)c(Cl)c1 (optimized conformer: 78.87145476511098 kcal/mol)

>  <smiles>  (53) 
NC(=O)c1cc2ccc(C(F)(F)F)cc2n1C(=O)c1ccc(F)c(Cl)c1

>  <score_type>  (53) 
oracle

>  <origin>  (53) 
adg

>  <m_score__min__energy>  (53) 
-7.7300000000000004

>  <m_primary>  (53) 
energy

$$$$
53:0
     RDKit          3D

 32 34  0  0  0  0  0  0  0  0999 V2000
  148.8040  158.0570  131.6350 N   0  0  0  0  0  0  0  0  0  0  0  0
  148.4740  158.8210  132.7920 C   0  0  0  0  0  0  0  0  0  0  0  0
  149.3980  159.3530  133.4640 O   0  0  0  0  0  0  0  0  0  0  0  0
  147.0660  159.0420  133.1810 C   0  0  0  0  0  0  0  0  0  0  0  0
  146.4960  160.3070  133.3120 C   0  0  0  0  0  0  0  0  0  0  0  0
  145.1670  160.0810  133.5910 C   0  0  0  0  0  0  0  0  0  0  0  0
  144.1360  160.9830  133.8280 C   0  0  0  0  0  0  0  0  0  0  0  0
  142.8630  160.4670  134.1220 C   0  0  0  0  0  0  0  0  0  0  0  0
  142.6430  159.0670  134.1800 C   0  0  0  0  0  0  0  0  0  0  0  0
  141.3020  158.5360  134.5030 C   0  0  0  0  0  0  0  0  0  0  0  0
  140.6040  157.7130  133.6930 N   0  0  0  0  0  0  0  0  0  0  0  0
  139.4760  157.5120  134.4000 C   0  0  0  0  0  0  0  0  0  0  0  0
  139.4840  158.1720  135.5720 N   0  0  0  0  0  0  0  0  0  0  0  0
  140.6350  158.8180  135.6370 N   0  0  0  0  0  0  0  0  0  0  0  0
  143.7180  158.1820  133.9340 C   0  0  0  0  0  0  0  0  0  0  0  0
  144.9720  158.7250  133.6270 C   0  0  0  0  0  0  0  0  0  0  0  0
  146.1280  158.0730  133.3810 N   0  0  0  0  0  0  0  0  0  0  0  0
  146.3280  156.6510  133.4270 C   0  0  0  0  0  0  0  0  0  0  0  0
  146.7440  156.0420  132.4050 O   0  0  0  0  0  0  0  0  0  0  0  0
  146.0250  155.9260  134.6240 N   0  0  0  0  0  0  0  0  0  0  0  0
  147.0010  155.1220  135.3480 C   0  0  0  0  0  0  0  0  0  0  0  0
  146.3140  154.0130  136.0810 C   0  0  0  0  0  0  0  0  0  0  0  0
  146.9880  153.1890  136.7540 O   0  0  0  0  0  0  0  0  0  0  0  0
  144.9300  153.9080  136.0490 O   0  0  0  0  0  0  0  0  0  0  0  0
  148.3910  157.1120  131.4800 H   0  0  0  0  0  0  0  0  0  0  0  0
  147.0008  161.2794  133.2134 H   0  0  0  0  0  0  0  0  0  0  0  0
  144.3118  162.0681  133.7866 H   0  0  0  0  0  0  0  0  0  0  0  0
  142.0269  161.1568  134.3094 H   0  0  0  0  0  0  0  0  0  0  0  0
  138.6430  156.8802  134.0582 H   0  0  0  0  0  0  0  0  0  0  0  0
  143.5728  157.0927  133.9826 H   0  0  0  0  0  0  0  0  0  0  0  0
  147.7211  154.6948  134.6345 H   0  0  0  0  0  0  0  0  0  0  0  0
  147.5258  155.7611  136.0734 H   0  0  0  0  0  0  0  0  0  0  0  0
  1  2  1  0
  2  3  2  0
  2  4  1  0
  4  5  2  0
  5  6  1  0
  6  7  2  0
  7  8  1  0
  8  9  2  0
  9 10  1  0
 10 11  2  0
 11 12  1  0
 12 13  2  0
 13 14  1  0
  9 15  1  0
 15 16  2  0
 16 17  1  0
 17 18  1  0
 18 19  2  0
 18 20  1  0
 20 21  1  0
 21 22  1  0
 22 23  2  0
 22 24  1  0
 17  4  1  0
 16  6  1  0
 14 10  1  0
  1 25  1  0
  5 26  1  0
  7 27  1  0
  8 28  1  0
 12 29  1  0
 15 30  1  0
 21 31  1  0
 21 32  1  0
M  CHG  4   1  -1  14  -1  20  -1  24  -1
M  END
>  <UniqueID>  (54) 
54

>  <SMILES>  (54) 
[NH-]C(=O)c1cc2ccc(-c3ncn[n-]3)cc2n1C(=O)[N-]CC(=O)[O-]

>  <Energy>  (54) 
103.6504062672868

>  <Genealogy>  (54) 
[NH-]C(=O)c1cc2ccc(-c3ncn[n-]3)cc2n1C(=O)[N-]CC(=O)[O-] (protonated)
[NH-]C(=O)c1cc2ccc(-c3ncn[n-]3)cc2n1C(=O)[N-]CC(=O)[O-] (3D coordinates assigned)
[NH-]C(=O)c1cc2ccc(-c3ncn[n-]3)cc2n1C(=O)[N-]CC(=O)[O-] (optimized conformer: 103.6504062672868 kcal/mol)

>  <smiles>  (54) 
NC(=O)c1cc2ccc(-c3ncn[nH]3)cc2n1C(=O)NCC(=O)O

>  <score_type>  (54) 
oracle

>  <origin>  (54) 
adg

>  <m_score__min__energy>  (54) 
-7.1200000000000001

>  <m_primary>  (54) 
energy

$$$$
54:0
     RDKit          3D

 43 44  0  0  0  0  0  0  0  0999 V2000
  139.6300  149.8480  132.4970 C   0  0  0  0  0  0  0  0  0  0  0  0
  141.0440  150.2290  132.4070 N   0  0  0  0  0  0  0  0  0  0  0  0
  141.9460  149.2310  131.8190 C   0  0  0  0  0  0  0  0  0  0  0  0
  141.4260  151.6180  132.5610 C   0  0  0  0  0  0  0  0  0  0  0  0
  140.5180  152.4950  132.6210 O   0  0  0  0  0  0  0  0  0  0  0  0
  142.8220  152.0130  132.9930 C   0  0  0  0  0  0  0  0  0  0  0  0
  143.1620  153.3590  132.5480 N   0  0  0  0  0  0  0  0  0  0  0  0
  143.4650  154.4320  133.4440 C   0  0  0  0  0  0  0  0  0  0  0  0
  143.7430  154.2010  134.6500 O   0  0  0  0  0  0  0  0  0  0  0  0
  143.4520  155.7780  132.9480 N   0  0  0  0  0  0  0  0  0  0  0  0
  143.7940  156.8960  133.7680 C   0  0  0  0  0  0  0  0  0  0  0  0
  143.1550  157.1270  134.8320 O   0  0  0  0  0  0  0  0  0  0  0  0
  144.8790  157.7490  133.3940 N   0  0  0  0  0  0  0  0  0  0  0  0
  144.8990  159.1050  133.3670 C   0  0  0  0  0  0  0  0  0  0  0  0
  143.7430  159.9810  133.6040 C   0  0  0  0  0  0  0  0  0  0  0  0
  142.4160  159.5320  133.3460 N   0  0  0  0  0  0  0  0  0  0  0  0
  143.9300  161.1420  134.0410 O   0  0  0  0  0  0  0  0  0  0  0  0
  146.1860  159.5680  133.1080 C   0  0  0  0  0  0  0  0  0  0  0  0
  146.9610  158.4340  132.9850 C   0  0  0  0  0  0  0  0  0  0  0  0
  148.3170  158.2980  132.7220 C   0  0  0  0  0  0  0  0  0  0  0  0
  148.8450  156.9980  132.6290 C   0  0  0  0  0  0  0  0  0  0  0  0
  148.0060  155.8700  132.8150 C   0  0  0  0  0  0  0  0  0  0  0  0
  148.5290  154.4820  132.6180 C   0  0  0  0  0  0  0  0  0  0  0  0
  149.8620  154.5430  132.2710 F   0  0  0  0  0  0  0  0  0  0  0  0
  148.3860  153.7140  133.7690 F   0  0  0  0  0  0  0  0  0  0  0  0
  146.6290  156.0560  133.0930 C   0  0  0  0  0  0  0  0  0  0  0  0
  146.1460  157.3510  133.1700 C   0  0  0  0  0  0  0  0  0  0  0  0
  139.3381  149.7693  133.5546 H   0  0  0  0  0  0  0  0  0  0  0  0
  139.0123  150.6117  132.0019 H   0  0  0  0  0  0  0  0  0  0  0  0
  139.4796  148.8773  132.0019 H   0  0  0  0  0  0  0  0  0  0  0  0
  142.4498  148.6736  132.6224 H   0  0  0  0  0  0  0  0  0  0  0  0
  141.3657  148.5336  131.1970 H   0  0  0  0  0  0  0  0  0  0  0  0
  142.6983  149.7381  131.1970 H   0  0  0  0  0  0  0  0  0  0  0  0
  142.8799  151.9749  134.0908 H   0  0  0  0  0  0  0  0  0  0  0  0
  143.5346  151.3101  132.5368 H   0  0  0  0  0  0  0  0  0  0  0  0
  143.2280  153.5550  131.5240 H   0  0  0  0  0  0  0  0  0  0  0  0
  142.8390  155.9440  132.1060 H   0  0  0  0  0  0  0  0  0  0  0  0
  142.0470  158.6590  133.7890 H   0  0  0  0  0  0  0  0  0  0  0  0
  146.5144  160.6142  133.0203 H   0  0  0  0  0  0  0  0  0  0  0  0
  148.9596  159.1810  132.5902 H   0  0  0  0  0  0  0  0  0  0  0  0
  149.9137  156.8554  132.4110 H   0  0  0  0  0  0  0  0  0  0  0  0
  147.9457  154.0061  131.8160 H   0  0  0  0  0  0  0  0  0  0  0  0
  145.9618  155.1945  133.2436 H   0  0  0  0  0  0  0  0  0  0  0  0
  1  2  1  0
  2  3  1  0
  2  4  1  0
  4  5  2  0
  4  6  1  0
  6  7  1  0
  7  8  1  0
  8  9  2  0
  8 10  1  0
 10 11  1  0
 11 12  2  0
 11 13  1  0
 13 14  1  0
 14 15  1  0
 15 16  1  0
 15 17  2  0
 14 18  2  0
 18 19  1  0
 19 20  2  0
 20 21  1  0
 21 22  2  0
 22 23  1  0
 23 24  1  0
 23 25  1  0
 22 26  1  0
 26 27  2  0
 27 13  1  0
 27 19  1  0
  1 28  1  0
  1 29  1  0
  1 30  1  0
  3 31  1  0
  3 32  1  0
  3 33  1  0
  6 34  1  0
  6 35  1  0
  7 36  1  0
 10 37  1  0
 16 38  1  0
 18 39  1  0
 20 40  1  0
 21 41  1  0
 23 42  1  0
 26 43  1  0
M  CHG  1  16  -1
M  END
>  <UniqueID>  (55) 
55

>  <SMILES>  (55) 
CN(C)C(=O)CNC(=O)NC(=O)n1c(C([NH-])=O)cc2ccc(C(F)F)cc21

>  <Energy>  (55) 
95.60175931762177

>  <Genealogy>  (55) 
CN(C)C(=O)CNC(=O)NC(=O)n1c(C([NH-])=O)cc2ccc(C(F)F)cc21 (protonated)
CN(C)C(=O)CNC(=O)NC(=O)n1c(C([NH-])=O)cc2ccc(C(F)F)cc21 (3D coordinates assigned)
CN(C)C(=O)CNC(=O)NC(=O)n1c(C([NH-])=O)cc2ccc(C(F)F)cc21 (optimized conformer: 95.60175931762177 kcal/mol)

>  <smiles>  (55) 
CN(C)C(=O)CNC(=O)NC(=O)n1c(C(N)=O)cc2ccc(C(F)F)cc21

>  <score_type>  (55) 
oracle

>  <origin>  (55) 
adg

>  <m_score__min__energy>  (55) 
-7.4100000000000001

>  <m_primary>  (55) 
energy

$$$$
55:0
     RDKit          3D

 50 51  0  0  0  0  0  0  0  0999 V2000
  150.7190  150.3650  130.1810 C   0  0  0  0  0  0  0  0  0  0  0  0
  150.3050  150.0190  131.4840 O   0  0  0  0  0  0  0  0  0  0  0  0
  150.1690  151.1920  132.2580 C   0  0  0  0  0  0  0  0  0  0  0  0
  148.8570  151.8830  131.8920 C   0  0  0  0  0  0  0  0  0  0  0  0
  148.3630  153.0640  133.1420 S   0  0  0  0  0  0  0  0  0  0  0  0
  148.8550  152.5830  134.4800 O   0  0  0  0  0  0  0  0  0  0  0  0
  149.0310  154.3760  132.8370 O   0  0  0  0  0  0  0  0  0  0  0  0
  146.5900  153.3540  133.2230 C   0  0  0  0  0  0  0  0  0  0  0  0
  146.2050  154.7090  133.8720 C   0  0  1  0  0  0  0  0  0  0  0  0
  147.0080  154.9090  135.1340 C   0  0  0  0  0  0  0  0  0  0  0  0
  147.6970  155.9590  135.2830 O   0  0  0  0  0  0  0  0  0  0  0  0
  147.0090  153.9120  136.1170 O   0  0  0  0  0  0  0  0  0  0  0  0
  147.9990  153.8340  137.1360 C   0  0  0  0  0  0  0  0  0  0  0  0
  146.4110  155.8730  132.9180 C   0  0  0  0  0  0  0  0  0  0  0  0
  147.0420  155.6960  131.8420 O   0  0  0  0  0  0  0  0  0  0  0  0
  145.8440  157.1660  133.1820 N   0  0  0  0  0  0  0  0  0  0  0  0
  146.5070  158.3330  133.4040 C   0  0  0  0  0  0  0  0  0  0  0  0
  147.9750  158.5060  133.3230 C   0  0  0  0  0  0  0  0  0  0  0  0
  148.8480  157.3710  133.3500 N   0  0  0  0  0  0  0  0  0  0  0  0
  148.4700  159.6600  133.2370 O   0  0  0  0  0  0  0  0  0  0  0  0
  145.6070  159.3460  133.7340 C   0  0  0  0  0  0  0  0  0  0  0  0
  144.3620  158.7540  133.6990 C   0  0  0  0  0  0  0  0  0  0  0  0
  143.1050  159.2860  133.9600 C   0  0  0  0  0  0  0  0  0  0  0  0
  141.9930  158.4290  133.8720 C   0  0  0  0  0  0  0  0  0  0  0  0
  142.1590  157.0660  133.5200 C   0  0  0  0  0  0  0  0  0  0  0  0
  140.9740  156.1450  133.4670 C   0  0  0  0  0  0  0  0  0  0  0  0
  141.3020  154.9180  134.0180 F   0  0  0  0  0  0  0  0  0  0  0  0
  139.9260  156.7020  134.1790 F   0  0  0  0  0  0  0  0  0  0  0  0
  143.4540  156.5590  133.2720 C   0  0  0  0  0  0  0  0  0  0  0  0
  144.5370  157.4380  133.3640 C   0  0  0  0  0  0  0  0  0  0  0  0
  151.5619  151.0694  130.2390 H   0  0  0  0  0  0  0  0  0  0  0  0
  151.0350  149.4586  129.6438 H   0  0  0  0  0  0  0  0  0  0  0  0
  149.8831  150.8369  129.6438 H   0  0  0  0  0  0  0  0  0  0  0  0
  150.1616  150.9296  133.3262 H   0  0  0  0  0  0  0  0  0  0  0  0
  151.0128  151.8685  132.0570 H   0  0  0  0  0  0  0  0  0  0  0  0
  148.9858  152.4094  130.9347 H   0  0  0  0  0  0  0  0  0  0  0  0
  148.0733  151.1148  131.8159 H   0  0  0  0  0  0  0  0  0  0  0  0
  146.1884  153.3336  132.1992 H   0  0  0  0  0  0  0  0  0  0  0  0
  146.1653  152.5629  133.8585 H   0  0  0  0  0  0  0  0  0  0  0  0
  145.1333  154.6796  134.1180 H   0  0  0  0  0  0  0  0  0  0  0  0
  147.5137  153.8722  138.1224 H   0  0  0  0  0  0  0  0  0  0  0  0
  148.5538  152.8894  137.0367 H   0  0  0  0  0  0  0  0  0  0  0  0
  148.6949  154.6801  137.0367 H   0  0  0  0  0  0  0  0  0  0  0  0
  148.4780  156.3960  133.3100 H   0  0  0  0  0  0  0  0  0  0  0  0
  149.8840  157.5090  133.3360 H   0  0  0  0  0  0  0  0  0  0  0  0
  145.8406  160.3943  133.9716 H   0  0  0  0  0  0  0  0  0  0  0  0
  142.9832  160.3460  134.2275 H   0  0  0  0  0  0  0  0  0  0  0  0
  140.9857  158.8200  134.0781 H   0  0  0  0  0  0  0  0  0  0  0  0
  140.6764  156.0017  132.4177 H   0  0  0  0  0  0  0  0  0  0  0  0
  143.6061  155.5007  133.0134 H   0  0  0  0  0  0  0  0  0  0  0  0
  1  2  1  0
  2  3  1  0
  3  4  1  0
  4  5  1  0
  5  6  2  0
  5  7  2  0
  5  8  1  0
  8  9  1  0
  9 10  1  0
 10 11  2  0
 10 12  1  0
 12 13  1  0
  9 14  1  0
 14 15  2  0
 14 16  1  0
 16 17  1  0
 17 18  1  0
 18 19  1  0
 18 20  2  0
 17 21  2  0
 21 22  1  0
 22 23  2  0
 23 24  1  0
 24 25  2  0
 25 26  1  0
 26 27  1  0
 26 28  1  0
 25 29  1  0
 29 30  2  0
 30 16  1  0
 30 22  1  0
  1 31  1  0
  1 32  1  0
  1 33  1  0
  3 34  1  0
  3 35  1  0
  4 36  1  0
  4 37  1  0
  8 38  1  0
  8 39  1  0
  9 40  1  1
 13 41  1  0
 13 42  1  0
 13 43  1  0
 19 44  1  0
 19 45  1  0
 21 46  1  0
 23 47  1  0
 24 48  1  0
 26 49  1  0
 29 50  1  0
M  END
>  <UniqueID>  (56) 
56

>  <SMILES>  (56) 
COCCS(=O)(=O)C[C@@H](C(=O)OC)C(=O)n1c(C(N)=O)cc2ccc(C(F)F)cc21

>  <Energy>  (56) 
79.93077847886421

>  <Genealogy>  (56) 
COCCS(=O)(=O)C[C@@H](C(=O)OC)C(=O)n1c(C(N)=O)cc2ccc(C(F)F)cc21 (3D coordinates assigned)
COCCS(=O)(=O)C[C@@H](C(=O)OC)C(=O)n1c(C(N)=O)cc2ccc(C(F)F)cc21 (optimized conformer: 79.93077847886421 kcal/mol)

>  <smiles>  (56) 
COCCS(=O)(=O)C[C@@H](C(=O)OC)C(=O)n1c(C(N)=O)cc2ccc(C(F)F)cc21

>  <score_type>  (56) 
oracle

>  <origin>  (56) 
adg

>  <m_score__min__energy>  (56) 
-7.0599999999999996

>  <m_primary>  (56) 
energy

$$$$
56:0
     RDKit          3D

 57 58  0  0  0  0  0  0  0  0999 V2000
  147.6410  150.7440  132.1530 C   0  0  0  0  0  0  0  0  0  0  0  0
  148.6750  151.6770  132.6190 N   0  0  0  0  0  0  0  0  0  0  0  0
  149.9970  151.1460  132.9790 C   0  0  0  0  0  0  0  0  0  0  0  0
  148.3980  153.0990  132.7130 C   0  0  0  0  0  0  0  0  0  0  0  0
  149.4380  154.0550  132.5410 C   0  0  0  0  0  0  0  0  0  0  0  0
  149.1810  155.4330  132.6250 C   0  0  0  0  0  0  0  0  0  0  0  0
  147.8790  155.8380  132.8930 C   0  0  0  0  0  0  0  0  0  0  0  0
  147.3530  157.1050  133.0020 C   0  0  0  0  0  0  0  0  0  0  0  0
  145.9980  156.9190  133.2650 C   0  0  0  0  0  0  0  0  0  0  0  0
  145.0660  158.0270  133.5470 C   0  0  0  0  0  0  0  0  0  0  0  0
  144.0150  157.8720  134.4950 N   0  0  0  0  0  0  0  0  0  0  0  0
  145.2320  159.1420  132.9840 O   0  0  0  0  0  0  0  0  0  0  0  0
  145.6970  155.5900  133.3080 N   0  0  0  0  0  0  0  0  0  0  0  0
  144.4000  154.9880  133.4460 C   0  0  0  0  0  0  0  0  0  0  0  0
  143.9100  154.3270  132.4900 O   0  0  0  0  0  0  0  0  0  0  0  0
  143.6690  155.1720  134.6260 O   0  0  0  0  0  0  0  0  0  0  0  0
  142.2620  155.4030  134.6320 C   0  0  0  0  0  0  0  0  0  0  0  0
  141.8180  155.7690  133.3290 O   0  0  0  0  0  0  0  0  0  0  0  0
  141.4590  157.0780  132.9840 C   0  0  0  0  0  0  0  0  0  0  0  0
  142.3160  157.8470  132.4650 O   0  0  0  0  0  0  0  0  0  0  0  0
  140.0720  157.5970  133.3300 C   0  0  0  0  0  0  0  0  0  0  0  0
  139.5970  158.5150  132.1750 C   0  0  0  0  0  0  0  0  0  0  0  0
  139.1100  156.3940  133.4420 C   0  0  0  0  0  0  0  0  0  0  0  0
  140.2080  158.3800  134.6860 C   0  0  0  0  0  0  0  0  0  0  0  0
  141.5670  158.8740  135.0470 N   0  0  0  0  0  0  0  0  0  0  0  0
  141.7630  160.2150  134.4610 C   0  0  0  0  0  0  0  0  0  0  0  0
  141.7810  158.9440  136.5070 C   0  0  0  0  0  0  0  0  0  0  0  0
  146.8610  154.9420  133.0790 C   0  0  0  0  0  0  0  0  0  0  0  0
  147.0830  153.5650  132.9810 C   0  0  0  0  0  0  0  0  0  0  0  0
  147.1385  150.2906  133.0202 H   0  0  0  0  0  0  0  0  0  0  0  0
  146.9033  151.2881  131.5449 H   0  0  0  0  0  0  0  0  0  0  0  0
  148.1067  149.9545  131.5449 H   0  0  0  0  0  0  0  0  0  0  0  0
  150.0911  151.1082  134.0743 H   0  0  0  0  0  0  0  0  0  0  0  0
  150.1100  150.1327  132.5661 H   0  0  0  0  0  0  0  0  0  0  0  0
  150.7795  151.7996  132.5661 H   0  0  0  0  0  0  0  0  0  0  0  0
  150.4621  153.7082  132.3385 H   0  0  0  0  0  0  0  0  0  0  0  0
  149.9858  156.1693  132.4830 H   0  0  0  0  0  0  0  0  0  0  0  0
  147.8885  158.0607  132.9026 H   0  0  0  0  0  0  0  0  0  0  0  0
  143.2000  157.2500  134.2940 H   0  0  0  0  0  0  0  0  0  0  0  0
  141.7444  154.4852  134.9477 H   0  0  0  0  0  0  0  0  0  0  0  0
  142.0356  156.2213  135.3313 H   0  0  0  0  0  0  0  0  0  0  0  0
  139.1295  159.4185  132.5934 H   0  0  0  0  0  0  0  0  0  0  0  0
  140.4599  158.8017  131.5560 H   0  0  0  0  0  0  0  0  0  0  0  0
  138.8645  157.9762  131.5560 H   0  0  0  0  0  0  0  0  0  0  0  0
  138.9286  156.1671  134.5030 H   0  0  0  0  0  0  0  0  0  0  0  0
  138.1567  156.6399  132.9514 H   0  0  0  0  0  0  0  0  0  0  0  0
  139.5596  155.5181  132.9514 H   0  0  0  0  0  0  0  0  0  0  0  0
  139.5403  159.2527  134.6340 H   0  0  0  0  0  0  0  0  0  0  0  0
  139.9528  157.6478  135.4663 H   0  0  0  0  0  0  0  0  0  0  0  0
  142.2980  158.2580  134.6250 H   0  0  0  0  0  0  0  0  0  0  0  0
  141.8712  160.9553  135.2674 H   0  0  0  0  0  0  0  0  0  0  0  0
  142.6706  160.2145  133.8395 H   0  0  0  0  0  0  0  0  0  0  0  0
  140.8932  160.4743  133.8395 H   0  0  0  0  0  0  0  0  0  0  0  0
  140.8599  158.6427  137.0275 H   0  0  0  0  0  0  0  0  0  0  0  0
  142.6005  158.2671  136.7904 H   0  0  0  0  0  0  0  0  0  0  0  0
  142.0420  159.9743  136.7904 H   0  0  0  0  0  0  0  0  0  0  0  0
  146.2532  152.8543  133.1093 H   0  0  0  0  0  0  0  0  0  0  0  0
  1  2  1  0
  2  3  1  0
  2  4  1  0
  4  5  2  0
  5  6  1  0
  6  7  2  0
  7  8  1  0
  8  9  2  0
  9 10  1  0
 10 11  1  0
 10 12  2  0
  9 13  1  0
 13 14  1  0
 14 15  2  0
 14 16  1  0
 16 17  1  0
 17 18  1  0
 18 19  1  0
 19 20  2  0
 19 21  1  0
 21 22  1  0
 21 23  1  0
 21 24  1  0
 24 25  1  0
 25 26  1  0
 25 27  1  0
 13 28  1  0
 28 29  2  0
 29  4  1  0
 28  7  1  0
  1 30  1  0
  1 31  1  0
  1 32  1  0
  3 33  1  0
  3 34  1  0
  3 35  1  0
  5 36  1  0
  6 37  1  0
  8 38  1  0
 11 39  1  0
 17 40  1  0
 17 41  1  0
 22 42  1  0
 22 43  1  0
 22 44  1  0
 23 45  1  0
 23 46  1  0
 23 47  1  0
 24 48  1  0
 24 49  1  0
 25 50  1  0
 26 51  1  0
 26 52  1  0
 26 53  1  0
 27 54  1  0
 27 55  1  0
 27 56  1  0
 29 57  1  0
M  CHG  2  11  -1  25   1
M  END
>  <UniqueID>  (57) 
57

>  <SMILES>  (57) 
CN(C)c1ccc2cc(C([NH-])=O)n(C(=O)OCOC(=O)C(C)(C)C[NH+](C)C)c2c1

>  <Energy>  (57) 
98.70273895204733

>  <Genealogy>  (57) 
CN(C)c1ccc2cc(C([NH-])=O)n(C(=O)OCOC(=O)C(C)(C)C[NH+](C)C)c2c1 (protonated)
CN(C)c1ccc2cc(C([NH-])=O)n(C(=O)OCOC(=O)C(C)(C)C[NH+](C)C)c2c1 (3D coordinates assigned)
CN(C)c1ccc2cc(C([NH-])=O)n(C(=O)OCOC(=O)C(C)(C)C[NH+](C)C)c2c1 (optimized conformer: 98.70273895204733 kcal/mol)

>  <smiles>  (57) 
CN(C)CC(C)(C)C(=O)OCOC(=O)n1c(C(N)=O)cc2ccc(N(C)C)cc21

>  <score_type>  (57) 
oracle

>  <origin>  (57) 
adg

>  <m_score__min__energy>  (57) 
-5.4699999999999998

>  <m_primary>  (57) 
energy

$$$$
57:0
     RDKit          3D

 48 50  0  0  0  0  0  0  0  0999 V2000
  140.1450  155.6010  133.2950 N   0  0  0  0  0  0  0  0  0  0  0  0
  140.6150  154.2700  133.0980 C   0  0  0  0  0  0  0  0  0  0  0  0
  139.7830  153.3410  132.9270 O   0  0  0  0  0  0  0  0  0  0  0  0
  142.0640  153.9870  133.1620 C   0  0  0  0  0  0  0  0  0  0  0  0
  142.6070  152.7590  132.7950 C   0  0  0  0  0  0  0  0  0  0  0  0
  143.9680  152.9390  132.8260 C   0  0  0  0  0  0  0  0  0  0  0  0
  144.9890  152.0510  132.5070 C   0  0  0  0  0  0  0  0  0  0  0  0
  146.3140  152.5080  132.5980 C   0  0  0  0  0  0  0  0  0  0  0  0
  146.5940  153.8410  132.9940 C   0  0  0  0  0  0  0  0  0  0  0  0
  148.0190  154.3150  133.1270 C   0  0  0  0  0  0  0  0  0  0  0  0
  148.4720  154.1530  134.4250 F   0  0  0  0  0  0  0  0  0  0  0  0
  148.8490  153.5930  132.2860 F   0  0  0  0  0  0  0  0  0  0  0  0
  148.0870  155.6530  132.7890 F   0  0  0  0  0  0  0  0  0  0  0  0
  145.5280  154.7030  133.3420 C   0  0  0  0  0  0  0  0  0  0  0  0
  144.2150  154.2290  133.2200 C   0  0  0  0  0  0  0  0  0  0  0  0
  143.0520  154.8880  133.4420 N   0  0  0  0  0  0  0  0  0  0  0  0
  142.9030  156.2670  133.8270 C   0  0  0  0  0  0  0  0  0  0  0  0
  142.8260  157.1700  132.9500 O   0  0  0  0  0  0  0  0  0  0  0  0
  142.8420  156.6070  135.1800 O   0  0  0  0  0  0  0  0  0  0  0  0
  141.9280  156.0200  136.1000 C   0  0  0  0  0  0  0  0  0  0  0  0
  141.0850  157.0980  136.7970 C   0  0  0  0  0  0  0  0  0  0  0  0
  140.9330  158.4020  135.9750 C   0  0  0  0  0  0  0  0  0  0  0  0
  140.5350  158.1910  134.5600 N   0  0  0  0  0  0  0  0  0  0  0  0
  139.0720  157.9960  134.4160 C   0  0  0  0  0  0  0  0  0  0  0  0
  138.6140  158.1540  132.9500 C   0  0  0  0  0  0  0  0  0  0  0  0
  139.7080  158.0320  132.0650 O   0  0  0  0  0  0  0  0  0  0  0  0
  140.5980  159.1180  132.2510 C   0  0  0  0  0  0  0  0  0  0  0  0
  140.9690  159.3390  133.7370 C   0  0  0  0  0  0  0  0  0  0  0  0
  140.7610  156.4210  133.0990 H   0  0  0  0  0  0  0  0  0  0  0  0
  142.0617  151.8397  132.5353 H   0  0  0  0  0  0  0  0  0  0  0  0
  144.7657  151.0208  132.1926 H   0  0  0  0  0  0  0  0  0  0  0  0
  147.1429  151.8253  132.3598 H   0  0  0  0  0  0  0  0  0  0  0  0
  145.7255  155.7239  133.7008 H   0  0  0  0  0  0  0  0  0  0  0  0
  141.2599  155.3354  135.5569 H   0  0  0  0  0  0  0  0  0  0  0  0
  142.5002  155.4726  136.8635 H   0  0  0  0  0  0  0  0  0  0  0  0
  140.0819  156.6869  136.9836 H   0  0  0  0  0  0  0  0  0  0  0  0
  141.6106  157.3645  137.7258 H   0  0  0  0  0  0  0  0  0  0  0  0
  140.1673  159.0264  136.4585 H   0  0  0  0  0  0  0  0  0  0  0  0
  141.9242  158.8785  135.9551 H   0  0  0  0  0  0  0  0  0  0  0  0
  141.0330  157.3520  134.1880 H   0  0  0  0  0  0  0  0  0  0  0  0
  138.8116  156.9853  134.7634 H   0  0  0  0  0  0  0  0  0  0  0  0
  138.5639  158.7640  135.0176 H   0  0  0  0  0  0  0  0  0  0  0  0
  137.8739  157.3740  132.7177 H   0  0  0  0  0  0  0  0  0  0  0  0
  138.1707  159.1530  132.8257 H   0  0  0  0  0  0  0  0  0  0  0  0
  141.5195  158.9188  131.6842 H   0  0  0  0  0  0  0  0  0  0  0  0
  140.0907  160.0274  131.8966 H   0  0  0  0  0  0  0  0  0  0  0  0
  142.0596  159.4537  133.8237 H   0  0  0  0  0  0  0  0  0  0  0  0
  140.4601  160.2451  134.0976 H   0  0  0  0  0  0  0  0  0  0  0  0
  1  2  1  0
  2  3  2  0
  2  4  1  0
  4  5  2  0
  5  6  1  0
  6  7  2  0
  7  8  1  0
  8  9  2  0
  9 10  1  0
 10 11  1  0
 10 12  1  0
 10 13  1  0
  9 14  1  0
 14 15  2  0
 15 16  1  0
 16 17  1  0
 17 18  2  0
 17 19  1  0
 19 20  1  0
 20 21  1  0
 21 22  1  0
 22 23  1  0
 23 24  1  0
 24 25  1  0
 25 26  1  0
 26 27  1  0
 27 28  1  0
 16  4  1  0
 28 23  1  0
 15  6  1  0
  1 29  1  0
  5 30  1  0
  7 31  1  0
  8 32  1  0
 14 33  1  0
 20 34  1  0
 20 35  1  0
 21 36  1  0
 21 37  1  0
 22 38  1  0
 22 39  1  0
 23 40  1  0
 24 41  1  0
 24 42  1  0
 25 43  1  0
 25 44  1  0
 27 45  1  0
 27 46  1  0
 28 47  1  0
 28 48  1  0
M  CHG  2   1  -1  23   1
M  END
>  <UniqueID>  (58) 
58

>  <SMILES>  (58) 
[NH-]C(=O)c1cc2ccc(C(F)(F)F)cc2n1C(=O)OCCC[NH+]1CCOCC1

>  <Energy>  (58) 
93.30178335565819

>  <Genealogy>  (58) 
[NH-]C(=O)c1cc2ccc(C(F)(F)F)cc2n1C(=O)OCCC[NH+]1CCOCC1 (protonated)
[NH-]C(=O)c1cc2ccc(C(F)(F)F)cc2n1C(=O)OCCC[NH+]1CCOCC1 (3D coordinates assigned)
[NH-]C(=O)c1cc2ccc(C(F)(F)F)cc2n1C(=O)OCCC[NH+]1CCOCC1 (nonaromatic ring conformer: 93.30178335565819 kcal/mol)

>  <smiles>  (58) 
NC(=O)c1cc2ccc(C(F)(F)F)cc2n1C(=O)OCCCN1CCOCC1

>  <score_type>  (58) 
oracle

>  <origin>  (58) 
adg

>  <m_score__min__energy>  (58) 
-5.4100000000000001

>  <m_primary>  (58) 
energy

$$$$
58:0
     RDKit          3D

 49 52  0  0  0  0  0  0  0  0999 V2000
  144.4830  154.2010  135.5090 C   0  0  0  0  0  0  0  0  0  0  0  0
  145.9300  154.0110  135.8460 C   0  0  0  0  0  0  0  0  0  0  0  0
  146.4260  153.7450  137.1060 C   0  0  0  0  0  0  0  0  0  0  0  0
  147.7970  153.7610  136.9400 C   0  0  0  0  0  0  0  0  0  0  0  0
  149.0880  153.4780  138.3130 Br  0  0  0  0  0  0  0  0  0  0  0  0
  148.1070  154.0340  135.6580 N   0  0  0  0  0  0  0  0  0  0  0  0
  146.9690  154.1830  134.9970 N   0  0  0  0  0  0  0  0  0  0  0  0
  146.9110  154.5550  133.5850 C   0  0  0  0  0  0  0  0  0  0  0  0
  146.8120  156.0490  133.4450 C   0  0  0  0  0  0  0  0  0  0  0  0
  147.9620  156.8050  133.1050 C   0  0  0  0  0  0  0  0  0  0  0  0
  147.8990  158.2070  133.0280 C   0  0  0  0  0  0  0  0  0  0  0  0
  146.6790  158.8210  133.2960 C   0  0  0  0  0  0  0  0  0  0  0  0
  146.3520  160.1570  133.3520 C   0  0  0  0  0  0  0  0  0  0  0  0
  145.0070  160.1930  133.7160 C   0  0  0  0  0  0  0  0  0  0  0  0
  144.2250  161.4400  133.8480 C   0  0  0  0  0  0  0  0  0  0  0  0
  142.8080  161.4100  133.6950 N   0  0  0  0  0  0  0  0  0  0  0  0
  144.7920  162.5300  134.1220 O   0  0  0  0  0  0  0  0  0  0  0  0
  144.5220  158.9300  133.8730 N   0  0  0  0  0  0  0  0  0  0  0  0
  143.2270  158.5350  134.3480 C   0  0  0  0  0  0  0  0  0  0  0  0
  142.7540  159.0680  135.3890 O   0  0  0  0  0  0  0  0  0  0  0  0
  142.4820  157.5960  133.6260 O   0  0  0  0  0  0  0  0  0  0  0  0
  141.5430  157.9410  132.6080 C   0  0  0  0  0  0  0  0  0  0  0  0
  140.3380  158.6910  133.2120 C   0  0  2  0  0  0  0  0  0  0  0  0
  139.0150  158.0590  132.8670 C   0  0  0  0  0  0  0  0  0  0  0  0
  138.5950  158.7880  131.6050 C   0  0  0  0  0  0  0  0  0  0  0  0
  139.2960  160.0080  131.5100 O   0  0  0  0  0  0  0  0  0  0  0  0
  140.1850  160.0780  132.6010 C   0  0  0  0  0  0  0  0  0  0  0  0
  145.5560  158.1020  133.6130 C   0  0  0  0  0  0  0  0  0  0  0  0
  145.5920  156.7070  133.7060 C   0  0  0  0  0  0  0  0  0  0  0  0
  143.8974  154.2779  136.4370 H   0  0  0  0  0  0  0  0  0  0  0  0
  144.3614  155.1228  134.9213 H   0  0  0  0  0  0  0  0  0  0  0  0
  144.1275  153.3418  134.9213 H   0  0  0  0  0  0  0  0  0  0  0  0
  145.8592  153.5621  138.0308 H   0  0  0  0  0  0  0  0  0  0  0  0
  147.8216  154.2022  133.0786 H   0  0  0  0  0  0  0  0  0  0  0  0
  146.0238  154.0922  133.1281 H   0  0  0  0  0  0  0  0  0  0  0  0
  148.9120  156.2899  132.8996 H   0  0  0  0  0  0  0  0  0  0  0  0
  148.7866  158.8007  132.7640 H   0  0  0  0  0  0  0  0  0  0  0  0
  147.0119  161.0140  133.1520 H   0  0  0  0  0  0  0  0  0  0  0  0
  142.2660  160.5400  133.8900 H   0  0  0  0  0  0  0  0  0  0  0  0
  142.0354  158.5865  131.8658 H   0  0  0  0  0  0  0  0  0  0  0  0
  141.1828  157.0179  132.1304 H   0  0  0  0  0  0  0  0  0  0  0  0
  140.5469  158.6860  134.2920 H   0  0  0  0  0  0  0  0  0  0  0  0
  139.1308  156.9814  132.6789 H   0  0  0  0  0  0  0  0  0  0  0  0
  138.2754  158.1421  133.6770 H   0  0  0  0  0  0  0  0  0  0  0  0
  138.8241  158.1645  130.7282 H   0  0  0  0  0  0  0  0  0  0  0  0
  137.5140  158.9887  131.6406 H   0  0  0  0  0  0  0  0  0  0  0  0
  141.1651  160.4376  132.2545 H   0  0  0  0  0  0  0  0  0  0  0  0
  139.7893  160.7730  133.3562 H   0  0  0  0  0  0  0  0  0  0  0  0
  144.6909  156.1369  133.9761 H   0  0  0  0  0  0  0  0  0  0  0  0
  1  2  1  0
  2  3  2  0
  3  4  1  0
  4  5  1  0
  4  6  2  0
  6  7  1  0
  7  8  1  0
  8  9  1  0
  9 10  2  0
 10 11  1  0
 11 12  2  0
 12 13  1  0
 13 14  2  0
 14 15  1  0
 15 16  1  0
 15 17  2  0
 14 18  1  0
 18 19  1  0
 19 20  2  0
 19 21  1  0
 21 22  1  0
 22 23  1  0
 23 24  1  0
 24 25  1  0
 25 26  1  0
 26 27  1  0
 18 28  1  0
 28 29  2  0
  7  2  1  0
 29  9  1  0
 28 12  1  0
 27 23  1  0
  1 30  1  0
  1 31  1  0
  1 32  1  0
  3 33  1  0
  8 34  1  0
  8 35  1  0
 10 36  1  0
 11 37  1  0
 13 38  1  0
 16 39  1  0
 22 40  1  0
 22 41  1  0
 23 42  1  1
 24 43  1  0
 24 44  1  0
 25 45  1  0
 25 46  1  0
 27 47  1  0
 27 48  1  0
 29 49  1  0
M  CHG  1  16  -1
M  END
>  <UniqueID>  (59) 
59

>  <SMILES>  (59) 
Cc1cc(Br)nn1Cc1ccc2cc(C([NH-])=O)n(C(=O)OC[C@@H]3CCOC3)c2c1

>  <Energy>  (59) 
116.40215774943142

>  <Genealogy>  (59) 
Cc1cc(Br)nn1Cc1ccc2cc(C([NH-])=O)n(C(=O)OCC3CCOC3)c2c1 (protonated)
Cc1cc(Br)nn1Cc1ccc2cc(C([NH-])=O)n(C(=O)OC[C@@H]3CCOC3)c2c1 (chirality)
Cc1cc(Br)nn1Cc1ccc2cc(C([NH-])=O)n(C(=O)OC[C@@H]3CCOC3)c2c1 (3D coordinates assigned)
Cc1cc(Br)nn1Cc1ccc2cc(C([NH-])=O)n(C(=O)OC[C@@H]3CCOC3)c2c1 (nonaromatic ring conformer: 116.40215774943142 kcal/mol)

>  <smiles>  (59) 
Cc1cc(Br)nn1Cc1ccc2cc(C(N)=O)n(C(=O)OCC3CCOC3)c2c1

>  <score_type>  (59) 
oracle

>  <origin>  (59) 
adg

>  <m_score__min__energy>  (59) 
-9.2599999999999998

>  <m_primary>  (59) 
energy

$$$$
59:0
     RDKit          3D

 42 43  0  0  0  0  0  0  0  0999 V2000
  139.1020  161.0920  130.8460 C   0  0  0  0  0  0  0  0  0  0  0  0
  139.5800  159.7100  130.9230 N   0  0  0  0  0  0  0  0  0  0  0  0
  138.4550  158.7760  130.7910 C   0  0  0  0  0  0  0  0  0  0  0  0
  137.7360  158.6130  132.1330 C   0  0  0  0  0  0  0  0  0  0  0  0
  138.6630  158.3410  133.1710 O   0  0  0  0  0  0  0  0  0  0  0  0
  139.2480  157.0630  133.0190 C   0  0  0  0  0  0  0  0  0  0  0  0
  140.7120  157.1670  133.0540 C   0  0  0  0  0  0  0  0  0  0  0  0
  141.9110  157.2690  133.1120 C   0  0  0  0  0  0  0  0  0  0  0  0
  143.3370  157.4200  133.2080 C   0  0  0  0  0  0  0  0  0  0  0  0
  144.0740  156.4170  133.0150 O   0  0  0  0  0  0  0  0  0  0  0  0
  143.9200  158.6960  133.5250 N   0  0  0  0  0  0  0  0  0  0  0  0
  143.2730  159.8300  133.9220 C   0  0  0  0  0  0  0  0  0  0  0  0
  141.8350  159.9400  134.2510 C   0  0  0  0  0  0  0  0  0  0  0  0
  140.9120  160.5120  133.3270 N   0  0  0  0  0  0  0  0  0  0  0  0
  141.4080  159.4810  135.3440 O   0  0  0  0  0  0  0  0  0  0  0  0
  144.1710  160.8850  134.0630 C   0  0  0  0  0  0  0  0  0  0  0  0
  145.4010  160.3610  133.7460 C   0  0  0  0  0  0  0  0  0  0  0  0
  146.6520  160.9740  133.7130 C   0  0  0  0  0  0  0  0  0  0  0  0
  147.7550  160.1970  133.3220 C   0  0  0  0  0  0  0  0  0  0  0  0
  147.5890  158.8380  132.9590 C   0  0  0  0  0  0  0  0  0  0  0  0
  148.7810  158.0130  132.5610 C   0  0  0  0  0  0  0  0  0  0  0  0
  149.6650  158.7990  131.6940 C   0  0  0  0  0  0  0  0  0  0  0  0
  150.3630  159.4200  131.0100 N   0  0  0  0  0  0  0  0  0  0  0  0
  146.3050  158.2500  133.0040 C   0  0  0  0  0  0  0  0  0  0  0  0
  145.2250  159.0400  133.4220 C   0  0  0  0  0  0  0  0  0  0  0  0
  138.9645  161.4896  131.8624 H   0  0  0  0  0  0  0  0  0  0  0  0
  139.8400  161.7059  130.3089 H   0  0  0  0  0  0  0  0  0  0  0  0
  138.1424  161.1187  130.3089 H   0  0  0  0  0  0  0  0  0  0  0  0
  140.0060  159.5780  131.8710 H   0  0  0  0  0  0  0  0  0  0  0  0
  137.7464  159.1653  130.0451 H   0  0  0  0  0  0  0  0  0  0  0  0
  138.8402  157.7965  130.4714 H   0  0  0  0  0  0  0  0  0  0  0  0
  137.1945  159.5414  132.3672 H   0  0  0  0  0  0  0  0  0  0  0  0
  137.0342  157.7694  132.0569 H   0  0  0  0  0  0  0  0  0  0  0  0
  138.9107  156.4096  133.8371 H   0  0  0  0  0  0  0  0  0  0  0  0
  138.9416  156.6414  132.0503 H   0  0  0  0  0  0  0  0  0  0  0  0
  140.0430  160.0040  133.0520 H   0  0  0  0  0  0  0  0  0  0  0  0
  143.9439  161.9183  134.3642 H   0  0  0  0  0  0  0  0  0  0  0  0
  146.7720  162.0332  133.9846 H   0  0  0  0  0  0  0  0  0  0  0  0
  148.7578  160.6485  133.2975 H   0  0  0  0  0  0  0  0  0  0  0  0
  149.3316  157.7086  133.4633 H   0  0  0  0  0  0  0  0  0  0  0  0
  148.4384  157.1211  132.0158 H   0  0  0  0  0  0  0  0  0  0  0  0
  146.1565  157.1982  132.7181 H   0  0  0  0  0  0  0  0  0  0  0  0
  1  2  1  0
  2  3  1  0
  3  4  1  0
  4  5  1  0
  5  6  1  0
  6  7  1  0
  7  8  3  0
  8  9  1  0
  9 10  2  0
  9 11  1  0
 11 12  1  0
 12 13  1  0
 13 14  1  0
 13 15  2  0
 12 16  2  0
 16 17  1  0
 17 18  2  0
 18 19  1  0
 19 20  2  0
 20 21  1  0
 21 22  1  0
 22 23  3  0
 20 24  1  0
 24 25  2  0
 25 11  1  0
 25 17  1  0
  1 26  1  0
  1 27  1  0
  1 28  1  0
  2 29  1  0
  3 30  1  0
  3 31  1  0
  4 32  1  0
  4 33  1  0
  6 34  1  0
  6 35  1  0
 14 36  1  0
 16 37  1  0
 18 38  1  0
 19 39  1  0
 21 40  1  0
 21 41  1  0
 24 42  1  0
M  CHG  1  14  -1
M  END
>  <UniqueID>  (60) 
60

>  <SMILES>  (60) 
CNCCOCC#CC(=O)n1c(C([NH-])=O)cc2ccc(CC#N)cc21

>  <Energy>  (60) 
72.87970465158922

>  <Genealogy>  (60) 
CNCCOCC#CC(=O)n1c(C([NH-])=O)cc2ccc(CC#N)cc21 (protonated)
CNCCOCC#CC(=O)n1c(C([NH-])=O)cc2ccc(CC#N)cc21 (3D coordinates assigned)
CNCCOCC#CC(=O)n1c(C([NH-])=O)cc2ccc(CC#N)cc21 (optimized conformer: 72.87970465158922 kcal/mol)

>  <smiles>  (60) 
CNCCOCC#CC(=O)n1c(C(N)=O)cc2ccc(CC#N)cc21

>  <score_type>  (60) 
oracle

>  <origin>  (60) 
adg

>  <m_score__min__energy>  (60) 
-7.6200000000000001

>  <m_primary>  (60) 
energy

$$$$
60:0
     RDKit          3D

 30 31  0  0  0  0  0  0  0  0999 V2000
  148.3670  161.2310  131.1260 N   0  0  0  0  0  0  0  0  0  0  0  0
  149.2010  160.1160  131.4300 C   0  0  0  0  0  0  0  0  0  0  0  0
  150.4020  160.1220  131.0490 O   0  0  0  0  0  0  0  0  0  0  0  0
  148.6610  158.9340  132.1310 C   0  0  0  0  0  0  0  0  0  0  0  0
  149.2400  157.6690  132.0580 C   0  0  0  0  0  0  0  0  0  0  0  0
  148.3950  156.8400  132.7600 C   0  0  0  0  0  0  0  0  0  0  0  0
  148.4830  155.4740  133.0070 C   0  0  0  0  0  0  0  0  0  0  0  0
  147.4730  154.8780  133.7820 C   0  0  0  0  0  0  0  0  0  0  0  0
  146.4130  155.6570  134.3160 C   0  0  0  0  0  0  0  0  0  0  0  0
  145.3160  154.9990  135.1140 C   0  0  0  0  0  0  0  0  0  0  0  0
  144.8200  153.9230  134.4040 F   0  0  0  0  0  0  0  0  0  0  0  0
  144.2880  155.8920  135.3580 F   0  0  0  0  0  0  0  0  0  0  0  0
  145.7990  154.5520  136.3320 F   0  0  0  0  0  0  0  0  0  0  0  0
  146.3480  157.0380  134.0220 C   0  0  0  0  0  0  0  0  0  0  0  0
  147.3570  157.6010  133.2320 C   0  0  0  0  0  0  0  0  0  0  0  0
  147.5090  158.8910  132.8580 N   0  0  0  0  0  0  0  0  0  0  0  0
  146.6700  159.9910  133.2440 C   0  0  0  0  0  0  0  0  0  0  0  0
  147.1910  161.0640  133.6550 O   0  0  0  0  0  0  0  0  0  0  0  0
  145.2480  159.8810  133.1260 N   0  0  0  0  0  0  0  0  0  0  0  0
  144.3120  160.8090  133.7500 C   0  0  0  0  0  0  0  0  0  0  0  0
  143.0270  160.1140  134.0660 C   0  0  0  0  0  0  0  0  0  0  0  0
  143.0370  158.9840  134.6230 O   0  0  0  0  0  0  0  0  0  0  0  0
  141.8170  160.6950  133.7100 O   0  0  0  0  0  0  0  0  0  0  0  0
  148.0810  161.9070  131.8680 H   0  0  0  0  0  0  0  0  0  0  0  0
  150.1742  157.3917  131.5477 H   0  0  0  0  0  0  0  0  0  0  0  0
  149.3174  154.8784  132.6081 H   0  0  0  0  0  0  0  0  0  0  0  0
  147.5043  153.7959  133.9769 H   0  0  0  0  0  0  0  0  0  0  0  0
  145.5230  157.6564  134.4054 H   0  0  0  0  0  0  0  0  0  0  0  0
  144.7523  161.1985  134.6798 H   0  0  0  0  0  0  0  0  0  0  0  0
  144.1100  161.6364  133.0538 H   0  0  0  0  0  0  0  0  0  0  0  0
  1  2  1  0
  2  3  2  0
  2  4  1  0
  4  5  2  0
  5  6  1  0
  6  7  2  0
  7  8  1  0
  8  9  2  0
  9 10  1  0
 10 11  1  0
 10 12  1  0
 10 13  1  0
  9 14  1  0
 14 15  2  0
 15 16  1  0
 16 17  1  0
 17 18  2  0
 17 19  1  0
 19 20  1  0
 20 21  1  0
 21 22  2  0
 21 23  1  0
 16  4  1  0
 15  6  1  0
  1 24  1  0
  5 25  1  0
  7 26  1  0
  8 27  1  0
 14 28  1  0
 20 29  1  0
 20 30  1  0
M  CHG  3   1  -1  19  -1  23  -1
M  END
>  <UniqueID>  (61) 
61

>  <SMILES>  (61) 
[NH-]C(=O)c1cc2ccc(C(F)(F)F)cc2n1C(=O)[N-]CC(=O)[O-]

>  <Energy>  (61) 
67.73074158274969

>  <Genealogy>  (61) 
[NH-]C(=O)c1cc2ccc(C(F)(F)F)cc2n1C(=O)[N-]CC(=O)[O-] (protonated)
[NH-]C(=O)c1cc2ccc(C(F)(F)F)cc2n1C(=O)[N-]CC(=O)[O-] (3D coordinates assigned)
[NH-]C(=O)c1cc2ccc(C(F)(F)F)cc2n1C(=O)[N-]CC(=O)[O-] (optimized conformer: 67.73074158274969 kcal/mol)

>  <smiles>  (61) 
NC(=O)c1cc2ccc(C(F)(F)F)cc2n1C(=O)NCC(=O)O

>  <score_type>  (61) 
oracle

>  <origin>  (61) 
adg

>  <m_score__min__energy>  (61) 
-6.21

>  <m_primary>  (61) 
energy

$$$$
61:0
     RDKit          3D

 31 32  0  0  0  0  0  0  0  0999 V2000
  145.6050  160.4870  132.8960 N   0  0  0  0  0  0  0  0  0  0  0  0
  144.9970  159.3320  133.4730 C   0  0  0  0  0  0  0  0  0  0  0  0
  143.9350  159.4630  134.1400 O   0  0  0  0  0  0  0  0  0  0  0  0
  145.6120  157.9950  133.3490 C   0  0  0  0  0  0  0  0  0  0  0  0
  144.8890  156.8070  133.4100 C   0  0  0  0  0  0  0  0  0  0  0  0
  145.8230  155.8060  133.2710 C   0  0  0  0  0  0  0  0  0  0  0  0
  145.6520  154.4270  133.2170 C   0  0  0  0  0  0  0  0  0  0  0  0
  146.7880  153.6290  133.0030 C   0  0  0  0  0  0  0  0  0  0  0  0
  148.0690  154.2180  132.8500 C   0  0  0  0  0  0  0  0  0  0  0  0
  149.2710  153.3560  132.5540 C   0  0  0  0  0  0  0  0  0  0  0  0
  149.0180  152.5180  131.4820 F   0  0  0  0  0  0  0  0  0  0  0  0
  149.5650  152.5900  133.6660 F   0  0  0  0  0  0  0  0  0  0  0  0
  150.3690  154.1390  132.2420 F   0  0  0  0  0  0  0  0  0  0  0  0
  148.1970  155.6260  132.8820 C   0  0  0  0  0  0  0  0  0  0  0  0
  147.0530  156.3950  133.1240 C   0  0  0  0  0  0  0  0  0  0  0  0
  146.9400  157.7420  133.1760 N   0  0  0  0  0  0  0  0  0  0  0  0
  147.9790  158.7070  132.9400 C   0  0  0  0  0  0  0  0  0  0  0  0
  148.1490  159.6500  133.7600 O   0  0  0  0  0  0  0  0  0  0  0  0
  148.9370  158.5440  131.7930 C   0  0  0  0  0  0  0  0  0  0  0  0
  149.6180  159.8670  131.4390 C   0  0  0  0  0  0  0  0  0  0  0  0
  149.5410  160.1470  129.6810 S   0  0  0  0  0  0  0  0  0  0  0  0
  146.5720  160.4520  132.5060 H   0  0  0  0  0  0  0  0  0  0  0  0
  145.1240  161.4120  132.9470 H   0  0  0  0  0  0  0  0  0  0  0  0
  143.8029  156.6928  133.5413 H   0  0  0  0  0  0  0  0  0  0  0  0
  144.6567  153.9746  133.3382 H   0  0  0  0  0  0  0  0  0  0  0  0
  146.6829  152.5352  132.9536 H   0  0  0  0  0  0  0  0  0  0  0  0
  149.1735  156.1059  132.7204 H   0  0  0  0  0  0  0  0  0  0  0  0
  149.7067  157.8092  132.0718 H   0  0  0  0  0  0  0  0  0  0  0  0
  148.3692  158.2024  130.9150 H   0  0  0  0  0  0  0  0  0  0  0  0
  149.1072  160.6897  131.9608 H   0  0  0  0  0  0  0  0  0  0  0  0
  150.6723  159.8227  131.7497 H   0  0  0  0  0  0  0  0  0  0  0  0
  1  2  1  0
  2  3  2  0
  2  4  1  0
  4  5  2  0
  5  6  1  0
  6  7  2  0
  7  8  1  0
  8  9  2  0
  9 10  1  0
 10 11  1  0
 10 12  1  0
 10 13  1  0
  9 14  1  0
 14 15  2  0
 15 16  1  0
 16 17  1  0
 17 18  2  0
 17 19  1  0
 19 20  1  0
 20 21  1  0
 16  4  1  0
 15  6  1  0
  1 22  1  0
  1 23  1  0
  5 24  1  0
  7 25  1  0
  8 26  1  0
 14 27  1  0
 19 28  1  0
 19 29  1  0
 20 30  1  0
 20 31  1  0
M  CHG  1  21  -1
M  END
>  <UniqueID>  (62) 
62

>  <SMILES>  (62) 
NC(=O)c1cc2ccc(C(F)(F)F)cc2n1C(=O)CC[S-]

>  <Energy>  (62) 
69.23533520871301

>  <Genealogy>  (62) 
NC(=O)c1cc2ccc(C(F)(F)F)cc2n1C(=O)CC[S-] (protonated)
NC(=O)c1cc2ccc(C(F)(F)F)cc2n1C(=O)CC[S-] (3D coordinates assigned)
NC(=O)c1cc2ccc(C(F)(F)F)cc2n1C(=O)CC[S-] (optimized conformer: 69.23533520871301 kcal/mol)

>  <smiles>  (62) 
NC(=O)c1cc2ccc(C(F)(F)F)cc2n1C(=O)CCS

>  <score_type>  (62) 
oracle

>  <origin>  (62) 
adg

>  <m_score__min__energy>  (62) 
-6.3799999999999999

>  <m_primary>  (62) 
energy

$$$$
62:0
     RDKit          3D

 34 35  0  0  0  0  0  0  0  0999 V2000
  148.8440  153.7660  132.5110 C   0  0  0  0  0  0  0  0  0  0  0  0
  148.4880  154.9120  132.6260 C   0  0  0  0  0  0  0  0  0  0  0  0
  148.0630  156.2810  132.7640 C   0  0  0  0  0  0  0  0  0  0  0  0
  148.9980  157.3280  132.5950 C   0  0  0  0  0  0  0  0  0  0  0  0
  148.5980  158.6680  132.7420 C   0  0  0  0  0  0  0  0  0  0  0  0
  147.2630  158.9200  133.0450 C   0  0  0  0  0  0  0  0  0  0  0  0
  146.6190  160.1160  133.2740 C   0  0  0  0  0  0  0  0  0  0  0  0
  145.2970  159.7730  133.5470 C   0  0  0  0  0  0  0  0  0  0  0  0
  144.2330  160.7670  133.7980 C   0  0  0  0  0  0  0  0  0  0  0  0
  142.8990  160.5570  133.3300 N   0  0  0  0  0  0  0  0  0  0  0  0
  144.5180  161.8420  134.3880 O   0  0  0  0  0  0  0  0  0  0  0  0
  145.1300  158.4220  133.5030 N   0  0  0  0  0  0  0  0  0  0  0  0
  143.9460  157.6800  133.8340 C   0  0  0  0  0  0  0  0  0  0  0  0
  143.9410  156.9230  134.8420 O   0  0  0  0  0  0  0  0  0  0  0  0
  142.7670  157.8180  133.0330 N   0  0  0  0  0  0  0  0  0  0  0  0
  141.4270  157.5170  133.5200 C   0  0  0  0  0  0  0  0  0  0  0  0
  140.7620  158.7650  134.0070 C   0  0  0  0  0  0  0  0  0  0  0  0
  140.5690  159.7250  133.2120 O   0  0  0  0  0  0  0  0  0  0  0  0
  140.3680  158.8580  135.3460 O   0  0  0  0  0  0  0  0  0  0  0  0
  141.3030  158.9210  136.4160 C   0  0  0  0  0  0  0  0  0  0  0  0
  146.3430  157.9120  133.1900 C   0  0  0  0  0  0  0  0  0  0  0  0
  146.7190  156.5690  133.0720 C   0  0  0  0  0  0  0  0  0  0  0  0
  149.1688  152.7203  132.4061 H   0  0  0  0  0  0  0  0  0  0  0  0
  150.0437  157.0931  132.3473 H   0  0  0  0  0  0  0  0  0  0  0  0
  149.3175  159.4913  132.6214 H   0  0  0  0  0  0  0  0  0  0  0  0
  147.0553  161.1254  133.2470 H   0  0  0  0  0  0  0  0  0  0  0  0
  142.6690  159.7700  132.6860 H   0  0  0  0  0  0  0  0  0  0  0  0
  142.1510  161.2490  133.5580 H   0  0  0  0  0  0  0  0  0  0  0  0
  140.8321  157.0836  132.7025 H   0  0  0  0  0  0  0  0  0  0  0  0
  141.4999  156.8010  134.3519 H   0  0  0  0  0  0  0  0  0  0  0  0
  140.7656  158.8848  137.3751 H   0  0  0  0  0  0  0  0  0  0  0  0
  141.9936  158.0674  136.3502 H   0  0  0  0  0  0  0  0  0  0  0  0
  141.8728  159.8596  136.3502 H   0  0  0  0  0  0  0  0  0  0  0  0
  145.9859  155.7615  133.2157 H   0  0  0  0  0  0  0  0  0  0  0  0
  1  2  3  0
  2  3  1  0
  3  4  2  0
  4  5  1  0
  5  6  2  0
  6  7  1  0
  7  8  2  0
  8  9  1  0
  9 10  1  0
  9 11  2  0
  8 12  1  0
 12 13  1  0
 13 14  2  0
 13 15  1  0
 15 16  1  0
 16 17  1  0
 17 18  2  0
 17 19  1  0
 19 20  1  0
 12 21  1  0
 21 22  2  0
 22  3  1  0
 21  6  1  0
  1 23  1  0
  4 24  1  0
  5 25  1  0
  7 26  1  0
 10 27  1  0
 10 28  1  0
 16 29  1  0
 16 30  1  0
 20 31  1  0
 20 32  1  0
 20 33  1  0
 22 34  1  0
M  CHG  1  15  -1
M  END
>  <UniqueID>  (63) 
63

>  <SMILES>  (63) 
C#Cc1ccc2cc(C(N)=O)n(C(=O)[N-]CC(=O)OC)c2c1

>  <Energy>  (63) 
66.59737383406507

>  <Genealogy>  (63) 
C#Cc1ccc2cc(C(N)=O)n(C(=O)[N-]CC(=O)OC)c2c1 (protonated)
C#Cc1ccc2cc(C(N)=O)n(C(=O)[N-]CC(=O)OC)c2c1 (3D coordinates assigned)
C#Cc1ccc2cc(C(N)=O)n(C(=O)[N-]CC(=O)OC)c2c1 (optimized conformer: 66.59737383406507 kcal/mol)

>  <smiles>  (63) 
C#Cc1ccc2cc(C(N)=O)n(C(=O)NCC(=O)OC)c2c1

>  <score_type>  (63) 
oracle

>  <origin>  (63) 
adg

>  <m_score__min__energy>  (63) 
-6.5300000000000002

>  <m_primary>  (63) 
energy

$$$$
63:0
     RDKit          3D

 48 49  0  0  0  0  0  0  0  0999 V2000
  139.7240  157.8850  135.6740 C   0  0  0  0  0  0  0  0  0  0  0  0
  141.1790  158.3880  135.5880 C   0  0  0  0  0  0  0  0  0  0  0  0
  141.6380  158.9100  136.9630 C   0  0  0  0  0  0  0  0  0  0  0  0
  141.2620  159.4290  134.6420 O   0  0  0  0  0  0  0  0  0  0  0  0
  142.1010  157.2480  135.1050 C   0  0  0  0  0  0  0  0  0  0  0  0
  143.4260  157.7120  134.8390 O   0  0  0  0  0  0  0  0  0  0  0  0
  143.8330  158.2710  133.6220 C   0  0  0  0  0  0  0  0  0  0  0  0
  143.0660  158.2490  132.6210 O   0  0  0  0  0  0  0  0  0  0  0  0
  145.1460  158.8430  133.5070 N   0  0  0  0  0  0  0  0  0  0  0  0
  145.4990  160.1590  133.5670 C   0  0  0  0  0  0  0  0  0  0  0  0
  144.6080  161.2860  133.9160 C   0  0  0  0  0  0  0  0  0  0  0  0
  143.1980  161.1920  133.7350 N   0  0  0  0  0  0  0  0  0  0  0  0
  145.0950  162.3290  134.4280 O   0  0  0  0  0  0  0  0  0  0  0  0
  146.8640  160.3100  133.3300 C   0  0  0  0  0  0  0  0  0  0  0  0
  147.3430  159.0370  133.1320 C   0  0  0  0  0  0  0  0  0  0  0  0
  148.6370  158.6010  132.8580 C   0  0  0  0  0  0  0  0  0  0  0  0
  148.8440  157.2220  132.6800 C   0  0  0  0  0  0  0  0  0  0  0  0
  147.7580  156.3150  132.7580 C   0  0  0  0  0  0  0  0  0  0  0  0
  147.9940  154.8390  132.5970 C   0  0  0  0  0  0  0  0  0  0  0  0
  147.9240  154.1570  133.9270 C   0  0  0  0  0  0  0  0  0  0  0  0
  148.4390  153.0160  134.0750 O   0  0  0  0  0  0  0  0  0  0  0  0
  147.2840  154.7960  134.9930 O   0  0  0  0  0  0  0  0  0  0  0  0
  145.9040  154.6040  135.2870 C   0  0  0  0  0  0  0  0  0  0  0  0
  145.7600  153.7540  136.5410 C   0  0  0  0  0  0  0  0  0  0  0  0
  146.9250  153.0010  136.7390 O   0  0  0  0  0  0  0  0  0  0  0  0
  146.4610  156.7940  133.0450 C   0  0  0  0  0  0  0  0  0  0  0  0
  146.2880  158.1690  133.2420 C   0  0  0  0  0  0  0  0  0  0  0  0
  139.4327  157.7843  136.7299 H   0  0  0  0  0  0  0  0  0  0  0  0
  139.0572  158.6048  135.1767 H   0  0  0  0  0  0  0  0  0  0  0  0
  139.6441  156.9071  135.1767 H   0  0  0  0  0  0  0  0  0  0  0  0
  141.1361  158.3392  137.7581 H   0  0  0  0  0  0  0  0  0  0  0  0
  142.7273  158.7887  137.0563 H   0  0  0  0  0  0  0  0  0  0  0  0
  141.3783  159.9748  137.0563 H   0  0  0  0  0  0  0  0  0  0  0  0
  142.1640  159.3980  134.2260 H   0  0  0  0  0  0  0  0  0  0  0  0
  142.1453  156.4722  135.8835 H   0  0  0  0  0  0  0  0  0  0  0  0
  141.6856  156.8465  134.1689 H   0  0  0  0  0  0  0  0  0  0  0  0
  142.7600  160.3150  133.3740 H   0  0  0  0  0  0  0  0  0  0  0  0
  147.4366  161.2489  133.3064 H   0  0  0  0  0  0  0  0  0  0  0  0
  149.4714  159.3138  132.7832 H   0  0  0  0  0  0  0  0  0  0  0  0
  149.8571  156.8439  132.4785 H   0  0  0  0  0  0  0  0  0  0  0  0
  147.2253  154.4184  131.9320 H   0  0  0  0  0  0  0  0  0  0  0  0
  148.9926  154.6801  132.1640 H   0  0  0  0  0  0  0  0  0  0  0  0
  145.4257  155.5810  135.4506 H   0  0  0  0  0  0  0  0  0  0  0  0
  145.4195  154.0922  134.4425 H   0  0  0  0  0  0  0  0  0  0  0  0
  145.5962  154.4089  137.4095 H   0  0  0  0  0  0  0  0  0  0  0  0
  144.9032  153.0743  136.4232 H   0  0  0  0  0  0  0  0  0  0  0  0
  147.3950  152.9900  135.8650 H   0  0  0  0  0  0  0  0  0  0  0  0
  145.6074  156.1034  133.1121 H   0  0  0  0  0  0  0  0  0  0  0  0
  1  2  1  0
  2  3  1  0
  2  4  1  0
  2  5  1  0
  5  6  1  0
  6  7  1  0
  7  8  2  0
  7  9  1  0
  9 10  1  0
 10 11  1  0
 11 12  1  0
 11 13  2  0
 10 14  2  0
 14 15  1  0
 15 16  2  0
 16 17  1  0
 17 18  2  0
 18 19  1  0
 19 20  1  0
 20 21  2  0
 20 22  1  0
 22 23  1  0
 23 24  1  0
 24 25  1  0
 18 26  1  0
 26 27  2  0
 27  9  1  0
 27 15  1  0
  1 28  1  0
  1 29  1  0
  1 30  1  0
  3 31  1  0
  3 32  1  0
  3 33  1  0
  4 34  1  0
  5 35  1  0
  5 36  1  0
 12 37  1  0
 14 38  1  0
 16 39  1  0
 17 40  1  0
 19 41  1  0
 19 42  1  0
 23 43  1  0
 23 44  1  0
 24 45  1  0
 24 46  1  0
 25 47  1  0
 26 48  1  0
M  CHG  1  12  -1
M  END
>  <UniqueID>  (64) 
64

>  <SMILES>  (64) 
CC(C)(O)COC(=O)n1c(C([NH-])=O)cc2ccc(CC(=O)OCCO)cc21

>  <Energy>  (64) 
74.62450918966174

>  <Genealogy>  (64) 
CC(C)(O)COC(=O)n1c(C([NH-])=O)cc2ccc(CC(=O)OCCO)cc21 (protonated)
CC(C)(O)COC(=O)n1c(C([NH-])=O)cc2ccc(CC(=O)OCCO)cc21 (3D coordinates assigned)
CC(C)(O)COC(=O)n1c(C([NH-])=O)cc2ccc(CC(=O)OCCO)cc21 (optimized conformer: 74.62450918966174 kcal/mol)

>  <smiles>  (64) 
CC(C)(O)COC(=O)n1c(C(N)=O)cc2ccc(CC(=O)OCCO)cc21

>  <score_type>  (64) 
oracle

>  <origin>  (64) 
adg

>  <m_score__min__energy>  (64) 
-6.2800000000000002

>  <m_primary>  (64) 
energy

$$$$
64:0
     RDKit          3D

 33 34  0  0  0  0  0  0  0  0999 V2000
  145.4110  161.3810  133.8650 N   0  0  0  0  0  0  0  0  0  0  0  0
  144.6640  160.2090  133.5440 C   0  0  0  0  0  0  0  0  0  0  0  0
  143.4210  160.3000  133.3640 O   0  0  0  0  0  0  0  0  0  0  0  0
  145.3470  158.9030  133.4490 C   0  0  0  0  0  0  0  0  0  0  0  0
  144.7310  157.6790  133.7080 C   0  0  0  0  0  0  0  0  0  0  0  0
  145.6930  156.7260  133.4530 C   0  0  0  0  0  0  0  0  0  0  0  0
  145.6380  155.3390  133.5690 C   0  0  0  0  0  0  0  0  0  0  0  0
  146.8010  154.6080  133.2710 C   0  0  0  0  0  0  0  0  0  0  0  0
  147.9860  155.2700  132.8610 C   0  0  0  0  0  0  0  0  0  0  0  0
  149.2390  154.4780  132.5910 C   0  0  0  0  0  0  0  0  0  0  0  0
  148.9780  152.9760  132.6980 C   0  0  0  0  0  0  0  0  0  0  0  0
  149.9450  152.2660  131.9750 O   0  0  0  0  0  0  0  0  0  0  0  0
  148.0050  156.6790  132.7620 C   0  0  0  0  0  0  0  0  0  0  0  0
  146.8320  157.3770  133.0580 C   0  0  0  0  0  0  0  0  0  0  0  0
  146.6360  158.7110  133.0540 N   0  0  0  0  0  0  0  0  0  0  0  0
  147.6270  159.7040  132.7600 C   0  0  0  0  0  0  0  0  0  0  0  0
  148.0900  160.4190  133.6890 O   0  0  0  0  0  0  0  0  0  0  0  0
  148.0250  159.9780  131.3430 C   0  0  0  0  0  0  0  0  0  0  0  0
  149.4640  159.6260  131.1460 C   0  0  0  0  0  0  0  0  0  0  0  0
  149.9820  158.6870  131.8060 O   0  0  0  0  0  0  0  0  0  0  0  0
  150.2210  160.2980  130.1960 O   0  0  0  0  0  0  0  0  0  0  0  0
  146.2950  161.6080  133.3580 H   0  0  0  0  0  0  0  0  0  0  0  0
  143.6973  157.5102  134.0442 H   0  0  0  0  0  0  0  0  0  0  0  0
  144.7140  154.8320  133.8838 H   0  0  0  0  0  0  0  0  0  0  0  0
  146.7918  153.5114  133.3567 H   0  0  0  0  0  0  0  0  0  0  0  0
  149.5974  154.7084  131.5769 H   0  0  0  0  0  0  0  0  0  0  0  0
  149.9940  154.7544  133.3417 H   0  0  0  0  0  0  0  0  0  0  0  0
  149.0197  152.6740  133.7549 H   0  0  0  0  0  0  0  0  0  0  0  0
  147.9837  152.7533  132.2837 H   0  0  0  0  0  0  0  0  0  0  0  0
  150.6970  152.8980  131.8270 H   0  0  0  0  0  0  0  0  0  0  0  0
  148.9187  157.2119  132.4600 H   0  0  0  0  0  0  0  0  0  0  0  0
  147.4046  159.3728  130.6656 H   0  0  0  0  0  0  0  0  0  0  0  0
  147.8783  161.0459  131.1238 H   0  0  0  0  0  0  0  0  0  0  0  0
  1  2  1  0
  2  3  2  0
  2  4  1  0
  4  5  2  0
  5  6  1  0
  6  7  2  0
  7  8  1  0
  8  9  2  0
  9 10  1  0
 10 11  1  0
 11 12  1  0
  9 13  1  0
 13 14  2  0
 14 15  1  0
 15 16  1  0
 16 17  2  0
 16 18  1  0
 18 19  1  0
 19 20  2  0
 19 21  1  0
 15  4  1  0
 14  6  1  0
  1 22  1  0
  5 23  1  0
  7 24  1  0
  8 25  1  0
 10 26  1  0
 10 27  1  0
 11 28  1  0
 11 29  1  0
 12 30  1  0
 13 31  1  0
 18 32  1  0
 18 33  1  0
M  CHG  2   1  -1  21  -1
M  END
>  <UniqueID>  (65) 
65

>  <SMILES>  (65) 
[NH-]C(=O)c1cc2ccc(CCO)cc2n1C(=O)CC(=O)[O-]

>  <Energy>  (65) 
67.36594297459798

>  <Genealogy>  (65) 
[NH-]C(=O)c1cc2ccc(CCO)cc2n1C(=O)CC(=O)[O-] (protonated)
[NH-]C(=O)c1cc2ccc(CCO)cc2n1C(=O)CC(=O)[O-] (3D coordinates assigned)
[NH-]C(=O)c1cc2ccc(CCO)cc2n1C(=O)CC(=O)[O-] (optimized conformer: 67.36594297459798 kcal/mol)

>  <smiles>  (65) 
NC(=O)c1cc2ccc(CCO)cc2n1C(=O)CC(=O)O

>  <score_type>  (65) 
oracle

>  <origin>  (65) 
adg

>  <m_score__min__energy>  (65) 
-6.1299999999999999

>  <m_primary>  (65) 
energy

$$$$
65:0
     RDKit          3D

 29 31  0  0  0  0  0  0  0  0999 V2000
  138.8400  159.2060  131.4200 C   0  0  0  0  0  0  0  0  0  0  0  0
  139.6150  159.3650  132.4930 C   0  0  0  0  0  0  0  0  0  0  0  0
  139.8850  158.2780  133.4510 C   0  0  0  0  0  0  0  0  0  0  0  0
  138.9750  157.9270  134.2470 O   0  0  0  0  0  0  0  0  0  0  0  0
  141.1540  157.6070  133.4910 N   0  0  0  0  0  0  0  0  0  0  0  0
  141.3960  156.2740  133.3520 C   0  0  0  0  0  0  0  0  0  0  0  0
  140.3690  155.2150  133.2490 C   0  0  0  0  0  0  0  0  0  0  0  0
  139.1120  155.4670  132.6300 N   0  0  0  0  0  0  0  0  0  0  0  0
  140.5980  154.0750  133.7370 O   0  0  0  0  0  0  0  0  0  0  0  0
  142.7680  156.0250  133.3610 C   0  0  0  0  0  0  0  0  0  0  0  0
  143.3620  157.2600  133.5050 C   0  0  0  0  0  0  0  0  0  0  0  0
  144.7080  157.6080  133.5590 C   0  0  0  0  0  0  0  0  0  0  0  0
  145.0320  158.9690  133.6870 C   0  0  0  0  0  0  0  0  0  0  0  0
  144.0120  159.9550  133.7490 C   0  0  0  0  0  0  0  0  0  0  0  0
  144.3650  161.3840  133.8750 C   0  0  0  0  0  0  0  0  0  0  0  0
  143.6080  162.3990  133.4190 N   0  0  0  0  0  0  0  0  0  0  0  0
  144.2840  163.4920  133.7330 N   0  0  0  0  0  0  0  0  0  0  0  0
  145.4050  163.1610  134.3550 N   0  0  0  0  0  0  0  0  0  0  0  0
  145.4860  161.8440  134.4600 N   0  0  0  0  0  0  0  0  0  0  0  0
  142.6560  159.5600  133.6870 C   0  0  0  0  0  0  0  0  0  0  0  0
  142.3660  158.1970  133.5750 C   0  0  0  0  0  0  0  0  0  0  0  0
  138.6695  160.0495  130.7348 H   0  0  0  0  0  0  0  0  0  0  0  0
  138.3710  158.2313  131.2199 H   0  0  0  0  0  0  0  0  0  0  0  0
  140.0725  160.3494  132.6709 H   0  0  0  0  0  0  0  0  0  0  0  0
  138.4770  156.2160  132.9870 H   0  0  0  0  0  0  0  0  0  0  0  0
  143.2695  155.0500  133.2720 H   0  0  0  0  0  0  0  0  0  0  0  0
  145.4944  156.8409  133.5032 H   0  0  0  0  0  0  0  0  0  0  0  0
  146.0875  159.2742  133.7398 H   0  0  0  0  0  0  0  0  0  0  0  0
  141.8491  160.3066  133.7259 H   0  0  0  0  0  0  0  0  0  0  0  0
  1  2  2  0
  2  3  1  0
  3  4  2  0
  3  5  1  0
  5  6  1  0
  6  7  1  0
  7  8  1  0
  7  9  2  0
  6 10  2  0
 10 11  1  0
 11 12  2  0
 12 13  1  0
 13 14  2  0
 14 15  1  0
 15 16  1  0
 16 17  2  0
 17 18  1  0
 18 19  1  0
 14 20  1  0
 20 21  2  0
 21  5  1  0
 21 11  1  0
 19 15  2  0
  1 22  1  0
  1 23  1  0
  2 24  1  0
  8 25  1  0
 10 26  1  0
 12 27  1  0
 13 28  1  0
 20 29  1  0
M  CHG  2   8  -1  18  -1
M  END
>  <UniqueID>  (66) 
66

>  <SMILES>  (66) 
C=CC(=O)n1c(C([NH-])=O)cc2ccc(-c3nn[n-]n3)cc21

>  <Energy>  (66) 
108.81198629087196

>  <Genealogy>  (66) 
C=CC(=O)n1c(C([NH-])=O)cc2ccc(-c3nn[n-]n3)cc21 (protonated)
C=CC(=O)n1c(C([NH-])=O)cc2ccc(-c3nn[n-]n3)cc21 (3D coordinates assigned)
C=CC(=O)n1c(C([NH-])=O)cc2ccc(-c3nn[n-]n3)cc21 (optimized conformer: 108.81198629087196 kcal/mol)

>  <smiles>  (66) 
C=CC(=O)n1c(C(N)=O)cc2ccc(-c3nn[nH]n3)cc21

>  <score_type>  (66) 
oracle

>  <origin>  (66) 
adg

>  <m_score__min__energy>  (66) 
-7.0499999999999998

>  <m_primary>  (66) 
energy

$$$$
66:0
     RDKit          3D

 36 37  0  0  0  0  0  0  0  0999 V2000
  141.6820  158.6400  136.1330 C   0  0  0  0  0  0  0  0  0  0  0  0
  142.0510  158.1740  134.8500 O   0  0  0  0  0  0  0  0  0  0  0  0
  141.7240  159.1520  133.8800 C   0  0  0  0  0  0  0  0  0  0  0  0
  142.8850  160.1320  133.7200 C   0  0  0  0  0  0  0  0  0  0  0  0
  144.0320  159.4890  133.1640 O   0  0  0  0  0  0  0  0  0  0  0  0
  145.3490  159.8560  133.4770 C   0  0  0  0  0  0  0  0  0  0  0  0
  145.5860  160.9670  134.0190 O   0  0  0  0  0  0  0  0  0  0  0  0
  146.4360  158.9640  133.1650 N   0  0  0  0  0  0  0  0  0  0  0  0
  146.6330  157.7040  133.6440 C   0  0  0  0  0  0  0  0  0  0  0  0
  145.6860  156.9320  134.4730 C   0  0  0  0  0  0  0  0  0  0  0  0
  144.2800  157.1760  134.4100 N   0  0  0  0  0  0  0  0  0  0  0  0
  146.1220  156.0040  135.2050 O   0  0  0  0  0  0  0  0  0  0  0  0
  147.8580  157.1990  133.2200 C   0  0  0  0  0  0  0  0  0  0  0  0
  148.4160  158.1970  132.4500 C   0  0  0  0  0  0  0  0  0  0  0  0
  149.6470  158.2390  131.8000 C   0  0  0  0  0  0  0  0  0  0  0  0
  149.9910  159.4160  131.1160 C   0  0  0  0  0  0  0  0  0  0  0  0
  149.1140  160.5280  131.1120 C   0  0  0  0  0  0  0  0  0  0  0  0
  149.4800  161.7810  130.3690 C   0  0  0  0  0  0  0  0  0  0  0  0
  149.9130  161.4480  129.0940 F   0  0  0  0  0  0  0  0  0  0  0  0
  147.8720  160.4490  131.7790 C   0  0  0  0  0  0  0  0  0  0  0  0
  147.5410  159.2530  132.4330 C   0  0  0  0  0  0  0  0  0  0  0  0
  142.1705  158.0231  136.9017 H   0  0  0  0  0  0  0  0  0  0  0  0
  141.9984  159.6873  136.2477 H   0  0  0  0  0  0  0  0  0  0  0  0
  140.5901  158.5722  136.2477 H   0  0  0  0  0  0  0  0  0  0  0  0
  141.5271  158.6590  132.9166 H   0  0  0  0  0  0  0  0  0  0  0  0
  140.8282  159.7009  134.2059 H   0  0  0  0  0  0  0  0  0  0  0  0
  142.5743  160.9502  133.0536 H   0  0  0  0  0  0  0  0  0  0  0  0
  143.1517  160.5205  134.7140 H   0  0  0  0  0  0  0  0  0  0  0  0
  143.6310  156.6580  135.0410 H   0  0  0  0  0  0  0  0  0  0  0  0
  143.8810  157.8450  133.7140 H   0  0  0  0  0  0  0  0  0  0  0  0
  148.2893  156.2136  133.4501 H   0  0  0  0  0  0  0  0  0  0  0  0
  150.3291  157.3763  131.8218 H   0  0  0  0  0  0  0  0  0  0  0  0
  150.9492  159.4748  130.5790 H   0  0  0  0  0  0  0  0  0  0  0  0
  148.5997  162.4368  130.2985 H   0  0  0  0  0  0  0  0  0  0  0  0
  150.2838  162.3062  130.9057 H   0  0  0  0  0  0  0  0  0  0  0  0
  147.1807  161.3046  131.7856 H   0  0  0  0  0  0  0  0  0  0  0  0
  1  2  1  0
  2  3  1  0
  3  4  1  0
  4  5  1  0
  5  6  1  0
  6  7  2  0
  6  8  1  0
  8  9  1  0
  9 10  1  0
 10 11  1  0
 10 12  2  0
  9 13  2  0
 13 14  1  0
 14 15  2  0
 15 16  1  0
 16 17  2  0
 17 18  1  0
 18 19  1  0
 17 20  1  0
 20 21  2  0
 21  8  1  0
 21 14  1  0
  1 22  1  0
  1 23  1  0
  1 24  1  0
  3 25  1  0
  3 26  1  0
  4 27  1  0
  4 28  1  0
 11 29  1  0
 11 30  1  0
 13 31  1  0
 15 32  1  0
 16 33  1  0
 18 34  1  0
 18 35  1  0
 20 36  1  0
M  END
>  <UniqueID>  (67) 
67

>  <SMILES>  (67) 
COCCOC(=O)n1c(C(N)=O)cc2ccc(CF)cc21

>  <Energy>  (67) 
71.97245555315749

>  <Genealogy>  (67) 
COCCOC(=O)n1c(C(N)=O)cc2ccc(CF)cc21 (3D coordinates assigned)
COCCOC(=O)n1c(C(N)=O)cc2ccc(CF)cc21 (optimized conformer: 71.97245555315749 kcal/mol)

>  <smiles>  (67) 
COCCOC(=O)n1c(C(N)=O)cc2ccc(CF)cc21

>  <score_type>  (67) 
oracle

>  <origin>  (67) 
adg

>  <m_score__min__energy>  (67) 
-5.3200000000000003

>  <m_primary>  (67) 
energy

$$$$
67:0
     RDKit          3D

 37 38  0  0  0  0  0  0  0  0999 V2000
  149.3700  162.2750  130.3570 C   0  0  0  0  0  0  0  0  0  0  0  0
  148.8800  160.8320  130.4120 C   0  0  0  0  0  0  0  0  0  0  0  0
  149.9560  159.9020  130.9840 C   0  0  0  0  0  0  0  0  0  0  0  0
  149.3390  158.5870  131.4790 C   0  0  0  0  0  0  0  0  0  0  0  0
  148.6510  158.7530  132.8060 C   0  0  0  0  0  0  0  0  0  0  0  0
  149.2230  159.3880  133.7330 O   0  0  0  0  0  0  0  0  0  0  0  0
  147.4150  158.0710  133.0750 N   0  0  0  0  0  0  0  0  0  0  0  0
  146.1770  158.6120  133.2530 C   0  0  0  0  0  0  0  0  0  0  0  0
  145.8810  160.0570  133.3570 C   0  0  0  0  0  0  0  0  0  0  0  0
  146.9030  160.9900  133.7130 N   0  0  0  0  0  0  0  0  0  0  0  0
  144.7220  160.4820  133.1060 O   0  0  0  0  0  0  0  0  0  0  0  0
  145.2270  157.6050  133.4230 C   0  0  0  0  0  0  0  0  0  0  0  0
  145.9290  156.4230  133.3480 C   0  0  0  0  0  0  0  0  0  0  0  0
  145.4860  155.1070  133.4450 C   0  0  0  0  0  0  0  0  0  0  0  0
  146.4350  154.0800  133.3110 C   0  0  0  0  0  0  0  0  0  0  0  0
  147.8020  154.3850  133.0820 C   0  0  0  0  0  0  0  0  0  0  0  0
  148.8120  153.2850  132.9290 C   0  0  0  0  0  0  0  0  0  0  0  0
  148.9520  152.6100  134.1280 F   0  0  0  0  0  0  0  0  0  0  0  0
  150.0330  153.8220  132.5630 F   0  0  0  0  0  0  0  0  0  0  0  0
  148.2130  155.7320  132.9890 C   0  0  0  0  0  0  0  0  0  0  0  0
  147.2470  156.7320  133.1390 C   0  0  0  0  0  0  0  0  0  0  0  0
  149.4998  162.6574  131.3802 H   0  0  0  0  0  0  0  0  0  0  0  0
  150.3323  162.3155  129.8256 H   0  0  0  0  0  0  0  0  0  0  0  0
  148.6313  162.8930  129.8256 H   0  0  0  0  0  0  0  0  0  0  0  0
  147.9856  160.7810  131.0503 H   0  0  0  0  0  0  0  0  0  0  0  0
  148.6455  160.5048  129.3883 H   0  0  0  0  0  0  0  0  0  0  0  0
  150.6941  159.6801  130.1991 H   0  0  0  0  0  0  0  0  0  0  0  0
  150.4382  160.4053  131.8350 H   0  0  0  0  0  0  0  0  0  0  0  0
  148.6038  158.2386  130.7387 H   0  0  0  0  0  0  0  0  0  0  0  0
  150.1516  157.8566  131.6061 H   0  0  0  0  0  0  0  0  0  0  0  0
  147.8590  160.6720  133.9840 H   0  0  0  0  0  0  0  0  0  0  0  0
  146.6890  162.0110  133.7480 H   0  0  0  0  0  0  0  0  0  0  0  0
  144.1458  157.7290  133.5831 H   0  0  0  0  0  0  0  0  0  0  0  0
  144.4246  154.8781  133.6213 H   0  0  0  0  0  0  0  0  0  0  0  0
  146.1157  153.0299  133.3842 H   0  0  0  0  0  0  0  0  0  0  0  0
  148.4686  152.5865  132.1518 H   0  0  0  0  0  0  0  0  0  0  0  0
  149.2664  155.9887  132.8032 H   0  0  0  0  0  0  0  0  0  0  0  0
  1  2  1  0
  2  3  1  0
  3  4  1  0
  4  5  1  0
  5  6  2  0
  5  7  1  0
  7  8  1  0
  8  9  1  0
  9 10  1  0
  9 11  2  0
  8 12  2  0
 12 13  1  0
 13 14  2  0
 14 15  1  0
 15 16  2  0
 16 17  1  0
 17 18  1  0
 17 19  1  0
 16 20  1  0
 20 21  2  0
 21  7  1  0
 21 13  1  0
  1 22  1  0
  1 23  1  0
  1 24  1  0
  2 25  1  0
  2 26  1  0
  3 27  1  0
  3 28  1  0
  4 29  1  0
  4 30  1  0
 10 31  1  0
 10 32  1  0
 12 33  1  0
 14 34  1  0
 15 35  1  0
 17 36  1  0
 20 37  1  0
M  END
>  <UniqueID>  (68) 
68

>  <SMILES>  (68) 
CCCCC(=O)n1c(C(N)=O)cc2ccc(C(F)F)cc21

>  <Energy>  (68) 
69.11859531218009

>  <Genealogy>  (68) 
CCCCC(=O)n1c(C(N)=O)cc2ccc(C(F)F)cc21 (3D coordinates assigned)
CCCCC(=O)n1c(C(N)=O)cc2ccc(C(F)F)cc21 (optimized conformer: 69.11859531218009 kcal/mol)

>  <smiles>  (68) 
CCCCC(=O)n1c(C(N)=O)cc2ccc(C(F)F)cc21

>  <score_type>  (68) 
oracle

>  <origin>  (68) 
adg

>  <m_score__min__energy>  (68) 
-7.4100000000000001

>  <m_primary>  (68) 
energy

$$$$
68:0
     RDKit          3D

 29 30  0  0  0  0  0  0  0  0999 V2000
  149.4170  158.9930  133.1210 N   0  0  0  0  0  0  0  0  0  0  0  0
  148.2770  159.7510  132.7110 C   0  0  0  0  0  0  0  0  0  0  0  0
  148.4440  160.7800  132.0050 O   0  0  0  0  0  0  0  0  0  0  0  0
  146.9050  159.3230  133.0550 C   0  0  0  0  0  0  0  0  0  0  0  0
  145.7980  160.1640  132.9840 C   0  0  0  0  0  0  0  0  0  0  0  0
  144.7280  159.3870  133.3650 C   0  0  0  0  0  0  0  0  0  0  0  0
  143.3860  159.7260  133.5120 C   0  0  0  0  0  0  0  0  0  0  0  0
  142.5050  158.7390  133.9810 C   0  0  0  0  0  0  0  0  0  0  0  0
  142.9730  157.4350  134.2890 C   0  0  0  0  0  0  0  0  0  0  0  0
  142.0300  156.4040  134.8550 C   0  0  0  0  0  0  0  0  0  0  0  0
  141.3650  155.7400  133.8390 F   0  0  0  0  0  0  0  0  0  0  0  0
  142.7500  155.4870  135.5970 F   0  0  0  0  0  0  0  0  0  0  0  0
  141.0840  157.0020  135.6720 F   0  0  0  0  0  0  0  0  0  0  0  0
  144.3500  157.1400  134.1540 C   0  0  0  0  0  0  0  0  0  0  0  0
  145.2010  158.1350  133.6590 C   0  0  0  0  0  0  0  0  0  0  0  0
  146.5380  158.0790  133.4680 N   0  0  0  0  0  0  0  0  0  0  0  0
  147.4130  156.9800  133.7810 C   0  0  0  0  0  0  0  0  0  0  0  0
  147.8090  156.8210  134.9660 O   0  0  0  0  0  0  0  0  0  0  0  0
  147.8760  156.0170  132.7230 C   0  0  0  0  0  0  0  0  0  0  0  0
  149.2720  156.0430  132.5940 O   0  0  0  0  0  0  0  0  0  0  0  0
  150.3780  159.3430  132.9160 H   0  0  0  0  0  0  0  0  0  0  0  0
  149.3130  158.0400  133.5350 H   0  0  0  0  0  0  0  0  0  0  0  0
  145.7820  161.2230  132.6869 H   0  0  0  0  0  0  0  0  0  0  0  0
  143.0268  160.7367  133.2680 H   0  0  0  0  0  0  0  0  0  0  0  0
  141.4394  158.9790  134.1114 H   0  0  0  0  0  0  0  0  0  0  0  0
  144.7431  156.1509  134.4318 H   0  0  0  0  0  0  0  0  0  0  0  0
  147.5594  155.0003  132.9990 H   0  0  0  0  0  0  0  0  0  0  0  0
  147.4304  156.3126  131.7618 H   0  0  0  0  0  0  0  0  0  0  0  0
  149.6180  156.5740  133.3580 H   0  0  0  0  0  0  0  0  0  0  0  0
  1  2  1  0
  2  3  2  0
  2  4  1  0
  4  5  2  0
  5  6  1  0
  6  7  2  0
  7  8  1  0
  8  9  2  0
  9 10  1  0
 10 11  1  0
 10 12  1  0
 10 13  1  0
  9 14  1  0
 14 15  2  0
 15 16  1  0
 16 17  1  0
 17 18  2  0
 17 19  1  0
 19 20  1  0
 16  4  1  0
 15  6  1  0
  1 21  1  0
  1 22  1  0
  5 23  1  0
  7 24  1  0
  8 25  1  0
 14 26  1  0
 19 27  1  0
 19 28  1  0
 20 29  1  0
M  END
>  <UniqueID>  (69) 
69

>  <SMILES>  (69) 
NC(=O)c1cc2ccc(C(F)(F)F)cc2n1C(=O)CO

>  <Energy>  (69) 
69.94696549681073

>  <Genealogy>  (69) 
NC(=O)c1cc2ccc(C(F)(F)F)cc2n1C(=O)CO (3D coordinates assigned)
NC(=O)c1cc2ccc(C(F)(F)F)cc2n1C(=O)CO (optimized conformer: 69.94696549681073 kcal/mol)

>  <smiles>  (69) 
NC(=O)c1cc2ccc(C(F)(F)F)cc2n1C(=O)CO

>  <score_type>  (69) 
oracle

>  <origin>  (69) 
adg

>  <m_score__min__energy>  (69) 
-5.7000000000000002

>  <m_primary>  (69) 
energy

$$$$
69:0
     RDKit          3D

 33 34  0  0  0  0  0  0  0  0999 V2000
  145.3290  154.9370  135.0770 C   0  0  0  0  0  0  0  0  0  0  0  0
  146.8260  154.7050  134.8920 C   0  0  1  0  0  0  0  0  0  0  0  0
  147.4420  155.9290  134.4910 O   0  0  0  0  0  0  0  0  0  0  0  0
  147.2510  156.5120  133.2310 C   0  0  0  0  0  0  0  0  0  0  0  0
  147.3060  155.8030  132.1890 O   0  0  0  0  0  0  0  0  0  0  0  0
  146.9580  157.9150  133.1310 N   0  0  0  0  0  0  0  0  0  0  0  0
  147.8230  158.9280  132.8380 C   0  0  0  0  0  0  0  0  0  0  0  0
  149.2170  158.7730  132.3770 C   0  0  0  0  0  0  0  0  0  0  0  0
  149.7390  157.4920  132.0410 N   0  0  0  0  0  0  0  0  0  0  0  0
  149.9410  159.7950  132.2270 O   0  0  0  0  0  0  0  0  0  0  0  0
  147.1900  160.1620  132.9540 C   0  0  0  0  0  0  0  0  0  0  0  0
  145.8960  159.8750  133.3240 C   0  0  0  0  0  0  0  0  0  0  0  0
  144.8360  160.7320  133.6030 C   0  0  0  0  0  0  0  0  0  0  0  0
  143.6170  160.1630  134.0060 C   0  0  0  0  0  0  0  0  0  0  0  0
  143.4740  158.7550  134.1140 C   0  0  0  0  0  0  0  0  0  0  0  0
  142.1800  158.1610  134.6080 C   0  0  0  0  0  0  0  0  0  0  0  0
  141.5190  157.5080  133.5820 F   0  0  0  0  0  0  0  0  0  0  0  0
  141.3450  159.1470  135.1020 F   0  0  0  0  0  0  0  0  0  0  0  0
  142.4520  157.2550  135.6170 F   0  0  0  0  0  0  0  0  0  0  0  0
  144.5830  157.9200  133.8440 C   0  0  0  0  0  0  0  0  0  0  0  0
  145.7810  158.5140  133.4260 C   0  0  0  0  0  0  0  0  0  0  0  0
  147.4320  154.2060  136.1730 C   0  0  0  0  0  0  0  0  0  0  0  0
  148.3470  154.8620  136.7370 O   0  0  0  0  0  0  0  0  0  0  0  0
  147.0020  153.0090  136.7320 O   0  0  0  0  0  0  0  0  0  0  0  0
  145.0936  154.9735  136.1509 H   0  0  0  0  0  0  0  0  0  0  0  0
  145.0448  155.8899  134.6067 H   0  0  0  0  0  0  0  0  0  0  0  0
  144.7697  154.1148  134.6067 H   0  0  0  0  0  0  0  0  0  0  0  0
  146.9900  153.9448  134.1141 H   0  0  0  0  0  0  0  0  0  0  0  0
  149.1360  156.7660  131.5930 H   0  0  0  0  0  0  0  0  0  0  0  0
  147.6305  161.1558  132.7857 H   0  0  0  0  0  0  0  0  0  0  0  0
  144.9494  161.8222  133.5107 H   0  0  0  0  0  0  0  0  0  0  0  0
  142.7634  160.8159  134.2406 H   0  0  0  0  0  0  0  0  0  0  0  0
  144.5067  156.8288  133.9596 H   0  0  0  0  0  0  0  0  0  0  0  0
  1  2  1  0
  2  3  1  0
  3  4  1  0
  4  5  2  0
  4  6  1  0
  6  7  1  0
  7  8  1  0
  8  9  1  0
  8 10  2  0
  7 11  2  0
 11 12  1  0
 12 13  2  0
 13 14  1  0
 14 15  2  0
 15 16  1  0
 16 17  1  0
 16 18  1  0
 16 19  1  0
 15 20  1  0
 20 21  2  0
  2 22  1  0
 22 23  2  0
 22 24  1  0
 21  6  1  0
 21 12  1  0
  1 25  1  0
  1 26  1  0
  1 27  1  0
  2 28  1  6
  9 29  1  0
 11 30  1  0
 13 31  1  0
 14 32  1  0
 20 33  1  0
M  CHG  2   9  -1  24  -1
M  END
>  <UniqueID>  (70) 
70

>  <SMILES>  (70) 
C[C@@H](OC(=O)n1c(C([NH-])=O)cc2ccc(C(F)(F)F)cc21)C(=O)[O-]

>  <Energy>  (70) 
68.68886898733503

>  <Genealogy>  (70) 
CC(OC(=O)n1c(C([NH-])=O)cc2ccc(C(F)(F)F)cc21)C(=O)[O-] (protonated)
C[C@@H](OC(=O)n1c(C([NH-])=O)cc2ccc(C(F)(F)F)cc21)C(=O)[O-] (chirality)
C[C@@H](OC(=O)n1c(C([NH-])=O)cc2ccc(C(F)(F)F)cc21)C(=O)[O-] (3D coordinates assigned)
C[C@@H](OC(=O)n1c(C([NH-])=O)cc2ccc(C(F)(F)F)cc21)C(=O)[O-] (optimized conformer: 68.68886898733503 kcal/mol)

>  <smiles>  (70) 
CC(OC(=O)n1c(C(N)=O)cc2ccc(C(F)(F)F)cc21)C(=O)O

>  <score_type>  (70) 
oracle

>  <origin>  (70) 
adg

>  <m_score__min__energy>  (70) 
-6.04

>  <m_primary>  (70) 
energy

$$$$
70:0
     RDKit          3D

 32 33  0  0  0  0  0  0  0  0999 V2000
  137.2970  160.0590  130.7440 C   0  0  0  0  0  0  0  0  0  0  0  0
  138.7950  159.0190  130.7270 S   0  0  0  0  0  0  0  0  0  0  0  0
  139.5420  159.7610  132.2180 C   0  0  0  0  0  0  0  0  0  0  0  0
  139.8150  158.7030  133.2490 C   0  0  0  0  0  0  0  0  0  0  0  0
  138.9350  158.4480  134.1140 O   0  0  0  0  0  0  0  0  0  0  0  0
  141.0460  157.9580  133.2440 N   0  0  0  0  0  0  0  0  0  0  0  0
  141.1940  156.6020  133.2630 C   0  0  0  0  0  0  0  0  0  0  0  0
  140.1050  155.6000  133.2400 C   0  0  0  0  0  0  0  0  0  0  0  0
  138.7500  155.9650  132.9770 N   0  0  0  0  0  0  0  0  0  0  0  0
  140.3860  154.3850  133.4140 O   0  0  0  0  0  0  0  0  0  0  0  0
  142.5390  156.2570  133.3650 C   0  0  0  0  0  0  0  0  0  0  0  0
  143.2200  157.4510  133.4210 C   0  0  0  0  0  0  0  0  0  0  0  0
  144.5800  157.6940  133.5830 C   0  0  0  0  0  0  0  0  0  0  0  0
  145.0010  159.0280  133.7010 C   0  0  0  0  0  0  0  0  0  0  0  0
  144.0600  160.0860  133.6760 C   0  0  0  0  0  0  0  0  0  0  0  0
  144.5260  161.5030  133.8500 C   0  0  0  0  0  0  0  0  0  0  0  0
  143.4550  162.3660  133.7080 F   0  0  0  0  0  0  0  0  0  0  0  0
  145.0790  161.6640  135.1080 F   0  0  0  0  0  0  0  0  0  0  0  0
  142.6850  159.7990  133.5240 C   0  0  0  0  0  0  0  0  0  0  0  0
  142.2960  158.4640  133.3620 C   0  0  0  0  0  0  0  0  0  0  0  0
  137.0038  160.2626  131.7845 H   0  0  0  0  0  0  0  0  0  0  0  0
  137.5041  161.0086  130.2289 H   0  0  0  0  0  0  0  0  0  0  0  0
  136.4796  159.5331  130.2289 H   0  0  0  0  0  0  0  0  0  0  0  0
  140.4872  160.2522  131.9437 H   0  0  0  0  0  0  0  0  0  0  0  0
  138.8417  160.4973  132.6392 H   0  0  0  0  0  0  0  0  0  0  0  0
  137.9960  155.2450  133.0260 H   0  0  0  0  0  0  0  0  0  0  0  0
  138.4990  156.9180  132.6380 H   0  0  0  0  0  0  0  0  0  0  0  0
  142.9667  155.2440  133.3946 H   0  0  0  0  0  0  0  0  0  0  0  0
  145.3035  156.8661  133.6176 H   0  0  0  0  0  0  0  0  0  0  0  0
  146.0717  159.2536  133.8139 H   0  0  0  0  0  0  0  0  0  0  0  0
  145.2844  161.7278  133.0856 H   0  0  0  0  0  0  0  0  0  0  0  0
  141.9374  160.6059  133.5328 H   0  0  0  0  0  0  0  0  0  0  0  0
  1  2  1  0
  2  3  1  0
  3  4  1  0
  4  5  2  0
  4  6  1  0
  6  7  1  0
  7  8  1  0
  8  9  1  0
  8 10  2  0
  7 11  2  0
 11 12  1  0
 12 13  2  0
 13 14  1  0
 14 15  2  0
 15 16  1  0
 16 17  1  0
 16 18  1  0
 15 19  1  0
 19 20  2  0
 20  6  1  0
 20 12  1  0
  1 21  1  0
  1 22  1  0
  1 23  1  0
  3 24  1  0
  3 25  1  0
  9 26  1  0
  9 27  1  0
 11 28  1  0
 13 29  1  0
 14 30  1  0
 16 31  1  0
 19 32  1  0
M  END
>  <UniqueID>  (71) 
71

>  <SMILES>  (71) 
CSCC(=O)n1c(C(N)=O)cc2ccc(C(F)F)cc21

>  <Energy>  (71) 
68.25818364198096

>  <Genealogy>  (71) 
CSCC(=O)n1c(C(N)=O)cc2ccc(C(F)F)cc21 (3D coordinates assigned)
CSCC(=O)n1c(C(N)=O)cc2ccc(C(F)F)cc21 (optimized conformer: 68.25818364198096 kcal/mol)

>  <smiles>  (71) 
CSCC(=O)n1c(C(N)=O)cc2ccc(C(F)F)cc21

>  <score_type>  (71) 
oracle

>  <origin>  (71) 
adg

>  <m_score__min__energy>  (71) 
-6.8300000000000001

>  <m_primary>  (71) 
energy

$$$$
71:0
     RDKit          3D

 48 49  0  0  0  0  0  0  0  0999 V2000
  141.4050  157.3680  134.8230 C   0  0  0  0  0  0  0  0  0  0  0  0
  141.7250  158.8650  134.9470 C   0  0  0  0  0  0  0  0  0  0  0  0
  140.9840  159.6250  133.8300 C   0  0  0  0  0  0  0  0  0  0  0  0
  141.2750  159.3590  136.3350 C   0  0  0  0  0  0  0  0  0  0  0  0
  143.1440  159.0080  134.7940 O   0  0  0  0  0  0  0  0  0  0  0  0
  143.8910  158.7200  133.6410 C   0  0  0  0  0  0  0  0  0  0  0  0
  143.3910  158.0540  132.6950 O   0  0  0  0  0  0  0  0  0  0  0  0
  145.2540  159.1620  133.5610 N   0  0  0  0  0  0  0  0  0  0  0  0
  145.7370  160.4320  133.6870 C   0  0  0  0  0  0  0  0  0  0  0  0
  144.9570  161.6200  134.0910 C   0  0  0  0  0  0  0  0  0  0  0  0
  143.5820  161.7210  133.7310 N   0  0  0  0  0  0  0  0  0  0  0  0
  145.5000  162.5640  134.7220 O   0  0  0  0  0  0  0  0  0  0  0  0
  147.1120  160.4550  133.4590 C   0  0  0  0  0  0  0  0  0  0  0  0
  147.4600  159.1500  133.1920 C   0  0  0  0  0  0  0  0  0  0  0  0
  148.6980  158.5990  132.8800 C   0  0  0  0  0  0  0  0  0  0  0  0
  148.7580  157.2200  132.6210 C   0  0  0  0  0  0  0  0  0  0  0  0
  147.5910  156.4180  132.6650 C   0  0  0  0  0  0  0  0  0  0  0  0
  147.7010  155.0090  132.3830 N   0  0  0  0  0  0  0  0  0  0  0  0
  147.2480  153.9400  133.2770 C   0  0  0  0  0  0  0  0  0  0  0  0
  147.5650  152.5520  132.7050 C   0  0  0  0  0  0  0  0  0  0  0  0
  149.3190  152.3050  132.4450 S   0  0  0  0  0  0  0  0  0  0  0  0
  149.6120  151.1040  131.1650 C   0  0  0  0  0  0  0  0  0  0  0  0
  149.9350  153.6130  132.0350 O   0  0  0  0  0  0  0  0  0  0  0  0
  149.9650  151.8410  133.7220 O   0  0  0  0  0  0  0  0  0  0  0  0
  146.3500  157.0170  132.9930 C   0  0  0  0  0  0  0  0  0  0  0  0
  146.3220  158.3900  133.2600 C   0  0  0  0  0  0  0  0  0  0  0  0
  141.3111  156.9287  135.8271 H   0  0  0  0  0  0  0  0  0  0  0  0
  140.4591  157.2393  134.2765 H   0  0  0  0  0  0  0  0  0  0  0  0
  142.2157  156.8638  134.2765 H   0  0  0  0  0  0  0  0  0  0  0  0
  140.2828  160.3441  134.2786 H   0  0  0  0  0  0  0  0  0  0  0  0
  141.7131  160.1637  133.2070 H   0  0  0  0  0  0  0  0  0  0  0  0
  140.4270  158.9097  133.2070 H   0  0  0  0  0  0  0  0  0  0  0  0
  141.7972  158.7858  137.1152 H   0  0  0  0  0  0  0  0  0  0  0  0
  141.5172  160.4268  136.4404 H   0  0  0  0  0  0  0  0  0  0  0  0
  140.1893  159.2171  136.4404 H   0  0  0  0  0  0  0  0  0  0  0  0
  142.9670  160.8770  133.7140 H   0  0  0  0  0  0  0  0  0  0  0  0
  147.7778  161.3302  133.4866 H   0  0  0  0  0  0  0  0  0  0  0  0
  149.6023  159.2239  132.8374 H   0  0  0  0  0  0  0  0  0  0  0  0
  149.7257  156.7556  132.3804 H   0  0  0  0  0  0  0  0  0  0  0  0
  148.1450  154.7160  131.4830 H   0  0  0  0  0  0  0  0  0  0  0  0
  147.7525  154.0494  134.2483 H   0  0  0  0  0  0  0  0  0  0  0  0
  146.1570  154.0247  133.3888 H   0  0  0  0  0  0  0  0  0  0  0  0
  147.2012  151.7886  133.4085 H   0  0  0  0  0  0  0  0  0  0  0  0
  147.0664  152.4702  131.7279 H   0  0  0  0  0  0  0  0  0  0  0  0
  149.8492  150.1318  131.6217 H   0  0  0  0  0  0  0  0  0  0  0  0
  148.7114  151.0060  130.5410 H   0  0  0  0  0  0  0  0  0  0  0  0
  150.4565  151.4318  130.5410 H   0  0  0  0  0  0  0  0  0  0  0  0
  145.4295  156.4164  133.0368 H   0  0  0  0  0  0  0  0  0  0  0  0
  1  2  1  0
  2  3  1  0
  2  4  1  0
  2  5  1  0
  5  6  1  0
  6  7  2  0
  6  8  1  0
  8  9  1  0
  9 10  1  0
 10 11  1  0
 10 12  2  0
  9 13  2  0
 13 14  1  0
 14 15  2  0
 15 16  1  0
 16 17  2  0
 17 18  1  0
 18 19  1  0
 19 20  1  0
 20 21  1  0
 21 22  1  0
 21 23  2  0
 21 24  2  0
 17 25  1  0
 25 26  2  0
 26  8  1  0
 26 14  1  0
  1 27  1  0
  1 28  1  0
  1 29  1  0
  3 30  1  0
  3 31  1  0
  3 32  1  0
  4 33  1  0
  4 34  1  0
  4 35  1  0
 11 36  1  0
 13 37  1  0
 15 38  1  0
 16 39  1  0
 18 40  1  0
 19 41  1  0
 19 42  1  0
 20 43  1  0
 20 44  1  0
 22 45  1  0
 22 46  1  0
 22 47  1  0
 25 48  1  0
M  CHG  1  11  -1
M  END
>  <UniqueID>  (72) 
72

>  <SMILES>  (72) 
CC(C)(C)OC(=O)n1c(C([NH-])=O)cc2ccc(NCCS(C)(=O)=O)cc21

>  <Energy>  (72) 
71.11499636581891

>  <Genealogy>  (72) 
CC(C)(C)OC(=O)n1c(C([NH-])=O)cc2ccc(NCCS(C)(=O)=O)cc21 (protonated)
CC(C)(C)OC(=O)n1c(C([NH-])=O)cc2ccc(NCCS(C)(=O)=O)cc21 (3D coordinates assigned)
CC(C)(C)OC(=O)n1c(C([NH-])=O)cc2ccc(NCCS(C)(=O)=O)cc21 (optimized conformer: 71.11499636581891 kcal/mol)

>  <smiles>  (72) 
CC(C)(C)OC(=O)n1c(C(N)=O)cc2ccc(NCCS(C)(=O)=O)cc21

>  <score_type>  (72) 
oracle

>  <origin>  (72) 
adg

>  <m_score__min__energy>  (72) 
-7.9900000000000002

>  <m_primary>  (72) 
energy

$$$$
72:0
     RDKit          3D

 38 39  0  0  0  0  0  0  0  0999 V2000
  142.6930  160.8970  133.4290 N   0  0  0  0  0  0  0  0  0  0  0  0
  144.0790  161.0770  133.7310 C   0  0  0  0  0  0  0  0  0  0  0  0
  144.4770  162.2080  134.1190 O   0  0  0  0  0  0  0  0  0  0  0  0
  145.0430  159.9650  133.5720 C   0  0  0  0  0  0  0  0  0  0  0  0
  146.4220  160.1300  133.4420 C   0  0  0  0  0  0  0  0  0  0  0  0
  146.9390  158.8570  133.3800 C   0  0  0  0  0  0  0  0  0  0  0  0
  148.2540  158.4320  133.2190 C   0  0  0  0  0  0  0  0  0  0  0  0
  148.4950  157.0500  133.1450 C   0  0  0  0  0  0  0  0  0  0  0  0
  147.4280  156.1210  133.2440 C   0  0  0  0  0  0  0  0  0  0  0  0
  147.6900  154.6430  133.0980 C   0  0  0  0  0  0  0  0  0  0  0  0
  148.7460  154.4520  132.2280 F   0  0  0  0  0  0  0  0  0  0  0  0
  146.5720  153.9970  132.6000 F   0  0  0  0  0  0  0  0  0  0  0  0
  148.0060  154.0810  134.3220 F   0  0  0  0  0  0  0  0  0  0  0  0
  146.1040  156.5950  133.3830 C   0  0  0  0  0  0  0  0  0  0  0  0
  145.8930  157.9750  133.4720 C   0  0  0  0  0  0  0  0  0  0  0  0
  144.7240  158.6390  133.5940 N   0  0  0  0  0  0  0  0  0  0  0  0
  143.4060  158.0690  133.6500 C   0  0  0  0  0  0  0  0  0  0  0  0
  142.7650  157.8910  132.5790 O   0  0  0  0  0  0  0  0  0  0  0  0
  142.7310  157.8470  134.9760 C   0  0  0  0  0  0  0  0  0  0  0  0
  141.0310  158.4220  135.0200 S   0  0  0  0  0  0  0  0  0  0  0  0
  140.4650  158.0530  136.3620 O   0  0  0  0  0  0  0  0  0  0  0  0
  140.9860  159.9180  134.8820 O   0  0  0  0  0  0  0  0  0  0  0  0
  140.0060  157.6500  133.7660 C   0  0  0  0  0  0  0  0  0  0  0  0
  139.3820  158.6580  132.8000 C   0  0  0  0  0  0  0  0  0  0  0  0
  140.3460  159.5660  132.3480 O   0  0  0  0  0  0  0  0  0  0  0  0
  142.0310  161.7010  133.5100 H   0  0  0  0  0  0  0  0  0  0  0  0
  142.3080  159.9620  133.1700 H   0  0  0  0  0  0  0  0  0  0  0  0
  146.9784  161.0779  133.3983 H   0  0  0  0  0  0  0  0  0  0  0  0
  149.0795  159.1559  133.1517 H   0  0  0  0  0  0  0  0  0  0  0  0
  149.5234  156.6841  133.0087 H   0  0  0  0  0  0  0  0  0  0  0  0
  145.2573  155.8937  133.4204 H   0  0  0  0  0  0  0  0  0  0  0  0
  142.7396  156.7690  135.1948 H   0  0  0  0  0  0  0  0  0  0  0  0
  143.2887  158.4293  135.7242 H   0  0  0  0  0  0  0  0  0  0  0  0
  140.6268  156.9492  133.1885 H   0  0  0  0  0  0  0  0  0  0  0  0
  139.1820  157.1377  134.2843 H   0  0  0  0  0  0  0  0  0  0  0  0
  138.9596  158.1200  131.9386 H   0  0  0  0  0  0  0  0  0  0  0  0
  138.5909  159.2121  133.3265 H   0  0  0  0  0  0  0  0  0  0  0  0
  141.1950  159.3120  132.7950 H   0  0  0  0  0  0  0  0  0  0  0  0
  1  2  1  0
  2  3  2  0
  2  4  1  0
  4  5  2  0
  5  6  1  0
  6  7  2  0
  7  8  1  0
  8  9  2  0
  9 10  1  0
 10 11  1  0
 10 12  1  0
 10 13  1  0
  9 14  1  0
 14 15  2  0
 15 16  1  0
 16 17  1  0
 17 18  2  0
 17 19  1  0
 19 20  1  0
 20 21  2  0
 20 22  2  0
 20 23  1  0
 23 24  1  0
 24 25  1  0
 16  4  1  0
 15  6  1  0
  1 26  1  0
  1 27  1  0
  5 28  1  0
  7 29  1  0
  8 30  1  0
 14 31  1  0
 19 32  1  0
 19 33  1  0
 23 34  1  0
 23 35  1  0
 24 36  1  0
 24 37  1  0
 25 38  1  0
M  END
>  <UniqueID>  (73) 
73

>  <SMILES>  (73) 
NC(=O)c1cc2ccc(C(F)(F)F)cc2n1C(=O)CS(=O)(=O)CCO

>  <Energy>  (73) 
70.06636572449662

>  <Genealogy>  (73) 
NC(=O)c1cc2ccc(C(F)(F)F)cc2n1C(=O)CS(=O)(=O)CCO (3D coordinates assigned)
NC(=O)c1cc2ccc(C(F)(F)F)cc2n1C(=O)CS(=O)(=O)CCO (optimized conformer: 70.06636572449662 kcal/mol)

>  <smiles>  (73) 
NC(=O)c1cc2ccc(C(F)(F)F)cc2n1C(=O)CS(=O)(=O)CCO

>  <score_type>  (73) 
oracle

>  <origin>  (73) 
adg

>  <m_score__min__energy>  (73) 
-6.3099999999999996

>  <m_primary>  (73) 
energy

$$$$
73:0
     RDKit          3D

 47 49  0  0  0  0  0  0  0  0999 V2000
  150.2750  150.8810  132.1280 C   0  0  0  0  0  0  0  0  0  0  0  0
  149.2730  151.9940  131.8660 C   0  0  0  0  0  0  0  0  0  0  0  0
  149.3920  152.9920  132.8730 O   0  0  0  0  0  0  0  0  0  0  0  0
  148.8710  154.2800  132.7220 C   0  0  0  0  0  0  0  0  0  0  0  0
  149.5770  155.2060  132.2330 O   0  0  0  0  0  0  0  0  0  0  0  0
  147.4500  154.5500  133.1000 C   0  0  0  0  0  0  0  0  0  0  0  0
  147.1570  155.9750  132.9650 N   0  0  0  0  0  0  0  0  0  0  0  0
  146.0060  156.5870  133.5670 C   0  0  0  0  0  0  0  0  0  0  0  0
  145.1420  155.8700  134.1420 O   0  0  0  0  0  0  0  0  0  0  0  0
  145.8030  158.0090  133.4690 N   0  0  0  0  0  0  0  0  0  0  0  0
  146.7460  158.9490  133.1990 C   0  0  0  0  0  0  0  0  0  0  0  0
  148.1550  158.6670  132.9060 C   0  0  0  0  0  0  0  0  0  0  0  0
  148.5220  158.1140  131.6440 N   0  0  0  0  0  0  0  0  0  0  0  0
  149.0430  158.9440  133.7580 O   0  0  0  0  0  0  0  0  0  0  0  0
  146.2130  160.2300  133.2800 C   0  0  0  0  0  0  0  0  0  0  0  0
  144.8850  160.0450  133.5920 C   0  0  0  0  0  0  0  0  0  0  0  0
  143.8690  160.9790  133.7670 C   0  0  0  0  0  0  0  0  0  0  0  0
  142.5790  160.5020  134.0540 C   0  0  0  0  0  0  0  0  0  0  0  0
  142.3250  159.1110  134.1520 C   0  0  0  0  0  0  0  0  0  0  0  0
  140.9600  158.6200  134.4450 C   0  0  0  0  0  0  0  0  0  0  0  0
  140.4220  158.2610  135.6720 C   0  0  0  0  0  0  0  0  0  0  0  0
  141.0980  158.3000  137.0050 C   0  0  0  0  0  0  0  0  0  0  0  0
  139.1500  157.8580  135.5030 N   0  0  0  0  0  0  0  0  0  0  0  0
  138.8880  157.9460  134.2310 O   0  0  0  0  0  0  0  0  0  0  0  0
  139.9210  158.3950  133.5570 C   0  0  0  0  0  0  0  0  0  0  0  0
  139.9240  158.5990  132.0770 C   0  0  0  0  0  0  0  0  0  0  0  0
  143.3800  158.1930  133.9630 C   0  0  0  0  0  0  0  0  0  0  0  0
  144.6610  158.6950  133.7020 C   0  0  0  0  0  0  0  0  0  0  0  0
  150.3971  150.7454  133.2128 H   0  0  0  0  0  0  0  0  0  0  0  0
  149.9089  149.9452  131.6804 H   0  0  0  0  0  0  0  0  0  0  0  0
  151.2439  151.1471  131.6804 H   0  0  0  0  0  0  0  0  0  0  0  0
  149.4730  152.4420  130.8815 H   0  0  0  0  0  0  0  0  0  0  0  0
  148.2544  151.5790  131.8824 H   0  0  0  0  0  0  0  0  0  0  0  0
  146.7826  153.9771  132.4395 H   0  0  0  0  0  0  0  0  0  0  0  0
  147.2917  154.2472  134.1456 H   0  0  0  0  0  0  0  0  0  0  0  0
  147.7840  156.5510  132.3590 H   0  0  0  0  0  0  0  0  0  0  0  0
  148.7890  157.1100  131.5570 H   0  0  0  0  0  0  0  0  0  0  0  0
  146.7382  161.1844  133.1278 H   0  0  0  0  0  0  0  0  0  0  0  0
  144.0694  162.0574  133.6833 H   0  0  0  0  0  0  0  0  0  0  0  0
  141.7563  161.2166  134.2044 H   0  0  0  0  0  0  0  0  0  0  0  0
  140.3407  158.2563  137.8016 H   0  0  0  0  0  0  0  0  0  0  0  0
  141.7771  157.4395  137.0971 H   0  0  0  0  0  0  0  0  0  0  0  0
  141.6736  159.2329  137.0971 H   0  0  0  0  0  0  0  0  0  0  0  0
  139.9398  159.6763  131.8554 H   0  0  0  0  0  0  0  0  0  0  0  0
  140.8152  158.1223  131.6430 H   0  0  0  0  0  0  0  0  0  0  0  0
  139.0192  158.1486  131.6430 H   0  0  0  0  0  0  0  0  0  0  0  0
  143.2005  157.1092  134.0193 H   0  0  0  0  0  0  0  0  0  0  0  0
  1  2  1  0
  2  3  1  0
  3  4  1  0
  4  5  2  0
  4  6  1  0
  6  7  1  0
  7  8  1  0
  8  9  2  0
  8 10  1  0
 10 11  1  0
 11 12  1  0
 12 13  1  0
 12 14  2  0
 11 15  2  0
 15 16  1  0
 16 17  2  0
 17 18  1  0
 18 19  2  0
 19 20  1  0
 20 21  1  0
 21 22  1  0
 21 23  2  0
 23 24  1  0
 24 25  1  0
 25 26  1  0
 19 27  1  0
 27 28  2  0
 28 10  1  0
 28 16  1  0
 25 20  2  0
  1 29  1  0
  1 30  1  0
  1 31  1  0
  2 32  1  0
  2 33  1  0
  6 34  1  0
  6 35  1  0
  7 36  1  0
 13 37  1  0
 15 38  1  0
 17 39  1  0
 18 40  1  0
 22 41  1  0
 22 42  1  0
 22 43  1  0
 26 44  1  0
 26 45  1  0
 26 46  1  0
 27 47  1  0
M  CHG  1  13  -1
M  END
>  <UniqueID>  (74) 
74

>  <SMILES>  (74) 
CCOC(=O)CNC(=O)n1c(C([NH-])=O)cc2ccc(-c3c(C)noc3C)cc21

>  <Energy>  (74) 
118.8362353273567

>  <Genealogy>  (74) 
CCOC(=O)CNC(=O)n1c(C([NH-])=O)cc2ccc(-c3c(C)noc3C)cc21 (protonated)
CCOC(=O)CNC(=O)n1c(C([NH-])=O)cc2ccc(-c3c(C)noc3C)cc21 (3D coordinates assigned)
CCOC(=O)CNC(=O)n1c(C([NH-])=O)cc2ccc(-c3c(C)noc3C)cc21 (optimized conformer: 118.8362353273567 kcal/mol)

>  <smiles>  (74) 
CCOC(=O)CNC(=O)n1c(C(N)=O)cc2ccc(-c3c(C)noc3C)cc21

>  <score_type>  (74) 
oracle

>  <origin>  (74) 
adg

>  <m_score__min__energy>  (74) 
-8.3399999999999999

>  <m_primary>  (74) 
energy

$$$$
74:0
     RDKit          3D

 42 44  0  0  0  0  0  0  0  0999 V2000
  139.1560  156.8010  133.4350 C   0  0  0  0  0  0  0  0  0  0  0  0
  140.1260  157.5360  134.2630 N   0  0  0  0  0  0  0  0  0  0  0  0
  139.6000  157.7270  135.6240 C   0  0  0  0  0  0  0  0  0  0  0  0
  140.7360  158.1380  136.5630 C   0  0  0  0  0  0  0  0  0  0  0  0
  141.7240  159.1480  135.9440 C   0  0  0  0  0  0  0  0  0  0  0  0
  141.2550  159.7630  134.6010 C   0  0  1  0  0  0  0  0  0  0  0  0
  142.3770  160.5370  133.9280 C   0  0  0  0  0  0  0  0  0  0  0  0
  142.0260  161.6140  133.3730 O   0  0  0  0  0  0  0  0  0  0  0  0
  143.7790  160.1250  133.8480 N   0  0  0  0  0  0  0  0  0  0  0  0
  144.8480  160.9850  133.8550 C   0  0  0  0  0  0  0  0  0  0  0  0
  144.8170  162.4300  134.1370 C   0  0  0  0  0  0  0  0  0  0  0  0
  144.0040  163.3010  133.3550 N   0  0  0  0  0  0  0  0  0  0  0  0
  145.4150  162.8810  135.1510 O   0  0  0  0  0  0  0  0  0  0  0  0
  146.0440  160.3240  133.6250 C   0  0  0  0  0  0  0  0  0  0  0  0
  145.7090  159.0060  133.5120 C   0  0  0  0  0  0  0  0  0  0  0  0
  146.5440  157.9110  133.3250 C   0  0  0  0  0  0  0  0  0  0  0  0
  145.9640  156.6360  133.2820 C   0  0  0  0  0  0  0  0  0  0  0  0
  144.5660  156.4780  133.4220 C   0  0  0  0  0  0  0  0  0  0  0  0
  143.9570  155.0980  133.4310 C   0  0  0  0  0  0  0  0  0  0  0  0
  142.7180  155.1520  134.0420 F   0  0  0  0  0  0  0  0  0  0  0  0
  143.8000  154.6220  132.1410 F   0  0  0  0  0  0  0  0  0  0  0  0
  144.7600  154.2080  134.1230 F   0  0  0  0  0  0  0  0  0  0  0  0
  143.7570  157.6160  133.6500 C   0  0  0  0  0  0  0  0  0  0  0  0
  144.3440  158.8920  133.6590 C   0  0  0  0  0  0  0  0  0  0  0  0
  140.4400  158.8410  133.6480 C   0  0  0  0  0  0  0  0  0  0  0  0
  138.4494  156.2656  134.0862 H   0  0  0  0  0  0  0  0  0  0  0  0
  138.6044  157.5099  132.8000 H   0  0  0  0  0  0  0  0  0  0  0  0
  139.6893  156.0782  132.8000 H   0  0  0  0  0  0  0  0  0  0  0  0
  138.8324  158.5148  135.6121 H   0  0  0  0  0  0  0  0  0  0  0  0
  139.1570  156.7848  135.9788 H   0  0  0  0  0  0  0  0  0  0  0  0
  140.2947  158.5920  137.4625 H   0  0  0  0  0  0  0  0  0  0  0  0
  141.3098  157.2269  136.7880 H   0  0  0  0  0  0  0  0  0  0  0  0
  141.8745  159.9667  136.6631 H   0  0  0  0  0  0  0  0  0  0  0  0
  142.6476  158.5909  135.7281 H   0  0  0  0  0  0  0  0  0  0  0  0
  140.4762  160.4861  134.8848 H   0  0  0  0  0  0  0  0  0  0  0  0
  143.0200  163.5080  133.6330 H   0  0  0  0  0  0  0  0  0  0  0  0
  147.0481  160.7668  133.5497 H   0  0  0  0  0  0  0  0  0  0  0  0
  147.6306  158.0415  133.2138 H   0  0  0  0  0  0  0  0  0  0  0  0
  146.6014  155.7511  133.1382 H   0  0  0  0  0  0  0  0  0  0  0  0
  142.6760  157.5023  133.8190 H   0  0  0  0  0  0  0  0  0  0  0  0
  139.4976  159.3455  133.3883 H   0  0  0  0  0  0  0  0  0  0  0  0
  141.0546  158.6529  132.7553 H   0  0  0  0  0  0  0  0  0  0  0  0
  1  2  1  0
  2  3  1  0
  3  4  1  0
  4  5  1  0
  5  6  1  0
  6  7  1  0
  7  8  2  0
  7  9  1  0
  9 10  1  0
 10 11  1  0
 11 12  1  0
 11 13  2  0
 10 14  2  0
 14 15  1  0
 15 16  2  0
 16 17  1  0
 17 18  2  0
 18 19  1  0
 19 20  1  0
 19 21  1  0
 19 22  1  0
 18 23  1  0
 23 24  2  0
  6 25  1  0
 25  2  1  0
 24  9  1  0
 24 15  1  0
  1 26  1  0
  1 27  1  0
  1 28  1  0
  3 29  1  0
  3 30  1  0
  4 31  1  0
  4 32  1  0
  5 33  1  0
  5 34  1  0
  6 35  1  1
 12 36  1  0
 14 37  1  0
 16 38  1  0
 17 39  1  0
 23 40  1  0
 25 41  1  0
 25 42  1  0
M  CHG  1  12  -1
M  END
>  <UniqueID>  (75) 
75

>  <SMILES>  (75) 
CN1CCC[C@@H](C(=O)n2c(C([NH-])=O)cc3ccc(C(F)(F)F)cc32)C1

>  <Energy>  (75) 
104.19979246521997

>  <Genealogy>  (75) 
CN1CCC[C@@H](C(=O)n2c(C([NH-])=O)cc3ccc(C(F)(F)F)cc32)C1 (protonated)
CN1CCC[C@@H](C(=O)n2c(C([NH-])=O)cc3ccc(C(F)(F)F)cc32)C1 (3D coordinates assigned)
CN1CCC[C@@H](C(=O)n2c(C([NH-])=O)cc3ccc(C(F)(F)F)cc32)C1 (nonaromatic ring conformer: 104.19979246521997 kcal/mol)

>  <smiles>  (75) 
CN1CCC[C@@H](C(=O)n2c(C(N)=O)cc3ccc(C(F)(F)F)cc32)C1

>  <score_type>  (75) 
oracle

>  <origin>  (75) 
adg

>  <m_score__min__energy>  (75) 
-7.4000000000000004

>  <m_primary>  (75) 
energy

$$$$
75:0
     RDKit          3D

 48 50  0  0  0  0  0  0  0  0999 V2000
  137.7440  159.1210  131.2970 C   0  0  0  0  0  0  0  0  0  0  0  0
  139.0100  159.2210  132.1460 C   0  0  0  0  0  0  0  0  0  0  0  0
  139.1790  158.0280  133.1050 C   0  0  1  0  0  0  0  0  0  0  0  0
  140.0190  157.0240  132.5310 O   0  0  0  0  0  0  0  0  0  0  0  0
  140.1200  155.7110  133.0080 C   0  0  0  0  0  0  0  0  0  0  0  0
  139.0820  155.0650  133.3130 O   0  0  0  0  0  0  0  0  0  0  0  0
  141.4190  155.1100  133.1680 N   0  0  0  0  0  0  0  0  0  0  0  0
  142.5530  155.7130  133.6230 C   0  0  0  0  0  0  0  0  0  0  0  0
  142.7210  157.1560  133.8800 C   0  0  0  0  0  0  0  0  0  0  0  0
  142.3190  158.1280  132.9140 N   0  0  0  0  0  0  0  0  0  0  0  0
  143.2820  157.5360  134.9430 O   0  0  0  0  0  0  0  0  0  0  0  0
  143.5770  154.7870  133.7820 C   0  0  0  0  0  0  0  0  0  0  0  0
  143.0390  153.5820  133.3950 C   0  0  0  0  0  0  0  0  0  0  0  0
  143.6160  152.3190  133.3690 C   0  0  0  0  0  0  0  0  0  0  0  0
  142.8180  151.2380  132.9620 C   0  0  0  0  0  0  0  0  0  0  0  0
  141.4560  151.4270  132.6010 C   0  0  0  0  0  0  0  0  0  0  0  0
  140.6390  150.3040  132.1970 N   0  0  0  0  0  0  0  0  0  0  0  0
  139.1930  150.3680  132.0330 C   0  0  0  0  0  0  0  0  0  0  0  0
  138.7370  148.9380  131.7790 C   0  0  0  0  0  0  0  0  0  0  0  0
  139.9940  148.1700  131.3530 C   0  0  1  0  0  0  0  0  0  0  0  0
  140.0900  148.0660  129.8940 N   0  0  0  0  0  0  0  0  0  0  0  0
  141.1680  148.9770  131.9080 C   0  0  0  0  0  0  0  0  0  0  0  0
  140.9100  152.7350  132.6460 C   0  0  0  0  0  0  0  0  0  0  0  0
  141.7360  153.8000  133.0310 C   0  0  0  0  0  0  0  0  0  0  0  0
  139.8090  158.5000  134.3810 C   0  0  0  0  0  0  0  0  0  0  0  0
  139.6450  157.8540  135.4500 O   0  0  0  0  0  0  0  0  0  0  0  0
  140.6140  159.6330  134.3810 O   0  0  0  0  0  0  0  0  0  0  0  0
  136.8655  159.0516  131.9554 H   0  0  0  0  0  0  0  0  0  0  0  0
  137.6567  160.0150  130.6621 H   0  0  0  0  0  0  0  0  0  0  0  0
  137.7981  158.2243  130.6621 H   0  0  0  0  0  0  0  0  0  0  0  0
  139.8811  159.2595  131.4754 H   0  0  0  0  0  0  0  0  0  0  0  0
  138.9276  160.1306  132.7590 H   0  0  0  0  0  0  0  0  0  0  0  0
  138.1843  157.5993  133.2969 H   0  0  0  0  0  0  0  0  0  0  0  0
  142.4020  159.1470  133.1270 H   0  0  0  0  0  0  0  0  0  0  0  0
  142.0120  157.8370  131.9610 H   0  0  0  0  0  0  0  0  0  0  0  0
  144.5993  154.9772  134.1407 H   0  0  0  0  0  0  0  0  0  0  0  0
  144.6667  152.1701  133.6586 H   0  0  0  0  0  0  0  0  0  0  0  0
  143.2535  150.2287  132.9218 H   0  0  0  0  0  0  0  0  0  0  0  0
  138.7218  150.7633  132.9450 H   0  0  0  0  0  0  0  0  0  0  0  0
  138.9100  151.0347  131.2051 H   0  0  0  0  0  0  0  0  0  0  0  0
  138.3137  148.5020  132.6959 H   0  0  0  0  0  0  0  0  0  0  0  0
  137.9535  148.8930  131.0082 H   0  0  0  0  0  0  0  0  0  0  0  0
  139.9793  147.1385  131.7348 H   0  0  0  0  0  0  0  0  0  0  0  0
  140.1440  147.0580  129.6170 H   0  0  0  0  0  0  0  0  0  0  0  0
  140.9770  148.5250  129.5860 H   0  0  0  0  0  0  0  0  0  0  0  0
  141.5530  148.5101  132.8266 H   0  0  0  0  0  0  0  0  0  0  0  0
  142.0019  149.0216  131.1920 H   0  0  0  0  0  0  0  0  0  0  0  0
  139.8564  152.9108  132.3833 H   0  0  0  0  0  0  0  0  0  0  0  0
  1  2  1  0
  2  3  1  0
  3  4  1  0
  4  5  1  0
  5  6  2  0
  5  7  1  0
  7  8  1  0
  8  9  1  0
  9 10  1  0
  9 11  2  0
  8 12  2  0
 12 13  1  0
 13 14  2  0
 14 15  1  0
 15 16  2  0
 16 17  1  0
 17 18  1  0
 18 19  1  0
 19 20  1  0
 20 21  1  0
 20 22  1  0
 16 23  1  0
 23 24  2  0
  3 25  1  0
 25 26  2  0
 25 27  1  0
 24  7  1  0
 24 13  1  0
 22 17  1  0
  1 28  1  0
  1 29  1  0
  1 30  1  0
  2 31  1  0
  2 32  1  0
  3 33  1  1
 10 34  1  0
 10 35  1  0
 12 36  1  0
 14 37  1  0
 15 38  1  0
 18 39  1  0
 18 40  1  0
 19 41  1  0
 19 42  1  0
 20 43  1  1
 21 44  1  0
 21 45  1  0
 22 46  1  0
 22 47  1  0
 23 48  1  0
M  CHG  1  27  -1
M  END
>  <UniqueID>  (76) 
76

>  <SMILES>  (76) 
CC[C@@H](OC(=O)n1c(C(N)=O)cc2ccc(N3CC[C@@H](N)C3)cc21)C(=O)[O-]

>  <Energy>  (76) 
85.01709291949737

>  <Genealogy>  (76) 
CCC(OC(=O)n1c(C(N)=O)cc2ccc(N3CCC(N)C3)cc21)C(=O)[O-] (protonated)
CC[C@@H](OC(=O)n1c(C(N)=O)cc2ccc(N3CC[C@@H](N)C3)cc21)C(=O)[O-] (chirality)
CC[C@@H](OC(=O)n1c(C(N)=O)cc2ccc(N3CC[C@@H](N)C3)cc21)C(=O)[O-] (3D coordinates assigned)
CC[C@@H](OC(=O)n1c(C(N)=O)cc2ccc(N3CC[C@@H](N)C3)cc21)C(=O)[O-] (nonaromatic ring conformer: 85.01709291949737 kcal/mol)

>  <smiles>  (76) 
CCC(OC(=O)n1c(C(N)=O)cc2ccc(N3CCC(N)C3)cc21)C(=O)O

>  <score_type>  (76) 
oracle

>  <origin>  (76) 
adg

>  <m_score__min__energy>  (76) 
-8.1500000000000004

>  <m_primary>  (76) 
energy

$$$$
76:0
     RDKit          3D

 40 41  0  0  0  0  0  0  0  0999 V2000
  139.9690  158.2650  136.1800 C   0  0  0  0  0  0  0  0  0  0  0  0
  140.2160  158.7530  134.8750 O   0  0  0  0  0  0  0  0  0  0  0  0
  139.4210  158.0610  133.9300 C   0  0  0  0  0  0  0  0  0  0  0  0
  140.1070  158.0460  132.5520 C   0  0  0  0  0  0  0  0  0  0  0  0
  141.4890  158.5580  132.6100 N   0  0  0  0  0  0  0  0  0  0  0  0
  142.4700  157.4890  132.8640 C   0  0  0  0  0  0  0  0  0  0  0  0
  143.3970  157.8890  133.9750 C   0  0  0  0  0  0  0  0  0  0  0  0
  143.0650  157.6850  135.1750 O   0  0  0  0  0  0  0  0  0  0  0  0
  144.5950  158.6210  133.6840 N   0  0  0  0  0  0  0  0  0  0  0  0
  144.7590  159.9730  133.6200 C   0  0  0  0  0  0  0  0  0  0  0  0
  143.6820  160.9820  133.7300 C   0  0  0  0  0  0  0  0  0  0  0  0
  142.3350  160.5950  134.0040 N   0  0  0  0  0  0  0  0  0  0  0  0
  143.9500  162.2040  133.5690 O   0  0  0  0  0  0  0  0  0  0  0  0
  146.1000  160.2850  133.3900 C   0  0  0  0  0  0  0  0  0  0  0  0
  146.7520  159.0730  133.3150 C   0  0  0  0  0  0  0  0  0  0  0  0
  148.1010  158.7870  133.1160 C   0  0  0  0  0  0  0  0  0  0  0  0
  148.4910  157.4370  133.1000 C   0  0  0  0  0  0  0  0  0  0  0  0
  147.5400  156.4010  133.3070 C   0  0  0  0  0  0  0  0  0  0  0  0
  147.9830  154.9570  133.2660 C   0  0  0  0  0  0  0  0  0  0  0  0
  148.1320  154.4690  134.5540 F   0  0  0  0  0  0  0  0  0  0  0  0
  147.0550  154.1670  132.6070 F   0  0  0  0  0  0  0  0  0  0  0  0
  149.1930  154.8680  132.6050 F   0  0  0  0  0  0  0  0  0  0  0  0
  146.1750  156.7340  133.4900 C   0  0  0  0  0  0  0  0  0  0  0  0
  145.8180  158.0860  133.4920 C   0  0  0  0  0  0  0  0  0  0  0  0
  140.3369  158.9919  136.9190 H   0  0  0  0  0  0  0  0  0  0  0  0
  138.8877  158.1175  136.3177 H   0  0  0  0  0  0  0  0  0  0  0  0
  140.4904  157.3062  136.3177 H   0  0  0  0  0  0  0  0  0  0  0  0
  139.2727  157.0258  134.2713 H   0  0  0  0  0  0  0  0  0  0  0  0
  138.4523  158.5740  133.8382 H   0  0  0  0  0  0  0  0  0  0  0  0
  140.1282  157.0116  132.1785 H   0  0  0  0  0  0  0  0  0  0  0  0
  139.5323  158.7028  131.8824 H   0  0  0  0  0  0  0  0  0  0  0  0
  141.5680  159.3050  133.3400 H   0  0  0  0  0  0  0  0  0  0  0  0
  141.7120  158.9910  131.6830 H   0  0  0  0  0  0  0  0  0  0  0  0
  141.9389  156.5684  133.1477 H   0  0  0  0  0  0  0  0  0  0  0  0
  143.0580  157.3171  131.9504 H   0  0  0  0  0  0  0  0  0  0  0  0
  142.1190  159.6880  134.4730 H   0  0  0  0  0  0  0  0  0  0  0  0
  146.5430  161.2869  133.2898 H   0  0  0  0  0  0  0  0  0  0  0  0
  148.8372  159.5922  132.9759 H   0  0  0  0  0  0  0  0  0  0  0  0
  149.5458  157.1787  132.9250 H   0  0  0  0  0  0  0  0  0  0  0  0
  145.4161  155.9496  133.6269 H   0  0  0  0  0  0  0  0  0  0  0  0
  1  2  1  0
  2  3  1  0
  3  4  1  0
  4  5  1  0
  5  6  1  0
  6  7  1  0
  7  8  2  0
  7  9  1  0
  9 10  1  0
 10 11  1  0
 11 12  1  0
 11 13  2  0
 10 14  2  0
 14 15  1  0
 15 16  2  0
 16 17  1  0
 17 18  2  0
 18 19  1  0
 19 20  1  0
 19 21  1  0
 19 22  1  0
 18 23  1  0
 23 24  2  0
 24  9  1  0
 24 15  1  0
  1 25  1  0
  1 26  1  0
  1 27  1  0
  3 28  1  0
  3 29  1  0
  4 30  1  0
  4 31  1  0
  5 32  1  0
  5 33  1  0
  6 34  1  0
  6 35  1  0
 12 36  1  0
 14 37  1  0
 16 38  1  0
 17 39  1  0
 23 40  1  0
M  CHG  2   5   1  12  -1
M  END
>  <UniqueID>  (77) 
77

>  <SMILES>  (77) 
COCC[NH2+]CC(=O)n1c(C([NH-])=O)cc2ccc(C(F)(F)F)cc21

>  <Energy>  (77) 
80.90233193954882

>  <Genealogy>  (77) 
COCC[NH2+]CC(=O)n1c(C([NH-])=O)cc2ccc(C(F)(F)F)cc21 (protonated)
COCC[NH2+]CC(=O)n1c(C([NH-])=O)cc2ccc(C(F)(F)F)cc21 (3D coordinates assigned)
COCC[NH2+]CC(=O)n1c(C([NH-])=O)cc2ccc(C(F)(F)F)cc21 (optimized conformer: 80.90233193954882 kcal/mol)

>  <smiles>  (77) 
COCCNCC(=O)n1c(C(N)=O)cc2ccc(C(F)(F)F)cc21

>  <score_type>  (77) 
oracle

>  <origin>  (77) 
adg

>  <m_score__min__energy>  (77) 
-5.3300000000000001

>  <m_primary>  (77) 
energy

$$$$
77:0
     RDKit          3D

 50 52  0  0  0  0  0  0  0  0999 V2000
  151.4590  149.5810  129.6390 C   0  0  0  0  0  0  0  0  0  0  0  0
  150.3780  150.4580  130.2530 C   0  0  0  0  0  0  0  0  0  0  0  0
  150.6820  150.6960  131.6230 O   0  0  0  0  0  0  0  0  0  0  0  0
  149.8600  151.4570  132.4580 C   0  0  0  0  0  0  0  0  0  0  0  0
  150.0640  151.4920  133.7010 O   0  0  0  0  0  0  0  0  0  0  0  0
  148.7650  152.2790  131.8600 C   0  0  0  0  0  0  0  0  0  0  0  0
  148.4970  153.4690  132.7210 C   0  0  0  0  0  0  0  0  0  0  0  0
  149.0880  154.6670  132.5470 N   0  0  0  0  0  0  0  0  0  0  0  0
  148.5500  155.4340  133.4440 O   0  0  0  0  0  0  0  0  0  0  0  0
  147.6720  154.7520  134.1370 C   0  0  0  0  0  0  0  0  0  0  0  0
  146.8080  155.3420  135.2020 C   0  0  0  0  0  0  0  0  0  0  0  0
  145.4250  155.4310  134.7170 N   0  0  0  0  0  0  0  0  0  0  0  0
  144.3260  154.9240  135.5430 C   0  0  0  0  0  0  0  0  0  0  0  0
  145.1350  156.1290  133.4900 C   0  0  0  0  0  0  0  0  0  0  0  0
  145.0140  155.4940  132.4080 O   0  0  0  0  0  0  0  0  0  0  0  0
  145.0160  157.5570  133.4740 N   0  0  0  0  0  0  0  0  0  0  0  0
  145.9560  158.4610  133.0820 C   0  0  0  0  0  0  0  0  0  0  0  0
  147.3390  158.1180  132.6640 C   0  0  0  0  0  0  0  0  0  0  0  0
  147.6150  156.9520  131.8830 N   0  0  0  0  0  0  0  0  0  0  0  0
  148.2940  158.8720  132.9820 O   0  0  0  0  0  0  0  0  0  0  0  0
  145.4440  159.7580  133.1820 C   0  0  0  0  0  0  0  0  0  0  0  0
  144.1570  159.6070  133.6560 C   0  0  0  0  0  0  0  0  0  0  0  0
  143.2000  160.5640  133.9810 C   0  0  0  0  0  0  0  0  0  0  0  0
  141.9720  160.1190  134.5010 C   0  0  0  0  0  0  0  0  0  0  0  0
  141.7130  158.7320  134.6650 C   0  0  0  0  0  0  0  0  0  0  0  0
  140.4320  158.2690  135.3080 C   0  0  0  0  0  0  0  0  0  0  0  0
  140.5200  156.9170  135.5660 F   0  0  0  0  0  0  0  0  0  0  0  0
  140.2100  158.9410  136.4980 F   0  0  0  0  0  0  0  0  0  0  0  0
  139.3540  158.5000  134.4700 F   0  0  0  0  0  0  0  0  0  0  0  0
  142.7140  157.7920  134.3290 C   0  0  0  0  0  0  0  0  0  0  0  0
  143.9250  158.2690  133.8220 C   0  0  0  0  0  0  0  0  0  0  0  0
  147.5870  153.4770  133.7160 N   0  0  0  0  0  0  0  0  0  0  0  0
  152.0446  149.1059  130.4399 H   0  0  0  0  0  0  0  0  0  0  0  0
  150.9912  148.8040  129.0166 H   0  0  0  0  0  0  0  0  0  0  0  0
  152.1229  150.1990  129.0166 H   0  0  0  0  0  0  0  0  0  0  0  0
  150.3341  151.4166  129.7152 H   0  0  0  0  0  0  0  0  0  0  0  0
  149.4056  149.9496  130.1760 H   0  0  0  0  0  0  0  0  0  0  0  0
  149.0668  152.6147  130.8569 H   0  0  0  0  0  0  0  0  0  0  0  0
  147.8518  151.6699  131.7883 H   0  0  0  0  0  0  0  0  0  0  0  0
  146.8422  154.7038  136.0973 H   0  0  0  0  0  0  0  0  0  0  0  0
  147.1733  156.3483  135.4548 H   0  0  0  0  0  0  0  0  0  0  0  0
  144.5819  155.0420  136.6063 H   0  0  0  0  0  0  0  0  0  0  0  0
  143.4093  155.4902  135.3214 H   0  0  0  0  0  0  0  0  0  0  0  0
  144.1618  153.8591  135.3214 H   0  0  0  0  0  0  0  0  0  0  0  0
  148.6010  156.7270  131.6180 H   0  0  0  0  0  0  0  0  0  0  0  0
  146.8620  156.3040  131.5690 H   0  0  0  0  0  0  0  0  0  0  0  0
  145.9578  160.6988  132.9353 H   0  0  0  0  0  0  0  0  0  0  0  0
  143.3985  161.6361  133.8354 H   0  0  0  0  0  0  0  0  0  0  0  0
  141.2032  160.8530  134.7840 H   0  0  0  0  0  0  0  0  0  0  0  0
  142.5437  156.7136  134.4632 H   0  0  0  0  0  0  0  0  0  0  0  0
  1  2  1  0
  2  3  1  0
  3  4  1  0
  4  5  2  0
  4  6  1  0
  6  7  1  0
  7  8  2  0
  8  9  1  0
  9 10  1  0
 10 11  1  0
 11 12  1  0
 12 13  1  0
 12 14  1  0
 14 15  2  0
 14 16  1  0
 16 17  1  0
 17 18  1  0
 18 19  1  0
 18 20  2  0
 17 21  2  0
 21 22  1  0
 22 23  2  0
 23 24  1  0
 24 25  2  0
 25 26  1  0
 26 27  1  0
 26 28  1  0
 26 29  1  0
 25 30  1  0
 30 31  2  0
 10 32  2  0
 32  7  1  0
 31 16  1  0
 31 22  1  0
  1 33  1  0
  1 34  1  0
  1 35  1  0
  2 36  1  0
  2 37  1  0
  6 38  1  0
  6 39  1  0
 11 40  1  0
 11 41  1  0
 13 42  1  0
 13 43  1  0
 13 44  1  0
 19 45  1  0
 19 46  1  0
 21 47  1  0
 23 48  1  0
 24 49  1  0
 30 50  1  0
M  END
>  <UniqueID>  (78) 
78

>  <SMILES>  (78) 
CCOC(=O)Cc1noc(CN(C)C(=O)n2c(C(N)=O)cc3ccc(C(F)(F)F)cc32)n1

>  <Energy>  (78) 
111.90809480223814

>  <Genealogy>  (78) 
CCOC(=O)Cc1noc(CN(C)C(=O)n2c(C(N)=O)cc3ccc(C(F)(F)F)cc32)n1 (3D coordinates assigned)
CCOC(=O)Cc1noc(CN(C)C(=O)n2c(C(N)=O)cc3ccc(C(F)(F)F)cc32)n1 (optimized conformer: 111.90809480223814 kcal/mol)

>  <smiles>  (78) 
CCOC(=O)Cc1noc(CN(C)C(=O)n2c(C(N)=O)cc3ccc(C(F)(F)F)cc32)n1

>  <score_type>  (78) 
oracle

>  <origin>  (78) 
adg

>  <m_score__min__energy>  (78) 
-7.5499999999999998

>  <m_primary>  (78) 
energy

$$$$
78:0
     RDKit          3D

 40 42  0  0  0  0  0  0  0  0999 V2000
  142.9980  157.8390  132.6240 N   0  0  0  0  0  0  0  0  0  0  0  0
  142.7140  156.9490  133.7020 C   0  0  0  0  0  0  0  0  0  0  0  0
  142.6310  157.4040  134.8720 O   0  0  0  0  0  0  0  0  0  0  0  0
  142.5530  155.5040  133.4400 C   0  0  0  0  0  0  0  0  0  0  0  0
  143.6190  154.6140  133.3310 C   0  0  0  0  0  0  0  0  0  0  0  0
  143.0420  153.3750  133.1650 C   0  0  0  0  0  0  0  0  0  0  0  0
  143.6310  152.1260  132.9980 C   0  0  0  0  0  0  0  0  0  0  0  0
  142.7880  151.0150  132.8270 C   0  0  0  0  0  0  0  0  0  0  0  0
  141.3750  151.1660  132.8210 C   0  0  0  0  0  0  0  0  0  0  0  0
  140.4790  149.9490  132.6240 C   0  0  0  0  0  0  0  0  0  0  0  0
  140.2360  149.2520  133.7980 F   0  0  0  0  0  0  0  0  0  0  0  0
  139.1780  150.2280  131.8710 C   0  0  0  0  0  0  0  0  0  0  0  0
  139.6270  149.2900  130.7570 C   0  0  0  0  0  0  0  0  0  0  0  0
  140.9240  149.0050  131.5060 C   0  0  0  0  0  0  0  0  0  0  0  0
  140.8190  152.4580  132.9940 C   0  0  0  0  0  0  0  0  0  0  0  0
  141.6840  153.5410  133.1730 C   0  0  0  0  0  0  0  0  0  0  0  0
  141.3660  154.8420  133.3350 N   0  0  0  0  0  0  0  0  0  0  0  0
  140.0370  155.3890  133.3240 C   0  0  0  0  0  0  0  0  0  0  0  0
  139.0730  154.6680  132.9520 O   0  0  0  0  0  0  0  0  0  0  0  0
  139.7780  156.8160  133.7050 C   0  0  0  0  0  0  0  0  0  0  0  0
  139.1540  157.5110  132.6310 O   0  0  0  0  0  0  0  0  0  0  0  0
  139.5000  158.8160  132.2700 C   0  0  0  0  0  0  0  0  0  0  0  0
  140.4350  159.4190  132.8620 O   0  0  0  0  0  0  0  0  0  0  0  0
  138.7150  159.5190  131.2100 C   0  0  0  0  0  0  0  0  0  0  0  0
  138.9920  158.9650  129.9730 F   0  0  0  0  0  0  0  0  0  0  0  0
  139.0490  160.8610  131.1870 F   0  0  0  0  0  0  0  0  0  0  0  0
  137.3660  159.3890  131.4770 F   0  0  0  0  0  0  0  0  0  0  0  0
  142.2520  158.4500  132.2230 H   0  0  0  0  0  0  0  0  0  0  0  0
  144.6926  154.8506  133.3693 H   0  0  0  0  0  0  0  0  0  0  0  0
  144.7250  152.0114  132.9998 H   0  0  0  0  0  0  0  0  0  0  0  0
  143.2276  150.0152  132.6960 H   0  0  0  0  0  0  0  0  0  0  0  0
  138.2722  149.8968  132.4001 H   0  0  0  0  0  0  0  0  0  0  0  0
  138.8753  151.2607  131.6432 H   0  0  0  0  0  0  0  0  0  0  0  0
  138.9821  148.4084  130.6271 H   0  0  0  0  0  0  0  0  0  0  0  0
  139.6555  149.6418  129.7152 H   0  0  0  0  0  0  0  0  0  0  0  0
  141.0407  147.9576  131.8213 H   0  0  0  0  0  0  0  0  0  0  0  0
  141.8967  149.1440  131.0116 H   0  0  0  0  0  0  0  0  0  0  0  0
  139.7289  152.6054  132.9875 H   0  0  0  0  0  0  0  0  0  0  0  0
  139.1188  156.8422  134.5852 H   0  0  0  0  0  0  0  0  0  0  0  0
  140.7368  157.3032  133.9361 H   0  0  0  0  0  0  0  0  0  0  0  0
  1  2  1  0
  2  3  2  0
  2  4  1  0
  4  5  2  0
  5  6  1  0
  6  7  2  0
  7  8  1  0
  8  9  2  0
  9 10  1  0
 10 11  1  0
 10 12  1  0
 12 13  1  0
 13 14  1  0
  9 15  1  0
 15 16  2  0
 16 17  1  0
 17 18  1  0
 18 19  2  0
 18 20  1  0
 20 21  1  0
 21 22  1  0
 22 23  2  0
 22 24  1  0
 24 25  1  0
 24 26  1  0
 24 27  1  0
 17  4  1  0
 16  6  1  0
 14 10  1  0
  1 28  1  0
  5 29  1  0
  7 30  1  0
  8 31  1  0
 12 32  1  0
 12 33  1  0
 13 34  1  0
 13 35  1  0
 14 36  1  0
 14 37  1  0
 15 38  1  0
 20 39  1  0
 20 40  1  0
M  CHG  1   1  -1
M  END
>  <UniqueID>  (79) 
79

>  <SMILES>  (79) 
[NH-]C(=O)c1cc2ccc(C3(F)CCC3)cc2n1C(=O)COC(=O)C(F)(F)F

>  <Energy>  (79) 
139.39030497276988

>  <Genealogy>  (79) 
[NH-]C(=O)c1cc2ccc(C3(F)CCC3)cc2n1C(=O)COC(=O)C(F)(F)F (protonated)
[NH-]C(=O)c1cc2ccc(C3(F)CCC3)cc2n1C(=O)COC(=O)C(F)(F)F (3D coordinates assigned)
[NH-]C(=O)c1cc2ccc(C3(F)CCC3)cc2n1C(=O)COC(=O)C(F)(F)F (nonaromatic ring conformer: 139.39030497276988 kcal/mol)

>  <smiles>  (79) 
NC(=O)c1cc2ccc(C3(F)CCC3)cc2n1C(=O)COC(=O)C(F)(F)F

>  <score_type>  (79) 
oracle

>  <origin>  (79) 
adg

>  <m_score__min__energy>  (79) 
-7.0999999999999996

>  <m_primary>  (79) 
energy

$$$$
79:0
     RDKit          3D

 33 34  0  0  0  0  0  0  0  0999 V2000
  145.8480  153.2120  134.0290 N   0  0  0  0  0  0  0  0  0  0  0  0
  146.5920  154.1850  134.7580 C   0  0  0  0  0  0  0  0  0  0  0  0
  146.9350  153.9370  135.9440 O   0  0  0  0  0  0  0  0  0  0  0  0
  146.9250  155.4810  134.1280 C   0  0  0  0  0  0  0  0  0  0  0  0
  146.2630  156.6720  134.4160 C   0  0  0  0  0  0  0  0  0  0  0  0
  146.9100  157.6380  133.6790 C   0  0  0  0  0  0  0  0  0  0  0  0
  146.6510  158.9990  133.5620 C   0  0  0  0  0  0  0  0  0  0  0  0
  147.4580  159.7520  132.6910 C   0  0  0  0  0  0  0  0  0  0  0  0
  148.5100  159.1360  131.9630 C   0  0  0  0  0  0  0  0  0  0  0  0
  149.3270  159.9410  130.9840 C   0  0  0  0  0  0  0  0  0  0  0  0
  150.6750  159.6540  131.1210 F   0  0  0  0  0  0  0  0  0  0  0  0
  149.1500  161.2970  131.2000 F   0  0  0  0  0  0  0  0  0  0  0  0
  148.9290  159.6330  129.6980 F   0  0  0  0  0  0  0  0  0  0  0  0
  148.7230  157.7440  132.0910 C   0  0  0  0  0  0  0  0  0  0  0  0
  147.9170  157.0260  132.9810 C   0  0  0  0  0  0  0  0  0  0  0  0
  147.9410  155.7020  133.2460 N   0  0  0  0  0  0  0  0  0  0  0  0
  148.8230  154.7340  132.6580 C   0  0  0  0  0  0  0  0  0  0  0  0
  150.0160  155.0500  132.4000 O   0  0  0  0  0  0  0  0  0  0  0  0
  148.3490  153.4110  132.3730 N   0  0  0  0  0  0  0  0  0  0  0  0
  149.2330  152.3360  131.9270 C   0  0  0  0  0  0  0  0  0  0  0  0
  148.6230  150.9730  132.2550 C   0  0  0  0  0  0  0  0  0  0  0  0
  147.2480  151.1020  132.4960 O   0  0  0  0  0  0  0  0  0  0  0  0
  146.2170  152.2460  133.8920 H   0  0  0  0  0  0  0  0  0  0  0  0
  145.4047  156.8113  135.0898 H   0  0  0  0  0  0  0  0  0  0  0  0
  145.8392  159.4724  134.1337 H   0  0  0  0  0  0  0  0  0  0  0  0
  147.2724  160.8297  132.5723 H   0  0  0  0  0  0  0  0  0  0  0  0
  149.5039  157.2377  131.5047 H   0  0  0  0  0  0  0  0  0  0  0  0
  147.3250  153.2170  132.4460 H   0  0  0  0  0  0  0  0  0  0  0  0
  149.3797  152.4151  130.8397 H   0  0  0  0  0  0  0  0  0  0  0  0
  150.1980  152.4292  132.4467 H   0  0  0  0  0  0  0  0  0  0  0  0
  148.7805  150.2910  131.4064 H   0  0  0  0  0  0  0  0  0  0  0  0
  149.1086  150.5706  133.1562 H   0  0  0  0  0  0  0  0  0  0  0  0
  147.1540  151.6170  133.3400 H   0  0  0  0  0  0  0  0  0  0  0  0
  1  2  1  0
  2  3  2  0
  2  4  1  0
  4  5  2  0
  5  6  1  0
  6  7  2  0
  7  8  1  0
  8  9  2  0
  9 10  1  0
 10 11  1  0
 10 12  1  0
 10 13  1  0
  9 14  1  0
 14 15  2  0
 15 16  1  0
 16 17  1  0
 17 18  2  0
 17 19  1  0
 19 20  1  0
 20 21  1  0
 21 22  1  0
 16  4  1  0
 15  6  1  0
  1 23  1  0
  5 24  1  0
  7 25  1  0
  8 26  1  0
 14 27  1  0
 19 28  1  0
 20 29  1  0
 20 30  1  0
 21 31  1  0
 21 32  1  0
 22 33  1  0
M  CHG  1   1  -1
M  END
>  <UniqueID>  (80) 
80

>  <SMILES>  (80) 
[NH-]C(=O)c1cc2ccc(C(F)(F)F)cc2n1C(=O)NCCO

>  <Energy>  (80) 
67.88603336754419

>  <Genealogy>  (80) 
[NH-]C(=O)c1cc2ccc(C(F)(F)F)cc2n1C(=O)NCCO (protonated)
[NH-]C(=O)c1cc2ccc(C(F)(F)F)cc2n1C(=O)NCCO (3D coordinates assigned)
[NH-]C(=O)c1cc2ccc(C(F)(F)F)cc2n1C(=O)NCCO (optimized conformer: 67.88603336754419 kcal/mol)

>  <smiles>  (80) 
NC(=O)c1cc2ccc(C(F)(F)F)cc2n1C(=O)NCCO

>  <score_type>  (80) 
oracle

>  <origin>  (80) 
adg

>  <m_score__min__energy>  (80) 
-6.0800000000000001

>  <m_primary>  (80) 
energy

$$$$
80:0
     RDKit          3D

 37 38  0  0  0  0  0  0  0  0999 V2000
  136.1830  160.0950  130.3210 N   0  0  0  0  0  0  0  0  0  0  0  0
  137.3360  160.0610  130.7470 N   0  0  0  0  0  0  0  0  0  0  0  0
  138.4920  160.0260  131.1720 N   0  0  0  0  0  0  0  0  0  0  0  0
  138.9880  158.8670  131.9020 C   0  0  0  0  0  0  0  0  0  0  0  0
  140.2710  159.2010  132.5970 C   0  0  0  0  0  0  0  0  0  0  0  0
  140.2910  160.1150  133.4650 O   0  0  0  0  0  0  0  0  0  0  0  0
  141.4430  158.5290  132.2370 O   0  0  0  0  0  0  0  0  0  0  0  0
  141.7240  157.1930  132.6450 C   0  0  0  0  0  0  0  0  0  0  0  0
  143.0960  157.0670  133.0100 O   0  0  0  0  0  0  0  0  0  0  0  0
  143.7080  157.8920  133.9600 C   0  0  0  0  0  0  0  0  0  0  0  0
  143.1870  158.0450  135.0980 O   0  0  0  0  0  0  0  0  0  0  0  0
  144.9290  158.5760  133.6310 N   0  0  0  0  0  0  0  0  0  0  0  0
  145.1150  159.9160  133.4630 C   0  0  0  0  0  0  0  0  0  0  0  0
  144.1060  160.9650  133.7350 C   0  0  0  0  0  0  0  0  0  0  0  0
  142.7200  160.6350  133.8440 N   0  0  0  0  0  0  0  0  0  0  0  0
  144.4580  162.1690  133.8440 O   0  0  0  0  0  0  0  0  0  0  0  0
  146.4290  160.1820  133.0810 C   0  0  0  0  0  0  0  0  0  0  0  0
  147.0460  158.9540  133.0210 C   0  0  0  0  0  0  0  0  0  0  0  0
  148.3560  158.6270  132.6790 C   0  0  0  0  0  0  0  0  0  0  0  0
  148.7150  157.2680  132.6710 C   0  0  0  0  0  0  0  0  0  0  0  0
  147.7650  156.2690  132.9970 C   0  0  0  0  0  0  0  0  0  0  0  0
  148.1460  154.8160  132.9690 C   0  0  0  0  0  0  0  0  0  0  0  0
  149.4550  154.6850  132.5450 F   0  0  0  0  0  0  0  0  0  0  0  0
  148.0200  154.2780  134.2360 F   0  0  0  0  0  0  0  0  0  0  0  0
  146.4470  156.6400  133.3390 C   0  0  0  0  0  0  0  0  0  0  0  0
  146.1200  158.0010  133.3560 C   0  0  0  0  0  0  0  0  0  0  0  0
  138.2401  158.5608  132.6482 H   0  0  0  0  0  0  0  0  0  0  0  0
  139.1689  158.0470  131.1914 H   0  0  0  0  0  0  0  0  0  0  0  0
  141.0933  156.9369  133.5091 H   0  0  0  0  0  0  0  0  0  0  0  0
  141.5114  156.5106  131.8089 H   0  0  0  0  0  0  0  0  0  0  0  0
  142.3940  159.6430  133.8160 H   0  0  0  0  0  0  0  0  0  0  0  0
  142.0130  161.3870  133.9970 H   0  0  0  0  0  0  0  0  0  0  0  0
  146.8771  161.1646  132.8720 H   0  0  0  0  0  0  0  0  0  0  0  0
  149.0870  159.4081  132.4231 H   0  0  0  0  0  0  0  0  0  0  0  0
  149.7431  156.9775  132.4092 H   0  0  0  0  0  0  0  0  0  0  0  0
  147.4805  154.2822  132.2746 H   0  0  0  0  0  0  0  0  0  0  0  0
  145.6940  155.8773  133.5865 H   0  0  0  0  0  0  0  0  0  0  0  0
  1  2  2  0
  2  3  2  0
  3  4  1  0
  4  5  1  0
  5  6  2  0
  5  7  1  0
  7  8  1  0
  8  9  1  0
  9 10  1  0
 10 11  2  0
 10 12  1  0
 12 13  1  0
 13 14  1  0
 14 15  1  0
 14 16  2  0
 13 17  2  0
 17 18  1  0
 18 19  2  0
 19 20  1  0
 20 21  2  0
 21 22  1  0
 22 23  1  0
 22 24  1  0
 21 25  1  0
 25 26  2  0
 26 12  1  0
 26 18  1  0
  4 27  1  0
  4 28  1  0
  8 29  1  0
  8 30  1  0
 15 31  1  0
 15 32  1  0
 17 33  1  0
 19 34  1  0
 20 35  1  0
 22 36  1  0
 25 37  1  0
M  CHG  2   1  -1   2   1
M  END
>  <UniqueID>  (81) 
81

>  <SMILES>  (81) 
[N-]=[N+]=NCC(=O)OCOC(=O)n1c(C(N)=O)cc2ccc(C(F)F)cc21

>  <Energy>  (81) 
68.56133178046822

>  <Genealogy>  (81) 
[N-]=[N+]=NCC(=O)OCOC(=O)n1c(C(N)=O)cc2ccc(C(F)F)cc21 (3D coordinates assigned)
[N-]=[N+]=NCC(=O)OCOC(=O)n1c(C(N)=O)cc2ccc(C(F)F)cc21 (optimized conformer: 68.56133178046822 kcal/mol)

>  <smiles>  (81) 
[N-]=[N+]=NCC(=O)OCOC(=O)n1c(C(N)=O)cc2ccc(C(F)F)cc21

>  <score_type>  (81) 
oracle

>  <origin>  (81) 
adg

>  <m_score__min__energy>  (81) 
-6.5300000000000002

>  <m_primary>  (81) 
energy

$$$$
81:0
     RDKit          3D

 36 38  0  0  0  0  0  0  0  0999 V2000
  149.5840  160.4810  131.1020 C   0  0  0  0  0  0  0  0  0  0  0  0
  148.7330  159.4720  131.8160 C   0  0  0  0  0  0  0  0  0  0  0  0
  149.1910  158.1610  131.9930 C   0  0  0  0  0  0  0  0  0  0  0  0
  148.3760  157.2280  132.6430 C   0  0  0  0  0  0  0  0  0  0  0  0
  148.8480  155.8240  132.8470 C   0  0  0  0  0  0  0  0  0  0  0  0
  147.1370  157.5940  133.0680 N   0  0  0  0  0  0  0  0  0  0  0  0
  146.6440  158.8520  132.8900 C   0  0  0  0  0  0  0  0  0  0  0  0
  145.2810  159.1730  133.3820 C   0  0  0  0  0  0  0  0  0  0  0  0
  144.9050  160.5290  133.5760 C   0  0  0  0  0  0  0  0  0  0  0  0
  143.6290  160.8630  134.0590 C   0  0  0  0  0  0  0  0  0  0  0  0
  142.7460  159.8270  134.3370 C   0  0  0  0  0  0  0  0  0  0  0  0
  141.4660  159.8680  134.8400 C   0  0  0  0  0  0  0  0  0  0  0  0
  141.0630  158.5380  134.9370 C   0  0  0  0  0  0  0  0  0  0  0  0
  139.7070  158.1280  135.3610 C   0  0  0  0  0  0  0  0  0  0  0  0
  139.4440  157.8650  136.7360 N   0  0  0  0  0  0  0  0  0  0  0  0
  138.7690  158.0440  134.5260 O   0  0  0  0  0  0  0  0  0  0  0  0
  142.0590  157.7050  134.5190 N   0  0  0  0  0  0  0  0  0  0  0  0
  142.0680  156.2680  134.5170 C   0  0  0  0  0  0  0  0  0  0  0  0
  142.9060  155.6350  135.2110 O   0  0  0  0  0  0  0  0  0  0  0  0
  141.1650  155.5620  133.7310 O   0  0  0  0  0  0  0  0  0  0  0  0
  143.0810  158.5110  134.1500 C   0  0  0  0  0  0  0  0  0  0  0  0
  144.3520  158.1470  133.6900 C   0  0  0  0  0  0  0  0  0  0  0  0
  147.4470  159.8180  132.2560 C   0  0  0  0  0  0  0  0  0  0  0  0
  150.1100  161.1047  131.8397 H   0  0  0  0  0  0  0  0  0  0  0  0
  150.3194  159.9599  130.4715 H   0  0  0  0  0  0  0  0  0  0  0  0
  148.9463  161.1180  130.4715 H   0  0  0  0  0  0  0  0  0  0  0  0
  150.1844  157.8666  131.6237 H   0  0  0  0  0  0  0  0  0  0  0  0
  148.9187  155.6138  133.9244 H   0  0  0  0  0  0  0  0  0  0  0  0
  148.1350  155.1264  132.3833 H   0  0  0  0  0  0  0  0  0  0  0  0
  149.8376  155.6988  132.3833 H   0  0  0  0  0  0  0  0  0  0  0  0
  145.6235  161.3291  133.3446 H   0  0  0  0  0  0  0  0  0  0  0  0
  143.3378  161.9126  134.2124 H   0  0  0  0  0  0  0  0  0  0  0  0
  140.8840  160.7619  135.1087 H   0  0  0  0  0  0  0  0  0  0  0  0
  139.0970  158.6170  137.3700 H   0  0  0  0  0  0  0  0  0  0  0  0
  144.6242  157.0880  133.5701 H   0  0  0  0  0  0  0  0  0  0  0  0
  147.0680  160.8397  132.1062 H   0  0  0  0  0  0  0  0  0  0  0  0
  1  2  1  0
  2  3  2  0
  3  4  1  0
  4  5  1  0
  4  6  2  0
  6  7  1  0
  7  8  1  0
  8  9  2  0
  9 10  1  0
 10 11  2  0
 11 12  1  0
 12 13  2  0
 13 14  1  0
 14 15  1  0
 14 16  2  0
 13 17  1  0
 17 18  1  0
 18 19  2  0
 18 20  1  0
 17 21  1  0
 21 22  2  0
  7 23  2  0
 23  2  1  0
 22  8  1  0
 21 11  1  0
  1 24  1  0
  1 25  1  0
  1 26  1  0
  3 27  1  0
  5 28  1  0
  5 29  1  0
  5 30  1  0
  9 31  1  0
 10 32  1  0
 12 33  1  0
 15 34  1  0
 22 35  1  0
 23 36  1  0
M  CHG  2  15  -1  20  -1
M  END
>  <UniqueID>  (82) 
82

>  <SMILES>  (82) 
Cc1cc(C)nc(-c2ccc3cc(C([NH-])=O)n(C(=O)[O-])c3c2)c1

>  <Energy>  (82) 
80.3435518745744

>  <Genealogy>  (82) 
Cc1cc(C)nc(-c2ccc3cc(C([NH-])=O)n(C(=O)[O-])c3c2)c1 (protonated)
Cc1cc(C)nc(-c2ccc3cc(C([NH-])=O)n(C(=O)[O-])c3c2)c1 (3D coordinates assigned)
Cc1cc(C)nc(-c2ccc3cc(C([NH-])=O)n(C(=O)[O-])c3c2)c1 (optimized conformer: 80.3435518745744 kcal/mol)

>  <smiles>  (82) 
Cc1cc(C)nc(-c2ccc3cc(C(N)=O)n(C(=O)O)c3c2)c1

>  <score_type>  (82) 
oracle

>  <origin>  (82) 
adg

>  <m_score__min__energy>  (82) 
-7.9699999999999998

>  <m_primary>  (82) 
energy

$$$$
82:0
     RDKit          3D

 33 34  0  0  0  0  0  0  0  0999 V2000
  142.3650  155.4910  133.3590 C   0  0  0  0  0  0  0  0  0  0  0  0
  140.9680  155.0530  133.2620 N   0  0  0  0  0  0  0  0  0  0  0  0
  140.6440  153.6450  133.0200 C   0  0  0  0  0  0  0  0  0  0  0  0
  139.9060  156.0230  133.3330 C   0  0  0  0  0  0  0  0  0  0  0  0
  138.7360  155.7060  132.9830 O   0  0  0  0  0  0  0  0  0  0  0  0
  140.1590  157.3570  133.7940 N   0  0  0  0  0  0  0  0  0  0  0  0
  140.0190  158.5160  133.0950 C   0  0  0  0  0  0  0  0  0  0  0  0
  139.6640  158.6040  131.6570 C   0  0  0  0  0  0  0  0  0  0  0  0
  138.5480  157.8870  131.1280 N   0  0  0  0  0  0  0  0  0  0  0  0
  140.3470  159.3270  130.8850 O   0  0  0  0  0  0  0  0  0  0  0  0
  140.3030  159.6110  133.9140 C   0  0  0  0  0  0  0  0  0  0  0  0
  140.6100  159.0750  135.1460 C   0  0  0  0  0  0  0  0  0  0  0  0
  140.9660  159.7010  136.3360 C   0  0  0  0  0  0  0  0  0  0  0  0
  141.2120  158.8920  137.4590 C   0  0  0  0  0  0  0  0  0  0  0  0
  141.0750  157.4820  137.3820 C   0  0  0  0  0  0  0  0  0  0  0  0
  141.3850  156.6220  138.5810 C   0  0  0  0  0  0  0  0  0  0  0  0
  140.2870  155.8570  138.9320 F   0  0  0  0  0  0  0  0  0  0  0  0
  142.4410  155.7830  138.2770 F   0  0  0  0  0  0  0  0  0  0  0  0
  141.7310  157.4070  139.6670 F   0  0  0  0  0  0  0  0  0  0  0  0
  140.7320  156.8830  136.1480 C   0  0  0  0  0  0  0  0  0  0  0  0
  140.5080  157.7130  135.0460 C   0  0  0  0  0  0  0  0  0  0  0  0
  142.6487  155.5799  134.4181 H   0  0  0  0  0  0  0  0  0  0  0  0
  143.0155  154.7537  132.8658 H   0  0  0  0  0  0  0  0  0  0  0  0
  142.4781  156.4677  132.8658 H   0  0  0  0  0  0  0  0  0  0  0  0
  140.5245  153.1256  133.9823 H   0  0  0  0  0  0  0  0  0  0  0  0
  139.7068  153.5775  132.4480 H   0  0  0  0  0  0  0  0  0  0  0  0
  141.4574  153.1746  132.4480 H   0  0  0  0  0  0  0  0  0  0  0  0
  138.2950  157.9860  130.1190 H   0  0  0  0  0  0  0  0  0  0  0  0
  137.9920  157.2260  131.7120 H   0  0  0  0  0  0  0  0  0  0  0  0
  140.2854  160.6749  133.6351 H   0  0  0  0  0  0  0  0  0  0  0  0
  141.0524  160.7959  136.3965 H   0  0  0  0  0  0  0  0  0  0  0  0
  141.5143  159.3577  138.4086 H   0  0  0  0  0  0  0  0  0  0  0  0
  140.6436  155.7903  136.0575 H   0  0  0  0  0  0  0  0  0  0  0  0
  1  2  1  0
  2  3  1  0
  2  4  1  0
  4  5  2  0
  4  6  1  0
  6  7  1  0
  7  8  1  0
  8  9  1  0
  8 10  2  0
  7 11  2  0
 11 12  1  0
 12 13  2  0
 13 14  1  0
 14 15  2  0
 15 16  1  0
 16 17  1  0
 16 18  1  0
 16 19  1  0
 15 20  1  0
 20 21  2  0
 21  6  1  0
 21 12  1  0
  1 22  1  0
  1 23  1  0
  1 24  1  0
  3 25  1  0
  3 26  1  0
  3 27  1  0
  9 28  1  0
  9 29  1  0
 11 30  1  0
 13 31  1  0
 14 32  1  0
 20 33  1  0
M  END
>  <UniqueID>  (83) 
83

>  <SMILES>  (83) 
CN(C)C(=O)n1c(C(N)=O)cc2ccc(C(F)(F)F)cc21

>  <Energy>  (83) 
70.47691573362572

>  <Genealogy>  (83) 
CN(C)C(=O)n1c(C(N)=O)cc2ccc(C(F)(F)F)cc21 (3D coordinates assigned)
CN(C)C(=O)n1c(C(N)=O)cc2ccc(C(F)(F)F)cc21 (optimized conformer: 70.47691573362572 kcal/mol)

>  <smiles>  (83) 
CN(C)C(=O)n1c(C(N)=O)cc2ccc(C(F)(F)F)cc21

>  <score_type>  (83) 
oracle

>  <origin>  (83) 
adg

>  <m_score__min__energy>  (83) 
-6.0099999999999998

>  <m_primary>  (83) 
energy

$$$$
83:0
     RDKit          3D

 36 37  0  0  0  0  0  0  0  0999 V2000
  149.2650  151.1680  132.0630 C   0  0  0  0  0  0  0  0  0  0  0  0
  149.6020  151.8760  133.3780 C   0  0  2  0  0  0  0  0  0  0  0  0
  149.6570  150.8720  134.5360 C   0  0  0  0  0  0  0  0  0  0  0  0
  149.2560  151.4970  135.7250 O   0  0  0  0  0  0  0  0  0  0  0  0
  148.5930  152.9020  133.6570 N   0  0  0  0  0  0  0  0  0  0  0  0
  148.6760  154.2370  133.1380 C   0  0  0  0  0  0  0  0  0  0  0  0
  149.5040  154.5160  132.2280 O   0  0  0  0  0  0  0  0  0  0  0  0
  147.8220  155.2640  133.6600 N   0  0  0  0  0  0  0  0  0  0  0  0
  146.7940  155.1280  134.5440 C   0  0  0  0  0  0  0  0  0  0  0  0
  146.4140  153.8810  135.2420 C   0  0  0  0  0  0  0  0  0  0  0  0
  147.2020  153.4090  136.3320 N   0  0  0  0  0  0  0  0  0  0  0  0
  145.4130  153.2130  134.8710 O   0  0  0  0  0  0  0  0  0  0  0  0
  146.1700  156.3550  134.7600 C   0  0  0  0  0  0  0  0  0  0  0  0
  146.8530  157.2550  133.9720 C   0  0  0  0  0  0  0  0  0  0  0  0
  146.6560  158.6210  133.7940 C   0  0  0  0  0  0  0  0  0  0  0  0
  147.5000  159.2960  132.8960 C   0  0  0  0  0  0  0  0  0  0  0  0
  148.5030  158.5970  132.1760 C   0  0  0  0  0  0  0  0  0  0  0  0
  149.4250  159.3390  131.2430 C   0  0  0  0  0  0  0  0  0  0  0  0
  149.3240  160.7050  131.4390 F   0  0  0  0  0  0  0  0  0  0  0  0
  149.1080  159.0670  129.9220 F   0  0  0  0  0  0  0  0  0  0  0  0
  150.7280  158.9450  131.4830 F   0  0  0  0  0  0  0  0  0  0  0  0
  148.6850  157.2130  132.4030 C   0  0  0  0  0  0  0  0  0  0  0  0
  147.8420  156.5710  133.3170 C   0  0  0  0  0  0  0  0  0  0  0  0
  148.8015  150.1942  132.2792 H   0  0  0  0  0  0  0  0  0  0  0  0
  148.5647  151.7866  131.4825 H   0  0  0  0  0  0  0  0  0  0  0  0
  150.1867  151.0146  131.4825 H   0  0  0  0  0  0  0  0  0  0  0  0
  150.5905  152.3485  133.2800 H   0  0  0  0  0  0  0  0  0  0  0  0
  148.9835  150.0293  134.3211 H   0  0  0  0  0  0  0  0  0  0  0  0
  150.6872  150.5032  134.6487 H   0  0  0  0  0  0  0  0  0  0  0  0
  148.3440  151.8490  135.5570 H   0  0  0  0  0  0  0  0  0  0  0  0
  147.8590  152.6960  134.3720 H   0  0  0  0  0  0  0  0  0  0  0  0
  148.1760  153.0640  136.1810 H   0  0  0  0  0  0  0  0  0  0  0  0
  145.3141  156.5611  135.4195 H   0  0  0  0  0  0  0  0  0  0  0  0
  145.8643  159.1557  134.3393 H   0  0  0  0  0  0  0  0  0  0  0  0
  147.3816  160.3797  132.7494 H   0  0  0  0  0  0  0  0  0  0  0  0
  149.4708  156.6543  131.8735 H   0  0  0  0  0  0  0  0  0  0  0  0
  1  2  1  0
  2  3  1  0
  3  4  1  0
  2  5  1  0
  5  6  1  0
  6  7  2  0
  6  8  1  0
  8  9  1  0
  9 10  1  0
 10 11  1  0
 10 12  2  0
  9 13  2  0
 13 14  1  0
 14 15  2  0
 15 16  1  0
 16 17  2  0
 17 18  1  0
 18 19  1  0
 18 20  1  0
 18 21  1  0
 17 22  1  0
 22 23  2  0
 23  8  1  0
 23 14  1  0
  1 24  1  0
  1 25  1  0
  1 26  1  0
  2 27  1  6
  3 28  1  0
  3 29  1  0
  4 30  1  0
  5 31  1  0
 11 32  1  0
 13 33  1  0
 15 34  1  0
 16 35  1  0
 22 36  1  0
M  CHG  1  11  -1
M  END
>  <UniqueID>  (84) 
84

>  <SMILES>  (84) 
C[C@H](CO)NC(=O)n1c(C([NH-])=O)cc2ccc(C(F)(F)F)cc21

>  <Energy>  (84) 
69.38404635213294

>  <Genealogy>  (84) 
CC(CO)NC(=O)n1c(C([NH-])=O)cc2ccc(C(F)(F)F)cc21 (protonated)
C[C@H](CO)NC(=O)n1c(C([NH-])=O)cc2ccc(C(F)(F)F)cc21 (chirality)
C[C@H](CO)NC(=O)n1c(C([NH-])=O)cc2ccc(C(F)(F)F)cc21 (3D coordinates assigned)
C[C@H](CO)NC(=O)n1c(C([NH-])=O)cc2ccc(C(F)(F)F)cc21 (optimized conformer: 69.38404635213294 kcal/mol)

>  <smiles>  (84) 
CC(CO)NC(=O)n1c(C(N)=O)cc2ccc(C(F)(F)F)cc21

>  <score_type>  (84) 
oracle

>  <origin>  (84) 
adg

>  <m_score__min__energy>  (84) 
-6.1600000000000001

>  <m_primary>  (84) 
energy

$$$$
84:0
     RDKit          3D

 47 49  0  0  0  0  0  0  0  0999 V2000
  144.1850  153.6810  136.9720 C   0  0  0  0  0  0  0  0  0  0  0  0
  145.0490  154.4960  136.0060 C   0  0  2  0  0  0  0  0  0  0  0  0
  144.6790  154.2160  134.6550 O   0  0  0  0  0  0  0  0  0  0  0  0
  143.8890  155.0690  133.8750 C   0  0  0  0  0  0  0  0  0  0  0  0
  143.5370  154.7390  132.7100 O   0  0  0  0  0  0  0  0  0  0  0  0
  143.4860  156.3980  134.4300 C   0  0  0  0  0  0  0  0  0  0  0  0
  143.7020  157.4890  133.4200 C   0  0  0  0  0  0  0  0  0  0  0  0
  142.8060  157.7430  132.5700 O   0  0  0  0  0  0  0  0  0  0  0  0
  144.9550  158.1880  133.3590 N   0  0  0  0  0  0  0  0  0  0  0  0
  145.1670  159.5270  133.5020 C   0  0  0  0  0  0  0  0  0  0  0  0
  144.1160  160.5530  133.6710 C   0  0  0  0  0  0  0  0  0  0  0  0
  142.7580  160.2360  133.3730 N   0  0  0  0  0  0  0  0  0  0  0  0
  144.4000  161.7030  134.0950 O   0  0  0  0  0  0  0  0  0  0  0  0
  146.5280  159.8160  133.4150 C   0  0  0  0  0  0  0  0  0  0  0  0
  147.1460  158.6030  133.2160 C   0  0  0  0  0  0  0  0  0  0  0  0
  148.4950  158.2960  133.0770 C   0  0  0  0  0  0  0  0  0  0  0  0
  148.8520  156.9480  132.9120 C   0  0  0  0  0  0  0  0  0  0  0  0
  147.8640  155.9250  132.8950 C   0  0  0  0  0  0  0  0  0  0  0  0
  148.2410  154.5390  132.7290 N   0  0  0  0  0  0  0  0  0  0  0  0
  147.3320  153.4190  132.9200 C   0  0  0  0  0  0  0  0  0  0  0  0
  148.1880  152.1630  132.8310 C   0  0  0  0  0  0  0  0  0  0  0  0
  149.4890  152.5920  132.1660 C   0  0  0  0  0  0  0  0  0  0  0  0
  149.5800  154.1000  132.3620 C   0  0  0  0  0  0  0  0  0  0  0  0
  146.5020  156.2850  133.0480 C   0  0  0  0  0  0  0  0  0  0  0  0
  146.1760  157.6370  133.1890 C   0  0  0  0  0  0  0  0  0  0  0  0
  146.4950  154.1520  136.2020 C   0  0  0  0  0  0  0  0  0  0  0  0
  147.3960  154.8930  135.7270 O   0  0  0  0  0  0  0  0  0  0  0  0
  146.8470  152.9860  136.8710 O   0  0  0  0  0  0  0  0  0  0  0  0
  144.4541  153.9348  138.0079 H   0  0  0  0  0  0  0  0  0  0  0  0
  143.1238  153.9146  136.8011 H   0  0  0  0  0  0  0  0  0  0  0  0
  144.3564  152.6080  136.8011 H   0  0  0  0  0  0  0  0  0  0  0  0
  144.8915  155.5651  136.2115 H   0  0  0  0  0  0  0  0  0  0  0  0
  142.4210  156.3661  134.7033 H   0  0  0  0  0  0  0  0  0  0  0  0
  144.1037  156.6111  135.3148 H   0  0  0  0  0  0  0  0  0  0  0  0
  142.4850  159.8750  132.4320 H   0  0  0  0  0  0  0  0  0  0  0  0
  147.0061  160.8038  133.4896 H   0  0  0  0  0  0  0  0  0  0  0  0
  149.2602  159.0860  133.0957 H   0  0  0  0  0  0  0  0  0  0  0  0
  149.9121  156.6791  132.7941 H   0  0  0  0  0  0  0  0  0  0  0  0
  146.8488  153.4830  133.9061 H   0  0  0  0  0  0  0  0  0  0  0  0
  146.5326  153.4158  132.1644 H   0  0  0  0  0  0  0  0  0  0  0  0
  148.3858  151.7626  133.8362 H   0  0  0  0  0  0  0  0  0  0  0  0
  147.6840  151.3700  132.2590 H   0  0  0  0  0  0  0  0  0  0  0  0
  150.3452  152.0918  132.6421 H   0  0  0  0  0  0  0  0  0  0  0  0
  149.5063  152.3213  131.1000 H   0  0  0  0  0  0  0  0  0  0  0  0
  150.2937  154.3387  133.1643 H   0  0  0  0  0  0  0  0  0  0  0  0
  149.9333  154.6040  131.4503 H   0  0  0  0  0  0  0  0  0  0  0  0
  145.7163  155.5152  133.0557 H   0  0  0  0  0  0  0  0  0  0  0  0
  1  2  1  0
  2  3  1  0
  3  4  1  0
  4  5  2  0
  4  6  1  0
  6  7  1  0
  7  8  2  0
  7  9  1  0
  9 10  1  0
 10 11  1  0
 11 12  1  0
 11 13  2  0
 10 14  2  0
 14 15  1  0
 15 16  2  0
 16 17  1  0
 17 18  2  0
 18 19  1  0
 19 20  1  0
 20 21  1  0
 21 22  1  0
 22 23  1  0
 18 24  1  0
 24 25  2  0
  2 26  1  0
 26 27  2  0
 26 28  1  0
 25  9  1  0
 25 15  1  0
 23 19  1  0
  1 29  1  0
  1 30  1  0
  1 31  1  0
  2 32  1  1
  6 33  1  0
  6 34  1  0
 12 35  1  0
 14 36  1  0
 16 37  1  0
 17 38  1  0
 20 39  1  0
 20 40  1  0
 21 41  1  0
 21 42  1  0
 22 43  1  0
 22 44  1  0
 23 45  1  0
 23 46  1  0
 24 47  1  0
M  CHG  2  12  -1  28  -1
M  END
>  <UniqueID>  (85) 
85

>  <SMILES>  (85) 
C[C@H](OC(=O)CC(=O)n1c(C([NH-])=O)cc2ccc(N3CCCC3)cc21)C(=O)[O-]

>  <Energy>  (85) 
82.34488828469526

>  <Genealogy>  (85) 
CC(OC(=O)CC(=O)n1c(C([NH-])=O)cc2ccc(N3CCCC3)cc21)C(=O)[O-] (protonated)
C[C@H](OC(=O)CC(=O)n1c(C([NH-])=O)cc2ccc(N3CCCC3)cc21)C(=O)[O-] (chirality)
C[C@H](OC(=O)CC(=O)n1c(C([NH-])=O)cc2ccc(N3CCCC3)cc21)C(=O)[O-] (3D coordinates assigned)
C[C@H](OC(=O)CC(=O)n1c(C([NH-])=O)cc2ccc(N3CCCC3)cc21)C(=O)[O-] (nonaromatic ring conformer: 82.34488828469526 kcal/mol)

>  <smiles>  (85) 
CC(OC(=O)CC(=O)n1c(C(N)=O)cc2ccc(N3CCCC3)cc21)C(=O)O

>  <score_type>  (85) 
oracle

>  <origin>  (85) 
adg

>  <m_score__min__energy>  (85) 
-8.2699999999999996

>  <m_primary>  (85) 
energy

$$$$
85:0
     RDKit          3D

 25 26  0  0  0  0  0  0  0  0999 V2000
  149.9200  153.9840  132.5630 N   0  0  0  0  0  0  0  0  0  0  0  0
  148.8380  154.3920  132.5940 C   0  0  0  0  0  0  0  0  0  0  0  0
  147.4670  154.9090  132.6310 C   0  0  0  0  0  0  0  0  0  0  0  0
  147.4860  156.3990  132.8230 C   0  0  0  0  0  0  0  0  0  0  0  0
  148.7040  157.1150  132.7100 C   0  0  0  0  0  0  0  0  0  0  0  0
  148.7380  158.5060  132.9050 C   0  0  0  0  0  0  0  0  0  0  0  0
  147.5460  159.1490  133.2250 C   0  0  0  0  0  0  0  0  0  0  0  0
  147.2930  160.4830  133.4460 C   0  0  0  0  0  0  0  0  0  0  0  0
  145.9300  160.5600  133.7240 C   0  0  0  0  0  0  0  0  0  0  0  0
  145.2480  161.8120  134.1100 C   0  0  0  0  0  0  0  0  0  0  0  0
  145.9500  162.7970  134.8670 N   0  0  0  0  0  0  0  0  0  0  0  0
  144.0410  162.0090  133.8110 O   0  0  0  0  0  0  0  0  0  0  0  0
  145.3600  159.3220  133.6700 N   0  0  0  0  0  0  0  0  0  0  0  0
  143.9700  158.9870  133.8240 C   0  0  0  0  0  0  0  0  0  0  0  0
  143.3400  159.3440  134.8540 O   0  0  0  0  0  0  0  0  0  0  0  0
  143.3160  158.2420  132.8510 O   0  0  0  0  0  0  0  0  0  0  0  0
  146.3640  158.4680  133.3660 C   0  0  0  0  0  0  0  0  0  0  0  0
  146.2970  157.0850  133.1600 C   0  0  0  0  0  0  0  0  0  0  0  0
  146.9616  154.6700  131.6837 H   0  0  0  0  0  0  0  0  0  0  0  0
  146.9274  154.4433  133.4688 H   0  0  0  0  0  0  0  0  0  0  0  0
  149.6318  156.5763  132.4672 H   0  0  0  0  0  0  0  0  0  0  0  0
  149.6778  159.0694  132.8077 H   0  0  0  0  0  0  0  0  0  0  0  0
  148.0140  161.3130  133.4107 H   0  0  0  0  0  0  0  0  0  0  0  0
  146.9930  162.8260  134.8730 H   0  0  0  0  0  0  0  0  0  0  0  0
  145.3432  156.5458  133.2579 H   0  0  0  0  0  0  0  0  0  0  0  0
  1  2  3  0
  2  3  1  0
  3  4  1  0
  4  5  2  0
  5  6  1  0
  6  7  2  0
  7  8  1  0
  8  9  2  0
  9 10  1  0
 10 11  1  0
 10 12  2  0
  9 13  1  0
 13 14  1  0
 14 15  2  0
 14 16  1  0
 13 17  1  0
 17 18  2  0
 18  4  1  0
 17  7  1  0
  3 19  1  0
  3 20  1  0
  5 21  1  0
  6 22  1  0
  8 23  1  0
 11 24  1  0
 18 25  1  0
M  CHG  2  11  -1  16  -1
M  END
>  <UniqueID>  (86) 
86

>  <SMILES>  (86) 
N#CCc1ccc2cc(C([NH-])=O)n(C(=O)[O-])c2c1

>  <Energy>  (86) 
63.087516793410295

>  <Genealogy>  (86) 
N#CCc1ccc2cc(C([NH-])=O)n(C(=O)[O-])c2c1 (protonated)
N#CCc1ccc2cc(C([NH-])=O)n(C(=O)[O-])c2c1 (3D coordinates assigned)
N#CCc1ccc2cc(C([NH-])=O)n(C(=O)[O-])c2c1 (optimized conformer: 63.087516793410295 kcal/mol)

>  <smiles>  (86) 
N#CCc1ccc2cc(C(N)=O)n(C(=O)O)c2c1

>  <score_type>  (86) 
oracle

>  <origin>  (86) 
adg

>  <m_score__min__energy>  (86) 
-6.5999999999999996

>  <m_primary>  (86) 
energy

$$$$
86:0
     RDKit          3D

 40 41  0  0  0  0  0  0  0  0999 V2000
  140.6190  159.6370  136.8180 C   0  0  0  0  0  0  0  0  0  0  0  0
  140.9910  158.3570  136.0430 C   0  0  0  0  0  0  0  0  0  0  0  0
  140.6170  157.1110  136.8700 C   0  0  0  0  0  0  0  0  0  0  0  0
  140.2200  158.3130  134.7050 C   0  0  0  0  0  0  0  0  0  0  0  0
  140.7630  159.2180  133.7790 O   0  0  0  0  0  0  0  0  0  0  0  0
  142.4270  158.3440  135.7390 N   0  0  0  0  0  0  0  0  0  0  0  0
  143.1110  157.4460  134.8540 C   0  0  0  0  0  0  0  0  0  0  0  0
  143.2700  156.2350  135.1620 O   0  0  0  0  0  0  0  0  0  0  0  0
  143.6340  157.9480  133.5750 C   0  0  0  0  0  0  0  0  0  0  0  0
  142.9260  157.8650  132.5360 O   0  0  0  0  0  0  0  0  0  0  0  0
  144.9260  158.5710  133.5030 N   0  0  0  0  0  0  0  0  0  0  0  0
  145.2210  159.9020  133.4880 C   0  0  0  0  0  0  0  0  0  0  0  0
  144.2570  161.0060  133.6760 C   0  0  0  0  0  0  0  0  0  0  0  0
  142.8720  160.8290  133.3870 N   0  0  0  0  0  0  0  0  0  0  0  0
  144.6550  162.1130  134.1300 O   0  0  0  0  0  0  0  0  0  0  0  0
  146.5940  160.0930  133.3390 C   0  0  0  0  0  0  0  0  0  0  0  0
  147.1340  158.8280  133.2760 C   0  0  0  0  0  0  0  0  0  0  0  0
  148.4550  158.4230  133.1140 C   0  0  0  0  0  0  0  0  0  0  0  0
  148.7200  157.0440  133.0580 C   0  0  0  0  0  0  0  0  0  0  0  0
  147.6690  156.0970  133.1790 C   0  0  0  0  0  0  0  0  0  0  0  0
  147.9590  154.6230  133.0600 C   0  0  0  0  0  0  0  0  0  0  0  0
  146.8540  153.9450  132.5740 F   0  0  0  0  0  0  0  0  0  0  0  0
  148.2860  154.0890  134.2940 F   0  0  0  0  0  0  0  0  0  0  0  0
  149.0190  154.4360  132.1930 F   0  0  0  0  0  0  0  0  0  0  0  0
  146.3370  156.5510  133.3180 C   0  0  0  0  0  0  0  0  0  0  0  0
  146.1070  157.9290  133.3810 C   0  0  0  0  0  0  0  0  0  0  0  0
  140.6760  159.4408  137.8989 H   0  0  0  0  0  0  0  0  0  0  0  0
  141.3203  160.4423  136.5540 H   0  0  0  0  0  0  0  0  0  0  0  0
  139.5953  159.9410  136.5540 H   0  0  0  0  0  0  0  0  0  0  0  0
  140.6880  157.3475  137.9419 H   0  0  0  0  0  0  0  0  0  0  0  0
  139.5878  156.8064  136.6291 H   0  0  0  0  0  0  0  0  0  0  0  0
  141.3083  156.2900  136.6291 H   0  0  0  0  0  0  0  0  0  0  0  0
  140.2783  157.2960  134.2900 H   0  0  0  0  0  0  0  0  0  0  0  0
  139.1735  158.5934  134.8953 H   0  0  0  0  0  0  0  0  0  0  0  0
  141.7510  159.1440  133.8460 H   0  0  0  0  0  0  0  0  0  0  0  0
  142.5390  160.0040  132.8400 H   0  0  0  0  0  0  0  0  0  0  0  0
  147.1317  161.0510  133.2835 H   0  0  0  0  0  0  0  0  0  0  0  0
  149.2676  159.1599  133.0322 H   0  0  0  0  0  0  0  0  0  0  0  0
  149.7536  156.6942  132.9188 H   0  0  0  0  0  0  0  0  0  0  0  0
  145.5018  155.8374  133.3752 H   0  0  0  0  0  0  0  0  0  0  0  0
  1  2  1  0
  2  3  1  0
  2  4  1  0
  4  5  1  0
  2  6  1  0
  6  7  1  0
  7  8  2  0
  7  9  1  0
  9 10  2  0
  9 11  1  0
 11 12  1  0
 12 13  1  0
 13 14  1  0
 13 15  2  0
 12 16  2  0
 16 17  1  0
 17 18  2  0
 18 19  1  0
 19 20  2  0
 20 21  1  0
 21 22  1  0
 21 23  1  0
 21 24  1  0
 20 25  1  0
 25 26  2  0
 26 11  1  0
 26 17  1  0
  1 27  1  0
  1 28  1  0
  1 29  1  0
  3 30  1  0
  3 31  1  0
  3 32  1  0
  4 33  1  0
  4 34  1  0
  5 35  1  0
 14 36  1  0
 16 37  1  0
 18 38  1  0
 19 39  1  0
 25 40  1  0
M  CHG  2   6  -1  14  -1
M  END
>  <UniqueID>  (87) 
87

>  <SMILES>  (87) 
CC(C)(CO)[N-]C(=O)C(=O)n1c(C([NH-])=O)cc2ccc(C(F)(F)F)cc21

>  <Energy>  (87) 
75.6237800934082

>  <Genealogy>  (87) 
CC(C)(CO)[N-]C(=O)C(=O)n1c(C([NH-])=O)cc2ccc(C(F)(F)F)cc21 (protonated)
CC(C)(CO)[N-]C(=O)C(=O)n1c(C([NH-])=O)cc2ccc(C(F)(F)F)cc21 (3D coordinates assigned)
CC(C)(CO)[N-]C(=O)C(=O)n1c(C([NH-])=O)cc2ccc(C(F)(F)F)cc21 (optimized conformer: 75.6237800934082 kcal/mol)

>  <smiles>  (87) 
CC(C)(CO)NC(=O)C(=O)n1c(C(N)=O)cc2ccc(C(F)(F)F)cc21

>  <score_type>  (87) 
oracle

>  <origin>  (87) 
adg

>  <m_score__min__energy>  (87) 
-6.25

>  <m_primary>  (87) 
energy

$$$$
87:0
     RDKit          3D

 40 42  0  0  0  0  0  0  0  0999 V2000
  141.1260  160.3900  135.4280 N   0  0  0  0  0  0  0  0  0  0  0  0
  141.6120  160.1330  134.1130 C   0  0  0  0  0  0  0  0  0  0  0  0
  140.8070  160.1400  133.1430 O   0  0  0  0  0  0  0  0  0  0  0  0
  143.0510  159.9160  133.8670 C   0  0  0  0  0  0  0  0  0  0  0  0
  144.0090  160.9280  133.9270 C   0  0  0  0  0  0  0  0  0  0  0  0
  145.2180  160.2970  133.7350 C   0  0  0  0  0  0  0  0  0  0  0  0
  146.5070  160.8180  133.6960 C   0  0  0  0  0  0  0  0  0  0  0  0
  147.5700  159.9280  133.4680 C   0  0  0  0  0  0  0  0  0  0  0  0
  147.3290  158.5440  133.2610 C   0  0  0  0  0  0  0  0  0  0  0  0
  148.4760  157.5860  133.0660 C   0  0  0  0  0  0  0  0  0  0  0  0
  149.5590  158.2260  132.4890 F   0  0  0  0  0  0  0  0  0  0  0  0
  148.8560  157.0770  134.2930 F   0  0  0  0  0  0  0  0  0  0  0  0
  148.1010  156.5420  132.2400 F   0  0  0  0  0  0  0  0  0  0  0  0
  146.0050  158.0520  133.3320 C   0  0  0  0  0  0  0  0  0  0  0  0
  144.9690  158.9600  133.5680 C   0  0  0  0  0  0  0  0  0  0  0  0
  143.6460  158.7120  133.6390 N   0  0  0  0  0  0  0  0  0  0  0  0
  143.0160  157.4500  133.3800 C   0  0  0  0  0  0  0  0  0  0  0  0
  142.5930  157.1910  132.2210 O   0  0  0  0  0  0  0  0  0  0  0  0
  142.7680  156.4700  134.4980 C   0  0  0  0  0  0  0  0  0  0  0  0
  141.4600  156.7510  135.2610 C   0  0  2  0  0  0  0  0  0  0  0  0
  140.3040  157.1930  134.3230 C   0  0  0  0  0  0  0  0  0  0  0  0
  139.4170  158.1740  134.9680 N   0  0  0  0  0  0  0  0  0  0  0  0
  139.2220  157.8570  136.3860 C   0  0  0  0  0  0  0  0  0  0  0  0
  140.5740  157.8030  137.1340 C   0  0  0  0  0  0  0  0  0  0  0  0
  141.6860  157.7290  136.2590 O   0  0  0  0  0  0  0  0  0  0  0  0
  140.6420  159.6440  135.9760 H   0  0  0  0  0  0  0  0  0  0  0  0
  143.8357  162.0016  134.0925 H   0  0  0  0  0  0  0  0  0  0  0  0
  146.6886  161.8934  133.8392 H   0  0  0  0  0  0  0  0  0  0  0  0
  148.6021  160.3081  133.4496 H   0  0  0  0  0  0  0  0  0  0  0  0
  145.7954  156.9797  133.2045 H   0  0  0  0  0  0  0  0  0  0  0  0
  142.7154  155.4572  134.0720 H   0  0  0  0  0  0  0  0  0  0  0  0
  143.5966  156.5696  135.2146 H   0  0  0  0  0  0  0  0  0  0  0  0
  141.1452  155.8073  135.7303 H   0  0  0  0  0  0  0  0  0  0  0  0
  140.7344  157.6447  133.4171 H   0  0  0  0  0  0  0  0  0  0  0  0
  139.7058  156.3031  134.0774 H   0  0  0  0  0  0  0  0  0  0  0  0
  139.8580  159.1200  134.9010 H   0  0  0  0  0  0  0  0  0  0  0  0
  138.5886  158.6312  136.8436 H   0  0  0  0  0  0  0  0  0  0  0  0
  138.7409  156.8706  136.4611 H   0  0  0  0  0  0  0  0  0  0  0  0
  140.6712  158.7097  137.7491 H   0  0  0  0  0  0  0  0  0  0  0  0
  140.5755  156.8899  137.7474 H   0  0  0  0  0  0  0  0  0  0  0  0
  1  2  1  0
  2  3  2  0
  2  4  1  0
  4  5  2  0
  5  6  1  0
  6  7  2  0
  7  8  1  0
  8  9  2  0
  9 10  1  0
 10 11  1  0
 10 12  1  0
 10 13  1  0
  9 14  1  0
 14 15  2  0
 15 16  1  0
 16 17  1  0
 17 18  2  0
 17 19  1  0
 19 20  1  0
 20 21  1  0
 21 22  1  0
 22 23  1  0
 23 24  1  0
 24 25  1  0
 16  4  1  0
 25 20  1  0
 15  6  1  0
  1 26  1  0
  5 27  1  0
  7 28  1  0
  8 29  1  0
 14 30  1  0
 19 31  1  0
 19 32  1  0
 20 33  1  1
 21 34  1  0
 21 35  1  0
 22 36  1  0
 23 37  1  0
 23 38  1  0
 24 39  1  0
 24 40  1  0
M  CHG  1   1  -1
M  END
>  <UniqueID>  (88) 
88

>  <SMILES>  (88) 
[NH-]C(=O)c1cc2ccc(C(F)(F)F)cc2n1C(=O)C[C@@H]1CNCCO1

>  <Energy>  (88) 
87.287123178412

>  <Genealogy>  (88) 
[NH-]C(=O)c1cc2ccc(C(F)(F)F)cc2n1C(=O)C[C@@H]1CNCCO1 (protonated)
[NH-]C(=O)c1cc2ccc(C(F)(F)F)cc2n1C(=O)C[C@@H]1CNCCO1 (3D coordinates assigned)
[NH-]C(=O)c1cc2ccc(C(F)(F)F)cc2n1C(=O)C[C@@H]1CNCCO1 (nonaromatic ring conformer: 87.287123178412 kcal/mol)

>  <smiles>  (88) 
NC(=O)c1cc2ccc(C(F)(F)F)cc2n1C(=O)C[C@@H]1CNCCO1

>  <score_type>  (88) 
oracle

>  <origin>  (88) 
adg

>  <m_score__min__energy>  (88) 
-6.1799999999999997

>  <m_primary>  (88) 
energy

$$$$
88:0
     RDKit          3D

 46 48  0  0  0  0  0  0  0  0999 V2000
  138.7250  157.8050  133.0420 C   0  0  0  0  0  0  0  0  0  0  0  0
  139.4670  157.5190  134.3130 C   0  0  0  0  0  0  0  0  0  0  0  0
  139.2340  158.2400  135.3210 O   0  0  0  0  0  0  0  0  0  0  0  0
  140.4190  156.4350  134.4000 N   0  0  0  0  0  0  0  0  0  0  0  0
  141.2250  156.2540  135.6200 C   0  0  0  0  0  0  0  0  0  0  0  0
  142.6680  155.8590  135.2660 C   0  0  0  0  0  0  0  0  0  0  0  0
  142.7200  154.8830  134.1650 N   0  0  0  0  0  0  0  0  0  0  0  0
  143.9390  154.6890  133.4140 C   0  0  0  0  0  0  0  0  0  0  0  0
  143.8730  154.5030  132.1680 O   0  0  0  0  0  0  0  0  0  0  0  0
  145.2750  154.7190  134.0530 C   0  0  0  0  0  0  0  0  0  0  0  0
  145.5690  153.9010  134.9650 O   0  0  0  0  0  0  0  0  0  0  0  0
  146.2530  155.6880  133.6450 N   0  0  0  0  0  0  0  0  0  0  0  0
  147.4910  155.4420  133.1360 C   0  0  0  0  0  0  0  0  0  0  0  0
  148.1350  154.1150  133.0340 C   0  0  0  0  0  0  0  0  0  0  0  0
  147.6240  152.9830  133.7400 N   0  0  0  0  0  0  0  0  0  0  0  0
  149.1790  153.9880  132.3400 O   0  0  0  0  0  0  0  0  0  0  0  0
  148.0860  156.6250  132.7040 C   0  0  0  0  0  0  0  0  0  0  0  0
  147.1640  157.6130  132.9680 C   0  0  0  0  0  0  0  0  0  0  0  0
  147.2110  158.9780  132.7000 C   0  0  0  0  0  0  0  0  0  0  0  0
  146.0830  159.7510  133.0220 C   0  0  0  0  0  0  0  0  0  0  0  0
  144.9340  159.1550  133.6040 C   0  0  0  0  0  0  0  0  0  0  0  0
  143.7070  159.9850  133.8820 C   0  0  0  0  0  0  0  0  0  0  0  0
  144.0270  161.3240  133.7640 F   0  0  0  0  0  0  0  0  0  0  0  0
  143.2350  159.7450  135.1610 F   0  0  0  0  0  0  0  0  0  0  0  0
  142.6980  159.6810  132.9840 F   0  0  0  0  0  0  0  0  0  0  0  0
  144.9160  157.7590  133.8320 C   0  0  0  0  0  0  0  0  0  0  0  0
  146.0630  157.0200  133.5280 C   0  0  0  0  0  0  0  0  0  0  0  0
  141.4630  154.3030  133.6770 C   0  0  0  0  0  0  0  0  0  0  0  0
  140.4890  155.4280  133.3270 C   0  0  0  0  0  0  0  0  0  0  0  0
  137.7232  158.1911  133.2812 H   0  0  0  0  0  0  0  0  0  0  0  0
  139.2767  158.5549  132.4561 H   0  0  0  0  0  0  0  0  0  0  0  0
  138.6307  156.8788  132.4561 H   0  0  0  0  0  0  0  0  0  0  0  0
  141.2377  157.1964  136.1872 H   0  0  0  0  0  0  0  0  0  0  0  0
  140.7769  155.4507  136.2232 H   0  0  0  0  0  0  0  0  0  0  0  0
  143.2197  156.7621  134.9660 H   0  0  0  0  0  0  0  0  0  0  0  0
  143.1194  155.3927  136.1541 H   0  0  0  0  0  0  0  0  0  0  0  0
  148.0560  152.0420  133.6010 H   0  0  0  0  0  0  0  0  0  0  0  0
  146.8940  153.0880  134.4770 H   0  0  0  0  0  0  0  0  0  0  0  0
  149.0803  156.7445  132.2490 H   0  0  0  0  0  0  0  0  0  0  0  0
  148.1036  159.4372  132.2501 H   0  0  0  0  0  0  0  0  0  0  0  0
  146.0904  160.8323  132.8204 H   0  0  0  0  0  0  0  0  0  0  0  0
  144.0205  157.2666  134.2389 H   0  0  0  0  0  0  0  0  0  0  0  0
  141.6616  153.6970  132.7807 H   0  0  0  0  0  0  0  0  0  0  0  0
  141.0238  153.6656  134.4585 H   0  0  0  0  0  0  0  0  0  0  0  0
  140.8248  155.9160  132.4002 H   0  0  0  0  0  0  0  0  0  0  0  0
  139.4880  154.9903  133.1987 H   0  0  0  0  0  0  0  0  0  0  0  0
  1  2  1  0
  2  3  2  0
  2  4  1  0
  4  5  1  0
  5  6  1  0
  6  7  1  0
  7  8  1  0
  8  9  2  0
  8 10  1  0
 10 11  2  0
 10 12  1  0
 12 13  1  0
 13 14  1  0
 14 15  1  0
 14 16  2  0
 13 17  2  0
 17 18  1  0
 18 19  2  0
 19 20  1  0
 20 21  2  0
 21 22  1  0
 22 23  1  0
 22 24  1  0
 22 25  1  0
 21 26  1  0
 26 27  2  0
  7 28  1  0
 28 29  1  0
 29  4  1  0
 27 12  1  0
 27 18  1  0
  1 30  1  0
  1 31  1  0
  1 32  1  0
  5 33  1  0
  5 34  1  0
  6 35  1  0
  6 36  1  0
 15 37  1  0
 15 38  1  0
 17 39  1  0
 19 40  1  0
 20 41  1  0
 26 42  1  0
 28 43  1  0
 28 44  1  0
 29 45  1  0
 29 46  1  0
M  END
>  <UniqueID>  (89) 
89

>  <SMILES>  (89) 
CC(=O)N1CCN(C(=O)C(=O)n2c(C(N)=O)cc3ccc(C(F)(F)F)cc32)CC1

>  <Energy>  (89) 
91.03241870041082

>  <Genealogy>  (89) 
CC(=O)N1CCN(C(=O)C(=O)n2c(C(N)=O)cc3ccc(C(F)(F)F)cc32)CC1 (3D coordinates assigned)
CC(=O)N1CCN(C(=O)C(=O)n2c(C(N)=O)cc3ccc(C(F)(F)F)cc32)CC1 (nonaromatic ring conformer: 91.03241870041082 kcal/mol)

>  <smiles>  (89) 
CC(=O)N1CCN(C(=O)C(=O)n2c(C(N)=O)cc3ccc(C(F)(F)F)cc32)CC1

>  <score_type>  (89) 
oracle

>  <origin>  (89) 
adg

>  <m_score__min__energy>  (89) 
-7.7999999999999998

>  <m_primary>  (89) 
energy

$$$$
89:0
     RDKit          3D

 48 50  0  0  0  0  0  0  0  0999 V2000
  139.2020  158.5490  131.4610 C   0  0  0  0  0  0  0  0  0  0  0  0
  138.7340  157.5810  132.4680 N   0  0  0  0  0  0  0  0  0  0  0  0
  138.3620  158.2370  133.7490 C   0  0  0  0  0  0  0  0  0  0  0  0
  139.2580  157.8490  134.9430 C   0  0  0  0  0  0  0  0  0  0  0  0
  140.7460  157.7830  134.5550 C   0  0  0  0  0  0  0  0  0  0  0  0
  141.2800  159.1310  134.3050 N   0  0  0  0  0  0  0  0  0  0  0  0
  142.6710  159.4210  134.0620 C   0  0  0  0  0  0  0  0  0  0  0  0
  143.0920  160.7740  134.0150 C   0  0  0  0  0  0  0  0  0  0  0  0
  144.4350  161.1070  133.7650 C   0  0  0  0  0  0  0  0  0  0  0  0
  145.3380  160.0670  133.5700 C   0  0  0  0  0  0  0  0  0  0  0  0
  146.6860  160.1020  133.2940 C   0  0  0  0  0  0  0  0  0  0  0  0
  147.0780  158.7670  133.1960 C   0  0  0  0  0  0  0  0  0  0  0  0
  148.4730  158.3230  132.9920 C   0  0  0  0  0  0  0  0  0  0  0  0
  148.8520  156.9650  133.2190 N   0  0  0  0  0  0  0  0  0  0  0  0
  149.3420  159.1420  132.5930 O   0  0  0  0  0  0  0  0  0  0  0  0
  146.0110  157.9440  133.4010 N   0  0  0  0  0  0  0  0  0  0  0  0
  145.9710  156.5100  133.3280 C   0  0  0  0  0  0  0  0  0  0  0  0
  146.3100  155.9370  132.2570 O   0  0  0  0  0  0  0  0  0  0  0  0
  145.6960  155.6980  134.5630 C   0  0  0  0  0  0  0  0  0  0  0  0
  147.1990  154.8880  135.2030 P   0  0  0  0  0  0  0  0  0  0  0  0
  148.1010  155.9190  135.8440 O   0  0  0  0  0  0  0  0  0  0  0  0
  148.0310  154.1240  133.9440 O   0  0  0  0  0  0  0  0  0  0  0  0
  146.7590  153.7370  136.3600 O   0  0  0  0  0  0  0  0  0  0  0  0
  144.9560  158.7540  133.6310 C   0  0  0  0  0  0  0  0  0  0  0  0
  143.6260  158.3920  133.8670 C   0  0  0  0  0  0  0  0  0  0  0  0
  140.9740  156.8600  133.3310 C   0  0  0  0  0  0  0  0  0  0  0  0
  139.6700  156.4500  132.6230 C   0  0  0  0  0  0  0  0  0  0  0  0
  139.6271  159.4282  131.9673 H   0  0  0  0  0  0  0  0  0  0  0  0
  139.9728  158.0799  130.8319 H   0  0  0  0  0  0  0  0  0  0  0  0
  138.3556  158.8617  130.8319 H   0  0  0  0  0  0  0  0  0  0  0  0
  138.4258  159.3263  133.6097 H   0  0  0  0  0  0  0  0  0  0  0  0
  137.3450  157.8969  133.9940 H   0  0  0  0  0  0  0  0  0  0  0  0
  139.1321  158.5980  135.7387 H   0  0  0  0  0  0  0  0  0  0  0  0
  138.9528  156.8486  135.2836 H   0  0  0  0  0  0  0  0  0  0  0  0
  141.2937  157.3471  135.4035 H   0  0  0  0  0  0  0  0  0  0  0  0
  140.6210  159.9420  134.3290 H   0  0  0  0  0  0  0  0  0  0  0  0
  142.3565  161.5758  134.1766 H   0  0  0  0  0  0  0  0  0  0  0  0
  144.7613  162.1567  133.7249 H   0  0  0  0  0  0  0  0  0  0  0  0
  147.3196  160.9934  133.1758 H   0  0  0  0  0  0  0  0  0  0  0  0
  149.8340  156.6580  133.0390 H   0  0  0  0  0  0  0  0  0  0  0  0
  148.1750  156.2670  133.6000 H   0  0  0  0  0  0  0  0  0  0  0  0
  145.2928  156.3625  135.3414 H   0  0  0  0  0  0  0  0  0  0  0  0
  144.9755  154.9108  134.2963 H   0  0  0  0  0  0  0  0  0  0  0  0
  143.3281  157.3337  133.9005 H   0  0  0  0  0  0  0  0  0  0  0  0
  141.6112  157.3905  132.6082 H   0  0  0  0  0  0  0  0  0  0  0  0
  141.4453  155.9382  133.7028 H   0  0  0  0  0  0  0  0  0  0  0  0
  139.9179  156.0574  131.6258 H   0  0  0  0  0  0  0  0  0  0  0  0
  139.1760  155.6887  133.2446 H   0  0  0  0  0  0  0  0  0  0  0  0
  1  2  1  0
  2  3  1  0
  3  4  1  0
  4  5  1  0
  5  6  1  0
  6  7  1  0
  7  8  2  0
  8  9  1  0
  9 10  2  0
 10 11  1  0
 11 12  2  0
 12 13  1  0
 13 14  1  0
 13 15  2  0
 12 16  1  0
 16 17  1  0
 17 18  2  0
 17 19  1  0
 19 20  1  0
 20 21  2  0
 20 22  1  0
 20 23  1  0
 16 24  1  0
 24 25  2  0
  5 26  1  0
 26 27  1  0
 27  2  1  0
 25  7  1  0
 24 10  1  0
  1 28  1  0
  1 29  1  0
  1 30  1  0
  3 31  1  0
  3 32  1  0
  4 33  1  0
  4 34  1  0
  5 35  1  0
  6 36  1  0
  8 37  1  0
  9 38  1  0
 11 39  1  0
 14 40  1  0
 14 41  1  0
 19 42  1  0
 19 43  1  0
 25 44  1  0
 26 45  1  0
 26 46  1  0
 27 47  1  0
 27 48  1  0
M  CHG  2  22  -1  23  -1
M  END
>  <UniqueID>  (90) 
90

>  <SMILES>  (90) 
CN1CCC(Nc2ccc3cc(C(N)=O)n(C(=O)CP(=O)([O-])[O-])c3c2)CC1

>  <Energy>  (90) 
94.21230008190477

>  <Genealogy>  (90) 
CN1CCC(Nc2ccc3cc(C(N)=O)n(C(=O)CP(=O)([O-])[O-])c3c2)CC1 (protonated)
CN1CCC(Nc2ccc3cc(C(N)=O)n(C(=O)CP(=O)([O-])[O-])c3c2)CC1 (3D coordinates assigned)
CN1CCC(Nc2ccc3cc(C(N)=O)n(C(=O)CP(=O)([O-])[O-])c3c2)CC1 (nonaromatic ring conformer: 94.21230008190477 kcal/mol)

>  <smiles>  (90) 
CN1CCC(Nc2ccc3cc(C(N)=O)n(C(=O)CP(=O)(O)O)c3c2)CC1

>  <score_type>  (90) 
oracle

>  <origin>  (90) 
adg

>  <m_score__min__energy>  (90) 
-7.5999999999999996

>  <m_primary>  (90) 
energy

$$$$
90:0
     RDKit          3D

 34 35  0  0  0  0  0  0  0  0999 V2000
  149.9400  160.4040  129.6290 C   0  0  0  0  0  0  0  0  0  0  0  0
  149.4740  160.0520  130.8300 C   0  0  0  0  0  0  0  0  0  0  0  0
  148.0040  160.1310  131.1430 C   0  0  0  0  0  0  0  0  0  0  0  0
  147.7440  160.4100  132.6290 C   0  0  0  0  0  0  0  0  0  0  0  0
  147.8630  159.1550  133.4470 C   0  0  0  0  0  0  0  0  0  0  0  0
  148.8180  159.0290  134.2600 O   0  0  0  0  0  0  0  0  0  0  0  0
  146.9650  158.0580  133.2330 N   0  0  0  0  0  0  0  0  0  0  0  0
  147.2750  156.7580  132.9760 C   0  0  0  0  0  0  0  0  0  0  0  0
  148.6330  156.2290  132.7350 C   0  0  0  0  0  0  0  0  0  0  0  0
  149.6570  157.0930  132.2470 N   0  0  0  0  0  0  0  0  0  0  0  0
  148.9060  155.0250  132.9790 O   0  0  0  0  0  0  0  0  0  0  0  0
  146.1150  155.9860  132.9070 C   0  0  0  0  0  0  0  0  0  0  0  0
  145.0780  156.8670  133.1300 C   0  0  0  0  0  0  0  0  0  0  0  0
  143.7060  156.6440  133.1830 C   0  0  0  0  0  0  0  0  0  0  0  0
  142.8720  157.7400  133.4580 C   0  0  0  0  0  0  0  0  0  0  0  0
  143.4190  159.0290  133.6970 C   0  0  0  0  0  0  0  0  0  0  0  0
  142.5140  160.2050  133.9590 C   0  0  0  0  0  0  0  0  0  0  0  0
  141.4570  160.2160  133.0650 F   0  0  0  0  0  0  0  0  0  0  0  0
  142.0140  160.1170  135.2460 F   0  0  0  0  0  0  0  0  0  0  0  0
  143.2060  161.3960  133.8250 F   0  0  0  0  0  0  0  0  0  0  0  0
  144.8170  159.2180  133.6070 C   0  0  0  0  0  0  0  0  0  0  0  0
  145.6200  158.1100  133.3210 C   0  0  0  0  0  0  0  0  0  0  0  0
  151.0175  160.3402  129.4168 H   0  0  0  0  0  0  0  0  0  0  0  0
  149.2464  160.7577  128.8520 H   0  0  0  0  0  0  0  0  0  0  0  0
  150.1744  159.6993  131.6014 H   0  0  0  0  0  0  0  0  0  0  0  0
  147.5575  160.9404  130.5468 H   0  0  0  0  0  0  0  0  0  0  0  0
  147.5528  159.1584  130.8972 H   0  0  0  0  0  0  0  0  0  0  0  0
  148.4789  161.1445  132.9900 H   0  0  0  0  0  0  0  0  0  0  0  0
  146.7210  160.7997  132.7362 H   0  0  0  0  0  0  0  0  0  0  0  0
  150.0000  157.8960  132.8180 H   0  0  0  0  0  0  0  0  0  0  0  0
  146.0430  154.9052  132.7156 H   0  0  0  0  0  0  0  0  0  0  0  0
  143.2874  155.6408  133.0148 H   0  0  0  0  0  0  0  0  0  0  0  0
  141.7816  157.5985  133.4887 H   0  0  0  0  0  0  0  0  0  0  0  0
  145.2621  160.2125  133.7583 H   0  0  0  0  0  0  0  0  0  0  0  0
  1  2  2  0
  2  3  1  0
  3  4  1  0
  4  5  1  0
  5  6  2  0
  5  7  1  0
  7  8  1  0
  8  9  1  0
  9 10  1  0
  9 11  2  0
  8 12  2  0
 12 13  1  0
 13 14  2  0
 14 15  1  0
 15 16  2  0
 16 17  1  0
 17 18  1  0
 17 19  1  0
 17 20  1  0
 16 21  1  0
 21 22  2  0
 22  7  1  0
 22 13  1  0
  1 23  1  0
  1 24  1  0
  2 25  1  0
  3 26  1  0
  3 27  1  0
  4 28  1  0
  4 29  1  0
 10 30  1  0
 12 31  1  0
 14 32  1  0
 15 33  1  0
 21 34  1  0
M  CHG  1  10  -1
M  END
>  <UniqueID>  (91) 
91

>  <SMILES>  (91) 
C=CCCC(=O)n1c(C([NH-])=O)cc2ccc(C(F)(F)F)cc21

>  <Energy>  (91) 
67.55656276410133

>  <Genealogy>  (91) 
C=CCCC(=O)n1c(C([NH-])=O)cc2ccc(C(F)(F)F)cc21 (protonated)
C=CCCC(=O)n1c(C([NH-])=O)cc2ccc(C(F)(F)F)cc21 (3D coordinates assigned)
C=CCCC(=O)n1c(C([NH-])=O)cc2ccc(C(F)(F)F)cc21 (optimized conformer: 67.55656276410133 kcal/mol)

>  <smiles>  (91) 
C=CCCC(=O)n1c(C(N)=O)cc2ccc(C(F)(F)F)cc21

>  <score_type>  (91) 
oracle

>  <origin>  (91) 
adg

>  <m_score__min__energy>  (91) 
-6.5999999999999996

>  <m_primary>  (91) 
energy

$$$$
91:0
     RDKit          3D

 40 42  0  0  0  0  0  0  0  0999 V2000
  145.8360  162.7480  134.4920 C   0  0  0  0  0  0  0  0  0  0  0  0
  144.4840  162.2700  133.9740 C   0  0  0  0  0  0  0  0  0  0  0  0
  144.4910  160.7800  133.7660 C   0  0  0  0  0  0  0  0  0  0  0  0
  145.7100  160.1020  133.5130 C   0  0  0  0  0  0  0  0  0  0  0  0
  145.7340  158.7060  133.3570 C   0  0  0  0  0  0  0  0  0  0  0  0
  144.5290  158.0170  133.4610 C   0  0  0  0  0  0  0  0  0  0  0  0
  144.2710  156.6690  133.3790 C   0  0  0  0  0  0  0  0  0  0  0  0
  142.8970  156.5420  133.5730 C   0  0  0  0  0  0  0  0  0  0  0  0
  142.1780  155.2540  133.4890 C   0  0  0  0  0  0  0  0  0  0  0  0
  140.9530  155.0490  134.1890 N   0  0  0  0  0  0  0  0  0  0  0  0
  142.6290  154.3330  132.7560 O   0  0  0  0  0  0  0  0  0  0  0  0
  142.3290  157.7650  133.7710 N   0  0  0  0  0  0  0  0  0  0  0  0
  140.9520  158.0540  134.0790 C   0  0  0  0  0  0  0  0  0  0  0  0
  140.5150  157.8000  135.2350 O   0  0  0  0  0  0  0  0  0  0  0  0
  140.0500  158.6820  133.0690 C   0  0  0  0  0  0  0  0  0  0  0  0
  140.1570  160.0800  132.9790 C   0  0  0  0  0  0  0  0  0  0  0  0
  139.5170  160.9760  132.1350 C   0  0  0  0  0  0  0  0  0  0  0  0
  138.6140  160.7160  131.1220 C   0  0  0  0  0  0  0  0  0  0  0  0
  138.1020  159.4940  130.7290 C   0  0  0  0  0  0  0  0  0  0  0  0
  138.3430  158.2370  131.2660 C   0  0  0  0  0  0  0  0  0  0  0  0
  139.1890  157.8410  132.3160 C   0  0  0  0  0  0  0  0  0  0  0  0
  139.1700  156.5780  132.6290 N   0  0  0  0  0  0  0  0  0  0  0  0
  143.3410  158.6570  133.7000 C   0  0  0  0  0  0  0  0  0  0  0  0
  143.2910  160.0440  133.8790 C   0  0  0  0  0  0  0  0  0  0  0  0
  145.8289  162.7455  135.5920 H   0  0  0  0  0  0  0  0  0  0  0  0
  146.6266  162.0749  134.1289 H   0  0  0  0  0  0  0  0  0  0  0  0
  146.0279  163.7685  134.1289 H   0  0  0  0  0  0  0  0  0  0  0  0
  143.7048  162.5288  134.7060 H   0  0  0  0  0  0  0  0  0  0  0  0
  144.2807  162.7607  133.0107 H   0  0  0  0  0  0  0  0  0  0  0  0
  146.6463  160.6746  133.4381 H   0  0  0  0  0  0  0  0  0  0  0  0
  146.6761  158.1738  133.1588 H   0  0  0  0  0  0  0  0  0  0  0  0
  144.9959  155.8616  133.1984 H   0  0  0  0  0  0  0  0  0  0  0  0
  140.2770  155.8340  134.3290 H   0  0  0  0  0  0  0  0  0  0  0  0
  140.8601  160.5368  133.6910 H   0  0  0  0  0  0  0  0  0  0  0  0
  139.7615  162.0367  132.2937 H   0  0  0  0  0  0  0  0  0  0  0  0
  138.2583  161.5908  130.5580 H   0  0  0  0  0  0  0  0  0  0  0  0
  137.4096  159.5212  129.8747 H   0  0  0  0  0  0  0  0  0  0  0  0
  137.7808  157.4182  130.7932 H   0  0  0  0  0  0  0  0  0  0  0  0
  138.5770  155.8610  132.1510 H   0  0  0  0  0  0  0  0  0  0  0  0
  142.3396  160.5490  134.1024 H   0  0  0  0  0  0  0  0  0  0  0  0
  1  2  1  0
  2  3  1  0
  3  4  2  0
  4  5  1  0
  5  6  2  0
  6  7  1  0
  7  8  2  0
  8  9  1  0
  9 10  1  0
  9 11  2  0
  8 12  1  0
 12 13  1  0
 13 14  2  0
 13 15  1  0
 15 16  2  0
 16 17  1  0
 17 18  2  0
 18 19  1  0
 19 20  2  0
 20 21  1  0
 21 22  2  3
 12 23  1  0
 23 24  2  0
 24  3  1  0
 23  6  1  0
 21 15  1  0
  1 25  1  0
  1 26  1  0
  1 27  1  0
  2 28  1  0
  2 29  1  0
  4 30  1  0
  5 31  1  0
  7 32  1  0
 10 33  1  0
 16 34  1  0
 17 35  1  0
 18 36  1  0
 19 37  1  0
 20 38  1  0
 22 39  1  0
 24 40  1  0
M  CHG  1  10  -1
M  END
>  <UniqueID>  (92) 
92

>  <SMILES>  (92) 
CCc1ccc2cc(C([NH-])=O)n(C(=O)c3cccccc3=N)c2c1

>  <Energy>  (92) 
104.3411059116427

>  <Genealogy>  (92) 
CCc1ccc2cc(C([NH-])=O)n(C(=O)c3cccccc3=N)c2c1 (protonated)
CCc1ccc2cc(C([NH-])=O)n(C(=O)c3cccccc3=N)c2c1 (3D coordinates assigned)
CCc1ccc2cc(C([NH-])=O)n(C(=O)c3cccccc3=N)c2c1 (optimized conformer: 104.3411059116427 kcal/mol)

>  <smiles>  (92) 
CCc1ccc2cc(C(N)=O)n(C(=O)c3cccccc3=N)c2c1

>  <score_type>  (92) 
oracle

>  <origin>  (92) 
adg

>  <m_score__min__energy>  (92) 
-7.8600000000000003

>  <m_primary>  (92) 
energy

$$$$
92:0
     RDKit          3D

 36 37  0  0  0  0  0  0  0  0999 V2000
  148.1360  154.0120  133.7570 C   0  0  0  0  0  0  0  0  0  0  0  0
  147.8400  154.9030  132.6410 N   0  0  0  0  0  0  0  0  0  0  0  0
  147.6280  156.3190  132.7870 C   0  0  0  0  0  0  0  0  0  0  0  0
  148.6890  157.2510  132.6180 C   0  0  0  0  0  0  0  0  0  0  0  0
  148.4650  158.6290  132.7760 C   0  0  0  0  0  0  0  0  0  0  0  0
  147.1760  159.0510  133.0910 C   0  0  0  0  0  0  0  0  0  0  0  0
  146.6890  160.3160  133.3270 C   0  0  0  0  0  0  0  0  0  0  0  0
  145.3370  160.1430  133.6180 C   0  0  0  0  0  0  0  0  0  0  0  0
  144.4050  161.2570  133.8970 C   0  0  0  0  0  0  0  0  0  0  0  0
  143.0020  161.0700  133.7210 N   0  0  0  0  0  0  0  0  0  0  0  0
  144.8330  162.3680  134.3080 O   0  0  0  0  0  0  0  0  0  0  0  0
  145.0030  158.8230  133.5590 N   0  0  0  0  0  0  0  0  0  0  0  0
  143.7280  158.2260  133.8430 C   0  0  0  0  0  0  0  0  0  0  0  0
  143.2020  158.3880  134.9770 O   0  0  0  0  0  0  0  0  0  0  0  0
  143.0330  157.4180  132.8320 C   0  0  0  0  0  0  0  0  0  0  0  0
  143.5140  156.3060  132.4790 O   0  0  0  0  0  0  0  0  0  0  0  0
  141.8450  157.8920  132.2690 O   0  0  0  0  0  0  0  0  0  0  0  0
  140.7160  158.2820  133.0470 C   0  0  0  0  0  0  0  0  0  0  0  0
  140.1030  159.9250  132.5270 S   0  0  0  0  0  0  0  0  0  0  0  0
  139.0790  159.2990  131.1570 C   0  0  0  0  0  0  0  0  0  0  0  0
  146.1400  158.1680  133.2400 C   0  0  0  0  0  0  0  0  0  0  0  0
  146.3360  156.7900  133.1100 C   0  0  0  0  0  0  0  0  0  0  0  0
  147.9602  154.5411  134.7052 H   0  0  0  0  0  0  0  0  0  0  0  0
  147.4832  153.1283  133.7038 H   0  0  0  0  0  0  0  0  0  0  0  0
  149.1879  153.6946  133.7038 H   0  0  0  0  0  0  0  0  0  0  0  0
  147.7810  154.4800  131.6850 H   0  0  0  0  0  0  0  0  0  0  0  0
  149.6955  156.8892  132.3609 H   0  0  0  0  0  0  0  0  0  0  0  0
  149.2839  159.3533  132.6544 H   0  0  0  0  0  0  0  0  0  0  0  0
  147.2480  161.2628  133.2932 H   0  0  0  0  0  0  0  0  0  0  0  0
  142.5770  160.1190  133.7760 H   0  0  0  0  0  0  0  0  0  0  0  0
  139.9144  157.5402  132.9159 H   0  0  0  0  0  0  0  0  0  0  0  0
  141.0185  158.3373  134.1031 H   0  0  0  0  0  0  0  0  0  0  0  0
  138.2073  158.7661  131.5646 H   0  0  0  0  0  0  0  0  0  0  0  0
  138.7372  160.1427  130.5395 H   0  0  0  0  0  0  0  0  0  0  0  0
  139.6741  158.6101  130.5395 H   0  0  0  0  0  0  0  0  0  0  0  0
  145.5021  156.0876  133.2561 H   0  0  0  0  0  0  0  0  0  0  0  0
  1  2  1  0
  2  3  1  0
  3  4  2  0
  4  5  1  0
  5  6  2  0
  6  7  1  0
  7  8  2  0
  8  9  1  0
  9 10  1  0
  9 11  2  0
  8 12  1  0
 12 13  1  0
 13 14  2  0
 13 15  1  0
 15 16  2  0
 15 17  1  0
 17 18  1  0
 18 19  1  0
 19 20  1  0
 12 21  1  0
 21 22  2  0
 22  3  1  0
 21  6  1  0
  1 23  1  0
  1 24  1  0
  1 25  1  0
  2 26  1  0
  4 27  1  0
  5 28  1  0
  7 29  1  0
 10 30  1  0
 18 31  1  0
 18 32  1  0
 20 33  1  0
 20 34  1  0
 20 35  1  0
 22 36  1  0
M  CHG  1  10  -1
M  END
>  <UniqueID>  (93) 
93

>  <SMILES>  (93) 
CNc1ccc2cc(C([NH-])=O)n(C(=O)C(=O)OCSC)c2c1

>  <Energy>  (93) 
68.08130067230128

>  <Genealogy>  (93) 
CNc1ccc2cc(C([NH-])=O)n(C(=O)C(=O)OCSC)c2c1 (protonated)
CNc1ccc2cc(C([NH-])=O)n(C(=O)C(=O)OCSC)c2c1 (3D coordinates assigned)
CNc1ccc2cc(C([NH-])=O)n(C(=O)C(=O)OCSC)c2c1 (optimized conformer: 68.08130067230128 kcal/mol)

>  <smiles>  (93) 
CNc1ccc2cc(C(N)=O)n(C(=O)C(=O)OCSC)c2c1

>  <score_type>  (93) 
oracle

>  <origin>  (93) 
adg

>  <m_score__min__energy>  (93) 
-6.1799999999999997

>  <m_primary>  (93) 
energy

$$$$
93:0
     RDKit          3D

 38 40  0  0  0  0  0  0  0  0999 V2000
  148.3070  161.1900  131.1760 N   0  0  0  0  0  0  0  0  0  0  0  0
  149.1510  160.1020  131.5440 C   0  0  0  0  0  0  0  0  0  0  0  0
  150.3840  160.1690  131.2980 O   0  0  0  0  0  0  0  0  0  0  0  0
  148.5980  158.8960  132.1970 C   0  0  0  0  0  0  0  0  0  0  0  0
  149.1920  157.6360  132.1300 C   0  0  0  0  0  0  0  0  0  0  0  0
  148.3550  156.8000  132.8370 C   0  0  0  0  0  0  0  0  0  0  0  0
  148.4530  155.4360  133.0920 C   0  0  0  0  0  0  0  0  0  0  0  0
  147.4410  154.8360  133.8600 C   0  0  0  0  0  0  0  0  0  0  0  0
  146.3670  155.6060  134.3770 C   0  0  0  0  0  0  0  0  0  0  0  0
  145.2650  154.9420  135.1630 C   0  0  0  0  0  0  0  0  0  0  0  0
  145.7420  154.4740  136.3750 F   0  0  0  0  0  0  0  0  0  0  0  0
  144.2570  155.8590  135.3990 F   0  0  0  0  0  0  0  0  0  0  0  0
  144.7430  153.8690  134.4610 F   0  0  0  0  0  0  0  0  0  0  0  0
  146.2920  156.9860  134.0760 C   0  0  0  0  0  0  0  0  0  0  0  0
  147.3080  157.5520  133.3010 C   0  0  0  0  0  0  0  0  0  0  0  0
  147.4420  158.8370  132.9140 N   0  0  0  0  0  0  0  0  0  0  0  0
  146.5470  159.9100  133.2300 C   0  0  0  0  0  0  0  0  0  0  0  0
  147.0070  160.9700  133.7320 O   0  0  0  0  0  0  0  0  0  0  0  0
  145.0760  159.7430  132.9780 C   0  0  0  0  0  0  0  0  0  0  0  0
  144.0330  160.7510  134.0960 S   0  0  0  0  0  0  0  0  0  0  0  0
  142.7760  159.4900  134.3350 C   0  0  0  0  0  0  0  0  0  0  0  0
  141.6880  159.7360  135.1820 C   0  0  0  0  0  0  0  0  0  0  0  0
  140.7020  158.7580  135.3600 C   0  0  0  0  0  0  0  0  0  0  0  0
  140.7970  157.5390  134.6810 C   0  0  0  0  0  0  0  0  0  0  0  0
  141.8730  157.2980  133.8220 C   0  0  0  0  0  0  0  0  0  0  0  0
  142.8600  158.2730  133.6470 C   0  0  0  0  0  0  0  0  0  0  0  0
  147.8160  161.7570  131.9020 H   0  0  0  0  0  0  0  0  0  0  0  0
  150.1293  157.3667  131.6211 H   0  0  0  0  0  0  0  0  0  0  0  0
  149.2964  154.8457  132.7045 H   0  0  0  0  0  0  0  0  0  0  0  0
  147.4817  153.7557  134.0631 H   0  0  0  0  0  0  0  0  0  0  0  0
  145.4550  157.5984  134.4427 H   0  0  0  0  0  0  0  0  0  0  0  0
  144.8634  160.0390  131.9401 H   0  0  0  0  0  0  0  0  0  0  0  0
  144.8302  158.6873  133.1654 H   0  0  0  0  0  0  0  0  0  0  0  0
  141.6081  160.6987  135.7080 H   0  0  0  0  0  0  0  0  0  0  0  0
  139.8533  158.9483  136.0334 H   0  0  0  0  0  0  0  0  0  0  0  0
  140.0242  156.7692  134.8231 H   0  0  0  0  0  0  0  0  0  0  0  0
  141.9434  156.3413  133.2836 H   0  0  0  0  0  0  0  0  0  0  0  0
  143.7041  158.0837  132.9676 H   0  0  0  0  0  0  0  0  0  0  0  0
  1  2  1  0
  2  3  2  0
  2  4  1  0
  4  5  2  0
  5  6  1  0
  6  7  2  0
  7  8  1  0
  8  9  2  0
  9 10  1  0
 10 11  1  0
 10 12  1  0
 10 13  1  0
  9 14  1  0
 14 15  2  0
 15 16  1  0
 16 17  1  0
 17 18  2  0
 17 19  1  0
 19 20  1  0
 20 21  1  0
 21 22  2  0
 22 23  1  0
 23 24  2  0
 24 25  1  0
 25 26  2  0
 16  4  1  0
 26 21  1  0
 15  6  1  0
  1 27  1  0
  5 28  1  0
  7 29  1  0
  8 30  1  0
 14 31  1  0
 19 32  1  0
 19 33  1  0
 22 34  1  0
 23 35  1  0
 24 36  1  0
 25 37  1  0
 26 38  1  0
M  CHG  1   1  -1
M  END
>  <UniqueID>  (94) 
94

>  <SMILES>  (94) 
[NH-]C(=O)c1cc2ccc(C(F)(F)F)cc2n1C(=O)CSc1ccccc1

>  <Energy>  (94) 
78.16634309560646

>  <Genealogy>  (94) 
[NH-]C(=O)c1cc2ccc(C(F)(F)F)cc2n1C(=O)CSc1ccccc1 (protonated)
[NH-]C(=O)c1cc2ccc(C(F)(F)F)cc2n1C(=O)CSc1ccccc1 (3D coordinates assigned)
[NH-]C(=O)c1cc2ccc(C(F)(F)F)cc2n1C(=O)CSc1ccccc1 (optimized conformer: 78.16634309560646 kcal/mol)

>  <smiles>  (94) 
NC(=O)c1cc2ccc(C(F)(F)F)cc2n1C(=O)CSc1ccccc1

>  <score_type>  (94) 
oracle

>  <origin>  (94) 
adg

>  <m_score__min__energy>  (94) 
-7.5599999999999996

>  <m_primary>  (94) 
energy

$$$$
94:0
     RDKit          3D

 49 51  0  0  0  0  0  0  0  0999 V2000
  142.1950  159.3730  132.9230 N   0  0  0  0  0  0  0  0  0  0  0  0
  143.2410  158.8910  133.7670 C   0  0  0  0  0  0  0  0  0  0  0  0
  144.3030  159.5590  133.8750 O   0  0  0  0  0  0  0  0  0  0  0  0
  143.0830  157.6480  134.5480 C   0  0  0  0  0  0  0  0  0  0  0  0
  143.9360  156.5560  134.4320 C   0  0  0  0  0  0  0  0  0  0  0  0
  143.4670  155.6320  135.3360 C   0  0  0  0  0  0  0  0  0  0  0  0
  143.9210  154.3480  135.6130 C   0  0  0  0  0  0  0  0  0  0  0  0
  143.2090  153.5860  136.5560 C   0  0  0  0  0  0  0  0  0  0  0  0
  142.0620  154.1160  137.1980 C   0  0  0  0  0  0  0  0  0  0  0  0
  141.3350  153.3150  138.1510 N   0  0  0  0  0  0  0  0  0  0  0  0
  140.2100  153.8920  138.8970 C   0  0  0  0  0  0  0  0  0  0  0  0
  140.4510  153.7990  140.4090 C   0  0  0  0  0  0  0  0  0  0  0  0
  141.4290  152.6810  140.8030 C   0  0  0  0  0  0  0  0  0  0  0  0
  140.8600  151.3990  140.5820 O   0  0  0  0  0  0  0  0  0  0  0  0
  140.5830  151.1880  139.2060 C   0  0  0  0  0  0  0  0  0  0  0  0
  141.6110  151.8790  138.2960 C   0  0  0  0  0  0  0  0  0  0  0  0
  141.6260  155.4240  136.8820 C   0  0  0  0  0  0  0  0  0  0  0  0
  142.3650  156.1680  135.9530 C   0  0  0  0  0  0  0  0  0  0  0  0
  142.1150  157.4100  135.4790 N   0  0  0  0  0  0  0  0  0  0  0  0
  140.9790  158.2370  135.7770 C   0  0  0  0  0  0  0  0  0  0  0  0
  140.7860  158.6400  136.9570 O   0  0  0  0  0  0  0  0  0  0  0  0
  140.0860  158.5710  134.7510 O   0  0  0  0  0  0  0  0  0  0  0  0
  139.7000  157.7220  133.7070 C   0  0  0  0  0  0  0  0  0  0  0  0
  140.4950  156.8700  133.2240 O   0  0  0  0  0  0  0  0  0  0  0  0
  138.3230  157.8590  133.1330 C   0  0  0  0  0  0  0  0  0  0  0  0
  138.2900  158.8640  131.9760 C   0  0  0  0  0  0  0  0  0  0  0  0
  139.6220  159.5240  131.7680 C   0  0  0  0  0  0  0  0  0  0  0  0
  140.4270  159.0750  130.9100 O   0  0  0  0  0  0  0  0  0  0  0  0
  139.9650  160.6460  132.5120 O   0  0  0  0  0  0  0  0  0  0  0  0
  141.2520  158.9230  132.9200 H   0  0  0  0  0  0  0  0  0  0  0  0
  142.3380  160.2340  132.3490 H   0  0  0  0  0  0  0  0  0  0  0  0
  144.8012  156.4532  133.7605 H   0  0  0  0  0  0  0  0  0  0  0  0
  144.8102  153.9404  135.1099 H   0  0  0  0  0  0  0  0  0  0  0  0
  143.5459  152.5672  136.7982 H   0  0  0  0  0  0  0  0  0  0  0  0
  140.0951  154.9490  138.6149 H   0  0  0  0  0  0  0  0  0  0  0  0
  139.2985  153.3275  138.6509 H   0  0  0  0  0  0  0  0  0  0  0  0
  140.8603  154.7590  140.7566 H   0  0  0  0  0  0  0  0  0  0  0  0
  139.4840  153.5652  140.8784 H   0  0  0  0  0  0  0  0  0  0  0  0
  142.3442  152.7760  140.2001 H   0  0  0  0  0  0  0  0  0  0  0  0
  141.6579  152.7803  141.8743 H   0  0  0  0  0  0  0  0  0  0  0  0
  140.5995  150.1071  139.0027 H   0  0  0  0  0  0  0  0  0  0  0  0
  139.5949  151.6202  138.9895 H   0  0  0  0  0  0  0  0  0  0  0  0
  142.6134  151.7514  138.7306 H   0  0  0  0  0  0  0  0  0  0  0  0
  141.5497  151.4172  137.2995 H   0  0  0  0  0  0  0  0  0  0  0  0
  140.7275  155.8472  137.3548 H   0  0  0  0  0  0  0  0  0  0  0  0
  137.9916  156.8776  132.7627 H   0  0  0  0  0  0  0  0  0  0  0  0
  137.6552  158.2262  133.9262 H   0  0  0  0  0  0  0  0  0  0  0  0
  138.0076  158.3351  131.0538 H   0  0  0  0  0  0  0  0  0  0  0  0
  137.5579  159.6462  132.2254 H   0  0  0  0  0  0  0  0  0  0  0  0
  1  2  1  0
  2  3  2  0
  2  4  1  0
  4  5  2  0
  5  6  1  0
  6  7  2  0
  7  8  1  0
  8  9  2  0
  9 10  1  0
 10 11  1  0
 11 12  1  0
 12 13  1  0
 13 14  1  0
 14 15  1  0
 15 16  1  0
  9 17  1  0
 17 18  2  0
 18 19  1  0
 19 20  1  0
 20 21  2  0
 20 22  1  0
 22 23  1  0
 23 24  2  0
 23 25  1  0
 25 26  1  0
 26 27  1  0
 27 28  2  0
 27 29  1  0
 19  4  1  0
 18  6  1  0
 16 10  1  0
  1 30  1  0
  1 31  1  0
  5 32  1  0
  7 33  1  0
  8 34  1  0
 11 35  1  0
 11 36  1  0
 12 37  1  0
 12 38  1  0
 13 39  1  0
 13 40  1  0
 15 41  1  0
 15 42  1  0
 16 43  1  0
 16 44  1  0
 17 45  1  0
 25 46  1  0
 25 47  1  0
 26 48  1  0
 26 49  1  0
M  CHG  1  29  -1
M  END
>  <UniqueID>  (95) 
95

>  <SMILES>  (95) 
NC(=O)c1cc2ccc(N3CCCOCC3)cc2n1C(=O)OC(=O)CCC(=O)[O-]

>  <Energy>  (95) 
95.21900438547887

>  <Genealogy>  (95) 
NC(=O)c1cc2ccc(N3CCCOCC3)cc2n1C(=O)OC(=O)CCC(=O)[O-] (protonated)
NC(=O)c1cc2ccc(N3CCCOCC3)cc2n1C(=O)OC(=O)CCC(=O)[O-] (3D coordinates assigned)
NC(=O)c1cc2ccc(N3CCCOCC3)cc2n1C(=O)OC(=O)CCC(=O)[O-] (nonaromatic ring conformer: 95.21900438547887 kcal/mol)

>  <smiles>  (95) 
NC(=O)c1cc2ccc(N3CCCOCC3)cc2n1C(=O)OC(=O)CCC(=O)O

>  <score_type>  (95) 
oracle

>  <origin>  (95) 
adg

>  <m_score__min__energy>  (95) 
-5.8799999999999999

>  <m_primary>  (95) 
energy

$$$$
95:0
     RDKit          3D

 45 47  0  0  0  0  0  0  0  0999 V2000
  138.3130  157.5240  133.2870 N   0  0  0  0  0  0  0  0  0  0  0  0
  139.2070  157.8370  134.3570 C   0  0  0  0  0  0  0  0  0  0  0  0
  138.7340  158.1790  135.4740 O   0  0  0  0  0  0  0  0  0  0  0  0
  140.6700  157.7150  134.1960 C   0  0  0  0  0  0  0  0  0  0  0  0
  141.3860  156.5660  134.5210 C   0  0  0  0  0  0  0  0  0  0  0  0
  142.6950  156.8530  134.2090 C   0  0  0  0  0  0  0  0  0  0  0  0
  143.8390  156.0760  134.3550 C   0  0  0  0  0  0  0  0  0  0  0  0
  145.0720  156.6440  133.9980 C   0  0  0  0  0  0  0  0  0  0  0  0
  145.1470  157.9790  133.5160 C   0  0  0  0  0  0  0  0  0  0  0  0
  146.4220  158.5600  133.1660 N   0  0  0  0  0  0  0  0  0  0  0  0
  147.6640  157.7920  133.3530 C   0  0  0  0  0  0  0  0  0  0  0  0
  148.8520  158.7290  133.5880 C   0  0  0  0  0  0  0  0  0  0  0  0
  149.0250  159.7500  132.4480 C   0  0  0  0  0  0  0  0  0  0  0  0
  147.7110  160.1000  131.7250 C   0  0  0  0  0  0  0  0  0  0  0  0
  146.4860  159.9310  132.6290 C   0  0  0  0  0  0  0  0  0  0  0  0
  143.9580  158.7360  133.3900 C   0  0  0  0  0  0  0  0  0  0  0  0
  142.7400  158.1350  133.7250 C   0  0  0  0  0  0  0  0  0  0  0  0
  141.5010  158.6780  133.7070 N   0  0  0  0  0  0  0  0  0  0  0  0
  141.1550  160.0340  133.3830 C   0  0  0  0  0  0  0  0  0  0  0  0
  141.8570  160.9790  133.8360 O   0  0  0  0  0  0  0  0  0  0  0  0
  139.8980  160.3470  132.6130 C   0  0  0  0  0  0  0  0  0  0  0  0
  139.7400  159.4730  131.3590 C   0  0  0  0  0  0  0  0  0  0  0  0
  138.3260  159.4580  130.8620 C   0  0  0  0  0  0  0  0  0  0  0  0
  137.5040  158.6180  131.3150 O   0  0  0  0  0  0  0  0  0  0  0  0
  137.9110  160.3840  129.9130 O   0  0  0  0  0  0  0  0  0  0  0  0
  138.6510  157.0560  132.4190 H   0  0  0  0  0  0  0  0  0  0  0  0
  137.2850  157.6700  133.4070 H   0  0  0  0  0  0  0  0  0  0  0  0
  140.9897  155.6285  134.9383 H   0  0  0  0  0  0  0  0  0  0  0  0
  143.7795  155.0469  134.7388 H   0  0  0  0  0  0  0  0  0  0  0  0
  145.9919  156.0483  134.0925 H   0  0  0  0  0  0  0  0  0  0  0  0
  147.5503  157.1285  134.2230 H   0  0  0  0  0  0  0  0  0  0  0  0
  147.8543  157.2022  132.4442 H   0  0  0  0  0  0  0  0  0  0  0  0
  148.6918  159.2741  134.5299 H   0  0  0  0  0  0  0  0  0  0  0  0
  149.7629  158.1138  133.6301 H   0  0  0  0  0  0  0  0  0  0  0  0
  149.4456  160.6744  132.8707 H   0  0  0  0  0  0  0  0  0  0  0  0
  149.6892  159.2891  131.7020 H   0  0  0  0  0  0  0  0  0  0  0  0
  147.7604  161.1461  131.3885 H   0  0  0  0  0  0  0  0  0  0  0  0
  147.6001  159.4092  130.8762 H   0  0  0  0  0  0  0  0  0  0  0  0
  146.5522  160.6436  133.4644 H   0  0  0  0  0  0  0  0  0  0  0  0
  145.5792  160.1221  132.0364 H   0  0  0  0  0  0  0  0  0  0  0  0
  143.9909  159.7768  133.0355 H   0  0  0  0  0  0  0  0  0  0  0  0
  139.0317  160.1803  133.2700 H   0  0  0  0  0  0  0  0  0  0  0  0
  139.9615  161.3945  132.2832 H   0  0  0  0  0  0  0  0  0  0  0  0
  140.3915  159.8684  130.5657 H   0  0  0  0  0  0  0  0  0  0  0  0
  140.0187  158.4426  131.6246 H   0  0  0  0  0  0  0  0  0  0  0  0
  1  2  1  0
  2  3  2  0
  2  4  1  0
  4  5  2  0
  5  6  1  0
  6  7  2  0
  7  8  1  0
  8  9  2  0
  9 10  1  0
 10 11  1  0
 11 12  1  0
 12 13  1  0
 13 14  1  0
 14 15  1  0
  9 16  1  0
 16 17  2  0
 17 18  1  0
 18 19  1  0
 19 20  2  0
 19 21  1  0
 21 22  1  0
 22 23  1  0
 23 24  2  0
 23 25  1  0
 18  4  1  0
 17  6  1  0
 15 10  1  0
  1 26  1  0
  1 27  1  0
  5 28  1  0
  7 29  1  0
  8 30  1  0
 11 31  1  0
 11 32  1  0
 12 33  1  0
 12 34  1  0
 13 35  1  0
 13 36  1  0
 14 37  1  0
 14 38  1  0
 15 39  1  0
 15 40  1  0
 16 41  1  0
 21 42  1  0
 21 43  1  0
 22 44  1  0
 22 45  1  0
M  CHG  1  25  -1
M  END
>  <UniqueID>  (96) 
96

>  <SMILES>  (96) 
NC(=O)c1cc2ccc(N3CCCCC3)cc2n1C(=O)CCC(=O)[O-]

>  <Energy>  (96) 
87.74249835940361

>  <Genealogy>  (96) 
NC(=O)c1cc2ccc(N3CCCCC3)cc2n1C(=O)CCC(=O)[O-] (protonated)
NC(=O)c1cc2ccc(N3CCCCC3)cc2n1C(=O)CCC(=O)[O-] (3D coordinates assigned)
NC(=O)c1cc2ccc(N3CCCCC3)cc2n1C(=O)CCC(=O)[O-] (nonaromatic ring conformer: 87.74249835940361 kcal/mol)

>  <smiles>  (96) 
NC(=O)c1cc2ccc(N3CCCCC3)cc2n1C(=O)CCC(=O)O

>  <score_type>  (96) 
oracle

>  <origin>  (96) 
adg

>  <m_score__min__energy>  (96) 
-8.5199999999999996

>  <m_primary>  (96) 
energy

$$$$
96:0
     RDKit          3D

 46 48  0  0  0  0  0  0  0  0999 V2000
  148.4700  158.0770  134.0950 N   0  0  0  0  0  0  0  0  0  0  0  0
  147.6430  158.7440  133.1400 C   0  0  0  0  0  0  0  0  0  0  0  0
  148.1680  159.1830  132.0820 O   0  0  0  0  0  0  0  0  0  0  0  0
  146.1880  158.9130  133.3750 C   0  0  0  0  0  0  0  0  0  0  0  0
  145.5200  160.1370  133.3360 C   0  0  0  0  0  0  0  0  0  0  0  0
  144.2090  159.8490  133.6400 C   0  0  0  0  0  0  0  0  0  0  0  0
  143.1040  160.6900  133.7300 C   0  0  0  0  0  0  0  0  0  0  0  0
  141.8590  160.1120  134.0310 C   0  0  0  0  0  0  0  0  0  0  0  0
  141.7330  158.7100  134.2060 C   0  0  0  0  0  0  0  0  0  0  0  0
  140.3980  158.1060  134.5620 C   0  0  0  0  0  0  0  0  0  0  0  0
  140.0320  158.4560  135.8510 F   0  0  0  0  0  0  0  0  0  0  0  0
  139.4130  158.5500  133.6970 F   0  0  0  0  0  0  0  0  0  0  0  0
  140.4850  156.7290  134.4780 F   0  0  0  0  0  0  0  0  0  0  0  0
  142.8840  157.8920  134.1260 C   0  0  0  0  0  0  0  0  0  0  0  0
  144.1140  158.4990  133.8510 C   0  0  0  0  0  0  0  0  0  0  0  0
  145.3230  157.9140  133.7050 N   0  0  0  0  0  0  0  0  0  0  0  0
  145.6100  156.5110  133.8230 C   0  0  0  0  0  0  0  0  0  0  0  0
  145.1260  155.8530  134.7820 O   0  0  0  0  0  0  0  0  0  0  0  0
  146.4310  155.8100  132.7830 C   0  0  0  0  0  0  0  0  0  0  0  0
  147.9930  155.2870  133.4710 S   0  0  0  0  0  0  0  0  0  0  0  0
  148.0230  155.6050  134.9410 O   0  0  0  0  0  0  0  0  0  0  0  0
  149.1010  156.0360  132.7820 O   0  0  0  0  0  0  0  0  0  0  0  0
  148.2070  153.5710  133.2220 N   0  0  0  0  0  0  0  0  0  0  0  0
  149.2600  153.3290  132.2230 C   0  0  0  0  0  0  0  0  0  0  0  0
  149.6070  151.8290  132.1600 C   0  0  0  0  0  0  0  0  0  0  0  0
  148.4470  150.9380  132.6320 C   0  0  0  0  0  0  0  0  0  0  0  0
  147.0980  151.5380  132.2330 C   0  0  0  0  0  0  0  0  0  0  0  0
  146.9250  152.9710  132.7870 C   0  0  0  0  0  0  0  0  0  0  0  0
  149.4860  157.9360  133.8970 H   0  0  0  0  0  0  0  0  0  0  0  0
  148.1000  157.7600  135.0170 H   0  0  0  0  0  0  0  0  0  0  0  0
  145.9502  161.1238  133.1100 H   0  0  0  0  0  0  0  0  0  0  0  0
  143.2021  161.7739  133.5704 H   0  0  0  0  0  0  0  0  0  0  0  0
  140.9717  160.7543  134.1321 H   0  0  0  0  0  0  0  0  0  0  0  0
  142.8137  156.8046  134.2764 H   0  0  0  0  0  0  0  0  0  0  0  0
  145.8813  154.9287  132.4208 H   0  0  0  0  0  0  0  0  0  0  0  0
  146.6221  156.5045  131.9517 H   0  0  0  0  0  0  0  0  0  0  0  0
  148.9060  153.6608  131.2358 H   0  0  0  0  0  0  0  0  0  0  0  0
  150.1605  153.8915  132.5107 H   0  0  0  0  0  0  0  0  0  0  0  0
  149.8531  151.5669  131.1204 H   0  0  0  0  0  0  0  0  0  0  0  0
  150.4593  151.6538  132.8330 H   0  0  0  0  0  0  0  0  0  0  0  0
  148.5480  149.9431  132.1737 H   0  0  0  0  0  0  0  0  0  0  0  0
  148.4866  150.8627  133.7287 H   0  0  0  0  0  0  0  0  0  0  0  0
  147.0322  151.5694  131.1354 H   0  0  0  0  0  0  0  0  0  0  0  0
  146.3026  150.9074  132.6569 H   0  0  0  0  0  0  0  0  0  0  0  0
  146.4893  153.6032  131.9993 H   0  0  0  0  0  0  0  0  0  0  0  0
  146.2688  152.9111  133.6678 H   0  0  0  0  0  0  0  0  0  0  0  0
  1  2  1  0
  2  3  2  0
  2  4  1  0
  4  5  2  0
  5  6  1  0
  6  7  2  0
  7  8  1  0
  8  9  2  0
  9 10  1  0
 10 11  1  0
 10 12  1  0
 10 13  1  0
  9 14  1  0
 14 15  2  0
 15 16  1  0
 16 17  1  0
 17 18  2  0
 17 19  1  0
 19 20  1  0
 20 21  2  0
 20 22  2  0
 20 23  1  0
 23 24  1  0
 24 25  1  0
 25 26  1  0
 26 27  1  0
 27 28  1  0
 16  4  1  0
 28 23  1  0
 15  6  1  0
  1 29  1  0
  1 30  1  0
  5 31  1  0
  7 32  1  0
  8 33  1  0
 14 34  1  0
 19 35  1  0
 19 36  1  0
 24 37  1  0
 24 38  1  0
 25 39  1  0
 25 40  1  0
 26 41  1  0
 26 42  1  0
 27 43  1  0
 27 44  1  0
 28 45  1  0
 28 46  1  0
M  END
>  <UniqueID>  (97) 
97

>  <SMILES>  (97) 
NC(=O)c1cc2ccc(C(F)(F)F)cc2n1C(=O)CS(=O)(=O)N1CCCCC1

>  <Energy>  (97) 
84.37885990186383

>  <Genealogy>  (97) 
NC(=O)c1cc2ccc(C(F)(F)F)cc2n1C(=O)CS(=O)(=O)N1CCCCC1 (3D coordinates assigned)
NC(=O)c1cc2ccc(C(F)(F)F)cc2n1C(=O)CS(=O)(=O)N1CCCCC1 (nonaromatic ring conformer: 84.37885990186383 kcal/mol)

>  <smiles>  (97) 
NC(=O)c1cc2ccc(C(F)(F)F)cc2n1C(=O)CS(=O)(=O)N1CCCCC1

>  <score_type>  (97) 
oracle

>  <origin>  (97) 
adg

>  <m_score__min__energy>  (97) 
-8.1199999999999992

>  <m_primary>  (97) 
energy

$$$$
97:0
     RDKit          3D

 38 40  0  0  0  0  0  0  0  0999 V2000
  149.2160  157.4890  131.8520 N   0  0  0  0  0  0  0  0  0  0  0  0
  148.7870  158.6980  132.4800 C   0  0  0  0  0  0  0  0  0  0  0  0
  149.6360  159.5920  132.7420 O   0  0  0  0  0  0  0  0  0  0  0  0
  147.3780  158.9010  132.8750 C   0  0  0  0  0  0  0  0  0  0  0  0
  146.7920  160.1560  133.0180 C   0  0  0  0  0  0  0  0  0  0  0  0
  145.5080  159.9110  133.4500 C   0  0  0  0  0  0  0  0  0  0  0  0
  144.4780  160.7970  133.7450 C   0  0  0  0  0  0  0  0  0  0  0  0
  143.2420  160.2620  134.1450 C   0  0  0  0  0  0  0  0  0  0  0  0
  143.0510  158.8580  134.2380 C   0  0  0  0  0  0  0  0  0  0  0  0
  141.7320  158.3220  134.6540 C   0  0  0  0  0  0  0  0  0  0  0  0
  140.9050  157.4770  133.9320 C   0  0  0  0  0  0  0  0  0  0  0  0
  139.8400  157.2460  134.6590 O   0  0  0  0  0  0  0  0  0  0  0  0
  139.9950  157.9120  135.7780 C   0  0  0  0  0  0  0  0  0  0  0  0
  139.1460  157.9080  136.7070 O   0  0  0  0  0  0  0  0  0  0  0  0
  141.1490  158.6030  135.8390 N   0  0  0  0  0  0  0  0  0  0  0  0
  144.1260  157.9900  133.9270 C   0  0  0  0  0  0  0  0  0  0  0  0
  145.3500  158.5540  133.5470 C   0  0  0  0  0  0  0  0  0  0  0  0
  146.4870  157.9190  133.1890 N   0  0  0  0  0  0  0  0  0  0  0  0
  146.6640  156.4960  133.0810 C   0  0  0  0  0  0  0  0  0  0  0  0
  146.6270  155.9560  131.9440 O   0  0  0  0  0  0  0  0  0  0  0  0
  146.9340  155.6820  134.2880 C   0  0  0  0  0  0  0  0  0  0  0  0
  146.2320  155.8700  135.3160 O   0  0  0  0  0  0  0  0  0  0  0  0
  147.9600  154.6810  134.3390 N   0  0  0  0  0  0  0  0  0  0  0  0
  147.9800  153.4410  133.5730 C   0  0  0  0  0  0  0  0  0  0  0  0
  149.1080  153.4880  132.5520 C   0  0  0  0  0  0  0  0  0  0  0  0
  149.4790  154.8190  132.3270 O   0  0  0  0  0  0  0  0  0  0  0  0
  148.5890  156.6580  131.7880 H   0  0  0  0  0  0  0  0  0  0  0  0
  150.2050  157.3900  131.5290 H   0  0  0  0  0  0  0  0  0  0  0  0
  147.2562  161.1347  132.8266 H   0  0  0  0  0  0  0  0  0  0  0  0
  144.6263  161.8842  133.6675 H   0  0  0  0  0  0  0  0  0  0  0  0
  142.4110  160.9399  134.3895 H   0  0  0  0  0  0  0  0  0  0  0  0
  141.1064  157.0728  132.9290 H   0  0  0  0  0  0  0  0  0  0  0  0
  144.0023  156.8984  133.9827 H   0  0  0  0  0  0  0  0  0  0  0  0
  148.1387  152.5924  134.2547 H   0  0  0  0  0  0  0  0  0  0  0  0
  147.0198  153.3197  133.0503 H   0  0  0  0  0  0  0  0  0  0  0  0
  149.9727  152.9261  132.9349 H   0  0  0  0  0  0  0  0  0  0  0  0
  148.7669  153.0380  131.6080 H   0  0  0  0  0  0  0  0  0  0  0  0
  148.6470  155.3530  132.4040 H   0  0  0  0  0  0  0  0  0  0  0  0
  1  2  1  0
  2  3  2  0
  2  4  1  0
  4  5  2  0
  5  6  1  0
  6  7  2  0
  7  8  1  0
  8  9  2  0
  9 10  1  0
 10 11  2  0
 11 12  1  0
 12 13  1  0
 13 14  2  0
 13 15  1  0
  9 16  1  0
 16 17  2  0
 17 18  1  0
 18 19  1  0
 19 20  2  0
 19 21  1  0
 21 22  2  0
 21 23  1  0
 23 24  1  0
 24 25  1  0
 25 26  1  0
 18  4  1  0
 17  6  1  0
 15 10  1  0
  1 27  1  0
  1 28  1  0
  5 29  1  0
  7 30  1  0
  8 31  1  0
 11 32  1  0
 16 33  1  0
 24 34  1  0
 24 35  1  0
 25 36  1  0
 25 37  1  0
 26 38  1  0
M  CHG  2  15  -1  23  -1
M  END
>  <UniqueID>  (98) 
98

>  <SMILES>  (98) 
NC(=O)c1cc2ccc(-c3coc(=O)[n-]3)cc2n1C(=O)C(=O)[N-]CCO

>  <Energy>  (98) 
109.19552475421712

>  <Genealogy>  (98) 
NC(=O)c1cc2ccc(-c3coc(=O)[n-]3)cc2n1C(=O)C(=O)[N-]CCO (protonated)
NC(=O)c1cc2ccc(-c3coc(=O)[n-]3)cc2n1C(=O)C(=O)[N-]CCO (3D coordinates assigned)
NC(=O)c1cc2ccc(-c3coc(=O)[n-]3)cc2n1C(=O)C(=O)[N-]CCO (optimized conformer: 109.19552475421712 kcal/mol)

>  <smiles>  (98) 
NC(=O)c1cc2ccc(-c3coc(=O)[nH]3)cc2n1C(=O)C(=O)NCCO

>  <score_type>  (98) 
oracle

>  <origin>  (98) 
adg

>  <m_score__min__energy>  (98) 
-6.5899999999999999

>  <m_primary>  (98) 
energy

$$$$
