0:0
     RDKit          3D

 27 29  0  0  0  0  0  0  0  0999 V2000
  138.7370  155.7130  133.0140 N   0  0  0  0  0  0  0  0  0  0  0  0
  140.0970  155.3540  133.2570 C   0  0  0  0  0  0  0  0  0  0  0  0
  140.3880  154.1470  133.4700 O   0  0  0  0  0  0  0  0  0  0  0  0
  141.1570  156.3790  133.3290 C   0  0  0  0  0  0  0  0  0  0  0  0
  142.5150  156.0790  133.2670 C   0  0  0  0  0  0  0  0  0  0  0  0
  143.1590  157.2820  133.4370 C   0  0  0  0  0  0  0  0  0  0  0  0
  144.5200  157.5720  133.4480 C   0  0  0  0  0  0  0  0  0  0  0  0
  144.9080  158.9120  133.6050 C   0  0  0  0  0  0  0  0  0  0  0  0
  143.9350  159.9360  133.7370 C   0  0  0  0  0  0  0  0  0  0  0  0
  144.3480  161.3440  133.8870 C   0  0  0  0  0  0  0  0  0  0  0  0
  145.4840  161.7440  134.4950 N   0  0  0  0  0  0  0  0  0  0  0  0
  145.4000  163.0840  134.3730 C   0  0  0  0  0  0  0  0  0  0  0  0
  144.2810  163.4700  133.7320 N   0  0  0  0  0  0  0  0  0  0  0  0
  143.6590  162.3680  133.4480 O   0  0  0  0  0  0  0  0  0  0  0  0
  142.5620  159.6020  133.7190 C   0  0  0  0  0  0  0  0  0  0  0  0
  142.2030  158.2550  133.5820 C   0  0  0  0  0  0  0  0  0  0  0  0
  140.9650  157.7150  133.5150 N   0  0  0  0  0  0  0  0  0  0  0  0
  139.7130  158.4230  133.5080 C   0  0  0  0  0  0  0  0  0  0  0  0
  139.4400  159.2280  132.5800 O   0  0  0  0  0  0  0  0  0  0  0  0
  138.7870  158.2220  134.5250 O   0  0  0  0  0  0  0  0  0  0  0  0
  138.4380  156.7130  132.9970 H   0  0  0  0  0  0  0  0  0  0  0  0
  138.0050  154.9720  132.9300 H   0  0  0  0  0  0  0  0  0  0  0  0
  142.9744  155.0912  133.1147 H   0  0  0  0  0  0  0  0  0  0  0  0
  145.2697  156.7748  133.3369 H   0  0  0  0  0  0  0  0  0  0  0  0
  145.9770  159.1706  133.6259 H   0  0  0  0  0  0  0  0  0  0  0  0
  146.1595  163.7825  134.7540 H   0  0  0  0  0  0  0  0  0  0  0  0
  141.7923  160.3825  133.8105 H   0  0  0  0  0  0  0  0  0  0  0  0
  1  2  1  0
  2  3  2  0
  2  4  1  0
  4  5  2  0
  5  6  1  0
  6  7  2  0
  7  8  1  0
  8  9  2  0
  9 10  1  0
 10 11  2  0
 11 12  1  0
 12 13  2  0
 13 14  1  0
  9 15  1  0
 15 16  2  0
 16 17  1  0
 17 18  1  0
 18 19  2  0
 18 20  1  0
 17  4  1  0
 16  6  1  0
 14 10  1  0
  1 21  1  0
  1 22  1  0
  5 23  1  0
  7 24  1  0
  8 25  1  0
 12 26  1  0
 15 27  1  0
M  CHG  1  20  -1
M  END
>  <UniqueID>  (1) 
1

>  <SMILES>  (1) 
NC(=O)c1cc2ccc(-c3ncno3)cc2n1C(=O)[O-]

>  <Energy>  (1) 
102.8645136298185

>  <Genealogy>  (1) 
NC(=O)c1cc2ccc(-c3ncno3)cc2n1C(=O)[O-] (protonated)
NC(=O)c1cc2ccc(-c3ncno3)cc2n1C(=O)[O-] (3D coordinates assigned)
NC(=O)c1cc2ccc(-c3ncno3)cc2n1C(=O)[O-] (optimized conformer: 102.8645136298185 kcal/mol)

>  <smiles>  (1) 
NC(=O)c1cc2ccc(-c3ncno3)cc2n1C(=O)O

>  <score_type>  (1) 
oracle

>  <origin>  (1) 
adg

>  <m_score__min__energy>  (1) 
-6.5300000000000002

>  <m_primary>  (1) 
energy

$$$$
1:0
     RDKit          3D

 37 38  0  0  0  0  0  0  0  0999 V2000
  139.0980  146.2450  129.2090 C   0  0  0  0  0  0  0  0  0  0  0  0
  139.3200  147.0540  130.2430 C   0  0  0  0  0  0  0  0  0  0  0  0
  138.9240  148.4760  130.2360 C   0  0  0  0  0  0  0  0  0  0  0  0
  138.7340  149.0840  129.1470 O   0  0  0  0  0  0  0  0  0  0  0  0
  138.7880  149.2250  131.5280 C   0  0  0  0  0  0  0  0  0  0  0  0
  140.1160  149.7980  131.9360 C   0  0  0  0  0  0  0  0  0  0  0  0
  141.2970  149.0270  131.8010 C   0  0  0  0  0  0  0  0  0  0  0  0
  142.5480  149.5700  132.1380 C   0  0  0  0  0  0  0  0  0  0  0  0
  142.5870  150.8810  132.6040 C   0  0  0  0  0  0  0  0  0  0  0  0
  143.6620  151.6580  132.9710 C   0  0  0  0  0  0  0  0  0  0  0  0
  143.1200  152.8890  133.3360 C   0  0  0  0  0  0  0  0  0  0  0  0
  143.9270  154.0000  133.8830 C   0  0  0  0  0  0  0  0  0  0  0  0
  143.7750  154.4200  135.2360 N   0  0  0  0  0  0  0  0  0  0  0  0
  144.7980  154.5520  133.1600 O   0  0  0  0  0  0  0  0  0  0  0  0
  141.7640  152.8760  133.1920 N   0  0  0  0  0  0  0  0  0  0  0  0
  140.8450  153.9640  133.3810 C   0  0  0  0  0  0  0  0  0  0  0  0
  139.8600  154.0990  132.6050 O   0  0  0  0  0  0  0  0  0  0  0  0
  141.0310  154.8530  134.4430 O   0  0  0  0  0  0  0  0  0  0  0  0
  141.1980  156.2540  134.2560 C   0  0  0  0  0  0  0  0  0  0  0  0
  139.8670  156.8750  133.8650 C   0  0  0  0  0  0  0  0  0  0  0  0
  141.4530  151.6390  132.7480 C   0  0  0  0  0  0  0  0  0  0  0  0
  140.1960  151.1300  132.4020 C   0  0  0  0  0  0  0  0  0  0  0  0
  139.4103  145.1914  129.2580 H   0  0  0  0  0  0  0  0  0  0  0  0
  138.6023  146.6302  128.3058 H   0  0  0  0  0  0  0  0  0  0  0  0
  139.8172  146.6474  131.1360 H   0  0  0  0  0  0  0  0  0  0  0  0
  138.0631  150.0424  131.3999 H   0  0  0  0  0  0  0  0  0  0  0  0
  138.4391  148.5338  132.3094 H   0  0  0  0  0  0  0  0  0  0  0  0
  141.2337  147.9938  131.4289 H   0  0  0  0  0  0  0  0  0  0  0  0
  143.4689  148.9771  132.0367 H   0  0  0  0  0  0  0  0  0  0  0  0
  144.7233  151.3689  132.9753 H   0  0  0  0  0  0  0  0  0  0  0  0
  142.8380  154.6820  135.6150 H   0  0  0  0  0  0  0  0  0  0  0  0
  141.5541  156.7090  135.1920 H   0  0  0  0  0  0  0  0  0  0  0  0
  141.9343  156.4323  133.4584 H   0  0  0  0  0  0  0  0  0  0  0  0
  139.3041  157.1376  134.7729 H   0  0  0  0  0  0  0  0  0  0  0  0
  140.0465  157.7823  133.2696 H   0  0  0  0  0  0  0  0  0  0  0  0
  139.2870  156.1545  133.2696 H   0  0  0  0  0  0  0  0  0  0  0  0
  139.2926  151.7513  132.4905 H   0  0  0  0  0  0  0  0  0  0  0  0
  1  2  2  0
  2  3  1  0
  3  4  2  0
  3  5  1  0
  5  6  1  0
  6  7  2  0
  7  8  1  0
  8  9  2  0
  9 10  1  0
 10 11  2  0
 11 12  1  0
 12 13  1  0
 12 14  2  0
 11 15  1  0
 15 16  1  0
 16 17  2  0
 16 18  1  0
 18 19  1  0
 19 20  1  0
 15 21  1  0
 21 22  2  0
 22  6  1  0
 21  9  1  0
  1 23  1  0
  1 24  1  0
  2 25  1  0
  5 26  1  0
  5 27  1  0
  7 28  1  0
  8 29  1  0
 10 30  1  0
 13 31  1  0
 19 32  1  0
 19 33  1  0
 20 34  1  0
 20 35  1  0
 20 36  1  0
 22 37  1  0
M  CHG  1  13  -1
M  END
>  <UniqueID>  (2) 
2

>  <SMILES>  (2) 
C=CC(=O)Cc1ccc2cc(C([NH-])=O)n(C(=O)OCC)c2c1

>  <Energy>  (2) 
67.54862166297836

>  <Genealogy>  (2) 
C=CC(=O)Cc1ccc2cc(C([NH-])=O)n(C(=O)OCC)c2c1 (protonated)
C=CC(=O)Cc1ccc2cc(C([NH-])=O)n(C(=O)OCC)c2c1 (3D coordinates assigned)
C=CC(=O)Cc1ccc2cc(C([NH-])=O)n(C(=O)OCC)c2c1 (optimized conformer: 67.54862166297836 kcal/mol)

>  <smiles>  (2) 
C=CC(=O)Cc1ccc2cc(C(N)=O)n(C(=O)OCC)c2c1

>  <score_type>  (2) 
oracle

>  <origin>  (2) 
adg

>  <m_score__min__energy>  (2) 
-6.5999999999999996

>  <m_primary>  (2) 
energy

$$$$
2:0
     RDKit          3D

 29 30  0  0  0  0  0  0  0  0999 V2000
  140.9900  153.6880  133.0480 C   0  0  0  0  0  0  0  0  0  0  0  0
  141.1090  155.0730  133.3520 O   0  0  0  0  0  0  0  0  0  0  0  0
  140.0450  155.9690  133.2120 C   0  0  0  0  0  0  0  0  0  0  0  0
  138.9890  155.6120  132.6200 O   0  0  0  0  0  0  0  0  0  0  0  0
  140.1560  157.3010  133.7400 N   0  0  0  0  0  0  0  0  0  0  0  0
  140.0580  158.4750  133.0560 C   0  0  0  0  0  0  0  0  0  0  0  0
  139.6570  158.6220  131.6430 C   0  0  0  0  0  0  0  0  0  0  0  0
  138.5890  157.8500  131.0920 N   0  0  0  0  0  0  0  0  0  0  0  0
  140.2290  159.4850  130.9240 O   0  0  0  0  0  0  0  0  0  0  0  0
  140.3450  159.5550  133.8870 C   0  0  0  0  0  0  0  0  0  0  0  0
  140.6100  159.0030  135.1180 C   0  0  0  0  0  0  0  0  0  0  0  0
  140.9800  159.6170  136.3100 C   0  0  0  0  0  0  0  0  0  0  0  0
  141.2400  158.7990  137.4220 C   0  0  0  0  0  0  0  0  0  0  0  0
  141.1200  157.3890  137.3270 C   0  0  0  0  0  0  0  0  0  0  0  0
  141.4660  156.5170  138.5090 C   0  0  0  0  0  0  0  0  0  0  0  0
  141.8920  157.2880  139.5760 F   0  0  0  0  0  0  0  0  0  0  0  0
  140.3470  155.8000  138.8890 F   0  0  0  0  0  0  0  0  0  0  0  0
  142.4800  155.6330  138.1830 F   0  0  0  0  0  0  0  0  0  0  0  0
  140.7670  156.8000  136.0900 C   0  0  0  0  0  0  0  0  0  0  0  0
  140.4910  157.6420  135.0050 C   0  0  0  0  0  0  0  0  0  0  0  0
  140.9404  153.1104  133.9828 H   0  0  0  0  0  0  0  0  0  0  0  0
  140.0740  153.5184  132.4631 H   0  0  0  0  0  0  0  0  0  0  0  0
  141.8637  153.3646  132.4631 H   0  0  0  0  0  0  0  0  0  0  0  0
  138.3460  157.9390  130.0810 H   0  0  0  0  0  0  0  0  0  0  0  0
  137.9840  157.2550  131.7000 H   0  0  0  0  0  0  0  0  0  0  0  0
  140.3571  160.6211  133.6165 H   0  0  0  0  0  0  0  0  0  0  0  0
  141.0665  160.7114  136.3799 H   0  0  0  0  0  0  0  0  0  0  0  0
  141.5398  159.2567  138.3763 H   0  0  0  0  0  0  0  0  0  0  0  0
  140.7106  155.7067  135.9828 H   0  0  0  0  0  0  0  0  0  0  0  0
  1  2  1  0
  2  3  1  0
  3  4  2  0
  3  5  1  0
  5  6  1  0
  6  7  1  0
  7  8  1  0
  7  9  2  0
  6 10  2  0
 10 11  1  0
 11 12  2  0
 12 13  1  0
 13 14  2  0
 14 15  1  0
 15 16  1  0
 15 17  1  0
 15 18  1  0
 14 19  1  0
 19 20  2  0
 20  5  1  0
 20 11  1  0
  1 21  1  0
  1 22  1  0
  1 23  1  0
  8 24  1  0
  8 25  1  0
 10 26  1  0
 12 27  1  0
 13 28  1  0
 19 29  1  0
M  END
>  <UniqueID>  (3) 
3

>  <SMILES>  (3) 
COC(=O)n1c(C(N)=O)cc2ccc(C(F)(F)F)cc21

>  <Energy>  (3) 
67.42554875889081

>  <Genealogy>  (3) 
COC(=O)n1c(C(N)=O)cc2ccc(C(F)(F)F)cc21 (3D coordinates assigned)
COC(=O)n1c(C(N)=O)cc2ccc(C(F)(F)F)cc21 (optimized conformer: 67.42554875889081 kcal/mol)

>  <smiles>  (3) 
COC(=O)n1c(C(N)=O)cc2ccc(C(F)(F)F)cc21

>  <score_type>  (3) 
oracle

>  <origin>  (3) 
adg

>  <m_score__min__energy>  (3) 
-5.5700000000000003

>  <m_primary>  (3) 
energy

$$$$
3:0
     RDKit          3D

 37 39  0  0  0  0  0  0  0  0999 V2000
  139.8550  150.1840  131.6370 C   0  0  0  0  0  0  0  0  0  0  0  0
  140.7490  150.2960  132.8350 C   0  0  0  0  0  0  0  0  0  0  0  0
  140.5240  149.5440  133.8220 O   0  0  0  0  0  0  0  0  0  0  0  0
  141.8810  151.2620  132.8840 C   0  0  0  0  0  0  0  0  0  0  0  0
  143.2010  150.8580  132.6100 C   0  0  0  0  0  0  0  0  0  0  0  0
  144.2520  151.7790  132.6610 C   0  0  0  0  0  0  0  0  0  0  0  0
  144.0100  153.1240  132.9850 C   0  0  0  0  0  0  0  0  0  0  0  0
  145.1270  154.1020  133.0380 C   0  0  0  0  0  0  0  0  0  0  0  0
  146.4730  153.6580  132.9550 C   0  0  0  0  0  0  0  0  0  0  0  0
  147.5360  154.5750  132.9900 C   0  0  0  0  0  0  0  0  0  0  0  0
  147.2300  155.9250  133.1190 C   0  0  0  0  0  0  0  0  0  0  0  0
  148.0620  157.0200  133.1410 C   0  0  0  0  0  0  0  0  0  0  0  0
  147.2180  158.1190  133.2700 C   0  0  0  0  0  0  0  0  0  0  0  0
  147.7070  159.5070  133.3940 C   0  0  0  0  0  0  0  0  0  0  0  0
  146.9740  160.6020  132.8440 N   0  0  0  0  0  0  0  0  0  0  0  0
  148.7610  159.7350  134.0460 O   0  0  0  0  0  0  0  0  0  0  0  0
  145.9140  157.7240  133.3120 N   0  0  0  0  0  0  0  0  0  0  0  0
  144.7460  158.5640  133.3270 C   0  0  0  0  0  0  0  0  0  0  0  0
  144.7450  159.6390  133.9830 O   0  0  0  0  0  0  0  0  0  0  0  0
  143.6090  158.2010  132.6180 O   0  0  0  0  0  0  0  0  0  0  0  0
  145.9380  156.3750  133.2210 C   0  0  0  0  0  0  0  0  0  0  0  0
  144.8590  155.4850  133.1660 C   0  0  0  0  0  0  0  0  0  0  0  0
  142.6930  153.5290  133.2580 C   0  0  0  0  0  0  0  0  0  0  0  0
  141.6410  152.6100  133.2080 C   0  0  0  0  0  0  0  0  0  0  0  0
  138.8139  150.0536  131.9673 H   0  0  0  0  0  0  0  0  0  0  0  0
  139.9359  151.0993  131.0323 H   0  0  0  0  0  0  0  0  0  0  0  0
  140.1592  149.3169  131.0323 H   0  0  0  0  0  0  0  0  0  0  0  0
  143.4078  149.8085  132.3535 H   0  0  0  0  0  0  0  0  0  0  0  0
  145.2782  151.4469  132.4453 H   0  0  0  0  0  0  0  0  0  0  0  0
  146.6858  152.5828  132.8622 H   0  0  0  0  0  0  0  0  0  0  0  0
  148.5797  154.2352  132.9175 H   0  0  0  0  0  0  0  0  0  0  0  0
  149.1598  157.0258  133.0715 H   0  0  0  0  0  0  0  0  0  0  0  0
  146.0170  160.4660  132.4490 H   0  0  0  0  0  0  0  0  0  0  0  0
  147.3540  161.5720  132.9070 H   0  0  0  0  0  0  0  0  0  0  0  0
  143.8240  155.8535  133.2212 H   0  0  0  0  0  0  0  0  0  0  0  0
  142.4876  154.5790  133.5135 H   0  0  0  0  0  0  0  0  0  0  0  0
  140.6154  152.9439  133.4241 H   0  0  0  0  0  0  0  0  0  0  0  0
  1  2  1  0
  2  3  2  0
  2  4  1  0
  4  5  2  0
  5  6  1  0
  6  7  2  0
  7  8  1  0
  8  9  2  0
  9 10  1  0
 10 11  2  0
 11 12  1  0
 12 13  2  0
 13 14  1  0
 14 15  1  0
 14 16  2  0
 13 17  1  0
 17 18  1  0
 18 19  2  0
 18 20  1  0
 17 21  1  0
 21 22  2  0
  7 23  1  0
 23 24  2  0
 24  4  1  0
 22  8  1  0
 21 11  1  0
  1 25  1  0
  1 26  1  0
  1 27  1  0
  5 28  1  0
  6 29  1  0
  9 30  1  0
 10 31  1  0
 12 32  1  0
 15 33  1  0
 15 34  1  0
 22 35  1  0
 23 36  1  0
 24 37  1  0
M  CHG  1  20  -1
M  END
>  <UniqueID>  (4) 
4

>  <SMILES>  (4) 
CC(=O)c1ccc(-c2ccc3cc(C(N)=O)n(C(=O)[O-])c3c2)cc1

>  <Energy>  (4) 
85.47907723234783

>  <Genealogy>  (4) 
CC(=O)c1ccc(-c2ccc3cc(C(N)=O)n(C(=O)[O-])c3c2)cc1 (protonated)
CC(=O)c1ccc(-c2ccc3cc(C(N)=O)n(C(=O)[O-])c3c2)cc1 (3D coordinates assigned)
CC(=O)c1ccc(-c2ccc3cc(C(N)=O)n(C(=O)[O-])c3c2)cc1 (optimized conformer: 85.47907723234783 kcal/mol)

>  <smiles>  (4) 
CC(=O)c1ccc(-c2ccc3cc(C(N)=O)n(C(=O)O)c3c2)cc1

>  <score_type>  (4) 
oracle

>  <origin>  (4) 
adg

>  <m_score__min__energy>  (4) 
-8

>  <m_primary>  (4) 
energy

$$$$
4:0
     RDKit          3D

 45 47  0  0  0  0  0  0  0  0999 V2000
  143.8670  154.7400  135.1500 C   0  0  0  0  0  0  0  0  0  0  0  0
  144.9780  155.6170  135.0160 O   0  0  0  0  0  0  0  0  0  0  0  0
  145.2840  156.2690  133.8180 C   0  0  0  0  0  0  0  0  0  0  0  0
  145.7010  155.6100  132.8260 O   0  0  0  0  0  0  0  0  0  0  0  0
  145.1210  157.6930  133.7150 N   0  0  0  0  0  0  0  0  0  0  0  0
  146.0170  158.5980  133.2270 C   0  0  0  0  0  0  0  0  0  0  0  0
  147.4170  158.3150  132.8530 C   0  0  0  0  0  0  0  0  0  0  0  0
  147.7350  157.3280  131.8700 N   0  0  0  0  0  0  0  0  0  0  0  0
  148.3490  158.9140  133.4510 O   0  0  0  0  0  0  0  0  0  0  0  0
  145.4510  159.8690  133.1670 C   0  0  0  0  0  0  0  0  0  0  0  0
  144.1710  159.7190  133.6520 C   0  0  0  0  0  0  0  0  0  0  0  0
  143.1550  160.6590  133.7940 C   0  0  0  0  0  0  0  0  0  0  0  0
  141.9130  160.2180  134.2790 C   0  0  0  0  0  0  0  0  0  0  0  0
  141.7100  158.8550  134.6110 C   0  0  0  0  0  0  0  0  0  0  0  0
  140.3610  158.3860  135.0790 C   0  0  0  0  0  0  0  0  0  0  0  0
  139.7130  157.5550  134.0190 C   0  0  0  0  0  0  0  0  0  0  0  0
  140.1870  156.4230  133.7330 O   0  0  0  0  0  0  0  0  0  0  0  0
  138.5900  158.0750  133.3030 N   0  0  0  0  0  0  0  0  0  0  0  0
  138.6620  158.5280  131.9170 C   0  0  0  0  0  0  0  0  0  0  0  0
  137.3080  159.0110  131.4120 C   0  0  0  0  0  0  0  0  0  0  0  0
  137.6090  160.0990  130.3860 C   0  0  0  0  0  0  0  0  0  0  0  0
  139.0710  160.5000  130.5780 C   0  0  0  0  0  0  0  0  0  0  0  0
  139.5760  159.7340  131.7930 C   0  0  0  0  0  0  0  0  0  0  0  0
  142.7610  157.9260  134.4390 C   0  0  0  0  0  0  0  0  0  0  0  0
  143.9960  158.3970  133.9730 C   0  0  0  0  0  0  0  0  0  0  0  0
  143.6572  154.5744  136.2170 H   0  0  0  0  0  0  0  0  0  0  0  0
  142.9856  155.1885  134.6683 H   0  0  0  0  0  0  0  0  0  0  0  0
  144.0986  153.7786  134.6683 H   0  0  0  0  0  0  0  0  0  0  0  0
  147.0010  156.6970  131.4830 H   0  0  0  0  0  0  0  0  0  0  0  0
  148.7290  157.1700  131.5910 H   0  0  0  0  0  0  0  0  0  0  0  0
  145.9250  160.7947  132.8088 H   0  0  0  0  0  0  0  0  0  0  0  0
  143.3196  161.7152  133.5344 H   0  0  0  0  0  0  0  0  0  0  0  0
  141.0899  160.9372  134.4024 H   0  0  0  0  0  0  0  0  0  0  0  0
  140.4811  157.7836  135.9915 H   0  0  0  0  0  0  0  0  0  0  0  0
  139.7278  159.2604  135.2900 H   0  0  0  0  0  0  0  0  0  0  0  0
  139.0240  157.6648  131.3392 H   0  0  0  0  0  0  0  0  0  0  0  0
  136.7574  158.1830  130.9415 H   0  0  0  0  0  0  0  0  0  0  0  0
  136.6828  159.3917  132.2331 H   0  0  0  0  0  0  0  0  0  0  0  0
  137.4537  159.7121  129.3681 H   0  0  0  0  0  0  0  0  0  0  0  0
  136.9429  160.9636  130.5230 H   0  0  0  0  0  0  0  0  0  0  0  0
  139.6586  160.2303  129.6881 H   0  0  0  0  0  0  0  0  0  0  0  0
  139.1686  161.5858  130.7248 H   0  0  0  0  0  0  0  0  0  0  0  0
  140.6173  159.4138  131.6407 H   0  0  0  0  0  0  0  0  0  0  0  0
  139.5622  160.3532  132.7020 H   0  0  0  0  0  0  0  0  0  0  0  0
  142.6134  156.8597  134.6652 H   0  0  0  0  0  0  0  0  0  0  0  0
  1  2  1  0
  2  3  1  0
  3  4  2  0
  3  5  1  0
  5  6  1  0
  6  7  1  0
  7  8  1  0
  7  9  2  0
  6 10  2  0
 10 11  1  0
 11 12  2  0
 12 13  1  0
 13 14  2  0
 14 15  1  0
 15 16  1  0
 16 17  2  0
 16 18  1  0
 18 19  1  0
 19 20  1  0
 20 21  1  0
 21 22  1  0
 22 23  1  0
 14 24  1  0
 24 25  2  0
 25  5  1  0
 25 11  1  0
 23 19  1  0
  1 26  1  0
  1 27  1  0
  1 28  1  0
  8 29  1  0
  8 30  1  0
 10 31  1  0
 12 32  1  0
 13 33  1  0
 15 34  1  0
 15 35  1  0
 19 36  1  0
 20 37  1  0
 20 38  1  0
 21 39  1  0
 21 40  1  0
 22 41  1  0
 22 42  1  0
 23 43  1  0
 23 44  1  0
 24 45  1  0
M  CHG  1  18  -1
M  END
>  <UniqueID>  (5) 
5

>  <SMILES>  (5) 
COC(=O)n1c(C(N)=O)cc2ccc(CC(=O)[N-]C3CCCC3)cc21

>  <Energy>  (5) 
79.08862245060172

>  <Genealogy>  (5) 
COC(=O)n1c(C(N)=O)cc2ccc(CC(=O)[N-]C3CCCC3)cc21 (protonated)
COC(=O)n1c(C(N)=O)cc2ccc(CC(=O)[N-]C3CCCC3)cc21 (3D coordinates assigned)
COC(=O)n1c(C(N)=O)cc2ccc(CC(=O)[N-]C3CCCC3)cc21 (nonaromatic ring conformer: 79.08862245060172 kcal/mol)

>  <smiles>  (5) 
COC(=O)n1c(C(N)=O)cc2ccc(CC(=O)NC3CCCC3)cc21

>  <score_type>  (5) 
oracle

>  <origin>  (5) 
adg

>  <m_score__min__energy>  (5) 
-8.1400000000000006

>  <m_primary>  (5) 
energy

$$$$
5:0
     RDKit          3D

 32 34  0  0  0  0  0  0  0  0999 V2000
  146.6280  155.7470  132.3870 N   0  0  0  0  0  0  0  0  0  0  0  0
  146.5350  156.5910  133.5330 C   0  0  0  0  0  0  0  0  0  0  0  0
  146.6200  156.0840  134.6820 O   0  0  0  0  0  0  0  0  0  0  0  0
  146.3600  158.0090  133.3770 N   0  0  0  0  0  0  0  0  0  0  0  0
  147.3090  158.9300  133.0460 C   0  0  0  0  0  0  0  0  0  0  0  0
  148.6870  158.6340  132.6060 C   0  0  0  0  0  0  0  0  0  0  0  0
  148.9830  157.4700  131.8340 N   0  0  0  0  0  0  0  0  0  0  0  0
  149.6090  159.4510  132.8690 O   0  0  0  0  0  0  0  0  0  0  0  0
  146.7910  160.2200  133.1200 C   0  0  0  0  0  0  0  0  0  0  0  0
  145.4780  160.0620  133.4950 C   0  0  0  0  0  0  0  0  0  0  0  0
  144.4950  161.0170  133.7320 C   0  0  0  0  0  0  0  0  0  0  0  0
  143.2300  160.5730  134.1470 C   0  0  0  0  0  0  0  0  0  0  0  0
  142.9670  159.1900  134.3280 C   0  0  0  0  0  0  0  0  0  0  0  0
  141.6280  158.7330  134.7800 C   0  0  0  0  0  0  0  0  0  0  0  0
  140.6780  158.2600  133.8600 C   0  0  0  0  0  0  0  0  0  0  0  0
  139.4230  157.8360  134.3010 C   0  0  0  0  0  0  0  0  0  0  0  0
  139.1240  157.8850  135.6620 C   0  0  0  0  0  0  0  0  0  0  0  0
  140.0490  158.3440  136.5450 N   0  0  0  0  0  0  0  0  0  0  0  0
  141.2770  158.7650  136.1420 C   0  0  0  0  0  0  0  0  0  0  0  0
  143.9950  158.2490  134.0780 C   0  0  0  0  0  0  0  0  0  0  0  0
  145.2410  158.7200  133.6450 C   0  0  0  0  0  0  0  0  0  0  0  0
  146.2260  156.0420  131.4690 H   0  0  0  0  0  0  0  0  0  0  0  0
  148.2200  156.8620  131.4610 H   0  0  0  0  0  0  0  0  0  0  0  0
  149.9680  157.2570  131.5620 H   0  0  0  0  0  0  0  0  0  0  0  0
  147.3194  161.1640  132.9209 H   0  0  0  0  0  0  0  0  0  0  0  0
  144.7030  162.0888  133.5981 H   0  0  0  0  0  0  0  0  0  0  0  0
  142.4319  161.3064  134.3345 H   0  0  0  0  0  0  0  0  0  0  0  0
  140.9236  158.2235  132.7884 H   0  0  0  0  0  0  0  0  0  0  0  0
  138.6772  157.4668  133.5816 H   0  0  0  0  0  0  0  0  0  0  0  0
  138.1390  157.5520  136.0209 H   0  0  0  0  0  0  0  0  0  0  0  0
  142.0002  159.1327  136.8848 H   0  0  0  0  0  0  0  0  0  0  0  0
  143.8191  157.1725  134.2206 H   0  0  0  0  0  0  0  0  0  0  0  0
  1  2  1  0
  2  3  2  0
  2  4  1  0
  4  5  1  0
  5  6  1  0
  6  7  1  0
  6  8  2  0
  5  9  2  0
  9 10  1  0
 10 11  2  0
 11 12  1  0
 12 13  2  0
 13 14  1  0
 14 15  2  0
 15 16  1  0
 16 17  2  0
 17 18  1  0
 18 19  2  0
 13 20  1  0
 20 21  2  0
 21  4  1  0
 21 10  1  0
 19 14  1  0
  1 22  1  0
  7 23  1  0
  7 24  1  0
  9 25  1  0
 11 26  1  0
 12 27  1  0
 15 28  1  0
 16 29  1  0
 17 30  1  0
 19 31  1  0
 20 32  1  0
M  CHG  1   1  -1
M  END
>  <UniqueID>  (6) 
6

>  <SMILES>  (6) 
[NH-]C(=O)n1c(C(N)=O)cc2ccc(-c3cccnc3)cc21

>  <Energy>  (6) 
80.50726034554988

>  <Genealogy>  (6) 
[NH-]C(=O)n1c(C(N)=O)cc2ccc(-c3cccnc3)cc21 (protonated)
[NH-]C(=O)n1c(C(N)=O)cc2ccc(-c3cccnc3)cc21 (3D coordinates assigned)
[NH-]C(=O)n1c(C(N)=O)cc2ccc(-c3cccnc3)cc21 (optimized conformer: 80.50726034554988 kcal/mol)

>  <smiles>  (6) 
NC(=O)c1cc2ccc(-c3cccnc3)cc2n1C(N)=O

>  <score_type>  (6) 
oracle

>  <origin>  (6) 
adg

>  <m_score__min__energy>  (6) 
-7.4400000000000004

>  <m_primary>  (6) 
energy

$$$$
6:0
     RDKit          3D

 38 39  0  0  0  0  0  0  0  0999 V2000
  138.7550  149.9900  131.8420 C   0  0  0  0  0  0  0  0  0  0  0  0
  139.8660  149.9470  130.8790 N   0  0  0  0  0  0  0  0  0  0  0  0
  139.4310  149.2410  129.6610 C   0  0  0  0  0  0  0  0  0  0  0  0
  141.0410  149.2870  131.4890 C   0  0  0  0  0  0  0  0  0  0  0  0
  141.9830  150.3010  132.1710 C   0  0  0  0  0  0  0  0  0  0  0  0
  141.5490  151.7000  132.0030 N   0  0  0  0  0  0  0  0  0  0  0  0
  141.8510  152.4990  133.1680 C   0  0  0  0  0  0  0  0  0  0  0  0
  142.5130  153.7460  133.0290 C   0  0  0  0  0  0  0  0  0  0  0  0
  142.8000  154.5350  134.1540 C   0  0  0  0  0  0  0  0  0  0  0  0
  142.4100  154.0580  135.4020 C   0  0  0  0  0  0  0  0  0  0  0  0
  142.5850  154.6060  136.6520 C   0  0  0  0  0  0  0  0  0  0  0  0
  142.0050  153.7000  137.5370 C   0  0  0  0  0  0  0  0  0  0  0  0
  141.8970  153.9440  138.9910 C   0  0  0  0  0  0  0  0  0  0  0  0
  143.0620  154.0850  139.8000 N   0  0  0  0  0  0  0  0  0  0  0  0
  140.7610  153.9770  139.5350 O   0  0  0  0  0  0  0  0  0  0  0  0
  141.5010  152.6280  136.8620 N   0  0  0  0  0  0  0  0  0  0  0  0
  140.9020  151.4420  137.4110 C   0  0  0  0  0  0  0  0  0  0  0  0
  140.6710  151.3590  138.6450 O   0  0  0  0  0  0  0  0  0  0  0  0
  140.5970  150.3660  136.5880 O   0  0  0  0  0  0  0  0  0  0  0  0
  141.7540  152.8640  135.5560 C   0  0  0  0  0  0  0  0  0  0  0  0
  141.4710  152.0500  134.4540 C   0  0  0  0  0  0  0  0  0  0  0  0
  139.1565  149.9745  132.8660 H   0  0  0  0  0  0  0  0  0  0  0  0
  138.1735  150.9113  131.6901 H   0  0  0  0  0  0  0  0  0  0  0  0
  138.1041  149.1164  131.6901 H   0  0  0  0  0  0  0  0  0  0  0  0
  138.8731  148.3355  129.9416 H   0  0  0  0  0  0  0  0  0  0  0  0
  138.7829  149.9014  129.0661 H   0  0  0  0  0  0  0  0  0  0  0  0
  140.3123  148.9591  129.0661 H   0  0  0  0  0  0  0  0  0  0  0  0
  140.6919  148.5646  132.2415 H   0  0  0  0  0  0  0  0  0  0  0  0
  141.6036  148.7856  130.6877 H   0  0  0  0  0  0  0  0  0  0  0  0
  142.0219  150.0736  133.2466 H   0  0  0  0  0  0  0  0  0  0  0  0
  142.9689  150.2046  131.6928 H   0  0  0  0  0  0  0  0  0  0  0  0
  140.5270  151.7370  131.7810 H   0  0  0  0  0  0  0  0  0  0  0  0
  142.0520  152.1060  131.1800 H   0  0  0  0  0  0  0  0  0  0  0  0
  142.8046  154.0985  132.0287 H   0  0  0  0  0  0  0  0  0  0  0  0
  143.3172  155.5005  134.0524 H   0  0  0  0  0  0  0  0  0  0  0  0
  143.0782  155.5575  136.8998 H   0  0  0  0  0  0  0  0  0  0  0  0
  143.6290  154.9610  139.7760 H   0  0  0  0  0  0  0  0  0  0  0  0
  140.9643  151.0825  134.5849 H   0  0  0  0  0  0  0  0  0  0  0  0
  1  2  1  0
  2  3  1  0
  2  4  1  0
  4  5  1  0
  5  6  1  0
  6  7  1  0
  7  8  2  0
  8  9  1  0
  9 10  2  0
 10 11  1  0
 11 12  2  0
 12 13  1  0
 13 14  1  0
 13 15  2  0
 12 16  1  0
 16 17  1  0
 17 18  2  0
 17 19  1  0
 16 20  1  0
 20 21  2  0
 21  7  1  0
 20 10  1  0
  1 22  1  0
  1 23  1  0
  1 24  1  0
  3 25  1  0
  3 26  1  0
  3 27  1  0
  4 28  1  0
  4 29  1  0
  5 30  1  0
  5 31  1  0
  6 32  1  0
  6 33  1  0
  8 34  1  0
  9 35  1  0
 11 36  1  0
 14 37  1  0
 21 38  1  0
M  CHG  3   6   1  14  -1  19  -1
M  END
>  <UniqueID>  (7) 
7

>  <SMILES>  (7) 
CN(C)CC[NH2+]c1ccc2cc(C([NH-])=O)n(C(=O)[O-])c2c1

>  <Energy>  (7) 
77.96091557944987

>  <Genealogy>  (7) 
CN(C)CC[NH2+]c1ccc2cc(C([NH-])=O)n(C(=O)[O-])c2c1 (protonated)
CN(C)CC[NH2+]c1ccc2cc(C([NH-])=O)n(C(=O)[O-])c2c1 (3D coordinates assigned)
CN(C)CC[NH2+]c1ccc2cc(C([NH-])=O)n(C(=O)[O-])c2c1 (optimized conformer: 77.96091557944987 kcal/mol)

>  <smiles>  (7) 
CN(C)CCNc1ccc2cc(C(N)=O)n(C(=O)O)c2c1

>  <score_type>  (7) 
oracle

>  <origin>  (7) 
adg

>  <m_score__min__energy>  (7) 
-6.0700000000000003

>  <m_primary>  (7) 
energy

$$$$
7:0
     RDKit          3D

 32 33  0  0  0  0  0  0  0  0999 V2000
  140.3830  156.4940  133.4360 C   0  0  0  0  0  0  0  0  0  0  0  0
  140.1690  157.9480  133.8920 C   0  0  0  0  0  0  0  0  0  0  0  0
  139.0990  158.6020  132.9910 C   0  0  0  0  0  0  0  0  0  0  0  0
  139.6280  157.9400  135.2680 C   0  0  0  0  0  0  0  0  0  0  0  0
  139.2030  157.9330  136.3450 N   0  0  0  0  0  0  0  0  0  0  0  0
  141.5170  158.6850  133.8780 C   0  0  0  0  0  0  0  0  0  0  0  0
  141.6060  160.1060  133.7930 C   0  0  0  0  0  0  0  0  0  0  0  0
  142.8500  160.7540  133.7280 C   0  0  0  0  0  0  0  0  0  0  0  0
  143.9980  159.9710  133.7430 C   0  0  0  0  0  0  0  0  0  0  0  0
  145.3190  160.3420  133.6500 C   0  0  0  0  0  0  0  0  0  0  0  0
  146.0370  159.1510  133.6880 C   0  0  0  0  0  0  0  0  0  0  0  0
  147.5120  159.0930  133.6770 C   0  0  0  0  0  0  0  0  0  0  0  0
  148.2110  157.9510  134.1770 N   0  0  0  0  0  0  0  0  0  0  0  0
  148.1680  160.0900  133.2740 O   0  0  0  0  0  0  0  0  0  0  0  0
  145.1960  158.0840  133.7870 N   0  0  0  0  0  0  0  0  0  0  0  0
  145.5480  156.6910  133.7310 C   0  0  0  0  0  0  0  0  0  0  0  0
  145.1750  155.9760  132.7640 O   0  0  0  0  0  0  0  0  0  0  0  0
  146.3090  156.1190  134.7430 O   0  0  0  0  0  0  0  0  0  0  0  0
  143.9470  158.6060  133.8220 C   0  0  0  0  0  0  0  0  0  0  0  0
  142.7230  157.9310  133.8660 C   0  0  0  0  0  0  0  0  0  0  0  0
  140.4787  155.8435  134.3179 H   0  0  0  0  0  0  0  0  0  0  0  0
  139.5230  156.1688  132.8321 H   0  0  0  0  0  0  0  0  0  0  0  0
  141.3002  156.4303  132.8321 H   0  0  0  0  0  0  0  0  0  0  0  0
  138.3286  159.0729  133.6193 H   0  0  0  0  0  0  0  0  0  0  0  0
  139.5715  159.3658  132.3559 H   0  0  0  0  0  0  0  0  0  0  0  0
  138.6347  157.8332  132.3559 H   0  0  0  0  0  0  0  0  0  0  0  0
  140.6835  160.7050  133.7781 H   0  0  0  0  0  0  0  0  0  0  0  0
  142.9140  161.8504  133.6669 H   0  0  0  0  0  0  0  0  0  0  0  0
  145.7217  161.3620  133.5640 H   0  0  0  0  0  0  0  0  0  0  0  0
  147.7040  157.1820  134.6680 H   0  0  0  0  0  0  0  0  0  0  0  0
  149.2520  157.9120  134.1280 H   0  0  0  0  0  0  0  0  0  0  0  0
  142.6933  156.8317  133.8910 H   0  0  0  0  0  0  0  0  0  0  0  0
  1  2  1  0
  2  3  1  0
  2  4  1  0
  4  5  3  0
  2  6  1  0
  6  7  2  0
  7  8  1  0
  8  9  2  0
  9 10  1  0
 10 11  2  0
 11 12  1  0
 12 13  1  0
 12 14  2  0
 11 15  1  0
 15 16  1  0
 16 17  2  0
 16 18  1  0
 15 19  1  0
 19 20  2  0
 20  6  1  0
 19  9  1  0
  1 21  1  0
  1 22  1  0
  1 23  1  0
  3 24  1  0
  3 25  1  0
  3 26  1  0
  7 27  1  0
  8 28  1  0
 10 29  1  0
 13 30  1  0
 13 31  1  0
 20 32  1  0
M  CHG  1  18  -1
M  END
>  <UniqueID>  (8) 
8

>  <SMILES>  (8) 
CC(C)(C#N)c1ccc2cc(C(N)=O)n(C(=O)[O-])c2c1

>  <Energy>  (8) 
73.36312065572436

>  <Genealogy>  (8) 
CC(C)(C#N)c1ccc2cc(C(N)=O)n(C(=O)[O-])c2c1 (protonated)
CC(C)(C#N)c1ccc2cc(C(N)=O)n(C(=O)[O-])c2c1 (3D coordinates assigned)
CC(C)(C#N)c1ccc2cc(C(N)=O)n(C(=O)[O-])c2c1 (optimized conformer: 73.36312065572436 kcal/mol)

>  <smiles>  (8) 
CC(C)(C#N)c1ccc2cc(C(N)=O)n(C(=O)O)c2c1

>  <score_type>  (8) 
oracle

>  <origin>  (8) 
adg

>  <m_score__min__energy>  (8) 
-6.8200000000000003

>  <m_primary>  (8) 
energy

$$$$
8:0
     RDKit          3D

 50 53  0  0  0  0  0  0  0  0999 V2000
  150.3750  150.7060  130.0390 C   0  0  0  0  0  0  0  0  0  0  0  0
  150.3710  150.4850  131.5470 C   0  0  0  0  0  0  0  0  0  0  0  0
  150.4600  151.7280  132.2380 O   0  0  0  0  0  0  0  0  0  0  0  0
  149.3610  152.5580  132.4850 C   0  0  0  0  0  0  0  0  0  0  0  0
  148.0910  152.0020  132.6080 C   0  0  0  0  0  0  0  0  0  0  0  0
  147.0010  152.8340  132.8530 C   0  0  0  0  0  0  0  0  0  0  0  0
  147.2010  154.2170  132.9690 C   0  0  0  0  0  0  0  0  0  0  0  0
  146.0760  155.1590  133.1950 C   0  0  0  0  0  0  0  0  0  0  0  0
  144.7570  154.6890  133.4420 C   0  0  0  0  0  0  0  0  0  0  0  0
  143.7020  155.5890  133.6670 C   0  0  0  0  0  0  0  0  0  0  0  0
  143.9880  156.9510  133.6420 C   0  0  0  0  0  0  0  0  0  0  0  0
  143.1660  158.0390  133.8410 C   0  0  0  0  0  0  0  0  0  0  0  0
  143.9920  159.1540  133.7060 C   0  0  0  0  0  0  0  0  0  0  0  0
  143.5120  160.5490  133.7720 C   0  0  0  0  0  0  0  0  0  0  0  0
  144.3720  161.6360  133.4340 N   0  0  0  0  0  0  0  0  0  0  0  0
  142.3170  160.7830  134.0960 O   0  0  0  0  0  0  0  0  0  0  0  0
  145.2710  158.7660  133.4410 N   0  0  0  0  0  0  0  0  0  0  0  0
  146.4400  159.5870  133.3360 C   0  0  0  0  0  0  0  0  0  0  0  0
  146.5350  160.6140  134.0580 O   0  0  0  0  0  0  0  0  0  0  0  0
  147.5060  159.2540  132.3150 C   0  0  0  0  0  0  0  0  0  0  0  0
  148.7980  158.7150  132.9570 C   0  0  0  0  0  0  0  0  0  0  0  0
  149.8680  158.4310  131.8800 C   0  0  0  0  0  0  0  0  0  0  0  0
  149.5570  158.9910  130.6130 O   0  0  0  0  0  0  0  0  0  0  0  0
  149.2010  160.3500  130.7590 C   0  0  0  0  0  0  0  0  0  0  0  0
  147.8280  160.4840  131.4400 C   0  0  0  0  0  0  0  0  0  0  0  0
  145.2510  157.4210  133.4020 C   0  0  0  0  0  0  0  0  0  0  0  0
  146.3230  156.5510  133.1870 C   0  0  0  0  0  0  0  0  0  0  0  0
  148.4650  154.7040  132.8340 N   0  0  0  0  0  0  0  0  0  0  0  0
  149.5070  153.9050  132.6040 N   0  0  0  0  0  0  0  0  0  0  0  0
  150.3945  151.7851  129.8266 H   0  0  0  0  0  0  0  0  0  0  0  0
  151.2647  150.2299  129.6010 H   0  0  0  0  0  0  0  0  0  0  0  0
  149.4687  150.2624  129.6010 H   0  0  0  0  0  0  0  0  0  0  0  0
  149.4386  149.9775  131.8352 H   0  0  0  0  0  0  0  0  0  0  0  0
  151.2404  149.8673  131.8164 H   0  0  0  0  0  0  0  0  0  0  0  0
  147.9493  150.9153  132.5126 H   0  0  0  0  0  0  0  0  0  0  0  0
  145.9913  152.4094  132.9547 H   0  0  0  0  0  0  0  0  0  0  0  0
  144.5601  153.6069  133.4571 H   0  0  0  0  0  0  0  0  0  0  0  0
  142.6804  155.2281  133.8573 H   0  0  0  0  0  0  0  0  0  0  0  0
  142.0880  158.0297  134.0597 H   0  0  0  0  0  0  0  0  0  0  0  0
  145.1190  161.5250  132.7140 H   0  0  0  0  0  0  0  0  0  0  0  0
  147.0937  158.4524  131.6845 H   0  0  0  0  0  0  0  0  0  0  0  0
  149.1878  159.4615  133.6647 H   0  0  0  0  0  0  0  0  0  0  0  0
  148.5665  157.7757  133.4805 H   0  0  0  0  0  0  0  0  0  0  0  0
  150.8257  158.8511  132.2210 H   0  0  0  0  0  0  0  0  0  0  0  0
  149.9148  157.3398  131.7494 H   0  0  0  0  0  0  0  0  0  0  0  0
  149.9594  160.8577  131.3731 H   0  0  0  0  0  0  0  0  0  0  0  0
  149.1465  160.8098  129.7612 H   0  0  0  0  0  0  0  0  0  0  0  0
  147.8302  161.3827  132.0743 H   0  0  0  0  0  0  0  0  0  0  0  0
  147.0605  160.5590  130.6556 H   0  0  0  0  0  0  0  0  0  0  0  0
  147.3372  156.9407  133.0152 H   0  0  0  0  0  0  0  0  0  0  0  0
  1  2  1  0
  2  3  1  0
  3  4  1  0
  4  5  2  0
  5  6  1  0
  6  7  2  0
  7  8  1  0
  8  9  2  0
  9 10  1  0
 10 11  2  0
 11 12  1  0
 12 13  2  0
 13 14  1  0
 14 15  1  0
 14 16  2  0
 13 17  1  0
 17 18  1  0
 18 19  2  0
 18 20  1  0
 20 21  1  0
 21 22  1  0
 22 23  1  0
 23 24  1  0
 24 25  1  0
 17 26  1  0
 26 27  2  0
  7 28  1  0
 28 29  2  0
 29  4  1  0
 27  8  1  0
 26 11  1  0
 25 20  1  0
  1 30  1  0
  1 31  1  0
  1 32  1  0
  2 33  1  0
  2 34  1  0
  5 35  1  0
  6 36  1  0
  9 37  1  0
 10 38  1  0
 12 39  1  0
 15 40  1  0
 20 41  1  0
 21 42  1  0
 21 43  1  0
 22 44  1  0
 22 45  1  0
 24 46  1  0
 24 47  1  0
 25 48  1  0
 25 49  1  0
 27 50  1  0
M  CHG  1  15  -1
M  END
>  <UniqueID>  (9) 
9

>  <SMILES>  (9) 
CCOc1ccc(-c2ccc3cc(C([NH-])=O)n(C(=O)C4CCOCC4)c3c2)nn1

>  <Energy>  (9) 
101.48902147408769

>  <Genealogy>  (9) 
CCOc1ccc(-c2ccc3cc(C([NH-])=O)n(C(=O)C4CCOCC4)c3c2)nn1 (protonated)
CCOc1ccc(-c2ccc3cc(C([NH-])=O)n(C(=O)C4CCOCC4)c3c2)nn1 (3D coordinates assigned)
CCOc1ccc(-c2ccc3cc(C([NH-])=O)n(C(=O)C4CCOCC4)c3c2)nn1 (nonaromatic ring conformer: 101.48902147408769 kcal/mol)

>  <smiles>  (9) 
CCOc1ccc(-c2ccc3cc(C(N)=O)n(C(=O)C4CCOCC4)c3c2)nn1

>  <score_type>  (9) 
oracle

>  <origin>  (9) 
adg

>  <m_score__min__energy>  (9) 
-9.4299999999999997

>  <m_primary>  (9) 
energy

$$$$
9:0
     RDKit          3D

 41 43  0  0  0  0  0  0  0  0999 V2000
  149.4920  161.6080  130.3550 C   0  0  0  0  0  0  0  0  0  0  0  0
  148.9250  160.2520  129.9500 C   0  0  0  0  0  0  0  0  0  0  0  0
  148.0670  159.7430  130.9690 O   0  0  0  0  0  0  0  0  0  0  0  0
  148.5250  159.3230  132.2250 C   0  0  0  0  0  0  0  0  0  0  0  0
  149.6490  159.7070  132.6530 O   0  0  0  0  0  0  0  0  0  0  0  0
  147.7050  158.3470  133.0500 C   0  0  1  0  0  0  0  0  0  0  0  0
  146.2870  158.9070  133.2900 C   0  0  0  0  0  0  0  0  0  0  0  0
  146.1010  160.3160  133.4210 C   0  0  0  0  0  0  0  0  0  0  0  0
  144.8410  160.8650  133.7010 C   0  0  0  0  0  0  0  0  0  0  0  0
  143.7730  159.9940  133.8680 C   0  0  0  0  0  0  0  0  0  0  0  0
  142.4600  160.2570  134.1830 C   0  0  0  0  0  0  0  0  0  0  0  0
  141.8420  159.0100  134.2610 C   0  0  0  0  0  0  0  0  0  0  0  0
  140.3950  158.8330  134.4960 C   0  0  0  0  0  0  0  0  0  0  0  0
  139.9150  158.5910  135.8170 N   0  0  0  0  0  0  0  0  0  0  0  0
  139.5700  158.9300  133.5500 O   0  0  0  0  0  0  0  0  0  0  0  0
  142.7410  158.0160  134.0130 N   0  0  0  0  0  0  0  0  0  0  0  0
  142.5180  156.5970  134.0680 C   0  0  0  0  0  0  0  0  0  0  0  0
  143.2470  155.8670  134.7910 O   0  0  0  0  0  0  0  0  0  0  0  0
  141.4810  156.0210  133.3450 O   0  0  0  0  0  0  0  0  0  0  0  0
  143.9180  158.6370  133.7700 C   0  0  0  0  0  0  0  0  0  0  0  0
  145.1670  158.0590  133.5110 C   0  0  0  0  0  0  0  0  0  0  0  0
  147.7370  156.9680  132.3960 C   0  0  0  0  0  0  0  0  0  0  0  0
  147.8280  155.9990  133.5700 C   0  0  0  0  0  0  0  0  0  0  0  0
  147.9850  156.7270  134.7660 O   0  0  0  0  0  0  0  0  0  0  0  0
  148.3590  158.0320  134.3970 C   0  0  0  0  0  0  0  0  0  0  0  0
  149.5221  161.6799  131.4522 H   0  0  0  0  0  0  0  0  0  0  0  0
  150.5101  161.7147  129.9525 H   0  0  0  0  0  0  0  0  0  0  0  0
  148.8529  162.4077  129.9525 H   0  0  0  0  0  0  0  0  0  0  0  0
  148.3524  160.3633  129.0174 H   0  0  0  0  0  0  0  0  0  0  0  0
  149.7578  159.5485  129.8031 H   0  0  0  0  0  0  0  0  0  0  0  0
  146.9648  160.9861  133.2997 H   0  0  0  0  0  0  0  0  0  0  0  0
  144.7033  161.9531  133.7857 H   0  0  0  0  0  0  0  0  0  0  0  0
  141.9963  161.2421  134.3400 H   0  0  0  0  0  0  0  0  0  0  0  0
  139.4810  159.3570  136.3800 H   0  0  0  0  0  0  0  0  0  0  0  0
  145.2801  156.9653  133.4790 H   0  0  0  0  0  0  0  0  0  0  0  0
  146.8205  156.7909  131.8141 H   0  0  0  0  0  0  0  0  0  0  0  0
  148.5739  156.8554  131.6910 H   0  0  0  0  0  0  0  0  0  0  0  0
  146.9073  155.3995  133.6234 H   0  0  0  0  0  0  0  0  0  0  0  0
  148.6911  155.3317  133.4298 H   0  0  0  0  0  0  0  0  0  0  0  0
  148.0133  158.7485  135.1567 H   0  0  0  0  0  0  0  0  0  0  0  0
  149.4535  158.1085  134.3181 H   0  0  0  0  0  0  0  0  0  0  0  0
  1  2  1  0
  2  3  1  0
  3  4  1  0
  4  5  2  0
  6  4  1  6
  6  7  1  0
  7  8  2  0
  8  9  1  0
  9 10  2  0
 10 11  1  0
 11 12  2  0
 12 13  1  0
 13 14  1  0
 13 15  2  0
 12 16  1  0
 16 17  1  0
 17 18  2  0
 17 19  1  0
 16 20  1  0
 20 21  2  0
  6 22  1  0
 22 23  1  0
 23 24  1  0
 24 25  1  0
 25  6  1  0
 21  7  1  0
 20 10  1  0
  1 26  1  0
  1 27  1  0
  1 28  1  0
  2 29  1  0
  2 30  1  0
  8 31  1  0
  9 32  1  0
 11 33  1  0
 14 34  1  0
 21 35  1  0
 22 36  1  0
 22 37  1  0
 23 38  1  0
 23 39  1  0
 25 40  1  0
 25 41  1  0
M  CHG  2  14  -1  19  -1
M  END
>  <UniqueID>  (10) 
10

>  <SMILES>  (10) 
CCOC(=O)[C@@]1(c2ccc3cc(C([NH-])=O)n(C(=O)[O-])c3c2)CCOC1

>  <Energy>  (10) 
86.05924487011336

>  <Genealogy>  (10) 
CCOC(=O)C1(c2ccc3cc(C([NH-])=O)n(C(=O)[O-])c3c2)CCOC1 (protonated)
CCOC(=O)[C@@]1(c2ccc3cc(C([NH-])=O)n(C(=O)[O-])c3c2)CCOC1 (chirality)
CCOC(=O)[C@@]1(c2ccc3cc(C([NH-])=O)n(C(=O)[O-])c3c2)CCOC1 (3D coordinates assigned)
CCOC(=O)[C@@]1(c2ccc3cc(C([NH-])=O)n(C(=O)[O-])c3c2)CCOC1 (nonaromatic ring conformer: 86.05924487011336 kcal/mol)

>  <smiles>  (10) 
CCOC(=O)C1(c2ccc3cc(C(N)=O)n(C(=O)O)c3c2)CCOC1

>  <score_type>  (10) 
oracle

>  <origin>  (10) 
adg

>  <m_score__min__energy>  (10) 
-7.2999999999999998

>  <m_primary>  (10) 
energy

$$$$
10:0
     RDKit          3D

 37 39  0  0  0  0  0  0  0  0999 V2000
  150.0420  150.2930  131.1920 C   0  0  0  0  0  0  0  0  0  0  0  0
  148.8880  150.5780  132.5130 S   0  0  0  0  0  0  0  0  0  0  0  0
  149.4650  150.0670  133.8040 O   0  0  0  0  0  0  0  0  0  0  0  0
  147.6090  149.8400  132.2310 O   0  0  0  0  0  0  0  0  0  0  0  0
  148.5650  152.3040  132.6460 C   0  0  0  0  0  0  0  0  0  0  0  0
  149.6020  153.2290  132.4730 C   0  0  0  0  0  0  0  0  0  0  0  0
  149.3510  154.5980  132.5930 C   0  0  0  0  0  0  0  0  0  0  0  0
  148.0570  155.0640  132.8910 C   0  0  0  0  0  0  0  0  0  0  0  0
  147.7870  156.5190  133.0170 C   0  0  0  0  0  0  0  0  0  0  0  0
  148.8480  157.4570  132.9080 C   0  0  0  0  0  0  0  0  0  0  0  0
  148.6020  158.8360  133.0140 C   0  0  0  0  0  0  0  0  0  0  0  0
  147.2930  159.2500  133.2380 C   0  0  0  0  0  0  0  0  0  0  0  0
  146.7750  160.5200  133.3510 C   0  0  0  0  0  0  0  0  0  0  0  0
  145.4080  160.3440  133.5540 C   0  0  0  0  0  0  0  0  0  0  0  0
  144.4760  161.4620  133.8130 C   0  0  0  0  0  0  0  0  0  0  0  0
  143.0660  161.2750  133.7310 N   0  0  0  0  0  0  0  0  0  0  0  0
  144.9310  162.5840  134.1620 O   0  0  0  0  0  0  0  0  0  0  0  0
  145.0910  159.0180  133.5570 N   0  0  0  0  0  0  0  0  0  0  0  0
  143.7870  158.4210  133.6510 C   0  0  0  0  0  0  0  0  0  0  0  0
  143.2680  157.8670  132.6470 O   0  0  0  0  0  0  0  0  0  0  0  0
  143.0980  158.4290  134.8570 O   0  0  0  0  0  0  0  0  0  0  0  0
  146.2570  158.3620  133.3650 C   0  0  0  0  0  0  0  0  0  0  0  0
  146.4700  156.9830  133.2440 C   0  0  0  0  0  0  0  0  0  0  0  0
  147.0230  154.1280  133.0690 C   0  0  0  0  0  0  0  0  0  0  0  0
  147.2770  152.7580  132.9500 C   0  0  0  0  0  0  0  0  0  0  0  0
  151.0286  150.0494  131.6131 H   0  0  0  0  0  0  0  0  0  0  0  0
  149.6906  149.4547  130.5726 H   0  0  0  0  0  0  0  0  0  0  0  0
  150.1212  151.1986  130.5726 H   0  0  0  0  0  0  0  0  0  0  0  0
  150.6180  152.8764  132.2418 H   0  0  0  0  0  0  0  0  0  0  0  0
  150.1713  155.3174  132.4534 H   0  0  0  0  0  0  0  0  0  0  0  0
  149.8744  157.0994  132.7386 H   0  0  0  0  0  0  0  0  0  0  0  0
  149.4196  159.5662  132.9227 H   0  0  0  0  0  0  0  0  0  0  0  0
  147.3236  161.4717  133.2933 H   0  0  0  0  0  0  0  0  0  0  0  0
  142.6390  160.3370  133.8940 H   0  0  0  0  0  0  0  0  0  0  0  0
  145.6312  156.2759  133.3238 H   0  0  0  0  0  0  0  0  0  0  0  0
  146.0063  154.4761  133.3037 H   0  0  0  0  0  0  0  0  0  0  0  0
  146.4612  152.0347  133.0959 H   0  0  0  0  0  0  0  0  0  0  0  0
  1  2  1  0
  2  3  2  0
  2  4  2  0
  2  5  1  0
  5  6  2  0
  6  7  1  0
  7  8  2  0
  8  9  1  0
  9 10  2  0
 10 11  1  0
 11 12  2  0
 12 13  1  0
 13 14  2  0
 14 15  1  0
 15 16  1  0
 15 17  2  0
 14 18  1  0
 18 19  1  0
 19 20  2  0
 19 21  1  0
 18 22  1  0
 22 23  2  0
  8 24  1  0
 24 25  2  0
 25  5  1  0
 23  9  1  0
 22 12  1  0
  1 26  1  0
  1 27  1  0
  1 28  1  0
  6 29  1  0
  7 30  1  0
 10 31  1  0
 11 32  1  0
 13 33  1  0
 16 34  1  0
 23 35  1  0
 24 36  1  0
 25 37  1  0
M  CHG  2  16  -1  21  -1
M  END
>  <UniqueID>  (11) 
11

>  <SMILES>  (11) 
CS(=O)(=O)c1ccc(-c2ccc3cc(C([NH-])=O)n(C(=O)[O-])c3c2)cc1

>  <Energy>  (11) 
82.1944988865462

>  <Genealogy>  (11) 
CS(=O)(=O)c1ccc(-c2ccc3cc(C([NH-])=O)n(C(=O)[O-])c3c2)cc1 (protonated)
CS(=O)(=O)c1ccc(-c2ccc3cc(C([NH-])=O)n(C(=O)[O-])c3c2)cc1 (3D coordinates assigned)
CS(=O)(=O)c1ccc(-c2ccc3cc(C([NH-])=O)n(C(=O)[O-])c3c2)cc1 (optimized conformer: 82.1944988865462 kcal/mol)

>  <smiles>  (11) 
CS(=O)(=O)c1ccc(-c2ccc3cc(C(N)=O)n(C(=O)O)c3c2)cc1

>  <score_type>  (11) 
oracle

>  <origin>  (11) 
adg

>  <m_score__min__energy>  (11) 
-8.6099999999999994

>  <m_primary>  (11) 
energy

$$$$
11:0
     RDKit          3D

 50 52  0  0  0  0  0  0  0  0999 V2000
  138.7090  160.5230  130.7380 C   0  0  0  0  0  0  0  0  0  0  0  0
  138.0610  159.2220  131.1960 C   0  0  0  0  0  0  0  0  0  0  0  0
  139.0490  158.2210  131.4270 O   0  0  0  0  0  0  0  0  0  0  0  0
  139.1530  157.5040  132.6240 C   0  0  0  0  0  0  0  0  0  0  0  0
  139.1040  156.2440  132.6280 O   0  0  0  0  0  0  0  0  0  0  0  0
  139.2710  158.2480  133.9180 C   0  0  0  0  0  0  0  0  0  0  0  0
  140.4750  157.7680  134.7370 C   0  0  0  0  0  0  0  0  0  0  0  0
  141.7380  158.4940  134.3510 C   0  0  0  0  0  0  0  0  0  0  0  0
  141.6980  159.8790  134.0500 C   0  0  0  0  0  0  0  0  0  0  0  0
  142.8710  160.5720  133.7080 C   0  0  0  0  0  0  0  0  0  0  0  0
  144.0660  159.8580  133.6830 C   0  0  0  0  0  0  0  0  0  0  0  0
  145.3350  160.2720  133.3470 C   0  0  0  0  0  0  0  0  0  0  0  0
  146.1380  159.1390  133.4680 C   0  0  0  0  0  0  0  0  0  0  0  0
  147.6030  159.1400  133.2660 C   0  0  0  0  0  0  0  0  0  0  0  0
  148.4540  158.3480  134.0990 N   0  0  0  0  0  0  0  0  0  0  0  0
  148.1130  159.8200  132.3360 O   0  0  0  0  0  0  0  0  0  0  0  0
  145.3940  158.0670  133.8670 N   0  0  0  0  0  0  0  0  0  0  0  0
  145.8350  156.7070  134.0070 C   0  0  0  0  0  0  0  0  0  0  0  0
  146.7280  156.4140  134.8460 O   0  0  0  0  0  0  0  0  0  0  0  0
  145.2540  155.7090  133.2190 O   0  0  0  0  0  0  0  0  0  0  0  0
  146.0070  154.8930  132.3260 C   0  0  0  0  0  0  0  0  0  0  0  0
  146.7490  153.8120  133.1180 C   0  0  0  0  0  0  0  0  0  0  0  0
  146.4690  153.9050  134.4710 F   0  0  0  0  0  0  0  0  0  0  0  0
  148.2310  153.8530  132.8840 C   0  0  0  0  0  0  0  0  0  0  0  0
  149.0430  154.8880  133.2150 F   0  0  0  0  0  0  0  0  0  0  0  0
  148.6540  152.7200  132.3500 C   0  0  0  0  0  0  0  0  0  0  0  0
  149.9440  152.4300  132.0540 F   0  0  0  0  0  0  0  0  0  0  0  0
  147.5230  151.8300  132.1790 C   0  0  0  0  0  0  0  0  0  0  0  0
  147.5690  150.5780  131.6670 F   0  0  0  0  0  0  0  0  0  0  0  0
  146.4290  152.4370  132.6110 C   0  0  0  0  0  0  0  0  0  0  0  0
  145.1930  151.8780  132.6030 F   0  0  0  0  0  0  0  0  0  0  0  0
  144.1270  158.5230  133.9930 C   0  0  0  0  0  0  0  0  0  0  0  0
  142.9720  157.8070  134.3250 C   0  0  0  0  0  0  0  0  0  0  0  0
  139.0039  161.1150  131.6170 H   0  0  0  0  0  0  0  0  0  0  0  0
  139.5994  160.2961  130.1332 H   0  0  0  0  0  0  0  0  0  0  0  0
  137.9915  161.0970  130.1332 H   0  0  0  0  0  0  0  0  0  0  0  0
  137.5062  159.4036  132.1283 H   0  0  0  0  0  0  0  0  0  0  0  0
  137.3787  158.8703  130.4081 H   0  0  0  0  0  0  0  0  0  0  0  0
  139.3896  159.3204  133.7037 H   0  0  0  0  0  0  0  0  0  0  0  0
  138.3595  158.0634  134.5055 H   0  0  0  0  0  0  0  0  0  0  0  0
  140.2738  157.9455  135.8038 H   0  0  0  0  0  0  0  0  0  0  0  0
  140.6208  156.6964  134.5358 H   0  0  0  0  0  0  0  0  0  0  0  0
  140.7387  160.4162  134.0847 H   0  0  0  0  0  0  0  0  0  0  0  0
  142.8462  161.6451  133.4675 H   0  0  0  0  0  0  0  0  0  0  0  0
  145.6489  161.2826  133.0467 H   0  0  0  0  0  0  0  0  0  0  0  0
  149.4840  158.3270  133.9240 H   0  0  0  0  0  0  0  0  0  0  0  0
  148.0750  157.8180  134.9140 H   0  0  0  0  0  0  0  0  0  0  0  0
  145.3272  154.4163  131.6045 H   0  0  0  0  0  0  0  0  0  0  0  0
  146.7363  155.5169  131.7886 H   0  0  0  0  0  0  0  0  0  0  0  0
  143.0235  156.7337  134.5604 H   0  0  0  0  0  0  0  0  0  0  0  0
  1  2  1  0
  2  3  1  0
  3  4  1  0
  4  5  2  0
  4  6  1  0
  6  7  1  0
  7  8  1  0
  8  9  2  0
  9 10  1  0
 10 11  2  0
 11 12  1  0
 12 13  2  0
 13 14  1  0
 14 15  1  0
 14 16  2  0
 13 17  1  0
 17 18  1  0
 18 19  2  0
 18 20  1  0
 20 21  1  0
 21 22  1  0
 22 23  1  0
 22 24  1  0
 24 25  1  0
 24 26  2  0
 26 27  1  0
 26 28  1  0
 28 29  1  0
 28 30  2  0
 30 31  1  0
 17 32  1  0
 32 33  2  0
 33  8  1  0
 32 11  1  0
 30 22  1  0
  1 34  1  0
  1 35  1  0
  1 36  1  0
  2 37  1  0
  2 38  1  0
  6 39  1  0
  6 40  1  0
  7 41  1  0
  7 42  1  0
  9 43  1  0
 10 44  1  0
 12 45  1  0
 15 46  1  0
 15 47  1  0
 21 48  1  0
 21 49  1  0
 33 50  1  0
M  END
>  <UniqueID>  (12) 
12

>  <SMILES>  (12) 
CCOC(=O)CCc1ccc2cc(C(N)=O)n(C(=O)OCC3(F)C(F)=C(F)C(F)=C3F)c2c1

>  <Energy>  (12) 
93.77506277432829

>  <Genealogy>  (12) 
CCOC(=O)CCc1ccc2cc(C(N)=O)n(C(=O)OCC3(F)C(F)=C(F)C(F)=C3F)c2c1 (3D coordinates assigned)
CCOC(=O)CCc1ccc2cc(C(N)=O)n(C(=O)OCC3(F)C(F)=C(F)C(F)=C3F)c2c1 (nonaromatic ring conformer: 93.77506277432829 kcal/mol)

>  <smiles>  (12) 
CCOC(=O)CCc1ccc2cc(C(N)=O)n(C(=O)OCC3(F)C(F)=C(F)C(F)=C3F)c2c1

>  <score_type>  (12) 
oracle

>  <origin>  (12) 
adg

>  <m_score__min__energy>  (12) 
-7.8899999999999997

>  <m_primary>  (12) 
energy

$$$$
12:0
     RDKit          3D

 48 50  0  0  0  0  0  0  0  0999 V2000
  147.6020  153.8690  134.1880 C   0  0  0  0  0  0  0  0  0  0  0  0
  148.0300  153.9210  132.7790 N   0  0  0  0  0  0  0  0  0  0  0  0
  149.2810  153.1690  132.5770 C   0  0  0  0  0  0  0  0  0  0  0  0
  148.0840  155.3030  132.2320 C   0  0  0  0  0  0  0  0  0  0  0  0
  148.4860  156.4190  133.2280 C   0  0  0  0  0  0  0  0  0  0  0  0
  147.4760  157.5300  133.3430 C   0  0  0  0  0  0  0  0  0  0  0  0
  147.8920  158.8850  133.2510 C   0  0  0  0  0  0  0  0  0  0  0  0
  146.9600  159.9300  133.3630 C   0  0  0  0  0  0  0  0  0  0  0  0
  145.6220  159.5930  133.5480 C   0  0  0  0  0  0  0  0  0  0  0  0
  144.5170  160.4000  133.7080 C   0  0  0  0  0  0  0  0  0  0  0  0
  143.4420  159.5260  133.8660 C   0  0  0  0  0  0  0  0  0  0  0  0
  142.0400  159.9650  134.0280 C   0  0  0  0  0  0  0  0  0  0  0  0
  141.3750  159.7750  135.2750 N   0  0  0  0  0  0  0  0  0  0  0  0
  141.4270  160.5240  133.0800 O   0  0  0  0  0  0  0  0  0  0  0  0
  143.8660  158.2330  133.8000 N   0  0  0  0  0  0  0  0  0  0  0  0
  143.0820  157.0430  133.9800 C   0  0  0  0  0  0  0  0  0  0  0  0
  141.9400  157.1340  134.5060 O   0  0  0  0  0  0  0  0  0  0  0  0
  143.6020  155.7160  133.5680 C   0  0  0  0  0  0  0  0  0  0  0  0
  143.7490  154.6860  134.5120 C   0  0  0  0  0  0  0  0  0  0  0  0
  144.2430  153.4360  134.1270 C   0  0  0  0  0  0  0  0  0  0  0  0
  144.5950  153.1880  132.7890 C   0  0  0  0  0  0  0  0  0  0  0  0
  145.1200  151.8680  132.3790 C   0  0  0  0  0  0  0  0  0  0  0  0
  144.3480  150.8760  132.2730 O   0  0  0  0  0  0  0  0  0  0  0  0
  146.4720  151.7010  132.1040 O   0  0  0  0  0  0  0  0  0  0  0  0
  144.4390  154.2140  131.8440 C   0  0  0  0  0  0  0  0  0  0  0  0
  143.9450  155.4640  132.2280 C   0  0  0  0  0  0  0  0  0  0  0  0
  145.2020  158.2910  133.6130 C   0  0  0  0  0  0  0  0  0  0  0  0
  146.1070  157.2300  133.5180 C   0  0  0  0  0  0  0  0  0  0  0  0
  148.4800  153.9757  134.8421 H   0  0  0  0  0  0  0  0  0  0  0  0
  146.8949  154.6878  134.3869 H   0  0  0  0  0  0  0  0  0  0  0  0
  147.1116  152.9047  134.3869 H   0  0  0  0  0  0  0  0  0  0  0  0
  147.2900  153.4220  132.2290 H   0  0  0  0  0  0  0  0  0  0  0  0
  149.7142  152.9086  133.5540 H   0  0  0  0  0  0  0  0  0  0  0  0
  149.0686  152.2487  132.0131 H   0  0  0  0  0  0  0  0  0  0  0  0
  149.9941  153.7883  132.0131 H   0  0  0  0  0  0  0  0  0  0  0  0
  148.8135  155.3095  131.4088 H   0  0  0  0  0  0  0  0  0  0  0  0
  147.0537  155.5386  131.9270 H   0  0  0  0  0  0  0  0  0  0  0  0
  148.6160  155.9655  134.2217 H   0  0  0  0  0  0  0  0  0  0  0  0
  149.4128  156.8699  132.8437 H   0  0  0  0  0  0  0  0  0  0  0  0
  148.9549  159.1184  133.0904 H   0  0  0  0  0  0  0  0  0  0  0  0
  147.2775  160.9817  133.3063 H   0  0  0  0  0  0  0  0  0  0  0  0
  144.4887  161.4996  133.7106 H   0  0  0  0  0  0  0  0  0  0  0  0
  141.1860  158.8160  135.6400 H   0  0  0  0  0  0  0  0  0  0  0  0
  143.4734  154.8643  135.5619 H   0  0  0  0  0  0  0  0  0  0  0  0
  144.3571  152.6399  134.8775 H   0  0  0  0  0  0  0  0  0  0  0  0
  144.7076  154.0330  130.7928 H   0  0  0  0  0  0  0  0  0  0  0  0
  143.8236  156.2571  131.4755 H   0  0  0  0  0  0  0  0  0  0  0  0
  145.7616  156.1874  133.5780 H   0  0  0  0  0  0  0  0  0  0  0  0
  1  2  1  0
  2  3  1  0
  2  4  1  0
  4  5  1  0
  5  6  1  0
  6  7  2  0
  7  8  1  0
  8  9  2  0
  9 10  1  0
 10 11  2  0
 11 12  1  0
 12 13  1  0
 12 14  2  0
 11 15  1  0
 15 16  1  0
 16 17  2  0
 16 18  1  0
 18 19  2  0
 19 20  1  0
 20 21  2  0
 21 22  1  0
 22 23  2  0
 22 24  1  0
 21 25  1  0
 25 26  2  0
 15 27  1  0
 27 28  2  0
 28  6  1  0
 27  9  1  0
 26 18  1  0
  1 29  1  0
  1 30  1  0
  1 31  1  0
  2 32  1  0
  3 33  1  0
  3 34  1  0
  3 35  1  0
  4 36  1  0
  4 37  1  0
  5 38  1  0
  5 39  1  0
  7 40  1  0
  8 41  1  0
 10 42  1  0
 13 43  1  0
 19 44  1  0
 20 45  1  0
 25 46  1  0
 26 47  1  0
 28 48  1  0
M  CHG  3   2   1  13  -1  24  -1
M  END
>  <UniqueID>  (13) 
13

>  <SMILES>  (13) 
C[NH+](C)CCc1ccc2cc(C([NH-])=O)n(C(=O)c3ccc(C(=O)[O-])cc3)c2c1

>  <Energy>  (13) 
93.99366198753374

>  <Genealogy>  (13) 
C[NH+](C)CCc1ccc2cc(C([NH-])=O)n(C(=O)c3ccc(C(=O)[O-])cc3)c2c1 (protonated)
C[NH+](C)CCc1ccc2cc(C([NH-])=O)n(C(=O)c3ccc(C(=O)[O-])cc3)c2c1 (3D coordinates assigned)
C[NH+](C)CCc1ccc2cc(C([NH-])=O)n(C(=O)c3ccc(C(=O)[O-])cc3)c2c1 (optimized conformer: 93.99366198753374 kcal/mol)

>  <smiles>  (13) 
CN(C)CCc1ccc2cc(C(N)=O)n(C(=O)c3ccc(C(=O)O)cc3)c2c1

>  <score_type>  (13) 
oracle

>  <origin>  (13) 
adg

>  <m_score__min__energy>  (13) 
-8.0099999999999998

>  <m_primary>  (13) 
energy

$$$$
13:0
     RDKit          3D

 34 35  0  0  0  0  0  0  0  0999 V2000
  142.9700  156.6090  132.9890 C   0  0  0  0  0  0  0  0  0  0  0  0
  143.3570  157.9600  132.7620 O   0  0  0  0  0  0  0  0  0  0  0  0
  143.9170  158.7610  133.7610 C   0  0  0  0  0  0  0  0  0  0  0  0
  143.2370  159.0830  134.7740 O   0  0  0  0  0  0  0  0  0  0  0  0
  145.2800  159.2000  133.6440 N   0  0  0  0  0  0  0  0  0  0  0  0
  145.7500  160.4790  133.6970 C   0  0  0  0  0  0  0  0  0  0  0  0
  144.9670  161.6760  134.0660 C   0  0  0  0  0  0  0  0  0  0  0  0
  143.5860  161.7840  133.7270 N   0  0  0  0  0  0  0  0  0  0  0  0
  145.5110  162.5950  134.7340 O   0  0  0  0  0  0  0  0  0  0  0  0
  147.1170  160.5080  133.4340 C   0  0  0  0  0  0  0  0  0  0  0  0
  147.4760  159.1970  133.2240 C   0  0  0  0  0  0  0  0  0  0  0  0
  148.7150  158.6490  132.9100 C   0  0  0  0  0  0  0  0  0  0  0  0
  148.7920  157.2600  132.7170 C   0  0  0  0  0  0  0  0  0  0  0  0
  147.6360  156.4450  132.8300 C   0  0  0  0  0  0  0  0  0  0  0  0
  147.7430  154.9490  132.6030 C   0  0  0  0  0  0  0  0  0  0  0  0
  149.2060  154.4910  132.6210 C   0  0  0  0  0  0  0  0  0  0  0  0
  146.9090  154.1740  133.6290 C   0  0  0  0  0  0  0  0  0  0  0  0
  146.3930  157.0440  133.1500 C   0  0  0  0  0  0  0  0  0  0  0  0
  146.3510  158.4270  133.3550 C   0  0  0  0  0  0  0  0  0  0  0  0
  142.9159  156.4200  134.0713 H   0  0  0  0  0  0  0  0  0  0  0  0
  141.9841  156.4288  132.5356 H   0  0  0  0  0  0  0  0  0  0  0  0
  143.7110  155.9342  132.5356 H   0  0  0  0  0  0  0  0  0  0  0  0
  142.9700  160.9420  133.7140 H   0  0  0  0  0  0  0  0  0  0  0  0
  147.7710  161.3918  133.4012 H   0  0  0  0  0  0  0  0  0  0  0  0
  149.6079  159.2844  132.8156 H   0  0  0  0  0  0  0  0  0  0  0  0
  149.7606  156.7981  132.4752 H   0  0  0  0  0  0  0  0  0  0  0  0
  147.3351  154.7306  131.6050 H   0  0  0  0  0  0  0  0  0  0  0  0
  149.5443  154.3851  133.6623 H   0  0  0  0  0  0  0  0  0  0  0  0
  149.2934  153.5225  132.1068 H   0  0  0  0  0  0  0  0  0  0  0  0
  149.8300  155.2368  132.1068 H   0  0  0  0  0  0  0  0  0  0  0  0
  147.2181  154.4612  134.6449 H   0  0  0  0  0  0  0  0  0  0  0  0
  145.8438  154.4102  133.4893 H   0  0  0  0  0  0  0  0  0  0  0  0
  147.0666  153.0943  133.4893 H   0  0  0  0  0  0  0  0  0  0  0  0
  145.4809  156.4351  133.2354 H   0  0  0  0  0  0  0  0  0  0  0  0
  1  2  1  0
  2  3  1  0
  3  4  2  0
  3  5  1  0
  5  6  1  0
  6  7  1  0
  7  8  1  0
  7  9  2  0
  6 10  2  0
 10 11  1  0
 11 12  2  0
 12 13  1  0
 13 14  2  0
 14 15  1  0
 15 16  1  0
 15 17  1  0
 14 18  1  0
 18 19  2  0
 19  5  1  0
 19 11  1  0
  1 20  1  0
  1 21  1  0
  1 22  1  0
  8 23  1  0
 10 24  1  0
 12 25  1  0
 13 26  1  0
 15 27  1  0
 16 28  1  0
 16 29  1  0
 16 30  1  0
 17 31  1  0
 17 32  1  0
 17 33  1  0
 18 34  1  0
M  CHG  1   8  -1
M  END
>  <UniqueID>  (14) 
14

>  <SMILES>  (14) 
COC(=O)n1c(C([NH-])=O)cc2ccc(C(C)C)cc21

>  <Energy>  (14) 
67.63344415393372

>  <Genealogy>  (14) 
COC(=O)n1c(C([NH-])=O)cc2ccc(C(C)C)cc21 (protonated)
COC(=O)n1c(C([NH-])=O)cc2ccc(C(C)C)cc21 (3D coordinates assigned)
COC(=O)n1c(C([NH-])=O)cc2ccc(C(C)C)cc21 (optimized conformer: 67.63344415393372 kcal/mol)

>  <smiles>  (14) 
COC(=O)n1c(C(N)=O)cc2ccc(C(C)C)cc21

>  <score_type>  (14) 
oracle

>  <origin>  (14) 
adg

>  <m_score__min__energy>  (14) 
-6.2000000000000002

>  <m_primary>  (14) 
energy

$$$$
14:0
     RDKit          3D

 40 42  0  0  0  0  0  0  0  0999 V2000
  137.9810  149.2150  130.0910 C   0  0  0  0  0  0  0  0  0  0  0  0
  138.7640  149.1900  131.3350 N   0  0  1  0  0  0  0  0  0  0  0  0
  139.7210  148.0710  131.3730 C   0  0  0  0  0  0  0  0  0  0  0  0
  140.9780  148.5600  132.0950 C   0  0  0  0  0  0  0  0  0  0  0  0
  140.7170  150.0270  132.4240 C   0  0  1  0  0  0  0  0  0  0  0  0
  141.9660  150.9080  132.2340 C   0  0  0  0  0  0  0  0  0  0  0  0
  142.0890  151.9290  133.3350 C   0  0  0  0  0  0  0  0  0  0  0  0
  142.6090  153.2180  133.0580 C   0  0  0  0  0  0  0  0  0  0  0  0
  142.7070  154.1830  134.0750 C   0  0  0  0  0  0  0  0  0  0  0  0
  142.2650  153.8370  135.3480 C   0  0  0  0  0  0  0  0  0  0  0  0
  142.2640  154.5680  136.5130 C   0  0  0  0  0  0  0  0  0  0  0  0
  141.7130  153.7270  137.4770 C   0  0  0  0  0  0  0  0  0  0  0  0
  141.4480  154.1530  138.8670 C   0  0  0  0  0  0  0  0  0  0  0  0
  142.5000  154.6320  139.7020 N   0  0  0  0  0  0  0  0  0  0  0  0
  140.2850  154.0470  139.3410 O   0  0  0  0  0  0  0  0  0  0  0  0
  141.3940  152.5180  136.9320 N   0  0  0  0  0  0  0  0  0  0  0  0
  140.8840  151.3540  137.6030 C   0  0  0  0  0  0  0  0  0  0  0  0
  141.0390  151.2170  138.8450 O   0  0  0  0  0  0  0  0  0  0  0  0
  140.2370  150.3570  136.8840 O   0  0  0  0  0  0  0  0  0  0  0  0
  141.7350  152.6030  135.6260 C   0  0  0  0  0  0  0  0  0  0  0  0
  141.6440  151.6150  134.6390 C   0  0  0  0  0  0  0  0  0  0  0  0
  139.5600  150.4090  131.5090 C   0  0  0  0  0  0  0  0  0  0  0  0
  136.9086  149.2492  130.3334 H   0  0  0  0  0  0  0  0  0  0  0  0
  138.2529  150.1049  129.5044 H   0  0  0  0  0  0  0  0  0  0  0  0
  138.1956  148.3095  129.5044 H   0  0  0  0  0  0  0  0  0  0  0  0
  138.1040  149.1010  132.1450 H   0  0  0  0  0  0  0  0  0  0  0  0
  139.2828  147.2213  131.9171 H   0  0  0  0  0  0  0  0  0  0  0  0
  139.9664  147.7384  130.3536 H   0  0  0  0  0  0  0  0  0  0  0  0
  141.1404  147.9826  133.0171 H   0  0  0  0  0  0  0  0  0  0  0  0
  141.8781  148.4355  131.4751 H   0  0  0  0  0  0  0  0  0  0  0  0
  140.4659  150.1834  133.4835 H   0  0  0  0  0  0  0  0  0  0  0  0
  142.8602  150.2674  132.2380 H   0  0  0  0  0  0  0  0  0  0  0  0
  141.8726  151.4404  131.2760 H   0  0  0  0  0  0  0  0  0  0  0  0
  142.9387  153.4653  132.0381 H   0  0  0  0  0  0  0  0  0  0  0  0
  143.1206  155.1816  133.8707 H   0  0  0  0  0  0  0  0  0  0  0  0
  142.6224  155.5984  136.6537 H   0  0  0  0  0  0  0  0  0  0  0  0
  143.2220  155.2880  139.3310 H   0  0  0  0  0  0  0  0  0  0  0  0
  141.2368  150.6201  134.8721 H   0  0  0  0  0  0  0  0  0  0  0  0
  138.9517  151.2001  131.9717 H   0  0  0  0  0  0  0  0  0  0  0  0
  139.9197  150.7968  130.5445 H   0  0  0  0  0  0  0  0  0  0  0  0
  1  2  1  0
  2  3  1  0
  3  4  1  0
  4  5  1  0
  5  6  1  0
  6  7  1  0
  7  8  2  0
  8  9  1  0
  9 10  2  0
 10 11  1  0
 11 12  2  0
 12 13  1  0
 13 14  1  0
 13 15  2  0
 12 16  1  0
 16 17  1  0
 17 18  2  0
 17 19  1  0
 16 20  1  0
 20 21  2  0
  5 22  1  0
 22  2  1  0
 21  7  1  0
 20 10  1  0
  1 23  1  0
  1 24  1  0
  1 25  1  0
  2 26  1  1
  3 27  1  0
  3 28  1  0
  4 29  1  0
  4 30  1  0
  5 31  1  1
  6 32  1  0
  6 33  1  0
  8 34  1  0
  9 35  1  0
 11 36  1  0
 14 37  1  0
 21 38  1  0
 22 39  1  0
 22 40  1  0
M  CHG  3   2   1  14  -1  19  -1
M  END
>  <UniqueID>  (15) 
15

>  <SMILES>  (15) 
C[N@H+]1CC[C@@H](Cc2ccc3cc(C([NH-])=O)n(C(=O)[O-])c3c2)C1

>  <Energy>  (15) 
81.78745082361411

>  <Genealogy>  (15) 
C[NH+]1CCC(Cc2ccc3cc(C([NH-])=O)n(C(=O)[O-])c3c2)C1 (protonated)
C[N@H+]1CC[C@@H](Cc2ccc3cc(C([NH-])=O)n(C(=O)[O-])c3c2)C1 (chirality)
C[N@H+]1CC[C@@H](Cc2ccc3cc(C([NH-])=O)n(C(=O)[O-])c3c2)C1 (3D coordinates assigned)
C[N@H+]1CC[C@@H](Cc2ccc3cc(C([NH-])=O)n(C(=O)[O-])c3c2)C1 (nonaromatic ring conformer: 81.78745082361411 kcal/mol)

>  <smiles>  (15) 
CN1CCC(Cc2ccc3cc(C(N)=O)n(C(=O)O)c3c2)C1

>  <score_type>  (15) 
oracle

>  <origin>  (15) 
adg

>  <m_score__min__energy>  (15) 
-7.1299999999999999

>  <m_primary>  (15) 
energy

$$$$
15:0
     RDKit          3D

 41 42  0  0  0  0  0  0  0  0999 V2000
  150.7450  149.5100  129.2900 C   0  0  0  0  0  0  0  0  0  0  0  0
  150.9900  150.3520  130.5310 C   0  0  0  0  0  0  0  0  0  0  0  0
  149.8690  151.2000  130.7600 O   0  0  0  0  0  0  0  0  0  0  0  0
  149.4620  151.5810  132.0420 C   0  0  0  0  0  0  0  0  0  0  0  0
  148.7750  150.8020  132.7590 O   0  0  0  0  0  0  0  0  0  0  0  0
  149.8910  152.9060  132.5850 C   0  0  0  0  0  0  0  0  0  0  0  0
  148.7010  153.8170  132.7130 C   0  0  0  0  0  0  0  0  0  0  0  0
  147.4180  153.2780  132.9770 C   0  0  0  0  0  0  0  0  0  0  0  0
  146.3080  154.1240  133.1450 C   0  0  0  0  0  0  0  0  0  0  0  0
  146.5140  155.4960  133.0460 C   0  0  0  0  0  0  0  0  0  0  0  0
  145.6280  156.5360  133.2140 C   0  0  0  0  0  0  0  0  0  0  0  0
  146.3820  157.6930  133.0350 C   0  0  0  0  0  0  0  0  0  0  0  0
  145.8070  159.0530  133.0780 C   0  0  0  0  0  0  0  0  0  0  0  0
  146.6300  160.2100  132.9200 N   0  0  0  0  0  0  0  0  0  0  0  0
  144.5590  159.1930  133.1960 O   0  0  0  0  0  0  0  0  0  0  0  0
  147.6840  157.3860  132.7780 N   0  0  0  0  0  0  0  0  0  0  0  0
  148.7900  158.2970  132.6740 C   0  0  0  0  0  0  0  0  0  0  0  0
  149.1480  158.9700  133.6770 O   0  0  0  0  0  0  0  0  0  0  0  0
  149.4560  158.4410  131.4510 O   0  0  0  0  0  0  0  0  0  0  0  0
  149.9450  159.6890  130.9660 C   0  0  0  0  0  0  0  0  0  0  0  0
  148.8200  160.5000  130.3330 C   0  0  0  0  0  0  0  0  0  0  0  0
  147.7480  156.0350  132.7850 C   0  0  0  0  0  0  0  0  0  0  0  0
  148.8730  155.2160  132.6290 C   0  0  0  0  0  0  0  0  0  0  0  0
  150.4492  148.4936  129.5890 H   0  0  0  0  0  0  0  0  0  0  0  0
  149.9418  149.9644  128.6913 H   0  0  0  0  0  0  0  0  0  0  0  0
  151.6666  149.4625  128.6913 H   0  0  0  0  0  0  0  0  0  0  0  0
  151.1335  149.6919  131.3992 H   0  0  0  0  0  0  0  0  0  0  0  0
  151.8902  150.9669  130.3842 H   0  0  0  0  0  0  0  0  0  0  0  0
  150.3492  152.7634  133.5748 H   0  0  0  0  0  0  0  0  0  0  0  0
  150.6215  153.3591  131.8986 H   0  0  0  0  0  0  0  0  0  0  0  0
  147.2891  152.1881  133.0512 H   0  0  0  0  0  0  0  0  0  0  0  0
  145.3078  153.7138  133.3484 H   0  0  0  0  0  0  0  0  0  0  0  0
  144.5539  156.4677  133.4411 H   0  0  0  0  0  0  0  0  0  0  0  0
  146.2080  161.1650  132.9670 H   0  0  0  0  0  0  0  0  0  0  0  0
  147.6330  160.1250  132.6490 H   0  0  0  0  0  0  0  0  0  0  0  0
  150.3737  160.2588  131.8036 H   0  0  0  0  0  0  0  0  0  0  0  0
  150.7133  159.4951  130.2031 H   0  0  0  0  0  0  0  0  0  0  0  0
  148.2001  160.9469  131.1242 H   0  0  0  0  0  0  0  0  0  0  0  0
  149.2493  161.2977  129.7090 H   0  0  0  0  0  0  0  0  0  0  0  0
  148.1989  159.8406  129.7090 H   0  0  0  0  0  0  0  0  0  0  0  0
  149.8662  155.6517  132.4455 H   0  0  0  0  0  0  0  0  0  0  0  0
  1  2  1  0
  2  3  1  0
  3  4  1  0
  4  5  2  0
  4  6  1  0
  6  7  1  0
  7  8  2  0
  8  9  1  0
  9 10  2  0
 10 11  1  0
 11 12  2  0
 12 13  1  0
 13 14  1  0
 13 15  2  0
 12 16  1  0
 16 17  1  0
 17 18  2  0
 17 19  1  0
 19 20  1  0
 20 21  1  0
 16 22  1  0
 22 23  2  0
 23  7  1  0
 22 10  1  0
  1 24  1  0
  1 25  1  0
  1 26  1  0
  2 27  1  0
  2 28  1  0
  6 29  1  0
  6 30  1  0
  8 31  1  0
  9 32  1  0
 11 33  1  0
 14 34  1  0
 14 35  1  0
 20 36  1  0
 20 37  1  0
 21 38  1  0
 21 39  1  0
 21 40  1  0
 23 41  1  0
M  END
>  <UniqueID>  (16) 
16

>  <SMILES>  (16) 
CCOC(=O)Cc1ccc2cc(C(N)=O)n(C(=O)OCC)c2c1

>  <Energy>  (16) 
68.66234588256624

>  <Genealogy>  (16) 
CCOC(=O)Cc1ccc2cc(C(N)=O)n(C(=O)OCC)c2c1 (3D coordinates assigned)
CCOC(=O)Cc1ccc2cc(C(N)=O)n(C(=O)OCC)c2c1 (optimized conformer: 68.66234588256624 kcal/mol)

>  <smiles>  (16) 
CCOC(=O)Cc1ccc2cc(C(N)=O)n(C(=O)OCC)c2c1

>  <score_type>  (16) 
oracle

>  <origin>  (16) 
adg

>  <m_score__min__energy>  (16) 
-6.5700000000000003

>  <m_primary>  (16) 
energy

$$$$
16:0
     RDKit          3D

 50 52  0  0  0  0  0  0  0  0999 V2000
  140.4480  156.0260  133.7230 C   0  0  0  0  0  0  0  0  0  0  0  0
  140.8960  157.4900  133.6090 C   0  0  0  0  0  0  0  0  0  0  0  0
  140.0500  158.1880  132.5270 C   0  0  0  0  0  0  0  0  0  0  0  0
  140.7060  158.1780  134.9740 C   0  0  0  0  0  0  0  0  0  0  0  0
  142.2830  157.4810  133.2360 O   0  0  0  0  0  0  0  0  0  0  0  0
  143.3800  157.4300  134.1090 C   0  0  0  0  0  0  0  0  0  0  0  0
  143.3060  156.8130  135.2060 O   0  0  0  0  0  0  0  0  0  0  0  0
  144.5940  158.1100  133.7570 N   0  0  0  0  0  0  0  0  0  0  0  0
  144.7790  159.4510  133.5960 C   0  0  0  0  0  0  0  0  0  0  0  0
  143.7180  160.4790  133.5980 C   0  0  0  0  0  0  0  0  0  0  0  0
  142.4190  160.1590  133.1050 N   0  0  0  0  0  0  0  0  0  0  0  0
  143.9340  161.6280  134.0660 O   0  0  0  0  0  0  0  0  0  0  0  0
  146.1200  159.7320  133.3410 C   0  0  0  0  0  0  0  0  0  0  0  0
  146.7550  158.5110  133.3470 C   0  0  0  0  0  0  0  0  0  0  0  0
  148.0980  158.2020  133.1640 C   0  0  0  0  0  0  0  0  0  0  0  0
  148.4830  156.8540  133.2550 C   0  0  0  0  0  0  0  0  0  0  0  0
  147.5260  155.8410  133.5290 C   0  0  0  0  0  0  0  0  0  0  0  0
  147.9460  154.3870  133.6550 C   0  0  2  0  0  0  0  0  0  0  0  0
  149.0190  154.0390  132.6050 C   0  0  0  0  0  0  0  0  0  0  0  0
  149.2240  152.5240  132.5380 C   0  0  0  0  0  0  0  0  0  0  0  0
  147.9080  151.7700  132.2350 C   0  0  0  0  0  0  0  0  0  0  0  0
  146.7060  152.6130  132.3760 N   0  0  0  0  0  0  0  0  0  0  0  0
  146.7330  153.4140  133.6100 C   0  0  0  0  0  0  0  0  0  0  0  0
  146.1700  156.2000  133.7150 C   0  0  0  0  0  0  0  0  0  0  0  0
  145.8130  157.5480  133.6010 C   0  0  0  0  0  0  0  0  0  0  0  0
  140.3635  155.7500  134.7845 H   0  0  0  0  0  0  0  0  0  0  0  0
  139.4709  155.9023  133.2331 H   0  0  0  0  0  0  0  0  0  0  0  0
  141.1886  155.3767  133.2331 H   0  0  0  0  0  0  0  0  0  0  0  0
  139.2869  158.8176  133.0078 H   0  0  0  0  0  0  0  0  0  0  0  0
  140.7012  158.8151  131.9003 H   0  0  0  0  0  0  0  0  0  0  0  0
  139.5580  157.4296  131.9003 H   0  0  0  0  0  0  0  0  0  0  0  0
  140.9054  157.4559  135.7795 H   0  0  0  0  0  0  0  0  0  0  0  0
  141.4042  159.0238  135.0587 H   0  0  0  0  0  0  0  0  0  0  0  0
  139.6727  158.5456  135.0587 H   0  0  0  0  0  0  0  0  0  0  0  0
  142.2930  159.4600  132.3400 H   0  0  0  0  0  0  0  0  0  0  0  0
  146.5742  160.7194  133.1711 H   0  0  0  0  0  0  0  0  0  0  0  0
  148.8370  158.9893  132.9542 H   0  0  0  0  0  0  0  0  0  0  0  0
  149.5387  156.5797  133.1123 H   0  0  0  0  0  0  0  0  0  0  0  0
  148.3973  154.2539  134.6493 H   0  0  0  0  0  0  0  0  0  0  0  0
  148.6950  154.4054  131.6197 H   0  0  0  0  0  0  0  0  0  0  0  0
  149.9679  154.5164  132.8909 H   0  0  0  0  0  0  0  0  0  0  0  0
  149.9518  152.2996  131.7443 H   0  0  0  0  0  0  0  0  0  0  0  0
  149.5874  152.1883  133.5204 H   0  0  0  0  0  0  0  0  0  0  0  0
  147.9512  151.3937  131.2023 H   0  0  0  0  0  0  0  0  0  0  0  0
  147.8227  150.9560  132.9699 H   0  0  0  0  0  0  0  0  0  0  0  0
  146.6110  153.2390  131.5420 H   0  0  0  0  0  0  0  0  0  0  0  0
  145.8640  151.9920  132.4000 H   0  0  0  0  0  0  0  0  0  0  0  0
  145.8053  154.0020  133.6706 H   0  0  0  0  0  0  0  0  0  0  0  0
  146.8253  152.7211  134.4594 H   0  0  0  0  0  0  0  0  0  0  0  0
  145.4128  155.4357  133.9443 H   0  0  0  0  0  0  0  0  0  0  0  0
  1  2  1  0
  2  3  1  0
  2  4  1  0
  2  5  1  0
  5  6  1  0
  6  7  2  0
  6  8  1  0
  8  9  1  0
  9 10  1  0
 10 11  1  0
 10 12  2  0
  9 13  2  0
 13 14  1  0
 14 15  2  0
 15 16  1  0
 16 17  2  0
 17 18  1  0
 18 19  1  0
 19 20  1  0
 20 21  1  0
 21 22  1  0
 22 23  1  0
 17 24  1  0
 24 25  2  0
 25  8  1  0
 25 14  1  0
 23 18  1  0
  1 26  1  0
  1 27  1  0
  1 28  1  0
  3 29  1  0
  3 30  1  0
  3 31  1  0
  4 32  1  0
  4 33  1  0
  4 34  1  0
 11 35  1  0
 13 36  1  0
 15 37  1  0
 16 38  1  0
 18 39  1  1
 19 40  1  0
 19 41  1  0
 20 42  1  0
 20 43  1  0
 21 44  1  0
 21 45  1  0
 22 46  1  0
 22 47  1  0
 23 48  1  0
 23 49  1  0
 24 50  1  0
M  CHG  2  11  -1  22   1
M  END
>  <UniqueID>  (17) 
17

>  <SMILES>  (17) 
CC(C)(C)OC(=O)n1c(C([NH-])=O)cc2ccc([C@@H]3CCC[NH2+]C3)cc21

>  <Energy>  (17) 
90.35230504770755

>  <Genealogy>  (17) 
CC(C)(C)OC(=O)n1c(C([NH-])=O)cc2ccc(C3CCC[NH2+]C3)cc21 (protonated)
CC(C)(C)OC(=O)n1c(C([NH-])=O)cc2ccc([C@@H]3CCC[NH2+]C3)cc21 (chirality)
CC(C)(C)OC(=O)n1c(C([NH-])=O)cc2ccc([C@@H]3CCC[NH2+]C3)cc21 (3D coordinates assigned)
CC(C)(C)OC(=O)n1c(C([NH-])=O)cc2ccc([C@@H]3CCC[NH2+]C3)cc21 (nonaromatic ring conformer: 90.35230504770755 kcal/mol)

>  <smiles>  (17) 
CC(C)(C)OC(=O)n1c(C(N)=O)cc2ccc(C3CCCNC3)cc21

>  <score_type>  (17) 
oracle

>  <origin>  (17) 
adg

>  <m_score__min__energy>  (17) 
-7.8899999999999997

>  <m_primary>  (17) 
energy

$$$$
17:0
     RDKit          3D

 40 42  0  0  0  0  0  0  0  0999 V2000
  139.1460  146.9930  129.9790 C   0  0  0  0  0  0  0  0  0  0  0  0
  138.4410  148.0890  130.5480 O   0  0  0  0  0  0  0  0  0  0  0  0
  139.0380  149.3340  130.7690 C   0  0  0  0  0  0  0  0  0  0  0  0
  139.4870  150.0130  129.8050 O   0  0  0  0  0  0  0  0  0  0  0  0
  139.1900  149.8390  132.1660 C   0  0  0  0  0  0  0  0  0  0  0  0
  140.5680  150.2570  132.3920 N   0  0  0  0  0  0  0  0  0  0  0  0
  140.9920  151.5250  132.5600 C   0  0  0  0  0  0  0  0  0  0  0  0
  142.3640  151.4970  132.6810 C   0  0  0  0  0  0  0  0  0  0  0  0
  143.2700  152.6530  132.9640 C   0  0  0  0  0  0  0  0  0  0  0  0
  142.8310  153.3550  134.2190 C   0  0  0  0  0  0  0  0  0  0  0  0
  142.9140  154.7670  134.3080 C   0  0  0  0  0  0  0  0  0  0  0  0
  142.4590  155.4380  135.4550 C   0  0  0  0  0  0  0  0  0  0  0  0
  141.9280  154.6750  136.4910 C   0  0  0  0  0  0  0  0  0  0  0  0
  141.3860  155.0700  137.6920 C   0  0  0  0  0  0  0  0  0  0  0  0
  140.9910  153.8930  138.3250 C   0  0  0  0  0  0  0  0  0  0  0  0
  140.4310  153.8560  139.6910 C   0  0  0  0  0  0  0  0  0  0  0  0
  141.1270  153.2070  140.7530 N   0  0  0  0  0  0  0  0  0  0  0  0
  139.3460  154.4480  139.9370 O   0  0  0  0  0  0  0  0  0  0  0  0
  141.2680  152.8120  137.5400 N   0  0  0  0  0  0  0  0  0  0  0  0
  140.9410  151.4350  137.7870 C   0  0  0  0  0  0  0  0  0  0  0  0
  140.9740  150.9730  138.9570 O   0  0  0  0  0  0  0  0  0  0  0  0
  140.5580  150.6060  136.7400 O   0  0  0  0  0  0  0  0  0  0  0  0
  141.8450  153.3080  136.4230 C   0  0  0  0  0  0  0  0  0  0  0  0
  142.2740  152.6150  135.2850 C   0  0  0  0  0  0  0  0  0  0  0  0
  142.7140  150.1630  132.5870 C   0  0  0  0  0  0  0  0  0  0  0  0
  141.6010  149.4280  132.3970 N   0  0  0  0  0  0  0  0  0  0  0  0
  139.5523  146.3614  130.7827 H   0  0  0  0  0  0  0  0  0  0  0  0
  138.4602  146.3990  129.3571 H   0  0  0  0  0  0  0  0  0  0  0  0
  139.9709  147.3708  129.3571 H   0  0  0  0  0  0  0  0  0  0  0  0
  138.5183  150.6965  132.3196 H   0  0  0  0  0  0  0  0  0  0  0  0
  138.9331  149.0361  132.8727 H   0  0  0  0  0  0  0  0  0  0  0  0
  140.3563  152.4220  132.5944 H   0  0  0  0  0  0  0  0  0  0  0  0
  144.2991  152.2863  133.0926 H   0  0  0  0  0  0  0  0  0  0  0  0
  143.2282  153.3592  132.1217 H   0  0  0  0  0  0  0  0  0  0  0  0
  143.3383  155.3422  133.4719 H   0  0  0  0  0  0  0  0  0  0  0  0
  142.5205  156.5336  135.5322 H   0  0  0  0  0  0  0  0  0  0  0  0
  141.2856  156.0973  138.0722 H   0  0  0  0  0  0  0  0  0  0  0  0
  141.4690  152.2260  140.6510 H   0  0  0  0  0  0  0  0  0  0  0  0
  142.1796  151.5208  135.2226 H   0  0  0  0  0  0  0  0  0  0  0  0
  143.7373  149.7653  132.6562 H   0  0  0  0  0  0  0  0  0  0  0  0
  1  2  1  0
  2  3  1  0
  3  4  2  0
  3  5  1  0
  5  6  1  0
  6  7  1  0
  7  8  2  0
  8  9  1  0
  9 10  1  0
 10 11  2  0
 11 12  1  0
 12 13  2  0
 13 14  1  0
 14 15  2  0
 15 16  1  0
 16 17  1  0
 16 18  2  0
 15 19  1  0
 19 20  1  0
 20 21  2  0
 20 22  1  0
 19 23  1  0
 23 24  2  0
  8 25  1  0
 25 26  2  0
 26  6  1  0
 24 10  1  0
 23 13  1  0
  1 27  1  0
  1 28  1  0
  1 29  1  0
  5 30  1  0
  5 31  1  0
  7 32  1  0
  9 33  1  0
  9 34  1  0
 11 35  1  0
 12 36  1  0
 14 37  1  0
 17 38  1  0
 24 39  1  0
 25 40  1  0
M  CHG  2  17  -1  22  -1
M  END
>  <UniqueID>  (18) 
18

>  <SMILES>  (18) 
COC(=O)Cn1cc(Cc2ccc3cc(C([NH-])=O)n(C(=O)[O-])c3c2)cn1

>  <Energy>  (18) 
105.5599364791947

>  <Genealogy>  (18) 
COC(=O)Cn1cc(Cc2ccc3cc(C([NH-])=O)n(C(=O)[O-])c3c2)cn1 (protonated)
COC(=O)Cn1cc(Cc2ccc3cc(C([NH-])=O)n(C(=O)[O-])c3c2)cn1 (3D coordinates assigned)
COC(=O)Cn1cc(Cc2ccc3cc(C([NH-])=O)n(C(=O)[O-])c3c2)cn1 (optimized conformer: 105.5599364791947 kcal/mol)

>  <smiles>  (18) 
COC(=O)Cn1cc(Cc2ccc3cc(C(N)=O)n(C(=O)O)c3c2)cn1

>  <score_type>  (18) 
oracle

>  <origin>  (18) 
adg

>  <m_score__min__energy>  (18) 
-7.2400000000000002

>  <m_primary>  (18) 
energy

$$$$
18:0
     RDKit          3D

 36 38  0  0  0  0  0  0  0  0999 V2000
  139.1170  157.8520  136.7060 N   0  0  0  0  0  0  0  0  0  0  0  0
  139.4750  157.8310  135.3270 C   0  0  0  0  0  0  0  0  0  0  0  0
  138.5710  157.9010  134.4530 O   0  0  0  0  0  0  0  0  0  0  0  0
  140.8840  157.6690  134.9110 C   0  0  0  0  0  0  0  0  0  0  0  0
  141.6460  156.5430  135.2130 C   0  0  0  0  0  0  0  0  0  0  0  0
  142.9080  156.8180  134.7390 C   0  0  0  0  0  0  0  0  0  0  0  0
  144.0610  156.0410  134.7640 C   0  0  0  0  0  0  0  0  0  0  0  0
  145.2230  156.5660  134.1730 C   0  0  0  0  0  0  0  0  0  0  0  0
  145.2120  157.8480  133.5620 C   0  0  0  0  0  0  0  0  0  0  0  0
  146.4440  158.3860  132.9310 C   0  0  0  0  0  0  0  0  0  0  0  0
  146.5410  159.7500  132.6010 C   0  0  0  0  0  0  0  0  0  0  0  0
  147.7000  160.2560  132.0070 C   0  0  0  0  0  0  0  0  0  0  0  0
  148.7800  159.4080  131.7250 C   0  0  0  0  0  0  0  0  0  0  0  0
  150.0410  159.9580  131.1170 C   0  0  0  0  0  0  0  0  0  0  0  0
  149.7060  160.8970  130.0020 C   0  0  0  0  0  0  0  0  0  0  0  0
  149.5560  160.4620  128.8310 O   0  0  0  0  0  0  0  0  0  0  0  0
  149.6080  162.2610  130.2480 O   0  0  0  0  0  0  0  0  0  0  0  0
  148.6940  158.0490  132.0640 C   0  0  0  0  0  0  0  0  0  0  0  0
  147.5340  157.5420  132.6570 C   0  0  0  0  0  0  0  0  0  0  0  0
  144.0170  158.6050  133.5580 C   0  0  0  0  0  0  0  0  0  0  0  0
  142.8800  158.0650  134.1710 C   0  0  0  0  0  0  0  0  0  0  0  0
  141.6420  158.6010  134.2660 N   0  0  0  0  0  0  0  0  0  0  0  0
  141.2070  159.8500  133.7040 C   0  0  0  0  0  0  0  0  0  0  0  0
  141.7310  160.9320  134.0790 O   0  0  0  0  0  0  0  0  0  0  0  0
  140.2230  159.8730  132.7240 O   0  0  0  0  0  0  0  0  0  0  0  0
  139.0830  158.7500  137.2380 H   0  0  0  0  0  0  0  0  0  0  0  0
  141.3101  155.6278  135.7225 H   0  0  0  0  0  0  0  0  0  0  0  0
  144.0635  155.0456  135.2322 H   0  0  0  0  0  0  0  0  0  0  0  0
  146.1520  155.9770  134.1838 H   0  0  0  0  0  0  0  0  0  0  0  0
  145.6975  160.4237  132.8123 H   0  0  0  0  0  0  0  0  0  0  0  0
  147.7653  161.3257  131.7593 H   0  0  0  0  0  0  0  0  0  0  0  0
  150.6117  160.4969  131.8877 H   0  0  0  0  0  0  0  0  0  0  0  0
  150.6419  159.1266  130.7198 H   0  0  0  0  0  0  0  0  0  0  0  0
  149.5432  157.3796  131.8622 H   0  0  0  0  0  0  0  0  0  0  0  0
  147.4738  156.4735  132.9113 H   0  0  0  0  0  0  0  0  0  0  0  0
  143.9818  159.5967  133.0834 H   0  0  0  0  0  0  0  0  0  0  0  0
  1  2  1  0
  2  3  2  0
  2  4  1  0
  4  5  2  0
  5  6  1  0
  6  7  2  0
  7  8  1  0
  8  9  2  0
  9 10  1  0
 10 11  2  0
 11 12  1  0
 12 13  2  0
 13 14  1  0
 14 15  1  0
 15 16  2  0
 15 17  1  0
 13 18  1  0
 18 19  2  0
  9 20  1  0
 20 21  2  0
 21 22  1  0
 22 23  1  0
 23 24  2  0
 23 25  1  0
 22  4  1  0
 21  6  1  0
 19 10  1  0
  1 26  1  0
  5 27  1  0
  7 28  1  0
  8 29  1  0
 11 30  1  0
 12 31  1  0
 14 32  1  0
 14 33  1  0
 18 34  1  0
 19 35  1  0
 20 36  1  0
M  CHG  3   1  -1  17  -1  25  -1
M  END
>  <UniqueID>  (19) 
19

>  <SMILES>  (19) 
[NH-]C(=O)c1cc2ccc(-c3ccc(CC(=O)[O-])cc3)cc2n1C(=O)[O-]

>  <Energy>  (19) 
82.29229739487249

>  <Genealogy>  (19) 
[NH-]C(=O)c1cc2ccc(-c3ccc(CC(=O)[O-])cc3)cc2n1C(=O)[O-] (protonated)
[NH-]C(=O)c1cc2ccc(-c3ccc(CC(=O)[O-])cc3)cc2n1C(=O)[O-] (3D coordinates assigned)
[NH-]C(=O)c1cc2ccc(-c3ccc(CC(=O)[O-])cc3)cc2n1C(=O)[O-] (optimized conformer: 82.29229739487249 kcal/mol)

>  <smiles>  (19) 
NC(=O)c1cc2ccc(-c3ccc(CC(=O)O)cc3)cc2n1C(=O)O

>  <score_type>  (19) 
oracle

>  <origin>  (19) 
adg

>  <m_score__min__energy>  (19) 
-8.0600000000000005

>  <m_primary>  (19) 
energy

$$$$
19:0
     RDKit          3D

 45 47  0  0  0  0  0  0  0  0999 V2000
  147.6960  154.1550  135.6180 C   0  0  0  0  0  0  0  0  0  0  0  0
  147.7140  154.6910  134.1910 C   0  0  0  0  0  0  0  0  0  0  0  0
  147.1950  156.0180  134.1450 O   0  0  0  0  0  0  0  0  0  0  0  0
  147.0590  156.7530  132.9620 C   0  0  0  0  0  0  0  0  0  0  0  0
  147.1730  156.1850  131.8420 O   0  0  0  0  0  0  0  0  0  0  0  0
  146.7730  158.1590  133.0250 N   0  0  0  0  0  0  0  0  0  0  0  0
  147.6440  159.1920  132.8540 C   0  0  0  0  0  0  0  0  0  0  0  0
  149.0440  159.0810  132.3950 C   0  0  0  0  0  0  0  0  0  0  0  0
  149.6250  157.8110  132.1130 N   0  0  0  0  0  0  0  0  0  0  0  0
  149.7230  160.1260  132.2030 O   0  0  0  0  0  0  0  0  0  0  0  0
  147.0100  160.4080  133.0970 C   0  0  0  0  0  0  0  0  0  0  0  0
  145.7120  160.0840  133.4180 C   0  0  0  0  0  0  0  0  0  0  0  0
  144.6470  160.9040  133.7580 C   0  0  0  0  0  0  0  0  0  0  0  0
  143.4190  160.2990  134.0730 C   0  0  0  0  0  0  0  0  0  0  0  0
  143.2620  158.8790  134.0610 C   0  0  0  0  0  0  0  0  0  0  0  0
  141.9820  158.2560  134.4030 N   0  0  0  0  0  0  0  0  0  0  0  0
  141.5750  157.0260  133.6870 C   0  0  0  0  0  0  0  0  0  0  0  0
  140.2540  156.4060  134.1660 C   0  0  0  0  0  0  0  0  0  0  0  0
  139.2620  157.4050  134.5740 N   0  0  0  0  0  0  0  0  0  0  0  0
  138.7860  158.2360  133.4540 C   0  0  0  0  0  0  0  0  0  0  0  0
  139.7910  158.1970  135.6900 C   0  0  0  0  0  0  0  0  0  0  0  0
  141.0740  158.9600  135.3340 C   0  0  0  0  0  0  0  0  0  0  0  0
  144.3910  158.0870  133.6980 C   0  0  0  0  0  0  0  0  0  0  0  0
  145.5930  158.7230  133.3700 C   0  0  0  0  0  0  0  0  0  0  0  0
  147.7243  154.9963  136.3261 H   0  0  0  0  0  0  0  0  0  0  0  0
  146.7777  153.5711  135.7788 H   0  0  0  0  0  0  0  0  0  0  0  0
  148.5730  153.5108  135.7788 H   0  0  0  0  0  0  0  0  0  0  0  0
  148.7495  154.6951  133.8198 H   0  0  0  0  0  0  0  0  0  0  0  0
  147.0858  154.0433  133.5618 H   0  0  0  0  0  0  0  0  0  0  0  0
  149.1140  157.1000  131.5430 H   0  0  0  0  0  0  0  0  0  0  0  0
  147.4528  161.4135  133.0436 H   0  0  0  0  0  0  0  0  0  0  0  0
  144.7605  161.9979  133.7805 H   0  0  0  0  0  0  0  0  0  0  0  0
  142.5589  160.9328  134.3348 H   0  0  0  0  0  0  0  0  0  0  0  0
  141.4704  157.2707  132.6197 H   0  0  0  0  0  0  0  0  0  0  0  0
  142.3571  156.2790  133.8879 H   0  0  0  0  0  0  0  0  0  0  0  0
  139.8308  155.8078  133.3456 H   0  0  0  0  0  0  0  0  0  0  0  0
  140.4824  155.7921  135.0497 H   0  0  0  0  0  0  0  0  0  0  0  0
  138.2758  159.1267  133.8493 H   0  0  0  0  0  0  0  0  0  0  0  0
  139.6428  158.5472  132.8383 H   0  0  0  0  0  0  0  0  0  0  0  0
  138.0841  157.6544  132.8383 H   0  0  0  0  0  0  0  0  0  0  0  0
  139.0250  158.9246  135.9966 H   0  0  0  0  0  0  0  0  0  0  0  0
  140.0414  157.4955  136.4994 H   0  0  0  0  0  0  0  0  0  0  0  0
  140.7856  159.9157  134.8720 H   0  0  0  0  0  0  0  0  0  0  0  0
  141.6312  159.0802  136.2748 H   0  0  0  0  0  0  0  0  0  0  0  0
  144.3176  156.9897  133.6762 H   0  0  0  0  0  0  0  0  0  0  0  0
  1  2  1  0
  2  3  1  0
  3  4  1  0
  4  5  2  0
  4  6  1  0
  6  7  1  0
  7  8  1  0
  8  9  1  0
  8 10  2  0
  7 11  2  0
 11 12  1  0
 12 13  2  0
 13 14  1  0
 14 15  2  0
 15 16  1  0
 16 17  1  0
 17 18  1  0
 18 19  1  0
 19 20  1  0
 19 21  1  0
 21 22  1  0
 15 23  1  0
 23 24  2  0
 24  6  1  0
 24 12  1  0
 22 16  1  0
  1 25  1  0
  1 26  1  0
  1 27  1  0
  2 28  1  0
  2 29  1  0
  9 30  1  0
 11 31  1  0
 13 32  1  0
 14 33  1  0
 17 34  1  0
 17 35  1  0
 18 36  1  0
 18 37  1  0
 20 38  1  0
 20 39  1  0
 20 40  1  0
 21 41  1  0
 21 42  1  0
 22 43  1  0
 22 44  1  0
 23 45  1  0
M  CHG  1   9  -1
M  END
>  <UniqueID>  (20) 
20

>  <SMILES>  (20) 
CCOC(=O)n1c(C([NH-])=O)cc2ccc(N3CCN(C)CC3)cc21

>  <Energy>  (20) 
92.08168261950706

>  <Genealogy>  (20) 
CCOC(=O)n1c(C([NH-])=O)cc2ccc(N3CCN(C)CC3)cc21 (protonated)
CCOC(=O)n1c(C([NH-])=O)cc2ccc(N3CCN(C)CC3)cc21 (3D coordinates assigned)
CCOC(=O)n1c(C([NH-])=O)cc2ccc(N3CCN(C)CC3)cc21 (nonaromatic ring conformer: 92.08168261950706 kcal/mol)

>  <smiles>  (20) 
CCOC(=O)n1c(C(N)=O)cc2ccc(N3CCN(C)CC3)cc21

>  <score_type>  (20) 
oracle

>  <origin>  (20) 
adg

>  <m_score__min__energy>  (20) 
-6.8899999999999997

>  <m_primary>  (20) 
energy

$$$$
20:0
     RDKit          3D

 36 38  0  0  0  0  0  0  0  0999 V2000
  140.3450  150.0360  132.4860 C   0  0  0  0  0  0  0  0  0  0  0  0
  141.0500  150.5700  133.6010 O   0  0  0  0  0  0  0  0  0  0  0  0
  142.1060  151.4890  133.5050 C   0  0  0  0  0  0  0  0  0  0  0  0
  142.0440  152.7710  134.0820 C   0  0  0  0  0  0  0  0  0  0  0  0
  143.1220  153.6530  133.9610 C   0  0  0  0  0  0  0  0  0  0  0  0
  144.2810  153.2730  133.2630 C   0  0  0  0  0  0  0  0  0  0  0  0
  145.4260  154.2100  133.1360 C   0  0  0  0  0  0  0  0  0  0  0  0
  146.7490  153.7120  132.9940 C   0  0  0  0  0  0  0  0  0  0  0  0
  147.8400  154.5890  132.8870 C   0  0  0  0  0  0  0  0  0  0  0  0
  147.5840  155.9550  132.9110 C   0  0  0  0  0  0  0  0  0  0  0  0
  148.4580  157.0170  132.8580 C   0  0  0  0  0  0  0  0  0  0  0  0
  147.6580  158.1530  132.9380 C   0  0  0  0  0  0  0  0  0  0  0  0
  148.1910  159.5280  132.8510 C   0  0  0  0  0  0  0  0  0  0  0  0
  147.3370  160.6350  132.5670 N   0  0  0  0  0  0  0  0  0  0  0  0
  149.4300  159.7190  132.9750 O   0  0  0  0  0  0  0  0  0  0  0  0
  146.3430  157.8130  133.0480 N   0  0  0  0  0  0  0  0  0  0  0  0
  145.2310  158.6960  133.2720 C   0  0  0  0  0  0  0  0  0  0  0  0
  145.3500  159.6970  134.0260 O   0  0  0  0  0  0  0  0  0  0  0  0
  144.0110  158.4550  132.6500 O   0  0  0  0  0  0  0  0  0  0  0  0
  146.3140  156.4600  133.0260 C   0  0  0  0  0  0  0  0  0  0  0  0
  145.2100  155.6090  133.1570 C   0  0  0  0  0  0  0  0  0  0  0  0
  144.3390  151.9900  132.6900 C   0  0  0  0  0  0  0  0  0  0  0  0
  143.2610  151.1090  132.8110 C   0  0  0  0  0  0  0  0  0  0  0  0
  143.3400  149.8750  132.2540 F   0  0  0  0  0  0  0  0  0  0  0  0
  139.5157  149.4078  132.8432 H   0  0  0  0  0  0  0  0  0  0  0  0
  139.9449  150.8597  131.8765 H   0  0  0  0  0  0  0  0  0  0  0  0
  141.0295  149.4278  131.8765 H   0  0  0  0  0  0  0  0  0  0  0  0
  141.1426  153.0808  134.6311 H   0  0  0  0  0  0  0  0  0  0  0  0
  143.0624  154.6527  134.4159 H   0  0  0  0  0  0  0  0  0  0  0  0
  146.9206  152.6258  132.9676 H   0  0  0  0  0  0  0  0  0  0  0  0
  148.8666  154.2067  132.7872 H   0  0  0  0  0  0  0  0  0  0  0  0
  149.5538  156.9765  132.7711 H   0  0  0  0  0  0  0  0  0  0  0  0
  146.3390  160.4920  132.2960 H   0  0  0  0  0  0  0  0  0  0  0  0
  147.7250  161.6040  132.5450 H   0  0  0  0  0  0  0  0  0  0  0  0
  144.1959  156.0188  133.2738 H   0  0  0  0  0  0  0  0  0  0  0  0
  145.2402  151.6774  132.1421 H   0  0  0  0  0  0  0  0  0  0  0  0
  1  2  1  0
  2  3  1  0
  3  4  2  0
  4  5  1  0
  5  6  2  0
  6  7  1  0
  7  8  2  0
  8  9  1  0
  9 10  2  0
 10 11  1  0
 11 12  2  0
 12 13  1  0
 13 14  1  0
 13 15  2  0
 12 16  1  0
 16 17  1  0
 17 18  2  0
 17 19  1  0
 16 20  1  0
 20 21  2  0
  6 22  1  0
 22 23  2  0
 23 24  1  0
 23  3  1  0
 21  7  1  0
 20 10  1  0
  1 25  1  0
  1 26  1  0
  1 27  1  0
  4 28  1  0
  5 29  1  0
  8 30  1  0
  9 31  1  0
 11 32  1  0
 14 33  1  0
 14 34  1  0
 21 35  1  0
 22 36  1  0
M  CHG  1  19  -1
M  END
>  <UniqueID>  (21) 
21

>  <SMILES>  (21) 
COc1ccc(-c2ccc3cc(C(N)=O)n(C(=O)[O-])c3c2)cc1F

>  <Energy>  (21) 
83.5904810195894

>  <Genealogy>  (21) 
COc1ccc(-c2ccc3cc(C(N)=O)n(C(=O)[O-])c3c2)cc1F (protonated)
COc1ccc(-c2ccc3cc(C(N)=O)n(C(=O)[O-])c3c2)cc1F (3D coordinates assigned)
COc1ccc(-c2ccc3cc(C(N)=O)n(C(=O)[O-])c3c2)cc1F (optimized conformer: 83.5904810195894 kcal/mol)

>  <smiles>  (21) 
COc1ccc(-c2ccc3cc(C(N)=O)n(C(=O)O)c3c2)cc1F

>  <score_type>  (21) 
oracle

>  <origin>  (21) 
adg

>  <m_score__min__energy>  (21) 
-6.9900000000000002

>  <m_primary>  (21) 
energy

$$$$
21:0
     RDKit          3D

 35 36  0  0  0  0  0  0  0  0999 V2000
  141.7260  158.3130  138.2210 C   0  0  0  0  0  0  0  0  0  0  0  0
  140.8890  158.8830  137.1160 C   0  0  0  0  0  0  0  0  0  0  0  0
  140.6610  160.0830  137.0960 O   0  0  0  0  0  0  0  0  0  0  0  0
  140.2890  157.9920  136.0580 C   0  0  0  0  0  0  0  0  0  0  0  0
  140.2770  158.6770  134.6760 C   0  0  2  0  0  0  0  0  0  0  0  0
  139.6530  157.7780  133.6400 C   0  0  0  0  0  0  0  0  0  0  0  0
  138.4490  157.5810  133.6430 O   0  0  0  0  0  0  0  0  0  0  0  0
  141.6750  159.0840  134.2500 C   0  0  0  0  0  0  0  0  0  0  0  0
  141.9900  160.4570  134.0870 C   0  0  0  0  0  0  0  0  0  0  0  0
  143.2890  160.8580  133.7340 C   0  0  0  0  0  0  0  0  0  0  0  0
  144.2510  159.8700  133.5460 C   0  0  0  0  0  0  0  0  0  0  0  0
  145.5860  159.9850  133.2390 C   0  0  0  0  0  0  0  0  0  0  0  0
  146.0670  158.6800  133.1950 C   0  0  0  0  0  0  0  0  0  0  0  0
  147.4570  158.3400  132.8340 C   0  0  0  0  0  0  0  0  0  0  0  0
  147.7460  157.2480  131.9590 N   0  0  0  0  0  0  0  0  0  0  0  0
  148.4010  159.0600  133.2560 O   0  0  0  0  0  0  0  0  0  0  0  0
  145.0740  157.7900  133.4770 N   0  0  0  0  0  0  0  0  0  0  0  0
  145.2020  156.3680  133.6490 C   0  0  0  0  0  0  0  0  0  0  0  0
  144.9940  155.8390  134.7720 O   0  0  0  0  0  0  0  0  0  0  0  0
  145.5660  155.5620  132.5760 O   0  0  0  0  0  0  0  0  0  0  0  0
  143.9640  158.5360  133.6870 C   0  0  0  0  0  0  0  0  0  0  0  0
  142.6840  158.1090  134.0580 C   0  0  0  0  0  0  0  0  0  0  0  0
  141.2988  158.6039  139.1920 H   0  0  0  0  0  0  0  0  0  0  0  0
  141.7412  157.2160  138.1410 H   0  0  0  0  0  0  0  0  0  0  0  0
  142.7523  158.7007  138.1410 H   0  0  0  0  0  0  0  0  0  0  0  0
  140.8813  157.0674  135.9926 H   0  0  0  0  0  0  0  0  0  0  0  0
  139.2489  157.7742  136.3422 H   0  0  0  0  0  0  0  0  0  0  0  0
  139.6684  159.5893  134.7614 H   0  0  0  0  0  0  0  0  0  0  0  0
  140.2852  157.2978  132.8786 H   0  0  0  0  0  0  0  0  0  0  0  0
  141.2086  161.2162  134.2387 H   0  0  0  0  0  0  0  0  0  0  0  0
  143.5387  161.9220  133.6097 H   0  0  0  0  0  0  0  0  0  0  0  0
  146.1532  160.9113  133.0651 H   0  0  0  0  0  0  0  0  0  0  0  0
  148.7370  156.9990  131.7430 H   0  0  0  0  0  0  0  0  0  0  0  0
  146.9830  156.7380  131.4630 H   0  0  0  0  0  0  0  0  0  0  0  0
  142.4664  157.0398  134.1974 H   0  0  0  0  0  0  0  0  0  0  0  0
  1  2  1  0
  2  3  2  0
  2  4  1  0
  4  5  1  0
  5  6  1  0
  6  7  2  0
  5  8  1  0
  8  9  2  0
  9 10  1  0
 10 11  2  0
 11 12  1  0
 12 13  2  0
 13 14  1  0
 14 15  1  0
 14 16  2  0
 13 17  1  0
 17 18  1  0
 18 19  2  0
 18 20  1  0
 17 21  1  0
 21 22  2  0
 22  8  1  0
 21 11  1  0
  1 23  1  0
  1 24  1  0
  1 25  1  0
  4 26  1  0
  4 27  1  0
  5 28  1  1
  6 29  1  0
  9 30  1  0
 10 31  1  0
 12 32  1  0
 15 33  1  0
 15 34  1  0
 22 35  1  0
M  CHG  1  20  -1
M  END
>  <UniqueID>  (22) 
22

>  <SMILES>  (22) 
CC(=O)C[C@H](C=O)c1ccc2cc(C(N)=O)n(C(=O)[O-])c2c1

>  <Energy>  (22) 
69.92924136985529

>  <Genealogy>  (22) 
CC(=O)CC(C=O)c1ccc2cc(C(N)=O)n(C(=O)[O-])c2c1 (protonated)
CC(=O)C[C@H](C=O)c1ccc2cc(C(N)=O)n(C(=O)[O-])c2c1 (chirality)
CC(=O)C[C@H](C=O)c1ccc2cc(C(N)=O)n(C(=O)[O-])c2c1 (3D coordinates assigned)
CC(=O)C[C@H](C=O)c1ccc2cc(C(N)=O)n(C(=O)[O-])c2c1 (optimized conformer: 69.92924136985529 kcal/mol)

>  <smiles>  (22) 
CC(=O)CC(C=O)c1ccc2cc(C(N)=O)n(C(=O)O)c2c1

>  <score_type>  (22) 
oracle

>  <origin>  (22) 
adg

>  <m_score__min__energy>  (22) 
-6.6200000000000001

>  <m_primary>  (22) 
energy

$$$$
22:0
     RDKit          3D

 32 33  0  0  0  0  0  0  0  0999 V2000
  148.8290  161.0380  130.7350 C   0  0  0  0  0  0  0  0  0  0  0  0
  149.3210  159.7660  131.4050 C   0  0  0  0  0  0  0  0  0  0  0  0
  148.5980  159.5560  132.6140 O   0  0  0  0  0  0  0  0  0  0  0  0
  148.0650  158.3140  132.9700 C   0  0  0  0  0  0  0  0  0  0  0  0
  148.8120  157.3010  133.0460 O   0  0  0  0  0  0  0  0  0  0  0  0
  146.6600  158.1960  133.2490 N   0  0  0  0  0  0  0  0  0  0  0  0
  145.8880  157.0780  133.1330 C   0  0  0  0  0  0  0  0  0  0  0  0
  146.3790  155.7140  132.8540 C   0  0  0  0  0  0  0  0  0  0  0  0
  147.3760  155.4740  131.8600 N   0  0  0  0  0  0  0  0  0  0  0  0
  145.9500  154.7500  133.5430 O   0  0  0  0  0  0  0  0  0  0  0  0
  144.5490  157.3790  133.3580 C   0  0  0  0  0  0  0  0  0  0  0  0
  144.5200  158.7260  133.6320 C   0  0  0  0  0  0  0  0  0  0  0  0
  143.4390  159.5580  133.9040 C   0  0  0  0  0  0  0  0  0  0  0  0
  143.6930  160.9250  134.1030 C   0  0  0  0  0  0  0  0  0  0  0  0
  145.0150  161.4360  134.0360 C   0  0  0  0  0  0  0  0  0  0  0  0
  145.2680  162.9140  134.1850 C   0  0  0  0  0  0  0  0  0  0  0  0
  144.3550  163.6120  133.4170 F   0  0  0  0  0  0  0  0  0  0  0  0
  145.1360  163.3020  135.5080 F   0  0  0  0  0  0  0  0  0  0  0  0
  146.5480  163.2340  133.7670 F   0  0  0  0  0  0  0  0  0  0  0  0
  146.0840  160.5610  133.7310 C   0  0  0  0  0  0  0  0  0  0  0  0
  145.8050  159.1990  133.5590 C   0  0  0  0  0  0  0  0  0  0  0  0
  148.5453  161.7714  131.5042 H   0  0  0  0  0  0  0  0  0  0  0  0
  149.6304  161.4557  130.1079 H   0  0  0  0  0  0  0  0  0  0  0  0
  147.9551  160.8077  130.1079 H   0  0  0  0  0  0  0  0  0  0  0  0
  149.1633  158.9116  130.7303 H   0  0  0  0  0  0  0  0  0  0  0  0
  150.3933  159.8618  131.6309 H   0  0  0  0  0  0  0  0  0  0  0  0
  147.8700  156.2650  131.3910 H   0  0  0  0  0  0  0  0  0  0  0  0
  147.6770  154.4980  131.6440 H   0  0  0  0  0  0  0  0  0  0  0  0
  143.6949  156.6867  133.3240 H   0  0  0  0  0  0  0  0  0  0  0  0
  142.4161  159.1575  133.9615 H   0  0  0  0  0  0  0  0  0  0  0  0
  142.8567  161.6079  134.3134 H   0  0  0  0  0  0  0  0  0  0  0  0
  147.1112  160.9416  133.6312 H   0  0  0  0  0  0  0  0  0  0  0  0
  1  2  1  0
  2  3  1  0
  3  4  1  0
  4  5  2  0
  4  6  1  0
  6  7  1  0
  7  8  1  0
  8  9  1  0
  8 10  2  0
  7 11  2  0
 11 12  1  0
 12 13  2  0
 13 14  1  0
 14 15  2  0
 15 16  1  0
 16 17  1  0
 16 18  1  0
 16 19  1  0
 15 20  1  0
 20 21  2  0
 21  6  1  0
 21 12  1  0
  1 22  1  0
  1 23  1  0
  1 24  1  0
  2 25  1  0
  2 26  1  0
  9 27  1  0
  9 28  1  0
 11 29  1  0
 13 30  1  0
 14 31  1  0
 20 32  1  0
M  END
>  <UniqueID>  (23) 
23

>  <SMILES>  (23) 
CCOC(=O)n1c(C(N)=O)cc2ccc(C(F)(F)F)cc21

>  <Energy>  (23) 
66.94815336178186

>  <Genealogy>  (23) 
CCOC(=O)n1c(C(N)=O)cc2ccc(C(F)(F)F)cc21 (3D coordinates assigned)
CCOC(=O)n1c(C(N)=O)cc2ccc(C(F)(F)F)cc21 (optimized conformer: 66.94815336178186 kcal/mol)

>  <smiles>  (23) 
CCOC(=O)n1c(C(N)=O)cc2ccc(C(F)(F)F)cc21

>  <score_type>  (23) 
oracle

>  <origin>  (23) 
adg

>  <m_score__min__energy>  (23) 
-5.9900000000000002

>  <m_primary>  (23) 
energy

$$$$
23:0
     RDKit          3D

 30 32  0  0  0  0  0  0  0  0999 V2000
  142.1510  157.3040  135.3980 C   0  0  0  0  0  0  0  0  0  0  0  0
  143.4150  157.1550  134.7650 O   0  0  0  0  0  0  0  0  0  0  0  0
  143.7230  157.7570  133.5410 C   0  0  0  0  0  0  0  0  0  0  0  0
  142.9330  157.6480  132.5640 O   0  0  0  0  0  0  0  0  0  0  0  0
  144.9540  158.4820  133.3910 N   0  0  0  0  0  0  0  0  0  0  0  0
  145.1470  159.8270  133.5020 C   0  0  0  0  0  0  0  0  0  0  0  0
  144.0870  160.8460  133.6500 C   0  0  0  0  0  0  0  0  0  0  0  0
  142.7370  160.5170  133.3320 N   0  0  0  0  0  0  0  0  0  0  0  0
  144.3540  161.9950  134.0930 O   0  0  0  0  0  0  0  0  0  0  0  0
  146.4980  160.1390  133.3680 C   0  0  0  0  0  0  0  0  0  0  0  0
  147.1320  158.9340  133.1650 C   0  0  0  0  0  0  0  0  0  0  0  0
  148.4820  158.6540  132.9820 C   0  0  0  0  0  0  0  0  0  0  0  0
  148.8620  157.3120  132.8220 C   0  0  0  0  0  0  0  0  0  0  0  0
  147.8930  156.2740  132.8550 C   0  0  0  0  0  0  0  0  0  0  0  0
  148.2960  154.8580  132.6980 C   0  0  0  0  0  0  0  0  0  0  0  0
  149.5280  154.4690  132.2950 N   0  0  0  0  0  0  0  0  0  0  0  0
  149.6740  153.1470  132.2230 N   0  0  0  0  0  0  0  0  0  0  0  0
  148.5650  152.4570  132.5680 C   0  0  0  0  0  0  0  0  0  0  0  0
  147.3220  153.5110  132.9870 S   0  0  0  0  0  0  0  0  0  0  0  0
  146.5290  156.6020  133.0440 C   0  0  0  0  0  0  0  0  0  0  0  0
  146.1800  157.9500  133.1830 C   0  0  0  0  0  0  0  0  0  0  0  0
  142.2836  157.2884  136.4899 H   0  0  0  0  0  0  0  0  0  0  0  0
  141.7008  158.2614  135.0970 H   0  0  0  0  0  0  0  0  0  0  0  0
  141.4905  156.4775  135.0970 H   0  0  0  0  0  0  0  0  0  0  0  0
  142.5170  159.7820  132.6240 H   0  0  0  0  0  0  0  0  0  0  0  0
  146.9600  161.1362  133.4145 H   0  0  0  0  0  0  0  0  0  0  0  0
  149.2300  159.4603  132.9632 H   0  0  0  0  0  0  0  0  0  0  0  0
  149.9222  157.0615  132.6694 H   0  0  0  0  0  0  0  0  0  0  0  0
  148.4857  151.3599  132.5741 H   0  0  0  0  0  0  0  0  0  0  0  0
  145.7610  155.8153  133.0808 H   0  0  0  0  0  0  0  0  0  0  0  0
  1  2  1  0
  2  3  1  0
  3  4  2  0
  3  5  1  0
  5  6  1  0
  6  7  1  0
  7  8  1  0
  7  9  2  0
  6 10  2  0
 10 11  1  0
 11 12  2  0
 12 13  1  0
 13 14  2  0
 14 15  1  0
 15 16  2  0
 16 17  1  0
 17 18  2  0
 18 19  1  0
 14 20  1  0
 20 21  2  0
 21  5  1  0
 21 11  1  0
 19 15  1  0
  1 22  1  0
  1 23  1  0
  1 24  1  0
  8 25  1  0
 10 26  1  0
 12 27  1  0
 13 28  1  0
 18 29  1  0
 20 30  1  0
M  CHG  1   8  -1
M  END
>  <UniqueID>  (24) 
24

>  <SMILES>  (24) 
COC(=O)n1c(C([NH-])=O)cc2ccc(-c3nncs3)cc21

>  <Energy>  (24) 
104.12848485537376

>  <Genealogy>  (24) 
COC(=O)n1c(C([NH-])=O)cc2ccc(-c3nncs3)cc21 (protonated)
COC(=O)n1c(C([NH-])=O)cc2ccc(-c3nncs3)cc21 (3D coordinates assigned)
COC(=O)n1c(C([NH-])=O)cc2ccc(-c3nncs3)cc21 (optimized conformer: 104.12848485537376 kcal/mol)

>  <smiles>  (24) 
COC(=O)n1c(C(N)=O)cc2ccc(-c3nncs3)cc21

>  <score_type>  (24) 
oracle

>  <origin>  (24) 
adg

>  <m_score__min__energy>  (24) 
-6.4699999999999998

>  <m_primary>  (24) 
energy

$$$$
24:0
     RDKit          3D

 44 46  0  0  0  0  0  0  0  0999 V2000
  149.0380  153.7880  132.6090 C   0  0  0  0  0  0  0  0  0  0  0  0
  147.9010  154.6220  132.6080 O   0  0  0  0  0  0  0  0  0  0  0  0
  147.9900  155.5820  133.6460 C   0  0  0  0  0  0  0  0  0  0  0  0
  148.5520  156.9090  133.1230 C   0  0  0  0  0  0  0  0  0  0  0  0
  147.5430  158.0190  133.2510 C   0  0  0  0  0  0  0  0  0  0  0  0
  147.9650  159.3720  133.2490 C   0  0  0  0  0  0  0  0  0  0  0  0
  147.0270  160.4140  133.3400 C   0  0  0  0  0  0  0  0  0  0  0  0
  145.6790  160.0740  133.4130 C   0  0  0  0  0  0  0  0  0  0  0  0
  144.5680  160.8800  133.5060 C   0  0  0  0  0  0  0  0  0  0  0  0
  143.4800  160.0100  133.5180 C   0  0  0  0  0  0  0  0  0  0  0  0
  142.0780  160.4730  133.4950 C   0  0  0  0  0  0  0  0  0  0  0  0
  141.0190  159.5890  133.1400 N   0  0  0  0  0  0  0  0  0  0  0  0
  141.8160  161.6830  133.7360 O   0  0  0  0  0  0  0  0  0  0  0  0
  143.9020  158.7140  133.4540 N   0  0  0  0  0  0  0  0  0  0  0  0
  143.1020  157.5200  133.4930 C   0  0  0  0  0  0  0  0  0  0  0  0
  142.2350  157.3090  132.6030 O   0  0  0  0  0  0  0  0  0  0  0  0
  143.2700  156.6110  134.5400 O   0  0  0  0  0  0  0  0  0  0  0  0
  142.1920  156.1030  135.3150 C   0  0  0  0  0  0  0  0  0  0  0  0
  140.9860  156.9640  135.1190 C   0  0  0  0  0  0  0  0  0  0  0  0
  140.0660  156.7570  134.2070 O   0  0  0  0  0  0  0  0  0  0  0  0
  139.1780  157.7120  134.3670 C   0  0  0  0  0  0  0  0  0  0  0  0
  138.1470  157.8330  133.6550 O   0  0  0  0  0  0  0  0  0  0  0  0
  139.4840  158.5270  135.3500 O   0  0  0  0  0  0  0  0  0  0  0  0
  140.6130  158.0810  135.8490 C   0  0  0  0  0  0  0  0  0  0  0  0
  141.3490  158.7170  136.9810 C   0  0  0  0  0  0  0  0  0  0  0  0
  145.2510  158.7710  133.3850 C   0  0  0  0  0  0  0  0  0  0  0  0
  146.1670  157.7140  133.3210 C   0  0  0  0  0  0  0  0  0  0  0  0
  149.3331  153.5716  133.6463 H   0  0  0  0  0  0  0  0  0  0  0  0
  148.8027  152.8467  132.0907 H   0  0  0  0  0  0  0  0  0  0  0  0
  149.8652  154.2951  132.0907 H   0  0  0  0  0  0  0  0  0  0  0  0
  146.9866  155.7557  134.0619 H   0  0  0  0  0  0  0  0  0  0  0  0
  148.6682  155.1965  134.4215 H   0  0  0  0  0  0  0  0  0  0  0  0
  149.4490  157.1716  133.7030 H   0  0  0  0  0  0  0  0  0  0  0  0
  148.7991  156.7857  132.0582 H   0  0  0  0  0  0  0  0  0  0  0  0
  149.0368  159.6084  133.1755 H   0  0  0  0  0  0  0  0  0  0  0  0
  147.3478  161.4661  133.3532 H   0  0  0  0  0  0  0  0  0  0  0  0
  144.5439  161.9784  133.5595 H   0  0  0  0  0  0  0  0  0  0  0  0
  140.8940  158.6760  133.6310 H   0  0  0  0  0  0  0  0  0  0  0  0
  141.9641  155.0752  134.9962 H   0  0  0  0  0  0  0  0  0  0  0  0
  142.4735  156.1041  136.3784 H   0  0  0  0  0  0  0  0  0  0  0  0
  140.9347  158.3589  137.9350 H   0  0  0  0  0  0  0  0  0  0  0  0
  142.4146  158.4508  136.9212 H   0  0  0  0  0  0  0  0  0  0  0  0
  141.2401  159.8100  136.9212 H   0  0  0  0  0  0  0  0  0  0  0  0
  145.8219  156.6696  133.3252 H   0  0  0  0  0  0  0  0  0  0  0  0
  1  2  1  0
  2  3  1  0
  3  4  1  0
  4  5  1  0
  5  6  2  0
  6  7  1  0
  7  8  2  0
  8  9  1  0
  9 10  2  0
 10 11  1  0
 11 12  1  0
 11 13  2  0
 10 14  1  0
 14 15  1  0
 15 16  2  0
 15 17  1  0
 17 18  1  0
 18 19  1  0
 19 20  1  0
 20 21  1  0
 21 22  2  0
 21 23  1  0
 23 24  1  0
 24 25  1  0
 14 26  1  0
 26 27  2  0
 27  5  1  0
 26  8  1  0
 24 19  2  0
  1 28  1  0
  1 29  1  0
  1 30  1  0
  3 31  1  0
  3 32  1  0
  4 33  1  0
  4 34  1  0
  6 35  1  0
  7 36  1  0
  9 37  1  0
 12 38  1  0
 18 39  1  0
 18 40  1  0
 25 41  1  0
 25 42  1  0
 25 43  1  0
 27 44  1  0
M  CHG  1  12  -1
M  END
>  <UniqueID>  (25) 
25

>  <SMILES>  (25) 
COCCc1ccc2cc(C([NH-])=O)n(C(=O)OCc3oc(=O)oc3C)c2c1

>  <Energy>  (25) 
112.86375199616295

>  <Genealogy>  (25) 
COCCc1ccc2cc(C([NH-])=O)n(C(=O)OCc3oc(=O)oc3C)c2c1 (protonated)
COCCc1ccc2cc(C([NH-])=O)n(C(=O)OCc3oc(=O)oc3C)c2c1 (3D coordinates assigned)
COCCc1ccc2cc(C([NH-])=O)n(C(=O)OCc3oc(=O)oc3C)c2c1 (optimized conformer: 112.86375199616295 kcal/mol)

>  <smiles>  (25) 
COCCc1ccc2cc(C(N)=O)n(C(=O)OCc3oc(=O)oc3C)c2c1

>  <score_type>  (25) 
oracle

>  <origin>  (25) 
adg

>  <m_score__min__energy>  (25) 
-6.6799999999999997

>  <m_primary>  (25) 
energy

$$$$
25:0
     RDKit          3D

 33 34  0  0  0  0  0  0  0  0999 V2000
  144.3670  154.7870  132.3200 C   0  0  0  0  0  0  0  0  0  0  0  0
  145.3120  154.9260  133.4710 C   0  0  0  0  0  0  0  0  0  0  0  0
  145.0540  154.3330  134.5520 O   0  0  0  0  0  0  0  0  0  0  0  0
  146.4930  155.7390  133.3670 N   0  0  0  0  0  0  0  0  0  0  0  0
  147.7540  155.3170  133.0670 C   0  0  0  0  0  0  0  0  0  0  0  0
  148.1850  153.9110  132.9250 C   0  0  0  0  0  0  0  0  0  0  0  0
  147.4370  152.8430  133.5090 N   0  0  0  0  0  0  0  0  0  0  0  0
  149.2580  153.6520  132.3180 O   0  0  0  0  0  0  0  0  0  0  0  0
  148.6130  156.4030  132.9230 C   0  0  0  0  0  0  0  0  0  0  0  0
  147.8350  157.5140  133.1520 C   0  0  0  0  0  0  0  0  0  0  0  0
  148.1710  158.8620  133.1130 C   0  0  0  0  0  0  0  0  0  0  0  0
  147.1540  159.8030  133.3400 C   0  0  0  0  0  0  0  0  0  0  0  0
  145.8130  159.3920  133.5870 C   0  0  0  0  0  0  0  0  0  0  0  0
  144.7650  160.3730  133.8050 N   0  0  0  0  0  0  0  0  0  0  0  0
  143.3520  159.9870  133.7180 C   0  0  0  0  0  0  0  0  0  0  0  0
  145.1020  161.7670  134.1190 C   0  0  0  0  0  0  0  0  0  0  0  0
  145.5200  158.0030  133.6120 C   0  0  0  0  0  0  0  0  0  0  0  0
  146.5590  157.0890  133.4120 C   0  0  0  0  0  0  0  0  0  0  0  0
  143.3458  154.6368  132.7001 H   0  0  0  0  0  0  0  0  0  0  0  0
  144.3994  155.6996  131.7067 H   0  0  0  0  0  0  0  0  0  0  0  0
  144.6608  153.9224  131.7067 H   0  0  0  0  0  0  0  0  0  0  0  0
  147.7300  151.8540  133.3520 H   0  0  0  0  0  0  0  0  0  0  0  0
  146.6560  153.0290  134.1750 H   0  0  0  0  0  0  0  0  0  0  0  0
  149.6852  156.3780  132.6783 H   0  0  0  0  0  0  0  0  0  0  0  0
  149.2036  159.1823  132.9102 H   0  0  0  0  0  0  0  0  0  0  0  0
  147.3971  160.8757  133.3268 H   0  0  0  0  0  0  0  0  0  0  0  0
  142.9396  159.8743  134.7315 H   0  0  0  0  0  0  0  0  0  0  0  0
  142.7919  160.7650  133.1786 H   0  0  0  0  0  0  0  0  0  0  0  0
  143.2653  159.0322  133.1786 H   0  0  0  0  0  0  0  0  0  0  0  0
  145.1340  161.8995  135.2105 H   0  0  0  0  0  0  0  0  0  0  0  0
  146.0852  162.0119  133.6909 H   0  0  0  0  0  0  0  0  0  0  0  0
  144.3392  162.4340  133.6909 H   0  0  0  0  0  0  0  0  0  0  0  0
  144.4922  157.6516  133.7859 H   0  0  0  0  0  0  0  0  0  0  0  0
  1  2  1  0
  2  3  2  0
  2  4  1  0
  4  5  1  0
  5  6  1  0
  6  7  1  0
  6  8  2  0
  5  9  2  0
  9 10  1  0
 10 11  2  0
 11 12  1  0
 12 13  2  0
 13 14  1  0
 14 15  1  0
 14 16  1  0
 13 17  1  0
 17 18  2  0
 18  4  1  0
 18 10  1  0
  1 19  1  0
  1 20  1  0
  1 21  1  0
  7 22  1  0
  7 23  1  0
  9 24  1  0
 11 25  1  0
 12 26  1  0
 15 27  1  0
 15 28  1  0
 15 29  1  0
 16 30  1  0
 16 31  1  0
 16 32  1  0
 17 33  1  0
M  END
>  <UniqueID>  (26) 
26

>  <SMILES>  (26) 
CC(=O)n1c(C(N)=O)cc2ccc(N(C)C)cc21

>  <Energy>  (26) 
73.60157172003787

>  <Genealogy>  (26) 
CC(=O)n1c(C(N)=O)cc2ccc(N(C)C)cc21 (3D coordinates assigned)
CC(=O)n1c(C(N)=O)cc2ccc(N(C)C)cc21 (optimized conformer: 73.60157172003787 kcal/mol)

>  <smiles>  (26) 
CC(=O)n1c(C(N)=O)cc2ccc(N(C)C)cc21

>  <score_type>  (26) 
oracle

>  <origin>  (26) 
adg

>  <m_score__min__energy>  (26) 
-6

>  <m_primary>  (26) 
energy

$$$$
26:0
     RDKit          3D

 49 50  0  0  0  0  0  0  0  0999 V2000
  149.5900  161.5420  130.3720 C   0  0  0  0  0  0  0  0  0  0  0  0
  148.4520  160.6650  130.8800 C   0  0  0  0  0  0  0  0  0  0  0  0
  148.1320  160.9900  132.2300 O   0  0  0  0  0  0  0  0  0  0  0  0
  147.9100  160.0290  133.2240 C   0  0  0  0  0  0  0  0  0  0  0  0
  148.8400  159.7010  134.0110 O   0  0  0  0  0  0  0  0  0  0  0  0
  146.6230  159.3980  133.3300 N   0  0  0  0  0  0  0  0  0  0  0  0
  145.4430  159.9680  133.7070 C   0  0  0  0  0  0  0  0  0  0  0  0
  145.2240  161.4100  133.9540 C   0  0  0  0  0  0  0  0  0  0  0  0
  146.3290  162.2960  134.1410 N   0  0  0  0  0  0  0  0  0  0  0  0
  144.0520  161.8680  134.0310 O   0  0  0  0  0  0  0  0  0  0  0  0
  144.4280  159.0120  133.7340 C   0  0  0  0  0  0  0  0  0  0  0  0
  145.0260  157.8330  133.3550 C   0  0  0  0  0  0  0  0  0  0  0  0
  144.4880  156.5560  133.2250 C   0  0  0  0  0  0  0  0  0  0  0  0
  145.3480  155.5150  132.8420 C   0  0  0  0  0  0  0  0  0  0  0  0
  146.7190  155.7640  132.5880 C   0  0  0  0  0  0  0  0  0  0  0  0
  147.5720  154.6630  132.2300 N   0  0  0  0  0  0  0  0  0  0  0  0
  147.8110  153.4490  133.0380 C   0  0  0  0  0  0  0  0  0  0  0  0
  147.7090  153.7300  134.5520 C   0  0  0  0  0  0  0  0  0  0  0  0
  146.7910  152.3690  132.6280 C   0  0  0  0  0  0  0  0  0  0  0  0
  149.2230  152.9640  132.7700 C   0  0  0  0  0  0  0  0  0  0  0  0
  149.9880  153.6120  132.0030 O   0  0  0  0  0  0  0  0  0  0  0  0
  149.6450  151.7480  133.3230 O   0  0  0  0  0  0  0  0  0  0  0  0
  150.3500  150.7520  132.5860 C   0  0  0  0  0  0  0  0  0  0  0  0
  149.8590  150.7040  131.1430 C   0  0  0  0  0  0  0  0  0  0  0  0
  147.2350  157.0680  132.7570 C   0  0  0  0  0  0  0  0  0  0  0  0
  146.3520  158.0920  133.1180 C   0  0  0  0  0  0  0  0  0  0  0  0
  150.1377  161.9641  131.2275 H   0  0  0  0  0  0  0  0  0  0  0  0
  150.2751  160.9361  129.7609 H   0  0  0  0  0  0  0  0  0  0  0  0
  149.1786  162.3589  129.7609 H   0  0  0  0  0  0  0  0  0  0  0  0
  147.5644  160.8237  130.2499 H   0  0  0  0  0  0  0  0  0  0  0  0
  148.7681  159.6124  130.8342 H   0  0  0  0  0  0  0  0  0  0  0  0
  147.3130  161.9680  134.0270 H   0  0  0  0  0  0  0  0  0  0  0  0
  146.1620  163.3040  134.3540 H   0  0  0  0  0  0  0  0  0  0  0  0
  143.3725  159.1679  134.0017 H   0  0  0  0  0  0  0  0  0  0  0  0
  143.4212  156.3683  133.4166 H   0  0  0  0  0  0  0  0  0  0  0  0
  144.9526  154.4938  132.7379 H   0  0  0  0  0  0  0  0  0  0  0  0
  148.1300  154.7780  131.3520 H   0  0  0  0  0  0  0  0  0  0  0  0
  148.0319  152.8404  135.1126 H   0  0  0  0  0  0  0  0  0  0  0  0
  148.3554  154.5814  134.8113 H   0  0  0  0  0  0  0  0  0  0  0  0
  146.6669  153.9685  134.8113 H   0  0  0  0  0  0  0  0  0  0  0  0
  146.3589  151.9115  133.5302 H   0  0  0  0  0  0  0  0  0  0  0  0
  145.9901  152.8290  132.0306 H   0  0  0  0  0  0  0  0  0  0  0  0
  147.2960  151.5956  132.0306 H   0  0  0  0  0  0  0  0  0  0  0  0
  151.4242  150.9885  132.5947 H   0  0  0  0  0  0  0  0  0  0  0  0
  150.1723  149.7724  133.0538 H   0  0  0  0  0  0  0  0  0  0  0  0
  148.7643  150.5970  131.1316 H   0  0  0  0  0  0  0  0  0  0  0  0
  150.1419  151.6341  130.6283 H   0  0  0  0  0  0  0  0  0  0  0  0
  150.3167  149.8463  130.6283 H   0  0  0  0  0  0  0  0  0  0  0  0
  148.3053  157.2737  132.6084 H   0  0  0  0  0  0  0  0  0  0  0  0
  1  2  1  0
  2  3  1  0
  3  4  1  0
  4  5  2  0
  4  6  1  0
  6  7  1  0
  7  8  1  0
  8  9  1  0
  8 10  2  0
  7 11  2  0
 11 12  1  0
 12 13  2  0
 13 14  1  0
 14 15  2  0
 15 16  1  0
 16 17  1  0
 17 18  1  0
 17 19  1  0
 17 20  1  0
 20 21  2  0
 20 22  1  0
 22 23  1  0
 23 24  1  0
 15 25  1  0
 25 26  2  0
 26  6  1  0
 26 12  1  0
  1 27  1  0
  1 28  1  0
  1 29  1  0
  2 30  1  0
  2 31  1  0
  9 32  1  0
  9 33  1  0
 11 34  1  0
 13 35  1  0
 14 36  1  0
 16 37  1  0
 18 38  1  0
 18 39  1  0
 18 40  1  0
 19 41  1  0
 19 42  1  0
 19 43  1  0
 23 44  1  0
 23 45  1  0
 24 46  1  0
 24 47  1  0
 24 48  1  0
 25 49  1  0
M  END
>  <UniqueID>  (27) 
27

>  <SMILES>  (27) 
CCOC(=O)n1c(C(N)=O)cc2ccc(NC(C)(C)C(=O)OCC)cc21

>  <Energy>  (27) 
82.96652736205695

>  <Genealogy>  (27) 
CCOC(=O)n1c(C(N)=O)cc2ccc(NC(C)(C)C(=O)OCC)cc21 (3D coordinates assigned)
CCOC(=O)n1c(C(N)=O)cc2ccc(NC(C)(C)C(=O)OCC)cc21 (optimized conformer: 82.96652736205695 kcal/mol)

>  <smiles>  (27) 
CCOC(=O)n1c(C(N)=O)cc2ccc(NC(C)(C)C(=O)OCC)cc21

>  <score_type>  (27) 
oracle

>  <origin>  (27) 
adg

>  <m_score__min__energy>  (27) 
-7.4800000000000004

>  <m_primary>  (27) 
energy

$$$$
27:0
     RDKit          3D

 35 36  0  0  0  0  0  0  0  0999 V2000
  149.6200  151.4260  133.5000 C   0  0  0  0  0  0  0  0  0  0  0  0
  149.5380  152.1250  132.1480 C   0  0  0  0  0  0  0  0  0  0  0  0
  148.6600  153.2470  132.2140 O   0  0  0  0  0  0  0  0  0  0  0  0
  149.0940  154.5500  132.4810 C   0  0  0  0  0  0  0  0  0  0  0  0
  150.2850  154.8880  132.2330 O   0  0  0  0  0  0  0  0  0  0  0  0
  148.1800  155.5090  133.0350 N   0  0  0  0  0  0  0  0  0  0  0  0
  147.1430  155.2700  133.8860 C   0  0  0  0  0  0  0  0  0  0  0  0
  146.6460  153.9400  134.2920 C   0  0  0  0  0  0  0  0  0  0  0  0
  146.4290  152.9050  133.3310 N   0  0  0  0  0  0  0  0  0  0  0  0
  146.3570  153.7290  135.5000 O   0  0  0  0  0  0  0  0  0  0  0  0
  146.5590  156.4640  134.2980 C   0  0  0  0  0  0  0  0  0  0  0  0
  147.2660  157.4550  133.6560 C   0  0  0  0  0  0  0  0  0  0  0  0
  147.1140  158.8370  133.7060 C   0  0  0  0  0  0  0  0  0  0  0  0
  148.0080  159.6250  132.9620 C   0  0  0  0  0  0  0  0  0  0  0  0
  149.0410  159.0230  132.2040 C   0  0  0  0  0  0  0  0  0  0  0  0
  149.9810  159.8770  131.3960 C   0  0  0  0  0  0  0  0  0  0  0  0
  149.2520  160.5150  130.2180 C   0  0  0  0  0  0  0  0  0  0  0  0
  149.1590  157.6150  132.1680 C   0  0  0  0  0  0  0  0  0  0  0  0
  148.2410  156.8540  132.9010 C   0  0  0  0  0  0  0  0  0  0  0  0
  149.5325  152.1715  134.3041 H   0  0  0  0  0  0  0  0  0  0  0  0
  148.8013  150.6964  133.5858 H   0  0  0  0  0  0  0  0  0  0  0  0
  150.5853  150.9057  133.5858 H   0  0  0  0  0  0  0  0  0  0  0  0
  150.5418  152.4684  131.8574 H   0  0  0  0  0  0  0  0  0  0  0  0
  149.1484  151.4138  131.4048 H   0  0  0  0  0  0  0  0  0  0  0  0
  146.4920  153.0990  132.3070 H   0  0  0  0  0  0  0  0  0  0  0  0
  146.1190  151.9590  133.6410 H   0  0  0  0  0  0  0  0  0  0  0  0
  145.7127  156.5891  134.9894 H   0  0  0  0  0  0  0  0  0  0  0  0
  146.3184  159.2985  134.3094 H   0  0  0  0  0  0  0  0  0  0  0  0
  147.9043  160.7201  132.9685 H   0  0  0  0  0  0  0  0  0  0  0  0
  150.3916  160.6697  132.0387 H   0  0  0  0  0  0  0  0  0  0  0  0
  150.7913  159.2419  131.0085 H   0  0  0  0  0  0  0  0  0  0  0  0
  148.4740  161.1959  130.5935 H   0  0  0  0  0  0  0  0  0  0  0  0
  149.9696  161.0805  129.6054 H   0  0  0  0  0  0  0  0  0  0  0  0
  148.7866  159.7288  129.6054 H   0  0  0  0  0  0  0  0  0  0  0  0
  149.9516  157.1299  131.5793 H   0  0  0  0  0  0  0  0  0  0  0  0
  1  2  1  0
  2  3  1  0
  3  4  1  0
  4  5  2  0
  4  6  1  0
  6  7  1  0
  7  8  1  0
  8  9  1  0
  8 10  2  0
  7 11  2  0
 11 12  1  0
 12 13  2  0
 13 14  1  0
 14 15  2  0
 15 16  1  0
 16 17  1  0
 15 18  1  0
 18 19  2  0
 19  6  1  0
 19 12  1  0
  1 20  1  0
  1 21  1  0
  1 22  1  0
  2 23  1  0
  2 24  1  0
  9 25  1  0
  9 26  1  0
 11 27  1  0
 13 28  1  0
 14 29  1  0
 16 30  1  0
 16 31  1  0
 17 32  1  0
 17 33  1  0
 17 34  1  0
 18 35  1  0
M  END
>  <UniqueID>  (28) 
28

>  <SMILES>  (28) 
CCOC(=O)n1c(C(N)=O)cc2ccc(CC)cc21

>  <Energy>  (28) 
66.93441374761811

>  <Genealogy>  (28) 
CCOC(=O)n1c(C(N)=O)cc2ccc(CC)cc21 (3D coordinates assigned)
CCOC(=O)n1c(C(N)=O)cc2ccc(CC)cc21 (optimized conformer: 66.93441374761811 kcal/mol)

>  <smiles>  (28) 
CCOC(=O)n1c(C(N)=O)cc2ccc(CC)cc21

>  <score_type>  (28) 
oracle

>  <origin>  (28) 
adg

>  <m_score__min__energy>  (28) 
-6.7199999999999998

>  <m_primary>  (28) 
energy

$$$$
28:0
     RDKit          3D

 32 33  0  0  0  0  0  0  0  0999 V2000
  140.9850  158.9560  137.0940 C   0  0  0  0  0  0  0  0  0  0  0  0
  140.8570  159.7300  135.9080 O   0  0  0  0  0  0  0  0  0  0  0  0
  141.2670  159.2630  134.6560 C   0  0  0  0  0  0  0  0  0  0  0  0
  140.7650  159.7330  133.5980 O   0  0  0  0  0  0  0  0  0  0  0  0
  142.3480  158.2350  134.5720 C   0  0  0  0  0  0  0  0  0  0  0  0
  143.6300  158.8730  134.1160 C   0  0  0  0  0  0  0  0  0  0  0  0
  143.7600  160.2840  134.1140 C   0  0  0  0  0  0  0  0  0  0  0  0
  144.9690  160.8910  133.7320 C   0  0  0  0  0  0  0  0  0  0  0  0
  146.0260  160.0630  133.3610 C   0  0  0  0  0  0  0  0  0  0  0  0
  147.3080  160.3820  132.9760 C   0  0  0  0  0  0  0  0  0  0  0  0
  147.9370  159.1600  132.7400 C   0  0  0  0  0  0  0  0  0  0  0  0
  149.3130  159.0400  132.2150 C   0  0  0  0  0  0  0  0  0  0  0  0
  149.9770  157.7800  132.1810 N   0  0  0  0  0  0  0  0  0  0  0  0
  149.8940  160.0560  131.7510 O   0  0  0  0  0  0  0  0  0  0  0  0
  147.0790  158.1280  132.9820 N   0  0  0  0  0  0  0  0  0  0  0  0
  147.3580  156.7190  132.9420 C   0  0  0  0  0  0  0  0  0  0  0  0
  146.8320  155.9080  131.8920 N   0  0  0  0  0  0  0  0  0  0  0  0
  148.1010  156.2000  133.8170 O   0  0  0  0  0  0  0  0  0  0  0  0
  145.9130  158.6970  133.3560 C   0  0  0  0  0  0  0  0  0  0  0  0
  144.7270  158.0650  133.7450 C   0  0  0  0  0  0  0  0  0  0  0  0
  140.8769  159.6098  137.9720 H   0  0  0  0  0  0  0  0  0  0  0  0
  140.2025  158.1832  137.1137 H   0  0  0  0  0  0  0  0  0  0  0  0
  141.9747  158.4763  137.1137 H   0  0  0  0  0  0  0  0  0  0  0  0
  142.4986  157.7830  135.5635 H   0  0  0  0  0  0  0  0  0  0  0  0
  142.0536  157.4598  133.8493 H   0  0  0  0  0  0  0  0  0  0  0  0
  142.9069  160.9102  134.4142 H   0  0  0  0  0  0  0  0  0  0  0  0
  145.0770  161.9857  133.7262 H   0  0  0  0  0  0  0  0  0  0  0  0
  147.7439  161.3870  132.8757 H   0  0  0  0  0  0  0  0  0  0  0  0
  149.8980  157.1100  132.9780 H   0  0  0  0  0  0  0  0  0  0  0  0
  147.0260  154.8820  131.8710 H   0  0  0  0  0  0  0  0  0  0  0  0
  146.2790  156.3360  131.1170 H   0  0  0  0  0  0  0  0  0  0  0  0
  144.6511  156.9677  133.7614 H   0  0  0  0  0  0  0  0  0  0  0  0
  1  2  1  0
  2  3  1  0
  3  4  2  0
  3  5  1  0
  5  6  1  0
  6  7  2  0
  7  8  1  0
  8  9  2  0
  9 10  1  0
 10 11  2  0
 11 12  1  0
 12 13  1  0
 12 14  2  0
 11 15  1  0
 15 16  1  0
 16 17  1  0
 16 18  2  0
 15 19  1  0
 19 20  2  0
 20  6  1  0
 19  9  1  0
  1 21  1  0
  1 22  1  0
  1 23  1  0
  5 24  1  0
  5 25  1  0
  7 26  1  0
  8 27  1  0
 10 28  1  0
 13 29  1  0
 17 30  1  0
 17 31  1  0
 20 32  1  0
M  CHG  1  13  -1
M  END
>  <UniqueID>  (29) 
29

>  <SMILES>  (29) 
COC(=O)Cc1ccc2cc(C([NH-])=O)n(C(N)=O)c2c1

>  <Energy>  (29) 
66.60878305062737

>  <Genealogy>  (29) 
COC(=O)Cc1ccc2cc(C([NH-])=O)n(C(N)=O)c2c1 (protonated)
COC(=O)Cc1ccc2cc(C([NH-])=O)n(C(N)=O)c2c1 (3D coordinates assigned)
COC(=O)Cc1ccc2cc(C([NH-])=O)n(C(N)=O)c2c1 (optimized conformer: 66.60878305062737 kcal/mol)

>  <smiles>  (29) 
COC(=O)Cc1ccc2cc(C(N)=O)n(C(N)=O)c2c1

>  <score_type>  (29) 
oracle

>  <origin>  (29) 
adg

>  <m_score__min__energy>  (29) 
-6.3099999999999996

>  <m_primary>  (29) 
energy

$$$$
29:0
     RDKit          3D

 35 37  0  0  0  0  0  0  0  0999 V2000
  139.0770  158.3850  132.1190 C   0  0  0  0  0  0  0  0  0  0  0  0
  139.3940  157.6920  133.3770 N   0  0  0  0  0  0  0  0  0  0  0  0
  140.6770  156.9730  133.3210 C   0  0  0  0  0  0  0  0  0  0  0  0
  141.2770  157.8010  134.4480 C   0  0  0  0  0  0  0  0  0  0  0  0
  142.5670  158.5270  134.1050 C   0  0  0  0  0  0  0  0  0  0  0  0
  142.6740  159.9450  134.0840 C   0  0  0  0  0  0  0  0  0  0  0  0
  143.8850  160.5720  133.7420 C   0  0  0  0  0  0  0  0  0  0  0  0
  144.9680  159.7670  133.4130 C   0  0  0  0  0  0  0  0  0  0  0  0
  146.2530  160.1100  133.0600 C   0  0  0  0  0  0  0  0  0  0  0  0
  146.9110  158.9010  132.8400 C   0  0  0  0  0  0  0  0  0  0  0  0
  148.3000  158.8030  132.3460 C   0  0  0  0  0  0  0  0  0  0  0  0
  149.3650  159.3690  133.1070 N   0  0  0  0  0  0  0  0  0  0  0  0
  148.5550  158.2510  131.2430 O   0  0  0  0  0  0  0  0  0  0  0  0
  146.0660  157.8530  133.0590 N   0  0  0  0  0  0  0  0  0  0  0  0
  146.3670  156.4500  132.9990 C   0  0  0  0  0  0  0  0  0  0  0  0
  146.9970  155.8940  131.8450 N   0  0  0  0  0  0  0  0  0  0  0  0
  146.1060  155.7080  133.9830 O   0  0  0  0  0  0  0  0  0  0  0  0
  144.8810  158.4010  133.4050 C   0  0  0  0  0  0  0  0  0  0  0  0
  143.6950  157.7470  133.7540 C   0  0  0  0  0  0  0  0  0  0  0  0
  139.9730  158.5890  134.3910 C   0  0  0  0  0  0  0  0  0  0  0  0
  138.6290  159.3644  132.3427 H   0  0  0  0  0  0  0  0  0  0  0  0
  139.9992  158.5280  131.5367 H   0  0  0  0  0  0  0  0  0  0  0  0
  138.3657  157.7808  131.5367 H   0  0  0  0  0  0  0  0  0  0  0  0
  140.5902  155.9033  133.5620 H   0  0  0  0  0  0  0  0  0  0  0  0
  141.2120  156.9152  132.3616 H   0  0  0  0  0  0  0  0  0  0  0  0
  141.6533  157.3777  135.3910 H   0  0  0  0  0  0  0  0  0  0  0  0
  141.7977  160.5593  134.3387 H   0  0  0  0  0  0  0  0  0  0  0  0
  143.9723  161.6685  133.7352 H   0  0  0  0  0  0  0  0  0  0  0  0
  146.6720  161.1231  132.9704 H   0  0  0  0  0  0  0  0  0  0  0  0
  150.3580  159.1030  132.9220 H   0  0  0  0  0  0  0  0  0  0  0  0
  147.2020  154.8710  131.7980 H   0  0  0  0  0  0  0  0  0  0  0  0
  147.2960  156.5080  131.0560 H   0  0  0  0  0  0  0  0  0  0  0  0
  143.6398  156.6484  133.7557 H   0  0  0  0  0  0  0  0  0  0  0  0
  139.4199  158.5907  135.3419 H   0  0  0  0  0  0  0  0  0  0  0  0
  140.0122  159.6691  134.1863 H   0  0  0  0  0  0  0  0  0  0  0  0
  1  2  1  0
  2  3  1  0
  3  4  1  0
  4  5  1  0
  5  6  2  0
  6  7  1  0
  7  8  2  0
  8  9  1  0
  9 10  2  0
 10 11  1  0
 11 12  1  0
 11 13  2  0
 10 14  1  0
 14 15  1  0
 15 16  1  0
 15 17  2  0
 14 18  1  0
 18 19  2  0
  4 20  1  0
 20  2  1  0
 19  5  1  0
 18  8  1  0
  1 21  1  0
  1 22  1  0
  1 23  1  0
  3 24  1  0
  3 25  1  0
  4 26  1  0
  6 27  1  0
  7 28  1  0
  9 29  1  0
 12 30  1  0
 16 31  1  0
 16 32  1  0
 19 33  1  0
 20 34  1  0
 20 35  1  0
M  CHG  1  12  -1
M  END
>  <UniqueID>  (30) 
30

>  <SMILES>  (30) 
CN1CC(c2ccc3cc(C([NH-])=O)n(C(N)=O)c3c2)C1

>  <Energy>  (30) 
147.99391028871247

>  <Genealogy>  (30) 
CN1CC(c2ccc3cc(C([NH-])=O)n(C(N)=O)c3c2)C1 (protonated)
CN1CC(c2ccc3cc(C([NH-])=O)n(C(N)=O)c3c2)C1 (3D coordinates assigned)
CN1CC(c2ccc3cc(C([NH-])=O)n(C(N)=O)c3c2)C1 (nonaromatic ring conformer: 147.99391028871247 kcal/mol)

>  <smiles>  (30) 
CN1CC(c2ccc3cc(C(N)=O)n(C(N)=O)c3c2)C1

>  <score_type>  (30) 
oracle

>  <origin>  (30) 
adg

>  <m_score__min__energy>  (30) 
-7.0700000000000003

>  <m_primary>  (30) 
energy

$$$$
30:0
     RDKit          3D

 71 74  0  0  0  0  0  0  0  0999 V2000
  139.8660  156.0580  132.9930 C   0  0  0  0  0  0  0  0  0  0  0  0
  141.2460  155.5250  133.3720 C   0  0  0  0  0  0  0  0  0  0  0  0
  142.2870  156.3810  132.8980 O   0  0  0  0  0  0  0  0  0  0  0  0
  142.9850  157.2810  133.7060 C   0  0  0  0  0  0  0  0  0  0  0  0
  142.3780  157.9080  134.6170 O   0  0  0  0  0  0  0  0  0  0  0  0
  144.4050  157.5950  133.4600 C   0  0  0  0  0  0  0  0  0  0  0  0
  144.8130  158.8760  133.3150 N   0  0  0  0  0  0  0  0  0  0  0  0
  146.1020  158.8900  133.0070 N   0  0  0  0  0  0  0  0  0  0  0  0
  146.8200  160.1110  132.7680 C   0  0  0  0  0  0  0  0  0  0  0  0
  146.9760  160.9290  133.7160 O   0  0  0  0  0  0  0  0  0  0  0  0
  147.3500  160.3860  131.4990 O   0  0  0  0  0  0  0  0  0  0  0  0
  148.7220  160.2590  131.0980 C   0  0  0  0  0  0  0  0  0  0  0  0
  149.5050  159.7720  132.3280 C   0  0  0  0  0  0  0  0  0  0  0  0
  148.8610  159.2170  129.9730 C   0  0  0  0  0  0  0  0  0  0  0  0
  149.2880  161.6210  130.6510 C   0  0  0  0  0  0  0  0  0  0  0  0
  146.5410  157.6130  132.9450 C   0  0  0  0  0  0  0  0  0  0  0  0
  147.8160  157.1420  132.6170 C   0  0  0  0  0  0  0  0  0  0  0  0
  148.0320  155.7590  132.6160 C   0  0  0  0  0  0  0  0  0  0  0  0
  146.9960  154.8660  132.9450 C   0  0  0  0  0  0  0  0  0  0  0  0
  147.4090  152.9900  132.9660 Br  0  0  0  0  0  0  0  0  0  0  0  0
  145.7040  155.3520  133.2720 C   0  0  0  0  0  0  0  0  0  0  0  0
  144.6660  154.4020  133.6950 C   0  0  0  0  0  0  0  0  0  0  0  0
  144.0620  153.5410  132.7460 C   0  0  0  0  0  0  0  0  0  0  0  0
  143.0300  152.6700  133.1320 C   0  0  0  0  0  0  0  0  0  0  0  0
  142.6330  152.6770  134.4670 C   0  0  0  0  0  0  0  0  0  0  0  0
  141.7130  151.8920  135.1230 C   0  0  0  0  0  0  0  0  0  0  0  0
  141.7530  152.3070  136.4520 C   0  0  0  0  0  0  0  0  0  0  0  0
  140.8800  151.7560  137.5080 C   0  0  0  0  0  0  0  0  0  0  0  0
  140.9690  152.2660  138.8370 N   0  0  0  0  0  0  0  0  0  0  0  0
  140.0730  150.8240  137.2580 O   0  0  0  0  0  0  0  0  0  0  0  0
  142.6640  153.3090  136.6120 N   0  0  0  0  0  0  0  0  0  0  0  0
  143.0630  153.9620  137.8260 C   0  0  0  0  0  0  0  0  0  0  0  0
  143.6150  153.2950  138.7400 O   0  0  0  0  0  0  0  0  0  0  0  0
  142.8570  155.3420  137.9610 O   0  0  0  0  0  0  0  0  0  0  0  0
  141.5930  156.0220  137.9420 C   0  0  0  0  0  0  0  0  0  0  0  0
  140.6200  155.1930  138.7950 C   0  0  0  0  0  0  0  0  0  0  0  0
  141.7250  157.4270  138.5580 C   0  0  0  0  0  0  0  0  0  0  0  0
  141.0430  156.1060  136.5050 C   0  0  0  0  0  0  0  0  0  0  0  0
  143.1940  153.5240  135.3900 C   0  0  0  0  0  0  0  0  0  0  0  0
  144.2220  154.4030  135.0340 C   0  0  0  0  0  0  0  0  0  0  0  0
  145.5020  156.7510  133.2390 C   0  0  0  0  0  0  0  0  0  0  0  0
  139.2946  156.2787  133.9066 H   0  0  0  0  0  0  0  0  0  0  0  0
  139.9783  156.9774  132.3997 H   0  0  0  0  0  0  0  0  0  0  0  0
  139.3311  155.3018  132.3997 H   0  0  0  0  0  0  0  0  0  0  0  0
  141.3130  155.4539  134.4676 H   0  0  0  0  0  0  0  0  0  0  0  0
  141.3736  154.5366  132.9065 H   0  0  0  0  0  0  0  0  0  0  0  0
  148.9871  160.0941  133.2435 H   0  0  0  0  0  0  0  0  0  0  0  0
  149.5697  158.6741  132.3103 H   0  0  0  0  0  0  0  0  0  0  0  0
  150.5184  160.1994  132.3103 H   0  0  0  0  0  0  0  0  0  0  0  0
  148.9943  158.2178  130.4132 H   0  0  0  0  0  0  0  0  0  0  0  0
  147.9537  159.2257  129.3511 H   0  0  0  0  0  0  0  0  0  0  0  0
  149.7343  159.4632  129.3511 H   0  0  0  0  0  0  0  0  0  0  0  0
  149.5381  162.2228  131.5372 H   0  0  0  0  0  0  0  0  0  0  0  0
  150.1943  161.4615  130.0484 H   0  0  0  0  0  0  0  0  0  0  0  0
  148.5356  162.1508  130.0484 H   0  0  0  0  0  0  0  0  0  0  0  0
  148.6282  157.8402  132.3663 H   0  0  0  0  0  0  0  0  0  0  0  0
  149.0252  155.3651  132.3544 H   0  0  0  0  0  0  0  0  0  0  0  0
  144.4033  153.5547  131.7004 H   0  0  0  0  0  0  0  0  0  0  0  0
  142.5496  152.0022  132.4017 H   0  0  0  0  0  0  0  0  0  0  0  0
  141.0800  151.1036  134.6897 H   0  0  0  0  0  0  0  0  0  0  0  0
  141.4990  153.1420  139.0410 H   0  0  0  0  0  0  0  0  0  0  0  0
  140.8260  155.3685  139.8612 H   0  0  0  0  0  0  0  0  0  0  0  0
  139.5863  155.4922  138.5672 H   0  0  0  0  0  0  0  0  0  0  0  0
  140.7512  154.1249  138.5672 H   0  0  0  0  0  0  0  0  0  0  0  0
  141.7176  157.3485  139.6552 H   0  0  0  0  0  0  0  0  0  0  0  0
  142.6701  157.8841  138.2294 H   0  0  0  0  0  0  0  0  0  0  0  0
  140.8816  158.0521  138.2294 H   0  0  0  0  0  0  0  0  0  0  0  0
  139.9561  156.2720  136.5375 H   0  0  0  0  0  0  0  0  0  0  0  0
  141.5257  156.9408  135.9758 H   0  0  0  0  0  0  0  0  0  0  0  0
  141.2546  155.1651  135.9758 H   0  0  0  0  0  0  0  0  0  0  0  0
  144.6721  155.0768  135.7779 H   0  0  0  0  0  0  0  0  0  0  0  0
  1  2  1  0
  2  3  1  0
  3  4  1  0
  4  5  2  0
  4  6  1  0
  6  7  2  0
  7  8  1  0
  8  9  1  0
  9 10  2  0
  9 11  1  0
 11 12  1  0
 12 13  1  0
 12 14  1  0
 12 15  1  0
  8 16  1  0
 16 17  2  0
 17 18  1  0
 18 19  2  0
 19 20  1  0
 19 21  1  0
 21 22  1  0
 22 23  2  0
 23 24  1  0
 24 25  2  0
 25 26  1  0
 26 27  2  0
 27 28  1  0
 28 29  1  0
 28 30  2  0
 27 31  1  0
 31 32  1  0
 32 33  2  0
 32 34  1  0
 34 35  1  0
 35 36  1  0
 35 37  1  0
 35 38  1  0
 31 39  1  0
 39 40  2  0
 21 41  2  0
 41  6  1  0
 41 16  1  0
 40 22  1  0
 39 25  1  0
  1 42  1  0
  1 43  1  0
  1 44  1  0
  2 45  1  0
  2 46  1  0
 13 47  1  0
 13 48  1  0
 13 49  1  0
 14 50  1  0
 14 51  1  0
 14 52  1  0
 15 53  1  0
 15 54  1  0
 15 55  1  0
 17 56  1  0
 18 57  1  0
 23 58  1  0
 24 59  1  0
 26 60  1  0
 29 61  1  0
 36 62  1  0
 36 63  1  0
 36 64  1  0
 37 65  1  0
 37 66  1  0
 37 67  1  0
 38 68  1  0
 38 69  1  0
 38 70  1  0
 40 71  1  0
M  CHG  1  29  -1
M  END
>  <UniqueID>  (31) 
31

>  <SMILES>  (31) 
CCOC(=O)c1nn(C(=O)OC(C)(C)C)c2ccc(Br)c(-c3ccc4cc(C([NH-])=O)n(C(=O)OC(C)(C)C)c4c3)c12

>  <Energy>  (31) 
149.6689715800046

>  <Genealogy>  (31) 
CCOC(=O)c1nn(C(=O)OC(C)(C)C)c2ccc(Br)c(-c3ccc4cc(C([NH-])=O)n(C(=O)OC(C)(C)C)c4c3)c12 (protonated)
CCOC(=O)c1nn(C(=O)OC(C)(C)C)c2ccc(Br)c(-c3ccc4cc(C([NH-])=O)n(C(=O)OC(C)(C)C)c4c3)c12 (3D coordinates assigned)
CCOC(=O)c1nn(C(=O)OC(C)(C)C)c2ccc(Br)c(-c3ccc4cc(C([NH-])=O)n(C(=O)OC(C)(C)C)c4c3)c12 (optimized conformer: 149.6689715800046 kcal/mol)

>  <smiles>  (31) 
CCOC(=O)c1nn(C(=O)OC(C)(C)C)c2ccc(Br)c(-c3ccc4cc(C(N)=O)n(C(=O)OC(C)(C)C)c4c3)c12

>  <score_type>  (31) 
oracle

>  <origin>  (31) 
adg

>  <m_score__min__energy>  (31) 
-10.390000000000001

>  <m_primary>  (31) 
energy

$$$$
31:0
     RDKit          3D

 39 41  0  0  0  0  0  0  0  0999 V2000
  148.8750  160.9660  130.7010 C   0  0  0  0  0  0  0  0  0  0  0  0
  149.5500  159.6220  130.4510 C   0  0  0  0  0  0  0  0  0  0  0  0
  148.8140  158.5690  131.0690 O   0  0  0  0  0  0  0  0  0  0  0  0
  148.5250  158.5300  132.4380 C   0  0  0  0  0  0  0  0  0  0  0  0
  149.3480  158.9930  133.2750 O   0  0  0  0  0  0  0  0  0  0  0  0
  147.2860  157.9640  132.8920 N   0  0  0  0  0  0  0  0  0  0  0  0
  146.1330  158.6260  133.1900 C   0  0  0  0  0  0  0  0  0  0  0  0
  145.9710  160.0930  133.2610 C   0  0  0  0  0  0  0  0  0  0  0  0
  147.1030  160.9580  133.3650 N   0  0  0  0  0  0  0  0  0  0  0  0
  144.8120  160.5870  133.2840 O   0  0  0  0  0  0  0  0  0  0  0  0
  145.1090  157.7280  133.4780 C   0  0  0  0  0  0  0  0  0  0  0  0
  145.6780  156.4810  133.3610 C   0  0  0  0  0  0  0  0  0  0  0  0
  145.1110  155.2220  133.5250 C   0  0  0  0  0  0  0  0  0  0  0  0
  145.9250  154.0980  133.3060 C   0  0  0  0  0  0  0  0  0  0  0  0
  147.2820  154.2480  132.9160 C   0  0  0  0  0  0  0  0  0  0  0  0
  148.1280  153.0520  132.6730 C   0  0  0  0  0  0  0  0  0  0  0  0
  147.5450  151.8290  132.2900 C   0  0  0  0  0  0  0  0  0  0  0  0
  148.3440  150.7050  132.0620 C   0  0  0  0  0  0  0  0  0  0  0  0
  149.7300  150.7880  132.2100 C   0  0  0  0  0  0  0  0  0  0  0  0
  150.3210  151.9960  132.5890 C   0  0  0  0  0  0  0  0  0  0  0  0
  149.5260  153.1230  132.8200 C   0  0  0  0  0  0  0  0  0  0  0  0
  147.8200  155.5470  132.7570 C   0  0  0  0  0  0  0  0  0  0  0  0
  146.9910  156.6490  133.0040 C   0  0  0  0  0  0  0  0  0  0  0  0
  148.7890  161.1373  131.7842 H   0  0  0  0  0  0  0  0  0  0  0  0
  149.4771  161.7683  130.2496 H   0  0  0  0  0  0  0  0  0  0  0  0
  147.8719  160.9621  130.2496 H   0  0  0  0  0  0  0  0  0  0  0  0
  149.6020  159.4394  129.3675 H   0  0  0  0  0  0  0  0  0  0  0  0
  150.5621  159.6476  130.8812 H   0  0  0  0  0  0  0  0  0  0  0  0
  148.0610  160.5760  133.5220 H   0  0  0  0  0  0  0  0  0  0  0  0
  146.9710  161.9940  133.3700 H   0  0  0  0  0  0  0  0  0  0  0  0
  144.0679  157.9648  133.7425 H   0  0  0  0  0  0  0  0  0  0  0  0
  144.0566  155.1094  133.8175 H   0  0  0  0  0  0  0  0  0  0  0  0
  145.5060  153.0896  133.4383 H   0  0  0  0  0  0  0  0  0  0  0  0
  146.4540  151.7576  132.1694 H   0  0  0  0  0  0  0  0  0  0  0  0
  147.8799  149.7529  131.7653 H   0  0  0  0  0  0  0  0  0  0  0  0
  150.3566  149.9023  132.0282 H   0  0  0  0  0  0  0  0  0  0  0  0
  151.4129  152.0606  132.7058 H   0  0  0  0  0  0  0  0  0  0  0  0
  149.9964  154.0714  133.1186 H   0  0  0  0  0  0  0  0  0  0  0  0
  148.8657  155.6884  132.4464 H   0  0  0  0  0  0  0  0  0  0  0  0
  1  2  1  0
  2  3  1  0
  3  4  1  0
  4  5  2  0
  4  6  1  0
  6  7  1  0
  7  8  1  0
  8  9  1  0
  8 10  2  0
  7 11  2  0
 11 12  1  0
 12 13  2  0
 13 14  1  0
 14 15  2  0
 15 16  1  0
 16 17  2  0
 17 18  1  0
 18 19  2  0
 19 20  1  0
 20 21  2  0
 15 22  1  0
 22 23  2  0
 23  6  1  0
 23 12  1  0
 21 16  1  0
  1 24  1  0
  1 25  1  0
  1 26  1  0
  2 27  1  0
  2 28  1  0
  9 29  1  0
  9 30  1  0
 11 31  1  0
 13 32  1  0
 14 33  1  0
 17 34  1  0
 18 35  1  0
 19 36  1  0
 20 37  1  0
 21 38  1  0
 22 39  1  0
M  END
>  <UniqueID>  (32) 
32

>  <SMILES>  (32) 
CCOC(=O)n1c(C(N)=O)cc2ccc(-c3ccccc3)cc21

>  <Energy>  (32) 
82.07845311118882

>  <Genealogy>  (32) 
CCOC(=O)n1c(C(N)=O)cc2ccc(-c3ccccc3)cc21 (3D coordinates assigned)
CCOC(=O)n1c(C(N)=O)cc2ccc(-c3ccccc3)cc21 (optimized conformer: 82.07845311118882 kcal/mol)

>  <smiles>  (32) 
CCOC(=O)n1c(C(N)=O)cc2ccc(-c3ccccc3)cc21

>  <score_type>  (32) 
oracle

>  <origin>  (32) 
adg

>  <m_score__min__energy>  (32) 
-7.6699999999999999

>  <m_primary>  (32) 
energy

$$$$
32:0
     RDKit          3D

 47 48  0  0  0  0  0  0  0  0999 V2000
  141.2990  159.0890  135.7130 H   0  0  0  0  0  0  0  0  0  0  0  0
  141.1850  160.0610  135.3510 N   0  0  0  0  0  0  0  0  0  0  0  0
  141.8720  160.4940  134.1790 C   0  0  0  0  0  0  0  0  0  0  0  0
  141.2960  161.2800  133.3820 O   0  0  0  0  0  0  0  0  0  0  0  0
  143.2610  160.0500  133.9340 C   0  0  0  0  0  0  0  0  0  0  0  0
  144.3430  160.9230  133.8580 C   0  0  0  0  0  0  0  0  0  0  0  0
  144.3345  162.0107  134.0216 H   0  0  0  0  0  0  0  0  0  0  0  0
  145.4250  160.1370  133.5350 C   0  0  0  0  0  0  0  0  0  0  0  0
  146.7610  160.4830  133.3520 C   0  0  0  0  0  0  0  0  0  0  0  0
  147.0919  161.5288  133.4345 H   0  0  0  0  0  0  0  0  0  0  0  0
  147.6730  159.4570  133.0590 C   0  0  0  0  0  0  0  0  0  0  0  0
  148.7366  159.6983  132.9157 H   0  0  0  0  0  0  0  0  0  0  0  0
  147.2370  158.1130  132.9460 C   0  0  0  0  0  0  0  0  0  0  0  0
  148.2280  157.0160  132.6740 C   0  0  0  0  0  0  0  0  0  0  0  0
  148.0256  156.5791  131.6850 H   0  0  0  0  0  0  0  0  0  0  0  0
  149.2451  157.4343  132.6956 H   0  0  0  0  0  0  0  0  0  0  0  0
  148.1120  155.9530  133.7180 C   0  0  0  0  0  0  0  0  0  0  0  0
  147.7870  156.2650  134.8960 O   0  0  0  0  0  0  0  0  0  0  0  0
  148.3260  154.6180  133.3660 O   0  0  0  0  0  0  0  0  0  0  0  0
  147.2740  153.7630  132.9350 C   0  0  0  0  0  0  0  0  0  0  0  0
  146.7590  153.3444  133.8122 H   0  0  0  0  0  0  0  0  0  0  0  0
  146.5583  154.3387  132.3297 H   0  0  0  0  0  0  0  0  0  0  0  0
  147.6912  152.9447  132.3297 H   0  0  0  0  0  0  0  0  0  0  0  0
  145.8750  157.7970  133.1490 C   0  0  0  0  0  0  0  0  0  0  0  0
  145.5221  156.7569  133.0887 H   0  0  0  0  0  0  0  0  0  0  0  0
  144.9860  158.8420  133.4290 C   0  0  0  0  0  0  0  0  0  0  0  0
  143.6600  158.7710  133.6770 N   0  0  0  0  0  0  0  0  0  0  0  0
  142.8720  157.5710  133.7300 C   0  0  0  0  0  0  0  0  0  0  0  0
  142.8270  156.8000  132.7320 O   0  0  0  0  0  0  0  0  0  0  0  0
  142.1410  157.2740  134.8840 O   0  0  0  0  0  0  0  0  0  0  0  0
  140.8320  156.7160  134.8430 C   0  0  0  0  0  0  0  0  0  0  0  0
  140.4519  156.5975  135.8684 H   0  0  0  0  0  0  0  0  0  0  0  0
  140.8680  155.7339  134.3488 H   0  0  0  0  0  0  0  0  0  0  0  0
  139.9230  157.6270  134.0760 C   0  0  0  0  0  0  0  0  0  0  0  0
  139.5093  158.5207  134.5661 H   0  0  0  0  0  0  0  0  0  0  0  0
  139.6080  157.3660  132.8000 C   0  0  0  0  0  0  0  0  0  0  0  0
  140.0229  156.4688  132.3174 H   0  0  0  0  0  0  0  0  0  0  0  0
  138.7010  158.2700  132.0120 C   0  0  0  0  0  0  0  0  0  0  0  0
  137.9081  158.6490  132.6736 H   0  0  0  0  0  0  0  0  0  0  0  0
  138.2680  157.6933  131.1814 H   0  0  0  0  0  0  0  0  0  0  0  0
  139.4770  159.4570  131.4290 C   0  0  0  0  0  0  0  0  0  0  0  0
  140.2208  159.0816  130.7108 H   0  0  0  0  0  0  0  0  0  0  0  0
  139.9704  159.9903  132.2549 H   0  0  0  0  0  0  0  0  0  0  0  0
  138.5420  160.4300  130.7150 C   0  0  0  0  0  0  0  0  0  0  0  0
  137.9814  161.0134  131.4602 H   0  0  0  0  0  0  0  0  0  0  0  0
  139.1331  161.1111  130.0852 H   0  0  0  0  0  0  0  0  0  0  0  0
  137.8379  159.8665  130.0852 H   0  0  0  0  0  0  0  0  0  0  0  0
  1  2  1  0
  2  3  1  0
  3  4  2  0
  3  5  1  0
  5  6  2  0
  6  7  1  0
  6  8  1  0
  8  9  2  0
  9 10  1  0
  9 11  1  0
 11 12  1  0
 11 13  2  0
 13 14  1  0
 14 15  1  0
 14 16  1  0
 14 17  1  0
 17 18  2  0
 17 19  1  0
 19 20  1  0
 20 21  1  0
 20 22  1  0
 20 23  1  0
 13 24  1  0
 24 25  1  0
 24 26  2  0
 26 27  1  0
 27 28  1  0
 28 29  2  0
 28 30  1  0
 30 31  1  0
 31 32  1  0
 31 33  1  0
 31 34  1  0
 34 35  1  0
 34 36  2  0
 36 37  1  0
 36 38  1  0
 38 39  1  0
 38 40  1  0
 38 41  1  0
 41 42  1  0
 41 43  1  0
 41 44  1  0
 44 45  1  0
 44 46  1  0
 44 47  1  0
 27  5  1  0
 26  8  1  0
M  CHG  1   2  -1
M  END
>  <UniqueID>  (33) 
33

>  <SMILES>  (33) 
CCC/C=C/COC(=O)n1c(C([NH-])=O)cc2ccc(CC(=O)OC)cc21

>  <Energy>  (33) 
69.65975010733202

>  <Genealogy>  (33) 
CCC/C=C/COC(=O)n1c(C([NH-])=O)cc2ccc(CC(=O)OC)cc21 (protonated)
CCC/C=C/COC(=O)n1c(C([NH-])=O)cc2ccc(CC(=O)OC)cc21 (cis-trans isomerization)
CCC/C=C/COC(=O)n1c(C([NH-])=O)cc2ccc(CC(=O)OC)cc21 (3D coordinates assigned)
CCC/C=C/COC(=O)n1c(C([NH-])=O)cc2ccc(CC(=O)OC)cc21 (optimized conformer: 69.65975010733202 kcal/mol)

>  <smiles>  (33) 
CCC/C=C/COC(=O)n1c(C(N)=O)cc2ccc(CC(=O)OC)cc21

>  <score_type>  (33) 
oracle

>  <origin>  (33) 
adg

>  <m_score__min__energy>  (33) 
-7.0700000000000003

>  <m_primary>  (33) 
energy

$$$$
33:0
     RDKit          3D

 35 37  0  0  0  0  0  0  0  0999 V2000
  142.8800  155.3680  134.1630 C   0  0  0  0  0  0  0  0  0  0  0  0
  141.7620  156.1860  133.5950 C   0  0  0  0  0  0  0  0  0  0  0  0
  140.8280  155.6060  132.9820 O   0  0  0  0  0  0  0  0  0  0  0  0
  141.7190  157.6100  133.7840 N   0  0  0  0  0  0  0  0  0  0  0  0
  140.6320  158.3890  134.0510 C   0  0  0  0  0  0  0  0  0  0  0  0
  139.2730  157.8870  134.3530 C   0  0  0  0  0  0  0  0  0  0  0  0
  138.5730  157.0640  133.4170 N   0  0  0  0  0  0  0  0  0  0  0  0
  138.7080  158.2040  135.4330 O   0  0  0  0  0  0  0  0  0  0  0  0
  140.9990  159.7330  134.1010 C   0  0  0  0  0  0  0  0  0  0  0  0
  142.3530  159.7510  133.8610 C   0  0  0  0  0  0  0  0  0  0  0  0
  143.2380  160.8220  133.7920 C   0  0  0  0  0  0  0  0  0  0  0  0
  144.5860  160.5490  133.5120 C   0  0  0  0  0  0  0  0  0  0  0  0
  145.0300  159.2150  133.3010 C   0  0  0  0  0  0  0  0  0  0  0  0
  146.4510  158.9190  132.9970 C   0  0  0  0  0  0  0  0  0  0  0  0
  147.1830  157.8130  133.4110 C   0  0  0  0  0  0  0  0  0  0  0  0
  148.4340  157.9970  132.8630 C   0  0  0  0  0  0  0  0  0  0  0  0
  148.4320  159.1550  132.1800 N   0  0  0  0  0  0  0  0  0  0  0  0
  149.5380  159.6850  131.3950 C   0  0  0  0  0  0  0  0  0  0  0  0
  147.2350  159.7150  132.2400 N   0  0  0  0  0  0  0  0  0  0  0  0
  144.0970  158.1540  133.3820 C   0  0  0  0  0  0  0  0  0  0  0  0
  142.7630  158.4580  133.6750 C   0  0  0  0  0  0  0  0  0  0  0  0
  142.8363  155.4000  135.2617 H   0  0  0  0  0  0  0  0  0  0  0  0
  142.7822  154.3267  133.8223 H   0  0  0  0  0  0  0  0  0  0  0  0
  143.8429  155.7764  133.8223 H   0  0  0  0  0  0  0  0  0  0  0  0
  139.0280  156.7320  132.5390 H   0  0  0  0  0  0  0  0  0  0  0  0
  137.6000  156.7470  133.6260 H   0  0  0  0  0  0  0  0  0  0  0  0
  140.3443  160.5961  134.2919 H   0  0  0  0  0  0  0  0  0  0  0  0
  142.8913  161.8535  133.9523 H   0  0  0  0  0  0  0  0  0  0  0  0
  145.3077  161.3772  133.4551 H   0  0  0  0  0  0  0  0  0  0  0  0
  146.8401  156.9762  134.0372 H   0  0  0  0  0  0  0  0  0  0  0  0
  149.2889  157.3127  132.9668 H   0  0  0  0  0  0  0  0  0  0  0  0
  150.3207  160.0601  132.0708 H   0  0  0  0  0  0  0  0  0  0  0  0
  149.9525  158.8877  130.7606 H   0  0  0  0  0  0  0  0  0  0  0  0
  149.1763  160.5076  130.7606 H   0  0  0  0  0  0  0  0  0  0  0  0
  144.4135  157.1133  133.2182 H   0  0  0  0  0  0  0  0  0  0  0  0
  1  2  1  0
  2  3  2  0
  2  4  1  0
  4  5  1  0
  5  6  1  0
  6  7  1  0
  6  8  2  0
  5  9  2  0
  9 10  1  0
 10 11  2  0
 11 12  1  0
 12 13  2  0
 13 14  1  0
 14 15  1  0
 15 16  2  0
 16 17  1  0
 17 18  1  0
 17 19  1  0
 13 20  1  0
 20 21  2  0
 21  4  1  0
 21 10  1  0
 19 14  2  0
  1 22  1  0
  1 23  1  0
  1 24  1  0
  7 25  1  0
  7 26  1  0
  9 27  1  0
 11 28  1  0
 12 29  1  0
 15 30  1  0
 16 31  1  0
 18 32  1  0
 18 33  1  0
 18 34  1  0
 20 35  1  0
M  END
>  <UniqueID>  (34) 
34

>  <SMILES>  (34) 
CC(=O)n1c(C(N)=O)cc2ccc(-c3ccn(C)n3)cc21

>  <Energy>  (34) 
105.59331961957736

>  <Genealogy>  (34) 
CC(=O)n1c(C(N)=O)cc2ccc(-c3ccn(C)n3)cc21 (3D coordinates assigned)
CC(=O)n1c(C(N)=O)cc2ccc(-c3ccn(C)n3)cc21 (optimized conformer: 105.59331961957736 kcal/mol)

>  <smiles>  (34) 
CC(=O)n1c(C(N)=O)cc2ccc(-c3ccn(C)n3)cc21

>  <score_type>  (34) 
oracle

>  <origin>  (34) 
adg

>  <m_score__min__energy>  (34) 
-7.0700000000000003

>  <m_primary>  (34) 
energy

$$$$
34:0
     RDKit          3D

 55 57  0  0  0  0  0  0  0  0999 V2000
  148.8060  157.5970  132.5370 C   0  0  0  0  0  0  0  0  0  0  0  0
  148.0660  156.4820  133.2840 C   0  0  0  0  0  0  0  0  0  0  0  0
  148.5140  155.1080  132.7690 C   0  0  0  0  0  0  0  0  0  0  0  0
  146.5430  156.6590  133.1350 C   0  0  0  0  0  0  0  0  0  0  0  0
  146.0900  157.8270  133.8170 O   0  0  0  0  0  0  0  0  0  0  0  0
  145.3860  158.8630  133.1920 C   0  0  0  0  0  0  0  0  0  0  0  0
  145.9630  159.6140  132.3570 O   0  0  0  0  0  0  0  0  0  0  0  0
  144.0070  159.0850  133.5210 N   0  0  0  0  0  0  0  0  0  0  0  0
  143.3750  160.2790  133.7070 C   0  0  0  0  0  0  0  0  0  0  0  0
  144.0270  161.6040  133.7600 C   0  0  0  0  0  0  0  0  0  0  0  0
  145.4080  161.7040  134.0980 N   0  0  0  0  0  0  0  0  0  0  0  0
  143.3850  162.6500  133.4770 O   0  0  0  0  0  0  0  0  0  0  0  0
  142.0130  160.0820  133.9220 C   0  0  0  0  0  0  0  0  0  0  0  0
  141.8280  158.7190  133.8630 C   0  0  0  0  0  0  0  0  0  0  0  0
  140.6650  157.9680  133.9920 C   0  0  0  0  0  0  0  0  0  0  0  0
  140.7620  156.5730  133.8510 C   0  0  0  0  0  0  0  0  0  0  0  0
  142.0110  155.9540  133.5780 C   0  0  0  0  0  0  0  0  0  0  0  0
  142.0990  154.4810  133.4140 C   0  0  0  0  0  0  0  0  0  0  0  0
  143.3150  153.8050  133.6110 C   0  0  0  0  0  0  0  0  0  0  0  0
  143.3820  152.4200  133.4490 C   0  0  0  0  0  0  0  0  0  0  0  0
  142.2350  151.7130  133.0870 C   0  0  0  0  0  0  0  0  0  0  0  0
  142.3110  150.3250  132.9180 O   0  0  0  0  0  0  0  0  0  0  0  0
  141.6210  149.6030  131.8960 C   0  0  0  0  0  0  0  0  0  0  0  0
  140.1910  149.2510  132.3300 C   0  0  1  0  0  0  0  0  0  0  0  0
  140.0390  149.6000  133.6830 O   0  0  0  0  0  0  0  0  0  0  0  0
  139.1390  149.9850  131.4870 C   0  0  0  0  0  0  0  0  0  0  0  0
  138.7020  151.1310  132.1620 O   0  0  0  0  0  0  0  0  0  0  0  0
  141.0620  152.3790  132.9040 N   0  0  0  0  0  0  0  0  0  0  0  0
  140.9680  153.7270  133.0550 C   0  0  0  0  0  0  0  0  0  0  0  0
  143.1710  156.7570  133.4570 C   0  0  0  0  0  0  0  0  0  0  0  0
  143.0470  158.1410  133.6180 C   0  0  0  0  0  0  0  0  0  0  0  0
  149.2626  158.2849  133.2639 H   0  0  0  0  0  0  0  0  0  0  0  0
  149.5916  157.1565  131.9055 H   0  0  0  0  0  0  0  0  0  0  0  0
  148.0950  158.1498  131.9055 H   0  0  0  0  0  0  0  0  0  0  0  0
  148.3146  156.5438  134.3537 H   0  0  0  0  0  0  0  0  0  0  0  0
  148.7290  154.4487  133.6228 H   0  0  0  0  0  0  0  0  0  0  0  0
  147.7132  154.6667  132.1575 H   0  0  0  0  0  0  0  0  0  0  0  0
  149.4210  155.2235  132.1575 H   0  0  0  0  0  0  0  0  0  0  0  0
  146.2950  156.7483  132.0670 H   0  0  0  0  0  0  0  0  0  0  0  0
  146.0458  155.7829  133.5769 H   0  0  0  0  0  0  0  0  0  0  0  0
  146.1490  161.5200  133.3870 H   0  0  0  0  0  0  0  0  0  0  0  0
  141.2479  160.8518  134.1009 H   0  0  0  0  0  0  0  0  0  0  0  0
  139.6984  158.4510  134.1981 H   0  0  0  0  0  0  0  0  0  0  0  0
  139.8593  155.9527  133.9533 H   0  0  0  0  0  0  0  0  0  0  0  0
  144.2164  154.3685  133.8936 H   0  0  0  0  0  0  0  0  0  0  0  0
  144.3329  151.8896  133.6057 H   0  0  0  0  0  0  0  0  0  0  0  0
  141.5777  150.2215  130.9874 H   0  0  0  0  0  0  0  0  0  0  0  0
  142.1659  148.6669  131.7041 H   0  0  0  0  0  0  0  0  0  0  0  0
  140.0353  148.1721  132.1824 H   0  0  0  0  0  0  0  0  0  0  0  0
  140.2210  150.5730  133.7550 H   0  0  0  0  0  0  0  0  0  0  0  0
  139.5823  150.2762  130.5233 H   0  0  0  0  0  0  0  0  0  0  0  0
  138.2821  149.3170  131.3156 H   0  0  0  0  0  0  0  0  0  0  0  0
  139.2510  151.1920  132.9870 H   0  0  0  0  0  0  0  0  0  0  0  0
  140.0027  154.2299  132.8955 H   0  0  0  0  0  0  0  0  0  0  0  0
  144.1490  156.3021  133.2410 H   0  0  0  0  0  0  0  0  0  0  0  0
  1  2  1  0
  2  3  1  0
  2  4  1  0
  4  5  1  0
  5  6  1  0
  6  7  2  0
  6  8  1  0
  8  9  1  0
  9 10  1  0
 10 11  1  0
 10 12  2  0
  9 13  2  0
 13 14  1  0
 14 15  2  0
 15 16  1  0
 16 17  2  0
 17 18  1  0
 18 19  2  0
 19 20  1  0
 20 21  2  0
 21 22  1  0
 22 23  1  0
 23 24  1  0
 24 25  1  0
 24 26  1  0
 26 27  1  0
 21 28  1  0
 28 29  2  0
 17 30  1  0
 30 31  2  0
 31  8  1  0
 31 14  1  0
 29 18  1  0
  1 32  1  0
  1 33  1  0
  1 34  1  0
  2 35  1  0
  3 36  1  0
  3 37  1  0
  3 38  1  0
  4 39  1  0
  4 40  1  0
 11 41  1  0
 13 42  1  0
 15 43  1  0
 16 44  1  0
 19 45  1  0
 20 46  1  0
 23 47  1  0
 23 48  1  0
 24 49  1  1
 25 50  1  0
 26 51  1  0
 26 52  1  0
 27 53  1  0
 29 54  1  0
 30 55  1  0
M  CHG  1  11  -1
M  END
>  <UniqueID>  (35) 
35

>  <SMILES>  (35) 
CC(C)COC(=O)n1c(C([NH-])=O)cc2ccc(-c3ccc(OC[C@@H](O)CO)nc3)cc21

>  <Energy>  (35) 
90.2641047200898

>  <Genealogy>  (35) 
CC(C)COC(=O)n1c(C([NH-])=O)cc2ccc(-c3ccc(OCC(O)CO)nc3)cc21 (protonated)
CC(C)COC(=O)n1c(C([NH-])=O)cc2ccc(-c3ccc(OC[C@@H](O)CO)nc3)cc21 (chirality)
CC(C)COC(=O)n1c(C([NH-])=O)cc2ccc(-c3ccc(OC[C@@H](O)CO)nc3)cc21 (3D coordinates assigned)
CC(C)COC(=O)n1c(C([NH-])=O)cc2ccc(-c3ccc(OC[C@@H](O)CO)nc3)cc21 (optimized conformer: 90.2641047200898 kcal/mol)

>  <smiles>  (35) 
CC(C)COC(=O)n1c(C(N)=O)cc2ccc(-c3ccc(OCC(O)CO)nc3)cc21

>  <score_type>  (35) 
oracle

>  <origin>  (35) 
adg

>  <m_score__min__energy>  (35) 
-8.4800000000000004

>  <m_primary>  (35) 
energy

$$$$
35:0
     RDKit          3D

 32 34  0  0  0  0  0  0  0  0999 V2000
  147.2500  156.3000  132.0120 N   0  0  0  0  0  0  0  0  0  0  0  0
  147.1350  156.9760  133.3070 C   0  0  0  0  0  0  0  0  0  0  0  0
  146.7590  158.4750  133.2230 C   0  0  0  0  0  0  0  0  0  0  0  0
  145.3240  158.8470  133.4860 C   0  0  0  0  0  0  0  0  0  0  0  0
  144.9450  160.2110  133.5580 C   0  0  0  0  0  0  0  0  0  0  0  0
  143.6010  160.5720  133.7420 C   0  0  0  0  0  0  0  0  0  0  0  0
  142.6590  159.5520  133.8450 C   0  0  0  0  0  0  0  0  0  0  0  0
  141.2920  159.6240  133.9830 C   0  0  0  0  0  0  0  0  0  0  0  0
  140.8550  158.3020  134.0040 C   0  0  0  0  0  0  0  0  0  0  0  0
  139.4430  157.9180  134.1990 C   0  0  0  0  0  0  0  0  0  0  0  0
  138.7450  157.1480  133.2200 N   0  0  0  0  0  0  0  0  0  0  0  0
  138.8610  158.2240  135.2740 O   0  0  0  0  0  0  0  0  0  0  0  0
  141.9060  157.4440  133.8700 N   0  0  0  0  0  0  0  0  0  0  0  0
  141.8550  156.0140  133.7310 C   0  0  0  0  0  0  0  0  0  0  0  0
  142.7490  155.2920  134.2440 O   0  0  0  0  0  0  0  0  0  0  0  0
  140.8180  155.4110  133.0290 O   0  0  0  0  0  0  0  0  0  0  0  0
  143.0060  158.2270  133.7770 C   0  0  0  0  0  0  0  0  0  0  0  0
  144.3360  157.8390  133.5710 C   0  0  0  0  0  0  0  0  0  0  0  0
  147.7070  159.4110  133.6730 C   0  0  0  0  0  0  0  0  0  0  0  0
  147.4090  159.2590  132.2550 C   0  0  0  0  0  0  0  0  0  0  0  0
  146.3470  156.3810  131.4920 H   0  0  0  0  0  0  0  0  0  0  0  0
  148.0050  156.7510  131.4470 H   0  0  0  0  0  0  0  0  0  0  0  0
  146.3608  156.4610  133.8948 H   0  0  0  0  0  0  0  0  0  0  0  0
  148.1316  156.9312  133.7704 H   0  0  0  0  0  0  0  0  0  0  0  0
  145.7119  160.9946  133.4688 H   0  0  0  0  0  0  0  0  0  0  0  0
  143.3012  161.6286  133.8030 H   0  0  0  0  0  0  0  0  0  0  0  0
  140.6759  160.5320  134.0603 H   0  0  0  0  0  0  0  0  0  0  0  0
  137.7350  156.9170  133.3570 H   0  0  0  0  0  0  0  0  0  0  0  0
  139.2440  156.7350  132.4020 H   0  0  0  0  0  0  0  0  0  0  0  0
  144.6052  156.7765  133.4777 H   0  0  0  0  0  0  0  0  0  0  0  0
  148.2616  159.8969  134.4893 H   0  0  0  0  0  0  0  0  0  0  0  0
  147.5719  159.5454  131.2055 H   0  0  0  0  0  0  0  0  0  0  0  0
  1  2  1  0
  2  3  1  0
  3  4  1  0
  4  5  2  0
  5  6  1  0
  6  7  2  0
  7  8  1  0
  8  9  2  0
  9 10  1  0
 10 11  1  0
 10 12  2  0
  9 13  1  0
 13 14  1  0
 14 15  2  0
 14 16  1  0
 13 17  1  0
 17 18  2  0
  3 19  1  0
 19 20  2  0
 20  3  1  0
 18  4  1  0
 17  7  1  0
  1 21  1  0
  1 22  1  0
  2 23  1  0
  2 24  1  0
  5 25  1  0
  6 26  1  0
  8 27  1  0
 11 28  1  0
 11 29  1  0
 18 30  1  0
 19 31  1  0
 20 32  1  0
M  CHG  1  16  -1
M  END
>  <UniqueID>  (36) 
36

>  <SMILES>  (36) 
NCC1(c2ccc3cc(C(N)=O)n(C(=O)[O-])c3c2)C=C1

>  <Energy>  (36) 
174.38281377173342

>  <Genealogy>  (36) 
NCC1(c2ccc3cc(C(N)=O)n(C(=O)[O-])c3c2)C=C1 (protonated)
NCC1(c2ccc3cc(C(N)=O)n(C(=O)[O-])c3c2)C=C1 (3D coordinates assigned)
NCC1(c2ccc3cc(C(N)=O)n(C(=O)[O-])c3c2)C=C1 (nonaromatic ring conformer: 174.38281377173342 kcal/mol)

>  <smiles>  (36) 
NCC1(c2ccc3cc(C(N)=O)n(C(=O)O)c3c2)C=C1

>  <score_type>  (36) 
oracle

>  <origin>  (36) 
adg

>  <m_score__min__energy>  (36) 
-6.8799999999999999

>  <m_primary>  (36) 
energy

$$$$
36:0
     RDKit          3D

 46 48  0  0  0  0  0  0  0  0999 V2000
  149.8040  150.8780  131.6120 C   0  0  0  0  0  0  0  0  0  0  0  0
  148.8170  151.5060  132.5070 N   0  0  0  0  0  0  0  0  0  0  0  0
  149.2980  152.8230  133.0110 C   0  0  0  0  0  0  0  0  0  0  0  0
  148.4290  154.0130  132.5780 C   0  0  0  0  0  0  0  0  0  0  0  0
  147.0150  153.7390  132.8680 N   0  0  0  0  0  0  0  0  0  0  0  0
  146.1080  154.8110  133.2050 C   0  0  0  0  0  0  0  0  0  0  0  0
  144.8450  154.5330  133.7910 C   0  0  0  0  0  0  0  0  0  0  0  0
  143.9660  155.5740  134.1380 C   0  0  0  0  0  0  0  0  0  0  0  0
  144.3770  156.8810  133.9010 C   0  0  0  0  0  0  0  0  0  0  0  0
  143.7300  158.0750  134.1350 C   0  0  0  0  0  0  0  0  0  0  0  0
  144.6130  159.0640  133.7030 C   0  0  0  0  0  0  0  0  0  0  0  0
  144.3430  160.5130  133.8040 C   0  0  0  0  0  0  0  0  0  0  0  0
  145.4190  161.4240  134.0090 N   0  0  0  0  0  0  0  0  0  0  0  0
  143.1690  160.9590  133.7030 O   0  0  0  0  0  0  0  0  0  0  0  0
  145.7590  158.5010  133.2300 N   0  0  0  0  0  0  0  0  0  0  0  0
  146.9080  159.1680  132.6880 C   0  0  0  0  0  0  0  0  0  0  0  0
  146.7480  160.0320  131.7820 O   0  0  0  0  0  0  0  0  0  0  0  0
  148.2300  158.8610  133.1710 N   0  0  0  0  0  0  0  0  0  0  0  0
  148.4030  158.1370  134.4320 C   0  0  0  0  0  0  0  0  0  0  0  0
  149.3980  159.3540  132.4360 C   0  0  0  0  0  0  0  0  0  0  0  0
  145.5980  157.1680  133.3530 C   0  0  0  0  0  0  0  0  0  0  0  0
  146.4840  156.1550  132.9780 C   0  0  0  0  0  0  0  0  0  0  0  0
  146.5010  152.3790  132.6730 C   0  0  0  0  0  0  0  0  0  0  0  0
  147.4890  151.5420  131.8580 C   0  0  0  0  0  0  0  0  0  0  0  0
  150.5814  150.3834  132.2129 H   0  0  0  0  0  0  0  0  0  0  0  0
  149.3017  150.1331  130.9774 H   0  0  0  0  0  0  0  0  0  0  0  0
  150.2660  151.6486  130.9774 H   0  0  0  0  0  0  0  0  0  0  0  0
  149.3135  152.7879  134.1103 H   0  0  0  0  0  0  0  0  0  0  0  0
  150.2964  152.9839  132.5782 H   0  0  0  0  0  0  0  0  0  0  0  0
  148.7450  154.9126  133.1265 H   0  0  0  0  0  0  0  0  0  0  0  0
  148.5500  154.1717  131.4963 H   0  0  0  0  0  0  0  0  0  0  0  0
  144.5503  153.4895  133.9759 H   0  0  0  0  0  0  0  0  0  0  0  0
  142.9830  155.3610  134.5834 H   0  0  0  0  0  0  0  0  0  0  0  0
  142.7298  158.2176  134.5700 H   0  0  0  0  0  0  0  0  0  0  0  0
  146.2080  161.4860  133.3280 H   0  0  0  0  0  0  0  0  0  0  0  0
  148.2388  158.8243  135.2750 H   0  0  0  0  0  0  0  0  0  0  0  0
  147.6766  157.3126  134.4842 H   0  0  0  0  0  0  0  0  0  0  0  0
  149.4237  157.7301  134.4842 H   0  0  0  0  0  0  0  0  0  0  0  0
  150.1695  159.6796  133.1493 H   0  0  0  0  0  0  0  0  0  0  0  0
  149.7999  158.5488  131.8035 H   0  0  0  0  0  0  0  0  0  0  0  0
  149.1014  160.2037  131.8035 H   0  0  0  0  0  0  0  0  0  0  0  0
  147.4525  156.3976  132.5164 H   0  0  0  0  0  0  0  0  0  0  0  0
  146.3495  151.9056  133.6543 H   0  0  0  0  0  0  0  0  0  0  0  0
  145.5480  152.4349  132.1264 H   0  0  0  0  0  0  0  0  0  0  0  0
  147.1037  150.5154  131.7706 H   0  0  0  0  0  0  0  0  0  0  0  0
  147.5980  151.9996  130.8637 H   0  0  0  0  0  0  0  0  0  0  0  0
  1  2  1  0
  2  3  1  0
  3  4  1  0
  4  5  1  0
  5  6  1  0
  6  7  2  0
  7  8  1  0
  8  9  2  0
  9 10  1  0
 10 11  2  0
 11 12  1  0
 12 13  1  0
 12 14  2  0
 11 15  1  0
 15 16  1  0
 16 17  2  0
 16 18  1  0
 18 19  1  0
 18 20  1  0
 15 21  1  0
 21 22  2  0
  5 23  1  0
 23 24  1  0
 24  2  1  0
 22  6  1  0
 21  9  1  0
  1 25  1  0
  1 26  1  0
  1 27  1  0
  3 28  1  0
  3 29  1  0
  4 30  1  0
  4 31  1  0
  7 32  1  0
  8 33  1  0
 10 34  1  0
 13 35  1  0
 19 36  1  0
 19 37  1  0
 19 38  1  0
 20 39  1  0
 20 40  1  0
 20 41  1  0
 22 42  1  0
 23 43  1  0
 23 44  1  0
 24 45  1  0
 24 46  1  0
M  CHG  1  13  -1
M  END
>  <UniqueID>  (37) 
37

>  <SMILES>  (37) 
CN1CCN(c2ccc3cc(C([NH-])=O)n(C(=O)N(C)C)c3c2)CC1

>  <Energy>  (37) 
92.84673986075026

>  <Genealogy>  (37) 
CN1CCN(c2ccc3cc(C([NH-])=O)n(C(=O)N(C)C)c3c2)CC1 (protonated)
CN1CCN(c2ccc3cc(C([NH-])=O)n(C(=O)N(C)C)c3c2)CC1 (3D coordinates assigned)
CN1CCN(c2ccc3cc(C([NH-])=O)n(C(=O)N(C)C)c3c2)CC1 (nonaromatic ring conformer: 92.84673986075026 kcal/mol)

>  <smiles>  (37) 
CN1CCN(c2ccc3cc(C(N)=O)n(C(=O)N(C)C)c3c2)CC1

>  <score_type>  (37) 
oracle

>  <origin>  (37) 
adg

>  <m_score__min__energy>  (37) 
-7.21

>  <m_primary>  (37) 
energy

$$$$
37:0
     RDKit          3D

 29 31  0  0  0  0  0  0  0  0999 V2000
  148.9010  157.4920  131.8500 N   0  0  0  0  0  0  0  0  0  0  0  0
  148.6240  158.6260  132.6730 C   0  0  0  0  0  0  0  0  0  0  0  0
  149.5780  159.3540  133.0530 O   0  0  0  0  0  0  0  0  0  0  0  0
  147.2410  158.9230  133.1090 C   0  0  0  0  0  0  0  0  0  0  0  0
  146.6960  160.2050  133.1390 C   0  0  0  0  0  0  0  0  0  0  0  0
  145.3810  160.0320  133.5060 C   0  0  0  0  0  0  0  0  0  0  0  0
  144.3780  160.9760  133.7010 C   0  0  0  0  0  0  0  0  0  0  0  0
  143.1130  160.5210  134.1070 C   0  0  0  0  0  0  0  0  0  0  0  0
  142.8700  159.1360  134.3200 C   0  0  0  0  0  0  0  0  0  0  0  0
  141.5340  158.6580  134.7640 C   0  0  0  0  0  0  0  0  0  0  0  0
  140.4790  158.2400  133.9520 C   0  0  0  0  0  0  0  0  0  0  0  0
  139.3430  157.8410  134.6670 C   0  0  0  0  0  0  0  0  0  0  0  0
  139.4850  157.9360  136.0440 C   0  0  0  0  0  0  0  0  0  0  0  0
  141.0270  158.5160  136.3670 S   0  0  0  0  0  0  0  0  0  0  0  0
  143.9220  158.2120  134.1120 C   0  0  0  0  0  0  0  0  0  0  0  0
  145.1670  158.6920  133.6880 C   0  0  0  0  0  0  0  0  0  0  0  0
  146.3000  157.9960  133.4470 N   0  0  0  0  0  0  0  0  0  0  0  0
  146.4780  156.5760  133.5900 C   0  0  0  0  0  0  0  0  0  0  0  0
  146.6730  155.8540  132.5750 O   0  0  0  0  0  0  0  0  0  0  0  0
  146.4500  155.9870  134.8470 O   0  0  0  0  0  0  0  0  0  0  0  0
  149.8850  157.2680  131.5810 H   0  0  0  0  0  0  0  0  0  0  0  0
  148.1330  156.8960  131.4690 H   0  0  0  0  0  0  0  0  0  0  0  0
  147.2077  161.1531  132.9168 H   0  0  0  0  0  0  0  0  0  0  0  0
  144.5701  162.0473  133.5419 H   0  0  0  0  0  0  0  0  0  0  0  0
  142.2996  161.2451  134.2622 H   0  0  0  0  0  0  0  0  0  0  0  0
  140.5345  158.2253  132.8535 H   0  0  0  0  0  0  0  0  0  0  0  0
  138.4224  157.4849  134.1815 H   0  0  0  0  0  0  0  0  0  0  0  0
  138.7216  157.6769  136.7923 H   0  0  0  0  0  0  0  0  0  0  0  0
  143.7642  157.1365  134.2804 H   0  0  0  0  0  0  0  0  0  0  0  0
  1  2  1  0
  2  3  2  0
  2  4  1  0
  4  5  2  0
  5  6  1  0
  6  7  2  0
  7  8  1  0
  8  9  2  0
  9 10  1  0
 10 11  2  0
 11 12  1  0
 12 13  2  0
 13 14  1  0
  9 15  1  0
 15 16  2  0
 16 17  1  0
 17 18  1  0
 18 19  2  0
 18 20  1  0
 17  4  1  0
 16  6  1  0
 14 10  1  0
  1 21  1  0
  1 22  1  0
  5 23  1  0
  7 24  1  0
  8 25  1  0
 11 26  1  0
 12 27  1  0
 13 28  1  0
 15 29  1  0
M  CHG  1  20  -1
M  END
>  <UniqueID>  (38) 
38

>  <SMILES>  (38) 
NC(=O)c1cc2ccc(-c3cccs3)cc2n1C(=O)[O-]

>  <Energy>  (38) 
99.22773565357481

>  <Genealogy>  (38) 
NC(=O)c1cc2ccc(-c3cccs3)cc2n1C(=O)[O-] (protonated)
NC(=O)c1cc2ccc(-c3cccs3)cc2n1C(=O)[O-] (3D coordinates assigned)
NC(=O)c1cc2ccc(-c3cccs3)cc2n1C(=O)[O-] (optimized conformer: 99.22773565357481 kcal/mol)

>  <smiles>  (38) 
NC(=O)c1cc2ccc(-c3cccs3)cc2n1C(=O)O

>  <score_type>  (38) 
oracle

>  <origin>  (38) 
adg

>  <m_score__min__energy>  (38) 
-6.9699999999999998

>  <m_primary>  (38) 
energy

$$$$
38:0
     RDKit          3D

 33 35  0  0  0  0  0  0  0  0999 V2000
  139.8220  158.1620  136.6960 N   0  0  0  0  0  0  0  0  0  0  0  0
  140.0730  158.2710  135.2970 C   0  0  0  0  0  0  0  0  0  0  0  0
  139.1440  158.0230  134.4830 O   0  0  0  0  0  0  0  0  0  0  0  0
  141.3870  158.7250  134.7940 C   0  0  0  0  0  0  0  0  0  0  0  0
  141.7740  160.0630  134.7700 C   0  0  0  0  0  0  0  0  0  0  0  0
  143.0750  160.0570  134.3240 C   0  0  0  0  0  0  0  0  0  0  0  0
  143.9490  161.1170  134.1010 C   0  0  0  0  0  0  0  0  0  0  0  0
  145.2310  160.8230  133.6090 C   0  0  0  0  0  0  0  0  0  0  0  0
  145.6160  159.4840  133.3390 C   0  0  0  0  0  0  0  0  0  0  0  0
  146.9700  159.1860  132.8050 C   0  0  0  0  0  0  0  0  0  0  0  0
  147.6040  157.9690  133.1110 C   0  0  0  0  0  0  0  0  0  0  0  0
  148.8770  157.6890  132.6080 C   0  0  0  0  0  0  0  0  0  0  0  0
  149.5310  158.6160  131.7940 C   0  0  0  0  0  0  0  0  0  0  0  0
  148.9150  159.8380  131.4770 C   0  0  0  0  0  0  0  0  0  0  0  0
  149.5910  160.8320  130.6240 C   0  0  0  0  0  0  0  0  0  0  0  0
  149.2240  162.0370  130.6130 O   0  0  0  0  0  0  0  0  0  0  0  0
  147.6360  160.1160  131.9850 C   0  0  0  0  0  0  0  0  0  0  0  0
  144.6970  158.4340  133.5780 C   0  0  0  0  0  0  0  0  0  0  0  0
  143.4330  158.7560  134.0890 C   0  0  0  0  0  0  0  0  0  0  0  0
  142.4050  157.9240  134.3700 N   0  0  0  0  0  0  0  0  0  0  0  0
  142.3820  156.5020  134.1670 C   0  0  0  0  0  0  0  0  0  0  0  0
  141.5160  155.9800  133.4170 O   0  0  0  0  0  0  0  0  0  0  0  0
  143.3320  155.6910  134.7760 O   0  0  0  0  0  0  0  0  0  0  0  0
  139.4810  158.9820  137.2450 H   0  0  0  0  0  0  0  0  0  0  0  0
  141.1682  160.9379  135.0484 H   0  0  0  0  0  0  0  0  0  0  0  0
  143.6446  162.1543  134.3041 H   0  0  0  0  0  0  0  0  0  0  0  0
  145.9453  161.6403  133.4307 H   0  0  0  0  0  0  0  0  0  0  0  0
  147.0947  157.2328  133.7503 H   0  0  0  0  0  0  0  0  0  0  0  0
  149.3658  156.7348  132.8541 H   0  0  0  0  0  0  0  0  0  0  0  0
  150.5323  158.3885  131.3995 H   0  0  0  0  0  0  0  0  0  0  0  0
  150.4299  160.5163  129.9864 H   0  0  0  0  0  0  0  0  0  0  0  0
  147.1490  161.0713  131.7394 H   0  0  0  0  0  0  0  0  0  0  0  0
  144.9692  157.3893  133.3673 H   0  0  0  0  0  0  0  0  0  0  0  0
  1  2  1  0
  2  3  2  0
  2  4  1  0
  4  5  2  0
  5  6  1  0
  6  7  2  0
  7  8  1  0
  8  9  2  0
  9 10  1  0
 10 11  2  0
 11 12  1  0
 12 13  2  0
 13 14  1  0
 14 15  1  0
 15 16  2  0
 14 17  2  0
  9 18  1  0
 18 19  2  0
 19 20  1  0
 20 21  1  0
 21 22  2  0
 21 23  1  0
 20  4  1  0
 19  6  1  0
 17 10  1  0
  1 24  1  0
  5 25  1  0
  7 26  1  0
  8 27  1  0
 11 28  1  0
 12 29  1  0
 13 30  1  0
 15 31  1  0
 17 32  1  0
 18 33  1  0
M  CHG  2   1  -1  23  -1
M  END
>  <UniqueID>  (39) 
39

>  <SMILES>  (39) 
[NH-]C(=O)c1cc2ccc(-c3cccc(C=O)c3)cc2n1C(=O)[O-]

>  <Energy>  (39) 
81.09808998292301

>  <Genealogy>  (39) 
[NH-]C(=O)c1cc2ccc(-c3cccc(C=O)c3)cc2n1C(=O)[O-] (protonated)
[NH-]C(=O)c1cc2ccc(-c3cccc(C=O)c3)cc2n1C(=O)[O-] (3D coordinates assigned)
[NH-]C(=O)c1cc2ccc(-c3cccc(C=O)c3)cc2n1C(=O)[O-] (optimized conformer: 81.09808998292301 kcal/mol)

>  <smiles>  (39) 
NC(=O)c1cc2ccc(-c3cccc(C=O)c3)cc2n1C(=O)O

>  <score_type>  (39) 
oracle

>  <origin>  (39) 
adg

>  <m_score__min__energy>  (39) 
-8.0399999999999991

>  <m_primary>  (39) 
energy

$$$$
39:0
     RDKit          3D

 33 34  0  0  0  0  0  0  0  0999 V2000
  145.5870  162.6970  134.5040 C   0  0  0  0  0  0  0  0  0  0  0  0
  144.4750  161.9600  133.8270 C   0  0  0  0  0  0  0  0  0  0  0  0
  143.4980  162.6070  133.3650 O   0  0  0  0  0  0  0  0  0  0  0  0
  144.4730  160.5250  133.7680 N   0  0  0  0  0  0  0  0  0  0  0  0
  143.4300  159.6750  133.9860 C   0  0  0  0  0  0  0  0  0  0  0  0
  142.0930  160.0550  134.4880 C   0  0  0  0  0  0  0  0  0  0  0  0
  141.2060  160.8350  133.6930 N   0  0  0  0  0  0  0  0  0  0  0  0
  141.7450  159.7180  135.6510 O   0  0  0  0  0  0  0  0  0  0  0  0
  143.8170  158.3590  133.7460 C   0  0  0  0  0  0  0  0  0  0  0  0
  145.1430  158.4290  133.3820 C   0  0  0  0  0  0  0  0  0  0  0  0
  146.0310  157.4180  133.0270 C   0  0  0  0  0  0  0  0  0  0  0  0
  147.3410  157.7860  132.6770 C   0  0  0  0  0  0  0  0  0  0  0  0
  147.7420  159.1490  132.6840 C   0  0  0  0  0  0  0  0  0  0  0  0
  149.1540  159.5480  132.2980 C   0  0  0  0  0  0  0  0  0  0  0  0
  149.1440  160.6310  131.2120 C   0  0  0  0  0  0  0  0  0  0  0  0
  149.9710  158.3290  131.8550 C   0  0  0  0  0  0  0  0  0  0  0  0
  146.8060  160.1450  133.0500 C   0  0  0  0  0  0  0  0  0  0  0  0
  145.5140  159.7470  133.4050 C   0  0  0  0  0  0  0  0  0  0  0  0
  145.4683  162.6184  135.5947 H   0  0  0  0  0  0  0  0  0  0  0  0
  146.5513  162.2586  134.2075 H   0  0  0  0  0  0  0  0  0  0  0  0
  145.5590  163.7559  134.2075 H   0  0  0  0  0  0  0  0  0  0  0  0
  141.5300  161.7140  133.2300 H   0  0  0  0  0  0  0  0  0  0  0  0
  143.1953  157.4554  133.8295 H   0  0  0  0  0  0  0  0  0  0  0  0
  145.7171  156.3638  133.0206 H   0  0  0  0  0  0  0  0  0  0  0  0
  148.0658  157.0085  132.3938 H   0  0  0  0  0  0  0  0  0  0  0  0
  149.6394  159.9709  133.1899 H   0  0  0  0  0  0  0  0  0  0  0  0
  149.1348  161.6242  131.6847 H   0  0  0  0  0  0  0  0  0  0  0  0
  150.0431  160.5311  130.5862 H   0  0  0  0  0  0  0  0  0  0  0  0
  148.2469  160.5145  130.5862 H   0  0  0  0  0  0  0  0  0  0  0  0
  150.3333  157.7884  132.7419 H   0  0  0  0  0  0  0  0  0  0  0  0
  149.3369  157.6619  131.2526 H   0  0  0  0  0  0  0  0  0  0  0  0
  150.8291  158.6619  131.2526 H   0  0  0  0  0  0  0  0  0  0  0  0
  147.0886  161.2081  133.0550 H   0  0  0  0  0  0  0  0  0  0  0  0
  1  2  1  0
  2  3  2  0
  2  4  1  0
  4  5  1  0
  5  6  1  0
  6  7  1  0
  6  8  2  0
  5  9  2  0
  9 10  1  0
 10 11  2  0
 11 12  1  0
 12 13  2  0
 13 14  1  0
 14 15  1  0
 14 16  1  0
 13 17  1  0
 17 18  2  0
 18  4  1  0
 18 10  1  0
  1 19  1  0
  1 20  1  0
  1 21  1  0
  7 22  1  0
  9 23  1  0
 11 24  1  0
 12 25  1  0
 14 26  1  0
 15 27  1  0
 15 28  1  0
 15 29  1  0
 16 30  1  0
 16 31  1  0
 16 32  1  0
 17 33  1  0
M  CHG  1   7  -1
M  END
>  <UniqueID>  (40) 
40

>  <SMILES>  (40) 
CC(=O)n1c(C([NH-])=O)cc2ccc(C(C)C)cc21

>  <Energy>  (40) 
68.60437574521244

>  <Genealogy>  (40) 
CC(=O)n1c(C([NH-])=O)cc2ccc(C(C)C)cc21 (protonated)
CC(=O)n1c(C([NH-])=O)cc2ccc(C(C)C)cc21 (3D coordinates assigned)
CC(=O)n1c(C([NH-])=O)cc2ccc(C(C)C)cc21 (optimized conformer: 68.60437574521244 kcal/mol)

>  <smiles>  (40) 
CC(=O)n1c(C(N)=O)cc2ccc(C(C)C)cc21

>  <score_type>  (40) 
oracle

>  <origin>  (40) 
adg

>  <m_score__min__energy>  (40) 
-6.7400000000000002

>  <m_primary>  (40) 
energy

$$$$
40:0
     RDKit          3D

 38 40  0  0  0  0  0  0  0  0999 V2000
  140.8280  154.5000  133.3320 C   0  0  0  0  0  0  0  0  0  0  0  0
  140.9590  155.8990  133.7180 N   0  0  0  0  0  0  0  0  0  0  0  0
  142.1680  156.6340  133.4960 C   0  0  0  0  0  0  0  0  0  0  0  0
  143.1810  156.0580  133.0140 O   0  0  0  0  0  0  0  0  0  0  0  0
  142.2290  158.0340  133.8140 N   0  0  0  0  0  0  0  0  0  0  0  0
  141.2510  158.8090  134.3620 C   0  0  0  0  0  0  0  0  0  0  0  0
  139.8650  158.3790  134.6450 C   0  0  0  0  0  0  0  0  0  0  0  0
  139.4380  158.2040  135.9940 N   0  0  0  0  0  0  0  0  0  0  0  0
  139.0440  158.1890  133.7090 O   0  0  0  0  0  0  0  0  0  0  0  0
  141.7150  160.1060  134.5690 C   0  0  0  0  0  0  0  0  0  0  0  0
  143.0190  160.1010  134.1260 C   0  0  0  0  0  0  0  0  0  0  0  0
  143.9630  161.1230  134.1090 C   0  0  0  0  0  0  0  0  0  0  0  0
  145.2470  160.8260  133.6230 C   0  0  0  0  0  0  0  0  0  0  0  0
  145.5700  159.5180  133.1710 C   0  0  0  0  0  0  0  0  0  0  0  0
  146.9340  159.2130  132.6720 C   0  0  0  0  0  0  0  0  0  0  0  0
  147.5890  158.0300  133.0540 C   0  0  0  0  0  0  0  0  0  0  0  0
  148.8710  157.7610  132.5700 C   0  0  0  0  0  0  0  0  0  0  0  0
  149.4830  158.6390  131.7340 N   0  0  0  0  0  0  0  0  0  0  0  0
  148.8830  159.7970  131.3460 C   0  0  0  0  0  0  0  0  0  0  0  0
  149.5900  160.7250  130.4090 C   0  0  0  0  0  0  0  0  0  0  0  0
  147.5950  160.1010  131.8060 C   0  0  0  0  0  0  0  0  0  0  0  0
  144.5800  158.5070  133.2080 C   0  0  0  0  0  0  0  0  0  0  0  0
  143.3050  158.8380  133.6780 C   0  0  0  0  0  0  0  0  0  0  0  0
  140.7694  153.8744  134.2349 H   0  0  0  0  0  0  0  0  0  0  0  0
  139.9136  154.3685  132.7348 H   0  0  0  0  0  0  0  0  0  0  0  0
  141.7021  154.2010  132.7348 H   0  0  0  0  0  0  0  0  0  0  0  0
  140.1520  156.3710  134.1850 H   0  0  0  0  0  0  0  0  0  0  0  0
  139.1230  159.0170  136.5680 H   0  0  0  0  0  0  0  0  0  0  0  0
  141.1585  160.9536  134.9954 H   0  0  0  0  0  0  0  0  0  0  0  0
  143.7115  162.1328  134.4653 H   0  0  0  0  0  0  0  0  0  0  0  0
  146.0121  161.6158  133.5919 H   0  0  0  0  0  0  0  0  0  0  0  0
  147.0940  157.3187  133.7315 H   0  0  0  0  0  0  0  0  0  0  0  0
  149.3864  156.8356  132.8667 H   0  0  0  0  0  0  0  0  0  0  0  0
  150.1568  161.4690  130.9880 H   0  0  0  0  0  0  0  0  0  0  0  0
  150.2809  160.1498  129.7751 H   0  0  0  0  0  0  0  0  0  0  0  0
  148.8520  161.2384  129.7751 H   0  0  0  0  0  0  0  0  0  0  0  0
  147.1023  161.0324  131.4902 H   0  0  0  0  0  0  0  0  0  0  0  0
  144.8083  157.4839  132.8746 H   0  0  0  0  0  0  0  0  0  0  0  0
  1  2  1  0
  2  3  1  0
  3  4  2  0
  3  5  1  0
  5  6  1  0
  6  7  1  0
  7  8  1  0
  7  9  2  0
  6 10  2  0
 10 11  1  0
 11 12  2  0
 12 13  1  0
 13 14  2  0
 14 15  1  0
 15 16  2  0
 16 17  1  0
 17 18  2  0
 18 19  1  0
 19 20  1  0
 19 21  2  0
 14 22  1  0
 22 23  2  0
 23  5  1  0
 23 11  1  0
 21 15  1  0
  1 24  1  0
  1 25  1  0
  1 26  1  0
  2 27  1  0
  8 28  1  0
 10 29  1  0
 12 30  1  0
 13 31  1  0
 16 32  1  0
 17 33  1  0
 20 34  1  0
 20 35  1  0
 20 36  1  0
 21 37  1  0
 22 38  1  0
M  CHG  1   8  -1
M  END
>  <UniqueID>  (41) 
41

>  <SMILES>  (41) 
CNC(=O)n1c(C([NH-])=O)cc2ccc(-c3ccnc(C)c3)cc21

>  <Energy>  (41) 
81.14432912735126

>  <Genealogy>  (41) 
CNC(=O)n1c(C([NH-])=O)cc2ccc(-c3ccnc(C)c3)cc21 (protonated)
CNC(=O)n1c(C([NH-])=O)cc2ccc(-c3ccnc(C)c3)cc21 (3D coordinates assigned)
CNC(=O)n1c(C([NH-])=O)cc2ccc(-c3ccnc(C)c3)cc21 (optimized conformer: 81.14432912735126 kcal/mol)

>  <smiles>  (41) 
CNC(=O)n1c(C(N)=O)cc2ccc(-c3ccnc(C)c3)cc21

>  <score_type>  (41) 
oracle

>  <origin>  (41) 
adg

>  <m_score__min__energy>  (41) 
-8.0399999999999991

>  <m_primary>  (41) 
energy

$$$$
41:0
     RDKit          3D

 46 49  0  0  0  0  0  0  0  0999 V2000
  139.4740  158.0530  136.1150 N   0  0  0  0  0  0  0  0  0  0  0  0
  140.8500  158.3930  136.2660 C   0  0  0  0  0  0  0  0  0  0  0  0
  141.1700  159.3490  137.0180 O   0  0  0  0  0  0  0  0  0  0  0  0
  141.8850  157.6060  135.5690 C   0  0  0  0  0  0  0  0  0  0  0  0
  142.2280  156.2960  135.9050 C   0  0  0  0  0  0  0  0  0  0  0  0
  143.2810  155.9720  135.0770 C   0  0  0  0  0  0  0  0  0  0  0  0
  144.0350  154.8040  134.9950 C   0  0  0  0  0  0  0  0  0  0  0  0
  145.0790  154.7590  134.0550 C   0  0  0  0  0  0  0  0  0  0  0  0
  145.3410  155.8690  133.2100 C   0  0  0  0  0  0  0  0  0  0  0  0
  146.4440  155.8290  132.2780 N   0  0  0  0  0  0  0  0  0  0  0  0
  147.7160  156.1580  132.9430 C   0  0  0  0  0  0  0  0  0  0  0  0
  148.1180  157.5950  132.7060 C   0  0  0  0  0  0  0  0  0  0  0  0
  149.2080  157.8980  131.8760 C   0  0  0  0  0  0  0  0  0  0  0  0
  149.5290  159.2330  131.6200 C   0  0  0  0  0  0  0  0  0  0  0  0
  148.7860  160.2300  132.1700 N   0  0  0  0  0  0  0  0  0  0  0  0
  147.7210  159.9660  132.9720 C   0  0  0  0  0  0  0  0  0  0  0  0
  147.3660  158.6450  133.2540 C   0  0  0  0  0  0  0  0  0  0  0  0
  144.5510  157.0360  133.3250 C   0  0  0  0  0  0  0  0  0  0  0  0
  143.5350  157.0570  134.2820 C   0  0  0  0  0  0  0  0  0  0  0  0
  142.6880  158.0640  134.5690 N   0  0  0  0  0  0  0  0  0  0  0  0
  142.6620  159.3470  133.9300 C   0  0  0  0  0  0  0  0  0  0  0  0
  143.6890  159.7580  133.3270 O   0  0  0  0  0  0  0  0  0  0  0  0
  141.3800  160.1250  133.8510 C   0  0  0  0  0  0  0  0  0  0  0  0
  140.4310  159.4890  132.9390 N   0  0  0  0  0  0  0  0  0  0  0  0
  139.6240  160.0980  132.0540 C   0  0  0  0  0  0  0  0  0  0  0  0
  138.8980  159.1250  131.4050 C   0  0  0  0  0  0  0  0  0  0  0  0
  139.2420  157.9100  131.8810 N   0  0  0  0  0  0  0  0  0  0  0  0
  140.1780  158.1710  132.8190 C   0  0  0  0  0  0  0  0  0  0  0  0
  138.7280  158.6220  136.5720 H   0  0  0  0  0  0  0  0  0  0  0  0
  141.7582  155.6579  136.6680 H   0  0  0  0  0  0  0  0  0  0  0  0
  143.8202  153.9435  135.6456 H   0  0  0  0  0  0  0  0  0  0  0  0
  145.6994  153.8543  133.9733 H   0  0  0  0  0  0  0  0  0  0  0  0
  146.2730  156.4870  131.4820 H   0  0  0  0  0  0  0  0  0  0  0  0
  146.5170  154.8680  131.8730 H   0  0  0  0  0  0  0  0  0  0  0  0
  147.6052  155.9931  134.0249 H   0  0  0  0  0  0  0  0  0  0  0  0
  148.4992  155.5101  132.5224 H   0  0  0  0  0  0  0  0  0  0  0  0
  149.8057  157.0895  131.4299 H   0  0  0  0  0  0  0  0  0  0  0  0
  150.3839  159.4781  130.9727 H   0  0  0  0  0  0  0  0  0  0  0  0
  147.1374  160.7945  133.3999 H   0  0  0  0  0  0  0  0  0  0  0  0
  146.5030  158.4294  133.9011 H   0  0  0  0  0  0  0  0  0  0  0  0
  144.7325  157.9057  132.6764 H   0  0  0  0  0  0  0  0  0  0  0  0
  140.9316  160.1805  134.8539 H   0  0  0  0  0  0  0  0  0  0  0  0
  141.6066  161.1321  133.4711 H   0  0  0  0  0  0  0  0  0  0  0  0
  139.5556  161.1819  131.8791 H   0  0  0  0  0  0  0  0  0  0  0  0
  138.1515  159.3097  130.6185 H   0  0  0  0  0  0  0  0  0  0  0  0
  140.6775  157.3950  133.4176 H   0  0  0  0  0  0  0  0  0  0  0  0
  1  2  1  0
  2  3  2  0
  2  4  1  0
  4  5  2  0
  5  6  1  0
  6  7  2  0
  7  8  1  0
  8  9  2  0
  9 10  1  0
 10 11  1  0
 11 12  1  0
 12 13  2  0
 13 14  1  0
 14 15  2  0
 15 16  1  0
 16 17  2  0
  9 18  1  0
 18 19  2  0
 19 20  1  0
 20 21  1  0
 21 22  2  0
 21 23  1  0
 23 24  1  0
 24 25  1  0
 25 26  2  0
 26 27  1  0
 27 28  2  0
 20  4  1  0
 28 24  1  0
 19  6  1  0
 17 12  1  0
  1 29  1  0
  5 30  1  0
  7 31  1  0
  8 32  1  0
 10 33  1  0
 10 34  1  0
 11 35  1  0
 11 36  1  0
 13 37  1  0
 14 38  1  0
 16 39  1  0
 17 40  1  0
 18 41  1  0
 23 42  1  0
 23 43  1  0
 25 44  1  0
 26 45  1  0
 28 46  1  0
M  CHG  2   1  -1  10   1
M  END
>  <UniqueID>  (42) 
42

>  <SMILES>  (42) 
[NH-]C(=O)c1cc2ccc([NH2+]Cc3ccncc3)cc2n1C(=O)Cn1ccnc1

>  <Energy>  (42) 
118.98873901047577

>  <Genealogy>  (42) 
[NH-]C(=O)c1cc2ccc([NH2+]Cc3ccncc3)cc2n1C(=O)Cn1ccnc1 (protonated)
[NH-]C(=O)c1cc2ccc([NH2+]Cc3ccncc3)cc2n1C(=O)Cn1ccnc1 (3D coordinates assigned)
[NH-]C(=O)c1cc2ccc([NH2+]Cc3ccncc3)cc2n1C(=O)Cn1ccnc1 (optimized conformer: 118.98873901047577 kcal/mol)

>  <smiles>  (42) 
NC(=O)c1cc2ccc(NCc3ccncc3)cc2n1C(=O)Cn1ccnc1

>  <score_type>  (42) 
oracle

>  <origin>  (42) 
adg

>  <m_score__min__energy>  (42) 
-9.2400000000000002

>  <m_primary>  (42) 
energy

$$$$
42:0
     RDKit          3D

 28 29  0  0  0  0  0  0  0  0999 V2000
  145.2050  160.6860  133.7750 C   0  0  0  0  0  0  0  0  0  0  0  0
  145.3650  159.3590  133.1060 C   0  0  0  0  0  0  0  0  0  0  0  0
  144.3460  158.7700  132.6580 O   0  0  0  0  0  0  0  0  0  0  0  0
  146.6580  158.7390  132.9830 N   0  0  0  0  0  0  0  0  0  0  0  0
  147.0010  157.4760  133.3590 C   0  0  0  0  0  0  0  0  0  0  0  0
  146.1420  156.5330  134.1050 C   0  0  0  0  0  0  0  0  0  0  0  0
  144.8630  156.1400  133.6070 N   0  0  0  0  0  0  0  0  0  0  0  0
  146.5260  156.1040  135.2250 O   0  0  0  0  0  0  0  0  0  0  0  0
  148.3010  157.1790  132.9590 C   0  0  0  0  0  0  0  0  0  0  0  0
  148.7530  158.3130  132.3240 C   0  0  0  0  0  0  0  0  0  0  0  0
  149.9720  158.5620  131.6990 C   0  0  0  0  0  0  0  0  0  0  0  0
  150.1480  159.8050  131.0700 C   0  0  0  0  0  0  0  0  0  0  0  0
  149.1110  160.7700  131.0770 C   0  0  0  0  0  0  0  0  0  0  0  0
  149.2900  162.0690  130.3520 C   0  0  0  0  0  0  0  0  0  0  0  0
  147.8810  160.4750  131.7030 C   0  0  0  0  0  0  0  0  0  0  0  0
  147.7410  159.2400  132.3460 C   0  0  0  0  0  0  0  0  0  0  0  0
  145.2213  160.5507  134.8665 H   0  0  0  0  0  0  0  0  0  0  0  0
  146.0297  161.3495  133.4754 H   0  0  0  0  0  0  0  0  0  0  0  0
  144.2463  161.1344  133.4754 H   0  0  0  0  0  0  0  0  0  0  0  0
  144.2960  155.4320  134.1240 H   0  0  0  0  0  0  0  0  0  0  0  0
  144.4320  156.6170  132.7850 H   0  0  0  0  0  0  0  0  0  0  0  0
  148.8496  156.2387  133.1168 H   0  0  0  0  0  0  0  0  0  0  0  0
  150.7728  157.8079  131.6980 H   0  0  0  0  0  0  0  0  0  0  0  0
  151.0998  160.0315  130.5672 H   0  0  0  0  0  0  0  0  0  0  0  0
  149.4023  162.8840  131.0822 H   0  0  0  0  0  0  0  0  0  0  0  0
  150.1893  162.0157  129.7208 H   0  0  0  0  0  0  0  0  0  0  0  0
  148.4098  162.2609  129.7208 H   0  0  0  0  0  0  0  0  0  0  0  0
  147.0524  161.1983  131.6859 H   0  0  0  0  0  0  0  0  0  0  0  0
  1  2  1  0
  2  3  2  0
  2  4  1  0
  4  5  1  0
  5  6  1  0
  6  7  1  0
  6  8  2  0
  5  9  2  0
  9 10  1  0
 10 11  2  0
 11 12  1  0
 12 13  2  0
 13 14  1  0
 13 15  1  0
 15 16  2  0
 16  4  1  0
 16 10  1  0
  1 17  1  0
  1 18  1  0
  1 19  1  0
  7 20  1  0
  7 21  1  0
  9 22  1  0
 11 23  1  0
 12 24  1  0
 14 25  1  0
 14 26  1  0
 14 27  1  0
 15 28  1  0
M  END
>  <UniqueID>  (43) 
43

>  <SMILES>  (43) 
CC(=O)n1c(C(N)=O)cc2ccc(C)cc21

>  <Energy>  (43) 
66.78735396278421

>  <Genealogy>  (43) 
CC(=O)n1c(C(N)=O)cc2ccc(C)cc21 (3D coordinates assigned)
CC(=O)n1c(C(N)=O)cc2ccc(C)cc21 (optimized conformer: 66.78735396278421 kcal/mol)

>  <smiles>  (43) 
CC(=O)n1c(C(N)=O)cc2ccc(C)cc21

>  <score_type>  (43) 
oracle

>  <origin>  (43) 
adg

>  <m_score__min__energy>  (43) 
-5.9900000000000002

>  <m_primary>  (43) 
energy

$$$$
43:0
     RDKit          3D

 65 68  0  0  0  0  0  0  0  0999 V2000
  140.9150  158.8200  133.4170 C   0  0  0  0  0  0  0  0  0  0  0  0
  142.0910  159.6980  133.8700 C   0  0  0  0  0  0  0  0  0  0  0  0
  142.4310  159.3590  135.3340 C   0  0  0  0  0  0  0  0  0  0  0  0
  141.6900  161.1790  133.7340 C   0  0  0  0  0  0  0  0  0  0  0  0
  143.2010  159.3930  133.0130 O   0  0  0  0  0  0  0  0  0  0  0  0
  144.5560  159.6370  133.2880 C   0  0  0  0  0  0  0  0  0  0  0  0
  144.9690  160.8040  133.5250 O   0  0  0  0  0  0  0  0  0  0  0  0
  145.4780  158.5360  133.3220 N   0  0  0  0  0  0  0  0  0  0  0  0
  146.7880  158.5350  132.9460 C   0  0  0  0  0  0  0  0  0  0  0  0
  147.5820  159.7230  132.5670 C   0  0  0  0  0  0  0  0  0  0  0  0
  147.5940  160.8680  133.4160 N   0  0  0  0  0  0  0  0  0  0  0  0
  148.2210  159.7530  131.4820 O   0  0  0  0  0  0  0  0  0  0  0  0
  147.3250  157.2540  133.0470 C   0  0  0  0  0  0  0  0  0  0  0  0
  146.2970  156.4630  133.5070 C   0  0  0  0  0  0  0  0  0  0  0  0
  146.2740  155.1020  133.7860 C   0  0  0  0  0  0  0  0  0  0  0  0
  145.0660  154.5400  134.2300 C   0  0  0  0  0  0  0  0  0  0  0  0
  143.8980  155.3390  134.3720 C   0  0  0  0  0  0  0  0  0  0  0  0
  142.5920  154.7500  134.8850 C   0  0  0  0  0  0  0  0  0  0  0  0
  142.8150  153.3400  135.4810 C   0  0  0  0  0  0  0  0  0  0  0  0
  142.7960  152.2330  134.4170 C   0  0  0  0  0  0  0  0  0  0  0  0
  141.6640  152.3810  133.4890 N   0  0  0  0  0  0  0  0  0  0  0  0
  141.4760  151.4070  132.4470 C   0  0  0  0  0  0  0  0  0  0  0  0
  142.3330  150.4970  132.2730 O   0  0  0  0  0  0  0  0  0  0  0  0
  140.3430  151.4670  131.6250 O   0  0  0  0  0  0  0  0  0  0  0  0
  139.1550  150.7160  131.8700 C   0  0  0  0  0  0  0  0  0  0  0  0
  139.1810  149.4300  131.0920 C   0  0  0  0  0  0  0  0  0  0  0  0
  140.0280  148.3770  131.4750 C   0  0  0  0  0  0  0  0  0  0  0  0
  140.0600  147.1930  130.7320 C   0  0  0  0  0  0  0  0  0  0  0  0
  139.2500  147.0530  129.6000 C   0  0  0  0  0  0  0  0  0  0  0  0
  138.4080  148.0990  129.2110 C   0  0  0  0  0  0  0  0  0  0  0  0
  138.3740  149.2850  129.9520 C   0  0  0  0  0  0  0  0  0  0  0  0
  140.7050  153.4780  133.6750 C   0  0  0  0  0  0  0  0  0  0  0  0
  141.4520  154.8080  133.8270 C   0  0  0  0  0  0  0  0  0  0  0  0
  143.9710  156.7240  134.0850 C   0  0  0  0  0  0  0  0  0  0  0  0
  145.1930  157.2590  133.6630 C   0  0  0  0  0  0  0  0  0  0  0  0
  140.3892  158.4274  134.2998 H   0  0  0  0  0  0  0  0  0  0  0  0
  140.2195  159.4216  132.8134 H   0  0  0  0  0  0  0  0  0  0  0  0
  141.2941  157.9822  132.8134 H   0  0  0  0  0  0  0  0  0  0  0  0
  141.8141  159.9741  136.0056 H   0  0  0  0  0  0  0  0  0  0  0  0
  142.2267  158.2944  135.5208 H   0  0  0  0  0  0  0  0  0  0  0  0
  143.4950  159.5664  135.5208 H   0  0  0  0  0  0  0  0  0  0  0  0
  141.5706  161.6199  134.7347 H   0  0  0  0  0  0  0  0  0  0  0  0
  142.4734  161.7221  133.1851 H   0  0  0  0  0  0  0  0  0  0  0  0
  140.7396  161.2526  133.1851 H   0  0  0  0  0  0  0  0  0  0  0  0
  146.9280  161.6570  133.2640 H   0  0  0  0  0  0  0  0  0  0  0  0
  148.3524  156.9410  132.8096 H   0  0  0  0  0  0  0  0  0  0  0  0
  147.1751  154.4832  133.6628 H   0  0  0  0  0  0  0  0  0  0  0  0
  145.0226  153.4676  134.4711 H   0  0  0  0  0  0  0  0  0  0  0  0
  142.2394  155.3864  135.7101 H   0  0  0  0  0  0  0  0  0  0  0  0
  143.7911  153.3233  135.9878 H   0  0  0  0  0  0  0  0  0  0  0  0
  141.9885  153.1417  136.1792 H   0  0  0  0  0  0  0  0  0  0  0  0
  143.7336  152.2755  133.8433 H   0  0  0  0  0  0  0  0  0  0  0  0
  142.6890  151.2673  134.9328 H   0  0  0  0  0  0  0  0  0  0  0  0
  139.0842  150.4890  132.9440 H   0  0  0  0  0  0  0  0  0  0  0  0
  138.2848  151.3090  131.5520 H   0  0  0  0  0  0  0  0  0  0  0  0
  140.6685  148.4842  132.3628 H   0  0  0  0  0  0  0  0  0  0  0  0
  140.7231  146.3704  131.0380 H   0  0  0  0  0  0  0  0  0  0  0  0
  139.2756  146.1208  129.0166 H   0  0  0  0  0  0  0  0  0  0  0  0
  137.7712  147.9892  128.3208 H   0  0  0  0  0  0  0  0  0  0  0  0
  137.7127  150.1070  129.6405 H   0  0  0  0  0  0  0  0  0  0  0  0
  140.0394  153.5320  132.8009 H   0  0  0  0  0  0  0  0  0  0  0  0
  140.1138  153.2903  134.5834 H   0  0  0  0  0  0  0  0  0  0  0  0
  141.8902  155.0766  132.8545 H   0  0  0  0  0  0  0  0  0  0  0  0
  140.7229  155.5565  134.1708 H   0  0  0  0  0  0  0  0  0  0  0  0
  143.0845  157.3664  134.1918 H   0  0  0  0  0  0  0  0  0  0  0  0
  1  2  1  0
  2  3  1  0
  2  4  1  0
  2  5  1  0
  5  6  1  0
  6  7  2  0
  6  8  1  0
  8  9  1  0
  9 10  1  0
 10 11  1  0
 10 12  2  0
  9 13  2  0
 13 14  1  0
 14 15  2  0
 15 16  1  0
 16 17  2  0
 17 18  1  0
 18 19  1  0
 19 20  1  0
 20 21  1  0
 21 22  1  0
 22 23  2  0
 22 24  1  0
 24 25  1  0
 25 26  1  0
 26 27  2  0
 27 28  1  0
 28 29  2  0
 29 30  1  0
 30 31  2  0
 21 32  1  0
 32 33  1  0
 17 34  1  0
 34 35  2  0
 35  8  1  0
 35 14  1  0
 33 18  1  0
 31 26  1  0
  1 36  1  0
  1 37  1  0
  1 38  1  0
  3 39  1  0
  3 40  1  0
  3 41  1  0
  4 42  1  0
  4 43  1  0
  4 44  1  0
 11 45  1  0
 13 46  1  0
 15 47  1  0
 16 48  1  0
 18 49  1  0
 19 50  1  0
 19 51  1  0
 20 52  1  0
 20 53  1  0
 25 54  1  0
 25 55  1  0
 27 56  1  0
 28 57  1  0
 29 58  1  0
 30 59  1  0
 31 60  1  0
 32 61  1  0
 32 62  1  0
 33 63  1  0
 33 64  1  0
 34 65  1  0
M  CHG  1  11  -1
M  END
>  <UniqueID>  (44) 
44

>  <SMILES>  (44) 
CC(C)(C)OC(=O)n1c(C([NH-])=O)cc2ccc(C3CCN(C(=O)OCc4ccccc4)CC3)cc21

>  <Energy>  (44) 
103.56047822470488

>  <Genealogy>  (44) 
CC(C)(C)OC(=O)n1c(C([NH-])=O)cc2ccc(C3CCN(C(=O)OCc4ccccc4)CC3)cc21 (protonated)
CC(C)(C)OC(=O)n1c(C([NH-])=O)cc2ccc(C3CCN(C(=O)OCc4ccccc4)CC3)cc21 (3D coordinates assigned)
CC(C)(C)OC(=O)n1c(C([NH-])=O)cc2ccc(C3CCN(C(=O)OCc4ccccc4)CC3)cc21 (nonaromatic ring conformer: 103.56047822470488 kcal/mol)

>  <smiles>  (44) 
CC(C)(C)OC(=O)n1c(C(N)=O)cc2ccc(C3CCN(C(=O)OCc4ccccc4)CC3)cc21

>  <score_type>  (44) 
oracle

>  <origin>  (44) 
adg

>  <m_score__min__energy>  (44) 
-10.09

>  <m_primary>  (44) 
energy

$$$$
44:0
     RDKit          3D

 35 37  0  0  0  0  0  0  0  0999 V2000
  138.4780  157.8790  131.2400 N   0  0  0  0  0  0  0  0  0  0  0  0
  139.6210  158.5600  131.7570 C   0  0  0  0  0  0  0  0  0  0  0  0
  140.3230  159.2620  130.9810 O   0  0  0  0  0  0  0  0  0  0  0  0
  140.0270  158.4170  133.1700 C   0  0  0  0  0  0  0  0  0  0  0  0
  140.2800  159.4970  134.0140 C   0  0  0  0  0  0  0  0  0  0  0  0
  140.6390  158.9380  135.2190 C   0  0  0  0  0  0  0  0  0  0  0  0
  140.9760  159.5490  136.4250 C   0  0  0  0  0  0  0  0  0  0  0  0
  141.2600  158.7220  137.5240 C   0  0  0  0  0  0  0  0  0  0  0  0
  141.1940  157.3110  137.4050 C   0  0  0  0  0  0  0  0  0  0  0  0
  141.4850  156.4460  138.5980 C   0  0  0  0  0  0  0  0  0  0  0  0
  141.7070  157.2400  139.7070 F   0  0  0  0  0  0  0  0  0  0  0  0
  140.4100  155.6110  138.8400 F   0  0  0  0  0  0  0  0  0  0  0  0
  140.8420  156.7280  136.1680 C   0  0  0  0  0  0  0  0  0  0  0  0
  140.5880  157.5750  135.0830 C   0  0  0  0  0  0  0  0  0  0  0  0
  140.2200  157.2400  133.8270 N   0  0  0  0  0  0  0  0  0  0  0  0
  139.9230  155.9180  133.3470 C   0  0  0  0  0  0  0  0  0  0  0  0
  138.7460  155.6480  132.9810 O   0  0  0  0  0  0  0  0  0  0  0  0
  140.9680  154.8690  133.2800 C   0  0  0  0  0  0  0  0  0  0  0  0
  140.5960  153.5210  133.1260 C   0  0  0  0  0  0  0  0  0  0  0  0
  141.5680  152.5190  133.0700 C   0  0  0  0  0  0  0  0  0  0  0  0
  142.9210  152.8490  133.1580 C   0  0  0  0  0  0  0  0  0  0  0  0
  143.8630  151.8760  133.1020 F   0  0  0  0  0  0  0  0  0  0  0  0
  143.3060  154.1850  133.2960 C   0  0  0  0  0  0  0  0  0  0  0  0
  142.3390  155.1950  133.3520 C   0  0  0  0  0  0  0  0  0  0  0  0
  142.7490  156.4850  133.4480 F   0  0  0  0  0  0  0  0  0  0  0  0
  137.9880  157.1430  131.7940 H   0  0  0  0  0  0  0  0  0  0  0  0
  138.1770  158.0390  130.2520 H   0  0  0  0  0  0  0  0  0  0  0  0
  140.2081  160.5670  133.7692 H   0  0  0  0  0  0  0  0  0  0  0  0
  141.0183  160.6446  136.5136 H   0  0  0  0  0  0  0  0  0  0  0  0
  141.5367  159.1742  138.4878 H   0  0  0  0  0  0  0  0  0  0  0  0
  142.3815  155.8416  138.3953 H   0  0  0  0  0  0  0  0  0  0  0  0
  140.7692  155.6358  136.0598 H   0  0  0  0  0  0  0  0  0  0  0  0
  139.5317  153.2539  133.0491 H   0  0  0  0  0  0  0  0  0  0  0  0
  141.2660  151.4674  132.9563 H   0  0  0  0  0  0  0  0  0  0  0  0
  144.3731  154.4439  133.3609 H   0  0  0  0  0  0  0  0  0  0  0  0
  1  2  1  0
  2  3  2  0
  2  4  1  0
  4  5  2  0
  5  6  1  0
  6  7  2  0
  7  8  1  0
  8  9  2  0
  9 10  1  0
 10 11  1  0
 10 12  1  0
  9 13  1  0
 13 14  2  0
 14 15  1  0
 15 16  1  0
 16 17  2  0
 16 18  1  0
 18 19  2  0
 19 20  1  0
 20 21  2  0
 21 22  1  0
 21 23  1  0
 23 24  2  0
 24 25  1  0
 15  4  1  0
 24 18  1  0
 14  6  1  0
  1 26  1  0
  1 27  1  0
  5 28  1  0
  7 29  1  0
  8 30  1  0
 10 31  1  0
 13 32  1  0
 19 33  1  0
 20 34  1  0
 23 35  1  0
M  END
>  <UniqueID>  (45) 
45

>  <SMILES>  (45) 
NC(=O)c1cc2ccc(C(F)F)cc2n1C(=O)c1ccc(F)cc1F

>  <Energy>  (45) 
80.01918729856699

>  <Genealogy>  (45) 
NC(=O)c1cc2ccc(C(F)F)cc2n1C(=O)c1ccc(F)cc1F (3D coordinates assigned)
NC(=O)c1cc2ccc(C(F)F)cc2n1C(=O)c1ccc(F)cc1F (optimized conformer: 80.01918729856699 kcal/mol)

>  <smiles>  (45) 
NC(=O)c1cc2ccc(C(F)F)cc2n1C(=O)c1ccc(F)cc1F

>  <score_type>  (45) 
oracle

>  <origin>  (45) 
adg

>  <m_score__min__energy>  (45) 
-7.79

>  <m_primary>  (45) 
energy

$$$$
45:0
     RDKit          3D

 23 24  0  0  0  0  0  0  0  0999 V2000
  141.5340  159.7270  132.7080 N   0  0  0  0  0  0  0  0  0  0  0  0
  142.4540  159.9760  133.7690 C   0  0  0  0  0  0  0  0  0  0  0  0
  142.0310  160.4690  134.8480 O   0  0  0  0  0  0  0  0  0  0  0  0
  143.8990  159.7190  133.5980 C   0  0  0  0  0  0  0  0  0  0  0  0
  144.8690  160.7150  133.6960 C   0  0  0  0  0  0  0  0  0  0  0  0
  146.0590  160.0970  133.3890 C   0  0  0  0  0  0  0  0  0  0  0  0
  147.3510  160.6150  133.3430 C   0  0  0  0  0  0  0  0  0  0  0  0
  148.4000  159.7380  133.0230 C   0  0  0  0  0  0  0  0  0  0  0  0
  148.1420  158.3700  132.7670 C   0  0  0  0  0  0  0  0  0  0  0  0
  149.2210  157.4860  132.4550 N   0  0  0  0  0  0  0  0  0  0  0  0
  146.8210  157.8790  132.8220 C   0  0  0  0  0  0  0  0  0  0  0  0
  145.7910  158.7780  133.1240 C   0  0  0  0  0  0  0  0  0  0  0  0
  144.4680  158.5290  133.2520 N   0  0  0  0  0  0  0  0  0  0  0  0
  143.8300  157.2470  133.1330 C   0  0  0  0  0  0  0  0  0  0  0  0
  142.7970  157.1130  132.4260 O   0  0  0  0  0  0  0  0  0  0  0  0
  144.3320  156.1470  133.8190 O   0  0  0  0  0  0  0  0  0  0  0  0
  141.7160  158.9770  132.0050 H   0  0  0  0  0  0  0  0  0  0  0  0
  144.7155  161.7712  133.9623 H   0  0  0  0  0  0  0  0  0  0  0  0
  147.5437  161.6779  133.5508 H   0  0  0  0  0  0  0  0  0  0  0  0
  149.4312  160.1174  132.9708 H   0  0  0  0  0  0  0  0  0  0  0  0
  149.9240  157.2240  133.1820 H   0  0  0  0  0  0  0  0  0  0  0  0
  149.3250  157.0860  131.4950 H   0  0  0  0  0  0  0  0  0  0  0  0
  146.6055  156.8171  132.6325 H   0  0  0  0  0  0  0  0  0  0  0  0
  1  2  1  0
  2  3  2  0
  2  4  1  0
  4  5  2  0
  5  6  1  0
  6  7  2  0
  7  8  1  0
  8  9  2  0
  9 10  1  0
  9 11  1  0
 11 12  2  0
 12 13  1  0
 13 14  1  0
 14 15  2  0
 14 16  1  0
 13  4  1  0
 12  6  1  0
  1 17  1  0
  5 18  1  0
  7 19  1  0
  8 20  1  0
 10 21  1  0
 10 22  1  0
 11 23  1  0
M  CHG  2   1  -1  16  -1
M  END
>  <UniqueID>  (46) 
46

>  <SMILES>  (46) 
[NH-]C(=O)c1cc2ccc(N)cc2n1C(=O)[O-]

>  <Energy>  (46) 
62.78916629405018

>  <Genealogy>  (46) 
[NH-]C(=O)c1cc2ccc(N)cc2n1C(=O)[O-] (protonated)
[NH-]C(=O)c1cc2ccc(N)cc2n1C(=O)[O-] (3D coordinates assigned)
[NH-]C(=O)c1cc2ccc(N)cc2n1C(=O)[O-] (optimized conformer: 62.78916629405018 kcal/mol)

>  <smiles>  (46) 
NC(=O)c1cc2ccc(N)cc2n1C(=O)O

>  <score_type>  (46) 
oracle

>  <origin>  (46) 
adg

>  <m_score__min__energy>  (46) 
-5.4500000000000002

>  <m_primary>  (46) 
energy

$$$$
46:0
     RDKit          3D

 43 45  0  0  0  0  0  0  0  0999 V2000
  147.9950  156.6600  132.5770 C   0  0  0  0  0  0  0  0  0  0  0  0
  148.3040  158.1470  132.8290 C   0  0  0  0  0  0  0  0  0  0  0  0
  149.5960  158.5650  132.1010 C   0  0  0  0  0  0  0  0  0  0  0  0
  148.4910  158.3660  134.3380 C   0  0  0  0  0  0  0  0  0  0  0  0
  147.2040  158.9720  132.4160 O   0  0  0  0  0  0  0  0  0  0  0  0
  146.6490  160.0400  133.1380 C   0  0  0  0  0  0  0  0  0  0  0  0
  147.3360  161.0590  133.4180 O   0  0  0  0  0  0  0  0  0  0  0  0
  145.2870  159.9570  133.5850 N   0  0  0  0  0  0  0  0  0  0  0  0
  144.4630  160.9840  133.9390 C   0  0  0  0  0  0  0  0  0  0  0  0
  144.8610  162.3960  134.1090 C   0  0  0  0  0  0  0  0  0  0  0  0
  145.9390  162.7550  134.9680 N   0  0  0  0  0  0  0  0  0  0  0  0
  144.2070  163.3030  133.5280 O   0  0  0  0  0  0  0  0  0  0  0  0
  143.1790  160.5120  134.2060 C   0  0  0  0  0  0  0  0  0  0  0  0
  143.2430  159.1510  134.0090 C   0  0  0  0  0  0  0  0  0  0  0  0
  142.2480  158.1840  134.1200 C   0  0  0  0  0  0  0  0  0  0  0  0
  142.5890  156.8530  133.8220 C   0  0  0  0  0  0  0  0  0  0  0  0
  143.9030  156.5220  133.4150 C   0  0  0  0  0  0  0  0  0  0  0  0
  144.2330  155.1680  133.1040 N   0  0  0  0  0  0  0  0  0  0  0  0
  144.3190  154.3160  131.9020 C   0  0  0  0  0  0  0  0  0  0  0  0
  144.7410  153.0800  132.6220 C   0  0  0  0  0  0  0  0  0  0  0  0
  146.0300  152.6700  132.3240 F   0  0  0  0  0  0  0  0  0  0  0  0
  143.7990  152.0660  132.5910 F   0  0  0  0  0  0  0  0  0  0  0  0
  144.6500  153.9520  133.8290 C   0  0  0  0  0  0  0  0  0  0  0  0
  144.8860  157.5270  133.3130 C   0  0  0  0  0  0  0  0  0  0  0  0
  144.5250  158.8410  133.6330 C   0  0  0  0  0  0  0  0  0  0  0  0
  147.8869  156.1396  133.5401 H   0  0  0  0  0  0  0  0  0  0  0  0
  147.0593  156.5717  132.0054 H   0  0  0  0  0  0  0  0  0  0  0  0
  148.8180  156.2062  132.0054 H   0  0  0  0  0  0  0  0  0  0  0  0
  150.3697  158.8153  132.8418 H   0  0  0  0  0  0  0  0  0  0  0  0
  149.9468  157.7345  131.4707 H   0  0  0  0  0  0  0  0  0  0  0  0
  149.3939  159.4436  131.4707 H   0  0  0  0  0  0  0  0  0  0  0  0
  147.8741  157.6436  134.8926 H   0  0  0  0  0  0  0  0  0  0  0  0
  149.5494  158.2224  134.6010 H   0  0  0  0  0  0  0  0  0  0  0  0
  148.1834  159.3888  134.6010 H   0  0  0  0  0  0  0  0  0  0  0  0
  146.9260  162.7450  134.6260 H   0  0  0  0  0  0  0  0  0  0  0  0
  142.3013  161.1015  134.5095 H   0  0  0  0  0  0  0  0  0  0  0  0
  141.2276  158.4526  134.4309 H   0  0  0  0  0  0  0  0  0  0  0  0
  141.8283  156.0628  133.9059 H   0  0  0  0  0  0  0  0  0  0  0  0
  143.3515  154.2017  131.3912 H   0  0  0  0  0  0  0  0  0  0  0  0
  144.9636  154.6658  131.0822 H   0  0  0  0  0  0  0  0  0  0  0  0
  143.8939  153.6051  134.5487 H   0  0  0  0  0  0  0  0  0  0  0  0
  145.5445  154.0267  134.4648 H   0  0  0  0  0  0  0  0  0  0  0  0
  145.9095  157.2852  132.9906 H   0  0  0  0  0  0  0  0  0  0  0  0
  1  2  1  0
  2  3  1  0
  2  4  1  0
  2  5  1  0
  5  6  1  0
  6  7  2  0
  6  8  1  0
  8  9  1  0
  9 10  1  0
 10 11  1  0
 10 12  2  0
  9 13  2  0
 13 14  1  0
 14 15  2  0
 15 16  1  0
 16 17  2  0
 17 18  1  0
 18 19  1  0
 19 20  1  0
 20 21  1  0
 20 22  1  0
 20 23  1  0
 17 24  1  0
 24 25  2  0
 25  8  1  0
 25 14  1  0
 23 18  1  0
  1 26  1  0
  1 27  1  0
  1 28  1  0
  3 29  1  0
  3 30  1  0
  3 31  1  0
  4 32  1  0
  4 33  1  0
  4 34  1  0
 11 35  1  0
 13 36  1  0
 15 37  1  0
 16 38  1  0
 19 39  1  0
 19 40  1  0
 23 41  1  0
 23 42  1  0
 24 43  1  0
M  CHG  1  11  -1
M  END
>  <UniqueID>  (47) 
47

>  <SMILES>  (47) 
CC(C)(C)OC(=O)n1c(C([NH-])=O)cc2ccc(N3CC(F)(F)C3)cc21

>  <Energy>  (47) 
123.05303285751468

>  <Genealogy>  (47) 
CC(C)(C)OC(=O)n1c(C([NH-])=O)cc2ccc(N3CC(F)(F)C3)cc21 (protonated)
CC(C)(C)OC(=O)n1c(C([NH-])=O)cc2ccc(N3CC(F)(F)C3)cc21 (3D coordinates assigned)
CC(C)(C)OC(=O)n1c(C([NH-])=O)cc2ccc(N3CC(F)(F)C3)cc21 (nonaromatic ring conformer: 123.05303285751468 kcal/mol)

>  <smiles>  (47) 
CC(C)(C)OC(=O)n1c(C(N)=O)cc2ccc(N3CC(F)(F)C3)cc21

>  <score_type>  (47) 
oracle

>  <origin>  (47) 
adg

>  <m_score__min__energy>  (47) 
-7.0099999999999998

>  <m_primary>  (47) 
energy

$$$$
47:0
     RDKit          3D

 41 43  0  0  0  0  0  0  0  0999 V2000
  138.8290  158.2520  132.0950 C   0  0  0  0  0  0  0  0  0  0  0  0
  139.1110  157.2840  133.2390 C   0  0  0  0  0  0  0  0  0  0  0  0
  140.2380  156.4650  132.9370 O   0  0  0  0  0  0  0  0  0  0  0  0
  140.2080  155.0650  132.9750 C   0  0  0  0  0  0  0  0  0  0  0  0
  139.1060  154.4530  132.9950 O   0  0  0  0  0  0  0  0  0  0  0  0
  141.4410  154.3270  132.9890 N   0  0  0  0  0  0  0  0  0  0  0  0
  142.6850  154.8060  133.2710 C   0  0  0  0  0  0  0  0  0  0  0  0
  143.0450  156.2270  133.4540 C   0  0  0  0  0  0  0  0  0  0  0  0
  142.5430  157.2350  132.5780 N   0  0  0  0  0  0  0  0  0  0  0  0
  143.8520  156.5470  134.3660 O   0  0  0  0  0  0  0  0  0  0  0  0
  143.6130  153.7690  133.3210 C   0  0  0  0  0  0  0  0  0  0  0  0
  142.8950  152.6270  133.0470 C   0  0  0  0  0  0  0  0  0  0  0  0
  143.3140  151.3030  132.9830 C   0  0  0  0  0  0  0  0  0  0  0  0
  142.3480  150.3170  132.7200 C   0  0  0  0  0  0  0  0  0  0  0  0
  140.9870  150.6640  132.5350 C   0  0  0  0  0  0  0  0  0  0  0  0
  139.9800  149.5600  132.2700 C   0  0  0  0  0  0  0  0  0  0  0  0
  140.5580  148.2930  131.6520 C   0  0  0  0  0  0  0  0  0  0  0  0
  139.7970  148.4640  130.4030 N   0  0  0  0  0  0  0  0  0  0  0  0
  138.7860  147.4070  130.2400 C   0  0  0  0  0  0  0  0  0  0  0  0
  139.2090  149.6910  130.9640 C   0  0  0  0  0  0  0  0  0  0  0  0
  140.6000  152.0260  132.6100 C   0  0  0  0  0  0  0  0  0  0  0  0
  141.5870  152.9890  132.8510 C   0  0  0  0  0  0  0  0  0  0  0  0
  138.5436  159.2317  132.5056 H   0  0  0  0  0  0  0  0  0  0  0  0
  139.7323  158.3625  131.4771 H   0  0  0  0  0  0  0  0  0  0  0  0
  138.0077  157.8601  131.4771 H   0  0  0  0  0  0  0  0  0  0  0  0
  139.3157  157.8571  134.1553 H   0  0  0  0  0  0  0  0  0  0  0  0
  138.2318  156.6386  133.3823 H   0  0  0  0  0  0  0  0  0  0  0  0
  142.0090  156.9860  131.7160 H   0  0  0  0  0  0  0  0  0  0  0  0
  142.7750  158.2390  132.7480 H   0  0  0  0  0  0  0  0  0  0  0  0
  144.6895  153.8460  133.5339 H   0  0  0  0  0  0  0  0  0  0  0  0
  144.3702  151.0352  133.1337 H   0  0  0  0  0  0  0  0  0  0  0  0
  142.6526  149.2619  132.6569 H   0  0  0  0  0  0  0  0  0  0  0  0
  139.4940  149.5764  133.2567 H   0  0  0  0  0  0  0  0  0  0  0  0
  141.6479  148.3339  131.5092 H   0  0  0  0  0  0  0  0  0  0  0  0
  140.4669  147.3452  132.2028 H   0  0  0  0  0  0  0  0  0  0  0  0
  138.4547  147.0607  131.2301 H   0  0  0  0  0  0  0  0  0  0  0  0
  137.9248  147.8060  129.6840 H   0  0  0  0  0  0  0  0  0  0  0  0
  139.2229  146.5644  129.6840 H   0  0  0  0  0  0  0  0  0  0  0  0
  139.4637  150.5974  130.3951 H   0  0  0  0  0  0  0  0  0  0  0  0
  138.1136  149.7832  131.0029 H   0  0  0  0  0  0  0  0  0  0  0  0
  139.5476  152.3194  132.4817 H   0  0  0  0  0  0  0  0  0  0  0  0
  1  2  1  0
  2  3  1  0
  3  4  1  0
  4  5  2  0
  4  6  1  0
  6  7  1  0
  7  8  1  0
  8  9  1  0
  8 10  2  0
  7 11  2  0
 11 12  1  0
 12 13  2  0
 13 14  1  0
 14 15  2  0
 15 16  1  0
 16 17  1  0
 17 18  1  0
 18 19  1  0
 18 20  1  0
 15 21  1  0
 21 22  2  0
 22  6  1  0
 22 12  1  0
 20 16  1  0
  1 23  1  0
  1 24  1  0
  1 25  1  0
  2 26  1  0
  2 27  1  0
  9 28  1  0
  9 29  1  0
 11 30  1  0
 13 31  1  0
 14 32  1  0
 16 33  1  0
 17 34  1  0
 17 35  1  0
 19 36  1  0
 19 37  1  0
 19 38  1  0
 20 39  1  0
 20 40  1  0
 21 41  1  0
M  END
>  <UniqueID>  (48) 
48

>  <SMILES>  (48) 
CCOC(=O)n1c(C(N)=O)cc2ccc(C3CN(C)C3)cc21

>  <Energy>  (48) 
148.6042453694201

>  <Genealogy>  (48) 
CCOC(=O)n1c(C(N)=O)cc2ccc(C3CN(C)C3)cc21 (3D coordinates assigned)
CCOC(=O)n1c(C(N)=O)cc2ccc(C3CN(C)C3)cc21 (nonaromatic ring conformer: 148.6042453694201 kcal/mol)

>  <smiles>  (48) 
CCOC(=O)n1c(C(N)=O)cc2ccc(C3CN(C)C3)cc21

>  <score_type>  (48) 
oracle

>  <origin>  (48) 
adg

>  <m_score__min__energy>  (48) 
-7.46

>  <m_primary>  (48) 
energy

$$$$
48:0
     RDKit          3D

 39 41  0  0  0  0  0  0  0  0999 V2000
  147.1510  155.1190  135.1820 C   0  0  0  0  0  0  0  0  0  0  0  0
  146.1100  155.9710  134.7220 O   0  0  0  0  0  0  0  0  0  0  0  0
  146.1440  156.5980  133.4730 C   0  0  0  0  0  0  0  0  0  0  0  0
  146.2250  155.9100  132.4190 O   0  0  0  0  0  0  0  0  0  0  0  0
  146.0720  158.0320  133.3910 N   0  0  0  0  0  0  0  0  0  0  0  0
  147.0920  158.8990  133.1330 C   0  0  0  0  0  0  0  0  0  0  0  0
  148.4610  158.5160  132.7220 C   0  0  0  0  0  0  0  0  0  0  0  0
  148.6760  157.4000  131.8560 N   0  0  0  0  0  0  0  0  0  0  0  0
  149.4550  159.1520  133.1600 O   0  0  0  0  0  0  0  0  0  0  0  0
  146.6450  160.2160  133.2130 C   0  0  0  0  0  0  0  0  0  0  0  0
  145.3090  160.1300  133.5290 C   0  0  0  0  0  0  0  0  0  0  0  0
  144.3730  161.1380  133.7390 C   0  0  0  0  0  0  0  0  0  0  0  0
  143.0640  160.7600  134.0800 C   0  0  0  0  0  0  0  0  0  0  0  0
  142.7160  159.3920  134.2160 C   0  0  0  0  0  0  0  0  0  0  0  0
  141.3700  159.0220  134.5690 N   0  0  0  0  0  0  0  0  0  0  0  0
  141.0130  158.8290  135.9810 C   0  0  0  0  0  0  0  0  0  0  0  0
  139.6350  158.1780  136.0980 C   0  0  0  0  0  0  0  0  0  0  0  0
  139.4860  157.2130  135.0790 O   0  0  0  0  0  0  0  0  0  0  0  0
  139.2970  157.8530  133.8280 C   0  0  0  0  0  0  0  0  0  0  0  0
  140.3190  158.9790  133.5440 C   0  0  0  0  0  0  0  0  0  0  0  0
  143.6940  158.3970  133.9900 C   0  0  0  0  0  0  0  0  0  0  0  0
  144.9860  158.8020  133.6320 C   0  0  0  0  0  0  0  0  0  0  0  0
  147.1598  155.1118  136.2819 H   0  0  0  0  0  0  0  0  0  0  0  0
  146.9805  154.0980  134.8100 H   0  0  0  0  0  0  0  0  0  0  0  0
  148.1182  155.4880  134.8100 H   0  0  0  0  0  0  0  0  0  0  0  0
  147.8770  156.8810  131.4310 H   0  0  0  0  0  0  0  0  0  0  0  0
  149.6470  157.1130  131.6030 H   0  0  0  0  0  0  0  0  0  0  0  0
  147.2354  161.1309  133.0566 H   0  0  0  0  0  0  0  0  0  0  0  0
  144.6497  162.1981  133.6410 H   0  0  0  0  0  0  0  0  0  0  0  0
  142.2998  161.5341  134.2435 H   0  0  0  0  0  0  0  0  0  0  0  0
  141.7620  158.1804  136.4588 H   0  0  0  0  0  0  0  0  0  0  0  0
  140.9882  159.8090  136.4800 H   0  0  0  0  0  0  0  0  0  0  0  0
  139.5405  157.6923  137.0804 H   0  0  0  0  0  0  0  0  0  0  0  0
  138.8548  158.9465  135.9941 H   0  0  0  0  0  0  0  0  0  0  0  0
  139.3845  157.0964  133.0343 H   0  0  0  0  0  0  0  0  0  0  0  0
  138.3021  158.3214  133.8540 H   0  0  0  0  0  0  0  0  0  0  0  0
  140.7835  158.8012  132.5628 H   0  0  0  0  0  0  0  0  0  0  0  0
  139.7854  159.9409  133.5557 H   0  0  0  0  0  0  0  0  0  0  0  0
  143.4464  157.3302  134.0928 H   0  0  0  0  0  0  0  0  0  0  0  0
  1  2  1  0
  2  3  1  0
  3  4  2  0
  3  5  1  0
  5  6  1  0
  6  7  1  0
  7  8  1  0
  7  9  2  0
  6 10  2  0
 10 11  1  0
 11 12  2  0
 12 13  1  0
 13 14  2  0
 14 15  1  0
 15 16  1  0
 16 17  1  0
 17 18  1  0
 18 19  1  0
 19 20  1  0
 14 21  1  0
 21 22  2  0
 22  5  1  0
 22 11  1  0
 20 15  1  0
  1 23  1  0
  1 24  1  0
  1 25  1  0
  8 26  1  0
  8 27  1  0
 10 28  1  0
 12 29  1  0
 13 30  1  0
 16 31  1  0
 16 32  1  0
 17 33  1  0
 17 34  1  0
 19 35  1  0
 19 36  1  0
 20 37  1  0
 20 38  1  0
 21 39  1  0
M  END
>  <UniqueID>  (49) 
49

>  <SMILES>  (49) 
COC(=O)n1c(C(N)=O)cc2ccc(N3CCOCC3)cc21

>  <Energy>  (49) 
87.55624554772866

>  <Genealogy>  (49) 
COC(=O)n1c(C(N)=O)cc2ccc(N3CCOCC3)cc21 (3D coordinates assigned)
COC(=O)n1c(C(N)=O)cc2ccc(N3CCOCC3)cc21 (nonaromatic ring conformer: 87.55624554772866 kcal/mol)

>  <smiles>  (49) 
COC(=O)n1c(C(N)=O)cc2ccc(N3CCOCC3)cc21

>  <score_type>  (49) 
oracle

>  <origin>  (49) 
adg

>  <m_score__min__energy>  (49) 
-6.71

>  <m_primary>  (49) 
energy

$$$$
49:0
     RDKit          3D

 39 41  0  0  0  0  0  0  0  0999 V2000
  147.3410  155.5650  135.0900 C   0  0  0  0  0  0  0  0  0  0  0  0
  145.8600  155.2740  134.9040 C   0  0  0  0  0  0  0  0  0  0  0  0
  145.3900  155.9360  133.7350 O   0  0  0  0  0  0  0  0  0  0  0  0
  146.1770  156.8290  133.0030 C   0  0  0  0  0  0  0  0  0  0  0  0
  146.9460  156.4040  132.0970 O   0  0  0  0  0  0  0  0  0  0  0  0
  146.0890  158.2370  133.2650 N   0  0  0  0  0  0  0  0  0  0  0  0
  147.1060  159.1420  133.3390 C   0  0  0  0  0  0  0  0  0  0  0  0
  148.5510  158.8300  133.3260 C   0  0  0  0  0  0  0  0  0  0  0  0
  149.1750  158.2950  132.1620 N   0  0  0  0  0  0  0  0  0  0  0  0
  149.2340  158.9920  134.3720 O   0  0  0  0  0  0  0  0  0  0  0  0
  146.6030  160.4300  133.5190 C   0  0  0  0  0  0  0  0  0  0  0  0
  145.2360  160.2840  133.5630 C   0  0  0  0  0  0  0  0  0  0  0  0
  144.2400  161.2410  133.7170 C   0  0  0  0  0  0  0  0  0  0  0  0
  142.9030  160.8110  133.6990 C   0  0  0  0  0  0  0  0  0  0  0  0
  142.5820  159.4390  133.5210 C   0  0  0  0  0  0  0  0  0  0  0  0
  141.1650  158.9970  133.4930 C   0  0  0  0  0  0  0  0  0  0  0  0
  140.6710  158.1180  134.4720 C   0  0  0  0  0  0  0  0  0  0  0  0
  139.3360  157.7150  134.4270 C   0  0  0  0  0  0  0  0  0  0  0  0
  138.5170  158.1720  133.4450 N   0  0  0  0  0  0  0  0  0  0  0  0
  138.9560  159.0250  132.4800 C   0  0  0  0  0  0  0  0  0  0  0  0
  138.0180  159.4900  131.4430 C   0  0  0  0  0  0  0  0  0  0  0  0
  136.8440  159.0340  131.4040 O   0  0  0  0  0  0  0  0  0  0  0  0
  138.4130  160.4310  130.4990 O   0  0  0  0  0  0  0  0  0  0  0  0
  140.2930  159.4530  132.4900 C   0  0  0  0  0  0  0  0  0  0  0  0
  143.6270  158.4970  133.3660 C   0  0  0  0  0  0  0  0  0  0  0  0
  144.9500  158.9530  133.4060 C   0  0  0  0  0  0  0  0  0  0  0  0
  147.5736  155.6107  136.1641 H   0  0  0  0  0  0  0  0  0  0  0  0
  147.9335  154.7661  134.6202 H   0  0  0  0  0  0  0  0  0  0  0  0
  147.5872  156.5287  134.6202 H   0  0  0  0  0  0  0  0  0  0  0  0
  145.7100  154.1896  134.7967 H   0  0  0  0  0  0  0  0  0  0  0  0
  145.3021  155.6363  135.7801 H   0  0  0  0  0  0  0  0  0  0  0  0
  148.7430  157.5030  131.6370 H   0  0  0  0  0  0  0  0  0  0  0  0
  147.1772  161.3641  133.6071 H   0  0  0  0  0  0  0  0  0  0  0  0
  144.4913  162.3037  133.8491 H   0  0  0  0  0  0  0  0  0  0  0  0
  142.0944  161.5461  133.8244 H   0  0  0  0  0  0  0  0  0  0  0  0
  141.3333  157.7497  135.2694 H   0  0  0  0  0  0  0  0  0  0  0  0
  138.9457  157.0249  135.1895 H   0  0  0  0  0  0  0  0  0  0  0  0
  140.6569  160.1434  131.7148 H   0  0  0  0  0  0  0  0  0  0  0  0
  143.4045  157.4300  133.2174 H   0  0  0  0  0  0  0  0  0  0  0  0
  1  2  1  0
  2  3  1  0
  3  4  1  0
  4  5  2  0
  4  6  1  0
  6  7  1  0
  7  8  1  0
  8  9  1  0
  8 10  2  0
  7 11  2  0
 11 12  1  0
 12 13  2  0
 13 14  1  0
 14 15  2  0
 15 16  1  0
 16 17  2  0
 17 18  1  0
 18 19  2  0
 19 20  1  0
 20 21  1  0
 21 22  2  0
 21 23  1  0
 20 24  2  0
 15 25  1  0
 25 26  2  0
 26  6  1  0
 26 12  1  0
 24 16  1  0
  1 27  1  0
  1 28  1  0
  1 29  1  0
  2 30  1  0
  2 31  1  0
  9 32  1  0
 11 33  1  0
 13 34  1  0
 14 35  1  0
 17 36  1  0
 18 37  1  0
 24 38  1  0
 25 39  1  0
M  CHG  2   9  -1  23  -1
M  END
>  <UniqueID>  (50) 
50

>  <SMILES>  (50) 
CCOC(=O)n1c(C([NH-])=O)cc2ccc(-c3ccnc(C(=O)[O-])c3)cc21

>  <Energy>  (50) 
81.44882450519283

>  <Genealogy>  (50) 
CCOC(=O)n1c(C([NH-])=O)cc2ccc(-c3ccnc(C(=O)[O-])c3)cc21 (protonated)
CCOC(=O)n1c(C([NH-])=O)cc2ccc(-c3ccnc(C(=O)[O-])c3)cc21 (3D coordinates assigned)
CCOC(=O)n1c(C([NH-])=O)cc2ccc(-c3ccnc(C(=O)[O-])c3)cc21 (optimized conformer: 81.44882450519283 kcal/mol)

>  <smiles>  (50) 
CCOC(=O)n1c(C(N)=O)cc2ccc(-c3ccnc(C(=O)O)c3)cc21

>  <score_type>  (50) 
oracle

>  <origin>  (50) 
adg

>  <m_score__min__energy>  (50) 
-8.1199999999999992

>  <m_primary>  (50) 
energy

$$$$
50:0
     RDKit          3D

 35 37  0  0  0  0  0  0  0  0999 V2000
  149.6210  160.4520  129.1350 C   0  0  0  0  0  0  0  0  0  0  0  0
  149.2210  160.9550  130.4820 C   0  0  0  0  0  0  0  0  0  0  0  0
  148.9900  162.1810  130.6550 O   0  0  0  0  0  0  0  0  0  0  0  0
  149.0680  160.0450  131.5680 N   0  0  0  0  0  0  0  0  0  0  0  0
  148.6860  160.1070  132.9920 C   0  0  0  0  0  0  0  0  0  0  0  0
  148.8090  158.6340  133.2500 C   0  0  0  0  0  0  0  0  0  0  0  0
  147.5040  157.9270  133.5740 C   0  0  0  0  0  0  0  0  0  0  0  0
  146.2890  158.4920  133.1080 C   0  0  0  0  0  0  0  0  0  0  0  0
  145.0580  157.8690  133.3720 C   0  0  0  0  0  0  0  0  0  0  0  0
  145.0670  156.6890  134.1080 C   0  0  0  0  0  0  0  0  0  0  0  0
  144.0260  155.8710  134.4790 C   0  0  0  0  0  0  0  0  0  0  0  0
  144.6120  154.8270  135.1910 C   0  0  0  0  0  0  0  0  0  0  0  0
  143.8340  153.7570  135.8510 C   0  0  0  0  0  0  0  0  0  0  0  0
  143.9040  153.5610  137.2610 N   0  0  0  0  0  0  0  0  0  0  0  0
  143.0580  153.0390  135.1670 O   0  0  0  0  0  0  0  0  0  0  0  0
  145.9650  154.9880  135.2500 N   0  0  0  0  0  0  0  0  0  0  0  0
  146.9370  154.0930  135.8140 C   0  0  0  0  0  0  0  0  0  0  0  0
  148.0780  153.9820  135.2940 O   0  0  0  0  0  0  0  0  0  0  0  0
  146.6360  153.3590  136.9550 O   0  0  0  0  0  0  0  0  0  0  0  0
  146.2260  156.1340  134.5840 C   0  0  0  0  0  0  0  0  0  0  0  0
  147.4690  156.7220  134.3200 C   0  0  0  0  0  0  0  0  0  0  0  0
  149.2110  158.5960  131.8050 C   0  0  0  0  0  0  0  0  0  0  0  0
  150.3019  159.5958  129.2506 H   0  0  0  0  0  0  0  0  0  0  0  0
  148.7250  160.1357  128.5808 H   0  0  0  0  0  0  0  0  0  0  0  0
  150.1309  161.2537  128.5808 H   0  0  0  0  0  0  0  0  0  0  0  0
  149.3863  160.7041  133.5945 H   0  0  0  0  0  0  0  0  0  0  0  0
  147.7231  160.5807  133.2337 H   0  0  0  0  0  0  0  0  0  0  0  0
  149.4049  158.1993  134.0661 H   0  0  0  0  0  0  0  0  0  0  0  0
  146.3112  159.4294  132.5329 H   0  0  0  0  0  0  0  0  0  0  0  0
  144.1147  158.3017  133.0073 H   0  0  0  0  0  0  0  0  0  0  0  0
  142.9572  156.0113  134.2600 H   0  0  0  0  0  0  0  0  0  0  0  0
  144.6950  153.9530  137.8200 H   0  0  0  0  0  0  0  0  0  0  0  0
  148.3982  156.2590  134.6836 H   0  0  0  0  0  0  0  0  0  0  0  0
  150.2420  158.2412  131.6598 H   0  0  0  0  0  0  0  0  0  0  0  0
  148.6470  157.9210  131.1444 H   0  0  0  0  0  0  0  0  0  0  0  0
  1  2  1  0
  2  3  2  0
  2  4  1  0
  4  5  1  0
  5  6  1  0
  6  7  1  0
  7  8  2  0
  8  9  1  0
  9 10  2  0
 10 11  1  0
 11 12  2  0
 12 13  1  0
 13 14  1  0
 13 15  2  0
 12 16  1  0
 16 17  1  0
 17 18  2  0
 17 19  1  0
 16 20  1  0
 20 21  2  0
  6 22  1  0
 22  4  1  0
 21  7  1  0
 20 10  1  0
  1 23  1  0
  1 24  1  0
  1 25  1  0
  5 26  1  0
  5 27  1  0
  6 28  1  0
  8 29  1  0
  9 30  1  0
 11 31  1  0
 14 32  1  0
 21 33  1  0
 22 34  1  0
 22 35  1  0
M  CHG  2  14  -1  19  -1
M  END
>  <UniqueID>  (51) 
51

>  <SMILES>  (51) 
CC(=O)N1CC(c2ccc3cc(C([NH-])=O)n(C(=O)[O-])c3c2)C1

>  <Energy>  (51) 
120.79193195525447

>  <Genealogy>  (51) 
CC(=O)N1CC(c2ccc3cc(C([NH-])=O)n(C(=O)[O-])c3c2)C1 (protonated)
CC(=O)N1CC(c2ccc3cc(C([NH-])=O)n(C(=O)[O-])c3c2)C1 (3D coordinates assigned)
CC(=O)N1CC(c2ccc3cc(C([NH-])=O)n(C(=O)[O-])c3c2)C1 (nonaromatic ring conformer: 120.79193195525447 kcal/mol)

>  <smiles>  (51) 
CC(=O)N1CC(c2ccc3cc(C(N)=O)n(C(=O)O)c3c2)C1

>  <score_type>  (51) 
oracle

>  <origin>  (51) 
adg

>  <m_score__min__energy>  (51) 
-7.4500000000000002

>  <m_primary>  (51) 
energy

$$$$
51:0
     RDKit          3D

 54 57  0  0  0  0  0  0  0  0999 V2000
  139.8930  155.2270  139.8530 C   0  0  0  0  0  0  0  0  0  0  0  0
  140.9530  154.1610  140.2060 C   0  0  1  0  0  0  0  0  0  0  0  0
  141.7820  154.6670  141.2310 O   0  0  0  0  0  0  0  0  0  0  0  0
  140.2410  152.8730  140.7100 C   0  0  0  0  0  0  0  0  0  0  0  0
  141.1540  151.6540  140.5720 C   0  0  1  0  0  0  0  0  0  0  0  0
  140.5500  150.5450  141.1890 O   0  0  0  0  0  0  0  0  0  0  0  0
  141.3880  151.3660  139.0790 C   0  0  0  0  0  0  0  0  0  0  0  0
  141.5480  152.6010  138.2950 N   0  0  0  0  0  0  0  0  0  0  0  0
  141.7850  152.4760  136.8780 C   0  0  0  0  0  0  0  0  0  0  0  0
  141.0550  151.7100  136.1880 O   0  0  0  0  0  0  0  0  0  0  0  0
  142.8630  153.2350  136.2110 C   0  0  0  0  0  0  0  0  0  0  0  0
  144.1210  153.3610  136.8150 C   0  0  0  0  0  0  0  0  0  0  0  0
  145.1440  154.0700  136.1810 C   0  0  0  0  0  0  0  0  0  0  0  0
  144.9220  154.6820  134.9360 C   0  0  0  0  0  0  0  0  0  0  0  0
  146.0100  155.4310  134.2600 C   0  0  0  0  0  0  0  0  0  0  0  0
  147.2170  154.7740  133.9020 C   0  0  0  0  0  0  0  0  0  0  0  0
  148.2460  155.4660  133.2460 C   0  0  0  0  0  0  0  0  0  0  0  0
  148.0530  156.8170  132.9700 C   0  0  0  0  0  0  0  0  0  0  0  0
  148.8750  157.7150  132.3280 C   0  0  0  0  0  0  0  0  0  0  0  0
  148.1770  158.9210  132.3300 C   0  0  0  0  0  0  0  0  0  0  0  0
  148.7410  160.1860  131.8130 C   0  0  0  0  0  0  0  0  0  0  0  0
  149.9640  160.1980  131.0810 N   0  0  0  0  0  0  0  0  0  0  0  0
  148.1160  161.2660  131.9840 O   0  0  0  0  0  0  0  0  0  0  0  0
  146.9680  158.7710  132.9420 N   0  0  0  0  0  0  0  0  0  0  0  0
  145.9280  159.7530  133.0800 C   0  0  0  0  0  0  0  0  0  0  0  0
  146.1840  160.9780  133.7640 N   0  0  0  0  0  0  0  0  0  0  0  0
  144.7810  159.5320  132.6070 O   0  0  0  0  0  0  0  0  0  0  0  0
  146.9070  157.4770  133.3270 C   0  0  0  0  0  0  0  0  0  0  0  0
  145.8540  156.8060  133.9610 C   0  0  0  0  0  0  0  0  0  0  0  0
  143.6510  154.5790  134.3440 C   0  0  0  0  0  0  0  0  0  0  0  0
  142.6300  153.8640  134.9770 C   0  0  0  0  0  0  0  0  0  0  0  0
  141.8620  153.8760  138.9670 C   0  0  0  0  0  0  0  0  0  0  0  0
  139.4742  155.6482  140.7788 H   0  0  0  0  0  0  0  0  0  0  0  0
  140.3618  156.0294  139.2644 H   0  0  0  0  0  0  0  0  0  0  0  0
  139.0880  154.7628  139.2644 H   0  0  0  0  0  0  0  0  0  0  0  0
  142.6290  154.9880  140.8210 H   0  0  0  0  0  0  0  0  0  0  0  0
  139.9703  153.0020  141.7683 H   0  0  0  0  0  0  0  0  0  0  0  0
  139.3406  152.7081  140.1000 H   0  0  0  0  0  0  0  0  0  0  0  0
  142.1201  151.8519  141.0594 H   0  0  0  0  0  0  0  0  0  0  0  0
  139.5710  150.7150  141.1810 H   0  0  0  0  0  0  0  0  0  0  0  0
  142.2990  150.7585  138.9736 H   0  0  0  0  0  0  0  0  0  0  0  0
  140.5058  150.8330  138.6947 H   0  0  0  0  0  0  0  0  0  0  0  0
  144.3044  152.8981  137.7959 H   0  0  0  0  0  0  0  0  0  0  0  0
  146.1309  154.1498  136.6602 H   0  0  0  0  0  0  0  0  0  0  0  0
  147.3468  153.7084  134.1422 H   0  0  0  0  0  0  0  0  0  0  0  0
  149.1775  154.9565  132.9583 H   0  0  0  0  0  0  0  0  0  0  0  0
  149.8712  157.5217  131.9035 H   0  0  0  0  0  0  0  0  0  0  0  0
  150.7880  160.7450  131.4190 H   0  0  0  0  0  0  0  0  0  0  0  0
  146.6140  161.7900  133.2670 H   0  0  0  0  0  0  0  0  0  0  0  0
  144.9257  157.3358  134.2211 H   0  0  0  0  0  0  0  0  0  0  0  0
  143.4585  155.0644  133.3758 H   0  0  0  0  0  0  0  0  0  0  0  0
  141.6385  153.7936  134.5059 H   0  0  0  0  0  0  0  0  0  0  0  0
  142.9094  153.8457  139.3018 H   0  0  0  0  0  0  0  0  0  0  0  0
  141.6831  154.6811  138.2391 H   0  0  0  0  0  0  0  0  0  0  0  0
  1  2  1  0
  2  3  1  1
  2  4  1  0
  4  5  1  0
  5  6  1  0
  5  7  1  0
  7  8  1  0
  8  9  1  0
  9 10  2  0
  9 11  1  0
 11 12  2  0
 12 13  1  0
 13 14  2  0
 14 15  1  0
 15 16  2  0
 16 17  1  0
 17 18  2  0
 18 19  1  0
 19 20  2  0
 20 21  1  0
 21 22  1  0
 21 23  2  0
 20 24  1  0
 24 25  1  0
 25 26  1  0
 25 27  2  0
 24 28  1  0
 28 29  2  0
 14 30  1  0
 30 31  2  0
  8 32  1  0
 32  2  1  0
 31 11  1  0
 29 15  1  0
 28 18  1  0
  1 33  1  0
  1 34  1  0
  1 35  1  0
  3 36  1  0
  4 37  1  0
  4 38  1  0
  5 39  1  1
  6 40  1  0
  7 41  1  0
  7 42  1  0
 12 43  1  0
 13 44  1  0
 16 45  1  0
 17 46  1  0
 19 47  1  0
 22 48  1  0
 26 49  1  0
 29 50  1  0
 30 51  1  0
 31 52  1  0
 32 53  1  0
 32 54  1  0
M  CHG  2  22  -1  26  -1
M  END
>  <UniqueID>  (52) 
52

>  <SMILES>  (52) 
C[C@@]1(O)C[C@@H](O)CN(C(=O)c2ccc(-c3ccc4cc(C([NH-])=O)n(C([NH-])=O)c4c3)cc2)C1

>  <Energy>  (52) 
111.22360407479061

>  <Genealogy>  (52) 
C[C@@]1(O)C[C@@H](O)CN(C(=O)c2ccc(-c3ccc4cc(C([NH-])=O)n(C([NH-])=O)c4c3)cc2)C1 (protonated)
C[C@@]1(O)C[C@@H](O)CN(C(=O)c2ccc(-c3ccc4cc(C([NH-])=O)n(C([NH-])=O)c4c3)cc2)C1 (3D coordinates assigned)
C[C@@]1(O)C[C@@H](O)CN(C(=O)c2ccc(-c3ccc4cc(C([NH-])=O)n(C([NH-])=O)c4c3)cc2)C1 (nonaromatic ring conformer: 111.22360407479061 kcal/mol)

>  <smiles>  (52) 
C[C@@]1(O)C[C@@H](O)CN(C(=O)c2ccc(-c3ccc4cc(C(N)=O)n(C(N)=O)c4c3)cc2)C1

>  <score_type>  (52) 
oracle

>  <origin>  (52) 
adg

>  <m_score__min__energy>  (52) 
-9.5999999999999996

>  <m_primary>  (52) 
energy

$$$$
52:0
     RDKit          3D

 35 37  0  0  0  0  0  0  0  0999 V2000
  141.0950  157.5310  132.7940 N   0  0  0  0  0  0  0  0  0  0  0  0
  140.4930  157.3510  134.0750 C   0  0  0  0  0  0  0  0  0  0  0  0
  139.4800  158.0320  134.3840 O   0  0  0  0  0  0  0  0  0  0  0  0
  141.0460  156.4090  135.0090 N   0  0  0  0  0  0  0  0  0  0  0  0
  141.2300  156.5780  136.3490 C   0  0  0  0  0  0  0  0  0  0  0  0
  141.0570  157.8410  137.0940 C   0  0  0  0  0  0  0  0  0  0  0  0
  139.8580  158.6090  136.9800 N   0  0  0  0  0  0  0  0  0  0  0  0
  142.0060  158.2790  137.7980 O   0  0  0  0  0  0  0  0  0  0  0  0
  141.6700  155.3970  136.9390 C   0  0  0  0  0  0  0  0  0  0  0  0
  141.7650  154.4900  135.9090 C   0  0  0  0  0  0  0  0  0  0  0  0
  142.1340  153.1480  135.9300 C   0  0  0  0  0  0  0  0  0  0  0  0
  142.1030  152.4380  134.7200 C   0  0  0  0  0  0  0  0  0  0  0  0
  141.7130  153.0740  133.5170 C   0  0  0  0  0  0  0  0  0  0  0  0
  141.6570  152.3050  132.3030 N   0  0  0  0  0  0  0  0  0  0  0  0
  141.0280  151.0160  132.1850 C   0  0  0  0  0  0  0  0  0  0  0  0
  139.6620  150.8950  131.8690 C   0  0  0  0  0  0  0  0  0  0  0  0
  139.0790  149.6300  131.7350 C   0  0  0  0  0  0  0  0  0  0  0  0
  139.8560  148.4800  131.8990 C   0  0  0  0  0  0  0  0  0  0  0  0
  141.2170  148.5920  132.1890 C   0  0  0  0  0  0  0  0  0  0  0  0
  141.8030  149.8550  132.3240 C   0  0  0  0  0  0  0  0  0  0  0  0
  141.3210  154.4330  133.5390 C   0  0  0  0  0  0  0  0  0  0  0  0
  141.3820  155.1240  134.7550 C   0  0  0  0  0  0  0  0  0  0  0  0
  141.4110  156.7110  132.2290 H   0  0  0  0  0  0  0  0  0  0  0  0
  139.7390  159.4800  137.5420 H   0  0  0  0  0  0  0  0  0  0  0  0
  139.1230  158.3600  136.2820 H   0  0  0  0  0  0  0  0  0  0  0  0
  141.8941  155.2253  138.0022 H   0  0  0  0  0  0  0  0  0  0  0  0
  142.4405  152.6590  136.8664 H   0  0  0  0  0  0  0  0  0  0  0  0
  142.3850  151.3749  134.7062 H   0  0  0  0  0  0  0  0  0  0  0  0
  142.1050  152.7080  131.4490 H   0  0  0  0  0  0  0  0  0  0  0  0
  139.0503  151.7981  131.7268 H   0  0  0  0  0  0  0  0  0  0  0  0
  138.0080  149.5407  131.5003 H   0  0  0  0  0  0  0  0  0  0  0  0
  139.3950  147.4862  131.7996 H   0  0  0  0  0  0  0  0  0  0  0  0
  141.8291  147.6863  132.3114 H   0  0  0  0  0  0  0  0  0  0  0  0
  142.8783  149.9383  132.5405 H   0  0  0  0  0  0  0  0  0  0  0  0
  140.9765  154.9348  132.6227 H   0  0  0  0  0  0  0  0  0  0  0  0
  1  2  1  0
  2  3  2  0
  2  4  1  0
  4  5  1  0
  5  6  1  0
  6  7  1  0
  6  8  2  0
  5  9  2  0
  9 10  1  0
 10 11  2  0
 11 12  1  0
 12 13  2  0
 13 14  1  0
 14 15  1  0
 15 16  2  0
 16 17  1  0
 17 18  2  0
 18 19  1  0
 19 20  2  0
 13 21  1  0
 21 22  2  0
 22  4  1  0
 22 10  1  0
 20 15  1  0
  1 23  1  0
  7 24  1  0
  7 25  1  0
  9 26  1  0
 11 27  1  0
 12 28  1  0
 14 29  1  0
 16 30  1  0
 17 31  1  0
 18 32  1  0
 19 33  1  0
 20 34  1  0
 21 35  1  0
M  CHG  1   1  -1
M  END
>  <UniqueID>  (53) 
53

>  <SMILES>  (53) 
[NH-]C(=O)n1c(C(N)=O)cc2ccc(Nc3ccccc3)cc21

>  <Energy>  (53) 
82.47312922866269

>  <Genealogy>  (53) 
[NH-]C(=O)n1c(C(N)=O)cc2ccc(Nc3ccccc3)cc21 (protonated)
[NH-]C(=O)n1c(C(N)=O)cc2ccc(Nc3ccccc3)cc21 (3D coordinates assigned)
[NH-]C(=O)n1c(C(N)=O)cc2ccc(Nc3ccccc3)cc21 (optimized conformer: 82.47312922866269 kcal/mol)

>  <smiles>  (53) 
NC(=O)c1cc2ccc(Nc3ccccc3)cc2n1C(N)=O

>  <score_type>  (53) 
oracle

>  <origin>  (53) 
adg

>  <m_score__min__energy>  (53) 
-8.3100000000000005

>  <m_primary>  (53) 
energy

$$$$
53:0
     RDKit          3D

 38 39  0  0  0  0  0  0  0  0999 V2000
  141.3540  153.4110  133.5860 C   0  0  0  0  0  0  0  0  0  0  0  0
  141.3290  154.7870  133.2300 O   0  0  0  0  0  0  0  0  0  0  0  0
  140.2190  155.6060  133.4570 C   0  0  0  0  0  0  0  0  0  0  0  0
  139.1010  155.3120  132.9520 O   0  0  0  0  0  0  0  0  0  0  0  0
  140.3490  156.7770  134.2810 N   0  0  0  0  0  0  0  0  0  0  0  0
  140.0650  158.0680  133.9450 C   0  0  0  0  0  0  0  0  0  0  0  0
  139.7000  158.5440  132.5920 C   0  0  0  0  0  0  0  0  0  0  0  0
  138.7470  157.8330  131.8010 N   0  0  0  0  0  0  0  0  0  0  0  0
  140.2070  159.6030  132.1370 O   0  0  0  0  0  0  0  0  0  0  0  0
  140.2550  158.9090  135.0410 C   0  0  0  0  0  0  0  0  0  0  0  0
  140.6690  158.0880  136.0640 C   0  0  0  0  0  0  0  0  0  0  0  0
  140.9910  158.3960  137.3820 C   0  0  0  0  0  0  0  0  0  0  0  0
  141.3610  157.3420  138.2330 C   0  0  0  0  0  0  0  0  0  0  0  0
  141.3910  156.0070  137.7590 C   0  0  0  0  0  0  0  0  0  0  0  0
  141.7740  154.8850  138.6890 C   0  0  0  0  0  0  0  0  0  0  0  0
  140.6740  153.8610  138.7950 C   0  0  0  0  0  0  0  0  0  0  0  0
  139.5320  154.2420  139.1660 O   0  0  0  0  0  0  0  0  0  0  0  0
  140.9000  152.4700  138.4810 N   0  0  0  0  0  0  0  0  0  0  0  0
  140.6240  151.4380  139.4870 C   0  0  0  0  0  0  0  0  0  0  0  0
  141.3010  152.0900  137.1490 C   0  0  0  0  0  0  0  0  0  0  0  0
  142.2330  152.7010  136.5600 O   0  0  0  0  0  0  0  0  0  0  0  0
  140.6820  151.0280  136.4980 O   0  0  0  0  0  0  0  0  0  0  0  0
  141.0680  155.7350  136.4110 C   0  0  0  0  0  0  0  0  0  0  0  0
  140.7190  156.8060  135.5810 C   0  0  0  0  0  0  0  0  0  0  0  0
  141.3557  153.3158  134.6819 H   0  0  0  0  0  0  0  0  0  0  0  0
  140.4648  152.9099  133.1758 H   0  0  0  0  0  0  0  0  0  0  0  0
  142.2608  152.9426  133.1758 H   0  0  0  0  0  0  0  0  0  0  0  0
  138.4670  158.2000  130.8640 H   0  0  0  0  0  0  0  0  0  0  0  0
  138.3460  156.9240  132.1190 H   0  0  0  0  0  0  0  0  0  0  0  0
  140.1055  159.9981  135.0793 H   0  0  0  0  0  0  0  0  0  0  0  0
  140.9568  159.4334  137.7463 H   0  0  0  0  0  0  0  0  0  0  0  0
  141.6302  157.5549  139.2781 H   0  0  0  0  0  0  0  0  0  0  0  0
  142.6822  154.3966  138.3061 H   0  0  0  0  0  0  0  0  0  0  0  0
  141.9512  155.3084  139.6887 H   0  0  0  0  0  0  0  0  0  0  0  0
  140.7387  151.8670  140.4934 H   0  0  0  0  0  0  0  0  0  0  0  0
  139.5955  151.0687  139.3609 H   0  0  0  0  0  0  0  0  0  0  0  0
  141.3308  150.6047  139.3609 H   0  0  0  0  0  0  0  0  0  0  0  0
  141.0903  154.7059  136.0231 H   0  0  0  0  0  0  0  0  0  0  0  0
  1  2  1  0
  2  3  1  0
  3  4  2  0
  3  5  1  0
  5  6  1  0
  6  7  1  0
  7  8  1  0
  7  9  2  0
  6 10  2  0
 10 11  1  0
 11 12  2  0
 12 13  1  0
 13 14  2  0
 14 15  1  0
 15 16  1  0
 16 17  2  0
 16 18  1  0
 18 19  1  0
 18 20  1  0
 20 21  2  0
 20 22  1  0
 14 23  1  0
 23 24  2  0
 24  5  1  0
 24 11  1  0
  1 25  1  0
  1 26  1  0
  1 27  1  0
  8 28  1  0
  8 29  1  0
 10 30  1  0
 12 31  1  0
 13 32  1  0
 15 33  1  0
 15 34  1  0
 19 35  1  0
 19 36  1  0
 19 37  1  0
 23 38  1  0
M  CHG  1  22  -1
M  END
>  <UniqueID>  (54) 
54

>  <SMILES>  (54) 
COC(=O)n1c(C(N)=O)cc2ccc(CC(=O)N(C)C(=O)[O-])cc21

>  <Energy>  (54) 
76.05179753539929

>  <Genealogy>  (54) 
COC(=O)n1c(C(N)=O)cc2ccc(CC(=O)N(C)C(=O)[O-])cc21 (protonated)
COC(=O)n1c(C(N)=O)cc2ccc(CC(=O)N(C)C(=O)[O-])cc21 (3D coordinates assigned)
COC(=O)n1c(C(N)=O)cc2ccc(CC(=O)N(C)C(=O)[O-])cc21 (optimized conformer: 76.05179753539929 kcal/mol)

>  <smiles>  (54) 
COC(=O)n1c(C(N)=O)cc2ccc(CC(=O)N(C)C(=O)O)cc21

>  <score_type>  (54) 
oracle

>  <origin>  (54) 
adg

>  <m_score__min__energy>  (54) 
-6.7800000000000002

>  <m_primary>  (54) 
energy

$$$$
54:0
     RDKit          3D

 53 57  0  0  0  0  0  0  0  0999 V2000
  140.5450  149.6440  132.7220 C   0  0  0  0  0  0  0  0  0  0  0  0
  141.4010  150.2400  133.6890 O   0  0  0  0  0  0  0  0  0  0  0  0
  142.2980  151.2650  133.3750 C   0  0  0  0  0  0  0  0  0  0  0  0
  143.4080  150.9910  132.8370 O   0  0  0  0  0  0  0  0  0  0  0  0
  141.9490  152.6680  133.6810 C   0  0  0  0  0  0  0  0  0  0  0  0
  142.6100  153.3660  134.7230 C   0  0  0  0  0  0  0  0  0  0  0  0
  142.2630  154.6940  135.0080 C   0  0  0  0  0  0  0  0  0  0  0  0
  141.2820  155.2740  134.2670 N   0  0  0  0  0  0  0  0  0  0  0  0
  140.7260  156.5030  134.2830 C   0  0  0  0  0  0  0  0  0  0  0  0
  141.1450  157.6640  135.1660 C   0  0  0  0  0  0  0  0  0  0  0  0
  142.3440  158.3990  134.5720 C   0  0  0  0  0  0  0  0  0  0  0  0
  142.2950  159.7880  134.2730 C   0  0  0  0  0  0  0  0  0  0  0  0
  143.4140  160.4530  133.7460 C   0  0  0  0  0  0  0  0  0  0  0  0
  144.5800  159.7210  133.5570 C   0  0  0  0  0  0  0  0  0  0  0  0
  145.7900  160.1050  133.0280 C   0  0  0  0  0  0  0  0  0  0  0  0
  146.5890  158.9650  133.0670 C   0  0  0  0  0  0  0  0  0  0  0  0
  148.0040  158.9450  132.6420 C   0  0  0  0  0  0  0  0  0  0  0  0
  148.4280  158.1400  131.5440 N   0  0  0  0  0  0  0  0  0  0  0  0
  148.8560  159.6190  133.2800 O   0  0  0  0  0  0  0  0  0  0  0  0
  145.9000  157.9180  133.6000 N   0  0  0  0  0  0  0  0  0  0  0  0
  146.3320  156.5530  133.7150 C   0  0  0  0  0  0  0  0  0  0  0  0
  146.8280  155.9630  132.7160 O   0  0  0  0  0  0  0  0  0  0  0  0
  146.2270  155.8950  134.9450 O   0  0  0  0  0  0  0  0  0  0  0  0
  146.0200  154.4920  135.0500 C   0  0  0  0  0  0  0  0  0  0  0  0
  144.6710  158.3980  133.8930 C   0  0  0  0  0  0  0  0  0  0  0  0
  143.5700  157.7060  134.4070 C   0  0  0  0  0  0  0  0  0  0  0  0
  141.2410  157.2970  136.6630 C   0  0  0  0  0  0  0  0  0  0  0  0
  140.0690  158.2120  136.9800 C   0  0  0  0  0  0  0  0  0  0  0  0
  139.9710  158.6070  135.5170 C   0  0  0  0  0  0  0  0  0  0  0  0
  139.8050  156.6080  133.2950 N   0  0  0  0  0  0  0  0  0  0  0  0
  139.7490  155.4390  132.6650 N   0  0  0  0  0  0  0  0  0  0  0  0
  140.6490  154.6460  133.2670 C   0  0  0  0  0  0  0  0  0  0  0  0
  140.9480  153.3290  132.9330 C   0  0  0  0  0  0  0  0  0  0  0  0
  139.7457  149.0875  133.2333 H   0  0  0  0  0  0  0  0  0  0  0  0
  140.1004  150.4289  132.0924 H   0  0  0  0  0  0  0  0  0  0  0  0
  141.1269  148.9547  132.0924 H   0  0  0  0  0  0  0  0  0  0  0  0
  143.3955  152.8653  135.3081 H   0  0  0  0  0  0  0  0  0  0  0  0
  142.7705  155.2513  135.8091 H   0  0  0  0  0  0  0  0  0  0  0  0
  141.3674  160.3498  134.4570 H   0  0  0  0  0  0  0  0  0  0  0  0
  143.3689  161.5219  133.4903 H   0  0  0  0  0  0  0  0  0  0  0  0
  146.0678  161.1013  132.6535 H   0  0  0  0  0  0  0  0  0  0  0  0
  148.1250  157.1440  131.4590 H   0  0  0  0  0  0  0  0  0  0  0  0
  145.9778  154.2060  136.1113 H   0  0  0  0  0  0  0  0  0  0  0  0
  145.0725  154.2235  134.5599 H   0  0  0  0  0  0  0  0  0  0  0  0
  146.8496  153.9613  134.5599 H   0  0  0  0  0  0  0  0  0  0  0  0
  143.6535  156.6433  134.6784 H   0  0  0  0  0  0  0  0  0  0  0  0
  141.0487  156.2350  136.8756 H   0  0  0  0  0  0  0  0  0  0  0  0
  142.1939  157.4160  137.1995 H   0  0  0  0  0  0  0  0  0  0  0  0
  139.1814  157.6867  137.3625 H   0  0  0  0  0  0  0  0  0  0  0  0
  140.1638  158.9846  137.7572 H   0  0  0  0  0  0  0  0  0  0  0  0
  139.0182  158.3297  135.0424 H   0  0  0  0  0  0  0  0  0  0  0  0
  140.0110  159.6678  135.2287 H   0  0  0  0  0  0  0  0  0  0  0  0
  140.4222  152.8182  132.1129 H   0  0  0  0  0  0  0  0  0  0  0  0
  1  2  1  0
  2  3  1  0
  3  4  2  0
  3  5  1  0
  5  6  1  0
  6  7  2  0
  7  8  1  0
  8  9  1  0
  9 10  1  0
 10 11  1  0
 11 12  2  0
 12 13  1  0
 13 14  2  0
 14 15  1  0
 15 16  2  0
 16 17  1  0
 17 18  1  0
 17 19  2  0
 16 20  1  0
 20 21  1  0
 21 22  2  0
 21 23  1  0
 23 24  1  0
 20 25  1  0
 25 26  2  0
 10 27  1  0
 27 28  1  0
 28 29  1  0
  9 30  2  0
 30 31  1  0
 31 32  2  0
 32 33  1  0
 33  5  2  0
 32  8  1  0
 29 10  1  0
 26 11  1  0
 25 14  1  0
  1 34  1  0
  1 35  1  0
  1 36  1  0
  6 37  1  0
  7 38  1  0
 12 39  1  0
 13 40  1  0
 15 41  1  0
 18 42  1  0
 24 43  1  0
 24 44  1  0
 24 45  1  0
 26 46  1  0
 27 47  1  0
 27 48  1  0
 28 49  1  0
 28 50  1  0
 29 51  1  0
 29 52  1  0
 33 53  1  0
M  CHG  1  18  -1
M  END
>  <UniqueID>  (55) 
55

>  <SMILES>  (55) 
COC(=O)c1ccn2c(C3(c4ccc5cc(C([NH-])=O)n(C(=O)OC)c5c4)CCC3)nnc2c1

>  <Energy>  (55) 
199.1352898769306

>  <Genealogy>  (55) 
COC(=O)c1ccn2c(C3(c4ccc5cc(C([NH-])=O)n(C(=O)OC)c5c4)CCC3)nnc2c1 (protonated)
COC(=O)c1ccn2c(C3(c4ccc5cc(C([NH-])=O)n(C(=O)OC)c5c4)CCC3)nnc2c1 (3D coordinates assigned)
COC(=O)c1ccn2c(C3(c4ccc5cc(C([NH-])=O)n(C(=O)OC)c5c4)CCC3)nnc2c1 (nonaromatic ring conformer: 199.1352898769306 kcal/mol)

>  <smiles>  (55) 
COC(=O)c1ccn2c(C3(c4ccc5cc(C(N)=O)n(C(=O)OC)c5c4)CCC3)nnc2c1

>  <score_type>  (55) 
oracle

>  <origin>  (55) 
adg

>  <m_score__min__energy>  (55) 
-8.8499999999999996

>  <m_primary>  (55) 
energy

$$$$
55:0
     RDKit          3D

 35 36  0  0  0  0  0  0  0  0999 V2000
  140.8830  159.9960  136.2210 N   0  0  0  0  0  0  0  0  0  0  0  0
  141.3710  159.7460  134.9040 C   0  0  0  0  0  0  0  0  0  0  0  0
  141.5210  160.7100  134.1090 O   0  0  0  0  0  0  0  0  0  0  0  0
  141.6570  158.3610  134.4770 C   0  0  0  0  0  0  0  0  0  0  0  0
  142.9400  157.8820  134.2180 C   0  0  0  0  0  0  0  0  0  0  0  0
  142.7840  156.5420  133.9510 C   0  0  0  0  0  0  0  0  0  0  0  0
  143.7310  155.5750  133.6240 C   0  0  0  0  0  0  0  0  0  0  0  0
  143.2790  154.2660  133.3810 C   0  0  0  0  0  0  0  0  0  0  0  0
  141.9010  153.9570  133.4650 C   0  0  0  0  0  0  0  0  0  0  0  0
  141.4510  152.6170  133.2050 C   0  0  0  0  0  0  0  0  0  0  0  0
  141.0720  151.4920  132.9890 C   0  0  0  0  0  0  0  0  0  0  0  0
  140.6080  150.1130  132.7230 C   0  0  0  0  0  0  0  0  0  0  0  0
  140.2360  149.5040  133.9380 O   0  0  0  0  0  0  0  0  0  0  0  0
  139.3930  150.1530  131.7600 C   0  0  0  0  0  0  0  0  0  0  0  0
  138.8380  148.8900  131.6350 F   0  0  0  0  0  0  0  0  0  0  0  0
  138.4150  151.0110  132.2350 F   0  0  0  0  0  0  0  0  0  0  0  0
  139.7880  150.5780  130.5050 F   0  0  0  0  0  0  0  0  0  0  0  0
  141.7800  149.3040  132.1240 C   0  0  0  0  0  0  0  0  0  0  0  0
  141.5050  148.9180  130.8220 F   0  0  0  0  0  0  0  0  0  0  0  0
  142.9300  150.0750  132.1180 F   0  0  0  0  0  0  0  0  0  0  0  0
  142.0230  148.1710  132.8820 F   0  0  0  0  0  0  0  0  0  0  0  0
  140.9670  154.9590  133.7980 C   0  0  0  0  0  0  0  0  0  0  0  0
  141.4470  156.2490  134.0480 C   0  0  0  0  0  0  0  0  0  0  0  0
  140.7420  157.3570  134.3650 N   0  0  0  0  0  0  0  0  0  0  0  0
  139.3140  157.4430  134.4920 C   0  0  0  0  0  0  0  0  0  0  0  0
  138.7250  158.2650  135.5010 N   0  0  0  0  0  0  0  0  0  0  0  0
  138.5720  156.8170  133.6900 O   0  0  0  0  0  0  0  0  0  0  0  0
  139.8590  160.0830  136.4060 H   0  0  0  0  0  0  0  0  0  0  0  0
  143.8791  158.4548  134.2256 H   0  0  0  0  0  0  0  0  0  0  0  0
  144.7996  155.8274  133.5578 H   0  0  0  0  0  0  0  0  0  0  0  0
  144.0013  153.4772  133.1240 H   0  0  0  0  0  0  0  0  0  0  0  0
  140.2050  148.5200  133.8000 H   0  0  0  0  0  0  0  0  0  0  0  0
  139.8922  154.7331  133.8595 H   0  0  0  0  0  0  0  0  0  0  0  0
  137.6880  158.3140  135.6020 H   0  0  0  0  0  0  0  0  0  0  0  0
  139.3250  158.8550  136.1200 H   0  0  0  0  0  0  0  0  0  0  0  0
  1  2  1  0
  2  3  2  0
  2  4  1  0
  4  5  2  0
  5  6  1  0
  6  7  2  0
  7  8  1  0
  8  9  2  0
  9 10  1  0
 10 11  3  0
 11 12  1  0
 12 13  1  0
 12 14  1  0
 14 15  1  0
 14 16  1  0
 14 17  1  0
 12 18  1  0
 18 19  1  0
 18 20  1  0
 18 21  1  0
  9 22  1  0
 22 23  2  0
 23 24  1  0
 24 25  1  0
 25 26  1  0
 25 27  2  0
 24  4  1  0
 23  6  1  0
  1 28  1  0
  5 29  1  0
  7 30  1  0
  8 31  1  0
 13 32  1  0
 22 33  1  0
 26 34  1  0
 26 35  1  0
M  CHG  1   1  -1
M  END
>  <UniqueID>  (56) 
56

>  <SMILES>  (56) 
[NH-]C(=O)c1cc2ccc(C#CC(O)(C(F)(F)F)C(F)(F)F)cc2n1C(N)=O

>  <Energy>  (56) 
69.80481036676434

>  <Genealogy>  (56) 
[NH-]C(=O)c1cc2ccc(C#CC(O)(C(F)(F)F)C(F)(F)F)cc2n1C(N)=O (protonated)
[NH-]C(=O)c1cc2ccc(C#CC(O)(C(F)(F)F)C(F)(F)F)cc2n1C(N)=O (3D coordinates assigned)
[NH-]C(=O)c1cc2ccc(C#CC(O)(C(F)(F)F)C(F)(F)F)cc2n1C(N)=O (optimized conformer: 69.80481036676434 kcal/mol)

>  <smiles>  (56) 
NC(=O)c1cc2ccc(C#CC(O)(C(F)(F)F)C(F)(F)F)cc2n1C(N)=O

>  <score_type>  (56) 
oracle

>  <origin>  (56) 
adg

>  <m_score__min__energy>  (56) 
-6.8799999999999999

>  <m_primary>  (56) 
energy

$$$$
56:0
     RDKit          3D

 39 40  0  0  0  0  0  0  0  0999 V2000
  149.6030  158.1360  132.1290 C   0  0  0  0  0  0  0  0  0  0  0  0
  148.5070  159.1330  132.5360 C   0  0  1  0  0  0  0  0  0  0  0  0
  148.1590  160.1110  131.3970 C   0  0  0  0  0  0  0  0  0  0  0  0
  149.3850  160.5970  130.7180 N   0  0  0  0  0  0  0  0  0  0  0  0
  149.2810  162.0240  130.3760 C   0  0  0  0  0  0  0  0  0  0  0  0
  149.6790  159.8110  129.5090 C   0  0  0  0  0  0  0  0  0  0  0  0
  147.2670  158.4420  133.0800 C   0  0  0  0  0  0  0  0  0  0  0  0
  145.9980  159.0530  132.9060 C   0  0  0  0  0  0  0  0  0  0  0  0
  144.8290  158.4320  133.3730 C   0  0  0  0  0  0  0  0  0  0  0  0
  144.9510  157.1910  133.9890 C   0  0  0  0  0  0  0  0  0  0  0  0
  143.9860  156.3850  134.5480 C   0  0  0  0  0  0  0  0  0  0  0  0
  144.6700  155.2670  135.0160 C   0  0  0  0  0  0  0  0  0  0  0  0
  143.9990  154.1080  135.6400 C   0  0  0  0  0  0  0  0  0  0  0  0
  144.3140  153.7000  136.9720 N   0  0  0  0  0  0  0  0  0  0  0  0
  143.1750  153.4340  134.9670 O   0  0  0  0  0  0  0  0  0  0  0  0
  146.0060  155.3790  134.7700 N   0  0  0  0  0  0  0  0  0  0  0  0
  147.0500  154.4860  135.1910 C   0  0  0  0  0  0  0  0  0  0  0  0
  148.1050  154.3750  134.5110 O   0  0  0  0  0  0  0  0  0  0  0  0
  146.9110  153.7340  136.3520 O   0  0  0  0  0  0  0  0  0  0  0  0
  146.1600  156.5660  134.1390 C   0  0  0  0  0  0  0  0  0  0  0  0
  147.3450  157.1740  133.7090 C   0  0  0  0  0  0  0  0  0  0  0  0
  150.0677  157.7132  133.0319 H   0  0  0  0  0  0  0  0  0  0  0  0
  149.1586  157.3261  131.5318 H   0  0  0  0  0  0  0  0  0  0  0  0
  150.3673  158.6549  131.5318 H   0  0  0  0  0  0  0  0  0  0  0  0
  148.9253  159.7304  133.3595 H   0  0  0  0  0  0  0  0  0  0  0  0
  147.5219  159.5958  130.6630 H   0  0  0  0  0  0  0  0  0  0  0  0
  147.6316  160.9752  131.8271 H   0  0  0  0  0  0  0  0  0  0  0  0
  149.2376  162.6201  131.2994 H   0  0  0  0  0  0  0  0  0  0  0  0
  150.1596  162.3247  129.7864 H   0  0  0  0  0  0  0  0  0  0  0  0
  148.3681  162.1942  129.7864 H   0  0  0  0  0  0  0  0  0  0  0  0
  150.0507  158.8172  129.7992 H   0  0  0  0  0  0  0  0  0  0  0  0
  148.7618  159.6995  128.9121 H   0  0  0  0  0  0  0  0  0  0  0  0
  150.4442  160.3288  128.9121 H   0  0  0  0  0  0  0  0  0  0  0  0
  145.9296  160.0264  132.3983 H   0  0  0  0  0  0  0  0  0  0  0  0
  143.8464  158.9122  133.2554 H   0  0  0  0  0  0  0  0  0  0  0  0
  142.9056  156.5821  134.6114 H   0  0  0  0  0  0  0  0  0  0  0  0
  145.1110  154.1270  137.4920 H   0  0  0  0  0  0  0  0  0  0  0  0
  143.8020  152.9030  137.4100 H   0  0  0  0  0  0  0  0  0  0  0  0
  148.3161  156.6786  133.8560 H   0  0  0  0  0  0  0  0  0  0  0  0
  1  2  1  0
  2  3  1  0
  3  4  1  0
  4  5  1  0
  4  6  1  0
  2  7  1  0
  7  8  2  0
  8  9  1  0
  9 10  2  0
 10 11  1  0
 11 12  2  0
 12 13  1  0
 13 14  1  0
 13 15  2  0
 12 16  1  0
 16 17  1  0
 17 18  2  0
 17 19  1  0
 16 20  1  0
 20 21  2  0
 21  7  1  0
 20 10  1  0
  1 22  1  0
  1 23  1  0
  1 24  1  0
  2 25  1  1
  3 26  1  0
  3 27  1  0
  5 28  1  0
  5 29  1  0
  5 30  1  0
  6 31  1  0
  6 32  1  0
  6 33  1  0
  8 34  1  0
  9 35  1  0
 11 36  1  0
 14 37  1  0
 14 38  1  0
 21 39  1  0
M  CHG  1  19  -1
M  END
>  <UniqueID>  (57) 
57

>  <SMILES>  (57) 
C[C@@H](CN(C)C)c1ccc2cc(C(N)=O)n(C(=O)[O-])c2c1

>  <Energy>  (57) 
78.48704466759757

>  <Genealogy>  (57) 
CC(CN(C)C)c1ccc2cc(C(N)=O)n(C(=O)[O-])c2c1 (protonated)
C[C@@H](CN(C)C)c1ccc2cc(C(N)=O)n(C(=O)[O-])c2c1 (chirality)
C[C@@H](CN(C)C)c1ccc2cc(C(N)=O)n(C(=O)[O-])c2c1 (3D coordinates assigned)
C[C@@H](CN(C)C)c1ccc2cc(C(N)=O)n(C(=O)[O-])c2c1 (optimized conformer: 78.48704466759757 kcal/mol)

>  <smiles>  (57) 
CC(CN(C)C)c1ccc2cc(C(N)=O)n(C(=O)O)c2c1

>  <score_type>  (57) 
oracle

>  <origin>  (57) 
adg

>  <m_score__min__energy>  (57) 
-6.79

>  <m_primary>  (57) 
energy

$$$$
57:0
     RDKit          3D

 34 36  0  0  0  0  0  0  0  0999 V2000
  148.4840  157.7180  134.2200 N   0  0  0  0  0  0  0  0  0  0  0  0
  147.9410  158.8860  133.6050 C   0  0  0  0  0  0  0  0  0  0  0  0
  148.7180  159.7120  133.0560 O   0  0  0  0  0  0  0  0  0  0  0  0
  146.4940  159.1750  133.6570 C   0  0  0  0  0  0  0  0  0  0  0  0
  145.9680  160.4610  133.5820 C   0  0  0  0  0  0  0  0  0  0  0  0
  144.6100  160.3080  133.7340 C   0  0  0  0  0  0  0  0  0  0  0  0
  143.5980  161.2630  133.7340 C   0  0  0  0  0  0  0  0  0  0  0  0
  142.2730  160.8190  133.8790 C   0  0  0  0  0  0  0  0  0  0  0  0
  141.9850  159.4370  134.0040 C   0  0  0  0  0  0  0  0  0  0  0  0
  140.5660  158.9760  134.1840 C   0  0  0  0  0  0  0  0  0  0  0  0
  139.7730  159.2530  132.9420 C   0  0  0  0  0  0  0  0  0  0  0  0
  139.1100  158.2160  132.2680 C   0  0  0  0  0  0  0  0  0  0  0  0
  138.4130  158.5000  131.0920 C   0  0  0  0  0  0  0  0  0  0  0  0
  138.3890  159.8040  130.5960 C   0  0  0  0  0  0  0  0  0  0  0  0
  139.0700  160.8100  131.2850 C   0  0  0  0  0  0  0  0  0  0  0  0
  139.7440  160.5150  132.4290 N   0  0  0  0  0  0  0  0  0  0  0  0
  143.0390  158.4970  134.0080 C   0  0  0  0  0  0  0  0  0  0  0  0
  144.3520  158.9680  133.8830 C   0  0  0  0  0  0  0  0  0  0  0  0
  145.5020  158.2570  133.8360 N   0  0  0  0  0  0  0  0  0  0  0  0
  145.6320  156.8250  133.8390 C   0  0  0  0  0  0  0  0  0  0  0  0
  145.0990  156.1330  132.9330 O   0  0  0  0  0  0  0  0  0  0  0  0
  146.3560  156.1890  134.8410 O   0  0  0  0  0  0  0  0  0  0  0  0
  147.8930  157.1020  134.8220 H   0  0  0  0  0  0  0  0  0  0  0  0
  149.5030  157.5110  134.1430 H   0  0  0  0  0  0  0  0  0  0  0  0
  146.5209  161.4002  133.4329 H   0  0  0  0  0  0  0  0  0  0  0  0
  143.8284  162.3329  133.6238 H   0  0  0  0  0  0  0  0  0  0  0  0
  141.4517  161.5506  133.8957 H   0  0  0  0  0  0  0  0  0  0  0  0
  140.5576  157.8950  134.3875 H   0  0  0  0  0  0  0  0  0  0  0  0
  140.1152  159.5191  135.0277 H   0  0  0  0  0  0  0  0  0  0  0  0
  139.1391  157.1895  132.6623 H   0  0  0  0  0  0  0  0  0  0  0  0
  137.8838  157.6973  130.5575 H   0  0  0  0  0  0  0  0  0  0  0  0
  137.8395  160.0372  129.6720 H   0  0  0  0  0  0  0  0  0  0  0  0
  139.0613  161.8413  130.9024 H   0  0  0  0  0  0  0  0  0  0  0  0
  142.8336  157.4209  134.1069 H   0  0  0  0  0  0  0  0  0  0  0  0
  1  2  1  0
  2  3  2  0
  2  4  1  0
  4  5  2  0
  5  6  1  0
  6  7  2  0
  7  8  1  0
  8  9  2  0
  9 10  1  0
 10 11  1  0
 11 12  2  0
 12 13  1  0
 13 14  2  0
 14 15  1  0
 15 16  2  0
  9 17  1  0
 17 18  2  0
 18 19  1  0
 19 20  1  0
 20 21  2  0
 20 22  1  0
 19  4  1  0
 18  6  1  0
 16 11  1  0
  1 23  1  0
  1 24  1  0
  5 25  1  0
  7 26  1  0
  8 27  1  0
 10 28  1  0
 10 29  1  0
 12 30  1  0
 13 31  1  0
 14 32  1  0
 15 33  1  0
 17 34  1  0
M  CHG  1  22  -1
M  END
>  <UniqueID>  (58) 
58

>  <SMILES>  (58) 
NC(=O)c1cc2ccc(Cc3ccccn3)cc2n1C(=O)[O-]

>  <Energy>  (58) 
75.75293368442215

>  <Genealogy>  (58) 
NC(=O)c1cc2ccc(Cc3ccccn3)cc2n1C(=O)[O-] (protonated)
NC(=O)c1cc2ccc(Cc3ccccn3)cc2n1C(=O)[O-] (3D coordinates assigned)
NC(=O)c1cc2ccc(Cc3ccccn3)cc2n1C(=O)[O-] (optimized conformer: 75.75293368442215 kcal/mol)

>  <smiles>  (58) 
NC(=O)c1cc2ccc(Cc3ccccn3)cc2n1C(=O)O

>  <score_type>  (58) 
oracle

>  <origin>  (58) 
adg

>  <m_score__min__energy>  (58) 
-7.4400000000000004

>  <m_primary>  (58) 
energy

$$$$
58:0
     RDKit          3D

 56 59  0  0  0  0  0  0  0  0999 V2000
  151.0990  149.1740  129.2920 C   0  0  0  0  0  0  0  0  0  0  0  0
  151.4540  150.1690  130.2450 O   0  0  0  0  0  0  0  0  0  0  0  0
  150.6280  150.5120  131.3190 C   0  0  0  0  0  0  0  0  0  0  0  0
  151.1190  150.7760  132.4510 O   0  0  0  0  0  0  0  0  0  0  0  0
  149.1440  150.5220  131.1310 C   0  0  0  0  0  0  0  0  0  0  0  0
  148.4390  150.8430  132.4510 C   0  0  0  0  0  0  0  0  0  0  0  0
  148.1970  152.3230  132.5770 C   0  0  0  0  0  0  0  0  0  0  0  0
  149.2660  153.2260  132.4760 C   0  0  0  0  0  0  0  0  0  0  0  0
  149.0480  154.5990  132.6150 C   0  0  0  0  0  0  0  0  0  0  0  0
  147.7560  155.0960  132.8660 C   0  0  0  0  0  0  0  0  0  0  0  0
  147.5240  156.5570  133.0040 C   0  0  0  0  0  0  0  0  0  0  0  0
  148.6170  157.4630  132.9560 C   0  0  0  0  0  0  0  0  0  0  0  0
  148.4130  158.8460  133.0840 C   0  0  0  0  0  0  0  0  0  0  0  0
  147.1110  159.2990  133.2640 C   0  0  0  0  0  0  0  0  0  0  0  0
  146.6320  160.5820  133.4030 C   0  0  0  0  0  0  0  0  0  0  0  0
  145.2530  160.4460  133.5560 C   0  0  0  0  0  0  0  0  0  0  0  0
  144.3490  161.5790  133.8430 C   0  0  0  0  0  0  0  0  0  0  0  0
  142.9380  161.4520  133.6750 N   0  0  0  0  0  0  0  0  0  0  0  0
  144.8230  162.6580  134.2880 O   0  0  0  0  0  0  0  0  0  0  0  0
  144.8950  159.1310  133.4990 N   0  0  0  0  0  0  0  0  0  0  0  0
  143.5720  158.5810  133.5520 C   0  0  0  0  0  0  0  0  0  0  0  0
  143.1530  157.8530  132.6110 O   0  0  0  0  0  0  0  0  0  0  0  0
  142.7500  158.8590  134.6510 O   0  0  0  0  0  0  0  0  0  0  0  0
  141.4460  158.3050  134.8080 C   0  0  0  0  0  0  0  0  0  0  0  0
  140.5650  158.7080  133.6650 C   0  0  0  0  0  0  0  0  0  0  0  0
  140.4490  159.9320  133.2050 O   0  0  0  0  0  0  0  0  0  0  0  0
  139.5820  159.8660  132.2210 C   0  0  0  0  0  0  0  0  0  0  0  0
  139.2180  160.8620  131.5420 O   0  0  0  0  0  0  0  0  0  0  0  0
  139.1300  158.6470  132.0240 O   0  0  0  0  0  0  0  0  0  0  0  0
  139.7340  157.8940  132.9140 C   0  0  0  0  0  0  0  0  0  0  0  0
  139.5070  156.4270  133.0810 C   0  0  0  0  0  0  0  0  0  0  0  0
  146.0440  158.4420  133.3270 C   0  0  0  0  0  0  0  0  0  0  0  0
  146.2130  157.0610  133.1870 C   0  0  0  0  0  0  0  0  0  0  0  0
  146.6890  154.1860  132.9840 C   0  0  0  0  0  0  0  0  0  0  0  0
  146.9100  152.8120  132.8450 C   0  0  0  0  0  0  0  0  0  0  0  0
  150.7741  148.2633  129.8165 H   0  0  0  0  0  0  0  0  0  0  0  0
  150.2783  149.5465  128.6614 H   0  0  0  0  0  0  0  0  0  0  0  0
  151.9701  148.9429  128.6614 H   0  0  0  0  0  0  0  0  0  0  0  0
  148.8788  151.2847  130.3841 H   0  0  0  0  0  0  0  0  0  0  0  0
  148.8220  149.5277  130.7881 H   0  0  0  0  0  0  0  0  0  0  0  0
  147.4745  150.3151  132.4832 H   0  0  0  0  0  0  0  0  0  0  0  0
  149.0798  150.5167  133.2834 H   0  0  0  0  0  0  0  0  0  0  0  0
  150.2824  152.8506  132.2861 H   0  0  0  0  0  0  0  0  0  0  0  0
  149.8935  155.2972  132.5275 H   0  0  0  0  0  0  0  0  0  0  0  0
  149.6371  157.0756  132.8166 H   0  0  0  0  0  0  0  0  0  0  0  0
  149.2575  159.5497  133.0431 H   0  0  0  0  0  0  0  0  0  0  0  0
  147.2135  161.5157  133.3950 H   0  0  0  0  0  0  0  0  0  0  0  0
  142.5150  160.5610  133.3310 H   0  0  0  0  0  0  0  0  0  0  0  0
  141.5198  157.2079  134.8391 H   0  0  0  0  0  0  0  0  0  0  0  0
  141.0092  158.6817  135.7446 H   0  0  0  0  0  0  0  0  0  0  0  0
  139.4690  156.1815  134.1526 H   0  0  0  0  0  0  0  0  0  0  0  0
  138.5548  156.1470  132.6067 H   0  0  0  0  0  0  0  0  0  0  0  0
  140.3300  155.8723  132.6067 H   0  0  0  0  0  0  0  0  0  0  0  0
  145.3481  156.3820  133.2182 H   0  0  0  0  0  0  0  0  0  0  0  0
  145.6739  154.5580  133.1870 H   0  0  0  0  0  0  0  0  0  0  0  0
  146.0690  152.1103  132.9465 H   0  0  0  0  0  0  0  0  0  0  0  0
  1  2  1  0
  2  3  1  0
  3  4  2  0
  3  5  1  0
  5  6  1  0
  6  7  1  0
  7  8  2  0
  8  9  1  0
  9 10  2  0
 10 11  1  0
 11 12  2  0
 12 13  1  0
 13 14  2  0
 14 15  1  0
 15 16  2  0
 16 17  1  0
 17 18  1  0
 17 19  2  0
 16 20  1  0
 20 21  1  0
 21 22  2  0
 21 23  1  0
 23 24  1  0
 24 25  1  0
 25 26  1  0
 26 27  1  0
 27 28  2  0
 27 29  1  0
 29 30  1  0
 30 31  1  0
 20 32  1  0
 32 33  2  0
 10 34  1  0
 34 35  2  0
 35  7  1  0
 33 11  1  0
 32 14  1  0
 30 25  2  0
  1 36  1  0
  1 37  1  0
  1 38  1  0
  5 39  1  0
  5 40  1  0
  6 41  1  0
  6 42  1  0
  8 43  1  0
  9 44  1  0
 12 45  1  0
 13 46  1  0
 15 47  1  0
 18 48  1  0
 24 49  1  0
 24 50  1  0
 31 51  1  0
 31 52  1  0
 31 53  1  0
 33 54  1  0
 34 55  1  0
 35 56  1  0
M  CHG  1  18  -1
M  END
>  <UniqueID>  (59) 
59

>  <SMILES>  (59) 
COC(=O)CCc1ccc(-c2ccc3cc(C([NH-])=O)n(C(=O)OCc4oc(=O)oc4C)c3c2)cc1

>  <Energy>  (59) 
127.14941875704578

>  <Genealogy>  (59) 
COC(=O)CCc1ccc(-c2ccc3cc(C([NH-])=O)n(C(=O)OCc4oc(=O)oc4C)c3c2)cc1 (protonated)
COC(=O)CCc1ccc(-c2ccc3cc(C([NH-])=O)n(C(=O)OCc4oc(=O)oc4C)c3c2)cc1 (3D coordinates assigned)
COC(=O)CCc1ccc(-c2ccc3cc(C([NH-])=O)n(C(=O)OCc4oc(=O)oc4C)c3c2)cc1 (optimized conformer: 127.14941875704578 kcal/mol)

>  <smiles>  (59) 
COC(=O)CCc1ccc(-c2ccc3cc(C(N)=O)n(C(=O)OCc4oc(=O)oc4C)c3c2)cc1

>  <score_type>  (59) 
oracle

>  <origin>  (59) 
adg

>  <m_score__min__energy>  (59) 
-9.75

>  <m_primary>  (59) 
energy

$$$$
59:0
     RDKit          3D

 44 45  0  0  0  0  0  0  0  0999 V2000
  141.0290  159.3450  136.7370 C   0  0  0  0  0  0  0  0  0  0  0  0
  141.4340  158.6320  135.4330 C   0  0  0  0  0  0  0  0  0  0  0  0
  141.0920  157.1320  135.5050 C   0  0  0  0  0  0  0  0  0  0  0  0
  140.6620  159.2630  134.2630 C   0  0  0  0  0  0  0  0  0  0  0  0
  142.8310  158.8180  135.1660 O   0  0  0  0  0  0  0  0  0  0  0  0
  143.5080  158.4640  133.9880 C   0  0  0  0  0  0  0  0  0  0  0  0
  142.9340  157.7960  133.0880 O   0  0  0  0  0  0  0  0  0  0  0  0
  144.8650  158.8920  133.8000 N   0  0  0  0  0  0  0  0  0  0  0  0
  145.3220  160.1670  133.6510 C   0  0  0  0  0  0  0  0  0  0  0  0
  144.5290  161.4000  133.8270 C   0  0  0  0  0  0  0  0  0  0  0  0
  143.1080  161.3780  133.7250 N   0  0  0  0  0  0  0  0  0  0  0  0
  145.1100  162.4790  134.1200 O   0  0  0  0  0  0  0  0  0  0  0  0
  146.6890  160.1660  133.3780 C   0  0  0  0  0  0  0  0  0  0  0  0
  147.0580  158.8410  133.3720 C   0  0  0  0  0  0  0  0  0  0  0  0
  148.3010  158.2610  133.1490 C   0  0  0  0  0  0  0  0  0  0  0  0
  148.3920  156.8600  133.1740 C   0  0  0  0  0  0  0  0  0  0  0  0
  147.2390  156.0490  133.3960 C   0  0  0  0  0  0  0  0  0  0  0  0
  147.3110  154.5150  133.4560 C   0  0  0  0  0  0  0  0  0  0  0  0
  148.6030  154.0410  132.7670 C   0  0  0  0  0  0  0  0  0  0  0  0
  146.1060  153.8160  132.7910 C   0  0  0  0  0  0  0  0  0  0  0  0
  147.3380  154.0810  134.8690 C   0  0  0  0  0  0  0  0  0  0  0  0
  147.3600  153.7410  135.9750 N   0  0  0  0  0  0  0  0  0  0  0  0
  145.9960  156.6950  133.6390 C   0  0  0  0  0  0  0  0  0  0  0  0
  145.9430  158.0920  133.6270 C   0  0  0  0  0  0  0  0  0  0  0  0
  141.3662  158.7513  137.5995 H   0  0  0  0  0  0  0  0  0  0  0  0
  141.4967  160.3400  136.7714 H   0  0  0  0  0  0  0  0  0  0  0  0
  139.9348  159.4528  136.7714 H   0  0  0  0  0  0  0  0  0  0  0  0
  141.0214  156.8222  136.5581 H   0  0  0  0  0  0  0  0  0  0  0  0
  140.1295  156.9509  135.0042 H   0  0  0  0  0  0  0  0  0  0  0  0
  141.8809  156.5516  135.0042 H   0  0  0  0  0  0  0  0  0  0  0  0
  139.8667  159.9130  134.6566 H   0  0  0  0  0  0  0  0  0  0  0  0
  141.3518  159.8592  133.6476 H   0  0  0  0  0  0  0  0  0  0  0  0
  140.2150  158.4683  133.6476 H   0  0  0  0  0  0  0  0  0  0  0  0
  142.5770  160.4840  133.8060 H   0  0  0  0  0  0  0  0  0  0  0  0
  147.3351  161.0391  133.2043 H   0  0  0  0  0  0  0  0  0  0  0  0
  149.1887  158.8820  132.9583 H   0  0  0  0  0  0  0  0  0  0  0  0
  149.3692  156.3792  133.0197 H   0  0  0  0  0  0  0  0  0  0  0  0
  149.3467  153.7682  133.5302 H   0  0  0  0  0  0  0  0  0  0  0  0
  148.3835  153.1648  132.1392 H   0  0  0  0  0  0  0  0  0  0  0  0
  149.0022  154.8512  132.1392 H   0  0  0  0  0  0  0  0  0  0  0  0
  145.4333  153.4258  133.5690 H   0  0  0  0  0  0  0  0  0  0  0  0
  145.5623  154.5389  132.1651 H   0  0  0  0  0  0  0  0  0  0  0  0
  146.4637  152.9852  132.1651 H   0  0  0  0  0  0  0  0  0  0  0  0
  145.0889  156.1040  133.8337 H   0  0  0  0  0  0  0  0  0  0  0  0
  1  2  1  0
  2  3  1  0
  2  4  1  0
  2  5  1  0
  5  6  1  0
  6  7  2  0
  6  8  1  0
  8  9  1  0
  9 10  1  0
 10 11  1  0
 10 12  2  0
  9 13  2  0
 13 14  1  0
 14 15  2  0
 15 16  1  0
 16 17  2  0
 17 18  1  0
 18 19  1  0
 18 20  1  0
 18 21  1  0
 21 22  3  0
 17 23  1  0
 23 24  2  0
 24  8  1  0
 24 14  1  0
  1 25  1  0
  1 26  1  0
  1 27  1  0
  3 28  1  0
  3 29  1  0
  3 30  1  0
  4 31  1  0
  4 32  1  0
  4 33  1  0
 11 34  1  0
 13 35  1  0
 15 36  1  0
 16 37  1  0
 19 38  1  0
 19 39  1  0
 19 40  1  0
 20 41  1  0
 20 42  1  0
 20 43  1  0
 23 44  1  0
M  CHG  1  11  -1
M  END
>  <UniqueID>  (60) 
60

>  <SMILES>  (60) 
CC(C)(C)OC(=O)n1c(C([NH-])=O)cc2ccc(C(C)(C)C#N)cc21

>  <Energy>  (60) 
78.87710190723446

>  <Genealogy>  (60) 
CC(C)(C)OC(=O)n1c(C([NH-])=O)cc2ccc(C(C)(C)C#N)cc21 (protonated)
CC(C)(C)OC(=O)n1c(C([NH-])=O)cc2ccc(C(C)(C)C#N)cc21 (3D coordinates assigned)
CC(C)(C)OC(=O)n1c(C([NH-])=O)cc2ccc(C(C)(C)C#N)cc21 (optimized conformer: 78.87710190723446 kcal/mol)

>  <smiles>  (60) 
CC(C)(C)OC(=O)n1c(C(N)=O)cc2ccc(C(C)(C)C#N)cc21

>  <score_type>  (60) 
oracle

>  <origin>  (60) 
adg

>  <m_score__min__energy>  (60) 
-7.4800000000000004

>  <m_primary>  (60) 
energy

$$$$
60:0
     RDKit          3D

 51 53  0  0  0  0  0  0  0  0999 V2000
  149.8540  151.1300  131.4770 C   0  0  0  0  0  0  0  0  0  0  0  0
  148.8520  151.0140  132.6340 C   0  0  0  0  0  0  0  0  0  0  0  0
  149.5950  151.2640  133.9600 C   0  0  0  0  0  0  0  0  0  0  0  0
  148.2300  149.6050  132.6150 C   0  0  0  0  0  0  0  0  0  0  0  0
  147.8440  152.0130  132.4240 O   0  0  0  0  0  0  0  0  0  0  0  0
  147.9560  153.3790  132.7200 C   0  0  0  0  0  0  0  0  0  0  0  0
  149.0430  153.9930  132.5440 O   0  0  0  0  0  0  0  0  0  0  0  0
  146.8150  154.0900  133.2270 N   0  0  0  0  0  0  0  0  0  0  0  0
  146.7670  155.3810  133.6600 C   0  0  0  0  0  0  0  0  0  0  0  0
  147.9290  156.2700  133.8590 C   0  0  0  0  0  0  0  0  0  0  0  0
  148.8310  156.5600  132.7900 N   0  0  0  0  0  0  0  0  0  0  0  0
  148.1610  156.7380  135.0060 O   0  0  0  0  0  0  0  0  0  0  0  0
  145.4560  155.7560  133.9470 C   0  0  0  0  0  0  0  0  0  0  0  0
  144.6950  154.6390  133.6870 C   0  0  0  0  0  0  0  0  0  0  0  0
  143.3200  154.4500  133.7930 C   0  0  0  0  0  0  0  0  0  0  0  0
  142.7990  153.1960  133.4340 C   0  0  0  0  0  0  0  0  0  0  0  0
  143.6520  152.1680  132.9610 C   0  0  0  0  0  0  0  0  0  0  0  0
  143.0830  150.8120  132.6330 C   0  0  0  0  0  0  0  0  0  0  0  0
  141.6780  150.6270  133.2220 C   0  0  0  0  0  0  0  0  0  0  0  0
  140.7730  149.8680  132.2850 C   0  0  0  0  0  0  0  0  0  0  0  0
  139.4120  150.2020  132.1880 C   0  0  0  0  0  0  0  0  0  0  0  0
  138.5810  149.5190  131.2960 C   0  0  0  0  0  0  0  0  0  0  0  0
  139.1040  148.5080  130.4850 C   0  0  0  0  0  0  0  0  0  0  0  0
  140.4600  148.1800  130.5640 C   0  0  0  0  0  0  0  0  0  0  0  0
  141.2930  148.8550  131.4600 C   0  0  0  0  0  0  0  0  0  0  0  0
  145.0410  152.3970  132.8650 C   0  0  0  0  0  0  0  0  0  0  0  0
  145.5380  153.6470  133.2530 C   0  0  0  0  0  0  0  0  0  0  0  0
  150.8699  151.2476  131.8821 H   0  0  0  0  0  0  0  0  0  0  0  0
  149.8084  150.2206  130.8599 H   0  0  0  0  0  0  0  0  0  0  0  0
  149.6018  152.0050  130.8599 H   0  0  0  0  0  0  0  0  0  0  0  0
  148.9257  151.0388  134.8034 H   0  0  0  0  0  0  0  0  0  0  0  0
  150.4814  150.6146  134.0117 H   0  0  0  0  0  0  0  0  0  0  0  0
  149.9085  152.3171  134.0117 H   0  0  0  0  0  0  0  0  0  0  0  0
  148.0768  149.2579  133.6475 H   0  0  0  0  0  0  0  0  0  0  0  0
  147.2629  149.6382  132.0920 H   0  0  0  0  0  0  0  0  0  0  0  0
  148.9062  148.9127  132.0920 H   0  0  0  0  0  0  0  0  0  0  0  0
  149.6230  157.2240  132.9410 H   0  0  0  0  0  0  0  0  0  0  0  0
  148.7690  156.0560  131.8790 H   0  0  0  0  0  0  0  0  0  0  0  0
  145.1045  156.7350  134.3047 H   0  0  0  0  0  0  0  0  0  0  0  0
  142.6621  155.2574  134.1468 H   0  0  0  0  0  0  0  0  0  0  0  0
  141.7183  153.0101  133.5209 H   0  0  0  0  0  0  0  0  0  0  0  0
  143.0281  150.7037  131.5397 H   0  0  0  0  0  0  0  0  0  0  0  0
  143.7418  150.0488  133.0728 H   0  0  0  0  0  0  0  0  0  0  0  0
  141.7588  150.0706  134.1674 H   0  0  0  0  0  0  0  0  0  0  0  0
  141.2421  151.6236  133.3855 H   0  0  0  0  0  0  0  0  0  0  0  0
  138.9987  151.0044  132.8167 H   0  0  0  0  0  0  0  0  0  0  0  0
  137.5137  149.7774  131.2320 H   0  0  0  0  0  0  0  0  0  0  0  0
  138.4481  147.9704  129.7844 H   0  0  0  0  0  0  0  0  0  0  0  0
  140.8723  147.3893  129.9199 H   0  0  0  0  0  0  0  0  0  0  0  0
  142.3596  148.5929  131.5202 H   0  0  0  0  0  0  0  0  0  0  0  0
  145.7170  151.6124  132.4943 H   0  0  0  0  0  0  0  0  0  0  0  0
  1  2  1  0
  2  3  1  0
  2  4  1  0
  2  5  1  0
  5  6  1  0
  6  7  2  0
  6  8  1  0
  8  9  1  0
  9 10  1  0
 10 11  1  0
 10 12  2  0
  9 13  2  0
 13 14  1  0
 14 15  2  0
 15 16  1  0
 16 17  2  0
 17 18  1  0
 18 19  1  0
 19 20  1  0
 20 21  2  0
 21 22  1  0
 22 23  2  0
 23 24  1  0
 24 25  2  0
 17 26  1  0
 26 27  2  0
 27  8  1  0
 27 14  1  0
 25 20  1  0
  1 28  1  0
  1 29  1  0
  1 30  1  0
  3 31  1  0
  3 32  1  0
  3 33  1  0
  4 34  1  0
  4 35  1  0
  4 36  1  0
 11 37  1  0
 11 38  1  0
 13 39  1  0
 15 40  1  0
 16 41  1  0
 18 42  1  0
 18 43  1  0
 19 44  1  0
 19 45  1  0
 21 46  1  0
 22 47  1  0
 23 48  1  0
 24 49  1  0
 25 50  1  0
 26 51  1  0
M  END
>  <UniqueID>  (61) 
61

>  <SMILES>  (61) 
CC(C)(C)OC(=O)n1c(C(N)=O)cc2ccc(CCc3ccccc3)cc21

>  <Energy>  (61) 
80.95419564706094

>  <Genealogy>  (61) 
CC(C)(C)OC(=O)n1c(C(N)=O)cc2ccc(CCc3ccccc3)cc21 (3D coordinates assigned)
CC(C)(C)OC(=O)n1c(C(N)=O)cc2ccc(CCc3ccccc3)cc21 (optimized conformer: 80.95419564706094 kcal/mol)

>  <smiles>  (61) 
CC(C)(C)OC(=O)n1c(C(N)=O)cc2ccc(CCc3ccccc3)cc21

>  <score_type>  (61) 
oracle

>  <origin>  (61) 
adg

>  <m_score__min__energy>  (61) 
-9.3300000000000001

>  <m_primary>  (61) 
energy

$$$$
61:0
     RDKit          3D

 41 43  0  0  0  0  0  0  0  0999 V2000
  141.0930  155.4960  133.8040 C   0  0  0  0  0  0  0  0  0  0  0  0
  142.0030  156.3090  134.6670 C   0  0  0  0  0  0  0  0  0  0  0  0
  142.7680  155.7220  135.4800 O   0  0  0  0  0  0  0  0  0  0  0  0
  142.0240  157.7420  134.5750 N   0  0  0  0  0  0  0  0  0  0  0  0
  141.0240  158.6090  134.9020 C   0  0  0  0  0  0  0  0  0  0  0  0
  139.6600  158.2340  135.3290 C   0  0  0  0  0  0  0  0  0  0  0  0
  139.3610  158.1010  136.7170 N   0  0  0  0  0  0  0  0  0  0  0  0
  138.7460  158.0500  134.4830 O   0  0  0  0  0  0  0  0  0  0  0  0
  141.4410  159.9260  134.7190 C   0  0  0  0  0  0  0  0  0  0  0  0
  142.7390  159.8390  134.2690 C   0  0  0  0  0  0  0  0  0  0  0  0
  143.6430  160.8450  133.9440 C   0  0  0  0  0  0  0  0  0  0  0  0
  144.9310  160.4650  133.5330 C   0  0  0  0  0  0  0  0  0  0  0  0
  145.2990  159.0950  133.4640 C   0  0  0  0  0  0  0  0  0  0  0  0
  146.6670  158.7040  133.0390 C   0  0  0  0  0  0  0  0  0  0  0  0
  147.1250  157.3900  133.2300 C   0  0  0  0  0  0  0  0  0  0  0  0
  148.4060  157.0220  132.8150 C   0  0  0  0  0  0  0  0  0  0  0  0
  149.2470  157.9570  132.2120 C   0  0  0  0  0  0  0  0  0  0  0  0
  148.8180  159.2840  132.0250 C   0  0  0  0  0  0  0  0  0  0  0  0
  149.7080  160.3110  131.3470 C   0  0  1  0  0  0  0  0  0  0  0  0
  150.8210  159.6960  130.7440 O   0  0  0  0  0  0  0  0  0  0  0  0
  148.9180  161.1810  130.3510 C   0  0  0  0  0  0  0  0  0  0  0  0
  148.4800  162.3290  130.9870 F   0  0  0  0  0  0  0  0  0  0  0  0
  147.8160  160.4830  129.8910 F   0  0  0  0  0  0  0  0  0  0  0  0
  149.7060  161.5380  129.2730 F   0  0  0  0  0  0  0  0  0  0  0  0
  147.5210  159.6450  132.4320 C   0  0  0  0  0  0  0  0  0  0  0  0
  144.3490  158.1040  133.8080 C   0  0  0  0  0  0  0  0  0  0  0  0
  143.0670  158.5110  134.1920 C   0  0  0  0  0  0  0  0  0  0  0  0
  140.4232  154.8976  134.4390 H   0  0  0  0  0  0  0  0  0  0  0  0
  140.4947  156.1658  133.1689 H   0  0  0  0  0  0  0  0  0  0  0  0
  141.6914  154.8263  133.1689 H   0  0  0  0  0  0  0  0  0  0  0  0
  139.2760  158.9420  137.3310 H   0  0  0  0  0  0  0  0  0  0  0  0
  140.8568  160.8410  134.8965 H   0  0  0  0  0  0  0  0  0  0  0  0
  143.3578  161.9055  134.0070 H   0  0  0  0  0  0  0  0  0  0  0  0
  145.6643  161.2385  133.2610 H   0  0  0  0  0  0  0  0  0  0  0  0
  146.4707  156.6469  133.7092 H   0  0  0  0  0  0  0  0  0  0  0  0
  148.7539  155.9892  132.9644 H   0  0  0  0  0  0  0  0  0  0  0  0
  150.2516  157.6553  131.8807 H   0  0  0  0  0  0  0  0  0  0  0  0
  150.0890  160.9894  132.1246 H   0  0  0  0  0  0  0  0  0  0  0  0
  151.3690  160.3960  130.3020 H   0  0  0  0  0  0  0  0  0  0  0  0
  147.1693  160.6752  132.2742 H   0  0  0  0  0  0  0  0  0  0  0  0
  144.6131  157.0367  133.7741 H   0  0  0  0  0  0  0  0  0  0  0  0
  1  2  1  0
  2  3  2  0
  2  4  1  0
  4  5  1  0
  5  6  1  0
  6  7  1  0
  6  8  2  0
  5  9  2  0
  9 10  1  0
 10 11  2  0
 11 12  1  0
 12 13  2  0
 13 14  1  0
 14 15  2  0
 15 16  1  0
 16 17  2  0
 17 18  1  0
 18 19  1  0
 19 20  1  0
 19 21  1  0
 21 22  1  0
 21 23  1  0
 21 24  1  0
 18 25  2  0
 13 26  1  0
 26 27  2  0
 27  4  1  0
 27 10  1  0
 25 14  1  0
  1 28  1  0
  1 29  1  0
  1 30  1  0
  7 31  1  0
  9 32  1  0
 11 33  1  0
 12 34  1  0
 15 35  1  0
 16 36  1  0
 17 37  1  0
 19 38  1  1
 20 39  1  0
 25 40  1  0
 26 41  1  0
M  CHG  1   7  -1
M  END
>  <UniqueID>  (62) 
62

>  <SMILES>  (62) 
CC(=O)n1c(C([NH-])=O)cc2ccc(-c3cccc([C@@H](O)C(F)(F)F)c3)cc21

>  <Energy>  (62) 
87.49846757568623

>  <Genealogy>  (62) 
CC(=O)n1c(C([NH-])=O)cc2ccc(-c3cccc(C(O)C(F)(F)F)c3)cc21 (protonated)
CC(=O)n1c(C([NH-])=O)cc2ccc(-c3cccc([C@@H](O)C(F)(F)F)c3)cc21 (chirality)
CC(=O)n1c(C([NH-])=O)cc2ccc(-c3cccc([C@@H](O)C(F)(F)F)c3)cc21 (3D coordinates assigned)
CC(=O)n1c(C([NH-])=O)cc2ccc(-c3cccc([C@@H](O)C(F)(F)F)c3)cc21 (optimized conformer: 87.49846757568623 kcal/mol)

>  <smiles>  (62) 
CC(=O)n1c(C(N)=O)cc2ccc(-c3cccc(C(O)C(F)(F)F)c3)cc21

>  <score_type>  (62) 
oracle

>  <origin>  (62) 
adg

>  <m_score__min__energy>  (62) 
-8.5199999999999996

>  <m_primary>  (62) 
energy

$$$$
62:0
     RDKit          3D

 35 36  0  0  0  0  0  0  0  0999 V2000
  139.1090  159.4360  131.1130 C   0  0  0  0  0  0  0  0  0  0  0  0
  139.1190  158.3750  132.2010 C   0  0  0  0  0  0  0  0  0  0  0  0
  139.3810  158.9840  133.4610 O   0  0  0  0  0  0  0  0  0  0  0  0
  140.1050  158.3450  134.4710 C   0  0  0  0  0  0  0  0  0  0  0  0
  139.8810  158.6030  135.6850 O   0  0  0  0  0  0  0  0  0  0  0  0
  141.1890  157.3850  134.1030 C   0  0  0  0  0  0  0  0  0  0  0  0
  142.4690  158.1300  133.8550 C   0  0  0  0  0  0  0  0  0  0  0  0
  142.4980  159.5440  133.9430 C   0  0  0  0  0  0  0  0  0  0  0  0
  143.6970  160.2500  133.7380 C   0  0  0  0  0  0  0  0  0  0  0  0
  144.8480  159.5170  133.4650 C   0  0  0  0  0  0  0  0  0  0  0  0
  146.1310  159.9420  133.2130 C   0  0  0  0  0  0  0  0  0  0  0  0
  146.8730  158.7800  133.0080 C   0  0  0  0  0  0  0  0  0  0  0  0
  148.3360  158.7720  132.7950 C   0  0  0  0  0  0  0  0  0  0  0  0
  148.8880  158.4690  131.5170 N   0  0  0  0  0  0  0  0  0  0  0  0
  149.1090  158.9930  133.7650 O   0  0  0  0  0  0  0  0  0  0  0  0
  146.0750  157.6800  133.1190 N   0  0  0  0  0  0  0  0  0  0  0  0
  146.4300  156.3060  132.8990 C   0  0  0  0  0  0  0  0  0  0  0  0
  147.3410  155.9520  131.8590 N   0  0  0  0  0  0  0  0  0  0  0  0
  145.9090  155.4010  133.6050 O   0  0  0  0  0  0  0  0  0  0  0  0
  144.8410  158.1470  133.4040 C   0  0  0  0  0  0  0  0  0  0  0  0
  143.6610  157.4190  133.5880 C   0  0  0  0  0  0  0  0  0  0  0  0
  139.0996  160.4344  131.5746 H   0  0  0  0  0  0  0  0  0  0  0  0
  140.0082  159.3293  130.4885 H   0  0  0  0  0  0  0  0  0  0  0  0
  138.2120  159.3123  130.4885 H   0  0  0  0  0  0  0  0  0  0  0  0
  138.1400  157.8745  132.2330 H   0  0  0  0  0  0  0  0  0  0  0  0
  139.9040  157.6360  131.9827 H   0  0  0  0  0  0  0  0  0  0  0  0
  141.3370  156.6693  134.9251 H   0  0  0  0  0  0  0  0  0  0  0  0
  140.9005  156.8462  133.1884 H   0  0  0  0  0  0  0  0  0  0  0  0
  141.5741  160.0946  134.1738 H   0  0  0  0  0  0  0  0  0  0  0  0
  143.7242  161.3483  133.7919 H   0  0  0  0  0  0  0  0  0  0  0  0
  146.4949  160.9795  133.1801 H   0  0  0  0  0  0  0  0  0  0  0  0
  148.8910  157.4910  131.1510 H   0  0  0  0  0  0  0  0  0  0  0  0
  147.7210  156.6810  131.2160 H   0  0  0  0  0  0  0  0  0  0  0  0
  147.6100  154.9540  131.7090 H   0  0  0  0  0  0  0  0  0  0  0  0
  143.6607  156.3207  133.5265 H   0  0  0  0  0  0  0  0  0  0  0  0
  1  2  1  0
  2  3  1  0
  3  4  1  0
  4  5  2  0
  4  6  1  0
  6  7  1  0
  7  8  2  0
  8  9  1  0
  9 10  2  0
 10 11  1  0
 11 12  2  0
 12 13  1  0
 13 14  1  0
 13 15  2  0
 12 16  1  0
 16 17  1  0
 17 18  1  0
 17 19  2  0
 16 20  1  0
 20 21  2  0
 21  7  1  0
 20 10  1  0
  1 22  1  0
  1 23  1  0
  1 24  1  0
  2 25  1  0
  2 26  1  0
  6 27  1  0
  6 28  1  0
  8 29  1  0
  9 30  1  0
 11 31  1  0
 14 32  1  0
 18 33  1  0
 18 34  1  0
 21 35  1  0
M  CHG  1  14  -1
M  END
>  <UniqueID>  (63) 
63

>  <SMILES>  (63) 
CCOC(=O)Cc1ccc2cc(C([NH-])=O)n(C(N)=O)c2c1

>  <Energy>  (63) 
66.58338296168627

>  <Genealogy>  (63) 
CCOC(=O)Cc1ccc2cc(C([NH-])=O)n(C(N)=O)c2c1 (protonated)
CCOC(=O)Cc1ccc2cc(C([NH-])=O)n(C(N)=O)c2c1 (3D coordinates assigned)
CCOC(=O)Cc1ccc2cc(C([NH-])=O)n(C(N)=O)c2c1 (optimized conformer: 66.58338296168627 kcal/mol)

>  <smiles>  (63) 
CCOC(=O)Cc1ccc2cc(C(N)=O)n(C(N)=O)c2c1

>  <score_type>  (63) 
oracle

>  <origin>  (63) 
adg

>  <m_score__min__energy>  (63) 
-6.5300000000000002

>  <m_primary>  (63) 
energy

$$$$
63:0
     RDKit          3D

 27 28  0  0  0  0  0  0  0  0999 V2000
  149.4110  160.4170  131.0430 C   0  0  0  0  0  0  0  0  0  0  0  0
  149.4010  159.7070  132.3920 C   0  0  0  0  0  0  0  0  0  0  0  0
  148.0020  159.3010  132.7690 C   0  0  0  0  0  0  0  0  0  0  0  0
  147.6050  157.9440  132.6730 C   0  0  0  0  0  0  0  0  0  0  0  0
  146.2900  157.5590  132.9800 C   0  0  0  0  0  0  0  0  0  0  0  0
  145.3960  158.5500  133.3770 C   0  0  0  0  0  0  0  0  0  0  0  0
  144.0620  158.4580  133.6990 C   0  0  0  0  0  0  0  0  0  0  0  0
  143.6640  159.7600  133.9990 C   0  0  0  0  0  0  0  0  0  0  0  0
  142.3120  160.1030  134.4850 C   0  0  0  0  0  0  0  0  0  0  0  0
  141.4570  160.9580  133.7300 N   0  0  0  0  0  0  0  0  0  0  0  0
  141.9260  159.6760  135.6060 O   0  0  0  0  0  0  0  0  0  0  0  0
  144.7090  160.6240  133.8580 N   0  0  0  0  0  0  0  0  0  0  0  0
  144.6870  162.0550  133.9790 C   0  0  0  0  0  0  0  0  0  0  0  0
  143.8060  162.7300  133.3830 O   0  0  0  0  0  0  0  0  0  0  0  0
  145.6170  162.7060  134.7800 O   0  0  0  0  0  0  0  0  0  0  0  0
  145.7640  159.8670  133.4800 C   0  0  0  0  0  0  0  0  0  0  0  0
  147.0630  160.2810  133.1620 C   0  0  0  0  0  0  0  0  0  0  0  0
  149.4263  161.5054  131.2016 H   0  0  0  0  0  0  0  0  0  0  0  0
  150.3050  160.1163  130.4770 H   0  0  0  0  0  0  0  0  0  0  0  0
  148.5089  160.1416  130.4770 H   0  0  0  0  0  0  0  0  0  0  0  0
  150.0338  158.8092  132.3322 H   0  0  0  0  0  0  0  0  0  0  0  0
  149.7876  160.3962  133.1572 H   0  0  0  0  0  0  0  0  0  0  0  0
  148.3344  157.1846  132.3548 H   0  0  0  0  0  0  0  0  0  0  0  0
  145.9758  156.5072  132.9091 H   0  0  0  0  0  0  0  0  0  0  0  0
  143.4411  157.5501  133.7162 H   0  0  0  0  0  0  0  0  0  0  0  0
  141.8030  161.8700  133.3580 H   0  0  0  0  0  0  0  0  0  0  0  0
  147.3456  161.3427  133.2167 H   0  0  0  0  0  0  0  0  0  0  0  0
  1  2  1  0
  2  3  1  0
  3  4  2  0
  4  5  1  0
  5  6  2  0
  6  7  1  0
  7  8  2  0
  8  9  1  0
  9 10  1  0
  9 11  2  0
  8 12  1  0
 12 13  1  0
 13 14  2  0
 13 15  1  0
 12 16  1  0
 16 17  2  0
 17  3  1  0
 16  6  1  0
  1 18  1  0
  1 19  1  0
  1 20  1  0
  2 21  1  0
  2 22  1  0
  4 23  1  0
  5 24  1  0
  7 25  1  0
 10 26  1  0
 17 27  1  0
M  CHG  2  10  -1  15  -1
M  END
>  <UniqueID>  (64) 
64

>  <SMILES>  (64) 
CCc1ccc2cc(C([NH-])=O)n(C(=O)[O-])c2c1

>  <Energy>  (64) 
63.97070994409029

>  <Genealogy>  (64) 
CCc1ccc2cc(C([NH-])=O)n(C(=O)[O-])c2c1 (protonated)
CCc1ccc2cc(C([NH-])=O)n(C(=O)[O-])c2c1 (3D coordinates assigned)
CCc1ccc2cc(C([NH-])=O)n(C(=O)[O-])c2c1 (optimized conformer: 63.97070994409029 kcal/mol)

>  <smiles>  (64) 
CCc1ccc2cc(C(N)=O)n(C(=O)O)c2c1

>  <score_type>  (64) 
oracle

>  <origin>  (64) 
adg

>  <m_score__min__energy>  (64) 
-6.0300000000000002

>  <m_primary>  (64) 
energy

$$$$
64:0
     RDKit          3D

 49 51  0  0  0  0  0  0  0  0999 V2000
  138.4540  159.3670  131.1040 C   0  0  0  0  0  0  0  0  0  0  0  0
  139.8820  159.1710  131.6010 C   0  0  0  0  0  0  0  0  0  0  0  0
  140.1500  160.0280  132.7080 O   0  0  0  0  0  0  0  0  0  0  0  0
  141.3010  159.9280  133.5000 C   0  0  0  0  0  0  0  0  0  0  0  0
  141.9990  160.9510  133.7420 O   0  0  0  0  0  0  0  0  0  0  0  0
  141.6980  158.6500  134.0210 N   0  0  0  0  0  0  0  0  0  0  0  0
  140.9160  157.7230  134.6430 C   0  0  0  0  0  0  0  0  0  0  0  0
  139.5070  157.9090  135.0470 C   0  0  0  0  0  0  0  0  0  0  0  0
  139.1800  158.0640  136.4270 N   0  0  0  0  0  0  0  0  0  0  0  0
  138.5920  157.9710  134.1850 O   0  0  0  0  0  0  0  0  0  0  0  0
  141.6520  156.5750  134.9260 C   0  0  0  0  0  0  0  0  0  0  0  0
  142.9220  156.8310  134.4610 C   0  0  0  0  0  0  0  0  0  0  0  0
  144.0570  156.0270  134.4690 C   0  0  0  0  0  0  0  0  0  0  0  0
  145.2310  156.5370  133.8890 C   0  0  0  0  0  0  0  0  0  0  0  0
  145.2510  157.8320  133.3080 C   0  0  0  0  0  0  0  0  0  0  0  0
  146.5250  158.3590  132.6740 C   0  0  1  0  0  0  0  0  0  0  0  0
  146.8190  159.8190  133.1170 C   0  0  0  0  0  0  0  0  0  0  0  0
  148.3130  160.1030  133.3580 C   0  0  0  0  0  0  0  0  0  0  0  0
  149.2330  159.4150  132.3280 C   0  0  2  0  0  0  0  0  0  0  0  0
  149.1600  160.1220  130.9890 C   0  0  0  0  0  0  0  0  0  0  0  0
  149.6200  159.5480  129.9220 N   0  0  0  0  0  0  0  0  0  0  0  0
  148.5170  161.3960  130.8920 N   0  0  0  0  0  0  0  0  0  0  0  0
  148.9730  157.8840  132.2110 C   0  0  0  0  0  0  0  0  0  0  0  0
  147.7090  157.4130  132.9490 C   0  0  0  0  0  0  0  0  0  0  0  0
  144.0720  158.6180  133.3200 C   0  0  0  0  0  0  0  0  0  0  0  0
  142.9240  158.0900  133.9200 C   0  0  0  0  0  0  0  0  0  0  0  0
  137.7757  159.4601  131.9649 H   0  0  0  0  0  0  0  0  0  0  0  0
  138.4002  160.2810  130.4943 H   0  0  0  0  0  0  0  0  0  0  0  0
  138.1559  158.5014  130.4943 H   0  0  0  0  0  0  0  0  0  0  0  0
  140.0157  158.1247  131.9131 H   0  0  0  0  0  0  0  0  0  0  0  0
  140.5782  159.4168  130.7856 H   0  0  0  0  0  0  0  0  0  0  0  0
  139.3010  158.9830  136.9060 H   0  0  0  0  0  0  0  0  0  0  0  0
  141.2942  155.6580  135.4170 H   0  0  0  0  0  0  0  0  0  0  0  0
  144.0363  155.0221  134.9159 H   0  0  0  0  0  0  0  0  0  0  0  0
  146.1453  155.9254  133.8852 H   0  0  0  0  0  0  0  0  0  0  0  0
  146.3786  158.3860  131.5841 H   0  0  0  0  0  0  0  0  0  0  0  0
  146.2729  160.0151  134.0515 H   0  0  0  0  0  0  0  0  0  0  0  0
  146.4949  160.4757  132.2962 H   0  0  0  0  0  0  0  0  0  0  0  0
  148.5805  159.7426  134.3623 H   0  0  0  0  0  0  0  0  0  0  0  0
  148.4613  161.1883  133.2573 H   0  0  0  0  0  0  0  0  0  0  0  0
  150.2650  159.5051  132.6979 H   0  0  0  0  0  0  0  0  0  0  0  0
  149.5580  160.0030  128.9820 H   0  0  0  0  0  0  0  0  0  0  0  0
  148.1030  161.8520  131.7350 H   0  0  0  0  0  0  0  0  0  0  0  0
  148.4420  161.8890  129.9740 H   0  0  0  0  0  0  0  0  0  0  0  0
  149.8390  157.3517  132.6312 H   0  0  0  0  0  0  0  0  0  0  0  0
  148.8225  157.6644  131.1437 H   0  0  0  0  0  0  0  0  0  0  0  0
  147.9100  157.3931  134.0303 H   0  0  0  0  0  0  0  0  0  0  0  0
  147.4460  156.4079  132.5876 H   0  0  0  0  0  0  0  0  0  0  0  0
  144.0598  159.6206  132.8677 H   0  0  0  0  0  0  0  0  0  0  0  0
  1  2  1  0
  2  3  1  0
  3  4  1  0
  4  5  2  0
  4  6  1  0
  6  7  1  0
  7  8  1  0
  8  9  1  0
  8 10  2  0
  7 11  2  0
 11 12  1  0
 12 13  2  0
 13 14  1  0
 14 15  2  0
 15 16  1  0
 16 17  1  0
 17 18  1  0
 18 19  1  0
 19 20  1  0
 20 21  2  3
 20 22  1  0
 19 23  1  0
 23 24  1  0
 15 25  1  0
 25 26  2  0
 26  6  1  0
 26 12  1  0
 24 16  1  0
  1 27  1  0
  1 28  1  0
  1 29  1  0
  2 30  1  0
  2 31  1  0
  9 32  1  0
 11 33  1  0
 13 34  1  0
 14 35  1  0
 16 36  1  6
 17 37  1  0
 17 38  1  0
 18 39  1  0
 18 40  1  0
 19 41  1  1
 21 42  1  0
 22 43  1  0
 22 44  1  0
 23 45  1  0
 23 46  1  0
 24 47  1  0
 24 48  1  0
 25 49  1  0
M  CHG  1   9  -1
M  END
>  <UniqueID>  (65) 
65

>  <SMILES>  (65) 
CCOC(=O)n1c(C([NH-])=O)cc2ccc(C3CCC(C(=N)N)CC3)cc21

>  <Energy>  (65) 
88.66921898029138

>  <Genealogy>  (65) 
CCOC(=O)n1c(C([NH-])=O)cc2ccc(C3CCC(C(=N)N)CC3)cc21 (protonated)
CCOC(=O)n1c(C([NH-])=O)cc2ccc(C3CCC(C(=N)N)CC3)cc21 (3D coordinates assigned)
CCOC(=O)n1c(C([NH-])=O)cc2ccc(C3CCC(C(=N)N)CC3)cc21 (nonaromatic ring conformer: 88.66921898029138 kcal/mol)

>  <smiles>  (65) 
CCOC(=O)n1c(C(N)=O)cc2ccc(C3CCC(C(=N)N)CC3)cc21

>  <score_type>  (65) 
oracle

>  <origin>  (65) 
adg

>  <m_score__min__energy>  (65) 
-9.1999999999999993

>  <m_primary>  (65) 
energy

$$$$
65:0
     RDKit          3D

 45 47  0  0  0  0  0  0  0  0999 V2000
  149.0220  153.1590  138.2110 C   0  0  0  0  0  0  0  0  0  0  0  0
  148.1890  153.8840  137.1650 C   0  0  0  0  0  0  0  0  0  0  0  0
  146.9500  153.2010  136.9880 O   0  0  0  0  0  0  0  0  0  0  0  0
  145.8260  153.7460  136.3500 C   0  0  0  0  0  0  0  0  0  0  0  0
  144.5490  153.7310  136.9340 C   0  0  0  0  0  0  0  0  0  0  0  0
  143.4590  154.2690  136.2530 C   0  0  0  0  0  0  0  0  0  0  0  0
  143.6180  154.8380  134.9800 C   0  0  0  0  0  0  0  0  0  0  0  0
  142.4130  155.3470  134.2930 C   0  0  0  0  0  0  0  0  0  0  0  0
  141.4900  154.4390  133.7210 C   0  0  0  0  0  0  0  0  0  0  0  0
  140.3370  154.9080  133.0690 C   0  0  0  0  0  0  0  0  0  0  0  0
  140.1460  156.2850  132.9930 C   0  0  0  0  0  0  0  0  0  0  0  0
  139.1090  157.0070  132.4450 C   0  0  0  0  0  0  0  0  0  0  0  0
  139.4400  158.3430  132.6590 C   0  0  0  0  0  0  0  0  0  0  0  0
  138.6270  159.4710  132.1620 C   0  0  0  0  0  0  0  0  0  0  0  0
  139.1480  160.7990  132.1280 N   0  0  0  0  0  0  0  0  0  0  0  0
  137.4710  159.2490  131.7120 O   0  0  0  0  0  0  0  0  0  0  0  0
  140.6230  158.4450  133.3250 N   0  0  0  0  0  0  0  0  0  0  0  0
  141.2500  159.6310  133.8440 C   0  0  0  0  0  0  0  0  0  0  0  0
  141.3570  159.8660  135.3170 C   0  0  0  0  0  0  0  0  0  0  0  0
  141.7420  160.4770  133.0500 O   0  0  0  0  0  0  0  0  0  0  0  0
  141.0460  157.1760  133.5170 C   0  0  0  0  0  0  0  0  0  0  0  0
  142.1950  156.7380  134.1840 C   0  0  0  0  0  0  0  0  0  0  0  0
  144.9110  154.9020  134.3960 C   0  0  0  0  0  0  0  0  0  0  0  0
  145.1510  155.5340  133.0370 C   0  0  0  0  0  0  0  0  0  0  0  0
  146.4640  155.3660  132.6320 F   0  0  0  0  0  0  0  0  0  0  0  0
  144.8980  156.8930  133.0760 F   0  0  0  0  0  0  0  0  0  0  0  0
  144.3250  154.9420  132.1010 F   0  0  0  0  0  0  0  0  0  0  0  0
  145.9940  154.3250  135.0890 C   0  0  0  0  0  0  0  0  0  0  0  0
  148.6848  153.4524  139.2161 H   0  0  0  0  0  0  0  0  0  0  0  0
  148.9021  152.0726  138.0867 H   0  0  0  0  0  0  0  0  0  0  0  0
  150.0814  153.4276  138.0867 H   0  0  0  0  0  0  0  0  0  0  0  0
  147.9956  154.9139  137.4995 H   0  0  0  0  0  0  0  0  0  0  0  0
  148.7358  153.9053  136.2108 H   0  0  0  0  0  0  0  0  0  0  0  0
  144.4087  153.2927  137.9331 H   0  0  0  0  0  0  0  0  0  0  0  0
  142.4625  154.2475  136.7184 H   0  0  0  0  0  0  0  0  0  0  0  0
  141.6769  153.3570  133.7874 H   0  0  0  0  0  0  0  0  0  0  0  0
  139.6083  154.2092  132.6324 H   0  0  0  0  0  0  0  0  0  0  0  0
  138.2117  156.6130  131.9454 H   0  0  0  0  0  0  0  0  0  0  0  0
  138.5440  161.5910  131.8150 H   0  0  0  0  0  0  0  0  0  0  0  0
  140.1540  160.9900  132.3330 H   0  0  0  0  0  0  0  0  0  0  0  0
  140.9599  158.9939  135.8572 H   0  0  0  0  0  0  0  0  0  0  0  0
  142.4123  160.0163  135.5886 H   0  0  0  0  0  0  0  0  0  0  0  0
  140.7775  160.7606  135.5886 H   0  0  0  0  0  0  0  0  0  0  0  0
  142.9090  157.4572  134.6118 H   0  0  0  0  0  0  0  0  0  0  0  0
  146.9926  154.3304  134.6278 H   0  0  0  0  0  0  0  0  0  0  0  0
  1  2  1  0
  2  3  1  0
  3  4  1  0
  4  5  2  0
  5  6  1  0
  6  7  2  0
  7  8  1  0
  8  9  2  0
  9 10  1  0
 10 11  2  0
 11 12  1  0
 12 13  2  0
 13 14  1  0
 14 15  1  0
 14 16  2  0
 13 17  1  0
 17 18  1  0
 18 19  1  0
 18 20  2  0
 17 21  1  0
 21 22  2  0
  7 23  1  0
 23 24  1  0
 24 25  1  0
 24 26  1  0
 24 27  1  0
 23 28  2  0
 28  4  1  0
 22  8  1  0
 21 11  1  0
  1 29  1  0
  1 30  1  0
  1 31  1  0
  2 32  1  0
  2 33  1  0
  5 34  1  0
  6 35  1  0
  9 36  1  0
 10 37  1  0
 12 38  1  0
 15 39  1  0
 15 40  1  0
 19 41  1  0
 19 42  1  0
 19 43  1  0
 22 44  1  0
 28 45  1  0
M  END
>  <UniqueID>  (66) 
66

>  <SMILES>  (66) 
CCOc1ccc(-c2ccc3cc(C(N)=O)n(C(C)=O)c3c2)c(C(F)(F)F)c1

>  <Energy>  (66) 
92.76397475230503

>  <Genealogy>  (66) 
CCOc1ccc(-c2ccc3cc(C(N)=O)n(C(C)=O)c3c2)c(C(F)(F)F)c1 (3D coordinates assigned)
CCOc1ccc(-c2ccc3cc(C(N)=O)n(C(C)=O)c3c2)c(C(F)(F)F)c1 (optimized conformer: 92.76397475230503 kcal/mol)

>  <smiles>  (66) 
CCOc1ccc(-c2ccc3cc(C(N)=O)n(C(C)=O)c3c2)c(C(F)(F)F)c1

>  <score_type>  (66) 
oracle

>  <origin>  (66) 
adg

>  <m_score__min__energy>  (66) 
-7.5599999999999996

>  <m_primary>  (66) 
energy

$$$$
66:0
     RDKit          3D

 32 33  0  0  0  0  0  0  0  0999 V2000
  140.7920  153.6630  133.0140 C   0  0  0  0  0  0  0  0  0  0  0  0
  140.9720  155.0730  133.0110 O   0  0  0  0  0  0  0  0  0  0  0  0
  139.9190  155.9700  133.2140 C   0  0  0  0  0  0  0  0  0  0  0  0
  138.7320  155.6210  132.9670 O   0  0  0  0  0  0  0  0  0  0  0  0
  140.1920  157.2930  133.7030 N   0  0  0  0  0  0  0  0  0  0  0  0
  139.9870  158.4720  133.0510 C   0  0  0  0  0  0  0  0  0  0  0  0
  139.5860  158.6200  131.6370 C   0  0  0  0  0  0  0  0  0  0  0  0
  138.4750  157.8990  131.1020 N   0  0  0  0  0  0  0  0  0  0  0  0
  140.2690  159.3540  130.8740 O   0  0  0  0  0  0  0  0  0  0  0  0
  140.2470  159.5510  133.8900 C   0  0  0  0  0  0  0  0  0  0  0  0
  140.6340  158.9930  135.0880 C   0  0  0  0  0  0  0  0  0  0  0  0
  140.9840  159.6080  136.2860 C   0  0  0  0  0  0  0  0  0  0  0  0
  141.2930  158.7860  137.3820 C   0  0  0  0  0  0  0  0  0  0  0  0
  141.2540  157.3730  137.2630 C   0  0  0  0  0  0  0  0  0  0  0  0
  141.5200  156.4960  138.4670 C   0  0  0  0  0  0  0  0  0  0  0  0
  142.1060  157.3290  139.6050 C   0  0  0  0  0  0  0  0  0  0  0  0
  142.4070  155.4830  138.1420 F   0  0  0  0  0  0  0  0  0  0  0  0
  140.3430  155.9080  138.8970 F   0  0  0  0  0  0  0  0  0  0  0  0
  140.8750  156.7880  136.0320 C   0  0  0  0  0  0  0  0  0  0  0  0
  140.5920  157.6300  134.9500 C   0  0  0  0  0  0  0  0  0  0  0  0
  140.7459  153.3015  134.0519 H   0  0  0  0  0  0  0  0  0  0  0  0
  139.8545  153.4119  132.4962 H   0  0  0  0  0  0  0  0  0  0  0  0
  141.6364  153.1845  132.4962 H   0  0  0  0  0  0  0  0  0  0  0  0
  137.9930  157.1610  131.6600 H   0  0  0  0  0  0  0  0  0  0  0  0
  138.1820  158.0470  130.1120 H   0  0  0  0  0  0  0  0  0  0  0  0
  140.1617  160.6207  133.6482 H   0  0  0  0  0  0  0  0  0  0  0  0
  141.0176  160.7041  136.3720 H   0  0  0  0  0  0  0  0  0  0  0  0
  141.5685  159.2432  138.3438 H   0  0  0  0  0  0  0  0  0  0  0  0
  141.8020  156.8969  140.5698 H   0  0  0  0  0  0  0  0  0  0  0  0
  143.2036  157.3283  139.5324 H   0  0  0  0  0  0  0  0  0  0  0  0
  141.7344  158.3618  139.5324 H   0  0  0  0  0  0  0  0  0  0  0  0
  140.8042  155.6953  135.9273 H   0  0  0  0  0  0  0  0  0  0  0  0
  1  2  1  0
  2  3  1  0
  3  4  2  0
  3  5  1  0
  5  6  1  0
  6  7  1  0
  7  8  1  0
  7  9  2  0
  6 10  2  0
 10 11  1  0
 11 12  2  0
 12 13  1  0
 13 14  2  0
 14 15  1  0
 15 16  1  0
 15 17  1  0
 15 18  1  0
 14 19  1  0
 19 20  2  0
 20  5  1  0
 20 11  1  0
  1 21  1  0
  1 22  1  0
  1 23  1  0
  8 24  1  0
  8 25  1  0
 10 26  1  0
 12 27  1  0
 13 28  1  0
 16 29  1  0
 16 30  1  0
 16 31  1  0
 19 32  1  0
M  END
>  <UniqueID>  (67) 
67

>  <SMILES>  (67) 
COC(=O)n1c(C(N)=O)cc2ccc(C(C)(F)F)cc21

>  <Energy>  (67) 
67.67392652969124

>  <Genealogy>  (67) 
COC(=O)n1c(C(N)=O)cc2ccc(C(C)(F)F)cc21 (3D coordinates assigned)
COC(=O)n1c(C(N)=O)cc2ccc(C(C)(F)F)cc21 (optimized conformer: 67.67392652969124 kcal/mol)

>  <smiles>  (67) 
COC(=O)n1c(C(N)=O)cc2ccc(C(C)(F)F)cc21

>  <score_type>  (67) 
oracle

>  <origin>  (67) 
adg

>  <m_score__min__energy>  (67) 
-5.9900000000000002

>  <m_primary>  (67) 
energy

$$$$
67:0
     RDKit          3D

 45 47  0  0  0  0  0  0  0  0999 V2000
  150.3520  150.3450  130.9060 C   0  0  0  0  0  0  0  0  0  0  0  0
  149.2100  149.9890  131.8570 C   0  0  0  0  0  0  0  0  0  0  0  0
  149.3070  150.7460  133.1870 C   0  0  0  0  0  0  0  0  0  0  0  0
  149.0090  152.1650  133.0040 N   0  0  0  0  0  0  0  0  0  0  0  0
  149.8650  153.1070  132.5640 C   0  0  0  0  0  0  0  0  0  0  0  0
  149.2200  154.3290  132.5820 C   0  0  0  0  0  0  0  0  0  0  0  0
  147.9420  154.0520  133.0550 C   0  0  0  0  0  0  0  0  0  0  0  0
  146.8510  155.0350  133.2710 C   0  0  0  0  0  0  0  0  0  0  0  0
  145.5260  154.5940  133.5280 C   0  0  0  0  0  0  0  0  0  0  0  0
  144.4900  155.5160  133.7440 C   0  0  0  0  0  0  0  0  0  0  0  0
  144.7980  156.8700  133.6900 C   0  0  0  0  0  0  0  0  0  0  0  0
  143.9930  157.9700  133.8830 C   0  0  0  0  0  0  0  0  0  0  0  0
  144.8290  159.0730  133.7180 C   0  0  0  0  0  0  0  0  0  0  0  0
  144.3480  160.4710  133.7570 C   0  0  0  0  0  0  0  0  0  0  0  0
  145.2740  161.5330  133.9730 N   0  0  0  0  0  0  0  0  0  0  0  0
  143.1230  160.7340  133.6360 O   0  0  0  0  0  0  0  0  0  0  0  0
  146.1020  158.6700  133.4410 N   0  0  0  0  0  0  0  0  0  0  0  0
  147.2670  159.4890  133.2570 C   0  0  0  0  0  0  0  0  0  0  0  0
  148.2190  159.4230  134.0810 O   0  0  0  0  0  0  0  0  0  0  0  0
  147.3490  160.3380  132.1470 O   0  0  0  0  0  0  0  0  0  0  0  0
  148.5400  160.5230  131.3860 C   0  0  0  0  0  0  0  0  0  0  0  0
  149.2170  159.1860  131.1110 C   0  0  0  0  0  0  0  0  0  0  0  0
  146.0640  157.3190  133.4230 C   0  0  0  0  0  0  0  0  0  0  0  0
  147.1210  156.4240  133.2230 C   0  0  0  0  0  0  0  0  0  0  0  0
  147.8510  152.7300  133.3030 N   0  0  0  0  0  0  0  0  0  0  0  0
  151.2422  150.6225  131.4896 H   0  0  0  0  0  0  0  0  0  0  0  0
  150.5852  149.4769  130.2719 H   0  0  0  0  0  0  0  0  0  0  0  0
  150.0506  151.1918  130.2719 H   0  0  0  0  0  0  0  0  0  0  0  0
  148.2547  150.2423  131.3740 H   0  0  0  0  0  0  0  0  0  0  0  0
  149.2751  148.9128  132.0752 H   0  0  0  0  0  0  0  0  0  0  0  0
  148.5873  150.3160  133.8991 H   0  0  0  0  0  0  0  0  0  0  0  0
  150.3332  150.6498  133.5714 H   0  0  0  0  0  0  0  0  0  0  0  0
  150.9030  152.9330  132.2441 H   0  0  0  0  0  0  0  0  0  0  0  0
  149.6282  155.3069  132.2868 H   0  0  0  0  0  0  0  0  0  0  0  0
  145.3087  153.5161  133.5582 H   0  0  0  0  0  0  0  0  0  0  0  0
  143.4641  155.1767  133.9500 H   0  0  0  0  0  0  0  0  0  0  0  0
  142.9183  157.9770  134.1176 H   0  0  0  0  0  0  0  0  0  0  0  0
  146.1180  161.6410  133.3680 H   0  0  0  0  0  0  0  0  0  0  0  0
  148.2862  161.0027  130.4292 H   0  0  0  0  0  0  0  0  0  0  0  0
  149.2312  161.1578  131.9599 H   0  0  0  0  0  0  0  0  0  0  0  0
  149.4645  158.6973  132.0649 H   0  0  0  0  0  0  0  0  0  0  0  0
  148.5364  158.5420  130.5348 H   0  0  0  0  0  0  0  0  0  0  0  0
  150.1389  159.3535  130.5348 H   0  0  0  0  0  0  0  0  0  0  0  0
  148.1400  156.7918  133.0326 H   0  0  0  0  0  0  0  0  0  0  0  0
  147.0310  152.2160  133.6950 H   0  0  0  0  0  0  0  0  0  0  0  0
  1  2  1  0
  2  3  1  0
  3  4  1  0
  4  5  1  0
  5  6  2  0
  6  7  1  0
  7  8  1  0
  8  9  2  0
  9 10  1  0
 10 11  2  0
 11 12  1  0
 12 13  2  0
 13 14  1  0
 14 15  1  0
 14 16  2  0
 13 17  1  0
 17 18  1  0
 18 19  2  0
 18 20  1  0
 20 21  1  0
 21 22  1  0
 17 23  1  0
 23 24  2  0
  7 25  2  0
 25  4  1  0
 24  8  1  0
 23 11  1  0
  1 26  1  0
  1 27  1  0
  1 28  1  0
  2 29  1  0
  2 30  1  0
  3 31  1  0
  3 32  1  0
  5 33  1  0
  6 34  1  0
  9 35  1  0
 10 36  1  0
 12 37  1  0
 15 38  1  0
 21 39  1  0
 21 40  1  0
 22 41  1  0
 22 42  1  0
 22 43  1  0
 24 44  1  0
 25 45  1  0
M  CHG  2  15  -1  25   1
M  END
>  <UniqueID>  (68) 
68

>  <SMILES>  (68) 
CCCn1ccc(-c2ccc3cc(C([NH-])=O)n(C(=O)OCC)c3c2)[nH+]1

>  <Energy>  (68) 
108.32428204763897

>  <Genealogy>  (68) 
CCCn1ccc(-c2ccc3cc(C([NH-])=O)n(C(=O)OCC)c3c2)[nH+]1 (protonated)
CCCn1ccc(-c2ccc3cc(C([NH-])=O)n(C(=O)OCC)c3c2)[nH+]1 (3D coordinates assigned)
CCCn1ccc(-c2ccc3cc(C([NH-])=O)n(C(=O)OCC)c3c2)[nH+]1 (optimized conformer: 108.32428204763897 kcal/mol)

>  <smiles>  (68) 
CCCn1ccc(-c2ccc3cc(C(N)=O)n(C(=O)OCC)c3c2)n1

>  <score_type>  (68) 
oracle

>  <origin>  (68) 
adg

>  <m_score__min__energy>  (68) 
-7.7300000000000004

>  <m_primary>  (68) 
energy

$$$$
68:0
     RDKit          3D

 31 33  0  0  0  0  0  0  0  0999 V2000
  149.6720  156.8000  132.2340 N   0  0  0  0  0  0  0  0  0  0  0  0
  148.5420  156.0960  132.7430 C   0  0  0  0  0  0  0  0  0  0  0  0
  148.6360  154.8610  132.9760 O   0  0  0  0  0  0  0  0  0  0  0  0
  147.2700  156.8140  132.9730 C   0  0  0  0  0  0  0  0  0  0  0  0
  146.0360  156.1830  133.1190 C   0  0  0  0  0  0  0  0  0  0  0  0
  145.1330  157.1950  133.3550 C   0  0  0  0  0  0  0  0  0  0  0  0
  143.7580  157.1410  133.5580 C   0  0  0  0  0  0  0  0  0  0  0  0
  143.0730  158.3550  133.7530 C   0  0  0  0  0  0  0  0  0  0  0  0
  143.7710  159.5890  133.7340 C   0  0  0  0  0  0  0  0  0  0  0  0
  143.0180  160.8740  133.9330 C   0  0  0  0  0  0  0  0  0  0  0  0
  143.7560  161.9290  133.4290 F   0  0  0  0  0  0  0  0  0  0  0  0
  141.8040  160.8100  133.2750 F   0  0  0  0  0  0  0  0  0  0  0  0
  145.1670  159.6030  133.5200 C   0  0  0  0  0  0  0  0  0  0  0  0
  145.8220  158.3800  133.3470 C   0  0  0  0  0  0  0  0  0  0  0  0
  147.1350  158.1610  133.1190 N   0  0  0  0  0  0  0  0  0  0  0  0
  148.1550  159.1630  132.9890 C   0  0  0  0  0  0  0  0  0  0  0  0
  148.6190  159.7160  134.0220 O   0  0  0  0  0  0  0  0  0  0  0  0
  148.6630  159.5520  131.6620 C   0  0  0  0  0  0  0  0  0  0  0  0
  148.7430  160.8360  131.1610 C   0  0  0  0  0  0  0  0  0  0  0  0
  149.2650  160.6700  129.8920 C   0  0  0  0  0  0  0  0  0  0  0  0
  149.4620  159.3870  129.6840 O   0  0  0  0  0  0  0  0  0  0  0  0
  149.1090  158.6950  130.7260 N   0  0  0  0  0  0  0  0  0  0  0  0
  149.9030  156.7790  131.2150 H   0  0  0  0  0  0  0  0  0  0  0  0
  145.8276  155.1046  133.0585 H   0  0  0  0  0  0  0  0  0  0  0  0
  143.2229  156.1800  133.5659 H   0  0  0  0  0  0  0  0  0  0  0  0
  141.9860  158.3463  133.9217 H   0  0  0  0  0  0  0  0  0  0  0  0
  142.8448  161.0270  135.0085 H   0  0  0  0  0  0  0  0  0  0  0  0
  145.7241  160.5510  133.4903 H   0  0  0  0  0  0  0  0  0  0  0  0
  148.4571  161.7750  131.6575 H   0  0  0  0  0  0  0  0  0  0  0  0
  149.4797  161.4767  129.1757 H   0  0  0  0  0  0  0  0  0  0  0  0
  149.1620  157.6540  130.7950 H   0  0  0  0  0  0  0  0  0  0  0  0
  1  2  1  0
  2  3  2  0
  2  4  1  0
  4  5  2  0
  5  6  1  0
  6  7  2  0
  7  8  1  0
  8  9  2  0
  9 10  1  0
 10 11  1  0
 10 12  1  0
  9 13  1  0
 13 14  2  0
 14 15  1  0
 15 16  1  0
 16 17  2  0
 16 18  1  0
 18 19  1  0
 19 20  2  0
 20 21  1  0
 21 22  1  0
 15  4  1  0
 22 18  2  0
 14  6  1  0
  1 23  1  0
  5 24  1  0
  7 25  1  0
  8 26  1  0
 10 27  1  0
 13 28  1  0
 19 29  1  0
 20 30  1  0
 22 31  1  0
M  CHG  2   1  -1  22   1
M  END
>  <UniqueID>  (69) 
69

>  <SMILES>  (69) 
[NH-]C(=O)c1cc2ccc(C(F)F)cc2n1C(=O)c1cco[nH+]1

>  <Energy>  (69) 
102.61140578677586

>  <Genealogy>  (69) 
[NH-]C(=O)c1cc2ccc(C(F)F)cc2n1C(=O)c1cco[nH+]1 (protonated)
[NH-]C(=O)c1cc2ccc(C(F)F)cc2n1C(=O)c1cco[nH+]1 (3D coordinates assigned)
[NH-]C(=O)c1cc2ccc(C(F)F)cc2n1C(=O)c1cco[nH+]1 (optimized conformer: 102.61140578677586 kcal/mol)

>  <smiles>  (69) 
NC(=O)c1cc2ccc(C(F)F)cc2n1C(=O)c1ccon1

>  <score_type>  (69) 
oracle

>  <origin>  (69) 
adg

>  <m_score__min__energy>  (69) 
-6.4400000000000004

>  <m_primary>  (69) 
energy

$$$$
69:0
     RDKit          3D

 62 64  0  0  0  0  0  0  0  0999 V2000
  147.7780  158.3330  133.5420 C   0  0  0  0  0  0  0  0  0  0  0  0
  146.4600  158.6900  133.9430 O   0  0  0  0  0  0  0  0  0  0  0  0
  145.9130  159.9520  133.6970 C   0  0  0  0  0  0  0  0  0  0  0  0
  146.6610  160.9200  133.3870 O   0  0  0  0  0  0  0  0  0  0  0  0
  144.4910  160.1400  133.7720 N   0  0  0  0  0  0  0  0  0  0  0  0
  143.7970  161.3130  133.7230 C   0  0  0  0  0  0  0  0  0  0  0  0
  144.3790  162.6710  133.7430 C   0  0  0  0  0  0  0  0  0  0  0  0
  145.4620  162.9910  134.6110 N   0  0  0  0  0  0  0  0  0  0  0  0
  143.8810  163.5740  133.0180 O   0  0  0  0  0  0  0  0  0  0  0  0
  142.4240  161.0690  133.7330 C   0  0  0  0  0  0  0  0  0  0  0  0
  142.2970  159.7010  133.8020 C   0  0  0  0  0  0  0  0  0  0  0  0
  141.1520  158.9080  133.8290 C   0  0  0  0  0  0  0  0  0  0  0  0
  141.3190  157.5130  133.8700 C   0  0  0  0  0  0  0  0  0  0  0  0
  142.6140  156.9470  133.8740 C   0  0  0  0  0  0  0  0  0  0  0  0
  142.7720  155.5180  133.9050 C   0  0  0  0  0  0  0  0  0  0  0  0
  142.9050  154.3200  133.9340 C   0  0  0  0  0  0  0  0  0  0  0  0
  143.0620  152.8530  133.9670 C   0  0  2  0  0  0  0  0  0  0  0  0
  144.4090  152.6310  134.3860 O   0  0  0  0  0  0  0  0  0  0  0  0
  145.3940  153.2910  133.6110 C   0  0  0  0  0  0  0  0  0  0  0  0
  142.8250  152.3310  132.5160 C   0  0  0  0  0  0  0  0  0  0  0  0
  141.3240  152.1520  132.2360 C   0  0  0  0  0  0  0  0  0  0  0  0
  140.6760  151.1730  133.1550 N   0  0  1  0  0  0  0  0  0  0  0  0
  140.5090  149.8910  132.5120 C   0  0  0  0  0  0  0  0  0  0  0  0
  140.5790  148.8300  133.1930 O   0  0  0  0  0  0  0  0  0  0  0  0
  140.2480  149.8450  131.1330 O   0  0  0  0  0  0  0  0  0  0  0  0
  139.3930  148.9090  130.4610 C   0  0  0  0  0  0  0  0  0  0  0  0
  139.8660  147.4640  130.7130 C   0  0  0  0  0  0  0  0  0  0  0  0
  137.9840  149.0780  131.0480 C   0  0  0  0  0  0  0  0  0  0  0  0
  139.3420  149.2080  128.9500 C   0  0  0  0  0  0  0  0  0  0  0  0
  141.3650  150.9910  134.4580 C   0  0  0  0  0  0  0  0  0  0  0  0
  141.9850  152.3020  134.9620 C   0  0  0  0  0  0  0  0  0  0  0  0
  143.7540  157.7760  133.8440 C   0  0  0  0  0  0  0  0  0  0  0  0
  143.5590  159.1630  133.8230 C   0  0  0  0  0  0  0  0  0  0  0  0
  148.3996  158.1646  134.4338 H   0  0  0  0  0  0  0  0  0  0  0  0
  147.7417  157.4123  132.9412 H   0  0  0  0  0  0  0  0  0  0  0  0
  148.2114  159.1461  132.9412 H   0  0  0  0  0  0  0  0  0  0  0  0
  146.4480  162.7800  134.3400 H   0  0  0  0  0  0  0  0  0  0  0  0
  141.6144  161.8126  133.6940 H   0  0  0  0  0  0  0  0  0  0  0  0
  140.1489  159.3593  133.8186 H   0  0  0  0  0  0  0  0  0  0  0  0
  140.4361  156.8576  133.8992 H   0  0  0  0  0  0  0  0  0  0  0  0
  146.1204  153.7777  134.2785 H   0  0  0  0  0  0  0  0  0  0  0  0
  145.9132  152.5578  132.9763 H   0  0  0  0  0  0  0  0  0  0  0  0
  144.9133  154.0501  132.9763 H   0  0  0  0  0  0  0  0  0  0  0  0
  143.3321  151.3625  132.3943 H   0  0  0  0  0  0  0  0  0  0  0  0
  143.2295  153.0681  131.8068 H   0  0  0  0  0  0  0  0  0  0  0  0
  141.1994  151.7984  131.2018 H   0  0  0  0  0  0  0  0  0  0  0  0
  140.8394  153.1264  132.3962 H   0  0  0  0  0  0  0  0  0  0  0  0
  139.7160  151.5390  133.3620 H   0  0  0  0  0  0  0  0  0  0  0  0
  139.9258  147.2814  131.7961 H   0  0  0  0  0  0  0  0  0  0  0  0
  139.1513  146.7602  130.2614 H   0  0  0  0  0  0  0  0  0  0  0  0
  140.8585  147.3190  130.2614 H   0  0  0  0  0  0  0  0  0  0  0  0
  138.0412  149.0711  132.1465 H   0  0  0  0  0  0  0  0  0  0  0  0
  137.5577  150.0337  130.7090 H   0  0  0  0  0  0  0  0  0  0  0  0
  137.3438  148.2502  130.7090 H   0  0  0  0  0  0  0  0  0  0  0  0
  139.1589  150.2815  128.7946 H   0  0  0  0  0  0  0  0  0  0  0  0
  140.3007  148.9290  128.4884 H   0  0  0  0  0  0  0  0  0  0  0  0
  138.5300  148.6269  128.4884 H   0  0  0  0  0  0  0  0  0  0  0  0
  142.1624  150.2429  134.3379 H   0  0  0  0  0  0  0  0  0  0  0  0
  140.6198  150.6588  135.1958 H   0  0  0  0  0  0  0  0  0  0  0  0
  142.4604  152.1199  135.9371 H   0  0  0  0  0  0  0  0  0  0  0  0
  141.1830  153.0499  135.0483 H   0  0  0  0  0  0  0  0  0  0  0  0
  144.7666  157.3463  133.8373 H   0  0  0  0  0  0  0  0  0  0  0  0
  1  2  1  0
  2  3  1  0
  3  4  2  0
  3  5  1  0
  5  6  1  0
  6  7  1  0
  7  8  1  0
  7  9  2  0
  6 10  2  0
 10 11  1  0
 11 12  2  0
 12 13  1  0
 13 14  2  0
 14 15  1  0
 15 16  3  0
 17 16  1  6
 17 18  1  0
 18 19  1  0
 17 20  1  0
 20 21  1  0
 21 22  1  0
 22 23  1  0
 23 24  2  0
 23 25  1  0
 25 26  1  0
 26 27  1  0
 26 28  1  0
 26 29  1  0
 22 30  1  0
 30 31  1  0
 14 32  1  0
 32 33  2  0
 33  5  1  0
 33 11  1  0
 31 17  1  0
  1 34  1  0
  1 35  1  0
  1 36  1  0
  8 37  1  0
 10 38  1  0
 12 39  1  0
 13 40  1  0
 19 41  1  0
 19 42  1  0
 19 43  1  0
 20 44  1  0
 20 45  1  0
 21 46  1  0
 21 47  1  0
 22 48  1  1
 27 49  1  0
 27 50  1  0
 27 51  1  0
 28 52  1  0
 28 53  1  0
 28 54  1  0
 29 55  1  0
 29 56  1  0
 29 57  1  0
 30 58  1  0
 30 59  1  0
 31 60  1  0
 31 61  1  0
 32 62  1  0
M  CHG  2   8  -1  22   1
M  END
>  <UniqueID>  (70) 
70

>  <SMILES>  (70) 
COC(=O)n1c(C([NH-])=O)cc2ccc(C#CC3(OC)CC[NH+](C(=O)OC(C)(C)C)CC3)cc21

>  <Energy>  (70) 
111.8936167950259

>  <Genealogy>  (70) 
COC(=O)n1c(C([NH-])=O)cc2ccc(C#CC3(OC)CC[NH+](C(=O)OC(C)(C)C)CC3)cc21 (protonated)
COC(=O)n1c(C([NH-])=O)cc2ccc(C#CC3(OC)CC[NH+](C(=O)OC(C)(C)C)CC3)cc21 (3D coordinates assigned)
COC(=O)n1c(C([NH-])=O)cc2ccc(C#CC3(OC)CC[NH+](C(=O)OC(C)(C)C)CC3)cc21 (nonaromatic ring conformer: 111.8936167950259 kcal/mol)

>  <smiles>  (70) 
COC(=O)n1c(C(N)=O)cc2ccc(C#CC3(OC)CCN(C(=O)OC(C)(C)C)CC3)cc21

>  <score_type>  (70) 
oracle

>  <origin>  (70) 
adg

>  <m_score__min__energy>  (70) 
-8.5800000000000001

>  <m_primary>  (70) 
energy

$$$$
70:0
     RDKit          3D

 36 38  0  0  0  0  0  0  0  0999 V2000
  142.0500  159.7440  133.1590 N   0  0  0  0  0  0  0  0  0  0  0  0
  142.0380  158.9270  134.3250 C   0  0  0  0  0  0  0  0  0  0  0  0
  141.9690  159.4720  135.4600 O   0  0  0  0  0  0  0  0  0  0  0  0
  142.1630  157.4580  134.2260 C   0  0  0  0  0  0  0  0  0  0  0  0
  143.2370  156.7450  134.7540 C   0  0  0  0  0  0  0  0  0  0  0  0
  143.0300  155.4390  134.3730 C   0  0  0  0  0  0  0  0  0  0  0  0
  143.7860  154.3010  134.6340 C   0  0  0  0  0  0  0  0  0  0  0  0
  143.3190  153.0720  134.1400 C   0  0  0  0  0  0  0  0  0  0  0  0
  142.1060  152.9980  133.4040 C   0  0  0  0  0  0  0  0  0  0  0  0
  141.6160  151.6890  132.8980 C   0  0  0  0  0  0  0  0  0  0  0  0
  142.5000  150.6160  132.7020 C   0  0  0  0  0  0  0  0  0  0  0  0
  142.0270  149.3940  132.2240 C   0  0  0  0  0  0  0  0  0  0  0  0
  140.6620  149.2420  131.9520 C   0  0  0  0  0  0  0  0  0  0  0  0
  140.1270  147.9540  131.4040 C   0  0  0  0  0  0  0  0  0  0  0  0
  139.0650  148.2710  130.0080 S   0  0  0  0  0  0  0  0  0  0  0  0
  139.7430  149.2170  129.0580 O   0  0  0  0  0  0  0  0  0  0  0  0
  137.7810  148.8840  130.4880 O   0  0  0  0  0  0  0  0  0  0  0  0
  138.7290  146.8290  129.2140 O   0  0  0  0  0  0  0  0  0  0  0  0
  139.8180  150.2940  132.1400 N   0  0  0  0  0  0  0  0  0  0  0  0
  140.2560  151.4950  132.6010 C   0  0  0  0  0  0  0  0  0  0  0  0
  141.3660  154.1800  133.1620 C   0  0  0  0  0  0  0  0  0  0  0  0
  141.8660  155.3920  133.6510 C   0  0  0  0  0  0  0  0  0  0  0  0
  141.3200  156.6260  133.5530 N   0  0  0  0  0  0  0  0  0  0  0  0
  140.0570  156.9560  132.9520 C   0  0  0  0  0  0  0  0  0  0  0  0
  139.0500  156.2240  133.1440 O   0  0  0  0  0  0  0  0  0  0  0  0
  139.9270  158.1010  132.1770 O   0  0  0  0  0  0  0  0  0  0  0  0
  141.7300  159.3690  132.2380 H   0  0  0  0  0  0  0  0  0  0  0  0
  144.0729  157.1416  135.3490 H   0  0  0  0  0  0  0  0  0  0  0  0
  144.7213  154.3617  135.2099 H   0  0  0  0  0  0  0  0  0  0  0  0
  143.8992  152.1560  134.3251 H   0  0  0  0  0  0  0  0  0  0  0  0
  143.5698  150.7395  132.9263 H   0  0  0  0  0  0  0  0  0  0  0  0
  142.7211  148.5561  132.0620 H   0  0  0  0  0  0  0  0  0  0  0  0
  140.9664  147.3187  131.0848 H   0  0  0  0  0  0  0  0  0  0  0  0
  139.5465  147.4449  132.1875 H   0  0  0  0  0  0  0  0  0  0  0  0
  139.5422  152.3199  132.7425 H   0  0  0  0  0  0  0  0  0  0  0  0
  140.4196  154.1466  132.6024 H   0  0  0  0  0  0  0  0  0  0  0  0
  1  2  1  0
  2  3  2  0
  2  4  1  0
  4  5  2  0
  5  6  1  0
  6  7  2  0
  7  8  1  0
  8  9  2  0
  9 10  1  0
 10 11  2  0
 11 12  1  0
 12 13  2  0
 13 14  1  0
 14 15  1  0
 15 16  2  0
 15 17  2  0
 15 18  1  0
 13 19  1  0
 19 20  2  0
  9 21  1  0
 21 22  2  0
 22 23  1  0
 23 24  1  0
 24 25  2  0
 24 26  1  0
 23  4  1  0
 22  6  1  0
 20 10  1  0
  1 27  1  0
  5 28  1  0
  7 29  1  0
  8 30  1  0
 11 31  1  0
 12 32  1  0
 14 33  1  0
 14 34  1  0
 20 35  1  0
 21 36  1  0
M  CHG  3   1  -1  18  -1  26  -1
M  END
>  <UniqueID>  (71) 
71

>  <SMILES>  (71) 
[NH-]C(=O)c1cc2ccc(-c3ccc(CS(=O)(=O)[O-])nc3)cc2n1C(=O)[O-]

>  <Energy>  (71) 
79.58949466363035

>  <Genealogy>  (71) 
[NH-]C(=O)c1cc2ccc(-c3ccc(CS(=O)(=O)[O-])nc3)cc2n1C(=O)[O-] (protonated)
[NH-]C(=O)c1cc2ccc(-c3ccc(CS(=O)(=O)[O-])nc3)cc2n1C(=O)[O-] (3D coordinates assigned)
[NH-]C(=O)c1cc2ccc(-c3ccc(CS(=O)(=O)[O-])nc3)cc2n1C(=O)[O-] (optimized conformer: 79.58949466363035 kcal/mol)

>  <smiles>  (71) 
NC(=O)c1cc2ccc(-c3ccc(CS(=O)(=O)O)nc3)cc2n1C(=O)O

>  <score_type>  (71) 
oracle

>  <origin>  (71) 
adg

>  <m_score__min__energy>  (71) 
-8.2599999999999998

>  <m_primary>  (71) 
energy

$$$$
71:0
     RDKit          3D

 45 47  0  0  0  0  0  0  0  0999 V2000
  137.3970  159.9400  130.7350 C   0  0  0  0  0  0  0  0  0  0  0  0
  138.4720  160.5010  131.5570 N   0  0  0  0  0  0  0  0  0  0  0  0
  139.0630  159.4880  132.4440 C   0  0  0  0  0  0  0  0  0  0  0  0
  140.6110  159.5510  132.3660 C   0  0  2  0  0  0  0  0  0  0  0  0
  141.4090  158.3110  132.6210 N   0  0  0  0  0  0  0  0  0  0  0  0
  140.6390  157.1070  132.9880 C   0  0  0  0  0  0  0  0  0  0  0  0
  141.4380  159.4510  133.5910 C   0  0  2  0  0  0  0  0  0  0  0  0
  140.7910  159.2830  134.9890 C   0  0  0  0  0  0  0  0  0  0  0  0
  142.7870  160.1930  133.5480 C   0  0  0  0  0  0  0  0  0  0  0  0
  143.9360  159.2230  133.6170 C   0  0  0  0  0  0  0  0  0  0  0  0
  145.2190  159.6000  133.1480 C   0  0  0  0  0  0  0  0  0  0  0  0
  146.3030  158.7110  133.2370 C   0  0  0  0  0  0  0  0  0  0  0  0
  146.0780  157.4650  133.8140 C   0  0  0  0  0  0  0  0  0  0  0  0
  146.9420  156.4110  134.0100 C   0  0  0  0  0  0  0  0  0  0  0  0
  146.1820  155.4190  134.6270 C   0  0  0  0  0  0  0  0  0  0  0  0
  146.7460  154.1350  135.0900 C   0  0  0  0  0  0  0  0  0  0  0  0
  146.5290  153.6730  136.4210 N   0  0  0  0  0  0  0  0  0  0  0  0
  147.4710  153.4560  134.3140 O   0  0  0  0  0  0  0  0  0  0  0  0
  144.8960  155.8400  134.8000 N   0  0  0  0  0  0  0  0  0  0  0  0
  143.7890  155.0930  135.3270 C   0  0  0  0  0  0  0  0  0  0  0  0
  143.8160  154.6220  136.6740 N   0  0  0  0  0  0  0  0  0  0  0  0
  142.7820  154.8590  134.6070 O   0  0  0  0  0  0  0  0  0  0  0  0
  144.8500  157.0940  134.2970 C   0  0  0  0  0  0  0  0  0  0  0  0
  143.7480  157.9500  134.1990 C   0  0  0  0  0  0  0  0  0  0  0  0
  136.6120  159.5304  131.3877 H   0  0  0  0  0  0  0  0  0  0  0  0
  136.9704  160.7304  130.1000 H   0  0  0  0  0  0  0  0  0  0  0  0
  137.8014  159.1380  130.1000 H   0  0  0  0  0  0  0  0  0  0  0  0
  138.0430  161.2440  132.1590 H   0  0  0  0  0  0  0  0  0  0  0  0
  138.7426  159.6787  133.4789 H   0  0  0  0  0  0  0  0  0  0  0  0
  138.7263  158.4901  132.1265 H   0  0  0  0  0  0  0  0  0  0  0  0
  140.5379  160.2826  131.5478 H   0  0  0  0  0  0  0  0  0  0  0  0
  140.5866  157.0251  134.0837 H   0  0  0  0  0  0  0  0  0  0  0  0
  139.6215  157.1830  132.5770 H   0  0  0  0  0  0  0  0  0  0  0  0
  141.1348  156.2153  132.5770 H   0  0  0  0  0  0  0  0  0  0  0  0
  141.5435  159.4784  135.7672 H   0  0  0  0  0  0  0  0  0  0  0  0
  139.9594  159.9950  135.0961 H   0  0  0  0  0  0  0  0  0  0  0  0
  140.4108  158.2564  135.0961 H   0  0  0  0  0  0  0  0  0  0  0  0
  142.8540  160.7645  132.6105 H   0  0  0  0  0  0  0  0  0  0  0  0
  142.8445  160.8682  134.4145 H   0  0  0  0  0  0  0  0  0  0  0  0
  145.3674  160.5981  132.7101 H   0  0  0  0  0  0  0  0  0  0  0  0
  147.2985  158.9911  132.8623 H   0  0  0  0  0  0  0  0  0  0  0  0
  148.0066  156.3622  133.7374 H   0  0  0  0  0  0  0  0  0  0  0  0
  145.9140  154.2010  137.0790 H   0  0  0  0  0  0  0  0  0  0  0  0
  144.7110  154.5880  137.2110 H   0  0  0  0  0  0  0  0  0  0  0  0
  142.7589  157.6391  134.5664 H   0  0  0  0  0  0  0  0  0  0  0  0
  1  2  1  0
  2  3  1  0
  3  4  1  0
  4  5  1  0
  5  6  1  0
  5  7  1  0
  7  8  1  1
  7  9  1  0
  9 10  1  0
 10 11  2  0
 11 12  1  0
 12 13  2  0
 13 14  1  0
 14 15  2  0
 15 16  1  0
 16 17  1  0
 16 18  2  0
 15 19  1  0
 19 20  1  0
 20 21  1  0
 20 22  2  0
 19 23  1  0
 23 24  2  0
  7  4  1  0
 24 10  1  0
 23 13  1  0
  1 25  1  0
  1 26  1  0
  1 27  1  0
  2 28  1  0
  3 29  1  0
  3 30  1  0
  4 31  1  6
  6 32  1  0
  6 33  1  0
  6 34  1  0
  8 35  1  0
  8 36  1  0
  8 37  1  0
  9 38  1  0
  9 39  1  0
 11 40  1  0
 12 41  1  0
 14 42  1  0
 17 43  1  0
 21 44  1  0
 24 45  1  0
M  CHG  2  17  -1  21  -1
M  END
>  <UniqueID>  (72) 
72

>  <SMILES>  (72) 
CNC[C@@H]1[N@](C)[C@@]1(C)Cc1ccc2cc(C([NH-])=O)n(C([NH-])=O)c2c1

>  <Energy>  (72) 
442.9183016245289

>  <Genealogy>  (72) 
CNC[C@@H]1N(C)[C@@]1(C)Cc1ccc2cc(C([NH-])=O)n(C([NH-])=O)c2c1 (protonated)
CNC[C@@H]1[N@](C)[C@@]1(C)Cc1ccc2cc(C([NH-])=O)n(C([NH-])=O)c2c1 (chirality)
CNC[C@@H]1[N@](C)[C@@]1(C)Cc1ccc2cc(C([NH-])=O)n(C([NH-])=O)c2c1 (3D coordinates assigned)
CNC[C@@H]1[N@](C)[C@@]1(C)Cc1ccc2cc(C([NH-])=O)n(C([NH-])=O)c2c1 (nonaromatic ring conformer: 442.9183016245289 kcal/mol)

>  <smiles>  (72) 
CNC[C@@H]1N(C)[C@@]1(C)Cc1ccc2cc(C(N)=O)n(C(N)=O)c2c1

>  <score_type>  (72) 
oracle

>  <origin>  (72) 
adg

>  <m_score__min__energy>  (72) 
-7.4100000000000001

>  <m_primary>  (72) 
energy

$$$$
72:0
     RDKit          3D

 25 26  0  0  0  0  0  0  0  0999 V2000
  142.8180  160.6510  133.3620 N   0  0  0  0  0  0  0  0  0  0  0  0
  144.1860  160.8720  133.6980 C   0  0  0  0  0  0  0  0  0  0  0  0
  144.5200  161.9570  134.2440 O   0  0  0  0  0  0  0  0  0  0  0  0
  145.2030  159.8250  133.4680 C   0  0  0  0  0  0  0  0  0  0  0  0
  146.5460  160.1020  133.2190 C   0  0  0  0  0  0  0  0  0  0  0  0
  147.1670  158.8770  133.1590 C   0  0  0  0  0  0  0  0  0  0  0  0
  148.4990  158.5590  132.9150 C   0  0  0  0  0  0  0  0  0  0  0  0
  148.8560  157.2020  132.8740 C   0  0  0  0  0  0  0  0  0  0  0  0
  147.8860  156.1880  133.0880 C   0  0  0  0  0  0  0  0  0  0  0  0
  148.2700  154.7340  132.9800 C   0  0  0  0  0  0  0  0  0  0  0  0
  147.2520  154.0410  132.3540 F   0  0  0  0  0  0  0  0  0  0  0  0
  148.4840  154.1910  134.2350 F   0  0  0  0  0  0  0  0  0  0  0  0
  149.4340  154.5910  132.2430 F   0  0  0  0  0  0  0  0  0  0  0  0
  146.5370  156.5530  133.3090 C   0  0  0  0  0  0  0  0  0  0  0  0
  146.2130  157.9130  133.3620 C   0  0  0  0  0  0  0  0  0  0  0  0
  145.0000  158.4790  133.5480 N   0  0  0  0  0  0  0  0  0  0  0  0
  143.7520  157.7830  133.6980 C   0  0  0  0  0  0  0  0  0  0  0  0
  142.7520  157.8760  132.6840 N   0  0  0  0  0  0  0  0  0  0  0  0
  143.5460  157.0620  134.7100 O   0  0  0  0  0  0  0  0  0  0  0  0
  142.5550  160.0500  132.5500 H   0  0  0  0  0  0  0  0  0  0  0  0
  147.0107  161.0914  133.0964 H   0  0  0  0  0  0  0  0  0  0  0  0
  149.2501  159.3473  132.7588 H   0  0  0  0  0  0  0  0  0  0  0  0
  149.9004  156.9209  132.6735 H   0  0  0  0  0  0  0  0  0  0  0  0
  145.7603  155.7846  133.4363 H   0  0  0  0  0  0  0  0  0  0  0  0
  142.5220  158.7920  132.2410 H   0  0  0  0  0  0  0  0  0  0  0  0
  1  2  1  0
  2  3  2  0
  2  4  1  0
  4  5  2  0
  5  6  1  0
  6  7  2  0
  7  8  1  0
  8  9  2  0
  9 10  1  0
 10 11  1  0
 10 12  1  0
 10 13  1  0
  9 14  1  0
 14 15  2  0
 15 16  1  0
 16 17  1  0
 17 18  1  0
 17 19  2  0
 16  4  1  0
 15  6  1  0
  1 20  1  0
  5 21  1  0
  7 22  1  0
  8 23  1  0
 14 24  1  0
 18 25  1  0
M  CHG  2   1  -1  18  -1
M  END
>  <UniqueID>  (73) 
73

>  <SMILES>  (73) 
[NH-]C(=O)c1cc2ccc(C(F)(F)F)cc2n1C([NH-])=O

>  <Energy>  (73) 
65.69600211006197

>  <Genealogy>  (73) 
[NH-]C(=O)c1cc2ccc(C(F)(F)F)cc2n1C([NH-])=O (protonated)
[NH-]C(=O)c1cc2ccc(C(F)(F)F)cc2n1C([NH-])=O (3D coordinates assigned)
[NH-]C(=O)c1cc2ccc(C(F)(F)F)cc2n1C([NH-])=O (optimized conformer: 65.69600211006197 kcal/mol)

>  <smiles>  (73) 
NC(=O)c1cc2ccc(C(F)(F)F)cc2n1C(N)=O

>  <score_type>  (73) 
oracle

>  <origin>  (73) 
adg

>  <m_score__min__energy>  (73) 
-5.3399999999999999

>  <m_primary>  (73) 
energy

$$$$
73:0
     RDKit          3D

 41 43  0  0  0  0  0  0  0  0999 V2000
  149.8170  159.2410  131.8800 N   0  0  0  0  0  0  0  0  0  0  0  0
  148.8740  158.2570  132.2970 C   0  0  0  0  0  0  0  0  0  0  0  0
  149.2070  157.0420  132.2870 O   0  0  0  0  0  0  0  0  0  0  0  0
  147.5270  158.6410  132.7730 C   0  0  0  0  0  0  0  0  0  0  0  0
  147.1340  159.9610  132.9860 C   0  0  0  0  0  0  0  0  0  0  0  0
  145.8110  159.8940  133.3580 C   0  0  0  0  0  0  0  0  0  0  0  0
  144.9270  160.9080  133.7150 C   0  0  0  0  0  0  0  0  0  0  0  0
  143.6250  160.5420  134.0990 C   0  0  0  0  0  0  0  0  0  0  0  0
  143.2340  159.1800  134.1170 C   0  0  0  0  0  0  0  0  0  0  0  0
  141.8520  158.7980  134.5800 C   0  0  0  0  0  0  0  0  0  0  0  0
  141.0900  158.0270  133.5280 C   0  0  0  0  0  0  0  0  0  0  0  0
  141.3490  156.8030  133.3560 O   0  0  0  0  0  0  0  0  0  0  0  0
  140.1110  158.6730  132.6800 N   0  0  0  0  0  0  0  0  0  0  0  0
  139.1260  157.8450  131.9690 C   0  0  0  0  0  0  0  0  0  0  0  0
  138.5800  158.5850  130.7460 C   0  0  0  0  0  0  0  0  0  0  0  0
  138.1360  159.8800  131.0970 O   0  0  0  0  0  0  0  0  0  0  0  0
  139.2420  160.6610  131.5010 C   0  0  0  0  0  0  0  0  0  0  0  0
  139.8510  160.1160  132.7960 C   0  0  0  0  0  0  0  0  0  0  0  0
  144.1620  158.1780  133.7590 C   0  0  0  0  0  0  0  0  0  0  0  0
  145.4450  158.5720  133.3620 C   0  0  0  0  0  0  0  0  0  0  0  0
  146.4880  157.7910  133.0050 N   0  0  0  0  0  0  0  0  0  0  0  0
  146.5000  156.3560  132.9750 C   0  0  0  0  0  0  0  0  0  0  0  0
  147.0890  155.6620  131.8760 N   0  0  0  0  0  0  0  0  0  0  0  0
  145.9850  155.7010  133.9200 O   0  0  0  0  0  0  0  0  0  0  0  0
  150.7080  159.3880  132.4040 H   0  0  0  0  0  0  0  0  0  0  0  0
  147.7511  160.8653  132.8793 H   0  0  0  0  0  0  0  0  0  0  0  0
  145.2374  161.9631  133.6972 H   0  0  0  0  0  0  0  0  0  0  0  0
  142.9032  161.3200  134.3881 H   0  0  0  0  0  0  0  0  0  0  0  0
  141.9404  158.1742  135.4817 H   0  0  0  0  0  0  0  0  0  0  0  0
  141.2972  159.7250  134.7870 H   0  0  0  0  0  0  0  0  0  0  0  0
  139.6078  156.9120  131.6412 H   0  0  0  0  0  0  0  0  0  0  0  0
  138.2914  157.6243  132.6507 H   0  0  0  0  0  0  0  0  0  0  0  0
  139.3757  158.6693  129.9912 H   0  0  0  0  0  0  0  0  0  0  0  0
  137.7275  158.0181  130.3438 H   0  0  0  0  0  0  0  0  0  0  0  0
  140.0047  160.6426  130.7086 H   0  0  0  0  0  0  0  0  0  0  0  0
  138.8989  161.6907  131.6798 H   0  0  0  0  0  0  0  0  0  0  0  0
  140.7976  160.6386  132.9980 H   0  0  0  0  0  0  0  0  0  0  0  0
  139.1405  160.2827  133.6190 H   0  0  0  0  0  0  0  0  0  0  0  0
  143.8836  157.1143  133.7913 H   0  0  0  0  0  0  0  0  0  0  0  0
  147.5780  156.1850  131.1180 H   0  0  0  0  0  0  0  0  0  0  0  0
  147.0690  154.6180  131.8400 H   0  0  0  0  0  0  0  0  0  0  0  0
  1  2  1  0
  2  3  2  0
  2  4  1  0
  4  5  2  0
  5  6  1  0
  6  7  2  0
  7  8  1  0
  8  9  2  0
  9 10  1  0
 10 11  1  0
 11 12  2  0
 11 13  1  0
 13 14  1  0
 14 15  1  0
 15 16  1  0
 16 17  1  0
 17 18  1  0
  9 19  1  0
 19 20  2  0
 20 21  1  0
 21 22  1  0
 22 23  1  0
 22 24  2  0
 21  4  1  0
 20  6  1  0
 18 13  1  0
  1 25  1  0
  5 26  1  0
  7 27  1  0
  8 28  1  0
 10 29  1  0
 10 30  1  0
 14 31  1  0
 14 32  1  0
 15 33  1  0
 15 34  1  0
 17 35  1  0
 17 36  1  0
 18 37  1  0
 18 38  1  0
 19 39  1  0
 23 40  1  0
 23 41  1  0
M  CHG  1   1  -1
M  END
>  <UniqueID>  (74) 
74

>  <SMILES>  (74) 
[NH-]C(=O)c1cc2ccc(CC(=O)N3CCOCC3)cc2n1C(N)=O

>  <Energy>  (74) 
83.02833884428684

>  <Genealogy>  (74) 
[NH-]C(=O)c1cc2ccc(CC(=O)N3CCOCC3)cc2n1C(N)=O (protonated)
[NH-]C(=O)c1cc2ccc(CC(=O)N3CCOCC3)cc2n1C(N)=O (3D coordinates assigned)
[NH-]C(=O)c1cc2ccc(CC(=O)N3CCOCC3)cc2n1C(N)=O (nonaromatic ring conformer: 83.02833884428684 kcal/mol)

>  <smiles>  (74) 
NC(=O)c1cc2ccc(CC(=O)N3CCOCC3)cc2n1C(N)=O

>  <score_type>  (74) 
oracle

>  <origin>  (74) 
adg

>  <m_score__min__energy>  (74) 
-7.96

>  <m_primary>  (74) 
energy

$$$$
74:0
     RDKit          3D

 40 42  0  0  0  0  0  0  0  0999 V2000
  143.1820  149.1840  132.0650 C   0  0  0  0  0  0  0  0  0  0  0  0
  142.0210  150.1300  132.2330 C   0  0  0  0  0  0  0  0  0  0  0  0
  142.2040  151.3050  132.9830 C   0  0  0  0  0  0  0  0  0  0  0  0
  141.1510  152.2180  133.1690 C   0  0  0  0  0  0  0  0  0  0  0  0
  141.3610  153.4610  133.9550 C   0  0  0  0  0  0  0  0  0  0  0  0
  141.9290  153.4010  135.2560 C   0  0  0  0  0  0  0  0  0  0  0  0
  142.1210  154.5690  136.0120 C   0  0  0  0  0  0  0  0  0  0  0  0
  141.7430  155.7820  135.4470 C   0  0  0  0  0  0  0  0  0  0  0  0
  141.7930  157.0570  135.9650 C   0  0  0  0  0  0  0  0  0  0  0  0
  141.2730  157.8820  134.9680 C   0  0  0  0  0  0  0  0  0  0  0  0
  141.2200  159.3540  135.0750 C   0  0  0  0  0  0  0  0  0  0  0  0
  140.7310  159.9860  136.2550 N   0  0  0  0  0  0  0  0  0  0  0  0
  141.5740  160.0640  134.0970 O   0  0  0  0  0  0  0  0  0  0  0  0
  140.9070  157.1440  133.8820 N   0  0  0  0  0  0  0  0  0  0  0  0
  140.2610  157.5980  132.6830 C   0  0  0  0  0  0  0  0  0  0  0  0
  140.8590  158.6140  131.8790 N   0  0  0  0  0  0  0  0  0  0  0  0
  139.1400  157.1250  132.3550 O   0  0  0  0  0  0  0  0  0  0  0  0
  141.2060  155.8630  134.1880 C   0  0  0  0  0  0  0  0  0  0  0  0
  140.9890  154.7170  133.4180 C   0  0  0  0  0  0  0  0  0  0  0  0
  139.9030  151.9400  132.5940 C   0  0  0  0  0  0  0  0  0  0  0  0
  139.7060  150.7730  131.8560 C   0  0  0  0  0  0  0  0  0  0  0  0
  140.7480  149.8510  131.6780 C   0  0  0  0  0  0  0  0  0  0  0  0
  140.4820  148.6230  130.8370 C   0  0  0  0  0  0  0  0  0  0  0  0
  140.0710  148.9960  129.5510 O   0  0  0  0  0  0  0  0  0  0  0  0
  143.5541  148.8808  133.0548 H   0  0  0  0  0  0  0  0  0  0  0  0
  142.8523  148.2941  131.5088 H   0  0  0  0  0  0  0  0  0  0  0  0
  143.9870  149.6866  131.5088 H   0  0  0  0  0  0  0  0  0  0  0  0
  143.1866  151.5134  133.4314 H   0  0  0  0  0  0  0  0  0  0  0  0
  142.2220  152.4276  135.6764 H   0  0  0  0  0  0  0  0  0  0  0  0
  142.5573  154.5255  137.0208 H   0  0  0  0  0  0  0  0  0  0  0  0
  142.1643  157.3604  136.9550 H   0  0  0  0  0  0  0  0  0  0  0  0
  139.8060  159.7210  136.6620 H   0  0  0  0  0  0  0  0  0  0  0  0
  141.7500  159.0700  132.1780 H   0  0  0  0  0  0  0  0  0  0  0  0
  140.3850  158.9480  131.0120 H   0  0  0  0  0  0  0  0  0  0  0  0
  140.5391  154.7893  132.4168 H   0  0  0  0  0  0  0  0  0  0  0  0
  139.0719  152.6484  132.7260 H   0  0  0  0  0  0  0  0  0  0  0  0
  138.7214  150.5732  131.4081 H   0  0  0  0  0  0  0  0  0  0  0  0
  141.4029  148.0257  130.7650 H   0  0  0  0  0  0  0  0  0  0  0  0
  139.6853  148.0302  131.3101 H   0  0  0  0  0  0  0  0  0  0  0  0
  140.6330  148.4850  128.9130 H   0  0  0  0  0  0  0  0  0  0  0  0
  1  2  1  0
  2  3  2  0
  3  4  1  0
  4  5  1  0
  5  6  2  0
  6  7  1  0
  7  8  2  0
  8  9  1  0
  9 10  2  0
 10 11  1  0
 11 12  1  0
 11 13  2  0
 10 14  1  0
 14 15  1  0
 15 16  1  0
 15 17  2  0
 14 18  1  0
 18 19  2  0
  4 20  2  0
 20 21  1  0
 21 22  2  0
 22 23  1  0
 23 24  1  0
 22  2  1  0
 19  5  1  0
 18  8  1  0
  1 25  1  0
  1 26  1  0
  1 27  1  0
  3 28  1  0
  6 29  1  0
  7 30  1  0
  9 31  1  0
 12 32  1  0
 16 33  1  0
 16 34  1  0
 19 35  1  0
 20 36  1  0
 21 37  1  0
 23 38  1  0
 23 39  1  0
 24 40  1  0
M  CHG  1  12  -1
M  END
>  <UniqueID>  (75) 
75

>  <SMILES>  (75) 
Cc1cc(-c2ccc3cc(C([NH-])=O)n(C(N)=O)c3c2)ccc1CO

>  <Energy>  (75) 
87.05903236590186

>  <Genealogy>  (75) 
Cc1cc(-c2ccc3cc(C([NH-])=O)n(C(N)=O)c3c2)ccc1CO (protonated)
Cc1cc(-c2ccc3cc(C([NH-])=O)n(C(N)=O)c3c2)ccc1CO (3D coordinates assigned)
Cc1cc(-c2ccc3cc(C([NH-])=O)n(C(N)=O)c3c2)ccc1CO (optimized conformer: 87.05903236590186 kcal/mol)

>  <smiles>  (75) 
Cc1cc(-c2ccc3cc(C(N)=O)n(C(N)=O)c3c2)ccc1CO

>  <score_type>  (75) 
oracle

>  <origin>  (75) 
adg

>  <m_score__min__energy>  (75) 
-7.9800000000000004

>  <m_primary>  (75) 
energy

$$$$
75:0
     RDKit          3D

 39 40  0  0  0  0  0  0  0  0999 V2000
  142.5160  154.6710  133.5470 C   0  0  0  0  0  0  0  0  0  0  0  0
  143.3330  155.8030  133.0130 C   0  0  0  0  0  0  0  0  0  0  0  0
  144.2990  155.5540  132.2420 O   0  0  0  0  0  0  0  0  0  0  0  0
  143.0390  157.1620  133.3730 N   0  0  0  0  0  0  0  0  0  0  0  0
  141.8160  157.7080  133.6250 C   0  0  0  0  0  0  0  0  0  0  0  0
  140.5360  156.9700  133.6830 C   0  0  0  0  0  0  0  0  0  0  0  0
  139.6540  156.9900  132.5630 N   0  0  0  0  0  0  0  0  0  0  0  0
  140.2020  156.3370  134.7190 O   0  0  0  0  0  0  0  0  0  0  0  0
  141.9330  159.0710  133.8860 C   0  0  0  0  0  0  0  0  0  0  0  0
  143.2780  159.3480  133.7840 C   0  0  0  0  0  0  0  0  0  0  0  0
  143.9570  160.5550  133.9220 C   0  0  0  0  0  0  0  0  0  0  0  0
  145.3480  160.5540  133.7240 C   0  0  0  0  0  0  0  0  0  0  0  0
  146.0290  159.3570  133.3960 C   0  0  0  0  0  0  0  0  0  0  0  0
  147.5120  159.3750  133.1370 C   0  0  0  0  0  0  0  0  0  0  0  0
  147.9250  158.1640  132.2890 C   0  0  0  0  0  0  0  0  0  0  0  0
  148.4660  157.0060  133.1500 C   0  0  0  0  0  0  0  0  0  0  0  0
  147.5730  155.7520  133.1240 C   0  0  0  0  0  0  0  0  0  0  0  0
  146.8670  155.5950  131.8520 N   0  0  0  0  0  0  0  0  0  0  0  0
  145.3050  158.1530  133.2510 C   0  0  0  0  0  0  0  0  0  0  0  0
  143.9230  158.1790  133.4720 C   0  0  0  0  0  0  0  0  0  0  0  0
  142.5324  154.6938  134.6466 H   0  0  0  0  0  0  0  0  0  0  0  0
  141.4789  154.7687  133.1937 H   0  0  0  0  0  0  0  0  0  0  0  0
  142.9354  153.7175  133.1937 H   0  0  0  0  0  0  0  0  0  0  0  0
  138.7470  156.4730  132.5840 H   0  0  0  0  0  0  0  0  0  0  0  0
  141.1230  159.7764  134.1232 H   0  0  0  0  0  0  0  0  0  0  0  0
  143.4213  161.4810  134.1781 H   0  0  0  0  0  0  0  0  0  0  0  0
  145.9133  161.4922  133.8248 H   0  0  0  0  0  0  0  0  0  0  0  0
  147.7745  160.2988  132.6006 H   0  0  0  0  0  0  0  0  0  0  0  0
  148.0416  159.3318  134.1001 H   0  0  0  0  0  0  0  0  0  0  0  0
  147.0478  157.8086  131.7286 H   0  0  0  0  0  0  0  0  0  0  0  0
  148.7302  158.4854  131.6120 H   0  0  0  0  0  0  0  0  0  0  0  0
  149.4634  156.7309  132.7765 H   0  0  0  0  0  0  0  0  0  0  0  0
  148.4936  157.3620  134.1904 H   0  0  0  0  0  0  0  0  0  0  0  0
  148.2036  154.8660  133.2895 H   0  0  0  0  0  0  0  0  0  0  0  0
  146.8169  155.8628  133.9152 H   0  0  0  0  0  0  0  0  0  0  0  0
  147.5470  155.5760  131.0570 H   0  0  0  0  0  0  0  0  0  0  0  0
  146.2220  156.4060  131.7200 H   0  0  0  0  0  0  0  0  0  0  0  0
  146.2970  154.7200  131.8620 H   0  0  0  0  0  0  0  0  0  0  0  0
  145.8141  157.2188  132.9716 H   0  0  0  0  0  0  0  0  0  0  0  0
  1  2  1  0
  2  3  2  0
  2  4  1  0
  4  5  1  0
  5  6  1  0
  6  7  1  0
  6  8  2  0
  5  9  2  0
  9 10  1  0
 10 11  2  0
 11 12  1  0
 12 13  2  0
 13 14  1  0
 14 15  1  0
 15 16  1  0
 16 17  1  0
 17 18  1  0
 13 19  1  0
 19 20  2  0
 20  4  1  0
 20 10  1  0
  1 21  1  0
  1 22  1  0
  1 23  1  0
  7 24  1  0
  9 25  1  0
 11 26  1  0
 12 27  1  0
 14 28  1  0
 14 29  1  0
 15 30  1  0
 15 31  1  0
 16 32  1  0
 16 33  1  0
 17 34  1  0
 17 35  1  0
 18 36  1  0
 18 37  1  0
 18 38  1  0
 19 39  1  0
M  CHG  2   7  -1  18   1
M  END
>  <UniqueID>  (76) 
76

>  <SMILES>  (76) 
CC(=O)n1c(C([NH-])=O)cc2ccc(CCCC[NH3+])cc21

>  <Energy>  (76) 
72.13572560447714

>  <Genealogy>  (76) 
CC(=O)n1c(C([NH-])=O)cc2ccc(CCCC[NH3+])cc21 (protonated)
CC(=O)n1c(C([NH-])=O)cc2ccc(CCCC[NH3+])cc21 (3D coordinates assigned)
CC(=O)n1c(C([NH-])=O)cc2ccc(CCCC[NH3+])cc21 (optimized conformer: 72.13572560447714 kcal/mol)

>  <smiles>  (76) 
CC(=O)n1c(C(N)=O)cc2ccc(CCCCN)cc21

>  <score_type>  (76) 
oracle

>  <origin>  (76) 
adg

>  <m_score__min__energy>  (76) 
-6.1299999999999999

>  <m_primary>  (76) 
energy

$$$$
76:0
     RDKit          3D

 37 40  0  0  0  0  0  0  0  0999 V2000
  143.6500  154.9400  132.6990 C   0  0  0  0  0  0  0  0  0  0  0  0
  142.8380  155.4600  133.7420 O   0  0  0  0  0  0  0  0  0  0  0  0
  141.6920  156.2220  133.4990 C   0  0  0  0  0  0  0  0  0  0  0  0
  140.6720  155.6870  132.9840 O   0  0  0  0  0  0  0  0  0  0  0  0
  141.6750  157.6200  133.8360 N   0  0  0  0  0  0  0  0  0  0  0  0
  140.5960  158.3750  134.1840 C   0  0  0  0  0  0  0  0  0  0  0  0
  139.2330  157.8700  134.4470 C   0  0  0  0  0  0  0  0  0  0  0  0
  138.4930  157.1790  133.4390 N   0  0  0  0  0  0  0  0  0  0  0  0
  138.7350  158.0030  135.5970 O   0  0  0  0  0  0  0  0  0  0  0  0
  140.9540  159.7140  134.3130 C   0  0  0  0  0  0  0  0  0  0  0  0
  142.3020  159.7580  134.0450 C   0  0  0  0  0  0  0  0  0  0  0  0
  143.1720  160.8410  134.0170 C   0  0  0  0  0  0  0  0  0  0  0  0
  144.5120  160.6030  133.6700 C   0  0  0  0  0  0  0  0  0  0  0  0
  144.9570  159.2940  133.3470 C   0  0  0  0  0  0  0  0  0  0  0  0
  146.3720  159.0570  132.9680 C   0  0  0  0  0  0  0  0  0  0  0  0
  147.0630  157.9040  133.4420 C   0  0  0  0  0  0  0  0  0  0  0  0
  148.4070  157.6700  133.0900 C   0  0  0  0  0  0  0  0  0  0  0  0
  149.0220  158.6050  132.2680 C   0  0  0  0  0  0  0  0  0  0  0  0
  150.2780  158.6190  131.7960 N   0  0  0  0  0  0  0  0  0  0  0  0
  150.3660  159.7280  131.0630 N   0  0  0  0  0  0  0  0  0  0  0  0
  149.2240  160.4140  131.0510 N   0  0  0  0  0  0  0  0  0  0  0  0
  148.3770  159.7050  131.8110 C   0  0  0  0  0  0  0  0  0  0  0  0
  147.0510  159.9780  132.1310 C   0  0  0  0  0  0  0  0  0  0  0  0
  144.0380  158.2190  133.3860 C   0  0  0  0  0  0  0  0  0  0  0  0
  142.7140  158.4820  133.7560 C   0  0  0  0  0  0  0  0  0  0  0  0
  144.5009  154.3951  133.1338 H   0  0  0  0  0  0  0  0  0  0  0  0
  143.0546  154.2548  132.0778 H   0  0  0  0  0  0  0  0  0  0  0  0
  144.0233  155.7675  132.0778 H   0  0  0  0  0  0  0  0  0  0  0  0
  138.9390  156.9020  132.5370 H   0  0  0  0  0  0  0  0  0  0  0  0
  137.5160  156.8640  133.6310 H   0  0  0  0  0  0  0  0  0  0  0  0
  140.2980  160.5576  134.5739 H   0  0  0  0  0  0  0  0  0  0  0  0
  142.8215  161.8551  134.2595 H   0  0  0  0  0  0  0  0  0  0  0  0
  145.2249  161.4404  133.6482 H   0  0  0  0  0  0  0  0  0  0  0  0
  146.5397  157.1870  134.0916 H   0  0  0  0  0  0  0  0  0  0  0  0
  148.9472  156.7826  133.4516 H   0  0  0  0  0  0  0  0  0  0  0  0
  146.5467  160.8774  131.7478 H   0  0  0  0  0  0  0  0  0  0  0  0
  144.3574  157.1978  133.1309 H   0  0  0  0  0  0  0  0  0  0  0  0
  1  2  1  0
  2  3  1  0
  3  4  2  0
  3  5  1  0
  5  6  1  0
  6  7  1  0
  7  8  1  0
  7  9  2  0
  6 10  2  0
 10 11  1  0
 11 12  2  0
 12 13  1  0
 13 14  2  0
 14 15  1  0
 15 16  1  0
 16 17  2  0
 17 18  1  0
 18 19  2  0
 19 20  1  0
 20 21  1  0
 21 22  2  0
 22 23  1  0
 14 24  1  0
 24 25  2  0
 25  5  1  0
 25 11  1  0
 23 15  2  0
 22 18  1  0
  1 26  1  0
  1 27  1  0
  1 28  1  0
  8 29  1  0
  8 30  1  0
 10 31  1  0
 12 32  1  0
 13 33  1  0
 16 34  1  0
 17 35  1  0
 23 36  1  0
 24 37  1  0
M  CHG  1  20  -1
M  END
>  <UniqueID>  (77) 
77

>  <SMILES>  (77) 
COC(=O)n1c(C(N)=O)cc2ccc(-c3ccc4n[n-]nc4c3)cc21

>  <Energy>  (77) 
127.19911716909074

>  <Genealogy>  (77) 
COC(=O)n1c(C(N)=O)cc2ccc(-c3ccc4n[n-]nc4c3)cc21 (protonated)
COC(=O)n1c(C(N)=O)cc2ccc(-c3ccc4n[n-]nc4c3)cc21 (3D coordinates assigned)
COC(=O)n1c(C(N)=O)cc2ccc(-c3ccc4n[n-]nc4c3)cc21 (optimized conformer: 127.19911716909074 kcal/mol)

>  <smiles>  (77) 
COC(=O)n1c(C(N)=O)cc2ccc(-c3ccc4n[nH]nc4c3)cc21

>  <score_type>  (77) 
oracle

>  <origin>  (77) 
adg

>  <m_score__min__energy>  (77) 
-7.8099999999999996

>  <m_primary>  (77) 
energy

$$$$
77:0
     RDKit          3D

 31 32  0  0  0  0  0  0  0  0999 V2000
  145.7010  162.6740  134.5370 C   0  0  0  0  0  0  0  0  0  0  0  0
  144.6600  161.8460  133.8550 C   0  0  0  0  0  0  0  0  0  0  0  0
  143.6330  162.4090  133.3860 O   0  0  0  0  0  0  0  0  0  0  0  0
  144.7760  160.4170  133.8000 N   0  0  0  0  0  0  0  0  0  0  0  0
  143.8250  159.4820  134.0840 C   0  0  0  0  0  0  0  0  0  0  0  0
  142.4940  159.7490  134.6660 C   0  0  0  0  0  0  0  0  0  0  0  0
  141.5100  160.4800  133.9400 N   0  0  0  0  0  0  0  0  0  0  0  0
  142.2360  159.3640  135.8380 O   0  0  0  0  0  0  0  0  0  0  0  0
  144.3100  158.2010  133.8250 C   0  0  0  0  0  0  0  0  0  0  0  0
  145.6010  158.3810  133.3800 C   0  0  0  0  0  0  0  0  0  0  0  0
  146.5520  157.4460  132.9810 C   0  0  0  0  0  0  0  0  0  0  0  0
  147.8030  157.9230  132.5550 C   0  0  0  0  0  0  0  0  0  0  0  0
  148.0750  159.3130  132.5230 C   0  0  0  0  0  0  0  0  0  0  0  0
  149.4290  159.8070  132.0880 C   0  0  0  0  0  0  0  0  0  0  0  0
  149.3940  160.3320  130.6530 C   0  0  0  0  0  0  0  0  0  0  0  0
  148.8590  161.6260  130.6260 O   0  0  0  0  0  0  0  0  0  0  0  0
  147.0880  160.2320  132.9450 C   0  0  0  0  0  0  0  0  0  0  0  0
  145.8570  159.7280  133.3750 C   0  0  0  0  0  0  0  0  0  0  0  0
  145.5860  162.5825  135.6271 H   0  0  0  0  0  0  0  0  0  0  0  0
  146.7006  162.3215  134.2429 H   0  0  0  0  0  0  0  0  0  0  0  0
  145.5824  163.7273  134.2429 H   0  0  0  0  0  0  0  0  0  0  0  0
  141.7690  161.3280  133.3890 H   0  0  0  0  0  0  0  0  0  0  0  0
  143.7749  157.2481  133.9496 H   0  0  0  0  0  0  0  0  0  0  0  0
  146.3312  156.3685  132.9987 H   0  0  0  0  0  0  0  0  0  0  0  0
  148.5797  157.2094  132.2429 H   0  0  0  0  0  0  0  0  0  0  0  0
  149.7468  160.6188  132.7589 H   0  0  0  0  0  0  0  0  0  0  0  0
  150.1363  158.9658  132.1327 H   0  0  0  0  0  0  0  0  0  0  0  0
  150.4166  160.3528  130.2483 H   0  0  0  0  0  0  0  0  0  0  0  0
  148.7629  159.6691  130.0428 H   0  0  0  0  0  0  0  0  0  0  0  0
  148.1460  161.6150  129.9360 H   0  0  0  0  0  0  0  0  0  0  0  0
  147.2830  161.3145  132.9354 H   0  0  0  0  0  0  0  0  0  0  0  0
  1  2  1  0
  2  3  2  0
  2  4  1  0
  4  5  1  0
  5  6  1  0
  6  7  1  0
  6  8  2  0
  5  9  2  0
  9 10  1  0
 10 11  2  0
 11 12  1  0
 12 13  2  0
 13 14  1  0
 14 15  1  0
 15 16  1  0
 13 17  1  0
 17 18  2  0
 18  4  1  0
 18 10  1  0
  1 19  1  0
  1 20  1  0
  1 21  1  0
  7 22  1  0
  9 23  1  0
 11 24  1  0
 12 25  1  0
 14 26  1  0
 14 27  1  0
 15 28  1  0
 15 29  1  0
 16 30  1  0
 17 31  1  0
M  CHG  1   7  -1
M  END
>  <UniqueID>  (78) 
78

>  <SMILES>  (78) 
CC(=O)n1c(C([NH-])=O)cc2ccc(CCO)cc21

>  <Energy>  (78) 
67.12490402040093

>  <Genealogy>  (78) 
CC(=O)n1c(C([NH-])=O)cc2ccc(CCO)cc21 (protonated)
CC(=O)n1c(C([NH-])=O)cc2ccc(CCO)cc21 (3D coordinates assigned)
CC(=O)n1c(C([NH-])=O)cc2ccc(CCO)cc21 (optimized conformer: 67.12490402040093 kcal/mol)

>  <smiles>  (78) 
CC(=O)n1c(C(N)=O)cc2ccc(CCO)cc21

>  <score_type>  (78) 
oracle

>  <origin>  (78) 
adg

>  <m_score__min__energy>  (78) 
-6.29

>  <m_primary>  (78) 
energy

$$$$
78:0
     RDKit          3D

 42 44  0  0  0  0  0  0  0  0999 V2000
  149.4590  161.2830  130.4240 C   0  0  0  0  0  0  0  0  0  0  0  0
  149.6110  159.7660  130.3680 C   0  0  0  0  0  0  0  0  0  0  0  0
  148.5250  159.1200  131.0320 O   0  0  0  0  0  0  0  0  0  0  0  0
  148.6920  158.0850  131.9610 C   0  0  0  0  0  0  0  0  0  0  0  0
  149.8390  157.6140  132.1870 O   0  0  0  0  0  0  0  0  0  0  0  0
  147.5520  157.5680  132.6700 N   0  0  0  0  0  0  0  0  0  0  0  0
  146.5560  158.2820  133.2630 C   0  0  0  0  0  0  0  0  0  0  0  0
  146.3640  159.7440  133.1710 C   0  0  0  0  0  0  0  0  0  0  0  0
  147.4770  160.6270  133.0290 N   0  0  0  0  0  0  0  0  0  0  0  0
  145.1940  160.2130  133.1580 O   0  0  0  0  0  0  0  0  0  0  0  0
  145.6760  157.4390  133.9330 C   0  0  0  0  0  0  0  0  0  0  0  0
  146.1560  156.1690  133.7200 C   0  0  0  0  0  0  0  0  0  0  0  0
  145.6620  154.9410  134.1520 C   0  0  0  0  0  0  0  0  0  0  0  0
  146.3700  153.7820  133.7960 C   0  0  0  0  0  0  0  0  0  0  0  0
  147.5610  153.8660  133.0350 C   0  0  0  0  0  0  0  0  0  0  0  0
  148.2670  152.6660  132.6650 N   0  0  0  0  0  0  0  0  0  0  0  0
  147.5310  151.4840  132.2110 C   0  0  0  0  0  0  0  0  0  0  0  0
  148.3230  150.2210  132.5630 C   0  0  0  0  0  0  0  0  0  0  0  0
  149.6440  150.3050  132.0630 O   0  0  0  0  0  0  0  0  0  0  0  0
  150.3400  151.3520  132.7140 C   0  0  0  0  0  0  0  0  0  0  0  0
  149.7080  152.7090  132.3920 C   0  0  0  0  0  0  0  0  0  0  0  0
  148.0340  155.1340  132.6170 C   0  0  0  0  0  0  0  0  0  0  0  0
  147.2930  156.2720  132.9600 C   0  0  0  0  0  0  0  0  0  0  0  0
  149.4263  161.6097  131.4738 H   0  0  0  0  0  0  0  0  0  0  0  0
  150.3142  161.7561  129.9193 H   0  0  0  0  0  0  0  0  0  0  0  0
  148.5269  161.5770  129.9193 H   0  0  0  0  0  0  0  0  0  0  0  0
  149.6322  159.4448  129.3161 H   0  0  0  0  0  0  0  0  0  0  0  0
  150.5474  159.4879  130.8738 H   0  0  0  0  0  0  0  0  0  0  0  0
  148.4410  160.2560  132.8720 H   0  0  0  0  0  0  0  0  0  0  0  0
  147.3250  161.6590  132.9850 H   0  0  0  0  0  0  0  0  0  0  0  0
  144.7853  157.7273  134.5105 H   0  0  0  0  0  0  0  0  0  0  0  0
  144.7438  154.8806  134.7546 H   0  0  0  0  0  0  0  0  0  0  0  0
  145.9950  152.7973  134.1120 H   0  0  0  0  0  0  0  0  0  0  0  0
  146.5495  151.4509  132.7064 H   0  0  0  0  0  0  0  0  0  0  0  0
  147.3909  151.5363  131.1212 H   0  0  0  0  0  0  0  0  0  0  0  0
  148.3571  150.1090  133.6568 H   0  0  0  0  0  0  0  0  0  0  0  0
  147.8260  149.3524  132.1064 H   0  0  0  0  0  0  0  0  0  0  0  0
  150.3049  151.1869  133.8010 H   0  0  0  0  0  0  0  0  0  0  0  0
  151.3815  151.3558  132.3602 H   0  0  0  0  0  0  0  0  0  0  0  0
  150.1744  153.4858  133.0157 H   0  0  0  0  0  0  0  0  0  0  0  0
  149.8684  152.9401  131.3286 H   0  0  0  0  0  0  0  0  0  0  0  0
  148.9634  155.2231  132.0354 H   0  0  0  0  0  0  0  0  0  0  0  0
  1  2  1  0
  2  3  1  0
  3  4  1  0
  4  5  2  0
  4  6  1  0
  6  7  1  0
  7  8  1  0
  8  9  1  0
  8 10  2  0
  7 11  2  0
 11 12  1  0
 12 13  2  0
 13 14  1  0
 14 15  2  0
 15 16  1  0
 16 17  1  0
 17 18  1  0
 18 19  1  0
 19 20  1  0
 20 21  1  0
 15 22  1  0
 22 23  2  0
 23  6  1  0
 23 12  1  0
 21 16  1  0
  1 24  1  0
  1 25  1  0
  1 26  1  0
  2 27  1  0
  2 28  1  0
  9 29  1  0
  9 30  1  0
 11 31  1  0
 13 32  1  0
 14 33  1  0
 17 34  1  0
 17 35  1  0
 18 36  1  0
 18 37  1  0
 20 38  1  0
 20 39  1  0
 21 40  1  0
 21 41  1  0
 22 42  1  0
M  END
>  <UniqueID>  (79) 
79

>  <SMILES>  (79) 
CCOC(=O)n1c(C(N)=O)cc2ccc(N3CCOCC3)cc21

>  <Energy>  (79) 
83.58637280975633

>  <Genealogy>  (79) 
CCOC(=O)n1c(C(N)=O)cc2ccc(N3CCOCC3)cc21 (3D coordinates assigned)
CCOC(=O)n1c(C(N)=O)cc2ccc(N3CCOCC3)cc21 (nonaromatic ring conformer: 83.58637280975633 kcal/mol)

>  <smiles>  (79) 
CCOC(=O)n1c(C(N)=O)cc2ccc(N3CCOCC3)cc21

>  <score_type>  (79) 
oracle

>  <origin>  (79) 
adg

>  <m_score__min__energy>  (79) 
-7.1100000000000003

>  <m_primary>  (79) 
energy

$$$$
79:0
     RDKit          3D

 28 29  0  0  0  0  0  0  0  0999 V2000
  148.8430  159.0190  134.1250 C   0  0  0  0  0  0  0  0  0  0  0  0
  147.9430  158.4020  133.1040 C   0  0  0  0  0  0  0  0  0  0  0  0
  148.4220  158.0570  131.9900 O   0  0  0  0  0  0  0  0  0  0  0  0
  146.5490  158.1800  133.3790 N   0  0  0  0  0  0  0  0  0  0  0  0
  145.8730  157.0010  133.2910 C   0  0  0  0  0  0  0  0  0  0  0  0
  146.4750  155.6770  133.0310 C   0  0  0  0  0  0  0  0  0  0  0  0
  147.3590  155.4660  131.9290 N   0  0  0  0  0  0  0  0  0  0  0  0
  146.2440  154.7260  133.8240 O   0  0  0  0  0  0  0  0  0  0  0  0
  144.5110  157.1980  133.4980 C   0  0  0  0  0  0  0  0  0  0  0  0
  144.3690  158.5480  133.7250 C   0  0  0  0  0  0  0  0  0  0  0  0
  143.2210  159.3000  133.9560 C   0  0  0  0  0  0  0  0  0  0  0  0
  143.3620  160.6890  134.0990 C   0  0  0  0  0  0  0  0  0  0  0  0
  144.6380  161.2980  134.0070 C   0  0  0  0  0  0  0  0  0  0  0  0
  144.7670  162.7900  134.1050 C   0  0  0  0  0  0  0  0  0  0  0  0
  145.7730  163.1070  134.9980 F   0  0  0  0  0  0  0  0  0  0  0  0
  145.7780  160.5060  133.7540 C   0  0  0  0  0  0  0  0  0  0  0  0
  145.6130  159.1200  133.6430 C   0  0  0  0  0  0  0  0  0  0  0  0
  148.4794  158.7697  135.1328 H   0  0  0  0  0  0  0  0  0  0  0  0
  149.8639  158.6299  133.9969 H   0  0  0  0  0  0  0  0  0  0  0  0
  148.8482  160.1115  133.9969 H   0  0  0  0  0  0  0  0  0  0  0  0
  147.7310  154.5100  131.7320 H   0  0  0  0  0  0  0  0  0  0  0  0
  147.7220  156.2660  131.3650 H   0  0  0  0  0  0  0  0  0  0  0  0
  143.7170  156.4368  133.4833 H   0  0  0  0  0  0  0  0  0  0  0  0
  142.2334  158.8204  134.0244 H   0  0  0  0  0  0  0  0  0  0  0  0
  142.4736  161.3107  134.2842 H   0  0  0  0  0  0  0  0  0  0  0  0
  145.0116  163.2028  133.1152 H   0  0  0  0  0  0  0  0  0  0  0  0
  143.8165  163.2183  134.4558 H   0  0  0  0  0  0  0  0  0  0  0  0
  146.7715  160.9659  133.6466 H   0  0  0  0  0  0  0  0  0  0  0  0
  1  2  1  0
  2  3  2  0
  2  4  1  0
  4  5  1  0
  5  6  1  0
  6  7  1  0
  6  8  2  0
  5  9  2  0
  9 10  1  0
 10 11  2  0
 11 12  1  0
 12 13  2  0
 13 14  1  0
 14 15  1  0
 13 16  1  0
 16 17  2  0
 17  4  1  0
 17 10  1  0
  1 18  1  0
  1 19  1  0
  1 20  1  0
  7 21  1  0
  7 22  1  0
  9 23  1  0
 11 24  1  0
 12 25  1  0
 14 26  1  0
 14 27  1  0
 16 28  1  0
M  END
>  <UniqueID>  (80) 
80

>  <SMILES>  (80) 
CC(=O)n1c(C(N)=O)cc2ccc(CF)cc21

>  <Energy>  (80) 
66.8015605398387

>  <Genealogy>  (80) 
CC(=O)n1c(C(N)=O)cc2ccc(CF)cc21 (3D coordinates assigned)
CC(=O)n1c(C(N)=O)cc2ccc(CF)cc21 (optimized conformer: 66.8015605398387 kcal/mol)

>  <smiles>  (80) 
CC(=O)n1c(C(N)=O)cc2ccc(CF)cc21

>  <score_type>  (80) 
oracle

>  <origin>  (80) 
adg

>  <m_score__min__energy>  (80) 
-5.5599999999999996

>  <m_primary>  (80) 
energy

$$$$
80:0
     RDKit          3D

 31 32  0  0  0  0  0  0  0  0999 V2000
  141.3710  160.2300  133.3810 N   0  0  0  0  0  0  0  0  0  0  0  0
  142.3550  159.8430  134.3360 C   0  0  0  0  0  0  0  0  0  0  0  0
  142.0320  159.7430  135.5490 O   0  0  0  0  0  0  0  0  0  0  0  0
  143.7270  159.5220  133.8900 C   0  0  0  0  0  0  0  0  0  0  0  0
  144.1560  158.2280  133.6040 C   0  0  0  0  0  0  0  0  0  0  0  0
  145.4980  158.3440  133.3200 C   0  0  0  0  0  0  0  0  0  0  0  0
  146.4250  157.3670  132.9660 C   0  0  0  0  0  0  0  0  0  0  0  0
  147.7440  157.7730  132.7090 C   0  0  0  0  0  0  0  0  0  0  0  0
  148.1080  159.1400  132.7970 C   0  0  0  0  0  0  0  0  0  0  0  0
  149.5330  159.5580  132.5350 C   0  0  0  0  0  0  0  0  0  0  0  0
  149.8830  159.5060  131.0390 C   0  0  0  0  0  0  0  0  0  0  0  0
  149.4670  160.7680  130.2770 C   0  0  0  0  0  0  0  0  0  0  0  0
  149.7030  160.6060  128.9060 O   0  0  0  0  0  0  0  0  0  0  0  0
  147.1410  160.1030  133.1630 C   0  0  0  0  0  0  0  0  0  0  0  0
  145.8380  159.6670  133.4320 C   0  0  0  0  0  0  0  0  0  0  0  0
  144.7600  160.4060  133.7800 N   0  0  0  0  0  0  0  0  0  0  0  0
  144.7160  161.8340  133.9250 C   0  0  0  0  0  0  0  0  0  0  0  0
  145.6270  162.4400  134.5490 O   0  0  0  0  0  0  0  0  0  0  0  0
  143.6810  162.5660  133.3560 O   0  0  0  0  0  0  0  0  0  0  0  0
  141.5330  160.0960  132.3580 H   0  0  0  0  0  0  0  0  0  0  0  0
  143.5513  157.3092  133.6049 H   0  0  0  0  0  0  0  0  0  0  0  0
  146.1326  156.3093  132.8901 H   0  0  0  0  0  0  0  0  0  0  0  0
  148.5018  157.0235  132.4369 H   0  0  0  0  0  0  0  0  0  0  0  0
  149.6734  160.5872  132.8969 H   0  0  0  0  0  0  0  0  0  0  0  0
  150.1953  158.8564  133.0633 H   0  0  0  0  0  0  0  0  0  0  0  0
  150.9712  159.3800  130.9388 H   0  0  0  0  0  0  0  0  0  0  0  0
  149.3272  158.6630  130.6027 H   0  0  0  0  0  0  0  0  0  0  0  0
  148.3956  160.9550  130.4415 H   0  0  0  0  0  0  0  0  0  0  0  0
  150.0580  161.6199  130.6444 H   0  0  0  0  0  0  0  0  0  0  0  0
  148.8560  160.8530  128.4500 H   0  0  0  0  0  0  0  0  0  0  0  0
  147.4052  161.1684  133.2348 H   0  0  0  0  0  0  0  0  0  0  0  0
  1  2  1  0
  2  3  2  0
  2  4  1  0
  4  5  2  0
  5  6  1  0
  6  7  2  0
  7  8  1  0
  8  9  2  0
  9 10  1  0
 10 11  1  0
 11 12  1  0
 12 13  1  0
  9 14  1  0
 14 15  2  0
 15 16  1  0
 16 17  1  0
 17 18  2  0
 17 19  1  0
 16  4  1  0
 15  6  1  0
  1 20  1  0
  5 21  1  0
  7 22  1  0
  8 23  1  0
 10 24  1  0
 10 25  1  0
 11 26  1  0
 11 27  1  0
 12 28  1  0
 12 29  1  0
 13 30  1  0
 14 31  1  0
M  CHG  2   1  -1  19  -1
M  END
>  <UniqueID>  (81) 
81

>  <SMILES>  (81) 
[NH-]C(=O)c1cc2ccc(CCCO)cc2n1C(=O)[O-]

>  <Energy>  (81) 
65.81420467740895

>  <Genealogy>  (81) 
[NH-]C(=O)c1cc2ccc(CCCO)cc2n1C(=O)[O-] (protonated)
[NH-]C(=O)c1cc2ccc(CCCO)cc2n1C(=O)[O-] (3D coordinates assigned)
[NH-]C(=O)c1cc2ccc(CCCO)cc2n1C(=O)[O-] (optimized conformer: 65.81420467740895 kcal/mol)

>  <smiles>  (81) 
NC(=O)c1cc2ccc(CCCO)cc2n1C(=O)O

>  <score_type>  (81) 
oracle

>  <origin>  (81) 
adg

>  <m_score__min__energy>  (81) 
-6.4500000000000002

>  <m_primary>  (81) 
energy

$$$$
81:0
     RDKit          3D

 36 37  0  0  0  0  0  0  0  0999 V2000
  141.1990  157.2120  134.9130 C   0  0  0  0  0  0  0  0  0  0  0  0
  141.0130  156.8010  133.4440 C   0  0  0  0  0  0  0  0  0  0  0  0
  141.0100  155.2630  133.3550 C   0  0  0  0  0  0  0  0  0  0  0  0
  139.6810  157.3790  132.9300 C   0  0  0  0  0  0  0  0  0  0  0  0
  142.1180  157.3460  132.7100 O   0  0  0  0  0  0  0  0  0  0  0  0
  143.4670  157.3150  133.0910 C   0  0  0  0  0  0  0  0  0  0  0  0
  144.0630  156.2200  133.2800 O   0  0  0  0  0  0  0  0  0  0  0  0
  144.1700  158.5500  133.2950 N   0  0  0  0  0  0  0  0  0  0  0  0
  143.6430  159.7900  133.5060 C   0  0  0  0  0  0  0  0  0  0  0  0
  142.2160  160.1020  133.7310 C   0  0  0  0  0  0  0  0  0  0  0  0
  141.2610  159.9690  132.6810 N   0  0  0  0  0  0  0  0  0  0  0  0
  141.8260  160.4460  134.8790 O   0  0  0  0  0  0  0  0  0  0  0  0
  144.6560  160.7460  133.5690 C   0  0  0  0  0  0  0  0  0  0  0  0
  145.8290  160.0460  133.3970 C   0  0  0  0  0  0  0  0  0  0  0  0
  147.1440  160.4990  133.3620 C   0  0  0  0  0  0  0  0  0  0  0  0
  148.1600  159.5530  133.1400 C   0  0  0  0  0  0  0  0  0  0  0  0
  147.8430  158.1870  132.9520 C   0  0  0  0  0  0  0  0  0  0  0  0
  148.8840  157.2360  132.7150 N   0  0  0  0  0  0  0  0  0  0  0  0
  146.4980  157.7630  132.9930 C   0  0  0  0  0  0  0  0  0  0  0  0
  145.5080  158.7230  133.2340 C   0  0  0  0  0  0  0  0  0  0  0  0
  140.8346  156.4069  135.5680 H   0  0  0  0  0  0  0  0  0  0  0  0
  142.2660  157.3914  135.1113 H   0  0  0  0  0  0  0  0  0  0  0  0
  140.6295  158.1320  135.1113 H   0  0  0  0  0  0  0  0  0  0  0  0
  141.0092  154.8370  134.3692 H   0  0  0  0  0  0  0  0  0  0  0  0
  140.1112  154.9287  132.8161 H   0  0  0  0  0  0  0  0  0  0  0  0
  141.9075  154.9251  132.8161 H   0  0  0  0  0  0  0  0  0  0  0  0
  139.0464  157.6544  133.7853 H   0  0  0  0  0  0  0  0  0  0  0  0
  139.8802  158.2716  132.3188 H   0  0  0  0  0  0  0  0  0  0  0  0
  139.1651  156.6238  132.3188 H   0  0  0  0  0  0  0  0  0  0  0  0
  141.4030  159.2780  131.9120 H   0  0  0  0  0  0  0  0  0  0  0  0
  144.5422  161.8292  133.7233 H   0  0  0  0  0  0  0  0  0  0  0  0
  147.3812  161.5637  133.5036 H   0  0  0  0  0  0  0  0  0  0  0  0
  149.2106  159.8777  133.1122 H   0  0  0  0  0  0  0  0  0  0  0  0
  149.6160  157.0530  133.4380 H   0  0  0  0  0  0  0  0  0  0  0  0
  148.9310  156.7090  131.8140 H   0  0  0  0  0  0  0  0  0  0  0  0
  146.2342  156.7062  132.8397 H   0  0  0  0  0  0  0  0  0  0  0  0
  1  2  1  0
  2  3  1  0
  2  4  1  0
  2  5  1  0
  5  6  1  0
  6  7  2  0
  6  8  1  0
  8  9  1  0
  9 10  1  0
 10 11  1  0
 10 12  2  0
  9 13  2  0
 13 14  1  0
 14 15  2  0
 15 16  1  0
 16 17  2  0
 17 18  1  0
 17 19  1  0
 19 20  2  0
 20  8  1  0
 20 14  1  0
  1 21  1  0
  1 22  1  0
  1 23  1  0
  3 24  1  0
  3 25  1  0
  3 26  1  0
  4 27  1  0
  4 28  1  0
  4 29  1  0
 11 30  1  0
 13 31  1  0
 15 32  1  0
 16 33  1  0
 18 34  1  0
 18 35  1  0
 19 36  1  0
M  CHG  1  11  -1
M  END
>  <UniqueID>  (82) 
82

>  <SMILES>  (82) 
CC(C)(C)OC(=O)n1c(C([NH-])=O)cc2ccc(N)cc21

>  <Energy>  (82) 
69.49365255731244

>  <Genealogy>  (82) 
CC(C)(C)OC(=O)n1c(C([NH-])=O)cc2ccc(N)cc21 (protonated)
CC(C)(C)OC(=O)n1c(C([NH-])=O)cc2ccc(N)cc21 (3D coordinates assigned)
CC(C)(C)OC(=O)n1c(C([NH-])=O)cc2ccc(N)cc21 (optimized conformer: 69.49365255731244 kcal/mol)

>  <smiles>  (82) 
CC(C)(C)OC(=O)n1c(C(N)=O)cc2ccc(N)cc21

>  <score_type>  (82) 
oracle

>  <origin>  (82) 
adg

>  <m_score__min__energy>  (82) 
-6.3899999999999997

>  <m_primary>  (82) 
energy

$$$$
82:0
     RDKit          3D

 52 55  0  0  0  0  0  0  0  0999 V2000
  147.8290  156.8600  131.9900 N   0  0  0  0  0  0  0  0  0  0  0  0
  147.6290  157.8170  133.0380 C   0  0  0  0  0  0  0  0  0  0  0  0
  148.6120  158.1500  133.7550 O   0  0  0  0  0  0  0  0  0  0  0  0
  146.2910  158.4030  133.2940 C   0  0  0  0  0  0  0  0  0  0  0  0
  146.0340  159.7700  133.4220 C   0  0  0  0  0  0  0  0  0  0  0  0
  144.6690  159.8760  133.5660 C   0  0  0  0  0  0  0  0  0  0  0  0
  143.8710  161.0020  133.7550 C   0  0  0  0  0  0  0  0  0  0  0  0
  142.4880  160.8090  133.9170 C   0  0  0  0  0  0  0  0  0  0  0  0
  141.9320  159.5060  133.8780 C   0  0  0  0  0  0  0  0  0  0  0  0
  140.4620  159.3050  134.1320 C   0  0  0  0  0  0  0  0  0  0  0  0
  139.7010  159.3670  132.8340 C   0  0  0  0  0  0  0  0  0  0  0  0
  139.4950  160.6080  132.2020 C   0  0  0  0  0  0  0  0  0  0  0  0
  138.7390  160.6870  131.0280 C   0  0  0  0  0  0  0  0  0  0  0  0
  138.1770  159.5290  130.4800 C   0  0  0  0  0  0  0  0  0  0  0  0
  138.3700  158.2910  131.1030 C   0  0  0  0  0  0  0  0  0  0  0  0
  139.1260  158.2060  132.2780 C   0  0  0  0  0  0  0  0  0  0  0  0
  139.2910  156.9940  132.8690 F   0  0  0  0  0  0  0  0  0  0  0  0
  142.7730  158.3880  133.6810 C   0  0  0  0  0  0  0  0  0  0  0  0
  144.1440  158.6120  133.5190 C   0  0  0  0  0  0  0  0  0  0  0  0
  145.1240  157.6990  133.3540 N   0  0  0  0  0  0  0  0  0  0  0  0
  144.9550  156.2750  133.3150 C   0  0  0  0  0  0  0  0  0  0  0  0
  145.2980  155.6320  132.2860 O   0  0  0  0  0  0  0  0  0  0  0  0
  144.3850  155.6150  134.4120 O   0  0  0  0  0  0  0  0  0  0  0  0
  143.3110  154.6790  134.2970 C   0  0  0  0  0  0  0  0  0  0  0  0
  142.1660  155.2860  133.4690 C   0  0  0  0  0  0  0  0  0  0  0  0
  140.9630  154.3250  133.3480 C   0  0  0  0  0  0  0  0  0  0  0  0
  141.3350  152.8440  133.5510 C   0  0  0  0  0  0  0  0  0  0  0  0
  142.7230  152.5320  132.9840 C   0  0  0  0  0  0  0  0  0  0  0  0
  143.8340  153.3880  133.6350 C   0  0  0  0  0  0  0  0  0  0  0  0
  147.0470  156.5450  131.3700 H   0  0  0  0  0  0  0  0  0  0  0  0
  148.7720  156.4300  131.8610 H   0  0  0  0  0  0  0  0  0  0  0  0
  146.7678  160.5894  133.4102 H   0  0  0  0  0  0  0  0  0  0  0  0
  144.3093  162.0107  133.7768 H   0  0  0  0  0  0  0  0  0  0  0  0
  141.8314  161.6772  134.0755 H   0  0  0  0  0  0  0  0  0  0  0  0
  140.3044  158.3220  134.5999 H   0  0  0  0  0  0  0  0  0  0  0  0
  140.0996  160.0994  134.8009 H   0  0  0  0  0  0  0  0  0  0  0  0
  139.9311  161.5208  132.6340 H   0  0  0  0  0  0  0  0  0  0  0  0
  138.5864  161.6589  130.5359 H   0  0  0  0  0  0  0  0  0  0  0  0
  137.5819  159.5918  129.5570 H   0  0  0  0  0  0  0  0  0  0  0  0
  137.9267  157.3828  130.6685 H   0  0  0  0  0  0  0  0  0  0  0  0
  142.3605  157.3686  133.6557 H   0  0  0  0  0  0  0  0  0  0  0  0
  142.9209  154.4395  135.2972 H   0  0  0  0  0  0  0  0  0  0  0  0
  141.8308  156.2144  133.9545 H   0  0  0  0  0  0  0  0  0  0  0  0
  142.5472  155.4804  132.4556 H   0  0  0  0  0  0  0  0  0  0  0  0
  140.2174  154.6036  134.1072 H   0  0  0  0  0  0  0  0  0  0  0  0
  140.5733  154.4227  132.3240 H   0  0  0  0  0  0  0  0  0  0  0  0
  141.3295  152.6182  134.6276 H   0  0  0  0  0  0  0  0  0  0  0  0
  140.5972  152.2263  133.0180 H   0  0  0  0  0  0  0  0  0  0  0  0
  142.9462  151.4697  133.1618 H   0  0  0  0  0  0  0  0  0  0  0  0
  142.7060  152.7670  131.9095 H   0  0  0  0  0  0  0  0  0  0  0  0
  144.3349  152.7813  134.4038 H   0  0  0  0  0  0  0  0  0  0  0  0
  144.5193  153.6930  132.8304 H   0  0  0  0  0  0  0  0  0  0  0  0
  1  2  1  0
  2  3  2  0
  2  4  1  0
  4  5  2  0
  5  6  1  0
  6  7  2  0
  7  8  1  0
  8  9  2  0
  9 10  1  0
 10 11  1  0
 11 12  2  0
 12 13  1  0
 13 14  2  0
 14 15  1  0
 15 16  2  0
 16 17  1  0
  9 18  1  0
 18 19  2  0
 19 20  1  0
 20 21  1  0
 21 22  2  0
 21 23  1  0
 23 24  1  0
 24 25  1  0
 25 26  1  0
 26 27  1  0
 27 28  1  0
 28 29  1  0
 20  4  1  0
 29 24  1  0
 19  6  1  0
 16 11  1  0
  1 30  1  0
  1 31  1  0
  5 32  1  0
  7 33  1  0
  8 34  1  0
 10 35  1  0
 10 36  1  0
 12 37  1  0
 13 38  1  0
 14 39  1  0
 15 40  1  0
 18 41  1  0
 24 42  1  0
 25 43  1  0
 25 44  1  0
 26 45  1  0
 26 46  1  0
 27 47  1  0
 27 48  1  0
 28 49  1  0
 28 50  1  0
 29 51  1  0
 29 52  1  0
M  END
>  <UniqueID>  (83) 
83

>  <SMILES>  (83) 
NC(=O)c1cc2ccc(Cc3ccccc3F)cc2n1C(=O)OC1CCCCC1

>  <Energy>  (83) 
93.43205242587675

>  <Genealogy>  (83) 
NC(=O)c1cc2ccc(Cc3ccccc3F)cc2n1C(=O)OC1CCCCC1 (3D coordinates assigned)
NC(=O)c1cc2ccc(Cc3ccccc3F)cc2n1C(=O)OC1CCCCC1 (nonaromatic ring conformer: 93.43205242587675 kcal/mol)

>  <smiles>  (83) 
NC(=O)c1cc2ccc(Cc3ccccc3F)cc2n1C(=O)OC1CCCCC1

>  <score_type>  (83) 
oracle

>  <origin>  (83) 
adg

>  <m_score__min__energy>  (83) 
-10.35

>  <m_primary>  (83) 
energy

$$$$
83:0
     RDKit          3D

 39 40  0  0  0  0  0  0  0  0999 V2000
  149.5420  157.8460  131.8950 C   0  0  0  0  0  0  0  0  0  0  0  0
  148.5980  157.3900  133.0290 C   0  0  1  0  0  0  0  0  0  0  0  0
  147.4600  158.3870  133.2240 C   0  0  0  0  0  0  0  0  0  0  0  0
  147.7630  159.7500  133.4830 C   0  0  0  0  0  0  0  0  0  0  0  0
  146.7410  160.6940  133.6730 C   0  0  0  0  0  0  0  0  0  0  0  0
  145.4240  160.2510  133.6100 C   0  0  0  0  0  0  0  0  0  0  0  0
  144.2480  160.9530  133.7410 C   0  0  0  0  0  0  0  0  0  0  0  0
  143.2360  160.0070  133.5860 C   0  0  0  0  0  0  0  0  0  0  0  0
  141.8000  160.3190  133.7450 C   0  0  0  0  0  0  0  0  0  0  0  0
  140.9110  160.1500  132.6430 N   0  0  0  0  0  0  0  0  0  0  0  0
  141.3550  160.7700  134.8330 O   0  0  0  0  0  0  0  0  0  0  0  0
  143.7660  158.7710  133.3600 N   0  0  0  0  0  0  0  0  0  0  0  0
  143.0660  157.5480  133.0850 C   0  0  0  0  0  0  0  0  0  0  0  0
  141.9200  157.5500  132.2380 N   0  0  0  0  0  0  0  0  0  0  0  0
  143.4800  156.4600  133.5680 O   0  0  0  0  0  0  0  0  0  0  0  0
  145.1070  158.9390  133.3820 C   0  0  0  0  0  0  0  0  0  0  0  0
  146.1040  157.9800  133.1690 C   0  0  0  0  0  0  0  0  0  0  0  0
  148.1030  155.8990  132.9140 C   0  0  0  0  0  0  0  0  0  0  0  0
  147.4270  155.4650  134.2350 C   0  0  0  0  0  0  0  0  0  0  0  0
  149.2520  154.9090  132.6050 C   0  0  0  0  0  0  0  0  0  0  0  0
  147.0920  155.8170  131.8470 N   0  0  0  0  0  0  0  0  0  0  0  0
  150.4518  158.2855  132.3298 H   0  0  0  0  0  0  0  0  0  0  0  0
  149.8139  156.9799  131.2738 H   0  0  0  0  0  0  0  0  0  0  0  0
  149.0326  158.5974  131.2738 H   0  0  0  0  0  0  0  0  0  0  0  0
  149.2044  157.3869  133.9467 H   0  0  0  0  0  0  0  0  0  0  0  0
  148.8138  160.0710  133.5356 H   0  0  0  0  0  0  0  0  0  0  0  0
  146.9748  161.7514  133.8658 H   0  0  0  0  0  0  0  0  0  0  0  0
  144.1313  162.0307  133.9281 H   0  0  0  0  0  0  0  0  0  0  0  0
  141.1890  159.5860  131.8100 H   0  0  0  0  0  0  0  0  0  0  0  0
  141.6920  158.3780  131.6440 H   0  0  0  0  0  0  0  0  0  0  0  0
  145.8403  156.9321  132.9632 H   0  0  0  0  0  0  0  0  0  0  0  0
  148.0123  155.8408  135.0871 H   0  0  0  0  0  0  0  0  0  0  0  0
  146.4086  155.8785  134.2789 H   0  0  0  0  0  0  0  0  0  0  0  0
  147.3791  154.3669  134.2789 H   0  0  0  0  0  0  0  0  0  0  0  0
  149.6810  154.5393  133.5480 H   0  0  0  0  0  0  0  0  0  0  0  0
  148.8595  154.0616  132.0237 H   0  0  0  0  0  0  0  0  0  0  0  0
  150.0320  155.4225  132.0237 H   0  0  0  0  0  0  0  0  0  0  0  0
  147.4520  155.2270  131.0610 H   0  0  0  0  0  0  0  0  0  0  0  0
  146.9270  156.7660  131.4390 H   0  0  0  0  0  0  0  0  0  0  0  0
  1  2  1  0
  2  3  1  0
  3  4  2  0
  4  5  1  0
  5  6  2  0
  6  7  1  0
  7  8  2  0
  8  9  1  0
  9 10  1  0
  9 11  2  0
  8 12  1  0
 12 13  1  0
 13 14  1  0
 13 15  2  0
 12 16  1  0
 16 17  2  0
  2 18  1  0
 18 19  1  0
 18 20  1  0
 18 21  1  0
 17  3  1  0
 16  6  1  0
  1 22  1  0
  1 23  1  0
  1 24  1  0
  2 25  1  1
  4 26  1  0
  5 27  1  0
  7 28  1  0
 10 29  1  0
 14 30  1  0
 17 31  1  0
 19 32  1  0
 19 33  1  0
 19 34  1  0
 20 35  1  0
 20 36  1  0
 20 37  1  0
 21 38  1  0
 21 39  1  0
M  CHG  2  10  -1  14  -1
M  END
>  <UniqueID>  (84) 
84

>  <SMILES>  (84) 
C[C@@H](c1ccc2cc(C([NH-])=O)n(C([NH-])=O)c2c1)C(C)(C)N

>  <Energy>  (84) 
78.47801745436729

>  <Genealogy>  (84) 
CC(c1ccc2cc(C([NH-])=O)n(C([NH-])=O)c2c1)C(C)(C)N (protonated)
C[C@@H](c1ccc2cc(C([NH-])=O)n(C([NH-])=O)c2c1)C(C)(C)N (chirality)
C[C@@H](c1ccc2cc(C([NH-])=O)n(C([NH-])=O)c2c1)C(C)(C)N (3D coordinates assigned)
C[C@@H](c1ccc2cc(C([NH-])=O)n(C([NH-])=O)c2c1)C(C)(C)N (optimized conformer: 78.47801745436729 kcal/mol)

>  <smiles>  (84) 
CC(c1ccc2cc(C(N)=O)n(C(N)=O)c2c1)C(C)(C)N

>  <score_type>  (84) 
oracle

>  <origin>  (84) 
adg

>  <m_score__min__energy>  (84) 
-7.4800000000000004

>  <m_primary>  (84) 
energy

$$$$
84:0
     RDKit          3D

 37 39  0  0  0  0  0  0  0  0999 V2000
  143.3720  155.6350  134.1270 C   0  0  0  0  0  0  0  0  0  0  0  0
  142.3210  156.5860  133.6490 C   0  0  0  0  0  0  0  0  0  0  0  0
  141.3440  156.1440  132.9870 O   0  0  0  0  0  0  0  0  0  0  0  0
  142.3700  157.9760  134.0050 N   0  0  0  0  0  0  0  0  0  0  0  0
  141.3700  158.7530  134.5080 C   0  0  0  0  0  0  0  0  0  0  0  0
  140.0400  158.2780  134.9440 C   0  0  0  0  0  0  0  0  0  0  0  0
  139.6990  158.2210  136.3260 N   0  0  0  0  0  0  0  0  0  0  0  0
  139.1790  157.9560  134.0820 O   0  0  0  0  0  0  0  0  0  0  0  0
  141.7970  160.0730  134.6390 C   0  0  0  0  0  0  0  0  0  0  0  0
  143.1040  160.0780  134.2060 C   0  0  0  0  0  0  0  0  0  0  0  0
  144.0180  161.1250  134.1190 C   0  0  0  0  0  0  0  0  0  0  0  0
  145.2990  160.8410  133.6170 C   0  0  0  0  0  0  0  0  0  0  0  0
  145.6370  159.5280  133.2030 C   0  0  0  0  0  0  0  0  0  0  0  0
  146.9900  159.2340  132.6780 C   0  0  0  0  0  0  0  0  0  0  0  0
  147.5450  160.1050  131.7250 C   0  0  0  0  0  0  0  0  0  0  0  0
  148.8070  159.8530  131.1840 C   0  0  0  0  0  0  0  0  0  0  0  0
  149.5290  158.7300  131.5860 C   0  0  0  0  0  0  0  0  0  0  0  0
  148.9980  157.8610  132.5420 C   0  0  0  0  0  0  0  0  0  0  0  0
  147.7380  158.1100  133.1130 C   0  0  0  0  0  0  0  0  0  0  0  0
  147.2140  157.1610  134.1590 C   0  0  0  0  0  0  0  0  0  0  0  0
  144.6870  158.4880  133.3170 C   0  0  0  0  0  0  0  0  0  0  0  0
  143.4250  158.8000  133.8320 C   0  0  0  0  0  0  0  0  0  0  0  0
  143.3839  155.6242  135.2269 H   0  0  0  0  0  0  0  0  0  0  0  0
  143.1499  154.6247  133.7528 H   0  0  0  0  0  0  0  0  0  0  0  0
  144.3551  155.9567  133.7528 H   0  0  0  0  0  0  0  0  0  0  0  0
  139.4800  159.0910  136.8620 H   0  0  0  0  0  0  0  0  0  0  0  0
  141.2139  160.9290  135.0096 H   0  0  0  0  0  0  0  0  0  0  0  0
  143.7453  162.1432  134.4337 H   0  0  0  0  0  0  0  0  0  0  0  0
  146.0465  161.6447  133.5445 H   0  0  0  0  0  0  0  0  0  0  0  0
  146.9805  160.9924  131.4028 H   0  0  0  0  0  0  0  0  0  0  0  0
  149.2326  160.5416  130.4392 H   0  0  0  0  0  0  0  0  0  0  0  0
  150.5183  158.5280  131.1496 H   0  0  0  0  0  0  0  0  0  0  0  0
  149.5709  156.9741  132.8507 H   0  0  0  0  0  0  0  0  0  0  0  0
  147.4345  157.5604  135.1599 H   0  0  0  0  0  0  0  0  0  0  0  0
  146.1262  157.0489  134.0404 H   0  0  0  0  0  0  0  0  0  0  0  0
  147.6987  156.1807  134.0404 H   0  0  0  0  0  0  0  0  0  0  0  0
  144.9336  157.4612  133.0090 H   0  0  0  0  0  0  0  0  0  0  0  0
  1  2  1  0
  2  3  2  0
  2  4  1  0
  4  5  1  0
  5  6  1  0
  6  7  1  0
  6  8  2  0
  5  9  2  0
  9 10  1  0
 10 11  2  0
 11 12  1  0
 12 13  2  0
 13 14  1  0
 14 15  2  0
 15 16  1  0
 16 17  2  0
 17 18  1  0
 18 19  2  0
 19 20  1  0
 13 21  1  0
 21 22  2  0
 22  4  1  0
 22 10  1  0
 19 14  1  0
  1 23  1  0
  1 24  1  0
  1 25  1  0
  7 26  1  0
  9 27  1  0
 11 28  1  0
 12 29  1  0
 15 30  1  0
 16 31  1  0
 17 32  1  0
 18 33  1  0
 20 34  1  0
 20 35  1  0
 20 36  1  0
 21 37  1  0
M  CHG  1   7  -1
M  END
>  <UniqueID>  (85) 
85

>  <SMILES>  (85) 
CC(=O)n1c(C([NH-])=O)cc2ccc(-c3ccccc3C)cc21

>  <Energy>  (85) 
85.82029703231913

>  <Genealogy>  (85) 
CC(=O)n1c(C([NH-])=O)cc2ccc(-c3ccccc3C)cc21 (protonated)
CC(=O)n1c(C([NH-])=O)cc2ccc(-c3ccccc3C)cc21 (3D coordinates assigned)
CC(=O)n1c(C([NH-])=O)cc2ccc(-c3ccccc3C)cc21 (optimized conformer: 85.82029703231913 kcal/mol)

>  <smiles>  (85) 
CC(=O)n1c(C(N)=O)cc2ccc(-c3ccccc3C)cc21

>  <score_type>  (85) 
oracle

>  <origin>  (85) 
adg

>  <m_score__min__energy>  (85) 
-8

>  <m_primary>  (85) 
energy

$$$$
85:0
     RDKit          3D

 38 40  0  0  0  0  0  0  0  0999 V2000
  149.8900  159.2080  131.6840 N   0  0  0  0  0  0  0  0  0  0  0  0
  149.0090  158.2300  132.2330 C   0  0  0  0  0  0  0  0  0  0  0  0
  149.3620  157.0220  132.2510 O   0  0  0  0  0  0  0  0  0  0  0  0
  147.6820  158.6380  132.7440 C   0  0  0  0  0  0  0  0  0  0  0  0
  147.3100  159.9660  132.9520 C   0  0  0  0  0  0  0  0  0  0  0  0
  145.9990  159.9160  133.3650 C   0  0  0  0  0  0  0  0  0  0  0  0
  145.1340  160.9440  133.7260 C   0  0  0  0  0  0  0  0  0  0  0  0
  143.8390  160.6010  134.1460 C   0  0  0  0  0  0  0  0  0  0  0  0
  143.4310  159.2410  134.2070 C   0  0  0  0  0  0  0  0  0  0  0  0
  142.0640  158.8870  134.6650 C   0  0  0  0  0  0  0  0  0  0  0  0
  141.7380  158.9250  136.0330 C   0  0  0  0  0  0  0  0  0  0  0  0
  140.4540  158.5830  136.4630 C   0  0  0  0  0  0  0  0  0  0  0  0
  139.4800  158.2050  135.5380 C   0  0  0  0  0  0  0  0  0  0  0  0
  139.7790  158.1780  134.1680 C   0  0  0  0  0  0  0  0  0  0  0  0
  138.7380  157.7410  133.1750 C   0  0  0  0  0  0  0  0  0  0  0  0
  138.8010  156.2950  132.9930 N   0  0  0  0  0  0  0  0  0  0  0  0
  141.0750  158.5070  133.7380 C   0  0  0  0  0  0  0  0  0  0  0  0
  144.3430  158.2250  133.8320 C   0  0  0  0  0  0  0  0  0  0  0  0
  145.6190  158.6010  133.3980 C   0  0  0  0  0  0  0  0  0  0  0  0
  146.6410  157.8040  133.0190 N   0  0  0  0  0  0  0  0  0  0  0  0
  146.6310  156.3670  132.9780 C   0  0  0  0  0  0  0  0  0  0  0  0
  147.2080  155.6730  131.8720 N   0  0  0  0  0  0  0  0  0  0  0  0
  146.1050  155.7130  133.9170 O   0  0  0  0  0  0  0  0  0  0  0  0
  150.7110  159.5560  132.2270 H   0  0  0  0  0  0  0  0  0  0  0  0
  147.9325  160.8625  132.8149 H   0  0  0  0  0  0  0  0  0  0  0  0
  145.4554  161.9952  133.6836 H   0  0  0  0  0  0  0  0  0  0  0  0
  143.1320  161.3940  134.4311 H   0  0  0  0  0  0  0  0  0  0  0  0
  142.4989  159.2258  136.7683 H   0  0  0  0  0  0  0  0  0  0  0  0
  140.2095  158.6117  137.5351 H   0  0  0  0  0  0  0  0  0  0  0  0
  138.4737  157.9271  135.8847 H   0  0  0  0  0  0  0  0  0  0  0  0
  137.7405  158.0187  133.5463 H   0  0  0  0  0  0  0  0  0  0  0  0
  138.9271  158.2358  132.2109 H   0  0  0  0  0  0  0  0  0  0  0  0
  137.9340  155.8850  133.4090 H   0  0  0  0  0  0  0  0  0  0  0  0
  138.7630  156.0930  131.9670 H   0  0  0  0  0  0  0  0  0  0  0  0
  141.3196  158.4674  132.6663 H   0  0  0  0  0  0  0  0  0  0  0  0
  144.0551  157.1645  133.8807 H   0  0  0  0  0  0  0  0  0  0  0  0
  147.1720  154.6300  131.8270 H   0  0  0  0  0  0  0  0  0  0  0  0
  147.7050  156.1950  131.1180 H   0  0  0  0  0  0  0  0  0  0  0  0
  1  2  1  0
  2  3  2  0
  2  4  1  0
  4  5  2  0
  5  6  1  0
  6  7  2  0
  7  8  1  0
  8  9  2  0
  9 10  1  0
 10 11  2  0
 11 12  1  0
 12 13  2  0
 13 14  1  0
 14 15  1  0
 15 16  1  0
 14 17  2  0
  9 18  1  0
 18 19  2  0
 19 20  1  0
 20 21  1  0
 21 22  1  0
 21 23  2  0
 20  4  1  0
 19  6  1  0
 17 10  1  0
  1 24  1  0
  5 25  1  0
  7 26  1  0
  8 27  1  0
 11 28  1  0
 12 29  1  0
 13 30  1  0
 15 31  1  0
 15 32  1  0
 16 33  1  0
 16 34  1  0
 17 35  1  0
 18 36  1  0
 22 37  1  0
 22 38  1  0
M  CHG  1   1  -1
M  END
>  <UniqueID>  (86) 
86

>  <SMILES>  (86) 
[NH-]C(=O)c1cc2ccc(-c3cccc(CN)c3)cc2n1C(N)=O

>  <Energy>  (86) 
81.81271569411373

>  <Genealogy>  (86) 
[NH-]C(=O)c1cc2ccc(-c3cccc(CN)c3)cc2n1C(N)=O (protonated)
[NH-]C(=O)c1cc2ccc(-c3cccc(CN)c3)cc2n1C(N)=O (3D coordinates assigned)
[NH-]C(=O)c1cc2ccc(-c3cccc(CN)c3)cc2n1C(N)=O (optimized conformer: 81.81271569411373 kcal/mol)

>  <smiles>  (86) 
NCc1cccc(-c2ccc3cc(C(N)=O)n(C(N)=O)c3c2)c1

>  <score_type>  (86) 
oracle

>  <origin>  (86) 
adg

>  <m_score__min__energy>  (86) 
-8.7400000000000002

>  <m_primary>  (86) 
energy

$$$$
86:0
     RDKit          3D

 38 40  0  0  0  0  0  0  0  0999 V2000
  138.4660  160.4510  130.3440 C   0  0  0  0  0  0  0  0  0  0  0  0
  138.9660  159.7270  131.5580 C   0  0  0  0  0  0  0  0  0  0  0  0
  138.2730  158.6190  132.0610 C   0  0  0  0  0  0  0  0  0  0  0  0
  138.7300  157.9610  133.2040 C   0  0  0  0  0  0  0  0  0  0  0  0
  139.8820  158.4070  133.8750 C   0  0  0  0  0  0  0  0  0  0  0  0
  140.3340  157.6600  135.0720 C   0  0  0  0  0  0  0  0  0  0  0  0
  139.7970  157.9780  136.3420 C   0  0  0  0  0  0  0  0  0  0  0  0
  140.1880  157.2620  137.4830 C   0  0  0  0  0  0  0  0  0  0  0  0
  141.1130  156.2360  137.3250 C   0  0  0  0  0  0  0  0  0  0  0  0
  141.6430  155.3890  138.2660 C   0  0  0  0  0  0  0  0  0  0  0  0
  142.4910  154.5460  137.5600 C   0  0  0  0  0  0  0  0  0  0  0  0
  143.2190  153.4340  138.1950 C   0  0  0  0  0  0  0  0  0  0  0  0
  144.6410  153.3590  138.1210 N   0  0  0  0  0  0  0  0  0  0  0  0
  142.5760  152.5110  138.7640 O   0  0  0  0  0  0  0  0  0  0  0  0
  142.5150  154.8650  136.2320 N   0  0  0  0  0  0  0  0  0  0  0  0
  143.3970  154.3170  135.2260 C   0  0  0  0  0  0  0  0  0  0  0  0
  142.9320  153.8960  134.1320 O   0  0  0  0  0  0  0  0  0  0  0  0
  144.7670  154.2200  135.4410 O   0  0  0  0  0  0  0  0  0  0  0  0
  141.6450  155.9030  136.1040 C   0  0  0  0  0  0  0  0  0  0  0  0
  141.2630  156.6020  134.9470 C   0  0  0  0  0  0  0  0  0  0  0  0
  140.5630  159.5550  133.3970 C   0  0  0  0  0  0  0  0  0  0  0  0
  141.7760  160.1120  134.0960 C   0  0  0  0  0  0  0  0  0  0  0  0
  140.1040  160.1930  132.2320 C   0  0  0  0  0  0  0  0  0  0  0  0
  137.8665  161.3190  130.6557 H   0  0  0  0  0  0  0  0  0  0  0  0
  139.3214  160.7930  129.7428 H   0  0  0  0  0  0  0  0  0  0  0  0
  137.8433  159.7722  129.7428 H   0  0  0  0  0  0  0  0  0  0  0  0
  137.3638  158.2654  131.5528 H   0  0  0  0  0  0  0  0  0  0  0  0
  138.1835  157.0850  133.5834 H   0  0  0  0  0  0  0  0  0  0  0  0
  139.0659  158.7946  136.4353 H   0  0  0  0  0  0  0  0  0  0  0  0
  139.7752  157.5049  138.4732 H   0  0  0  0  0  0  0  0  0  0  0  0
  141.4397  155.3799  139.3470 H   0  0  0  0  0  0  0  0  0  0  0  0
  145.1520  152.6120  138.6490 H   0  0  0  0  0  0  0  0  0  0  0  0
  145.1890  154.0510  137.5600 H   0  0  0  0  0  0  0  0  0  0  0  0
  141.6779  156.3318  133.9647 H   0  0  0  0  0  0  0  0  0  0  0  0
  141.6340  160.0468  135.1848 H   0  0  0  0  0  0  0  0  0  0  0  0
  142.6646  159.5317  133.8067 H   0  0  0  0  0  0  0  0  0  0  0  0
  141.9150  161.1641  133.8067 H   0  0  0  0  0  0  0  0  0  0  0  0
  140.6443  161.0690  131.8439 H   0  0  0  0  0  0  0  0  0  0  0  0
  1  2  1  0
  2  3  2  0
  3  4  1  0
  4  5  2  0
  5  6  1  0
  6  7  2  0
  7  8  1  0
  8  9  2  0
  9 10  1  0
 10 11  2  0
 11 12  1  0
 12 13  1  0
 12 14  2  0
 11 15  1  0
 15 16  1  0
 16 17  2  0
 16 18  1  0
 15 19  1  0
 19 20  2  0
  5 21  1  0
 21 22  1  0
 21 23  2  0
 23  2  1  0
 20  6  1  0
 19  9  1  0
  1 24  1  0
  1 25  1  0
  1 26  1  0
  3 27  1  0
  4 28  1  0
  7 29  1  0
  8 30  1  0
 10 31  1  0
 13 32  1  0
 13 33  1  0
 20 34  1  0
 22 35  1  0
 22 36  1  0
 22 37  1  0
 23 38  1  0
M  CHG  1  18  -1
M  END
>  <UniqueID>  (87) 
87

>  <SMILES>  (87) 
Cc1ccc(-c2ccc3cc(C(N)=O)n(C(=O)[O-])c3c2)c(C)c1

>  <Energy>  (87) 
88.93244363715606

>  <Genealogy>  (87) 
Cc1ccc(-c2ccc3cc(C(N)=O)n(C(=O)[O-])c3c2)c(C)c1 (protonated)
Cc1ccc(-c2ccc3cc(C(N)=O)n(C(=O)[O-])c3c2)c(C)c1 (3D coordinates assigned)
Cc1ccc(-c2ccc3cc(C(N)=O)n(C(=O)[O-])c3c2)c(C)c1 (optimized conformer: 88.93244363715606 kcal/mol)

>  <smiles>  (87) 
Cc1ccc(-c2ccc3cc(C(N)=O)n(C(=O)O)c3c2)c(C)c1

>  <score_type>  (87) 
oracle

>  <origin>  (87) 
adg

>  <m_score__min__energy>  (87) 
-7.8799999999999999

>  <m_primary>  (87) 
energy

$$$$
87:0
     RDKit          3D

 37 38  0  0  0  0  0  0  0  0999 V2000
  141.8130  158.7290  135.7200 C   0  0  0  0  0  0  0  0  0  0  0  0
  142.2000  157.2900  135.3990 C   0  0  0  0  0  0  0  0  0  0  0  0
  143.4650  157.2440  134.7440 O   0  0  0  0  0  0  0  0  0  0  0  0
  143.7350  157.9050  133.5400 C   0  0  0  0  0  0  0  0  0  0  0  0
  142.8930  157.8880  132.6010 O   0  0  0  0  0  0  0  0  0  0  0  0
  144.9650  158.6290  133.3850 N   0  0  0  0  0  0  0  0  0  0  0  0
  145.1710  159.9700  133.5220 C   0  0  0  0  0  0  0  0  0  0  0  0
  144.1230  160.9950  133.7060 C   0  0  0  0  0  0  0  0  0  0  0  0
  142.7630  160.7210  133.3790 N   0  0  0  0  0  0  0  0  0  0  0  0
  144.4410  162.1450  134.1100 O   0  0  0  0  0  0  0  0  0  0  0  0
  146.5240  160.2720  133.3840 C   0  0  0  0  0  0  0  0  0  0  0  0
  147.1450  159.0670  133.1440 C   0  0  0  0  0  0  0  0  0  0  0  0
  148.4920  158.7800  132.9460 C   0  0  0  0  0  0  0  0  0  0  0  0
  148.8560  157.4360  132.7540 C   0  0  0  0  0  0  0  0  0  0  0  0
  147.8750  156.4130  132.7620 C   0  0  0  0  0  0  0  0  0  0  0  0
  148.2840  154.9760  132.6060 C   0  0  0  0  0  0  0  0  0  0  0  0
  148.1240  154.2560  133.9050 C   0  0  0  0  0  0  0  0  0  0  0  0
  148.4040  153.0280  133.9800 O   0  0  0  0  0  0  0  0  0  0  0  0
  147.6200  154.9410  135.0150 O   0  0  0  0  0  0  0  0  0  0  0  0
  146.3680  154.6210  135.6080 C   0  0  0  0  0  0  0  0  0  0  0  0
  146.5180  156.7430  132.9790 C   0  0  0  0  0  0  0  0  0  0  0  0
  146.1820  158.0920  133.1490 C   0  0  0  0  0  0  0  0  0  0  0  0
  141.7766  158.8642  136.8111 H   0  0  0  0  0  0  0  0  0  0  0  0
  142.5589  159.4139  135.2903 H   0  0  0  0  0  0  0  0  0  0  0  0
  140.8242  158.9474  135.2903 H   0  0  0  0  0  0  0  0  0  0  0  0
  142.2562  156.7137  136.3343 H   0  0  0  0  0  0  0  0  0  0  0  0
  141.4394  156.8592  134.7312 H   0  0  0  0  0  0  0  0  0  0  0  0
  142.5180  160.0280  132.6380 H   0  0  0  0  0  0  0  0  0  0  0  0
  146.9961  161.2632  133.4523 H   0  0  0  0  0  0  0  0  0  0  0  0
  149.2478  159.5792  132.9399 H   0  0  0  0  0  0  0  0  0  0  0  0
  149.9130  157.1755  132.5959 H   0  0  0  0  0  0  0  0  0  0  0  0
  147.6512  154.4977  131.8439 H   0  0  0  0  0  0  0  0  0  0  0  0
  149.3385  154.9321  132.2960 H   0  0  0  0  0  0  0  0  0  0  0  0
  146.4642  154.6456  136.7035 H   0  0  0  0  0  0  0  0  0  0  0  0
  145.6132  155.3551  135.2896 H   0  0  0  0  0  0  0  0  0  0  0  0
  146.0580  153.6148  135.2896 H   0  0  0  0  0  0  0  0  0  0  0  0
  145.7456  155.9605  133.0135 H   0  0  0  0  0  0  0  0  0  0  0  0
  1  2  1  0
  2  3  1  0
  3  4  1  0
  4  5  2  0
  4  6  1  0
  6  7  1  0
  7  8  1  0
  8  9  1  0
  8 10  2  0
  7 11  2  0
 11 12  1  0
 12 13  2  0
 13 14  1  0
 14 15  2  0
 15 16  1  0
 16 17  1  0
 17 18  2  0
 17 19  1  0
 19 20  1  0
 15 21  1  0
 21 22  2  0
 22  6  1  0
 22 12  1  0
  1 23  1  0
  1 24  1  0
  1 25  1  0
  2 26  1  0
  2 27  1  0
  9 28  1  0
 11 29  1  0
 13 30  1  0
 14 31  1  0
 16 32  1  0
 16 33  1  0
 20 34  1  0
 20 35  1  0
 20 36  1  0
 21 37  1  0
M  CHG  1   9  -1
M  END
>  <UniqueID>  (88) 
88

>  <SMILES>  (88) 
CCOC(=O)n1c(C([NH-])=O)cc2ccc(CC(=O)OC)cc21

>  <Energy>  (88) 
68.01885360337772

>  <Genealogy>  (88) 
CCOC(=O)n1c(C([NH-])=O)cc2ccc(CC(=O)OC)cc21 (protonated)
CCOC(=O)n1c(C([NH-])=O)cc2ccc(CC(=O)OC)cc21 (3D coordinates assigned)
CCOC(=O)n1c(C([NH-])=O)cc2ccc(CC(=O)OC)cc21 (optimized conformer: 68.01885360337772 kcal/mol)

>  <smiles>  (88) 
CCOC(=O)n1c(C(N)=O)cc2ccc(CC(=O)OC)cc21

>  <score_type>  (88) 
oracle

>  <origin>  (88) 
adg

>  <m_score__min__energy>  (88) 
-5.8200000000000003

>  <m_primary>  (88) 
energy

$$$$
88:0
     RDKit          3D

 27 28  0  0  0  0  0  0  0  0999 V2000
  147.7730  160.8660  132.0490 N   0  0  0  0  0  0  0  0  0  0  0  0
  148.5880  159.6980  131.9470 C   0  0  0  0  0  0  0  0  0  0  0  0
  149.7370  159.7890  131.4370 O   0  0  0  0  0  0  0  0  0  0  0  0
  148.1370  158.4000  132.4880 C   0  0  0  0  0  0  0  0  0  0  0  0
  148.9070  157.2410  132.4360 C   0  0  0  0  0  0  0  0  0  0  0  0
  148.1660  156.2850  133.0920 C   0  0  0  0  0  0  0  0  0  0  0  0
  148.4450  154.9410  133.3190 C   0  0  0  0  0  0  0  0  0  0  0  0
  147.4800  154.1700  133.9870 C   0  0  0  0  0  0  0  0  0  0  0  0
  146.2610  154.7540  134.4140 C   0  0  0  0  0  0  0  0  0  0  0  0
  145.2140  153.9080  135.0830 C   0  0  0  0  0  0  0  0  0  0  0  0
  145.6520  153.5470  136.4660 C   0  0  0  0  0  0  0  0  0  0  0  0
  144.8090  153.4790  137.3990 O   0  0  0  0  0  0  0  0  0  0  0  0
  146.9820  153.2340  136.7160 O   0  0  0  0  0  0  0  0  0  0  0  0
  146.0060  156.1190  134.1530 C   0  0  0  0  0  0  0  0  0  0  0  0
  146.9950  156.8690  133.5050 C   0  0  0  0  0  0  0  0  0  0  0  0
  146.9610  158.1700  133.1370 N   0  0  0  0  0  0  0  0  0  0  0  0
  145.8570  159.0780  133.2950 C   0  0  0  0  0  0  0  0  0  0  0  0
  144.7650  158.8600  132.7040 O   0  0  0  0  0  0  0  0  0  0  0  0
  145.9780  160.2030  134.0990 O   0  0  0  0  0  0  0  0  0  0  0  0
  146.8950  160.8630  132.6140 H   0  0  0  0  0  0  0  0  0  0  0  0
  148.0920  161.7650  131.6270 H   0  0  0  0  0  0  0  0  0  0  0  0
  149.8957  157.1164  131.9703 H   0  0  0  0  0  0  0  0  0  0  0  0
  149.3937  154.4954  132.9850 H   0  0  0  0  0  0  0  0  0  0  0  0
  147.6716  153.1042  134.1805 H   0  0  0  0  0  0  0  0  0  0  0  0
  144.2704  154.4709  135.1355 H   0  0  0  0  0  0  0  0  0  0  0  0
  145.0684  152.9870  134.4995 H   0  0  0  0  0  0  0  0  0  0  0  0
  145.0536  156.5813  134.4516 H   0  0  0  0  0  0  0  0  0  0  0  0
  1  2  1  0
  2  3  2  0
  2  4  1  0
  4  5  2  0
  5  6  1  0
  6  7  2  0
  7  8  1  0
  8  9  2  0
  9 10  1  0
 10 11  1  0
 11 12  2  0
 11 13  1  0
  9 14  1  0
 14 15  2  0
 15 16  1  0
 16 17  1  0
 17 18  2  0
 17 19  1  0
 16  4  1  0
 15  6  1  0
  1 20  1  0
  1 21  1  0
  5 22  1  0
  7 23  1  0
  8 24  1  0
 10 25  1  0
 10 26  1  0
 14 27  1  0
M  CHG  2  13  -1  19  -1
M  END
>  <UniqueID>  (89) 
89

>  <SMILES>  (89) 
NC(=O)c1cc2ccc(CC(=O)[O-])cc2n1C(=O)[O-]

>  <Energy>  (89) 
65.98176202014304

>  <Genealogy>  (89) 
NC(=O)c1cc2ccc(CC(=O)[O-])cc2n1C(=O)[O-] (protonated)
NC(=O)c1cc2ccc(CC(=O)[O-])cc2n1C(=O)[O-] (3D coordinates assigned)
NC(=O)c1cc2ccc(CC(=O)[O-])cc2n1C(=O)[O-] (optimized conformer: 65.98176202014304 kcal/mol)

>  <smiles>  (89) 
NC(=O)c1cc2ccc(CC(=O)O)cc2n1C(=O)O

>  <score_type>  (89) 
oracle

>  <origin>  (89) 
adg

>  <m_score__min__energy>  (89) 
-6.5199999999999996

>  <m_primary>  (89) 
energy

$$$$
89:0
     RDKit          3D

 32 34  0  0  0  0  0  0  0  0999 V2000
  141.0730  158.9390  136.3090 C   0  0  0  0  0  0  0  0  0  0  0  0
  140.4550  158.6070  134.9810 C   0  0  0  0  0  0  0  0  0  0  0  0
  139.1810  158.1330  134.9600 N   0  0  0  0  0  0  0  0  0  0  0  0
  138.5560  157.8320  133.7930 C   0  0  0  0  0  0  0  0  0  0  0  0
  139.1990  158.0050  132.6120 N   0  0  0  0  0  0  0  0  0  0  0  0
  140.4740  158.4690  132.5740 C   0  0  0  0  0  0  0  0  0  0  0  0
  141.1530  158.7720  133.7630 C   0  0  0  0  0  0  0  0  0  0  0  0
  142.5500  159.2550  133.7000 C   0  0  0  0  0  0  0  0  0  0  0  0
  142.8230  160.6410  133.8080 C   0  0  0  0  0  0  0  0  0  0  0  0
  144.1410  161.1210  133.7290 C   0  0  0  0  0  0  0  0  0  0  0  0
  145.1620  160.1930  133.5450 C   0  0  0  0  0  0  0  0  0  0  0  0
  146.5170  160.3860  133.4050 C   0  0  0  0  0  0  0  0  0  0  0  0
  147.0550  159.1120  133.2280 C   0  0  0  0  0  0  0  0  0  0  0  0
  148.5060  158.8520  133.1240 C   0  0  0  0  0  0  0  0  0  0  0  0
  149.0820  158.3800  131.9100 N   0  0  0  0  0  0  0  0  0  0  0  0
  149.2400  159.0020  134.1380 O   0  0  0  0  0  0  0  0  0  0  0  0
  146.0700  158.1700  133.2470 N   0  0  0  0  0  0  0  0  0  0  0  0
  146.1940  156.7570  133.0190 C   0  0  0  0  0  0  0  0  0  0  0  0
  147.0680  156.3150  132.2260 O   0  0  0  0  0  0  0  0  0  0  0  0
  145.3350  155.8660  133.6500 O   0  0  0  0  0  0  0  0  0  0  0  0
  144.9170  158.8470  133.4450 C   0  0  0  0  0  0  0  0  0  0  0  0
  143.6110  158.3460  133.4980 C   0  0  0  0  0  0  0  0  0  0  0  0
  140.4161  158.5861  137.1176 H   0  0  0  0  0  0  0  0  0  0  0  0
  142.0528  158.4458  136.3910 H   0  0  0  0  0  0  0  0  0  0  0  0
  141.2027  160.0282  136.3910 H   0  0  0  0  0  0  0  0  0  0  0  0
  137.5257  157.4469  133.8057 H   0  0  0  0  0  0  0  0  0  0  0  0
  140.9772  158.6080  131.6058 H   0  0  0  0  0  0  0  0  0  0  0  0
  141.9941  161.3489  133.9553 H   0  0  0  0  0  0  0  0  0  0  0  0
  144.3592  162.1961  133.8100 H   0  0  0  0  0  0  0  0  0  0  0  0
  147.0604  161.3422  133.4279 H   0  0  0  0  0  0  0  0  0  0  0  0
  148.7640  157.4860  131.4760 H   0  0  0  0  0  0  0  0  0  0  0  0
  143.4160  157.2693  133.3849 H   0  0  0  0  0  0  0  0  0  0  0  0
  1  2  1  0
  2  3  2  0
  3  4  1  0
  4  5  2  0
  5  6  1  0
  6  7  2  0
  7  8  1  0
  8  9  2  0
  9 10  1  0
 10 11  2  0
 11 12  1  0
 12 13  2  0
 13 14  1  0
 14 15  1  0
 14 16  2  0
 13 17  1  0
 17 18  1  0
 18 19  2  0
 18 20  1  0
 17 21  1  0
 21 22  2  0
  7  2  1  0
 22  8  1  0
 21 11  1  0
  1 23  1  0
  1 24  1  0
  1 25  1  0
  4 26  1  0
  6 27  1  0
  9 28  1  0
 10 29  1  0
 12 30  1  0
 15 31  1  0
 22 32  1  0
M  CHG  2  15  -1  20  -1
M  END
>  <UniqueID>  (90) 
90

>  <SMILES>  (90) 
Cc1ncncc1-c1ccc2cc(C([NH-])=O)n(C(=O)[O-])c2c1

>  <Energy>  (90) 
82.3584782960201

>  <Genealogy>  (90) 
Cc1ncncc1-c1ccc2cc(C([NH-])=O)n(C(=O)[O-])c2c1 (protonated)
Cc1ncncc1-c1ccc2cc(C([NH-])=O)n(C(=O)[O-])c2c1 (3D coordinates assigned)
Cc1ncncc1-c1ccc2cc(C([NH-])=O)n(C(=O)[O-])c2c1 (optimized conformer: 82.3584782960201 kcal/mol)

>  <smiles>  (90) 
Cc1ncncc1-c1ccc2cc(C(N)=O)n(C(=O)O)c2c1

>  <score_type>  (90) 
oracle

>  <origin>  (90) 
adg

>  <m_score__min__energy>  (90) 
-6.9299999999999997

>  <m_primary>  (90) 
energy

$$$$
90:0
     RDKit          3D

 32 34  0  0  0  0  0  0  0  0999 V2000
  145.9290  155.8580  132.9980 C   0  0  0  0  0  0  0  0  0  0  0  0
  146.5870  156.9560  133.7100 C   0  0  0  0  0  0  0  0  0  0  0  0
  147.6310  156.6360  134.3750 O   0  0  0  0  0  0  0  0  0  0  0  0
  146.1660  158.3120  133.7190 N   0  0  0  0  0  0  0  0  0  0  0  0
  146.9700  159.3950  133.7260 C   0  0  0  0  0  0  0  0  0  0  0  0
  148.4040  159.5400  133.7280 C   0  0  0  0  0  0  0  0  0  0  0  0
  149.1770  159.0320  134.8470 N   0  0  0  0  0  0  0  0  0  0  0  0
  149.1120  160.0740  132.8450 O   0  0  0  0  0  0  0  0  0  0  0  0
  146.1250  160.5190  133.7320 C   0  0  0  0  0  0  0  0  0  0  0  0
  144.8350  160.1210  133.7280 C   0  0  0  0  0  0  0  0  0  0  0  0
  143.6640  160.8440  133.7320 C   0  0  0  0  0  0  0  0  0  0  0  0
  142.4470  160.2040  133.7270 C   0  0  0  0  0  0  0  0  0  0  0  0
  142.4450  158.8280  133.7190 C   0  0  0  0  0  0  0  0  0  0  0  0
  141.1660  158.0850  133.7130 C   0  0  0  0  0  0  0  0  0  0  0  0
  140.0860  158.3760  134.5210 C   0  0  0  0  0  0  0  0  0  0  0  0
  139.0940  157.4720  134.2260 C   0  0  0  0  0  0  0  0  0  0  0  0
  139.5750  156.6640  133.2660 N   0  0  0  0  0  0  0  0  0  0  0  0
  140.8190  157.0340  132.9600 N   0  0  0  0  0  0  0  0  0  0  0  0
  143.6360  158.1130  133.7150 C   0  0  0  0  0  0  0  0  0  0  0  0
  144.8660  158.7280  133.7200 C   0  0  0  0  0  0  0  0  0  0  0  0
  145.5051  155.1507  133.7261 H   0  0  0  0  0  0  0  0  0  0  0  0
  145.1235  156.2610  132.3666 H   0  0  0  0  0  0  0  0  0  0  0  0
  146.6643  155.3377  132.3666 H   0  0  0  0  0  0  0  0  0  0  0  0
  149.6280  159.6810  135.5300 H   0  0  0  0  0  0  0  0  0  0  0  0
  149.2530  157.9780  134.9260 H   0  0  0  0  0  0  0  0  0  0  0  0
  146.4642  161.5654  133.7389 H   0  0  0  0  0  0  0  0  0  0  0  0
  143.7019  161.9433  133.7392 H   0  0  0  0  0  0  0  0  0  0  0  0
  141.5058  160.7734  133.7293 H   0  0  0  0  0  0  0  0  0  0  0  0
  140.0294  159.1840  135.2653 H   0  0  0  0  0  0  0  0  0  0  0  0
  138.0968  157.4197  134.6874 H   0  0  0  0  0  0  0  0  0  0  0  0
  141.4670  156.6060  132.2520 H   0  0  0  0  0  0  0  0  0  0  0  0
  143.5937  157.0138  133.7075 H   0  0  0  0  0  0  0  0  0  0  0  0
  1  2  1  0
  2  3  2  0
  2  4  1  0
  4  5  1  0
  5  6  1  0
  6  7  1  0
  6  8  2  0
  5  9  2  0
  9 10  1  0
 10 11  2  0
 11 12  1  0
 12 13  2  0
 13 14  1  0
 14 15  2  0
 15 16  1  0
 16 17  2  0
 17 18  1  0
 13 19  1  0
 19 20  2  0
 20  4  1  0
 20 10  1  0
 18 14  1  0
  1 21  1  0
  1 22  1  0
  1 23  1  0
  7 24  1  0
  7 25  1  0
  9 26  1  0
 11 27  1  0
 12 28  1  0
 15 29  1  0
 16 30  1  0
 18 31  1  0
 19 32  1  0
M  END
>  <smiles>  (91) 
CC(=O)n1c(C(N)=O)cc2ccc(-c3ccn[nH]3)cc21

>  <score_type>  (91) 
oracle

>  <origin>  (91) 
adg

>  <m_score__min__energy>  (91) 
-7.3600000000000003

>  <m_primary>  (91) 
energy

$$$$
91:0
     RDKit          3D

 35 36  0  0  0  0  0  0  0  0999 V2000
  149.3270  158.4490  132.0160 C   0  0  0  0  0  0  0  0  0  0  0  0
  148.5190  158.6110  133.2650 C   0  0  0  0  0  0  0  0  0  0  0  0
  148.9670  159.3310  134.1970 O   0  0  0  0  0  0  0  0  0  0  0  0
  147.2460  157.9610  133.4130 N   0  0  0  0  0  0  0  0  0  0  0  0
  146.0250  158.5570  133.5190 C   0  0  0  0  0  0  0  0  0  0  0  0
  145.7660  160.0080  133.3770 C   0  0  0  0  0  0  0  0  0  0  0  0
  146.7860  160.9680  133.6620 N   0  0  0  0  0  0  0  0  0  0  0  0
  144.6280  160.4140  133.0210 O   0  0  0  0  0  0  0  0  0  0  0  0
  145.0310  157.5970  133.7150 C   0  0  0  0  0  0  0  0  0  0  0  0
  145.6890  156.3890  133.7310 C   0  0  0  0  0  0  0  0  0  0  0  0
  145.1900  155.1030  133.9170 C   0  0  0  0  0  0  0  0  0  0  0  0
  146.1060  154.0380  133.9290 C   0  0  0  0  0  0  0  0  0  0  0  0
  147.4920  154.2750  133.7560 C   0  0  0  0  0  0  0  0  0  0  0  0
  148.4680  153.1280  133.8210 C   0  0  0  0  0  0  0  0  0  0  0  0
  149.0690  152.8090  132.4390 C   0  0  1  0  0  0  0  0  0  0  0  0
  150.2890  153.5920  132.2350 N   0  0  0  0  0  0  0  0  0  0  0  0
  149.3910  151.3440  132.3270 C   0  0  0  0  0  0  0  0  0  0  0  0
  148.4620  150.4950  132.2770 O   0  0  0  0  0  0  0  0  0  0  0  0
  150.7130  150.9170  132.3080 O   0  0  0  0  0  0  0  0  0  0  0  0
  147.9610  155.5960  133.5760 C   0  0  0  0  0  0  0  0  0  0  0  0
  147.0240  156.6350  133.5490 C   0  0  0  0  0  0  0  0  0  0  0  0
  150.3737  158.2392  132.2811 H   0  0  0  0  0  0  0  0  0  0  0  0
  148.9241  157.6138  131.4244 H   0  0  0  0  0  0  0  0  0  0  0  0
  149.2772  159.3750  131.4244 H   0  0  0  0  0  0  0  0  0  0  0  0
  146.5770  161.9890  133.5930 H   0  0  0  0  0  0  0  0  0  0  0  0
  147.7600  160.6750  133.8960 H   0  0  0  0  0  0  0  0  0  0  0  0
  143.9509  157.7696  133.8318 H   0  0  0  0  0  0  0  0  0  0  0  0
  144.1125  154.9262  134.0504 H   0  0  0  0  0  0  0  0  0  0  0  0
  145.7435  153.0097  134.0742 H   0  0  0  0  0  0  0  0  0  0  0  0
  149.2828  153.3925  134.5111 H   0  0  0  0  0  0  0  0  0  0  0  0
  147.9260  152.2374  134.1719 H   0  0  0  0  0  0  0  0  0  0  0  0
  148.3283  153.0705  131.6689 H   0  0  0  0  0  0  0  0  0  0  0  0
  151.1060  153.0130  132.5390 H   0  0  0  0  0  0  0  0  0  0  0  0
  150.4150  153.7470  131.2080 H   0  0  0  0  0  0  0  0  0  0  0  0
  149.0353  155.8022  133.4601 H   0  0  0  0  0  0  0  0  0  0  0  0
  1  2  1  0
  2  3  2  0
  2  4  1  0
  4  5  1  0
  5  6  1  0
  6  7  1  0
  6  8  2  0
  5  9  2  0
  9 10  1  0
 10 11  2  0
 11 12  1  0
 12 13  2  0
 13 14  1  0
 14 15  1  0
 15 16  1  0
 15 17  1  0
 17 18  2  0
 17 19  1  0
 13 20  1  0
 20 21  2  0
 21  4  1  0
 21 10  1  0
  1 22  1  0
  1 23  1  0
  1 24  1  0
  7 25  1  0
  7 26  1  0
  9 27  1  0
 11 28  1  0
 12 29  1  0
 14 30  1  0
 14 31  1  0
 15 32  1  6
 16 33  1  0
 16 34  1  0
 20 35  1  0
M  CHG  1  19  -1
M  END
>  <UniqueID>  (92) 
91

>  <SMILES>  (92) 
CC(=O)n1c(C(N)=O)cc2ccc(C[C@@H](N)C(=O)[O-])cc21

>  <Energy>  (92) 
69.81566808640301

>  <Genealogy>  (92) 
CC(=O)n1c(C(N)=O)cc2ccc(CC(N)C(=O)[O-])cc21 (protonated)
CC(=O)n1c(C(N)=O)cc2ccc(C[C@@H](N)C(=O)[O-])cc21 (chirality)
CC(=O)n1c(C(N)=O)cc2ccc(C[C@@H](N)C(=O)[O-])cc21 (3D coordinates assigned)
CC(=O)n1c(C(N)=O)cc2ccc(C[C@@H](N)C(=O)[O-])cc21 (optimized conformer: 69.81566808640301 kcal/mol)

>  <smiles>  (92) 
CC(=O)n1c(C(N)=O)cc2ccc(CC(N)C(=O)O)cc21

>  <score_type>  (92) 
oracle

>  <origin>  (92) 
adg

>  <m_score__min__energy>  (92) 
-7.0199999999999996

>  <m_primary>  (92) 
energy

$$$$
92:0
     RDKit          3D

 24 25  0  0  0  0  0  0  0  0999 V2000
  149.3700  159.7590  132.2290 C   0  0  0  0  0  0  0  0  0  0  0  0
  147.9920  159.3450  132.6540 C   0  0  0  0  0  0  0  0  0  0  0  0
  147.6170  157.9800  132.6060 C   0  0  0  0  0  0  0  0  0  0  0  0
  146.3220  157.5810  132.9790 C   0  0  0  0  0  0  0  0  0  0  0  0
  145.4240  158.5700  133.3730 C   0  0  0  0  0  0  0  0  0  0  0  0
  144.1210  158.4600  133.8030 C   0  0  0  0  0  0  0  0  0  0  0  0
  143.7090  159.7640  134.0670 C   0  0  0  0  0  0  0  0  0  0  0  0
  142.3310  160.1110  134.4750 C   0  0  0  0  0  0  0  0  0  0  0  0
  141.5390  161.0060  133.6990 N   0  0  0  0  0  0  0  0  0  0  0  0
  141.8280  159.5710  135.4960 O   0  0  0  0  0  0  0  0  0  0  0  0
  144.7190  160.6460  133.8200 N   0  0  0  0  0  0  0  0  0  0  0  0
  144.7270  162.0650  134.0450 C   0  0  0  0  0  0  0  0  0  0  0  0
  143.9090  162.8090  133.4420 O   0  0  0  0  0  0  0  0  0  0  0  0
  145.6180  162.6260  134.9500 O   0  0  0  0  0  0  0  0  0  0  0  0
  145.7620  159.8980  133.3920 C   0  0  0  0  0  0  0  0  0  0  0  0
  147.0500  160.3210  133.0450 C   0  0  0  0  0  0  0  0  0  0  0  0
  149.9881  159.9447  133.1197 H   0  0  0  0  0  0  0  0  0  0  0  0
  149.8245  158.9578  131.6278 H   0  0  0  0  0  0  0  0  0  0  0  0
  149.3077  160.6781  131.6278 H   0  0  0  0  0  0  0  0  0  0  0  0
  148.3456  157.2257  132.2739 H   0  0  0  0  0  0  0  0  0  0  0  0
  146.0271  156.5214  132.9604 H   0  0  0  0  0  0  0  0  0  0  0  0
  143.5308  157.5384  133.9144 H   0  0  0  0  0  0  0  0  0  0  0  0
  141.9270  161.9140  133.3610 H   0  0  0  0  0  0  0  0  0  0  0  0
  147.3214  161.3865  133.0761 H   0  0  0  0  0  0  0  0  0  0  0  0
  1  2  1  0
  2  3  2  0
  3  4  1  0
  4  5  2  0
  5  6  1  0
  6  7  2  0
  7  8  1  0
  8  9  1  0
  8 10  2  0
  7 11  1  0
 11 12  1  0
 12 13  2  0
 12 14  1  0
 11 15  1  0
 15 16  2  0
 16  2  1  0
 15  5  1  0
  1 17  1  0
  1 18  1  0
  1 19  1  0
  3 20  1  0
  4 21  1  0
  6 22  1  0
  9 23  1  0
 16 24  1  0
M  CHG  2   9  -1  14  -1
M  END
>  <UniqueID>  (93) 
92

>  <SMILES>  (93) 
Cc1ccc2cc(C([NH-])=O)n(C(=O)[O-])c2c1

>  <Energy>  (93) 
63.82124957138151

>  <Genealogy>  (93) 
Cc1ccc2cc(C([NH-])=O)n(C(=O)[O-])c2c1 (protonated)
Cc1ccc2cc(C([NH-])=O)n(C(=O)[O-])c2c1 (3D coordinates assigned)
Cc1ccc2cc(C([NH-])=O)n(C(=O)[O-])c2c1 (optimized conformer: 63.82124957138151 kcal/mol)

>  <smiles>  (93) 
Cc1ccc2cc(C(N)=O)n(C(=O)O)c2c1

>  <score_type>  (93) 
oracle

>  <origin>  (93) 
adg

>  <m_score__min__energy>  (93) 
-5.6900000000000004

>  <m_primary>  (93) 
energy

$$$$
93:0
     RDKit          3D

 32 34  0  0  0  0  0  0  0  0999 V2000
  149.6510  157.5400  131.9280 N   0  0  0  0  0  0  0  0  0  0  0  0
  149.2020  158.8370  132.3200 C   0  0  0  0  0  0  0  0  0  0  0  0
  149.9840  159.8190  132.2100 O   0  0  0  0  0  0  0  0  0  0  0  0
  147.8200  159.0600  132.7850 C   0  0  0  0  0  0  0  0  0  0  0  0
  147.2820  160.3240  133.0090 C   0  0  0  0  0  0  0  0  0  0  0  0
  145.9710  160.1040  133.3630 C   0  0  0  0  0  0  0  0  0  0  0  0
  144.9770  161.0120  133.7090 C   0  0  0  0  0  0  0  0  0  0  0  0
  143.7170  160.5040  134.0700 C   0  0  0  0  0  0  0  0  0  0  0  0
  143.4760  159.1050  134.0880 C   0  0  0  0  0  0  0  0  0  0  0  0
  142.1440  158.5810  134.4840 C   0  0  0  0  0  0  0  0  0  0  0  0
  141.0550  158.6520  133.5940 C   0  0  0  0  0  0  0  0  0  0  0  0
  139.8010  158.1560  133.9670 C   0  0  0  0  0  0  0  0  0  0  0  0
  138.4510  158.2570  132.8510 Cl  0  0  0  0  0  0  0  0  0  0  0  0
  139.6210  157.5840  135.2290 C   0  0  0  0  0  0  0  0  0  0  0  0
  140.6950  157.5070  136.1210 C   0  0  0  0  0  0  0  0  0  0  0  0
  140.4690  156.7830  137.7030 Cl  0  0  0  0  0  0  0  0  0  0  0  0
  141.9500  158.0020  135.7520 C   0  0  0  0  0  0  0  0  0  0  0  0
  144.5160  158.2160  133.7300 C   0  0  0  0  0  0  0  0  0  0  0  0
  145.7550  158.7500  133.3550 C   0  0  0  0  0  0  0  0  0  0  0  0
  146.8850  158.0920  133.0050 N   0  0  0  0  0  0  0  0  0  0  0  0
  147.0880  156.6680  132.9950 C   0  0  0  0  0  0  0  0  0  0  0  0
  146.9890  156.0170  131.9230 O   0  0  0  0  0  0  0  0  0  0  0  0
  147.3900  155.9950  134.1720 O   0  0  0  0  0  0  0  0  0  0  0  0
  148.9840  156.7400  131.8500 H   0  0  0  0  0  0  0  0  0  0  0  0
  150.6430  157.3930  131.6350 H   0  0  0  0  0  0  0  0  0  0  0  0
  147.7958  161.2927  132.9216 H   0  0  0  0  0  0  0  0  0  0  0  0
  145.1705  162.0948  133.7006 H   0  0  0  0  0  0  0  0  0  0  0  0
  142.9084  161.1985  134.3417 H   0  0  0  0  0  0  0  0  0  0  0  0
  141.1911  159.1004  132.5988 H   0  0  0  0  0  0  0  0  0  0  0  0
  138.6346  157.1943  135.5208 H   0  0  0  0  0  0  0  0  0  0  0  0
  142.7913  157.9383  136.4578 H   0  0  0  0  0  0  0  0  0  0  0  0
  144.3550  157.1280  133.7458 H   0  0  0  0  0  0  0  0  0  0  0  0
  1  2  1  0
  2  3  2  0
  2  4  1  0
  4  5  2  0
  5  6  1  0
  6  7  2  0
  7  8  1  0
  8  9  2  0
  9 10  1  0
 10 11  2  0
 11 12  1  0
 12 13  1  0
 12 14  2  0
 14 15  1  0
 15 16  1  0
 15 17  2  0
  9 18  1  0
 18 19  2  0
 19 20  1  0
 20 21  1  0
 21 22  2  0
 21 23  1  0
 20  4  1  0
 19  6  1  0
 17 10  1  0
  1 24  1  0
  1 25  1  0
  5 26  1  0
  7 27  1  0
  8 28  1  0
 11 29  1  0
 14 30  1  0
 17 31  1  0
 18 32  1  0
M  CHG  1  23  -1
M  END
>  <UniqueID>  (94) 
93

>  <SMILES>  (94) 
NC(=O)c1cc2ccc(-c3cc(Cl)cc(Cl)c3)cc2n1C(=O)[O-]

>  <Energy>  (94) 
79.96205622613552

>  <Genealogy>  (94) 
NC(=O)c1cc2ccc(-c3cc(Cl)cc(Cl)c3)cc2n1C(=O)[O-] (protonated)
NC(=O)c1cc2ccc(-c3cc(Cl)cc(Cl)c3)cc2n1C(=O)[O-] (3D coordinates assigned)
NC(=O)c1cc2ccc(-c3cc(Cl)cc(Cl)c3)cc2n1C(=O)[O-] (optimized conformer: 79.96205622613552 kcal/mol)

>  <smiles>  (94) 
NC(=O)c1cc2ccc(-c3cc(Cl)cc(Cl)c3)cc2n1C(=O)O

>  <score_type>  (94) 
oracle

>  <origin>  (94) 
adg

>  <m_score__min__energy>  (94) 
-8.5399999999999991

>  <m_primary>  (94) 
energy

$$$$
94:0
     RDKit          3D

 47 49  0  0  0  0  0  0  0  0999 V2000
  145.4150  154.6000  133.8180 C   0  0  0  0  0  0  0  0  0  0  0  0
  146.2220  155.3990  134.8370 C   0  0  0  0  0  0  0  0  0  0  0  0
  147.2750  156.1130  134.1940 O   0  0  0  0  0  0  0  0  0  0  0  0
  147.1150  156.8060  132.9880 C   0  0  0  0  0  0  0  0  0  0  0  0
  147.2260  156.2020  131.8860 O   0  0  0  0  0  0  0  0  0  0  0  0
  146.8010  158.2070  133.0080 N   0  0  0  0  0  0  0  0  0  0  0  0
  147.6400  159.2520  132.7560 C   0  0  0  0  0  0  0  0  0  0  0  0
  149.0200  159.1520  132.2370 C   0  0  0  0  0  0  0  0  0  0  0  0
  149.6260  157.8830  132.0050 N   0  0  0  0  0  0  0  0  0  0  0  0
  149.6550  160.2010  131.9480 O   0  0  0  0  0  0  0  0  0  0  0  0
  146.9900  160.4630  132.9770 C   0  0  0  0  0  0  0  0  0  0  0  0
  145.7140  160.1280  133.3680 C   0  0  0  0  0  0  0  0  0  0  0  0
  144.6450  160.9410  133.7290 C   0  0  0  0  0  0  0  0  0  0  0  0
  143.4480  160.3200  134.1200 C   0  0  0  0  0  0  0  0  0  0  0  0
  143.3390  158.9060  134.1450 C   0  0  0  0  0  0  0  0  0  0  0  0
  142.0470  158.2500  134.5770 C   0  0  0  0  0  0  0  0  0  0  0  0
  140.8080  158.6770  133.7520 C   0  0  0  0  0  0  0  0  0  0  0  0
  141.0090  158.5100  132.2330 C   0  0  0  0  0  0  0  0  0  0  0  0
  139.8600  159.1600  131.4350 C   0  0  0  0  0  0  0  0  0  0  0  0
  138.5210  159.1960  132.2000 C   0  0  0  0  0  0  0  0  0  0  0  0
  138.3840  158.0070  133.1570 C   0  0  0  0  0  0  0  0  0  0  0  0
  139.5030  157.9840  134.2200 C   0  0  0  0  0  0  0  0  0  0  0  0
  144.4520  158.1140  133.7860 C   0  0  0  0  0  0  0  0  0  0  0  0
  145.6260  158.7600  133.3790 C   0  0  0  0  0  0  0  0  0  0  0  0
  144.7289  153.9207  134.3450 H   0  0  0  0  0  0  0  0  0  0  0  0
  144.8352  155.2899  133.1872 H   0  0  0  0  0  0  0  0  0  0  0  0
  146.0991  154.0134  133.1872 H   0  0  0  0  0  0  0  0  0  0  0  0
  145.5574  156.1139  135.3441 H   0  0  0  0  0  0  0  0  0  0  0  0
  146.6599  154.7027  135.5674 H   0  0  0  0  0  0  0  0  0  0  0  0
  149.1290  157.1400  131.4650 H   0  0  0  0  0  0  0  0  0  0  0  0
  147.4081  161.4740  132.8631 H   0  0  0  0  0  0  0  0  0  0  0  0
  144.7345  162.0372  133.7088 H   0  0  0  0  0  0  0  0  0  0  0  0
  142.5849  160.9371  134.4102 H   0  0  0  0  0  0  0  0  0  0  0  0
  142.1653  157.1605  134.4819 H   0  0  0  0  0  0  0  0  0  0  0  0
  141.8617  158.5714  135.6125 H   0  0  0  0  0  0  0  0  0  0  0  0
  140.6933  159.7534  133.9473 H   0  0  0  0  0  0  0  0  0  0  0  0
  141.9581  158.9849  131.9439 H   0  0  0  0  0  0  0  0  0  0  0  0
  141.0229  157.4343  132.0033 H   0  0  0  0  0  0  0  0  0  0  0  0
  140.1480  160.1927  131.1890 H   0  0  0  0  0  0  0  0  0  0  0  0
  139.7023  158.5449  130.5368 H   0  0  0  0  0  0  0  0  0  0  0  0
  138.4667  160.1290  132.7802 H   0  0  0  0  0  0  0  0  0  0  0  0
  137.7042  159.1412  131.4652 H   0  0  0  0  0  0  0  0  0  0  0  0
  137.4117  158.0728  133.6672 H   0  0  0  0  0  0  0  0  0  0  0  0
  138.4622  157.0842  132.5634 H   0  0  0  0  0  0  0  0  0  0  0  0
  139.1387  158.4982  135.1216 H   0  0  0  0  0  0  0  0  0  0  0  0
  139.7461  156.9289  134.4141 H   0  0  0  0  0  0  0  0  0  0  0  0
  144.3980  157.0160  133.8251 H   0  0  0  0  0  0  0  0  0  0  0  0
  1  2  1  0
  2  3  1  0
  3  4  1  0
  4  5  2  0
  4  6  1  0
  6  7  1  0
  7  8  1  0
  8  9  1  0
  8 10  2  0
  7 11  2  0
 11 12  1  0
 12 13  2  0
 13 14  1  0
 14 15  2  0
 15 16  1  0
 16 17  1  0
 17 18  1  0
 18 19  1  0
 19 20  1  0
 20 21  1  0
 21 22  1  0
 15 23  1  0
 23 24  2  0
 24  6  1  0
 24 12  1  0
 22 17  1  0
  1 25  1  0
  1 26  1  0
  1 27  1  0
  2 28  1  0
  2 29  1  0
  9 30  1  0
 11 31  1  0
 13 32  1  0
 14 33  1  0
 16 34  1  0
 16 35  1  0
 17 36  1  0
 18 37  1  0
 18 38  1  0
 19 39  1  0
 19 40  1  0
 20 41  1  0
 20 42  1  0
 21 43  1  0
 21 44  1  0
 22 45  1  0
 22 46  1  0
 23 47  1  0
M  CHG  1   9  -1
M  END
>  <UniqueID>  (95) 
94

>  <SMILES>  (95) 
CCOC(=O)n1c(C([NH-])=O)cc2ccc(CC3CCCCC3)cc21

>  <Energy>  (95) 
84.23101073806424

>  <Genealogy>  (95) 
CCOC(=O)n1c(C([NH-])=O)cc2ccc(CC3CCCCC3)cc21 (protonated)
CCOC(=O)n1c(C([NH-])=O)cc2ccc(CC3CCCCC3)cc21 (3D coordinates assigned)
CCOC(=O)n1c(C([NH-])=O)cc2ccc(CC3CCCCC3)cc21 (nonaromatic ring conformer: 84.23101073806424 kcal/mol)

>  <smiles>  (95) 
CCOC(=O)n1c(C(N)=O)cc2ccc(CC3CCCCC3)cc21

>  <score_type>  (95) 
oracle

>  <origin>  (95) 
adg

>  <m_score__min__energy>  (95) 
-8.3599999999999994

>  <m_primary>  (95) 
energy

$$$$
