0:0
     RDKit          3D

 51 53  0  0  0  0  0  0  0  0999 V2000
  150.2410  160.0730  129.1880 C   0  0  0  0  0  0  0  0  0  0  0  0
  149.9020  159.6660  130.5080 O   0  0  0  0  0  0  0  0  0  0  0  0
  149.0600  160.4170  131.3370 C   0  0  0  0  0  0  0  0  0  0  0  0
  149.0160  161.6730  131.2180 O   0  0  0  0  0  0  0  0  0  0  0  0
  148.2510  159.7490  132.3220 N   0  0  0  0  0  0  0  0  0  0  0  0
  147.3590  160.5120  133.2120 C   0  0  0  0  0  0  0  0  0  0  0  0
  146.0190  159.7800  133.3860 C   0  0  0  0  0  0  0  0  0  0  0  0
  146.2060  158.3330  133.5570 N   0  0  0  0  0  0  0  0  0  0  0  0
  145.0660  157.4580  133.4810 C   0  0  0  0  0  0  0  0  0  0  0  0
  145.2430  156.0520  133.4460 C   0  0  0  0  0  0  0  0  0  0  0  0
  144.1330  155.1930  133.3830 C   0  0  0  0  0  0  0  0  0  0  0  0
  142.8630  155.7660  133.3550 C   0  0  0  0  0  0  0  0  0  0  0  0
  141.6240  155.1710  133.3230 C   0  0  0  0  0  0  0  0  0  0  0  0
  140.7080  156.2220  133.3350 C   0  0  0  0  0  0  0  0  0  0  0  0
  139.2390  156.0490  133.2480 C   0  0  0  0  0  0  0  0  0  0  0  0
  138.3610  157.1700  133.3750 N   0  0  0  0  0  0  0  0  0  0  0  0
  138.7470  154.9020  133.0810 O   0  0  0  0  0  0  0  0  0  0  0  0
  141.3570  157.4200  133.3650 N   0  0  0  0  0  0  0  0  0  0  0  0
  140.7640  158.7280  133.4550 C   0  0  0  0  0  0  0  0  0  0  0  0
  140.1760  159.0730  134.5150 O   0  0  0  0  0  0  0  0  0  0  0  0
  140.7680  159.6610  132.2760 C   0  0  0  0  0  0  0  0  0  0  0  0
  139.8660  159.1490  131.1520 C   0  0  0  0  0  0  0  0  0  0  0  0
  138.7630  160.0310  130.9890 O   0  0  0  0  0  0  0  0  0  0  0  0
  137.4600  159.5910  131.1090 N   0  0  0  0  0  0  0  0  0  0  0  0
  137.1930  158.6750  131.9100 O   0  0  0  0  0  0  0  0  0  0  0  0
  136.4590  160.1250  130.3300 O   0  0  0  0  0  0  0  0  0  0  0  0
  142.6760  157.1230  133.3810 C   0  0  0  0  0  0  0  0  0  0  0  0
  143.7620  157.9980  133.4630 C   0  0  0  0  0  0  0  0  0  0  0  0
  147.5620  157.7830  133.6650 C   0  0  0  0  0  0  0  0  0  0  0  0
  148.4130  158.2990  132.5050 C   0  0  0  0  0  0  0  0  0  0  0  0
  150.9444  160.9175  129.2339 H   0  0  0  0  0  0  0  0  0  0  0  0
  150.7105  159.2333  128.6546 H   0  0  0  0  0  0  0  0  0  0  0  0
  149.3303  160.3830  128.6546 H   0  0  0  0  0  0  0  0  0  0  0  0
  147.8395  160.6264  134.1949 H   0  0  0  0  0  0  0  0  0  0  0  0
  147.1700  161.4994  132.7655 H   0  0  0  0  0  0  0  0  0  0  0  0
  145.5073  160.1802  134.2737 H   0  0  0  0  0  0  0  0  0  0  0  0
  145.4202  159.9424  132.4777 H   0  0  0  0  0  0  0  0  0  0  0  0
  146.2585  155.6297  133.4684 H   0  0  0  0  0  0  0  0  0  0  0  0
  144.2625  154.1010  133.3566 H   0  0  0  0  0  0  0  0  0  0  0  0
  141.4023  154.0940  133.2941 H   0  0  0  0  0  0  0  0  0  0  0  0
  138.7270  158.1440  133.4460 H   0  0  0  0  0  0  0  0  0  0  0  0
  137.3260  157.0270  133.3540 H   0  0  0  0  0  0  0  0  0  0  0  0
  140.4086  160.6486  132.6007 H   0  0  0  0  0  0  0  0  0  0  0  0
  141.7963  159.7253  131.8907 H   0  0  0  0  0  0  0  0  0  0  0  0
  140.4395  159.1022  130.2145 H   0  0  0  0  0  0  0  0  0  0  0  0
  139.4971  158.1447  131.4073 H   0  0  0  0  0  0  0  0  0  0  0  0
  143.6041  159.0855  133.5125 H   0  0  0  0  0  0  0  0  0  0  0  0
  148.0111  158.0984  134.6183 H   0  0  0  0  0  0  0  0  0  0  0  0
  147.5170  156.6846  133.6275 H   0  0  0  0  0  0  0  0  0  0  0  0
  149.4709  158.0808  132.7129 H   0  0  0  0  0  0  0  0  0  0  0  0
  148.0834  157.7956  131.5841 H   0  0  0  0  0  0  0  0  0  0  0  0
  1  2  1  0
  2  3  1  0
  3  4  2  0
  3  5  1  0
  5  6  1  0
  6  7  1  0
  7  8  1  0
  8  9  1  0
  9 10  2  0
 10 11  1  0
 11 12  2  0
 12 13  1  0
 13 14  2  0
 14 15  1  0
 15 16  1  0
 15 17  2  0
 14 18  1  0
 18 19  1  0
 19 20  2  0
 19 21  1  0
 21 22  1  0
 22 23  1  0
 23 24  1  0
 24 25  2  0
 24 26  1  0
 18 27  1  0
 27 28  2  0
  8 29  1  0
 29 30  1  0
 30  5  1  0
 28  9  1  0
 27 12  1  0
  1 31  1  0
  1 32  1  0
  1 33  1  0
  6 34  1  0
  6 35  1  0
  7 36  1  0
  7 37  1  0
 10 38  1  0
 11 39  1  0
 13 40  1  0
 16 41  1  0
 16 42  1  0
 21 43  1  0
 21 44  1  0
 22 45  1  0
 22 46  1  0
 28 47  1  0
 29 48  1  0
 29 49  1  0
 30 50  1  0
 30 51  1  0
M  CHG  2  24   1  26  -1
M  END
>  <UniqueID>  (1) 
1

>  <SMILES>  (1) 
COC(=O)N1CCN(c2ccc3cc(C(N)=O)n(C(=O)CCO[N+](=O)[O-])c3c2)CC1

>  <Energy>  (1) 
87.45385276567501

>  <Genealogy>  (1) 
COC(=O)N1CCN(c2ccc3cc(C(N)=O)n(C(=O)CCO[N+](=O)[O-])c3c2)CC1 (3D coordinates assigned)
COC(=O)N1CCN(c2ccc3cc(C(N)=O)n(C(=O)CCO[N+](=O)[O-])c3c2)CC1 (nonaromatic ring conformer: 87.45385276567501 kcal/mol)

>  <smiles>  (1) 
COC(=O)N1CCN(c2ccc3cc(C(N)=O)n(C(=O)CCO[N+](=O)[O-])c3c2)CC1

>  <score_type>  (1) 
oracle

>  <origin>  (1) 
adg

>  <m_score__min__energy>  (1) 
-8.3100000000000005

>  <m_primary>  (1) 
energy

$$$$
1:0
     RDKit          3D

 34 35  0  0  0  0  0  0  0  0999 V2000
  149.7050  157.5160  132.2360 N   0  0  0  0  0  0  0  0  0  0  0  0
  149.2290  158.8610  132.2450 C   0  0  0  0  0  0  0  0  0  0  0  0
  149.9980  159.7910  131.8840 O   0  0  0  0  0  0  0  0  0  0  0  0
  147.8410  159.1490  132.6590 C   0  0  0  0  0  0  0  0  0  0  0  0
  147.3560  160.4300  132.9240 C   0  0  0  0  0  0  0  0  0  0  0  0
  146.0580  160.2470  133.3470 C   0  0  0  0  0  0  0  0  0  0  0  0
  145.1060  161.1780  133.7520 C   0  0  0  0  0  0  0  0  0  0  0  0
  143.8430  160.6990  134.1430 C   0  0  0  0  0  0  0  0  0  0  0  0
  143.5480  159.3110  134.1050 C   0  0  0  0  0  0  0  0  0  0  0  0
  142.2070  158.8050  134.5700 C   0  0  0  0  0  0  0  0  0  0  0  0
  141.4570  158.4280  133.4710 F   0  0  0  0  0  0  0  0  0  0  0  0
  141.5260  159.7910  135.2630 F   0  0  0  0  0  0  0  0  0  0  0  0
  142.3580  157.7130  135.4070 F   0  0  0  0  0  0  0  0  0  0  0  0
  144.5510  158.3970  133.7090 C   0  0  0  0  0  0  0  0  0  0  0  0
  145.7980  158.9040  133.3290 C   0  0  0  0  0  0  0  0  0  0  0  0
  146.8760  158.2180  132.9000 N   0  0  0  0  0  0  0  0  0  0  0  0
  146.9600  156.7980  132.7290 C   0  0  0  0  0  0  0  0  0  0  0  0
  147.0500  156.3170  131.5660 O   0  0  0  0  0  0  0  0  0  0  0  0
  147.0340  155.8790  133.9190 C   0  0  2  0  0  0  0  0  0  0  0  0
  147.6310  156.5270  134.9880 F   0  0  0  0  0  0  0  0  0  0  0  0
  147.8100  154.5910  133.5700 C   0  0  1  0  0  0  0  0  0  0  0  0
  149.0010  154.8780  132.8790 O   0  0  0  0  0  0  0  0  0  0  0  0
  148.0950  153.7340  134.8130 C   0  0  0  0  0  0  0  0  0  0  0  0
  148.7570  152.5680  134.4710 F   0  0  0  0  0  0  0  0  0  0  0  0
  146.9050  153.4080  135.4390 F   0  0  0  0  0  0  0  0  0  0  0  0
  149.1330  156.7470  131.8180 H   0  0  0  0  0  0  0  0  0  0  0  0
  147.8952  161.3829  132.8178 H   0  0  0  0  0  0  0  0  0  0  0  0
  145.3342  162.2540  133.7658 H   0  0  0  0  0  0  0  0  0  0  0  0
  143.0742  161.4087  134.4825 H   0  0  0  0  0  0  0  0  0  0  0  0
  144.3558  157.3145  133.6999 H   0  0  0  0  0  0  0  0  0  0  0  0
  146.0094  155.5965  134.2027 H   0  0  0  0  0  0  0  0  0  0  0  0
  147.1616  154.0025  132.9042 H   0  0  0  0  0  0  0  0  0  0  0  0
  148.7950  155.5620  132.1890 H   0  0  0  0  0  0  0  0  0  0  0  0
  148.7327  154.3192  135.4918 H   0  0  0  0  0  0  0  0  0  0  0  0
  1  2  1  0
  2  3  2  0
  2  4  1  0
  4  5  2  0
  5  6  1  0
  6  7  2  0
  7  8  1  0
  8  9  2  0
  9 10  1  0
 10 11  1  0
 10 12  1  0
 10 13  1  0
  9 14  1  0
 14 15  2  0
 15 16  1  0
 16 17  1  0
 17 18  2  0
 17 19  1  0
 19 20  1  0
 19 21  1  0
 21 22  1  0
 21 23  1  0
 23 24  1  0
 23 25  1  0
 16  4  1  0
 15  6  1  0
  1 26  1  0
  5 27  1  0
  7 28  1  0
  8 29  1  0
 14 30  1  0
 19 31  1  1
 21 32  1  6
 22 33  1  0
 23 34  1  0
M  CHG  1   1  -1
M  END
>  <UniqueID>  (2) 
2

>  <SMILES>  (2) 
[NH-]C(=O)c1cc2ccc(C(F)(F)F)cc2n1C(=O)[C@H](F)[C@@H](O)C(F)F

>  <Energy>  (2) 
72.15301460901645

>  <Genealogy>  (2) 
[NH-]C(=O)c1cc2ccc(C(F)(F)F)cc2n1C(=O)C(F)[C@@H](O)C(F)F (protonated)
[NH-]C(=O)c1cc2ccc(C(F)(F)F)cc2n1C(=O)[C@H](F)[C@@H](O)C(F)F (chirality)
[NH-]C(=O)c1cc2ccc(C(F)(F)F)cc2n1C(=O)[C@H](F)[C@@H](O)C(F)F (3D coordinates assigned)
[NH-]C(=O)c1cc2ccc(C(F)(F)F)cc2n1C(=O)[C@H](F)[C@@H](O)C(F)F (optimized conformer: 72.15301460901645 kcal/mol)

>  <smiles>  (2) 
NC(=O)c1cc2ccc(C(F)(F)F)cc2n1C(=O)C(F)[C@@H](O)C(F)F

>  <score_type>  (2) 
oracle

>  <origin>  (2) 
adg

>  <m_score__min__energy>  (2) 
-5.4800000000000004

>  <m_primary>  (2) 
energy

$$$$
2:0
     RDKit          3D

 39 40  0  0  0  0  0  0  0  0999 V2000
  150.8900  149.9970  129.9860 C   0  0  0  0  0  0  0  0  0  0  0  0
  150.0200  151.0770  130.2380 O   0  0  0  0  0  0  0  0  0  0  0  0
  149.4570  150.9340  131.5260 C   0  0  0  0  0  0  0  0  0  0  0  0
  149.9970  152.0280  132.4460 C   0  0  0  0  0  0  0  0  0  0  0  0
  148.9720  153.0460  132.7070 C   0  0  0  0  0  0  0  0  0  0  0  0
  148.1280  153.8800  132.9220 C   0  0  0  0  0  0  0  0  0  0  0  0
  147.1220  154.8750  133.1790 C   0  0  0  0  0  0  0  0  0  0  0  0
  145.8190  154.4810  133.5610 C   0  0  0  0  0  0  0  0  0  0  0  0
  144.8300  155.4450  133.8210 C   0  0  0  0  0  0  0  0  0  0  0  0
  145.1750  156.7870  133.6820 C   0  0  0  0  0  0  0  0  0  0  0  0
  144.4260  157.9240  133.8880 C   0  0  0  0  0  0  0  0  0  0  0  0
  145.2830  158.9880  133.6110 C   0  0  0  0  0  0  0  0  0  0  0  0
  144.8750  160.4080  133.6710 C   0  0  0  0  0  0  0  0  0  0  0  0
  145.8100  161.4290  134.0090 N   0  0  0  0  0  0  0  0  0  0  0  0
  143.6870  160.7280  133.3970 O   0  0  0  0  0  0  0  0  0  0  0  0
  146.5110  158.5260  133.2460 N   0  0  0  0  0  0  0  0  0  0  0  0
  147.6780  159.3020  132.9370 C   0  0  0  0  0  0  0  0  0  0  0  0
  148.1140  160.1170  133.7940 O   0  0  0  0  0  0  0  0  0  0  0  0
  148.4290  159.1040  131.6400 C   0  0  2  0  0  0  0  0  0  0  0  0
  149.7350  158.3390  131.8600 C   0  0  0  0  0  0  0  0  0  0  0  0
  148.8470  160.8060  130.7900 Br  0  0  0  0  0  0  0  0  0  0  0  0
  146.4330  157.1790  133.2990 C   0  0  0  0  0  0  0  0  0  0  0  0
  147.4410  156.2430  133.0500 C   0  0  0  0  0  0  0  0  0  0  0  0
  151.2326  149.5717  130.9408 H   0  0  0  0  0  0  0  0  0  0  0  0
  150.3587  149.2248  129.4102 H   0  0  0  0  0  0  0  0  0  0  0  0
  151.7576  150.3517  129.4102 H   0  0  0  0  0  0  0  0  0  0  0  0
  148.3624  151.0197  131.4586 H   0  0  0  0  0  0  0  0  0  0  0  0
  149.7248  149.9483  131.9343 H   0  0  0  0  0  0  0  0  0  0  0  0
  150.3068  151.5760  133.3998 H   0  0  0  0  0  0  0  0  0  0  0  0
  150.8540  152.5104  131.9532 H   0  0  0  0  0  0  0  0  0  0  0  0
  145.5776  153.4120  133.6554 H   0  0  0  0  0  0  0  0  0  0  0  0
  143.8151  155.1488  134.1248 H   0  0  0  0  0  0  0  0  0  0  0  0
  143.3740  157.9807  134.2042 H   0  0  0  0  0  0  0  0  0  0  0  0
  146.6220  161.6410  133.3890 H   0  0  0  0  0  0  0  0  0  0  0  0
  147.7665  158.5193  130.9848 H   0  0  0  0  0  0  0  0  0  0  0  0
  149.9194  158.2310  132.9390 H   0  0  0  0  0  0  0  0  0  0  0  0
  149.6585  157.3429  131.3996 H   0  0  0  0  0  0  0  0  0  0  0  0
  150.5664  158.8929  131.3996 H   0  0  0  0  0  0  0  0  0  0  0  0
  148.4530  156.5638  132.7620 H   0  0  0  0  0  0  0  0  0  0  0  0
  1  2  1  0
  2  3  1  0
  3  4  1  0
  4  5  1  0
  5  6  3  0
  6  7  1  0
  7  8  2  0
  8  9  1  0
  9 10  2  0
 10 11  1  0
 11 12  2  0
 12 13  1  0
 13 14  1  0
 13 15  2  0
 12 16  1  0
 16 17  1  0
 17 18  2  0
 17 19  1  0
 19 20  1  0
 19 21  1  0
 16 22  1  0
 22 23  2  0
 23  7  1  0
 22 10  1  0
  1 24  1  0
  1 25  1  0
  1 26  1  0
  3 27  1  0
  3 28  1  0
  4 29  1  0
  4 30  1  0
  8 31  1  0
  9 32  1  0
 11 33  1  0
 14 34  1  0
 19 35  1  6
 20 36  1  0
 20 37  1  0
 20 38  1  0
 23 39  1  0
M  CHG  1  14  -1
M  END
>  <UniqueID>  (3) 
3

>  <SMILES>  (3) 
COCCC#Cc1ccc2cc(C([NH-])=O)n(C(=O)[C@H](C)Br)c2c1

>  <Energy>  (3) 
70.79147033154479

>  <Genealogy>  (3) 
COCCC#Cc1ccc2cc(C([NH-])=O)n(C(=O)C(C)Br)c2c1 (protonated)
COCCC#Cc1ccc2cc(C([NH-])=O)n(C(=O)[C@H](C)Br)c2c1 (chirality)
COCCC#Cc1ccc2cc(C([NH-])=O)n(C(=O)[C@H](C)Br)c2c1 (3D coordinates assigned)
COCCC#Cc1ccc2cc(C([NH-])=O)n(C(=O)[C@H](C)Br)c2c1 (optimized conformer: 70.79147033154479 kcal/mol)

>  <smiles>  (3) 
COCCC#Cc1ccc2cc(C(N)=O)n(C(=O)C(C)Br)c2c1

>  <score_type>  (3) 
oracle

>  <origin>  (3) 
adg

>  <m_score__min__energy>  (3) 
-7.9800000000000004

>  <m_primary>  (3) 
energy

$$$$
4:0
     RDKit          3D

 58 61  0  0  0  0  0  0  0  0999 V2000
  140.2750  149.2020  133.5140 C   0  0  0  0  0  0  0  0  0  0  0  0
  140.5900  149.8890  132.2490 N   0  0  0  0  0  0  0  0  0  0  0  0
  141.9730  149.6160  131.8070 C   0  0  0  0  0  0  0  0  0  0  0  0
  143.0270  150.3930  132.6270 C   0  0  0  0  0  0  0  0  0  0  0  0
  142.5310  151.7010  133.1200 N   0  0  0  0  0  0  0  0  0  0  0  0
  143.6380  152.6410  133.4650 C   0  0  1  0  0  0  0  0  0  0  0  0
  144.5660  152.9940  132.2660 C   0  0  0  0  0  0  0  0  0  0  0  0
  145.4800  154.1690  132.6300 C   0  0  0  0  0  0  0  0  0  0  0  0
  144.6660  155.4690  132.8700 C   0  0  2  0  0  0  0  0  0  0  0  0
  145.4050  156.4180  133.7950 C   0  0  0  0  0  0  0  0  0  0  0  0
  146.1650  155.9370  134.6780 O   0  0  0  0  0  0  0  0  0  0  0  0
  145.2610  157.8510  133.6870 N   0  0  0  0  0  0  0  0  0  0  0  0
  146.2220  158.7780  133.4000 C   0  0  0  0  0  0  0  0  0  0  0  0
  147.6210  158.4930  133.0680 C   0  0  0  0  0  0  0  0  0  0  0  0
  148.3870  157.6290  133.9050 N   0  0  0  0  0  0  0  0  0  0  0  0
  148.1720  159.0710  132.0930 O   0  0  0  0  0  0  0  0  0  0  0  0
  145.6880  160.0610  133.3670 C   0  0  0  0  0  0  0  0  0  0  0  0
  144.3500  159.9000  133.6370 C   0  0  0  0  0  0  0  0  0  0  0  0
  143.3400  160.8500  133.7290 C   0  0  0  0  0  0  0  0  0  0  0  0
  142.0420  160.4050  134.0350 C   0  0  0  0  0  0  0  0  0  0  0  0
  141.7800  159.0290  134.2620 C   0  0  0  0  0  0  0  0  0  0  0  0
  140.3700  158.5880  134.5710 C   0  0  0  0  0  0  0  0  0  0  0  0
  140.2990  157.2090  134.4990 F   0  0  0  0  0  0  0  0  0  0  0  0
  139.4980  159.1380  133.6490 F   0  0  0  0  0  0  0  0  0  0  0  0
  139.9770  158.9860  135.8370 F   0  0  0  0  0  0  0  0  0  0  0  0
  142.8360  158.0910  134.1520 C   0  0  0  0  0  0  0  0  0  0  0  0
  144.1150  158.5590  133.8300 C   0  0  0  0  0  0  0  0  0  0  0  0
  143.2250  155.1980  133.3850 C   0  0  0  0  0  0  0  0  0  0  0  0
  143.1070  153.9020  134.2090 C   0  0  0  0  0  0  0  0  0  0  0  0
  141.4750  152.2600  132.2570 C   0  0  0  0  0  0  0  0  0  0  0  0
  140.2470  151.3350  132.2810 C   0  0  0  0  0  0  0  0  0  0  0  0
  140.5677  149.8403  134.3607 H   0  0  0  0  0  0  0  0  0  0  0  0
  139.1947  149.0007  133.5628 H   0  0  0  0  0  0  0  0  0  0  0  0
  140.8275  148.2521  133.5628 H   0  0  0  0  0  0  0  0  0  0  0  0
  142.1697  148.5389  131.9124 H   0  0  0  0  0  0  0  0  0  0  0  0
  142.0579  149.9454  130.7609 H   0  0  0  0  0  0  0  0  0  0  0  0
  143.3187  149.7802  133.4927 H   0  0  0  0  0  0  0  0  0  0  0  0
  143.8783  150.5948  131.9602 H   0  0  0  0  0  0  0  0  0  0  0  0
  144.2887  152.0970  134.1654 H   0  0  0  0  0  0  0  0  0  0  0  0
  143.9489  153.2694  131.3981 H   0  0  0  0  0  0  0  0  0  0  0  0
  145.1869  152.1189  132.0238 H   0  0  0  0  0  0  0  0  0  0  0  0
  146.1897  154.3383  131.8068 H   0  0  0  0  0  0  0  0  0  0  0  0
  146.0118  153.9179  133.5596 H   0  0  0  0  0  0  0  0  0  0  0  0
  144.5609  155.9518  131.8872 H   0  0  0  0  0  0  0  0  0  0  0  0
  147.9430  157.1490  134.7210 H   0  0  0  0  0  0  0  0  0  0  0  0
  149.4000  157.4660  133.7110 H   0  0  0  0  0  0  0  0  0  0  0  0
  146.2213  161.0022  133.1678 H   0  0  0  0  0  0  0  0  0  0  0  0
  143.5497  161.9177  133.5673 H   0  0  0  0  0  0  0  0  0  0  0  0
  141.2194  161.1324  134.0993 H   0  0  0  0  0  0  0  0  0  0  0  0
  142.6546  157.0185  134.3160 H   0  0  0  0  0  0  0  0  0  0  0  0
  142.5525  155.1230  132.5178 H   0  0  0  0  0  0  0  0  0  0  0  0
  142.9535  156.0322  134.0486 H   0  0  0  0  0  0  0  0  0  0  0  0
  142.0468  153.7408  134.4540 H   0  0  0  0  0  0  0  0  0  0  0  0
  143.7282  154.0326  135.1074 H   0  0  0  0  0  0  0  0  0  0  0  0
  141.1902  153.2565  132.6256 H   0  0  0  0  0  0  0  0  0  0  0  0
  141.8506  152.3425  131.2264 H   0  0  0  0  0  0  0  0  0  0  0  0
  139.6775  151.5370  133.2002 H   0  0  0  0  0  0  0  0  0  0  0  0
  139.6648  151.5484  131.3725 H   0  0  0  0  0  0  0  0  0  0  0  0
  1  2  1  0
  2  3  1  0
  3  4  1  0
  4  5  1  0
  5  6  1  0
  6  7  1  0
  7  8  1  0
  8  9  1  0
  9 10  1  0
 10 11  2  0
 10 12  1  0
 12 13  1  0
 13 14  1  0
 14 15  1  0
 14 16  2  0
 13 17  2  0
 17 18  1  0
 18 19  2  0
 19 20  1  0
 20 21  2  0
 21 22  1  0
 22 23  1  0
 22 24  1  0
 22 25  1  0
 21 26  1  0
 26 27  2  0
  9 28  1  0
 28 29  1  0
  5 30  1  0
 30 31  1  0
 31  2  1  0
 29  6  1  0
 27 12  1  0
 27 18  1  0
  1 32  1  0
  1 33  1  0
  1 34  1  0
  3 35  1  0
  3 36  1  0
  4 37  1  0
  4 38  1  0
  6 39  1  1
  7 40  1  0
  7 41  1  0
  8 42  1  0
  8 43  1  0
  9 44  1  6
 15 45  1  0
 15 46  1  0
 17 47  1  0
 19 48  1  0
 20 49  1  0
 26 50  1  0
 28 51  1  0
 28 52  1  0
 29 53  1  0
 29 54  1  0
 30 55  1  0
 30 56  1  0
 31 57  1  0
 31 58  1  0
M  END
>  <UniqueID>  (4) 
4

>  <SMILES>  (4) 
CN1CCN(C2CCC(C(=O)n3c(C(N)=O)cc4ccc(C(F)(F)F)cc43)CC2)CC1

>  <Energy>  (4) 
125.57695661856597

>  <Genealogy>  (4) 
CN1CCN(C2CCC(C(=O)n3c(C(N)=O)cc4ccc(C(F)(F)F)cc43)CC2)CC1 (3D coordinates assigned)
CN1CCN(C2CCC(C(=O)n3c(C(N)=O)cc4ccc(C(F)(F)F)cc43)CC2)CC1 (nonaromatic ring conformer: 125.57695661856597 kcal/mol)

>  <smiles>  (4) 
CN1CCN(C2CCC(C(=O)n3c(C(N)=O)cc4ccc(C(F)(F)F)cc43)CC2)CC1

>  <score_type>  (4) 
oracle

>  <origin>  (4) 
adg

>  <m_score__min__energy>  (4) 
-9.4800000000000004

>  <m_primary>  (4) 
energy

$$$$
5:0
     RDKit          3D

 40 41  0  0  0  0  0  0  0  0999 V2000
  137.3470  159.7000  131.1150 C   0  0  0  0  0  0  0  0  0  0  0  0
  138.6170  158.8460  131.0380 C   0  0  0  0  0  0  0  0  0  0  0  0
  139.8390  159.7100  130.7140 C   0  0  0  0  0  0  0  0  0  0  0  0
  138.8250  158.1090  132.3310 C   0  0  0  0  0  0  0  0  0  0  0  0
  138.3420  158.5730  133.3990 O   0  0  0  0  0  0  0  0  0  0  0  0
  139.5620  156.9190  132.3400 O   0  0  0  0  0  0  0  0  0  0  0  0
  140.5390  156.6240  133.3310 C   0  0  0  0  0  0  0  0  0  0  0  0
  141.7840  157.2080  132.9600 O   0  0  0  0  0  0  0  0  0  0  0  0
  142.7860  157.5050  133.8870 C   0  0  0  0  0  0  0  0  0  0  0  0
  142.9880  156.7430  134.8720 O   0  0  0  0  0  0  0  0  0  0  0  0
  143.5750  158.6960  133.7260 N   0  0  0  0  0  0  0  0  0  0  0  0
  143.1580  159.9890  133.8410 C   0  0  0  0  0  0  0  0  0  0  0  0
  141.7590  160.4430  133.9840 C   0  0  0  0  0  0  0  0  0  0  0  0
  140.7310  159.5370  134.3770 N   0  0  0  0  0  0  0  0  0  0  0  0
  141.4580  161.6340  133.7060 O   0  0  0  0  0  0  0  0  0  0  0  0
  144.2390  160.8620  133.7310 C   0  0  0  0  0  0  0  0  0  0  0  0
  145.3380  160.0590  133.5330 C   0  0  0  0  0  0  0  0  0  0  0  0
  146.6780  160.3990  133.3860 C   0  0  0  0  0  0  0  0  0  0  0  0
  147.6100  159.3590  133.2380 C   0  0  0  0  0  0  0  0  0  0  0  0
  147.1910  158.0040  133.2310 C   0  0  0  0  0  0  0  0  0  0  0  0
  148.2080  156.8960  133.1360 C   0  0  0  0  0  0  0  0  0  0  0  0
  149.3790  157.3990  132.6010 F   0  0  0  0  0  0  0  0  0  0  0  0
  147.7450  155.8740  132.3260 F   0  0  0  0  0  0  0  0  0  0  0  0
  148.4750  156.3680  134.3880 F   0  0  0  0  0  0  0  0  0  0  0  0
  145.8210  157.6990  133.4090 C   0  0  0  0  0  0  0  0  0  0  0  0
  144.9110  158.7560  133.5340 C   0  0  0  0  0  0  0  0  0  0  0  0
  137.0864  159.8753  132.1692 H   0  0  0  0  0  0  0  0  0  0  0  0
  137.5227  160.6642  130.6155 H   0  0  0  0  0  0  0  0  0  0  0  0
  136.5203  159.1736  130.6155 H   0  0  0  0  0  0  0  0  0  0  0  0
  138.4921  158.1136  130.2268 H   0  0  0  0  0  0  0  0  0  0  0  0
  140.3108  160.0436  131.6500 H   0  0  0  0  0  0  0  0  0  0  0  0
  140.5605  159.1202  130.1296 H   0  0  0  0  0  0  0  0  0  0  0  0
  139.5235  160.5869  130.1296 H   0  0  0  0  0  0  0  0  0  0  0  0
  140.2153  157.0349  134.2986 H   0  0  0  0  0  0  0  0  0  0  0  0
  140.6567  155.5336  133.4162 H   0  0  0  0  0  0  0  0  0  0  0  0
  140.4650  158.7310  133.7720 H   0  0  0  0  0  0  0  0  0  0  0  0
  144.2177  161.9602  133.7900 H   0  0  0  0  0  0  0  0  0  0  0  0
  146.9986  161.4512  133.3856 H   0  0  0  0  0  0  0  0  0  0  0  0
  148.6779  159.5981  133.1262 H   0  0  0  0  0  0  0  0  0  0  0  0
  145.4782  156.6545  133.4483 H   0  0  0  0  0  0  0  0  0  0  0  0
  1  2  1  0
  2  3  1  0
  2  4  1  0
  4  5  2  0
  4  6  1  0
  6  7  1  0
  7  8  1  0
  8  9  1  0
  9 10  2  0
  9 11  1  0
 11 12  1  0
 12 13  1  0
 13 14  1  0
 13 15  2  0
 12 16  2  0
 16 17  1  0
 17 18  2  0
 18 19  1  0
 19 20  2  0
 20 21  1  0
 21 22  1  0
 21 23  1  0
 21 24  1  0
 20 25  1  0
 25 26  2  0
 26 11  1  0
 26 17  1  0
  1 27  1  0
  1 28  1  0
  1 29  1  0
  2 30  1  0
  3 31  1  0
  3 32  1  0
  3 33  1  0
  7 34  1  0
  7 35  1  0
 14 36  1  0
 16 37  1  0
 18 38  1  0
 19 39  1  0
 25 40  1  0
M  CHG  1  14  -1
M  END
>  <UniqueID>  (5) 
5

>  <SMILES>  (5) 
CC(C)C(=O)OCOC(=O)n1c(C([NH-])=O)cc2ccc(C(F)(F)F)cc21

>  <Energy>  (5) 
70.68145418219535

>  <Genealogy>  (5) 
CC(C)C(=O)OCOC(=O)n1c(C([NH-])=O)cc2ccc(C(F)(F)F)cc21 (protonated)
CC(C)C(=O)OCOC(=O)n1c(C([NH-])=O)cc2ccc(C(F)(F)F)cc21 (3D coordinates assigned)
CC(C)C(=O)OCOC(=O)n1c(C([NH-])=O)cc2ccc(C(F)(F)F)cc21 (optimized conformer: 70.68145418219535 kcal/mol)

>  <smiles>  (5) 
CC(C)C(=O)OCOC(=O)n1c(C(N)=O)cc2ccc(C(F)(F)F)cc21

>  <score_type>  (5) 
oracle

>  <origin>  (5) 
adg

>  <m_score__min__energy>  (5) 
-6.29

>  <m_primary>  (5) 
energy

$$$$
6:0
     RDKit          3D

 54 56  0  0  0  0  0  0  0  0999 V2000
  139.6730  150.3280  130.3770 C   0  0  0  0  0  0  0  0  0  0  0  0
  140.1060  149.3650  131.3960 N   0  0  0  0  0  0  0  0  0  0  0  0
  139.8990  147.9300  131.1850 C   0  0  0  0  0  0  0  0  0  0  0  0
  140.5890  149.8230  132.6750 C   0  0  0  0  0  0  0  0  0  0  0  0
  140.3850  149.1210  133.7030 O   0  0  0  0  0  0  0  0  0  0  0  0
  141.3140  151.1030  132.8220 C   0  0  0  0  0  0  0  0  0  0  0  0
  140.6140  152.3110  132.9640 C   0  0  0  0  0  0  0  0  0  0  0  0
  141.3040  153.5190  133.0860 C   0  0  0  0  0  0  0  0  0  0  0  0
  142.7100  153.5440  133.0560 C   0  0  0  0  0  0  0  0  0  0  0  0
  143.4450  154.8290  133.1830 C   0  0  0  0  0  0  0  0  0  0  0  0
  144.8590  154.8620  133.0570 C   0  0  0  0  0  0  0  0  0  0  0  0
  145.5620  156.0740  133.1650 C   0  0  0  0  0  0  0  0  0  0  0  0
  144.8320  157.2340  133.4060 C   0  0  0  0  0  0  0  0  0  0  0  0
  145.2560  158.5370  133.5310 C   0  0  0  0  0  0  0  0  0  0  0  0
  144.1010  159.2810  133.7580 C   0  0  0  0  0  0  0  0  0  0  0  0
  144.1090  160.7320  134.0370 C   0  0  0  0  0  0  0  0  0  0  0  0
  142.9790  161.5450  133.7310 N   0  0  0  0  0  0  0  0  0  0  0  0
  145.1100  161.2540  134.5980 O   0  0  0  0  0  0  0  0  0  0  0  0
  143.0040  158.4700  133.7630 N   0  0  0  0  0  0  0  0  0  0  0  0
  141.6250  158.8480  133.8810 C   0  0  0  0  0  0  0  0  0  0  0  0
  141.2480  159.5370  134.8670 O   0  0  0  0  0  0  0  0  0  0  0  0
  140.7200  158.4670  132.8800 O   0  0  0  0  0  0  0  0  0  0  0  0
  139.4510  157.8290  133.0770 C   0  0  0  0  0  0  0  0  0  0  0  0
  138.3390  158.5880  132.3290 C   0  0  0  0  0  0  0  0  0  0  0  0
  139.5090  156.3570  132.6220 C   0  0  0  0  0  0  0  0  0  0  0  0
  139.1540  157.8700  134.5840 C   0  0  0  0  0  0  0  0  0  0  0  0
  143.4700  157.2200  133.5490 C   0  0  0  0  0  0  0  0  0  0  0  0
  142.7410  156.0320  133.4280 C   0  0  0  0  0  0  0  0  0  0  0  0
  143.4080  152.3340  132.8920 C   0  0  0  0  0  0  0  0  0  0  0  0
  142.7150  151.1260  132.7700 C   0  0  0  0  0  0  0  0  0  0  0  0
  139.2695  151.2255  130.8686 H   0  0  0  0  0  0  0  0  0  0  0  0
  140.5316  150.6085  129.7492 H   0  0  0  0  0  0  0  0  0  0  0  0
  138.8933  149.8719  129.7492 H   0  0  0  0  0  0  0  0  0  0  0  0
  139.8259  147.4230  132.1585 H   0  0  0  0  0  0  0  0  0  0  0  0
  138.9689  147.7730  130.6191 H   0  0  0  0  0  0  0  0  0  0  0  0
  140.7468  147.5165  130.6191 H   0  0  0  0  0  0  0  0  0  0  0  0
  139.5141  152.3063  132.9793 H   0  0  0  0  0  0  0  0  0  0  0  0
  140.7438  154.4579  133.2064 H   0  0  0  0  0  0  0  0  0  0  0  0
  145.4104  153.9282  132.8728 H   0  0  0  0  0  0  0  0  0  0  0  0
  146.6567  156.1049  133.0621 H   0  0  0  0  0  0  0  0  0  0  0  0
  146.2882  158.9115  133.4655 H   0  0  0  0  0  0  0  0  0  0  0  0
  142.0170  161.2590  134.0210 H   0  0  0  0  0  0  0  0  0  0  0  0
  137.6583  159.0526  133.0575 H   0  0  0  0  0  0  0  0  0  0  0  0
  138.7886  159.3685  131.6976 H   0  0  0  0  0  0  0  0  0  0  0  0
  137.7759  157.8849  131.6976 H   0  0  0  0  0  0  0  0  0  0  0  0
  139.5348  155.7011  133.5047 H   0  0  0  0  0  0  0  0  0  0  0  0
  138.6193  156.1245  132.0183 H   0  0  0  0  0  0  0  0  0  0  0  0
  140.4142  156.1952  132.0183 H   0  0  0  0  0  0  0  0  0  0  0  0
  140.0907  157.7407  135.1460 H   0  0  0  0  0  0  0  0  0  0  0  0
  138.7022  158.8390  134.8424 H   0  0  0  0  0  0  0  0  0  0  0  0
  138.4565  157.0596  134.8424 H   0  0  0  0  0  0  0  0  0  0  0  0
  141.6450  156.0330  133.5212 H   0  0  0  0  0  0  0  0  0  0  0  0
  144.5075  152.3382  132.8595 H   0  0  0  0  0  0  0  0  0  0  0  0
  143.2723  150.1877  132.6324 H   0  0  0  0  0  0  0  0  0  0  0  0
  1  2  1  0
  2  3  1  0
  2  4  1  0
  4  5  2  0
  4  6  1  0
  6  7  2  0
  7  8  1  0
  8  9  2  0
  9 10  1  0
 10 11  2  0
 11 12  1  0
 12 13  2  0
 13 14  1  0
 14 15  2  0
 15 16  1  0
 16 17  1  0
 16 18  2  0
 15 19  1  0
 19 20  1  0
 20 21  2  0
 20 22  1  0
 22 23  1  0
 23 24  1  0
 23 25  1  0
 23 26  1  0
 19 27  1  0
 27 28  2  0
  9 29  1  0
 29 30  2  0
 30  6  1  0
 28 10  1  0
 27 13  1  0
  1 31  1  0
  1 32  1  0
  1 33  1  0
  3 34  1  0
  3 35  1  0
  3 36  1  0
  7 37  1  0
  8 38  1  0
 11 39  1  0
 12 40  1  0
 14 41  1  0
 17 42  1  0
 24 43  1  0
 24 44  1  0
 24 45  1  0
 25 46  1  0
 25 47  1  0
 25 48  1  0
 26 49  1  0
 26 50  1  0
 26 51  1  0
 28 52  1  0
 29 53  1  0
 30 54  1  0
M  CHG  1  17  -1
M  END
>  <UniqueID>  (6) 
6

>  <SMILES>  (6) 
CN(C)C(=O)c1ccc(-c2ccc3cc(C([NH-])=O)n(C(=O)OC(C)(C)C)c3c2)cc1

>  <Energy>  (6) 
98.2625841917163

>  <Genealogy>  (6) 
CN(C)C(=O)c1ccc(-c2ccc3cc(C([NH-])=O)n(C(=O)OC(C)(C)C)c3c2)cc1 (protonated)
CN(C)C(=O)c1ccc(-c2ccc3cc(C([NH-])=O)n(C(=O)OC(C)(C)C)c3c2)cc1 (3D coordinates assigned)
CN(C)C(=O)c1ccc(-c2ccc3cc(C([NH-])=O)n(C(=O)OC(C)(C)C)c3c2)cc1 (optimized conformer: 98.2625841917163 kcal/mol)

>  <smiles>  (6) 
CN(C)C(=O)c1ccc(-c2ccc3cc(C(N)=O)n(C(=O)OC(C)(C)C)c3c2)cc1

>  <score_type>  (6) 
oracle

>  <origin>  (6) 
adg

>  <m_score__min__energy>  (6) 
-9.3200000000000003

>  <m_primary>  (6) 
energy

$$$$
7:0
     RDKit          3D

 42 43  0  0  0  0  0  0  0  0999 V2000
  148.2010  152.8440  132.8490 C   0  0  0  0  0  0  0  0  0  0  0  0
  148.3400  153.9330  133.7510 O   0  0  0  0  0  0  0  0  0  0  0  0
  147.2460  154.5090  134.4040 C   0  0  0  0  0  0  0  0  0  0  0  0
  146.6420  153.8850  135.3180 O   0  0  0  0  0  0  0  0  0  0  0  0
  146.7820  155.8760  134.0070 C   0  0  0  0  0  0  0  0  0  0  0  0
  145.4060  155.8480  133.3270 C   0  0  0  0  0  0  0  0  0  0  0  0
  145.2900  154.7640  132.2520 C   0  0  0  0  0  0  0  0  0  0  0  0
  144.0090  154.1440  132.3030 O   0  0  0  0  0  0  0  0  0  0  0  0
  143.7080  153.1240  133.2140 C   0  0  0  0  0  0  0  0  0  0  0  0
  144.4060  152.0750  133.2520 O   0  0  0  0  0  0  0  0  0  0  0  0
  142.5740  153.2860  134.1810 C   0  0  0  0  0  0  0  0  0  0  0  0
  141.6650  154.4180  133.7820 C   0  0  0  0  0  0  0  0  0  0  0  0
  140.3440  154.1480  133.3440 C   0  0  0  0  0  0  0  0  0  0  0  0
  139.5000  155.1920  132.9320 C   0  0  0  0  0  0  0  0  0  0  0  0
  139.9960  156.4900  132.9800 C   0  0  0  0  0  0  0  0  0  0  0  0
  139.4070  157.6770  132.6090 C   0  0  0  0  0  0  0  0  0  0  0  0
  140.3650  158.6590  132.8570 C   0  0  0  0  0  0  0  0  0  0  0  0
  140.1110  160.1030  132.6770 C   0  0  0  0  0  0  0  0  0  0  0  0
  139.0310  160.5630  131.8710 N   0  0  0  0  0  0  0  0  0  0  0  0
  140.8890  160.9430  133.2020 O   0  0  0  0  0  0  0  0  0  0  0  0
  141.5040  158.1000  133.3560 N   0  0  0  0  0  0  0  0  0  0  0  0
  142.7500  158.7570  133.6410 C   0  0  0  0  0  0  0  0  0  0  0  0
  142.8710  159.4700  134.6720 O   0  0  0  0  0  0  0  0  0  0  0  0
  143.8410  158.5860  132.8000 O   0  0  0  0  0  0  0  0  0  0  0  0
  141.2610  156.7730  133.4280 C   0  0  0  0  0  0  0  0  0  0  0  0
  142.1280  155.7510  133.8320 C   0  0  0  0  0  0  0  0  0  0  0  0
  148.0818  151.9099  133.4175 H   0  0  0  0  0  0  0  0  0  0  0  0
  147.3159  153.0032  132.2156 H   0  0  0  0  0  0  0  0  0  0  0  0
  149.0977  152.7758  132.2156 H   0  0  0  0  0  0  0  0  0  0  0  0
  146.7189  156.5040  134.9079 H   0  0  0  0  0  0  0  0  0  0  0  0
  147.5065  156.2816  133.2854 H   0  0  0  0  0  0  0  0  0  0  0  0
  144.6398  155.6636  134.0944 H   0  0  0  0  0  0  0  0  0  0  0  0
  145.2655  156.8193  132.8302 H   0  0  0  0  0  0  0  0  0  0  0  0
  145.4317  155.2205  131.2613 H   0  0  0  0  0  0  0  0  0  0  0  0
  146.0613  154.0008  132.4326 H   0  0  0  0  0  0  0  0  0  0  0  0
  141.9919  152.3530  134.2085 H   0  0  0  0  0  0  0  0  0  0  0  0
  142.9952  153.5146  135.1711 H   0  0  0  0  0  0  0  0  0  0  0  0
  139.9768  153.1112  133.3267 H   0  0  0  0  0  0  0  0  0  0  0  0
  138.4772  154.9890  132.5818 H   0  0  0  0  0  0  0  0  0  0  0  0
  138.3949  157.8206  132.2029 H   0  0  0  0  0  0  0  0  0  0  0  0
  138.3300  161.2390  132.2460 H   0  0  0  0  0  0  0  0  0  0  0  0
  143.1458  155.9809  134.1802 H   0  0  0  0  0  0  0  0  0  0  0  0
  1  2  1  0
  2  3  1  0
  3  4  2  0
  3  5  1  0
  5  6  1  0
  6  7  1  0
  7  8  1  0
  8  9  1  0
  9 10  2  0
  9 11  1  0
 11 12  1  0
 12 13  2  0
 13 14  1  0
 14 15  2  0
 15 16  1  0
 16 17  2  0
 17 18  1  0
 18 19  1  0
 18 20  2  0
 17 21  1  0
 21 22  1  0
 22 23  2  0
 22 24  1  0
 21 25  1  0
 25 26  2  0
 26 12  1  0
 25 15  1  0
  1 27  1  0
  1 28  1  0
  1 29  1  0
  5 30  1  0
  5 31  1  0
  6 32  1  0
  6 33  1  0
  7 34  1  0
  7 35  1  0
 11 36  1  0
 11 37  1  0
 13 38  1  0
 14 39  1  0
 16 40  1  0
 19 41  1  0
 26 42  1  0
M  CHG  2  19  -1  24  -1
M  END
>  <UniqueID>  (7) 
7

>  <SMILES>  (7) 
COC(=O)CCCOC(=O)Cc1ccc2cc(C([NH-])=O)n(C(=O)[O-])c2c1

>  <Energy>  (7) 
70.06767226137116

>  <Genealogy>  (7) 
COC(=O)CCCOC(=O)Cc1ccc2cc(C([NH-])=O)n(C(=O)[O-])c2c1 (protonated)
COC(=O)CCCOC(=O)Cc1ccc2cc(C([NH-])=O)n(C(=O)[O-])c2c1 (3D coordinates assigned)
COC(=O)CCCOC(=O)Cc1ccc2cc(C([NH-])=O)n(C(=O)[O-])c2c1 (optimized conformer: 70.06767226137116 kcal/mol)

>  <smiles>  (7) 
COC(=O)CCCOC(=O)Cc1ccc2cc(C(N)=O)n(C(=O)O)c2c1

>  <score_type>  (7) 
oracle

>  <origin>  (7) 
adg

>  <m_score__min__energy>  (7) 
-6.2800000000000002

>  <m_primary>  (7) 
energy

$$$$
8:0
     RDKit          3D

 37 38  0  0  0  0  0  0  0  0999 V2000
  138.8420  158.6810  131.5270 C   0  0  0  0  0  0  0  0  0  0  0  0
  139.4910  158.8930  132.8630 C   0  0  0  0  0  0  0  0  0  0  0  0
  138.9880  158.3890  133.8560 O   0  0  0  0  0  0  0  0  0  0  0  0
  140.7380  159.7220  133.0040 C   0  0  0  0  0  0  0  0  0  0  0  0
  141.9260  158.8320  133.2410 C   0  0  0  0  0  0  0  0  0  0  0  0
  141.7580  157.4240  133.2950 C   0  0  0  0  0  0  0  0  0  0  0  0
  142.8630  156.5790  133.4910 C   0  0  0  0  0  0  0  0  0  0  0  0
  144.1200  157.1660  133.6170 C   0  0  0  0  0  0  0  0  0  0  0  0
  145.3530  156.5870  133.8200 C   0  0  0  0  0  0  0  0  0  0  0  0
  146.2560  157.6500  133.8600 C   0  0  0  0  0  0  0  0  0  0  0  0
  147.7240  157.4910  133.9680 C   0  0  0  0  0  0  0  0  0  0  0  0
  148.5800  157.8290  132.8760 N   0  0  0  0  0  0  0  0  0  0  0  0
  148.2360  157.0730  135.0410 O   0  0  0  0  0  0  0  0  0  0  0  0
  145.6030  158.8340  133.6930 N   0  0  0  0  0  0  0  0  0  0  0  0
  146.1570  160.1600  133.7180 C   0  0  0  0  0  0  0  0  0  0  0  0
  145.6290  161.0430  134.4450 O   0  0  0  0  0  0  0  0  0  0  0  0
  147.3980  160.4870  132.9480 C   0  0  0  0  0  0  0  0  0  0  0  0
  147.2450  160.0340  131.6250 O   0  0  0  0  0  0  0  0  0  0  0  0
  148.7770  159.9440  130.9060 S   0  0  0  0  0  0  0  0  0  0  0  0
  148.8410  158.7810  129.9550 O   0  0  0  0  0  0  0  0  0  0  0  0
  149.0850  161.2180  130.1700 O   0  0  0  0  0  0  0  0  0  0  0  0
  149.9250  159.7240  132.1120 O   0  0  0  0  0  0  0  0  0  0  0  0
  144.3000  158.5210  133.5420 C   0  0  0  0  0  0  0  0  0  0  0  0
  143.2180  159.3890  133.3590 C   0  0  0  0  0  0  0  0  0  0  0  0
  137.8056  158.3424  131.6724 H   0  0  0  0  0  0  0  0  0  0  0  0
  138.8434  159.6263  130.9645 H   0  0  0  0  0  0  0  0  0  0  0  0
  139.4012  157.9188  130.9645 H   0  0  0  0  0  0  0  0  0  0  0  0
  140.8957  160.3016  132.0825 H   0  0  0  0  0  0  0  0  0  0  0  0
  140.6224  160.4035  133.8596 H   0  0  0  0  0  0  0  0  0  0  0  0
  140.7534  156.9903  133.1824 H   0  0  0  0  0  0  0  0  0  0  0  0
  142.7394  155.4872  133.5434 H   0  0  0  0  0  0  0  0  0  0  0  0
  145.5779  155.5156  133.9276 H   0  0  0  0  0  0  0  0  0  0  0  0
  149.6160  157.7460  132.9780 H   0  0  0  0  0  0  0  0  0  0  0  0
  148.1940  158.1190  131.9510 H   0  0  0  0  0  0  0  0  0  0  0  0
  147.5578  161.5753  132.9497 H   0  0  0  0  0  0  0  0  0  0  0  0
  148.2656  159.9957  133.4126 H   0  0  0  0  0  0  0  0  0  0  0  0
  143.3700  160.4773  133.3083 H   0  0  0  0  0  0  0  0  0  0  0  0
  1  2  1  0
  2  3  2  0
  2  4  1  0
  4  5  1  0
  5  6  2  0
  6  7  1  0
  7  8  2  0
  8  9  1  0
  9 10  2  0
 10 11  1  0
 11 12  1  0
 11 13  2  0
 10 14  1  0
 14 15  1  0
 15 16  2  0
 15 17  1  0
 17 18  1  0
 18 19  1  0
 19 20  2  0
 19 21  2  0
 19 22  1  0
 14 23  1  0
 23 24  2  0
 24  5  1  0
 23  8  1  0
  1 25  1  0
  1 26  1  0
  1 27  1  0
  4 28  1  0
  4 29  1  0
  6 30  1  0
  7 31  1  0
  9 32  1  0
 12 33  1  0
 12 34  1  0
 17 35  1  0
 17 36  1  0
 24 37  1  0
M  CHG  1  22  -1
M  END
>  <UniqueID>  (8) 
8

>  <SMILES>  (8) 
CC(=O)Cc1ccc2cc(C(N)=O)n(C(=O)COS(=O)(=O)[O-])c2c1

>  <Energy>  (8) 
72.06517499813323

>  <Genealogy>  (8) 
CC(=O)Cc1ccc2cc(C(N)=O)n(C(=O)COS(=O)(=O)[O-])c2c1 (protonated)
CC(=O)Cc1ccc2cc(C(N)=O)n(C(=O)COS(=O)(=O)[O-])c2c1 (3D coordinates assigned)
CC(=O)Cc1ccc2cc(C(N)=O)n(C(=O)COS(=O)(=O)[O-])c2c1 (optimized conformer: 72.06517499813323 kcal/mol)

>  <smiles>  (8) 
CC(=O)Cc1ccc2cc(C(N)=O)n(C(=O)COS(=O)(=O)O)c2c1

>  <score_type>  (8) 
oracle

>  <origin>  (8) 
adg

>  <m_score__min__energy>  (8) 
-7.7699999999999996

>  <m_primary>  (8) 
energy

$$$$
9:0
     RDKit          3D

 42 44  0  0  0  0  0  0  0  0999 V2000
  143.9320  155.2680  135.1750 C   0  0  0  0  0  0  0  0  0  0  0  0
  145.1620  154.7760  134.4280 C   0  0  0  0  0  0  0  0  0  0  0  0
  146.1120  155.8300  134.3330 O   0  0  0  0  0  0  0  0  0  0  0  0
  146.3230  156.5550  133.1570 C   0  0  0  0  0  0  0  0  0  0  0  0
  146.6140  155.9560  132.0860 O   0  0  0  0  0  0  0  0  0  0  0  0
  146.2170  157.9890  133.1720 N   0  0  0  0  0  0  0  0  0  0  0  0
  147.2290  158.8970  133.0690 C   0  0  0  0  0  0  0  0  0  0  0  0
  148.6370  158.5910  132.7480 C   0  0  0  0  0  0  0  0  0  0  0  0
  148.9780  157.5270  131.8570 N   0  0  0  0  0  0  0  0  0  0  0  0
  149.5520  159.3140  133.2240 O   0  0  0  0  0  0  0  0  0  0  0  0
  146.7510  160.1900  133.2580 C   0  0  0  0  0  0  0  0  0  0  0  0
  145.3990  160.0510  133.4690 C   0  0  0  0  0  0  0  0  0  0  0  0
  144.4310  161.0180  133.7200 C   0  0  0  0  0  0  0  0  0  0  0  0
  143.1110  160.5880  133.9360 C   0  0  0  0  0  0  0  0  0  0  0  0
  142.7890  159.2070  133.9130 C   0  0  0  0  0  0  0  0  0  0  0  0
  141.3940  158.7700  134.1450 C   0  0  0  0  0  0  0  0  0  0  0  0
  140.5780  158.5060  133.0310 C   0  0  0  0  0  0  0  0  0  0  0  0
  139.2660  158.0610  133.2010 C   0  0  0  0  0  0  0  0  0  0  0  0
  138.7510  157.8760  134.4840 C   0  0  0  0  0  0  0  0  0  0  0  0
  139.5420  158.1460  135.6020 C   0  0  0  0  0  0  0  0  0  0  0  0
  140.8600  158.6130  135.4500 C   0  0  0  0  0  0  0  0  0  0  0  0
  141.6690  158.9150  136.6850 C   0  0  0  0  0  0  0  0  0  0  0  0
  143.7970  158.2560  133.6430 C   0  0  0  0  0  0  0  0  0  0  0  0
  145.1010  158.7140  133.4130 C   0  0  0  0  0  0  0  0  0  0  0  0
  144.1084  155.1974  136.2585 H   0  0  0  0  0  0  0  0  0  0  0  0
  143.7325  156.3151  134.9034 H   0  0  0  0  0  0  0  0  0  0  0  0
  143.0654  154.6473  134.9034 H   0  0  0  0  0  0  0  0  0  0  0  0
  145.6068  153.9294  134.9715 H   0  0  0  0  0  0  0  0  0  0  0  0
  144.8720  154.4515  133.4177 H   0  0  0  0  0  0  0  0  0  0  0  0
  149.9810  157.3000  131.6720 H   0  0  0  0  0  0  0  0  0  0  0  0
  148.2440  157.0200  131.3160 H   0  0  0  0  0  0  0  0  0  0  0  0
  147.3310  161.1245  133.2421 H   0  0  0  0  0  0  0  0  0  0  0  0
  144.6910  162.0865  133.7485 H   0  0  0  0  0  0  0  0  0  0  0  0
  142.3202  161.3290  134.1246 H   0  0  0  0  0  0  0  0  0  0  0  0
  140.9771  158.6514  132.0163 H   0  0  0  0  0  0  0  0  0  0  0  0
  138.6373  157.8559  132.3220 H   0  0  0  0  0  0  0  0  0  0  0  0
  137.7196  157.5167  134.6150 H   0  0  0  0  0  0  0  0  0  0  0  0
  139.1310  157.9922  136.6107 H   0  0  0  0  0  0  0  0  0  0  0  0
  141.0696  158.6912  137.5798 H   0  0  0  0  0  0  0  0  0  0  0  0
  142.5781  158.2957  136.6884 H   0  0  0  0  0  0  0  0  0  0  0  0
  141.9499  159.9785  136.6884 H   0  0  0  0  0  0  0  0  0  0  0  0
  143.5642  157.1813  133.6139 H   0  0  0  0  0  0  0  0  0  0  0  0
  1  2  1  0
  2  3  1  0
  3  4  1  0
  4  5  2  0
  4  6  1  0
  6  7  1  0
  7  8  1  0
  8  9  1  0
  8 10  2  0
  7 11  2  0
 11 12  1  0
 12 13  2  0
 13 14  1  0
 14 15  2  0
 15 16  1  0
 16 17  2  0
 17 18  1  0
 18 19  2  0
 19 20  1  0
 20 21  2  0
 21 22  1  0
 15 23  1  0
 23 24  2  0
 24  6  1  0
 24 12  1  0
 21 16  1  0
  1 25  1  0
  1 26  1  0
  1 27  1  0
  2 28  1  0
  2 29  1  0
  9 30  1  0
  9 31  1  0
 11 32  1  0
 13 33  1  0
 14 34  1  0
 17 35  1  0
 18 36  1  0
 19 37  1  0
 20 38  1  0
 22 39  1  0
 22 40  1  0
 22 41  1  0
 23 42  1  0
M  END
>  <UniqueID>  (9) 
9

>  <SMILES>  (9) 
CCOC(=O)n1c(C(N)=O)cc2ccc(-c3ccccc3C)cc21

>  <Energy>  (9) 
85.57641612149139

>  <Genealogy>  (9) 
CCOC(=O)n1c(C(N)=O)cc2ccc(-c3ccccc3C)cc21 (3D coordinates assigned)
CCOC(=O)n1c(C(N)=O)cc2ccc(-c3ccccc3C)cc21 (optimized conformer: 85.57641612149139 kcal/mol)

>  <smiles>  (9) 
CCOC(=O)n1c(C(N)=O)cc2ccc(-c3ccccc3C)cc21

>  <score_type>  (9) 
oracle

>  <origin>  (9) 
adg

>  <m_score__min__energy>  (9) 
-8.1899999999999995

>  <m_primary>  (9) 
energy

$$$$
10:0
     RDKit          3D

 44 46  0  0  0  0  0  0  0  0999 V2000
  138.1420  159.0440  131.4960 C   0  0  0  0  0  0  0  0  0  0  0  0
  138.5270  158.8230  132.8360 O   0  0  0  0  0  0  0  0  0  0  0  0
  139.9400  158.7460  132.9470 C   0  0  1  0  0  0  0  0  0  0  0  0
  140.3450  159.1310  134.3840 C   0  0  0  0  0  0  0  0  0  0  0  0
  141.6530  158.4530  134.8440 C   0  0  0  0  0  0  0  0  0  0  0  0
  142.5450  158.1640  133.6990 N   0  0  1  0  0  0  0  0  0  0  0  0
  143.8530  157.6990  134.1190 C   0  0  0  0  0  0  0  0  0  0  0  0
  143.9380  156.7120  134.8990 O   0  0  0  0  0  0  0  0  0  0  0  0
  145.0640  158.3070  133.6400 N   0  0  0  0  0  0  0  0  0  0  0  0
  145.3410  159.6310  133.5350 C   0  0  0  0  0  0  0  0  0  0  0  0
  144.4020  160.7120  133.8390 C   0  0  0  0  0  0  0  0  0  0  0  0
  143.0640  160.6470  133.3560 N   0  0  0  0  0  0  0  0  0  0  0  0
  144.7710  161.6860  134.5470 O   0  0  0  0  0  0  0  0  0  0  0  0
  146.6640  159.8320  133.1550 C   0  0  0  0  0  0  0  0  0  0  0  0
  147.1970  158.5670  133.0320 C   0  0  0  0  0  0  0  0  0  0  0  0
  148.4840  158.1620  132.6880 C   0  0  0  0  0  0  0  0  0  0  0  0
  148.7530  156.7810  132.6600 C   0  0  0  0  0  0  0  0  0  0  0  0
  147.7430  155.8390  132.9790 C   0  0  0  0  0  0  0  0  0  0  0  0
  148.0510  154.3700  132.9380 C   0  0  0  0  0  0  0  0  0  0  0  0
  148.4930  153.9530  134.1800 F   0  0  0  0  0  0  0  0  0  0  0  0
  146.9120  153.6640  132.5970 F   0  0  0  0  0  0  0  0  0  0  0  0
  146.4490  156.2890  133.3240 C   0  0  0  0  0  0  0  0  0  0  0  0
  146.2110  157.6660  133.3390 C   0  0  0  0  0  0  0  0  0  0  0  0
  141.9430  157.1900  132.7530 C   0  0  0  0  0  0  0  0  0  0  0  0
  140.4090  157.3190  132.6320 C   0  0  0  0  0  0  0  0  0  0  0  0
  137.1882  159.5915  131.4741 H   0  0  0  0  0  0  0  0  0  0  0  0
  138.9160  159.6353  130.9849 H   0  0  0  0  0  0  0  0  0  0  0  0
  138.0217  158.0774  130.9849 H   0  0  0  0  0  0  0  0  0  0  0  0
  140.4112  159.4362  132.2317 H   0  0  0  0  0  0  0  0  0  0  0  0
  139.5365  158.8331  135.0678 H   0  0  0  0  0  0  0  0  0  0  0  0
  140.5151  160.2177  134.3980 H   0  0  0  0  0  0  0  0  0  0  0  0
  141.4069  157.5092  135.3526 H   0  0  0  0  0  0  0  0  0  0  0  0
  142.1769  159.1395  135.5253 H   0  0  0  0  0  0  0  0  0  0  0  0
  142.7020  159.0660  133.1890 H   0  0  0  0  0  0  0  0  0  0  0  0
  142.8350  160.1220  132.4830 H   0  0  0  0  0  0  0  0  0  0  0  0
  147.1741  160.7923  132.9887 H   0  0  0  0  0  0  0  0  0  0  0  0
  149.2651  158.8977  132.4460 H   0  0  0  0  0  0  0  0  0  0  0  0
  149.7587  156.4285  132.3874 H   0  0  0  0  0  0  0  0  0  0  0  0
  148.8344  154.1864  132.1880 H   0  0  0  0  0  0  0  0  0  0  0  0
  145.6505  155.5749  133.5740 H   0  0  0  0  0  0  0  0  0  0  0  0
  142.1809  156.1739  133.1007 H   0  0  0  0  0  0  0  0  0  0  0  0
  142.3655  157.3996  131.7592 H   0  0  0  0  0  0  0  0  0  0  0  0
  139.9345  156.6222  133.3386 H   0  0  0  0  0  0  0  0  0  0  0  0
  140.1223  157.0811  131.5970 H   0  0  0  0  0  0  0  0  0  0  0  0
  1  2  1  0
  2  3  1  0
  3  4  1  0
  4  5  1  0
  5  6  1  0
  6  7  1  0
  7  8  2  0
  7  9  1  0
  9 10  1  0
 10 11  1  0
 11 12  1  0
 11 13  2  0
 10 14  2  0
 14 15  1  0
 15 16  2  0
 16 17  1  0
 17 18  2  0
 18 19  1  0
 19 20  1  0
 19 21  1  0
 18 22  1  0
 22 23  2  0
  6 24  1  0
 24 25  1  0
 25  3  1  0
 23  9  1  0
 23 15  1  0
  1 26  1  0
  1 27  1  0
  1 28  1  0
  3 29  1  6
  4 30  1  0
  4 31  1  0
  5 32  1  0
  5 33  1  0
  6 34  1  6
 12 35  1  0
 14 36  1  0
 16 37  1  0
 17 38  1  0
 19 39  1  0
 22 40  1  0
 24 41  1  0
 24 42  1  0
 25 43  1  0
 25 44  1  0
M  CHG  2   6   1  12  -1
M  END
>  <UniqueID>  (10) 
10

>  <SMILES>  (10) 
COC1CC[NH+](C(=O)n2c(C([NH-])=O)cc3ccc(C(F)F)cc32)CC1

>  <Energy>  (10) 
103.0579527222034

>  <Genealogy>  (10) 
COC1CC[NH+](C(=O)n2c(C([NH-])=O)cc3ccc(C(F)F)cc32)CC1 (protonated)
COC1CC[NH+](C(=O)n2c(C([NH-])=O)cc3ccc(C(F)F)cc32)CC1 (3D coordinates assigned)
COC1CC[NH+](C(=O)n2c(C([NH-])=O)cc3ccc(C(F)F)cc32)CC1 (nonaromatic ring conformer: 103.0579527222034 kcal/mol)

>  <smiles>  (10) 
COC1CCN(C(=O)n2c(C(N)=O)cc3ccc(C(F)F)cc32)CC1

>  <score_type>  (10) 
oracle

>  <origin>  (10) 
adg

>  <m_score__min__energy>  (10) 
-6.4800000000000004

>  <m_primary>  (10) 
energy

$$$$
11:0
     RDKit          3D

 44 46  0  0  0  0  0  0  0  0999 V2000
  149.1810  151.6030  132.8830 C   0  0  0  0  0  0  0  0  0  0  0  0
  148.4840  152.9290  132.9530 C   0  0  0  0  0  0  0  0  0  0  0  0
  149.1690  154.1020  132.6150 C   0  0  0  0  0  0  0  0  0  0  0  0
  148.5210  155.3320  132.7180 C   0  0  0  0  0  0  0  0  0  0  0  0
  147.1940  155.3970  133.1690 C   0  0  0  0  0  0  0  0  0  0  0  0
  146.4920  156.7000  133.2860 C   0  0  0  0  0  0  0  0  0  0  0  0
  147.1920  157.9170  133.0640 C   0  0  0  0  0  0  0  0  0  0  0  0
  146.5390  159.1560  133.1820 C   0  0  0  0  0  0  0  0  0  0  0  0
  145.1900  159.1520  133.5190 C   0  0  0  0  0  0  0  0  0  0  0  0
  144.3210  160.2020  133.7220 C   0  0  0  0  0  0  0  0  0  0  0  0
  143.1020  159.6120  134.0540 C   0  0  0  0  0  0  0  0  0  0  0  0
  141.8600  160.3750  134.3030 C   0  0  0  0  0  0  0  0  0  0  0  0
  141.0420  160.0920  135.4360 N   0  0  0  0  0  0  0  0  0  0  0  0
  141.5020  161.2690  133.4910 O   0  0  0  0  0  0  0  0  0  0  0  0
  143.2170  158.2550  134.0570 N   0  0  0  0  0  0  0  0  0  0  0  0
  142.2270  157.2840  134.4190 C   0  0  0  0  0  0  0  0  0  0  0  0
  141.8540  157.1910  135.6190 O   0  0  0  0  0  0  0  0  0  0  0  0
  141.5440  156.4700  133.3610 C   0  0  0  0  0  0  0  0  0  0  0  0
  140.3080  157.2110  132.8400 C   0  0  0  0  0  0  0  0  0  0  0  0
  139.1290  157.1150  133.8120 C   0  0  0  0  0  0  0  0  0  0  0  0
  139.1600  158.1690  134.7360 O   0  0  0  0  0  0  0  0  0  0  0  0
  144.4970  157.9900  133.7260 C   0  0  0  0  0  0  0  0  0  0  0  0
  145.1190  156.7430  133.6260 C   0  0  0  0  0  0  0  0  0  0  0  0
  146.5490  154.1970  133.5150 C   0  0  0  0  0  0  0  0  0  0  0  0
  147.1990  153.0060  133.4070 N   0  0  0  0  0  0  0  0  0  0  0  0
  149.3739  151.2359  133.9018 H   0  0  0  0  0  0  0  0  0  0  0  0
  148.5451  150.8823  132.3479 H   0  0  0  0  0  0  0  0  0  0  0  0
  150.1352  151.7181  132.3479 H   0  0  0  0  0  0  0  0  0  0  0  0
  150.2124  154.0535  132.2702 H   0  0  0  0  0  0  0  0  0  0  0  0
  149.0523  156.2555  132.4445 H   0  0  0  0  0  0  0  0  0  0  0  0
  148.2586  157.8888  132.7964 H   0  0  0  0  0  0  0  0  0  0  0  0
  147.0784  160.0996  133.0130 H   0  0  0  0  0  0  0  0  0  0  0  0
  144.5419  161.2764  133.6397 H   0  0  0  0  0  0  0  0  0  0  0  0
  140.8480  159.1080  135.7260 H   0  0  0  0  0  0  0  0  0  0  0  0
  142.2418  156.2969  132.5285 H   0  0  0  0  0  0  0  0  0  0  0  0
  141.2306  155.5085  133.7938 H   0  0  0  0  0  0  0  0  0  0  0  0
  140.5640  158.2711  132.6960 H   0  0  0  0  0  0  0  0  0  0  0  0
  140.0055  156.7421  131.8920 H   0  0  0  0  0  0  0  0  0  0  0  0
  138.1882  157.1608  133.2438 H   0  0  0  0  0  0  0  0  0  0  0  0
  139.1991  156.1634  134.3593 H   0  0  0  0  0  0  0  0  0  0  0  0
  140.1120  158.3140  134.9780 H   0  0  0  0  0  0  0  0  0  0  0  0
  144.5547  155.8163  133.8073 H   0  0  0  0  0  0  0  0  0  0  0  0
  145.5102  154.2206  133.8761 H   0  0  0  0  0  0  0  0  0  0  0  0
  146.6900  152.1350  133.6780 H   0  0  0  0  0  0  0  0  0  0  0  0
  1  2  1  0
  2  3  2  0
  3  4  1  0
  4  5  2  0
  5  6  1  0
  6  7  2  0
  7  8  1  0
  8  9  2  0
  9 10  1  0
 10 11  2  0
 11 12  1  0
 12 13  1  0
 12 14  2  0
 11 15  1  0
 15 16  1  0
 16 17  2  0
 16 18  1  0
 18 19  1  0
 19 20  1  0
 20 21  1  0
 15 22  1  0
 22 23  2  0
  5 24  1  0
 24 25  2  0
 25  2  1  0
 23  6  1  0
 22  9  1  0
  1 26  1  0
  1 27  1  0
  1 28  1  0
  3 29  1  0
  4 30  1  0
  7 31  1  0
  8 32  1  0
 10 33  1  0
 13 34  1  0
 18 35  1  0
 18 36  1  0
 19 37  1  0
 19 38  1  0
 20 39  1  0
 20 40  1  0
 21 41  1  0
 23 42  1  0
 24 43  1  0
 25 44  1  0
M  CHG  2  13  -1  25   1
M  END
>  <UniqueID>  (11) 
11

>  <SMILES>  (11) 
Cc1ccc(-c2ccc3cc(C([NH-])=O)n(C(=O)CCCO)c3c2)c[nH+]1

>  <Energy>  (11) 
85.24781463327466

>  <Genealogy>  (11) 
Cc1ccc(-c2ccc3cc(C([NH-])=O)n(C(=O)CCCO)c3c2)c[nH+]1 (protonated)
Cc1ccc(-c2ccc3cc(C([NH-])=O)n(C(=O)CCCO)c3c2)c[nH+]1 (3D coordinates assigned)
Cc1ccc(-c2ccc3cc(C([NH-])=O)n(C(=O)CCCO)c3c2)c[nH+]1 (optimized conformer: 85.24781463327466 kcal/mol)

>  <smiles>  (11) 
Cc1ccc(-c2ccc3cc(C(N)=O)n(C(=O)CCCO)c3c2)cn1

>  <score_type>  (11) 
oracle

>  <origin>  (11) 
adg

>  <m_score__min__energy>  (11) 
-7.7599999999999998

>  <m_primary>  (11) 
energy

$$$$
12:0
     RDKit          3D

 39 41  0  0  0  0  0  0  0  0999 V2000
  142.3230  158.6680  133.2460 N   0  0  0  0  0  0  0  0  0  0  0  0
  142.3590  157.6610  134.2560 C   0  0  0  0  0  0  0  0  0  0  0  0
  142.3690  158.0040  135.4690 O   0  0  0  0  0  0  0  0  0  0  0  0
  142.3290  156.2250  133.9100 C   0  0  0  0  0  0  0  0  0  0  0  0
  143.4490  155.4000  133.9530 C   0  0  0  0  0  0  0  0  0  0  0  0
  142.9980  154.1570  133.5780 C   0  0  0  0  0  0  0  0  0  0  0  0
  143.6960  152.9640  133.4210 C   0  0  0  0  0  0  0  0  0  0  0  0
  142.9870  151.8400  132.9650 C   0  0  0  0  0  0  0  0  0  0  0  0
  141.6030  151.9280  132.6600 C   0  0  0  0  0  0  0  0  0  0  0  0
  140.8690  150.7370  132.1600 C   0  0  0  0  0  0  0  0  0  0  0  0
  139.4890  150.7840  131.9160 C   0  0  0  0  0  0  0  0  0  0  0  0
  138.8380  149.6820  131.4580 N   0  0  0  0  0  0  0  0  0  0  0  0
  139.5030  148.5190  131.2320 C   0  0  0  0  0  0  0  0  0  0  0  0
  138.7980  147.3760  130.7550 N   0  0  0  0  0  0  0  0  0  0  0  0
  140.8390  148.4470  131.4630 N   0  0  0  0  0  0  0  0  0  0  0  0
  141.5310  149.5240  131.9170 C   0  0  0  0  0  0  0  0  0  0  0  0
  140.9320  153.1610  132.8290 C   0  0  0  0  0  0  0  0  0  0  0  0
  141.6560  154.2570  133.3140 C   0  0  0  0  0  0  0  0  0  0  0  0
  141.2280  155.5230  133.5220 N   0  0  0  0  0  0  0  0  0  0  0  0
  139.9230  156.0520  133.2320 C   0  0  0  0  0  0  0  0  0  0  0  0
  139.1090  155.3650  132.5570 O   0  0  0  0  0  0  0  0  0  0  0  0
  139.5090  157.4080  133.7290 C   0  0  0  0  0  0  0  0  0  0  0  0
  138.7300  158.1260  132.7210 N   0  0  0  0  0  0  0  0  0  0  0  0
  139.2300  159.3100  132.0930 C   0  0  0  0  0  0  0  0  0  0  0  0
  140.3620  159.7690  132.4000 O   0  0  0  0  0  0  0  0  0  0  0  0
  138.4620  159.9630  131.1390 O   0  0  0  0  0  0  0  0  0  0  0  0
  142.1110  158.4270  132.2530 H   0  0  0  0  0  0  0  0  0  0  0  0
  142.4030  159.6760  133.5070 H   0  0  0  0  0  0  0  0  0  0  0  0
  144.4759  155.6824  134.2283 H   0  0  0  0  0  0  0  0  0  0  0  0
  144.7708  152.9025  133.6471 H   0  0  0  0  0  0  0  0  0  0  0  0
  143.5104  150.8802  132.8428 H   0  0  0  0  0  0  0  0  0  0  0  0
  138.9316  151.7152  132.0957 H   0  0  0  0  0  0  0  0  0  0  0  0
  137.7900  147.2410  130.9860 H   0  0  0  0  0  0  0  0  0  0  0  0
  139.2860  146.6610  130.1700 H   0  0  0  0  0  0  0  0  0  0  0  0
  142.6137  149.4450  132.0947 H   0  0  0  0  0  0  0  0  0  0  0  0
  139.8638  153.2572  132.5846 H   0  0  0  0  0  0  0  0  0  0  0  0
  138.8977  157.2866  134.6354 H   0  0  0  0  0  0  0  0  0  0  0  0
  140.4161  157.9904  133.9479 H   0  0  0  0  0  0  0  0  0  0  0  0
  137.7850  157.7830  132.4350 H   0  0  0  0  0  0  0  0  0  0  0  0
  1  2  1  0
  2  3  2  0
  2  4  1  0
  4  5  2  0
  5  6  1  0
  6  7  2  0
  7  8  1  0
  8  9  2  0
  9 10  1  0
 10 11  2  0
 11 12  1  0
 12 13  2  0
 13 14  1  0
 13 15  1  0
 15 16  2  0
  9 17  1  0
 17 18  2  0
 18 19  1  0
 19 20  1  0
 20 21  2  0
 20 22  1  0
 22 23  1  0
 23 24  1  0
 24 25  2  0
 24 26  1  0
 19  4  1  0
 18  6  1  0
 16 10  1  0
  1 27  1  0
  1 28  1  0
  5 29  1  0
  7 30  1  0
  8 31  1  0
 11 32  1  0
 14 33  1  0
 14 34  1  0
 16 35  1  0
 17 36  1  0
 22 37  1  0
 22 38  1  0
 23 39  1  0
M  CHG  1  26  -1
M  END
>  <UniqueID>  (12) 
12

>  <SMILES>  (12) 
NC(=O)c1cc2ccc(-c3cnc(N)nc3)cc2n1C(=O)CNC(=O)[O-]

>  <Energy>  (12) 
84.06367952318308

>  <Genealogy>  (12) 
NC(=O)c1cc2ccc(-c3cnc(N)nc3)cc2n1C(=O)CNC(=O)[O-] (protonated)
NC(=O)c1cc2ccc(-c3cnc(N)nc3)cc2n1C(=O)CNC(=O)[O-] (3D coordinates assigned)
NC(=O)c1cc2ccc(-c3cnc(N)nc3)cc2n1C(=O)CNC(=O)[O-] (optimized conformer: 84.06367952318308 kcal/mol)

>  <smiles>  (12) 
NC(=O)c1cc2ccc(-c3cnc(N)nc3)cc2n1C(=O)CNC(=O)O

>  <score_type>  (12) 
oracle

>  <origin>  (12) 
adg

>  <m_score__min__energy>  (12) 
-8.0899999999999999

>  <m_primary>  (12) 
energy

$$$$
13:0
     RDKit          3D

 67 69  0  0  0  0  0  0  0  0999 V2000
  138.4630  160.1040  130.3680 C   0  0  0  0  0  0  0  0  0  0  0  0
  138.0620  159.3710  131.6500 C   0  0  0  0  0  0  0  0  0  0  0  0
  139.0910  158.2750  132.0560 C   0  0  2  0  0  0  0  0  0  0  0  0
  138.6500  157.5330  133.3400 C   0  0  0  0  0  0  0  0  0  0  0  0
  139.4780  156.3170  133.6530 C   0  0  0  0  0  0  0  0  0  0  0  0
  139.8700  155.6020  132.7480 O   0  0  0  0  0  0  0  0  0  0  0  0
  140.5320  158.8320  132.2160 C   0  0  0  0  0  0  0  0  0  0  0  0
  140.6290  160.1870  132.9470 C   0  0  0  0  0  0  0  0  0  0  0  0
  141.6220  160.2100  134.1240 C   0  0  0  0  0  0  0  0  0  0  0  0
  141.3700  159.0900  135.0980 C   0  0  0  0  0  0  0  0  0  0  0  0
  140.3500  159.2090  136.0790 C   0  0  0  0  0  0  0  0  0  0  0  0
  140.1350  158.1860  137.0180 C   0  0  0  0  0  0  0  0  0  0  0  0
  140.9540  157.0620  136.9530 C   0  0  0  0  0  0  0  0  0  0  0  0
  140.9770  155.9330  137.7430 C   0  0  0  0  0  0  0  0  0  0  0  0
  142.0060  155.1430  137.2280 C   0  0  0  0  0  0  0  0  0  0  0  0
  142.3510  153.7910  137.7190 C   0  0  0  0  0  0  0  0  0  0  0  0
  143.7010  153.4540  138.0450 N   0  0  0  0  0  0  0  0  0  0  0  0
  141.4500  152.9270  137.8750 O   0  0  0  0  0  0  0  0  0  0  0  0
  142.5950  155.7670  136.1690 N   0  0  0  0  0  0  0  0  0  0  0  0
  143.7230  155.3260  135.4000 C   0  0  0  0  0  0  0  0  0  0  0  0
  144.8310  155.1650  135.9810 O   0  0  0  0  0  0  0  0  0  0  0  0
  143.6040  155.0850  133.9050 C   0  0  2  0  0  0  0  0  0  0  0  0
  142.3270  155.5810  133.3810 N   0  0  0  0  0  0  0  0  0  0  0  0
  143.7440  153.5850  133.5660 C   0  0  0  0  0  0  0  0  0  0  0  0
  142.4550  152.9870  133.1480 N   0  0  0  0  0  0  0  0  0  0  0  0
  142.6320  151.6160  132.6050 C   0  0  0  0  0  0  0  0  0  0  0  0
  141.3610  150.7700  132.7590 C   0  0  0  0  0  0  0  0  0  0  0  0
  140.9930  150.5960  134.1740 N   0  0  0  0  0  0  0  0  0  0  0  0
  141.3600  151.7400  135.0290 C   0  0  0  0  0  0  0  0  0  0  0  0
  141.4480  153.0560  134.2380 C   0  0  0  0  0  0  0  0  0  0  0  0
  141.9390  156.9330  136.0090 C   0  0  0  0  0  0  0  0  0  0  0  0
  142.1810  157.9350  135.0680 C   0  0  0  0  0  0  0  0  0  0  0  0
  138.9761  161.0419  130.6271 H   0  0  0  0  0  0  0  0  0  0  0  0
  139.1385  159.4675  129.7777 H   0  0  0  0  0  0  0  0  0  0  0  0
  137.5626  160.3296  129.7777 H   0  0  0  0  0  0  0  0  0  0  0  0
  137.9864  160.1040  132.4667 H   0  0  0  0  0  0  0  0  0  0  0  0
  137.0990  158.8732  131.4635 H   0  0  0  0  0  0  0  0  0  0  0  0
  139.1133  157.5545  131.2251 H   0  0  0  0  0  0  0  0  0  0  0  0
  138.7248  158.2309  134.1869 H   0  0  0  0  0  0  0  0  0  0  0  0
  137.6203  157.1848  133.1712 H   0  0  0  0  0  0  0  0  0  0  0  0
  139.7288  156.0740  134.6961 H   0  0  0  0  0  0  0  0  0  0  0  0
  141.1217  158.0958  132.7820 H   0  0  0  0  0  0  0  0  0  0  0  0
  140.9103  159.0040  131.1975 H   0  0  0  0  0  0  0  0  0  0  0  0
  140.9430  160.9486  132.2180 H   0  0  0  0  0  0  0  0  0  0  0  0
  139.6344  160.3832  133.3739 H   0  0  0  0  0  0  0  0  0  0  0  0
  142.6438  160.1130  133.7283 H   0  0  0  0  0  0  0  0  0  0  0  0
  141.4909  161.1616  134.6599 H   0  0  0  0  0  0  0  0  0  0  0  0
  139.7217  160.1115  136.1040 H   0  0  0  0  0  0  0  0  0  0  0  0
  139.3456  158.2705  137.7794 H   0  0  0  0  0  0  0  0  0  0  0  0
  140.3235  155.7033  138.5975 H   0  0  0  0  0  0  0  0  0  0  0  0
  144.4890  154.1150  137.8530 H   0  0  0  0  0  0  0  0  0  0  0  0
  143.9220  152.5160  138.4460 H   0  0  0  0  0  0  0  0  0  0  0  0
  144.4251  155.6404  133.4282 H   0  0  0  0  0  0  0  0  0  0  0  0
  142.0570  155.0270  132.5340 H   0  0  0  0  0  0  0  0  0  0  0  0
  141.5840  155.4490  134.1020 H   0  0  0  0  0  0  0  0  0  0  0  0
  144.4697  153.4724  132.7470 H   0  0  0  0  0  0  0  0  0  0  0  0
  144.0824  153.0623  134.4728 H   0  0  0  0  0  0  0  0  0  0  0  0
  142.8847  151.6867  131.5367 H   0  0  0  0  0  0  0  0  0  0  0  0
  143.4376  151.1266  133.1720 H   0  0  0  0  0  0  0  0  0  0  0  0
  140.5337  151.2700  132.2340 H   0  0  0  0  0  0  0  0  0  0  0  0
  141.5555  149.7761  132.3297 H   0  0  0  0  0  0  0  0  0  0  0  0
  139.9550  150.4580  134.2250 H   0  0  0  0  0  0  0  0  0  0  0  0
  140.6002  151.8509  135.8166 H   0  0  0  0  0  0  0  0  0  0  0  0
  142.3536  151.5365  135.4548 H   0  0  0  0  0  0  0  0  0  0  0  0
  140.4632  153.2717  133.7979 H   0  0  0  0  0  0  0  0  0  0  0  0
  141.7567  153.8496  134.9344 H   0  0  0  0  0  0  0  0  0  0  0  0
  142.9827  157.8275  134.3225 H   0  0  0  0  0  0  0  0  0  0  0  0
  1  2  1  0
  2  3  1  0
  3  4  1  0
  4  5  1  0
  5  6  2  0
  3  7  1  0
  7  8  1  0
  8  9  1  0
  9 10  1  0
 10 11  2  0
 11 12  1  0
 12 13  2  0
 13 14  1  0
 14 15  2  0
 15 16  1  0
 16 17  1  0
 16 18  2  0
 15 19  1  0
 19 20  1  0
 20 21  2  0
 20 22  1  0
 22 23  1  0
 22 24  1  0
 24 25  1  0
 25 26  1  0
 26 27  1  0
 27 28  1  0
 28 29  1  0
 29 30  1  0
 19 31  1  0
 31 32  2  0
 32 10  1  0
 31 13  1  0
 30 25  1  0
  1 33  1  0
  1 34  1  0
  1 35  1  0
  2 36  1  0
  2 37  1  0
  3 38  1  6
  4 39  1  0
  4 40  1  0
  5 41  1  0
  7 42  1  0
  7 43  1  0
  8 44  1  0
  8 45  1  0
  9 46  1  0
  9 47  1  0
 11 48  1  0
 12 49  1  0
 14 50  1  0
 17 51  1  0
 17 52  1  0
 22 53  1  6
 23 54  1  0
 23 55  1  0
 24 56  1  0
 24 57  1  0
 26 58  1  0
 26 59  1  0
 27 60  1  0
 27 61  1  0
 28 62  1  0
 29 63  1  0
 29 64  1  0
 30 65  1  0
 30 66  1  0
 32 67  1  0
M  END
>  <UniqueID>  (13) 
13

>  <SMILES>  (13) 
CC[C@H](CC=O)CCCc1ccc2cc(C(N)=O)n(C(=O)[C@H](N)CN3CCNCC3)c2c1

>  <Energy>  (13) 
110.79686755812136

>  <Genealogy>  (13) 
CC[C@H](CC=O)CCCc1ccc2cc(C(N)=O)n(C(=O)[C@H](N)CN3CCNCC3)c2c1 (chirality)
CC[C@H](CC=O)CCCc1ccc2cc(C(N)=O)n(C(=O)[C@H](N)CN3CCNCC3)c2c1 (3D coordinates assigned)
CC[C@H](CC=O)CCCc1ccc2cc(C(N)=O)n(C(=O)[C@H](N)CN3CCNCC3)c2c1 (nonaromatic ring conformer: 110.79686755812136 kcal/mol)

>  <smiles>  (13) 
CCC(CC=O)CCCc1ccc2cc(C(N)=O)n(C(=O)[C@H](N)CN3CCNCC3)c2c1

>  <score_type>  (13) 
oracle

>  <origin>  (13) 
adg

>  <m_score__min__energy>  (13) 
-8.9100000000000001

>  <m_primary>  (13) 
energy

$$$$
14:0
     RDKit          3D

 38 39  0  0  0  0  0  0  0  0999 V2000
  139.0490  157.7610  133.7370 C   0  0  0  0  0  0  0  0  0  0  0  0
  140.1520  159.1070  133.3560 S   0  0  0  0  0  0  0  0  0  0  0  0
  140.6270  159.7240  134.6400 O   0  0  0  0  0  0  0  0  0  0  0  0
  139.4170  160.1470  132.5570 O   0  0  0  0  0  0  0  0  0  0  0  0
  141.5300  158.5390  132.4620 N   0  0  0  0  0  0  0  0  0  0  0  0
  141.8250  157.1470  132.8140 C   0  0  0  0  0  0  0  0  0  0  0  0
  143.3080  156.9880  133.1570 C   0  0  0  0  0  0  0  0  0  0  0  0
  143.8040  158.1560  133.9620 C   0  0  0  0  0  0  0  0  0  0  0  0
  143.1460  158.5490  134.9610 O   0  0  0  0  0  0  0  0  0  0  0  0
  145.0590  158.7750  133.6480 N   0  0  0  0  0  0  0  0  0  0  0  0
  145.3260  160.1070  133.5410 C   0  0  0  0  0  0  0  0  0  0  0  0
  144.3560  161.2020  133.7540 C   0  0  0  0  0  0  0  0  0  0  0  0
  142.9860  161.0150  133.4070 N   0  0  0  0  0  0  0  0  0  0  0  0
  144.7230  162.3070  134.2350 O   0  0  0  0  0  0  0  0  0  0  0  0
  146.6740  160.3100  133.2470 C   0  0  0  0  0  0  0  0  0  0  0  0
  147.2240  159.0510  133.1710 C   0  0  0  0  0  0  0  0  0  0  0  0
  148.5320  158.6580  132.9050 C   0  0  0  0  0  0  0  0  0  0  0  0
  148.8150  157.2830  132.8750 C   0  0  0  0  0  0  0  0  0  0  0  0
  147.7860  156.3260  133.0840 C   0  0  0  0  0  0  0  0  0  0  0  0
  148.1100  154.8530  133.0870 C   0  0  0  0  0  0  0  0  0  0  0  0
  148.3910  154.4170  134.3710 F   0  0  0  0  0  0  0  0  0  0  0  0
  149.2110  154.6280  132.2830 F   0  0  0  0  0  0  0  0  0  0  0  0
  147.0410  154.1170  132.6060 F   0  0  0  0  0  0  0  0  0  0  0  0
  146.4740  156.7670  133.3740 C   0  0  0  0  0  0  0  0  0  0  0  0
  146.2280  158.1420  133.4140 C   0  0  0  0  0  0  0  0  0  0  0  0
  138.9626  157.6555  134.8285 H   0  0  0  0  0  0  0  0  0  0  0  0
  138.0570  157.9675  133.3089 H   0  0  0  0  0  0  0  0  0  0  0  0
  139.4464  156.8289  133.3089 H   0  0  0  0  0  0  0  0  0  0  0  0
  142.3450  159.1300  132.7480 H   0  0  0  0  0  0  0  0  0  0  0  0
  141.2182  156.8565  133.6843 H   0  0  0  0  0  0  0  0  0  0  0  0
  141.5856  156.5026  131.9552 H   0  0  0  0  0  0  0  0  0  0  0  0
  143.4452  156.0654  133.7400 H   0  0  0  0  0  0  0  0  0  0  0  0
  143.8810  156.9408  132.2192 H   0  0  0  0  0  0  0  0  0  0  0  0
  142.4990  160.1140  133.6110 H   0  0  0  0  0  0  0  0  0  0  0  0
  147.1883  161.2721  133.1058 H   0  0  0  0  0  0  0  0  0  0  0  0
  149.3211  159.4026  132.7235 H   0  0  0  0  0  0  0  0  0  0  0  0
  149.8443  156.9432  132.6877 H   0  0  0  0  0  0  0  0  0  0  0  0
  145.6663  156.0448  133.5636 H   0  0  0  0  0  0  0  0  0  0  0  0
  1  2  1  0
  2  3  2  0
  2  4  2  0
  2  5  1  0
  5  6  1  0
  6  7  1  0
  7  8  1  0
  8  9  2  0
  8 10  1  0
 10 11  1  0
 11 12  1  0
 12 13  1  0
 12 14  2  0
 11 15  2  0
 15 16  1  0
 16 17  2  0
 17 18  1  0
 18 19  2  0
 19 20  1  0
 20 21  1  0
 20 22  1  0
 20 23  1  0
 19 24  1  0
 24 25  2  0
 25 10  1  0
 25 16  1  0
  1 26  1  0
  1 27  1  0
  1 28  1  0
  5 29  1  0
  6 30  1  0
  6 31  1  0
  7 32  1  0
  7 33  1  0
 13 34  1  0
 15 35  1  0
 17 36  1  0
 18 37  1  0
 24 38  1  0
M  CHG  1  13  -1
M  END
>  <UniqueID>  (14) 
14

>  <SMILES>  (14) 
CS(=O)(=O)NCCC(=O)n1c(C([NH-])=O)cc2ccc(C(F)(F)F)cc21

>  <Energy>  (14) 
67.10978337606154

>  <Genealogy>  (14) 
CS(=O)(=O)NCCC(=O)n1c(C([NH-])=O)cc2ccc(C(F)(F)F)cc21 (protonated)
CS(=O)(=O)NCCC(=O)n1c(C([NH-])=O)cc2ccc(C(F)(F)F)cc21 (3D coordinates assigned)
CS(=O)(=O)NCCC(=O)n1c(C([NH-])=O)cc2ccc(C(F)(F)F)cc21 (optimized conformer: 67.10978337606154 kcal/mol)

>  <smiles>  (14) 
CS(=O)(=O)NCCC(=O)n1c(C(N)=O)cc2ccc(C(F)(F)F)cc21

>  <score_type>  (14) 
oracle

>  <origin>  (14) 
adg

>  <m_score__min__energy>  (14) 
-6.8899999999999997

>  <m_primary>  (14) 
energy

$$$$
15:0
     RDKit          3D

 36 38  0  0  0  0  0  0  0  0999 V2000
  145.1600  153.4480  134.9420 N   0  0  0  0  0  0  0  0  0  0  0  0
  144.6480  154.7780  134.9770 C   0  0  0  0  0  0  0  0  0  0  0  0
  143.5900  155.0140  135.6200 O   0  0  0  0  0  0  0  0  0  0  0  0
  145.3680  155.8880  134.3190 C   0  0  0  0  0  0  0  0  0  0  0  0
  144.7980  157.1370  134.0830 C   0  0  0  0  0  0  0  0  0  0  0  0
  145.8060  157.9020  133.5420 C   0  0  0  0  0  0  0  0  0  0  0  0
  145.7910  159.2210  133.1070 C   0  0  0  0  0  0  0  0  0  0  0  0
  146.9700  159.7480  132.5560 C   0  0  0  0  0  0  0  0  0  0  0  0
  148.1450  158.9490  132.4430 C   0  0  0  0  0  0  0  0  0  0  0  0
  149.4490  159.4520  131.8470 C   0  0  0  0  0  0  0  0  0  0  0  0
  149.4050  160.7630  131.0770 C   0  0  0  0  0  0  0  0  0  0  0  0
  149.5710  159.4460  130.3300 C   0  0  0  0  0  0  0  0  0  0  0  0
  148.1110  157.6110  132.8980 C   0  0  0  0  0  0  0  0  0  0  0  0
  146.9270  157.1200  133.4600 C   0  0  0  0  0  0  0  0  0  0  0  0
  146.6740  155.8780  133.9320 N   0  0  0  0  0  0  0  0  0  0  0  0
  147.5740  154.7580  133.9150 C   0  0  0  0  0  0  0  0  0  0  0  0
  147.8770  154.2090  132.8200 O   0  0  0  0  0  0  0  0  0  0  0  0
  148.0920  154.2680  135.1170 O   0  0  0  0  0  0  0  0  0  0  0  0
  147.4910  154.5320  136.3820 C   0  0  0  0  0  0  0  0  0  0  0  0
  147.2340  153.3240  137.0580 O   0  0  0  0  0  0  0  0  0  0  0  0
  148.0590  153.3360  138.5520 P   0  0  0  0  0  0  0  0  0  0  0  0
  149.3550  154.1040  138.4210 O   0  0  0  0  0  0  0  0  0  0  0  0
  147.0860  154.0950  139.7080 O   0  0  0  0  0  0  0  0  0  0  0  0
  148.3870  151.7580  139.0660 O   0  0  0  0  0  0  0  0  0  0  0  0
  146.1570  153.2500  135.1720 H   0  0  0  0  0  0  0  0  0  0  0  0
  143.7620  157.4462  134.2860 H   0  0  0  0  0  0  0  0  0  0  0  0
  144.8821  159.8347  133.1917 H   0  0  0  0  0  0  0  0  0  0  0  0
  146.9871  160.7910  132.2070 H   0  0  0  0  0  0  0  0  0  0  0  0
  150.0526  159.0579  132.6778 H   0  0  0  0  0  0  0  0  0  0  0  0
  148.4620  161.3241  130.9997 H   0  0  0  0  0  0  0  0  0  0  0  0
  149.9645  161.7091  131.1193 H   0  0  0  0  0  0  0  0  0  0  0  0
  148.7479  159.0557  129.7134 H   0  0  0  0  0  0  0  0  0  0  0  0
  150.2999  159.0465  129.6095 H   0  0  0  0  0  0  0  0  0  0  0  0
  148.9989  156.9675  132.8119 H   0  0  0  0  0  0  0  0  0  0  0  0
  148.1720  155.1492  136.9864 H   0  0  0  0  0  0  0  0  0  0  0  0
  146.5418  155.0652  136.2249 H   0  0  0  0  0  0  0  0  0  0  0  0
  1  2  1  0
  2  3  2  0
  2  4  1  0
  4  5  2  0
  5  6  1  0
  6  7  2  0
  7  8  1  0
  8  9  2  0
  9 10  1  0
 10 11  1  0
 11 12  1  0
  9 13  1  0
 13 14  2  0
 14 15  1  0
 15 16  1  0
 16 17  2  0
 16 18  1  0
 18 19  1  0
 19 20  1  0
 20 21  1  0
 21 22  2  0
 21 23  1  0
 21 24  1  0
 15  4  1  0
 14  6  1  0
 12 10  1  0
  1 25  1  0
  5 26  1  0
  7 27  1  0
  8 28  1  0
 10 29  1  0
 11 30  1  0
 11 31  1  0
 12 32  1  0
 12 33  1  0
 13 34  1  0
 19 35  1  0
 19 36  1  0
M  CHG  3   1  -1  23  -1  24  -1
M  END
>  <UniqueID>  (15) 
15

>  <SMILES>  (15) 
[NH-]C(=O)c1cc2ccc(C3CC3)cc2n1C(=O)OCOP(=O)([O-])[O-]

>  <Energy>  (15) 
342.09966803529204

>  <Genealogy>  (15) 
[NH-]C(=O)c1cc2ccc(C3CC3)cc2n1C(=O)OCOP(=O)([O-])[O-] (protonated)
[NH-]C(=O)c1cc2ccc(C3CC3)cc2n1C(=O)OCOP(=O)([O-])[O-] (3D coordinates assigned)
[NH-]C(=O)c1cc2ccc(C3CC3)cc2n1C(=O)OCOP(=O)([O-])[O-] (nonaromatic ring conformer: 342.09966803529204 kcal/mol)

>  <smiles>  (15) 
NC(=O)c1cc2ccc(C3CC3)cc2n1C(=O)OCOP(=O)(O)O

>  <score_type>  (15) 
oracle

>  <origin>  (15) 
adg

>  <m_score__min__energy>  (15) 
-7.6900000000000004

>  <m_primary>  (15) 
energy

$$$$
16:0
     RDKit          3D

 50 53  0  0  0  0  0  0  0  0999 V2000
  150.0110  159.7380  130.7430 C   0  0  0  0  0  0  0  0  0  0  0  0
  148.8490  160.6400  130.3480 C   0  0  0  0  0  0  0  0  0  0  0  0
  147.6510  160.2410  131.0080 O   0  0  0  0  0  0  0  0  0  0  0  0
  147.6090  159.8060  132.3400 C   0  0  0  0  0  0  0  0  0  0  0  0
  148.2950  160.3860  133.2250 O   0  0  0  0  0  0  0  0  0  0  0  0
  146.7880  158.6010  132.7180 C   0  0  1  0  0  0  0  0  0  0  0  0
  147.5300  157.6950  133.7080 C   0  0  0  0  0  0  0  0  0  0  0  0
  145.4460  159.0180  133.2830 C   0  0  0  0  0  0  0  0  0  0  0  0
  145.2210  160.3520  133.7180 C   0  0  0  0  0  0  0  0  0  0  0  0
  143.9770  160.7350  134.2480 C   0  0  0  0  0  0  0  0  0  0  0  0
  142.9860  159.7660  134.3500 C   0  0  0  0  0  0  0  0  0  0  0  0
  141.6910  159.8680  134.8090 C   0  0  0  0  0  0  0  0  0  0  0  0
  141.1560  158.5860  134.6890 C   0  0  0  0  0  0  0  0  0  0  0  0
  139.8010  158.2260  135.1620 C   0  0  0  0  0  0  0  0  0  0  0  0
  138.8680  157.5900  134.2930 N   0  0  0  0  0  0  0  0  0  0  0  0
  139.4800  158.4400  136.3620 O   0  0  0  0  0  0  0  0  0  0  0  0
  142.0810  157.7300  134.1680 N   0  0  0  0  0  0  0  0  0  0  0  0
  141.9140  156.3450  133.8340 C   0  0  0  0  0  0  0  0  0  0  0  0
  141.0550  156.0050  132.9750 O   0  0  0  0  0  0  0  0  0  0  0  0
  142.6870  155.3810  134.4960 O   0  0  0  0  0  0  0  0  0  0  0  0
  144.0050  155.0330  134.1650 C   0  0  0  0  0  0  0  0  0  0  0  0
  144.3970  155.1080  132.8080 C   0  0  0  0  0  0  0  0  0  0  0  0
  145.7030  154.7650  132.4130 C   0  0  0  0  0  0  0  0  0  0  0  0
  146.5910  154.3400  133.3980 C   0  0  0  0  0  0  0  0  0  0  0  0
  146.2150  154.2450  134.7160 C   0  0  0  0  0  0  0  0  0  0  0  0
  144.9280  154.5760  135.1370 C   0  0  0  0  0  0  0  0  0  0  0  0
  147.3690  153.7430  135.4540 C   0  0  0  0  0  0  0  0  0  0  0  0
  147.4110  153.5110  136.6900 O   0  0  0  0  0  0  0  0  0  0  0  0
  148.4400  153.5430  134.5820 O   0  0  0  0  0  0  0  0  0  0  0  0
  147.9820  153.9050  133.3170 C   0  0  0  0  0  0  0  0  0  0  0  0
  148.6810  153.8560  132.2700 O   0  0  0  0  0  0  0  0  0  0  0  0
  143.1950  158.4670  133.9680 C   0  0  0  0  0  0  0  0  0  0  0  0
  144.4150  158.0600  133.4180 C   0  0  0  0  0  0  0  0  0  0  0  0
  150.0783  159.6858  131.8397 H   0  0  0  0  0  0  0  0  0  0  0  0
  149.8462  158.7289  130.3373 H   0  0  0  0  0  0  0  0  0  0  0  0
  150.9477  160.1479  130.3373 H   0  0  0  0  0  0  0  0  0  0  0  0
  149.0864  161.6770  130.6276 H   0  0  0  0  0  0  0  0  0  0  0  0
  148.6956  160.5616  129.2616 H   0  0  0  0  0  0  0  0  0  0  0  0
  146.6169  158.0211  131.7991 H   0  0  0  0  0  0  0  0  0  0  0  0
  147.2832  157.9964  134.7367 H   0  0  0  0  0  0  0  0  0  0  0  0
  147.2247  156.6503  133.5487 H   0  0  0  0  0  0  0  0  0  0  0  0
  148.6144  157.7885  133.5487 H   0  0  0  0  0  0  0  0  0  0  0  0
  146.0298  161.0934  133.6390 H   0  0  0  0  0  0  0  0  0  0  0  0
  143.7933  161.7700  134.5722 H   0  0  0  0  0  0  0  0  0  0  0  0
  141.1867  160.7687  135.1891 H   0  0  0  0  0  0  0  0  0  0  0  0
  139.1830  156.8890  133.5870 H   0  0  0  0  0  0  0  0  0  0  0  0
  143.6707  155.4391  132.0511 H   0  0  0  0  0  0  0  0  0  0  0  0
  146.0129  154.8304  131.3596 H   0  0  0  0  0  0  0  0  0  0  0  0
  144.6376  154.4848  136.1940 H   0  0  0  0  0  0  0  0  0  0  0  0
  144.5687  157.0189  133.0980 H   0  0  0  0  0  0  0  0  0  0  0  0
  1  2  1  0
  2  3  1  0
  3  4  1  0
  4  5  2  0
  4  6  1  0
  6  7  1  0
  6  8  1  0
  8  9  2  0
  9 10  1  0
 10 11  2  0
 11 12  1  0
 12 13  2  0
 13 14  1  0
 14 15  1  0
 14 16  2  0
 13 17  1  0
 17 18  1  0
 18 19  2  0
 18 20  1  0
 20 21  1  0
 21 22  2  0
 22 23  1  0
 23 24  2  0
 24 25  1  0
 25 26  2  0
 25 27  1  0
 27 28  2  0
 27 29  1  0
 29 30  1  0
 30 31  2  0
 17 32  1  0
 32 33  2  0
 33  8  1  0
 32 11  1  0
 26 21  1  0
 30 24  1  0
  1 34  1  0
  1 35  1  0
  1 36  1  0
  2 37  1  0
  2 38  1  0
  6 39  1  6
  7 40  1  0
  7 41  1  0
  7 42  1  0
  9 43  1  0
 10 44  1  0
 12 45  1  0
 15 46  1  0
 22 47  1  0
 23 48  1  0
 26 49  1  0
 33 50  1  0
M  CHG  1  15  -1
M  END
>  <UniqueID>  (16) 
16

>  <SMILES>  (16) 
CCOC(=O)[C@@H](C)c1ccc2cc(C([NH-])=O)n(C(=O)Oc3ccc4c(c3)C(=O)OC4=O)c2c1

>  <Energy>  (16) 
124.95531716667294

>  <Genealogy>  (16) 
CCOC(=O)[C@@H](C)c1ccc2cc(C([NH-])=O)n(C(=O)Oc3ccc4c(c3)C(=O)OC4=O)c2c1 (protonated)
CCOC(=O)[C@@H](C)c1ccc2cc(C([NH-])=O)n(C(=O)Oc3ccc4c(c3)C(=O)OC4=O)c2c1 (3D coordinates assigned)
CCOC(=O)[C@@H](C)c1ccc2cc(C([NH-])=O)n(C(=O)Oc3ccc4c(c3)C(=O)OC4=O)c2c1 (nonaromatic ring conformer: 124.95531716667294 kcal/mol)

>  <smiles>  (16) 
CCOC(=O)[C@@H](C)c1ccc2cc(C(N)=O)n(C(=O)Oc3ccc4c(c3)C(=O)OC4=O)c2c1

>  <score_type>  (16) 
oracle

>  <origin>  (16) 
adg

>  <m_score__min__energy>  (16) 
-9.5899999999999999

>  <m_primary>  (16) 
energy

$$$$
17:0
     RDKit          3D

 38 40  0  0  0  0  0  0  0  0999 V2000
  140.7100  158.8200  135.0640 C   0  0  0  0  0  0  0  0  0  0  0  0
  142.0890  158.5880  135.6830 C   0  0  0  0  0  0  0  0  0  0  0  0
  142.8980  157.5270  134.9250 C   0  0  0  0  0  0  0  0  0  0  0  0
  143.4460  158.0640  133.6320 C   0  0  0  0  0  0  0  0  0  0  0  0
  142.7160  158.0670  132.6040 O   0  0  0  0  0  0  0  0  0  0  0  0
  144.7600  158.6420  133.5720 N   0  0  0  0  0  0  0  0  0  0  0  0
  145.0990  159.9600  133.5300 C   0  0  0  0  0  0  0  0  0  0  0  0
  144.1750  161.0980  133.7150 C   0  0  0  0  0  0  0  0  0  0  0  0
  142.7870  160.9700  133.4190 N   0  0  0  0  0  0  0  0  0  0  0  0
  144.6090  162.1870  134.1800 O   0  0  0  0  0  0  0  0  0  0  0  0
  146.4770  160.1060  133.3800 C   0  0  0  0  0  0  0  0  0  0  0  0
  146.9770  158.8220  133.3490 C   0  0  0  0  0  0  0  0  0  0  0  0
  148.2860  158.3730  133.2060 C   0  0  0  0  0  0  0  0  0  0  0  0
  148.5070  156.9840  133.1860 C   0  0  0  0  0  0  0  0  0  0  0  0
  147.4240  156.0800  133.3200 C   0  0  0  0  0  0  0  0  0  0  0  0
  147.6660  154.5990  133.2470 C   0  0  0  0  0  0  0  0  0  0  0  0
  148.9350  154.1220  132.6790 C   0  0  0  0  0  0  0  0  0  0  0  0
  149.9340  153.7480  132.2310 N   0  0  0  0  0  0  0  0  0  0  0  0
  146.4530  153.7190  132.9780 C   0  0  0  0  0  0  0  0  0  0  0  0
  147.0790  153.7480  134.3650 C   0  0  0  0  0  0  0  0  0  0  0  0
  146.1080  156.5740  133.4480 C   0  0  0  0  0  0  0  0  0  0  0  0
  145.9200  157.9600  133.4730 C   0  0  0  0  0  0  0  0  0  0  0  0
  139.9654  158.9453  135.8639 H   0  0  0  0  0  0  0  0  0  0  0  0
  140.7354  159.7265  134.4414 H   0  0  0  0  0  0  0  0  0  0  0  0
  140.4373  157.9551  134.4414 H   0  0  0  0  0  0  0  0  0  0  0  0
  142.6472  159.5357  135.6679 H   0  0  0  0  0  0  0  0  0  0  0  0
  141.9393  158.2255  136.7107 H   0  0  0  0  0  0  0  0  0  0  0  0
  143.7355  157.1980  135.5578 H   0  0  0  0  0  0  0  0  0  0  0  0
  142.2273  156.6872  134.6906 H   0  0  0  0  0  0  0  0  0  0  0  0
  142.4430  160.2310  132.7660 H   0  0  0  0  0  0  0  0  0  0  0  0
  147.0443  161.0453  133.3029 H   0  0  0  0  0  0  0  0  0  0  0  0
  149.1218  159.0819  133.1115 H   0  0  0  0  0  0  0  0  0  0  0  0
  149.5293  156.5962  133.0653 H   0  0  0  0  0  0  0  0  0  0  0  0
  145.4674  154.1775  132.8098 H   0  0  0  0  0  0  0  0  0  0  0  0
  146.2103  152.9303  132.2506 H   0  0  0  0  0  0  0  0  0  0  0  0
  146.5458  154.2275  135.1991 H   0  0  0  0  0  0  0  0  0  0  0  0
  147.4761  152.9890  135.0551 H   0  0  0  0  0  0  0  0  0  0  0  0
  145.2525  155.8870  133.5261 H   0  0  0  0  0  0  0  0  0  0  0  0
  1  2  1  0
  2  3  1  0
  3  4  1  0
  4  5  2  0
  4  6  1  0
  6  7  1  0
  7  8  1  0
  8  9  1  0
  8 10  2  0
  7 11  2  0
 11 12  1  0
 12 13  2  0
 13 14  1  0
 14 15  2  0
 15 16  1  0
 16 17  1  0
 17 18  3  0
 16 19  1  0
 19 20  1  0
 15 21  1  0
 21 22  2  0
 22  6  1  0
 22 12  1  0
 20 16  1  0
  1 23  1  0
  1 24  1  0
  1 25  1  0
  2 26  1  0
  2 27  1  0
  3 28  1  0
  3 29  1  0
  9 30  1  0
 11 31  1  0
 13 32  1  0
 14 33  1  0
 19 34  1  0
 19 35  1  0
 20 36  1  0
 20 37  1  0
 21 38  1  0
M  CHG  1   9  -1
M  END
>  <UniqueID>  (17) 
17

>  <SMILES>  (17) 
CCCC(=O)n1c(C([NH-])=O)cc2ccc(C3(C#N)CC3)cc21

>  <Energy>  (17) 
338.6999460835207

>  <Genealogy>  (17) 
CCCC(=O)n1c(C([NH-])=O)cc2ccc(C3(C#N)CC3)cc21 (protonated)
CCCC(=O)n1c(C([NH-])=O)cc2ccc(C3(C#N)CC3)cc21 (3D coordinates assigned)
CCCC(=O)n1c(C([NH-])=O)cc2ccc(C3(C#N)CC3)cc21 (nonaromatic ring conformer: 338.6999460835207 kcal/mol)

>  <smiles>  (17) 
CCCC(=O)n1c(C(N)=O)cc2ccc(C3(C#N)CC3)cc21

>  <score_type>  (17) 
oracle

>  <origin>  (17) 
adg

>  <m_score__min__energy>  (17) 
-7.5599999999999996

>  <m_primary>  (17) 
energy

$$$$
18:0
     RDKit          3D

 74 77  0  0  0  0  0  0  0  0999 V2000
  147.9630  153.7210  136.4630 C   0  0  0  0  0  0  0  0  0  0  0  0
  146.6840  154.2490  136.7870 O   0  0  0  0  0  0  0  0  0  0  0  0
  145.7010  154.4810  135.8190 C   0  0  0  0  0  0  0  0  0  0  0  0
  144.5120  154.1060  136.0130 O   0  0  0  0  0  0  0  0  0  0  0  0
  146.0720  155.2160  134.5980 C   0  0  0  0  0  0  0  0  0  0  0  0
  145.2280  155.9290  133.8360 C   0  0  0  0  0  0  0  0  0  0  0  0
  143.7350  156.0260  134.0510 C   0  0  0  0  0  0  0  0  0  0  0  0
  142.9670  155.0050  133.1920 C   0  0  0  0  0  0  0  0  0  0  0  0
  141.6640  154.4940  133.8530 C   0  0  2  0  0  0  0  0  0  0  0  0
  141.2400  153.2450  133.2110 N   0  0  0  0  0  0  0  0  0  0  0  0
  142.0430  151.8520  133.8780 S   0  0  0  0  0  0  0  0  0  0  0  0
  143.3460  152.3100  134.4750 O   0  0  0  0  0  0  0  0  0  0  0  0
  141.2070  151.2380  134.9690 O   0  0  0  0  0  0  0  0  0  0  0  0
  142.4080  150.6410  132.6030 C   0  0  0  0  0  0  0  0  0  0  0  0
  141.1520  150.0310  132.0330 C   0  0  0  0  0  0  0  0  0  0  0  0
  141.2280  148.8550  131.2640 C   0  0  0  0  0  0  0  0  0  0  0  0
  140.0660  148.2640  130.7620 C   0  0  0  0  0  0  0  0  0  0  0  0
  138.8200  148.8370  131.0220 C   0  0  0  0  0  0  0  0  0  0  0  0
  138.7350  150.0130  131.7740 C   0  0  0  0  0  0  0  0  0  0  0  0
  139.8960  150.6130  132.2720 C   0  0  0  0  0  0  0  0  0  0  0  0
  140.5500  155.5110  133.7490 C   0  0  0  0  0  0  0  0  0  0  0  0
  139.5880  155.3110  132.9570 O   0  0  0  0  0  0  0  0  0  0  0  0
  140.5690  156.7060  134.5410 N   0  0  0  0  0  0  0  0  0  0  0  0
  140.3730  157.9800  134.1080 C   0  0  0  0  0  0  0  0  0  0  0  0
  139.9810  158.3640  132.7380 C   0  0  0  0  0  0  0  0  0  0  0  0
  138.7400  157.9170  132.2030 N   0  0  0  0  0  0  0  0  0  0  0  0
  140.7440  159.0690  132.0290 O   0  0  0  0  0  0  0  0  0  0  0  0
  140.5750  158.8830  135.1480 C   0  0  0  0  0  0  0  0  0  0  0  0
  140.8900  158.1090  136.2440 C   0  0  0  0  0  0  0  0  0  0  0  0
  141.1850  158.4800  137.5510 C   0  0  0  0  0  0  0  0  0  0  0  0
  141.4730  157.4610  138.4760 C   0  0  0  0  0  0  0  0  0  0  0  0
  141.4610  156.0970  138.0830 C   0  0  0  0  0  0  0  0  0  0  0  0
  141.7450  155.0620  139.0450 N   0  0  0  0  0  0  0  0  0  0  0  0
  140.9550  154.9180  140.2710 C   0  0  0  0  0  0  0  0  0  0  0  0
  140.3410  153.5070  140.3480 C   0  0  0  0  0  0  0  0  0  0  0  0
  141.1320  152.4720  139.6330 N   0  0  0  0  0  0  0  0  0  0  0  0
  140.5620  152.1600  138.3110 C   0  0  0  0  0  0  0  0  0  0  0  0
  142.5740  152.7900  139.5560 C   0  0  0  0  0  0  0  0  0  0  0  0
  142.8380  154.1130  138.8120 C   0  0  0  0  0  0  0  0  0  0  0  0
  141.1410  155.7610  136.7490 C   0  0  0  0  0  0  0  0  0  0  0  0
  140.8770  156.7980  135.8500 C   0  0  0  0  0  0  0  0  0  0  0  0
  148.5115  153.4945  137.3892 H   0  0  0  0  0  0  0  0  0  0  0  0
  147.8410  152.7997  135.8745 H   0  0  0  0  0  0  0  0  0  0  0  0
  148.5264  154.4601  135.8745 H   0  0  0  0  0  0  0  0  0  0  0  0
  147.1259  155.1776  134.2853 H   0  0  0  0  0  0  0  0  0  0  0  0
  145.6559  156.4859  132.9894 H   0  0  0  0  0  0  0  0  0  0  0  0
  143.5148  155.8362  135.1119 H   0  0  0  0  0  0  0  0  0  0  0  0
  143.4114  157.0347  133.7548 H   0  0  0  0  0  0  0  0  0  0  0  0
  142.7077  155.4811  132.2348 H   0  0  0  0  0  0  0  0  0  0  0  0
  143.6254  154.1336  133.0613 H   0  0  0  0  0  0  0  0  0  0  0  0
  141.8741  154.3212  134.9188 H   0  0  0  0  0  0  0  0  0  0  0  0
  142.9638  151.1345  131.7920 H   0  0  0  0  0  0  0  0  0  0  0  0
  143.0033  149.8353  133.0574 H   0  0  0  0  0  0  0  0  0  0  0  0
  142.2073  148.3988  131.0571 H   0  0  0  0  0  0  0  0  0  0  0  0
  140.1330  147.3454  130.1607 H   0  0  0  0  0  0  0  0  0  0  0  0
  137.9053  148.3637  130.6355 H   0  0  0  0  0  0  0  0  0  0  0  0
  137.7532  150.4669  131.9742 H   0  0  0  0  0  0  0  0  0  0  0  0
  139.8254  151.5443  132.8531 H   0  0  0  0  0  0  0  0  0  0  0  0
  138.3280  157.0010  132.4930 H   0  0  0  0  0  0  0  0  0  0  0  0
  140.4994  159.9795  135.1044 H   0  0  0  0  0  0  0  0  0  0  0  0
  141.1928  159.5380  137.8521 H   0  0  0  0  0  0  0  0  0  0  0  0
  141.7106  157.7241  139.5173 H   0  0  0  0  0  0  0  0  0  0  0  0
  141.6058  155.0788  141.1431 H   0  0  0  0  0  0  0  0  0  0  0  0
  140.1443  155.6614  140.2640 H   0  0  0  0  0  0  0  0  0  0  0  0
  140.2669  153.2177  141.4067 H   0  0  0  0  0  0  0  0  0  0  0  0
  139.3579  153.5567  139.8570 H   0  0  0  0  0  0  0  0  0  0  0  0
  139.6037  151.6355  138.4394 H   0  0  0  0  0  0  0  0  0  0  0  0
  140.3971  153.0936  137.7532 H   0  0  0  0  0  0  0  0  0  0  0  0
  141.2596  151.5179  137.7532 H   0  0  0  0  0  0  0  0  0  0  0  0
  142.9740  152.8718  140.5774 H   0  0  0  0  0  0  0  0  0  0  0  0
  143.0690  151.9826  138.9964 H   0  0  0  0  0  0  0  0  0  0  0  0
  143.7800  154.5502  139.1747 H   0  0  0  0  0  0  0  0  0  0  0  0
  142.9051  153.9066  137.7336 H   0  0  0  0  0  0  0  0  0  0  0  0
  141.1006  154.7103  136.4260 H   0  0  0  0  0  0  0  0  0  0  0  0
  1  2  1  0
  2  3  1  0
  3  4  2  0
  3  5  1  0
  5  6  2  3
  6  7  1  0
  7  8  1  0
  8  9  1  0
  9 10  1  0
 10 11  1  0
 11 12  2  0
 11 13  2  0
 11 14  1  0
 14 15  1  0
 15 16  2  0
 16 17  1  0
 17 18  2  0
 18 19  1  0
 19 20  2  0
  9 21  1  0
 21 22  2  0
 21 23  1  0
 23 24  1  0
 24 25  1  0
 25 26  1  0
 25 27  2  0
 24 28  2  0
 28 29  1  0
 29 30  2  0
 30 31  1  0
 31 32  2  0
 32 33  1  0
 33 34  1  0
 34 35  1  0
 35 36  1  0
 36 37  1  0
 36 38  1  0
 38 39  1  0
 32 40  1  0
 40 41  2  0
 20 15  1  0
 41 23  1  0
 41 29  1  0
 39 33  1  0
  1 42  1  0
  1 43  1  0
  1 44  1  0
  5 45  1  0
  6 46  1  0
  7 47  1  0
  7 48  1  0
  8 49  1  0
  8 50  1  0
  9 51  1  1
 14 52  1  0
 14 53  1  0
 16 54  1  0
 17 55  1  0
 18 56  1  0
 19 57  1  0
 20 58  1  0
 26 59  1  0
 28 60  1  0
 30 61  1  0
 31 62  1  0
 34 63  1  0
 34 64  1  0
 35 65  1  0
 35 66  1  0
 37 67  1  0
 37 68  1  0
 37 69  1  0
 38 70  1  0
 38 71  1  0
 39 72  1  0
 39 73  1  0
 40 74  1  0
M  CHG  2  10  -1  26  -1
M  END
>  <UniqueID>  (18) 
18

>  <SMILES>  (18) 
COC(=O)C=CCC[C@H]([N-]S(=O)(=O)Cc1ccccc1)C(=O)n1c(C([NH-])=O)cc2ccc(N3CCN(C)CC3)cc21

>  <Energy>  (18) 
120.24806783157435

>  <Genealogy>  (18) 
COC(=O)C=CCC[C@H]([N-]S(=O)(=O)Cc1ccccc1)C(=O)n1c(C([NH-])=O)cc2ccc(N3CCN(C)CC3)cc21 (protonated)
COC(=O)C=CCC[C@H]([N-]S(=O)(=O)Cc1ccccc1)C(=O)n1c(C([NH-])=O)cc2ccc(N3CCN(C)CC3)cc21 (3D coordinates assigned)
COC(=O)C=CCC[C@H]([N-]S(=O)(=O)Cc1ccccc1)C(=O)n1c(C([NH-])=O)cc2ccc(N3CCN(C)CC3)cc21 (nonaromatic ring conformer: 120.24806783157435 kcal/mol)

>  <smiles>  (18) 
COC(=O)C=CCC[C@H](NS(=O)(=O)Cc1ccccc1)C(=O)n1c(C(N)=O)cc2ccc(N3CCN(C)CC3)cc21

>  <score_type>  (18) 
oracle

>  <origin>  (18) 
adg

>  <m_score__min__energy>  (18) 
-11.1

>  <m_primary>  (18) 
energy

$$$$
19:0
     RDKit          3D

 49 52  0  0  0  0  0  0  0  0999 V2000
  143.0280  161.2840  133.7240 N   0  0  0  0  0  0  0  0  0  0  0  0
  144.4420  161.3730  133.8730 C   0  0  0  0  0  0  0  0  0  0  0  0
  144.9690  162.4930  134.1070 O   0  0  0  0  0  0  0  0  0  0  0  0
  145.3010  160.1800  133.7100 C   0  0  0  0  0  0  0  0  0  0  0  0
  146.6910  160.2410  133.6340 C   0  0  0  0  0  0  0  0  0  0  0  0
  147.1000  158.9480  133.4000 C   0  0  0  0  0  0  0  0  0  0  0  0
  148.3810  158.4270  133.2490 C   0  0  0  0  0  0  0  0  0  0  0  0
  148.5120  157.0430  133.0460 C   0  0  0  0  0  0  0  0  0  0  0  0
  147.3650  156.2020  133.0060 C   0  0  0  0  0  0  0  0  0  0  0  0
  147.4710  154.7750  132.8120 N   0  0  0  0  0  0  0  0  0  0  0  0
  147.1930  153.7740  133.8530 C   0  0  2  0  0  0  0  0  0  0  0  0
  145.6860  153.4260  133.8890 C   0  0  0  0  0  0  0  0  0  0  0  0
  144.9480  154.2670  134.9320 C   0  0  0  0  0  0  0  0  0  0  0  0
  145.6210  154.1430  136.3190 C   0  0  0  0  0  0  0  0  0  0  0  0
  146.9460  153.6330  136.2650 O   0  0  0  0  0  0  0  0  0  0  0  0
  147.6740  154.2730  135.2370 C   0  0  0  0  0  0  0  0  0  0  0  0
  146.0830  156.7740  133.1650 C   0  0  0  0  0  0  0  0  0  0  0  0
  145.9820  158.1570  133.3460 C   0  0  0  0  0  0  0  0  0  0  0  0
  144.8690  158.9000  133.5360 N   0  0  0  0  0  0  0  0  0  0  0  0
  143.5250  158.4050  133.6180 C   0  0  0  0  0  0  0  0  0  0  0  0
  142.9570  157.9510  132.5860 O   0  0  0  0  0  0  0  0  0  0  0  0
  142.8270  158.4380  134.8650 N   0  0  0  0  0  0  0  0  0  0  0  0
  141.4940  157.8750  135.0440 C   0  0  0  0  0  0  0  0  0  0  0  0
  140.3870  158.3890  134.1060 C   0  0  0  0  0  0  0  0  0  0  0  0
  140.7470  159.5790  133.4560 O   0  0  0  0  0  0  0  0  0  0  0  0
  141.4600  156.4640  135.6110 C   0  0  0  0  0  0  0  0  0  0  0  0
  141.1280  157.6600  136.5030 C   0  0  0  0  0  0  0  0  0  0  0  0
  142.5190  160.3980  133.9420 H   0  0  0  0  0  0  0  0  0  0  0  0
  147.3262  161.1329  133.7388 H   0  0  0  0  0  0  0  0  0  0  0  0
  149.2656  159.0797  133.2874 H   0  0  0  0  0  0  0  0  0  0  0  0
  149.5125  156.6046  132.9166 H   0  0  0  0  0  0  0  0  0  0  0  0
  147.7410  154.4420  131.8580 H   0  0  0  0  0  0  0  0  0  0  0  0
  147.7510  152.8587  133.6064 H   0  0  0  0  0  0  0  0  0  0  0  0
  145.2494  153.6195  132.8981 H   0  0  0  0  0  0  0  0  0  0  0  0
  145.5803  152.3650  134.1594 H   0  0  0  0  0  0  0  0  0  0  0  0
  144.9607  155.3214  134.6187 H   0  0  0  0  0  0  0  0  0  0  0  0
  143.9135  153.9012  135.0098 H   0  0  0  0  0  0  0  0  0  0  0  0
  145.6510  155.1407  136.7814 H   0  0  0  0  0  0  0  0  0  0  0  0
  145.0240  153.4283  136.9044 H   0  0  0  0  0  0  0  0  0  0  0  0
  147.5203  155.3601  135.3051 H   0  0  0  0  0  0  0  0  0  0  0  0
  148.7422  154.0375  135.3527 H   0  0  0  0  0  0  0  0  0  0  0  0
  145.1817  156.1437  133.1468 H   0  0  0  0  0  0  0  0  0  0  0  0
  140.1818  157.6199  133.3468 H   0  0  0  0  0  0  0  0  0  0  0  0
  139.4977  158.5974  134.7191 H   0  0  0  0  0  0  0  0  0  0  0  0
  141.7390  159.5790  133.3880 H   0  0  0  0  0  0  0  0  0  0  0  0
  140.6654  155.7671  135.3061 H   0  0  0  0  0  0  0  0  0  0  0  0
  142.1726  155.6276  135.6625 H   0  0  0  0  0  0  0  0  0  0  0  0
  140.0942  157.8243  136.8411 H   0  0  0  0  0  0  0  0  0  0  0  0
  141.5025  158.0422  137.4641 H   0  0  0  0  0  0  0  0  0  0  0  0
  1  2  1  0
  2  3  2  0
  2  4  1  0
  4  5  2  0
  5  6  1  0
  6  7  2  0
  7  8  1  0
  8  9  2  0
  9 10  1  0
 10 11  1  0
 11 12  1  0
 12 13  1  0
 13 14  1  0
 14 15  1  0
 15 16  1  0
  9 17  1  0
 17 18  2  0
 18 19  1  0
 19 20  1  0
 20 21  2  0
 20 22  1  0
 22 23  1  0
 23 24  1  0
 24 25  1  0
 23 26  1  0
 26 27  1  0
 19  4  1  0
 27 23  1  0
 18  6  1  0
 16 11  1  0
  1 28  1  0
  5 29  1  0
  7 30  1  0
  8 31  1  0
 10 32  1  0
 11 33  1  6
 12 34  1  0
 12 35  1  0
 13 36  1  0
 13 37  1  0
 14 38  1  0
 14 39  1  0
 16 40  1  0
 16 41  1  0
 17 42  1  0
 24 43  1  0
 24 44  1  0
 25 45  1  0
 26 46  1  0
 26 47  1  0
 27 48  1  0
 27 49  1  0
M  CHG  2   1  -1  22  -1
M  END
>  <UniqueID>  (19) 
19

>  <SMILES>  (19) 
[NH-]C(=O)c1cc2ccc(N[C@@H]3CCCOC3)cc2n1C(=O)[N-]C1(CO)CC1

>  <Energy>  (19) 
365.0334079276999

>  <Genealogy>  (19) 
[NH-]C(=O)c1cc2ccc(NC3CCCOC3)cc2n1C(=O)[N-]C1(CO)CC1 (protonated)
[NH-]C(=O)c1cc2ccc(N[C@@H]3CCCOC3)cc2n1C(=O)[N-]C1(CO)CC1 (chirality)
[NH-]C(=O)c1cc2ccc(N[C@@H]3CCCOC3)cc2n1C(=O)[N-]C1(CO)CC1 (3D coordinates assigned)
[NH-]C(=O)c1cc2ccc(N[C@@H]3CCCOC3)cc2n1C(=O)[N-]C1(CO)CC1 (nonaromatic ring conformer: 365.0334079276999 kcal/mol)

>  <smiles>  (19) 
NC(=O)c1cc2ccc(NC3CCCOC3)cc2n1C(=O)NC1(CO)CC1

>  <score_type>  (19) 
oracle

>  <origin>  (19) 
adg

>  <m_score__min__energy>  (19) 
-8.0399999999999991

>  <m_primary>  (19) 
energy

$$$$
20:0
     RDKit          3D

 45 48  0  0  0  0  0  0  0  0999 V2000
  141.7200  158.8780  137.1200 C   0  0  0  0  0  0  0  0  0  0  0  0
  141.8270  157.6320  136.4670 O   0  0  0  0  0  0  0  0  0  0  0  0
  140.5480  157.1450  136.0890 C   0  0  2  0  0  0  0  0  0  0  0  0
  140.7230  156.0360  135.0010 C   0  0  0  0  0  0  0  0  0  0  0  0
  140.6740  156.5760  133.5420 C   0  0  1  0  0  0  0  0  0  0  0  0
  139.2490  156.5060  132.9850 C   0  0  0  0  0  0  0  0  0  0  0  0
  138.6230  157.8480  133.3670 C   0  0  0  0  0  0  0  0  0  0  0  0
  139.7430  158.6090  134.0870 C   0  0  1  0  0  0  0  0  0  0  0  0
  139.6880  158.3590  135.6190 C   0  0  0  0  0  0  0  0  0  0  0  0
  140.9600  158.0020  133.5660 N   0  0  0  0  0  0  0  0  0  0  0  0
  142.2800  158.5990  133.6010 C   0  0  0  0  0  0  0  0  0  0  0  0
  142.4360  160.0100  133.7030 C   0  0  0  0  0  0  0  0  0  0  0  0
  143.7100  160.5990  133.7130 C   0  0  0  0  0  0  0  0  0  0  0  0
  144.8170  159.7620  133.6360 C   0  0  0  0  0  0  0  0  0  0  0  0
  146.1570  160.0710  133.6050 C   0  0  0  0  0  0  0  0  0  0  0  0
  146.8160  158.8470  133.5180 C   0  0  0  0  0  0  0  0  0  0  0  0
  148.2880  158.6990  133.5520 C   0  0  0  0  0  0  0  0  0  0  0  0
  148.9580  157.8510  132.6160 N   0  0  0  0  0  0  0  0  0  0  0  0
  148.9700  159.3480  134.3880 O   0  0  0  0  0  0  0  0  0  0  0  0
  145.9180  157.8220  133.4950 N   0  0  0  0  0  0  0  0  0  0  0  0
  146.1970  156.4200  133.3410 C   0  0  0  0  0  0  0  0  0  0  0  0
  145.7570  155.5860  134.1750 O   0  0  0  0  0  0  0  0  0  0  0  0
  146.9440  155.9680  132.2600 O   0  0  0  0  0  0  0  0  0  0  0  0
  144.6970  158.4000  133.5660 C   0  0  0  0  0  0  0  0  0  0  0  0
  143.4390  157.7860  133.5360 C   0  0  0  0  0  0  0  0  0  0  0  0
  141.7333  158.7236  138.2090 H   0  0  0  0  0  0  0  0  0  0  0  0
  142.5665  159.5178  136.8301 H   0  0  0  0  0  0  0  0  0  0  0  0
  140.7768  159.3641  136.8301 H   0  0  0  0  0  0  0  0  0  0  0  0
  140.0178  156.6720  136.9287 H   0  0  0  0  0  0  0  0  0  0  0  0
  141.6957  155.5467  135.1575 H   0  0  0  0  0  0  0  0  0  0  0  0
  139.8791  155.3395  135.1140 H   0  0  0  0  0  0  0  0  0  0  0  0
  141.3831  155.9826  132.9461 H   0  0  0  0  0  0  0  0  0  0  0  0
  139.2642  156.3809  131.8922 H   0  0  0  0  0  0  0  0  0  0  0  0
  138.6843  155.6514  133.3861 H   0  0  0  0  0  0  0  0  0  0  0  0
  138.2980  158.3941  132.4691 H   0  0  0  0  0  0  0  0  0  0  0  0
  137.7302  157.7263  133.9979 H   0  0  0  0  0  0  0  0  0  0  0  0
  139.6723  159.6949  133.9261 H   0  0  0  0  0  0  0  0  0  0  0  0
  140.0526  159.2616  136.1312 H   0  0  0  0  0  0  0  0  0  0  0  0
  138.6421  158.1273  135.8690 H   0  0  0  0  0  0  0  0  0  0  0  0
  141.5437  160.6492  133.7752 H   0  0  0  0  0  0  0  0  0  0  0  0
  143.8288  161.6905  133.7798 H   0  0  0  0  0  0  0  0  0  0  0  0
  146.6116  161.0720  133.6412 H   0  0  0  0  0  0  0  0  0  0  0  0
  150.0000  157.7840  132.6230 H   0  0  0  0  0  0  0  0  0  0  0  0
  148.4250  157.2570  131.9440 H   0  0  0  0  0  0  0  0  0  0  0  0
  143.3518  156.6919  133.4633 H   0  0  0  0  0  0  0  0  0  0  0  0
  1  2  1  0
  2  3  1  0
  3  4  1  0
  4  5  1  0
  5  6  1  0
  6  7  1  0
  7  8  1  0
  8  9  1  0
  8 10  1  0
 10 11  1  0
 11 12  2  0
 12 13  1  0
 13 14  2  0
 14 15  1  0
 15 16  2  0
 16 17  1  0
 17 18  1  0
 17 19  2  0
 16 20  1  0
 20 21  1  0
 21 22  2  0
 21 23  1  0
 20 24  1  0
 24 25  2  0
  9  3  1  0
 25 11  1  0
 10  5  1  0
 24 14  1  0
  1 26  1  0
  1 27  1  0
  1 28  1  0
  3 29  1  1
  4 30  1  0
  4 31  1  0
  5 32  1  6
  6 33  1  0
  6 34  1  0
  7 35  1  0
  7 36  1  0
  8 37  1  1
  9 38  1  0
  9 39  1  0
 12 40  1  0
 13 41  1  0
 15 42  1  0
 18 43  1  0
 18 44  1  0
 25 45  1  0
M  CHG  1  23  -1
M  END
>  <UniqueID>  (20) 
20

>  <SMILES>  (20) 
COC1C[C@H]2CC[C@@H](C1)N2c1ccc2cc(C(N)=O)n(C(=O)[O-])c2c1

>  <Energy>  (20) 
114.05802223246455

>  <Genealogy>  (20) 
COC1CC2CCC(C1)N2c1ccc2cc(C(N)=O)n(C(=O)[O-])c2c1 (protonated)
COC1C[C@H]2CC[C@@H](C1)N2c1ccc2cc(C(N)=O)n(C(=O)[O-])c2c1 (chirality)
COC1C[C@H]2CC[C@@H](C1)N2c1ccc2cc(C(N)=O)n(C(=O)[O-])c2c1 (3D coordinates assigned)
COC1C[C@H]2CC[C@@H](C1)N2c1ccc2cc(C(N)=O)n(C(=O)[O-])c2c1 (nonaromatic ring conformer: 114.05802223246455 kcal/mol)

>  <smiles>  (20) 
COC1CC2CCC(C1)N2c1ccc2cc(C(N)=O)n(C(=O)O)c2c1

>  <score_type>  (20) 
oracle

>  <origin>  (20) 
adg

>  <m_score__min__energy>  (20) 
-7.7000000000000002

>  <m_primary>  (20) 
energy

$$$$
21:0
     RDKit          3D

 37 39  0  0  0  0  0  0  0  0999 V2000
  138.3340  157.4920  133.7400 C   0  0  0  0  0  0  0  0  0  0  0  0
  139.5630  158.0640  134.2730 N   0  0  0  0  0  0  0  0  0  0  0  0
  140.6410  158.4210  133.5540 C   0  0  0  0  0  0  0  0  0  0  0  0
  141.6210  158.8540  134.4300 C   0  0  0  0  0  0  0  0  0  0  0  0
  142.9820  159.3470  134.1000 C   0  0  0  0  0  0  0  0  0  0  0  0
  143.2660  160.7390  134.1000 C   0  0  0  0  0  0  0  0  0  0  0  0
  144.5530  161.2130  133.7970 C   0  0  0  0  0  0  0  0  0  0  0  0
  145.5360  160.2800  133.4870 C   0  0  0  0  0  0  0  0  0  0  0  0
  146.8650  160.4640  133.1820 C   0  0  0  0  0  0  0  0  0  0  0  0
  147.3760  159.1850  132.9720 C   0  0  0  0  0  0  0  0  0  0  0  0
  148.7630  158.9270  132.5290 C   0  0  0  0  0  0  0  0  0  0  0  0
  149.0280  158.2770  131.2890 N   0  0  0  0  0  0  0  0  0  0  0  0
  149.7270  159.3330  133.2310 O   0  0  0  0  0  0  0  0  0  0  0  0
  146.4040  158.2460  133.1520 N   0  0  0  0  0  0  0  0  0  0  0  0
  146.5340  156.8170  133.1070 C   0  0  0  0  0  0  0  0  0  0  0  0
  147.0550  156.2640  132.0990 O   0  0  0  0  0  0  0  0  0  0  0  0
  146.1100  156.0480  134.1930 O   0  0  0  0  0  0  0  0  0  0  0  0
  147.0150  155.4080  135.0850 C   0  0  0  0  0  0  0  0  0  0  0  0
  146.2800  154.3820  135.8770 C   0  0  0  0  0  0  0  0  0  0  0  0
  145.0300  154.4640  136.0160 O   0  0  0  0  0  0  0  0  0  0  0  0
  146.9780  153.3630  136.5130 O   0  0  0  0  0  0  0  0  0  0  0  0
  145.2830  158.9340  133.4640 C   0  0  0  0  0  0  0  0  0  0  0  0
  144.0150  158.4320  133.7820 C   0  0  0  0  0  0  0  0  0  0  0  0
  141.0520  158.7130  135.6890 C   0  0  0  0  0  0  0  0  0  0  0  0
  139.8030  158.2210  135.5640 N   0  0  0  0  0  0  0  0  0  0  0  0
  137.6806  157.1879  134.5710 H   0  0  0  0  0  0  0  0  0  0  0  0
  137.8177  158.2424  133.1233 H   0  0  0  0  0  0  0  0  0  0  0  0
  138.5756  156.6138  133.1233 H   0  0  0  0  0  0  0  0  0  0  0  0
  140.7291  158.3767  132.4584 H   0  0  0  0  0  0  0  0  0  0  0  0
  142.4669  161.4556  134.3407 H   0  0  0  0  0  0  0  0  0  0  0  0
  144.7764  162.2900  133.8047 H   0  0  0  0  0  0  0  0  0  0  0  0
  147.4085  161.4182  133.1177 H   0  0  0  0  0  0  0  0  0  0  0  0
  148.4640  157.4530  130.9830 H   0  0  0  0  0  0  0  0  0  0  0  0
  147.8174  154.9232  134.5097 H   0  0  0  0  0  0  0  0  0  0  0  0
  147.4539  156.1539  135.7639 H   0  0  0  0  0  0  0  0  0  0  0  0
  143.8251  157.3485  133.7847 H   0  0  0  0  0  0  0  0  0  0  0  0
  141.5439  158.9638  136.6404 H   0  0  0  0  0  0  0  0  0  0  0  0
  1  2  1  0
  2  3  1  0
  3  4  2  0
  4  5  1  0
  5  6  2  0
  6  7  1  0
  7  8  2  0
  8  9  1  0
  9 10  2  0
 10 11  1  0
 11 12  1  0
 11 13  2  0
 10 14  1  0
 14 15  1  0
 15 16  2  0
 15 17  1  0
 17 18  1  0
 18 19  1  0
 19 20  2  0
 19 21  1  0
 14 22  1  0
 22 23  2  0
  4 24  1  0
 24 25  2  0
 25  2  1  0
 23  5  1  0
 22  8  1  0
  1 26  1  0
  1 27  1  0
  1 28  1  0
  3 29  1  0
  6 30  1  0
  7 31  1  0
  9 32  1  0
 12 33  1  0
 18 34  1  0
 18 35  1  0
 23 36  1  0
 24 37  1  0
M  CHG  2  12  -1  21  -1
M  END
>  <UniqueID>  (21) 
21

>  <SMILES>  (21) 
Cn1cc(-c2ccc3cc(C([NH-])=O)n(C(=O)OCC(=O)[O-])c3c2)cn1

>  <Energy>  (21) 
106.25634216346499

>  <Genealogy>  (21) 
Cn1cc(-c2ccc3cc(C([NH-])=O)n(C(=O)OCC(=O)[O-])c3c2)cn1 (protonated)
Cn1cc(-c2ccc3cc(C([NH-])=O)n(C(=O)OCC(=O)[O-])c3c2)cn1 (3D coordinates assigned)
Cn1cc(-c2ccc3cc(C([NH-])=O)n(C(=O)OCC(=O)[O-])c3c2)cn1 (optimized conformer: 106.25634216346499 kcal/mol)

>  <smiles>  (21) 
Cn1cc(-c2ccc3cc(C(N)=O)n(C(=O)OCC(=O)O)c3c2)cn1

>  <score_type>  (21) 
oracle

>  <origin>  (21) 
adg

>  <m_score__min__energy>  (21) 
-7.2199999999999998

>  <m_primary>  (21) 
energy

$$$$
22:0
     RDKit          3D

 41 42  0  0  0  0  0  0  0  0999 V2000
  145.4940  154.8650  136.7240 H   0  0  0  0  0  0  0  0  0  0  0  0
  144.6060  154.6260  136.2300 N   0  0  0  0  0  0  0  0  0  0  0  0
  144.1930  155.3480  135.0740 C   0  0  0  0  0  0  0  0  0  0  0  0
  143.0360  155.1590  134.6110 O   0  0  0  0  0  0  0  0  0  0  0  0
  145.0830  156.3420  134.4350 C   0  0  0  0  0  0  0  0  0  0  0  0
  144.6610  157.6070  134.0310 C   0  0  0  0  0  0  0  0  0  0  0  0
  143.6427  158.0193  134.0857 H   0  0  0  0  0  0  0  0  0  0  0  0
  145.7890  158.2310  133.5490 C   0  0  0  0  0  0  0  0  0  0  0  0
  145.9470  159.5010  133.0040 C   0  0  0  0  0  0  0  0  0  0  0  0
  145.0962  160.1938  132.9254 H   0  0  0  0  0  0  0  0  0  0  0  0
  147.2260  159.8720  132.5570 C   0  0  0  0  0  0  0  0  0  0  0  0
  147.3819  160.8730  132.1283 H   0  0  0  0  0  0  0  0  0  0  0  0
  148.3180  158.9740  132.6510 C   0  0  0  0  0  0  0  0  0  0  0  0
  149.6100  159.3900  132.1710 N   0  0  0  0  0  0  0  0  0  0  0  0
  150.4550  159.1790  132.7480 H   0  0  0  0  0  0  0  0  0  0  0  0
  149.8110  160.0890  130.9060 C   0  0  0  0  0  0  0  0  0  0  0  0
  150.1100  161.1287  131.1051 H   0  0  0  0  0  0  0  0  0  0  0  0
  150.6004  159.5844  130.3297 H   0  0  0  0  0  0  0  0  0  0  0  0
  148.8741  160.0808  130.3297 H   0  0  0  0  0  0  0  0  0  0  0  0
  148.1150  157.6870  133.2080 C   0  0  0  0  0  0  0  0  0  0  0  0
  148.9436  156.9670  133.2794 H   0  0  0  0  0  0  0  0  0  0  0  0
  146.8350  157.3540  133.6650 C   0  0  0  0  0  0  0  0  0  0  0  0
  146.4180  156.1900  134.2090 N   0  0  0  0  0  0  0  0  0  0  0  0
  147.2170  155.0150  134.4180 C   0  0  0  0  0  0  0  0  0  0  0  0
  147.3480  154.5510  135.5840 O   0  0  0  0  0  0  0  0  0  0  0  0
  147.8770  154.3590  133.2730 C   0  0  0  0  0  0  0  0  0  0  0  0
  147.7234  154.7722  132.2652 H   0  0  0  0  0  0  0  0  0  0  0  0
  148.6540  153.2820  133.4150 C   0  0  0  0  0  0  0  0  0  0  0  0
  148.8227  152.8602  134.4168 H   0  0  0  0  0  0  0  0  0  0  0  0
  149.3000  152.6410  132.2190 C   0  0  0  0  0  0  0  0  0  0  0  0
  148.5173  152.2563  131.5486 H   0  0  0  0  0  0  0  0  0  0  0  0
  149.9101  153.3948  131.6999 H   0  0  0  0  0  0  0  0  0  0  0  0
  150.1750  151.5250  132.6340 N   0  0  0  0  0  0  0  0  0  0  0  0
  149.6340  150.8570  133.8320 C   0  0  0  0  0  0  0  0  0  0  0  0
  150.0298  151.3457  134.7345 H   0  0  0  0  0  0  0  0  0  0  0  0
  148.5364  150.9287  133.8276 H   0  0  0  0  0  0  0  0  0  0  0  0
  149.9323  149.7982  133.8276 H   0  0  0  0  0  0  0  0  0  0  0  0
  150.2990  150.5460  131.5420 C   0  0  0  0  0  0  0  0  0  0  0  0
  150.4266  149.5388  131.9653 H   0  0  0  0  0  0  0  0  0  0  0  0
  149.3905  150.5709  130.9223 H   0  0  0  0  0  0  0  0  0  0  0  0
  151.1726  150.7966  130.9223 H   0  0  0  0  0  0  0  0  0  0  0  0
  1  2  1  0
  2  3  1  0
  3  4  2  0
  3  5  1  0
  5  6  2  0
  6  7  1  0
  6  8  1  0
  8  9  2  0
  9 10  1  0
  9 11  1  0
 11 12  1  0
 11 13  2  0
 13 14  1  0
 14 15  1  0
 14 16  1  0
 16 17  1  0
 16 18  1  0
 16 19  1  0
 13 20  1  0
 20 21  1  0
 20 22  2  0
 22 23  1  0
 23 24  1  0
 24 25  2  0
 24 26  1  0
 26 27  1  0
 26 28  2  0
 28 29  1  0
 28 30  1  0
 30 31  1  0
 30 32  1  0
 30 33  1  0
 33 34  1  0
 34 35  1  0
 34 36  1  0
 34 37  1  0
 33 38  1  0
 38 39  1  0
 38 40  1  0
 38 41  1  0
 23  5  1  0
 22  8  1  0
M  CHG  1   2  -1
M  END
>  <UniqueID>  (22) 
22

>  <SMILES>  (22) 
CNc1ccc2cc(C([NH-])=O)n(C(=O)/C=C/CN(C)C)c2c1

>  <Energy>  (22) 
76.28623953690797

>  <Genealogy>  (22) 
CNc1ccc2cc(C([NH-])=O)n(C(=O)/C=C/CN(C)C)c2c1 (protonated)
CNc1ccc2cc(C([NH-])=O)n(C(=O)/C=C/CN(C)C)c2c1 (cis-trans isomerization)
CNc1ccc2cc(C([NH-])=O)n(C(=O)/C=C/CN(C)C)c2c1 (3D coordinates assigned)
CNc1ccc2cc(C([NH-])=O)n(C(=O)/C=C/CN(C)C)c2c1 (optimized conformer: 76.28623953690797 kcal/mol)

>  <smiles>  (22) 
CNc1ccc2cc(C(N)=O)n(C(=O)/C=C/CN(C)C)c2c1

>  <score_type>  (22) 
oracle

>  <origin>  (22) 
adg

>  <m_score__min__energy>  (22) 
-7.2599999999999998

>  <m_primary>  (22) 
energy

$$$$
23:0
     RDKit          3D

 31 33  0  0  0  0  0  0  0  0999 V2000
  149.3940  158.9780  133.3110 N   0  0  0  0  0  0  0  0  0  0  0  0
  148.3020  159.6350  132.6650 C   0  0  0  0  0  0  0  0  0  0  0  0
  148.5250  160.3310  131.6390 O   0  0  0  0  0  0  0  0  0  0  0  0
  146.9140  159.4730  133.1430 C   0  0  0  0  0  0  0  0  0  0  0  0
  146.0500  160.5420  133.3660 C   0  0  0  0  0  0  0  0  0  0  0  0
  144.8520  159.9690  133.7340 C   0  0  0  0  0  0  0  0  0  0  0  0
  143.6440  160.5640  134.0790 C   0  0  0  0  0  0  0  0  0  0  0  0
  142.5760  159.7260  134.4420 C   0  0  0  0  0  0  0  0  0  0  0  0
  142.7320  158.3080  134.4630 C   0  0  0  0  0  0  0  0  0  0  0  0
  141.6240  157.3450  134.8550 C   0  0  0  0  0  0  0  0  0  0  0  0
  140.6720  157.7900  135.9550 C   0  0  0  0  0  0  0  0  0  0  0  0
  140.1970  157.7470  134.5070 C   0  0  0  0  0  0  0  0  0  0  0  0
  143.9810  157.7510  134.1060 C   0  0  0  0  0  0  0  0  0  0  0  0
  145.0200  158.6100  133.7340 C   0  0  0  0  0  0  0  0  0  0  0  0
  146.2840  158.2880  133.3820 N   0  0  0  0  0  0  0  0  0  0  0  0
  146.8430  156.9640  133.3630 C   0  0  0  0  0  0  0  0  0  0  0  0
  146.8470  156.3060  132.2890 O   0  0  0  0  0  0  0  0  0  0  0  0
  147.3840  156.3510  134.5850 C   0  0  0  0  0  0  0  0  0  0  0  0
  148.3480  156.8840  135.1950 O   0  0  0  0  0  0  0  0  0  0  0  0
  146.8170  155.1860  135.0870 O   0  0  0  0  0  0  0  0  0  0  0  0
  149.2320  158.2520  134.0430 H   0  0  0  0  0  0  0  0  0  0  0  0
  150.3730  159.1510  132.9900 H   0  0  0  0  0  0  0  0  0  0  0  0
  146.2755  161.6143  133.2691 H   0  0  0  0  0  0  0  0  0  0  0  0
  143.5276  161.6578  134.0682 H   0  0  0  0  0  0  0  0  0  0  0  0
  141.6066  160.1693  134.7136 H   0  0  0  0  0  0  0  0  0  0  0  0
  142.2468  156.4557  134.6782 H   0  0  0  0  0  0  0  0  0  0  0  0
  140.2898  157.0575  136.6812 H   0  0  0  0  0  0  0  0  0  0  0  0
  140.6979  158.5574  136.7427 H   0  0  0  0  0  0  0  0  0  0  0  0
  139.4724  156.9833  134.1880 H   0  0  0  0  0  0  0  0  0  0  0  0
  139.7384  158.4700  133.8164 H   0  0  0  0  0  0  0  0  0  0  0  0
  144.1331  156.6617  134.1205 H   0  0  0  0  0  0  0  0  0  0  0  0
  1  2  1  0
  2  3  2  0
  2  4  1  0
  4  5  2  0
  5  6  1  0
  6  7  2  0
  7  8  1  0
  8  9  2  0
  9 10  1  0
 10 11  1  0
 11 12  1  0
  9 13  1  0
 13 14  2  0
 14 15  1  0
 15 16  1  0
 16 17  2  0
 16 18  1  0
 18 19  2  0
 18 20  1  0
 15  4  1  0
 14  6  1  0
 12 10  1  0
  1 21  1  0
  1 22  1  0
  5 23  1  0
  7 24  1  0
  8 25  1  0
 10 26  1  0
 11 27  1  0
 11 28  1  0
 12 29  1  0
 12 30  1  0
 13 31  1  0
M  CHG  1  20  -1
M  END
>  <UniqueID>  (23) 
23

>  <SMILES>  (23) 
NC(=O)c1cc2ccc(C3CC3)cc2n1C(=O)C(=O)[O-]

>  <Energy>  (23) 
340.351485500468

>  <Genealogy>  (23) 
NC(=O)c1cc2ccc(C3CC3)cc2n1C(=O)C(=O)[O-] (protonated)
NC(=O)c1cc2ccc(C3CC3)cc2n1C(=O)C(=O)[O-] (3D coordinates assigned)
NC(=O)c1cc2ccc(C3CC3)cc2n1C(=O)C(=O)[O-] (nonaromatic ring conformer: 340.351485500468 kcal/mol)

>  <smiles>  (23) 
NC(=O)c1cc2ccc(C3CC3)cc2n1C(=O)C(=O)O

>  <score_type>  (23) 
oracle

>  <origin>  (23) 
adg

>  <m_score__min__energy>  (23) 
-6.8399999999999999

>  <m_primary>  (23) 
energy

$$$$
24:0
     RDKit          3D

 45 46  0  0  0  0  0  0  0  0999 V2000
  147.0380  151.6020  132.2330 C   0  0  0  0  0  0  0  0  0  0  0  0
  147.9810  152.4530  132.9790 N   0  0  0  0  0  0  0  0  0  0  0  0
  149.3850  152.3160  132.5260 C   0  0  0  0  0  0  0  0  0  0  0  0
  150.0960  151.0300  132.9960 C   0  0  0  0  0  0  0  0  0  0  0  0
  149.3510  150.3520  133.9700 O   0  0  0  0  0  0  0  0  0  0  0  0
  147.5170  153.8530  133.1060 C   0  0  0  0  0  0  0  0  0  0  0  0
  148.6050  154.8160  132.6210 C   0  0  0  0  0  0  0  0  0  0  0  0
  148.1950  156.2530  132.8010 C   0  0  0  0  0  0  0  0  0  0  0  0
  149.1380  157.2910  132.5990 C   0  0  0  0  0  0  0  0  0  0  0  0
  148.7520  158.6380  132.7050 C   0  0  0  0  0  0  0  0  0  0  0  0
  147.4230  158.9150  133.0100 C   0  0  0  0  0  0  0  0  0  0  0  0
  146.7750  160.1220  133.1290 C   0  0  0  0  0  0  0  0  0  0  0  0
  145.4490  159.8040  133.4130 C   0  0  0  0  0  0  0  0  0  0  0  0
  144.4130  160.8180  133.6970 C   0  0  0  0  0  0  0  0  0  0  0  0
  143.0430  160.5760  133.3860 N   0  0  0  0  0  0  0  0  0  0  0  0
  144.7340  161.8950  134.2680 O   0  0  0  0  0  0  0  0  0  0  0  0
  145.2810  158.4520  133.4600 N   0  0  0  0  0  0  0  0  0  0  0  0
  144.0570  157.7180  133.6220 C   0  0  0  0  0  0  0  0  0  0  0  0
  143.8740  157.0210  134.6560 O   0  0  0  0  0  0  0  0  0  0  0  0
  143.0620  157.8050  132.6420 O   0  0  0  0  0  0  0  0  0  0  0  0
  141.6720  157.7930  132.9480 C   0  0  0  0  0  0  0  0  0  0  0  0
  141.0170  158.7630  132.1700 O   0  0  0  0  0  0  0  0  0  0  0  0
  139.3040  158.4610  132.3030 P   0  0  0  0  0  0  0  0  0  0  0  0
  138.3000  159.3170  131.4860 O   0  0  0  0  0  0  0  0  0  0  0  0
  146.5000  157.9220  133.2170 C   0  0  0  0  0  0  0  0  0  0  0  0
  146.8530  156.5730  133.1050 C   0  0  0  0  0  0  0  0  0  0  0  0
  146.4134  151.0383  132.9416 H   0  0  0  0  0  0  0  0  0  0  0  0
  146.3965  152.2329  131.6002 H   0  0  0  0  0  0  0  0  0  0  0  0
  147.5999  150.8993  131.6002 H   0  0  0  0  0  0  0  0  0  0  0  0
  149.3920  152.3279  131.4261 H   0  0  0  0  0  0  0  0  0  0  0  0
  149.9372  153.1554  132.9738 H   0  0  0  0  0  0  0  0  0  0  0  0
  150.2399  150.3658  132.1310 H   0  0  0  0  0  0  0  0  0  0  0  0
  151.0615  151.3147  133.4396 H   0  0  0  0  0  0  0  0  0  0  0  0
  148.4900  150.8370  134.0560 H   0  0  0  0  0  0  0  0  0  0  0  0
  146.6109  153.9922  132.4980 H   0  0  0  0  0  0  0  0  0  0  0  0
  147.2957  154.0637  134.1627 H   0  0  0  0  0  0  0  0  0  0  0  0
  149.5252  154.6330  133.1952 H   0  0  0  0  0  0  0  0  0  0  0  0
  148.7686  154.6372  131.5480 H   0  0  0  0  0  0  0  0  0  0  0  0
  150.1814  157.0403  132.3571 H   0  0  0  0  0  0  0  0  0  0  0  0
  149.4788  159.4493  132.5514 H   0  0  0  0  0  0  0  0  0  0  0  0
  147.2114  161.1261  133.0225 H   0  0  0  0  0  0  0  0  0  0  0  0
  142.7740  159.9520  132.5940 H   0  0  0  0  0  0  0  0  0  0  0  0
  141.2551  156.7999  132.7246 H   0  0  0  0  0  0  0  0  0  0  0  0
  141.5275  158.0173  134.0152 H   0  0  0  0  0  0  0  0  0  0  0  0
  146.1039  155.7807  133.2501 H   0  0  0  0  0  0  0  0  0  0  0  0
  1  2  1  0
  2  3  1  0
  3  4  1  0
  4  5  1  0
  2  6  1  0
  6  7  1  0
  7  8  1  0
  8  9  2  0
  9 10  1  0
 10 11  2  0
 11 12  1  0
 12 13  2  0
 13 14  1  0
 14 15  1  0
 14 16  2  0
 13 17  1  0
 17 18  1  0
 18 19  2  0
 18 20  1  0
 20 21  1  0
 21 22  1  0
 22 23  1  0
 23 24  2  0
 17 25  1  0
 25 26  2  0
 26  8  1  0
 25 11  1  0
  1 27  1  0
  1 28  1  0
  1 29  1  0
  3 30  1  0
  3 31  1  0
  4 32  1  0
  4 33  1  0
  5 34  1  0
  6 35  1  0
  6 36  1  0
  7 37  1  0
  7 38  1  0
  9 39  1  0
 10 40  1  0
 12 41  1  0
 15 42  1  0
 21 43  1  0
 21 44  1  0
 26 45  1  0
M  CHG  1  15  -1
M  END
>  <UniqueID>  (24) 
24

>  <SMILES>  (24) 
CN(CCO)CCc1ccc2cc(C([NH-])=O)n(C(=O)OCOP=O)c2c1

>  <Energy>  (24) 
83.8100543105567

>  <Genealogy>  (24) 
CN(CCO)CCc1ccc2cc(C([NH-])=O)n(C(=O)OCOP=O)c2c1 (protonated)
CN(CCO)CCc1ccc2cc(C([NH-])=O)n(C(=O)OCOP=O)c2c1 (3D coordinates assigned)
CN(CCO)CCc1ccc2cc(C([NH-])=O)n(C(=O)OCOP=O)c2c1 (optimized conformer: 83.8100543105567 kcal/mol)

>  <smiles>  (24) 
CN(CCO)CCc1ccc2cc(C(N)=O)n(C(=O)OCOP=O)c2c1

>  <score_type>  (24) 
oracle

>  <origin>  (24) 
adg

>  <m_score__min__energy>  (24) 
-6.4299999999999997

>  <m_primary>  (24) 
energy

$$$$
25:0
     RDKit          3D

 47 49  0  0  0  0  0  0  0  0999 V2000
  139.4500  160.8350  132.1480 C   0  0  0  0  0  0  0  0  0  0  0  0
  140.3350  159.7160  132.6840 C   0  0  0  0  0  0  0  0  0  0  0  0
  139.8210  158.4070  132.2040 N   0  0  0  0  0  0  0  0  0  0  0  0
  139.1130  158.5940  130.9200 C   0  0  0  0  0  0  0  0  0  0  0  0
  138.9790  157.7110  133.2260 C   0  0  0  0  0  0  0  0  0  0  0  0
  139.3800  158.1170  134.6730 C   0  0  0  0  0  0  0  0  0  0  0  0
  140.7420  157.5400  135.1150 C   0  0  0  0  0  0  0  0  0  0  0  0
  141.3590  156.7320  134.0550 N   0  0  0  0  0  0  0  0  0  0  0  0
  142.7670  156.8500  133.7910 C   0  0  0  0  0  0  0  0  0  0  0  0
  143.5530  155.6920  133.5720 C   0  0  0  0  0  0  0  0  0  0  0  0
  144.9360  155.7970  133.3500 C   0  0  0  0  0  0  0  0  0  0  0  0
  145.5020  157.0690  133.3550 C   0  0  0  0  0  0  0  0  0  0  0  0
  146.8150  157.4530  133.2040 C   0  0  0  0  0  0  0  0  0  0  0  0
  146.8090  158.8420  133.3190 C   0  0  0  0  0  0  0  0  0  0  0  0
  148.0150  159.6770  133.1370 C   0  0  0  0  0  0  0  0  0  0  0  0
  147.9740  160.7990  132.2600 N   0  0  0  0  0  0  0  0  0  0  0  0
  149.0720  159.4330  133.7760 O   0  0  0  0  0  0  0  0  0  0  0  0
  145.5420  159.2990  133.5410 N   0  0  0  0  0  0  0  0  0  0  0  0
  145.1200  160.6500  133.7860 C   0  0  0  0  0  0  0  0  0  0  0  0
  145.9590  161.5320  134.1080 O   0  0  0  0  0  0  0  0  0  0  0  0
  143.7770  160.9930  133.6980 O   0  0  0  0  0  0  0  0  0  0  0  0
  144.7540  158.2010  133.5550 C   0  0  0  0  0  0  0  0  0  0  0  0
  143.3780  158.1230  133.7930 C   0  0  0  0  0  0  0  0  0  0  0  0
  140.5630  155.7050  133.3650 C   0  0  0  0  0  0  0  0  0  0  0  0
  139.1080  156.1680  133.1580 C   0  0  0  0  0  0  0  0  0  0  0  0
  139.0108  161.3903  132.9899 H   0  0  0  0  0  0  0  0  0  0  0  0
  140.0547  161.5183  131.5336 H   0  0  0  0  0  0  0  0  0  0  0  0
  138.6458  160.4040  131.5336 H   0  0  0  0  0  0  0  0  0  0  0  0
  141.3651  159.8594  132.3259 H   0  0  0  0  0  0  0  0  0  0  0  0
  140.3241  159.7339  133.7838 H   0  0  0  0  0  0  0  0  0  0  0  0
  138.0664  158.8704  131.1153 H   0  0  0  0  0  0  0  0  0  0  0  0
  139.6022  159.3937  130.3446 H   0  0  0  0  0  0  0  0  0  0  0  0
  139.1435  157.6570  130.3446 H   0  0  0  0  0  0  0  0  0  0  0  0
  137.9484  158.0180  132.9943 H   0  0  0  0  0  0  0  0  0  0  0  0
  139.4323  159.2145  134.7257 H   0  0  0  0  0  0  0  0  0  0  0  0
  138.6170  157.7049  135.3498 H   0  0  0  0  0  0  0  0  0  0  0  0
  141.4164  158.3715  135.3678 H   0  0  0  0  0  0  0  0  0  0  0  0
  140.5729  156.8908  135.9868 H   0  0  0  0  0  0  0  0  0  0  0  0
  143.0757  154.7010  133.5758 H   0  0  0  0  0  0  0  0  0  0  0  0
  145.5525  154.9024  133.1776 H   0  0  0  0  0  0  0  0  0  0  0  0
  147.6844  156.8020  133.0296 H   0  0  0  0  0  0  0  0  0  0  0  0
  147.4390  161.6600  132.5130 H   0  0  0  0  0  0  0  0  0  0  0  0
  142.7860  159.0316  133.9773 H   0  0  0  0  0  0  0  0  0  0  0  0
  141.0164  155.4996  132.3841 H   0  0  0  0  0  0  0  0  0  0  0  0
  140.5530  154.7980  133.9874 H   0  0  0  0  0  0  0  0  0  0  0  0
  138.7623  155.8251  132.1717 H   0  0  0  0  0  0  0  0  0  0  0  0
  138.4948  155.7381  133.9637 H   0  0  0  0  0  0  0  0  0  0  0  0
  1  2  1  0
  2  3  1  0
  3  4  1  0
  3  5  1  0
  5  6  1  0
  6  7  1  0
  7  8  1  0
  8  9  1  0
  9 10  2  0
 10 11  1  0
 11 12  2  0
 12 13  1  0
 13 14  2  0
 14 15  1  0
 15 16  1  0
 15 17  2  0
 14 18  1  0
 18 19  1  0
 19 20  2  0
 19 21  1  0
 18 22  1  0
 22 23  2  0
  8 24  1  0
 24 25  1  0
 25  5  1  0
 23  9  1  0
 22 12  1  0
  1 26  1  0
  1 27  1  0
  1 28  1  0
  2 29  1  0
  2 30  1  0
  4 31  1  0
  4 32  1  0
  4 33  1  0
  5 34  1  0
  6 35  1  0
  6 36  1  0
  7 37  1  0
  7 38  1  0
 10 39  1  0
 11 40  1  0
 13 41  1  0
 16 42  1  0
 23 43  1  0
 24 44  1  0
 24 45  1  0
 25 46  1  0
 25 47  1  0
M  CHG  2  16  -1  21  -1
M  END
>  <UniqueID>  (25) 
25

>  <SMILES>  (25) 
CCN(C)C1CCN(c2ccc3cc(C([NH-])=O)n(C(=O)[O-])c3c2)CC1

>  <Energy>  (25) 
100.53205229381787

>  <Genealogy>  (25) 
CCN(C)C1CCN(c2ccc3cc(C([NH-])=O)n(C(=O)[O-])c3c2)CC1 (protonated)
CCN(C)C1CCN(c2ccc3cc(C([NH-])=O)n(C(=O)[O-])c3c2)CC1 (3D coordinates assigned)
CCN(C)C1CCN(c2ccc3cc(C([NH-])=O)n(C(=O)[O-])c3c2)CC1 (nonaromatic ring conformer: 100.53205229381787 kcal/mol)

>  <smiles>  (25) 
CCN(C)C1CCN(c2ccc3cc(C(N)=O)n(C(=O)O)c3c2)CC1

>  <score_type>  (25) 
oracle

>  <origin>  (25) 
adg

>  <m_score__min__energy>  (25) 
-7.5099999999999998

>  <m_primary>  (25) 
energy

$$$$
26:0
     RDKit          3D

 52 53  0  0  0  0  0  0  0  0999 V2000
  138.1390  160.1260  130.6710 C   0  0  0  0  0  0  0  0  0  0  0  0
  138.3260  159.4970  131.8290 C   0  0  0  0  0  0  0  0  0  0  0  0
  139.5350  158.7110  132.1180 C   0  0  0  0  0  0  0  0  0  0  0  0
  140.6110  159.0040  131.5380 O   0  0  0  0  0  0  0  0  0  0  0  0
  139.4960  157.6230  133.0440 N   0  0  0  0  0  0  0  0  0  0  0  0
  140.5820  157.3400  133.9700 C   0  0  0  0  0  0  0  0  0  0  0  0
  140.9810  158.6180  134.6990 C   0  0  0  0  0  0  0  0  0  0  0  0
  142.3680  159.0480  134.3070 C   0  0  0  0  0  0  0  0  0  0  0  0
  142.6600  160.4230  134.1230 C   0  0  0  0  0  0  0  0  0  0  0  0
  143.9440  160.8350  133.7300 C   0  0  0  0  0  0  0  0  0  0  0  0
  144.9090  159.8540  133.5190 C   0  0  0  0  0  0  0  0  0  0  0  0
  146.2220  159.9720  133.1300 C   0  0  0  0  0  0  0  0  0  0  0  0
  146.7100  158.6690  133.0720 C   0  0  0  0  0  0  0  0  0  0  0  0
  148.1290  158.3290  132.8340 C   0  0  0  0  0  0  0  0  0  0  0  0
  148.4900  157.3010  131.9090 N   0  0  0  0  0  0  0  0  0  0  0  0
  149.0360  158.9720  133.4240 O   0  0  0  0  0  0  0  0  0  0  0  0
  145.7290  157.7790  133.3960 N   0  0  0  0  0  0  0  0  0  0  0  0
  145.7870  156.3430  133.3710 C   0  0  0  0  0  0  0  0  0  0  0  0
  146.0620  155.7490  132.2940 O   0  0  0  0  0  0  0  0  0  0  0  0
  145.6360  155.5280  134.6290 C   0  0  0  0  0  0  0  0  0  0  0  0
  146.9820  155.3290  135.3500 C   0  0  0  0  0  0  0  0  0  0  0  0
  147.4600  153.8690  135.3310 C   0  0  0  0  0  0  0  0  0  0  0  0
  147.4490  153.2840  136.6910 N   0  0  0  0  0  0  0  0  0  0  0  0
  146.1120  153.3860  137.2970 C   0  0  0  0  0  0  0  0  0  0  0  0
  148.4330  153.9580  137.5510 C   0  0  0  0  0  0  0  0  0  0  0  0
  144.6400  158.5220  133.6870 C   0  0  0  0  0  0  0  0  0  0  0  0
  143.3680  158.0810  134.0700 C   0  0  0  0  0  0  0  0  0  0  0  0
  137.2177  160.7023  130.5006 H   0  0  0  0  0  0  0  0  0  0  0  0
  138.9058  160.0696  129.8844 H   0  0  0  0  0  0  0  0  0  0  0  0
  137.5452  159.5678  132.6006 H   0  0  0  0  0  0  0  0  0  0  0  0
  140.2516  156.5889  134.7026 H   0  0  0  0  0  0  0  0  0  0  0  0
  141.4470  156.9543  133.4105 H   0  0  0  0  0  0  0  0  0  0  0  0
  140.2699  159.4167  134.4414 H   0  0  0  0  0  0  0  0  0  0  0  0
  140.9655  158.4248  135.7818 H   0  0  0  0  0  0  0  0  0  0  0  0
  141.8738  161.1741  134.2895 H   0  0  0  0  0  0  0  0  0  0  0  0
  144.1800  161.9006  133.5931 H   0  0  0  0  0  0  0  0  0  0  0  0
  146.7712  160.8995  132.9108 H   0  0  0  0  0  0  0  0  0  0  0  0
  149.4970  157.1160  131.7050 H   0  0  0  0  0  0  0  0  0  0  0  0
  147.7660  156.7300  131.4200 H   0  0  0  0  0  0  0  0  0  0  0  0
  144.9425  156.0465  135.3074 H   0  0  0  0  0  0  0  0  0  0  0  0
  145.2500  154.5369  134.3485 H   0  0  0  0  0  0  0  0  0  0  0  0
  147.7408  155.9533  134.8555 H   0  0  0  0  0  0  0  0  0  0  0  0
  146.8385  155.6158  136.4022 H   0  0  0  0  0  0  0  0  0  0  0  0
  146.7934  153.2817  134.6824 H   0  0  0  0  0  0  0  0  0  0  0  0
  148.4917  153.8453  134.9501 H   0  0  0  0  0  0  0  0  0  0  0  0
  146.2047  153.3789  138.3931 H   0  0  0  0  0  0  0  0  0  0  0  0
  145.6342  154.3232  136.9755 H   0  0  0  0  0  0  0  0  0  0  0  0
  145.4976  152.5321  136.9755 H   0  0  0  0  0  0  0  0  0  0  0  0
  148.1779  153.7833  138.6067 H   0  0  0  0  0  0  0  0  0  0  0  0
  149.4361  153.5565  137.3448 H   0  0  0  0  0  0  0  0  0  0  0  0
  148.4210  155.0384  137.3448 H   0  0  0  0  0  0  0  0  0  0  0  0
  143.1534  157.0081  134.1834 H   0  0  0  0  0  0  0  0  0  0  0  0
  1  2  2  0
  2  3  1  0
  3  4  2  0
  3  5  1  0
  5  6  1  0
  6  7  1  0
  7  8  1  0
  8  9  2  0
  9 10  1  0
 10 11  2  0
 11 12  1  0
 12 13  2  0
 13 14  1  0
 14 15  1  0
 14 16  2  0
 13 17  1  0
 17 18  1  0
 18 19  2  0
 18 20  1  0
 20 21  1  0
 21 22  1  0
 22 23  1  0
 23 24  1  0
 23 25  1  0
 17 26  1  0
 26 27  2  0
 27  8  1  0
 26 11  1  0
  1 28  1  0
  1 29  1  0
  2 30  1  0
  6 31  1  0
  6 32  1  0
  7 33  1  0
  7 34  1  0
  9 35  1  0
 10 36  1  0
 12 37  1  0
 15 38  1  0
 15 39  1  0
 20 40  1  0
 20 41  1  0
 21 42  1  0
 21 43  1  0
 22 44  1  0
 22 45  1  0
 24 46  1  0
 24 47  1  0
 24 48  1  0
 25 49  1  0
 25 50  1  0
 25 51  1  0
 27 52  1  0
M  CHG  1   5  -1
M  END
>  <UniqueID>  (26) 
26

>  <SMILES>  (26) 
C=CC(=O)[N-]CCc1ccc2cc(C(N)=O)n(C(=O)CCCN(C)C)c2c1

>  <Energy>  (26) 
77.36896191324006

>  <Genealogy>  (26) 
C=CC(=O)[N-]CCc1ccc2cc(C(N)=O)n(C(=O)CCCN(C)C)c2c1 (protonated)
C=CC(=O)[N-]CCc1ccc2cc(C(N)=O)n(C(=O)CCCN(C)C)c2c1 (3D coordinates assigned)
C=CC(=O)[N-]CCc1ccc2cc(C(N)=O)n(C(=O)CCCN(C)C)c2c1 (optimized conformer: 77.36896191324006 kcal/mol)

>  <smiles>  (26) 
C=CC(=O)NCCc1ccc2cc(C(N)=O)n(C(=O)CCCN(C)C)c2c1

>  <score_type>  (26) 
oracle

>  <origin>  (26) 
adg

>  <m_score__min__energy>  (26) 
-8.0999999999999996

>  <m_primary>  (26) 
energy

$$$$
27:0
     RDKit          3D

 47 49  0  0  0  0  0  0  0  0999 V2000
  140.6170  150.8820  136.3710 N   0  0  0  0  0  0  0  0  0  0  0  0
  141.1150  151.0120  137.7010 C   0  0  0  0  0  0  0  0  0  0  0  0
  141.5090  149.9860  138.3150 O   0  0  0  0  0  0  0  0  0  0  0  0
  141.1370  152.3400  138.3520 C   0  0  0  0  0  0  0  0  0  0  0  0
  140.5540  152.6040  139.5900 C   0  0  0  0  0  0  0  0  0  0  0  0
  140.8500  153.9230  139.8580 C   0  0  0  0  0  0  0  0  0  0  0  0
  140.4950  154.7190  140.9410 C   0  0  0  0  0  0  0  0  0  0  0  0
  140.9070  156.0620  140.9360 C   0  0  0  0  0  0  0  0  0  0  0  0
  141.6700  156.5830  139.8590 C   0  0  0  0  0  0  0  0  0  0  0  0
  142.0520  158.0410  139.8350 C   0  0  0  0  0  0  0  0  0  0  0  0
  141.3630  158.7430  140.8090 F   0  0  0  0  0  0  0  0  0  0  0  0
  143.4090  158.1590  140.0710 F   0  0  0  0  0  0  0  0  0  0  0  0
  141.7570  158.6040  138.6060 F   0  0  0  0  0  0  0  0  0  0  0  0
  141.9890  155.7470  138.7640 C   0  0  0  0  0  0  0  0  0  0  0  0
  141.5820  154.4090  138.8070 C   0  0  0  0  0  0  0  0  0  0  0  0
  141.7670  153.4490  137.8750 N   0  0  0  0  0  0  0  0  0  0  0  0
  142.4450  153.6020  136.6200 C   0  0  0  0  0  0  0  0  0  0  0  0
  143.4430  154.3670  136.5390 O   0  0  0  0  0  0  0  0  0  0  0  0
  141.9920  152.8790  135.4660 N   0  0  0  0  0  0  0  0  0  0  0  0
  142.6500  152.9810  134.1660 C   0  0  0  0  0  0  0  0  0  0  0  0
  142.5950  151.6350  133.4290 C   0  0  0  0  0  0  0  0  0  0  0  0
  141.2510  151.0190  133.5240 N   0  0  0  0  0  0  0  0  0  0  0  0
  141.3270  149.5330  133.4280 C   0  0  0  0  0  0  0  0  0  0  0  0
  140.0110  148.8690  133.0110 C   0  0  0  0  0  0  0  0  0  0  0  0
  139.6150  149.3810  131.3550 S   0  0  0  0  0  0  0  0  0  0  0  0
  140.2750  148.4760  130.3530 O   0  0  0  0  0  0  0  0  0  0  0  0
  138.1260  149.3700  131.1510 O   0  0  0  0  0  0  0  0  0  0  0  0
  140.2520  151.0340  131.2010 C   0  0  0  0  0  0  0  0  0  0  0  0
  140.2910  151.6740  132.5930 C   0  0  0  0  0  0  0  0  0  0  0  0
  141.2650  150.7200  135.5690 H   0  0  0  0  0  0  0  0  0  0  0  0
  139.9799  151.9079  140.2192 H   0  0  0  0  0  0  0  0  0  0  0  0
  139.9089  154.3094  141.7769 H   0  0  0  0  0  0  0  0  0  0  0  0
  140.6350  156.7173  141.7766 H   0  0  0  0  0  0  0  0  0  0  0  0
  142.5439  156.1392  137.8990 H   0  0  0  0  0  0  0  0  0  0  0  0
  141.1670  152.2440  135.5580 H   0  0  0  0  0  0  0  0  0  0  0  0
  142.1407  153.7459  133.5614 H   0  0  0  0  0  0  0  0  0  0  0  0
  143.7029  153.2594  134.3208 H   0  0  0  0  0  0  0  0  0  0  0  0
  142.8397  151.7976  132.3689 H   0  0  0  0  0  0  0  0  0  0  0  0
  143.3207  150.9545  133.8982 H   0  0  0  0  0  0  0  0  0  0  0  0
  142.0963  149.2729  132.6860 H   0  0  0  0  0  0  0  0  0  0  0  0
  141.5673  149.1603  134.4346 H   0  0  0  0  0  0  0  0  0  0  0  0
  140.1215  147.7751  133.0439 H   0  0  0  0  0  0  0  0  0  0  0  0
  139.2059  149.1674  133.6986 H   0  0  0  0  0  0  0  0  0  0  0  0
  141.2674  151.0022  130.7791 H   0  0  0  0  0  0  0  0  0  0  0  0
  139.6074  151.6247  130.5335 H   0  0  0  0  0  0  0  0  0  0  0  0
  140.5794  152.7297  132.4823 H   0  0  0  0  0  0  0  0  0  0  0  0
  139.2881  151.5576  133.0296 H   0  0  0  0  0  0  0  0  0  0  0  0
  1  2  1  0
  2  3  2  0
  2  4  1  0
  4  5  2  0
  5  6  1  0
  6  7  2  0
  7  8  1  0
  8  9  2  0
  9 10  1  0
 10 11  1  0
 10 12  1  0
 10 13  1  0
  9 14  1  0
 14 15  2  0
 15 16  1  0
 16 17  1  0
 17 18  2  0
 17 19  1  0
 19 20  1  0
 20 21  1  0
 21 22  1  0
 22 23  1  0
 23 24  1  0
 24 25  1  0
 25 26  2  0
 25 27  2  0
 25 28  1  0
 28 29  1  0
 16  4  1  0
 29 22  1  0
 15  6  1  0
  1 30  1  0
  5 31  1  0
  7 32  1  0
  8 33  1  0
 14 34  1  0
 19 35  1  0
 20 36  1  0
 20 37  1  0
 21 38  1  0
 21 39  1  0
 23 40  1  0
 23 41  1  0
 24 42  1  0
 24 43  1  0
 28 44  1  0
 28 45  1  0
 29 46  1  0
 29 47  1  0
M  CHG  1   1  -1
M  END
>  <UniqueID>  (27) 
27

>  <SMILES>  (27) 
[NH-]C(=O)c1cc2ccc(C(F)(F)F)cc2n1C(=O)NCCN1CCS(=O)(=O)CC1

>  <Energy>  (27) 
87.41815253951057

>  <Genealogy>  (27) 
[NH-]C(=O)c1cc2ccc(C(F)(F)F)cc2n1C(=O)NCCN1CCS(=O)(=O)CC1 (protonated)
[NH-]C(=O)c1cc2ccc(C(F)(F)F)cc2n1C(=O)NCCN1CCS(=O)(=O)CC1 (3D coordinates assigned)
[NH-]C(=O)c1cc2ccc(C(F)(F)F)cc2n1C(=O)NCCN1CCS(=O)(=O)CC1 (nonaromatic ring conformer: 87.41815253951057 kcal/mol)

>  <smiles>  (27) 
NC(=O)c1cc2ccc(C(F)(F)F)cc2n1C(=O)NCCN1CCS(=O)(=O)CC1

>  <score_type>  (27) 
oracle

>  <origin>  (27) 
adg

>  <m_score__min__energy>  (27) 
-8.3000000000000007

>  <m_primary>  (27) 
energy

$$$$
28:0
     RDKit          3D

 39 41  0  0  0  0  0  0  0  0999 V2000
  147.7150  152.5290  132.6360 C   0  0  0  0  0  0  0  0  0  0  0  0
  148.1660  153.9240  132.7260 N   0  0  0  0  0  0  0  0  0  0  0  0
  149.5980  154.2170  132.5830 C   0  0  0  0  0  0  0  0  0  0  0  0
  147.2110  154.9970  132.9490 C   0  0  0  0  0  0  0  0  0  0  0  0
  145.8170  154.7230  133.0680 C   0  0  0  0  0  0  0  0  0  0  0  0
  144.8870  155.7550  133.2870 C   0  0  0  0  0  0  0  0  0  0  0  0
  145.3660  157.0560  133.3770 C   0  0  0  0  0  0  0  0  0  0  0  0
  144.6930  158.2390  133.5900 C   0  0  0  0  0  0  0  0  0  0  0  0
  145.6760  159.2310  133.5960 C   0  0  0  0  0  0  0  0  0  0  0  0
  145.4130  160.6840  133.7590 C   0  0  0  0  0  0  0  0  0  0  0  0
  146.4610  161.5900  134.1030 N   0  0  0  0  0  0  0  0  0  0  0  0
  144.2500  161.1390  133.6080 O   0  0  0  0  0  0  0  0  0  0  0  0
  146.9020  158.6730  133.3890 N   0  0  0  0  0  0  0  0  0  0  0  0
  148.1710  159.3400  133.3150 C   0  0  0  0  0  0  0  0  0  0  0  0
  148.7820  159.6320  134.3780 O   0  0  0  0  0  0  0  0  0  0  0  0
  148.7480  159.6660  132.0420 N   0  0  0  0  0  0  0  0  0  0  0  0
  149.1800  158.6830  131.0560 C   0  0  0  0  0  0  0  0  0  0  0  0
  149.5500  159.5140  129.8780 C   0  0  0  0  0  0  0  0  0  0  0  0
  149.3620  160.8030  130.1360 C   0  0  0  0  0  0  0  0  0  0  0  0
  149.6060  161.7960  129.2420 F   0  0  0  0  0  0  0  0  0  0  0  0
  148.8310  161.0180  131.5080 C   0  0  0  0  0  0  0  0  0  0  0  0
  146.6960  157.3470  133.2580 C   0  0  0  0  0  0  0  0  0  0  0  0
  147.6480  156.3450  133.0530 C   0  0  0  0  0  0  0  0  0  0  0  0
  147.5829  152.1203  133.6487 H   0  0  0  0  0  0  0  0  0  0  0  0
  146.7576  152.4873  132.0960 H   0  0  0  0  0  0  0  0  0  0  0  0
  148.4668  151.9347  132.0960 H   0  0  0  0  0  0  0  0  0  0  0  0
  150.0545  154.3104  133.5795 H   0  0  0  0  0  0  0  0  0  0  0  0
  150.0861  153.4001  132.0312 H   0  0  0  0  0  0  0  0  0  0  0  0
  149.7260  155.1599  132.0312 H   0  0  0  0  0  0  0  0  0  0  0  0
  145.4622  153.6850  132.9870 H   0  0  0  0  0  0  0  0  0  0  0  0
  143.8129  155.5386  133.3841 H   0  0  0  0  0  0  0  0  0  0  0  0
  143.6099  158.3738  133.7265 H   0  0  0  0  0  0  0  0  0  0  0  0
  147.3850  161.2730  134.4700 H   0  0  0  0  0  0  0  0  0  0  0  0
  150.0461  158.1124  131.4226 H   0  0  0  0  0  0  0  0  0  0  0  0
  148.4058  157.9357  130.8276 H   0  0  0  0  0  0  0  0  0  0  0  0
  149.9273  159.1153  128.9248 H   0  0  0  0  0  0  0  0  0  0  0  0
  149.5166  161.6375  132.1048 H   0  0  0  0  0  0  0  0  0  0  0  0
  147.8682  161.5498  131.5220 H   0  0  0  0  0  0  0  0  0  0  0  0
  148.7162  156.5952  132.9736 H   0  0  0  0  0  0  0  0  0  0  0  0
  1  2  1  0
  2  3  1  0
  2  4  1  0
  4  5  2  0
  5  6  1  0
  6  7  2  0
  7  8  1  0
  8  9  2  0
  9 10  1  0
 10 11  1  0
 10 12  2  0
  9 13  1  0
 13 14  1  0
 14 15  2  0
 14 16  1  0
 16 17  1  0
 17 18  1  0
 18 19  2  0
 19 20  1  0
 19 21  1  0
 13 22  1  0
 22 23  2  0
 23  4  1  0
 22  7  1  0
 21 16  1  0
  1 24  1  0
  1 25  1  0
  1 26  1  0
  3 27  1  0
  3 28  1  0
  3 29  1  0
  5 30  1  0
  6 31  1  0
  8 32  1  0
 11 33  1  0
 17 34  1  0
 17 35  1  0
 18 36  1  0
 21 37  1  0
 21 38  1  0
 23 39  1  0
M  CHG  1  11  -1
M  END
>  <UniqueID>  (28) 
28

>  <SMILES>  (28) 
CN(C)c1ccc2cc(C([NH-])=O)n(C(=O)N3CC=C(F)C3)c2c1

>  <Energy>  (28) 
87.53143493088088

>  <Genealogy>  (28) 
CN(C)c1ccc2cc(C([NH-])=O)n(C(=O)N3CC=C(F)C3)c2c1 (protonated)
CN(C)c1ccc2cc(C([NH-])=O)n(C(=O)N3CC=C(F)C3)c2c1 (3D coordinates assigned)
CN(C)c1ccc2cc(C([NH-])=O)n(C(=O)N3CC=C(F)C3)c2c1 (nonaromatic ring conformer: 87.53143493088088 kcal/mol)

>  <smiles>  (28) 
CN(C)c1ccc2cc(C(N)=O)n(C(=O)N3CC=C(F)C3)c2c1

>  <score_type>  (28) 
oracle

>  <origin>  (28) 
adg

>  <m_score__min__energy>  (28) 
-6.75

>  <m_primary>  (28) 
energy

$$$$
29:0
     RDKit          3D

 42 43  0  0  0  0  0  0  0  0999 V2000
  149.4690  155.0170  132.5920 N   0  0  0  0  0  0  0  0  0  0  0  0
  148.5500  154.4170  132.9560 C   0  0  0  0  0  0  0  0  0  0  0  0
  147.3830  153.6520  133.4150 C   0  0  0  0  0  0  0  0  0  0  0  0
  146.6060  154.4050  134.4950 C   0  0  0  0  0  0  0  0  0  0  0  0
  146.6400  155.8130  134.2620 O   0  0  0  0  0  0  0  0  0  0  0  0
  145.7340  156.4920  133.4380 C   0  0  0  0  0  0  0  0  0  0  0  0
  145.0190  155.8580  132.6150 O   0  0  0  0  0  0  0  0  0  0  0  0
  145.6030  157.9200  133.5520 N   0  0  0  0  0  0  0  0  0  0  0  0
  146.5980  158.8490  133.6210 C   0  0  0  0  0  0  0  0  0  0  0  0
  148.0450  158.5540  133.7130 C   0  0  0  0  0  0  0  0  0  0  0  0
  148.5820  157.3530  133.1540 N   0  0  0  0  0  0  0  0  0  0  0  0
  148.8270  159.3780  134.2580 O   0  0  0  0  0  0  0  0  0  0  0  0
  146.0620  160.1340  133.6940 C   0  0  0  0  0  0  0  0  0  0  0  0
  144.6970  159.9610  133.6730 C   0  0  0  0  0  0  0  0  0  0  0  0
  143.6740  160.9040  133.7360 C   0  0  0  0  0  0  0  0  0  0  0  0
  142.3480  160.4420  133.6920 C   0  0  0  0  0  0  0  0  0  0  0  0
  142.0710  159.0580  133.5630 C   0  0  0  0  0  0  0  0  0  0  0  0
  140.6500  158.5640  133.5470 C   0  0  0  0  0  0  0  0  0  0  0  0
  140.5640  157.2380  134.2330 C   0  0  0  0  0  0  0  0  0  0  0  0
  140.4590  156.1810  133.5540 O   0  0  0  0  0  0  0  0  0  0  0  0
  140.5540  157.1840  135.6630 N   0  0  0  0  0  0  0  0  0  0  0  0
  139.9430  158.2130  136.4910 C   0  0  0  0  0  0  0  0  0  0  0  0
  140.9940  159.2390  136.9040 C   0  0  0  0  0  0  0  0  0  0  0  0
  142.2300  158.8820  136.3950 F   0  0  0  0  0  0  0  0  0  0  0  0
  141.0710  159.2920  138.2830 F   0  0  0  0  0  0  0  0  0  0  0  0
  140.6470  160.4890  136.4230 F   0  0  0  0  0  0  0  0  0  0  0  0
  143.1350  158.1320  133.5040 C   0  0  0  0  0  0  0  0  0  0  0  0
  144.4460  158.6170  133.5820 C   0  0  0  0  0  0  0  0  0  0  0  0
  146.7173  153.4683  132.5588 H   0  0  0  0  0  0  0  0  0  0  0  0
  147.7400  152.7047  133.8452 H   0  0  0  0  0  0  0  0  0  0  0  0
  145.5600  154.0646  134.4890 H   0  0  0  0  0  0  0  0  0  0  0  0
  147.0725  154.1998  135.4698 H   0  0  0  0  0  0  0  0  0  0  0  0
  147.9620  156.6220  132.7420 H   0  0  0  0  0  0  0  0  0  0  0  0
  149.6100  157.1730  133.1910 H   0  0  0  0  0  0  0  0  0  0  0  0
  146.6130  161.0841  133.7553 H   0  0  0  0  0  0  0  0  0  0  0  0
  143.8975  161.9780  133.8177 H   0  0  0  0  0  0  0  0  0  0  0  0
  141.5177  161.1605  133.7582 H   0  0  0  0  0  0  0  0  0  0  0  0
  140.0066  159.2873  134.0694 H   0  0  0  0  0  0  0  0  0  0  0  0
  140.3165  158.4545  132.5045 H   0  0  0  0  0  0  0  0  0  0  0  0
  139.1474  158.7151  135.9210 H   0  0  0  0  0  0  0  0  0  0  0  0
  139.5176  157.7474  137.3922 H   0  0  0  0  0  0  0  0  0  0  0  0
  142.9386  157.0548  133.3992 H   0  0  0  0  0  0  0  0  0  0  0  0
  1  2  3  0
  2  3  1  0
  3  4  1  0
  4  5  1  0
  5  6  1  0
  6  7  2  0
  6  8  1  0
  8  9  1  0
  9 10  1  0
 10 11  1  0
 10 12  2  0
  9 13  2  0
 13 14  1  0
 14 15  2  0
 15 16  1  0
 16 17  2  0
 17 18  1  0
 18 19  1  0
 19 20  2  0
 19 21  1  0
 21 22  1  0
 22 23  1  0
 23 24  1  0
 23 25  1  0
 23 26  1  0
 17 27  1  0
 27 28  2  0
 28  8  1  0
 28 14  1  0
  3 29  1  0
  3 30  1  0
  4 31  1  0
  4 32  1  0
 11 33  1  0
 11 34  1  0
 13 35  1  0
 15 36  1  0
 16 37  1  0
 18 38  1  0
 18 39  1  0
 22 40  1  0
 22 41  1  0
 27 42  1  0
M  CHG  1  21  -1
M  END
>  <UniqueID>  (29) 
29

>  <SMILES>  (29) 
N#CCCOC(=O)n1c(C(N)=O)cc2ccc(CC(=O)[N-]CC(F)(F)F)cc21

>  <Energy>  (29) 
68.80096684164972

>  <Genealogy>  (29) 
N#CCCOC(=O)n1c(C(N)=O)cc2ccc(CC(=O)[N-]CC(F)(F)F)cc21 (protonated)
N#CCCOC(=O)n1c(C(N)=O)cc2ccc(CC(=O)[N-]CC(F)(F)F)cc21 (3D coordinates assigned)
N#CCCOC(=O)n1c(C(N)=O)cc2ccc(CC(=O)[N-]CC(F)(F)F)cc21 (optimized conformer: 68.80096684164972 kcal/mol)

>  <smiles>  (29) 
N#CCCOC(=O)n1c(C(N)=O)cc2ccc(CC(=O)NCC(F)(F)F)cc21

>  <score_type>  (29) 
oracle

>  <origin>  (29) 
adg

>  <m_score__min__energy>  (29) 
-7.3799999999999999

>  <m_primary>  (29) 
energy

$$$$
30:0
     RDKit          3D

 38 39  0  0  0  0  0  0  0  0999 V2000
  147.8280  155.4480  133.6540 C   0  0  0  0  0  0  0  0  0  0  0  0
  147.1920  156.8030  133.5750 C   0  0  0  0  0  0  0  0  0  0  0  0
  147.9620  157.9260  133.1810 C   0  0  0  0  0  0  0  0  0  0  0  0
  147.3720  159.1970  133.0810 C   0  0  0  0  0  0  0  0  0  0  0  0
  146.0130  159.3100  133.3580 C   0  0  0  0  0  0  0  0  0  0  0  0
  145.1960  160.4190  133.3600 C   0  0  0  0  0  0  0  0  0  0  0  0
  143.9330  159.9490  133.7200 C   0  0  0  0  0  0  0  0  0  0  0  0
  142.7160  160.7900  133.7950 C   0  0  0  0  0  0  0  0  0  0  0  0
  141.4390  160.2110  134.0680 N   0  0  0  0  0  0  0  0  0  0  0  0
  142.8000  162.0360  133.6340 O   0  0  0  0  0  0  0  0  0  0  0  0
  143.9700  158.6020  133.9240 N   0  0  0  0  0  0  0  0  0  0  0  0
  142.8910  157.7580  134.3510 C   0  0  0  0  0  0  0  0  0  0  0  0
  142.5400  157.7550  135.5620 O   0  0  0  0  0  0  0  0  0  0  0  0
  142.1570  156.8970  133.3710 C   0  0  0  0  0  0  0  0  0  0  0  0
  141.3740  157.7460  132.4790 N   0  0  0  0  0  0  0  0  0  0  0  0
  139.7050  157.7150  132.9560 S   0  0  0  0  0  0  0  0  0  0  0  0
  139.5030  158.6090  134.1470 O   0  0  0  0  0  0  0  0  0  0  0  0
  139.2970  156.3130  133.3130 O   0  0  0  0  0  0  0  0  0  0  0  0
  138.6880  158.3130  131.6100 C   0  0  0  0  0  0  0  0  0  0  0  0
  139.0670  159.7320  131.1850 C   0  0  0  0  0  0  0  0  0  0  0  0
  140.1970  159.7120  130.3880 F   0  0  0  0  0  0  0  0  0  0  0  0
  138.0250  160.2850  130.4630 F   0  0  0  0  0  0  0  0  0  0  0  0
  139.3050  160.5220  132.2960 F   0  0  0  0  0  0  0  0  0  0  0  0
  145.2490  158.2270  133.7060 C   0  0  0  0  0  0  0  0  0  0  0  0
  145.8120  156.9520  133.8340 C   0  0  0  0  0  0  0  0  0  0  0  0
  147.9604  155.1660  134.7090 H   0  0  0  0  0  0  0  0  0  0  0  0
  147.1822  154.7102  133.1555 H   0  0  0  0  0  0  0  0  0  0  0  0
  148.8082  155.4734  133.1555 H   0  0  0  0  0  0  0  0  0  0  0  0
  149.0306  157.8012  132.9516 H   0  0  0  0  0  0  0  0  0  0  0  0
  147.9664  160.0764  132.7924 H   0  0  0  0  0  0  0  0  0  0  0  0
  145.4796  161.4560  133.1270 H   0  0  0  0  0  0  0  0  0  0  0  0
  140.5950  160.8210  134.1530 H   0  0  0  0  0  0  0  0  0  0  0  0
  141.3120  159.1770  134.1420 H   0  0  0  0  0  0  0  0  0  0  0  0
  142.8789  156.3119  132.7824 H   0  0  0  0  0  0  0  0  0  0  0  0
  141.4875  156.2110  133.9106 H   0  0  0  0  0  0  0  0  0  0  0  0
  138.8103  157.6406  130.7480 H   0  0  0  0  0  0  0  0  0  0  0  0
  137.6448  158.3325  131.9583 H   0  0  0  0  0  0  0  0  0  0  0  0
  145.1961  156.0894  134.1284 H   0  0  0  0  0  0  0  0  0  0  0  0
  1  2  1  0
  2  3  2  0
  3  4  1  0
  4  5  2  0
  5  6  1  0
  6  7  2  0
  7  8  1  0
  8  9  1  0
  8 10  2  0
  7 11  1  0
 11 12  1  0
 12 13  2  0
 12 14  1  0
 14 15  1  0
 15 16  1  0
 16 17  2  0
 16 18  2  0
 16 19  1  0
 19 20  1  0
 20 21  1  0
 20 22  1  0
 20 23  1  0
 11 24  1  0
 24 25  2  0
 25  2  1  0
 24  5  1  0
  1 26  1  0
  1 27  1  0
  1 28  1  0
  3 29  1  0
  4 30  1  0
  6 31  1  0
  9 32  1  0
  9 33  1  0
 14 34  1  0
 14 35  1  0
 19 36  1  0
 19 37  1  0
 25 38  1  0
M  CHG  1  15  -1
M  END
>  <UniqueID>  (30) 
30

>  <SMILES>  (30) 
Cc1ccc2cc(C(N)=O)n(C(=O)C[N-]S(=O)(=O)CC(F)(F)F)c2c1

>  <Energy>  (30) 
67.72974795418162

>  <Genealogy>  (30) 
Cc1ccc2cc(C(N)=O)n(C(=O)C[N-]S(=O)(=O)CC(F)(F)F)c2c1 (protonated)
Cc1ccc2cc(C(N)=O)n(C(=O)C[N-]S(=O)(=O)CC(F)(F)F)c2c1 (3D coordinates assigned)
Cc1ccc2cc(C(N)=O)n(C(=O)C[N-]S(=O)(=O)CC(F)(F)F)c2c1 (optimized conformer: 67.72974795418162 kcal/mol)

>  <smiles>  (30) 
Cc1ccc2cc(C(N)=O)n(C(=O)CNS(=O)(=O)CC(F)(F)F)c2c1

>  <score_type>  (30) 
oracle

>  <origin>  (30) 
adg

>  <m_score__min__energy>  (30) 
-6.5700000000000003

>  <m_primary>  (30) 
energy

$$$$
31:0
     RDKit          3D

 45 47  0  0  0  0  0  0  0  0999 V2000
  149.2370  162.1230  130.3950 C   0  0  0  0  0  0  0  0  0  0  0  0
  149.4440  160.6700  130.3280 N   0  0  0  0  0  0  0  0  0  0  0  0
  150.3080  160.1070  129.2840 C   0  0  0  0  0  0  0  0  0  0  0  0
  148.8260  159.7770  131.2850 C   0  0  0  0  0  0  0  0  0  0  0  0
  147.5330  160.0150  131.7940 C   0  0  0  0  0  0  0  0  0  0  0  0
  146.9680  159.1270  132.7270 C   0  0  0  0  0  0  0  0  0  0  0  0
  145.6110  159.3720  133.2800 C   0  0  0  0  0  0  0  0  0  0  0  0
  145.1540  160.6990  133.5010 C   0  0  0  0  0  0  0  0  0  0  0  0
  143.8750  160.9410  134.0300 C   0  0  0  0  0  0  0  0  0  0  0  0
  143.0700  159.8450  134.3200 C   0  0  0  0  0  0  0  0  0  0  0  0
  141.8070  159.7920  134.8630 C   0  0  0  0  0  0  0  0  0  0  0  0
  141.4970  158.4360  134.9480 C   0  0  0  0  0  0  0  0  0  0  0  0
  140.1940  157.9240  135.4220 C   0  0  0  0  0  0  0  0  0  0  0  0
  139.7860  158.0910  136.7760 N   0  0  0  0  0  0  0  0  0  0  0  0
  139.4450  157.2950  134.6270 O   0  0  0  0  0  0  0  0  0  0  0  0
  142.5300  157.6810  134.4770 N   0  0  0  0  0  0  0  0  0  0  0  0
  142.6440  156.2500  134.4690 C   0  0  0  0  0  0  0  0  0  0  0  0
  143.6630  155.7010  134.9700 O   0  0  0  0  0  0  0  0  0  0  0  0
  141.6110  155.4500  133.8820 N   0  0  0  0  0  0  0  0  0  0  0  0
  141.7630  154.0050  133.7200 C   0  0  0  0  0  0  0  0  0  0  0  0
  140.5920  153.4320  132.9890 C   0  0  0  0  0  0  0  0  0  0  0  0
  139.6360  154.1740  132.6420 O   0  0  0  0  0  0  0  0  0  0  0  0
  140.5810  152.0870  132.6420 O   0  0  0  0  0  0  0  0  0  0  0  0
  143.4850  158.5580  134.0990 C   0  0  0  0  0  0  0  0  0  0  0  0
  144.7610  158.2850  133.5930 C   0  0  0  0  0  0  0  0  0  0  0  0
  147.7120  158.0070  133.1320 C   0  0  0  0  0  0  0  0  0  0  0  0
  148.9850  157.7990  132.6050 C   0  0  0  0  0  0  0  0  0  0  0  0
  149.5050  158.6750  131.7090 N   0  0  0  0  0  0  0  0  0  0  0  0
  149.1920  162.4388  131.4477 H   0  0  0  0  0  0  0  0  0  0  0  0
  150.0712  162.6357  129.8937 H   0  0  0  0  0  0  0  0  0  0  0  0
  148.2928  162.3824  129.8937 H   0  0  0  0  0  0  0  0  0  0  0  0
  151.1420  159.5635  129.7519 H   0  0  0  0  0  0  0  0  0  0  0  0
  149.7245  159.4152  128.6587 H   0  0  0  0  0  0  0  0  0  0  0  0
  150.7051  160.9202  128.6587 H   0  0  0  0  0  0  0  0  0  0  0  0
  146.9653  160.8964  131.4610 H   0  0  0  0  0  0  0  0  0  0  0  0
  145.8096  161.5474  133.2550 H   0  0  0  0  0  0  0  0  0  0  0  0
  143.5211  161.9669  134.2094 H   0  0  0  0  0  0  0  0  0  0  0  0
  141.1756  160.6403  135.1659 H   0  0  0  0  0  0  0  0  0  0  0  0
  139.4350  159.0110  137.1220 H   0  0  0  0  0  0  0  0  0  0  0  0
  140.7320  155.9230  133.5690 H   0  0  0  0  0  0  0  0  0  0  0  0
  142.6810  153.7997  133.1498 H   0  0  0  0  0  0  0  0  0  0  0  0
  141.8218  153.5406  134.7154 H   0  0  0  0  0  0  0  0  0  0  0  0
  145.0957  157.2481  133.4420 H   0  0  0  0  0  0  0  0  0  0  0  0
  147.2923  157.2981  133.8610 H   0  0  0  0  0  0  0  0  0  0  0  0
  149.5704  156.9214  132.9165 H   0  0  0  0  0  0  0  0  0  0  0  0
  1  2  1  0
  2  3  1  0
  2  4  1  0
  4  5  2  0
  5  6  1  0
  6  7  1  0
  7  8  2  0
  8  9  1  0
  9 10  2  0
 10 11  1  0
 11 12  2  0
 12 13  1  0
 13 14  1  0
 13 15  2  0
 12 16  1  0
 16 17  1  0
 17 18  2  0
 17 19  1  0
 19 20  1  0
 20 21  1  0
 21 22  2  0
 21 23  1  0
 16 24  1  0
 24 25  2  0
  6 26  2  0
 26 27  1  0
 27 28  2  0
 28  4  1  0
 25  7  1  0
 24 10  1  0
  1 29  1  0
  1 30  1  0
  1 31  1  0
  3 32  1  0
  3 33  1  0
  3 34  1  0
  5 35  1  0
  8 36  1  0
  9 37  1  0
 11 38  1  0
 14 39  1  0
 19 40  1  0
 20 41  1  0
 20 42  1  0
 25 43  1  0
 26 44  1  0
 27 45  1  0
M  CHG  2  14  -1  23  -1
M  END
>  <UniqueID>  (31) 
31

>  <SMILES>  (31) 
CN(C)c1cc(-c2ccc3cc(C([NH-])=O)n(C(=O)NCC(=O)[O-])c3c2)ccn1

>  <Energy>  (31) 
88.54928479556753

>  <Genealogy>  (31) 
CN(C)c1cc(-c2ccc3cc(C([NH-])=O)n(C(=O)NCC(=O)[O-])c3c2)ccn1 (protonated)
CN(C)c1cc(-c2ccc3cc(C([NH-])=O)n(C(=O)NCC(=O)[O-])c3c2)ccn1 (3D coordinates assigned)
CN(C)c1cc(-c2ccc3cc(C([NH-])=O)n(C(=O)NCC(=O)[O-])c3c2)ccn1 (optimized conformer: 88.54928479556753 kcal/mol)

>  <smiles>  (31) 
CN(C)c1cc(-c2ccc3cc(C(N)=O)n(C(=O)NCC(=O)O)c3c2)ccn1

>  <score_type>  (31) 
oracle

>  <origin>  (31) 
adg

>  <m_score__min__energy>  (31) 
-8.2200000000000006

>  <m_primary>  (31) 
energy

$$$$
32:0
     RDKit          3D

 46 48  0  0  0  0  0  0  0  0999 V2000
  143.4880  156.8900  134.2860 N   0  0  0  0  0  0  0  0  0  0  0  0
  144.2920  155.7180  134.3840 C   0  0  0  0  0  0  0  0  0  0  0  0
  145.4330  155.7960  134.9110 O   0  0  0  0  0  0  0  0  0  0  0  0
  143.7880  154.4090  133.9190 C   0  0  0  0  0  0  0  0  0  0  0  0
  144.6050  153.4150  133.3810 C   0  0  0  0  0  0  0  0  0  0  0  0
  143.7700  152.3480  133.1400 C   0  0  0  0  0  0  0  0  0  0  0  0
  144.0490  151.0980  132.5940 C   0  0  0  0  0  0  0  0  0  0  0  0
  142.9800  150.2010  132.4240 C   0  0  0  0  0  0  0  0  0  0  0  0
  141.6560  150.5750  132.7740 C   0  0  0  0  0  0  0  0  0  0  0  0
  140.5210  149.5930  132.6170 C   0  0  0  0  0  0  0  0  0  0  0  0
  139.3930  150.2670  132.1870 F   0  0  0  0  0  0  0  0  0  0  0  0
  140.2440  148.9700  133.8210 F   0  0  0  0  0  0  0  0  0  0  0  0
  140.8450  148.6180  131.6900 F   0  0  0  0  0  0  0  0  0  0  0  0
  141.4200  151.8450  133.3490 C   0  0  0  0  0  0  0  0  0  0  0  0
  142.5060  152.7090  133.5230 C   0  0  0  0  0  0  0  0  0  0  0  0
  142.5010  153.9700  134.0070 N   0  0  0  0  0  0  0  0  0  0  0  0
  141.3420  154.7160  134.4030 C   0  0  0  0  0  0  0  0  0  0  0  0
  141.3470  155.3450  135.4960 O   0  0  0  0  0  0  0  0  0  0  0  0
  140.2020  154.7030  133.5920 O   0  0  0  0  0  0  0  0  0  0  0  0
  139.5640  155.8820  133.1000 C   0  0  0  0  0  0  0  0  0  0  0  0
  140.5740  157.0310  132.9480 C   0  0  0  0  0  0  0  0  0  0  0  0
  140.1040  158.3880  133.5400 C   0  0  0  0  0  0  0  0  0  0  0  0
  141.3120  159.2940  133.9110 C   0  0  0  0  0  0  0  0  0  0  0  0
  141.5450  159.4100  135.4290 C   0  0  0  0  0  0  0  0  0  0  0  0
  141.3080  158.1290  136.1050 N   0  0  0  0  0  0  0  0  0  0  0  0
  139.9050  157.6820  136.0000 C   0  0  0  0  0  0  0  0  0  0  0  0
  139.1660  158.2170  134.7540 C   0  0  0  0  0  0  0  0  0  0  0  0
  142.5270  156.9190  134.6960 H   0  0  0  0  0  0  0  0  0  0  0  0
  145.6868  153.4718  133.1899 H   0  0  0  0  0  0  0  0  0  0  0  0
  145.0735  150.8211  132.3048 H   0  0  0  0  0  0  0  0  0  0  0  0
  143.1716  149.1980  132.0151 H   0  0  0  0  0  0  0  0  0  0  0  0
  140.4065  152.1463  133.6522 H   0  0  0  0  0  0  0  0  0  0  0  0
  139.1147  155.6657  132.1195 H   0  0  0  0  0  0  0  0  0  0  0  0
  138.7898  156.1881  133.8190 H   0  0  0  0  0  0  0  0  0  0  0  0
  141.5048  156.7390  133.4562 H   0  0  0  0  0  0  0  0  0  0  0  0
  140.7040  157.1907  131.8674 H   0  0  0  0  0  0  0  0  0  0  0  0
  139.5232  158.8825  132.7474 H   0  0  0  0  0  0  0  0  0  0  0  0
  142.2180  158.8735  133.4501 H   0  0  0  0  0  0  0  0  0  0  0  0
  141.0872  160.3043  133.5385 H   0  0  0  0  0  0  0  0  0  0  0  0
  142.5840  159.7232  135.6090 H   0  0  0  0  0  0  0  0  0  0  0  0
  140.8393  160.1510  135.8326 H   0  0  0  0  0  0  0  0  0  0  0  0
  141.9380  157.4070  135.6840 H   0  0  0  0  0  0  0  0  0  0  0  0
  139.8942  156.5827  135.9629 H   0  0  0  0  0  0  0  0  0  0  0  0
  139.3774  158.0818  136.8785 H   0  0  0  0  0  0  0  0  0  0  0  0
  138.3675  157.5094  134.4862 H   0  0  0  0  0  0  0  0  0  0  0  0
  138.7598  159.2079  135.0054 H   0  0  0  0  0  0  0  0  0  0  0  0
  1  2  1  0
  2  3  2  0
  2  4  1  0
  4  5  2  0
  5  6  1  0
  6  7  2  0
  7  8  1  0
  8  9  2  0
  9 10  1  0
 10 11  1  0
 10 12  1  0
 10 13  1  0
  9 14  1  0
 14 15  2  0
 15 16  1  0
 16 17  1  0
 17 18  2  0
 17 19  1  0
 19 20  1  0
 20 21  1  0
 21 22  1  0
 22 23  1  0
 23 24  1  0
 24 25  1  0
 25 26  1  0
 26 27  1  0
 16  4  1  0
 27 22  1  0
 15  6  1  0
  1 28  1  0
  5 29  1  0
  7 30  1  0
  8 31  1  0
 14 32  1  0
 20 33  1  0
 20 34  1  0
 21 35  1  0
 21 36  1  0
 22 37  1  0
 23 38  1  0
 23 39  1  0
 24 40  1  0
 24 41  1  0
 25 42  1  0
 26 43  1  0
 26 44  1  0
 27 45  1  0
 27 46  1  0
M  CHG  1   1  -1
M  END
>  <UniqueID>  (32) 
32

>  <SMILES>  (32) 
[NH-]C(=O)c1cc2ccc(C(F)(F)F)cc2n1C(=O)OCCC1CCNCC1

>  <Energy>  (32) 
90.72653225486911

>  <Genealogy>  (32) 
[NH-]C(=O)c1cc2ccc(C(F)(F)F)cc2n1C(=O)OCCC1CCNCC1 (protonated)
[NH-]C(=O)c1cc2ccc(C(F)(F)F)cc2n1C(=O)OCCC1CCNCC1 (3D coordinates assigned)
[NH-]C(=O)c1cc2ccc(C(F)(F)F)cc2n1C(=O)OCCC1CCNCC1 (nonaromatic ring conformer: 90.72653225486911 kcal/mol)

>  <smiles>  (32) 
NC(=O)c1cc2ccc(C(F)(F)F)cc2n1C(=O)OCCC1CCNCC1

>  <score_type>  (32) 
oracle

>  <origin>  (32) 
adg

>  <m_score__min__energy>  (32) 
-7.0899999999999999

>  <m_primary>  (32) 
energy

$$$$
33:0
     RDKit          3D

 49 51  0  0  0  0  0  0  0  0999 V2000
  141.0320  157.3040  137.8430 C   0  0  0  0  0  0  0  0  0  0  0  0
  141.8070  158.2760  137.1490 O   0  0  0  0  0  0  0  0  0  0  0  0
  141.2920  159.0360  136.0900 C   0  0  0  0  0  0  0  0  0  0  0  0
  140.6420  160.0930  136.3270 O   0  0  0  0  0  0  0  0  0  0  0  0
  141.5740  158.6000  134.6620 C   0  0  0  0  0  0  0  0  0  0  0  0
  140.4480  159.1990  133.7870 C   0  0  0  0  0  0  0  0  0  0  0  0
  141.5270  157.0600  134.5310 C   0  0  0  0  0  0  0  0  0  0  0  0
  142.9790  159.0780  134.2560 C   0  0  0  0  0  0  0  0  0  0  0  0
  143.2060  160.4710  134.0560 C   0  0  0  0  0  0  0  0  0  0  0  0
  144.4630  160.9570  133.6670 C   0  0  0  0  0  0  0  0  0  0  0  0
  145.4900  160.0420  133.4870 C   0  0  0  0  0  0  0  0  0  0  0  0
  146.7890  160.2480  133.0840 C   0  0  0  0  0  0  0  0  0  0  0  0
  147.3630  158.9850  133.0430 C   0  0  0  0  0  0  0  0  0  0  0  0
  148.7130  158.7380  132.4960 C   0  0  0  0  0  0  0  0  0  0  0  0
  149.0350  157.4890  131.8800 N   0  0  0  0  0  0  0  0  0  0  0  0
  149.5650  159.6690  132.4980 O   0  0  0  0  0  0  0  0  0  0  0  0
  146.4700  158.0310  133.4390 N   0  0  0  0  0  0  0  0  0  0  0  0
  146.7410  156.6300  133.6420 C   0  0  0  0  0  0  0  0  0  0  0  0
  147.1380  156.2150  134.7590 O   0  0  0  0  0  0  0  0  0  0  0  0
  146.5920  155.7310  132.5760 O   0  0  0  0  0  0  0  0  0  0  0  0
  146.8360  154.3290  132.6770 C   0  0  0  0  0  0  0  0  0  0  0  0
  148.3330  154.0460  132.8940 C   0  0  0  0  0  0  0  0  0  0  0  0
  149.2240  155.1320  132.9210 O   0  0  0  0  0  0  0  0  0  0  0  0
  148.7480  152.8200  133.7040 C   0  0  0  0  0  0  0  0  0  0  0  0
  148.9030  152.8270  132.1820 C   0  0  0  0  0  0  0  0  0  0  0  0
  145.3170  158.6980  133.6950 C   0  0  0  0  0  0  0  0  0  0  0  0
  144.0780  158.1860  134.1100 C   0  0  0  0  0  0  0  0  0  0  0  0
  141.1476  157.4489  138.9273 H   0  0  0  0  0  0  0  0  0  0  0  0
  139.9726  157.4160  137.5690 H   0  0  0  0  0  0  0  0  0  0  0  0
  141.3771  156.2961  137.5690 H   0  0  0  0  0  0  0  0  0  0  0  0
  139.6631  159.6165  134.4348 H   0  0  0  0  0  0  0  0  0  0  0  0
  140.8619  159.9962  133.1520 H   0  0  0  0  0  0  0  0  0  0  0  0
  140.0182  158.4103  133.1520 H   0  0  0  0  0  0  0  0  0  0  0  0
  141.5132  156.6070  135.5333 H   0  0  0  0  0  0  0  0  0  0  0  0
  140.6195  156.7661  133.9833 H   0  0  0  0  0  0  0  0  0  0  0  0
  142.4149  156.7113  133.9833 H   0  0  0  0  0  0  0  0  0  0  0  0
  142.3785  161.1793  134.2099 H   0  0  0  0  0  0  0  0  0  0  0  0
  144.6296  162.0328  133.5092 H   0  0  0  0  0  0  0  0  0  0  0  0
  147.2699  161.2081  132.8453 H   0  0  0  0  0  0  0  0  0  0  0  0
  148.3110  156.7480  131.7590 H   0  0  0  0  0  0  0  0  0  0  0  0
  149.9740  157.3380  131.4550 H   0  0  0  0  0  0  0  0  0  0  0  0
  146.2662  153.9246  133.5266 H   0  0  0  0  0  0  0  0  0  0  0  0
  146.5201  153.8490  131.7390 H   0  0  0  0  0  0  0  0  0  0  0  0
  148.7000  155.9020  133.2690 H   0  0  0  0  0  0  0  0  0  0  0  0
  149.6385  152.8613  134.3484 H   0  0  0  0  0  0  0  0  0  0  0  0
  148.2516  152.1635  134.4338 H   0  0  0  0  0  0  0  0  0  0  0  0
  149.9055  152.8721  131.7315 H   0  0  0  0  0  0  0  0  0  0  0  0
  148.5641  152.1758  131.3628 H   0  0  0  0  0  0  0  0  0  0  0  0
  143.9584  157.1127  134.3190 H   0  0  0  0  0  0  0  0  0  0  0  0
  1  2  1  0
  2  3  1  0
  3  4  2  0
  3  5  1  0
  5  6  1  0
  5  7  1  0
  5  8  1  0
  8  9  2  0
  9 10  1  0
 10 11  2  0
 11 12  1  0
 12 13  2  0
 13 14  1  0
 14 15  1  0
 14 16  2  0
 13 17  1  0
 17 18  1  0
 18 19  2  0
 18 20  1  0
 20 21  1  0
 21 22  1  0
 22 23  1  0
 22 24  1  0
 24 25  1  0
 17 26  1  0
 26 27  2  0
 27  8  1  0
 26 11  1  0
 25 22  1  0
  1 28  1  0
  1 29  1  0
  1 30  1  0
  6 31  1  0
  6 32  1  0
  6 33  1  0
  7 34  1  0
  7 35  1  0
  7 36  1  0
  9 37  1  0
 10 38  1  0
 12 39  1  0
 15 40  1  0
 15 41  1  0
 21 42  1  0
 21 43  1  0
 23 44  1  0
 24 45  1  0
 24 46  1  0
 25 47  1  0
 25 48  1  0
 27 49  1  0
M  END
>  <UniqueID>  (33) 
33

>  <SMILES>  (33) 
COC(=O)C(C)(C)c1ccc2cc(C(N)=O)n(C(=O)OCC3(O)CC3)c2c1

>  <Energy>  (33) 
355.50197937743195

>  <Genealogy>  (33) 
COC(=O)C(C)(C)c1ccc2cc(C(N)=O)n(C(=O)OCC3(O)CC3)c2c1 (3D coordinates assigned)
COC(=O)C(C)(C)c1ccc2cc(C(N)=O)n(C(=O)OCC3(O)CC3)c2c1 (nonaromatic ring conformer: 355.50197937743195 kcal/mol)

>  <smiles>  (33) 
COC(=O)C(C)(C)c1ccc2cc(C(N)=O)n(C(=O)OCC3(O)CC3)c2c1

>  <score_type>  (33) 
oracle

>  <origin>  (33) 
adg

>  <m_score__min__energy>  (33) 
-7.7800000000000002

>  <m_primary>  (33) 
energy

$$$$
34:0
     RDKit          3D

 42 44  0  0  0  0  0  0  0  0999 V2000
  142.9250  161.4980  133.7090 N   0  0  0  0  0  0  0  0  0  0  0  0
  144.3400  161.6110  133.8400 C   0  0  0  0  0  0  0  0  0  0  0  0
  144.8430  162.7350  134.1020 O   0  0  0  0  0  0  0  0  0  0  0  0
  145.1950  160.4190  133.6520 C   0  0  0  0  0  0  0  0  0  0  0  0
  146.5580  160.4850  133.3670 C   0  0  0  0  0  0  0  0  0  0  0  0
  146.9790  159.1780  133.2920 C   0  0  0  0  0  0  0  0  0  0  0  0
  148.2350  158.6590  132.9930 C   0  0  0  0  0  0  0  0  0  0  0  0
  148.3730  157.2630  132.9280 C   0  0  0  0  0  0  0  0  0  0  0  0
  147.2620  156.4110  133.1650 C   0  0  0  0  0  0  0  0  0  0  0  0
  147.4080  154.9170  133.0230 C   0  0  0  0  0  0  0  0  0  0  0  0
  147.4620  154.3110  134.2650 F   0  0  0  0  0  0  0  0  0  0  0  0
  148.5700  154.6060  132.3370 F   0  0  0  0  0  0  0  0  0  0  0  0
  146.3250  154.4190  132.3230 F   0  0  0  0  0  0  0  0  0  0  0  0
  145.9960  156.9800  133.4390 C   0  0  0  0  0  0  0  0  0  0  0  0
  145.8950  158.3730  133.5260 C   0  0  0  0  0  0  0  0  0  0  0  0
  144.7940  159.1200  133.7630 N   0  0  0  0  0  0  0  0  0  0  0  0
  143.4720  158.6300  134.0400 C   0  0  0  0  0  0  0  0  0  0  0  0
  142.9390  158.8700  135.1560 O   0  0  0  0  0  0  0  0  0  0  0  0
  142.7230  157.8040  133.0300 C   0  0  0  0  0  0  0  0  0  0  0  0
  141.2050  157.8180  133.2870 C   0  0  0  0  0  0  0  0  0  0  0  0
  140.4910  158.5670  132.2330 N   0  0  0  0  0  0  0  0  0  0  0  0
  139.1340  158.0640  131.9940 C   0  0  0  0  0  0  0  0  0  0  0  0
  138.3340  159.2250  131.4270 C   0  0  0  0  0  0  0  0  0  0  0  0
  139.0890  160.4760  131.8470 C   0  0  0  0  0  0  0  0  0  0  0  0
  140.3150  159.9760  132.5970 C   0  0  0  0  0  0  0  0  0  0  0  0
  142.4050  160.7130  134.1610 H   0  0  0  0  0  0  0  0  0  0  0  0
  147.1675  161.3905  133.2310 H   0  0  0  0  0  0  0  0  0  0  0  0
  149.0939  159.3222  132.8130 H   0  0  0  0  0  0  0  0  0  0  0  0
  149.3534  156.8243  132.6907 H   0  0  0  0  0  0  0  0  0  0  0  0
  145.1112  156.3419  133.5804 H   0  0  0  0  0  0  0  0  0  0  0  0
  142.9171  158.2087  132.0257 H   0  0  0  0  0  0  0  0  0  0  0  0
  143.0728  156.7645  133.1139 H   0  0  0  0  0  0  0  0  0  0  0  0
  140.8346  156.7824  133.3046 H   0  0  0  0  0  0  0  0  0  0  0  0
  141.0199  158.3129  134.2518 H   0  0  0  0  0  0  0  0  0  0  0  0
  139.1587  157.2327  131.2741 H   0  0  0  0  0  0  0  0  0  0  0  0
  138.6815  157.6867  132.9229 H   0  0  0  0  0  0  0  0  0  0  0  0
  138.2809  159.1571  130.3304 H   0  0  0  0  0  0  0  0  0  0  0  0
  137.2979  159.2281  131.7964 H   0  0  0  0  0  0  0  0  0  0  0  0
  139.3894  161.0588  130.9638 H   0  0  0  0  0  0  0  0  0  0  0  0
  138.4696  161.1373  132.4708 H   0  0  0  0  0  0  0  0  0  0  0  0
  141.2017  160.5565  132.3023 H   0  0  0  0  0  0  0  0  0  0  0  0
  140.1853  160.0889  133.6835 H   0  0  0  0  0  0  0  0  0  0  0  0
  1  2  1  0
  2  3  2  0
  2  4  1  0
  4  5  2  0
  5  6  1  0
  6  7  2  0
  7  8  1  0
  8  9  2  0
  9 10  1  0
 10 11  1  0
 10 12  1  0
 10 13  1  0
  9 14  1  0
 14 15  2  0
 15 16  1  0
 16 17  1  0
 17 18  2  0
 17 19  1  0
 19 20  1  0
 20 21  1  0
 21 22  1  0
 22 23  1  0
 23 24  1  0
 24 25  1  0
 16  4  1  0
 25 21  1  0
 15  6  1  0
  1 26  1  0
  5 27  1  0
  7 28  1  0
  8 29  1  0
 14 30  1  0
 19 31  1  0
 19 32  1  0
 20 33  1  0
 20 34  1  0
 22 35  1  0
 22 36  1  0
 23 37  1  0
 23 38  1  0
 24 39  1  0
 24 40  1  0
 25 41  1  0
 25 42  1  0
M  CHG  1   1  -1
M  END
>  <UniqueID>  (34) 
34

>  <SMILES>  (34) 
[NH-]C(=O)c1cc2ccc(C(F)(F)F)cc2n1C(=O)CCN1CCCC1

>  <Energy>  (34) 
83.62606182156013

>  <Genealogy>  (34) 
[NH-]C(=O)c1cc2ccc(C(F)(F)F)cc2n1C(=O)CCN1CCCC1 (protonated)
[NH-]C(=O)c1cc2ccc(C(F)(F)F)cc2n1C(=O)CCN1CCCC1 (3D coordinates assigned)
[NH-]C(=O)c1cc2ccc(C(F)(F)F)cc2n1C(=O)CCN1CCCC1 (nonaromatic ring conformer: 83.62606182156013 kcal/mol)

>  <smiles>  (34) 
NC(=O)c1cc2ccc(C(F)(F)F)cc2n1C(=O)CCN1CCCC1

>  <score_type>  (34) 
oracle

>  <origin>  (34) 
adg

>  <m_score__min__energy>  (34) 
-7.0899999999999999

>  <m_primary>  (34) 
energy

$$$$
35:0
     RDKit          3D

 48 50  0  0  0  0  0  0  0  0999 V2000
  140.0470  148.6150  131.2130 C   0  0  0  0  0  0  0  0  0  0  0  0
  140.2300  148.9830  132.5620 O   0  0  0  0  0  0  0  0  0  0  0  0
  141.2740  149.9320  132.6720 C   0  0  0  0  0  0  0  0  0  0  0  0
  140.7360  151.3400  132.6130 C   0  0  0  0  0  0  0  0  0  0  0  0
  139.5470  151.5210  132.2300 O   0  0  0  0  0  0  0  0  0  0  0  0
  141.5560  152.4770  132.9490 N   0  0  0  0  0  0  0  0  0  0  0  0
  140.8990  153.7450  133.3010 C   0  0  0  0  0  0  0  0  0  0  0  0
  141.8510  154.6920  134.0380 C   0  0  0  0  0  0  0  0  0  0  0  0
  143.1180  154.8350  133.3070 N   0  0  0  0  0  0  0  0  0  0  0  0
  143.8690  156.0670  133.3870 C   0  0  0  0  0  0  0  0  0  0  0  0
  145.2770  156.0670  133.2010 C   0  0  0  0  0  0  0  0  0  0  0  0
  146.0160  157.2590  133.2840 C   0  0  0  0  0  0  0  0  0  0  0  0
  145.3250  158.4370  133.5440 C   0  0  0  0  0  0  0  0  0  0  0  0
  145.7950  159.7210  133.6980 C   0  0  0  0  0  0  0  0  0  0  0  0
  144.6670  160.4990  133.9530 C   0  0  0  0  0  0  0  0  0  0  0  0
  144.7080  161.9690  134.1000 C   0  0  0  0  0  0  0  0  0  0  0  0
  143.7360  162.7750  133.4400 N   0  0  0  0  0  0  0  0  0  0  0  0
  145.5700  162.5190  134.8340 O   0  0  0  0  0  0  0  0  0  0  0  0
  143.5450  159.7250  133.9600 N   0  0  0  0  0  0  0  0  0  0  0  0
  142.1990  160.1330  134.2550 C   0  0  0  0  0  0  0  0  0  0  0  0
  141.5050  160.7010  133.3670 O   0  0  0  0  0  0  0  0  0  0  0  0
  141.6550  159.8770  135.5180 O   0  0  0  0  0  0  0  0  0  0  0  0
  140.8150  158.7610  135.7800 C   0  0  0  0  0  0  0  0  0  0  0  0
  143.9650  158.4650  133.7060 C   0  0  0  0  0  0  0  0  0  0  0  0
  143.2060  157.2910  133.6460 C   0  0  0  0  0  0  0  0  0  0  0  0
  143.6780  153.6880  132.5750 C   0  0  0  0  0  0  0  0  0  0  0  0
  143.0220  152.3700  132.9980 C   0  0  0  0  0  0  0  0  0  0  0  0
  139.5577  147.6310  131.1645 H   0  0  0  0  0  0  0  0  0  0  0  0
  139.4161  149.3634  130.7111 H   0  0  0  0  0  0  0  0  0  0  0  0
  141.0245  148.5636  130.7111 H   0  0  0  0  0  0  0  0  0  0  0  0
  141.7931  149.7856  133.6307 H   0  0  0  0  0  0  0  0  0  0  0  0
  141.9678  149.7874  131.8308 H   0  0  0  0  0  0  0  0  0  0  0  0
  140.5524  154.2347  132.3790 H   0  0  0  0  0  0  0  0  0  0  0  0
  140.0550  153.5194  133.9694 H   0  0  0  0  0  0  0  0  0  0  0  0
  141.3757  155.6796  134.1316 H   0  0  0  0  0  0  0  0  0  0  0  0
  142.0642  154.2726  135.0323 H   0  0  0  0  0  0  0  0  0  0  0  0
  145.7961  155.1206  132.9890 H   0  0  0  0  0  0  0  0  0  0  0  0
  147.1075  157.2602  133.1475 H   0  0  0  0  0  0  0  0  0  0  0  0
  146.8391  160.0612  133.6335 H   0  0  0  0  0  0  0  0  0  0  0  0
  142.7400  162.4670  133.3690 H   0  0  0  0  0  0  0  0  0  0  0  0
  140.7133  158.6258  136.8669 H   0  0  0  0  0  0  0  0  0  0  0  0
  139.8232  158.9368  135.3379 H   0  0  0  0  0  0  0  0  0  0  0  0
  141.2584  157.8566  135.3379 H   0  0  0  0  0  0  0  0  0  0  0  0
  142.1167  157.3184  133.7969 H   0  0  0  0  0  0  0  0  0  0  0  0
  143.5137  153.8382  131.4977 H   0  0  0  0  0  0  0  0  0  0  0  0
  144.7518  153.6257  132.8055 H   0  0  0  0  0  0  0  0  0  0  0  0
  143.3482  151.5700  132.3171 H   0  0  0  0  0  0  0  0  0  0  0  0
  143.3245  152.1410  134.0305 H   0  0  0  0  0  0  0  0  0  0  0  0
  1  2  1  0
  2  3  1  0
  3  4  1  0
  4  5  2  0
  4  6  1  0
  6  7  1  0
  7  8  1  0
  8  9  1  0
  9 10  1  0
 10 11  2  0
 11 12  1  0
 12 13  2  0
 13 14  1  0
 14 15  2  0
 15 16  1  0
 16 17  1  0
 16 18  2  0
 15 19  1  0
 19 20  1  0
 20 21  2  0
 20 22  1  0
 22 23  1  0
 19 24  1  0
 24 25  2  0
  9 26  1  0
 26 27  1  0
 27  6  1  0
 25 10  1  0
 24 13  1  0
  1 28  1  0
  1 29  1  0
  1 30  1  0
  3 31  1  0
  3 32  1  0
  7 33  1  0
  7 34  1  0
  8 35  1  0
  8 36  1  0
 11 37  1  0
 12 38  1  0
 14 39  1  0
 17 40  1  0
 23 41  1  0
 23 42  1  0
 23 43  1  0
 25 44  1  0
 26 45  1  0
 26 46  1  0
 27 47  1  0
 27 48  1  0
M  CHG  1  17  -1
M  END
>  <UniqueID>  (35) 
35

>  <SMILES>  (35) 
COCC(=O)N1CCN(c2ccc3cc(C([NH-])=O)n(C(=O)OC)c3c2)CC1

>  <Energy>  (35) 
91.42351505986892

>  <Genealogy>  (35) 
COCC(=O)N1CCN(c2ccc3cc(C([NH-])=O)n(C(=O)OC)c3c2)CC1 (protonated)
COCC(=O)N1CCN(c2ccc3cc(C([NH-])=O)n(C(=O)OC)c3c2)CC1 (3D coordinates assigned)
COCC(=O)N1CCN(c2ccc3cc(C([NH-])=O)n(C(=O)OC)c3c2)CC1 (nonaromatic ring conformer: 91.42351505986892 kcal/mol)

>  <smiles>  (35) 
COCC(=O)N1CCN(c2ccc3cc(C(N)=O)n(C(=O)OC)c3c2)CC1

>  <score_type>  (35) 
oracle

>  <origin>  (35) 
adg

>  <m_score__min__energy>  (35) 
-7.0300000000000002

>  <m_primary>  (35) 
energy

$$$$
36:0
     RDKit          3D

 43 45  0  0  0  0  0  0  0  0999 V2000
  141.1140  158.5960  136.2090 C   0  0  0  0  0  0  0  0  0  0  0  0
  140.4320  158.4740  134.8760 C   0  0  0  0  0  0  0  0  0  0  0  0
  139.1410  158.0410  134.8480 N   0  0  0  0  0  0  0  0  0  0  0  0
  138.4550  157.8820  133.6860 C   0  0  0  0  0  0  0  0  0  0  0  0
  139.0720  158.1590  132.4680 C   0  0  0  0  0  0  0  0  0  0  0  0
  140.3910  158.6120  132.4570 C   0  0  0  0  0  0  0  0  0  0  0  0
  141.0880  158.7910  133.6630 C   0  0  0  0  0  0  0  0  0  0  0  0
  142.4790  159.2910  133.6200 C   0  0  0  0  0  0  0  0  0  0  0  0
  142.7500  160.6730  133.7820 C   0  0  0  0  0  0  0  0  0  0  0  0
  144.0690  161.1530  133.7460 C   0  0  0  0  0  0  0  0  0  0  0  0
  145.0920  160.2340  133.5300 C   0  0  0  0  0  0  0  0  0  0  0  0
  146.4530  160.4230  133.4720 C   0  0  0  0  0  0  0  0  0  0  0  0
  146.9930  159.1600  133.2410 C   0  0  0  0  0  0  0  0  0  0  0  0
  148.4340  158.9180  133.0250 C   0  0  0  0  0  0  0  0  0  0  0  0
  148.8940  158.4660  131.7540 N   0  0  0  0  0  0  0  0  0  0  0  0
  149.2620  159.0680  133.9620 O   0  0  0  0  0  0  0  0  0  0  0  0
  146.0040  158.2240  133.1650 N   0  0  0  0  0  0  0  0  0  0  0  0
  146.1510  156.8030  133.0160 C   0  0  0  0  0  0  0  0  0  0  0  0
  145.1750  156.0410  133.2580 O   0  0  0  0  0  0  0  0  0  0  0  0
  147.3870  156.2690  132.6320 O   0  0  0  0  0  0  0  0  0  0  0  0
  148.1410  155.3620  133.4370 C   0  0  0  0  0  0  0  0  0  0  0  0
  147.7390  155.4990  134.9090 C   0  0  0  0  0  0  0  0  0  0  0  0
  147.8870  153.9390  132.9450 C   0  0  0  0  0  0  0  0  0  0  0  0
  144.8460  158.8980  133.3420 C   0  0  0  0  0  0  0  0  0  0  0  0
  143.5430  158.3900  133.3920 C   0  0  0  0  0  0  0  0  0  0  0  0
  140.3746  158.4637  137.0126 H   0  0  0  0  0  0  0  0  0  0  0  0
  141.8915  157.8227  136.2952 H   0  0  0  0  0  0  0  0  0  0  0  0
  141.5752  159.5909  136.2952 H   0  0  0  0  0  0  0  0  0  0  0  0
  137.4116  157.5343  133.7070 H   0  0  0  0  0  0  0  0  0  0  0  0
  138.5241  158.0217  131.5241 H   0  0  0  0  0  0  0  0  0  0  0  0
  140.8874  158.8300  131.4999 H   0  0  0  0  0  0  0  0  0  0  0  0
  141.9186  161.3763  133.9375 H   0  0  0  0  0  0  0  0  0  0  0  0
  144.2872  162.2222  133.8842 H   0  0  0  0  0  0  0  0  0  0  0  0
  146.9995  161.3710  133.5843 H   0  0  0  0  0  0  0  0  0  0  0  0
  148.7160  157.4880  131.4340 H   0  0  0  0  0  0  0  0  0  0  0  0
  149.2129  155.5943  133.3531 H   0  0  0  0  0  0  0  0  0  0  0  0
  148.5860  155.2104  135.5488 H   0  0  0  0  0  0  0  0  0  0  0  0
  147.4609  156.5426  135.1175 H   0  0  0  0  0  0  0  0  0  0  0  0
  146.8815  154.8423  135.1175 H   0  0  0  0  0  0  0  0  0  0  0  0
  147.7673  153.2683  133.8086 H   0  0  0  0  0  0  0  0  0  0  0  0
  146.9712  153.9196  132.3360 H   0  0  0  0  0  0  0  0  0  0  0  0
  148.7395  153.6039  132.3360 H   0  0  0  0  0  0  0  0  0  0  0  0
  143.3519  157.3152  133.2570 H   0  0  0  0  0  0  0  0  0  0  0  0
  1  2  1  0
  2  3  2  0
  3  4  1  0
  4  5  2  0
  5  6  1  0
  6  7  2  0
  7  8  1  0
  8  9  2  0
  9 10  1  0
 10 11  2  0
 11 12  1  0
 12 13  2  0
 13 14  1  0
 14 15  1  0
 14 16  2  0
 13 17  1  0
 17 18  1  0
 18 19  2  0
 18 20  1  0
 20 21  1  0
 21 22  1  0
 21 23  1  0
 17 24  1  0
 24 25  2  0
  7  2  1  0
 25  8  1  0
 24 11  1  0
  1 26  1  0
  1 27  1  0
  1 28  1  0
  4 29  1  0
  5 30  1  0
  6 31  1  0
  9 32  1  0
 10 33  1  0
 12 34  1  0
 15 35  1  0
 21 36  1  0
 22 37  1  0
 22 38  1  0
 22 39  1  0
 23 40  1  0
 23 41  1  0
 23 42  1  0
 25 43  1  0
M  CHG  1  15  -1
M  END
>  <UniqueID>  (36) 
36

>  <SMILES>  (36) 
Cc1ncccc1-c1ccc2cc(C([NH-])=O)n(C(=O)OC(C)C)c2c1

>  <Energy>  (36) 
85.07726735949471

>  <Genealogy>  (36) 
Cc1ncccc1-c1ccc2cc(C([NH-])=O)n(C(=O)OC(C)C)c2c1 (protonated)
Cc1ncccc1-c1ccc2cc(C([NH-])=O)n(C(=O)OC(C)C)c2c1 (3D coordinates assigned)
Cc1ncccc1-c1ccc2cc(C([NH-])=O)n(C(=O)OC(C)C)c2c1 (optimized conformer: 85.07726735949471 kcal/mol)

>  <smiles>  (36) 
Cc1ncccc1-c1ccc2cc(C(N)=O)n(C(=O)OC(C)C)c2c1

>  <score_type>  (36) 
oracle

>  <origin>  (36) 
adg

>  <m_score__min__energy>  (36) 
-7.7199999999999998

>  <m_primary>  (36) 
energy

$$$$
37:0
     RDKit          3D

 50 51  0  0  0  0  0  0  0  0999 V2000
  142.4440  152.2350  133.0600 C   0  0  0  0  0  0  0  0  0  0  0  0
  143.9060  151.8010  132.9560 C   0  0  0  0  0  0  0  0  0  0  0  0
  144.8120  152.9660  132.8550 N   0  0  0  0  0  0  0  0  0  0  0  0
  146.2130  152.5530  132.6020 C   0  0  0  0  0  0  0  0  0  0  0  0
  147.1680  153.3950  133.4570 C   0  0  0  0  0  0  0  0  0  0  0  0
  148.4310  153.7930  132.6860 C   0  0  0  0  0  0  0  0  0  0  0  0
  148.6710  155.1700  132.8020 O   0  0  0  0  0  0  0  0  0  0  0  0
  144.3490  154.0070  131.9050 C   0  0  0  0  0  0  0  0  0  0  0  0
  144.3390  155.4370  132.4790 C   0  0  0  0  0  0  0  0  0  0  0  0
  145.6680  155.9400  132.5940 O   0  0  0  0  0  0  0  0  0  0  0  0
  146.0690  156.7520  133.6600 C   0  0  0  0  0  0  0  0  0  0  0  0
  146.6460  156.2460  134.6610 O   0  0  0  0  0  0  0  0  0  0  0  0
  145.8080  158.1640  133.6270 N   0  0  0  0  0  0  0  0  0  0  0  0
  146.6970  159.1640  133.3640 C   0  0  0  0  0  0  0  0  0  0  0  0
  148.1560  158.9910  133.1910 C   0  0  0  0  0  0  0  0  0  0  0  0
  148.7870  157.7480  133.5040 N   0  0  0  0  0  0  0  0  0  0  0  0
  148.8560  159.9350  132.7370 O   0  0  0  0  0  0  0  0  0  0  0  0
  146.0520  160.4010  133.3620 C   0  0  0  0  0  0  0  0  0  0  0  0
  144.7320  160.1240  133.6340 C   0  0  0  0  0  0  0  0  0  0  0  0
  143.6430  160.9830  133.7440 C   0  0  0  0  0  0  0  0  0  0  0  0
  142.3820  160.4190  134.0020 C   0  0  0  0  0  0  0  0  0  0  0  0
  142.2270  159.0120  134.1210 C   0  0  0  0  0  0  0  0  0  0  0  0
  140.8750  158.4220  134.4270 C   0  0  0  0  0  0  0  0  0  0  0  0
  140.9460  157.0460  134.3250 F   0  0  0  0  0  0  0  0  0  0  0  0
  139.9240  158.8940  133.5370 F   0  0  0  0  0  0  0  0  0  0  0  0
  140.4720  158.7580  135.7080 F   0  0  0  0  0  0  0  0  0  0  0  0
  143.3650  158.1760  134.0270 C   0  0  0  0  0  0  0  0  0  0  0  0
  144.6100  158.7680  133.7880 C   0  0  0  0  0  0  0  0  0  0  0  0
  142.1610  152.3190  134.1196 H   0  0  0  0  0  0  0  0  0  0  0  0
  142.3151  153.2102  132.5676 H   0  0  0  0  0  0  0  0  0  0  0  0
  141.8039  151.4881  132.5676 H   0  0  0  0  0  0  0  0  0  0  0  0
  144.1706  151.2191  133.8512 H   0  0  0  0  0  0  0  0  0  0  0  0
  144.0217  151.1941  132.0459 H   0  0  0  0  0  0  0  0  0  0  0  0
  146.3324  151.4905  132.8607 H   0  0  0  0  0  0  0  0  0  0  0  0
  146.4491  152.7056  131.5385 H   0  0  0  0  0  0  0  0  0  0  0  0
  146.6455  154.3083  133.7779 H   0  0  0  0  0  0  0  0  0  0  0  0
  147.4752  152.7873  134.3209 H   0  0  0  0  0  0  0  0  0  0  0  0
  149.2911  153.2413  133.0931 H   0  0  0  0  0  0  0  0  0  0  0  0
  148.2878  153.5479  131.6233 H   0  0  0  0  0  0  0  0  0  0  0  0
  147.7870  155.6100  132.8930 H   0  0  0  0  0  0  0  0  0  0  0  0
  145.0142  153.9931  131.0290 H   0  0  0  0  0  0  0  0  0  0  0  0
  143.3057  153.7622  131.6568 H   0  0  0  0  0  0  0  0  0  0  0  0
  143.7613  156.0914  131.8096 H   0  0  0  0  0  0  0  0  0  0  0  0
  143.8800  155.4151  133.4784 H   0  0  0  0  0  0  0  0  0  0  0  0
  148.2540  156.9610  133.9340 H   0  0  0  0  0  0  0  0  0  0  0  0
  149.8100  157.6240  133.3370 H   0  0  0  0  0  0  0  0  0  0  0  0
  146.5029  161.3880  133.1814 H   0  0  0  0  0  0  0  0  0  0  0  0
  143.7654  162.0705  133.6324 H   0  0  0  0  0  0  0  0  0  0  0  0
  141.5054  161.0742  134.1130 H   0  0  0  0  0  0  0  0  0  0  0  0
  143.2728  157.0856  134.1393 H   0  0  0  0  0  0  0  0  0  0  0  0
  1  2  1  0
  2  3  1  0
  3  4  1  0
  4  5  1  0
  5  6  1  0
  6  7  1  0
  3  8  1  0
  8  9  1  0
  9 10  1  0
 10 11  1  0
 11 12  2  0
 11 13  1  0
 13 14  1  0
 14 15  1  0
 15 16  1  0
 15 17  2  0
 14 18  2  0
 18 19  1  0
 19 20  2  0
 20 21  1  0
 21 22  2  0
 22 23  1  0
 23 24  1  0
 23 25  1  0
 23 26  1  0
 22 27  1  0
 27 28  2  0
 28 13  1  0
 28 19  1  0
  1 29  1  0
  1 30  1  0
  1 31  1  0
  2 32  1  0
  2 33  1  0
  4 34  1  0
  4 35  1  0
  5 36  1  0
  5 37  1  0
  6 38  1  0
  6 39  1  0
  7 40  1  0
  8 41  1  0
  8 42  1  0
  9 43  1  0
  9 44  1  0
 16 45  1  0
 16 46  1  0
 18 47  1  0
 20 48  1  0
 21 49  1  0
 27 50  1  0
M  END
>  <UniqueID>  (37) 
37

>  <SMILES>  (37) 
CCN(CCCO)CCOC(=O)n1c(C(N)=O)cc2ccc(C(F)(F)F)cc21

>  <Energy>  (37) 
85.08994658060023

>  <Genealogy>  (37) 
CCN(CCCO)CCOC(=O)n1c(C(N)=O)cc2ccc(C(F)(F)F)cc21 (3D coordinates assigned)
CCN(CCCO)CCOC(=O)n1c(C(N)=O)cc2ccc(C(F)(F)F)cc21 (optimized conformer: 85.08994658060023 kcal/mol)

>  <smiles>  (37) 
CCN(CCCO)CCOC(=O)n1c(C(N)=O)cc2ccc(C(F)(F)F)cc21

>  <score_type>  (37) 
oracle

>  <origin>  (37) 
adg

>  <m_score__min__energy>  (37) 
-5.9299999999999997

>  <m_primary>  (37) 
energy

$$$$
38:0
     RDKit          3D

 36 38  0  0  0  0  0  0  0  0999 V2000
  149.8190  157.6580  132.1070 N   0  0  0  0  0  0  0  0  0  0  0  0
  149.1680  158.8970  132.3730 C   0  0  0  0  0  0  0  0  0  0  0  0
  149.7920  159.9750  132.1830 O   0  0  0  0  0  0  0  0  0  0  0  0
  147.7570  158.9370  132.8110 C   0  0  0  0  0  0  0  0  0  0  0  0
  147.0060  160.1100  132.8730 C   0  0  0  0  0  0  0  0  0  0  0  0
  145.7380  159.7130  133.2280 C   0  0  0  0  0  0  0  0  0  0  0  0
  144.5870  160.4690  133.4300 C   0  0  0  0  0  0  0  0  0  0  0  0
  143.4150  159.7940  133.8110 C   0  0  0  0  0  0  0  0  0  0  0  0
  143.4190  158.3900  134.0010 C   0  0  0  0  0  0  0  0  0  0  0  0
  142.1530  157.6750  134.3800 C   0  0  0  0  0  0  0  0  0  0  0  0
  141.5740  158.2780  135.6200 C   0  0  0  0  0  0  0  0  0  0  0  0
  141.6610  157.7920  136.9050 C   0  0  0  0  0  0  0  0  0  0  0  0
  141.0860  158.6750  137.7430 N   0  0  0  0  0  0  0  0  0  0  0  0
  140.6500  159.7090  137.0350 N   0  0  0  0  0  0  0  0  0  0  0  0
  140.9410  159.4960  135.7390 C   0  0  0  0  0  0  0  0  0  0  0  0
  144.6050  157.6550  133.7770 C   0  0  0  0  0  0  0  0  0  0  0  0
  145.7520  158.3500  133.3780 C   0  0  0  0  0  0  0  0  0  0  0  0
  146.9850  157.8590  133.1280 N   0  0  0  0  0  0  0  0  0  0  0  0
  147.3920  156.4870  133.2500 C   0  0  0  0  0  0  0  0  0  0  0  0
  147.6860  155.8230  132.2190 O   0  0  0  0  0  0  0  0  0  0  0  0
  147.4860  155.9020  134.5190 O   0  0  0  0  0  0  0  0  0  0  0  0
  146.9990  154.5960  134.8170 C   0  0  0  0  0  0  0  0  0  0  0  0
  147.4810  154.1580  136.1630 C   0  0  0  0  0  0  0  0  0  0  0  0
  148.3750  154.8130  136.7620 O   0  0  0  0  0  0  0  0  0  0  0  0
  146.9640  153.0060  136.7430 O   0  0  0  0  0  0  0  0  0  0  0  0
  149.3820  156.9440  131.4820 H   0  0  0  0  0  0  0  0  0  0  0  0
  147.3538  161.1354  132.6791 H   0  0  0  0  0  0  0  0  0  0  0  0
  144.5946  161.5607  133.2956 H   0  0  0  0  0  0  0  0  0  0  0  0
  142.4850  160.3614  133.9633 H   0  0  0  0  0  0  0  0  0  0  0  0
  141.4260  157.7625  133.5592 H   0  0  0  0  0  0  0  0  0  0  0  0
  142.3802  156.6151  134.5672 H   0  0  0  0  0  0  0  0  0  0  0  0
  142.1243  156.8386  137.1989 H   0  0  0  0  0  0  0  0  0  0  0  0
  140.7112  160.1818  134.9102 H   0  0  0  0  0  0  0  0  0  0  0  0
  144.6259  156.5636  133.9129 H   0  0  0  0  0  0  0  0  0  0  0  0
  145.8991  154.6087  134.8117 H   0  0  0  0  0  0  0  0  0  0  0  0
  147.3709  153.8930  134.0571 H   0  0  0  0  0  0  0  0  0  0  0  0
  1  2  1  0
  2  3  2  0
  2  4  1  0
  4  5  2  0
  5  6  1  0
  6  7  2  0
  7  8  1  0
  8  9  2  0
  9 10  1  0
 10 11  1  0
 11 12  1  0
 12 13  2  0
 13 14  1  0
 14 15  1  0
  9 16  1  0
 16 17  2  0
 17 18  1  0
 18 19  1  0
 19 20  2  0
 19 21  1  0
 21 22  1  0
 22 23  1  0
 23 24  2  0
 23 25  1  0
 18  4  1  0
 17  6  1  0
 15 11  2  0
  1 26  1  0
  5 27  1  0
  7 28  1  0
  8 29  1  0
 10 30  1  0
 10 31  1  0
 12 32  1  0
 15 33  1  0
 16 34  1  0
 22 35  1  0
 22 36  1  0
M  CHG  3   1  -1  14  -1  25  -1
M  END
>  <UniqueID>  (38) 
38

>  <SMILES>  (38) 
[NH-]C(=O)c1cc2ccc(Cc3cn[n-]c3)cc2n1C(=O)OCC(=O)[O-]

>  <Energy>  (38) 
102.85221053691217

>  <Genealogy>  (38) 
[NH-]C(=O)c1cc2ccc(Cc3cn[n-]c3)cc2n1C(=O)OCC(=O)[O-] (protonated)
[NH-]C(=O)c1cc2ccc(Cc3cn[n-]c3)cc2n1C(=O)OCC(=O)[O-] (3D coordinates assigned)
[NH-]C(=O)c1cc2ccc(Cc3cn[n-]c3)cc2n1C(=O)OCC(=O)[O-] (optimized conformer: 102.85221053691217 kcal/mol)

>  <smiles>  (38) 
NC(=O)c1cc2ccc(Cc3cn[nH]c3)cc2n1C(=O)OCC(=O)O

>  <score_type>  (38) 
oracle

>  <origin>  (38) 
adg

>  <m_score__min__energy>  (38) 
-6.9500000000000002

>  <m_primary>  (38) 
energy

$$$$
39:0
     RDKit          3D

 47 50  0  0  0  0  0  0  0  0999 V2000
  145.3250  152.8120  132.9170 C   0  0  0  0  0  0  0  0  0  0  0  0
  144.3120  153.6690  133.5160 N   0  0  0  0  0  0  0  0  0  0  0  0
  143.4030  154.4000  132.8460 C   0  0  0  0  0  0  0  0  0  0  0  0
  142.6810  155.1270  133.7690 C   0  0  0  0  0  0  0  0  0  0  0  0
  141.5670  156.0510  133.4960 C   0  0  0  0  0  0  0  0  0  0  0  0
  140.5000  155.6050  132.9950 O   0  0  0  0  0  0  0  0  0  0  0  0
  141.6680  157.4470  133.8180 N   0  0  0  0  0  0  0  0  0  0  0  0
  140.6650  158.3090  134.1480 C   0  0  0  0  0  0  0  0  0  0  0  0
  139.2510  157.9470  134.3770 C   0  0  0  0  0  0  0  0  0  0  0  0
  138.4660  157.3250  133.3590 N   0  0  0  0  0  0  0  0  0  0  0  0
  138.7360  158.1570  135.5070 O   0  0  0  0  0  0  0  0  0  0  0  0
  141.1590  159.6050  134.2750 C   0  0  0  0  0  0  0  0  0  0  0  0
  142.5100  159.5070  134.0270 C   0  0  0  0  0  0  0  0  0  0  0  0
  143.4910  160.4940  134.0000 C   0  0  0  0  0  0  0  0  0  0  0  0
  144.8030  160.1080  133.6770 C   0  0  0  0  0  0  0  0  0  0  0  0
  145.1070  158.7530  133.3880 C   0  0  0  0  0  0  0  0  0  0  0  0
  146.5040  158.3610  132.9800 C   0  0  0  0  0  0  0  0  0  0  0  0
  147.5170  159.4740  133.2800 C   0  0  0  0  0  0  0  0  0  0  0  0
  148.2560  159.9000  132.0420 C   0  0  0  0  0  0  0  0  0  0  0  0
  148.8230  158.9480  131.1820 C   0  0  0  0  0  0  0  0  0  0  0  0
  149.5460  159.3780  130.0670 C   0  0  0  0  0  0  0  0  0  0  0  0
  149.7020  160.7430  129.8250 C   0  0  0  0  0  0  0  0  0  0  0  0
  149.1310  161.6630  130.7060 C   0  0  0  0  0  0  0  0  0  0  0  0
  148.4300  161.2270  131.7860 N   0  0  0  0  0  0  0  0  0  0  0  0
  144.0830  157.7810  133.4190 C   0  0  0  0  0  0  0  0  0  0  0  0
  142.7900  158.1930  133.7570 C   0  0  0  0  0  0  0  0  0  0  0  0
  143.2160  154.7860  134.9990 C   0  0  0  0  0  0  0  0  0  0  0  0
  144.2170  153.9020  134.8160 N   0  0  0  0  0  0  0  0  0  0  0  0
  145.9059  152.3205  133.7114 H   0  0  0  0  0  0  0  0  0  0  0  0
  144.8372  152.0483  132.2935 H   0  0  0  0  0  0  0  0  0  0  0  0
  145.9973  153.4196  132.2935 H   0  0  0  0  0  0  0  0  0  0  0  0
  143.2608  154.4152  131.7553 H   0  0  0  0  0  0  0  0  0  0  0  0
  137.4520  157.1380  133.5210 H   0  0  0  0  0  0  0  0  0  0  0  0
  138.9020  156.9620  132.4830 H   0  0  0  0  0  0  0  0  0  0  0  0
  140.5906  160.5140  134.5212 H   0  0  0  0  0  0  0  0  0  0  0  0
  143.2470  161.5429  134.2244 H   0  0  0  0  0  0  0  0  0  0  0  0
  145.6018  160.8637  133.6480 H   0  0  0  0  0  0  0  0  0  0  0  0
  146.7956  157.4554  133.5321 H   0  0  0  0  0  0  0  0  0  0  0  0
  146.5058  158.1793  131.8951 H   0  0  0  0  0  0  0  0  0  0  0  0
  146.9816  160.3420  133.6923 H   0  0  0  0  0  0  0  0  0  0  0  0
  148.2508  159.0852  134.0014 H   0  0  0  0  0  0  0  0  0  0  0  0
  148.6995  157.8737  131.3836 H   0  0  0  0  0  0  0  0  0  0  0  0
  149.9913  158.6421  129.3813 H   0  0  0  0  0  0  0  0  0  0  0  0
  150.2691  161.0908  128.9490 H   0  0  0  0  0  0  0  0  0  0  0  0
  149.2484  162.7418  130.5261 H   0  0  0  0  0  0  0  0  0  0  0  0
  144.2967  156.7280  133.1836 H   0  0  0  0  0  0  0  0  0  0  0  0
  142.8782  155.1745  135.9711 H   0  0  0  0  0  0  0  0  0  0  0  0
  1  2  1  0
  2  3  1  0
  3  4  2  0
  4  5  1  0
  5  6  2  0
  5  7  1  0
  7  8  1  0
  8  9  1  0
  9 10  1  0
  9 11  2  0
  8 12  2  0
 12 13  1  0
 13 14  2  0
 14 15  1  0
 15 16  2  0
 16 17  1  0
 17 18  1  0
 18 19  1  0
 19 20  2  0
 20 21  1  0
 21 22  2  0
 22 23  1  0
 23 24  2  0
 16 25  1  0
 25 26  2  0
  4 27  1  0
 27 28  2  0
 28  2  1  0
 26  7  1  0
 26 13  1  0
 24 19  1  0
  1 29  1  0
  1 30  1  0
  1 31  1  0
  3 32  1  0
 10 33  1  0
 10 34  1  0
 12 35  1  0
 14 36  1  0
 15 37  1  0
 17 38  1  0
 17 39  1  0
 18 40  1  0
 18 41  1  0
 20 42  1  0
 21 43  1  0
 22 44  1  0
 23 45  1  0
 25 46  1  0
 27 47  1  0
M  END
>  <UniqueID>  (39) 
39

>  <SMILES>  (39) 
Cn1cc(C(=O)n2c(C(N)=O)cc3ccc(CCc4ccccn4)cc32)cn1

>  <Energy>  (39) 
116.71652374614504

>  <Genealogy>  (39) 
Cn1cc(C(=O)n2c(C(N)=O)cc3ccc(CCc4ccccn4)cc32)cn1 (3D coordinates assigned)
Cn1cc(C(=O)n2c(C(N)=O)cc3ccc(CCc4ccccn4)cc32)cn1 (optimized conformer: 116.71652374614504 kcal/mol)

>  <smiles>  (39) 
Cn1cc(C(=O)n2c(C(N)=O)cc3ccc(CCc4ccccn4)cc32)cn1

>  <score_type>  (39) 
oracle

>  <origin>  (39) 
adg

>  <m_score__min__energy>  (39) 
-9.0099999999999998

>  <m_primary>  (39) 
energy

$$$$
40:0
     RDKit          3D

 28 29  0  0  0  0  0  0  0  0999 V2000
  145.8990  161.0140  133.7310 N   0  0  0  0  0  0  0  0  0  0  0  0
  145.0520  159.8720  133.6320 C   0  0  0  0  0  0  0  0  0  0  0  0
  143.8010  160.0330  133.6090 O   0  0  0  0  0  0  0  0  0  0  0  0
  145.6170  158.5140  133.5010 C   0  0  0  0  0  0  0  0  0  0  0  0
  144.8420  157.3560  133.5190 C   0  0  0  0  0  0  0  0  0  0  0  0
  145.7200  156.3240  133.2780 C   0  0  0  0  0  0  0  0  0  0  0  0
  145.4930  154.9540  133.2090 C   0  0  0  0  0  0  0  0  0  0  0  0
  146.5950  154.1140  132.9840 C   0  0  0  0  0  0  0  0  0  0  0  0
  147.8980  154.6530  132.8220 C   0  0  0  0  0  0  0  0  0  0  0  0
  149.0820  153.7370  132.6430 C   0  0  0  0  0  0  0  0  0  0  0  0
  150.2410  154.4670  132.4530 F   0  0  0  0  0  0  0  0  0  0  0  0
  148.9020  152.9150  131.5420 F   0  0  0  0  0  0  0  0  0  0  0  0
  149.2240  152.9510  133.7720 F   0  0  0  0  0  0  0  0  0  0  0  0
  148.0910  156.0500  132.9240 C   0  0  0  0  0  0  0  0  0  0  0  0
  146.9710  156.8650  133.1300 C   0  0  0  0  0  0  0  0  0  0  0  0
  146.9250  158.2090  133.2680 N   0  0  0  0  0  0  0  0  0  0  0  0
  148.0500  159.1000  133.2540 C   0  0  0  0  0  0  0  0  0  0  0  0
  148.8950  159.0640  134.1900 O   0  0  0  0  0  0  0  0  0  0  0  0
  148.2170  159.9900  132.1870 O   0  0  0  0  0  0  0  0  0  0  0  0
  149.0990  159.7430  131.0970 C   0  0  0  0  0  0  0  0  0  0  0  0
  149.6040  161.2800  130.3490 Cl  0  0  0  0  0  0  0  0  0  0  0  0
  146.6130  161.2190  132.9970 H   0  0  0  0  0  0  0  0  0  0  0  0
  143.7578  157.2824  133.6897 H   0  0  0  0  0  0  0  0  0  0  0  0
  144.4804  154.5408  133.3272 H   0  0  0  0  0  0  0  0  0  0  0  0
  146.4470  153.0252  132.9326 H   0  0  0  0  0  0  0  0  0  0  0  0
  149.0975  156.4865  132.8434 H   0  0  0  0  0  0  0  0  0  0  0  0
  149.9879  159.2085  131.4634 H   0  0  0  0  0  0  0  0  0  0  0  0
  148.5763  159.1339  130.3448 H   0  0  0  0  0  0  0  0  0  0  0  0
  1  2  1  0
  2  3  2  0
  2  4  1  0
  4  5  2  0
  5  6  1  0
  6  7  2  0
  7  8  1  0
  8  9  2  0
  9 10  1  0
 10 11  1  0
 10 12  1  0
 10 13  1  0
  9 14  1  0
 14 15  2  0
 15 16  1  0
 16 17  1  0
 17 18  2  0
 17 19  1  0
 19 20  1  0
 20 21  1  0
 16  4  1  0
 15  6  1  0
  1 22  1  0
  5 23  1  0
  7 24  1  0
  8 25  1  0
 14 26  1  0
 20 27  1  0
 20 28  1  0
M  CHG  1   1  -1
M  END
>  <UniqueID>  (40) 
40

>  <SMILES>  (40) 
[NH-]C(=O)c1cc2ccc(C(F)(F)F)cc2n1C(=O)OCCl

>  <Energy>  (40) 
66.6380845023322

>  <Genealogy>  (40) 
[NH-]C(=O)c1cc2ccc(C(F)(F)F)cc2n1C(=O)OCCl (protonated)
[NH-]C(=O)c1cc2ccc(C(F)(F)F)cc2n1C(=O)OCCl (3D coordinates assigned)
[NH-]C(=O)c1cc2ccc(C(F)(F)F)cc2n1C(=O)OCCl (optimized conformer: 66.6380845023322 kcal/mol)

>  <smiles>  (40) 
NC(=O)c1cc2ccc(C(F)(F)F)cc2n1C(=O)OCCl

>  <score_type>  (40) 
oracle

>  <origin>  (40) 
adg

>  <m_score__min__energy>  (40) 
-5.6900000000000004

>  <m_primary>  (40) 
energy

$$$$
41:0
     RDKit          3D

 33 34  0  0  0  0  0  0  0  0999 V2000
  140.5330  159.2430  132.3030 C   0  0  0  0  0  0  0  0  0  0  0  0
  141.4130  158.5850  133.3620 C   0  0  1  0  0  0  0  0  0  0  0  0
  142.7530  159.0550  133.2140 O   0  0  0  0  0  0  0  0  0  0  0  0
  143.8290  158.5630  133.9640 C   0  0  0  0  0  0  0  0  0  0  0  0
  143.6450  157.6560  134.8200 O   0  0  0  0  0  0  0  0  0  0  0  0
  145.1530  159.0730  133.7320 N   0  0  0  0  0  0  0  0  0  0  0  0
  145.5540  160.3770  133.7200 C   0  0  0  0  0  0  0  0  0  0  0  0
  144.7320  161.5420  134.1040 C   0  0  0  0  0  0  0  0  0  0  0  0
  143.3690  161.6150  133.6910 N   0  0  0  0  0  0  0  0  0  0  0  0
  145.2290  162.4940  134.7600 O   0  0  0  0  0  0  0  0  0  0  0  0
  146.8990  160.4710  133.3680 C   0  0  0  0  0  0  0  0  0  0  0  0
  147.3160  159.1760  133.1690 C   0  0  0  0  0  0  0  0  0  0  0  0
  148.5620  158.6870  132.7870 C   0  0  0  0  0  0  0  0  0  0  0  0
  148.7030  157.2980  132.6250 C   0  0  0  0  0  0  0  0  0  0  0  0
  147.6030  156.4310  132.8370 C   0  0  0  0  0  0  0  0  0  0  0  0
  147.7710  154.9520  132.6390 C   0  0  0  0  0  0  0  0  0  0  0  0
  147.4700  154.2870  133.8130 F   0  0  0  0  0  0  0  0  0  0  0  0
  149.0780  154.6750  132.2800 F   0  0  0  0  0  0  0  0  0  0  0  0
  146.3520  156.9650  133.2200 C   0  0  0  0  0  0  0  0  0  0  0  0
  146.2450  158.3500  133.3930 C   0  0  0  0  0  0  0  0  0  0  0  0
  140.8920  158.9070  134.7330 C   0  0  0  0  0  0  0  0  0  0  0  0
  141.4910  159.7470  135.4550 O   0  0  0  0  0  0  0  0  0  0  0  0
  139.7670  158.2580  135.2250 O   0  0  0  0  0  0  0  0  0  0  0  0
  139.7452  159.8321  132.7953 H   0  0  0  0  0  0  0  0  0  0  0  0
  141.1476  159.9049  131.6752 H   0  0  0  0  0  0  0  0  0  0  0  0
  140.0719  158.4663  131.6752 H   0  0  0  0  0  0  0  0  0  0  0  0
  141.3962  157.4928  133.2327 H   0  0  0  0  0  0  0  0  0  0  0  0
  142.6430  161.0050  134.1280 H   0  0  0  0  0  0  0  0  0  0  0  0
  147.4999  161.3872  133.2701 H   0  0  0  0  0  0  0  0  0  0  0  0
  149.4101  159.3666  132.6172 H   0  0  0  0  0  0  0  0  0  0  0  0
  149.6770  156.8801  132.3307 H   0  0  0  0  0  0  0  0  0  0  0  0
  147.0914  154.6165  131.8418 H   0  0  0  0  0  0  0  0  0  0  0  0
  145.4837  156.3085  133.3783 H   0  0  0  0  0  0  0  0  0  0  0  0
  1  2  1  0
  2  3  1  0
  3  4  1  0
  4  5  2  0
  4  6  1  0
  6  7  1  0
  7  8  1  0
  8  9  1  0
  8 10  2  0
  7 11  2  0
 11 12  1  0
 12 13  2  0
 13 14  1  0
 14 15  2  0
 15 16  1  0
 16 17  1  0
 16 18  1  0
 15 19  1  0
 19 20  2  0
  2 21  1  0
 21 22  2  0
 21 23  1  0
 20  6  1  0
 20 12  1  0
  1 24  1  0
  1 25  1  0
  1 26  1  0
  2 27  1  6
  9 28  1  0
 11 29  1  0
 13 30  1  0
 14 31  1  0
 16 32  1  0
 19 33  1  0
M  CHG  2   9  -1  23  -1
M  END
>  <UniqueID>  (41) 
41

>  <SMILES>  (41) 
C[C@@H](OC(=O)n1c(C([NH-])=O)cc2ccc(C(F)F)cc21)C(=O)[O-]

>  <Energy>  (41) 
67.17742977176444

>  <Genealogy>  (41) 
CC(OC(=O)n1c(C([NH-])=O)cc2ccc(C(F)F)cc21)C(=O)[O-] (protonated)
C[C@@H](OC(=O)n1c(C([NH-])=O)cc2ccc(C(F)F)cc21)C(=O)[O-] (chirality)
C[C@@H](OC(=O)n1c(C([NH-])=O)cc2ccc(C(F)F)cc21)C(=O)[O-] (3D coordinates assigned)
C[C@@H](OC(=O)n1c(C([NH-])=O)cc2ccc(C(F)F)cc21)C(=O)[O-] (optimized conformer: 67.17742977176444 kcal/mol)

>  <smiles>  (41) 
CC(OC(=O)n1c(C(N)=O)cc2ccc(C(F)F)cc21)C(=O)O

>  <score_type>  (41) 
oracle

>  <origin>  (41) 
adg

>  <m_score__min__energy>  (41) 
-6

>  <m_primary>  (41) 
energy

$$$$
42:0
     RDKit          3D

 39 41  0  0  0  0  0  0  0  0999 V2000
  139.0990  155.6600  132.8240 N   0  0  0  0  0  0  0  0  0  0  0  0
  140.0070  156.4360  133.6070 C   0  0  0  0  0  0  0  0  0  0  0  0
  139.5520  157.2620  134.4420 O   0  0  0  0  0  0  0  0  0  0  0  0
  141.4660  156.2390  133.5040 C   0  0  0  0  0  0  0  0  0  0  0  0
  142.3780  157.2900  133.4660 C   0  0  0  0  0  0  0  0  0  0  0  0
  143.6180  156.6930  133.4440 C   0  0  0  0  0  0  0  0  0  0  0  0
  144.8840  157.2680  133.3870 C   0  0  0  0  0  0  0  0  0  0  0  0
  145.9960  156.4100  133.3380 C   0  0  0  0  0  0  0  0  0  0  0  0
  145.8260  155.0020  133.3520 C   0  0  0  0  0  0  0  0  0  0  0  0
  147.0230  154.0900  133.2380 C   0  0  0  0  0  0  0  0  0  0  0  0
  147.5100  153.7640  134.4920 F   0  0  0  0  0  0  0  0  0  0  0  0
  146.6800  152.9160  132.5880 F   0  0  0  0  0  0  0  0  0  0  0  0
  148.0150  154.7290  132.5210 F   0  0  0  0  0  0  0  0  0  0  0  0
  144.5220  154.4580  133.3800 C   0  0  0  0  0  0  0  0  0  0  0  0
  143.4320  155.3340  133.4550 C   0  0  0  0  0  0  0  0  0  0  0  0
  142.1120  155.0380  133.4880 N   0  0  0  0  0  0  0  0  0  0  0  0
  141.5240  153.7280  133.4180 C   0  0  0  0  0  0  0  0  0  0  0  0
  140.5880  153.5030  132.6040 O   0  0  0  0  0  0  0  0  0  0  0  0
  142.0120  152.7090  134.2460 O   0  0  0  0  0  0  0  0  0  0  0  0
  141.4100  151.4590  134.4340 C   0  0  0  0  0  0  0  0  0  0  0  0
  140.9920  151.0990  135.5680 O   0  0  0  0  0  0  0  0  0  0  0  0
  141.2670  150.5580  133.2860 C   0  0  0  0  0  0  0  0  0  0  0  0
  140.0700  150.0470  132.8020 C   0  0  0  0  0  0  0  0  0  0  0  0
  140.2400  149.1970  131.6990 C   0  0  0  0  0  0  0  0  0  0  0  0
  139.1020  148.4800  131.0380 C   0  0  0  0  0  0  0  0  0  0  0  0
  137.9420  149.2650  131.0930 O   0  0  0  0  0  0  0  0  0  0  0  0
  141.5700  149.0220  131.3270 C   0  0  0  0  0  0  0  0  0  0  0  0
  142.5290  149.9430  132.3580 S   0  0  0  0  0  0  0  0  0  0  0  0
  139.4340  154.8540  132.2510 H   0  0  0  0  0  0  0  0  0  0  0  0
  138.0720  155.8380  132.8830 H   0  0  0  0  0  0  0  0  0  0  0  0
  142.1553  158.3672  133.4558 H   0  0  0  0  0  0  0  0  0  0  0  0
  145.0105  158.3607  133.3805 H   0  0  0  0  0  0  0  0  0  0  0  0
  147.0093  156.8351  133.2882 H   0  0  0  0  0  0  0  0  0  0  0  0
  144.3665  153.3696  133.3437 H   0  0  0  0  0  0  0  0  0  0  0  0
  139.0888  150.2844  133.2388 H   0  0  0  0  0  0  0  0  0  0  0  0
  139.3580  148.2821  129.9867 H   0  0  0  0  0  0  0  0  0  0  0  0
  138.9201  147.5309  131.5636 H   0  0  0  0  0  0  0  0  0  0  0  0
  137.3960  148.9120  131.8440 H   0  0  0  0  0  0  0  0  0  0  0  0
  141.9314  148.3908  130.5018 H   0  0  0  0  0  0  0  0  0  0  0  0
  1  2  1  0
  2  3  2  0
  2  4  1  0
  4  5  2  0
  5  6  1  0
  6  7  2  0
  7  8  1  0
  8  9  2  0
  9 10  1  0
 10 11  1  0
 10 12  1  0
 10 13  1  0
  9 14  1  0
 14 15  2  0
 15 16  1  0
 16 17  1  0
 17 18  2  0
 17 19  1  0
 19 20  1  0
 20 21  2  0
 20 22  1  0
 22 23  2  0
 23 24  1  0
 24 25  1  0
 25 26  1  0
 24 27  2  0
 27 28  1  0
 16  4  1  0
 28 22  1  0
 15  6  1  0
  1 29  1  0
  1 30  1  0
  5 31  1  0
  7 32  1  0
  8 33  1  0
 14 34  1  0
 23 35  1  0
 25 36  1  0
 25 37  1  0
 26 38  1  0
 27 39  1  0
M  END
>  <UniqueID>  (42) 
42

>  <SMILES>  (42) 
NC(=O)c1cc2ccc(C(F)(F)F)cc2n1C(=O)OC(=O)c1cc(CO)cs1

>  <Energy>  (42) 
105.44817039991797

>  <Genealogy>  (42) 
NC(=O)c1cc2ccc(C(F)(F)F)cc2n1C(=O)OC(=O)c1cc(CO)cs1 (3D coordinates assigned)
NC(=O)c1cc2ccc(C(F)(F)F)cc2n1C(=O)OC(=O)c1cc(CO)cs1 (optimized conformer: 105.44817039991797 kcal/mol)

>  <smiles>  (42) 
NC(=O)c1cc2ccc(C(F)(F)F)cc2n1C(=O)OC(=O)c1cc(CO)cs1

>  <score_type>  (42) 
oracle

>  <origin>  (42) 
adg

>  <m_score__min__energy>  (42) 
-7.7400000000000002

>  <m_primary>  (42) 
energy

$$$$
43:0
     RDKit          3D

 44 46  0  0  0  0  0  0  0  0999 V2000
  142.4700  157.1060  140.2610 C   0  0  0  0  0  0  0  0  0  0  0  0
  142.0760  158.2290  139.4780 O   0  0  0  0  0  0  0  0  0  0  0  0
  141.5510  158.1440  138.1800 C   0  0  0  0  0  0  0  0  0  0  0  0
  141.0210  159.2590  137.5080 C   0  0  0  0  0  0  0  0  0  0  0  0
  140.5130  159.1240  136.2130 C   0  0  0  0  0  0  0  0  0  0  0  0
  140.5330  157.8800  135.5600 C   0  0  0  0  0  0  0  0  0  0  0  0
  139.9950  157.7840  134.1830 C   0  0  0  0  0  0  0  0  0  0  0  0
  138.7530  157.6340  134.0200 O   0  0  0  0  0  0  0  0  0  0  0  0
  140.8940  157.8470  132.9740 C   0  0  0  0  0  0  0  0  0  0  0  0
  141.9780  158.9190  133.1290 C   0  0  0  0  0  0  0  0  0  0  0  0
  143.2930  158.2900  133.5050 C   0  0  0  0  0  0  0  0  0  0  0  0
  144.5100  158.9090  133.1250 C   0  0  0  0  0  0  0  0  0  0  0  0
  145.7430  158.3060  133.4260 C   0  0  0  0  0  0  0  0  0  0  0  0
  145.7270  157.0900  134.1030 C   0  0  0  0  0  0  0  0  0  0  0  0
  146.7690  156.2790  134.4880 C   0  0  0  0  0  0  0  0  0  0  0  0
  146.1740  155.1820  135.1080 C   0  0  0  0  0  0  0  0  0  0  0  0
  146.9450  154.0960  135.7490 C   0  0  0  0  0  0  0  0  0  0  0  0
  146.4710  153.4600  136.9330 N   0  0  0  0  0  0  0  0  0  0  0  0
  148.0630  153.7610  135.2740 O   0  0  0  0  0  0  0  0  0  0  0  0
  144.8150  155.3040  135.0980 N   0  0  0  0  0  0  0  0  0  0  0  0
  143.8400  154.3540  135.5550 C   0  0  0  0  0  0  0  0  0  0  0  0
  143.2130  153.6400  134.7290 O   0  0  0  0  0  0  0  0  0  0  0  0
  143.5610  154.2310  136.9100 O   0  0  0  0  0  0  0  0  0  0  0  0
  144.5580  156.4810  134.4830 C   0  0  0  0  0  0  0  0  0  0  0  0
  143.3160  157.0490  134.1790 C   0  0  0  0  0  0  0  0  0  0  0  0
  141.0430  156.7550  136.2440 C   0  0  0  0  0  0  0  0  0  0  0  0
  141.0180  155.4930  135.6530 O   0  0  0  0  0  0  0  0  0  0  0  0
  141.5560  156.9010  137.5420 C   0  0  0  0  0  0  0  0  0  0  0  0
  142.3827  157.3548  141.3289 H   0  0  0  0  0  0  0  0  0  0  0  0
  141.8183  156.2507  140.0293 H   0  0  0  0  0  0  0  0  0  0  0  0
  143.5133  156.8454  140.0293 H   0  0  0  0  0  0  0  0  0  0  0  0
  141.0060  160.2412  138.0030 H   0  0  0  0  0  0  0  0  0  0  0  0
  140.0929  160.0013  135.6993 H   0  0  0  0  0  0  0  0  0  0  0  0
  141.3774  156.8683  132.8378 H   0  0  0  0  0  0  0  0  0  0  0  0
  140.2771  158.1068  132.1011 H   0  0  0  0  0  0  0  0  0  0  0  0
  142.0935  159.4571  132.1766 H   0  0  0  0  0  0  0  0  0  0  0  0
  141.6771  159.6161  133.9249 H   0  0  0  0  0  0  0  0  0  0  0  0
  144.4892  159.8698  132.5898 H   0  0  0  0  0  0  0  0  0  0  0  0
  146.6919  158.7805  133.1354 H   0  0  0  0  0  0  0  0  0  0  0  0
  147.8439  156.4583  134.3383 H   0  0  0  0  0  0  0  0  0  0  0  0
  145.6530  153.8420  137.4580 H   0  0  0  0  0  0  0  0  0  0  0  0
  142.3807  156.5417  134.4580 H   0  0  0  0  0  0  0  0  0  0  0  0
  141.7680  154.8240  135.7920 H   0  0  0  0  0  0  0  0  0  0  0  0
  141.9677  156.0248  138.0643 H   0  0  0  0  0  0  0  0  0  0  0  0
  1  2  1  0
  2  3  1  0
  3  4  2  0
  4  5  1  0
  5  6  2  0
  6  7  1  0
  7  8  2  0
  7  9  1  0
  9 10  1  0
 10 11  1  0
 11 12  2  0
 12 13  1  0
 13 14  2  0
 14 15  1  0
 15 16  2  0
 16 17  1  0
 17 18  1  0
 17 19  2  0
 16 20  1  0
 20 21  1  0
 21 22  2  0
 21 23  1  0
 20 24  1  0
 24 25  2  0
  6 26  1  0
 26 27  1  0
 26 28  2  0
 28  3  1  0
 25 11  1  0
 24 14  1  0
  1 29  1  0
  1 30  1  0
  1 31  1  0
  4 32  1  0
  5 33  1  0
  9 34  1  0
  9 35  1  0
 10 36  1  0
 10 37  1  0
 12 38  1  0
 13 39  1  0
 15 40  1  0
 18 41  1  0
 25 42  1  0
 27 43  1  0
 28 44  1  0
M  CHG  2  18  -1  23  -1
M  END
>  <UniqueID>  (43) 
43

>  <SMILES>  (43) 
COc1ccc(C(=O)CCc2ccc3cc(C([NH-])=O)n(C(=O)[O-])c3c2)c(O)c1

>  <Energy>  (43) 
87.49557907131924

>  <Genealogy>  (43) 
COc1ccc(C(=O)CCc2ccc3cc(C([NH-])=O)n(C(=O)[O-])c3c2)c(O)c1 (protonated)
COc1ccc(C(=O)CCc2ccc3cc(C([NH-])=O)n(C(=O)[O-])c3c2)c(O)c1 (3D coordinates assigned)
COc1ccc(C(=O)CCc2ccc3cc(C([NH-])=O)n(C(=O)[O-])c3c2)c(O)c1 (optimized conformer: 87.49557907131924 kcal/mol)

>  <smiles>  (43) 
COc1ccc(C(=O)CCc2ccc3cc(C(N)=O)n(C(=O)O)c3c2)c(O)c1

>  <score_type>  (43) 
oracle

>  <origin>  (43) 
adg

>  <m_score__min__energy>  (43) 
-8.9700000000000006

>  <m_primary>  (43) 
energy

$$$$
44:0
     RDKit          3D

 44 46  0  0  0  0  0  0  0  0999 V2000
  140.6330  159.0050  133.5600 H   0  0  0  0  0  0  0  0  0  0  0  0
  140.6090  160.0310  133.7570 N   0  0  0  0  0  0  0  0  0  0  0  0
  141.8040  160.8060  133.7550 C   0  0  0  0  0  0  0  0  0  0  0  0
  141.7260  162.0630  133.7360 O   0  0  0  0  0  0  0  0  0  0  0  0
  143.1300  160.1540  133.7180 C   0  0  0  0  0  0  0  0  0  0  0  0
  144.3300  160.8610  133.6920 C   0  0  0  0  0  0  0  0  0  0  0  0
  144.4631  161.9510  133.7562 H   0  0  0  0  0  0  0  0  0  0  0  0
  145.3130  159.9070  133.5690 C   0  0  0  0  0  0  0  0  0  0  0  0
  146.6940  160.0500  133.4960 C   0  0  0  0  0  0  0  0  0  0  0  0
  147.1623  161.0452  133.5152 H   0  0  0  0  0  0  0  0  0  0  0  0
  147.4730  158.8860  133.3970 C   0  0  0  0  0  0  0  0  0  0  0  0
  148.5673  158.9704  133.3231 H   0  0  0  0  0  0  0  0  0  0  0  0
  146.8690  157.6040  133.3910 C   0  0  0  0  0  0  0  0  0  0  0  0
  147.7470  156.4130  133.2880 C   0  0  0  0  0  0  0  0  0  0  0  0
  148.7726  156.4886  133.6784 H   0  0  0  0  0  0  0  0  0  0  0  0
  147.3600  155.2480  132.7450 C   0  0  0  0  0  0  0  0  0  0  0  0
  146.3397  155.1661  132.3422 H   0  0  0  0  0  0  0  0  0  0  0  0
  148.2480  154.0740  132.6670 C   0  0  0  0  0  0  0  0  0  0  0  0
  147.9720  152.7490  132.9750 C   0  0  0  0  0  0  0  0  0  0  0  0
  147.0119  152.3560  133.3407 H   0  0  0  0  0  0  0  0  0  0  0  0
  149.0870  152.0300  132.7470 N   0  0  0  0  0  0  0  0  0  0  0  0
  149.2100  150.5820  132.8650 C   0  0  0  0  0  0  0  0  0  0  0  0
  149.2338  150.3015  133.9284 H   0  0  0  0  0  0  0  0  0  0  0  0
  148.3496  150.1000  132.3778 H   0  0  0  0  0  0  0  0  0  0  0  0
  150.1394  150.2520  132.3778 H   0  0  0  0  0  0  0  0  0  0  0  0
  150.0410  152.8270  132.2940 N   0  0  0  0  0  0  0  0  0  0  0  0
  150.9980  152.5180  132.0140 H   0  0  0  0  0  0  0  0  0  0  0  0
  149.5650  154.0830  132.2400 C   0  0  0  0  0  0  0  0  0  0  0  0
  150.1276  154.9694  131.9116 H   0  0  0  0  0  0  0  0  0  0  0  0
  145.4560  157.5000  133.4510 C   0  0  0  0  0  0  0  0  0  0  0  0
  144.9627  156.5169  133.4359 H   0  0  0  0  0  0  0  0  0  0  0  0
  144.7030  158.6790  133.5300 C   0  0  0  0  0  0  0  0  0  0  0  0
  143.3610  158.8150  133.6210 N   0  0  0  0  0  0  0  0  0  0  0  0
  142.4000  157.7510  133.7110 C   0  0  0  0  0  0  0  0  0  0  0  0
  141.7780  157.3760  132.6800 O   0  0  0  0  0  0  0  0  0  0  0  0
  142.1840  157.1140  134.9390 O   0  0  0  0  0  0  0  0  0  0  0  0
  141.7220  157.7910  136.1060 C   0  0  0  0  0  0  0  0  0  0  0  0
  142.0625  157.2453  136.9984 H   0  0  0  0  0  0  0  0  0  0  0  0
  142.1279  158.8134  136.1052 H   0  0  0  0  0  0  0  0  0  0  0  0
  140.1950  157.8690  136.1180 C   0  0  0  0  0  0  0  0  0  0  0  0
  139.8015  157.1670  136.8679 H   0  0  0  0  0  0  0  0  0  0  0  0
  139.8908  158.8962  136.3678 H   0  0  0  0  0  0  0  0  0  0  0  0
  139.6820  157.5350  134.8580 O   0  0  0  0  0  0  0  0  0  0  0  0
  140.3140  157.9040  134.1870 H   0  0  0  0  0  0  0  0  0  0  0  0
  1  2  1  0
  2  3  1  0
  3  4  2  0
  3  5  1  0
  5  6  2  0
  6  7  1  0
  6  8  1  0
  8  9  2  0
  9 10  1  0
  9 11  1  0
 11 12  1  0
 11 13  2  0
 13 14  1  0
 14 15  1  0
 14 16  2  0
 16 17  1  0
 16 18  1  0
 18 19  2  0
 19 20  1  0
 19 21  1  0
 21 22  1  0
 22 23  1  0
 22 24  1  0
 22 25  1  0
 21 26  1  0
 26 27  1  0
 26 28  2  0
 28 29  1  0
 13 30  1  0
 30 31  1  0
 30 32  2  0
 32 33  1  0
 33 34  1  0
 34 35  2  0
 34 36  1  0
 36 37  1  0
 37 38  1  0
 37 39  1  0
 37 40  1  0
 40 41  1  0
 40 42  1  0
 40 43  1  0
 43 44  1  0
 33  5  1  0
 32  8  1  0
 28 18  1  0
M  CHG  2   2  -1  26   1
M  END
>  <UniqueID>  (44) 
44

>  <SMILES>  (44) 
Cn1cc(/C=C/c2ccc3cc(C([NH-])=O)n(C(=O)OCCO)c3c2)c[nH+]1

>  <Energy>  (44) 
113.10679429390285

>  <Genealogy>  (44) 
Cn1cc(C=Cc2ccc3cc(C([NH-])=O)n(C(=O)OCCO)c3c2)c[nH+]1 (protonated)
Cn1cc(/C=C/c2ccc3cc(C([NH-])=O)n(C(=O)OCCO)c3c2)c[nH+]1 (cis-trans isomerization)
Cn1cc(/C=C/c2ccc3cc(C([NH-])=O)n(C(=O)OCCO)c3c2)c[nH+]1 (3D coordinates assigned)
Cn1cc(/C=C/c2ccc3cc(C([NH-])=O)n(C(=O)OCCO)c3c2)c[nH+]1 (optimized conformer: 113.10679429390285 kcal/mol)

>  <smiles>  (44) 
Cn1cc(C=Cc2ccc3cc(C(N)=O)n(C(=O)OCCO)c3c2)cn1

>  <score_type>  (44) 
oracle

>  <origin>  (44) 
adg

>  <m_score__min__energy>  (44) 
-7.3499999999999996

>  <m_primary>  (44) 
energy

$$$$
45:0
     RDKit          3D

 50 52  0  0  0  0  0  0  0  0999 V2000
  144.7040  161.8130  134.1260 C   0  0  0  0  0  0  0  0  0  0  0  0
  144.0770  160.5750  133.4750 C   0  0  0  0  0  0  0  0  0  0  0  0
  142.7470  160.2130  134.1460 C   0  0  0  0  0  0  0  0  0  0  0  0
  145.0380  159.4020  133.4980 C   0  0  0  0  0  0  0  0  0  0  0  0
  146.3430  159.5480  132.9590 C   0  0  0  0  0  0  0  0  0  0  0  0
  147.2550  158.4780  132.9780 C   0  0  0  0  0  0  0  0  0  0  0  0
  146.8360  157.2750  133.5370 C   0  0  0  0  0  0  0  0  0  0  0  0
  147.5140  156.0880  133.7020 C   0  0  0  0  0  0  0  0  0  0  0  0
  146.6100  155.2300  134.3270 C   0  0  0  0  0  0  0  0  0  0  0  0
  146.9030  153.8190  134.6510 C   0  0  0  0  0  0  0  0  0  0  0  0
  146.9340  153.3940  136.0120 N   0  0  0  0  0  0  0  0  0  0  0  0
  147.1470  152.9860  133.7390 O   0  0  0  0  0  0  0  0  0  0  0  0
  145.4260  155.8670  134.5480 N   0  0  0  0  0  0  0  0  0  0  0  0
  144.2530  155.3560  135.2000 C   0  0  0  0  0  0  0  0  0  0  0  0
  144.3740  154.7840  136.3180 O   0  0  0  0  0  0  0  0  0  0  0  0
  142.9180  155.4590  134.5620 C   0  0  0  0  0  0  0  0  0  0  0  0
  142.4340  154.4180  133.7540 C   0  0  0  0  0  0  0  0  0  0  0  0
  141.1730  154.5080  133.1620 C   0  0  0  0  0  0  0  0  0  0  0  0
  140.3690  155.6380  133.3630 C   0  0  0  0  0  0  0  0  0  0  0  0
  139.0640  155.6880  132.7750 N   0  0  0  0  0  0  0  0  0  0  0  0
  140.8530  156.6980  134.1590 C   0  0  0  0  0  0  0  0  0  0  0  0
  140.0690  157.8820  134.3660 N   0  0  0  0  0  0  0  0  0  0  0  0
  139.7270  158.7290  133.2240 C   0  0  0  0  0  0  0  0  0  0  0  0
  139.4880  158.1560  135.6800 C   0  0  0  0  0  0  0  0  0  0  0  0
  142.1210  156.6020  134.7480 C   0  0  0  0  0  0  0  0  0  0  0  0
  145.5790  157.1130  134.0540 C   0  0  0  0  0  0  0  0  0  0  0  0
  144.6520  158.1600  134.0590 C   0  0  0  0  0  0  0  0  0  0  0  0
  144.6550  161.7162  135.2206 H   0  0  0  0  0  0  0  0  0  0  0  0
  145.7547  161.8998  133.8123 H   0  0  0  0  0  0  0  0  0  0  0  0
  144.1522  162.7114  133.8123 H   0  0  0  0  0  0  0  0  0  0  0  0
  143.8670  160.8171  132.4227 H   0  0  0  0  0  0  0  0  0  0  0  0
  142.8669  160.2456  135.2390 H   0  0  0  0  0  0  0  0  0  0  0  0
  141.9740  160.9334  133.8402 H   0  0  0  0  0  0  0  0  0  0  0  0
  142.4458  159.2002  133.8402 H   0  0  0  0  0  0  0  0  0  0  0  0
  146.6447  160.5108  132.5208 H   0  0  0  0  0  0  0  0  0  0  0  0
  148.2680  158.5887  132.5638 H   0  0  0  0  0  0  0  0  0  0  0  0
  148.5490  155.8642  133.4040 H   0  0  0  0  0  0  0  0  0  0  0  0
  146.2060  153.7110  136.6890 H   0  0  0  0  0  0  0  0  0  0  0  0
  143.0532  153.5245  133.5861 H   0  0  0  0  0  0  0  0  0  0  0  0
  140.8070  153.6841  132.5318 H   0  0  0  0  0  0  0  0  0  0  0  0
  138.3900  154.9020  132.9090 H   0  0  0  0  0  0  0  0  0  0  0  0
  138.7390  156.5180  132.2310 H   0  0  0  0  0  0  0  0  0  0  0  0
  139.3380  159.6924  133.5855 H   0  0  0  0  0  0  0  0  0  0  0  0
  140.6257  158.9022  132.6138 H   0  0  0  0  0  0  0  0  0  0  0  0
  138.9600  158.2296  132.6138 H   0  0  0  0  0  0  0  0  0  0  0  0
  140.1851  157.8273  136.4649 H   0  0  0  0  0  0  0  0  0  0  0  0
  139.3041  159.2357  135.7817 H   0  0  0  0  0  0  0  0  0  0  0  0
  138.5379  157.6111  135.7817 H   0  0  0  0  0  0  0  0  0  0  0  0
  142.4976  157.4319  135.3640 H   0  0  0  0  0  0  0  0  0  0  0  0
  143.6484  158.0225  134.4878 H   0  0  0  0  0  0  0  0  0  0  0  0
  1  2  1  0
  2  3  1  0
  2  4  1  0
  4  5  2  0
  5  6  1  0
  6  7  2  0
  7  8  1  0
  8  9  2  0
  9 10  1  0
 10 11  1  0
 10 12  2  0
  9 13  1  0
 13 14  1  0
 14 15  2  0
 14 16  1  0
 16 17  2  0
 17 18  1  0
 18 19  2  0
 19 20  1  0
 19 21  1  0
 21 22  1  0
 22 23  1  0
 22 24  1  0
 21 25  2  0
 13 26  1  0
 26 27  2  0
 27  4  1  0
 26  7  1  0
 25 16  1  0
  1 28  1  0
  1 29  1  0
  1 30  1  0
  2 31  1  0
  3 32  1  0
  3 33  1  0
  3 34  1  0
  5 35  1  0
  6 36  1  0
  8 37  1  0
 11 38  1  0
 17 39  1  0
 18 40  1  0
 20 41  1  0
 20 42  1  0
 23 43  1  0
 23 44  1  0
 23 45  1  0
 24 46  1  0
 24 47  1  0
 24 48  1  0
 25 49  1  0
 27 50  1  0
M  CHG  1  11  -1
M  END
>  <UniqueID>  (45) 
45

>  <SMILES>  (45) 
CC(C)c1ccc2cc(C([NH-])=O)n(C(=O)c3ccc(N)c(N(C)C)c3)c2c1

>  <Energy>  (45) 
91.82277716170991

>  <Genealogy>  (45) 
CC(C)c1ccc2cc(C([NH-])=O)n(C(=O)c3ccc(N)c(N(C)C)c3)c2c1 (protonated)
CC(C)c1ccc2cc(C([NH-])=O)n(C(=O)c3ccc(N)c(N(C)C)c3)c2c1 (3D coordinates assigned)
CC(C)c1ccc2cc(C([NH-])=O)n(C(=O)c3ccc(N)c(N(C)C)c3)c2c1 (optimized conformer: 91.82277716170991 kcal/mol)

>  <smiles>  (45) 
CC(C)c1ccc2cc(C(N)=O)n(C(=O)c3ccc(N)c(N(C)C)c3)c2c1

>  <score_type>  (45) 
oracle

>  <origin>  (45) 
adg

>  <m_score__min__energy>  (45) 
-8.3399999999999999

>  <m_primary>  (45) 
energy

$$$$
47:0
     RDKit          3D

 59 60  0  0  0  0  0  0  0  0999 V2000
  149.5740  159.3340  131.4490 C   0  0  0  0  0  0  0  0  0  0  0  0
  148.2250  159.7190  131.9560 C   0  0  0  0  0  0  0  0  0  0  0  0
  147.3680  160.1910  131.1590 O   0  0  0  0  0  0  0  0  0  0  0  0
  147.9120  159.5150  133.3040 O   0  0  0  0  0  0  0  0  0  0  0  0
  148.4040  158.4140  134.0690 C   0  0  0  0  0  0  0  0  0  0  0  0
  147.3750  157.2860  134.1020 C   0  0  0  0  0  0  0  0  0  0  0  0
  146.0670  157.8420  134.0310 O   0  0  0  0  0  0  0  0  0  0  0  0
  144.9970  157.2120  133.3900 C   0  0  0  0  0  0  0  0  0  0  0  0
  145.1920  156.1530  132.7320 O   0  0  0  0  0  0  0  0  0  0  0  0
  143.6800  157.7910  133.4490 N   0  0  0  0  0  0  0  0  0  0  0  0
  143.3630  159.1090  133.6050 C   0  0  0  0  0  0  0  0  0  0  0  0
  144.3130  160.2380  133.5600 C   0  0  0  0  0  0  0  0  0  0  0  0
  145.5860  160.1050  132.9270 N   0  0  0  0  0  0  0  0  0  0  0  0
  143.9740  161.3520  134.0400 O   0  0  0  0  0  0  0  0  0  0  0  0
  141.9900  159.2750  133.7510 C   0  0  0  0  0  0  0  0  0  0  0  0
  141.4600  158.0100  133.6620 C   0  0  0  0  0  0  0  0  0  0  0  0
  140.1340  157.5940  133.7280 C   0  0  0  0  0  0  0  0  0  0  0  0
  139.8660  156.2210  133.6020 C   0  0  0  0  0  0  0  0  0  0  0  0
  140.9240  155.2930  133.4340 C   0  0  0  0  0  0  0  0  0  0  0  0
  140.6160  153.8340  133.2150 C   0  0  0  0  0  0  0  0  0  0  0  0
  141.6600  152.9360  133.8390 C   0  0  0  0  0  0  0  0  0  0  0  0
  141.7470  152.8720  135.0970 O   0  0  0  0  0  0  0  0  0  0  0  0
  142.5570  152.1450  133.0280 N   0  0  0  0  0  0  0  0  0  0  0  0
  143.8830  152.6890  132.7140 C   0  0  0  0  0  0  0  0  0  0  0  0
  142.2380  150.7680  132.6190 C   0  0  0  0  0  0  0  0  0  0  0  0
  140.9970  150.2570  133.3610 C   0  0  0  0  0  0  0  0  0  0  0  0
  140.1190  149.5010  132.4420 N   0  0  0  0  0  0  0  0  0  0  0  0
  140.9050  148.8650  131.3730 C   0  0  0  0  0  0  0  0  0  0  0  0
  139.1020  150.3840  131.8460 C   0  0  0  0  0  0  0  0  0  0  0  0
  142.2580  155.7500  133.3800 C   0  0  0  0  0  0  0  0  0  0  0  0
  142.4980  157.1290  133.4820 C   0  0  0  0  0  0  0  0  0  0  0  0
  150.2446  159.1426  132.2997 H   0  0  0  0  0  0  0  0  0  0  0  0
  149.4896  158.4241  130.8367 H   0  0  0  0  0  0  0  0  0  0  0  0
  149.9826  160.1514  130.8367 H   0  0  0  0  0  0  0  0  0  0  0  0
  149.3339  158.0430  133.6134 H   0  0  0  0  0  0  0  0  0  0  0  0
  148.5957  158.7521  135.0981 H   0  0  0  0  0  0  0  0  0  0  0  0
  147.5366  156.6157  133.2449 H   0  0  0  0  0  0  0  0  0  0  0  0
  147.4831  156.7151  135.0360 H   0  0  0  0  0  0  0  0  0  0  0  0
  146.2640  160.8990  132.9420 H   0  0  0  0  0  0  0  0  0  0  0  0
  145.8350  159.2420  132.3940 H   0  0  0  0  0  0  0  0  0  0  0  0
  141.4445  160.2177  133.9049 H   0  0  0  0  0  0  0  0  0  0  0  0
  139.3197  158.3189  133.8745 H   0  0  0  0  0  0  0  0  0  0  0  0
  138.8264  155.8630  133.6340 H   0  0  0  0  0  0  0  0  0  0  0  0
  139.6376  153.6062  133.6632 H   0  0  0  0  0  0  0  0  0  0  0  0
  140.6099  153.6465  132.1311 H   0  0  0  0  0  0  0  0  0  0  0  0
  144.4197  152.9092  133.6486 H   0  0  0  0  0  0  0  0  0  0  0  0
  144.4526  151.9519  132.1290 H   0  0  0  0  0  0  0  0  0  0  0  0
  143.7708  153.6138  132.1290 H   0  0  0  0  0  0  0  0  0  0  0  0
  142.0452  150.7482  131.5362 H   0  0  0  0  0  0  0  0  0  0  0  0
  143.0908  150.1186  132.8662 H   0  0  0  0  0  0  0  0  0  0  0  0
  141.3126  149.5985  134.1837 H   0  0  0  0  0  0  0  0  0  0  0  0
  140.4396  151.1185  133.7574 H   0  0  0  0  0  0  0  0  0  0  0  0
  141.6866  148.2326  131.8193 H   0  0  0  0  0  0  0  0  0  0  0  0
  140.2430  148.2453  130.7503 H   0  0  0  0  0  0  0  0  0  0  0  0
  141.3730  149.6417  130.7503 H   0  0  0  0  0  0  0  0  0  0  0  0
  138.5319  150.8790  132.6460 H   0  0  0  0  0  0  0  0  0  0  0  0
  139.5961  151.1444  131.2234 H   0  0  0  0  0  0  0  0  0  0  0  0
  138.4184  149.7881  131.2234 H   0  0  0  0  0  0  0  0  0  0  0  0
  143.0909  155.0414  133.2607 H   0  0  0  0  0  0  0  0  0  0  0  0
  1  2  1  0
  2  3  2  0
  2  4  1  0
  4  5  1  0
  5  6  1  0
  6  7  1  0
  7  8  1  0
  8  9  2  0
  8 10  1  0
 10 11  1  0
 11 12  1  0
 12 13  1  0
 12 14  2  0
 11 15  2  0
 15 16  1  0
 16 17  2  0
 17 18  1  0
 18 19  2  0
 19 20  1  0
 20 21  1  0
 21 22  2  0
 21 23  1  0
 23 24  1  0
 23 25  1  0
 25 26  1  0
 26 27  1  0
 27 28  1  0
 27 29  1  0
 19 30  1  0
 30 31  2  0
 31 10  1  0
 31 16  1  0
  1 32  1  0
  1 33  1  0
  1 34  1  0
  5 35  1  0
  5 36  1  0
  6 37  1  0
  6 38  1  0
 13 39  1  0
 13 40  1  0
 15 41  1  0
 17 42  1  0
 18 43  1  0
 20 44  1  0
 20 45  1  0
 24 46  1  0
 24 47  1  0
 24 48  1  0
 25 49  1  0
 25 50  1  0
 26 51  1  0
 26 52  1  0
 28 53  1  0
 28 54  1  0
 28 55  1  0
 29 56  1  0
 29 57  1  0
 29 58  1  0
 30 59  1  0
M  END
>  <UniqueID>  (46) 
46

>  <SMILES>  (46) 
CC(=O)OCCOC(=O)n1c(C(N)=O)cc2ccc(CC(=O)N(C)CCN(C)C)cc21

>  <Energy>  (46) 
86.09332046881703

>  <Genealogy>  (46) 
CC(=O)OCCOC(=O)n1c(C(N)=O)cc2ccc(CC(=O)N(C)CCN(C)C)cc21 (3D coordinates assigned)
CC(=O)OCCOC(=O)n1c(C(N)=O)cc2ccc(CC(=O)N(C)CCN(C)C)cc21 (optimized conformer: 86.09332046881703 kcal/mol)

>  <smiles>  (46) 
CC(=O)OCCOC(=O)n1c(C(N)=O)cc2ccc(CC(=O)N(C)CCN(C)C)cc21

>  <score_type>  (46) 
oracle

>  <origin>  (46) 
adg

>  <m_score__min__energy>  (46) 
-7.4100000000000001

>  <m_primary>  (46) 
energy

$$$$
48:0
     RDKit          3D

 39 40  0  0  0  0  0  0  0  0999 V2000
  139.9310  158.2100  135.6800 C   0  0  0  0  0  0  0  0  0  0  0  0
  139.7270  157.3990  134.4720 N   0  0  0  0  0  0  0  0  0  0  0  0
  138.4630  157.4910  133.7310 C   0  0  0  0  0  0  0  0  0  0  0  0
  140.7490  156.4910  134.0090 C   0  0  0  0  0  0  0  0  0  0  0  0
  140.5120  155.7440  133.0190 O   0  0  0  0  0  0  0  0  0  0  0  0
  142.0840  156.3960  134.7110 C   0  0  0  0  0  0  0  0  0  0  0  0
  143.0570  157.4480  134.2430 C   0  0  0  0  0  0  0  0  0  0  0  0
  142.5890  158.7310  133.8610 C   0  0  0  0  0  0  0  0  0  0  0  0
  143.4830  159.7110  133.3920 C   0  0  0  0  0  0  0  0  0  0  0  0
  144.8310  159.3740  133.3080 C   0  0  0  0  0  0  0  0  0  0  0  0
  145.9090  160.1210  132.8860 C   0  0  0  0  0  0  0  0  0  0  0  0
  147.0160  159.2760  133.0010 C   0  0  0  0  0  0  0  0  0  0  0  0
  148.4140  159.6530  132.6740 C   0  0  0  0  0  0  0  0  0  0  0  0
  149.5090  158.7860  132.9810 N   0  0  0  0  0  0  0  0  0  0  0  0
  148.6530  160.7570  132.1160 O   0  0  0  0  0  0  0  0  0  0  0  0
  146.6260  158.0600  133.4740 N   0  0  0  0  0  0  0  0  0  0  0  0
  147.4480  156.9180  133.7440 C   0  0  0  0  0  0  0  0  0  0  0  0
  147.7990  156.6640  134.9270 O   0  0  0  0  0  0  0  0  0  0  0  0
  147.8400  155.9940  132.6360 C   0  0  0  0  0  0  0  0  0  0  0  0
  149.2350  155.8810  132.6030 O   0  0  0  0  0  0  0  0  0  0  0  0
  145.2940  158.1360  133.6610 C   0  0  0  0  0  0  0  0  0  0  0  0
  144.4320  157.1410  134.1320 C   0  0  0  0  0  0  0  0  0  0  0  0
  139.7739  157.5855  136.5718 H   0  0  0  0  0  0  0  0  0  0  0  0
  140.9569  158.6068  135.6863 H   0  0  0  0  0  0  0  0  0  0  0  0
  139.2149  159.0450  135.6863 H   0  0  0  0  0  0  0  0  0  0  0  0
  137.6252  157.5520  134.4412 H   0  0  0  0  0  0  0  0  0  0  0  0
  138.4735  158.3908  133.0983 H   0  0  0  0  0  0  0  0  0  0  0  0
  138.3431  156.5992  133.0983 H   0  0  0  0  0  0  0  0  0  0  0  0
  141.9238  156.5193  135.7923 H   0  0  0  0  0  0  0  0  0  0  0  0
  142.5163  155.4121  134.4765 H   0  0  0  0  0  0  0  0  0  0  0  0
  141.5160  158.9624  133.9321 H   0  0  0  0  0  0  0  0  0  0  0  0
  143.1283  160.7108  133.1012 H   0  0  0  0  0  0  0  0  0  0  0  0
  145.9001  161.1628  132.5330 H   0  0  0  0  0  0  0  0  0  0  0  0
  150.4820  159.0720  132.7350 H   0  0  0  0  0  0  0  0  0  0  0  0
  149.3790  157.8820  133.4820 H   0  0  0  0  0  0  0  0  0  0  0  0
  147.3945  155.0031  132.8083 H   0  0  0  0  0  0  0  0  0  0  0  0
  147.4786  156.3929  131.6767 H   0  0  0  0  0  0  0  0  0  0  0  0
  149.5690  156.3490  133.4120 H   0  0  0  0  0  0  0  0  0  0  0  0
  144.8134  156.1470  134.4085 H   0  0  0  0  0  0  0  0  0  0  0  0
  1  2  1  0
  2  3  1  0
  2  4  1  0
  4  5  2  0
  4  6  1  0
  6  7  1  0
  7  8  2  0
  8  9  1  0
  9 10  2  0
 10 11  1  0
 11 12  2  0
 12 13  1  0
 13 14  1  0
 13 15  2  0
 12 16  1  0
 16 17  1  0
 17 18  2  0
 17 19  1  0
 19 20  1  0
 16 21  1  0
 21 22  2  0
 22  7  1  0
 21 10  1  0
  1 23  1  0
  1 24  1  0
  1 25  1  0
  3 26  1  0
  3 27  1  0
  3 28  1  0
  6 29  1  0
  6 30  1  0
  8 31  1  0
  9 32  1  0
 11 33  1  0
 14 34  1  0
 14 35  1  0
 19 36  1  0
 19 37  1  0
 20 38  1  0
 22 39  1  0
M  END
>  <UniqueID>  (47) 
47

>  <SMILES>  (47) 
CN(C)C(=O)Cc1ccc2cc(C(N)=O)n(C(=O)CO)c2c1

>  <Energy>  (47) 
75.6384495308131

>  <Genealogy>  (47) 
CN(C)C(=O)Cc1ccc2cc(C(N)=O)n(C(=O)CO)c2c1 (3D coordinates assigned)
CN(C)C(=O)Cc1ccc2cc(C(N)=O)n(C(=O)CO)c2c1 (optimized conformer: 75.6384495308131 kcal/mol)

>  <smiles>  (47) 
CN(C)C(=O)Cc1ccc2cc(C(N)=O)n(C(=O)CO)c2c1

>  <score_type>  (47) 
oracle

>  <origin>  (47) 
adg

>  <m_score__min__energy>  (47) 
-6.75

>  <m_primary>  (47) 
energy

$$$$
49:0
     RDKit          3D

 34 36  0  0  0  0  0  0  0  0999 V2000
  140.8510  160.0350  136.3380 N   0  0  0  0  0  0  0  0  0  0  0  0
  141.5550  159.7690  135.1270 C   0  0  0  0  0  0  0  0  0  0  0  0
  142.0080  160.7320  134.4530 O   0  0  0  0  0  0  0  0  0  0  0  0
  141.7120  158.3760  134.6590 C   0  0  0  0  0  0  0  0  0  0  0  0
  142.9480  157.7510  134.5060 C   0  0  0  0  0  0  0  0  0  0  0  0
  142.6600  156.4580  134.1370 C   0  0  0  0  0  0  0  0  0  0  0  0
  143.5150  155.3980  133.8540 C   0  0  0  0  0  0  0  0  0  0  0  0
  142.9420  154.1720  133.4750 C   0  0  0  0  0  0  0  0  0  0  0  0
  141.5340  154.0340  133.3590 C   0  0  0  0  0  0  0  0  0  0  0  0
  140.9310  152.7030  132.9870 C   0  0  0  0  0  0  0  0  0  0  0  0
  141.0140  151.8160  134.0460 F   0  0  0  0  0  0  0  0  0  0  0  0
  141.6150  152.1790  131.9070 F   0  0  0  0  0  0  0  0  0  0  0  0
  139.5960  152.8480  132.6480 F   0  0  0  0  0  0  0  0  0  0  0  0
  140.6990  155.1300  133.6770 C   0  0  0  0  0  0  0  0  0  0  0  0
  141.2970  156.3330  134.0710 C   0  0  0  0  0  0  0  0  0  0  0  0
  140.7000  157.5030  134.3880 N   0  0  0  0  0  0  0  0  0  0  0  0
  139.2880  157.7700  134.3840 C   0  0  0  0  0  0  0  0  0  0  0  0
  138.7260  158.1910  135.4310 O   0  0  0  0  0  0  0  0  0  0  0  0
  138.5380  157.6190  133.1730 N   0  0  0  0  0  0  0  0  0  0  0  0
  138.4640  158.5770  132.1090 C   0  0  0  0  0  0  0  0  0  0  0  0
  137.2410  159.0550  131.7470 N   0  0  0  0  0  0  0  0  0  0  0  0
  137.0900  159.9780  130.7600 C   0  0  0  0  0  0  0  0  0  0  0  0
  138.2090  160.4760  130.0920 C   0  0  0  0  0  0  0  0  0  0  0  0
  139.4790  160.0270  130.4590 C   0  0  0  0  0  0  0  0  0  0  0  0
  139.6160  159.0790  131.4760 C   0  0  0  0  0  0  0  0  0  0  0  0
  140.8600  158.7120  131.8750 F   0  0  0  0  0  0  0  0  0  0  0  0
  139.8530  159.7500  136.4530 H   0  0  0  0  0  0  0  0  0  0  0  0
  143.9430  158.1973  134.6499 H   0  0  0  0  0  0  0  0  0  0  0  0
  144.6064  155.5157  133.9247 H   0  0  0  0  0  0  0  0  0  0  0  0
  143.5920  153.3095  133.2659 H   0  0  0  0  0  0  0  0  0  0  0  0
  139.6044  155.0394  133.6162 H   0  0  0  0  0  0  0  0  0  0  0  0
  136.0848  160.3323  130.4880 H   0  0  0  0  0  0  0  0  0  0  0  0
  138.0920  161.2143  129.2850 H   0  0  0  0  0  0  0  0  0  0  0  0
  140.3707  160.4192  129.9480 H   0  0  0  0  0  0  0  0  0  0  0  0
  1  2  1  0
  2  3  2  0
  2  4  1  0
  4  5  2  0
  5  6  1  0
  6  7  2  0
  7  8  1  0
  8  9  2  0
  9 10  1  0
 10 11  1  0
 10 12  1  0
 10 13  1  0
  9 14  1  0
 14 15  2  0
 15 16  1  0
 16 17  1  0
 17 18  2  0
 17 19  1  0
 19 20  1  0
 20 21  2  0
 21 22  1  0
 22 23  2  0
 23 24  1  0
 24 25  2  0
 25 26  1  0
 16  4  1  0
 25 20  1  0
 15  6  1  0
  1 27  1  0
  5 28  1  0
  7 29  1  0
  8 30  1  0
 14 31  1  0
 22 32  1  0
 23 33  1  0
 24 34  1  0
M  CHG  2   1  -1  19  -1
M  END
>  <UniqueID>  (48) 
48

>  <SMILES>  (48) 
[NH-]C(=O)c1cc2ccc(C(F)(F)F)cc2n1C(=O)[N-]c1ncccc1F

>  <Energy>  (48) 
82.42037035335797

>  <Genealogy>  (48) 
[NH-]C(=O)c1cc2ccc(C(F)(F)F)cc2n1C(=O)[N-]c1ncccc1F (protonated)
[NH-]C(=O)c1cc2ccc(C(F)(F)F)cc2n1C(=O)[N-]c1ncccc1F (3D coordinates assigned)
[NH-]C(=O)c1cc2ccc(C(F)(F)F)cc2n1C(=O)[N-]c1ncccc1F (optimized conformer: 82.42037035335797 kcal/mol)

>  <smiles>  (48) 
NC(=O)c1cc2ccc(C(F)(F)F)cc2n1C(=O)Nc1ncccc1F

>  <score_type>  (48) 
oracle

>  <origin>  (48) 
adg

>  <m_score__min__energy>  (48) 
-7.2699999999999996

>  <m_primary>  (48) 
energy

$$$$
50:0
     RDKit          3D

 35 37  0  0  0  0  0  0  0  0999 V2000
  140.9630  159.7390  136.9400 N   0  0  0  0  0  0  0  0  0  0  0  0
  141.2630  159.0170  136.0690 C   0  0  0  0  0  0  0  0  0  0  0  0
  141.6450  158.1000  134.9970 C   0  0  0  0  0  0  0  0  0  0  0  0
  142.9190  158.5750  134.3990 C   0  0  0  0  0  0  0  0  0  0  0  0
  142.9720  159.8710  133.9630 C   0  0  0  0  0  0  0  0  0  0  0  0
  144.1440  160.3160  133.4120 C   0  0  0  0  0  0  0  0  0  0  0  0
  145.2280  159.4710  133.3090 C   0  0  0  0  0  0  0  0  0  0  0  0
  146.4830  159.6920  132.8200 C   0  0  0  0  0  0  0  0  0  0  0  0
  147.2440  158.5120  132.9470 C   0  0  0  0  0  0  0  0  0  0  0  0
  148.6160  158.4790  132.4950 C   0  0  0  0  0  0  0  0  0  0  0  0
  149.3380  157.2110  132.4600 N   0  0  0  0  0  0  0  0  0  0  0  0
  149.3140  159.4410  132.1080 O   0  0  0  0  0  0  0  0  0  0  0  0
  146.4410  157.5840  133.5120 N   0  0  0  0  0  0  0  0  0  0  0  0
  146.8280  156.2760  133.8600 C   0  0  0  0  0  0  0  0  0  0  0  0
  147.4350  156.1550  134.9890 O   0  0  0  0  0  0  0  0  0  0  0  0
  146.6480  155.0260  133.1350 C   0  0  0  0  0  0  0  0  0  0  0  0
  147.9190  154.2510  132.9200 C   0  0  0  0  0  0  0  0  0  0  0  0
  149.1220  154.7290  132.5240 N   0  0  0  0  0  0  0  0  0  0  0  0
  149.9620  153.7370  132.4560 O   0  0  0  0  0  0  0  0  0  0  0  0
  149.3840  152.6100  132.7870 C   0  0  0  0  0  0  0  0  0  0  0  0
  149.9650  151.4940  132.8070 O   0  0  0  0  0  0  0  0  0  0  0  0
  148.1100  152.9280  133.0770 N   0  0  0  0  0  0  0  0  0  0  0  0
  145.2180  158.1560  133.7360 C   0  0  0  0  0  0  0  0  0  0  0  0
  144.0300  157.7260  134.2880 C   0  0  0  0  0  0  0  0  0  0  0  0
  141.7822  157.0882  135.4061 H   0  0  0  0  0  0  0  0  0  0  0  0
  140.8576  158.0701  134.2295 H   0  0  0  0  0  0  0  0  0  0  0  0
  142.0997  160.5351  134.0524 H   0  0  0  0  0  0  0  0  0  0  0  0
  144.2206  161.3519  133.0502 H   0  0  0  0  0  0  0  0  0  0  0  0
  146.8434  160.6402  132.3944 H   0  0  0  0  0  0  0  0  0  0  0  0
  149.6050  156.7560  133.3570 H   0  0  0  0  0  0  0  0  0  0  0  0
  149.5750  156.7810  131.5340 H   0  0  0  0  0  0  0  0  0  0  0  0
  145.9504  154.3941  133.7043 H   0  0  0  0  0  0  0  0  0  0  0  0
  146.2657  155.2904  132.1380 H   0  0  0  0  0  0  0  0  0  0  0  0
  147.3840  152.2480  133.3780 H   0  0  0  0  0  0  0  0  0  0  0  0
  143.9514  156.6905  134.6507 H   0  0  0  0  0  0  0  0  0  0  0  0
  1  2  3  0
  2  3  1  0
  3  4  1  0
  4  5  2  0
  5  6  1  0
  6  7  2  0
  7  8  1  0
  8  9  2  0
  9 10  1  0
 10 11  1  0
 10 12  2  0
  9 13  1  0
 13 14  1  0
 14 15  2  0
 14 16  1  0
 16 17  1  0
 17 18  2  0
 18 19  1  0
 19 20  1  0
 20 21  2  0
 20 22  1  0
 13 23  1  0
 23 24  2  0
 24  4  1  0
 23  7  1  0
 22 17  1  0
  3 25  1  0
  3 26  1  0
  5 27  1  0
  6 28  1  0
  8 29  1  0
 11 30  1  0
 11 31  1  0
 16 32  1  0
 16 33  1  0
 22 34  1  0
 24 35  1  0
M  END
>  <smiles>  (49) 
N#CCc1ccc2cc(C(N)=O)n(C(=O)Cc3noc(=O)[nH]3)c2c1

>  <score_type>  (49) 
oracle

>  <origin>  (49) 
adg

>  <m_score__min__energy>  (49) 
-8.6899999999999995

>  <m_primary>  (49) 
energy

$$$$
51:0
     RDKit          3D

 37 38  0  0  0  0  0  0  0  0999 V2000
  149.3150  161.9020  130.3730 C   0  0  0  0  0  0  0  0  0  0  0  0
  149.0090  160.6240  131.0950 C   0  0  0  0  0  0  0  0  0  0  0  0
  149.9110  159.5350  131.0210 C   0  0  0  0  0  0  0  0  0  0  0  0
  149.6130  158.3160  131.6520 C   0  0  0  0  0  0  0  0  0  0  0  0
  148.4090  158.2160  132.3430 C   0  0  0  0  0  0  0  0  0  0  0  0
  147.8590  157.1460  133.0120 C   0  0  0  0  0  0  0  0  0  0  0  0
  146.6330  157.6010  133.4910 C   0  0  0  0  0  0  0  0  0  0  0  0
  145.7400  156.7870  134.3420 C   0  0  0  0  0  0  0  0  0  0  0  0
  144.3330  156.8070  134.1150 N   0  0  0  0  0  0  0  0  0  0  0  0
  146.2090  156.0430  135.2430 O   0  0  0  0  0  0  0  0  0  0  0  0
  146.4280  158.9000  133.1280 N   0  0  0  0  0  0  0  0  0  0  0  0
  145.2540  159.6970  133.3510 C   0  0  0  0  0  0  0  0  0  0  0  0
  145.3590  160.8460  133.8610 O   0  0  0  0  0  0  0  0  0  0  0  0
  144.0000  159.2030  132.9810 O   0  0  0  0  0  0  0  0  0  0  0  0
  142.7820  159.7120  133.5120 C   0  0  0  0  0  0  0  0  0  0  0  0
  141.6900  158.6470  133.4320 C   0  0  0  0  0  0  0  0  0  0  0  0
  141.0670  158.2000  135.0490 S   0  0  0  0  0  0  0  0  0  0  0  0
  140.9830  159.6260  136.1120 C   0  0  0  0  0  0  0  0  0  0  0  0
  139.6980  157.5940  134.9200 O   0  0  0  0  0  0  0  0  0  0  0  0
  141.9940  157.1890  135.6630 O   0  0  0  0  0  0  0  0  0  0  0  0
  147.5250  159.2630  132.4270 C   0  0  0  0  0  0  0  0  0  0  0  0
  147.7890  160.4820  131.7910 C   0  0  0  0  0  0  0  0  0  0  0  0
  149.5061  162.7002  131.1054 H   0  0  0  0  0  0  0  0  0  0  0  0
  150.2051  161.7626  129.7420 H   0  0  0  0  0  0  0  0  0  0  0  0
  148.4582  162.1808  129.7420 H   0  0  0  0  0  0  0  0  0  0  0  0
  150.8534  159.6446  130.4644 H   0  0  0  0  0  0  0  0  0  0  0  0
  150.3099  157.4664  131.6016 H   0  0  0  0  0  0  0  0  0  0  0  0
  148.2952  156.1444  133.1409 H   0  0  0  0  0  0  0  0  0  0  0  0
  143.7500  157.6130  134.4340 H   0  0  0  0  0  0  0  0  0  0  0  0
  142.9347  159.9985  134.5630 H   0  0  0  0  0  0  0  0  0  0  0  0
  142.4726  160.5902  132.9263 H   0  0  0  0  0  0  0  0  0  0  0  0
  140.8583  159.0364  132.8265 H   0  0  0  0  0  0  0  0  0  0  0  0
  142.1275  157.7464  132.9764 H   0  0  0  0  0  0  0  0  0  0  0  0
  141.0021  159.3016  137.1629 H   0  0  0  0  0  0  0  0  0  0  0  0
  141.8441  160.2815  135.9149 H   0  0  0  0  0  0  0  0  0  0  0  0
  140.0509  160.1759  135.9149 H   0  0  0  0  0  0  0  0  0  0  0  0
  147.0641  161.3083  131.8326 H   0  0  0  0  0  0  0  0  0  0  0  0
  1  2  1  0
  2  3  2  0
  3  4  1  0
  4  5  2  0
  5  6  1  0
  6  7  2  0
  7  8  1  0
  8  9  1  0
  8 10  2  0
  7 11  1  0
 11 12  1  0
 12 13  2  0
 12 14  1  0
 14 15  1  0
 15 16  1  0
 16 17  1  0
 17 18  1  0
 17 19  2  0
 17 20  2  0
 11 21  1  0
 21 22  2  0
 22  2  1  0
 21  5  1  0
  1 23  1  0
  1 24  1  0
  1 25  1  0
  3 26  1  0
  4 27  1  0
  6 28  1  0
  9 29  1  0
 15 30  1  0
 15 31  1  0
 16 32  1  0
 16 33  1  0
 18 34  1  0
 18 35  1  0
 18 36  1  0
 22 37  1  0
M  CHG  1   9  -1
M  END
>  <UniqueID>  (50) 
49

>  <SMILES>  (50) 
Cc1ccc2cc(C([NH-])=O)n(C(=O)OCCS(C)(=O)=O)c2c1

>  <Energy>  (50) 
63.32473288234238

>  <Genealogy>  (50) 
Cc1ccc2cc(C([NH-])=O)n(C(=O)OCCS(C)(=O)=O)c2c1 (protonated)
Cc1ccc2cc(C([NH-])=O)n(C(=O)OCCS(C)(=O)=O)c2c1 (3D coordinates assigned)
Cc1ccc2cc(C([NH-])=O)n(C(=O)OCCS(C)(=O)=O)c2c1 (optimized conformer: 63.32473288234238 kcal/mol)

>  <smiles>  (50) 
Cc1ccc2cc(C(N)=O)n(C(=O)OCCS(C)(=O)=O)c2c1

>  <score_type>  (50) 
oracle

>  <origin>  (50) 
adg

>  <m_score__min__energy>  (50) 
-6.3399999999999999

>  <m_primary>  (50) 
energy

$$$$
52:0
     RDKit          3D

 34 36  0  0  0  0  0  0  0  0999 V2000
  146.5130  160.4910  133.0480 N   0  0  0  0  0  0  0  0  0  0  0  0
  145.6070  159.4420  133.3920 C   0  0  0  0  0  0  0  0  0  0  0  0
  144.4380  159.7350  133.7550 O   0  0  0  0  0  0  0  0  0  0  0  0
  146.0360  158.0270  133.3540 C   0  0  0  0  0  0  0  0  0  0  0  0
  145.1570  156.9440  133.3720 C   0  0  0  0  0  0  0  0  0  0  0  0
  145.9480  155.8300  133.2000 C   0  0  0  0  0  0  0  0  0  0  0  0
  145.6020  154.4830  133.1520 C   0  0  0  0  0  0  0  0  0  0  0  0
  146.6330  153.5440  132.9830 C   0  0  0  0  0  0  0  0  0  0  0  0
  147.9830  153.9630  132.8530 C   0  0  0  0  0  0  0  0  0  0  0  0
  149.0840  152.9390  132.7300 C   0  0  0  0  0  0  0  0  0  0  0  0
  148.7640  151.9940  131.7720 F   0  0  0  0  0  0  0  0  0  0  0  0
  150.2740  153.5430  132.3630 F   0  0  0  0  0  0  0  0  0  0  0  0
  149.2550  152.3060  133.9480 F   0  0  0  0  0  0  0  0  0  0  0  0
  148.2950  155.3400  132.9300 C   0  0  0  0  0  0  0  0  0  0  0  0
  147.2460  156.2520  133.0870 C   0  0  0  0  0  0  0  0  0  0  0  0
  147.3170  157.5960  133.1840 N   0  0  0  0  0  0  0  0  0  0  0  0
  148.5220  158.3780  133.1700 C   0  0  0  0  0  0  0  0  0  0  0  0
  148.7390  159.1960  134.1050 O   0  0  0  0  0  0  0  0  0  0  0  0
  149.4330  158.3430  131.9710 C   0  0  0  0  0  0  0  0  0  0  0  0
  149.3590  159.6090  131.1700 C   0  0  0  0  0  0  0  0  0  0  0  0
  149.9140  159.8210  129.9230 C   0  0  0  0  0  0  0  0  0  0  0  0
  149.6060  161.1330  129.6420 C   0  0  0  0  0  0  0  0  0  0  0  0
  148.9070  161.6620  130.6660 N   0  0  0  0  0  0  0  0  0  0  0  0
  148.7590  160.7350  131.6000 N   0  0  0  0  0  0  0  0  0  0  0  0
  147.4710  160.2860  132.6880 H   0  0  0  0  0  0  0  0  0  0  0  0
  146.2030  161.4870  133.0970 H   0  0  0  0  0  0  0  0  0  0  0  0
  144.0645  156.9736  133.4970 H   0  0  0  0  0  0  0  0  0  0  0  0
  144.5535  154.1634  133.2436 H   0  0  0  0  0  0  0  0  0  0  0  0
  146.3913  152.4714  132.9510 H   0  0  0  0  0  0  0  0  0  0  0  0
  149.3374  155.6857  132.8679 H   0  0  0  0  0  0  0  0  0  0  0  0
  150.4679  158.2012  132.3157 H   0  0  0  0  0  0  0  0  0  0  0  0
  149.1109  157.5134  131.3245 H   0  0  0  0  0  0  0  0  0  0  0  0
  150.4724  159.1073  129.2994 H   0  0  0  0  0  0  0  0  0  0  0  0
  149.8872  161.6677  128.7227 H   0  0  0  0  0  0  0  0  0  0  0  0
  1  2  1  0
  2  3  2  0
  2  4  1  0
  4  5  2  0
  5  6  1  0
  6  7  2  0
  7  8  1  0
  8  9  2  0
  9 10  1  0
 10 11  1  0
 10 12  1  0
 10 13  1  0
  9 14  1  0
 14 15  2  0
 15 16  1  0
 16 17  1  0
 17 18  2  0
 17 19  1  0
 19 20  1  0
 20 21  2  0
 21 22  1  0
 22 23  2  0
 23 24  1  0
 16  4  1  0
 24 20  1  0
 15  6  1  0
  1 25  1  0
  1 26  1  0
  5 27  1  0
  7 28  1  0
  8 29  1  0
 14 30  1  0
 19 31  1  0
 19 32  1  0
 21 33  1  0
 22 34  1  0
M  CHG  1  24  -1
M  END
>  <UniqueID>  (51) 
50

>  <SMILES>  (51) 
NC(=O)c1cc2ccc(C(F)(F)F)cc2n1C(=O)Cc1ccn[n-]1

>  <Energy>  (51) 
105.4436407816141

>  <Genealogy>  (51) 
NC(=O)c1cc2ccc(C(F)(F)F)cc2n1C(=O)Cc1ccn[n-]1 (protonated)
NC(=O)c1cc2ccc(C(F)(F)F)cc2n1C(=O)Cc1ccn[n-]1 (3D coordinates assigned)
NC(=O)c1cc2ccc(C(F)(F)F)cc2n1C(=O)Cc1ccn[n-]1 (optimized conformer: 105.4436407816141 kcal/mol)

>  <smiles>  (51) 
NC(=O)c1cc2ccc(C(F)(F)F)cc2n1C(=O)Cc1ccn[nH]1

>  <score_type>  (51) 
oracle

>  <origin>  (51) 
adg

>  <m_score__min__energy>  (51) 
-6.9800000000000004

>  <m_primary>  (51) 
energy

$$$$
53:0
     RDKit          3D

 44 46  0  0  0  0  0  0  0  0999 V2000
  146.3690  158.1560  133.9580 C   0  0  0  0  0  0  0  0  0  0  0  0
  145.8620  159.1350  132.8930 C   0  0  2  0  0  0  0  0  0  0  0  0
  146.8820  160.0240  132.5060 O   0  0  0  0  0  0  0  0  0  0  0  0
  144.6480  159.8860  133.3960 C   0  0  0  0  0  0  0  0  0  0  0  0
  144.6690  161.1480  133.3940 O   0  0  0  0  0  0  0  0  0  0  0  0
  143.5020  159.1930  133.9440 N   0  0  0  0  0  0  0  0  0  0  0  0
  143.2240  157.7980  133.5620 C   0  0  0  0  0  0  0  0  0  0  0  0
  141.8820  157.3170  134.1190 C   0  0  0  0  0  0  0  0  0  0  0  0
  141.7830  157.6830  135.5350 N   0  0  0  0  0  0  0  0  0  0  0  0
  141.5210  156.6810  136.5370 C   0  0  0  0  0  0  0  0  0  0  0  0
  141.2070  157.0650  137.8660 C   0  0  0  0  0  0  0  0  0  0  0  0
  140.9750  156.0980  138.8570 C   0  0  0  0  0  0  0  0  0  0  0  0
  141.0590  154.7580  138.4920 C   0  0  0  0  0  0  0  0  0  0  0  0
  140.9090  153.6240  139.2550 C   0  0  0  0  0  0  0  0  0  0  0  0
  141.1160  152.5590  138.3810 C   0  0  0  0  0  0  0  0  0  0  0  0
  140.9660  151.1420  138.7740 C   0  0  0  0  0  0  0  0  0  0  0  0
  139.9000  150.3660  138.2330 N   0  0  0  0  0  0  0  0  0  0  0  0
  141.7920  150.5970  139.5530 O   0  0  0  0  0  0  0  0  0  0  0  0
  141.3920  153.0180  137.1250 N   0  0  0  0  0  0  0  0  0  0  0  0
  141.7240  152.2510  135.9570 C   0  0  0  0  0  0  0  0  0  0  0  0
  142.6690  152.6100  135.2070 O   0  0  0  0  0  0  0  0  0  0  0  0
  140.9880  151.1190  135.6280 O   0  0  0  0  0  0  0  0  0  0  0  0
  141.3490  154.3670  137.2110 C   0  0  0  0  0  0  0  0  0  0  0  0
  141.6030  155.3090  136.2090 C   0  0  0  0  0  0  0  0  0  0  0  0
  142.0600  159.0670  135.9480 C   0  0  0  0  0  0  0  0  0  0  0  0
  142.5280  159.9300  134.7680 C   0  0  0  0  0  0  0  0  0  0  0  0
  146.1589  158.5617  134.9586 H   0  0  0  0  0  0  0  0  0  0  0  0
  145.8584  157.1889  133.8398 H   0  0  0  0  0  0  0  0  0  0  0  0
  147.4535  158.0149  133.8398 H   0  0  0  0  0  0  0  0  0  0  0  0
  145.5630  158.5578  132.0056 H   0  0  0  0  0  0  0  0  0  0  0  0
  146.5370  160.9510  132.6020 H   0  0  0  0  0  0  0  0  0  0  0  0
  143.2011  157.7264  132.4646 H   0  0  0  0  0  0  0  0  0  0  0  0
  144.0178  157.1622  133.9812 H   0  0  0  0  0  0  0  0  0  0  0  0
  141.0616  157.7902  133.5595 H   0  0  0  0  0  0  0  0  0  0  0  0
  141.8122  156.2240  134.0164 H   0  0  0  0  0  0  0  0  0  0  0  0
  141.1446  158.1327  138.1230 H   0  0  0  0  0  0  0  0  0  0  0  0
  140.7344  156.3906  139.8897 H   0  0  0  0  0  0  0  0  0  0  0  0
  140.6750  153.5692  140.3284 H   0  0  0  0  0  0  0  0  0  0  0  0
  139.8590  150.1470  137.2130 H   0  0  0  0  0  0  0  0  0  0  0  0
  141.8608  154.9891  135.1886 H   0  0  0  0  0  0  0  0  0  0  0  0
  141.1418  159.5043  136.3671 H   0  0  0  0  0  0  0  0  0  0  0  0
  142.8650  159.0461  136.6974 H   0  0  0  0  0  0  0  0  0  0  0  0
  141.6593  160.1981  134.1487 H   0  0  0  0  0  0  0  0  0  0  0  0
  143.0089  160.8382  135.1602 H   0  0  0  0  0  0  0  0  0  0  0  0
  1  2  1  0
  2  3  1  0
  2  4  1  0
  4  5  2  0
  4  6  1  0
  6  7  1  0
  7  8  1  0
  8  9  1  0
  9 10  1  0
 10 11  2  0
 11 12  1  0
 12 13  2  0
 13 14  1  0
 14 15  2  0
 15 16  1  0
 16 17  1  0
 16 18  2  0
 15 19  1  0
 19 20  1  0
 20 21  2  0
 20 22  1  0
 19 23  1  0
 23 24  2  0
  9 25  1  0
 25 26  1  0
 26  6  1  0
 24 10  1  0
 23 13  1  0
  1 27  1  0
  1 28  1  0
  1 29  1  0
  2 30  1  6
  3 31  1  0
  7 32  1  0
  7 33  1  0
  8 34  1  0
  8 35  1  0
 11 36  1  0
 12 37  1  0
 14 38  1  0
 17 39  1  0
 24 40  1  0
 25 41  1  0
 25 42  1  0
 26 43  1  0
 26 44  1  0
M  CHG  2  17  -1  22  -1
M  END
>  <UniqueID>  (52) 
51

>  <SMILES>  (52) 
C[C@H](O)C(=O)N1CCN(c2ccc3cc(C([NH-])=O)n(C(=O)[O-])c3c2)CC1

>  <Energy>  (52) 
88.45453676381327

>  <Genealogy>  (52) 
C[C@H](O)C(=O)N1CCN(c2ccc3cc(C([NH-])=O)n(C(=O)[O-])c3c2)CC1 (protonated)
C[C@H](O)C(=O)N1CCN(c2ccc3cc(C([NH-])=O)n(C(=O)[O-])c3c2)CC1 (3D coordinates assigned)
C[C@H](O)C(=O)N1CCN(c2ccc3cc(C([NH-])=O)n(C(=O)[O-])c3c2)CC1 (nonaromatic ring conformer: 88.45453676381327 kcal/mol)

>  <smiles>  (52) 
C[C@H](O)C(=O)N1CCN(c2ccc3cc(C(N)=O)n(C(=O)O)c3c2)CC1

>  <score_type>  (52) 
oracle

>  <origin>  (52) 
adg

>  <m_score__min__energy>  (52) 
-7.9699999999999998

>  <m_primary>  (52) 
energy

$$$$
54:0
     RDKit          3D

 42 44  0  0  0  0  0  0  0  0999 V2000
  147.7260  156.0730  135.1620 C   0  0  0  0  0  0  0  0  0  0  0  0
  147.0070  155.6770  134.1130 C   0  0  0  0  0  0  0  0  0  0  0  0
  146.8850  156.4850  132.8840 C   0  0  0  0  0  0  0  0  0  0  0  0
  147.0130  155.9460  131.7510 O   0  0  0  0  0  0  0  0  0  0  0  0
  146.6130  157.8920  132.9730 N   0  0  0  0  0  0  0  0  0  0  0  0
  147.4770  158.9220  132.7500 C   0  0  0  0  0  0  0  0  0  0  0  0
  148.8670  158.7950  132.2600 C   0  0  0  0  0  0  0  0  0  0  0  0
  149.4970  157.5160  132.2410 N   0  0  0  0  0  0  0  0  0  0  0  0
  149.5120  159.8070  131.8790 O   0  0  0  0  0  0  0  0  0  0  0  0
  146.8500  160.1450  132.9860 C   0  0  0  0  0  0  0  0  0  0  0  0
  145.5660  159.8280  133.3670 C   0  0  0  0  0  0  0  0  0  0  0  0
  144.5080  160.6560  133.7270 C   0  0  0  0  0  0  0  0  0  0  0  0
  143.2940  160.0520  134.0960 C   0  0  0  0  0  0  0  0  0  0  0  0
  143.1650  158.6400  134.1170 C   0  0  0  0  0  0  0  0  0  0  0  0
  141.9130  158.0330  134.4890 N   0  0  0  0  0  0  0  0  0  0  0  0
  141.5600  156.6810  134.0490 C   0  0  0  0  0  0  0  0  0  0  0  0
  140.2440  156.7080  133.2480 C   0  0  0  0  0  0  0  0  0  0  0  0
  139.2980  157.7690  133.6810 N   0  0  0  0  0  0  0  0  0  0  0  0
  139.2760  158.9010  132.7370 C   0  0  0  0  0  0  0  0  0  0  0  0
  139.5180  158.2170  135.0730 C   0  0  0  0  0  0  0  0  0  0  0  0
  140.9310  158.7910  135.2720 C   0  0  0  0  0  0  0  0  0  0  0  0
  144.2620  157.8330  133.7390 C   0  0  0  0  0  0  0  0  0  0  0  0
  145.4500  158.4630  133.3540 C   0  0  0  0  0  0  0  0  0  0  0  0
  147.7884  155.4373  136.0576 H   0  0  0  0  0  0  0  0  0  0  0  0
  148.2574  157.0357  135.1327 H   0  0  0  0  0  0  0  0  0  0  0  0
  146.4841  154.7106  134.1647 H   0  0  0  0  0  0  0  0  0  0  0  0
  149.0440  156.7020  131.7690 H   0  0  0  0  0  0  0  0  0  0  0  0
  147.2883  161.1492  132.8884 H   0  0  0  0  0  0  0  0  0  0  0  0
  144.6182  161.7505  133.7230 H   0  0  0  0  0  0  0  0  0  0  0  0
  142.4348  160.6811  134.3714 H   0  0  0  0  0  0  0  0  0  0  0  0
  142.3647  156.2845  133.4123 H   0  0  0  0  0  0  0  0  0  0  0  0
  141.4290  156.0390  134.9326 H   0  0  0  0  0  0  0  0  0  0  0  0
  140.4870  156.8721  132.1878 H   0  0  0  0  0  0  0  0  0  0  0  0
  139.7441  155.7437  133.4220 H   0  0  0  0  0  0  0  0  0  0  0  0
  139.2576  159.8466  133.2987 H   0  0  0  0  0  0  0  0  0  0  0  0
  140.1750  158.8680  132.1039 H   0  0  0  0  0  0  0  0  0  0  0  0
  138.3790  158.8331  132.1039 H   0  0  0  0  0  0  0  0  0  0  0  0
  138.7799  158.9952  135.3174 H   0  0  0  0  0  0  0  0  0  0  0  0
  139.4071  157.3450  135.7343 H   0  0  0  0  0  0  0  0  0  0  0  0
  140.9431  159.8417  134.9467 H   0  0  0  0  0  0  0  0  0  0  0  0
  141.1957  158.7184  136.3372 H   0  0  0  0  0  0  0  0  0  0  0  0
  144.1834  156.7358  133.7474 H   0  0  0  0  0  0  0  0  0  0  0  0
  1  2  2  0
  2  3  1  0
  3  4  2  0
  3  5  1  0
  5  6  1  0
  6  7  1  0
  7  8  1  0
  7  9  2  0
  6 10  2  0
 10 11  1  0
 11 12  2  0
 12 13  1  0
 13 14  2  0
 14 15  1  0
 15 16  1  0
 16 17  1  0
 17 18  1  0
 18 19  1  0
 18 20  1  0
 20 21  1  0
 14 22  1  0
 22 23  2  0
 23  5  1  0
 23 11  1  0
 21 15  1  0
  1 24  1  0
  1 25  1  0
  2 26  1  0
  8 27  1  0
 10 28  1  0
 12 29  1  0
 13 30  1  0
 16 31  1  0
 16 32  1  0
 17 33  1  0
 17 34  1  0
 19 35  1  0
 19 36  1  0
 19 37  1  0
 20 38  1  0
 20 39  1  0
 21 40  1  0
 21 41  1  0
 22 42  1  0
M  CHG  1   8  -1
M  END
>  <UniqueID>  (53) 
52

>  <SMILES>  (53) 
C=CC(=O)n1c(C([NH-])=O)cc2ccc(N3CCN(C)CC3)cc21

>  <Energy>  (53) 
92.10583714499904

>  <Genealogy>  (53) 
C=CC(=O)n1c(C([NH-])=O)cc2ccc(N3CCN(C)CC3)cc21 (protonated)
C=CC(=O)n1c(C([NH-])=O)cc2ccc(N3CCN(C)CC3)cc21 (3D coordinates assigned)
C=CC(=O)n1c(C([NH-])=O)cc2ccc(N3CCN(C)CC3)cc21 (nonaromatic ring conformer: 92.10583714499904 kcal/mol)

>  <smiles>  (53) 
C=CC(=O)n1c(C(N)=O)cc2ccc(N3CCN(C)CC3)cc21

>  <score_type>  (53) 
oracle

>  <origin>  (53) 
adg

>  <m_score__min__energy>  (53) 
-7.4800000000000004

>  <m_primary>  (53) 
energy

$$$$
55:0
     RDKit          3D

 48 50  0  0  0  0  0  0  0  0999 V2000
  146.2800  159.1940  132.7400 C   0  0  0  0  0  0  0  0  0  0  0  0
  145.4450  158.5690  133.7770 N   0  0  0  0  0  0  0  0  0  0  0  0
  144.0260  158.9940  133.6590 C   0  0  0  0  0  0  0  0  0  0  0  0
  143.1510  157.9300  132.9830 C   0  0  0  0  0  0  0  0  0  0  0  0
  143.1750  156.6620  133.7460 N   0  0  0  0  0  0  0  0  0  0  0  0
  142.6110  155.5150  133.0020 C   0  0  0  0  0  0  0  0  0  0  0  0
  141.2670  154.9990  133.5620 C   0  0  0  0  0  0  0  0  0  0  0  0
  140.1560  155.9850  133.3220 C   0  0  0  0  0  0  0  0  0  0  0  0
  139.1750  155.6510  132.6030 O   0  0  0  0  0  0  0  0  0  0  0  0
  140.2060  157.3110  133.8790 N   0  0  0  0  0  0  0  0  0  0  0  0
  140.0440  158.4890  133.2120 C   0  0  0  0  0  0  0  0  0  0  0  0
  139.6610  158.6350  131.7930 C   0  0  0  0  0  0  0  0  0  0  0  0
  138.6110  157.8510  131.2240 N   0  0  0  0  0  0  0  0  0  0  0  0
  140.2390  159.4990  131.0830 O   0  0  0  0  0  0  0  0  0  0  0  0
  140.2910  159.5700  134.0530 C   0  0  0  0  0  0  0  0  0  0  0  0
  140.6100  159.0170  135.2710 C   0  0  0  0  0  0  0  0  0  0  0  0
  140.9890  159.6370  136.4580 C   0  0  0  0  0  0  0  0  0  0  0  0
  141.3320  158.8200  137.5470 C   0  0  0  0  0  0  0  0  0  0  0  0
  141.2950  157.4060  137.4340 C   0  0  0  0  0  0  0  0  0  0  0  0
  141.7330  156.5380  138.5860 C   0  0  0  0  0  0  0  0  0  0  0  0
  140.6160  156.0320  139.2240 F   0  0  0  0  0  0  0  0  0  0  0  0
  142.5120  155.4860  138.1370 F   0  0  0  0  0  0  0  0  0  0  0  0
  142.4780  157.2710  139.4940 F   0  0  0  0  0  0  0  0  0  0  0  0
  140.9380  156.8160  136.1990 C   0  0  0  0  0  0  0  0  0  0  0  0
  140.5630  157.6530  135.1400 C   0  0  0  0  0  0  0  0  0  0  0  0
  144.4540  156.3800  134.4410 C   0  0  0  0  0  0  0  0  0  0  0  0
  145.6340  157.1000  133.7740 C   0  0  0  0  0  0  0  0  0  0  0  0
  147.0736  159.7880  133.2169 H   0  0  0  0  0  0  0  0  0  0  0  0
  146.7337  158.4117  132.1138 H   0  0  0  0  0  0  0  0  0  0  0  0
  145.6573  159.8498  132.1138 H   0  0  0  0  0  0  0  0  0  0  0  0
  143.6305  159.1884  134.6669 H   0  0  0  0  0  0  0  0  0  0  0  0
  143.9977  159.8984  133.0335 H   0  0  0  0  0  0  0  0  0  0  0  0
  142.1156  158.2974  132.9280 H   0  0  0  0  0  0  0  0  0  0  0  0
  143.5461  157.7400  131.9741 H   0  0  0  0  0  0  0  0  0  0  0  0
  142.4543  155.8239  131.9580 H   0  0  0  0  0  0  0  0  0  0  0  0
  143.3320  154.6898  133.0974 H   0  0  0  0  0  0  0  0  0  0  0  0
  141.0149  154.0490  133.0682 H   0  0  0  0  0  0  0  0  0  0  0  0
  141.3760  154.8585  134.6475 H   0  0  0  0  0  0  0  0  0  0  0  0
  138.3930  157.9300  130.2060 H   0  0  0  0  0  0  0  0  0  0  0  0
  137.9840  157.2760  131.8250 H   0  0  0  0  0  0  0  0  0  0  0  0
  140.2416  160.6389  133.7978 H   0  0  0  0  0  0  0  0  0  0  0  0
  141.0189  160.7335  136.5404 H   0  0  0  0  0  0  0  0  0  0  0  0
  141.6330  159.2815  138.4991 H   0  0  0  0  0  0  0  0  0  0  0  0
  140.9545  155.7234  136.0728 H   0  0  0  0  0  0  0  0  0  0  0  0
  144.3744  156.7178  135.4848 H   0  0  0  0  0  0  0  0  0  0  0  0
  144.6402  155.2971  134.3899 H   0  0  0  0  0  0  0  0  0  0  0  0
  146.5566  156.8572  134.3215 H   0  0  0  0  0  0  0  0  0  0  0  0
  145.6985  156.7623  132.7291 H   0  0  0  0  0  0  0  0  0  0  0  0
  1  2  1  0
  2  3  1  0
  3  4  1  0
  4  5  1  0
  5  6  1  0
  6  7  1  0
  7  8  1  0
  8  9  2  0
  8 10  1  0
 10 11  1  0
 11 12  1  0
 12 13  1  0
 12 14  2  0
 11 15  2  0
 15 16  1  0
 16 17  2  0
 17 18  1  0
 18 19  2  0
 19 20  1  0
 20 21  1  0
 20 22  1  0
 20 23  1  0
 19 24  1  0
 24 25  2  0
  5 26  1  0
 26 27  1  0
 27  2  1  0
 25 10  1  0
 25 16  1  0
  1 28  1  0
  1 29  1  0
  1 30  1  0
  3 31  1  0
  3 32  1  0
  4 33  1  0
  4 34  1  0
  6 35  1  0
  6 36  1  0
  7 37  1  0
  7 38  1  0
 13 39  1  0
 13 40  1  0
 15 41  1  0
 17 42  1  0
 18 43  1  0
 24 44  1  0
 26 45  1  0
 26 46  1  0
 27 47  1  0
 27 48  1  0
M  END
>  <UniqueID>  (54) 
53

>  <SMILES>  (54) 
CN1CCN(CCC(=O)n2c(C(N)=O)cc3ccc(C(F)(F)F)cc32)CC1

>  <Energy>  (54) 
102.31391086314298

>  <Genealogy>  (54) 
CN1CCN(CCC(=O)n2c(C(N)=O)cc3ccc(C(F)(F)F)cc32)CC1 (3D coordinates assigned)
CN1CCN(CCC(=O)n2c(C(N)=O)cc3ccc(C(F)(F)F)cc32)CC1 (nonaromatic ring conformer: 102.31391086314298 kcal/mol)

>  <smiles>  (54) 
CN1CCN(CCC(=O)n2c(C(N)=O)cc3ccc(C(F)(F)F)cc32)CC1

>  <score_type>  (54) 
oracle

>  <origin>  (54) 
adg

>  <m_score__min__energy>  (54) 
-7.54

>  <m_primary>  (54) 
energy

$$$$
56:0
     RDKit          3D

 48 50  0  0  0  0  0  0  0  0999 V2000
  142.2030  155.1450  133.5710 N   0  0  0  0  0  0  0  0  0  0  0  0
  143.2290  155.4550  134.5140 C   0  0  0  0  0  0  0  0  0  0  0  0
  143.1050  155.0870  135.7140 O   0  0  0  0  0  0  0  0  0  0  0  0
  144.3890  156.2700  134.1210 C   0  0  0  0  0  0  0  0  0  0  0  0
  145.6970  155.8670  134.3500 C   0  0  0  0  0  0  0  0  0  0  0  0
  146.4780  156.8970  133.8900 C   0  0  0  0  0  0  0  0  0  0  0  0
  147.8630  157.0240  133.8850 C   0  0  0  0  0  0  0  0  0  0  0  0
  148.4170  158.1970  133.3520 C   0  0  0  0  0  0  0  0  0  0  0  0
  147.5810  159.2190  132.8410 C   0  0  0  0  0  0  0  0  0  0  0  0
  148.1850  160.4740  132.2580 C   0  0  0  0  0  0  0  0  0  0  0  0
  148.5390  160.3020  130.7750 C   0  0  0  0  0  0  0  0  0  0  0  0
  149.6140  161.2530  130.3300 C   0  0  0  0  0  0  0  0  0  0  0  0
  149.3970  162.4530  130.3140 O   0  0  0  0  0  0  0  0  0  0  0  0
  146.1780  159.0560  132.8590 C   0  0  0  0  0  0  0  0  0  0  0  0
  145.6460  157.8710  133.3930 C   0  0  0  0  0  0  0  0  0  0  0  0
  144.3450  157.4950  133.5170 N   0  0  0  0  0  0  0  0  0  0  0  0
  143.1730  158.1660  132.9990 C   0  0  0  0  0  0  0  0  0  0  0  0
  142.3760  157.5590  132.2360 O   0  0  0  0  0  0  0  0  0  0  0  0
  142.8870  159.4820  133.3810 O   0  0  0  0  0  0  0  0  0  0  0  0
  142.6650  159.8900  134.7320 C   0  0  0  0  0  0  0  0  0  0  0  0
  141.3420  159.3280  135.2870 C   0  0  0  0  0  0  0  0  0  0  0  0
  140.3850  158.9460  134.1380 C   0  0  0  0  0  0  0  0  0  0  0  0
  139.2840  157.9800  134.6130 C   0  0  0  0  0  0  0  0  0  0  0  0
  139.1040  158.0610  136.0130 O   0  0  0  0  0  0  0  0  0  0  0  0
  140.2300  157.5110  136.6780 C   0  0  0  0  0  0  0  0  0  0  0  0
  141.5740  158.1130  136.2000 C   0  0  0  0  0  0  0  0  0  0  0  0
  141.3960  154.5440  133.8460 H   0  0  0  0  0  0  0  0  0  0  0  0
  142.2230  155.5580  132.6120 H   0  0  0  0  0  0  0  0  0  0  0  0
  146.0353  154.9236  134.8034 H   0  0  0  0  0  0  0  0  0  0  0  0
  148.5056  156.2271  134.2876 H   0  0  0  0  0  0  0  0  0  0  0  0
  149.5094  158.3240  133.3308 H   0  0  0  0  0  0  0  0  0  0  0  0
  147.4616  161.2966  132.3580 H   0  0  0  0  0  0  0  0  0  0  0  0
  149.1126  160.6932  132.8071 H   0  0  0  0  0  0  0  0  0  0  0  0
  148.8888  159.2719  130.6122 H   0  0  0  0  0  0  0  0  0  0  0  0
  147.6350  160.5177  130.1866 H   0  0  0  0  0  0  0  0  0  0  0  0
  150.5960  160.8671  130.0189 H   0  0  0  0  0  0  0  0  0  0  0  0
  145.5162  159.8405  132.4632 H   0  0  0  0  0  0  0  0  0  0  0  0
  143.4957  159.5271  135.3551 H   0  0  0  0  0  0  0  0  0  0  0  0
  142.6068  160.9882  134.7533 H   0  0  0  0  0  0  0  0  0  0  0  0
  140.8815  160.1238  135.8909 H   0  0  0  0  0  0  0  0  0  0  0  0
  139.9136  159.8600  133.7476 H   0  0  0  0  0  0  0  0  0  0  0  0
  140.9713  158.4409  133.3562 H   0  0  0  0  0  0  0  0  0  0  0  0
  138.3388  158.2395  134.1138 H   0  0  0  0  0  0  0  0  0  0  0  0
  139.5869  156.9535  134.3589 H   0  0  0  0  0  0  0  0  0  0  0  0
  140.1260  157.7001  137.7566 H   0  0  0  0  0  0  0  0  0  0  0  0
  140.2529  156.4356  136.4477 H   0  0  0  0  0  0  0  0  0  0  0  0
  142.1584  158.4287  137.0768 H   0  0  0  0  0  0  0  0  0  0  0  0
  142.1176  157.3456  135.6294 H   0  0  0  0  0  0  0  0  0  0  0  0
  1  2  1  0
  2  3  2  0
  2  4  1  0
  4  5  2  0
  5  6  1  0
  6  7  2  0
  7  8  1  0
  8  9  2  0
  9 10  1  0
 10 11  1  0
 11 12  1  0
 12 13  2  0
  9 14  1  0
 14 15  2  0
 15 16  1  0
 16 17  1  0
 17 18  2  0
 17 19  1  0
 19 20  1  0
 20 21  1  0
 21 22  1  0
 22 23  1  0
 23 24  1  0
 24 25  1  0
 25 26  1  0
 16  4  1  0
 26 21  1  0
 15  6  1  0
  1 27  1  0
  1 28  1  0
  5 29  1  0
  7 30  1  0
  8 31  1  0
 10 32  1  0
 10 33  1  0
 11 34  1  0
 11 35  1  0
 12 36  1  0
 14 37  1  0
 20 38  1  0
 20 39  1  0
 21 40  1  0
 22 41  1  0
 22 42  1  0
 23 43  1  0
 23 44  1  0
 25 45  1  0
 25 46  1  0
 26 47  1  0
 26 48  1  0
M  END
>  <UniqueID>  (55) 
54

>  <SMILES>  (55) 
NC(=O)c1cc2ccc(CCC=O)cc2n1C(=O)OCC1CCOCC1

>  <Energy>  (55) 
89.89148929334266

>  <Genealogy>  (55) 
NC(=O)c1cc2ccc(CCC=O)cc2n1C(=O)OCC1CCOCC1 (3D coordinates assigned)
NC(=O)c1cc2ccc(CCC=O)cc2n1C(=O)OCC1CCOCC1 (nonaromatic ring conformer: 89.89148929334266 kcal/mol)

>  <smiles>  (55) 
NC(=O)c1cc2ccc(CCC=O)cc2n1C(=O)OCC1CCOCC1

>  <score_type>  (55) 
oracle

>  <origin>  (55) 
adg

>  <m_score__min__energy>  (55) 
-8.5199999999999996

>  <m_primary>  (55) 
energy

$$$$
57:0
     RDKit          3D

 57 60  0  0  0  0  0  0  0  0999 V2000
  137.7710  159.6910  131.1020 C   0  0  0  0  0  0  0  0  0  0  0  0
  138.9590  160.2310  131.6410 O   0  0  0  0  0  0  0  0  0  0  0  0
  139.5590  159.3140  132.5360 C   0  0  0  0  0  0  0  0  0  0  0  0
  139.0970  157.8830  132.2350 C   0  0  0  0  0  0  0  0  0  0  0  0
  139.0170  157.0880  133.4830 N   0  0  0  0  0  0  0  0  0  0  0  0
  139.2200  157.9180  134.7030 C   0  0  0  0  0  0  0  0  0  0  0  0
  140.6340  157.8010  135.3080 C   0  0  0  0  0  0  0  0  0  0  0  0
  141.6150  157.4940  134.2630 N   0  0  0  0  0  0  0  0  0  0  0  0
  142.7740  158.3240  134.0560 C   0  0  0  0  0  0  0  0  0  0  0  0
  142.6870  159.7310  134.2210 C   0  0  0  0  0  0  0  0  0  0  0  0
  143.8090  160.5500  134.0110 C   0  0  0  0  0  0  0  0  0  0  0  0
  145.0000  159.9400  133.6300 C   0  0  0  0  0  0  0  0  0  0  0  0
  146.2350  160.4880  133.3670 C   0  0  0  0  0  0  0  0  0  0  0  0
  147.0540  159.4110  133.0250 C   0  0  0  0  0  0  0  0  0  0  0  0
  148.4640  159.5350  132.5910 C   0  0  0  0  0  0  0  0  0  0  0  0
  149.4770  158.6880  133.1370 N   0  0  0  0  0  0  0  0  0  0  0  0
  148.7880  160.4040  131.7390 O   0  0  0  0  0  0  0  0  0  0  0  0
  146.3480  158.2460  133.0830 N   0  0  0  0  0  0  0  0  0  0  0  0
  146.8220  156.9130  132.8300 C   0  0  0  0  0  0  0  0  0  0  0  0
  148.0100  156.7500  132.4420 O   0  0  0  0  0  0  0  0  0  0  0  0
  145.9300  155.7380  132.9920 C   0  0  0  0  0  0  0  0  0  0  0  0
  145.2450  155.2100  131.8840 C   0  0  0  0  0  0  0  0  0  0  0  0
  144.4040  154.1020  132.0320 C   0  0  0  0  0  0  0  0  0  0  0  0
  144.2350  153.5120  133.2890 C   0  0  0  0  0  0  0  0  0  0  0  0
  143.3690  152.3720  133.4400 C   0  0  0  0  0  0  0  0  0  0  0  0
  142.6740  151.4550  133.5620 N   0  0  0  0  0  0  0  0  0  0  0  0
  144.9060  154.0360  134.3990 C   0  0  0  0  0  0  0  0  0  0  0  0
  145.7470  155.1440  134.2530 C   0  0  0  0  0  0  0  0  0  0  0  0
  145.0960  158.5860  133.4470 C   0  0  0  0  0  0  0  0  0  0  0  0
  144.0000  157.7440  133.6570 C   0  0  0  0  0  0  0  0  0  0  0  0
  141.3880  156.3190  133.4140 C   0  0  0  0  0  0  0  0  0  0  0  0
  139.9060  155.9060  133.4470 C   0  0  0  0  0  0  0  0  0  0  0  0
  137.1021  159.3869  131.9206 H   0  0  0  0  0  0  0  0  0  0  0  0
  137.2710  160.4503  130.4828 H   0  0  0  0  0  0  0  0  0  0  0  0
  138.0143  158.8150  130.4828 H   0  0  0  0  0  0  0  0  0  0  0  0
  140.6526  159.3701  132.4314 H   0  0  0  0  0  0  0  0  0  0  0  0
  139.2604  159.5740  133.5623 H   0  0  0  0  0  0  0  0  0  0  0  0
  138.1041  157.9154  131.7626 H   0  0  0  0  0  0  0  0  0  0  0  0
  139.8245  157.4100  131.5589 H   0  0  0  0  0  0  0  0  0  0  0  0
  139.0416  158.9710  134.4396 H   0  0  0  0  0  0  0  0  0  0  0  0
  138.5153  157.5485  135.4625 H   0  0  0  0  0  0  0  0  0  0  0  0
  140.9024  158.7536  135.7881 H   0  0  0  0  0  0  0  0  0  0  0  0
  140.6378  156.9886  136.0497 H   0  0  0  0  0  0  0  0  0  0  0  0
  141.7299  160.1855  134.5167 H   0  0  0  0  0  0  0  0  0  0  0  0
  143.7477  161.6402  134.1438 H   0  0  0  0  0  0  0  0  0  0  0  0
  146.5168  161.5502  133.4160 H   0  0  0  0  0  0  0  0  0  0  0  0
  150.4720  158.8090  132.8460 H   0  0  0  0  0  0  0  0  0  0  0  0
  149.2430  157.9120  133.7950 H   0  0  0  0  0  0  0  0  0  0  0  0
  145.3711  155.6714  130.8934 H   0  0  0  0  0  0  0  0  0  0  0  0
  143.8746  153.6940  131.1583 H   0  0  0  0  0  0  0  0  0  0  0  0
  144.7719  153.5756  135.3890 H   0  0  0  0  0  0  0  0  0  0  0  0
  146.2687  155.5533  135.1307 H   0  0  0  0  0  0  0  0  0  0  0  0
  144.0893  156.6568  133.5153 H   0  0  0  0  0  0  0  0  0  0  0  0
  141.6733  156.5599  132.3793 H   0  0  0  0  0  0  0  0  0  0  0  0
  141.9974  155.4849  133.7920 H   0  0  0  0  0  0  0  0  0  0  0  0
  139.6791  155.3148  132.5476 H   0  0  0  0  0  0  0  0  0  0  0  0
  139.7318  155.3139  134.3575 H   0  0  0  0  0  0  0  0  0  0  0  0
  1  2  1  0
  2  3  1  0
  3  4  1  0
  4  5  1  0
  5  6  1  0
  6  7  1  0
  7  8  1  0
  8  9  1  0
  9 10  2  0
 10 11  1  0
 11 12  2  0
 12 13  1  0
 13 14  2  0
 14 15  1  0
 15 16  1  0
 15 17  2  0
 14 18  1  0
 18 19  1  0
 19 20  2  0
 19 21  1  0
 21 22  2  0
 22 23  1  0
 23 24  2  0
 24 25  1  0
 25 26  3  0
 24 27  1  0
 27 28  2  0
 18 29  1  0
 29 30  2  0
  8 31  1  0
 31 32  1  0
 32  5  1  0
 30  9  1  0
 29 12  1  0
 28 21  1  0
  1 33  1  0
  1 34  1  0
  1 35  1  0
  3 36  1  0
  3 37  1  0
  4 38  1  0
  4 39  1  0
  6 40  1  0
  6 41  1  0
  7 42  1  0
  7 43  1  0
 10 44  1  0
 11 45  1  0
 13 46  1  0
 16 47  1  0
 16 48  1  0
 22 49  1  0
 23 50  1  0
 27 51  1  0
 28 52  1  0
 30 53  1  0
 31 54  1  0
 31 55  1  0
 32 56  1  0
 32 57  1  0
M  END
>  <UniqueID>  (56) 
55

>  <SMILES>  (56) 
COCCN1CCN(c2ccc3cc(C(N)=O)n(C(=O)c4ccc(C#N)cc4)c3c2)CC1

>  <Energy>  (56) 
112.78537101823119

>  <Genealogy>  (56) 
COCCN1CCN(c2ccc3cc(C(N)=O)n(C(=O)c4ccc(C#N)cc4)c3c2)CC1 (3D coordinates assigned)
COCCN1CCN(c2ccc3cc(C(N)=O)n(C(=O)c4ccc(C#N)cc4)c3c2)CC1 (nonaromatic ring conformer: 112.78537101823119 kcal/mol)

>  <smiles>  (56) 
COCCN1CCN(c2ccc3cc(C(N)=O)n(C(=O)c4ccc(C#N)cc4)c3c2)CC1

>  <score_type>  (56) 
oracle

>  <origin>  (56) 
adg

>  <m_score__min__energy>  (56) 
-10.220000000000001

>  <m_primary>  (56) 
energy

$$$$
58:0
     RDKit          3D

 47 49  0  0  0  0  0  0  0  0999 V2000
  143.4380  158.7180  133.8630 C   0  0  0  0  0  0  0  0  0  0  0  0
  142.2170  158.0170  133.6680 O   0  0  0  0  0  0  0  0  0  0  0  0
  141.1490  158.5540  132.9440 C   0  0  0  0  0  0  0  0  0  0  0  0
  141.1510  159.7660  132.5940 O   0  0  0  0  0  0  0  0  0  0  0  0
  139.9690  157.6890  132.6220 C   0  0  0  0  0  0  0  0  0  0  0  0
  139.6360  156.7350  133.7830 C   0  0  1  0  0  0  0  0  0  0  0  0
  140.7080  155.7480  133.9340 N   0  0  0  0  0  0  0  0  0  0  0  0
  140.6260  154.4330  133.3690 C   0  0  0  0  0  0  0  0  0  0  0  0
  139.5310  154.0020  132.9160 O   0  0  0  0  0  0  0  0  0  0  0  0
  141.7990  153.6100  133.2980 N   0  0  0  0  0  0  0  0  0  0  0  0
  143.0600  153.9050  133.7260 C   0  0  0  0  0  0  0  0  0  0  0  0
  143.5160  155.2090  134.2490 C   0  0  0  0  0  0  0  0  0  0  0  0
  142.9330  155.7780  135.4180 N   0  0  0  0  0  0  0  0  0  0  0  0
  144.4110  155.8490  133.6340 O   0  0  0  0  0  0  0  0  0  0  0  0
  143.9030  152.8100  133.5420 C   0  0  0  0  0  0  0  0  0  0  0  0
  143.1130  151.8300  132.9820 C   0  0  0  0  0  0  0  0  0  0  0  0
  143.4310  150.5300  132.6050 C   0  0  0  0  0  0  0  0  0  0  0  0
  142.4040  149.7260  132.0810 C   0  0  0  0  0  0  0  0  0  0  0  0
  141.0790  150.2250  131.9500 C   0  0  0  0  0  0  0  0  0  0  0  0
  139.9980  149.3660  131.4050 C   0  0  0  0  0  0  0  0  0  0  0  0
  140.1190  148.1300  130.7930 C   0  0  0  0  0  0  0  0  0  0  0  0
  138.8950  147.6870  130.4500 N   0  0  0  0  0  0  0  0  0  0  0  0
  138.0390  148.5920  130.8240 O   0  0  0  0  0  0  0  0  0  0  0  0
  138.6360  149.6110  131.3970 C   0  0  0  0  0  0  0  0  0  0  0  0
  140.8020  151.5550  132.3510 C   0  0  0  0  0  0  0  0  0  0  0  0
  141.8490  152.3380  132.8480 C   0  0  0  0  0  0  0  0  0  0  0  0
  139.4580  157.4900  135.0730 C   0  0  0  0  0  0  0  0  0  0  0  0
  138.4510  158.2330  135.2310 O   0  0  0  0  0  0  0  0  0  0  0  0
  140.4040  157.3500  136.0940 O   0  0  0  0  0  0  0  0  0  0  0  0
  141.1070  158.4580  136.6440 C   0  0  0  0  0  0  0  0  0  0  0  0
  143.6296  158.8280  134.9406 H   0  0  0  0  0  0  0  0  0  0  0  0
  144.2619  158.1554  133.3997 H   0  0  0  0  0  0  0  0  0  0  0  0
  143.3675  159.7132  133.3997 H   0  0  0  0  0  0  0  0  0  0  0  0
  139.0978  158.3313  132.4259 H   0  0  0  0  0  0  0  0  0  0  0  0
  140.2158  157.0835  131.7374 H   0  0  0  0  0  0  0  0  0  0  0  0
  138.6901  156.2247  133.5485 H   0  0  0  0  0  0  0  0  0  0  0  0
  141.6070  156.0320  134.3890 H   0  0  0  0  0  0  0  0  0  0  0  0
  142.3330  156.6310  135.3580 H   0  0  0  0  0  0  0  0  0  0  0  0
  144.9723  152.7427  133.7912 H   0  0  0  0  0  0  0  0  0  0  0  0
  144.4548  150.1426  132.7135 H   0  0  0  0  0  0  0  0  0  0  0  0
  142.6286  148.6958  131.7677 H   0  0  0  0  0  0  0  0  0  0  0  0
  141.0639  147.5956  130.6155 H   0  0  0  0  0  0  0  0  0  0  0  0
  138.1393  150.5054  131.8011 H   0  0  0  0  0  0  0  0  0  0  0  0
  139.7838  151.9639  132.2731 H   0  0  0  0  0  0  0  0  0  0  0  0
  141.0734  158.4050  137.7422 H   0  0  0  0  0  0  0  0  0  0  0  0
  142.1539  158.4316  136.3075 H   0  0  0  0  0  0  0  0  0  0  0  0
  140.6372  159.3940  136.3075 H   0  0  0  0  0  0  0  0  0  0  0  0
  1  2  1  0
  2  3  1  0
  3  4  2  0
  3  5  1  0
  5  6  1  0
  6  7  1  0
  7  8  1  0
  8  9  2  0
  8 10  1  0
 10 11  1  0
 11 12  1  0
 12 13  1  0
 12 14  2  0
 11 15  2  0
 15 16  1  0
 16 17  2  0
 17 18  1  0
 18 19  2  0
 19 20  1  0
 20 21  1  0
 21 22  2  0
 22 23  1  0
 23 24  1  0
 19 25  1  0
 25 26  2  0
  6 27  1  0
 27 28  2  0
 27 29  1  0
 29 30  1  0
 26 10  1  0
 26 16  1  0
 24 20  2  0
  1 31  1  0
  1 32  1  0
  1 33  1  0
  5 34  1  0
  5 35  1  0
  6 36  1  6
  7 37  1  0
 13 38  1  0
 15 39  1  0
 17 40  1  0
 18 41  1  0
 21 42  1  0
 24 43  1  0
 25 44  1  0
 30 45  1  0
 30 46  1  0
 30 47  1  0
M  CHG  1  13  -1
M  END
>  <UniqueID>  (57) 
56

>  <SMILES>  (57) 
COC(=O)C[C@@H](NC(=O)n1c(C([NH-])=O)cc2ccc(-c3cnoc3)cc21)C(=O)OC

>  <Energy>  (57) 
111.06058767253744

>  <Genealogy>  (57) 
COC(=O)C[C@@H](NC(=O)n1c(C([NH-])=O)cc2ccc(-c3cnoc3)cc21)C(=O)OC (protonated)
COC(=O)C[C@@H](NC(=O)n1c(C([NH-])=O)cc2ccc(-c3cnoc3)cc21)C(=O)OC (3D coordinates assigned)
COC(=O)C[C@@H](NC(=O)n1c(C([NH-])=O)cc2ccc(-c3cnoc3)cc21)C(=O)OC (optimized conformer: 111.06058767253744 kcal/mol)

>  <smiles>  (57) 
COC(=O)C[C@@H](NC(=O)n1c(C(N)=O)cc2ccc(-c3cnoc3)cc21)C(=O)OC

>  <score_type>  (57) 
oracle

>  <origin>  (57) 
adg

>  <m_score__min__energy>  (57) 
-7.5300000000000002

>  <m_primary>  (57) 
energy

$$$$
59:0
     RDKit          3D

 33 34  0  0  0  0  0  0  0  0999 V2000
  147.7640  151.1120  131.9210 C   0  0  0  0  0  0  0  0  0  0  0  0
  148.8570  152.1100  132.2930 C   0  0  1  0  0  0  0  0  0  0  0  0
  148.2790  153.1830  133.0370 O   0  0  0  0  0  0  0  0  0  0  0  0
  148.7660  154.4950  133.0020 C   0  0  0  0  0  0  0  0  0  0  0  0
  149.8560  154.7530  132.4210 O   0  0  0  0  0  0  0  0  0  0  0  0
  148.0040  155.5560  133.6010 N   0  0  0  0  0  0  0  0  0  0  0  0
  147.0500  155.4520  134.5690 C   0  0  0  0  0  0  0  0  0  0  0  0
  146.7260  154.2370  135.3430 C   0  0  0  0  0  0  0  0  0  0  0  0
  147.7550  153.3700  135.8100 N   0  0  0  0  0  0  0  0  0  0  0  0
  145.5270  153.9880  135.6420 O   0  0  0  0  0  0  0  0  0  0  0  0
  146.4510  156.6880  134.8020 C   0  0  0  0  0  0  0  0  0  0  0  0
  147.0770  157.5630  133.9460 C   0  0  0  0  0  0  0  0  0  0  0  0
  146.8570  158.9210  133.7390 C   0  0  0  0  0  0  0  0  0  0  0  0
  147.6220  159.5710  132.7570 C   0  0  0  0  0  0  0  0  0  0  0  0
  148.5960  158.8610  132.0080 C   0  0  0  0  0  0  0  0  0  0  0  0
  149.3640  159.5540  130.9120 C   0  0  0  0  0  0  0  0  0  0  0  0
  149.0310  159.0310  129.6740 F   0  0  0  0  0  0  0  0  0  0  0  0
  149.0630  160.9030  130.9280 F   0  0  0  0  0  0  0  0  0  0  0  0
  150.7280  159.3940  131.0950 F   0  0  0  0  0  0  0  0  0  0  0  0
  148.7710  157.4750  132.2310 C   0  0  0  0  0  0  0  0  0  0  0  0
  148.0090  156.8570  133.2310 C   0  0  0  0  0  0  0  0  0  0  0  0
  149.9310  151.4280  133.0920 C   0  0  0  0  0  0  0  0  0  0  0  0
  150.9120  150.8900  132.5140 O   0  0  0  0  0  0  0  0  0  0  0  0
  149.8590  151.4130  134.4790 O   0  0  0  0  0  0  0  0  0  0  0  0
  147.3147  150.7018  132.8374 H   0  0  0  0  0  0  0  0  0  0  0  0
  146.9891  151.6207  131.3287 H   0  0  0  0  0  0  0  0  0  0  0  0
  148.2004  150.2942  131.3287 H   0  0  0  0  0  0  0  0  0  0  0  0
  149.3161  152.5130  131.3782 H   0  0  0  0  0  0  0  0  0  0  0  0
  148.2540  152.7260  135.1580 H   0  0  0  0  0  0  0  0  0  0  0  0
  145.6480  156.9155  135.5185 H   0  0  0  0  0  0  0  0  0  0  0  0
  146.1062  159.4693  134.3270 H   0  0  0  0  0  0  0  0  0  0  0  0
  147.4644  160.6428  132.5662 H   0  0  0  0  0  0  0  0  0  0  0  0
  149.4894  156.8955  131.6326 H   0  0  0  0  0  0  0  0  0  0  0  0
  1  2  1  0
  2  3  1  0
  3  4  1  0
  4  5  2  0
  4  6  1  0
  6  7  1  0
  7  8  1  0
  8  9  1  0
  8 10  2  0
  7 11  2  0
 11 12  1  0
 12 13  2  0
 13 14  1  0
 14 15  2  0
 15 16  1  0
 16 17  1  0
 16 18  1  0
 16 19  1  0
 15 20  1  0
 20 21  2  0
  2 22  1  0
 22 23  2  0
 22 24  1  0
 21  6  1  0
 21 12  1  0
  1 25  1  0
  1 26  1  0
  1 27  1  0
  2 28  1  6
  9 29  1  0
 11 30  1  0
 13 31  1  0
 14 32  1  0
 20 33  1  0
M  CHG  2   9  -1  24  -1
M  END
>  <UniqueID>  (58) 
57

>  <SMILES>  (58) 
C[C@@H](OC(=O)n1c(C([NH-])=O)cc2ccc(C(F)(F)F)cc21)C(=O)[O-]

>  <Energy>  (58) 
68.73054705181619

>  <Genealogy>  (58) 
CC(OC(=O)n1c(C([NH-])=O)cc2ccc(C(F)(F)F)cc21)C(=O)[O-] (protonated)
C[C@@H](OC(=O)n1c(C([NH-])=O)cc2ccc(C(F)(F)F)cc21)C(=O)[O-] (chirality)
C[C@@H](OC(=O)n1c(C([NH-])=O)cc2ccc(C(F)(F)F)cc21)C(=O)[O-] (3D coordinates assigned)
C[C@@H](OC(=O)n1c(C([NH-])=O)cc2ccc(C(F)(F)F)cc21)C(=O)[O-] (optimized conformer: 68.73054705181619 kcal/mol)

>  <smiles>  (58) 
CC(OC(=O)n1c(C(N)=O)cc2ccc(C(F)(F)F)cc21)C(=O)O

>  <score_type>  (58) 
oracle

>  <origin>  (58) 
adg

>  <m_score__min__energy>  (58) 
-6.0300000000000002

>  <m_primary>  (58) 
energy

$$$$
60:0
     RDKit          3D

 45 47  0  0  0  0  0  0  0  0999 V2000
  149.2560  161.7550  130.3600 C   0  0  0  0  0  0  0  0  0  0  0  0
  148.8110  160.4180  130.4220 O   0  0  0  0  0  0  0  0  0  0  0  0
  149.4510  159.7300  131.4810 C   0  0  0  0  0  0  0  0  0  0  0  0
  148.4140  159.0250  132.3650 C   0  0  1  0  0  0  0  0  0  0  0  0
  148.8540  159.0540  133.8320 C   0  0  0  0  0  0  0  0  0  0  0  0
  147.1560  159.6860  132.2230 O   0  0  0  0  0  0  0  0  0  0  0  0
  146.2390  159.8420  133.2680 C   0  0  0  0  0  0  0  0  0  0  0  0
  146.3160  160.8340  134.0430 O   0  0  0  0  0  0  0  0  0  0  0  0
  145.1890  158.8780  133.4400 N   0  0  0  0  0  0  0  0  0  0  0  0
  143.8570  159.1080  133.6090 C   0  0  0  0  0  0  0  0  0  0  0  0
  143.2200  160.4250  133.8150 C   0  0  0  0  0  0  0  0  0  0  0  0
  143.9280  161.6330  133.5470 N   0  0  0  0  0  0  0  0  0  0  0  0
  142.0490  160.4870  134.2770 O   0  0  0  0  0  0  0  0  0  0  0  0
  143.1560  157.9040  133.6480 C   0  0  0  0  0  0  0  0  0  0  0  0
  144.1100  156.9220  133.5050 C   0  0  0  0  0  0  0  0  0  0  0  0
  143.9720  155.5400  133.4620 C   0  0  0  0  0  0  0  0  0  0  0  0
  145.1290  154.7660  133.2760 C   0  0  0  0  0  0  0  0  0  0  0  0
  146.4020  155.3790  133.1250 C   0  0  0  0  0  0  0  0  0  0  0  0
  147.6190  154.5530  132.9170 C   0  0  0  0  0  0  0  0  0  0  0  0
  148.9000  154.9900  132.6050 C   0  0  0  0  0  0  0  0  0  0  0  0
  149.7200  153.9280  132.4840 N   0  0  0  0  0  0  0  0  0  0  0  0
  149.0050  152.8420  132.7230 N   0  0  0  0  0  0  0  0  0  0  0  0
  149.5300  151.4860  132.6240 C   0  0  0  0  0  0  0  0  0  0  0  0
  147.7270  153.1730  132.9750 C   0  0  0  0  0  0  0  0  0  0  0  0
  146.4950  156.7920  133.1730 C   0  0  0  0  0  0  0  0  0  0  0  0
  145.3270  157.5350  133.3800 C   0  0  0  0  0  0  0  0  0  0  0  0
  149.3861  162.1458  131.3800 H   0  0  0  0  0  0  0  0  0  0  0  0
  150.2167  161.7973  129.8258 H   0  0  0  0  0  0  0  0  0  0  0  0
  148.5123  162.3646  129.8258 H   0  0  0  0  0  0  0  0  0  0  0  0
  150.1397  158.9812  131.0628 H   0  0  0  0  0  0  0  0  0  0  0  0
  150.0073  160.4553  132.0929 H   0  0  0  0  0  0  0  0  0  0  0  0
  148.3222  157.9750  132.0504 H   0  0  0  0  0  0  0  0  0  0  0  0
  147.9683  158.9956  134.4817 H   0  0  0  0  0  0  0  0  0  0  0  0
  149.5139  158.1974  134.0339 H   0  0  0  0  0  0  0  0  0  0  0  0
  149.3958  159.9898  134.0339 H   0  0  0  0  0  0  0  0  0  0  0  0
  144.7850  161.6330  132.9510 H   0  0  0  0  0  0  0  0  0  0  0  0
  142.0711  157.7675  133.7676 H   0  0  0  0  0  0  0  0  0  0  0  0
  142.9853  155.0660  133.5705 H   0  0  0  0  0  0  0  0  0  0  0  0
  145.0486  153.6693  133.2468 H   0  0  0  0  0  0  0  0  0  0  0  0
  149.1988  156.0408  132.4766 H   0  0  0  0  0  0  0  0  0  0  0  0
  149.6875  151.0791  133.6338 H   0  0  0  0  0  0  0  0  0  0  0  0
  148.8118  150.8534  132.0817 H   0  0  0  0  0  0  0  0  0  0  0  0
  150.4869  151.5020  132.0817 H   0  0  0  0  0  0  0  0  0  0  0  0
  146.9087  152.4701  133.1900 H   0  0  0  0  0  0  0  0  0  0  0  0
  147.4655  157.2949  133.0501 H   0  0  0  0  0  0  0  0  0  0  0  0
  1  2  1  0
  2  3  1  0
  3  4  1  0
  4  5  1  0
  4  6  1  0
  6  7  1  0
  7  8  2  0
  7  9  1  0
  9 10  1  0
 10 11  1  0
 11 12  1  0
 11 13  2  0
 10 14  2  0
 14 15  1  0
 15 16  2  0
 16 17  1  0
 17 18  2  0
 18 19  1  0
 19 20  1  0
 20 21  2  0
 21 22  1  0
 22 23  1  0
 22 24  1  0
 18 25  1  0
 25 26  2  0
 26  9  1  0
 26 15  1  0
 24 19  2  0
  1 27  1  0
  1 28  1  0
  1 29  1  0
  3 30  1  0
  3 31  1  0
  4 32  1  6
  5 33  1  0
  5 34  1  0
  5 35  1  0
 12 36  1  0
 14 37  1  0
 16 38  1  0
 17 39  1  0
 20 40  1  0
 23 41  1  0
 23 42  1  0
 23 43  1  0
 24 44  1  0
 25 45  1  0
M  CHG  1  12  -1
M  END
>  <UniqueID>  (59) 
58

>  <SMILES>  (59) 
COC[C@@H](C)OC(=O)n1c(C([NH-])=O)cc2ccc(-c3cnn(C)c3)cc21

>  <Energy>  (59) 
113.34143336484458

>  <Genealogy>  (59) 
COCC(C)OC(=O)n1c(C([NH-])=O)cc2ccc(-c3cnn(C)c3)cc21 (protonated)
COC[C@@H](C)OC(=O)n1c(C([NH-])=O)cc2ccc(-c3cnn(C)c3)cc21 (chirality)
COC[C@@H](C)OC(=O)n1c(C([NH-])=O)cc2ccc(-c3cnn(C)c3)cc21 (3D coordinates assigned)
COC[C@@H](C)OC(=O)n1c(C([NH-])=O)cc2ccc(-c3cnn(C)c3)cc21 (optimized conformer: 113.34143336484458 kcal/mol)

>  <smiles>  (59) 
COCC(C)OC(=O)n1c(C(N)=O)cc2ccc(-c3cnn(C)c3)cc21

>  <score_type>  (59) 
oracle

>  <origin>  (59) 
adg

>  <m_score__min__energy>  (59) 
-7.2300000000000004

>  <m_primary>  (59) 
energy

$$$$
61:0
     RDKit          3D

 43 45  0  0  0  0  0  0  0  0999 V2000
  143.7440  155.5190  132.5640 C   0  0  0  0  0  0  0  0  0  0  0  0
  143.4980  156.9500  132.9360 C   0  0  0  0  0  0  0  0  0  0  0  0
  142.1730  157.4260  133.0950 C   0  0  0  0  0  0  0  0  0  0  0  0
  141.9290  158.7760  133.4020 C   0  0  0  0  0  0  0  0  0  0  0  0
  143.0260  159.6220  133.5350 C   0  0  0  0  0  0  0  0  0  0  0  0
  143.0790  160.9730  133.8030 C   0  0  0  0  0  0  0  0  0  0  0  0
  144.4360  161.2960  133.8030 C   0  0  0  0  0  0  0  0  0  0  0  0
  144.9560  162.6470  134.1050 C   0  0  0  0  0  0  0  0  0  0  0  0
  145.9780  162.8400  135.0780 N   0  0  0  0  0  0  0  0  0  0  0  0
  144.4680  163.6480  133.5160 O   0  0  0  0  0  0  0  0  0  0  0  0
  145.1880  160.1890  133.5470 N   0  0  0  0  0  0  0  0  0  0  0  0
  146.6130  160.1090  133.3930 C   0  0  0  0  0  0  0  0  0  0  0  0
  147.2960  161.1680  133.4140 O   0  0  0  0  0  0  0  0  0  0  0  0
  147.2550  158.8330  133.2160 N   0  0  0  0  0  0  0  0  0  0  0  0
  147.1410  157.7720  134.0400 C   0  0  0  0  0  0  0  0  0  0  0  0
  147.9140  156.7470  133.5290 C   0  0  0  0  0  0  0  0  0  0  0  0
  148.0680  155.4310  134.0970 N   0  0  0  0  0  0  0  0  0  0  0  0
  148.5590  154.3290  133.2640 C   0  0  0  0  0  0  0  0  0  0  0  0
  147.7360  155.2040  135.5060 C   0  0  0  0  0  0  0  0  0  0  0  0
  148.5130  157.1660  132.3960 N   0  0  0  0  0  0  0  0  0  0  0  0
  148.0950  158.4380  132.2270 C   0  0  0  0  0  0  0  0  0  0  0  0
  148.5210  159.2870  131.0680 C   0  0  0  0  0  0  0  0  0  0  0  0
  144.3130  159.1760  133.3820 C   0  0  0  0  0  0  0  0  0  0  0  0
  144.5850  157.8420  133.0600 C   0  0  0  0  0  0  0  0  0  0  0  0
  143.8478  154.9153  133.4776 H   0  0  0  0  0  0  0  0  0  0  0  0
  142.8972  155.1436  131.9707 H   0  0  0  0  0  0  0  0  0  0  0  0
  144.6675  155.4479  131.9707 H   0  0  0  0  0  0  0  0  0  0  0  0
  141.3272  156.7326  132.9771 H   0  0  0  0  0  0  0  0  0  0  0  0
  140.9035  159.1518  133.5329 H   0  0  0  0  0  0  0  0  0  0  0  0
  142.2316  161.6519  133.9793 H   0  0  0  0  0  0  0  0  0  0  0  0
  146.9880  162.7720  134.8180 H   0  0  0  0  0  0  0  0  0  0  0  0
  146.5378  157.7297  134.9589 H   0  0  0  0  0  0  0  0  0  0  0  0
  148.9216  153.5151  133.9091 H   0  0  0  0  0  0  0  0  0  0  0  0
  147.7415  153.9570  132.6290 H   0  0  0  0  0  0  0  0  0  0  0  0
  149.3823  154.6880  132.6290 H   0  0  0  0  0  0  0  0  0  0  0  0
  148.4761  155.7101  136.1432 H   0  0  0  0  0  0  0  0  0  0  0  0
  146.7344  155.6072  135.7163 H   0  0  0  0  0  0  0  0  0  0  0  0
  147.7482  154.1243  135.7163 H   0  0  0  0  0  0  0  0  0  0  0  0
  149.1580  156.6290  131.7750 H   0  0  0  0  0  0  0  0  0  0  0  0
  148.9850  160.2117  131.4418 H   0  0  0  0  0  0  0  0  0  0  0  0
  149.2481  158.7335  130.4557 H   0  0  0  0  0  0  0  0  0  0  0  0
  147.6426  159.5391  130.4557 H   0  0  0  0  0  0  0  0  0  0  0  0
  145.6184  157.4974  132.9075 H   0  0  0  0  0  0  0  0  0  0  0  0
  1  2  1  0
  2  3  2  0
  3  4  1  0
  4  5  2  0
  5  6  1  0
  6  7  2  0
  7  8  1  0
  8  9  1  0
  8 10  2  0
  7 11  1  0
 11 12  1  0
 12 13  2  0
 12 14  1  0
 14 15  1  0
 15 16  2  0
 16 17  1  0
 17 18  1  0
 17 19  1  0
 16 20  1  0
 20 21  2  0
 21 22  1  0
 11 23  1  0
 23 24  2  0
 24  2  1  0
 23  5  1  0
 21 14  1  0
  1 25  1  0
  1 26  1  0
  1 27  1  0
  3 28  1  0
  4 29  1  0
  6 30  1  0
  9 31  1  0
 15 32  1  0
 18 33  1  0
 18 34  1  0
 18 35  1  0
 19 36  1  0
 19 37  1  0
 19 38  1  0
 20 39  1  0
 22 40  1  0
 22 41  1  0
 22 42  1  0
 24 43  1  0
M  CHG  2   9  -1  20   1
M  END
>  <UniqueID>  (60) 
59

>  <SMILES>  (60) 
Cc1ccc2cc(C([NH-])=O)n(C(=O)n3cc(N(C)C)[nH+]c3C)c2c1

>  <Energy>  (60) 
111.88527946691218

>  <Genealogy>  (60) 
Cc1ccc2cc(C([NH-])=O)n(C(=O)n3cc(N(C)C)[nH+]c3C)c2c1 (protonated)
Cc1ccc2cc(C([NH-])=O)n(C(=O)n3cc(N(C)C)[nH+]c3C)c2c1 (3D coordinates assigned)
Cc1ccc2cc(C([NH-])=O)n(C(=O)n3cc(N(C)C)[nH+]c3C)c2c1 (optimized conformer: 111.88527946691218 kcal/mol)

>  <smiles>  (60) 
Cc1ccc2cc(C(N)=O)n(C(=O)n3cc(N(C)C)nc3C)c2c1

>  <score_type>  (60) 
oracle

>  <origin>  (60) 
adg

>  <m_score__min__energy>  (60) 
-7.0300000000000002

>  <m_primary>  (60) 
energy

$$$$
62:0
     RDKit          3D

 42 43  0  0  0  0  0  0  0  0999 V2000
  140.4880  158.7020  133.3290 C   0  0  0  0  0  0  0  0  0  0  0  0
  141.2720  158.4570  134.5530 N   0  0  0  0  0  0  0  0  0  0  0  0
  140.4150  157.8030  135.5600 C   0  0  0  0  0  0  0  0  0  0  0  0
  141.8540  159.7230  135.0850 C   0  0  0  0  0  0  0  0  0  0  0  0
  142.6750  160.4930  134.0300 C   0  0  0  0  0  0  0  0  0  0  0  0
  144.1360  160.0300  133.9200 C   0  0  0  0  0  0  0  0  0  0  0  0
  144.2500  158.6720  133.2820 C   0  0  0  0  0  0  0  0  0  0  0  0
  143.2860  158.2210  132.6070 O   0  0  0  0  0  0  0  0  0  0  0  0
  145.4190  157.8630  133.4780 N   0  0  0  0  0  0  0  0  0  0  0  0
  145.5100  156.6530  134.1000 C   0  0  0  0  0  0  0  0  0  0  0  0
  144.4310  155.9910  134.8590 C   0  0  0  0  0  0  0  0  0  0  0  0
  143.1080  156.5230  134.8250 N   0  0  0  0  0  0  0  0  0  0  0  0
  144.6570  154.9400  135.5150 O   0  0  0  0  0  0  0  0  0  0  0  0
  146.8030  156.1460  133.9920 C   0  0  0  0  0  0  0  0  0  0  0  0
  147.5090  157.0960  133.2880 C   0  0  0  0  0  0  0  0  0  0  0  0
  148.8430  157.1110  132.8920 C   0  0  0  0  0  0  0  0  0  0  0  0
  149.3000  158.2180  132.1580 C   0  0  0  0  0  0  0  0  0  0  0  0
  148.4180  159.2770  131.8170 C   0  0  0  0  0  0  0  0  0  0  0  0
  148.9270  160.4790  131.0640 C   0  0  0  0  0  0  0  0  0  0  0  0
  148.4860  160.4540  129.7520 F   0  0  0  0  0  0  0  0  0  0  0  0
  150.3110  160.5010  131.0540 F   0  0  0  0  0  0  0  0  0  0  0  0
  148.4630  161.6290  131.6750 F   0  0  0  0  0  0  0  0  0  0  0  0
  147.0770  159.2360  132.2620 C   0  0  0  0  0  0  0  0  0  0  0  0
  146.6530  158.1230  132.9960 C   0  0  0  0  0  0  0  0  0  0  0  0
  139.4710  159.0198  133.6024 H   0  0  0  0  0  0  0  0  0  0  0  0
  140.9719  159.4918  132.7356 H   0  0  0  0  0  0  0  0  0  0  0  0
  140.4361  157.7772  132.7356 H   0  0  0  0  0  0  0  0  0  0  0  0
  142.0270  157.7720  134.3100 H   0  0  0  0  0  0  0  0  0  0  0  0
  140.7648  158.0699  136.5682 H   0  0  0  0  0  0  0  0  0  0  0  0
  139.3757  158.1397  135.4314 H   0  0  0  0  0  0  0  0  0  0  0  0
  140.4655  156.7117  135.4314 H   0  0  0  0  0  0  0  0  0  0  0  0
  141.0336  160.3686  135.4317 H   0  0  0  0  0  0  0  0  0  0  0  0
  142.5366  159.4549  135.9049 H   0  0  0  0  0  0  0  0  0  0  0  0
  142.1939  160.3576  133.0501 H   0  0  0  0  0  0  0  0  0  0  0  0
  142.6964  161.5459  134.3476 H   0  0  0  0  0  0  0  0  0  0  0  0
  144.6940  160.7565  133.3110 H   0  0  0  0  0  0  0  0  0  0  0  0
  144.5490  159.9634  134.9373 H   0  0  0  0  0  0  0  0  0  0  0  0
  142.6060  156.6540  133.9190 H   0  0  0  0  0  0  0  0  0  0  0  0
  147.1798  155.1903  134.3853 H   0  0  0  0  0  0  0  0  0  0  0  0
  149.5190  156.2812  133.1460 H   0  0  0  0  0  0  0  0  0  0  0  0
  150.3531  158.2649  131.8439 H   0  0  0  0  0  0  0  0  0  0  0  0
  146.3834  160.0595  132.0366 H   0  0  0  0  0  0  0  0  0  0  0  0
  1  2  1  0
  2  3  1  0
  2  4  1  0
  4  5  1  0
  5  6  1  0
  6  7  1  0
  7  8  2  0
  7  9  1  0
  9 10  1  0
 10 11  1  0
 11 12  1  0
 11 13  2  0
 10 14  2  0
 14 15  1  0
 15 16  2  0
 16 17  1  0
 17 18  2  0
 18 19  1  0
 19 20  1  0
 19 21  1  0
 19 22  1  0
 18 23  1  0
 23 24  2  0
 24  9  1  0
 24 15  1  0
  1 25  1  0
  1 26  1  0
  1 27  1  0
  2 28  1  0
  3 29  1  0
  3 30  1  0
  3 31  1  0
  4 32  1  0
  4 33  1  0
  5 34  1  0
  5 35  1  0
  6 36  1  0
  6 37  1  0
 12 38  1  0
 14 39  1  0
 16 40  1  0
 17 41  1  0
 23 42  1  0
M  CHG  2   2   1  12  -1
M  END
>  <UniqueID>  (61) 
60

>  <SMILES>  (61) 
C[NH+](C)CCCC(=O)n1c(C([NH-])=O)cc2ccc(C(F)(F)F)cc21

>  <Energy>  (61) 
79.80557628340823

>  <Genealogy>  (61) 
C[NH+](C)CCCC(=O)n1c(C([NH-])=O)cc2ccc(C(F)(F)F)cc21 (protonated)
C[NH+](C)CCCC(=O)n1c(C([NH-])=O)cc2ccc(C(F)(F)F)cc21 (3D coordinates assigned)
C[NH+](C)CCCC(=O)n1c(C([NH-])=O)cc2ccc(C(F)(F)F)cc21 (optimized conformer: 79.80557628340823 kcal/mol)

>  <smiles>  (61) 
CN(C)CCCC(=O)n1c(C(N)=O)cc2ccc(C(F)(F)F)cc21

>  <score_type>  (61) 
oracle

>  <origin>  (61) 
adg

>  <m_score__min__energy>  (61) 
-4.9299999999999997

>  <m_primary>  (61) 
energy

$$$$
63:0
     RDKit          3D

 53 54  0  0  0  0  0  0  0  0999 V2000
  142.4450  152.5950  134.8380 C   0  0  0  0  0  0  0  0  0  0  0  0
  143.0420  153.8740  134.4570 N   0  0  0  0  0  0  0  0  0  0  0  0
  142.4970  154.5680  133.2870 C   0  0  0  0  0  0  0  0  0  0  0  0
  143.8600  154.5940  135.4000 C   0  0  0  0  0  0  0  0  0  0  0  0
  143.7350  154.3720  136.6370 O   0  0  0  0  0  0  0  0  0  0  0  0
  144.8420  155.5470  134.9600 N   0  0  0  0  0  0  0  0  0  0  0  0
  146.1750  155.3290  134.7780 C   0  0  0  0  0  0  0  0  0  0  0  0
  146.9240  154.1310  135.2120 C   0  0  0  0  0  0  0  0  0  0  0  0
  146.5850  153.4470  136.4180 N   0  0  0  0  0  0  0  0  0  0  0  0
  147.9090  153.7300  134.5340 O   0  0  0  0  0  0  0  0  0  0  0  0
  146.7690  156.4260  134.1550 C   0  0  0  0  0  0  0  0  0  0  0  0
  145.7510  157.3290  133.9560 C   0  0  0  0  0  0  0  0  0  0  0  0
  145.7710  158.5820  133.3530 C   0  0  0  0  0  0  0  0  0  0  0  0
  144.5580  159.2870  133.2580 C   0  0  0  0  0  0  0  0  0  0  0  0
  143.3570  158.7270  133.7610 C   0  0  0  0  0  0  0  0  0  0  0  0
  142.0710  159.5150  133.7270 C   0  0  0  0  0  0  0  0  0  0  0  0
  141.0370  158.9420  134.7080 C   0  0  0  0  0  0  0  0  0  0  0  0
  141.3840  159.2730  136.1650 C   0  0  0  0  0  0  0  0  0  0  0  0
  140.9430  158.1550  137.1210 C   0  0  0  0  0  0  0  0  0  0  0  0
  141.7500  156.8410  136.9780 C   0  0  0  0  0  0  0  0  0  0  0  0
  142.2270  156.2060  138.2380 N   0  0  0  0  0  0  0  0  0  0  0  0
  142.2560  157.1280  139.3880 C   0  0  0  0  0  0  0  0  0  0  0  0
  141.5150  154.9550  138.5680 C   0  0  0  0  0  0  0  0  0  0  0  0
  143.3750  157.4450  134.3510 C   0  0  0  0  0  0  0  0  0  0  0  0
  144.5980  156.7730  134.4500 C   0  0  0  0  0  0  0  0  0  0  0  0
  142.4096  152.5191  135.9348 H   0  0  0  0  0  0  0  0  0  0  0  0
  141.4243  152.5317  134.4329 H   0  0  0  0  0  0  0  0  0  0  0  0
  143.0520  151.7719  134.4329 H   0  0  0  0  0  0  0  0  0  0  0  0
  141.8492  155.3928  133.6187 H   0  0  0  0  0  0  0  0  0  0  0  0
  143.3227  154.9708  132.6820 H   0  0  0  0  0  0  0  0  0  0  0  0
  141.9100  153.8613  132.6820 H   0  0  0  0  0  0  0  0  0  0  0  0
  145.7940  153.7700  137.0170 H   0  0  0  0  0  0  0  0  0  0  0  0
  147.8277  156.5441  133.8808 H   0  0  0  0  0  0  0  0  0  0  0  0
  146.7067  159.0084  132.9624 H   0  0  0  0  0  0  0  0  0  0  0  0
  144.5410  160.2819  132.7891 H   0  0  0  0  0  0  0  0  0  0  0  0
  142.2836  160.5591  134.0004 H   0  0  0  0  0  0  0  0  0  0  0  0
  141.6547  159.4549  132.7106 H   0  0  0  0  0  0  0  0  0  0  0  0
  140.0501  159.3669  134.4724 H   0  0  0  0  0  0  0  0  0  0  0  0
  141.0346  157.8474  134.5990 H   0  0  0  0  0  0  0  0  0  0  0  0
  142.4724  159.4069  136.2508 H   0  0  0  0  0  0  0  0  0  0  0  0
  140.8508  160.1937  136.4442 H   0  0  0  0  0  0  0  0  0  0  0  0
  141.0567  158.5189  138.1528 H   0  0  0  0  0  0  0  0  0  0  0  0
  139.9004  157.9145  136.8658 H   0  0  0  0  0  0  0  0  0  0  0  0
  141.1100  156.1120  136.4594 H   0  0  0  0  0  0  0  0  0  0  0  0
  142.6634  157.1218  136.4332 H   0  0  0  0  0  0  0  0  0  0  0  0
  143.2240  155.9310  138.0580 H   0  0  0  0  0  0  0  0  0  0  0  0
  142.2378  156.5487  140.3229 H   0  0  0  0  0  0  0  0  0  0  0  0
  143.1736  157.7334  139.3496 H   0  0  0  0  0  0  0  0  0  0  0  0
  141.3782  157.7898  139.3496 H   0  0  0  0  0  0  0  0  0  0  0  0
  141.4528  154.8458  139.6608 H   0  0  0  0  0  0  0  0  0  0  0  0
  140.5003  154.9880  138.1445 H   0  0  0  0  0  0  0  0  0  0  0  0
  142.0615  154.0994  138.1445 H   0  0  0  0  0  0  0  0  0  0  0  0
  142.4484  156.9847  134.7245 H   0  0  0  0  0  0  0  0  0  0  0  0
  1  2  1  0
  2  3  1  0
  2  4  1  0
  4  5  2  0
  4  6  1  0
  6  7  1  0
  7  8  1  0
  8  9  1  0
  8 10  2  0
  7 11  2  0
 11 12  1  0
 12 13  2  0
 13 14  1  0
 14 15  2  0
 15 16  1  0
 16 17  1  0
 17 18  1  0
 18 19  1  0
 19 20  1  0
 20 21  1  0
 21 22  1  0
 21 23  1  0
 15 24  1  0
 24 25  2  0
 25  6  1  0
 25 12  1  0
  1 26  1  0
  1 27  1  0
  1 28  1  0
  3 29  1  0
  3 30  1  0
  3 31  1  0
  9 32  1  0
 11 33  1  0
 13 34  1  0
 14 35  1  0
 16 36  1  0
 16 37  1  0
 17 38  1  0
 17 39  1  0
 18 40  1  0
 18 41  1  0
 19 42  1  0
 19 43  1  0
 20 44  1  0
 20 45  1  0
 21 46  1  0
 22 47  1  0
 22 48  1  0
 22 49  1  0
 23 50  1  0
 23 51  1  0
 23 52  1  0
 24 53  1  0
M  CHG  2   9  -1  21   1
M  END
>  <UniqueID>  (62) 
61

>  <SMILES>  (62) 
CN(C)C(=O)n1c(C([NH-])=O)cc2ccc(CCCCC[NH+](C)C)cc21

>  <Energy>  (62) 
91.67734394833802

>  <Genealogy>  (62) 
CN(C)C(=O)n1c(C([NH-])=O)cc2ccc(CCCCC[NH+](C)C)cc21 (protonated)
CN(C)C(=O)n1c(C([NH-])=O)cc2ccc(CCCCC[NH+](C)C)cc21 (3D coordinates assigned)
CN(C)C(=O)n1c(C([NH-])=O)cc2ccc(CCCCC[NH+](C)C)cc21 (optimized conformer: 91.67734394833802 kcal/mol)

>  <smiles>  (62) 
CN(C)CCCCCc1ccc2cc(C(N)=O)n(C(=O)N(C)C)c2c1

>  <score_type>  (62) 
oracle

>  <origin>  (62) 
adg

>  <m_score__min__energy>  (62) 
-7.1600000000000001

>  <m_primary>  (62) 
energy

$$$$
64:0
     RDKit          3D

 39 40  0  0  0  0  0  0  0  0999 V2000
  143.3080  155.3420  133.3800 C   0  0  0  0  0  0  0  0  0  0  0  0
  143.2890  156.6690  132.6150 C   0  0  2  0  0  0  0  0  0  0  0  0
  144.0770  157.7360  133.3770 C   0  0  0  0  0  0  0  0  0  0  0  0
  143.6850  159.0080  132.9440 O   0  0  0  0  0  0  0  0  0  0  0  0
  141.9440  157.1150  132.4460 O   0  0  0  0  0  0  0  0  0  0  0  0
  140.9620  157.0120  133.4370 C   0  0  0  0  0  0  0  0  0  0  0  0
  139.9470  156.2840  133.2590 O   0  0  0  0  0  0  0  0  0  0  0  0
  141.1250  157.7220  134.6750 N   0  0  0  0  0  0  0  0  0  0  0  0
  141.1450  159.0700  134.8750 C   0  0  0  0  0  0  0  0  0  0  0  0
  141.1640  160.1050  133.8190 C   0  0  0  0  0  0  0  0  0  0  0  0
  140.9960  159.7580  132.4470 N   0  0  0  0  0  0  0  0  0  0  0  0
  141.3790  161.3080  134.1290 O   0  0  0  0  0  0  0  0  0  0  0  0
  141.2280  159.3630  136.2340 C   0  0  0  0  0  0  0  0  0  0  0  0
  141.2690  158.1410  136.8680 C   0  0  0  0  0  0  0  0  0  0  0  0
  141.3410  157.8380  138.2250 C   0  0  0  0  0  0  0  0  0  0  0  0
  141.3360  156.4830  138.5980 C   0  0  0  0  0  0  0  0  0  0  0  0
  141.2510  155.4700  137.6140 C   0  0  0  0  0  0  0  0  0  0  0  0
  141.2310  154.0870  138.0080 C   0  0  0  0  0  0  0  0  0  0  0  0
  141.2130  152.9260  138.3340 C   0  0  0  0  0  0  0  0  0  0  0  0
  141.1890  151.5150  138.7280 C   0  0  0  0  0  0  0  0  0  0  0  0
  140.3290  150.7420  137.7830 C   0  0  0  0  0  0  0  0  0  0  0  0
  139.3760  150.0440  138.2200 O   0  0  0  0  0  0  0  0  0  0  0  0
  140.6070  150.7520  136.4220 O   0  0  0  0  0  0  0  0  0  0  0  0
  141.1780  155.8100  136.2490 C   0  0  0  0  0  0  0  0  0  0  0  0
  141.2040  157.1670  135.9050 C   0  0  0  0  0  0  0  0  0  0  0  0
  143.3051  155.5422  134.4616 H   0  0  0  0  0  0  0  0  0  0  0  0
  142.4182  154.7526  133.1139 H   0  0  0  0  0  0  0  0  0  0  0  0
  144.2143  154.7783  133.1139 H   0  0  0  0  0  0  0  0  0  0  0  0
  143.7535  156.5081  131.6310 H   0  0  0  0  0  0  0  0  0  0  0  0
  143.8777  157.6385  134.4544 H   0  0  0  0  0  0  0  0  0  0  0  0
  145.1521  157.6009  133.1876 H   0  0  0  0  0  0  0  0  0  0  0  0
  142.8170  158.8850  132.4780 H   0  0  0  0  0  0  0  0  0  0  0  0
  141.7260  159.2090  131.9400 H   0  0  0  0  0  0  0  0  0  0  0  0
  141.2550  160.3584  136.7014 H   0  0  0  0  0  0  0  0  0  0  0  0
  141.4000  158.6343  138.9816 H   0  0  0  0  0  0  0  0  0  0  0  0
  141.3985  156.2084  139.6613 H   0  0  0  0  0  0  0  0  0  0  0  0
  142.2121  151.1115  138.7045 H   0  0  0  0  0  0  0  0  0  0  0  0
  140.7805  151.4283  139.7456 H   0  0  0  0  0  0  0  0  0  0  0  0
  141.1027  155.0316  135.4754 H   0  0  0  0  0  0  0  0  0  0  0  0
  1  2  1  0
  2  3  1  0
  3  4  1  0
  2  5  1  0
  5  6  1  0
  6  7  2  0
  6  8  1  0
  8  9  1  0
  9 10  1  0
 10 11  1  0
 10 12  2  0
  9 13  2  0
 13 14  1  0
 14 15  2  0
 15 16  1  0
 16 17  2  0
 17 18  1  0
 18 19  3  0
 19 20  1  0
 20 21  1  0
 21 22  2  0
 21 23  1  0
 17 24  1  0
 24 25  2  0
 25  8  1  0
 25 14  1  0
  1 26  1  0
  1 27  1  0
  1 28  1  0
  2 29  1  6
  3 30  1  0
  3 31  1  0
  4 32  1  0
 11 33  1  0
 13 34  1  0
 15 35  1  0
 16 36  1  0
 20 37  1  0
 20 38  1  0
 24 39  1  0
M  CHG  2  11  -1  23  -1
M  END
>  <UniqueID>  (63) 
62

>  <SMILES>  (63) 
C[C@H](CO)OC(=O)n1c(C([NH-])=O)cc2ccc(C#CCC(=O)[O-])cc21

>  <Energy>  (63) 
66.08126796078864

>  <Genealogy>  (63) 
CC(CO)OC(=O)n1c(C([NH-])=O)cc2ccc(C#CCC(=O)[O-])cc21 (protonated)
C[C@H](CO)OC(=O)n1c(C([NH-])=O)cc2ccc(C#CCC(=O)[O-])cc21 (chirality)
C[C@H](CO)OC(=O)n1c(C([NH-])=O)cc2ccc(C#CCC(=O)[O-])cc21 (3D coordinates assigned)
C[C@H](CO)OC(=O)n1c(C([NH-])=O)cc2ccc(C#CCC(=O)[O-])cc21 (optimized conformer: 66.08126796078864 kcal/mol)

>  <smiles>  (63) 
CC(CO)OC(=O)n1c(C(N)=O)cc2ccc(C#CCC(=O)O)cc21

>  <score_type>  (63) 
oracle

>  <origin>  (63) 
adg

>  <m_score__min__energy>  (63) 
-6.8200000000000003

>  <m_primary>  (63) 
energy

$$$$
65:0
     RDKit          3D

 35 36  0  0  0  0  0  0  0  0999 V2000
  145.6100  162.7120  134.4840 C   0  0  0  0  0  0  0  0  0  0  0  0
  145.3190  161.3730  133.9950 N   0  0  0  0  0  0  0  0  0  0  0  0
  143.9850  160.8840  133.8250 C   0  0  0  0  0  0  0  0  0  0  0  0
  143.0430  161.6890  133.5940 O   0  0  0  0  0  0  0  0  0  0  0  0
  143.7140  159.4790  133.9500 N   0  0  0  0  0  0  0  0  0  0  0  0
  142.5210  158.8770  134.2210 C   0  0  0  0  0  0  0  0  0  0  0  0
  141.2690  159.5660  134.6000 C   0  0  0  0  0  0  0  0  0  0  0  0
  140.8880  159.6430  135.9710 N   0  0  0  0  0  0  0  0  0  0  0  0
  140.5490  160.1190  133.7270 O   0  0  0  0  0  0  0  0  0  0  0  0
  142.6520  157.4910  134.1810 C   0  0  0  0  0  0  0  0  0  0  0  0
  143.9750  157.2580  133.8840 C   0  0  0  0  0  0  0  0  0  0  0  0
  144.6580  156.0570  133.7170 C   0  0  0  0  0  0  0  0  0  0  0  0
  146.0230  156.1150  133.3900 C   0  0  0  0  0  0  0  0  0  0  0  0
  146.6740  157.3640  133.2260 C   0  0  0  0  0  0  0  0  0  0  0  0
  148.1430  157.4160  132.8900 C   0  0  0  0  0  0  0  0  0  0  0  0
  148.4750  158.5850  131.9510 C   0  0  0  0  0  0  0  0  0  0  0  0
  148.5600  159.9220  132.6890 C   0  0  0  0  0  0  0  0  0  0  0  0
  147.7450  160.8620  132.0460 O   0  0  0  0  0  0  0  0  0  0  0  0
  145.9480  158.5620  133.4080 C   0  0  0  0  0  0  0  0  0  0  0  0
  144.5950  158.4740  133.7490 C   0  0  0  0  0  0  0  0  0  0  0  0
  145.6093  162.7088  135.5840 H   0  0  0  0  0  0  0  0  0  0  0  0
  146.5980  163.0290  134.1189 H   0  0  0  0  0  0  0  0  0  0  0  0
  144.8427  163.4105  134.1189 H   0  0  0  0  0  0  0  0  0  0  0  0
  139.8990  159.8360  136.2440 H   0  0  0  0  0  0  0  0  0  0  0  0
  141.8648  156.7417  134.3508 H   0  0  0  0  0  0  0  0  0  0  0  0
  144.1446  155.0916  133.8374 H   0  0  0  0  0  0  0  0  0  0  0  0
  146.5922  155.1827  133.2600 H   0  0  0  0  0  0  0  0  0  0  0  0
  148.7168  157.5338  133.8211 H   0  0  0  0  0  0  0  0  0  0  0  0
  148.4084  156.4803  132.3762 H   0  0  0  0  0  0  0  0  0  0  0  0
  149.4433  158.3861  131.4685 H   0  0  0  0  0  0  0  0  0  0  0  0
  147.6636  158.6616  131.2122 H   0  0  0  0  0  0  0  0  0  0  0  0
  148.2198  159.7904  133.7268 H   0  0  0  0  0  0  0  0  0  0  0  0
  149.6012  160.2767  132.6870 H   0  0  0  0  0  0  0  0  0  0  0  0
  146.9320  160.9510  132.6070 H   0  0  0  0  0  0  0  0  0  0  0  0
  146.4354  159.5404  133.2844 H   0  0  0  0  0  0  0  0  0  0  0  0
  1  2  1  0
  2  3  1  0
  3  4  2  0
  3  5  1  0
  5  6  1  0
  6  7  1  0
  7  8  1  0
  7  9  2  0
  6 10  2  0
 10 11  1  0
 11 12  2  0
 12 13  1  0
 13 14  2  0
 14 15  1  0
 15 16  1  0
 16 17  1  0
 17 18  1  0
 14 19  1  0
 19 20  2  0
 20  5  1  0
 20 11  1  0
  1 21  1  0
  1 22  1  0
  1 23  1  0
  8 24  1  0
 10 25  1  0
 12 26  1  0
 13 27  1  0
 15 28  1  0
 15 29  1  0
 16 30  1  0
 16 31  1  0
 17 32  1  0
 17 33  1  0
 18 34  1  0
 19 35  1  0
M  CHG  2   2  -1   8  -1
M  END
>  <UniqueID>  (64) 
63

>  <SMILES>  (64) 
C[N-]C(=O)n1c(C([NH-])=O)cc2ccc(CCCO)cc21

>  <Energy>  (64) 
66.6170599116977

>  <Genealogy>  (64) 
C[N-]C(=O)n1c(C([NH-])=O)cc2ccc(CCCO)cc21 (protonated)
C[N-]C(=O)n1c(C([NH-])=O)cc2ccc(CCCO)cc21 (3D coordinates assigned)
C[N-]C(=O)n1c(C([NH-])=O)cc2ccc(CCCO)cc21 (optimized conformer: 66.6170599116977 kcal/mol)

>  <smiles>  (64) 
CNC(=O)n1c(C(N)=O)cc2ccc(CCCO)cc21

>  <score_type>  (64) 
oracle

>  <origin>  (64) 
adg

>  <m_score__min__energy>  (64) 
-6.71

>  <m_primary>  (64) 
energy

$$$$
66:0
     RDKit          3D

 43 46  0  0  0  0  0  0  0  0999 V2000
  149.0980  157.4670  131.8440 N   0  0  0  0  0  0  0  0  0  0  0  0
  148.7200  158.6230  132.5910 C   0  0  0  0  0  0  0  0  0  0  0  0
  149.5910  159.4910  132.8770 O   0  0  0  0  0  0  0  0  0  0  0  0
  147.3070  158.8720  132.9050 C   0  0  0  0  0  0  0  0  0  0  0  0
  146.8120  160.1420  133.1840 C   0  0  0  0  0  0  0  0  0  0  0  0
  145.4790  159.9530  133.4610 C   0  0  0  0  0  0  0  0  0  0  0  0
  144.5020  160.8780  133.8020 C   0  0  0  0  0  0  0  0  0  0  0  0
  143.1980  160.4070  134.0360 C   0  0  0  0  0  0  0  0  0  0  0  0
  142.8820  159.0220  133.9090 C   0  0  0  0  0  0  0  0  0  0  0  0
  141.5260  158.5470  134.1210 N   0  0  0  0  0  0  0  0  0  0  0  0
  140.9380  158.3560  135.4450 C   0  0  0  0  0  0  0  0  0  0  0  0
  139.5070  157.8890  135.2100 C   0  0  0  0  0  0  0  0  0  0  0  0
  139.4510  157.4330  133.7560 C   0  0  0  0  0  0  0  0  0  0  0  0
  140.6180  158.1290  133.0540 C   0  0  1  0  0  0  0  0  0  0  0  0
  140.1440  159.3260  132.2750 C   0  0  0  0  0  0  0  0  0  0  0  0
  140.2820  160.4830  132.7530 O   0  0  0  0  0  0  0  0  0  0  0  0
  139.5750  159.1690  131.0160 O   0  0  0  0  0  0  0  0  0  0  0  0
  143.9170  158.1170  133.5590 C   0  0  0  0  0  0  0  0  0  0  0  0
  145.2110  158.6120  133.3570 C   0  0  0  0  0  0  0  0  0  0  0  0
  146.3310  157.9260  133.0170 N   0  0  0  0  0  0  0  0  0  0  0  0
  146.4800  156.4880  132.9820 C   0  0  0  0  0  0  0  0  0  0  0  0
  146.5960  155.8910  131.8760 O   0  0  0  0  0  0  0  0  0  0  0  0
  146.4860  155.6820  134.2030 C   0  0  0  0  0  0  0  0  0  0  0  0
  145.3880  155.0650  134.7670 C   0  0  0  0  0  0  0  0  0  0  0  0
  145.8610  154.4420  135.9020 C   0  0  0  0  0  0  0  0  0  0  0  0
  147.2140  154.7250  135.9590 C   0  0  0  0  0  0  0  0  0  0  0  0
  147.5530  155.4790  134.9400 O   0  0  0  0  0  0  0  0  0  0  0  0
  150.0990  157.2950  131.6040 H   0  0  0  0  0  0  0  0  0  0  0  0
  148.3720  156.8070  131.4840 H   0  0  0  0  0  0  0  0  0  0  0  0
  147.3671  161.0916  133.1831 H   0  0  0  0  0  0  0  0  0  0  0  0
  144.7409  161.9484  133.8867 H   0  0  0  0  0  0  0  0  0  0  0  0
  142.4089  161.1181  134.3216 H   0  0  0  0  0  0  0  0  0  0  0  0
  141.5004  157.5951  136.0060 H   0  0  0  0  0  0  0  0  0  0  0  0
  140.9655  159.2846  136.0340 H   0  0  0  0  0  0  0  0  0  0  0  0
  139.2614  157.0541  135.8828 H   0  0  0  0  0  0  0  0  0  0  0  0
  138.7817  158.6914  135.4104 H   0  0  0  0  0  0  0  0  0  0  0  0
  139.5630  156.3405  133.6929 H   0  0  0  0  0  0  0  0  0  0  0  0
  138.4882  157.6882  133.2891 H   0  0  0  0  0  0  0  0  0  0  0  0
  141.1082  157.4571  132.3341 H   0  0  0  0  0  0  0  0  0  0  0  0
  143.7061  157.0431  133.4481 H   0  0  0  0  0  0  0  0  0  0  0  0
  144.3544  155.0694  134.3906 H   0  0  0  0  0  0  0  0  0  0  0  0
  145.2802  153.8414  136.6175 H   0  0  0  0  0  0  0  0  0  0  0  0
  147.9021  154.3712  136.7409 H   0  0  0  0  0  0  0  0  0  0  0  0
  1  2  1  0
  2  3  2  0
  2  4  1  0
  4  5  2  0
  5  6  1  0
  6  7  2  0
  7  8  1  0
  8  9  2  0
  9 10  1  0
 10 11  1  0
 11 12  1  0
 12 13  1  0
 13 14  1  0
 14 15  1  0
 15 16  2  0
 15 17  1  0
  9 18  1  0
 18 19  2  0
 19 20  1  0
 20 21  1  0
 21 22  2  0
 21 23  1  0
 23 24  2  0
 24 25  1  0
 25 26  2  0
 26 27  1  0
 20  4  1  0
 27 23  1  0
 19  6  1  0
 14 10  1  0
  1 28  1  0
  1 29  1  0
  5 30  1  0
  7 31  1  0
  8 32  1  0
 11 33  1  0
 11 34  1  0
 12 35  1  0
 12 36  1  0
 13 37  1  0
 13 38  1  0
 14 39  1  6
 18 40  1  0
 24 41  1  0
 25 42  1  0
 26 43  1  0
M  CHG  1  17  -1
M  END
>  <UniqueID>  (65) 
64

>  <SMILES>  (65) 
NC(=O)c1cc2ccc(N3CCC[C@H]3C(=O)[O-])cc2n1C(=O)c1ccco1

>  <Energy>  (65) 
125.76727149292064

>  <Genealogy>  (65) 
NC(=O)c1cc2ccc(N3CCC[C@H]3C(=O)[O-])cc2n1C(=O)c1ccco1 (protonated)
NC(=O)c1cc2ccc(N3CCC[C@H]3C(=O)[O-])cc2n1C(=O)c1ccco1 (3D coordinates assigned)
NC(=O)c1cc2ccc(N3CCC[C@H]3C(=O)[O-])cc2n1C(=O)c1ccco1 (nonaromatic ring conformer: 125.76727149292064 kcal/mol)

>  <smiles>  (65) 
NC(=O)c1cc2ccc(N3CCC[C@H]3C(=O)O)cc2n1C(=O)c1ccco1

>  <score_type>  (65) 
oracle

>  <origin>  (65) 
adg

>  <m_score__min__energy>  (65) 
-8.1699999999999999

>  <m_primary>  (65) 
energy

$$$$
67:0
     RDKit          3D

 34 35  0  0  0  0  0  0  0  0999 V2000
  145.2870  159.9190  133.3610 C   0  0  0  0  0  0  0  0  0  0  0  0
  146.3880  158.9130  133.1990 C   0  0  0  0  0  0  0  0  0  0  0  0
  147.7040  159.3430  132.9010 C   0  0  0  0  0  0  0  0  0  0  0  0
  148.7310  158.4080  132.6970 C   0  0  0  0  0  0  0  0  0  0  0  0
  148.4130  157.0570  132.7930 C   0  0  0  0  0  0  0  0  0  0  0  0
  149.2040  155.9480  132.6080 C   0  0  0  0  0  0  0  0  0  0  0  0
  148.3610  154.8570  132.8050 C   0  0  0  0  0  0  0  0  0  0  0  0
  148.8330  153.4590  132.8080 C   0  0  0  0  0  0  0  0  0  0  0  0
  147.9980  152.4120  133.3050 N   0  0  0  0  0  0  0  0  0  0  0  0
  149.9570  153.1750  132.3230 O   0  0  0  0  0  0  0  0  0  0  0  0
  147.0950  155.2710  133.0970 N   0  0  0  0  0  0  0  0  0  0  0  0
  145.9050  154.4740  133.2400 C   0  0  0  0  0  0  0  0  0  0  0  0
  145.6430  153.9300  134.3460 O   0  0  0  0  0  0  0  0  0  0  0  0
  144.6900  154.3850  131.9170 S   0  0  0  0  0  0  0  0  0  0  0  0
  143.5450  153.2320  132.7620 C   0  0  0  0  0  0  0  0  0  0  0  0
  144.0230  151.7870  132.6160 C   0  0  0  0  0  0  0  0  0  0  0  0
  145.4800  151.7290  132.5320 N   0  0  0  0  0  0  0  0  0  0  0  0
  147.1450  156.6230  133.0840 C   0  0  0  0  0  0  0  0  0  0  0  0
  146.0970  157.5330  133.2720 C   0  0  0  0  0  0  0  0  0  0  0  0
  145.1006  160.0894  134.4316 H   0  0  0  0  0  0  0  0  0  0  0  0
  145.5824  160.8657  132.8851 H   0  0  0  0  0  0  0  0  0  0  0  0
  144.3707  159.5396  132.8851 H   0  0  0  0  0  0  0  0  0  0  0  0
  147.9232  160.4185  132.8288 H   0  0  0  0  0  0  0  0  0  0  0  0
  149.7564  158.7337  132.4681 H   0  0  0  0  0  0  0  0  0  0  0  0
  150.2749  155.9268  132.3576 H   0  0  0  0  0  0  0  0  0  0  0  0
  147.0720  152.6220  133.7380 H   0  0  0  0  0  0  0  0  0  0  0  0
  148.3240  151.4210  133.2690 H   0  0  0  0  0  0  0  0  0  0  0  0
  143.4972  153.4897  133.8303 H   0  0  0  0  0  0  0  0  0  0  0  0
  142.5503  153.3223  132.3011 H   0  0  0  0  0  0  0  0  0  0  0  0
  143.6886  151.2066  133.4885 H   0  0  0  0  0  0  0  0  0  0  0  0
  143.5994  151.3670  131.6918 H   0  0  0  0  0  0  0  0  0  0  0  0
  145.8620  151.9390  133.4820 H   0  0  0  0  0  0  0  0  0  0  0  0
  145.8050  152.5030  131.9090 H   0  0  0  0  0  0  0  0  0  0  0  0
  145.0738  157.1819  133.4713 H   0  0  0  0  0  0  0  0  0  0  0  0
  1  2  1  0
  2  3  2  0
  3  4  1  0
  4  5  2  0
  5  6  1  0
  6  7  2  0
  7  8  1  0
  8  9  1  0
  8 10  2  0
  7 11  1  0
 11 12  1  0
 12 13  2  0
 12 14  1  0
 14 15  1  0
 15 16  1  0
 16 17  1  0
 11 18  1  0
 18 19  2  0
 19  2  1  0
 18  5  1  0
  1 20  1  0
  1 21  1  0
  1 22  1  0
  3 23  1  0
  4 24  1  0
  6 25  1  0
  9 26  1  0
  9 27  1  0
 15 28  1  0
 15 29  1  0
 16 30  1  0
 16 31  1  0
 17 32  1  0
 17 33  1  0
 19 34  1  0
M  END
>  <UniqueID>  (66) 
65

>  <SMILES>  (66) 
Cc1ccc2cc(C(N)=O)n(C(=O)SCCN)c2c1

>  <Energy>  (66) 
71.04818132215402

>  <Genealogy>  (66) 
Cc1ccc2cc(C(N)=O)n(C(=O)SCCN)c2c1 (3D coordinates assigned)
Cc1ccc2cc(C(N)=O)n(C(=O)SCCN)c2c1 (optimized conformer: 71.04818132215402 kcal/mol)

>  <smiles>  (66) 
Cc1ccc2cc(C(N)=O)n(C(=O)SCCN)c2c1

>  <score_type>  (66) 
oracle

>  <origin>  (66) 
adg

>  <m_score__min__energy>  (66) 
-6.5700000000000003

>  <m_primary>  (66) 
energy

$$$$
68:0
     RDKit          3D

 45 48  0  0  0  0  0  0  0  0999 V2000
  141.4210  151.0100  133.0650 C   0  0  0  0  0  0  0  0  0  0  0  0
  141.1510  152.4760  133.1270 C   0  0  0  0  0  0  0  0  0  0  0  0
  139.9840  153.0240  132.8780 O   0  0  0  0  0  0  0  0  0  0  0  0
  140.0330  154.3180  133.0090 N   0  0  0  0  0  0  0  0  0  0  0  0
  141.2950  154.6380  133.3570 C   0  0  0  0  0  0  0  0  0  0  0  0
  141.7370  156.0260  133.5830 C   0  0  0  0  0  0  0  0  0  0  0  0
  142.5600  156.5470  132.7820 O   0  0  0  0  0  0  0  0  0  0  0  0
  141.2860  156.7820  134.7160 N   0  0  0  0  0  0  0  0  0  0  0  0
  140.7410  158.0300  134.7230 C   0  0  0  0  0  0  0  0  0  0  0  0
  140.3670  158.8160  133.5280 C   0  0  0  0  0  0  0  0  0  0  0  0
  141.3560  159.2680  132.6070 N   0  0  0  0  0  0  0  0  0  0  0  0
  139.1530  159.0700  133.3030 O   0  0  0  0  0  0  0  0  0  0  0  0
  140.5300  158.4610  136.0310 C   0  0  0  0  0  0  0  0  0  0  0  0
  140.9710  157.4310  136.8310 C   0  0  0  0  0  0  0  0  0  0  0  0
  141.0140  157.3240  138.2190 C   0  0  0  0  0  0  0  0  0  0  0  0
  141.5510  156.1490  138.7730 C   0  0  0  0  0  0  0  0  0  0  0  0
  142.0260  155.1080  137.9360 C   0  0  0  0  0  0  0  0  0  0  0  0
  142.6370  153.8730  138.5390 C   0  0  0  0  0  0  0  0  0  0  0  0
  141.8170  152.6640  138.1860 C   0  0  0  0  0  0  0  0  0  0  0  0
  141.0940  151.9780  139.1730 C   0  0  0  0  0  0  0  0  0  0  0  0
  140.3080  150.8790  138.8240 C   0  0  0  0  0  0  0  0  0  0  0  0
  140.2430  150.4800  137.4870 C   0  0  0  0  0  0  0  0  0  0  0  0
  140.9380  151.1620  136.5390 N   0  0  0  0  0  0  0  0  0  0  0  0
  141.7120  152.2360  136.8540 C   0  0  0  0  0  0  0  0  0  0  0  0
  141.9800  155.2580  136.5330 C   0  0  0  0  0  0  0  0  0  0  0  0
  141.4280  156.4330  136.0110 C   0  0  0  0  0  0  0  0  0  0  0  0
  142.0450  153.4750  133.4630 C   0  0  0  0  0  0  0  0  0  0  0  0
  143.4850  153.3110  133.8410 C   0  0  0  0  0  0  0  0  0  0  0  0
  141.4952  150.6073  134.0860 H   0  0  0  0  0  0  0  0  0  0  0  0
  140.6002  150.5082  132.5317 H   0  0  0  0  0  0  0  0  0  0  0  0
  142.3667  150.8336  132.5317 H   0  0  0  0  0  0  0  0  0  0  0  0
  142.0710  158.6110  132.2210 H   0  0  0  0  0  0  0  0  0  0  0  0
  140.1018  159.4208  136.3557 H   0  0  0  0  0  0  0  0  0  0  0  0
  140.6393  158.1341  138.8619 H   0  0  0  0  0  0  0  0  0  0  0  0
  141.6031  156.0362  139.8660 H   0  0  0  0  0  0  0  0  0  0  0  0
  143.6582  153.7458  138.1504 H   0  0  0  0  0  0  0  0  0  0  0  0
  142.6630  153.9825  139.6332 H   0  0  0  0  0  0  0  0  0  0  0  0
  141.1465  152.3062  140.2216 H   0  0  0  0  0  0  0  0  0  0  0  0
  139.7449  150.3321  139.5946 H   0  0  0  0  0  0  0  0  0  0  0  0
  139.6289  149.6133  137.2012 H   0  0  0  0  0  0  0  0  0  0  0  0
  142.2570  152.7702  136.0618 H   0  0  0  0  0  0  0  0  0  0  0  0
  142.3677  154.4722  135.8680 H   0  0  0  0  0  0  0  0  0  0  0  0
  143.5775  153.3005  134.9371 H   0  0  0  0  0  0  0  0  0  0  0  0
  143.8659  152.3637  133.4318 H   0  0  0  0  0  0  0  0  0  0  0  0
  144.0692  154.1484  133.4318 H   0  0  0  0  0  0  0  0  0  0  0  0
  1  2  1  0
  2  3  1  0
  3  4  1  0
  4  5  2  0
  5  6  1  0
  6  7  2  0
  6  8  1  0
  8  9  1  0
  9 10  1  0
 10 11  1  0
 10 12  2  0
  9 13  2  0
 13 14  1  0
 14 15  2  0
 15 16  1  0
 16 17  2  0
 17 18  1  0
 18 19  1  0
 19 20  2  0
 20 21  1  0
 21 22  2  0
 22 23  1  0
 23 24  2  0
 17 25  1  0
 25 26  2  0
  5 27  1  0
 27 28  1  0
 27  2  2  0
 26  8  1  0
 26 14  1  0
 24 19  1  0
  1 29  1  0
  1 30  1  0
  1 31  1  0
 11 32  1  0
 13 33  1  0
 15 34  1  0
 16 35  1  0
 18 36  1  0
 18 37  1  0
 20 38  1  0
 21 39  1  0
 22 40  1  0
 24 41  1  0
 25 42  1  0
 28 43  1  0
 28 44  1  0
 28 45  1  0
M  CHG  1  11  -1
M  END
>  <UniqueID>  (67) 
66

>  <SMILES>  (67) 
Cc1onc(C(=O)n2c(C([NH-])=O)cc3ccc(Cc4cccnc4)cc32)c1C

>  <Energy>  (67) 
116.91614735586015

>  <Genealogy>  (67) 
Cc1onc(C(=O)n2c(C([NH-])=O)cc3ccc(Cc4cccnc4)cc32)c1C (protonated)
Cc1onc(C(=O)n2c(C([NH-])=O)cc3ccc(Cc4cccnc4)cc32)c1C (3D coordinates assigned)
Cc1onc(C(=O)n2c(C([NH-])=O)cc3ccc(Cc4cccnc4)cc32)c1C (optimized conformer: 116.91614735586015 kcal/mol)

>  <smiles>  (67) 
Cc1onc(C(=O)n2c(C(N)=O)cc3ccc(Cc4cccnc4)cc32)c1C

>  <score_type>  (67) 
oracle

>  <origin>  (67) 
adg

>  <m_score__min__energy>  (67) 
-8.6500000000000004

>  <m_primary>  (67) 
energy

$$$$
69:0
     RDKit          3D

 38 40  0  0  0  0  0  0  0  0999 V2000
  146.6700  161.1240  133.7270 N   0  0  0  0  0  0  0  0  0  0  0  0
  145.6810  160.1480  133.3970 C   0  0  0  0  0  0  0  0  0  0  0  0
  144.5460  160.5310  133.0070 O   0  0  0  0  0  0  0  0  0  0  0  0
  145.9740  158.7000  133.4540 C   0  0  0  0  0  0  0  0  0  0  0  0
  145.0100  157.7340  133.7280 C   0  0  0  0  0  0  0  0  0  0  0  0
  145.6790  156.5330  133.6960 C   0  0  0  0  0  0  0  0  0  0  0  0
  145.2080  155.2430  133.9150 C   0  0  0  0  0  0  0  0  0  0  0  0
  146.1320  154.1860  133.8590 C   0  0  0  0  0  0  0  0  0  0  0  0
  147.5040  154.4400  133.6130 C   0  0  0  0  0  0  0  0  0  0  0  0
  148.4820  153.2970  133.5340 C   0  0  0  0  0  0  0  0  0  0  0  0
  149.2470  153.3240  132.2130 C   0  0  0  0  0  0  0  0  0  0  0  0
  150.2500  154.2780  132.2560 F   0  0  0  0  0  0  0  0  0  0  0  0
  147.9450  155.7640  133.3950 C   0  0  0  0  0  0  0  0  0  0  0  0
  146.9990  156.7950  133.4230 C   0  0  0  0  0  0  0  0  0  0  0  0
  147.1930  158.1230  133.2580 N   0  0  0  0  0  0  0  0  0  0  0  0
  148.4480  158.8020  133.0700 C   0  0  0  0  0  0  0  0  0  0  0  0
  148.8670  159.5800  133.9680 O   0  0  0  0  0  0  0  0  0  0  0  0
  149.2820  158.6110  131.8300 C   0  0  0  0  0  0  0  0  0  0  0  0
  149.7510  159.9540  131.2420 C   0  0  1  0  0  0  0  0  0  0  0  0
  149.5660  160.1210  129.7340 C   0  0  0  0  0  0  0  0  0  0  0  0
  148.6490  160.8500  130.6990 C   0  0  0  0  0  0  0  0  0  0  0  0
  147.3480  160.3780  130.7410 F   0  0  0  0  0  0  0  0  0  0  0  0
  148.8700  162.2120  130.7950 F   0  0  0  0  0  0  0  0  0  0  0  0
  147.6690  160.8600  133.8640 H   0  0  0  0  0  0  0  0  0  0  0  0
  146.4210  162.1380  133.7350 H   0  0  0  0  0  0  0  0  0  0  0  0
  143.9406  157.8967  133.9276 H   0  0  0  0  0  0  0  0  0  0  0  0
  144.1447  155.0559  134.1256 H   0  0  0  0  0  0  0  0  0  0  0  0
  145.7871  153.1521  134.0075 H   0  0  0  0  0  0  0  0  0  0  0  0
  149.1972  153.3770  134.3659 H   0  0  0  0  0  0  0  0  0  0  0  0
  147.9231  152.3516  133.5969 H   0  0  0  0  0  0  0  0  0  0  0  0
  149.6944  152.3354  132.0329 H   0  0  0  0  0  0  0  0  0  0  0  0
  148.5489  153.5762  131.4012 H   0  0  0  0  0  0  0  0  0  0  0  0
  149.0072  155.9798  133.2076 H   0  0  0  0  0  0  0  0  0  0  0  0
  150.1650  158.0065  132.0848 H   0  0  0  0  0  0  0  0  0  0  0  0
  148.6607  158.1065  131.0753 H   0  0  0  0  0  0  0  0  0  0  0  0
  150.5893  160.0808  131.9428 H   0  0  0  0  0  0  0  0  0  0  0  0
  150.3072  160.6838  129.1476 H   0  0  0  0  0  0  0  0  0  0  0  0
  149.4178  159.4348  128.8871 H   0  0  0  0  0  0  0  0  0  0  0  0
  1  2  1  0
  2  3  2  0
  2  4  1  0
  4  5  2  0
  5  6  1  0
  6  7  2  0
  7  8  1  0
  8  9  2  0
  9 10  1  0
 10 11  1  0
 11 12  1  0
  9 13  1  0
 13 14  2  0
 14 15  1  0
 15 16  1  0
 16 17  2  0
 16 18  1  0
 18 19  1  0
 19 20  1  0
 20 21  1  0
 21 22  1  0
 21 23  1  0
 15  4  1  0
 21 19  1  0
 14  6  1  0
  1 24  1  0
  1 25  1  0
  5 26  1  0
  7 27  1  0
  8 28  1  0
 10 29  1  0
 10 30  1  0
 11 31  1  0
 11 32  1  0
 13 33  1  0
 18 34  1  0
 18 35  1  0
 19 36  1  1
 20 37  1  0
 20 38  1  0
M  END
>  <UniqueID>  (68) 
67

>  <SMILES>  (68) 
NC(=O)c1cc2ccc(CCF)cc2n1C(=O)C[C@H]1CC1(F)F

>  <Energy>  (68) 
344.0452595803645

>  <Genealogy>  (68) 
NC(=O)c1cc2ccc(CCF)cc2n1C(=O)C[C@H]1CC1(F)F (chirality)
NC(=O)c1cc2ccc(CCF)cc2n1C(=O)C[C@H]1CC1(F)F (3D coordinates assigned)
NC(=O)c1cc2ccc(CCF)cc2n1C(=O)C[C@H]1CC1(F)F (nonaromatic ring conformer: 344.0452595803645 kcal/mol)

>  <smiles>  (68) 
NC(=O)c1cc2ccc(CCF)cc2n1C(=O)CC1CC1(F)F

>  <score_type>  (68) 
oracle

>  <origin>  (68) 
adg

>  <m_score__min__energy>  (68) 
-7.5

>  <m_primary>  (68) 
energy

$$$$
70:0
     RDKit          3D

 44 46  0  0  0  0  0  0  0  0999 V2000
  148.2810  157.7550  131.9300 C   0  0  0  0  0  0  0  0  0  0  0  0
  148.0440  159.1980  132.3990 C   0  0  0  0  0  0  0  0  0  0  0  0
  148.5880  160.1640  131.3290 C   0  0  0  0  0  0  0  0  0  0  0  0
  148.7680  159.4110  133.7420 C   0  0  0  0  0  0  0  0  0  0  0  0
  146.6280  159.3620  132.5590 O   0  0  0  0  0  0  0  0  0  0  0  0
  145.8300  158.7880  133.5610 C   0  0  0  0  0  0  0  0  0  0  0  0
  146.2790  157.8700  134.2970 O   0  0  0  0  0  0  0  0  0  0  0  0
  144.4830  159.2560  133.7430 N   0  0  0  0  0  0  0  0  0  0  0  0
  144.0670  160.5500  133.8440 C   0  0  0  0  0  0  0  0  0  0  0  0
  144.9440  161.7320  133.9620 C   0  0  0  0  0  0  0  0  0  0  0  0
  146.3570  161.5910  134.1100 N   0  0  0  0  0  0  0  0  0  0  0  0
  144.4320  162.8820  133.9880 O   0  0  0  0  0  0  0  0  0  0  0  0
  142.6780  160.6220  133.8700 C   0  0  0  0  0  0  0  0  0  0  0  0
  142.2450  159.3180  133.7930 C   0  0  0  0  0  0  0  0  0  0  0  0
  140.9510  158.8050  133.7630 C   0  0  0  0  0  0  0  0  0  0  0  0
  140.7970  157.4150  133.6390 C   0  0  0  0  0  0  0  0  0  0  0  0
  141.9280  156.5730  133.5370 C   0  0  0  0  0  0  0  0  0  0  0  0
  141.7580  155.1620  133.3960 N   0  0  0  0  0  0  0  0  0  0  0  0
  142.6160  153.9680  133.2620 C   0  0  0  0  0  0  0  0  0  0  0  0
  141.4960  152.9860  133.1770 C   0  0  0  0  0  0  0  0  0  0  0  0
  141.3910  152.3620  131.9450 F   0  0  0  0  0  0  0  0  0  0  0  0
  141.4210  152.1270  134.2600 F   0  0  0  0  0  0  0  0  0  0  0  0
  140.6410  154.2010  133.3110 C   0  0  0  0  0  0  0  0  0  0  0  0
  143.2260  157.1240  133.5690 C   0  0  0  0  0  0  0  0  0  0  0  0
  143.3530  158.5120  133.7150 C   0  0  0  0  0  0  0  0  0  0  0  0
  148.3889  157.0979  132.8056 H   0  0  0  0  0  0  0  0  0  0  0  0
  147.4257  157.4212  131.3242 H   0  0  0  0  0  0  0  0  0  0  0  0
  149.1982  157.7123  131.3242 H   0  0  0  0  0  0  0  0  0  0  0  0
  149.0708  161.0214  131.8206 H   0  0  0  0  0  0  0  0  0  0  0  0
  149.3233  159.6394  130.7012 H   0  0  0  0  0  0  0  0  0  0  0  0
  147.7582  160.5208  130.7012 H   0  0  0  0  0  0  0  0  0  0  0  0
  148.0730  159.2065  134.5697 H   0  0  0  0  0  0  0  0  0  0  0  0
  149.6275  158.7276  133.8076 H   0  0  0  0  0  0  0  0  0  0  0  0
  149.1205  160.4509  133.8076 H   0  0  0  0  0  0  0  0  0  0  0  0
  146.7920  160.6540  134.2640 H   0  0  0  0  0  0  0  0  0  0  0  0
  146.9690  162.4370  134.1420 H   0  0  0  0  0  0  0  0  0  0  0  0
  142.0580  161.5281  133.9377 H   0  0  0  0  0  0  0  0  0  0  0  0
  140.0763  159.4682  133.8342 H   0  0  0  0  0  0  0  0  0  0  0  0
  139.7879  156.9775  133.6211 H   0  0  0  0  0  0  0  0  0  0  0  0
  143.2345  153.9881  132.3526 H   0  0  0  0  0  0  0  0  0  0  0  0
  143.3733  153.8019  134.0423 H   0  0  0  0  0  0  0  0  0  0  0  0
  140.0004  154.3696  132.4328 H   0  0  0  0  0  0  0  0  0  0  0  0
  139.9051  154.2110  134.1286 H   0  0  0  0  0  0  0  0  0  0  0  0
  144.1146  156.4816  133.4817 H   0  0  0  0  0  0  0  0  0  0  0  0
  1  2  1  0
  2  3  1  0
  2  4  1  0
  2  5  1  0
  5  6  1  0
  6  7  2  0
  6  8  1  0
  8  9  1  0
  9 10  1  0
 10 11  1  0
 10 12  2  0
  9 13  2  0
 13 14  1  0
 14 15  2  0
 15 16  1  0
 16 17  2  0
 17 18  1  0
 18 19  1  0
 19 20  1  0
 20 21  1  0
 20 22  1  0
 20 23  1  0
 17 24  1  0
 24 25  2  0
 25  8  1  0
 25 14  1  0
 23 18  1  0
  1 26  1  0
  1 27  1  0
  1 28  1  0
  3 29  1  0
  3 30  1  0
  3 31  1  0
  4 32  1  0
  4 33  1  0
  4 34  1  0
 11 35  1  0
 11 36  1  0
 13 37  1  0
 15 38  1  0
 16 39  1  0
 19 40  1  0
 19 41  1  0
 23 42  1  0
 23 43  1  0
 24 44  1  0
M  END
>  <UniqueID>  (69) 
68

>  <SMILES>  (69) 
CC(C)(C)OC(=O)n1c(C(N)=O)cc2ccc(N3CC(F)(F)C3)cc21

>  <Energy>  (69) 
123.85770046278286

>  <Genealogy>  (69) 
CC(C)(C)OC(=O)n1c(C(N)=O)cc2ccc(N3CC(F)(F)C3)cc21 (3D coordinates assigned)
CC(C)(C)OC(=O)n1c(C(N)=O)cc2ccc(N3CC(F)(F)C3)cc21 (nonaromatic ring conformer: 123.85770046278286 kcal/mol)

>  <smiles>  (69) 
CC(C)(C)OC(=O)n1c(C(N)=O)cc2ccc(N3CC(F)(F)C3)cc21

>  <score_type>  (69) 
oracle

>  <origin>  (69) 
adg

>  <m_score__min__energy>  (69) 
-7.0800000000000001

>  <m_primary>  (69) 
energy

$$$$
71:0
     RDKit          3D

 50 52  0  0  0  0  0  0  0  0999 V2000
  138.4220  148.6380  129.8310 C   0  0  0  0  0  0  0  0  0  0  0  0
  139.6230  148.3800  130.6950 C   0  0  0  0  0  0  0  0  0  0  0  0
  140.1310  147.2250  130.6860 O   0  0  0  0  0  0  0  0  0  0  0  0
  140.2010  149.4190  131.5180 N   0  0  0  0  0  0  0  0  0  0  0  0
  139.4680  150.6820  131.7040 C   0  0  0  0  0  0  0  0  0  0  0  0
  140.2180  151.6440  132.6140 C   0  0  0  0  0  0  0  0  0  0  0  0
  141.6330  151.6450  132.2180 N   0  0  0  0  0  0  0  0  0  0  0  0
  142.3510  152.8050  132.7920 C   0  0  0  0  0  0  0  0  0  0  0  0
  141.7940  153.1440  134.1790 C   0  0  0  0  0  0  0  0  0  0  0  0
  141.8990  154.5430  134.4310 O   0  0  0  0  0  0  0  0  0  0  0  0
  141.1520  155.5080  133.7450 C   0  0  0  0  0  0  0  0  0  0  0  0
  140.1620  155.1690  133.0400 O   0  0  0  0  0  0  0  0  0  0  0  0
  141.5000  156.8960  133.8670 N   0  0  0  0  0  0  0  0  0  0  0  0
  140.6880  157.9360  134.2100 C   0  0  0  0  0  0  0  0  0  0  0  0
  139.2200  157.8730  134.3720 C   0  0  0  0  0  0  0  0  0  0  0  0
  138.3790  157.4560  133.3000 N   0  0  0  0  0  0  0  0  0  0  0  0
  138.6970  158.2390  135.4580 O   0  0  0  0  0  0  0  0  0  0  0  0
  141.4210  159.1170  134.3030 C   0  0  0  0  0  0  0  0  0  0  0  0
  142.7160  158.7680  133.9920 C   0  0  0  0  0  0  0  0  0  0  0  0
  143.8670  159.5480  133.9470 C   0  0  0  0  0  0  0  0  0  0  0  0
  145.0790  158.9170  133.6230 C   0  0  0  0  0  0  0  0  0  0  0  0
  145.1200  157.5270  133.3380 C   0  0  0  0  0  0  0  0  0  0  0  0
  146.4370  156.8550  133.0370 C   0  0  0  0  0  0  0  0  0  0  0  0
  146.2380  155.6650  132.3590 F   0  0  0  0  0  0  0  0  0  0  0  0
  147.0980  156.5930  134.2230 F   0  0  0  0  0  0  0  0  0  0  0  0
  147.2280  157.6730  132.2480 F   0  0  0  0  0  0  0  0  0  0  0  0
  143.9320  156.7620  133.4270 C   0  0  0  0  0  0  0  0  0  0  0  0
  142.7370  157.4220  133.7310 C   0  0  0  0  0  0  0  0  0  0  0  0
  142.2630  150.3830  132.6500 C   0  0  0  0  0  0  0  0  0  0  0  0
  141.4370  149.1240  132.2730 C   0  0  0  0  0  0  0  0  0  0  0  0
  137.5454  148.8263  130.4683 H   0  0  0  0  0  0  0  0  0  0  0  0
  138.6091  149.5164  129.1959 H   0  0  0  0  0  0  0  0  0  0  0  0
  138.2318  147.7602  129.1959 H   0  0  0  0  0  0  0  0  0  0  0  0
  139.3256  151.1585  130.7228 H   0  0  0  0  0  0  0  0  0  0  0  0
  138.5018  150.4495  132.1756 H   0  0  0  0  0  0  0  0  0  0  0  0
  139.8016  152.6567  132.5088 H   0  0  0  0  0  0  0  0  0  0  0  0
  140.1182  151.3290  133.6632 H   0  0  0  0  0  0  0  0  0  0  0  0
  143.4203  152.5622  132.8801 H   0  0  0  0  0  0  0  0  0  0  0  0
  142.2141  153.6729  132.1302 H   0  0  0  0  0  0  0  0  0  0  0  0
  140.7362  152.8459  134.2270 H   0  0  0  0  0  0  0  0  0  0  0  0
  142.3759  152.6011  134.9384 H   0  0  0  0  0  0  0  0  0  0  0  0
  138.3870  156.4670  132.9630 H   0  0  0  0  0  0  0  0  0  0  0  0
  141.0450  160.1161  134.5685 H   0  0  0  0  0  0  0  0  0  0  0  0
  143.8289  160.6267  134.1589 H   0  0  0  0  0  0  0  0  0  0  0  0
  146.0071  159.5065  133.5897 H   0  0  0  0  0  0  0  0  0  0  0  0
  143.9485  155.6747  133.2611 H   0  0  0  0  0  0  0  0  0  0  0  0
  143.2525  150.3064  132.1755 H   0  0  0  0  0  0  0  0  0  0  0  0
  142.3308  150.4116  133.7475 H   0  0  0  0  0  0  0  0  0  0  0  0
  142.0694  148.4670  131.6579 H   0  0  0  0  0  0  0  0  0  0  0  0
  141.1278  148.6521  133.2173 H   0  0  0  0  0  0  0  0  0  0  0  0
  1  2  1  0
  2  3  2  0
  2  4  1  0
  4  5  1  0
  5  6  1  0
  6  7  1  0
  7  8  1  0
  8  9  1  0
  9 10  1  0
 10 11  1  0
 11 12  2  0
 11 13  1  0
 13 14  1  0
 14 15  1  0
 15 16  1  0
 15 17  2  0
 14 18  2  0
 18 19  1  0
 19 20  2  0
 20 21  1  0
 21 22  2  0
 22 23  1  0
 23 24  1  0
 23 25  1  0
 23 26  1  0
 22 27  1  0
 27 28  2  0
  7 29  1  0
 29 30  1  0
 30  4  1  0
 28 13  1  0
 28 19  1  0
  1 31  1  0
  1 32  1  0
  1 33  1  0
  5 34  1  0
  5 35  1  0
  6 36  1  0
  6 37  1  0
  8 38  1  0
  8 39  1  0
  9 40  1  0
  9 41  1  0
 16 42  1  0
 18 43  1  0
 20 44  1  0
 21 45  1  0
 27 46  1  0
 29 47  1  0
 29 48  1  0
 30 49  1  0
 30 50  1  0
M  CHG  1  16  -1
M  END
>  <UniqueID>  (70) 
69

>  <SMILES>  (70) 
CC(=O)N1CCN(CCOC(=O)n2c(C([NH-])=O)cc3ccc(C(F)(F)F)cc32)CC1

>  <Energy>  (70) 
93.38850217977772

>  <Genealogy>  (70) 
CC(=O)N1CCN(CCOC(=O)n2c(C([NH-])=O)cc3ccc(C(F)(F)F)cc32)CC1 (protonated)
CC(=O)N1CCN(CCOC(=O)n2c(C([NH-])=O)cc3ccc(C(F)(F)F)cc32)CC1 (3D coordinates assigned)
CC(=O)N1CCN(CCOC(=O)n2c(C([NH-])=O)cc3ccc(C(F)(F)F)cc32)CC1 (nonaromatic ring conformer: 93.38850217977772 kcal/mol)

>  <smiles>  (70) 
CC(=O)N1CCN(CCOC(=O)n2c(C(N)=O)cc3ccc(C(F)(F)F)cc32)CC1

>  <score_type>  (70) 
oracle

>  <origin>  (70) 
adg

>  <m_score__min__energy>  (70) 
-8.1400000000000006

>  <m_primary>  (70) 
energy

$$$$
72:0
     RDKit          3D

 30 31  0  0  0  0  0  0  0  0999 V2000
  149.9840  160.1240  129.1760 C   0  0  0  0  0  0  0  0  0  0  0  0
  150.0250  159.5520  130.4770 O   0  0  0  0  0  0  0  0  0  0  0  0
  149.3570  160.1150  131.5680 C   0  0  0  0  0  0  0  0  0  0  0  0
  148.8370  161.2620  131.4830 O   0  0  0  0  0  0  0  0  0  0  0  0
  149.2140  159.3270  132.8290 C   0  0  0  0  0  0  0  0  0  0  0  0
  147.7670  159.0040  133.0720 C   0  0  0  0  0  0  0  0  0  0  0  0
  147.3350  157.6540  133.0950 C   0  0  0  0  0  0  0  0  0  0  0  0
  145.9930  157.3370  133.3690 C   0  0  0  0  0  0  0  0  0  0  0  0
  145.1120  158.3860  133.6160 C   0  0  0  0  0  0  0  0  0  0  0  0
  143.7740  158.3600  133.9380 C   0  0  0  0  0  0  0  0  0  0  0  0
  143.4060  159.6940  134.0950 C   0  0  0  0  0  0  0  0  0  0  0  0
  142.0190  160.1250  134.3660 C   0  0  0  0  0  0  0  0  0  0  0  0
  141.3170  160.9590  133.4480 N   0  0  0  0  0  0  0  0  0  0  0  0
  141.4260  159.7090  135.3980 O   0  0  0  0  0  0  0  0  0  0  0  0
  144.4760  160.5140  133.8880 N   0  0  0  0  0  0  0  0  0  0  0  0
  144.5360  161.9410  134.0390 C   0  0  0  0  0  0  0  0  0  0  0  0
  143.7270  162.6810  133.4220 O   0  0  0  0  0  0  0  0  0  0  0  0
  145.4730  162.5170  134.8880 O   0  0  0  0  0  0  0  0  0  0  0  0
  145.5120  159.6980  133.5910 C   0  0  0  0  0  0  0  0  0  0  0  0
  146.8450  160.0410  133.3400 C   0  0  0  0  0  0  0  0  0  0  0  0
  149.9056  161.2181  129.2588 H   0  0  0  0  0  0  0  0  0  0  0  0
  150.9032  159.8624  128.6313 H   0  0  0  0  0  0  0  0  0  0  0  0
  149.1115  159.7340  128.6313 H   0  0  0  0  0  0  0  0  0  0  0  0
  149.7862  158.3917  132.7409 H   0  0  0  0  0  0  0  0  0  0  0  0
  149.5977  159.9212  133.6715 H   0  0  0  0  0  0  0  0  0  0  0  0
  148.0562  156.8474  132.8967 H   0  0  0  0  0  0  0  0  0  0  0  0
  145.6497  156.2921  133.3876 H   0  0  0  0  0  0  0  0  0  0  0  0
  143.1318  157.4738  134.0480 H   0  0  0  0  0  0  0  0  0  0  0  0
  141.7490  161.8330  133.0770 H   0  0  0  0  0  0  0  0  0  0  0  0
  147.1676  161.0926  133.3510 H   0  0  0  0  0  0  0  0  0  0  0  0
  1  2  1  0
  2  3  1  0
  3  4  2  0
  3  5  1  0
  5  6  1  0
  6  7  2  0
  7  8  1  0
  8  9  2  0
  9 10  1  0
 10 11  2  0
 11 12  1  0
 12 13  1  0
 12 14  2  0
 11 15  1  0
 15 16  1  0
 16 17  2  0
 16 18  1  0
 15 19  1  0
 19 20  2  0
 20  6  1  0
 19  9  1  0
  1 21  1  0
  1 22  1  0
  1 23  1  0
  5 24  1  0
  5 25  1  0
  7 26  1  0
  8 27  1  0
 10 28  1  0
 13 29  1  0
 20 30  1  0
M  CHG  2  13  -1  18  -1
M  END
>  <UniqueID>  (71) 
70

>  <SMILES>  (71) 
COC(=O)Cc1ccc2cc(C([NH-])=O)n(C(=O)[O-])c2c1

>  <Energy>  (71) 
66.08518698756626

>  <Genealogy>  (71) 
COC(=O)Cc1ccc2cc(C([NH-])=O)n(C(=O)[O-])c2c1 (protonated)
COC(=O)Cc1ccc2cc(C([NH-])=O)n(C(=O)[O-])c2c1 (3D coordinates assigned)
COC(=O)Cc1ccc2cc(C([NH-])=O)n(C(=O)[O-])c2c1 (optimized conformer: 66.08518698756626 kcal/mol)

>  <smiles>  (71) 
COC(=O)Cc1ccc2cc(C(N)=O)n(C(=O)O)c2c1

>  <score_type>  (71) 
oracle

>  <origin>  (71) 
adg

>  <m_score__min__energy>  (71) 
-6.1699999999999999

>  <m_primary>  (71) 
energy

$$$$
73:0
     RDKit          3D

 44 46  0  0  0  0  0  0  0  0999 V2000
  138.3840  158.5530  130.7740 C   0  0  0  0  0  0  0  0  0  0  0  0
  139.0650  159.1200  131.9430 N   0  0  0  0  0  0  0  0  0  0  0  0
  139.2260  160.5730  132.0650 C   0  0  0  0  0  0  0  0  0  0  0  0
  139.5790  158.2240  132.9550 C   0  0  0  0  0  0  0  0  0  0  0  0
  139.4990  156.9760  132.7810 O   0  0  0  0  0  0  0  0  0  0  0  0
  140.1790  158.7260  134.2430 C   0  0  0  0  0  0  0  0  0  0  0  0
  141.6100  159.1550  134.0480 C   0  0  0  0  0  0  0  0  0  0  0  0
  141.9500  160.5320  134.0260 C   0  0  0  0  0  0  0  0  0  0  0  0
  143.2790  160.9400  133.8170 C   0  0  0  0  0  0  0  0  0  0  0  0
  144.2430  159.9530  133.6370 C   0  0  0  0  0  0  0  0  0  0  0  0
  145.5930  160.0660  133.3870 C   0  0  0  0  0  0  0  0  0  0  0  0
  146.0580  158.7560  133.2740 C   0  0  0  0  0  0  0  0  0  0  0  0
  147.4810  158.4090  133.0670 C   0  0  0  0  0  0  0  0  0  0  0  0
  148.1910  157.6200  134.0170 N   0  0  0  0  0  0  0  0  0  0  0  0
  148.0870  158.8450  132.0510 O   0  0  0  0  0  0  0  0  0  0  0  0
  145.0360  157.8720  133.4460 N   0  0  0  0  0  0  0  0  0  0  0  0
  145.0760  156.4420  133.3480 C   0  0  0  0  0  0  0  0  0  0  0  0
  144.2950  155.8470  132.5550 O   0  0  0  0  0  0  0  0  0  0  0  0
  145.9840  155.6920  134.1650 N   0  0  0  0  0  0  0  0  0  0  0  0
  145.8620  154.2510  134.3550 C   0  0  0  0  0  0  0  0  0  0  0  0
  146.6950  153.8200  135.5180 C   0  0  0  0  0  0  0  0  0  0  0  0
  148.0660  153.7380  135.5690 C   0  0  0  0  0  0  0  0  0  0  0  0
  148.3870  153.2180  136.7670 N   0  0  0  0  0  0  0  0  0  0  0  0
  147.2500  152.9880  137.4060 N   0  0  0  0  0  0  0  0  0  0  0  0
  146.2040  153.3350  136.6710 N   0  0  0  0  0  0  0  0  0  0  0  0
  143.9330  158.6190  133.6630 C   0  0  0  0  0  0  0  0  0  0  0  0
  142.6170  158.1840  133.8440 C   0  0  0  0  0  0  0  0  0  0  0  0
  137.5786  157.8824  131.1083 H   0  0  0  0  0  0  0  0  0  0  0  0
  137.9567  159.3659  130.1685 H   0  0  0  0  0  0  0  0  0  0  0  0
  139.1060  157.9855  130.1685 H   0  0  0  0  0  0  0  0  0  0  0  0
  139.2567  160.8504  133.1290 H   0  0  0  0  0  0  0  0  0  0  0  0
  140.1637  160.8801  131.5787 H   0  0  0  0  0  0  0  0  0  0  0  0
  138.3783  161.0779  131.5787 H   0  0  0  0  0  0  0  0  0  0  0  0
  139.5927  159.5852  134.6008 H   0  0  0  0  0  0  0  0  0  0  0  0
  140.1582  157.9082  134.9784 H   0  0  0  0  0  0  0  0  0  0  0  0
  141.1654  161.2886  134.1740 H   0  0  0  0  0  0  0  0  0  0  0  0
  143.5484  162.0063  133.7964 H   0  0  0  0  0  0  0  0  0  0  0  0
  146.1794  160.9922  133.2959 H   0  0  0  0  0  0  0  0  0  0  0  0
  149.2350  157.6330  134.0530 H   0  0  0  0  0  0  0  0  0  0  0  0
  146.7230  156.2050  134.6970 H   0  0  0  0  0  0  0  0  0  0  0  0
  144.8091  153.9960  134.5458 H   0  0  0  0  0  0  0  0  0  0  0  0
  146.2107  153.7350  133.4483 H   0  0  0  0  0  0  0  0  0  0  0  0
  148.7686  154.0408  134.7786 H   0  0  0  0  0  0  0  0  0  0  0  0
  142.3709  157.1120  133.8281 H   0  0  0  0  0  0  0  0  0  0  0  0
  1  2  1  0
  2  3  1  0
  2  4  1  0
  4  5  2  0
  4  6  1  0
  6  7  1  0
  7  8  2  0
  8  9  1  0
  9 10  2  0
 10 11  1  0
 11 12  2  0
 12 13  1  0
 13 14  1  0
 13 15  2  0
 12 16  1  0
 16 17  1  0
 17 18  2  0
 17 19  1  0
 19 20  1  0
 20 21  1  0
 21 22  1  0
 22 23  2  0
 23 24  1  0
 24 25  1  0
 16 26  1  0
 26 27  2  0
 27  7  1  0
 26 10  1  0
 25 21  2  0
  1 28  1  0
  1 29  1  0
  1 30  1  0
  3 31  1  0
  3 32  1  0
  3 33  1  0
  6 34  1  0
  6 35  1  0
  8 36  1  0
  9 37  1  0
 11 38  1  0
 14 39  1  0
 19 40  1  0
 20 41  1  0
 20 42  1  0
 22 43  1  0
 27 44  1  0
M  CHG  2  14  -1  24  -1
M  END
>  <UniqueID>  (72) 
71

>  <SMILES>  (72) 
CN(C)C(=O)Cc1ccc2cc(C([NH-])=O)n(C(=O)NCc3cn[n-]n3)c2c1

>  <Energy>  (72) 
111.57248305624246

>  <Genealogy>  (72) 
CN(C)C(=O)Cc1ccc2cc(C([NH-])=O)n(C(=O)NCc3cn[n-]n3)c2c1 (protonated)
CN(C)C(=O)Cc1ccc2cc(C([NH-])=O)n(C(=O)NCc3cn[n-]n3)c2c1 (3D coordinates assigned)
CN(C)C(=O)Cc1ccc2cc(C([NH-])=O)n(C(=O)NCc3cn[n-]n3)c2c1 (optimized conformer: 111.57248305624246 kcal/mol)

>  <smiles>  (72) 
CN(C)C(=O)Cc1ccc2cc(C(N)=O)n(C(=O)NCc3cn[nH]n3)c2c1

>  <score_type>  (72) 
oracle

>  <origin>  (72) 
adg

>  <m_score__min__energy>  (72) 
-8.2400000000000002

>  <m_primary>  (72) 
energy

$$$$
74:0
     RDKit          3D

 42 43  0  0  0  0  0  0  0  0999 V2000
  137.3670  160.1110  130.8390 C   0  0  0  0  0  0  0  0  0  0  0  0
  138.8370  159.7220  130.8200 C   0  0  0  0  0  0  0  0  0  0  0  0
  138.9720  158.3520  131.1780 O   0  0  0  0  0  0  0  0  0  0  0  0
  139.1690  157.9340  132.4970 C   0  0  0  0  0  0  0  0  0  0  0  0
  138.2030  157.8830  133.3060 O   0  0  0  0  0  0  0  0  0  0  0  0
  140.5480  157.5670  132.9580 C   0  0  0  0  0  0  0  0  0  0  0  0
  140.9750  158.3880  134.1820 C   0  0  0  0  0  0  0  0  0  0  0  0
  142.3790  158.9180  134.0370 C   0  0  0  0  0  0  0  0  0  0  0  0
  142.6060  160.3120  133.9280 C   0  0  0  0  0  0  0  0  0  0  0  0
  143.9040  160.8110  133.7250 C   0  0  0  0  0  0  0  0  0  0  0  0
  144.9490  159.8960  133.6390 C   0  0  0  0  0  0  0  0  0  0  0  0
  146.2830  160.1020  133.3700 C   0  0  0  0  0  0  0  0  0  0  0  0
  146.8520  158.8310  133.3390 C   0  0  0  0  0  0  0  0  0  0  0  0
  148.2840  158.5870  133.0720 C   0  0  0  0  0  0  0  0  0  0  0  0
  148.8600  157.2910  133.2400 N   0  0  0  0  0  0  0  0  0  0  0  0
  149.0230  159.5490  132.7330 O   0  0  0  0  0  0  0  0  0  0  0  0
  145.9110  157.8750  133.5790 N   0  0  0  0  0  0  0  0  0  0  0  0
  146.0760  156.4500  133.4740 C   0  0  0  0  0  0  0  0  0  0  0  0
  146.6410  155.9630  132.4580 O   0  0  0  0  0  0  0  0  0  0  0  0
  145.5770  155.5320  134.5530 C   0  0  0  0  0  0  0  0  0  0  0  0
  146.7170  155.0010  135.3620 C   0  0  0  0  0  0  0  0  0  0  0  0
  147.7800  155.6660  135.4740 O   0  0  0  0  0  0  0  0  0  0  0  0
  146.6230  153.7490  135.9580 O   0  0  0  0  0  0  0  0  0  0  0  0
  144.7490  158.5440  133.7570 C   0  0  0  0  0  0  0  0  0  0  0  0
  143.4650  158.0200  133.9380 C   0  0  0  0  0  0  0  0  0  0  0  0
  137.0251  160.2015  131.8806 H   0  0  0  0  0  0  0  0  0  0  0  0
  137.2361  161.0747  130.3251 H   0  0  0  0  0  0  0  0  0  0  0  0
  136.7765  159.3382  130.3251 H   0  0  0  0  0  0  0  0  0  0  0  0
  139.2442  159.8785  129.8102 H   0  0  0  0  0  0  0  0  0  0  0  0
  139.3892  160.3441  131.5398 H   0  0  0  0  0  0  0  0  0  0  0  0
  140.5631  156.4993  133.2221 H   0  0  0  0  0  0  0  0  0  0  0  0
  141.2512  157.7809  132.1396 H   0  0  0  0  0  0  0  0  0  0  0  0
  140.2845  159.2360  134.3007 H   0  0  0  0  0  0  0  0  0  0  0  0
  140.9467  157.7297  135.0628 H   0  0  0  0  0  0  0  0  0  0  0  0
  141.7590  161.0099  134.0029 H   0  0  0  0  0  0  0  0  0  0  0  0
  144.0884  161.8919  133.6368 H   0  0  0  0  0  0  0  0  0  0  0  0
  146.7913  161.0648  133.2130 H   0  0  0  0  0  0  0  0  0  0  0  0
  148.3300  156.5200  133.7000 H   0  0  0  0  0  0  0  0  0  0  0  0
  149.8620  157.1280  132.9950 H   0  0  0  0  0  0  0  0  0  0  0  0
  144.8936  156.0872  135.2124 H   0  0  0  0  0  0  0  0  0  0  0  0
  145.0513  154.6871  134.0843 H   0  0  0  0  0  0  0  0  0  0  0  0
  143.3044  156.9337  134.0018 H   0  0  0  0  0  0  0  0  0  0  0  0
  1  2  1  0
  2  3  1  0
  3  4  1  0
  4  5  2  0
  4  6  1  0
  6  7  1  0
  7  8  1  0
  8  9  2  0
  9 10  1  0
 10 11  2  0
 11 12  1  0
 12 13  2  0
 13 14  1  0
 14 15  1  0
 14 16  2  0
 13 17  1  0
 17 18  1  0
 18 19  2  0
 18 20  1  0
 20 21  1  0
 21 22  2  0
 21 23  1  0
 17 24  1  0
 24 25  2  0
 25  8  1  0
 24 11  1  0
  1 26  1  0
  1 27  1  0
  1 28  1  0
  2 29  1  0
  2 30  1  0
  6 31  1  0
  6 32  1  0
  7 33  1  0
  7 34  1  0
  9 35  1  0
 10 36  1  0
 12 37  1  0
 15 38  1  0
 15 39  1  0
 20 40  1  0
 20 41  1  0
 25 42  1  0
M  CHG  1  23  -1
M  END
>  <UniqueID>  (73) 
72

>  <SMILES>  (73) 
CCOC(=O)CCc1ccc2cc(C(N)=O)n(C(=O)CC(=O)[O-])c2c1

>  <Energy>  (73) 
70.359718365442

>  <Genealogy>  (73) 
CCOC(=O)CCc1ccc2cc(C(N)=O)n(C(=O)CC(=O)[O-])c2c1 (protonated)
CCOC(=O)CCc1ccc2cc(C(N)=O)n(C(=O)CC(=O)[O-])c2c1 (3D coordinates assigned)
CCOC(=O)CCc1ccc2cc(C(N)=O)n(C(=O)CC(=O)[O-])c2c1 (optimized conformer: 70.359718365442 kcal/mol)

>  <smiles>  (73) 
CCOC(=O)CCc1ccc2cc(C(N)=O)n(C(=O)CC(=O)O)c2c1

>  <score_type>  (73) 
oracle

>  <origin>  (73) 
adg

>  <m_score__min__energy>  (73) 
-7.6200000000000001

>  <m_primary>  (73) 
energy

$$$$
75:0
     RDKit          3D

 48 50  0  0  0  0  0  0  0  0999 V2000
  139.1670  157.4820  133.0080 C   0  0  0  0  0  0  0  0  0  0  0  0
  140.3050  158.1970  133.6040 N   0  0  0  0  0  0  0  0  0  0  0  0
  140.0800  158.4190  135.0420 C   0  0  0  0  0  0  0  0  0  0  0  0
  141.3550  158.9900  135.6970 C   0  0  0  0  0  0  0  0  0  0  0  0
  142.2210  159.7260  134.7430 N   0  0  0  0  0  0  0  0  0  0  0  0
  143.2730  158.8710  134.1430 C   0  0  0  0  0  0  0  0  0  0  0  0
  144.4370  159.7280  133.6350 C   0  0  0  0  0  0  0  0  0  0  0  0
  145.6640  158.8900  133.3890 C   0  0  0  0  0  0  0  0  0  0  0  0
  146.8510  159.4930  132.9020 C   0  0  0  0  0  0  0  0  0  0  0  0
  147.9870  158.7130  132.6210 C   0  0  0  0  0  0  0  0  0  0  0  0
  147.9020  157.3390  132.8310 C   0  0  0  0  0  0  0  0  0  0  0  0
  148.8350  156.3490  132.6190 C   0  0  0  0  0  0  0  0  0  0  0  0
  148.2030  155.1620  132.9860 C   0  0  0  0  0  0  0  0  0  0  0  0
  148.8710  153.8450  132.9840 C   0  0  0  0  0  0  0  0  0  0  0  0
  148.3490  152.7590  133.7430 N   0  0  0  0  0  0  0  0  0  0  0  0
  149.9410  153.6880  132.3360 O   0  0  0  0  0  0  0  0  0  0  0  0
  146.9270  155.4100  133.3950 N   0  0  0  0  0  0  0  0  0  0  0  0
  145.9140  154.4640  133.7730 C   0  0  0  0  0  0  0  0  0  0  0  0
  145.5500  154.3940  134.9770 O   0  0  0  0  0  0  0  0  0  0  0  0
  145.2460  153.5850  132.7560 C   0  0  0  0  0  0  0  0  0  0  0  0
  145.5730  152.2410  132.9770 O   0  0  0  0  0  0  0  0  0  0  0  0
  146.7610  156.7450  133.3020 C   0  0  0  0  0  0  0  0  0  0  0  0
  145.6140  157.4920  133.5810 C   0  0  0  0  0  0  0  0  0  0  0  0
  141.4250  160.4380  133.7250 C   0  0  0  0  0  0  0  0  0  0  0  0
  140.5340  159.4790  132.9050 C   0  0  0  0  0  0  0  0  0  0  0  0
  138.5272  157.0800  133.8074 H   0  0  0  0  0  0  0  0  0  0  0  0
  138.5834  158.1760  132.3853 H   0  0  0  0  0  0  0  0  0  0  0  0
  139.5390  156.6550  132.3853 H   0  0  0  0  0  0  0  0  0  0  0  0
  139.2525  159.1315  135.1749 H   0  0  0  0  0  0  0  0  0  0  0  0
  139.8291  157.4601  135.5191 H   0  0  0  0  0  0  0  0  0  0  0  0
  141.0568  159.6783  136.5016 H   0  0  0  0  0  0  0  0  0  0  0  0
  141.9373  158.1380  136.0779 H   0  0  0  0  0  0  0  0  0  0  0  0
  143.6456  158.1686  134.9031 H   0  0  0  0  0  0  0  0  0  0  0  0
  142.8415  158.3189  133.2950 H   0  0  0  0  0  0  0  0  0  0  0  0
  144.1403  160.2145  132.6941 H   0  0  0  0  0  0  0  0  0  0  0  0
  144.6766  160.4795  134.4017 H   0  0  0  0  0  0  0  0  0  0  0  0
  146.8838  160.5809  132.7424 H   0  0  0  0  0  0  0  0  0  0  0  0
  148.9133  159.1737  132.2472 H   0  0  0  0  0  0  0  0  0  0  0  0
  149.8608  156.4692  132.2406 H   0  0  0  0  0  0  0  0  0  0  0  0
  147.3620  152.7680  134.0860 H   0  0  0  0  0  0  0  0  0  0  0  0
  144.1556  153.7091  132.8310 H   0  0  0  0  0  0  0  0  0  0  0  0
  145.5932  153.8748  131.7532 H   0  0  0  0  0  0  0  0  0  0  0  0
  146.2320  152.2370  133.7190 H   0  0  0  0  0  0  0  0  0  0  0  0
  144.6961  157.0040  133.9407 H   0  0  0  0  0  0  0  0  0  0  0  0
  140.7822  161.1745  134.2294 H   0  0  0  0  0  0  0  0  0  0  0  0
  142.1243  160.9261  133.0302 H   0  0  0  0  0  0  0  0  0  0  0  0
  139.5628  159.9635  132.7258 H   0  0  0  0  0  0  0  0  0  0  0  0
  141.0523  159.2610  131.9596 H   0  0  0  0  0  0  0  0  0  0  0  0
  1  2  1  0
  2  3  1  0
  3  4  1  0
  4  5  1  0
  5  6  1  0
  6  7  1  0
  7  8  1  0
  8  9  2  0
  9 10  1  0
 10 11  2  0
 11 12  1  0
 12 13  2  0
 13 14  1  0
 14 15  1  0
 14 16  2  0
 13 17  1  0
 17 18  1  0
 18 19  2  0
 18 20  1  0
 20 21  1  0
 17 22  1  0
 22 23  2  0
  5 24  1  0
 24 25  1  0
 25  2  1  0
 23  8  1  0
 22 11  1  0
  1 26  1  0
  1 27  1  0
  1 28  1  0
  3 29  1  0
  3 30  1  0
  4 31  1  0
  4 32  1  0
  6 33  1  0
  6 34  1  0
  7 35  1  0
  7 36  1  0
  9 37  1  0
 10 38  1  0
 12 39  1  0
 15 40  1  0
 20 41  1  0
 20 42  1  0
 21 43  1  0
 23 44  1  0
 24 45  1  0
 24 46  1  0
 25 47  1  0
 25 48  1  0
M  CHG  1  15  -1
M  END
>  <UniqueID>  (74) 
73

>  <SMILES>  (74) 
CN1CCN(CCc2ccc3cc(C([NH-])=O)n(C(=O)CO)c3c2)CC1

>  <Energy>  (74) 
96.56217518283361

>  <Genealogy>  (74) 
CN1CCN(CCc2ccc3cc(C([NH-])=O)n(C(=O)CO)c3c2)CC1 (protonated)
CN1CCN(CCc2ccc3cc(C([NH-])=O)n(C(=O)CO)c3c2)CC1 (3D coordinates assigned)
CN1CCN(CCc2ccc3cc(C([NH-])=O)n(C(=O)CO)c3c2)CC1 (nonaromatic ring conformer: 96.56217518283361 kcal/mol)

>  <smiles>  (74) 
CN1CCN(CCc2ccc3cc(C(N)=O)n(C(=O)CO)c3c2)CC1

>  <score_type>  (74) 
oracle

>  <origin>  (74) 
adg

>  <m_score__min__energy>  (74) 
-7.1200000000000001

>  <m_primary>  (74) 
energy

$$$$
76:0
     RDKit          3D

 33 35  0  0  0  0  0  0  0  0999 V2000
  146.3600  153.4610  134.4560 N   0  0  0  0  0  0  0  0  0  0  0  0
  147.1310  154.4830  135.0840 C   0  0  0  0  0  0  0  0  0  0  0  0
  147.5370  154.3100  136.2640 O   0  0  0  0  0  0  0  0  0  0  0  0
  147.4390  155.7480  134.3820 C   0  0  0  0  0  0  0  0  0  0  0  0
  146.9030  156.9830  134.7440 C   0  0  0  0  0  0  0  0  0  0  0  0
  147.3920  157.8790  133.8200 C   0  0  0  0  0  0  0  0  0  0  0  0
  147.1940  159.2520  133.7110 C   0  0  0  0  0  0  0  0  0  0  0  0
  147.8450  159.9300  132.6660 C   0  0  0  0  0  0  0  0  0  0  0  0
  148.6700  159.2290  131.7480 C   0  0  0  0  0  0  0  0  0  0  0  0
  149.4090  159.9760  130.6680 C   0  0  0  0  0  0  0  0  0  0  0  0
  149.2210  161.3410  130.8030 F   0  0  0  0  0  0  0  0  0  0  0  0
  148.9340  159.5760  129.4330 F   0  0  0  0  0  0  0  0  0  0  0  0
  150.7670  159.7180  130.7350 F   0  0  0  0  0  0  0  0  0  0  0  0
  148.8670  157.8380  131.9120 C   0  0  0  0  0  0  0  0  0  0  0  0
  148.1910  157.1870  132.9490 C   0  0  0  0  0  0  0  0  0  0  0  0
  148.2290  155.8790  133.2800 N   0  0  0  0  0  0  0  0  0  0  0  0
  148.9650  154.8490  132.6040 C   0  0  0  0  0  0  0  0  0  0  0  0
  150.1550  155.0670  132.2490 O   0  0  0  0  0  0  0  0  0  0  0  0
  148.3330  153.5240  132.2850 C   0  0  0  0  0  0  0  0  0  0  0  0
  149.0340  152.4390  132.9630 N   0  0  0  0  0  0  0  0  0  0  0  0
  149.9650  151.6160  132.4510 C   0  0  0  0  0  0  0  0  0  0  0  0
  150.4090  150.8080  133.4270 N   0  0  0  0  0  0  0  0  0  0  0  0
  149.7520  151.1470  134.5260 N   0  0  0  0  0  0  0  0  0  0  0  0
  148.9200  152.1400  134.2470 N   0  0  0  0  0  0  0  0  0  0  0  0
  146.8160  152.6050  134.0700 H   0  0  0  0  0  0  0  0  0  0  0  0
  146.2316  157.1964  135.5888 H   0  0  0  0  0  0  0  0  0  0  0  0
  146.5481  159.7900  134.4205 H   0  0  0  0  0  0  0  0  0  0  0  0
  147.7136  161.0168  132.5583 H   0  0  0  0  0  0  0  0  0  0  0  0
  149.5363  157.2812  131.2396 H   0  0  0  0  0  0  0  0  0  0  0  0
  147.2835  153.5365  132.6142 H   0  0  0  0  0  0  0  0  0  0  0  0
  148.3918  153.3576  131.1993 H   0  0  0  0  0  0  0  0  0  0  0  0
  150.3066  151.6060  131.4055 H   0  0  0  0  0  0  0  0  0  0  0  0
  151.1330  150.0620  133.3590 H   0  0  0  0  0  0  0  0  0  0  0  0
  1  2  1  0
  2  3  2  0
  2  4  1  0
  4  5  2  0
  5  6  1  0
  6  7  2  0
  7  8  1  0
  8  9  2  0
  9 10  1  0
 10 11  1  0
 10 12  1  0
 10 13  1  0
  9 14  1  0
 14 15  2  0
 15 16  1  0
 16 17  1  0
 17 18  2  0
 17 19  1  0
 19 20  1  0
 20 21  1  0
 21 22  2  0
 22 23  1  0
 23 24  2  0
 16  4  1  0
 24 20  1  0
 15  6  1  0
  1 25  1  0
  5 26  1  0
  7 27  1  0
  8 28  1  0
 14 29  1  0
 19 30  1  0
 19 31  1  0
 21 32  1  0
 22 33  1  0
M  CHG  2   1  -1  22   1
M  END
>  <UniqueID>  (75) 
74

>  <SMILES>  (75) 
[NH-]C(=O)c1cc2ccc(C(F)(F)F)cc2n1C(=O)Cn1c[nH+]nn1

>  <Energy>  (75) 
114.14667459985462

>  <Genealogy>  (75) 
[NH-]C(=O)c1cc2ccc(C(F)(F)F)cc2n1C(=O)Cn1c[nH+]nn1 (protonated)
[NH-]C(=O)c1cc2ccc(C(F)(F)F)cc2n1C(=O)Cn1c[nH+]nn1 (3D coordinates assigned)
[NH-]C(=O)c1cc2ccc(C(F)(F)F)cc2n1C(=O)Cn1c[nH+]nn1 (optimized conformer: 114.14667459985462 kcal/mol)

>  <smiles>  (75) 
NC(=O)c1cc2ccc(C(F)(F)F)cc2n1C(=O)Cn1cnnn1

>  <score_type>  (75) 
oracle

>  <origin>  (75) 
adg

>  <m_score__min__energy>  (75) 
-6.54

>  <m_primary>  (75) 
energy

$$$$
77:0
     RDKit          3D

 48 50  0  0  0  0  0  0  0  0999 V2000
  139.3640  155.7210  132.9680 C   0  0  0  0  0  0  0  0  0  0  0  0
  139.4770  157.2600  132.9590 C   0  0  0  0  0  0  0  0  0  0  0  0
  138.7400  157.8640  134.1730 C   0  0  0  0  0  0  0  0  0  0  0  0
  138.8090  157.8110  131.6700 C   0  0  0  0  0  0  0  0  0  0  0  0
  138.5700  159.2690  131.7600 N   0  0  0  0  0  0  0  0  0  0  0  0
  139.3950  160.0090  130.7920 C   0  0  0  0  0  0  0  0  0  0  0  0
  138.1930  160.4820  129.9990 C   0  0  0  0  0  0  0  0  0  0  0  0
  137.3790  159.7030  131.0130 C   0  0  0  0  0  0  0  0  0  0  0  0
  140.8890  157.6700  132.9440 N   0  0  0  0  0  0  0  0  0  0  0  0
  141.6110  158.6570  133.6990 C   0  0  0  0  0  0  0  0  0  0  0  0
  141.1950  159.8470  133.6540 O   0  0  0  0  0  0  0  0  0  0  0  0
  142.7690  158.3180  134.6060 C   0  0  0  0  0  0  0  0  0  0  0  0
  144.0670  158.9010  134.1070 C   0  0  0  0  0  0  0  0  0  0  0  0
  144.2230  160.3050  133.9970 C   0  0  0  0  0  0  0  0  0  0  0  0
  145.4120  160.8550  133.4930 C   0  0  0  0  0  0  0  0  0  0  0  0
  146.4240  159.9800  133.1070 C   0  0  0  0  0  0  0  0  0  0  0  0
  147.6580  160.2420  132.5570 C   0  0  0  0  0  0  0  0  0  0  0  0
  148.2430  158.9950  132.3520 C   0  0  0  0  0  0  0  0  0  0  0  0
  149.6220  158.8200  131.8500 C   0  0  0  0  0  0  0  0  0  0  0  0
  150.2050  159.7660  130.9570 N   0  0  0  0  0  0  0  0  0  0  0  0
  150.2780  157.7940  132.1730 O   0  0  0  0  0  0  0  0  0  0  0  0
  147.4010  157.9980  132.7490 N   0  0  0  0  0  0  0  0  0  0  0  0
  147.5900  156.5810  132.6250 C   0  0  0  0  0  0  0  0  0  0  0  0
  146.9780  155.9320  131.7370 O   0  0  0  0  0  0  0  0  0  0  0  0
  148.4320  155.9060  133.5000 O   0  0  0  0  0  0  0  0  0  0  0  0
  146.2920  158.6200  133.2120 C   0  0  0  0  0  0  0  0  0  0  0  0
  145.1110  158.0440  133.6940 C   0  0  0  0  0  0  0  0  0  0  0  0
  139.3376  155.3614  134.0072 H   0  0  0  0  0  0  0  0  0  0  0  0
  138.4412  155.4181  132.4516 H   0  0  0  0  0  0  0  0  0  0  0  0
  140.2327  155.2865  132.4516 H   0  0  0  0  0  0  0  0  0  0  0  0
  139.1959  157.4904  135.1018 H   0  0  0  0  0  0  0  0  0  0  0  0
  138.8187  158.9607  134.1413 H   0  0  0  0  0  0  0  0  0  0  0  0
  137.6801  157.5714  134.1413 H   0  0  0  0  0  0  0  0  0  0  0  0
  139.4679  157.6097  130.8125 H   0  0  0  0  0  0  0  0  0  0  0  0
  137.8375  157.3104  131.5453 H   0  0  0  0  0  0  0  0  0  0  0  0
  139.9688  160.8304  131.2459 H   0  0  0  0  0  0  0  0  0  0  0  0
  140.1975  159.4729  130.2642 H   0  0  0  0  0  0  0  0  0  0  0  0
  138.0284  161.5696  130.0033 H   0  0  0  0  0  0  0  0  0  0  0  0
  138.0964  160.3342  128.9132 H   0  0  0  0  0  0  0  0  0  0  0  0
  136.6993  160.3342  131.6043 H   0  0  0  0  0  0  0  0  0  0  0  0
  136.6763  158.9384  130.6501 H   0  0  0  0  0  0  0  0  0  0  0  0
  142.5628  158.7179  135.6098 H   0  0  0  0  0  0  0  0  0  0  0  0
  142.8744  157.2233  134.6276 H   0  0  0  0  0  0  0  0  0  0  0  0
  143.4046  160.9702  134.3095 H   0  0  0  0  0  0  0  0  0  0  0  0
  145.5404  161.9440  133.4056 H   0  0  0  0  0  0  0  0  0  0  0  0
  148.0904  161.2272  132.3280 H   0  0  0  0  0  0  0  0  0  0  0  0
  150.8180  160.5330  131.3120 H   0  0  0  0  0  0  0  0  0  0  0  0
  144.9987  156.9512  133.7498 H   0  0  0  0  0  0  0  0  0  0  0  0
  1  2  1  0
  2  3  1  0
  2  4  1  0
  4  5  1  0
  5  6  1  0
  6  7  1  0
  7  8  1  0
  2  9  1  0
  9 10  1  0
 10 11  2  0
 10 12  1  0
 12 13  1  0
 13 14  2  0
 14 15  1  0
 15 16  2  0
 16 17  1  0
 17 18  2  0
 18 19  1  0
 19 20  1  0
 19 21  2  0
 18 22  1  0
 22 23  1  0
 23 24  2  0
 23 25  1  0
 22 26  1  0
 26 27  2  0
  8  5  1  0
 27 13  1  0
 26 16  1  0
  1 28  1  0
  1 29  1  0
  1 30  1  0
  3 31  1  0
  3 32  1  0
  3 33  1  0
  4 34  1  0
  4 35  1  0
  6 36  1  0
  6 37  1  0
  7 38  1  0
  7 39  1  0
  8 40  1  0
  8 41  1  0
 12 42  1  0
 12 43  1  0
 14 44  1  0
 15 45  1  0
 17 46  1  0
 20 47  1  0
 27 48  1  0
M  CHG  3   9  -1  20  -1  25  -1
M  END
>  <UniqueID>  (76) 
75

>  <SMILES>  (76) 
CC(C)(CN1CCC1)[N-]C(=O)Cc1ccc2cc(C([NH-])=O)n(C(=O)[O-])c2c1

>  <Energy>  (76) 
158.1372329682296

>  <Genealogy>  (76) 
CC(C)(CN1CCC1)[N-]C(=O)Cc1ccc2cc(C([NH-])=O)n(C(=O)[O-])c2c1 (protonated)
CC(C)(CN1CCC1)[N-]C(=O)Cc1ccc2cc(C([NH-])=O)n(C(=O)[O-])c2c1 (3D coordinates assigned)
CC(C)(CN1CCC1)[N-]C(=O)Cc1ccc2cc(C([NH-])=O)n(C(=O)[O-])c2c1 (nonaromatic ring conformer: 158.1372329682296 kcal/mol)

>  <smiles>  (76) 
CC(C)(CN1CCC1)NC(=O)Cc1ccc2cc(C(N)=O)n(C(=O)O)c2c1

>  <score_type>  (76) 
oracle

>  <origin>  (76) 
adg

>  <m_score__min__energy>  (76) 
-8.75

>  <m_primary>  (76) 
energy

$$$$
78:0
     RDKit          3D

 38 40  0  0  0  0  0  0  0  0999 V2000
  145.7290  161.6450  134.1050 N   0  0  0  0  0  0  0  0  0  0  0  0
  144.3560  161.8050  133.7580 C   0  0  0  0  0  0  0  0  0  0  0  0
  143.9360  162.9430  133.4180 O   0  0  0  0  0  0  0  0  0  0  0  0
  143.4320  160.6500  133.7490 C   0  0  0  0  0  0  0  0  0  0  0  0
  142.0560  160.7640  133.9380 C   0  0  0  0  0  0  0  0  0  0  0  0
  141.5610  159.4870  133.7940 C   0  0  0  0  0  0  0  0  0  0  0  0
  140.2570  159.0140  133.9040 C   0  0  0  0  0  0  0  0  0  0  0  0
  140.0420  157.6330  133.7450 C   0  0  0  0  0  0  0  0  0  0  0  0
  141.1260  156.7590  133.4840 C   0  0  0  0  0  0  0  0  0  0  0  0
  140.8890  155.2760  133.3580 C   0  0  0  0  0  0  0  0  0  0  0  0
  141.8420  154.4780  134.2500 C   0  0  0  0  0  0  0  0  0  0  0  0
  141.3710  153.1890  134.4210 F   0  0  0  0  0  0  0  0  0  0  0  0
  141.9650  155.0870  135.4860 F   0  0  0  0  0  0  0  0  0  0  0  0
  143.0890  154.4230  133.6540 F   0  0  0  0  0  0  0  0  0  0  0  0
  142.4370  157.2750  133.3890 C   0  0  0  0  0  0  0  0  0  0  0  0
  142.6190  158.6560  133.5320 C   0  0  0  0  0  0  0  0  0  0  0  0
  143.7740  159.3550  133.5010 N   0  0  0  0  0  0  0  0  0  0  0  0
  145.0900  158.8050  133.3330 C   0  0  0  0  0  0  0  0  0  0  0  0
  145.3710  157.6880  133.8450 O   0  0  0  0  0  0  0  0  0  0  0  0
  146.0730  159.5170  132.5710 N   0  0  0  0  0  0  0  0  0  0  0  0
  147.3750  158.9240  132.2600 C   0  0  0  0  0  0  0  0  0  0  0  0
  148.3790  159.9530  131.7710 C   0  0  0  0  0  0  0  0  0  0  0  0
  149.2340  159.7970  132.9490 N   0  0  0  0  0  0  0  0  0  0  0  0
  148.2920  158.8040  133.4670 C   0  0  0  0  0  0  0  0  0  0  0  0
  146.4690  161.6200  133.3690 H   0  0  0  0  0  0  0  0  0  0  0  0
  141.4863  161.6794  134.1559 H   0  0  0  0  0  0  0  0  0  0  0  0
  139.4206  159.6985  134.1089 H   0  0  0  0  0  0  0  0  0  0  0  0
  139.0224  157.2278  133.8241 H   0  0  0  0  0  0  0  0  0  0  0  0
  139.8529  155.0533  133.6527 H   0  0  0  0  0  0  0  0  0  0  0  0
  141.0700  154.9852  132.3127 H   0  0  0  0  0  0  0  0  0  0  0  0
  143.2934  156.6090  133.2073 H   0  0  0  0  0  0  0  0  0  0  0  0
  145.8570  160.4950  132.2750 H   0  0  0  0  0  0  0  0  0  0  0  0
  147.0506  158.0555  131.6680 H   0  0  0  0  0  0  0  0  0  0  0  0
  148.8742  159.6675  130.8312 H   0  0  0  0  0  0  0  0  0  0  0  0
  148.0194  160.9589  131.5085 H   0  0  0  0  0  0  0  0  0  0  0  0
  150.1120  159.3040  132.6590 H   0  0  0  0  0  0  0  0  0  0  0  0
  148.7326  157.8028  133.5831 H   0  0  0  0  0  0  0  0  0  0  0  0
  147.8671  158.9511  134.4709 H   0  0  0  0  0  0  0  0  0  0  0  0
  1  2  1  0
  2  3  2  0
  2  4  1  0
  4  5  2  0
  5  6  1  0
  6  7  2  0
  7  8  1  0
  8  9  2  0
  9 10  1  0
 10 11  1  0
 11 12  1  0
 11 13  1  0
 11 14  1  0
  9 15  1  0
 15 16  2  0
 16 17  1  0
 17 18  1  0
 18 19  2  0
 18 20  1  0
 20 21  1  0
 21 22  1  0
 22 23  1  0
 23 24  1  0
 17  4  1  0
 24 21  1  0
 16  6  1  0
  1 25  1  0
  5 26  1  0
  7 27  1  0
  8 28  1  0
 10 29  1  0
 10 30  1  0
 15 31  1  0
 20 32  1  0
 21 33  1  0
 22 34  1  0
 22 35  1  0
 23 36  1  0
 24 37  1  0
 24 38  1  0
M  CHG  1   1  -1
M  END
>  <UniqueID>  (77) 
76

>  <SMILES>  (77) 
[NH-]C(=O)c1cc2ccc(CC(F)(F)F)cc2n1C(=O)NC1CNC1

>  <Energy>  (77) 
140.3558411544395

>  <Genealogy>  (77) 
[NH-]C(=O)c1cc2ccc(CC(F)(F)F)cc2n1C(=O)NC1CNC1 (protonated)
[NH-]C(=O)c1cc2ccc(CC(F)(F)F)cc2n1C(=O)NC1CNC1 (3D coordinates assigned)
[NH-]C(=O)c1cc2ccc(CC(F)(F)F)cc2n1C(=O)NC1CNC1 (nonaromatic ring conformer: 140.3558411544395 kcal/mol)

>  <smiles>  (77) 
NC(=O)c1cc2ccc(CC(F)(F)F)cc2n1C(=O)NC1CNC1

>  <score_type>  (77) 
oracle

>  <origin>  (77) 
adg

>  <m_score__min__energy>  (77) 
-7.2599999999999998

>  <m_primary>  (77) 
energy

$$$$
79:0
     RDKit          3D

 40 41  0  0  0  0  0  0  0  0999 V2000
  142.9320  161.2100  133.4650 N   0  0  0  0  0  0  0  0  0  0  0  0
  144.3200  161.3230  133.7680 C   0  0  0  0  0  0  0  0  0  0  0  0
  144.7880  162.4450  134.1040 O   0  0  0  0  0  0  0  0  0  0  0  0
  145.2250  160.1630  133.6350 C   0  0  0  0  0  0  0  0  0  0  0  0
  146.5870  160.2840  133.3680 C   0  0  0  0  0  0  0  0  0  0  0  0
  147.0470  158.9950  133.2260 C   0  0  0  0  0  0  0  0  0  0  0  0
  148.3320  158.5260  132.9680 C   0  0  0  0  0  0  0  0  0  0  0  0
  148.5270  157.1370  132.9070 C   0  0  0  0  0  0  0  0  0  0  0  0
  147.4430  156.2470  133.1040 C   0  0  0  0  0  0  0  0  0  0  0  0
  147.6710  154.7570  133.0660 C   0  0  0  0  0  0  0  0  0  0  0  0
  146.8010  154.0120  134.0850 C   0  0  0  0  0  0  0  0  0  0  0  0
  147.6410  153.7470  135.6440 S   0  0  0  0  0  0  0  0  0  0  0  0
  148.8160  152.8340  135.4450 O   0  0  0  0  0  0  0  0  0  0  0  0
  148.1130  155.0580  136.2070 O   0  0  0  0  0  0  0  0  0  0  0  0
  146.5700  153.0370  136.7250 O   0  0  0  0  0  0  0  0  0  0  0  0
  146.1530  156.7580  133.3690 C   0  0  0  0  0  0  0  0  0  0  0  0
  145.9840  158.1490  133.4100 C   0  0  0  0  0  0  0  0  0  0  0  0
  144.8580  158.8500  133.6680 N   0  0  0  0  0  0  0  0  0  0  0  0
  143.5750  158.2990  134.0070 C   0  0  0  0  0  0  0  0  0  0  0  0
  143.0980  157.3450  133.3320 O   0  0  0  0  0  0  0  0  0  0  0  0
  142.8420  158.8510  135.0600 O   0  0  0  0  0  0  0  0  0  0  0  0
  141.8080  158.1470  135.7380 C   0  0  0  0  0  0  0  0  0  0  0  0
  140.4620  158.5240  135.1370 C   0  0  0  0  0  0  0  0  0  0  0  0
  140.5980  159.7120  134.3640 O   0  0  0  0  0  0  0  0  0  0  0  0
  140.4380  159.7180  132.9930 N   0  0  0  0  0  0  0  0  0  0  0  0
  141.1840  159.0390  132.2550 O   0  0  0  0  0  0  0  0  0  0  0  0
  139.4420  160.4800  132.4330 O   0  0  0  0  0  0  0  0  0  0  0  0
  142.4540  160.2830  133.4790 H   0  0  0  0  0  0  0  0  0  0  0  0
  147.1708  161.2129  133.2877 H   0  0  0  0  0  0  0  0  0  0  0  0
  149.1696  159.2228  132.8165 H   0  0  0  0  0  0  0  0  0  0  0  0
  149.5311  156.7362  132.7043 H   0  0  0  0  0  0  0  0  0  0  0  0
  147.4311  154.3875  132.0581 H   0  0  0  0  0  0  0  0  0  0  0  0
  148.7246  154.5699  133.3207 H   0  0  0  0  0  0  0  0  0  0  0  0
  145.8918  154.6026  134.2706 H   0  0  0  0  0  0  0  0  0  0  0  0
  146.5640  153.0246  133.6621 H   0  0  0  0  0  0  0  0  0  0  0  0
  145.3025  156.0814  133.5389 H   0  0  0  0  0  0  0  0  0  0  0  0
  141.9684  157.0643  135.6287 H   0  0  0  0  0  0  0  0  0  0  0  0
  141.8213  158.4127  136.8053 H   0  0  0  0  0  0  0  0  0  0  0  0
  140.1076  157.7065  134.4919 H   0  0  0  0  0  0  0  0  0  0  0  0
  139.7370  158.6966  135.9461 H   0  0  0  0  0  0  0  0  0  0  0  0
  1  2  1  0
  2  3  2  0
  2  4  1  0
  4  5  2  0
  5  6  1  0
  6  7  2  0
  7  8  1  0
  8  9  2  0
  9 10  1  0
 10 11  1  0
 11 12  1  0
 12 13  2  0
 12 14  2  0
 12 15  1  0
  9 16  1  0
 16 17  2  0
 17 18  1  0
 18 19  1  0
 19 20  2  0
 19 21  1  0
 21 22  1  0
 22 23  1  0
 23 24  1  0
 24 25  1  0
 25 26  2  0
 25 27  1  0
 18  4  1  0
 17  6  1  0
  1 28  1  0
  5 29  1  0
  7 30  1  0
  8 31  1  0
 10 32  1  0
 10 33  1  0
 11 34  1  0
 11 35  1  0
 16 36  1  0
 22 37  1  0
 22 38  1  0
 23 39  1  0
 23 40  1  0
M  CHG  4   1  -1  15  -1  25   1  27  -1
M  END
>  <UniqueID>  (78) 
77

>  <SMILES>  (78) 
[NH-]C(=O)c1cc2ccc(CCS(=O)(=O)[O-])cc2n1C(=O)OCCO[N+](=O)[O-]

>  <Energy>  (78) 
65.84964645433718

>  <Genealogy>  (78) 
[NH-]C(=O)c1cc2ccc(CCS(=O)(=O)[O-])cc2n1C(=O)OCCO[N+](=O)[O-] (protonated)
[NH-]C(=O)c1cc2ccc(CCS(=O)(=O)[O-])cc2n1C(=O)OCCO[N+](=O)[O-] (3D coordinates assigned)
[NH-]C(=O)c1cc2ccc(CCS(=O)(=O)[O-])cc2n1C(=O)OCCO[N+](=O)[O-] (optimized conformer: 65.84964645433718 kcal/mol)

>  <smiles>  (78) 
NC(=O)c1cc2ccc(CCS(=O)(=O)O)cc2n1C(=O)OCCO[N+](=O)O

>  <score_type>  (78) 
oracle

>  <origin>  (78) 
adg

>  <m_score__min__energy>  (78) 
-7.0800000000000001

>  <m_primary>  (78) 
energy

$$$$
80:0
     RDKit          3D

 50 54  0  0  0  0  0  0  0  0999 V2000
  148.1660  161.2410  131.2840 N   0  0  0  0  0  0  0  0  0  0  0  0
  148.9870  160.0710  131.2740 C   0  0  0  0  0  0  0  0  0  0  0  0
  150.0520  160.0720  130.5990 O   0  0  0  0  0  0  0  0  0  0  0  0
  148.5890  158.8460  131.9970 C   0  0  0  0  0  0  0  0  0  0  0  0
  149.2350  157.6200  131.8550 C   0  0  0  0  0  0  0  0  0  0  0  0
  148.5570  156.7540  132.6820 C   0  0  0  0  0  0  0  0  0  0  0  0
  148.7800  155.4050  132.9450 C   0  0  0  0  0  0  0  0  0  0  0  0
  147.9460  154.7690  133.8790 C   0  0  0  0  0  0  0  0  0  0  0  0
  146.9260  155.4930  134.5460 C   0  0  0  0  0  0  0  0  0  0  0  0
  146.0240  154.7990  135.5230 C   0  0  0  0  0  0  0  0  0  0  0  0
  146.7450  153.8450  136.2170 F   0  0  0  0  0  0  0  0  0  0  0  0
  146.7230  156.8580  134.2470 C   0  0  0  0  0  0  0  0  0  0  0  0
  147.5530  157.4580  133.2930 C   0  0  0  0  0  0  0  0  0  0  0  0
  147.5540  158.7430  132.8760 N   0  0  0  0  0  0  0  0  0  0  0  0
  146.7430  159.8090  133.3950 C   0  0  0  0  0  0  0  0  0  0  0  0
  147.2990  160.8730  133.7790 O   0  0  0  0  0  0  0  0  0  0  0  0
  145.2680  159.6810  133.4710 C   0  0  0  0  0  0  0  0  0  0  0  0
  144.4880  160.7060  134.0260 C   0  0  0  0  0  0  0  0  0  0  0  0
  143.1010  160.5730  134.0980 C   0  0  0  0  0  0  0  0  0  0  0  0
  142.4910  159.4090  133.6040 C   0  0  0  0  0  0  0  0  0  0  0  0
  141.1050  159.2110  133.6630 O   0  0  0  0  0  0  0  0  0  0  0  0
  140.3860  158.3800  132.7540 C   0  0  1  0  0  0  0  0  0  0  0  0
  138.9180  158.2270  133.1470 C   0  0  0  0  0  0  0  0  0  0  0  0
  139.3070  159.0890  131.9510 C   0  0  1  0  0  0  0  0  0  0  0  0
  139.1020  160.5660  132.0280 C   0  0  0  0  0  0  0  0  0  0  0  0
  138.3950  160.8180  130.7040 C   0  0  0  0  0  0  0  0  0  0  0  0
  138.6610  159.7550  129.8040 O   0  0  0  0  0  0  0  0  0  0  0  0
  138.9540  158.6080  130.5700 C   0  0  0  0  0  0  0  0  0  0  0  0
  143.2640  158.4330  133.0600 N   0  0  0  0  0  0  0  0  0  0  0  0
  144.6160  158.5390  132.9790 C   0  0  0  0  0  0  0  0  0  0  0  0
  148.4960  162.1130  130.8140 H   0  0  0  0  0  0  0  0  0  0  0  0
  147.1940  161.2170  131.6610 H   0  0  0  0  0  0  0  0  0  0  0  0
  150.1022  157.3926  131.2176 H   0  0  0  0  0  0  0  0  0  0  0  0
  149.5850  154.8541  132.4366 H   0  0  0  0  0  0  0  0  0  0  0  0
  148.0855  153.6995  134.0949 H   0  0  0  0  0  0  0  0  0  0  0  0
  145.6136  155.5349  136.2301 H   0  0  0  0  0  0  0  0  0  0  0  0
  145.1996  154.3133  134.9804 H   0  0  0  0  0  0  0  0  0  0  0  0
  145.9332  157.4347  134.7506 H   0  0  0  0  0  0  0  0  0  0  0  0
  144.9715  161.6181  134.4059 H   0  0  0  0  0  0  0  0  0  0  0  0
  142.4898  161.3744  134.5387 H   0  0  0  0  0  0  0  0  0  0  0  0
  141.2151  157.7057  132.4935 H   0  0  0  0  0  0  0  0  0  0  0  0
  138.4030  157.2677  132.9902 H   0  0  0  0  0  0  0  0  0  0  0  0
  138.3368  158.3875  134.0670 H   0  0  0  0  0  0  0  0  0  0  0  0
  138.4706  160.8441  132.8848 H   0  0  0  0  0  0  0  0  0  0  0  0
  140.0231  161.1494  132.1738 H   0  0  0  0  0  0  0  0  0  0  0  0
  137.3108  160.8867  130.8769 H   0  0  0  0  0  0  0  0  0  0  0  0
  138.7632  161.7596  130.2707 H   0  0  0  0  0  0  0  0  0  0  0  0
  138.0766  157.9458  130.6119 H   0  0  0  0  0  0  0  0  0  0  0  0
  139.7827  158.0368  130.1261 H   0  0  0  0  0  0  0  0  0  0  0  0
  145.2026  157.7263  132.5258 H   0  0  0  0  0  0  0  0  0  0  0  0
  1  2  1  0
  2  3  2  0
  2  4  1  0
  4  5  2  0
  5  6  1  0
  6  7  2  0
  7  8  1  0
  8  9  2  0
  9 10  1  0
 10 11  1  0
  9 12  1  0
 12 13  2  0
 13 14  1  0
 14 15  1  0
 15 16  2  0
 15 17  1  0
 17 18  2  0
 18 19  1  0
 19 20  2  0
 20 21  1  0
 21 22  1  0
 22 23  1  0
 24 23  1  1
 24 25  1  0
 25 26  1  0
 26 27  1  0
 27 28  1  0
 20 29  1  0
 29 30  2  0
 14  4  1  0
 30 17  1  0
 13  6  1  0
 24 22  1  0
 28 24  1  0
  1 31  1  0
  1 32  1  0
  5 33  1  0
  7 34  1  0
  8 35  1  0
 10 36  1  0
 10 37  1  0
 12 38  1  0
 18 39  1  0
 19 40  1  0
 22 41  1  6
 23 42  1  0
 23 43  1  0
 25 44  1  0
 25 45  1  0
 26 46  1  0
 26 47  1  0
 28 48  1  0
 28 49  1  0
 30 50  1  0
M  END
>  <UniqueID>  (79) 
78

>  <SMILES>  (79) 
NC(=O)c1cc2ccc(CF)cc2n1C(=O)c1ccc(O[C@H]2C[C@@]23CCOC3)nc1

>  <Energy>  (79) 
370.60583496803036

>  <Genealogy>  (79) 
NC(=O)c1cc2ccc(CF)cc2n1C(=O)c1ccc(O[C@H]2C[C@@]23CCOC3)nc1 (chirality)
NC(=O)c1cc2ccc(CF)cc2n1C(=O)c1ccc(O[C@H]2C[C@@]23CCOC3)nc1 (3D coordinates assigned)
NC(=O)c1cc2ccc(CF)cc2n1C(=O)c1ccc(O[C@H]2C[C@@]23CCOC3)nc1 (nonaromatic ring conformer: 370.60583496803036 kcal/mol)

>  <smiles>  (79) 
NC(=O)c1cc2ccc(CF)cc2n1C(=O)c1ccc(OC2CC23CCOC3)nc1

>  <score_type>  (79) 
oracle

>  <origin>  (79) 
adg

>  <m_score__min__energy>  (79) 
-9.8300000000000001

>  <m_primary>  (79) 
energy

$$$$
81:0
     RDKit          3D

 36 38  0  0  0  0  0  0  0  0999 V2000
  149.3150  159.8090  130.7920 C   0  0  0  0  0  0  0  0  0  0  0  0
  148.8840  158.7430  131.4630 C   0  0  0  0  0  0  0  0  0  0  0  0
  148.3450  158.8320  132.8330 C   0  0  0  0  0  0  0  0  0  0  0  0
  149.0190  159.3800  133.7470 O   0  0  0  0  0  0  0  0  0  0  0  0
  147.0620  158.2650  133.1440 N   0  0  0  0  0  0  0  0  0  0  0  0
  145.8960  158.9340  133.3640 C   0  0  0  0  0  0  0  0  0  0  0  0
  145.7480  160.3990  133.4650 C   0  0  0  0  0  0  0  0  0  0  0  0
  146.8690  161.2440  133.7270 N   0  0  0  0  0  0  0  0  0  0  0  0
  144.6010  160.9130  133.3650 O   0  0  0  0  0  0  0  0  0  0  0  0
  144.8370  158.0410  133.5020 C   0  0  0  0  0  0  0  0  0  0  0  0
  145.3950  156.7900  133.3630 C   0  0  0  0  0  0  0  0  0  0  0  0
  144.7930  155.5360  133.3830 C   0  0  0  0  0  0  0  0  0  0  0  0
  145.6060  154.4120  133.1580 C   0  0  0  0  0  0  0  0  0  0  0  0
  146.9950  154.5590  132.9080 C   0  0  0  0  0  0  0  0  0  0  0  0
  147.8360  153.3660  132.6480 C   0  0  0  0  0  0  0  0  0  0  0  0
  147.2440  152.0930  132.5610 C   0  0  0  0  0  0  0  0  0  0  0  0
  148.0270  150.9620  132.3100 C   0  0  0  0  0  0  0  0  0  0  0  0
  149.4070  151.0890  132.1450 C   0  0  0  0  0  0  0  0  0  0  0  0
  150.1650  149.9910  131.9030 F   0  0  0  0  0  0  0  0  0  0  0  0
  150.0090  152.3470  132.2360 C   0  0  0  0  0  0  0  0  0  0  0  0
  149.2320  153.4830  132.4860 C   0  0  0  0  0  0  0  0  0  0  0  0
  149.8490  154.6870  132.6050 F   0  0  0  0  0  0  0  0  0  0  0  0
  147.5650  155.8530  132.8850 C   0  0  0  0  0  0  0  0  0  0  0  0
  146.7380  156.9520  133.1430 C   0  0  0  0  0  0  0  0  0  0  0  0
  149.7092  159.6942  129.7715 H   0  0  0  0  0  0  0  0  0  0  0  0
  149.2769  160.8047  131.2581 H   0  0  0  0  0  0  0  0  0  0  0  0
  148.9317  157.7575  130.9767 H   0  0  0  0  0  0  0  0  0  0  0  0
  147.7930  160.8480  134.0040 H   0  0  0  0  0  0  0  0  0  0  0  0
  146.7500  162.2820  133.7410 H   0  0  0  0  0  0  0  0  0  0  0  0
  143.7795  158.2833  133.6835 H   0  0  0  0  0  0  0  0  0  0  0  0
  143.7143  155.4276  133.5691 H   0  0  0  0  0  0  0  0  0  0  0  0
  145.1604  153.4065  133.1759 H   0  0  0  0  0  0  0  0  0  0  0  0
  146.1570  151.9864  132.6914 H   0  0  0  0  0  0  0  0  0  0  0  0
  147.5546  149.9709  132.2425 H   0  0  0  0  0  0  0  0  0  0  0  0
  151.0975  152.4441  132.1106 H   0  0  0  0  0  0  0  0  0  0  0  0
  148.6345  155.9925  132.6691 H   0  0  0  0  0  0  0  0  0  0  0  0
  1  2  2  0
  2  3  1  0
  3  4  2  0
  3  5  1  0
  5  6  1  0
  6  7  1  0
  7  8  1  0
  7  9  2  0
  6 10  2  0
 10 11  1  0
 11 12  2  0
 12 13  1  0
 13 14  2  0
 14 15  1  0
 15 16  2  0
 16 17  1  0
 17 18  2  0
 18 19  1  0
 18 20  1  0
 20 21  2  0
 21 22  1  0
 14 23  1  0
 23 24  2  0
 24  5  1  0
 24 11  1  0
 21 15  1  0
  1 25  1  0
  1 26  1  0
  2 27  1  0
  8 28  1  0
  8 29  1  0
 10 30  1  0
 12 31  1  0
 13 32  1  0
 16 33  1  0
 17 34  1  0
 20 35  1  0
 23 36  1  0
M  END
>  <UniqueID>  (80) 
79

>  <SMILES>  (80) 
C=CC(=O)n1c(C(N)=O)cc2ccc(-c3ccc(F)cc3F)cc21

>  <Energy>  (80) 
83.76087264164468

>  <Genealogy>  (80) 
C=CC(=O)n1c(C(N)=O)cc2ccc(-c3ccc(F)cc3F)cc21 (3D coordinates assigned)
C=CC(=O)n1c(C(N)=O)cc2ccc(-c3ccc(F)cc3F)cc21 (optimized conformer: 83.76087264164468 kcal/mol)

>  <smiles>  (80) 
C=CC(=O)n1c(C(N)=O)cc2ccc(-c3ccc(F)cc3F)cc21

>  <score_type>  (80) 
oracle

>  <origin>  (80) 
adg

>  <m_score__min__energy>  (80) 
-7.7599999999999998

>  <m_primary>  (80) 
energy

$$$$
82:0
     RDKit          3D

 49 50  0  0  0  0  0  0  0  0999 V2000
  138.1840  158.5840  132.2780 C   0  0  0  0  0  0  0  0  0  0  0  0
  139.2850  159.6040  131.9430 C   0  0  0  0  0  0  0  0  0  0  0  0
  139.1750  160.0040  130.4620 C   0  0  0  0  0  0  0  0  0  0  0  0
  140.6910  159.0360  132.2760 C   0  0  2  0  0  0  0  0  0  0  0  0
  140.6060  157.6110  132.6140 N   0  0  0  0  0  0  0  0  0  0  0  0
  141.3400  159.7930  133.4080 C   0  0  0  0  0  0  0  0  0  0  0  0
  141.3760  161.0550  133.3750 O   0  0  0  0  0  0  0  0  0  0  0  0
  141.8890  159.0950  134.4880 O   0  0  0  0  0  0  0  0  0  0  0  0
  141.1440  158.7840  135.6570 C   0  0  0  0  0  0  0  0  0  0  0  0
  140.5760  157.4870  135.5180 O   0  0  0  0  0  0  0  0  0  0  0  0
  141.2010  156.3340  136.0000 C   0  0  0  0  0  0  0  0  0  0  0  0
  141.9610  156.3970  137.0070 O   0  0  0  0  0  0  0  0  0  0  0  0
  140.9770  155.1210  135.3380 O   0  0  0  0  0  0  0  0  0  0  0  0
  141.2390  154.8840  133.9810 C   0  0  0  0  0  0  0  0  0  0  0  0
  140.4540  155.3080  133.0900 O   0  0  0  0  0  0  0  0  0  0  0  0
  142.4090  154.1390  133.6060 N   0  0  0  0  0  0  0  0  0  0  0  0
  143.6700  154.6170  133.4010 C   0  0  0  0  0  0  0  0  0  0  0  0
  144.1200  155.9990  133.6780 C   0  0  0  0  0  0  0  0  0  0  0  0
  143.1690  157.0400  133.9180 N   0  0  0  0  0  0  0  0  0  0  0  0
  145.3480  156.2790  133.6770 O   0  0  0  0  0  0  0  0  0  0  0  0
  144.5170  153.5940  132.9790 C   0  0  0  0  0  0  0  0  0  0  0  0
  143.7310  152.4660  132.9340 C   0  0  0  0  0  0  0  0  0  0  0  0
  144.0620  151.1610  132.5810 C   0  0  0  0  0  0  0  0  0  0  0  0
  143.0430  150.1940  132.6060 C   0  0  0  0  0  0  0  0  0  0  0  0
  141.7140  150.5490  132.9540 C   0  0  0  0  0  0  0  0  0  0  0  0
  140.6380  149.4940  133.0160 C   0  0  0  0  0  0  0  0  0  0  0  0
  141.0790  148.3100  132.4500 F   0  0  0  0  0  0  0  0  0  0  0  0
  139.5260  149.9380  132.3240 F   0  0  0  0  0  0  0  0  0  0  0  0
  140.2790  149.2370  134.3280 F   0  0  0  0  0  0  0  0  0  0  0  0
  141.4250  151.8820  133.3280 C   0  0  0  0  0  0  0  0  0  0  0  0
  142.4630  152.8200  133.3140 C   0  0  0  0  0  0  0  0  0  0  0  0
  138.0872  158.4943  133.3701 H   0  0  0  0  0  0  0  0  0  0  0  0
  137.2282  158.9229  131.8518 H   0  0  0  0  0  0  0  0  0  0  0  0
  138.4490  157.6052  131.8518 H   0  0  0  0  0  0  0  0  0  0  0  0
  139.1470  160.5023  132.5627 H   0  0  0  0  0  0  0  0  0  0  0  0
  138.8840  161.0623  130.3887 H   0  0  0  0  0  0  0  0  0  0  0  0
  140.1472  159.8561  129.9691 H   0  0  0  0  0  0  0  0  0  0  0  0
  138.4152  159.3798  129.9691 H   0  0  0  0  0  0  0  0  0  0  0  0
  141.3155  159.1574  131.3787 H   0  0  0  0  0  0  0  0  0  0  0  0
  141.3030  157.0850  132.0370 H   0  0  0  0  0  0  0  0  0  0  0  0
  140.8610  157.4740  133.6200 H   0  0  0  0  0  0  0  0  0  0  0  0
  141.8091  158.8025  136.5330 H   0  0  0  0  0  0  0  0  0  0  0  0
  140.3432  159.5257  135.7933 H   0  0  0  0  0  0  0  0  0  0  0  0
  143.4930  158.0220  134.0600 H   0  0  0  0  0  0  0  0  0  0  0  0
  142.1480  156.8370  133.9880 H   0  0  0  0  0  0  0  0  0  0  0  0
  145.5865  153.6719  132.7340 H   0  0  0  0  0  0  0  0  0  0  0  0
  145.0893  150.8950  132.2915 H   0  0  0  0  0  0  0  0  0  0  0  0
  143.2782  149.1497  132.3529 H   0  0  0  0  0  0  0  0  0  0  0  0
  140.4067  152.1748  133.6234 H   0  0  0  0  0  0  0  0  0  0  0  0
  1  2  1  0
  2  3  1  0
  2  4  1  0
  4  5  1  0
  4  6  1  0
  6  7  2  0
  6  8  1  0
  8  9  1  0
  9 10  1  0
 10 11  1  0
 11 12  2  0
 11 13  1  0
 13 14  1  0
 14 15  2  0
 14 16  1  0
 16 17  1  0
 17 18  1  0
 18 19  1  0
 18 20  2  0
 17 21  2  0
 21 22  1  0
 22 23  2  0
 23 24  1  0
 24 25  2  0
 25 26  1  0
 26 27  1  0
 26 28  1  0
 26 29  1  0
 25 30  1  0
 30 31  2  0
 31 16  1  0
 31 22  1  0
  1 32  1  0
  1 33  1  0
  1 34  1  0
  2 35  1  0
  3 36  1  0
  3 37  1  0
  3 38  1  0
  4 39  1  6
  5 40  1  0
  5 41  1  0
  9 42  1  0
  9 43  1  0
 19 44  1  0
 19 45  1  0
 21 46  1  0
 23 47  1  0
 24 48  1  0
 30 49  1  0
M  END
>  <UniqueID>  (81) 
80

>  <SMILES>  (81) 
CC(C)[C@H](N)C(=O)OCOC(=O)OC(=O)n1c(C(N)=O)cc2ccc(C(F)(F)F)cc21

>  <Energy>  (81) 
80.3346768821176

>  <Genealogy>  (81) 
CC(C)[C@H](N)C(=O)OCOC(=O)OC(=O)n1c(C(N)=O)cc2ccc(C(F)(F)F)cc21 (3D coordinates assigned)
CC(C)[C@H](N)C(=O)OCOC(=O)OC(=O)n1c(C(N)=O)cc2ccc(C(F)(F)F)cc21 (optimized conformer: 80.3346768821176 kcal/mol)

>  <smiles>  (81) 
CC(C)[C@H](N)C(=O)OCOC(=O)OC(=O)n1c(C(N)=O)cc2ccc(C(F)(F)F)cc21

>  <score_type>  (81) 
oracle

>  <origin>  (81) 
adg

>  <m_score__min__energy>  (81) 
-8.2200000000000006

>  <m_primary>  (81) 
energy

$$$$
83:0
     RDKit          3D

 41 43  0  0  0  0  0  0  0  0999 V2000
  139.2180  159.7270  131.9900 C   0  0  0  0  0  0  0  0  0  0  0  0
  140.1060  158.5920  132.2950 N   0  0  0  0  0  0  0  0  0  0  0  0
  139.3870  157.3110  132.2150 C   0  0  0  0  0  0  0  0  0  0  0  0
  139.4970  157.0630  133.7080 C   0  0  0  0  0  0  0  0  0  0  0  0
  140.3430  155.9550  134.0000 O   0  0  0  0  0  0  0  0  0  0  0  0
  140.3620  154.7930  133.2240 C   0  0  0  0  0  0  0  0  0  0  0  0
  139.3200  154.4160  132.6220 O   0  0  0  0  0  0  0  0  0  0  0  0
  141.5700  154.0200  133.1250 N   0  0  0  0  0  0  0  0  0  0  0  0
  142.8470  154.4840  133.0230 C   0  0  0  0  0  0  0  0  0  0  0  0
  143.2700  155.8920  133.1610 C   0  0  0  0  0  0  0  0  0  0  0  0
  142.4790  156.9580  132.6310 N   0  0  0  0  0  0  0  0  0  0  0  0
  144.3170  156.1630  133.8070 O   0  0  0  0  0  0  0  0  0  0  0  0
  143.7360  153.4350  132.8110 C   0  0  0  0  0  0  0  0  0  0  0  0
  142.9600  152.2980  132.8000 C   0  0  0  0  0  0  0  0  0  0  0  0
  143.3240  150.9700  132.6030 C   0  0  0  0  0  0  0  0  0  0  0  0
  142.3050  150.0020  132.5930 C   0  0  0  0  0  0  0  0  0  0  0  0
  140.9520  150.3770  132.7760 C   0  0  0  0  0  0  0  0  0  0  0  0
  139.8640  149.3360  132.7190 C   0  0  0  0  0  0  0  0  0  0  0  0
  139.4340  149.0500  131.2800 C   0  0  0  0  0  0  0  0  0  0  0  0
  139.7660  147.7530  130.9290 F   0  0  0  0  0  0  0  0  0  0  0  0
  138.0690  149.2240  131.1440 F   0  0  0  0  0  0  0  0  0  0  0  0
  140.0830  149.9230  130.4260 F   0  0  0  0  0  0  0  0  0  0  0  0
  140.6190  151.7370  132.9620 C   0  0  0  0  0  0  0  0  0  0  0  0
  141.6550  152.6770  132.9890 C   0  0  0  0  0  0  0  0  0  0  0  0
  140.2380  158.3880  133.7450 C   0  0  0  0  0  0  0  0  0  0  0  0
  138.8646  160.1787  132.9287 H   0  0  0  0  0  0  0  0  0  0  0  0
  139.7705  160.4784  131.4068 H   0  0  0  0  0  0  0  0  0  0  0  0
  138.3557  159.3715  131.4068 H   0  0  0  0  0  0  0  0  0  0  0  0
  138.3494  157.4135  131.8644 H   0  0  0  0  0  0  0  0  0  0  0  0
  139.7549  156.5400  131.5220 H   0  0  0  0  0  0  0  0  0  0  0  0
  138.6338  156.8424  134.3532 H   0  0  0  0  0  0  0  0  0  0  0  0
  141.5250  156.7810  132.2450 H   0  0  0  0  0  0  0  0  0  0  0  0
  142.8140  157.9440  132.7030 H   0  0  0  0  0  0  0  0  0  0  0  0
  144.8262  153.5002  132.6801 H   0  0  0  0  0  0  0  0  0  0  0  0
  144.3770  150.6861  132.4594 H   0  0  0  0  0  0  0  0  0  0  0  0
  142.5611  148.9430  132.4416 H   0  0  0  0  0  0  0  0  0  0  0  0
  140.2362  148.4053  133.1721 H   0  0  0  0  0  0  0  0  0  0  0  0
  138.9919  149.7191  133.2691 H   0  0  0  0  0  0  0  0  0  0  0  0
  139.5712  152.0494  133.0826 H   0  0  0  0  0  0  0  0  0  0  0  0
  139.7276  159.1575  134.3428 H   0  0  0  0  0  0  0  0  0  0  0  0
  141.2412  158.4209  134.1949 H   0  0  0  0  0  0  0  0  0  0  0  0
  1  2  1  0
  2  3  1  0
  3  4  1  0
  4  5  1  0
  5  6  1  0
  6  7  2  0
  6  8  1  0
  8  9  1  0
  9 10  1  0
 10 11  1  0
 10 12  2  0
  9 13  2  0
 13 14  1  0
 14 15  2  0
 15 16  1  0
 16 17  2  0
 17 18  1  0
 18 19  1  0
 19 20  1  0
 19 21  1  0
 19 22  1  0
 17 23  1  0
 23 24  2  0
  4 25  1  0
 25  2  1  0
 24  8  1  0
 24 14  1  0
  1 26  1  0
  1 27  1  0
  1 28  1  0
  3 29  1  0
  3 30  1  0
  4 31  1  0
 11 32  1  0
 11 33  1  0
 13 34  1  0
 15 35  1  0
 16 36  1  0
 18 37  1  0
 18 38  1  0
 23 39  1  0
 25 40  1  0
 25 41  1  0
M  END
>  <UniqueID>  (82) 
81

>  <SMILES>  (82) 
CN1CC(OC(=O)n2c(C(N)=O)cc3ccc(CC(F)(F)F)cc32)C1

>  <Energy>  (82) 
145.76862965861864

>  <Genealogy>  (82) 
CN1CC(OC(=O)n2c(C(N)=O)cc3ccc(CC(F)(F)F)cc32)C1 (3D coordinates assigned)
CN1CC(OC(=O)n2c(C(N)=O)cc3ccc(CC(F)(F)F)cc32)C1 (nonaromatic ring conformer: 145.76862965861864 kcal/mol)

>  <smiles>  (82) 
CN1CC(OC(=O)n2c(C(N)=O)cc3ccc(CC(F)(F)F)cc32)C1

>  <score_type>  (82) 
oracle

>  <origin>  (82) 
adg

>  <m_score__min__energy>  (82) 
-6.96

>  <m_primary>  (82) 
energy

$$$$
84:0
     RDKit          3D

 28 29  0  0  0  0  0  0  0  0999 V2000
  141.6570  158.5520  134.9260 C   0  0  0  0  0  0  0  0  0  0  0  0
  143.0710  158.4130  134.8680 O   0  0  0  0  0  0  0  0  0  0  0  0
  143.7760  158.3760  133.6610 C   0  0  0  0  0  0  0  0  0  0  0  0
  143.2630  157.8400  132.6420 O   0  0  0  0  0  0  0  0  0  0  0  0
  145.0780  158.9760  133.5770 N   0  0  0  0  0  0  0  0  0  0  0  0
  145.3810  160.3050  133.5530 C   0  0  0  0  0  0  0  0  0  0  0  0
  144.4360  161.4160  133.7860 C   0  0  0  0  0  0  0  0  0  0  0  0
  143.0280  161.2050  133.7270 N   0  0  0  0  0  0  0  0  0  0  0  0
  144.8760  162.5580  134.0900 O   0  0  0  0  0  0  0  0  0  0  0  0
  146.7480  160.4910  133.3560 C   0  0  0  0  0  0  0  0  0  0  0  0
  147.2800  159.2250  133.2690 C   0  0  0  0  0  0  0  0  0  0  0  0
  148.5920  158.8190  133.0500 C   0  0  0  0  0  0  0  0  0  0  0  0
  148.8510  157.4420  132.9670 C   0  0  0  0  0  0  0  0  0  0  0  0
  147.8030  156.4960  133.1120 C   0  0  0  0  0  0  0  0  0  0  0  0
  148.0840  155.0230  132.9560 C   0  0  0  0  0  0  0  0  0  0  0  0
  149.2650  154.8220  132.2630 F   0  0  0  0  0  0  0  0  0  0  0  0
  148.2010  154.4150  134.1950 F   0  0  0  0  0  0  0  0  0  0  0  0
  147.0470  154.4320  132.2600 F   0  0  0  0  0  0  0  0  0  0  0  0
  146.4770  156.9500  133.3080 C   0  0  0  0  0  0  0  0  0  0  0  0
  146.2520  158.3280  133.4050 C   0  0  0  0  0  0  0  0  0  0  0  0
  141.3345  158.5837  135.9772 H   0  0  0  0  0  0  0  0  0  0  0  0
  141.3592  159.4838  134.4228 H   0  0  0  0  0  0  0  0  0  0  0  0
  141.1835  157.6961  134.4228 H   0  0  0  0  0  0  0  0  0  0  0  0
  142.6280  160.2410  133.7380 H   0  0  0  0  0  0  0  0  0  0  0  0
  147.2873  161.4471  133.2851 H   0  0  0  0  0  0  0  0  0  0  0  0
  149.4026  159.5551  132.9450 H   0  0  0  0  0  0  0  0  0  0  0  0
  149.8782  157.0920  132.7875 H   0  0  0  0  0  0  0  0  0  0  0  0
  145.6429  156.2367  133.3824 H   0  0  0  0  0  0  0  0  0  0  0  0
  1  2  1  0
  2  3  1  0
  3  4  2  0
  3  5  1  0
  5  6  1  0
  6  7  1  0
  7  8  1  0
  7  9  2  0
  6 10  2  0
 10 11  1  0
 11 12  2  0
 12 13  1  0
 13 14  2  0
 14 15  1  0
 15 16  1  0
 15 17  1  0
 15 18  1  0
 14 19  1  0
 19 20  2  0
 20  5  1  0
 20 11  1  0
  1 21  1  0
  1 22  1  0
  1 23  1  0
  8 24  1  0
 10 25  1  0
 12 26  1  0
 13 27  1  0
 19 28  1  0
M  CHG  1   8  -1
M  END
>  <UniqueID>  (83) 
82

>  <SMILES>  (83) 
COC(=O)n1c(C([NH-])=O)cc2ccc(C(F)(F)F)cc21

>  <Energy>  (83) 
66.2850885324327

>  <Genealogy>  (83) 
COC(=O)n1c(C([NH-])=O)cc2ccc(C(F)(F)F)cc21 (protonated)
COC(=O)n1c(C([NH-])=O)cc2ccc(C(F)(F)F)cc21 (3D coordinates assigned)
COC(=O)n1c(C([NH-])=O)cc2ccc(C(F)(F)F)cc21 (optimized conformer: 66.2850885324327 kcal/mol)

>  <smiles>  (83) 
COC(=O)n1c(C(N)=O)cc2ccc(C(F)(F)F)cc21

>  <score_type>  (83) 
oracle

>  <origin>  (83) 
adg

>  <m_score__min__energy>  (83) 
-5.1799999999999997

>  <m_primary>  (83) 
energy

$$$$
85:0
     RDKit          3D

 48 50  0  0  0  0  0  0  0  0999 V2000
  139.4360  160.0900  131.6860 C   0  0  0  0  0  0  0  0  0  0  0  0
  139.7590  159.7370  133.0710 N   0  0  0  0  0  0  0  0  0  0  0  0
  140.0220  158.2970  133.2310 C   0  0  0  0  0  0  0  0  0  0  0  0
  141.2830  157.8430  132.4780 C   0  0  0  0  0  0  0  0  0  0  0  0
  142.0030  156.7210  133.2340 C   0  0  0  0  0  0  0  0  0  0  0  0
  142.8660  157.2960  134.3160 C   0  0  0  0  0  0  0  0  0  0  0  0
  142.7320  156.8970  135.5050 O   0  0  0  0  0  0  0  0  0  0  0  0
  143.9220  158.2050  133.9860 N   0  0  0  0  0  0  0  0  0  0  0  0
  143.8520  159.5570  133.8440 C   0  0  0  0  0  0  0  0  0  0  0  0
  142.6650  160.3940  134.1220 C   0  0  0  0  0  0  0  0  0  0  0  0
  141.7640  160.0620  135.1750 N   0  0  0  0  0  0  0  0  0  0  0  0
  142.4530  161.4270  133.4320 O   0  0  0  0  0  0  0  0  0  0  0  0
  145.0780  160.0630  133.4130 C   0  0  0  0  0  0  0  0  0  0  0  0
  145.9020  158.9650  133.2910 C   0  0  0  0  0  0  0  0  0  0  0  0
  147.2230  158.8750  132.8630 C   0  0  0  0  0  0  0  0  0  0  0  0
  147.8060  157.5990  132.7900 C   0  0  0  0  0  0  0  0  0  0  0  0
  147.0670  156.4380  133.1430 C   0  0  0  0  0  0  0  0  0  0  0  0
  147.6860  155.0900  133.0420 C   0  0  0  0  0  0  0  0  0  0  0  0
  149.0090  154.9390  132.6020 C   0  0  0  0  0  0  0  0  0  0  0  0
  149.5810  153.6700  132.5140 C   0  0  0  0  0  0  0  0  0  0  0  0
  148.8220  152.5400  132.8530 C   0  0  0  0  0  0  0  0  0  0  0  0
  149.4370  151.1650  132.8110 C   0  0  0  0  0  0  0  0  0  0  0  0
  148.4700  150.2160  132.5280 F   0  0  0  0  0  0  0  0  0  0  0  0
  150.0020  150.8800  134.0400 F   0  0  0  0  0  0  0  0  0  0  0  0
  150.4160  151.0900  131.8340 F   0  0  0  0  0  0  0  0  0  0  0  0
  147.5440  152.7070  133.3060 N   0  0  0  0  0  0  0  0  0  0  0  0
  146.9680  153.9360  133.3960 C   0  0  0  0  0  0  0  0  0  0  0  0
  145.7280  156.5760  133.5810 C   0  0  0  0  0  0  0  0  0  0  0  0
  145.1780  157.8590  133.6440 C   0  0  0  0  0  0  0  0  0  0  0  0
  138.6935  160.9015  131.6781 H   0  0  0  0  0  0  0  0  0  0  0  0
  140.3487  160.4230  131.1701 H   0  0  0  0  0  0  0  0  0  0  0  0
  139.0234  159.2104  131.1701 H   0  0  0  0  0  0  0  0  0  0  0  0
  140.5970  160.2870  133.3730 H   0  0  0  0  0  0  0  0  0  0  0  0
  140.1521  158.0787  134.3012 H   0  0  0  0  0  0  0  0  0  0  0  0
  139.1653  157.7512  132.8089 H   0  0  0  0  0  0  0  0  0  0  0  0
  140.9943  157.4771  131.4816 H   0  0  0  0  0  0  0  0  0  0  0  0
  141.9663  158.7007  132.3918 H   0  0  0  0  0  0  0  0  0  0  0  0
  141.2571  156.0487  133.6831 H   0  0  0  0  0  0  0  0  0  0  0  0
  142.6362  156.1624  132.5290 H   0  0  0  0  0  0  0  0  0  0  0  0
  140.7400  159.9580  134.9930 H   0  0  0  0  0  0  0  0  0  0  0  0
  145.3330  161.1142  133.2131 H   0  0  0  0  0  0  0  0  0  0  0  0
  147.7932  159.7753  132.5903 H   0  0  0  0  0  0  0  0  0  0  0  0
  148.8488  157.4973  132.4550 H   0  0  0  0  0  0  0  0  0  0  0  0
  149.5983  155.8255  132.3250 H   0  0  0  0  0  0  0  0  0  0  0  0
  150.6229  153.5557  132.1802 H   0  0  0  0  0  0  0  0  0  0  0  0
  146.9800  151.8760  133.5920 H   0  0  0  0  0  0  0  0  0  0  0  0
  145.9303  154.0269  133.7493 H   0  0  0  0  0  0  0  0  0  0  0  0
  145.1347  155.6944  133.8650 H   0  0  0  0  0  0  0  0  0  0  0  0
  1  2  1  0
  2  3  1  0
  3  4  1  0
  4  5  1  0
  5  6  1  0
  6  7  2  0
  6  8  1  0
  8  9  1  0
  9 10  1  0
 10 11  1  0
 10 12  2  0
  9 13  2  0
 13 14  1  0
 14 15  2  0
 15 16  1  0
 16 17  2  0
 17 18  1  0
 18 19  2  0
 19 20  1  0
 20 21  2  0
 21 22  1  0
 22 23  1  0
 22 24  1  0
 22 25  1  0
 21 26  1  0
 26 27  2  0
 17 28  1  0
 28 29  2  0
 29  8  1  0
 29 14  1  0
 27 18  1  0
  1 30  1  0
  1 31  1  0
  1 32  1  0
  2 33  1  0
  3 34  1  0
  3 35  1  0
  4 36  1  0
  4 37  1  0
  5 38  1  0
  5 39  1  0
 11 40  1  0
 13 41  1  0
 15 42  1  0
 16 43  1  0
 19 44  1  0
 20 45  1  0
 26 46  1  0
 27 47  1  0
 28 48  1  0
M  CHG  2  11  -1  26   1
M  END
>  <UniqueID>  (84) 
83

>  <SMILES>  (84) 
CNCCCC(=O)n1c(C([NH-])=O)cc2ccc(-c3ccc(C(F)(F)F)[nH+]c3)cc21

>  <Energy>  (84) 
90.07238889494582

>  <Genealogy>  (84) 
CNCCCC(=O)n1c(C([NH-])=O)cc2ccc(-c3ccc(C(F)(F)F)[nH+]c3)cc21 (protonated)
CNCCCC(=O)n1c(C([NH-])=O)cc2ccc(-c3ccc(C(F)(F)F)[nH+]c3)cc21 (3D coordinates assigned)
CNCCCC(=O)n1c(C([NH-])=O)cc2ccc(-c3ccc(C(F)(F)F)[nH+]c3)cc21 (optimized conformer: 90.07238889494582 kcal/mol)

>  <smiles>  (84) 
CNCCCC(=O)n1c(C(N)=O)cc2ccc(-c3ccc(C(F)(F)F)nc3)cc21

>  <score_type>  (84) 
oracle

>  <origin>  (84) 
adg

>  <m_score__min__energy>  (84) 
-8.1500000000000004

>  <m_primary>  (84) 
energy

$$$$
86:0
     RDKit          3D

 34 35  0  0  0  0  0  0  0  0999 V2000
  148.5660  152.8800  133.8850 C   0  0  0  0  0  0  0  0  0  0  0  0
  147.6040  153.7930  134.5070 N   0  0  0  0  0  0  0  0  0  0  0  0
  146.6620  154.5530  133.6760 C   0  0  0  0  0  0  0  0  0  0  0  0
  147.4160  155.3290  132.5930 C   0  0  0  0  0  0  0  0  0  0  0  0
  147.3660  156.8080  132.8690 C   0  0  0  0  0  0  0  0  0  0  0  0
  148.5450  157.5880  132.7760 C   0  0  0  0  0  0  0  0  0  0  0  0
  148.5060  158.9720  133.0110 C   0  0  0  0  0  0  0  0  0  0  0  0
  147.2760  159.5480  133.3170 C   0  0  0  0  0  0  0  0  0  0  0  0
  146.9590  160.8550  133.6070 C   0  0  0  0  0  0  0  0  0  0  0  0
  145.5860  160.8610  133.8370 C   0  0  0  0  0  0  0  0  0  0  0  0
  144.8120  162.0910  134.1020 C   0  0  0  0  0  0  0  0  0  0  0  0
  143.4800  162.2110  133.6060 N   0  0  0  0  0  0  0  0  0  0  0  0
  145.2980  163.0240  134.7940 O   0  0  0  0  0  0  0  0  0  0  0  0
  145.0730  159.6030  133.7030 N   0  0  0  0  0  0  0  0  0  0  0  0
  143.7190  159.1740  133.9150 C   0  0  0  0  0  0  0  0  0  0  0  0
  143.0570  159.6140  134.8930 O   0  0  0  0  0  0  0  0  0  0  0  0
  143.1320  158.2510  133.0580 O   0  0  0  0  0  0  0  0  0  0  0  0
  146.1210  158.8120  133.3820 C   0  0  0  0  0  0  0  0  0  0  0  0
  146.1340  157.4280  133.1710 C   0  0  0  0  0  0  0  0  0  0  0  0
  147.5950  153.9500  135.9380 C   0  0  0  0  0  0  0  0  0  0  0  0
  148.1230  154.9610  136.4730 O   0  0  0  0  0  0  0  0  0  0  0  0
  147.0050  152.9870  136.7500 O   0  0  0  0  0  0  0  0  0  0  0  0
  149.1262  152.3483  134.6683 H   0  0  0  0  0  0  0  0  0  0  0  0
  148.0288  152.1516  133.2598 H   0  0  0  0  0  0  0  0  0  0  0  0
  149.2654  153.4545  133.2598 H   0  0  0  0  0  0  0  0  0  0  0  0
  145.9559  153.8574  133.1990 H   0  0  0  0  0  0  0  0  0  0  0  0
  146.1169  155.2652  134.3128 H   0  0  0  0  0  0  0  0  0  0  0  0
  148.4654  154.9996  132.5766 H   0  0  0  0  0  0  0  0  0  0  0  0
  146.9405  155.1334  131.6205 H   0  0  0  0  0  0  0  0  0  0  0  0
  149.4991  157.1054  132.5175 H   0  0  0  0  0  0  0  0  0  0  0  0
  149.4194  159.5824  132.9550 H   0  0  0  0  0  0  0  0  0  0  0  0
  147.6453  161.7137  133.6484 H   0  0  0  0  0  0  0  0  0  0  0  0
  142.7650  161.4750  133.8020 H   0  0  0  0  0  0  0  0  0  0  0  0
  145.2078  156.8385  133.2388 H   0  0  0  0  0  0  0  0  0  0  0  0
  1  2  1  0
  2  3  1  0
  3  4  1  0
  4  5  1  0
  5  6  2  0
  6  7  1  0
  7  8  2  0
  8  9  1  0
  9 10  2  0
 10 11  1  0
 11 12  1  0
 11 13  2  0
 10 14  1  0
 14 15  1  0
 15 16  2  0
 15 17  1  0
 14 18  1  0
 18 19  2  0
  2 20  1  0
 20 21  2  0
 20 22  1  0
 19  5  1  0
 18  8  1  0
  1 23  1  0
  1 24  1  0
  1 25  1  0
  3 26  1  0
  3 27  1  0
  4 28  1  0
  4 29  1  0
  6 30  1  0
  7 31  1  0
  9 32  1  0
 12 33  1  0
 19 34  1  0
M  CHG  3  12  -1  17  -1  22  -1
M  END
>  <UniqueID>  (85) 
84

>  <SMILES>  (85) 
CN(CCc1ccc2cc(C([NH-])=O)n(C(=O)[O-])c2c1)C(=O)[O-]

>  <Energy>  (85) 
68.1225010821624

>  <Genealogy>  (85) 
CN(CCc1ccc2cc(C([NH-])=O)n(C(=O)[O-])c2c1)C(=O)[O-] (protonated)
CN(CCc1ccc2cc(C([NH-])=O)n(C(=O)[O-])c2c1)C(=O)[O-] (3D coordinates assigned)
CN(CCc1ccc2cc(C([NH-])=O)n(C(=O)[O-])c2c1)C(=O)[O-] (optimized conformer: 68.1225010821624 kcal/mol)

>  <smiles>  (85) 
CN(CCc1ccc2cc(C(N)=O)n(C(=O)O)c2c1)C(=O)O

>  <score_type>  (85) 
oracle

>  <origin>  (85) 
adg

>  <m_score__min__energy>  (85) 
-6.4699999999999998

>  <m_primary>  (85) 
energy

$$$$
87:0
     RDKit          3D

 32 33  0  0  0  0  0  0  0  0999 V2000
  141.4170  160.9460  133.7110 N   0  0  0  0  0  0  0  0  0  0  0  0
  142.2400  160.0530  134.4570 C   0  0  0  0  0  0  0  0  0  0  0  0
  141.8280  159.6140  135.5640 O   0  0  0  0  0  0  0  0  0  0  0  0
  143.5880  159.6830  133.9800 C   0  0  0  0  0  0  0  0  0  0  0  0
  143.9580  158.3750  133.6700 C   0  0  0  0  0  0  0  0  0  0  0  0
  145.2970  158.4380  133.3630 C   0  0  0  0  0  0  0  0  0  0  0  0
  146.1750  157.4280  132.9780 C   0  0  0  0  0  0  0  0  0  0  0  0
  147.5050  157.7840  132.6990 C   0  0  0  0  0  0  0  0  0  0  0  0
  147.9270  159.1330  132.7940 C   0  0  0  0  0  0  0  0  0  0  0  0
  149.3620  159.4960  132.5070 C   0  0  0  0  0  0  0  0  0  0  0  0
  149.4800  160.4920  131.3440 C   0  0  0  0  0  0  0  0  0  0  0  0
  149.4680  159.7980  129.9770 C   0  0  0  0  0  0  0  0  0  0  0  0
  148.2290  160.1060  129.2700 N   0  0  0  0  0  0  0  0  0  0  0  0
  147.0080  160.1300  133.1910 C   0  0  0  0  0  0  0  0  0  0  0  0
  145.6950  159.7450  133.4830 C   0  0  0  0  0  0  0  0  0  0  0  0
  144.6550  160.5230  133.8590 N   0  0  0  0  0  0  0  0  0  0  0  0
  144.6670  161.9520  133.9990 C   0  0  0  0  0  0  0  0  0  0  0  0
  143.8120  162.6580  133.4030 O   0  0  0  0  0  0  0  0  0  0  0  0
  145.6060  162.5690  134.8170 O   0  0  0  0  0  0  0  0  0  0  0  0
  141.7900  161.8580  133.3660 H   0  0  0  0  0  0  0  0  0  0  0  0
  143.3153  157.4822  133.6708 H   0  0  0  0  0  0  0  0  0  0  0  0
  145.8377  156.3843  132.8949 H   0  0  0  0  0  0  0  0  0  0  0  0
  148.2260  157.0075  132.4038 H   0  0  0  0  0  0  0  0  0  0  0  0
  149.8014  159.9483  133.4083 H   0  0  0  0  0  0  0  0  0  0  0  0
  149.8957  158.5768  132.2237 H   0  0  0  0  0  0  0  0  0  0  0  0
  148.6336  161.1929  131.3918 H   0  0  0  0  0  0  0  0  0  0  0  0
  150.4424  161.0148  131.4464 H   0  0  0  0  0  0  0  0  0  0  0  0
  150.3237  160.1505  129.3823 H   0  0  0  0  0  0  0  0  0  0  0  0
  149.5380  158.7102  130.1245 H   0  0  0  0  0  0  0  0  0  0  0  0
  147.7600  160.8910  129.7790 H   0  0  0  0  0  0  0  0  0  0  0  0
  148.4760  160.4740  128.3220 H   0  0  0  0  0  0  0  0  0  0  0  0
  147.3171  161.1828  133.2686 H   0  0  0  0  0  0  0  0  0  0  0  0
  1  2  1  0
  2  3  2  0
  2  4  1  0
  4  5  2  0
  5  6  1  0
  6  7  2  0
  7  8  1  0
  8  9  2  0
  9 10  1  0
 10 11  1  0
 11 12  1  0
 12 13  1  0
  9 14  1  0
 14 15  2  0
 15 16  1  0
 16 17  1  0
 17 18  2  0
 17 19  1  0
 16  4  1  0
 15  6  1  0
  1 20  1  0
  5 21  1  0
  7 22  1  0
  8 23  1  0
 10 24  1  0
 10 25  1  0
 11 26  1  0
 11 27  1  0
 12 28  1  0
 12 29  1  0
 13 30  1  0
 13 31  1  0
 14 32  1  0
M  CHG  2   1  -1  19  -1
M  END
>  <UniqueID>  (86) 
85

>  <SMILES>  (86) 
[NH-]C(=O)c1cc2ccc(CCCN)cc2n1C(=O)[O-]

>  <Energy>  (86) 
66.1369112603721

>  <Genealogy>  (86) 
[NH-]C(=O)c1cc2ccc(CCCN)cc2n1C(=O)[O-] (protonated)
[NH-]C(=O)c1cc2ccc(CCCN)cc2n1C(=O)[O-] (3D coordinates assigned)
[NH-]C(=O)c1cc2ccc(CCCN)cc2n1C(=O)[O-] (optimized conformer: 66.1369112603721 kcal/mol)

>  <smiles>  (86) 
NCCCc1ccc2cc(C(N)=O)n(C(=O)O)c2c1

>  <score_type>  (86) 
oracle

>  <origin>  (86) 
adg

>  <m_score__min__energy>  (86) 
-6.9299999999999997

>  <m_primary>  (86) 
energy

$$$$
88:0
     RDKit          3D

 26 27  0  0  0  0  0  0  0  0999 V2000
  142.7140  160.5140  133.3860 N   0  0  0  0  0  0  0  0  0  0  0  0
  144.0690  160.7940  133.7260 C   0  0  0  0  0  0  0  0  0  0  0  0
  144.3650  161.9240  134.1990 O   0  0  0  0  0  0  0  0  0  0  0  0
  145.1340  159.7930  133.5010 C   0  0  0  0  0  0  0  0  0  0  0  0
  146.4810  160.1190  133.3450 C   0  0  0  0  0  0  0  0  0  0  0  0
  147.1230  158.9230  133.1160 C   0  0  0  0  0  0  0  0  0  0  0  0
  148.4730  158.6540  132.9130 C   0  0  0  0  0  0  0  0  0  0  0  0
  148.8590  157.3140  132.7370 C   0  0  0  0  0  0  0  0  0  0  0  0
  147.8960  156.2740  132.7760 C   0  0  0  0  0  0  0  0  0  0  0  0
  148.3130  154.8410  132.6050 C   0  0  0  0  0  0  0  0  0  0  0  0
  149.6520  154.7850  132.2620 F   0  0  0  0  0  0  0  0  0  0  0  0
  148.1160  154.1530  133.7860 F   0  0  0  0  0  0  0  0  0  0  0  0
  146.5350  156.5860  132.9900 C   0  0  0  0  0  0  0  0  0  0  0  0
  146.1790  157.9300  133.1420 C   0  0  0  0  0  0  0  0  0  0  0  0
  144.9530  158.4490  133.3720 N   0  0  0  0  0  0  0  0  0  0  0  0
  143.7350  157.7080  133.5400 C   0  0  0  0  0  0  0  0  0  0  0  0
  142.8370  157.7750  132.6590 O   0  0  0  0  0  0  0  0  0  0  0  0
  143.5210  156.8680  134.7270 C   0  0  0  0  0  0  0  0  0  0  0  0
  144.3390  155.9560  135.0180 O   0  0  0  0  0  0  0  0  0  0  0  0
  142.4030  157.0660  135.5280 O   0  0  0  0  0  0  0  0  0  0  0  0
  142.4790  159.9030  132.5740 H   0  0  0  0  0  0  0  0  0  0  0  0
  146.9345  161.1200  133.3945 H   0  0  0  0  0  0  0  0  0  0  0  0
  149.2155  159.4653  132.8909 H   0  0  0  0  0  0  0  0  0  0  0  0
  149.9181  157.0698  132.5674 H   0  0  0  0  0  0  0  0  0  0  0  0
  147.7083  154.3825  131.8087 H   0  0  0  0  0  0  0  0  0  0  0  0
  145.7747  155.7923  133.0359 H   0  0  0  0  0  0  0  0  0  0  0  0
  1  2  1  0
  2  3  2  0
  2  4  1  0
  4  5  2  0
  5  6  1  0
  6  7  2  0
  7  8  1  0
  8  9  2  0
  9 10  1  0
 10 11  1  0
 10 12  1  0
  9 13  1  0
 13 14  2  0
 14 15  1  0
 15 16  1  0
 16 17  2  0
 16 18  1  0
 18 19  2  0
 18 20  1  0
 15  4  1  0
 14  6  1  0
  1 21  1  0
  5 22  1  0
  7 23  1  0
  8 24  1  0
 10 25  1  0
 13 26  1  0
M  CHG  2   1  -1  20  -1
M  END
>  <UniqueID>  (87) 
86

>  <SMILES>  (87) 
[NH-]C(=O)c1cc2ccc(C(F)F)cc2n1C(=O)C(=O)[O-]

>  <Energy>  (87) 
65.67962304540211

>  <Genealogy>  (87) 
[NH-]C(=O)c1cc2ccc(C(F)F)cc2n1C(=O)C(=O)[O-] (protonated)
[NH-]C(=O)c1cc2ccc(C(F)F)cc2n1C(=O)C(=O)[O-] (3D coordinates assigned)
[NH-]C(=O)c1cc2ccc(C(F)F)cc2n1C(=O)C(=O)[O-] (optimized conformer: 65.67962304540211 kcal/mol)

>  <smiles>  (87) 
NC(=O)c1cc2ccc(C(F)F)cc2n1C(=O)C(=O)O

>  <score_type>  (87) 
oracle

>  <origin>  (87) 
adg

>  <m_score__min__energy>  (87) 
-5.6100000000000003

>  <m_primary>  (87) 
energy

$$$$
89:0
     RDKit          3D

 44 46  0  0  0  0  0  0  0  0999 V2000
  149.4170  161.7790  130.3650 C   0  0  0  0  0  0  0  0  0  0  0  0
  149.0750  160.5370  131.1320 C   0  0  0  0  0  0  0  0  0  0  0  0
  149.9760  159.4460  131.1500 C   0  0  0  0  0  0  0  0  0  0  0  0
  149.6460  158.2580  131.8230 C   0  0  0  0  0  0  0  0  0  0  0  0
  148.4100  158.1900  132.4600 C   0  0  0  0  0  0  0  0  0  0  0  0
  147.8400  157.1570  133.1630 C   0  0  0  0  0  0  0  0  0  0  0  0
  146.5910  157.6260  133.5530 C   0  0  0  0  0  0  0  0  0  0  0  0
  145.6530  156.8240  134.3520 C   0  0  0  0  0  0  0  0  0  0  0  0
  144.2480  156.8940  134.1110 N   0  0  0  0  0  0  0  0  0  0  0  0
  146.1000  156.0190  135.2120 O   0  0  0  0  0  0  0  0  0  0  0  0
  146.3950  158.9090  133.1320 N   0  0  0  0  0  0  0  0  0  0  0  0
  145.2940  159.7820  133.4660 C   0  0  0  0  0  0  0  0  0  0  0  0
  145.4910  160.8160  134.1600 O   0  0  0  0  0  0  0  0  0  0  0  0
  143.9660  159.4680  133.0390 N   0  0  0  0  0  0  0  0  0  0  0  0
  142.7620  159.9810  133.6880 C   0  0  2  0  0  0  0  0  0  0  0  0
  142.6190  159.4500  135.1100 C   0  0  0  0  0  0  0  0  0  0  0  0
  141.2060  158.8850  135.1940 C   0  0  0  0  0  0  0  0  0  0  0  0
  140.4920  159.3300  133.9940 N   0  0  0  0  0  0  0  0  0  0  0  0
  139.2830  158.1720  133.5010 S   0  0  0  0  0  0  0  0  0  0  0  0
  140.0750  156.6630  132.9860 C   0  0  0  0  0  0  0  0  0  0  0  0
  138.4620  158.7140  132.3640 O   0  0  0  0  0  0  0  0  0  0  0  0
  138.3780  157.8720  134.6630 O   0  0  0  0  0  0  0  0  0  0  0  0
  141.5170  159.4920  132.9660 C   0  0  0  0  0  0  0  0  0  0  0  0
  147.5220  159.2370  132.4530 C   0  0  0  0  0  0  0  0  0  0  0  0
  147.8230  160.4280  131.7750 C   0  0  0  0  0  0  0  0  0  0  0  0
  149.6415  162.5943  131.0685 H   0  0  0  0  0  0  0  0  0  0  0  0
  150.2961  161.5886  129.7319 H   0  0  0  0  0  0  0  0  0  0  0  0
  148.5643  162.0654  129.7319 H   0  0  0  0  0  0  0  0  0  0  0  0
  150.9431  159.5289  130.6325 H   0  0  0  0  0  0  0  0  0  0  0  0
  150.3430  157.4073  131.8460 H   0  0  0  0  0  0  0  0  0  0  0  0
  148.2780  156.1700  133.3725 H   0  0  0  0  0  0  0  0  0  0  0  0
  143.8690  157.4920  133.3430 H   0  0  0  0  0  0  0  0  0  0  0  0
  143.5850  156.3290  134.6870 H   0  0  0  0  0  0  0  0  0  0  0  0
  142.8571  161.0768  133.6736 H   0  0  0  0  0  0  0  0  0  0  0  0
  143.3606  158.6606  135.3019 H   0  0  0  0  0  0  0  0  0  0  0  0
  142.7884  160.2379  135.8586 H   0  0  0  0  0  0  0  0  0  0  0  0
  141.2404  157.7860  135.2268 H   0  0  0  0  0  0  0  0  0  0  0  0
  140.6977  159.2352  136.1045 H   0  0  0  0  0  0  0  0  0  0  0  0
  140.3775  156.0866  133.8727 H   0  0  0  0  0  0  0  0  0  0  0  0
  139.3731  156.0676  132.3835 H   0  0  0  0  0  0  0  0  0  0  0  0
  140.9637  156.9024  132.3835 H   0  0  0  0  0  0  0  0  0  0  0  0
  141.7159  158.5306  132.4699 H   0  0  0  0  0  0  0  0  0  0  0  0
  141.1982  160.2011  132.1879 H   0  0  0  0  0  0  0  0  0  0  0  0
  147.1006  161.2570  131.7452 H   0  0  0  0  0  0  0  0  0  0  0  0
  1  2  1  0
  2  3  2  0
  3  4  1  0
  4  5  2  0
  5  6  1  0
  6  7  2  0
  7  8  1  0
  8  9  1  0
  8 10  2  0
  7 11  1  0
 11 12  1  0
 12 13  2  0
 12 14  1  0
 14 15  1  0
 15 16  1  0
 16 17  1  0
 17 18  1  0
 18 19  1  0
 19 20  1  0
 19 21  2  0
 19 22  2  0
 18 23  1  0
 11 24  1  0
 24 25  2  0
 25  2  1  0
 24  5  1  0
 23 15  1  0
  1 26  1  0
  1 27  1  0
  1 28  1  0
  3 29  1  0
  4 30  1  0
  6 31  1  0
  9 32  1  0
  9 33  1  0
 15 34  1  1
 16 35  1  0
 16 36  1  0
 17 37  1  0
 17 38  1  0
 20 39  1  0
 20 40  1  0
 20 41  1  0
 23 42  1  0
 23 43  1  0
 25 44  1  0
M  CHG  1  14  -1
M  END
>  <UniqueID>  (88) 
87

>  <SMILES>  (88) 
Cc1ccc2cc(C(N)=O)n(C(=O)[N-][C@@H]3CCN(S(C)(=O)=O)C3)c2c1

>  <Energy>  (88) 
81.62798372774348

>  <Genealogy>  (88) 
Cc1ccc2cc(C(N)=O)n(C(=O)[N-][C@@H]3CCN(S(C)(=O)=O)C3)c2c1 (protonated)
Cc1ccc2cc(C(N)=O)n(C(=O)[N-][C@@H]3CCN(S(C)(=O)=O)C3)c2c1 (3D coordinates assigned)
Cc1ccc2cc(C(N)=O)n(C(=O)[N-][C@@H]3CCN(S(C)(=O)=O)C3)c2c1 (nonaromatic ring conformer: 81.62798372774348 kcal/mol)

>  <smiles>  (88) 
Cc1ccc2cc(C(N)=O)n(C(=O)N[C@@H]3CCN(S(C)(=O)=O)C3)c2c1

>  <score_type>  (88) 
oracle

>  <origin>  (88) 
adg

>  <m_score__min__energy>  (88) 
-8.7300000000000004

>  <m_primary>  (88) 
energy

$$$$
90:0
     RDKit          3D

 43 46  0  0  0  0  0  0  0  0999 V2000
  140.8870  158.9440  132.2430 C   0  0  0  0  0  0  0  0  0  0  0  0
  140.7710  158.5440  133.6900 C   0  0  0  0  0  0  0  0  0  0  0  0
  139.5300  158.1120  134.1840 C   0  0  0  0  0  0  0  0  0  0  0  0
  139.4000  157.7240  135.4790 N   0  0  0  0  0  0  0  0  0  0  0  0
  140.4500  157.7440  136.3400 C   0  0  0  0  0  0  0  0  0  0  0  0
  141.7010  158.1820  135.9060 C   0  0  0  0  0  0  0  0  0  0  0  0
  141.8730  158.6040  134.5800 C   0  0  0  0  0  0  0  0  0  0  0  0
  143.2030  159.0900  134.1530 C   0  0  0  0  0  0  0  0  0  0  0  0
  143.4830  160.4800  134.1200 C   0  0  0  0  0  0  0  0  0  0  0  0
  144.7510  160.9470  133.7340 C   0  0  0  0  0  0  0  0  0  0  0  0
  145.7170  160.0040  133.3940 C   0  0  0  0  0  0  0  0  0  0  0  0
  147.0260  160.1740  133.0000 C   0  0  0  0  0  0  0  0  0  0  0  0
  147.5220  158.8850  132.8020 C   0  0  0  0  0  0  0  0  0  0  0  0
  148.8940  158.5940  132.3320 C   0  0  0  0  0  0  0  0  0  0  0  0
  149.3790  157.2570  132.2610 N   0  0  0  0  0  0  0  0  0  0  0  0
  149.6420  159.5410  131.9690 O   0  0  0  0  0  0  0  0  0  0  0  0
  146.5590  157.9600  133.0740 N   0  0  0  0  0  0  0  0  0  0  0  0
  146.6600  156.5320  133.0100 C   0  0  0  0  0  0  0  0  0  0  0  0
  146.7430  155.9720  131.8850 O   0  0  0  0  0  0  0  0  0  0  0  0
  146.6510  155.7090  134.2340 C   0  0  0  0  0  0  0  0  0  0  0  0
  147.7320  155.4640  135.0580 C   0  0  0  0  0  0  0  0  0  0  0  0
  147.3230  154.6620  136.0580 N   0  0  0  0  0  0  0  0  0  0  0  0
  148.1690  154.1100  137.1070 C   0  0  0  0  0  0  0  0  0  0  0  0
  146.0450  154.3520  135.9030 N   0  0  0  0  0  0  0  0  0  0  0  0
  145.6070  154.9900  134.7990 C   0  0  0  0  0  0  0  0  0  0  0  0
  143.9750  154.8120  134.1820 Cl  0  0  0  0  0  0  0  0  0  0  0  0
  145.4610  158.6590  133.4260 C   0  0  0  0  0  0  0  0  0  0  0  0
  144.2130  158.1630  133.8110 C   0  0  0  0  0  0  0  0  0  0  0  0
  141.1928  159.9986  132.1775 H   0  0  0  0  0  0  0  0  0  0  0  0
  141.6391  158.3127  131.7472 H   0  0  0  0  0  0  0  0  0  0  0  0
  139.9138  158.8130  131.7472 H   0  0  0  0  0  0  0  0  0  0  0  0
  138.6558  158.0876  133.5168 H   0  0  0  0  0  0  0  0  0  0  0  0
  140.3137  157.4145  137.3806 H   0  0  0  0  0  0  0  0  0  0  0  0
  142.5517  158.1964  136.6032 H   0  0  0  0  0  0  0  0  0  0  0  0
  142.6996  161.1999  134.3994 H   0  0  0  0  0  0  0  0  0  0  0  0
  144.9732  162.0238  133.7015 H   0  0  0  0  0  0  0  0  0  0  0  0
  147.5654  161.1237  132.8693 H   0  0  0  0  0  0  0  0  0  0  0  0
  148.8320  156.5110  131.7770 H   0  0  0  0  0  0  0  0  0  0  0  0
  148.7504  155.8564  134.9206 H   0  0  0  0  0  0  0  0  0  0  0  0
  147.7564  154.3792  138.0905 H   0  0  0  0  0  0  0  0  0  0  0  0
  148.2040  153.0147  137.0114 H   0  0  0  0  0  0  0  0  0  0  0  0
  149.1856  154.5191  137.0114 H   0  0  0  0  0  0  0  0  0  0  0  0
  144.0219  157.0803  133.8469 H   0  0  0  0  0  0  0  0  0  0  0  0
  1  2  1  0
  2  3  2  0
  3  4  1  0
  4  5  2  0
  5  6  1  0
  6  7  2  0
  7  8  1  0
  8  9  2  0
  9 10  1  0
 10 11  2  0
 11 12  1  0
 12 13  2  0
 13 14  1  0
 14 15  1  0
 14 16  2  0
 13 17  1  0
 17 18  1  0
 18 19  2  0
 18 20  1  0
 20 21  2  0
 21 22  1  0
 22 23  1  0
 22 24  1  0
 24 25  2  0
 25 26  1  0
 17 27  1  0
 27 28  2  0
  7  2  1  0
 28  8  1  0
 27 11  1  0
 25 20  1  0
  1 29  1  0
  1 30  1  0
  1 31  1  0
  3 32  1  0
  5 33  1  0
  6 34  1  0
  9 35  1  0
 10 36  1  0
 12 37  1  0
 15 38  1  0
 21 39  1  0
 23 40  1  0
 23 41  1  0
 23 42  1  0
 28 43  1  0
M  CHG  1  15  -1
M  END
>  <UniqueID>  (89) 
88

>  <SMILES>  (89) 
Cc1cnccc1-c1ccc2cc(C([NH-])=O)n(C(=O)c3cn(C)nc3Cl)c2c1

>  <Energy>  (89) 
125.09090140875742

>  <Genealogy>  (89) 
Cc1cnccc1-c1ccc2cc(C([NH-])=O)n(C(=O)c3cn(C)nc3Cl)c2c1 (protonated)
Cc1cnccc1-c1ccc2cc(C([NH-])=O)n(C(=O)c3cn(C)nc3Cl)c2c1 (3D coordinates assigned)
Cc1cnccc1-c1ccc2cc(C([NH-])=O)n(C(=O)c3cn(C)nc3Cl)c2c1 (optimized conformer: 125.09090140875742 kcal/mol)

>  <smiles>  (89) 
Cc1cnccc1-c1ccc2cc(C(N)=O)n(C(=O)c3cn(C)nc3Cl)c2c1

>  <score_type>  (89) 
oracle

>  <origin>  (89) 
adg

>  <m_score__min__energy>  (89) 
-8.5199999999999996

>  <m_primary>  (89) 
energy

$$$$
91:0
     RDKit          3D

 70 75  0  0  0  0  0  0  0  0999 V2000
  145.1670  153.7410  132.2440 C   0  0  0  0  0  0  0  0  0  0  0  0
  146.0000  154.8640  132.6790 N   0  0  0  0  0  0  0  0  0  0  0  0
  147.3490  154.8890  132.8720 C   0  0  0  0  0  0  0  0  0  0  0  0
  148.2140  153.7480  132.7410 N   0  0  0  0  0  0  0  0  0  0  0  0
  149.4730  153.6840  132.2610 C   0  0  0  0  0  0  0  0  0  0  0  0
  149.9040  152.4100  132.2090 N   0  0  0  0  0  0  0  0  0  0  0  0
  148.9120  151.6450  132.6430 N   0  0  0  0  0  0  0  0  0  0  0  0
  147.8870  152.4610  132.9570 C   0  0  0  0  0  0  0  0  0  0  0  0
  147.8250  156.1110  133.2260 N   0  0  0  0  0  0  0  0  0  0  0  0
  146.7100  156.8610  133.2820 C   0  0  0  0  0  0  0  0  0  0  0  0
  146.6160  158.1980  133.6380 C   0  0  0  0  0  0  0  0  0  0  0  0
  145.3330  158.7650  133.6720 C   0  0  0  0  0  0  0  0  0  0  0  0
  144.2130  158.0190  133.3610 N   0  0  0  0  0  0  0  0  0  0  0  0
  142.8860  158.6480  133.4720 C   0  0  0  0  0  0  0  0  0  0  0  0
  142.1860  158.1610  134.7110 C   0  0  0  0  0  0  0  0  0  0  0  0
  141.1480  158.9330  135.2960 C   0  0  0  0  0  0  0  0  0  0  0  0
  140.4340  158.4450  136.4030 C   0  0  0  0  0  0  0  0  0  0  0  0
  140.7710  157.1870  136.8960 C   0  0  0  0  0  0  0  0  0  0  0  0
  140.2240  156.4600  137.9300 C   0  0  0  0  0  0  0  0  0  0  0  0
  140.9450  155.2690  137.9710 C   0  0  0  0  0  0  0  0  0  0  0  0
  140.7610  154.2390  139.0190 C   0  0  0  0  0  0  0  0  0  0  0  0
  140.2790  152.9380  138.6950 N   0  0  0  0  0  0  0  0  0  0  0  0
  141.0710  154.4980  140.2140 O   0  0  0  0  0  0  0  0  0  0  0  0
  141.8920  155.2550  136.9930 N   0  0  0  0  0  0  0  0  0  0  0  0
  142.8020  154.1980  136.6520 C   0  0  0  0  0  0  0  0  0  0  0  0
  143.9700  154.4660  136.2610 O   0  0  0  0  0  0  0  0  0  0  0  0
  142.4120  152.8700  136.8030 O   0  0  0  0  0  0  0  0  0  0  0  0
  141.6980  152.1970  135.8040 C   0  0  0  0  0  0  0  0  0  0  0  0
  140.9820  151.1960  136.0860 O   0  0  0  0  0  0  0  0  0  0  0  0
  141.7590  152.6960  134.3940 C   0  0  0  0  0  0  0  0  0  0  0  0
  141.4060  151.6300  133.4270 N   0  0  0  0  0  0  0  0  0  0  0  0
  140.2040  151.8640  132.5890 C   0  0  0  0  0  0  0  0  0  0  0  0
  139.6940  150.6110  131.8470 C   0  0  0  0  0  0  0  0  0  0  0  0
  139.8790  149.2990  132.6260 C   0  0  0  0  0  0  0  0  0  0  0  0
  141.3310  148.9030  132.9590 C   0  0  0  0  0  0  0  0  0  0  0  0
  142.4010  149.6700  132.1700 C   0  0  0  0  0  0  0  0  0  0  0  0
  142.5720  151.1120  132.6840 C   0  0  0  0  0  0  0  0  0  0  0  0
  141.7780  156.4360  136.3490 C   0  0  0  0  0  0  0  0  0  0  0  0
  142.5010  156.8920  135.2400 C   0  0  0  0  0  0  0  0  0  0  0  0
  144.3320  156.6900  133.0110 C   0  0  0  0  0  0  0  0  0  0  0  0
  143.3090  155.9980  132.7530 O   0  0  0  0  0  0  0  0  0  0  0  0
  145.6120  156.1220  132.9660 C   0  0  0  0  0  0  0  0  0  0  0  0
  144.7749  153.2124  133.1254 H   0  0  0  0  0  0  0  0  0  0  0  0
  144.3288  154.1186  131.6399 H   0  0  0  0  0  0  0  0  0  0  0  0
  145.7716  153.0484  131.6399 H   0  0  0  0  0  0  0  0  0  0  0  0
  150.0680  154.5565  131.9532 H   0  0  0  0  0  0  0  0  0  0  0  0
  146.9132  152.1206  133.3388 H   0  0  0  0  0  0  0  0  0  0  0  0
  147.5103  158.7895  133.8836 H   0  0  0  0  0  0  0  0  0  0  0  0
  145.2171  159.8226  133.9513 H   0  0  0  0  0  0  0  0  0  0  0  0
  143.0044  159.7403  133.5264 H   0  0  0  0  0  0  0  0  0  0  0  0
  142.2855  158.3804  132.5901 H   0  0  0  0  0  0  0  0  0  0  0  0
  140.9010  159.9206  134.8793 H   0  0  0  0  0  0  0  0  0  0  0  0
  139.6326  159.0389  136.8666 H   0  0  0  0  0  0  0  0  0  0  0  0
  139.3924  156.7575  138.5857 H   0  0  0  0  0  0  0  0  0  0  0  0
  140.5590  152.4640  137.8070 H   0  0  0  0  0  0  0  0  0  0  0  0
  141.0527  153.5314  134.2792 H   0  0  0  0  0  0  0  0  0  0  0  0
  142.7885  153.0237  134.1872 H   0  0  0  0  0  0  0  0  0  0  0  0
  139.3967  152.2317  133.2395 H   0  0  0  0  0  0  0  0  0  0  0  0
  140.4950  152.5911  131.8166 H   0  0  0  0  0  0  0  0  0  0  0  0
  138.6211  150.7432  131.6437 H   0  0  0  0  0  0  0  0  0  0  0  0
  140.2936  150.5211  130.9292 H   0  0  0  0  0  0  0  0  0  0  0  0
  139.3307  149.3923  133.5751 H   0  0  0  0  0  0  0  0  0  0  0  0
  139.5034  148.5071  131.9613 H   0  0  0  0  0  0  0  0  0  0  0  0
  141.4989  149.0853  134.0307 H   0  0  0  0  0  0  0  0  0  0  0  0
  141.4368  147.8446  132.6788 H   0  0  0  0  0  0  0  0  0  0  0  0
  143.3610  149.1419  132.2672 H   0  0  0  0  0  0  0  0  0  0  0  0
  142.0793  149.7191  131.1192 H   0  0  0  0  0  0  0  0  0  0  0  0
  143.4464  151.1395  133.3508 H   0  0  0  0  0  0  0  0  0  0  0  0
  142.6929  151.7521  131.7977 H   0  0  0  0  0  0  0  0  0  0  0  0
  143.2949  156.2759  134.7925 H   0  0  0  0  0  0  0  0  0  0  0  0
  1  2  1  0
  2  3  1  0
  3  4  1  0
  4  5  1  0
  5  6  2  0
  6  7  1  0
  7  8  2  0
  3  9  2  0
  9 10  1  0
 10 11  1  0
 11 12  2  0
 12 13  1  0
 13 14  1  0
 14 15  1  0
 15 16  2  0
 16 17  1  0
 17 18  2  0
 18 19  1  0
 19 20  2  0
 20 21  1  0
 21 22  1  0
 21 23  2  0
 20 24  1  0
 24 25  1  0
 25 26  2  0
 25 27  1  0
 27 28  1  0
 28 29  2  0
 28 30  1  0
 30 31  1  0
 31 32  1  0
 32 33  1  0
 33 34  1  0
 34 35  1  0
 35 36  1  0
 36 37  1  0
 24 38  1  0
 38 39  2  0
 13 40  1  0
 40 41  2  0
 40 42  1  0
 42  2  1  0
  8  4  1  0
 42 10  2  0
 39 15  1  0
 38 18  1  0
 37 31  1  0
  1 43  1  0
  1 44  1  0
  1 45  1  0
  5 46  1  0
  8 47  1  0
 11 48  1  0
 12 49  1  0
 14 50  1  0
 14 51  1  0
 16 52  1  0
 17 53  1  0
 19 54  1  0
 22 55  1  0
 30 56  1  0
 30 57  1  0
 32 58  1  0
 32 59  1  0
 33 60  1  0
 33 61  1  0
 34 62  1  0
 34 63  1  0
 35 64  1  0
 35 65  1  0
 36 66  1  0
 36 67  1  0
 37 68  1  0
 37 69  1  0
 39 70  1  0
M  CHG  1  22  -1
M  END
>  <UniqueID>  (90) 
89

>  <SMILES>  (90) 
Cn1c(-n2cnnc2)nc2ccn(Cc3ccc4cc(C([NH-])=O)n(C(=O)OC(=O)CN5CCCCCC5)c4c3)c(=O)c21

>  <Energy>  (90) 
212.66183039918923

>  <Genealogy>  (90) 
Cn1c(-n2cnnc2)nc2ccn(Cc3ccc4cc(C([NH-])=O)n(C(=O)OC(=O)CN5CCCCCC5)c4c3)c(=O)c21 (protonated)
Cn1c(-n2cnnc2)nc2ccn(Cc3ccc4cc(C([NH-])=O)n(C(=O)OC(=O)CN5CCCCCC5)c4c3)c(=O)c21 (3D coordinates assigned)
Cn1c(-n2cnnc2)nc2ccn(Cc3ccc4cc(C([NH-])=O)n(C(=O)OC(=O)CN5CCCCCC5)c4c3)c(=O)c21 (nonaromatic ring conformer: 212.66183039918923 kcal/mol)

>  <smiles>  (90) 
Cn1c(-n2cnnc2)nc2ccn(Cc3ccc4cc(C(N)=O)n(C(=O)OC(=O)CN5CCCCCC5)c4c3)c(=O)c21

>  <score_type>  (90) 
oracle

>  <origin>  (90) 
adg

>  <m_score__min__energy>  (90) 
-8.8599999999999994

>  <m_primary>  (90) 
energy

$$$$
92:0
     RDKit          3D

 51 54  0  0  0  0  0  0  0  0999 V2000
  149.7360  151.8710  131.8400 C   0  0  0  0  0  0  0  0  0  0  0  0
  149.0860  152.8880  132.6520 N   0  0  0  0  0  0  0  0  0  0  0  0
  148.7940  154.1410  132.2590 C   0  0  0  0  0  0  0  0  0  0  0  0
  148.0960  154.7640  133.2810 C   0  0  0  0  0  0  0  0  0  0  0  0
  147.5860  156.1630  133.3150 C   0  0  0  0  0  0  0  0  0  0  0  0
  148.4830  157.2590  133.4310 C   0  0  0  0  0  0  0  0  0  0  0  0
  148.0060  158.5810  133.5150 C   0  0  0  0  0  0  0  0  0  0  0  0
  146.6320  158.7840  133.4840 C   0  0  0  0  0  0  0  0  0  0  0  0
  145.9010  159.9390  133.6470 C   0  0  0  0  0  0  0  0  0  0  0  0
  144.5680  159.5380  133.6230 C   0  0  0  0  0  0  0  0  0  0  0  0
  143.4350  160.4490  133.8820 C   0  0  0  0  0  0  0  0  0  0  0  0
  142.2520  160.0040  134.5470 N   0  0  0  0  0  0  0  0  0  0  0  0
  143.5130  161.6500  133.5130 O   0  0  0  0  0  0  0  0  0  0  0  0
  144.4770  158.1960  133.4230 N   0  0  0  0  0  0  0  0  0  0  0  0
  143.3020  157.3770  133.5050 C   0  0  0  0  0  0  0  0  0  0  0  0
  142.2490  157.7450  132.9200 O   0  0  0  0  0  0  0  0  0  0  0  0
  143.3580  156.0360  134.1870 C   0  0  0  0  0  0  0  0  0  0  0  0
  142.5230  155.9910  135.4820 C   0  0  0  0  0  0  0  0  0  0  0  0
  141.6910  157.2040  135.6120 N   0  0  0  0  0  0  0  0  0  0  0  0
  140.2980  156.9770  135.1700 C   0  0  0  0  0  0  0  0  0  0  0  0
  139.4390  158.2390  135.4250 C   0  0  0  0  0  0  0  0  0  0  0  0
  140.2320  159.3140  135.8930 O   0  0  0  0  0  0  0  0  0  0  0  0
  140.8180  158.9550  137.1310 C   0  0  0  0  0  0  0  0  0  0  0  0
  141.6940  157.6930  137.0030 C   0  0  0  0  0  0  0  0  0  0  0  0
  145.7500  157.7460  133.3560 C   0  0  0  0  0  0  0  0  0  0  0  0
  146.1930  156.4210  133.2700 C   0  0  0  0  0  0  0  0  0  0  0  0
  147.9910  153.7950  134.2740 C   0  0  0  0  0  0  0  0  0  0  0  0
  148.5900  152.6610  133.8590 N   0  0  0  0  0  0  0  0  0  0  0  0
  150.2116  151.1269  132.4958 H   0  0  0  0  0  0  0  0  0  0  0  0
  148.9872  151.3749  131.2051 H   0  0  0  0  0  0  0  0  0  0  0  0
  150.5007  152.3422  131.2051 H   0  0  0  0  0  0  0  0  0  0  0  0
  149.0630  154.5930  131.2929 H   0  0  0  0  0  0  0  0  0  0  0  0
  149.5667  157.0717  133.4555 H   0  0  0  0  0  0  0  0  0  0  0  0
  148.7013  159.4288  133.6027 H   0  0  0  0  0  0  0  0  0  0  0  0
  146.2878  160.9614  133.7701 H   0  0  0  0  0  0  0  0  0  0  0  0
  142.0480  158.9870  134.6720 H   0  0  0  0  0  0  0  0  0  0  0  0
  141.5350  160.6980  134.8540 H   0  0  0  0  0  0  0  0  0  0  0  0
  142.9741  155.2727  133.4942 H   0  0  0  0  0  0  0  0  0  0  0  0
  144.4063  155.8466  134.4612 H   0  0  0  0  0  0  0  0  0  0  0  0
  141.8697  155.1063  135.4592 H   0  0  0  0  0  0  0  0  0  0  0  0
  143.2077  155.9394  136.3413 H   0  0  0  0  0  0  0  0  0  0  0  0
  140.2920  156.7456  134.0946 H   0  0  0  0  0  0  0  0  0  0  0  0
  139.8752  156.1363  135.7397 H   0  0  0  0  0  0  0  0  0  0  0  0
  138.9508  158.5363  134.4852 H   0  0  0  0  0  0  0  0  0  0  0  0
  138.6894  157.9997  136.1937 H   0  0  0  0  0  0  0  0  0  0  0  0
  141.4430  159.7883  137.4844 H   0  0  0  0  0  0  0  0  0  0  0  0
  140.0083  158.7393  137.8437 H   0  0  0  0  0  0  0  0  0  0  0  0
  142.7250  157.9359  137.2996 H   0  0  0  0  0  0  0  0  0  0  0  0
  141.2872  156.9084  137.6579 H   0  0  0  0  0  0  0  0  0  0  0  0
  145.4733  155.5952  133.1694 H   0  0  0  0  0  0  0  0  0  0  0  0
  147.4961  153.9329  135.2466 H   0  0  0  0  0  0  0  0  0  0  0  0
  1  2  1  0
  2  3  1  0
  3  4  2  0
  4  5  1  0
  5  6  2  0
  6  7  1  0
  7  8  2  0
  8  9  1  0
  9 10  2  0
 10 11  1  0
 11 12  1  0
 11 13  2  0
 10 14  1  0
 14 15  1  0
 15 16  2  0
 15 17  1  0
 17 18  1  0
 18 19  1  0
 19 20  1  0
 20 21  1  0
 21 22  1  0
 22 23  1  0
 23 24  1  0
 14 25  1  0
 25 26  2  0
  4 27  1  0
 27 28  2  0
 28  2  1  0
 26  5  1  0
 25  8  1  0
 24 19  1  0
  1 29  1  0
  1 30  1  0
  1 31  1  0
  3 32  1  0
  6 33  1  0
  7 34  1  0
  9 35  1  0
 12 36  1  0
 12 37  1  0
 17 38  1  0
 17 39  1  0
 18 40  1  0
 18 41  1  0
 20 42  1  0
 20 43  1  0
 21 44  1  0
 21 45  1  0
 23 46  1  0
 23 47  1  0
 24 48  1  0
 24 49  1  0
 26 50  1  0
 27 51  1  0
M  END
>  <UniqueID>  (91) 
90

>  <SMILES>  (91) 
Cn1cc(-c2ccc3cc(C(N)=O)n(C(=O)CCN4CCOCC4)c3c2)cn1

>  <Energy>  (91) 
135.14076381756885

>  <Genealogy>  (91) 
Cn1cc(-c2ccc3cc(C(N)=O)n(C(=O)CCN4CCOCC4)c3c2)cn1 (3D coordinates assigned)
Cn1cc(-c2ccc3cc(C(N)=O)n(C(=O)CCN4CCOCC4)c3c2)cn1 (nonaromatic ring conformer: 135.14076381756885 kcal/mol)

>  <smiles>  (91) 
Cn1cc(-c2ccc3cc(C(N)=O)n(C(=O)CCN4CCOCC4)c3c2)cn1

>  <score_type>  (91) 
oracle

>  <origin>  (91) 
adg

>  <m_score__min__energy>  (91) 
-8.2200000000000006

>  <m_primary>  (91) 
energy

$$$$
93:0
     RDKit          3D

 40 41  0  0  0  0  0  0  0  0999 V2000
  138.9900  159.2780  131.6250 C   0  0  0  0  0  0  0  0  0  0  0  0
  139.8020  158.4060  132.2200 C   0  0  0  0  0  0  0  0  0  0  0  0
  139.4110  157.6510  133.4260 C   0  0  0  0  0  0  0  0  0  0  0  0
  138.1930  157.5000  133.7180 O   0  0  0  0  0  0  0  0  0  0  0  0
  140.4200  157.0770  134.2730 N   0  0  0  0  0  0  0  0  0  0  0  0
  141.0480  157.6570  135.3350 C   0  0  0  0  0  0  0  0  0  0  0  0
  140.9050  159.0640  135.7650 C   0  0  0  0  0  0  0  0  0  0  0  0
  140.7130  159.3980  137.1370 N   0  0  0  0  0  0  0  0  0  0  0  0
  140.9200  159.9830  134.9040 O   0  0  0  0  0  0  0  0  0  0  0  0
  141.9140  156.7490  135.9420 C   0  0  0  0  0  0  0  0  0  0  0  0
  141.7980  155.5870  135.2130 C   0  0  0  0  0  0  0  0  0  0  0  0
  142.4240  154.3560  135.3780 C   0  0  0  0  0  0  0  0  0  0  0  0
  142.0940  153.3240  134.4830 C   0  0  0  0  0  0  0  0  0  0  0  0
  141.1420  153.5300  133.4540 C   0  0  0  0  0  0  0  0  0  0  0  0
  140.8350  152.4470  132.5530 N   0  0  0  0  0  0  0  0  0  0  0  0
  140.7960  151.0380  132.9480 C   0  0  0  0  0  0  0  0  0  0  0  0
  140.2180  150.1920  131.8400 C   0  0  0  0  0  0  0  0  0  0  0  0
  139.5140  150.7630  130.9610 O   0  0  0  0  0  0  0  0  0  0  0  0
  140.4710  148.7720  131.7380 N   0  0  0  0  0  0  0  0  0  0  0  0
  141.4530  148.1090  132.6020 C   0  0  0  0  0  0  0  0  0  0  0  0
  139.7440  147.9950  130.7300 C   0  0  0  0  0  0  0  0  0  0  0  0
  140.5170  154.7940  133.3300 C   0  0  0  0  0  0  0  0  0  0  0  0
  140.8860  155.8110  134.2150 C   0  0  0  0  0  0  0  0  0  0  0  0
  139.3255  159.8179  130.7273 H   0  0  0  0  0  0  0  0  0  0  0  0
  137.9838  159.4583  132.0313 H   0  0  0  0  0  0  0  0  0  0  0  0
  140.8036  158.2422  131.7957 H   0  0  0  0  0  0  0  0  0  0  0  0
  139.7580  159.4130  137.5570 H   0  0  0  0  0  0  0  0  0  0  0  0
  142.5550  156.9240  136.8187 H   0  0  0  0  0  0  0  0  0  0  0  0
  143.1549  154.1952  136.1842 H   0  0  0  0  0  0  0  0  0  0  0  0
  142.5814  152.3429  134.5827 H   0  0  0  0  0  0  0  0  0  0  0  0
  140.6140  152.6730  131.5560 H   0  0  0  0  0  0  0  0  0  0  0  0
  141.8179  150.6959  133.1686 H   0  0  0  0  0  0  0  0  0  0  0  0
  140.1603  150.9370  133.8400 H   0  0  0  0  0  0  0  0  0  0  0  0
  141.1921  148.2851  133.6560 H   0  0  0  0  0  0  0  0  0  0  0  0
  141.4492  147.0279  132.3991 H   0  0  0  0  0  0  0  0  0  0  0  0
  142.4543  148.5166  132.3991 H   0  0  0  0  0  0  0  0  0  0  0  0
  139.0749  147.2798  131.2307 H   0  0  0  0  0  0  0  0  0  0  0  0
  139.1499  148.6746  130.1014 H   0  0  0  0  0  0  0  0  0  0  0  0
  140.4616  147.4474  130.1014 H   0  0  0  0  0  0  0  0  0  0  0  0
  139.7577  154.9720  132.5543 H   0  0  0  0  0  0  0  0  0  0  0  0
  1  2  2  0
  2  3  1  0
  3  4  2  0
  3  5  1  0
  5  6  1  0
  6  7  1  0
  7  8  1  0
  7  9  2  0
  6 10  2  0
 10 11  1  0
 11 12  2  0
 12 13  1  0
 13 14  2  0
 14 15  1  0
 15 16  1  0
 16 17  1  0
 17 18  2  0
 17 19  1  0
 19 20  1  0
 19 21  1  0
 14 22  1  0
 22 23  2  0
 23  5  1  0
 23 11  1  0
  1 24  1  0
  1 25  1  0
  2 26  1  0
  8 27  1  0
 10 28  1  0
 12 29  1  0
 13 30  1  0
 15 31  1  0
 16 32  1  0
 16 33  1  0
 20 34  1  0
 20 35  1  0
 20 36  1  0
 21 37  1  0
 21 38  1  0
 21 39  1  0
 22 40  1  0
M  CHG  1   8  -1
M  END
>  <UniqueID>  (92) 
91

>  <SMILES>  (92) 
C=CC(=O)n1c(C([NH-])=O)cc2ccc(NCC(=O)N(C)C)cc21

>  <Energy>  (92) 
73.32337455492446

>  <Genealogy>  (92) 
C=CC(=O)n1c(C([NH-])=O)cc2ccc(NCC(=O)N(C)C)cc21 (protonated)
C=CC(=O)n1c(C([NH-])=O)cc2ccc(NCC(=O)N(C)C)cc21 (3D coordinates assigned)
C=CC(=O)n1c(C([NH-])=O)cc2ccc(NCC(=O)N(C)C)cc21 (optimized conformer: 73.32337455492446 kcal/mol)

>  <smiles>  (92) 
C=CC(=O)n1c(C(N)=O)cc2ccc(NCC(=O)N(C)C)cc21

>  <score_type>  (92) 
oracle

>  <origin>  (92) 
adg

>  <m_score__min__energy>  (92) 
-7.3300000000000001

>  <m_primary>  (92) 
energy

$$$$
95:0
     RDKit          3D

 43 45  0  0  0  0  0  0  0  0999 V2000
  139.4890  155.5920  132.6360 C   0  0  0  0  0  0  0  0  0  0  0  0
  140.6200  156.4740  133.0250 N   0  0  0  0  0  0  0  0  0  0  0  0
  141.3050  155.8970  134.2040 C   0  0  0  0  0  0  0  0  0  0  0  0
  140.2810  157.9320  133.2270 C   0  0  0  0  0  0  0  0  0  0  0  0
  141.0870  158.5480  134.4320 C   0  0  0  0  0  0  0  0  0  0  0  0
  142.4730  159.0880  134.1330 C   0  0  0  0  0  0  0  0  0  0  0  0
  142.6820  160.4880  134.0390 C   0  0  0  0  0  0  0  0  0  0  0  0
  143.9590  161.0090  133.7720 C   0  0  0  0  0  0  0  0  0  0  0  0
  145.0010  160.1090  133.5760 C   0  0  0  0  0  0  0  0  0  0  0  0
  146.3330  160.3410  133.3230 C   0  0  0  0  0  0  0  0  0  0  0  0
  146.9130  159.0790  133.2140 C   0  0  0  0  0  0  0  0  0  0  0  0
  148.3320  158.8670  132.8590 C   0  0  0  0  0  0  0  0  0  0  0  0
  148.6960  158.2190  131.6430 N   0  0  0  0  0  0  0  0  0  0  0  0
  149.2370  159.3080  133.6170 O   0  0  0  0  0  0  0  0  0  0  0  0
  145.9770  158.1040  133.3990 N   0  0  0  0  0  0  0  0  0  0  0  0
  146.1840  156.6830  133.4530 C   0  0  0  0  0  0  0  0  0  0  0  0
  146.9450  156.1190  132.6240 O   0  0  0  0  0  0  0  0  0  0  0  0
  145.5660  155.9220  134.4370 O   0  0  0  0  0  0  0  0  0  0  0  0
  144.8110  158.7520  133.6180 C   0  0  0  0  0  0  0  0  0  0  0  0
  143.5540  158.2060  133.9000 C   0  0  0  0  0  0  0  0  0  0  0  0
  140.3400  158.7830  131.9310 C   0  0  0  0  0  0  0  0  0  0  0  0
  138.8460  159.0590  132.0420 C   0  0  0  0  0  0  0  0  0  0  0  0
  138.7670  158.2210  133.3130 C   0  0  0  0  0  0  0  0  0  0  0  0
  138.9959  155.2074  133.5410 H   0  0  0  0  0  0  0  0  0  0  0  0
  138.7647  156.1661  132.0396 H   0  0  0  0  0  0  0  0  0  0  0  0
  139.8693  154.7496  132.0396 H   0  0  0  0  0  0  0  0  0  0  0  0
  141.3050  156.4230  132.2330 H   0  0  0  0  0  0  0  0  0  0  0  0
  140.8430  156.2861  135.1233 H   0  0  0  0  0  0  0  0  0  0  0  0
  141.2118  154.8012  134.1823 H   0  0  0  0  0  0  0  0  0  0  0  0
  142.3691  156.1750  134.1823 H   0  0  0  0  0  0  0  0  0  0  0  0
  140.4899  159.3764  134.8410 H   0  0  0  0  0  0  0  0  0  0  0  0
  141.2520  157.7080  135.1227 H   0  0  0  0  0  0  0  0  0  0  0  0
  141.8334  161.1742  134.1769 H   0  0  0  0  0  0  0  0  0  0  0  0
  144.1294  162.0945  133.7196 H   0  0  0  0  0  0  0  0  0  0  0  0
  146.8338  161.3157  133.2271 H   0  0  0  0  0  0  0  0  0  0  0  0
  148.4150  157.2310  131.4560 H   0  0  0  0  0  0  0  0  0  0  0  0
  143.4098  157.1162  133.9396 H   0  0  0  0  0  0  0  0  0  0  0  0
  140.9696  159.6813  132.0122 H   0  0  0  0  0  0  0  0  0  0  0  0
  140.7602  158.3600  131.0066 H   0  0  0  0  0  0  0  0  0  0  0  0
  138.5980  160.1203  132.1909 H   0  0  0  0  0  0  0  0  0  0  0  0
  138.1807  158.8378  131.1944 H   0  0  0  0  0  0  0  0  0  0  0  0
  138.4697  158.7896  134.2065 H   0  0  0  0  0  0  0  0  0  0  0  0
  138.0481  157.3916  133.3858 H   0  0  0  0  0  0  0  0  0  0  0  0
  1  2  1  0
  2  3  1  0
  2  4  1  0
  4  5  1  0
  5  6  1  0
  6  7  2  0
  7  8  1  0
  8  9  2  0
  9 10  1  0
 10 11  2  0
 11 12  1  0
 12 13  1  0
 12 14  2  0
 11 15  1  0
 15 16  1  0
 16 17  2  0
 16 18  1  0
 15 19  1  0
 19 20  2  0
  4 21  1  0
 21 22  1  0
 22 23  1  0
 23  4  1  0
 20  6  1  0
 19  9  1  0
  1 24  1  0
  1 25  1  0
  1 26  1  0
  2 27  1  0
  3 28  1  0
  3 29  1  0
  3 30  1  0
  5 31  1  0
  5 32  1  0
  7 33  1  0
  8 34  1  0
 10 35  1  0
 13 36  1  0
 20 37  1  0
 21 38  1  0
 21 39  1  0
 22 40  1  0
 22 41  1  0
 23 42  1  0
 23 43  1  0
M  CHG  3   2   1  13  -1  18  -1
M  END
>  <UniqueID>  (93) 
92

>  <SMILES>  (93) 
C[NH+](C)C1(Cc2ccc3cc(C([NH-])=O)n(C(=O)[O-])c3c2)CCC1

>  <Energy>  (93) 
160.41324424099074

>  <Genealogy>  (93) 
C[NH+](C)C1(Cc2ccc3cc(C([NH-])=O)n(C(=O)[O-])c3c2)CCC1 (protonated)
C[NH+](C)C1(Cc2ccc3cc(C([NH-])=O)n(C(=O)[O-])c3c2)CCC1 (3D coordinates assigned)
C[NH+](C)C1(Cc2ccc3cc(C([NH-])=O)n(C(=O)[O-])c3c2)CCC1 (nonaromatic ring conformer: 160.41324424099074 kcal/mol)

>  <smiles>  (93) 
CN(C)C1(Cc2ccc3cc(C(N)=O)n(C(=O)O)c3c2)CCC1

>  <score_type>  (93) 
oracle

>  <origin>  (93) 
adg

>  <m_score__min__energy>  (93) 
-6.96

>  <m_primary>  (93) 
energy

$$$$
96:0
     RDKit          3D

 36 37  0  0  0  0  0  0  0  0999 V2000
  149.5110  160.0730  130.5590 C   0  0  0  0  0  0  0  0  0  0  0  0
  149.2340  158.8910  131.1040 C   0  0  0  0  0  0  0  0  0  0  0  0
  148.7220  158.7450  132.4800 C   0  0  0  0  0  0  0  0  0  0  0  0
  149.2820  159.3830  133.4090 O   0  0  0  0  0  0  0  0  0  0  0  0
  147.6040  157.8950  132.7830 N   0  0  0  0  0  0  0  0  0  0  0  0
  146.3470  158.2790  133.1430 C   0  0  0  0  0  0  0  0  0  0  0  0
  145.8600  159.6790  133.1660 C   0  0  0  0  0  0  0  0  0  0  0  0
  146.7540  160.7650  133.4170 N   0  0  0  0  0  0  0  0  0  0  0  0
  144.6390  159.9250  132.9770 O   0  0  0  0  0  0  0  0  0  0  0  0
  145.5650  157.1620  133.4390 C   0  0  0  0  0  0  0  0  0  0  0  0
  146.3950  156.0780  133.2580 C   0  0  0  0  0  0  0  0  0  0  0  0
  146.1470  154.7190  133.4350 C   0  0  0  0  0  0  0  0  0  0  0  0
  147.2040  153.8220  133.2070 C   0  0  0  0  0  0  0  0  0  0  0  0
  148.4810  154.2950  132.8110 C   0  0  0  0  0  0  0  0  0  0  0  0
  149.6210  153.3300  132.6110 C   0  0  0  0  0  0  0  0  0  0  0  0
  149.1810  151.8710  132.8590 C   0  0  2  0  0  0  0  0  0  0  0  0
  149.6000  151.4160  134.1880 N   0  0  0  0  0  0  0  0  0  0  0  0
  149.7380  150.9450  131.8130 C   0  0  0  0  0  0  0  0  0  0  0  0
  150.8450  150.3730  131.9890 O   0  0  0  0  0  0  0  0  0  0  0  0
  149.0420  150.7410  130.6270 O   0  0  0  0  0  0  0  0  0  0  0  0
  148.6960  155.6810  132.6500 C   0  0  0  0  0  0  0  0  0  0  0  0
  147.6200  156.5480  132.8690 C   0  0  0  0  0  0  0  0  0  0  0  0
  149.8910  160.1279  129.5282 H   0  0  0  0  0  0  0  0  0  0  0  0
  149.3600  160.9952  131.1393 H   0  0  0  0  0  0  0  0  0  0  0  0
  149.3936  157.9838  130.5028 H   0  0  0  0  0  0  0  0  0  0  0  0
  147.7830  160.6170  133.5140 H   0  0  0  0  0  0  0  0  0  0  0  0
  146.3880  161.7420  133.4650 H   0  0  0  0  0  0  0  0  0  0  0  0
  144.5101  157.1498  133.7506 H   0  0  0  0  0  0  0  0  0  0  0  0
  145.1544  154.3591  133.7437 H   0  0  0  0  0  0  0  0  0  0  0  0
  147.0395  152.7422  133.3369 H   0  0  0  0  0  0  0  0  0  0  0  0
  149.9889  153.4213  131.5784 H   0  0  0  0  0  0  0  0  0  0  0  0
  150.4125  153.5781  133.3335 H   0  0  0  0  0  0  0  0  0  0  0  0
  148.0828  151.8490  132.8001 H   0  0  0  0  0  0  0  0  0  0  0  0
  148.8420  150.8320  134.6120 H   0  0  0  0  0  0  0  0  0  0  0  0
  150.4410  150.8040  134.0810 H   0  0  0  0  0  0  0  0  0  0  0  0
  149.6836  156.0691  132.3600 H   0  0  0  0  0  0  0  0  0  0  0  0
  1  2  2  0
  2  3  1  0
  3  4  2  0
  3  5  1  0
  5  6  1  0
  6  7  1  0
  7  8  1  0
  7  9  2  0
  6 10  2  0
 10 11  1  0
 11 12  2  0
 12 13  1  0
 13 14  2  0
 14 15  1  0
 15 16  1  0
 16 17  1  0
 16 18  1  0
 18 19  2  0
 18 20  1  0
 14 21  1  0
 21 22  2  0
 22  5  1  0
 22 11  1  0
  1 23  1  0
  1 24  1  0
  2 25  1  0
  8 26  1  0
  8 27  1  0
 10 28  1  0
 12 29  1  0
 13 30  1  0
 15 31  1  0
 15 32  1  0
 16 33  1  1
 17 34  1  0
 17 35  1  0
 21 36  1  0
M  CHG  1  20  -1
M  END
>  <UniqueID>  (94) 
93

>  <SMILES>  (94) 
C=CC(=O)n1c(C(N)=O)cc2ccc(C[C@H](N)C(=O)[O-])cc21

>  <Energy>  (94) 
71.47709765210713

>  <Genealogy>  (94) 
C=CC(=O)n1c(C(N)=O)cc2ccc(CC(N)C(=O)[O-])cc21 (protonated)
C=CC(=O)n1c(C(N)=O)cc2ccc(C[C@H](N)C(=O)[O-])cc21 (chirality)
C=CC(=O)n1c(C(N)=O)cc2ccc(C[C@H](N)C(=O)[O-])cc21 (3D coordinates assigned)
C=CC(=O)n1c(C(N)=O)cc2ccc(C[C@H](N)C(=O)[O-])cc21 (optimized conformer: 71.47709765210713 kcal/mol)

>  <smiles>  (94) 
C=CC(=O)n1c(C(N)=O)cc2ccc(CC(N)C(=O)O)cc21

>  <score_type>  (94) 
oracle

>  <origin>  (94) 
adg

>  <m_score__min__energy>  (94) 
-6.9500000000000002

>  <m_primary>  (94) 
energy

$$$$
97:0
     RDKit          3D

 35 36  0  0  0  0  0  0  0  0999 V2000
  149.6430  157.3870  132.2090 N   0  0  0  0  0  0  0  0  0  0  0  0
  149.1690  158.7320  132.2430 C   0  0  0  0  0  0  0  0  0  0  0  0
  149.9200  159.6620  131.8460 O   0  0  0  0  0  0  0  0  0  0  0  0
  147.8260  159.0260  132.7850 C   0  0  0  0  0  0  0  0  0  0  0  0
  147.3670  160.3160  133.0360 C   0  0  0  0  0  0  0  0  0  0  0  0
  146.0460  160.1700  133.3890 C   0  0  0  0  0  0  0  0  0  0  0  0
  145.1030  161.1290  133.7460 C   0  0  0  0  0  0  0  0  0  0  0  0
  143.8090  160.6910  134.0760 C   0  0  0  0  0  0  0  0  0  0  0  0
  143.4740  159.3120  134.0230 C   0  0  0  0  0  0  0  0  0  0  0  0
  142.1000  158.8470  134.4340 C   0  0  0  0  0  0  0  0  0  0  0  0
  141.1240  159.5490  133.7500 F   0  0  0  0  0  0  0  0  0  0  0  0
  141.9720  157.5000  134.1460 F   0  0  0  0  0  0  0  0  0  0  0  0
  141.9030  159.0380  135.7900 F   0  0  0  0  0  0  0  0  0  0  0  0
  144.4670  158.3690  133.6720 C   0  0  0  0  0  0  0  0  0  0  0  0
  145.7470  158.8340  133.3490 C   0  0  0  0  0  0  0  0  0  0  0  0
  146.8350  158.1140  132.9990 N   0  0  0  0  0  0  0  0  0  0  0  0
  146.9150  156.6800  132.9250 C   0  0  0  0  0  0  0  0  0  0  0  0
  146.9610  156.1160  131.7980 O   0  0  0  0  0  0  0  0  0  0  0  0
  146.9070  155.8340  134.1710 C   0  0  0  0  0  0  0  0  0  0  0  0
  147.0460  154.3330  133.8630 C   0  0  0  0  0  0  0  0  0  0  0  0
  148.4820  153.9190  133.5130 C   0  0  0  0  0  0  0  0  0  0  0  0
  148.8890  154.4690  132.2250 N   0  0  0  0  0  0  0  0  0  0  0  0
  149.0690  156.6270  131.7850 H   0  0  0  0  0  0  0  0  0  0  0  0
  147.9393  161.2529  132.9667 H   0  0  0  0  0  0  0  0  0  0  0  0
  145.3625  162.1977  133.7692 H   0  0  0  0  0  0  0  0  0  0  0  0
  143.0472  161.4245  134.3787 H   0  0  0  0  0  0  0  0  0  0  0  0
  144.2386  157.2931  133.6531 H   0  0  0  0  0  0  0  0  0  0  0  0
  147.7460  156.1420  134.8123 H   0  0  0  0  0  0  0  0  0  0  0  0
  145.9394  155.9849  134.6721 H   0  0  0  0  0  0  0  0  0  0  0  0
  146.7233  153.7632  134.7469 H   0  0  0  0  0  0  0  0  0  0  0  0
  146.4204  154.1200  132.9837 H   0  0  0  0  0  0  0  0  0  0  0  0
  149.1629  154.2901  134.2932 H   0  0  0  0  0  0  0  0  0  0  0  0
  148.5238  152.8215  133.4526 H   0  0  0  0  0  0  0  0  0  0  0  0
  148.1170  154.3030  131.5400 H   0  0  0  0  0  0  0  0  0  0  0  0
  148.9750  155.5050  132.3320 H   0  0  0  0  0  0  0  0  0  0  0  0
  1  2  1  0
  2  3  2  0
  2  4  1  0
  4  5  2  0
  5  6  1  0
  6  7  2  0
  7  8  1  0
  8  9  2  0
  9 10  1  0
 10 11  1  0
 10 12  1  0
 10 13  1  0
  9 14  1  0
 14 15  2  0
 15 16  1  0
 16 17  1  0
 17 18  2  0
 17 19  1  0
 19 20  1  0
 20 21  1  0
 21 22  1  0
 16  4  1  0
 15  6  1  0
  1 23  1  0
  5 24  1  0
  7 25  1  0
  8 26  1  0
 14 27  1  0
 19 28  1  0
 19 29  1  0
 20 30  1  0
 20 31  1  0
 21 32  1  0
 21 33  1  0
 22 34  1  0
 22 35  1  0
M  CHG  1   1  -1
M  END
>  <UniqueID>  (95) 
94

>  <SMILES>  (95) 
[NH-]C(=O)c1cc2ccc(C(F)(F)F)cc2n1C(=O)CCCN

>  <Energy>  (95) 
69.73368223973405

>  <Genealogy>  (95) 
[NH-]C(=O)c1cc2ccc(C(F)(F)F)cc2n1C(=O)CCCN (protonated)
[NH-]C(=O)c1cc2ccc(C(F)(F)F)cc2n1C(=O)CCCN (3D coordinates assigned)
[NH-]C(=O)c1cc2ccc(C(F)(F)F)cc2n1C(=O)CCCN (optimized conformer: 69.73368223973405 kcal/mol)

>  <smiles>  (95) 
NCCCC(=O)n1c(C(N)=O)cc2ccc(C(F)(F)F)cc21

>  <score_type>  (95) 
oracle

>  <origin>  (95) 
adg

>  <m_score__min__energy>  (95) 
-5.6799999999999997

>  <m_primary>  (95) 
energy

$$$$
98:0
     RDKit          3D

 42 43  0  0  0  0  0  0  0  0999 V2000
  149.6240  151.4000  131.9440 C   0  0  0  0  0  0  0  0  0  0  0  0
  149.3080  151.8580  133.3640 C   0  0  0  0  0  0  0  0  0  0  0  0
  148.0950  152.6710  133.3800 N   0  0  0  0  0  0  0  0  0  0  0  0
  148.0730  154.0390  132.9500 C   0  0  0  0  0  0  0  0  0  0  0  0
  149.0900  154.5500  132.4070 O   0  0  0  0  0  0  0  0  0  0  0  0
  146.8970  154.8360  133.1500 N   0  0  0  0  0  0  0  0  0  0  0  0
  145.6000  154.4210  133.1940 C   0  0  0  0  0  0  0  0  0  0  0  0
  145.1380  153.0170  133.1860 C   0  0  0  0  0  0  0  0  0  0  0  0
  145.6160  152.0920  132.2130 N   0  0  0  0  0  0  0  0  0  0  0  0
  144.3390  152.6180  134.0740 O   0  0  0  0  0  0  0  0  0  0  0  0
  144.7420  155.5130  133.3120 C   0  0  0  0  0  0  0  0  0  0  0  0
  145.5610  156.6200  133.3410 C   0  0  0  0  0  0  0  0  0  0  0  0
  145.2390  157.9710  133.4210 C   0  0  0  0  0  0  0  0  0  0  0  0
  146.2910  158.9020  133.3880 C   0  0  0  0  0  0  0  0  0  0  0  0
  147.6360  158.4680  133.2770 C   0  0  0  0  0  0  0  0  0  0  0  0
  148.7560  159.4730  133.1940 C   0  0  0  0  0  0  0  0  0  0  0  0
  149.5910  159.2930  131.9470 C   0  0  0  0  0  0  0  0  0  0  0  0
  150.3480  158.2860  131.8510 O   0  0  0  0  0  0  0  0  0  0  0  0
  149.4970  160.2180  130.8420 N   0  0  0  0  0  0  0  0  0  0  0  0
  148.5440  161.3330  130.8720 C   0  0  0  0  0  0  0  0  0  0  0  0
  150.3540  160.0180  129.6690 C   0  0  0  0  0  0  0  0  0  0  0  0
  147.9220  157.0870  133.1850 C   0  0  0  0  0  0  0  0  0  0  0  0
  146.8570  156.1830  133.2400 C   0  0  0  0  0  0  0  0  0  0  0  0
  150.2483  150.4951  131.9810 H   0  0  0  0  0  0  0  0  0  0  0  0
  148.6865  151.1772  131.4134 H   0  0  0  0  0  0  0  0  0  0  0  0
  150.1651  152.1973  131.4134 H   0  0  0  0  0  0  0  0  0  0  0  0
  149.1614  150.9761  134.0048 H   0  0  0  0  0  0  0  0  0  0  0  0
  150.1471  152.4628  133.7383 H   0  0  0  0  0  0  0  0  0  0  0  0
  147.1990  152.2250  133.6780 H   0  0  0  0  0  0  0  0  0  0  0  0
  146.3020  152.3870  131.4840 H   0  0  0  0  0  0  0  0  0  0  0  0
  143.6437  155.4946  133.3697 H   0  0  0  0  0  0  0  0  0  0  0  0
  144.1930  158.3003  133.5074 H   0  0  0  0  0  0  0  0  0  0  0  0
  146.0688  159.9776  133.4489 H   0  0  0  0  0  0  0  0  0  0  0  0
  148.3247  160.4849  133.1889 H   0  0  0  0  0  0  0  0  0  0  0  0
  149.4111  159.3224  134.0647 H   0  0  0  0  0  0  0  0  0  0  0  0
  148.3196  161.5955  131.9164 H   0  0  0  0  0  0  0  0  0  0  0  0
  148.9817  162.2033  130.3611 H   0  0  0  0  0  0  0  0  0  0  0  0
  147.6162  161.0362  130.3611 H   0  0  0  0  0  0  0  0  0  0  0  0
  151.3762  159.7795  129.9981 H   0  0  0  0  0  0  0  0  0  0  0  0
  149.9602  159.1876  129.0645 H   0  0  0  0  0  0  0  0  0  0  0  0
  150.3685  160.9369  129.0645 H   0  0  0  0  0  0  0  0  0  0  0  0
  148.9571  156.7322  133.0729 H   0  0  0  0  0  0  0  0  0  0  0  0
  1  2  1  0
  2  3  1  0
  3  4  1  0
  4  5  2  0
  4  6  1  0
  6  7  1  0
  7  8  1  0
  8  9  1  0
  8 10  2  0
  7 11  2  0
 11 12  1  0
 12 13  2  0
 13 14  1  0
 14 15  2  0
 15 16  1  0
 16 17  1  0
 17 18  2  0
 17 19  1  0
 19 20  1  0
 19 21  1  0
 15 22  1  0
 22 23  2  0
 23  6  1  0
 23 12  1  0
  1 24  1  0
  1 25  1  0
  1 26  1  0
  2 27  1  0
  2 28  1  0
  3 29  1  0
  9 30  1  0
 11 31  1  0
 13 32  1  0
 14 33  1  0
 16 34  1  0
 16 35  1  0
 20 36  1  0
 20 37  1  0
 20 38  1  0
 21 39  1  0
 21 40  1  0
 21 41  1  0
 22 42  1  0
M  CHG  1   9  -1
M  END
>  <UniqueID>  (96) 
95

>  <SMILES>  (96) 
CCNC(=O)n1c(C([NH-])=O)cc2ccc(CC(=O)N(C)C)cc21

>  <Energy>  (96) 
73.38269842998918

>  <Genealogy>  (96) 
CCNC(=O)n1c(C([NH-])=O)cc2ccc(CC(=O)N(C)C)cc21 (protonated)
CCNC(=O)n1c(C([NH-])=O)cc2ccc(CC(=O)N(C)C)cc21 (3D coordinates assigned)
CCNC(=O)n1c(C([NH-])=O)cc2ccc(CC(=O)N(C)C)cc21 (optimized conformer: 73.38269842998918 kcal/mol)

>  <smiles>  (96) 
CCNC(=O)n1c(C(N)=O)cc2ccc(CC(=O)N(C)C)cc21

>  <score_type>  (96) 
oracle

>  <origin>  (96) 
adg

>  <m_score__min__energy>  (96) 
-7.2800000000000002

>  <m_primary>  (96) 
energy

$$$$
99:0
     RDKit          3D

 39 41  0  0  0  0  0  0  0  0999 V2000
  150.0100  160.5210  129.7940 C   0  0  0  0  0  0  0  0  0  0  0  0
  150.0070  159.9930  131.1140 O   0  0  0  0  0  0  0  0  0  0  0  0
  148.8640  159.4530  131.7090 C   0  0  0  0  0  0  0  0  0  0  0  0
  147.8060  160.2630  131.9740 N   0  0  0  0  0  0  0  0  0  0  0  0
  146.6760  159.7770  132.5500 C   0  0  0  0  0  0  0  0  0  0  0  0
  146.5840  158.4180  132.8870 C   0  0  0  0  0  0  0  0  0  0  0  0
  145.3600  157.8630  133.5180 C   0  0  0  0  0  0  0  0  0  0  0  0
  145.4140  156.6410  134.2410 C   0  0  0  0  0  0  0  0  0  0  0  0
  144.2640  156.1150  134.8530 C   0  0  0  0  0  0  0  0  0  0  0  0
  143.0740  156.8220  134.7220 C   0  0  0  0  0  0  0  0  0  0  0  0
  141.8250  156.5570  135.2380 C   0  0  0  0  0  0  0  0  0  0  0  0
  141.0160  157.6050  134.8030 C   0  0  0  0  0  0  0  0  0  0  0  0
  139.5650  157.6790  135.0710 C   0  0  0  0  0  0  0  0  0  0  0  0
  139.0730  158.1390  136.3280 N   0  0  0  0  0  0  0  0  0  0  0  0
  138.7450  157.3730  134.1640 O   0  0  0  0  0  0  0  0  0  0  0  0
  141.7370  158.4850  134.0530 N   0  0  0  0  0  0  0  0  0  0  0  0
  141.2990  159.7320  133.4910 C   0  0  0  0  0  0  0  0  0  0  0  0
  141.5250  160.8110  134.1020 O   0  0  0  0  0  0  0  0  0  0  0  0
  140.6240  159.7470  132.2290 N   0  0  0  0  0  0  0  0  0  0  0  0
  139.2900  159.1980  132.0230 C   0  0  0  0  0  0  0  0  0  0  0  0
  138.5080  160.0790  131.1030 C   0  0  0  0  0  0  0  0  0  0  0  0
  139.1030  160.8270  130.2830 O   0  0  0  0  0  0  0  0  0  0  0  0
  137.1190  160.0560  131.1350 O   0  0  0  0  0  0  0  0  0  0  0  0
  142.9950  157.9920  134.0130 C   0  0  0  0  0  0  0  0  0  0  0  0
  144.1270  158.5500  133.4090 C   0  0  0  0  0  0  0  0  0  0  0  0
  147.6900  157.6020  132.6050 C   0  0  0  0  0  0  0  0  0  0  0  0
  148.7990  158.1310  132.0250 N   0  0  0  0  0  0  0  0  0  0  0  0
  150.0162  161.6201  129.8387 H   0  0  0  0  0  0  0  0  0  0  0  0
  150.9062  160.1706  129.2610 H   0  0  0  0  0  0  0  0  0  0  0  0
  149.1099  160.1808  129.2610 H   0  0  0  0  0  0  0  0  0  0  0  0
  145.8305  160.4507  132.7529 H   0  0  0  0  0  0  0  0  0  0  0  0
  146.3683  156.1000  134.3226 H   0  0  0  0  0  0  0  0  0  0  0  0
  144.3039  155.1724  135.4186 H   0  0  0  0  0  0  0  0  0  0  0  0
  141.5289  155.7002  135.8611 H   0  0  0  0  0  0  0  0  0  0  0  0
  139.4770  158.9850  136.7850 H   0  0  0  0  0  0  0  0  0  0  0  0
  139.3740  158.1941  131.5812 H   0  0  0  0  0  0  0  0  0  0  0  0
  138.7717  159.1388  132.9914 H   0  0  0  0  0  0  0  0  0  0  0  0
  144.0604  159.5017  132.8614 H   0  0  0  0  0  0  0  0  0  0  0  0
  147.6592  156.5310  132.8542 H   0  0  0  0  0  0  0  0  0  0  0  0
  1  2  1  0
  2  3  1  0
  3  4  2  0
  4  5  1  0
  5  6  2  0
  6  7  1  0
  7  8  2  0
  8  9  1  0
  9 10  2  0
 10 11  1  0
 11 12  2  0
 12 13  1  0
 13 14  1  0
 13 15  2  0
 12 16  1  0
 16 17  1  0
 17 18  2  0
 17 19  1  0
 19 20  1  0
 20 21  1  0
 21 22  2  0
 21 23  1  0
 16 24  1  0
 24 25  2  0
  6 26  1  0
 26 27  2  0
 27  3  1  0
 25  7  1  0
 24 10  1  0
  1 28  1  0
  1 29  1  0
  1 30  1  0
  5 31  1  0
  8 32  1  0
  9 33  1  0
 11 34  1  0
 14 35  1  0
 20 36  1  0
 20 37  1  0
 25 38  1  0
 26 39  1  0
M  CHG  3  14  -1  19  -1  23  -1
M  END
>  <UniqueID>  (97) 
96

>  <SMILES>  (97) 
COc1ncc(-c2ccc3cc(C([NH-])=O)n(C(=O)[N-]CC(=O)[O-])c3c2)cn1

>  <Energy>  (97) 
82.2090354256266

>  <Genealogy>  (97) 
COc1ncc(-c2ccc3cc(C([NH-])=O)n(C(=O)[N-]CC(=O)[O-])c3c2)cn1 (protonated)
COc1ncc(-c2ccc3cc(C([NH-])=O)n(C(=O)[N-]CC(=O)[O-])c3c2)cn1 (3D coordinates assigned)
COc1ncc(-c2ccc3cc(C([NH-])=O)n(C(=O)[N-]CC(=O)[O-])c3c2)cn1 (optimized conformer: 82.2090354256266 kcal/mol)

>  <smiles>  (97) 
COc1ncc(-c2ccc3cc(C(N)=O)n(C(=O)NCC(=O)O)c3c2)cn1

>  <score_type>  (97) 
oracle

>  <origin>  (97) 
adg

>  <m_score__min__energy>  (97) 
-7.5800000000000001

>  <m_primary>  (97) 
energy

$$$$
