0:0
     RDKit          3D

 48 50  0  0  0  0  0  0  0  0999 V2000
  148.7040  153.3870  133.2400 C   0  0  0  0  0  0  0  0  0  0  0  0
  148.4550  153.1780  134.6240 O   0  0  0  0  0  0  0  0  0  0  0  0
  147.7020  154.0660  135.3960 C   0  0  0  0  0  0  0  0  0  0  0  0
  147.0530  153.6570  136.3980 O   0  0  0  0  0  0  0  0  0  0  0  0
  147.6890  155.5200  135.0470 C   0  0  0  0  0  0  0  0  0  0  0  0
  146.6380  155.8000  134.1250 O   0  0  0  0  0  0  0  0  0  0  0  0
  146.8050  156.6040  132.9910 C   0  0  0  0  0  0  0  0  0  0  0  0
  147.0450  156.0800  131.8690 O   0  0  0  0  0  0  0  0  0  0  0  0
  146.6780  158.0300  133.1060 N   0  0  0  0  0  0  0  0  0  0  0  0
  147.6180  158.9800  132.8320 C   0  0  0  0  0  0  0  0  0  0  0  0
  149.0310  158.7270  132.4820 C   0  0  0  0  0  0  0  0  0  0  0  0
  149.4970  157.3870  132.3390 N   0  0  0  0  0  0  0  0  0  0  0  0
  149.8260  159.6810  132.2740 O   0  0  0  0  0  0  0  0  0  0  0  0
  147.0870  160.2560  133.0140 C   0  0  0  0  0  0  0  0  0  0  0  0
  145.7880  160.0560  133.4170 C   0  0  0  0  0  0  0  0  0  0  0  0
  144.7980  160.9790  133.7330 C   0  0  0  0  0  0  0  0  0  0  0  0
  143.5330  160.4900  134.1000 C   0  0  0  0  0  0  0  0  0  0  0  0
  143.2700  159.0920  134.1400 C   0  0  0  0  0  0  0  0  0  0  0  0
  141.9580  158.5980  134.5140 N   0  0  0  0  0  0  0  0  0  0  0  0
  140.8610  158.6160  133.5290 C   0  0  0  0  0  0  0  0  0  0  0  0
  139.7520  157.6260  133.9020 C   0  0  0  0  0  0  0  0  0  0  0  0
  139.2100  157.8490  135.3260 C   0  0  0  0  0  0  0  0  0  0  0  0
  140.2050  158.5520  136.2670 C   0  0  0  0  0  0  0  0  0  0  0  0
  141.6730  158.2460  135.9230 C   0  0  1  0  0  0  0  0  0  0  0  0
  142.0030  156.8030  136.2150 C   0  0  0  0  0  0  0  0  0  0  0  0
  142.9400  156.2160  135.6110 O   0  0  0  0  0  0  0  0  0  0  0  0
  141.2630  156.1080  137.1620 O   0  0  0  0  0  0  0  0  0  0  0  0
  144.3120  158.1910  133.8100 C   0  0  0  0  0  0  0  0  0  0  0  0
  145.5660  158.7070  133.4660 C   0  0  0  0  0  0  0  0  0  0  0  0
  149.5415  154.0900  133.1202 H   0  0  0  0  0  0  0  0  0  0  0  0
  148.9590  152.4284  132.7645 H   0  0  0  0  0  0  0  0  0  0  0  0
  147.8041  153.8043  132.7645 H   0  0  0  0  0  0  0  0  0  0  0  0
  147.5357  156.1111  135.9619 H   0  0  0  0  0  0  0  0  0  0  0  0
  148.6507  155.7845  134.5832 H   0  0  0  0  0  0  0  0  0  0  0  0
  149.0790  156.7470  131.6280 H   0  0  0  0  0  0  0  0  0  0  0  0
  147.5987  161.2185  132.8665 H   0  0  0  0  0  0  0  0  0  0  0  0
  144.9989  162.0599  133.6968 H   0  0  0  0  0  0  0  0  0  0  0  0
  142.7333  161.1989  134.3605 H   0  0  0  0  0  0  0  0  0  0  0  0
  140.4355  159.6295  133.4869 H   0  0  0  0  0  0  0  0  0  0  0  0
  141.2710  158.3214  132.5517 H   0  0  0  0  0  0  0  0  0  0  0  0
  138.9231  157.7409  133.1880 H   0  0  0  0  0  0  0  0  0  0  0  0
  140.1835  156.6148  133.8655 H   0  0  0  0  0  0  0  0  0  0  0  0
  138.3016  158.4657  135.2586 H   0  0  0  0  0  0  0  0  0  0  0  0
  139.0134  156.8546  135.7531 H   0  0  0  0  0  0  0  0  0  0  0  0
  140.0471  159.6383  136.1965 H   0  0  0  0  0  0  0  0  0  0  0  0
  140.0191  158.1764  137.2840 H   0  0  0  0  0  0  0  0  0  0  0  0
  142.3204  158.8657  136.5609 H   0  0  0  0  0  0  0  0  0  0  0  0
  144.1383  157.1049  133.8240 H   0  0  0  0  0  0  0  0  0  0  0  0
  1  2  1  0
  2  3  1  0
  3  4  2  0
  3  5  1  0
  5  6  1  0
  6  7  1  0
  7  8  2  0
  7  9  1  0
  9 10  1  0
 10 11  1  0
 11 12  1  0
 11 13  2  0
 10 14  2  0
 14 15  1  0
 15 16  2  0
 16 17  1  0
 17 18  2  0
 18 19  1  0
 19 20  1  0
 20 21  1  0
 21 22  1  0
 22 23  1  0
 23 24  1  0
 24 25  1  0
 25 26  2  0
 25 27  1  0
 18 28  1  0
 28 29  2  0
 29  9  1  0
 29 15  1  0
 24 19  1  0
  1 30  1  0
  1 31  1  0
  1 32  1  0
  5 33  1  0
  5 34  1  0
 12 35  1  0
 14 36  1  0
 16 37  1  0
 17 38  1  0
 20 39  1  0
 20 40  1  0
 21 41  1  0
 21 42  1  0
 22 43  1  0
 22 44  1  0
 23 45  1  0
 23 46  1  0
 24 47  1  1
 28 48  1  0
M  CHG  2  12  -1  27  -1
M  END
>  <UniqueID>  (1) 
1

>  <SMILES>  (1) 
COC(=O)COC(=O)n1c(C([NH-])=O)cc2ccc(N3CCCC[C@H]3C(=O)[O-])cc21

>  <Energy>  (1) 
88.62242208034631

>  <Genealogy>  (1) 
COC(=O)COC(=O)n1c(C([NH-])=O)cc2ccc(N3CCCCC3C(=O)[O-])cc21 (protonated)
COC(=O)COC(=O)n1c(C([NH-])=O)cc2ccc(N3CCCC[C@H]3C(=O)[O-])cc21 (chirality)
COC(=O)COC(=O)n1c(C([NH-])=O)cc2ccc(N3CCCC[C@H]3C(=O)[O-])cc21 (3D coordinates assigned)
COC(=O)COC(=O)n1c(C([NH-])=O)cc2ccc(N3CCCC[C@H]3C(=O)[O-])cc21 (nonaromatic ring conformer: 88.62242208034631 kcal/mol)

>  <smiles>  (1) 
COC(=O)COC(=O)n1c(C(N)=O)cc2ccc(N3CCCCC3C(=O)O)cc21

>  <score_type>  (1) 
oracle

>  <origin>  (1) 
adg

>  <m_score__min__energy>  (1) 
-7.75

>  <m_primary>  (1) 
energy

$$$$
1:0
     RDKit          3D

 39 40  0  0  0  0  0  0  0  0999 V2000
  149.2620  160.1780  129.9550 C   0  0  0  0  0  0  0  0  0  0  0  0
  149.6080  160.2170  131.4400 C   0  0  0  0  0  0  0  0  0  0  0  0
  148.6640  159.3530  132.2310 C   0  0  0  0  0  0  0  0  0  0  0  0
  147.5940  159.9440  132.9470 C   0  0  0  0  0  0  0  0  0  0  0  0
  146.6950  159.1470  133.6750 C   0  0  0  0  0  0  0  0  0  0  0  0
  146.8780  157.7680  133.6510 C   0  0  0  0  0  0  0  0  0  0  0  0
  146.1740  156.7730  134.2890 C   0  0  0  0  0  0  0  0  0  0  0  0
  146.7990  155.5860  133.9180 C   0  0  0  0  0  0  0  0  0  0  0  0
  146.3220  154.2530  134.3400 C   0  0  0  0  0  0  0  0  0  0  0  0
  146.1660  153.1900  133.3980 N   0  0  0  0  0  0  0  0  0  0  0  0
  145.9970  154.0640  135.5420 O   0  0  0  0  0  0  0  0  0  0  0  0
  147.8560  155.8330  133.0930 N   0  0  0  0  0  0  0  0  0  0  0  0
  148.8140  154.8790  132.6030 C   0  0  0  0  0  0  0  0  0  0  0  0
  149.9870  155.2480  132.3220 O   0  0  0  0  0  0  0  0  0  0  0  0
  148.4400  153.5430  132.4390 O   0  0  0  0  0  0  0  0  0  0  0  0
  149.2550  152.4540  132.8590 C   0  0  0  0  0  0  0  0  0  0  0  0
  149.0690  151.2670  131.9140 C   0  0  0  0  0  0  0  0  0  0  0  0
  147.7680  150.5160  132.1950 C   0  0  0  0  0  0  0  0  0  0  0  0
  146.6790  151.3290  131.8580 O   0  0  0  0  0  0  0  0  0  0  0  0
  147.8900  157.1760  132.9380 C   0  0  0  0  0  0  0  0  0  0  0  0
  148.8140  157.9490  132.2220 C   0  0  0  0  0  0  0  0  0  0  0  0
  148.1755  160.0555  129.8348 H   0  0  0  0  0  0  0  0  0  0  0  0
  149.5799  161.1177  129.4796 H   0  0  0  0  0  0  0  0  0  0  0  0
  149.7811  159.3327  129.4796 H   0  0  0  0  0  0  0  0  0  0  0  0
  150.6357  159.8509  131.5806 H   0  0  0  0  0  0  0  0  0  0  0  0
  149.5191  161.2541  131.7958 H   0  0  0  0  0  0  0  0  0  0  0  0
  147.4660  161.0364  132.9328 H   0  0  0  0  0  0  0  0  0  0  0  0
  145.8713  159.5995  134.2467 H   0  0  0  0  0  0  0  0  0  0  0  0
  145.3033  156.8904  134.9509 H   0  0  0  0  0  0  0  0  0  0  0  0
  146.2700  153.3590  132.3730 H   0  0  0  0  0  0  0  0  0  0  0  0
  145.8710  152.2430  133.7210 H   0  0  0  0  0  0  0  0  0  0  0  0
  150.3103  152.7644  132.8507 H   0  0  0  0  0  0  0  0  0  0  0  0
  148.9621  152.1551  133.8763 H   0  0  0  0  0  0  0  0  0  0  0  0
  149.0503  151.6362  130.8780 H   0  0  0  0  0  0  0  0  0  0  0  0
  149.9062  150.5709  132.0707 H   0  0  0  0  0  0  0  0  0  0  0  0
  147.7386  149.5954  131.5937 H   0  0  0  0  0  0  0  0  0  0  0  0
  147.7166  150.2575  133.2630 H   0  0  0  0  0  0  0  0  0  0  0  0
  147.0650  152.1680  131.4930 H   0  0  0  0  0  0  0  0  0  0  0  0
  149.6359  157.4737  131.6666 H   0  0  0  0  0  0  0  0  0  0  0  0
  1  2  1  0
  2  3  1  0
  3  4  2  0
  4  5  1  0
  5  6  2  0
  6  7  1  0
  7  8  2  0
  8  9  1  0
  9 10  1  0
  9 11  2  0
  8 12  1  0
 12 13  1  0
 13 14  2  0
 13 15  1  0
 15 16  1  0
 16 17  1  0
 17 18  1  0
 18 19  1  0
 12 20  1  0
 20 21  2  0
 21  3  1  0
 20  6  1  0
  1 22  1  0
  1 23  1  0
  1 24  1  0
  2 25  1  0
  2 26  1  0
  4 27  1  0
  5 28  1  0
  7 29  1  0
 10 30  1  0
 10 31  1  0
 16 32  1  0
 16 33  1  0
 17 34  1  0
 17 35  1  0
 18 36  1  0
 18 37  1  0
 19 38  1  0
 21 39  1  0
M  END
>  <UniqueID>  (2) 
2

>  <SMILES>  (2) 
CCc1ccc2cc(C(N)=O)n(C(=O)OCCCO)c2c1

>  <Energy>  (2) 
67.45508936284457

>  <Genealogy>  (2) 
CCc1ccc2cc(C(N)=O)n(C(=O)OCCCO)c2c1 (3D coordinates assigned)
CCc1ccc2cc(C(N)=O)n(C(=O)OCCCO)c2c1 (optimized conformer: 67.45508936284457 kcal/mol)

>  <smiles>  (2) 
CCc1ccc2cc(C(N)=O)n(C(=O)OCCCO)c2c1

>  <score_type>  (2) 
oracle

>  <origin>  (2) 
adg

>  <m_score__min__energy>  (2) 
-6.6399999999999997

>  <m_primary>  (2) 
energy

$$$$
2:0
     RDKit          3D

 33 34  0  0  0  0  0  0  0  0999 V2000
  143.2800  155.3040  133.3010 N   0  0  0  0  0  0  0  0  0  0  0  0
  143.3320  154.0280  133.9390 C   0  0  0  0  0  0  0  0  0  0  0  0
  144.0280  153.8860  134.9790 O   0  0  0  0  0  0  0  0  0  0  0  0
  142.6370  152.8580  133.3660 C   0  0  0  0  0  0  0  0  0  0  0  0
  143.2350  151.6090  133.2190 C   0  0  0  0  0  0  0  0  0  0  0  0
  142.2880  150.8240  132.6020 C   0  0  0  0  0  0  0  0  0  0  0  0
  142.3390  149.4820  132.2420 C   0  0  0  0  0  0  0  0  0  0  0  0
  141.1940  148.9110  131.6620 C   0  0  0  0  0  0  0  0  0  0  0  0
  140.0260  149.6880  131.4450 C   0  0  0  0  0  0  0  0  0  0  0  0
  138.7830  149.0470  130.8820 C   0  0  0  0  0  0  0  0  0  0  0  0
  138.8270  147.6860  131.1180 F   0  0  0  0  0  0  0  0  0  0  0  0
  137.6500  149.5730  131.4770 F   0  0  0  0  0  0  0  0  0  0  0  0
  138.6960  149.2650  129.5170 F   0  0  0  0  0  0  0  0  0  0  0  0
  140.0070  151.0430  131.8480 C   0  0  0  0  0  0  0  0  0  0  0  0
  141.1690  151.5920  132.4040 C   0  0  0  0  0  0  0  0  0  0  0  0
  141.3680  152.8460  132.8710 N   0  0  0  0  0  0  0  0  0  0  0  0
  140.3930  153.8980  132.9530 C   0  0  0  0  0  0  0  0  0  0  0  0
  139.1640  153.6190  132.9780 O   0  0  0  0  0  0  0  0  0  0  0  0
  140.8160  155.2330  132.9950 O   0  0  0  0  0  0  0  0  0  0  0  0
  139.9640  156.3240  133.3410 C   0  0  0  0  0  0  0  0  0  0  0  0
  140.7370  157.6410  133.3320 C   0  0  0  0  0  0  0  0  0  0  0  0
  142.0530  157.4290  132.9050 O   0  0  0  0  0  0  0  0  0  0  0  0
  143.7430  156.1300  133.7430 H   0  0  0  0  0  0  0  0  0  0  0  0
  142.8540  155.4190  132.3560 H   0  0  0  0  0  0  0  0  0  0  0  0
  144.2479  151.3131  133.5297 H   0  0  0  0  0  0  0  0  0  0  0  0
  143.2484  148.8854  132.4064 H   0  0  0  0  0  0  0  0  0  0  0  0
  141.2026  147.8498  131.3727 H   0  0  0  0  0  0  0  0  0  0  0  0
  139.0993  151.6526  131.7274 H   0  0  0  0  0  0  0  0  0  0  0  0
  139.1414  156.3839  132.6132 H   0  0  0  0  0  0  0  0  0  0  0  0
  139.5686  156.1547  134.3534 H   0  0  0  0  0  0  0  0  0  0  0  0
  140.2430  158.3471  132.6483 H   0  0  0  0  0  0  0  0  0  0  0  0
  140.7537  158.0530  134.3518 H   0  0  0  0  0  0  0  0  0  0  0  0
  142.0090  156.7060  132.2270 H   0  0  0  0  0  0  0  0  0  0  0  0
  1  2  1  0
  2  3  2  0
  2  4  1  0
  4  5  2  0
  5  6  1  0
  6  7  2  0
  7  8  1  0
  8  9  2  0
  9 10  1  0
 10 11  1  0
 10 12  1  0
 10 13  1  0
  9 14  1  0
 14 15  2  0
 15 16  1  0
 16 17  1  0
 17 18  2  0
 17 19  1  0
 19 20  1  0
 20 21  1  0
 21 22  1  0
 16  4  1  0
 15  6  1  0
  1 23  1  0
  1 24  1  0
  5 25  1  0
  7 26  1  0
  8 27  1  0
 14 28  1  0
 20 29  1  0
 20 30  1  0
 21 31  1  0
 21 32  1  0
 22 33  1  0
M  END
>  <UniqueID>  (3) 
3

>  <SMILES>  (3) 
NC(=O)c1cc2ccc(C(F)(F)F)cc2n1C(=O)OCCO

>  <Energy>  (3) 
69.70972769723903

>  <Genealogy>  (3) 
NC(=O)c1cc2ccc(C(F)(F)F)cc2n1C(=O)OCCO (3D coordinates assigned)
NC(=O)c1cc2ccc(C(F)(F)F)cc2n1C(=O)OCCO (optimized conformer: 69.70972769723903 kcal/mol)

>  <smiles>  (3) 
NC(=O)c1cc2ccc(C(F)(F)F)cc2n1C(=O)OCCO

>  <score_type>  (3) 
oracle

>  <origin>  (3) 
adg

>  <m_score__min__energy>  (3) 
-5.7400000000000002

>  <m_primary>  (3) 
energy

$$$$
3:0
     RDKit          3D

 36 38  0  0  0  0  0  0  0  0999 V2000
  137.3230  159.4470  131.1000 C   0  0  0  0  0  0  0  0  0  0  0  0
  138.9480  159.3300  131.8160 S   0  0  0  0  0  0  0  0  0  0  0  0
  139.3800  160.6940  132.2720 O   0  0  0  0  0  0  0  0  0  0  0  0
  139.9170  158.8250  130.7830 O   0  0  0  0  0  0  0  0  0  0  0  0
  138.9260  158.2290  133.2210 C   0  0  0  0  0  0  0  0  0  0  0  0
  139.6510  156.9550  132.9050 C   0  0  0  0  0  0  0  0  0  0  0  0
  139.1130  156.1110  132.1390 O   0  0  0  0  0  0  0  0  0  0  0  0
  140.9050  156.6460  133.5340 N   0  0  0  0  0  0  0  0  0  0  0  0
  141.7900  157.5080  134.1080 C   0  0  0  0  0  0  0  0  0  0  0  0
  141.6990  158.9840  134.0600 C   0  0  0  0  0  0  0  0  0  0  0  0
  141.6370  159.6730  132.8100 N   0  0  0  0  0  0  0  0  0  0  0  0
  141.6510  159.6480  135.1300 O   0  0  0  0  0  0  0  0  0  0  0  0
  142.8580  156.8060  134.6660 C   0  0  0  0  0  0  0  0  0  0  0  0
  142.6000  155.4790  134.4040 C   0  0  0  0  0  0  0  0  0  0  0  0
  143.3280  154.3400  134.7350 C   0  0  0  0  0  0  0  0  0  0  0  0
  142.8090  153.0920  134.3500 C   0  0  0  0  0  0  0  0  0  0  0  0
  141.5790  153.0010  133.6480 C   0  0  0  0  0  0  0  0  0  0  0  0
  141.0360  151.6820  133.2610 C   0  0  0  0  0  0  0  0  0  0  0  0
  141.3520  150.5270  133.8820 N   0  0  0  0  0  0  0  0  0  0  0  0
  140.6300  149.6260  133.1880 C   0  0  0  0  0  0  0  0  0  0  0  0
  139.9160  150.1970  132.2010 N   0  0  0  0  0  0  0  0  0  0  0  0
  140.1720  151.4920  132.2460 N   0  0  0  0  0  0  0  0  0  0  0  0
  140.8730  154.1830  133.3260 C   0  0  0  0  0  0  0  0  0  0  0  0
  141.4180  155.4100  133.7150 C   0  0  0  0  0  0  0  0  0  0  0  0
  136.5720  159.5011  131.9019 H   0  0  0  0  0  0  0  0  0  0  0  0
  137.2608  160.3520  130.4778 H   0  0  0  0  0  0  0  0  0  0  0  0
  137.1318  158.5603  130.4778 H   0  0  0  0  0  0  0  0  0  0  0  0
  139.4158  158.7216  134.0739 H   0  0  0  0  0  0  0  0  0  0  0  0
  137.8810  157.9903  133.4680 H   0  0  0  0  0  0  0  0  0  0  0  0
  141.5340  160.7110  132.7890 H   0  0  0  0  0  0  0  0  0  0  0  0
  141.7440  159.1640  131.9040 H   0  0  0  0  0  0  0  0  0  0  0  0
  143.7231  157.2238  135.2018 H   0  0  0  0  0  0  0  0  0  0  0  0
  144.2800  154.4142  135.2810 H   0  0  0  0  0  0  0  0  0  0  0  0
  143.3631  152.1741  134.5959 H   0  0  0  0  0  0  0  0  0  0  0  0
  140.6248  148.5473  133.4035 H   0  0  0  0  0  0  0  0  0  0  0  0
  139.9178  154.1380  132.7824 H   0  0  0  0  0  0  0  0  0  0  0  0
  1  2  1  0
  2  3  2  0
  2  4  2  0
  2  5  1  0
  5  6  1  0
  6  7  2  0
  6  8  1  0
  8  9  1  0
  9 10  1  0
 10 11  1  0
 10 12  2  0
  9 13  2  0
 13 14  1  0
 14 15  2  0
 15 16  1  0
 16 17  2  0
 17 18  1  0
 18 19  2  0
 19 20  1  0
 20 21  2  0
 21 22  1  0
 17 23  1  0
 23 24  2  0
 24  8  1  0
 24 14  1  0
 22 18  1  0
  1 25  1  0
  1 26  1  0
  1 27  1  0
  5 28  1  0
  5 29  1  0
 11 30  1  0
 11 31  1  0
 13 32  1  0
 15 33  1  0
 16 34  1  0
 20 35  1  0
 23 36  1  0
M  CHG  1  22  -1
M  END
>  <UniqueID>  (4) 
4

>  <SMILES>  (4) 
CS(=O)(=O)CC(=O)n1c(C(N)=O)cc2ccc(-c3ncn[n-]3)cc21

>  <Energy>  (4) 
100.63737719170572

>  <Genealogy>  (4) 
CS(=O)(=O)CC(=O)n1c(C(N)=O)cc2ccc(-c3ncn[n-]3)cc21 (protonated)
CS(=O)(=O)CC(=O)n1c(C(N)=O)cc2ccc(-c3ncn[n-]3)cc21 (3D coordinates assigned)
CS(=O)(=O)CC(=O)n1c(C(N)=O)cc2ccc(-c3ncn[n-]3)cc21 (optimized conformer: 100.63737719170572 kcal/mol)

>  <smiles>  (4) 
CS(=O)(=O)CC(=O)n1c(C(N)=O)cc2ccc(-c3ncn[nH]3)cc21

>  <score_type>  (4) 
oracle

>  <origin>  (4) 
adg

>  <m_score__min__energy>  (4) 
-8.1500000000000004

>  <m_primary>  (4) 
energy

$$$$
4:0
     RDKit          3D

 26 27  0  0  0  0  0  0  0  0999 V2000
  141.3750  160.8380  133.5820 N   0  0  0  0  0  0  0  0  0  0  0  0
  142.2000  160.0790  134.4620 C   0  0  0  0  0  0  0  0  0  0  0  0
  141.7450  159.7230  135.5810 O   0  0  0  0  0  0  0  0  0  0  0  0
  143.5840  159.7420  134.0680 C   0  0  0  0  0  0  0  0  0  0  0  0
  144.0330  158.4390  133.8580 C   0  0  0  0  0  0  0  0  0  0  0  0
  145.3350  158.5670  133.4240 C   0  0  0  0  0  0  0  0  0  0  0  0
  146.2630  157.5930  133.0680 C   0  0  0  0  0  0  0  0  0  0  0  0
  147.5410  158.0180  132.6650 C   0  0  0  0  0  0  0  0  0  0  0  0
  147.8660  159.3980  132.6300 C   0  0  0  0  0  0  0  0  0  0  0  0
  149.2360  159.8470  132.2070 C   0  0  0  0  0  0  0  0  0  0  0  0
  149.1260  160.8050  131.2140 F   0  0  0  0  0  0  0  0  0  0  0  0
  149.9510  158.7670  131.7220 F   0  0  0  0  0  0  0  0  0  0  0  0
  146.8970  160.3560  132.9990 C   0  0  0  0  0  0  0  0  0  0  0  0
  145.6320  159.9040  133.3860 C   0  0  0  0  0  0  0  0  0  0  0  0
  144.5710  160.6370  133.7850 N   0  0  0  0  0  0  0  0  0  0  0  0
  144.5330  162.0670  133.9040 C   0  0  0  0  0  0  0  0  0  0  0  0
  143.5930  162.7110  133.3680 O   0  0  0  0  0  0  0  0  0  0  0  0
  145.6030  162.7960  134.6010 C   0  0  0  0  0  0  0  0  0  0  0  0
  146.6410  163.1510  133.9810 O   0  0  0  0  0  0  0  0  0  0  0  0
  145.4690  163.1110  135.9470 O   0  0  0  0  0  0  0  0  0  0  0  0
  141.7790  161.6020  132.9940 H   0  0  0  0  0  0  0  0  0  0  0  0
  143.4683  157.5069  134.0070 H   0  0  0  0  0  0  0  0  0  0  0  0
  146.0047  156.5243  133.1009 H   0  0  0  0  0  0  0  0  0  0  0  0
  148.2962  157.2730  132.3740 H   0  0  0  0  0  0  0  0  0  0  0  0
  149.7593  160.2747  133.0749 H   0  0  0  0  0  0  0  0  0  0  0  0
  147.1313  161.4306  132.9824 H   0  0  0  0  0  0  0  0  0  0  0  0
  1  2  1  0
  2  3  2  0
  2  4  1  0
  4  5  2  0
  5  6  1  0
  6  7  2  0
  7  8  1  0
  8  9  2  0
  9 10  1  0
 10 11  1  0
 10 12  1  0
  9 13  1  0
 13 14  2  0
 14 15  1  0
 15 16  1  0
 16 17  2  0
 16 18  1  0
 18 19  2  0
 18 20  1  0
 15  4  1  0
 14  6  1  0
  1 21  1  0
  5 22  1  0
  7 23  1  0
  8 24  1  0
 10 25  1  0
 13 26  1  0
M  CHG  2   1  -1  20  -1
M  END
>  <UniqueID>  (5) 
5

>  <SMILES>  (5) 
[NH-]C(=O)c1cc2ccc(C(F)F)cc2n1C(=O)C(=O)[O-]

>  <Energy>  (5) 
65.50436080694048

>  <Genealogy>  (5) 
[NH-]C(=O)c1cc2ccc(C(F)F)cc2n1C(=O)C(=O)[O-] (protonated)
[NH-]C(=O)c1cc2ccc(C(F)F)cc2n1C(=O)C(=O)[O-] (3D coordinates assigned)
[NH-]C(=O)c1cc2ccc(C(F)F)cc2n1C(=O)C(=O)[O-] (optimized conformer: 65.50436080694048 kcal/mol)

>  <smiles>  (5) 
NC(=O)c1cc2ccc(C(F)F)cc2n1C(=O)C(=O)O

>  <score_type>  (5) 
oracle

>  <origin>  (5) 
adg

>  <m_score__min__energy>  (5) 
-5.5899999999999999

>  <m_primary>  (5) 
energy

$$$$
5:0
     RDKit          3D

 48 49  0  0  0  0  0  0  0  0999 V2000
  140.5170  156.8350  133.0220 C   0  0  0  0  0  0  0  0  0  0  0  0
  140.0560  158.2410  133.1170 N   0  0  0  0  0  0  0  0  0  0  0  0
  138.6060  158.2300  133.4340 C   0  0  0  0  0  0  0  0  0  0  0  0
  140.2300  158.9160  131.8070 C   0  0  0  0  0  0  0  0  0  0  0  0
  140.7630  158.9840  134.2080 C   0  0  0  0  0  0  0  0  0  0  0  0
  141.7080  158.1310  135.1160 C   0  0  2  0  0  0  0  0  0  0  0  0
  141.3600  158.3090  136.6070 C   0  0  0  0  0  0  0  0  0  0  0  0
  140.1230  157.5450  136.9800 C   0  0  0  0  0  0  0  0  0  0  0  0
  140.1820  156.5930  137.8060 O   0  0  0  0  0  0  0  0  0  0  0  0
  138.9030  157.8800  136.4020 O   0  0  0  0  0  0  0  0  0  0  0  0
  143.0610  158.5530  134.9280 O   0  0  0  0  0  0  0  0  0  0  0  0
  143.7290  158.5180  133.6980 C   0  0  0  0  0  0  0  0  0  0  0  0
  143.2180  157.9170  132.7130 O   0  0  0  0  0  0  0  0  0  0  0  0
  145.0140  159.1460  133.5690 N   0  0  0  0  0  0  0  0  0  0  0  0
  145.3010  160.4780  133.6540 C   0  0  0  0  0  0  0  0  0  0  0  0
  144.3160  161.5760  133.7330 C   0  0  0  0  0  0  0  0  0  0  0  0
  142.9200  161.2860  133.6870 N   0  0  0  0  0  0  0  0  0  0  0  0
  144.6920  162.7700  133.8780 O   0  0  0  0  0  0  0  0  0  0  0  0
  146.6740  160.6910  133.5620 C   0  0  0  0  0  0  0  0  0  0  0  0
  147.2260  159.4400  133.4030 C   0  0  0  0  0  0  0  0  0  0  0  0
  148.5570  159.0670  133.2460 C   0  0  0  0  0  0  0  0  0  0  0  0
  148.8460  157.6980  133.1110 C   0  0  0  0  0  0  0  0  0  0  0  0
  147.8110  156.7280  133.1640 C   0  0  0  0  0  0  0  0  0  0  0  0
  148.1360  155.2670  132.9690 C   0  0  0  0  0  0  0  0  0  0  0  0
  149.3440  155.1560  132.3020 F   0  0  0  0  0  0  0  0  0  0  0  0
  147.1490  154.6340  132.2270 F   0  0  0  0  0  0  0  0  0  0  0  0
  148.2360  154.6260  134.1910 F   0  0  0  0  0  0  0  0  0  0  0  0
  146.4670  157.1510  133.3030 C   0  0  0  0  0  0  0  0  0  0  0  0
  146.2060  158.5250  133.4120 C   0  0  0  0  0  0  0  0  0  0  0  0
  140.6517  156.4242  134.0335 H   0  0  0  0  0  0  0  0  0  0  0  0
  139.7672  156.2390  132.4810 H   0  0  0  0  0  0  0  0  0  0  0  0
  141.4741  156.7987  132.4810 H   0  0  0  0  0  0  0  0  0  0  0  0
  138.4693  158.2290  134.5255 H   0  0  0  0  0  0  0  0  0  0  0  0
  138.1302  159.1246  133.0057 H   0  0  0  0  0  0  0  0  0  0  0  0
  138.1439  157.3283  133.0057 H   0  0  0  0  0  0  0  0  0  0  0  0
  140.5015  159.9694  131.9705 H   0  0  0  0  0  0  0  0  0  0  0  0
  141.0284  158.4153  131.2397 H   0  0  0  0  0  0  0  0  0  0  0  0
  139.2890  158.8637  131.2397 H   0  0  0  0  0  0  0  0  0  0  0  0
  141.3687  159.7738  133.7397 H   0  0  0  0  0  0  0  0  0  0  0  0
  139.9713  159.3593  134.8731 H   0  0  0  0  0  0  0  0  0  0  0  0
  141.5797  157.0754  134.8343 H   0  0  0  0  0  0  0  0  0  0  0  0
  142.2011  157.9460  137.2158 H   0  0  0  0  0  0  0  0  0  0  0  0
  141.1739  159.3772  136.7920 H   0  0  0  0  0  0  0  0  0  0  0  0
  142.5710  160.3050  133.7400 H   0  0  0  0  0  0  0  0  0  0  0  0
  147.2044  161.6536  133.6068 H   0  0  0  0  0  0  0  0  0  0  0  0
  149.3586  159.8201  133.2281 H   0  0  0  0  0  0  0  0  0  0  0  0
  149.8868  157.3745  132.9625 H   0  0  0  0  0  0  0  0  0  0  0  0
  145.6462  156.4190  133.3250 H   0  0  0  0  0  0  0  0  0  0  0  0
  1  2  1  0
  2  3  1  0
  2  4  1  0
  2  5  1  0
  5  6  1  0
  6  7  1  0
  7  8  1  0
  8  9  2  0
  8 10  1  0
  6 11  1  0
 11 12  1  0
 12 13  2  0
 12 14  1  0
 14 15  1  0
 15 16  1  0
 16 17  1  0
 16 18  2  0
 15 19  2  0
 19 20  1  0
 20 21  2  0
 21 22  1  0
 22 23  2  0
 23 24  1  0
 24 25  1  0
 24 26  1  0
 24 27  1  0
 23 28  1  0
 28 29  2  0
 29 14  1  0
 29 20  1  0
  1 30  1  0
  1 31  1  0
  1 32  1  0
  3 33  1  0
  3 34  1  0
  3 35  1  0
  4 36  1  0
  4 37  1  0
  4 38  1  0
  5 39  1  0
  5 40  1  0
  6 41  1  6
  7 42  1  0
  7 43  1  0
 17 44  1  0
 19 45  1  0
 21 46  1  0
 22 47  1  0
 28 48  1  0
M  CHG  3   2   1  10  -1  17  -1
M  END
>  <UniqueID>  (6) 
6

>  <SMILES>  (6) 
C[N+](C)(C)C[C@H](CC(=O)[O-])OC(=O)n1c(C([NH-])=O)cc2ccc(C(F)(F)F)cc21

>  <Energy>  (6) 
92.3005557438671

>  <Genealogy>  (6) 
C[N+](C)(C)CC(CC(=O)[O-])OC(=O)n1c(C([NH-])=O)cc2ccc(C(F)(F)F)cc21 (protonated)
C[N+](C)(C)C[C@H](CC(=O)[O-])OC(=O)n1c(C([NH-])=O)cc2ccc(C(F)(F)F)cc21 (chirality)
C[N+](C)(C)C[C@H](CC(=O)[O-])OC(=O)n1c(C([NH-])=O)cc2ccc(C(F)(F)F)cc21 (3D coordinates assigned)
C[N+](C)(C)C[C@H](CC(=O)[O-])OC(=O)n1c(C([NH-])=O)cc2ccc(C(F)(F)F)cc21 (optimized conformer: 92.3005557438671 kcal/mol)

>  <smiles>  (6) 
C[N+](C)(C)CC(CC(=O)O)OC(=O)n1c(C(N)=O)cc2ccc(C(F)(F)F)cc21

>  <score_type>  (6) 
oracle

>  <origin>  (6) 
adg

>  <m_score__min__energy>  (6) 
-6.0899999999999999

>  <m_primary>  (6) 
energy

$$$$
6:0
     RDKit          3D

 39 40  0  0  0  0  0  0  0  0999 V2000
  141.4900  157.0550  134.7300 C   0  0  0  0  0  0  0  0  0  0  0  0
  141.5680  158.5930  134.7830 C   0  0  0  0  0  0  0  0  0  0  0  0
  141.1190  159.0590  136.1790 C   0  0  0  0  0  0  0  0  0  0  0  0
  140.6470  159.2120  133.7040 C   0  0  0  0  0  0  0  0  0  0  0  0
  141.3920  159.9340  132.7580 O   0  0  0  0  0  0  0  0  0  0  0  0
  142.9550  159.0330  134.5920 N   0  0  0  0  0  0  0  0  0  0  0  0
  143.8540  158.6280  133.5490 C   0  0  0  0  0  0  0  0  0  0  0  0
  143.4630  157.8550  132.6340 O   0  0  0  0  0  0  0  0  0  0  0  0
  145.2040  159.1200  133.5440 N   0  0  0  0  0  0  0  0  0  0  0  0
  145.6130  160.4160  133.6330 C   0  0  0  0  0  0  0  0  0  0  0  0
  144.7490  161.5770  133.9330 C   0  0  0  0  0  0  0  0  0  0  0  0
  143.3470  161.5440  133.6620 N   0  0  0  0  0  0  0  0  0  0  0  0
  145.2480  162.5940  134.4840 O   0  0  0  0  0  0  0  0  0  0  0  0
  146.9900  160.5120  133.4540 C   0  0  0  0  0  0  0  0  0  0  0  0
  147.4210  159.2200  133.2630 C   0  0  0  0  0  0  0  0  0  0  0  0
  148.7020  158.7330  133.0190 C   0  0  0  0  0  0  0  0  0  0  0  0
  148.8540  157.3510  132.8190 C   0  0  0  0  0  0  0  0  0  0  0  0
  147.7300  156.4880  132.8560 C   0  0  0  0  0  0  0  0  0  0  0  0
  147.9120  155.0160  132.6190 C   0  0  0  0  0  0  0  0  0  0  0  0
  149.2610  154.7190  132.5550 F   0  0  0  0  0  0  0  0  0  0  0  0
  147.3350  154.3010  133.6520 F   0  0  0  0  0  0  0  0  0  0  0  0
  146.4440  157.0190  133.1020 C   0  0  0  0  0  0  0  0  0  0  0  0
  146.3250  158.3980  133.3190 C   0  0  0  0  0  0  0  0  0  0  0  0
  141.4696  156.6534  135.7539 H   0  0  0  0  0  0  0  0  0  0  0  0
  140.5754  156.7523  134.1991 H   0  0  0  0  0  0  0  0  0  0  0  0
  142.3693  156.6613  134.1991 H   0  0  0  0  0  0  0  0  0  0  0  0
  141.6649  158.4925  136.9478 H   0  0  0  0  0  0  0  0  0  0  0  0
  141.3324  160.1320  136.2936 H   0  0  0  0  0  0  0  0  0  0  0  0
  140.0388  158.8857  136.2936 H   0  0  0  0  0  0  0  0  0  0  0  0
  140.1010  158.4059  133.1921 H   0  0  0  0  0  0  0  0  0  0  0  0
  139.9456  159.9014  134.1967 H   0  0  0  0  0  0  0  0  0  0  0  0
  142.1880  159.3850  132.5360 H   0  0  0  0  0  0  0  0  0  0  0  0
  142.8770  160.6620  133.3660 H   0  0  0  0  0  0  0  0  0  0  0  0
  142.7600  162.3900  133.8340 H   0  0  0  0  0  0  0  0  0  0  0  0
  147.6024  161.4257  133.4633 H   0  0  0  0  0  0  0  0  0  0  0  0
  149.5686  159.4096  132.9839 H   0  0  0  0  0  0  0  0  0  0  0  0
  149.8547  156.9344  132.6319 H   0  0  0  0  0  0  0  0  0  0  0  0
  147.4288  154.7418  131.6696 H   0  0  0  0  0  0  0  0  0  0  0  0
  145.5588  156.3663  133.1226 H   0  0  0  0  0  0  0  0  0  0  0  0
  1  2  1  0
  2  3  1  0
  2  4  1  0
  4  5  1  0
  2  6  1  0
  6  7  1  0
  7  8  2  0
  7  9  1  0
  9 10  1  0
 10 11  1  0
 11 12  1  0
 11 13  2  0
 10 14  2  0
 14 15  1  0
 15 16  2  0
 16 17  1  0
 17 18  2  0
 18 19  1  0
 19 20  1  0
 19 21  1  0
 18 22  1  0
 22 23  2  0
 23  9  1  0
 23 15  1  0
  1 24  1  0
  1 25  1  0
  1 26  1  0
  3 27  1  0
  3 28  1  0
  3 29  1  0
  4 30  1  0
  4 31  1  0
  5 32  1  0
 12 33  1  0
 12 34  1  0
 14 35  1  0
 16 36  1  0
 17 37  1  0
 19 38  1  0
 22 39  1  0
M  CHG  1   6  -1
M  END
>  <UniqueID>  (7) 
7

>  <SMILES>  (7) 
CC(C)(CO)[N-]C(=O)n1c(C(N)=O)cc2ccc(C(F)F)cc21

>  <Energy>  (7) 
73.29880601785469

>  <Genealogy>  (7) 
CC(C)(CO)[N-]C(=O)n1c(C(N)=O)cc2ccc(C(F)F)cc21 (protonated)
CC(C)(CO)[N-]C(=O)n1c(C(N)=O)cc2ccc(C(F)F)cc21 (3D coordinates assigned)
CC(C)(CO)[N-]C(=O)n1c(C(N)=O)cc2ccc(C(F)F)cc21 (optimized conformer: 73.29880601785469 kcal/mol)

>  <smiles>  (7) 
CC(C)(CO)NC(=O)n1c(C(N)=O)cc2ccc(C(F)F)cc21

>  <score_type>  (7) 
oracle

>  <origin>  (7) 
adg

>  <m_score__min__energy>  (7) 
-6.5899999999999999

>  <m_primary>  (7) 
energy

$$$$
7:0
     RDKit          3D

 38 40  0  0  0  0  0  0  0  0999 V2000
  147.6980  156.1020  135.1760 C   0  0  0  0  0  0  0  0  0  0  0  0
  147.0800  155.7070  134.0650 C   0  0  0  0  0  0  0  0  0  0  0  0
  146.9220  156.5790  132.8860 C   0  0  0  0  0  0  0  0  0  0  0  0
  146.9780  156.0680  131.7360 O   0  0  0  0  0  0  0  0  0  0  0  0
  146.7400  157.9970  133.0170 N   0  0  0  0  0  0  0  0  0  0  0  0
  147.6380  158.9890  132.7670 C   0  0  0  0  0  0  0  0  0  0  0  0
  149.0500  158.8000  132.3700 C   0  0  0  0  0  0  0  0  0  0  0  0
  149.5990  157.4950  132.2120 N   0  0  0  0  0  0  0  0  0  0  0  0
  149.7880  159.8060  132.1900 O   0  0  0  0  0  0  0  0  0  0  0  0
  147.0550  160.2370  132.9820 C   0  0  0  0  0  0  0  0  0  0  0  0
  145.7660  159.9720  133.3870 C   0  0  0  0  0  0  0  0  0  0  0  0
  144.7370  160.8410  133.7410 C   0  0  0  0  0  0  0  0  0  0  0  0
  143.5020  160.2830  134.1130 C   0  0  0  0  0  0  0  0  0  0  0  0
  143.3140  158.8760  134.1190 C   0  0  0  0  0  0  0  0  0  0  0  0
  142.0460  158.3120  134.5070 N   0  0  0  0  0  0  0  0  0  0  0  0
  141.0990  157.8650  133.4790 C   0  0  0  0  0  0  0  0  0  0  0  0
  139.7270  157.5960  134.1020 C   0  0  0  0  0  0  0  0  0  0  0  0
  139.4630  158.5680  135.0910 O   0  0  0  0  0  0  0  0  0  0  0  0
  140.2590  158.3250  136.2400 C   0  0  0  0  0  0  0  0  0  0  0  0
  141.7490  158.0530  135.9220 C   0  0  0  0  0  0  0  0  0  0  0  0
  144.3860  158.0280  133.7600 C   0  0  0  0  0  0  0  0  0  0  0  0
  145.6030  158.6130  133.4020 C   0  0  0  0  0  0  0  0  0  0  0  0
  147.7899  155.4133  136.0288 H   0  0  0  0  0  0  0  0  0  0  0  0
  148.1167  157.1171  135.2412 H   0  0  0  0  0  0  0  0  0  0  0  0
  146.6698  154.6871  134.0246 H   0  0  0  0  0  0  0  0  0  0  0  0
  149.0470  156.7300  131.7640 H   0  0  0  0  0  0  0  0  0  0  0  0
  147.5248  161.2235  132.8551 H   0  0  0  0  0  0  0  0  0  0  0  0
  144.8863  161.9308  133.7298 H   0  0  0  0  0  0  0  0  0  0  0  0
  142.6718  160.9439  134.4028 H   0  0  0  0  0  0  0  0  0  0  0  0
  141.0019  158.6462  132.7107 H   0  0  0  0  0  0  0  0  0  0  0  0
  141.4748  156.9358  133.0259 H   0  0  0  0  0  0  0  0  0  0  0  0
  138.9533  157.6466  133.3218 H   0  0  0  0  0  0  0  0  0  0  0  0
  139.7205  156.5954  134.5589 H   0  0  0  0  0  0  0  0  0  0  0  0
  140.1997  159.2063  136.8956 H   0  0  0  0  0  0  0  0  0  0  0  0
  139.8627  157.4170  136.7179 H   0  0  0  0  0  0  0  0  0  0  0  0
  142.3745  158.7085  136.5457 H   0  0  0  0  0  0  0  0  0  0  0  0
  141.9631  156.9953  136.1349 H   0  0  0  0  0  0  0  0  0  0  0  0
  144.2651  156.9347  133.7624 H   0  0  0  0  0  0  0  0  0  0  0  0
  1  2  2  0
  2  3  1  0
  3  4  2  0
  3  5  1  0
  5  6  1  0
  6  7  1  0
  7  8  1  0
  7  9  2  0
  6 10  2  0
 10 11  1  0
 11 12  2  0
 12 13  1  0
 13 14  2  0
 14 15  1  0
 15 16  1  0
 16 17  1  0
 17 18  1  0
 18 19  1  0
 19 20  1  0
 14 21  1  0
 21 22  2  0
 22  5  1  0
 22 11  1  0
 20 15  1  0
  1 23  1  0
  1 24  1  0
  2 25  1  0
  8 26  1  0
 10 27  1  0
 12 28  1  0
 13 29  1  0
 16 30  1  0
 16 31  1  0
 17 32  1  0
 17 33  1  0
 19 34  1  0
 19 35  1  0
 20 36  1  0
 20 37  1  0
 21 38  1  0
M  CHG  1   8  -1
M  END
>  <UniqueID>  (8) 
8

>  <SMILES>  (8) 
C=CC(=O)n1c(C([NH-])=O)cc2ccc(N3CCOCC3)cc21

>  <Energy>  (8) 
88.93077460039866

>  <Genealogy>  (8) 
C=CC(=O)n1c(C([NH-])=O)cc2ccc(N3CCOCC3)cc21 (protonated)
C=CC(=O)n1c(C([NH-])=O)cc2ccc(N3CCOCC3)cc21 (3D coordinates assigned)
C=CC(=O)n1c(C([NH-])=O)cc2ccc(N3CCOCC3)cc21 (nonaromatic ring conformer: 88.93077460039866 kcal/mol)

>  <smiles>  (8) 
C=CC(=O)n1c(C(N)=O)cc2ccc(N3CCOCC3)cc21

>  <score_type>  (8) 
oracle

>  <origin>  (8) 
adg

>  <m_score__min__energy>  (8) 
-7.0499999999999998

>  <m_primary>  (8) 
energy

$$$$
8:0
     RDKit          3D

 46 47  0  0  0  0  0  0  0  0999 V2000
  144.1960  160.6810  134.1320 C   0  0  0  0  0  0  0  0  0  0  0  0
  143.6940  159.4430  133.4040 C   0  0  0  0  0  0  0  0  0  0  0  0
  143.6090  158.3550  134.3170 O   0  0  0  0  0  0  0  0  0  0  0  0
  144.2210  157.1200  134.0770 C   0  0  0  0  0  0  0  0  0  0  0  0
  145.4020  157.0590  133.6380 O   0  0  0  0  0  0  0  0  0  0  0  0
  143.4460  155.8620  134.3110 C   0  0  0  0  0  0  0  0  0  0  0  0
  142.6180  155.5070  133.0750 C   0  0  0  0  0  0  0  0  0  0  0  0
  141.2570  155.1490  133.4580 N   0  0  0  0  0  0  0  0  0  0  0  0
  140.1360  156.0300  133.3150 C   0  0  0  0  0  0  0  0  0  0  0  0
  139.0780  155.6210  132.7650 O   0  0  0  0  0  0  0  0  0  0  0  0
  140.2130  157.3750  133.8170 N   0  0  0  0  0  0  0  0  0  0  0  0
  140.0890  158.5320  133.1090 C   0  0  0  0  0  0  0  0  0  0  0  0
  139.6770  158.6400  131.6960 C   0  0  0  0  0  0  0  0  0  0  0  0
  138.6090  157.8480  131.1740 N   0  0  0  0  0  0  0  0  0  0  0  0
  140.2420  159.4850  130.9500 O   0  0  0  0  0  0  0  0  0  0  0  0
  140.3490  159.6340  133.9180 C   0  0  0  0  0  0  0  0  0  0  0  0
  140.6220  159.1140  135.1620 C   0  0  0  0  0  0  0  0  0  0  0  0
  140.9600  159.7590  136.3450 C   0  0  0  0  0  0  0  0  0  0  0  0
  141.2250  158.9720  137.4760 C   0  0  0  0  0  0  0  0  0  0  0  0
  141.1540  157.5520  137.4150 C   0  0  0  0  0  0  0  0  0  0  0  0
  141.4340  156.7460  138.5890 N   0  0  0  0  0  0  0  0  0  0  0  0
  142.1480  157.3210  139.7360 C   0  0  0  0  0  0  0  0  0  0  0  0
  141.0090  155.3420  138.6470 C   0  0  0  0  0  0  0  0  0  0  0  0
  140.8090  156.9370  136.1830 C   0  0  0  0  0  0  0  0  0  0  0  0
  140.5370  157.7500  135.0770 C   0  0  0  0  0  0  0  0  0  0  0  0
  144.1305  160.5195  135.2181 H   0  0  0  0  0  0  0  0  0  0  0  0
  145.2425  160.8718  133.8521 H   0  0  0  0  0  0  0  0  0  0  0  0
  143.5779  161.5468  133.8521 H   0  0  0  0  0  0  0  0  0  0  0  0
  142.6987  159.6450  132.9813 H   0  0  0  0  0  0  0  0  0  0  0  0
  144.3926  159.1868  132.5938 H   0  0  0  0  0  0  0  0  0  0  0  0
  144.1451  155.0406  134.5268 H   0  0  0  0  0  0  0  0  0  0  0  0
  142.7671  156.0149  135.1629 H   0  0  0  0  0  0  0  0  0  0  0  0
  142.5876  156.3738  132.3984 H   0  0  0  0  0  0  0  0  0  0  0  0
  143.0832  154.6478  132.5696 H   0  0  0  0  0  0  0  0  0  0  0  0
  138.0270  157.2500  131.7990 H   0  0  0  0  0  0  0  0  0  0  0  0
  138.3570  157.9080  130.1620 H   0  0  0  0  0  0  0  0  0  0  0  0
  140.3385  160.6943  133.6253 H   0  0  0  0  0  0  0  0  0  0  0  0
  141.0183  160.8564  136.3937 H   0  0  0  0  0  0  0  0  0  0  0  0
  141.4919  159.4604  138.4248 H   0  0  0  0  0  0  0  0  0  0  0  0
  141.6953  156.9565  140.6699 H   0  0  0  0  0  0  0  0  0  0  0  0
  143.2051  157.0191  139.6987 H   0  0  0  0  0  0  0  0  0  0  0  0
  142.0784  158.4182  139.6987 H   0  0  0  0  0  0  0  0  0  0  0  0
  140.9147  155.0305  139.6978 H   0  0  0  0  0  0  0  0  0  0  0  0
  140.0373  155.2319  138.1433 H   0  0  0  0  0  0  0  0  0  0  0  0
  141.7565  154.7115  138.1433 H   0  0  0  0  0  0  0  0  0  0  0  0
  140.7564  155.8414  136.0993 H   0  0  0  0  0  0  0  0  0  0  0  0
  1  2  1  0
  2  3  1  0
  3  4  1  0
  4  5  2  0
  4  6  1  0
  6  7  1  0
  7  8  1  0
  8  9  1  0
  9 10  2  0
  9 11  1  0
 11 12  1  0
 12 13  1  0
 13 14  1  0
 13 15  2  0
 12 16  2  0
 16 17  1  0
 17 18  2  0
 18 19  1  0
 19 20  2  0
 20 21  1  0
 21 22  1  0
 21 23  1  0
 20 24  1  0
 24 25  2  0
 25 11  1  0
 25 17  1  0
  1 26  1  0
  1 27  1  0
  1 28  1  0
  2 29  1  0
  2 30  1  0
  6 31  1  0
  6 32  1  0
  7 33  1  0
  7 34  1  0
 14 35  1  0
 14 36  1  0
 16 37  1  0
 18 38  1  0
 19 39  1  0
 22 40  1  0
 22 41  1  0
 22 42  1  0
 23 43  1  0
 23 44  1  0
 23 45  1  0
 24 46  1  0
M  CHG  1   8  -1
M  END
>  <UniqueID>  (9) 
9

>  <SMILES>  (9) 
CCOC(=O)CC[N-]C(=O)n1c(C(N)=O)cc2ccc(N(C)C)cc21

>  <Energy>  (9) 
76.06320719357676

>  <Genealogy>  (9) 
CCOC(=O)CC[N-]C(=O)n1c(C(N)=O)cc2ccc(N(C)C)cc21 (protonated)
CCOC(=O)CC[N-]C(=O)n1c(C(N)=O)cc2ccc(N(C)C)cc21 (3D coordinates assigned)
CCOC(=O)CC[N-]C(=O)n1c(C(N)=O)cc2ccc(N(C)C)cc21 (optimized conformer: 76.06320719357676 kcal/mol)

>  <smiles>  (9) 
CCOC(=O)CCNC(=O)n1c(C(N)=O)cc2ccc(N(C)C)cc21

>  <score_type>  (9) 
oracle

>  <origin>  (9) 
adg

>  <m_score__min__energy>  (9) 
-7.0599999999999996

>  <m_primary>  (9) 
energy

$$$$
9:0
     RDKit          3D

 27 28  0  0  0  0  0  0  0  0999 V2000
  147.3400  155.6330  131.8710 N   0  0  0  0  0  0  0  0  0  0  0  0
  146.5660  155.9240  133.0370 C   0  0  0  0  0  0  0  0  0  0  0  0
  146.3650  155.0090  133.8790 O   0  0  0  0  0  0  0  0  0  0  0  0
  145.9890  157.2710  133.2530 C   0  0  0  0  0  0  0  0  0  0  0  0
  144.6240  157.5390  133.3580 C   0  0  0  0  0  0  0  0  0  0  0  0
  144.5340  158.8910  133.6000 C   0  0  0  0  0  0  0  0  0  0  0  0
  143.4140  159.6960  133.7820 C   0  0  0  0  0  0  0  0  0  0  0  0
  143.6180  161.0710  133.9890 C   0  0  0  0  0  0  0  0  0  0  0  0
  144.9270  161.6200  133.9860 C   0  0  0  0  0  0  0  0  0  0  0  0
  145.1340  163.0910  134.2460 C   0  0  0  0  0  0  0  0  0  0  0  0
  146.3610  163.4730  133.7380 F   0  0  0  0  0  0  0  0  0  0  0  0
  144.1400  163.8400  133.6390 F   0  0  0  0  0  0  0  0  0  0  0  0
  145.1050  163.3550  135.6040 F   0  0  0  0  0  0  0  0  0  0  0  0
  146.0390  160.7640  133.8200 C   0  0  0  0  0  0  0  0  0  0  0  0
  145.8060  159.3960  133.6360 C   0  0  0  0  0  0  0  0  0  0  0  0
  146.7100  158.4130  133.4350 N   0  0  0  0  0  0  0  0  0  0  0  0
  148.1360  158.5660  133.3440 C   0  0  0  0  0  0  0  0  0  0  0  0
  148.8490  158.3740  134.3640 O   0  0  0  0  0  0  0  0  0  0  0  0
  148.7740  158.9630  132.0800 C   0  0  0  0  0  0  0  0  0  0  0  0
  148.5990  158.2800  131.0360 O   0  0  0  0  0  0  0  0  0  0  0  0
  149.5600  160.1070  132.0270 O   0  0  0  0  0  0  0  0  0  0  0  0
  147.5890  156.3750  131.1820 H   0  0  0  0  0  0  0  0  0  0  0  0
  147.7090  154.6690  131.7170 H   0  0  0  0  0  0  0  0  0  0  0  0
  143.7951  156.8217  133.2667 H   0  0  0  0  0  0  0  0  0  0  0  0
  142.4002  159.2695  133.7644 H   0  0  0  0  0  0  0  0  0  0  0  0
  142.7529  161.7297  134.1553 H   0  0  0  0  0  0  0  0  0  0  0  0
  147.0638  161.1633  133.8350 H   0  0  0  0  0  0  0  0  0  0  0  0
  1  2  1  0
  2  3  2  0
  2  4  1  0
  4  5  2  0
  5  6  1  0
  6  7  2  0
  7  8  1  0
  8  9  2  0
  9 10  1  0
 10 11  1  0
 10 12  1  0
 10 13  1  0
  9 14  1  0
 14 15  2  0
 15 16  1  0
 16 17  1  0
 17 18  2  0
 17 19  1  0
 19 20  2  0
 19 21  1  0
 16  4  1  0
 15  6  1  0
  1 22  1  0
  1 23  1  0
  5 24  1  0
  7 25  1  0
  8 26  1  0
 14 27  1  0
M  CHG  1  21  -1
M  END
>  <UniqueID>  (10) 
10

>  <SMILES>  (10) 
NC(=O)c1cc2ccc(C(F)(F)F)cc2n1C(=O)C(=O)[O-]

>  <Energy>  (10) 
67.27415764953624

>  <Genealogy>  (10) 
NC(=O)c1cc2ccc(C(F)(F)F)cc2n1C(=O)C(=O)[O-] (protonated)
NC(=O)c1cc2ccc(C(F)(F)F)cc2n1C(=O)C(=O)[O-] (3D coordinates assigned)
NC(=O)c1cc2ccc(C(F)(F)F)cc2n1C(=O)C(=O)[O-] (optimized conformer: 67.27415764953624 kcal/mol)

>  <smiles>  (10) 
NC(=O)c1cc2ccc(C(F)(F)F)cc2n1C(=O)C(=O)O

>  <score_type>  (10) 
oracle

>  <origin>  (10) 
adg

>  <m_score__min__energy>  (10) 
-5.7300000000000004

>  <m_primary>  (10) 
energy

$$$$
10:0
     RDKit          3D

 48 50  0  0  0  0  0  0  0  0999 V2000
  147.6000  150.7850  131.9160 C   0  0  0  0  0  0  0  0  0  0  0  0
  147.2310  152.0740  132.5100 N   0  0  0  0  0  0  0  0  0  0  0  0
  148.4040  152.9430  132.7460 C   0  0  0  0  0  0  0  0  0  0  0  0
  148.1560  153.9940  133.8530 C   0  0  1  0  0  0  0  0  0  0  0  0
  148.2050  155.4300  133.3630 C   0  0  0  0  0  0  0  0  0  0  0  0
  147.3000  156.1900  134.3180 C   0  0  0  0  0  0  0  0  0  0  0  0
  146.3830  155.2150  134.9280 N   0  0  0  0  0  0  0  0  0  0  0  0
  144.9420  155.5240  134.7910 C   0  0  0  0  0  0  0  0  0  0  0  0
  144.3350  155.1800  133.4450 C   0  0  0  0  0  0  0  0  0  0  0  0
  145.0430  155.2170  132.4040 O   0  0  0  0  0  0  0  0  0  0  0  0
  142.9740  154.7120  133.3600 N   0  0  0  0  0  0  0  0  0  0  0  0
  142.5260  153.4230  133.2800 C   0  0  0  0  0  0  0  0  0  0  0  0
  143.3530  152.1950  133.2340 C   0  0  0  0  0  0  0  0  0  0  0  0
  144.6740  152.2040  132.7080 N   0  0  0  0  0  0  0  0  0  0  0  0
  142.8760  151.1110  133.6640 O   0  0  0  0  0  0  0  0  0  0  0  0
  141.1340  153.3950  133.2180 C   0  0  0  0  0  0  0  0  0  0  0  0
  140.7360  154.7090  133.2760 C   0  0  0  0  0  0  0  0  0  0  0  0
  139.4560  155.2530  133.2700 C   0  0  0  0  0  0  0  0  0  0  0  0
  139.3330  156.6470  133.3810 C   0  0  0  0  0  0  0  0  0  0  0  0
  140.4810  157.4670  133.5270 C   0  0  0  0  0  0  0  0  0  0  0  0
  140.3430  158.9660  133.6160 C   0  0  0  0  0  0  0  0  0  0  0  0
  140.2940  159.3710  134.9390 F   0  0  0  0  0  0  0  0  0  0  0  0
  139.1850  159.3920  132.9900 F   0  0  0  0  0  0  0  0  0  0  0  0
  141.4310  159.5600  133.0030 F   0  0  0  0  0  0  0  0  0  0  0  0
  141.7650  156.8750  133.5090 C   0  0  0  0  0  0  0  0  0  0  0  0
  141.8610  155.4840  133.3690 C   0  0  0  0  0  0  0  0  0  0  0  0
  146.7650  153.8720  134.4680 C   0  0  0  0  0  0  0  0  0  0  0  0
  147.8079  150.0589  132.7157 H   0  0  0  0  0  0  0  0  0  0  0  0
  146.7710  150.4175  131.2934 H   0  0  0  0  0  0  0  0  0  0  0  0
  148.4979  150.9118  131.2934 H   0  0  0  0  0  0  0  0  0  0  0  0
  146.5850  152.5570  131.8430 H   0  0  0  0  0  0  0  0  0  0  0  0
  146.6980  151.9040  133.3950 H   0  0  0  0  0  0  0  0  0  0  0  0
  149.2547  152.3124  133.0438 H   0  0  0  0  0  0  0  0  0  0  0  0
  148.6076  153.4867  131.8117 H   0  0  0  0  0  0  0  0  0  0  0  0
  148.9651  153.7843  134.5681 H   0  0  0  0  0  0  0  0  0  0  0  0
  149.2323  155.8208  133.4071 H   0  0  0  0  0  0  0  0  0  0  0  0
  147.8818  155.5255  132.3159 H   0  0  0  0  0  0  0  0  0  0  0  0
  147.9026  156.6781  135.0982 H   0  0  0  0  0  0  0  0  0  0  0  0
  146.7373  156.9684  133.7818 H   0  0  0  0  0  0  0  0  0  0  0  0
  144.3980  154.9612  135.5639 H   0  0  0  0  0  0  0  0  0  0  0  0
  144.8515  156.6151  134.8977 H   0  0  0  0  0  0  0  0  0  0  0  0
  145.1730  153.1010  132.5200 H   0  0  0  0  0  0  0  0  0  0  0  0
  140.4892  152.5073  133.1392 H   0  0  0  0  0  0  0  0  0  0  0  0
  138.5674  154.6107  133.1810 H   0  0  0  0  0  0  0  0  0  0  0  0
  138.3349  157.1086  133.3544 H   0  0  0  0  0  0  0  0  0  0  0  0
  142.6697  157.4935  133.6030 H   0  0  0  0  0  0  0  0  0  0  0  0
  146.7867  153.1731  135.3172 H   0  0  0  0  0  0  0  0  0  0  0  0
  146.0421  153.4864  133.7340 H   0  0  0  0  0  0  0  0  0  0  0  0
  1  2  1  0
  2  3  1  0
  3  4  1  0
  4  5  1  0
  5  6  1  0
  6  7  1  0
  7  8  1  0
  8  9  1  0
  9 10  2  0
  9 11  1  0
 11 12  1  0
 12 13  1  0
 13 14  1  0
 13 15  2  0
 12 16  2  0
 16 17  1  0
 17 18  2  0
 18 19  1  0
 19 20  2  0
 20 21  1  0
 21 22  1  0
 21 23  1  0
 21 24  1  0
 20 25  1  0
 25 26  2  0
  7 27  1  0
 27  4  1  0
 26 11  1  0
 26 17  1  0
  1 28  1  0
  1 29  1  0
  1 30  1  0
  2 31  1  0
  2 32  1  0
  3 33  1  0
  3 34  1  0
  4 35  1  1
  5 36  1  0
  5 37  1  0
  6 38  1  0
  6 39  1  0
  8 40  1  0
  8 41  1  0
 14 42  1  0
 16 43  1  0
 18 44  1  0
 19 45  1  0
 25 46  1  0
 27 47  1  0
 27 48  1  0
M  CHG  2   2   1  14  -1
M  END
>  <UniqueID>  (11) 
11

>  <SMILES>  (11) 
C[NH2+]C[C@H]1CCN(CC(=O)n2c(C([NH-])=O)cc3ccc(C(F)(F)F)cc32)C1

>  <Energy>  (11) 
96.82312340510695

>  <Genealogy>  (11) 
C[NH2+]CC1CCN(CC(=O)n2c(C([NH-])=O)cc3ccc(C(F)(F)F)cc32)C1 (protonated)
C[NH2+]C[C@H]1CCN(CC(=O)n2c(C([NH-])=O)cc3ccc(C(F)(F)F)cc32)C1 (chirality)
C[NH2+]C[C@H]1CCN(CC(=O)n2c(C([NH-])=O)cc3ccc(C(F)(F)F)cc32)C1 (3D coordinates assigned)
C[NH2+]C[C@H]1CCN(CC(=O)n2c(C([NH-])=O)cc3ccc(C(F)(F)F)cc32)C1 (nonaromatic ring conformer: 96.82312340510695 kcal/mol)

>  <smiles>  (11) 
CNCC1CCN(CC(=O)n2c(C(N)=O)cc3ccc(C(F)(F)F)cc32)C1

>  <score_type>  (11) 
oracle

>  <origin>  (11) 
adg

>  <m_score__min__energy>  (11) 
-5.8799999999999999

>  <m_primary>  (11) 
energy

$$$$
11:0
     RDKit          3D

 41 42  0  0  0  0  0  0  0  0999 V2000
  139.2140  149.6050  131.5130 C   0  0  0  0  0  0  0  0  0  0  0  0
  140.4450  149.3310  132.3070 C   0  0  0  0  0  0  0  0  0  0  0  0
  140.9950  148.1980  132.2370 O   0  0  0  0  0  0  0  0  0  0  0  0
  140.9490  150.3170  133.1580 O   0  0  0  0  0  0  0  0  0  0  0  0
  141.8650  151.3190  132.7210 C   0  0  0  0  0  0  0  0  0  0  0  0
  141.1560  152.6680  132.6280 C   0  0  0  0  0  0  0  0  0  0  0  0
  141.4800  153.5340  133.8180 C   0  0  0  0  0  0  0  0  0  0  0  0
  142.2370  153.0080  134.8950 C   0  0  0  0  0  0  0  0  0  0  0  0
  142.5070  153.7920  136.0300 C   0  0  0  0  0  0  0  0  0  0  0  0
  142.0050  155.0900  136.0610 C   0  0  0  0  0  0  0  0  0  0  0  0
  142.0870  156.0540  137.0420 C   0  0  0  0  0  0  0  0  0  0  0  0
  141.3760  157.1460  136.5460 C   0  0  0  0  0  0  0  0  0  0  0  0
  141.2160  158.4270  137.2650 C   0  0  0  0  0  0  0  0  0  0  0  0
  140.4830  159.4920  136.6640 N   0  0  0  0  0  0  0  0  0  0  0  0
  141.7110  158.5870  138.4110 O   0  0  0  0  0  0  0  0  0  0  0  0
  140.8860  156.8690  135.3070 N   0  0  0  0  0  0  0  0  0  0  0  0
  140.0520  157.7020  134.4880 C   0  0  0  0  0  0  0  0  0  0  0  0
  138.8690  157.9350  134.8550 O   0  0  0  0  0  0  0  0  0  0  0  0
  140.5540  158.2640  133.2610 N   0  0  0  0  0  0  0  0  0  0  0  0
  141.9930  158.2460  132.9810 C   0  0  0  0  0  0  0  0  0  0  0  0
  139.6240  158.9100  132.3310 C   0  0  0  0  0  0  0  0  0  0  0  0
  141.2720  155.6090  135.0260 C   0  0  0  0  0  0  0  0  0  0  0  0
  140.9790  154.8510  133.8890 C   0  0  0  0  0  0  0  0  0  0  0  0
  138.3718  149.7925  132.1953 H   0  0  0  0  0  0  0  0  0  0  0  0
  139.3759  150.4891  130.8788 H   0  0  0  0  0  0  0  0  0  0  0  0
  138.9857  148.7357  130.8788 H   0  0  0  0  0  0  0  0  0  0  0  0
  142.6951  151.3922  133.4391 H   0  0  0  0  0  0  0  0  0  0  0  0
  142.2538  151.0457  131.7290 H   0  0  0  0  0  0  0  0  0  0  0  0
  141.4800  153.1817  131.7109 H   0  0  0  0  0  0  0  0  0  0  0  0
  140.0704  152.4917  132.6093 H   0  0  0  0  0  0  0  0  0  0  0  0
  142.6166  151.9769  134.8420 H   0  0  0  0  0  0  0  0  0  0  0  0
  143.0969  153.3921  136.8680 H   0  0  0  0  0  0  0  0  0  0  0  0
  142.6034  155.9782  138.0103 H   0  0  0  0  0  0  0  0  0  0  0  0
  139.4920  159.3610  136.3660 H   0  0  0  0  0  0  0  0  0  0  0  0
  142.5509  158.2390  133.9290 H   0  0  0  0  0  0  0  0  0  0  0  0
  142.2426  157.3447  132.4020 H   0  0  0  0  0  0  0  0  0  0  0  0
  142.2651  159.1408  132.4020 H   0  0  0  0  0  0  0  0  0  0  0  0
  138.8507  159.4472  132.8997 H   0  0  0  0  0  0  0  0  0  0  0  0
  140.1740  159.6215  131.6976 H   0  0  0  0  0  0  0  0  0  0  0  0
  139.1492  158.1462  131.6976 H   0  0  0  0  0  0  0  0  0  0  0  0
  140.3740  155.2700  133.0714 H   0  0  0  0  0  0  0  0  0  0  0  0
  1  2  1  0
  2  3  2  0
  2  4  1  0
  4  5  1  0
  5  6  1  0
  6  7  1  0
  7  8  2  0
  8  9  1  0
  9 10  2  0
 10 11  1  0
 11 12  2  0
 12 13  1  0
 13 14  1  0
 13 15  2  0
 12 16  1  0
 16 17  1  0
 17 18  2  0
 17 19  1  0
 19 20  1  0
 19 21  1  0
 16 22  1  0
 22 23  2  0
 23  7  1  0
 22 10  1  0
  1 24  1  0
  1 25  1  0
  1 26  1  0
  5 27  1  0
  5 28  1  0
  6 29  1  0
  6 30  1  0
  8 31  1  0
  9 32  1  0
 11 33  1  0
 14 34  1  0
 20 35  1  0
 20 36  1  0
 20 37  1  0
 21 38  1  0
 21 39  1  0
 21 40  1  0
 23 41  1  0
M  CHG  1  14  -1
M  END
>  <UniqueID>  (12) 
12

>  <SMILES>  (12) 
CC(=O)OCCc1ccc2cc(C([NH-])=O)n(C(=O)N(C)C)c2c1

>  <Energy>  (12) 
70.5042064212677

>  <Genealogy>  (12) 
CC(=O)OCCc1ccc2cc(C([NH-])=O)n(C(=O)N(C)C)c2c1 (protonated)
CC(=O)OCCc1ccc2cc(C([NH-])=O)n(C(=O)N(C)C)c2c1 (3D coordinates assigned)
CC(=O)OCCc1ccc2cc(C([NH-])=O)n(C(=O)N(C)C)c2c1 (optimized conformer: 70.5042064212677 kcal/mol)

>  <smiles>  (12) 
CC(=O)OCCc1ccc2cc(C(N)=O)n(C(=O)N(C)C)c2c1

>  <score_type>  (12) 
oracle

>  <origin>  (12) 
adg

>  <m_score__min__energy>  (12) 
-6.6299999999999999

>  <m_primary>  (12) 
energy

$$$$
12:0
     RDKit          3D

 56 60  0  0  0  0  0  0  0  0999 V2000
  138.8550  148.0230  130.1160 C   0  0  0  0  0  0  0  0  0  0  0  0
  140.2130  147.7770  130.7740 C   0  0  0  0  0  0  0  0  0  0  0  0
  140.3080  148.4530  132.0860 N   0  0  0  0  0  0  0  0  0  0  0  0
  141.6850  148.9500  132.3540 C   0  0  0  0  0  0  0  0  0  0  0  0
  141.7110  150.2060  133.2360 C   0  0  0  0  0  0  0  0  0  0  0  0
  140.9130  151.2620  132.6070 N   0  0  0  0  0  0  0  0  0  0  0  0
  141.2650  152.6470  132.8040 C   0  0  0  0  0  0  0  0  0  0  0  0
  142.6030  153.0690  132.7560 C   0  0  0  0  0  0  0  0  0  0  0  0
  142.9110  154.4120  132.9760 C   0  0  0  0  0  0  0  0  0  0  0  0
  141.8900  155.3430  133.2340 C   0  0  0  0  0  0  0  0  0  0  0  0
  142.2100  156.7720  133.4900 C   0  0  0  0  0  0  0  0  0  0  0  0
  141.1670  157.7290  133.6320 C   0  0  0  0  0  0  0  0  0  0  0  0
  141.4590  159.0900  133.8270 C   0  0  0  0  0  0  0  0  0  0  0  0
  142.7960  159.4690  133.8830 C   0  0  0  0  0  0  0  0  0  0  0  0
  143.3620  160.7170  134.0280 C   0  0  0  0  0  0  0  0  0  0  0  0
  144.7400  160.5040  133.9910 C   0  0  0  0  0  0  0  0  0  0  0  0
  145.7500  161.5730  134.1080 C   0  0  0  0  0  0  0  0  0  0  0  0
  145.3390  162.9280  134.2730 N   0  0  0  0  0  0  0  0  0  0  0  0
  146.9780  161.3040  134.0640 O   0  0  0  0  0  0  0  0  0  0  0  0
  145.0080  159.1780  133.8330 N   0  0  0  0  0  0  0  0  0  0  0  0
  146.2900  158.5470  133.7460 C   0  0  0  0  0  0  0  0  0  0  0  0
  146.5470  157.5540  134.4740 O   0  0  0  0  0  0  0  0  0  0  0  0
  147.2980  159.0440  132.8030 C   0  0  0  0  0  0  0  0  0  0  0  0
  147.0230  159.8520  131.7620 N   0  0  0  0  0  0  0  0  0  0  0  0
  148.1780  160.0950  131.2090 O   0  0  0  0  0  0  0  0  0  0  0  0
  149.1300  159.4800  131.8660 C   0  0  0  0  0  0  0  0  0  0  0  0
  148.6180  158.7910  132.8990 N   0  0  0  0  0  0  0  0  0  0  0  0
  143.8130  158.5600  133.7660 C   0  0  0  0  0  0  0  0  0  0  0  0
  143.5580  157.2000  133.5670 C   0  0  0  0  0  0  0  0  0  0  0  0
  140.5650  154.8790  133.2630 C   0  0  0  0  0  0  0  0  0  0  0  0
  140.2900  153.5630  133.0570 N   0  0  0  0  0  0  0  0  0  0  0  0
  139.7160  150.8860  131.8450 C   0  0  0  0  0  0  0  0  0  0  0  0
  139.2480  149.4800  132.2440 C   0  0  0  0  0  0  0  0  0  0  0  0
  138.0901  148.1615  130.8943 H   0  0  0  0  0  0  0  0  0  0  0  0
  138.9090  148.9260  129.4901 H   0  0  0  0  0  0  0  0  0  0  0  0
  138.5888  147.1585  129.4901 H   0  0  0  0  0  0  0  0  0  0  0  0
  140.3499  146.6951  130.9182 H   0  0  0  0  0  0  0  0  0  0  0  0
  140.9949  148.1856  130.1169 H   0  0  0  0  0  0  0  0  0  0  0  0
  142.2518  148.1548  132.8605 H   0  0  0  0  0  0  0  0  0  0  0  0
  142.1304  149.2203  131.3852 H   0  0  0  0  0  0  0  0  0  0  0  0
  141.2908  149.9685  134.2244 H   0  0  0  0  0  0  0  0  0  0  0  0
  142.7491  150.5510  133.3518 H   0  0  0  0  0  0  0  0  0  0  0  0
  143.4041  152.3450  132.5461 H   0  0  0  0  0  0  0  0  0  0  0  0
  143.9592  154.7442  132.9474 H   0  0  0  0  0  0  0  0  0  0  0  0
  140.1184  157.3996  133.5886 H   0  0  0  0  0  0  0  0  0  0  0  0
  140.6545  159.8328  133.9321 H   0  0  0  0  0  0  0  0  0  0  0  0
  142.8385  161.6770  134.1475 H   0  0  0  0  0  0  0  0  0  0  0  0
  144.9600  163.4740  133.4700 H   0  0  0  0  0  0  0  0  0  0  0  0
  150.1985  159.5220  131.6079 H   0  0  0  0  0  0  0  0  0  0  0  0
  149.1250  158.2080  133.5990 H   0  0  0  0  0  0  0  0  0  0  0  0
  144.3841  156.4798  133.4725 H   0  0  0  0  0  0  0  0  0  0  0  0
  139.7434  155.5851  133.4537 H   0  0  0  0  0  0  0  0  0  0  0  0
  138.9125  151.6080  132.0526 H   0  0  0  0  0  0  0  0  0  0  0  0
  139.9598  150.8901  130.7724 H   0  0  0  0  0  0  0  0  0  0  0  0
  138.9332  149.5005  133.2978 H   0  0  0  0  0  0  0  0  0  0  0  0
  138.4192  149.2052  131.5750 H   0  0  0  0  0  0  0  0  0  0  0  0
  1  2  1  0
  2  3  1  0
  3  4  1  0
  4  5  1  0
  5  6  1  0
  6  7  1  0
  7  8  2  0
  8  9  1  0
  9 10  2  0
 10 11  1  0
 11 12  2  0
 12 13  1  0
 13 14  2  0
 14 15  1  0
 15 16  2  0
 16 17  1  0
 17 18  1  0
 17 19  2  0
 16 20  1  0
 20 21  1  0
 21 22  2  0
 21 23  1  0
 23 24  2  0
 24 25  1  0
 25 26  1  0
 26 27  2  0
 20 28  1  0
 28 29  2  0
 10 30  1  0
 30 31  2  0
  6 32  1  0
 32 33  1  0
 33  3  1  0
 31  7  1  0
 29 11  1  0
 28 14  1  0
 27 23  1  0
  1 34  1  0
  1 35  1  0
  1 36  1  0
  2 37  1  0
  2 38  1  0
  4 39  1  0
  4 40  1  0
  5 41  1  0
  5 42  1  0
  8 43  1  0
  9 44  1  0
 12 45  1  0
 13 46  1  0
 15 47  1  0
 18 48  1  0
 26 49  1  0
 27 50  1  0
 29 51  1  0
 30 52  1  0
 32 53  1  0
 32 54  1  0
 33 55  1  0
 33 56  1  0
M  CHG  2  18  -1  27   1
M  END
>  <UniqueID>  (13) 
13

>  <SMILES>  (13) 
CCN1CCN(c2ccc(-c3ccc4cc(C([NH-])=O)n(C(=O)c5noc[nH+]5)c4c3)cn2)CC1

>  <Energy>  (13) 
149.37663637686566

>  <Genealogy>  (13) 
CCN1CCN(c2ccc(-c3ccc4cc(C([NH-])=O)n(C(=O)c5noc[nH+]5)c4c3)cn2)CC1 (protonated)
CCN1CCN(c2ccc(-c3ccc4cc(C([NH-])=O)n(C(=O)c5noc[nH+]5)c4c3)cn2)CC1 (3D coordinates assigned)
CCN1CCN(c2ccc(-c3ccc4cc(C([NH-])=O)n(C(=O)c5noc[nH+]5)c4c3)cn2)CC1 (nonaromatic ring conformer: 149.37663637686566 kcal/mol)

>  <smiles>  (13) 
CCN1CCN(c2ccc(-c3ccc4cc(C(N)=O)n(C(=O)c5ncon5)c4c3)cn2)CC1

>  <score_type>  (13) 
oracle

>  <origin>  (13) 
adg

>  <m_score__min__energy>  (13) 
-9.8000000000000007

>  <m_primary>  (13) 
energy

$$$$
13:0
     RDKit          3D

 34 36  0  0  0  0  0  0  0  0999 V2000
  141.5550  160.4960  133.9170 N   0  0  0  0  0  0  0  0  0  0  0  0
  142.4460  159.5930  134.5740 C   0  0  0  0  0  0  0  0  0  0  0  0
  142.0530  158.9830  135.6020 O   0  0  0  0  0  0  0  0  0  0  0  0
  143.8030  159.3460  134.0350 C   0  0  0  0  0  0  0  0  0  0  0  0
  144.3130  158.0760  133.7740 C   0  0  0  0  0  0  0  0  0  0  0  0
  145.6160  158.2790  133.3820 C   0  0  0  0  0  0  0  0  0  0  0  0
  146.5850  157.3610  132.9890 C   0  0  0  0  0  0  0  0  0  0  0  0
  147.8410  157.8540  132.6010 C   0  0  0  0  0  0  0  0  0  0  0  0
  148.1060  159.2450  132.6130 C   0  0  0  0  0  0  0  0  0  0  0  0
  149.4380  159.7640  132.1470 C   0  0  0  0  0  0  0  0  0  0  0  0
  149.2960  160.4740  130.7930 C   0  0  0  0  0  0  0  0  0  0  0  0
  148.8470  161.8690  130.8030 N   0  0  0  0  0  0  0  0  0  0  0  0
  148.8590  159.6410  129.5950 C   0  0  0  0  0  0  0  0  0  0  0  0
  150.3060  160.1200  129.7090 C   0  0  0  0  0  0  0  0  0  0  0  0
  147.0940  160.1490  133.0110 C   0  0  0  0  0  0  0  0  0  0  0  0
  145.8580  159.6290  133.4100 C   0  0  0  0  0  0  0  0  0  0  0  0
  144.7520  160.2990  133.8080 N   0  0  0  0  0  0  0  0  0  0  0  0
  144.6040  161.7260  133.9010 C   0  0  0  0  0  0  0  0  0  0  0  0
  143.6040  162.2960  133.3930 O   0  0  0  0  0  0  0  0  0  0  0  0
  145.5710  162.4920  134.5400 O   0  0  0  0  0  0  0  0  0  0  0  0
  140.5860  160.6340  134.2840 H   0  0  0  0  0  0  0  0  0  0  0  0
  141.8620  161.0620  133.0970 H   0  0  0  0  0  0  0  0  0  0  0  0
  143.7856  157.1147  133.8626 H   0  0  0  0  0  0  0  0  0  0  0  0
  146.3734  156.2816  132.9825 H   0  0  0  0  0  0  0  0  0  0  0  0
  148.6271  157.1527  132.2845 H   0  0  0  0  0  0  0  0  0  0  0  0
  149.8289  160.4755  132.8893 H   0  0  0  0  0  0  0  0  0  0  0  0
  150.1294  158.9161  132.0328 H   0  0  0  0  0  0  0  0  0  0  0  0
  148.4160  162.0680  129.8730 H   0  0  0  0  0  0  0  0  0  0  0  0
  148.0990  162.0190  131.5200 H   0  0  0  0  0  0  0  0  0  0  0  0
  148.6205  158.5749  129.7236 H   0  0  0  0  0  0  0  0  0  0  0  0
  148.0686  159.7257  128.8347 H   0  0  0  0  0  0  0  0  0  0  0  0
  151.1094  159.3988  129.9197 H   0  0  0  0  0  0  0  0  0  0  0  0
  150.9896  160.6926  129.0649 H   0  0  0  0  0  0  0  0  0  0  0  0
  147.2741  161.2341  133.0070 H   0  0  0  0  0  0  0  0  0  0  0  0
  1  2  1  0
  2  3  2  0
  2  4  1  0
  4  5  2  0
  5  6  1  0
  6  7  2  0
  7  8  1  0
  8  9  2  0
  9 10  1  0
 10 11  1  0
 11 12  1  0
 11 13  1  0
 13 14  1  0
  9 15  1  0
 15 16  2  0
 16 17  1  0
 17 18  1  0
 18 19  2  0
 18 20  1  0
 17  4  1  0
 16  6  1  0
 14 11  1  0
  1 21  1  0
  1 22  1  0
  5 23  1  0
  7 24  1  0
  8 25  1  0
 10 26  1  0
 10 27  1  0
 12 28  1  0
 12 29  1  0
 13 30  1  0
 13 31  1  0
 14 32  1  0
 14 33  1  0
 15 34  1  0
M  CHG  1  20  -1
M  END
>  <UniqueID>  (14) 
14

>  <SMILES>  (14) 
NC(=O)c1cc2ccc(CC3(N)CC3)cc2n1C(=O)[O-]

>  <Energy>  (14) 
341.3033404421481

>  <Genealogy>  (14) 
NC(=O)c1cc2ccc(CC3(N)CC3)cc2n1C(=O)[O-] (protonated)
NC(=O)c1cc2ccc(CC3(N)CC3)cc2n1C(=O)[O-] (3D coordinates assigned)
NC(=O)c1cc2ccc(CC3(N)CC3)cc2n1C(=O)[O-] (nonaromatic ring conformer: 341.3033404421481 kcal/mol)

>  <smiles>  (14) 
NC(=O)c1cc2ccc(CC3(N)CC3)cc2n1C(=O)O

>  <score_type>  (14) 
oracle

>  <origin>  (14) 
adg

>  <m_score__min__energy>  (14) 
-7.6399999999999997

>  <m_primary>  (14) 
energy

$$$$
14:0
     RDKit          3D

 45 46  0  0  0  0  0  0  0  0999 V2000
  139.1160  146.3520  129.6040 C   0  0  0  0  0  0  0  0  0  0  0  0
  138.9560  147.7000  130.1800 N   0  0  0  0  0  0  0  0  0  0  0  0
  138.6940  148.6650  129.1000 C   0  0  0  0  0  0  0  0  0  0  0  0
  140.1590  148.1030  130.9400 C   0  0  0  0  0  0  0  0  0  0  0  0
  139.8000  148.8670  132.2310 C   0  0  0  0  0  0  0  0  0  0  0  0
  139.3850  150.3250  131.9830 C   0  0  0  0  0  0  0  0  0  0  0  0
  140.5490  151.1990  131.8280 N   0  0  0  0  0  0  0  0  0  0  0  0
  141.5290  151.3280  132.8670 C   0  0  0  0  0  0  0  0  0  0  0  0
  141.5350  150.5230  133.8380 O   0  0  0  0  0  0  0  0  0  0  0  0
  142.5360  152.4360  132.8160 C   0  0  0  0  0  0  0  0  0  0  0  0
  141.8580  153.7640  133.0270 C   0  0  0  0  0  0  0  0  0  0  0  0
  140.4440  153.8410  133.0990 C   0  0  0  0  0  0  0  0  0  0  0  0
  139.8070  155.0660  133.3560 C   0  0  0  0  0  0  0  0  0  0  0  0
  140.6050  156.1920  133.5370 C   0  0  0  0  0  0  0  0  0  0  0  0
  140.2520  157.4810  133.8590 C   0  0  0  0  0  0  0  0  0  0  0  0
  141.4540  158.1760  133.9690 C   0  0  0  0  0  0  0  0  0  0  0  0
  141.5330  159.6270  134.2340 C   0  0  0  0  0  0  0  0  0  0  0  0
  142.2640  160.4720  133.3470 N   0  0  0  0  0  0  0  0  0  0  0  0
  140.9950  160.1270  135.2590 O   0  0  0  0  0  0  0  0  0  0  0  0
  142.5100  157.3480  133.7290 N   0  0  0  0  0  0  0  0  0  0  0  0
  143.9100  157.6540  133.8430 C   0  0  0  0  0  0  0  0  0  0  0  0
  144.4020  158.6280  133.2140 O   0  0  0  0  0  0  0  0  0  0  0  0
  144.7400  156.8630  134.6270 O   0  0  0  0  0  0  0  0  0  0  0  0
  141.9740  156.1370  133.4620 C   0  0  0  0  0  0  0  0  0  0  0  0
  142.6350  154.9290  133.2170 C   0  0  0  0  0  0  0  0  0  0  0  0
  139.2035  145.6146  130.4155 H   0  0  0  0  0  0  0  0  0  0  0  0
  138.2400  146.1121  128.9834 H   0  0  0  0  0  0  0  0  0  0  0  0
  140.0238  146.3238  128.9834 H   0  0  0  0  0  0  0  0  0  0  0  0
  138.4293  149.6398  129.5355 H   0  0  0  0  0  0  0  0  0  0  0  0
  139.5952  148.7735  128.4787 H   0  0  0  0  0  0  0  0  0  0  0  0
  137.8617  148.3029  128.4787 H   0  0  0  0  0  0  0  0  0  0  0  0
  140.7280  147.2006  131.2083 H   0  0  0  0  0  0  0  0  0  0  0  0
  140.7533  148.7744  130.3029 H   0  0  0  0  0  0  0  0  0  0  0  0
  138.9657  148.3462  132.7236 H   0  0  0  0  0  0  0  0  0  0  0  0
  140.7044  148.8893  132.8567 H   0  0  0  0  0  0  0  0  0  0  0  0
  138.7788  150.3723  131.0664 H   0  0  0  0  0  0  0  0  0  0  0  0
  138.8091  150.6711  132.8540 H   0  0  0  0  0  0  0  0  0  0  0  0
  140.6510  151.7900  130.9730 H   0  0  0  0  0  0  0  0  0  0  0  0
  143.2866  152.2816  133.6052 H   0  0  0  0  0  0  0  0  0  0  0  0
  143.0228  152.4339  131.8296 H   0  0  0  0  0  0  0  0  0  0  0  0
  139.8405  152.9331  132.9522 H   0  0  0  0  0  0  0  0  0  0  0  0
  138.7105  155.1336  133.4126 H   0  0  0  0  0  0  0  0  0  0  0  0
  139.2362  157.8789  133.9998 H   0  0  0  0  0  0  0  0  0  0  0  0
  142.8760  160.0680  132.6040 H   0  0  0  0  0  0  0  0  0  0  0  0
  143.7333  154.8868  133.1732 H   0  0  0  0  0  0  0  0  0  0  0  0
  1  2  1  0
  2  3  1  0
  2  4  1  0
  4  5  1  0
  5  6  1  0
  6  7  1  0
  7  8  1  0
  8  9  2  0
  8 10  1  0
 10 11  1  0
 11 12  2  0
 12 13  1  0
 13 14  2  0
 14 15  1  0
 15 16  2  0
 16 17  1  0
 17 18  1  0
 17 19  2  0
 16 20  1  0
 20 21  1  0
 21 22  2  0
 21 23  1  0
 20 24  1  0
 24 25  2  0
 25 11  1  0
 24 14  1  0
  1 26  1  0
  1 27  1  0
  1 28  1  0
  3 29  1  0
  3 30  1  0
  3 31  1  0
  4 32  1  0
  4 33  1  0
  5 34  1  0
  5 35  1  0
  6 36  1  0
  6 37  1  0
  7 38  1  0
 10 39  1  0
 10 40  1  0
 12 41  1  0
 13 42  1  0
 15 43  1  0
 18 44  1  0
 25 45  1  0
M  CHG  2  18  -1  23  -1
M  END
>  <UniqueID>  (15) 
15

>  <SMILES>  (15) 
CN(C)CCCNC(=O)Cc1ccc2cc(C([NH-])=O)n(C(=O)[O-])c2c1

>  <Energy>  (15) 
74.96587654785353

>  <Genealogy>  (15) 
CN(C)CCCNC(=O)Cc1ccc2cc(C([NH-])=O)n(C(=O)[O-])c2c1 (protonated)
CN(C)CCCNC(=O)Cc1ccc2cc(C([NH-])=O)n(C(=O)[O-])c2c1 (3D coordinates assigned)
CN(C)CCCNC(=O)Cc1ccc2cc(C([NH-])=O)n(C(=O)[O-])c2c1 (optimized conformer: 74.96587654785353 kcal/mol)

>  <smiles>  (15) 
CN(C)CCCNC(=O)Cc1ccc2cc(C(N)=O)n(C(=O)O)c2c1

>  <score_type>  (15) 
oracle

>  <origin>  (15) 
adg

>  <m_score__min__energy>  (15) 
-7.9500000000000002

>  <m_primary>  (15) 
energy

$$$$
15:0
     RDKit          3D

 34 35  0  0  0  0  0  0  0  0999 V2000
  139.9000  157.9350  133.7290 C   0  0  0  0  0  0  0  0  0  0  0  0
  140.4750  158.8310  134.6720 O   0  0  0  0  0  0  0  0  0  0  0  0
  141.6040  158.5050  135.4300 C   0  0  0  0  0  0  0  0  0  0  0  0
  142.1440  159.3600  136.1840 O   0  0  0  0  0  0  0  0  0  0  0  0
  142.1910  157.1390  135.3150 C   0  0  0  0  0  0  0  0  0  0  0  0
  143.4530  157.2290  134.6660 O   0  0  0  0  0  0  0  0  0  0  0  0
  143.6740  158.0300  133.5430 C   0  0  0  0  0  0  0  0  0  0  0  0
  142.7870  158.1340  132.6510 O   0  0  0  0  0  0  0  0  0  0  0  0
  144.9030  158.7630  133.4220 N   0  0  0  0  0  0  0  0  0  0  0  0
  145.1000  160.1040  133.5750 C   0  0  0  0  0  0  0  0  0  0  0  0
  144.0450  161.1250  133.7420 C   0  0  0  0  0  0  0  0  0  0  0  0
  142.6660  160.7660  133.7200 N   0  0  0  0  0  0  0  0  0  0  0  0
  144.3650  162.3380  133.8590 O   0  0  0  0  0  0  0  0  0  0  0  0
  146.4540  160.4150  133.4640 C   0  0  0  0  0  0  0  0  0  0  0  0
  147.0860  159.2150  133.2270 C   0  0  0  0  0  0  0  0  0  0  0  0
  148.4370  158.9360  133.0430 C   0  0  0  0  0  0  0  0  0  0  0  0
  148.8110  157.5970  132.8410 C   0  0  0  0  0  0  0  0  0  0  0  0
  147.8370  156.5680  132.8340 C   0  0  0  0  0  0  0  0  0  0  0  0
  148.2610  155.1410  132.6300 C   0  0  0  0  0  0  0  0  0  0  0  0
  147.9000  154.3860  133.7310 F   0  0  0  0  0  0  0  0  0  0  0  0
  149.6330  155.0810  132.4660 F   0  0  0  0  0  0  0  0  0  0  0  0
  146.4750  156.8890  133.0280 C   0  0  0  0  0  0  0  0  0  0  0  0
  146.1280  158.2340  133.2070 C   0  0  0  0  0  0  0  0  0  0  0  0
  139.3804  157.1253  134.2622 H   0  0  0  0  0  0  0  0  0  0  0  0
  139.1816  158.4784  133.0977 H   0  0  0  0  0  0  0  0  0  0  0  0
  140.6933  157.5083  133.0977 H   0  0  0  0  0  0  0  0  0  0  0  0
  142.3226  156.7088  136.3188 H   0  0  0  0  0  0  0  0  0  0  0  0
  141.5183  156.4942  134.7304 H   0  0  0  0  0  0  0  0  0  0  0  0
  142.3550  159.8080  133.9980 H   0  0  0  0  0  0  0  0  0  0  0  0
  146.9190  161.4083  133.5479 H   0  0  0  0  0  0  0  0  0  0  0  0
  149.1887  159.7390  133.0553 H   0  0  0  0  0  0  0  0  0  0  0  0
  149.8706  157.3449  132.6867 H   0  0  0  0  0  0  0  0  0  0  0  0
  147.7656  154.7431  131.7321 H   0  0  0  0  0  0  0  0  0  0  0  0
  145.7063  156.1023  133.0382 H   0  0  0  0  0  0  0  0  0  0  0  0
  1  2  1  0
  2  3  1  0
  3  4  2  0
  3  5  1  0
  5  6  1  0
  6  7  1  0
  7  8  2  0
  7  9  1  0
  9 10  1  0
 10 11  1  0
 11 12  1  0
 11 13  2  0
 10 14  2  0
 14 15  1  0
 15 16  2  0
 16 17  1  0
 17 18  2  0
 18 19  1  0
 19 20  1  0
 19 21  1  0
 18 22  1  0
 22 23  2  0
 23  9  1  0
 23 15  1  0
  1 24  1  0
  1 25  1  0
  1 26  1  0
  5 27  1  0
  5 28  1  0
 12 29  1  0
 14 30  1  0
 16 31  1  0
 17 32  1  0
 19 33  1  0
 22 34  1  0
M  CHG  1  12  -1
M  END
>  <UniqueID>  (16) 
16

>  <SMILES>  (16) 
COC(=O)COC(=O)n1c(C([NH-])=O)cc2ccc(C(F)F)cc21

>  <Energy>  (16) 
67.44094240875029

>  <Genealogy>  (16) 
COC(=O)COC(=O)n1c(C([NH-])=O)cc2ccc(C(F)F)cc21 (protonated)
COC(=O)COC(=O)n1c(C([NH-])=O)cc2ccc(C(F)F)cc21 (3D coordinates assigned)
COC(=O)COC(=O)n1c(C([NH-])=O)cc2ccc(C(F)F)cc21 (optimized conformer: 67.44094240875029 kcal/mol)

>  <smiles>  (16) 
COC(=O)COC(=O)n1c(C(N)=O)cc2ccc(C(F)F)cc21

>  <score_type>  (16) 
oracle

>  <origin>  (16) 
adg

>  <m_score__min__energy>  (16) 
-5.0800000000000001

>  <m_primary>  (16) 
energy

$$$$
16:0
     RDKit          3D

 39 42  0  0  0  0  0  0  0  0999 V2000
  140.4300  158.8580  135.1380 N   0  0  0  0  0  0  0  0  0  0  0  0
  141.1460  157.6380  134.9290 C   0  0  0  0  0  0  0  0  0  0  0  0
  140.5590  156.5350  135.0970 O   0  0  0  0  0  0  0  0  0  0  0  0
  142.5570  157.6830  134.4850 C   0  0  0  0  0  0  0  0  0  0  0  0
  143.4390  156.6090  134.5990 C   0  0  0  0  0  0  0  0  0  0  0  0
  144.6420  157.0730  134.1150 C   0  0  0  0  0  0  0  0  0  0  0  0
  145.8550  156.4060  133.9390 C   0  0  0  0  0  0  0  0  0  0  0  0
  146.9120  157.1070  133.3330 C   0  0  0  0  0  0  0  0  0  0  0  0
  146.7440  158.4570  132.9130 C   0  0  0  0  0  0  0  0  0  0  0  0
  147.8520  159.1670  132.2320 C   0  0  0  0  0  0  0  0  0  0  0  0
  147.8190  160.4680  131.7290 C   0  0  0  0  0  0  0  0  0  0  0  0
  149.0150  160.8560  131.1100 C   0  0  0  0  0  0  0  0  0  0  0  0
  149.9990  159.8690  131.1140 C   0  0  0  0  0  0  0  0  0  0  0  0
  149.3790  158.5190  131.8990 S   0  0  0  0  0  0  0  0  0  0  0  0
  145.4950  159.0980  133.1170 C   0  0  0  0  0  0  0  0  0  0  0  0
  144.4650  158.3770  133.7310 C   0  0  0  0  0  0  0  0  0  0  0  0
  143.1870  158.7660  133.9470 N   0  0  0  0  0  0  0  0  0  0  0  0
  142.6140  160.0250  133.5670 C   0  0  0  0  0  0  0  0  0  0  0  0
  143.2340  161.0990  133.8090 O   0  0  0  0  0  0  0  0  0  0  0  0
  141.3660  160.0530  132.9320 O   0  0  0  0  0  0  0  0  0  0  0  0
  140.9250  159.0500  132.0160 C   0  0  0  0  0  0  0  0  0  0  0  0
  139.4610  159.1900  131.7240 C   0  0  0  0  0  0  0  0  0  0  0  0
  138.9620  159.8500  130.7000 O   0  0  0  0  0  0  0  0  0  0  0  0
  137.6540  159.7230  130.7870 C   0  0  0  0  0  0  0  0  0  0  0  0
  136.8440  160.2210  129.9600 O   0  0  0  0  0  0  0  0  0  0  0  0
  137.2820  159.0120  131.8310 O   0  0  0  0  0  0  0  0  0  0  0  0
  138.3970  158.6640  132.4320 C   0  0  0  0  0  0  0  0  0  0  0  0
  138.4520  157.8790  133.5810 O   0  0  0  0  0  0  0  0  0  0  0  0
  139.8960  159.3020  134.3550 H   0  0  0  0  0  0  0  0  0  0  0  0
  143.2205  155.6050  134.9918 H   0  0  0  0  0  0  0  0  0  0  0  0
  145.9803  155.3628  134.2647 H   0  0  0  0  0  0  0  0  0  0  0  0
  147.8800  156.6069  133.1815 H   0  0  0  0  0  0  0  0  0  0  0  0
  146.9404  161.1248  131.8103 H   0  0  0  0  0  0  0  0  0  0  0  0
  149.1636  161.8494  130.6617 H   0  0  0  0  0  0  0  0  0  0  0  0
  151.0055  159.9582  130.6793 H   0  0  0  0  0  0  0  0  0  0  0  0
  145.3396  160.1396  132.7993 H   0  0  0  0  0  0  0  0  0  0  0  0
  141.4894  159.1483  131.0770 H   0  0  0  0  0  0  0  0  0  0  0  0
  141.0973  158.0630  132.4700 H   0  0  0  0  0  0  0  0  0  0  0  0
  139.1710  158.0240  134.2790 H   0  0  0  0  0  0  0  0  0  0  0  0
  1  2  1  0
  2  3  2  0
  2  4  1  0
  4  5  2  0
  5  6  1  0
  6  7  2  0
  7  8  1  0
  8  9  2  0
  9 10  1  0
 10 11  2  0
 11 12  1  0
 12 13  2  0
 13 14  1  0
  9 15  1  0
 15 16  2  0
 16 17  1  0
 17 18  1  0
 18 19  2  0
 18 20  1  0
 20 21  1  0
 21 22  1  0
 22 23  1  0
 23 24  1  0
 24 25  2  0
 24 26  1  0
 26 27  1  0
 27 28  1  0
 17  4  1  0
 27 22  2  0
 16  6  1  0
 14 10  1  0
  1 29  1  0
  5 30  1  0
  7 31  1  0
  8 32  1  0
 11 33  1  0
 12 34  1  0
 13 35  1  0
 15 36  1  0
 21 37  1  0
 21 38  1  0
 28 39  1  0
M  CHG  1   1  -1
M  END
>  <UniqueID>  (17) 
17

>  <SMILES>  (17) 
[NH-]C(=O)c1cc2ccc(-c3cccs3)cc2n1C(=O)OCc1oc(=O)oc1O

>  <Energy>  (17) 
142.70735296440205

>  <Genealogy>  (17) 
[NH-]C(=O)c1cc2ccc(-c3cccs3)cc2n1C(=O)OCc1oc(=O)oc1O (protonated)
[NH-]C(=O)c1cc2ccc(-c3cccs3)cc2n1C(=O)OCc1oc(=O)oc1O (3D coordinates assigned)
[NH-]C(=O)c1cc2ccc(-c3cccs3)cc2n1C(=O)OCc1oc(=O)oc1O (optimized conformer: 142.70735296440205 kcal/mol)

>  <smiles>  (17) 
NC(=O)c1cc2ccc(-c3cccs3)cc2n1C(=O)OCc1oc(=O)oc1O

>  <score_type>  (17) 
oracle

>  <origin>  (17) 
adg

>  <m_score__min__energy>  (17) 
-7.25

>  <m_primary>  (17) 
energy

$$$$
17:0
     RDKit          3D

 43 44  0  0  0  0  0  0  0  0999 V2000
  149.6660  151.1100  134.0220 C   0  0  0  0  0  0  0  0  0  0  0  0
  149.6330  151.8390  132.8150 O   0  0  0  0  0  0  0  0  0  0  0  0
  149.1380  151.0310  131.7620 C   0  0  0  0  0  0  0  0  0  0  0  0
  147.6250  150.8610  131.8860 C   0  0  0  0  0  0  0  0  0  0  0  0
  147.0770  152.0110  132.4950 O   0  0  0  0  0  0  0  0  0  0  0  0
  145.6950  152.0840  132.2120 C   0  0  0  0  0  0  0  0  0  0  0  0
  145.0100  152.9590  133.2600 C   0  0  0  0  0  0  0  0  0  0  0  0
  145.1570  154.3420  132.9420 O   0  0  0  0  0  0  0  0  0  0  0  0
  145.5490  155.3120  133.8720 C   0  0  0  0  0  0  0  0  0  0  0  0
  145.3860  155.1150  135.1070 O   0  0  0  0  0  0  0  0  0  0  0  0
  146.1510  156.5320  133.4170 N   0  0  0  0  0  0  0  0  0  0  0  0
  147.4130  156.7030  132.9330 C   0  0  0  0  0  0  0  0  0  0  0  0
  148.3750  155.6240  132.6280 C   0  0  0  0  0  0  0  0  0  0  0  0
  147.9300  154.3100  132.2890 N   0  0  0  0  0  0  0  0  0  0  0  0
  149.6080  155.8810  132.6130 O   0  0  0  0  0  0  0  0  0  0  0  0
  147.6700  158.0510  132.6960 C   0  0  0  0  0  0  0  0  0  0  0  0
  146.5080  158.7060  133.0360 C   0  0  0  0  0  0  0  0  0  0  0  0
  146.2050  160.0640  133.0070 C   0  0  0  0  0  0  0  0  0  0  0  0
  144.9320  160.4660  133.4460 C   0  0  0  0  0  0  0  0  0  0  0  0
  143.9950  159.5090  133.9120 C   0  0  0  0  0  0  0  0  0  0  0  0
  142.6420  159.9450  134.3980 C   0  0  0  0  0  0  0  0  0  0  0  0
  142.2510  159.1480  135.4600 F   0  0  0  0  0  0  0  0  0  0  0  0
  141.7180  159.8280  133.3760 F   0  0  0  0  0  0  0  0  0  0  0  0
  144.3390  158.1400  133.9310 C   0  0  0  0  0  0  0  0  0  0  0  0
  145.6070  157.7680  133.4690 C   0  0  0  0  0  0  0  0  0  0  0  0
  149.6344  151.8071  134.8724 H   0  0  0  0  0  0  0  0  0  0  0  0
  148.7974  150.4366  134.0675 H   0  0  0  0  0  0  0  0  0  0  0  0
  150.5919  150.5178  134.0675 H   0  0  0  0  0  0  0  0  0  0  0  0
  149.3712  151.5083  130.7988 H   0  0  0  0  0  0  0  0  0  0  0  0
  149.6137  150.0408  131.8187 H   0  0  0  0  0  0  0  0  0  0  0  0
  147.1863  150.7299  130.8858 H   0  0  0  0  0  0  0  0  0  0  0  0
  147.4016  149.9758  132.4996 H   0  0  0  0  0  0  0  0  0  0  0  0
  145.5471  152.5223  131.2140 H   0  0  0  0  0  0  0  0  0  0  0  0
  145.2606  151.0737  132.2349 H   0  0  0  0  0  0  0  0  0  0  0  0
  143.9393  152.7089  133.2941 H   0  0  0  0  0  0  0  0  0  0  0  0
  145.4793  152.7707  134.2369 H   0  0  0  0  0  0  0  0  0  0  0  0
  148.6240  153.5510  132.1120 H   0  0  0  0  0  0  0  0  0  0  0  0
  146.9200  154.1090  132.1210 H   0  0  0  0  0  0  0  0  0  0  0  0
  148.6019  158.4968  132.3181 H   0  0  0  0  0  0  0  0  0  0  0  0
  146.9401  160.8008  132.6510 H   0  0  0  0  0  0  0  0  0  0  0  0
  144.6602  161.5317  133.4280 H   0  0  0  0  0  0  0  0  0  0  0  0
  142.6973  160.9941  134.7240 H   0  0  0  0  0  0  0  0  0  0  0  0
  143.6289  157.3850  134.2994 H   0  0  0  0  0  0  0  0  0  0  0  0
  1  2  1  0
  2  3  1  0
  3  4  1  0
  4  5  1  0
  5  6  1  0
  6  7  1  0
  7  8  1  0
  8  9  1  0
  9 10  2  0
  9 11  1  0
 11 12  1  0
 12 13  1  0
 13 14  1  0
 13 15  2  0
 12 16  2  0
 16 17  1  0
 17 18  2  0
 18 19  1  0
 19 20  2  0
 20 21  1  0
 21 22  1  0
 21 23  1  0
 20 24  1  0
 24 25  2  0
 25 11  1  0
 25 17  1  0
  1 26  1  0
  1 27  1  0
  1 28  1  0
  3 29  1  0
  3 30  1  0
  4 31  1  0
  4 32  1  0
  6 33  1  0
  6 34  1  0
  7 35  1  0
  7 36  1  0
 14 37  1  0
 14 38  1  0
 16 39  1  0
 18 40  1  0
 19 41  1  0
 21 42  1  0
 24 43  1  0
M  END
>  <UniqueID>  (18) 
18

>  <SMILES>  (18) 
COCCOCCOC(=O)n1c(C(N)=O)cc2ccc(C(F)F)cc21

>  <Energy>  (18) 
77.57206213631308

>  <Genealogy>  (18) 
COCCOCCOC(=O)n1c(C(N)=O)cc2ccc(C(F)F)cc21 (3D coordinates assigned)
COCCOCCOC(=O)n1c(C(N)=O)cc2ccc(C(F)F)cc21 (optimized conformer: 77.57206213631308 kcal/mol)

>  <smiles>  (18) 
COCCOCCOC(=O)n1c(C(N)=O)cc2ccc(C(F)F)cc21

>  <score_type>  (18) 
oracle

>  <origin>  (18) 
adg

>  <m_score__min__energy>  (18) 
-5.5

>  <m_primary>  (18) 
energy

$$$$
18:0
     RDKit          3D

 35 37  0  0  0  0  0  0  0  0999 V2000
  143.7750  154.7310  133.1800 C   0  0  0  0  0  0  0  0  0  0  0  0
  142.9850  155.4070  134.0110 C   0  0  0  0  0  0  0  0  0  0  0  0
  141.8310  156.1980  133.5420 C   0  0  0  0  0  0  0  0  0  0  0  0
  140.8550  155.6300  132.9810 O   0  0  0  0  0  0  0  0  0  0  0  0
  141.8190  157.6240  133.7080 N   0  0  0  0  0  0  0  0  0  0  0  0
  140.7610  158.4070  134.0630 C   0  0  0  0  0  0  0  0  0  0  0  0
  139.3670  157.9340  134.2320 C   0  0  0  0  0  0  0  0  0  0  0  0
  138.7450  157.1160  133.2380 N   0  0  0  0  0  0  0  0  0  0  0  0
  138.7200  158.2330  135.2690 O   0  0  0  0  0  0  0  0  0  0  0  0
  141.1580  159.7390  134.1750 C   0  0  0  0  0  0  0  0  0  0  0  0
  142.5020  159.7450  133.8830 C   0  0  0  0  0  0  0  0  0  0  0  0
  143.4090  160.8010  133.8600 C   0  0  0  0  0  0  0  0  0  0  0  0
  144.7490  160.5110  133.5570 C   0  0  0  0  0  0  0  0  0  0  0  0
  145.1650  159.1800  133.2900 C   0  0  0  0  0  0  0  0  0  0  0  0
  146.5870  158.8830  132.9810 C   0  0  0  0  0  0  0  0  0  0  0  0
  147.1370  157.6230  133.2780 C   0  0  0  0  0  0  0  0  0  0  0  0
  148.4770  157.3650  132.9790 C   0  0  0  0  0  0  0  0  0  0  0  0
  149.2460  158.3280  132.4060 N   0  0  0  0  0  0  0  0  0  0  0  0
  148.7460  159.5550  132.1080 C   0  0  0  0  0  0  0  0  0  0  0  0
  149.5480  160.4900  131.5410 F   0  0  0  0  0  0  0  0  0  0  0  0
  147.4100  159.8570  132.3880 C   0  0  0  0  0  0  0  0  0  0  0  0
  144.2100  158.1360  133.3240 C   0  0  0  0  0  0  0  0  0  0  0  0
  142.8780  158.4570  133.6080 C   0  0  0  0  0  0  0  0  0  0  0  0
  144.6244  154.1546  133.5754 H   0  0  0  0  0  0  0  0  0  0  0  0
  143.5785  154.7487  132.0978 H   0  0  0  0  0  0  0  0  0  0  0  0
  143.2008  155.3747  135.0892 H   0  0  0  0  0  0  0  0  0  0  0  0
  139.2190  156.8980  132.3350 H   0  0  0  0  0  0  0  0  0  0  0  0
  137.7750  156.7590  133.3880 H   0  0  0  0  0  0  0  0  0  0  0  0
  140.5296  160.6019  134.4406 H   0  0  0  0  0  0  0  0  0  0  0  0
  143.0858  161.8307  134.0726 H   0  0  0  0  0  0  0  0  0  0  0  0
  145.4867  161.3263  133.5261 H   0  0  0  0  0  0  0  0  0  0  0  0
  146.5149  156.8444  133.7435 H   0  0  0  0  0  0  0  0  0  0  0  0
  148.9106  156.3803  133.2078 H   0  0  0  0  0  0  0  0  0  0  0  0
  147.0049  160.8506  132.1459 H   0  0  0  0  0  0  0  0  0  0  0  0
  144.5084  157.0949  133.1314 H   0  0  0  0  0  0  0  0  0  0  0  0
  1  2  2  0
  2  3  1  0
  3  4  2  0
  3  5  1  0
  5  6  1  0
  6  7  1  0
  7  8  1  0
  7  9  2  0
  6 10  2  0
 10 11  1  0
 11 12  2  0
 12 13  1  0
 13 14  2  0
 14 15  1  0
 15 16  2  0
 16 17  1  0
 17 18  2  0
 18 19  1  0
 19 20  1  0
 19 21  2  0
 14 22  1  0
 22 23  2  0
 23  5  1  0
 23 11  1  0
 21 15  1  0
  1 24  1  0
  1 25  1  0
  2 26  1  0
  8 27  1  0
  8 28  1  0
 10 29  1  0
 12 30  1  0
 13 31  1  0
 16 32  1  0
 17 33  1  0
 21 34  1  0
 22 35  1  0
M  END
>  <UniqueID>  (19) 
19

>  <SMILES>  (19) 
C=CC(=O)n1c(C(N)=O)cc2ccc(-c3ccnc(F)c3)cc21

>  <Energy>  (19) 
81.63803287712527

>  <Genealogy>  (19) 
C=CC(=O)n1c(C(N)=O)cc2ccc(-c3ccnc(F)c3)cc21 (3D coordinates assigned)
C=CC(=O)n1c(C(N)=O)cc2ccc(-c3ccnc(F)c3)cc21 (optimized conformer: 81.63803287712527 kcal/mol)

>  <smiles>  (19) 
C=CC(=O)n1c(C(N)=O)cc2ccc(-c3ccnc(F)c3)cc21

>  <score_type>  (19) 
oracle

>  <origin>  (19) 
adg

>  <m_score__min__energy>  (19) 
-7.4900000000000002

>  <m_primary>  (19) 
energy

$$$$
19:0
     RDKit          3D

 45 48  0  0  0  0  0  0  0  0999 V2000
  142.0100  155.0280  133.5100 N   0  0  0  0  0  0  0  0  0  0  0  0
  142.9910  155.2670  134.5200 C   0  0  0  0  0  0  0  0  0  0  0  0
  142.7960  154.8280  135.6850 O   0  0  0  0  0  0  0  0  0  0  0  0
  144.2070  156.0570  134.2370 C   0  0  0  0  0  0  0  0  0  0  0  0
  145.4970  155.6310  134.5460 C   0  0  0  0  0  0  0  0  0  0  0  0
  146.3270  156.6420  134.1170 C   0  0  0  0  0  0  0  0  0  0  0  0
  147.7150  156.7270  134.1310 C   0  0  0  0  0  0  0  0  0  0  0  0
  148.3120  157.8640  133.5590 C   0  0  0  0  0  0  0  0  0  0  0  0
  147.5170  158.8910  132.9870 C   0  0  0  0  0  0  0  0  0  0  0  0
  148.1690  160.0730  132.3170 C   0  0  0  0  0  0  0  0  0  0  0  0
  147.8420  160.1130  130.9720 F   0  0  0  0  0  0  0  0  0  0  0  0
  147.7320  161.2370  132.9200 F   0  0  0  0  0  0  0  0  0  0  0  0
  149.5460  159.9970  132.4240 F   0  0  0  0  0  0  0  0  0  0  0  0
  146.1090  158.7520  132.9670 C   0  0  0  0  0  0  0  0  0  0  0  0
  145.5430  157.6240  133.5690 C   0  0  0  0  0  0  0  0  0  0  0  0
  144.2380  157.2820  133.6440 N   0  0  0  0  0  0  0  0  0  0  0  0
  143.1370  157.9870  133.0490 C   0  0  0  0  0  0  0  0  0  0  0  0
  142.5730  157.4890  132.0380 O   0  0  0  0  0  0  0  0  0  0  0  0
  142.6760  159.2760  133.6210 C   0  0  0  0  0  0  0  0  0  0  0  0
  143.5210  160.2050  133.7410 O   0  0  0  0  0  0  0  0  0  0  0  0
  141.3050  159.5090  134.0220 N   0  0  0  0  0  0  0  0  0  0  0  0
  140.2490  159.3470  133.0570 C   0  0  0  0  0  0  0  0  0  0  0  0
  139.7750  160.4480  132.3310 C   0  0  0  0  0  0  0  0  0  0  0  0
  138.7620  160.2780  131.3860 C   0  0  0  0  0  0  0  0  0  0  0  0
  138.2370  159.0030  131.1680 C   0  0  0  0  0  0  0  0  0  0  0  0
  138.7160  157.9410  131.8690 N   0  0  0  0  0  0  0  0  0  0  0  0
  139.6990  158.0820  132.7970 C   0  0  0  0  0  0  0  0  0  0  0  0
  140.9390  159.7310  135.4250 C   0  0  0  0  0  0  0  0  0  0  0  0
  141.6650  158.8230  136.4100 C   0  0  0  0  0  0  0  0  0  0  0  0
  140.2100  158.5570  136.0660 C   0  0  0  0  0  0  0  0  0  0  0  0
  141.1920  154.4100  133.7120 H   0  0  0  0  0  0  0  0  0  0  0  0
  142.0310  155.5420  132.6030 H   0  0  0  0  0  0  0  0  0  0  0  0
  145.7899  154.6875  135.0298 H   0  0  0  0  0  0  0  0  0  0  0  0
  148.3272  155.9288  134.5761 H   0  0  0  0  0  0  0  0  0  0  0  0
  149.4079  157.9587  133.5548 H   0  0  0  0  0  0  0  0  0  0  0  0
  145.4748  159.5132  132.4892 H   0  0  0  0  0  0  0  0  0  0  0  0
  140.2015  161.4467  132.5060 H   0  0  0  0  0  0  0  0  0  0  0  0
  138.3811  161.1400  130.8187 H   0  0  0  0  0  0  0  0  0  0  0  0
  137.4355  158.8575  130.4288 H   0  0  0  0  0  0  0  0  0  0  0  0
  140.0648  157.2018  133.3461 H   0  0  0  0  0  0  0  0  0  0  0  0
  140.7625  160.8139  135.3460 H   0  0  0  0  0  0  0  0  0  0  0  0
  142.4484  158.1388  136.0522 H   0  0  0  0  0  0  0  0  0  0  0  0
  142.2271  158.9796  137.3425 H   0  0  0  0  0  0  0  0  0  0  0  0
  139.9401  157.6801  135.4592 H   0  0  0  0  0  0  0  0  0  0  0  0
  139.2828  158.4413  136.6465 H   0  0  0  0  0  0  0  0  0  0  0  0
  1  2  1  0
  2  3  2  0
  2  4  1  0
  4  5  2  0
  5  6  1  0
  6  7  2  0
  7  8  1  0
  8  9  2  0
  9 10  1  0
 10 11  1  0
 10 12  1  0
 10 13  1  0
  9 14  1  0
 14 15  2  0
 15 16  1  0
 16 17  1  0
 17 18  2  0
 17 19  1  0
 19 20  2  0
 19 21  1  0
 21 22  1  0
 22 23  2  0
 23 24  1  0
 24 25  2  0
 25 26  1  0
 26 27  2  0
 21 28  1  0
 28 29  1  0
 29 30  1  0
 16  4  1  0
 27 22  1  0
 30 28  1  0
 15  6  1  0
  1 31  1  0
  1 32  1  0
  5 33  1  0
  7 34  1  0
  8 35  1  0
 14 36  1  0
 23 37  1  0
 24 38  1  0
 25 39  1  0
 27 40  1  0
 28 41  1  0
 29 42  1  0
 29 43  1  0
 30 44  1  0
 30 45  1  0
M  END
>  <UniqueID>  (20) 
20

>  <SMILES>  (20) 
NC(=O)c1cc2ccc(C(F)(F)F)cc2n1C(=O)C(=O)N(c1cccnc1)C1CC1

>  <Energy>  (20) 
363.23120830151674

>  <Genealogy>  (20) 
NC(=O)c1cc2ccc(C(F)(F)F)cc2n1C(=O)C(=O)N(c1cccnc1)C1CC1 (3D coordinates assigned)
NC(=O)c1cc2ccc(C(F)(F)F)cc2n1C(=O)C(=O)N(c1cccnc1)C1CC1 (nonaromatic ring conformer: 363.23120830151674 kcal/mol)

>  <smiles>  (20) 
NC(=O)c1cc2ccc(C(F)(F)F)cc2n1C(=O)C(=O)N(c1cccnc1)C1CC1

>  <score_type>  (20) 
oracle

>  <origin>  (20) 
adg

>  <m_score__min__energy>  (20) 
-8

>  <m_primary>  (20) 
energy

$$$$
20:0
     RDKit          3D

 46 48  0  0  0  0  0  0  0  0999 V2000
  141.8530  155.9190  135.9500 C   0  0  0  0  0  0  0  0  0  0  0  0
  142.3300  155.9900  134.5570 N   0  0  0  0  0  0  0  0  0  0  0  0
  141.4950  155.1240  133.7100 C   0  0  0  0  0  0  0  0  0  0  0  0
  143.7460  155.5770  134.4640 C   0  0  0  0  0  0  0  0  0  0  0  0
  144.3650  156.1140  133.2060 C   0  0  0  0  0  0  0  0  0  0  0  0
  144.2350  155.4730  132.1290 O   0  0  0  0  0  0  0  0  0  0  0  0
  145.0450  157.3790  133.2030 N   0  0  0  0  0  0  0  0  0  0  0  0
  146.3760  157.6160  133.0360 C   0  0  0  0  0  0  0  0  0  0  0  0
  147.3820  156.5990  132.6570 C   0  0  0  0  0  0  0  0  0  0  0  0
  147.0800  155.5960  131.6830 N   0  0  0  0  0  0  0  0  0  0  0  0
  148.5140  156.5940  133.2080 O   0  0  0  0  0  0  0  0  0  0  0  0
  146.6490  158.9760  133.1900 C   0  0  0  0  0  0  0  0  0  0  0  0
  145.4330  159.5640  133.4610 C   0  0  0  0  0  0  0  0  0  0  0  0
  145.1180  160.8920  133.7360 C   0  0  0  0  0  0  0  0  0  0  0  0
  143.7800  161.2030  134.0350 C   0  0  0  0  0  0  0  0  0  0  0  0
  142.7880  160.1900  134.0440 C   0  0  0  0  0  0  0  0  0  0  0  0
  141.3760  160.5100  134.4520 C   0  0  0  0  0  0  0  0  0  0  0  0
  140.4590  159.4720  133.9520 N   0  0  0  0  0  0  0  0  0  0  0  0
  140.1720  159.4290  132.6130 C   0  0  0  0  0  0  0  0  0  0  0  0
  139.3460  158.4310  132.0910 C   0  0  0  0  0  0  0  0  0  0  0  0
  138.8110  157.4700  132.9450 C   0  0  0  0  0  0  0  0  0  0  0  0
  139.1090  157.5120  134.3050 C   0  0  0  0  0  0  0  0  0  0  0  0
  139.9430  158.5210  134.8000 C   0  0  0  0  0  0  0  0  0  0  0  0
  140.2140  158.5410  136.0310 O   0  0  0  0  0  0  0  0  0  0  0  0
  143.1450  158.8570  133.7450 C   0  0  0  0  0  0  0  0  0  0  0  0
  144.4830  158.5780  133.4550 C   0  0  0  0  0  0  0  0  0  0  0  0
  142.7037  156.0456  136.6358 H   0  0  0  0  0  0  0  0  0  0  0  0
  141.1174  156.7176  136.1268 H   0  0  0  0  0  0  0  0  0  0  0  0
  141.3819  154.9408  136.1268 H   0  0  0  0  0  0  0  0  0  0  0  0
  140.8725  154.4784  134.3469 H   0  0  0  0  0  0  0  0  0  0  0  0
  140.8475  155.7465  133.0749 H   0  0  0  0  0  0  0  0  0  0  0  0
  142.1407  154.4997  133.0749 H   0  0  0  0  0  0  0  0  0  0  0  0
  144.2954  155.9669  135.3336 H   0  0  0  0  0  0  0  0  0  0  0  0
  143.7974  154.4783  134.4468 H   0  0  0  0  0  0  0  0  0  0  0  0
  146.1790  155.6010  131.1570 H   0  0  0  0  0  0  0  0  0  0  0  0
  147.7850  154.8590  131.4570 H   0  0  0  0  0  0  0  0  0  0  0  0
  147.6273  159.4728  133.1116 H   0  0  0  0  0  0  0  0  0  0  0  0
  145.8919  161.6735  133.7198 H   0  0  0  0  0  0  0  0  0  0  0  0
  143.5001  162.2418  134.2641 H   0  0  0  0  0  0  0  0  0  0  0  0
  141.3147  160.5520  135.5495 H   0  0  0  0  0  0  0  0  0  0  0  0
  141.0884  161.4818  134.0244 H   0  0  0  0  0  0  0  0  0  0  0  0
  140.5971  160.1893  131.9413 H   0  0  0  0  0  0  0  0  0  0  0  0
  139.1201  158.4044  131.0148 H   0  0  0  0  0  0  0  0  0  0  0  0
  138.1558  156.6810  132.5473 H   0  0  0  0  0  0  0  0  0  0  0  0
  138.6911  156.7562  134.9863 H   0  0  0  0  0  0  0  0  0  0  0  0
  142.3887  158.0582  133.7405 H   0  0  0  0  0  0  0  0  0  0  0  0
  1  2  1  0
  2  3  1  0
  2  4  1  0
  4  5  1  0
  5  6  2  0
  5  7  1  0
  7  8  1  0
  8  9  1  0
  9 10  1  0
  9 11  2  0
  8 12  2  0
 12 13  1  0
 13 14  2  0
 14 15  1  0
 15 16  2  0
 16 17  1  0
 17 18  1  0
 18 19  1  0
 19 20  2  0
 20 21  1  0
 21 22  2  0
 22 23  1  0
 23 24  2  0
 16 25  1  0
 25 26  2  0
 26  7  1  0
 26 13  1  0
 23 18  1  0
  1 27  1  0
  1 28  1  0
  1 29  1  0
  3 30  1  0
  3 31  1  0
  3 32  1  0
  4 33  1  0
  4 34  1  0
 10 35  1  0
 10 36  1  0
 12 37  1  0
 14 38  1  0
 15 39  1  0
 17 40  1  0
 17 41  1  0
 19 42  1  0
 20 43  1  0
 21 44  1  0
 22 45  1  0
 25 46  1  0
M  END
>  <UniqueID>  (21) 
21

>  <SMILES>  (21) 
CN(C)CC(=O)n1c(C(N)=O)cc2ccc(Cn3ccccc3=O)cc21

>  <Energy>  (21) 
86.98962197506928

>  <Genealogy>  (21) 
CN(C)CC(=O)n1c(C(N)=O)cc2ccc(Cn3ccccc3=O)cc21 (3D coordinates assigned)
CN(C)CC(=O)n1c(C(N)=O)cc2ccc(Cn3ccccc3=O)cc21 (optimized conformer: 86.98962197506928 kcal/mol)

>  <smiles>  (21) 
CN(C)CC(=O)n1c(C(N)=O)cc2ccc(Cn3ccccc3=O)cc21

>  <score_type>  (21) 
oracle

>  <origin>  (21) 
adg

>  <m_score__min__energy>  (21) 
-8.0800000000000001

>  <m_primary>  (21) 
energy

$$$$
21:0
     RDKit          3D

 54 56  0  0  0  0  0  0  0  0999 V2000
  148.8500  159.1780  131.6040 C   0  0  0  0  0  0  0  0  0  0  0  0
  148.7550  158.5300  132.9920 C   0  0  1  0  0  0  0  0  0  0  0  0
  147.5020  159.0460  133.7500 C   0  0  0  0  0  0  0  0  0  0  0  0
  146.3540  158.1500  133.5650 N   0  0  0  0  0  0  0  0  0  0  0  0
  145.0180  158.6860  133.4850 C   0  0  0  0  0  0  0  0  0  0  0  0
  144.8070  160.0910  133.4760 C   0  0  0  0  0  0  0  0  0  0  0  0
  143.5080  160.6240  133.4240 C   0  0  0  0  0  0  0  0  0  0  0  0
  142.4410  159.7330  133.3730 C   0  0  0  0  0  0  0  0  0  0  0  0
  141.0870  159.9760  133.3470 C   0  0  0  0  0  0  0  0  0  0  0  0
  140.4870  158.7190  133.3190 C   0  0  0  0  0  0  0  0  0  0  0  0
  139.0260  158.5180  133.2050 C   0  0  0  0  0  0  0  0  0  0  0  0
  138.4070  157.3350  133.7000 N   0  0  0  0  0  0  0  0  0  0  0  0
  138.3220  159.3870  132.6240 O   0  0  0  0  0  0  0  0  0  0  0  0
  141.4330  157.7370  133.3330 N   0  0  0  0  0  0  0  0  0  0  0  0
  141.2360  156.3160  133.4020 C   0  0  0  0  0  0  0  0  0  0  0  0
  140.4050  155.7580  132.6340 O   0  0  0  0  0  0  0  0  0  0  0  0
  141.9420  155.5650  134.3440 O   0  0  0  0  0  0  0  0  0  0  0  0
  141.4280  155.2700  135.6380 C   0  0  0  0  0  0  0  0  0  0  0  0
  141.7580  156.4350  136.5860 C   0  0  0  0  0  0  0  0  0  0  0  0
  141.0470  157.6960  136.2760 N   0  0  0  0  0  0  0  0  0  0  0  0
  141.7270  158.8850  136.8130 C   0  0  0  0  0  0  0  0  0  0  0  0
  139.6290  157.6670  136.6720 C   0  0  0  0  0  0  0  0  0  0  0  0
  142.6240  158.3750  133.3640 C   0  0  0  0  0  0  0  0  0  0  0  0
  143.9060  157.8160  133.4320 C   0  0  0  0  0  0  0  0  0  0  0  0
  146.5380  156.7000  133.7220 C   0  0  0  0  0  0  0  0  0  0  0  0
  148.0200  156.3550  133.8970 C   0  0  0  0  0  0  0  0  0  0  0  0
  148.8150  157.0490  132.8750 N   0  0  0  0  0  0  0  0  0  0  0  0
  149.0088  160.2608  131.7150 H   0  0  0  0  0  0  0  0  0  0  0  0
  149.6933  158.7385  131.0511 H   0  0  0  0  0  0  0  0  0  0  0  0
  147.9160  158.9991  131.0511 H   0  0  0  0  0  0  0  0  0  0  0  0
  149.6218  158.8271  133.6007 H   0  0  0  0  0  0  0  0  0  0  0  0
  147.7351  159.1112  134.8230 H   0  0  0  0  0  0  0  0  0  0  0  0
  147.2370  160.0342  133.3459 H   0  0  0  0  0  0  0  0  0  0  0  0
  145.6716  160.7702  133.5102 H   0  0  0  0  0  0  0  0  0  0  0  0
  143.3402  161.7111  133.4236 H   0  0  0  0  0  0  0  0  0  0  0  0
  140.5850  160.9547  133.3481 H   0  0  0  0  0  0  0  0  0  0  0  0
  138.3820  156.4630  133.1250 H   0  0  0  0  0  0  0  0  0  0  0  0
  140.3373  155.1391  135.5804 H   0  0  0  0  0  0  0  0  0  0  0  0
  141.8837  154.3430  136.0162 H   0  0  0  0  0  0  0  0  0  0  0  0
  141.4910  156.1321  137.6092 H   0  0  0  0  0  0  0  0  0  0  0  0
  142.8316  156.6424  136.4665 H   0  0  0  0  0  0  0  0  0  0  0  0
  141.7085  158.8527  137.9124 H   0  0  0  0  0  0  0  0  0  0  0  0
  142.7701  158.8997  136.4641 H   0  0  0  0  0  0  0  0  0  0  0  0
  141.2108  159.7915  136.4641 H   0  0  0  0  0  0  0  0  0  0  0  0
  139.5548  157.6655  137.7695 H   0  0  0  0  0  0  0  0  0  0  0  0
  139.1181  158.5549  136.2712 H   0  0  0  0  0  0  0  0  0  0  0  0
  139.1549  156.7590  136.2712 H   0  0  0  0  0  0  0  0  0  0  0  0
  144.0442  156.7248  133.4439 H   0  0  0  0  0  0  0  0  0  0  0  0
  145.9816  156.3598  134.6078 H   0  0  0  0  0  0  0  0  0  0  0  0
  146.1636  156.1974  132.8180 H   0  0  0  0  0  0  0  0  0  0  0  0
  148.3533  156.6713  134.8964 H   0  0  0  0  0  0  0  0  0  0  0  0
  148.1560  155.2689  133.7883 H   0  0  0  0  0  0  0  0  0  0  0  0
  149.8120  156.7420  132.9690 H   0  0  0  0  0  0  0  0  0  0  0  0
  148.4840  156.7320  131.9330 H   0  0  0  0  0  0  0  0  0  0  0  0
  1  2  1  0
  2  3  1  0
  3  4  1  0
  4  5  1  0
  5  6  2  0
  6  7  1  0
  7  8  2  0
  8  9  1  0
  9 10  2  0
 10 11  1  0
 11 12  1  0
 11 13  2  0
 10 14  1  0
 14 15  1  0
 15 16  2  0
 15 17  1  0
 17 18  1  0
 18 19  1  0
 19 20  1  0
 20 21  1  0
 20 22  1  0
 14 23  1  0
 23 24  2  0
  4 25  1  0
 25 26  1  0
 26 27  1  0
 27  2  1  0
 24  5  1  0
 23  8  1  0
  1 28  1  0
  1 29  1  0
  1 30  1  0
  2 31  1  1
  3 32  1  0
  3 33  1  0
  6 34  1  0
  7 35  1  0
  9 36  1  0
 12 37  1  0
 18 38  1  0
 18 39  1  0
 19 40  1  0
 19 41  1  0
 21 42  1  0
 21 43  1  0
 21 44  1  0
 22 45  1  0
 22 46  1  0
 22 47  1  0
 24 48  1  0
 25 49  1  0
 25 50  1  0
 26 51  1  0
 26 52  1  0
 27 53  1  0
 27 54  1  0
M  CHG  2  12  -1  27   1
M  END
>  <UniqueID>  (22) 
22

>  <SMILES>  (22) 
C[C@H]1CN(c2ccc3cc(C([NH-])=O)n(C(=O)OCCN(C)C)c3c2)CC[NH2+]1

>  <Energy>  (22) 
100.1178718816427

>  <Genealogy>  (22) 
C[C@H]1CN(c2ccc3cc(C([NH-])=O)n(C(=O)OCCN(C)C)c3c2)CC[NH2+]1 (protonated)
C[C@H]1CN(c2ccc3cc(C([NH-])=O)n(C(=O)OCCN(C)C)c3c2)CC[NH2+]1 (3D coordinates assigned)
C[C@H]1CN(c2ccc3cc(C([NH-])=O)n(C(=O)OCCN(C)C)c3c2)CC[NH2+]1 (nonaromatic ring conformer: 100.1178718816427 kcal/mol)

>  <smiles>  (22) 
C[C@H]1CN(c2ccc3cc(C(N)=O)n(C(=O)OCCN(C)C)c3c2)CCN1

>  <score_type>  (22) 
oracle

>  <origin>  (22) 
adg

>  <m_score__min__energy>  (22) 
-7.5300000000000002

>  <m_primary>  (22) 
energy

$$$$
22:0
     RDKit          3D

 33 34  0  0  0  0  0  0  0  0999 V2000
  147.8290  152.9160  133.8040 N   0  0  0  0  0  0  0  0  0  0  0  0
  148.4300  153.9230  132.9880 C   0  0  0  0  0  0  0  0  0  0  0  0
  149.3760  153.6030  132.2190 O   0  0  0  0  0  0  0  0  0  0  0  0
  147.9430  155.3200  133.0210 C   0  0  0  0  0  0  0  0  0  0  0  0
  148.7150  156.4350  132.6940 C   0  0  0  0  0  0  0  0  0  0  0  0
  147.9080  157.5240  132.9380 C   0  0  0  0  0  0  0  0  0  0  0  0
  148.1590  158.8830  132.7770 C   0  0  0  0  0  0  0  0  0  0  0  0
  147.1270  159.7850  133.0900 C   0  0  0  0  0  0  0  0  0  0  0  0
  145.8720  159.3150  133.5530 C   0  0  0  0  0  0  0  0  0  0  0  0
  144.7770  160.2950  133.8670 C   0  0  0  0  0  0  0  0  0  0  0  0
  145.2520  161.5860  133.7290 F   0  0  0  0  0  0  0  0  0  0  0  0
  143.7190  160.1020  132.9970 F   0  0  0  0  0  0  0  0  0  0  0  0
  145.6540  157.9280  133.7030 C   0  0  0  0  0  0  0  0  0  0  0  0
  146.7030  157.0570  133.3940 C   0  0  0  0  0  0  0  0  0  0  0  0
  146.7100  155.7100  133.4490 N   0  0  0  0  0  0  0  0  0  0  0  0
  145.6040  154.8770  133.8250 C   0  0  0  0  0  0  0  0  0  0  0  0
  145.4040  153.7920  133.2160 O   0  0  0  0  0  0  0  0  0  0  0  0
  144.7540  155.2290  135.0090 C   0  0  0  0  0  0  0  0  0  0  0  0
  145.0570  154.2860  136.1740 C   0  0  0  0  0  0  0  0  0  0  0  0
  146.5330  154.0980  136.3280 C   0  0  0  0  0  0  0  0  0  0  0  0
  146.9940  152.9910  136.7120 O   0  0  0  0  0  0  0  0  0  0  0  0
  147.4030  155.1290  135.9980 O   0  0  0  0  0  0  0  0  0  0  0  0
  147.0880  153.1490  134.5010 H   0  0  0  0  0  0  0  0  0  0  0  0
  148.1610  151.9280  133.7450 H   0  0  0  0  0  0  0  0  0  0  0  0
  149.7495  156.4427  132.3203 H   0  0  0  0  0  0  0  0  0  0  0  0
  149.1346  159.2406  132.4160 H   0  0  0  0  0  0  0  0  0  0  0  0
  147.2949  160.8660  132.9746 H   0  0  0  0  0  0  0  0  0  0  0  0
  144.4378  160.1382  134.9016 H   0  0  0  0  0  0  0  0  0  0  0  0
  144.6850  157.5432  134.0535 H   0  0  0  0  0  0  0  0  0  0  0  0
  144.9666  156.2642  135.3144 H   0  0  0  0  0  0  0  0  0  0  0  0
  143.6939  155.1299  134.7327 H   0  0  0  0  0  0  0  0  0  0  0  0
  144.6482  154.7138  137.1013 H   0  0  0  0  0  0  0  0  0  0  0  0
  144.5942  153.3092  135.9696 H   0  0  0  0  0  0  0  0  0  0  0  0
  1  2  1  0
  2  3  2  0
  2  4  1  0
  4  5  2  0
  5  6  1  0
  6  7  2  0
  7  8  1  0
  8  9  2  0
  9 10  1  0
 10 11  1  0
 10 12  1  0
  9 13  1  0
 13 14  2  0
 14 15  1  0
 15 16  1  0
 16 17  2  0
 16 18  1  0
 18 19  1  0
 19 20  1  0
 20 21  2  0
 20 22  1  0
 15  4  1  0
 14  6  1  0
  1 23  1  0
  1 24  1  0
  5 25  1  0
  7 26  1  0
  8 27  1  0
 10 28  1  0
 13 29  1  0
 18 30  1  0
 18 31  1  0
 19 32  1  0
 19 33  1  0
M  CHG  1  22  -1
M  END
>  <UniqueID>  (23) 
23

>  <SMILES>  (23) 
NC(=O)c1cc2ccc(C(F)F)cc2n1C(=O)CCC(=O)[O-]

>  <Energy>  (23) 
68.04422396155442

>  <Genealogy>  (23) 
NC(=O)c1cc2ccc(C(F)F)cc2n1C(=O)CCC(=O)[O-] (protonated)
NC(=O)c1cc2ccc(C(F)F)cc2n1C(=O)CCC(=O)[O-] (3D coordinates assigned)
NC(=O)c1cc2ccc(C(F)F)cc2n1C(=O)CCC(=O)[O-] (optimized conformer: 68.04422396155442 kcal/mol)

>  <smiles>  (23) 
NC(=O)c1cc2ccc(C(F)F)cc2n1C(=O)CCC(=O)O

>  <score_type>  (23) 
oracle

>  <origin>  (23) 
adg

>  <m_score__min__energy>  (23) 
-6.2999999999999998

>  <m_primary>  (23) 
energy

$$$$
23:0
     RDKit          3D

 42 43  0  0  0  0  0  0  0  0999 V2000
  141.2900  156.6170  136.9490 C   0  0  0  0  0  0  0  0  0  0  0  0
  140.4210  157.7370  136.4880 C   0  0  0  0  0  0  0  0  0  0  0  0
  140.5970  158.8920  136.9620 O   0  0  0  0  0  0  0  0  0  0  0  0
  139.4650  157.4970  135.4910 O   0  0  0  0  0  0  0  0  0  0  0  0
  139.7500  157.3170  134.1310 C   0  0  0  0  0  0  0  0  0  0  0  0
  138.8230  157.2980  133.2750 O   0  0  0  0  0  0  0  0  0  0  0  0
  141.1100  157.1250  133.7110 N   0  0  0  0  0  0  0  0  0  0  0  0
  142.1010  158.0590  133.6410 C   0  0  0  0  0  0  0  0  0  0  0  0
  141.9440  159.5120  133.8650 C   0  0  0  0  0  0  0  0  0  0  0  0
  140.6960  160.0280  134.3200 N   0  0  0  0  0  0  0  0  0  0  0  0
  142.9090  160.3000  133.6890 O   0  0  0  0  0  0  0  0  0  0  0  0
  143.3000  157.4710  133.2440 C   0  0  0  0  0  0  0  0  0  0  0  0
  143.0110  156.1370  133.0680 C   0  0  0  0  0  0  0  0  0  0  0  0
  143.8390  155.0840  132.6930 C   0  0  0  0  0  0  0  0  0  0  0  0
  143.2780  153.7980  132.6220 C   0  0  0  0  0  0  0  0  0  0  0  0
  141.9130  153.5830  132.9270 C   0  0  0  0  0  0  0  0  0  0  0  0
  141.3810  152.2470  132.8440 N   0  0  0  0  0  0  0  0  0  0  0  0
  141.5670  151.2160  133.8680 C   0  0  0  0  0  0  0  0  0  0  0  0
  140.9780  149.8810  133.4110 C   0  0  0  0  0  0  0  0  0  0  0  0
  141.0230  149.8090  132.0050 O   0  0  0  0  0  0  0  0  0  0  0  0
  139.4510  149.9550  131.3870 S   0  0  0  0  0  0  0  0  0  0  0  0
  139.5090  150.0530  129.6090 C   0  0  0  0  0  0  0  0  0  0  0  0
  138.7660  151.1730  131.9440 O   0  0  0  0  0  0  0  0  0  0  0  0
  138.6650  148.7370  131.7810 O   0  0  0  0  0  0  0  0  0  0  0  0
  141.1050  154.6790  133.3180 C   0  0  0  0  0  0  0  0  0  0  0  0
  141.6840  155.9530  133.3570 C   0  0  0  0  0  0  0  0  0  0  0  0
  141.3071  156.5949  138.0486 H   0  0  0  0  0  0  0  0  0  0  0  0
  140.8924  155.6642  136.5693 H   0  0  0  0  0  0  0  0  0  0  0  0
  142.3117  156.7654  136.5693 H   0  0  0  0  0  0  0  0  0  0  0  0
  140.0580  159.4470  134.9090 H   0  0  0  0  0  0  0  0  0  0  0  0
  144.2712  157.9674  133.1015 H   0  0  0  0  0  0  0  0  0  0  0  0
  144.9005  155.2531  132.4592 H   0  0  0  0  0  0  0  0  0  0  0  0
  143.9083  152.9467  132.3253 H   0  0  0  0  0  0  0  0  0  0  0  0
  140.7550  152.0120  132.0400 H   0  0  0  0  0  0  0  0  0  0  0  0
  142.6427  151.0884  134.0595 H   0  0  0  0  0  0  0  0  0  0  0  0
  141.0487  151.5335  134.7848 H   0  0  0  0  0  0  0  0  0  0  0  0
  141.5639  149.0548  133.8401 H   0  0  0  0  0  0  0  0  0  0  0  0
  139.9347  149.8031  133.7506 H   0  0  0  0  0  0  0  0  0  0  0  0
  140.0481  150.9638  129.3094 H   0  0  0  0  0  0  0  0  0  0  0  0
  140.0303  149.1704  129.2099 H   0  0  0  0  0  0  0  0  0  0  0  0
  138.4845  150.0853  129.2099 H   0  0  0  0  0  0  0  0  0  0  0  0
  140.0479  154.5325  133.5846 H   0  0  0  0  0  0  0  0  0  0  0  0
  1  2  1  0
  2  3  2  0
  2  4  1  0
  4  5  1  0
  5  6  2  0
  5  7  1  0
  7  8  1  0
  8  9  1  0
  9 10  1  0
  9 11  2  0
  8 12  2  0
 12 13  1  0
 13 14  2  0
 14 15  1  0
 15 16  2  0
 16 17  1  0
 17 18  1  0
 18 19  1  0
 19 20  1  0
 20 21  1  0
 21 22  1  0
 21 23  2  0
 21 24  2  0
 16 25  1  0
 25 26  2  0
 26  7  1  0
 26 13  1  0
  1 27  1  0
  1 28  1  0
  1 29  1  0
 10 30  1  0
 12 31  1  0
 14 32  1  0
 15 33  1  0
 17 34  1  0
 18 35  1  0
 18 36  1  0
 19 37  1  0
 19 38  1  0
 22 39  1  0
 22 40  1  0
 22 41  1  0
 25 42  1  0
M  CHG  1  10  -1
M  END
>  <UniqueID>  (24) 
24

>  <SMILES>  (24) 
CC(=O)OC(=O)n1c(C([NH-])=O)cc2ccc(NCCOS(C)(=O)=O)cc21

>  <Energy>  (24) 
74.12300718108564

>  <Genealogy>  (24) 
CC(=O)OC(=O)n1c(C([NH-])=O)cc2ccc(NCCOS(C)(=O)=O)cc21 (protonated)
CC(=O)OC(=O)n1c(C([NH-])=O)cc2ccc(NCCOS(C)(=O)=O)cc21 (3D coordinates assigned)
CC(=O)OC(=O)n1c(C([NH-])=O)cc2ccc(NCCOS(C)(=O)=O)cc21 (optimized conformer: 74.12300718108564 kcal/mol)

>  <smiles>  (24) 
CC(=O)OC(=O)n1c(C(N)=O)cc2ccc(NCCOS(C)(=O)=O)cc21

>  <score_type>  (24) 
oracle

>  <origin>  (24) 
adg

>  <m_score__min__energy>  (24) 
-7.2999999999999998

>  <m_primary>  (24) 
energy

$$$$
24:0
     RDKit          3D

 50 51  0  0  0  0  0  0  0  0999 V2000
  139.0500  159.7690  130.7880 C   0  0  0  0  0  0  0  0  0  0  0  0
  139.1940  159.5450  132.2350 N   0  0  0  0  0  0  0  0  0  0  0  0
  138.6950  158.2010  132.5750 C   0  0  0  0  0  0  0  0  0  0  0  0
  140.6100  159.7050  132.6370 C   0  0  0  0  0  0  0  0  0  0  0  0
  141.0870  158.5120  133.4790 C   0  0  0  0  0  0  0  0  0  0  0  0
  142.0830  158.9330  134.4860 N   0  0  0  0  0  0  0  0  0  0  0  0
  141.6810  158.9490  135.8980 C   0  0  0  0  0  0  0  0  0  0  0  0
  143.4340  159.3260  134.1110 C   0  0  0  0  0  0  0  0  0  0  0  0
  143.8290  160.6970  134.1060 C   0  0  0  0  0  0  0  0  0  0  0  0
  145.1290  161.0800  133.7340 C   0  0  0  0  0  0  0  0  0  0  0  0
  146.0210  160.0850  133.3580 C   0  0  0  0  0  0  0  0  0  0  0  0
  147.3240  160.1810  132.9230 C   0  0  0  0  0  0  0  0  0  0  0  0
  147.7210  158.8700  132.6640 C   0  0  0  0  0  0  0  0  0  0  0  0
  149.0960  158.4970  132.2720 C   0  0  0  0  0  0  0  0  0  0  0  0
  149.5110  157.1330  132.2740 N   0  0  0  0  0  0  0  0  0  0  0  0
  149.9280  159.3980  131.9790 O   0  0  0  0  0  0  0  0  0  0  0  0
  146.6990  158.0050  132.9140 N   0  0  0  0  0  0  0  0  0  0  0  0
  146.6580  156.5910  132.6590 C   0  0  0  0  0  0  0  0  0  0  0  0
  147.0270  156.1480  131.5370 O   0  0  0  0  0  0  0  0  0  0  0  0
  146.2680  155.6240  133.7410 C   0  0  0  0  0  0  0  0  0  0  0  0
  146.9500  154.2590  133.5620 C   0  0  0  0  0  0  0  0  0  0  0  0
  148.4820  154.3520  133.5370 C   0  0  0  0  0  0  0  0  0  0  0  0
  148.9590  154.4170  132.2170 O   0  0  0  0  0  0  0  0  0  0  0  0
  145.6710  158.7630  133.3520 C   0  0  0  0  0  0  0  0  0  0  0  0
  144.3880  158.3490  133.7210 C   0  0  0  0  0  0  0  0  0  0  0  0
  138.4626  160.6828  130.6151 H   0  0  0  0  0  0  0  0  0  0  0  0
  140.0454  159.8815  130.3335 H   0  0  0  0  0  0  0  0  0  0  0  0
  138.5344  158.9102  130.3335 H   0  0  0  0  0  0  0  0  0  0  0  0
  138.6541  158.0909  133.6687 H   0  0  0  0  0  0  0  0  0  0  0  0
  137.6872  158.0670  132.1551 H   0  0  0  0  0  0  0  0  0  0  0  0
  139.3712  157.4418  132.1551 H   0  0  0  0  0  0  0  0  0  0  0  0
  141.2333  159.7785  131.7336 H   0  0  0  0  0  0  0  0  0  0  0  0
  140.6984  160.6176  133.2447 H   0  0  0  0  0  0  0  0  0  0  0  0
  140.2224  158.0674  133.9936 H   0  0  0  0  0  0  0  0  0  0  0  0
  141.5584  157.7785  132.8083 H   0  0  0  0  0  0  0  0  0  0  0  0
  142.5772  158.9133  136.5348 H   0  0  0  0  0  0  0  0  0  0  0  0
  141.1180  159.8703  136.1085 H   0  0  0  0  0  0  0  0  0  0  0  0
  141.0466  158.0754  136.1085 H   0  0  0  0  0  0  0  0  0  0  0  0
  143.1021  161.4689  134.3989 H   0  0  0  0  0  0  0  0  0  0  0  0
  145.4310  162.1377  133.7406 H   0  0  0  0  0  0  0  0  0  0  0  0
  147.9231  161.0960  132.8052 H   0  0  0  0  0  0  0  0  0  0  0  0
  149.1640  156.4670  131.5480 H   0  0  0  0  0  0  0  0  0  0  0  0
  146.5609  156.0430  134.7150 H   0  0  0  0  0  0  0  0  0  0  0  0
  145.1800  155.4715  133.6862 H   0  0  0  0  0  0  0  0  0  0  0  0
  146.6521  153.6064  134.3959 H   0  0  0  0  0  0  0  0  0  0  0  0
  146.6292  153.8561  132.5900 H   0  0  0  0  0  0  0  0  0  0  0  0
  148.7968  155.2562  134.0786 H   0  0  0  0  0  0  0  0  0  0  0  0
  148.8965  153.4530  134.0165 H   0  0  0  0  0  0  0  0  0  0  0  0
  148.7360  155.3230  131.8770 H   0  0  0  0  0  0  0  0  0  0  0  0
  144.1211  157.2819  133.7095 H   0  0  0  0  0  0  0  0  0  0  0  0
  1  2  1  0
  2  3  1  0
  2  4  1  0
  4  5  1  0
  5  6  1  0
  6  7  1  0
  6  8  1  0
  8  9  2  0
  9 10  1  0
 10 11  2  0
 11 12  1  0
 12 13  2  0
 13 14  1  0
 14 15  1  0
 14 16  2  0
 13 17  1  0
 17 18  1  0
 18 19  2  0
 18 20  1  0
 20 21  1  0
 21 22  1  0
 22 23  1  0
 17 24  1  0
 24 25  2  0
 25  8  1  0
 24 11  1  0
  1 26  1  0
  1 27  1  0
  1 28  1  0
  3 29  1  0
  3 30  1  0
  3 31  1  0
  4 32  1  0
  4 33  1  0
  5 34  1  0
  5 35  1  0
  7 36  1  0
  7 37  1  0
  7 38  1  0
  9 39  1  0
 10 40  1  0
 12 41  1  0
 15 42  1  0
 20 43  1  0
 20 44  1  0
 21 45  1  0
 21 46  1  0
 22 47  1  0
 22 48  1  0
 23 49  1  0
 25 50  1  0
M  CHG  1  15  -1
M  END
>  <UniqueID>  (25) 
25

>  <SMILES>  (25) 
CN(C)CCN(C)c1ccc2cc(C([NH-])=O)n(C(=O)CCCO)c2c1

>  <Energy>  (25) 
84.95413888192373

>  <Genealogy>  (25) 
CN(C)CCN(C)c1ccc2cc(C([NH-])=O)n(C(=O)CCCO)c2c1 (protonated)
CN(C)CCN(C)c1ccc2cc(C([NH-])=O)n(C(=O)CCCO)c2c1 (3D coordinates assigned)
CN(C)CCN(C)c1ccc2cc(C([NH-])=O)n(C(=O)CCCO)c2c1 (optimized conformer: 84.95413888192373 kcal/mol)

>  <smiles>  (25) 
CN(C)CCN(C)c1ccc2cc(C(N)=O)n(C(=O)CCCO)c2c1

>  <score_type>  (25) 
oracle

>  <origin>  (25) 
adg

>  <m_score__min__energy>  (25) 
-6.6900000000000004

>  <m_primary>  (25) 
energy

$$$$
25:0
     RDKit          3D

 43 45  0  0  0  0  0  0  0  0999 V2000
  139.7400  156.7830  134.2140 N   0  0  0  0  0  0  0  0  0  0  0  0
  140.2760  157.9390  134.8600 C   0  0  0  0  0  0  0  0  0  0  0  0
  139.6290  158.4760  135.7990 O   0  0  0  0  0  0  0  0  0  0  0  0
  141.5990  158.4810  134.4890 C   0  0  0  0  0  0  0  0  0  0  0  0
  141.9330  159.8280  134.5940 C   0  0  0  0  0  0  0  0  0  0  0  0
  143.2490  159.9060  134.1960 C   0  0  0  0  0  0  0  0  0  0  0  0
  144.0810  161.0100  134.0800 C   0  0  0  0  0  0  0  0  0  0  0  0
  145.3820  160.8110  133.5940 C   0  0  0  0  0  0  0  0  0  0  0  0
  145.8460  159.5130  133.2170 C   0  0  0  0  0  0  0  0  0  0  0  0
  147.1970  159.3150  132.6970 N   0  0  0  0  0  0  0  0  0  0  0  0
  147.9220  160.4610  132.1060 C   0  0  0  0  0  0  0  0  0  0  0  0
  149.2890  160.0880  131.5270 C   0  0  0  0  0  0  0  0  0  0  0  0
  149.9390  159.1400  132.3370 O   0  0  0  0  0  0  0  0  0  0  0  0
  149.2440  157.9200  132.2360 C   0  0  0  0  0  0  0  0  0  0  0  0
  147.8680  158.0140  132.9030 C   0  0  0  0  0  0  0  0  0  0  0  0
  144.9440  158.4180  133.3480 C   0  0  0  0  0  0  0  0  0  0  0  0
  143.6630  158.6450  133.8610 C   0  0  0  0  0  0  0  0  0  0  0  0
  142.6590  157.7560  134.0370 N   0  0  0  0  0  0  0  0  0  0  0  0
  142.6810  156.3630  133.6880 C   0  0  0  0  0  0  0  0  0  0  0  0
  143.2320  155.9920  132.6160 O   0  0  0  0  0  0  0  0  0  0  0  0
  142.0690  155.4000  134.5520 N   0  0  0  0  0  0  0  0  0  0  0  0
  142.2080  153.9590  134.3850 C   0  0  0  0  0  0  0  0  0  0  0  0
  141.3090  153.4660  133.2550 C   0  0  0  0  0  0  0  0  0  0  0  0
  140.6530  154.5560  132.6700 O   0  0  0  0  0  0  0  0  0  0  0  0
  138.7830  156.4430  134.4590 H   0  0  0  0  0  0  0  0  0  0  0  0
  140.3200  156.2110  133.5630 H   0  0  0  0  0  0  0  0  0  0  0  0
  141.2849  160.6532  134.9241 H   0  0  0  0  0  0  0  0  0  0  0  0
  143.7303  162.0139  134.3614 H   0  0  0  0  0  0  0  0  0  0  0  0
  146.0595  161.6726  133.5011 H   0  0  0  0  0  0  0  0  0  0  0  0
  147.3058  160.8835  131.2986 H   0  0  0  0  0  0  0  0  0  0  0  0
  148.1009  161.1826  132.9167 H   0  0  0  0  0  0  0  0  0  0  0  0
  149.1502  159.6662  130.5206 H   0  0  0  0  0  0  0  0  0  0  0  0
  149.9097  160.9951  131.4831 H   0  0  0  0  0  0  0  0  0  0  0  0
  149.1120  157.6683  131.1733 H   0  0  0  0  0  0  0  0  0  0  0  0
  149.8284  157.1409  132.7473 H   0  0  0  0  0  0  0  0  0  0  0  0
  147.2262  157.2225  132.4888 H   0  0  0  0  0  0  0  0  0  0  0  0
  148.0265  157.9011  133.9857 H   0  0  0  0  0  0  0  0  0  0  0  0
  145.2518  157.4052  133.0490 H   0  0  0  0  0  0  0  0  0  0  0  0
  143.2549  153.7211  134.1455 H   0  0  0  0  0  0  0  0  0  0  0  0
  141.9119  153.4609  135.3200 H   0  0  0  0  0  0  0  0  0  0  0  0
  141.9205  152.9559  132.4961 H   0  0  0  0  0  0  0  0  0  0  0  0
  140.5645  152.7642  133.6589 H   0  0  0  0  0  0  0  0  0  0  0  0
  141.3520  155.2410  132.5060 H   0  0  0  0  0  0  0  0  0  0  0  0
  1  2  1  0
  2  3  2  0
  2  4  1  0
  4  5  2  0
  5  6  1  0
  6  7  2  0
  7  8  1  0
  8  9  2  0
  9 10  1  0
 10 11  1  0
 11 12  1  0
 12 13  1  0
 13 14  1  0
 14 15  1  0
  9 16  1  0
 16 17  2  0
 17 18  1  0
 18 19  1  0
 19 20  2  0
 19 21  1  0
 21 22  1  0
 22 23  1  0
 23 24  1  0
 18  4  1  0
 17  6  1  0
 15 10  1  0
  1 25  1  0
  1 26  1  0
  5 27  1  0
  7 28  1  0
  8 29  1  0
 11 30  1  0
 11 31  1  0
 12 32  1  0
 12 33  1  0
 14 34  1  0
 14 35  1  0
 15 36  1  0
 15 37  1  0
 16 38  1  0
 22 39  1  0
 22 40  1  0
 23 41  1  0
 23 42  1  0
 24 43  1  0
M  CHG  1  21  -1
M  END
>  <UniqueID>  (26) 
26

>  <SMILES>  (26) 
NC(=O)c1cc2ccc(N3CCOCC3)cc2n1C(=O)[N-]CCO

>  <Energy>  (26) 
86.77260735140054

>  <Genealogy>  (26) 
NC(=O)c1cc2ccc(N3CCOCC3)cc2n1C(=O)[N-]CCO (protonated)
NC(=O)c1cc2ccc(N3CCOCC3)cc2n1C(=O)[N-]CCO (3D coordinates assigned)
NC(=O)c1cc2ccc(N3CCOCC3)cc2n1C(=O)[N-]CCO (nonaromatic ring conformer: 86.77260735140054 kcal/mol)

>  <smiles>  (26) 
NC(=O)c1cc2ccc(N3CCOCC3)cc2n1C(=O)NCCO

>  <score_type>  (26) 
oracle

>  <origin>  (26) 
adg

>  <m_score__min__energy>  (26) 
-7.0499999999999998

>  <m_primary>  (26) 
energy

$$$$
26:0
     RDKit          3D

 36 37  0  0  0  0  0  0  0  0999 V2000
  142.7750  157.2560  132.5290 N   0  0  0  0  0  0  0  0  0  0  0  0
  143.0290  156.3000  133.5550 C   0  0  0  0  0  0  0  0  0  0  0  0
  143.6210  156.6650  134.6060 O   0  0  0  0  0  0  0  0  0  0  0  0
  142.6670  154.8780  133.3760 C   0  0  0  0  0  0  0  0  0  0  0  0
  143.6000  153.8440  133.4070 C   0  0  0  0  0  0  0  0  0  0  0  0
  142.8940  152.7060  133.0950 C   0  0  0  0  0  0  0  0  0  0  0  0
  143.3240  151.3870  132.9930 C   0  0  0  0  0  0  0  0  0  0  0  0
  142.3700  150.4050  132.6800 C   0  0  0  0  0  0  0  0  0  0  0  0
  141.0120  150.7540  132.4650 C   0  0  0  0  0  0  0  0  0  0  0  0
  139.9880  149.6830  132.1880 C   0  0  0  0  0  0  0  0  0  0  0  0
  140.3690  148.9090  131.1060 F   0  0  0  0  0  0  0  0  0  0  0  0
  139.8430  148.8510  133.2850 F   0  0  0  0  0  0  0  0  0  0  0  0
  138.7710  150.2780  131.9100 F   0  0  0  0  0  0  0  0  0  0  0  0
  140.6100  152.1030  132.6030 C   0  0  0  0  0  0  0  0  0  0  0  0
  141.5860  153.0650  132.8960 C   0  0  0  0  0  0  0  0  0  0  0  0
  141.4270  154.3970  133.0720 N   0  0  0  0  0  0  0  0  0  0  0  0
  140.1890  155.1220  133.0080 C   0  0  0  0  0  0  0  0  0  0  0  0
  139.0920  154.5000  132.9830 O   0  0  0  0  0  0  0  0  0  0  0  0
  140.2090  156.5160  132.9480 O   0  0  0  0  0  0  0  0  0  0  0  0
  139.1060  157.3280  133.3390 C   0  0  0  0  0  0  0  0  0  0  0  0
  139.1790  158.6880  132.6390 C   0  0  0  0  0  0  0  0  0  0  0  0
  138.6130  158.6600  131.2110 C   0  0  0  0  0  0  0  0  0  0  0  0
  138.0130  159.9760  130.8180 C   0  0  0  0  0  0  0  0  0  0  0  0
  138.7530  160.9720  130.6030 O   0  0  0  0  0  0  0  0  0  0  0  0
  136.6370  160.0980  130.6700 O   0  0  0  0  0  0  0  0  0  0  0  0
  142.0030  157.1120  131.8410 H   0  0  0  0  0  0  0  0  0  0  0  0
  144.6737  153.9214  133.6331 H   0  0  0  0  0  0  0  0  0  0  0  0
  144.3794  151.1211  133.1527 H   0  0  0  0  0  0  0  0  0  0  0  0
  142.6796  149.3525  132.6006 H   0  0  0  0  0  0  0  0  0  0  0  0
  139.5551  152.3906  132.4830 H   0  0  0  0  0  0  0  0  0  0  0  0
  138.1678  156.8256  133.0608 H   0  0  0  0  0  0  0  0  0  0  0  0
  139.1401  157.4814  134.4277 H   0  0  0  0  0  0  0  0  0  0  0  0
  138.6047  159.4172  133.2293 H   0  0  0  0  0  0  0  0  0  0  0  0
  140.2414  158.9637  132.5662 H   0  0  0  0  0  0  0  0  0  0  0  0
  139.4266  158.4177  130.5114 H   0  0  0  0  0  0  0  0  0  0  0  0
  137.8180  157.9006  131.1759 H   0  0  0  0  0  0  0  0  0  0  0  0
  1  2  1  0
  2  3  2  0
  2  4  1  0
  4  5  2  0
  5  6  1  0
  6  7  2  0
  7  8  1  0
  8  9  2  0
  9 10  1  0
 10 11  1  0
 10 12  1  0
 10 13  1  0
  9 14  1  0
 14 15  2  0
 15 16  1  0
 16 17  1  0
 17 18  2  0
 17 19  1  0
 19 20  1  0
 20 21  1  0
 21 22  1  0
 22 23  1  0
 23 24  2  0
 23 25  1  0
 16  4  1  0
 15  6  1  0
  1 26  1  0
  5 27  1  0
  7 28  1  0
  8 29  1  0
 14 30  1  0
 20 31  1  0
 20 32  1  0
 21 33  1  0
 21 34  1  0
 22 35  1  0
 22 36  1  0
M  CHG  2   1  -1  25  -1
M  END
>  <UniqueID>  (27) 
27

>  <SMILES>  (27) 
[NH-]C(=O)c1cc2ccc(C(F)(F)F)cc2n1C(=O)OCCCC(=O)[O-]

>  <Energy>  (27) 
68.87866151241658

>  <Genealogy>  (27) 
[NH-]C(=O)c1cc2ccc(C(F)(F)F)cc2n1C(=O)OCCCC(=O)[O-] (protonated)
[NH-]C(=O)c1cc2ccc(C(F)(F)F)cc2n1C(=O)OCCCC(=O)[O-] (3D coordinates assigned)
[NH-]C(=O)c1cc2ccc(C(F)(F)F)cc2n1C(=O)OCCCC(=O)[O-] (optimized conformer: 68.87866151241658 kcal/mol)

>  <smiles>  (27) 
NC(=O)c1cc2ccc(C(F)(F)F)cc2n1C(=O)OCCCC(=O)O

>  <score_type>  (27) 
oracle

>  <origin>  (27) 
adg

>  <m_score__min__energy>  (27) 
-6.0700000000000003

>  <m_primary>  (27) 
energy

$$$$
27:0
     RDKit          3D

 47 49  0  0  0  0  0  0  0  0999 V2000
  139.3110  157.3940  132.9860 C   0  0  0  0  0  0  0  0  0  0  0  0
  140.3340  158.4780  133.3570 C   0  0  2  0  0  0  0  0  0  0  0  0
  141.1090  158.8050  132.2300 O   0  0  0  0  0  0  0  0  0  0  0  0
  141.2430  158.0510  134.5360 C   0  0  1  0  0  0  0  0  0  0  0  0
  142.5650  158.6730  134.4040 N   0  0  0  0  0  0  0  0  0  0  0  0
  143.5740  158.1820  133.5090 C   0  0  0  0  0  0  0  0  0  0  0  0
  143.3490  157.1740  132.7870 O   0  0  0  0  0  0  0  0  0  0  0  0
  144.8670  158.8080  133.4670 N   0  0  0  0  0  0  0  0  0  0  0  0
  145.1700  160.1270  133.6330 C   0  0  0  0  0  0  0  0  0  0  0  0
  144.1970  161.2340  133.7300 C   0  0  0  0  0  0  0  0  0  0  0  0
  142.8330  161.0460  133.3670 N   0  0  0  0  0  0  0  0  0  0  0  0
  144.5860  162.3760  134.0970 O   0  0  0  0  0  0  0  0  0  0  0  0
  146.5500  160.3150  133.6190 C   0  0  0  0  0  0  0  0  0  0  0  0
  147.0870  159.0610  133.4280 C   0  0  0  0  0  0  0  0  0  0  0  0
  148.4150  158.6610  133.3420 C   0  0  0  0  0  0  0  0  0  0  0  0
  148.6800  157.2930  133.1680 C   0  0  0  0  0  0  0  0  0  0  0  0
  147.6220  156.3450  133.0870 C   0  0  0  0  0  0  0  0  0  0  0  0
  147.9080  154.9360  132.9170 N   0  0  0  0  0  0  0  0  0  0  0  0
  149.2220  154.4070  132.5870 C   0  0  0  0  0  0  0  0  0  0  0  0
  149.0970  152.8930  132.6770 C   0  0  0  0  0  0  0  0  0  0  0  0
  147.6030  152.5970  132.6240 C   0  0  0  0  0  0  0  0  0  0  0  0
  146.9120  153.8830  133.0560 C   0  0  0  0  0  0  0  0  0  0  0  0
  146.2840  156.8010  133.1810 C   0  0  0  0  0  0  0  0  0  0  0  0
  146.0510  158.1710  133.3380 C   0  0  0  0  0  0  0  0  0  0  0  0
  140.6460  158.4350  135.8640 C   0  0  0  0  0  0  0  0  0  0  0  0
  139.5650  157.9170  136.2520 O   0  0  0  0  0  0  0  0  0  0  0  0
  141.2870  159.3690  136.6680 O   0  0  0  0  0  0  0  0  0  0  0  0
  138.8949  156.9530  133.9038 H   0  0  0  0  0  0  0  0  0  0  0  0
  138.4996  157.8428  132.3942 H   0  0  0  0  0  0  0  0  0  0  0  0
  139.8060  156.6099  132.3942 H   0  0  0  0  0  0  0  0  0  0  0  0
  139.7751  159.3648  133.6905 H   0  0  0  0  0  0  0  0  0  0  0  0
  141.9640  159.1900  132.5550 H   0  0  0  0  0  0  0  0  0  0  0  0
  141.3373  156.9556  134.5008 H   0  0  0  0  0  0  0  0  0  0  0  0
  142.7690  159.5400  134.9510 H   0  0  0  0  0  0  0  0  0  0  0  0
  142.5650  160.3810  132.6080 H   0  0  0  0  0  0  0  0  0  0  0  0
  147.0951  161.2633  133.7357 H   0  0  0  0  0  0  0  0  0  0  0  0
  149.2332  159.3932  133.4082 H   0  0  0  0  0  0  0  0  0  0  0  0
  149.7221  156.9488  133.0931 H   0  0  0  0  0  0  0  0  0  0  0  0
  149.5106  154.7072  131.5689 H   0  0  0  0  0  0  0  0  0  0  0  0
  149.9946  154.7897  133.2702 H   0  0  0  0  0  0  0  0  0  0  0  0
  149.6127  152.4149  131.8311 H   0  0  0  0  0  0  0  0  0  0  0  0
  149.5551  152.5025  133.5977 H   0  0  0  0  0  0  0  0  0  0  0  0
  147.3021  152.3249  131.6016 H   0  0  0  0  0  0  0  0  0  0  0  0
  147.3333  151.7528  133.2756 H   0  0  0  0  0  0  0  0  0  0  0  0
  146.0457  154.0878  132.4098 H   0  0  0  0  0  0  0  0  0  0  0  0
  146.5379  153.8139  134.0881 H   0  0  0  0  0  0  0  0  0  0  0  0
  145.4449  156.0915  133.1315 H   0  0  0  0  0  0  0  0  0  0  0  0
  1  2  1  0
  2  3  1  0
  2  4  1  0
  4  5  1  0
  5  6  1  0
  6  7  2  0
  6  8  1  0
  8  9  1  0
  9 10  1  0
 10 11  1  0
 10 12  2  0
  9 13  2  0
 13 14  1  0
 14 15  2  0
 15 16  1  0
 16 17  2  0
 17 18  1  0
 18 19  1  0
 19 20  1  0
 20 21  1  0
 21 22  1  0
 17 23  1  0
 23 24  2  0
  4 25  1  0
 25 26  2  0
 25 27  1  0
 24  8  1  0
 24 14  1  0
 22 18  1  0
  1 28  1  0
  1 29  1  0
  1 30  1  0
  2 31  1  1
  3 32  1  0
  4 33  1  1
  5 34  1  0
 11 35  1  0
 13 36  1  0
 15 37  1  0
 16 38  1  0
 19 39  1  0
 19 40  1  0
 20 41  1  0
 20 42  1  0
 21 43  1  0
 21 44  1  0
 22 45  1  0
 22 46  1  0
 23 47  1  0
M  CHG  2  11  -1  27  -1
M  END
>  <UniqueID>  (28) 
28

>  <SMILES>  (28) 
C[C@H](O)[C@@H](NC(=O)n1c(C([NH-])=O)cc2ccc(N3CCCC3)cc21)C(=O)[O-]

>  <Energy>  (28) 
85.01052153473913

>  <Genealogy>  (28) 
CC(O)C(NC(=O)n1c(C([NH-])=O)cc2ccc(N3CCCC3)cc21)C(=O)[O-] (protonated)
C[C@H](O)[C@@H](NC(=O)n1c(C([NH-])=O)cc2ccc(N3CCCC3)cc21)C(=O)[O-] (chirality)
C[C@H](O)[C@@H](NC(=O)n1c(C([NH-])=O)cc2ccc(N3CCCC3)cc21)C(=O)[O-] (3D coordinates assigned)
C[C@H](O)[C@@H](NC(=O)n1c(C([NH-])=O)cc2ccc(N3CCCC3)cc21)C(=O)[O-] (nonaromatic ring conformer: 85.01052153473913 kcal/mol)

>  <smiles>  (28) 
CC(O)C(NC(=O)n1c(C(N)=O)cc2ccc(N3CCCC3)cc21)C(=O)O

>  <score_type>  (28) 
oracle

>  <origin>  (28) 
adg

>  <m_score__min__energy>  (28) 
-8.0099999999999998

>  <m_primary>  (28) 
energy

$$$$
28:0
     RDKit          3D

 42 43  0  0  0  0  0  0  0  0999 V2000
  149.6080  160.8220  130.0290 C   0  0  0  0  0  0  0  0  0  0  0  0
  148.7790  161.0950  131.2800 C   0  0  0  0  0  0  0  0  0  0  0  0
  148.2570  159.8100  131.8630 C   0  0  0  0  0  0  0  0  0  0  0  0
  149.0780  158.6540  131.8840 C   0  0  0  0  0  0  0  0  0  0  0  0
  148.6090  157.4540  132.4450 C   0  0  0  0  0  0  0  0  0  0  0  0
  147.3300  157.4450  132.9900 C   0  0  0  0  0  0  0  0  0  0  0  0
  146.6210  156.4160  133.5690 C   0  0  0  0  0  0  0  0  0  0  0  0
  145.3970  156.9720  133.9300 C   0  0  0  0  0  0  0  0  0  0  0  0
  144.3530  156.2310  134.6650 C   0  0  0  0  0  0  0  0  0  0  0  0
  143.2330  156.9080  135.2350 N   0  0  0  0  0  0  0  0  0  0  0  0
  144.4850  154.9910  134.8470 O   0  0  0  0  0  0  0  0  0  0  0  0
  145.3410  158.2860  133.5780 N   0  0  0  0  0  0  0  0  0  0  0  0
  144.2080  159.1650  133.6580 C   0  0  0  0  0  0  0  0  0  0  0  0
  144.3550  160.3420  134.0870 O   0  0  0  0  0  0  0  0  0  0  0  0
  142.9220  158.7160  133.2160 N   0  0  0  0  0  0  0  0  0  0  0  0
  141.7790  159.6070  133.0350 C   0  0  0  0  0  0  0  0  0  0  0  0
  140.4670  158.8960  133.3930 C   0  0  0  0  0  0  0  0  0  0  0  0
  140.4580  158.3350  134.8290 C   0  0  0  0  0  0  0  0  0  0  0  0
  140.8870  159.3650  135.8790 C   0  0  0  0  0  0  0  0  0  0  0  0
  142.2700  159.3090  136.0860 O   0  0  0  0  0  0  0  0  0  0  0  0
  146.5340  158.5620  133.0050 C   0  0  0  0  0  0  0  0  0  0  0  0
  146.9670  159.7660  132.4370 C   0  0  0  0  0  0  0  0  0  0  0  0
  150.6151  160.4903  130.3217 H   0  0  0  0  0  0  0  0  0  0  0  0
  149.1224  160.0363  129.4316 H   0  0  0  0  0  0  0  0  0  0  0  0
  149.6843  161.7425  129.4316 H   0  0  0  0  0  0  0  0  0  0  0  0
  149.4084  161.6010  132.0269 H   0  0  0  0  0  0  0  0  0  0  0  0
  147.9249  161.7318  131.0062 H   0  0  0  0  0  0  0  0  0  0  0  0
  150.0910  158.6970  131.4574 H   0  0  0  0  0  0  0  0  0  0  0  0
  149.2347  156.5493  132.4527 H   0  0  0  0  0  0  0  0  0  0  0  0
  146.9513  155.3770  133.7150 H   0  0  0  0  0  0  0  0  0  0  0  0
  143.1650  157.9490  135.2210 H   0  0  0  0  0  0  0  0  0  0  0  0
  142.5030  156.3680  135.7500 H   0  0  0  0  0  0  0  0  0  0  0  0
  141.9012  160.4858  133.6852 H   0  0  0  0  0  0  0  0  0  0  0  0
  141.7359  159.9125  131.9792 H   0  0  0  0  0  0  0  0  0  0  0  0
  139.6402  159.6145  133.2922 H   0  0  0  0  0  0  0  0  0  0  0  0
  140.3566  158.0438  132.7062 H   0  0  0  0  0  0  0  0  0  0  0  0
  139.4386  157.9968  135.0664 H   0  0  0  0  0  0  0  0  0  0  0  0
  141.1841  157.5095  134.8633 H   0  0  0  0  0  0  0  0  0  0  0  0
  140.6139  160.3720  135.5306 H   0  0  0  0  0  0  0  0  0  0  0  0
  140.3766  159.1395  136.8270 H   0  0  0  0  0  0  0  0  0  0  0  0
  142.6890  159.5360  135.2170 H   0  0  0  0  0  0  0  0  0  0  0  0
  146.3193  160.6551  132.4376 H   0  0  0  0  0  0  0  0  0  0  0  0
  1  2  1  0
  2  3  1  0
  3  4  2  0
  4  5  1  0
  5  6  2  0
  6  7  1  0
  7  8  2  0
  8  9  1  0
  9 10  1  0
  9 11  2  0
  8 12  1  0
 12 13  1  0
 13 14  2  0
 13 15  1  0
 15 16  1  0
 16 17  1  0
 17 18  1  0
 18 19  1  0
 19 20  1  0
 12 21  1  0
 21 22  2  0
 22  3  1  0
 21  6  1  0
  1 23  1  0
  1 24  1  0
  1 25  1  0
  2 26  1  0
  2 27  1  0
  4 28  1  0
  5 29  1  0
  7 30  1  0
 10 31  1  0
 10 32  1  0
 16 33  1  0
 16 34  1  0
 17 35  1  0
 17 36  1  0
 18 37  1  0
 18 38  1  0
 19 39  1  0
 19 40  1  0
 20 41  1  0
 22 42  1  0
M  CHG  1  15  -1
M  END
>  <UniqueID>  (29) 
29

>  <SMILES>  (29) 
CCc1ccc2cc(C(N)=O)n(C(=O)[N-]CCCCO)c2c1

>  <Energy>  (29) 
72.082912171489

>  <Genealogy>  (29) 
CCc1ccc2cc(C(N)=O)n(C(=O)[N-]CCCCO)c2c1 (protonated)
CCc1ccc2cc(C(N)=O)n(C(=O)[N-]CCCCO)c2c1 (3D coordinates assigned)
CCc1ccc2cc(C(N)=O)n(C(=O)[N-]CCCCO)c2c1 (optimized conformer: 72.082912171489 kcal/mol)

>  <smiles>  (29) 
CCc1ccc2cc(C(N)=O)n(C(=O)NCCCCO)c2c1

>  <score_type>  (29) 
oracle

>  <origin>  (29) 
adg

>  <m_score__min__energy>  (29) 
-6.6399999999999997

>  <m_primary>  (29) 
energy

$$$$
29:0
     RDKit          3D

 49 50  0  0  0  0  0  0  0  0999 V2000
  147.8950  153.6620  137.1090 C   0  0  0  0  0  0  0  0  0  0  0  0
  146.8380  153.7380  136.1140 N   0  0  0  0  0  0  0  0  0  0  0  0
  146.9270  154.5720  134.9570 C   0  0  0  0  0  0  0  0  0  0  0  0
  147.9960  154.6200  134.2870 O   0  0  0  0  0  0  0  0  0  0  0  0
  145.7480  155.3950  134.5370 C   0  0  0  0  0  0  0  0  0  0  0  0
  146.0860  156.2680  133.3580 C   0  0  0  0  0  0  0  0  0  0  0  0
  146.4980  155.7340  132.2890 O   0  0  0  0  0  0  0  0  0  0  0  0
  145.9870  157.7020  133.4440 N   0  0  0  0  0  0  0  0  0  0  0  0
  146.9890  158.6230  133.3340 C   0  0  0  0  0  0  0  0  0  0  0  0
  148.4360  158.3340  133.2990 C   0  0  0  0  0  0  0  0  0  0  0  0
  148.9450  157.2200  132.5680 N   0  0  0  0  0  0  0  0  0  0  0  0
  149.2320  159.0460  133.9710 O   0  0  0  0  0  0  0  0  0  0  0  0
  146.4730  159.9150  133.3920 C   0  0  0  0  0  0  0  0  0  0  0  0
  145.1190  159.7570  133.5720 C   0  0  0  0  0  0  0  0  0  0  0  0
  144.1230  160.7110  133.7150 C   0  0  0  0  0  0  0  0  0  0  0  0
  142.8050  160.2690  133.9100 C   0  0  0  0  0  0  0  0  0  0  0  0
  142.4890  158.8760  133.9720 C   0  0  0  0  0  0  0  0  0  0  0  0
  141.1260  158.4200  134.2290 N   0  0  0  0  0  0  0  0  0  0  0  0
  140.6350  158.2880  135.6110 C   0  0  0  0  0  0  0  0  0  0  0  0
  140.1980  158.0680  133.1370 C   0  0  0  0  0  0  0  0  0  0  0  0
  140.3170  159.0620  131.9650 C   0  0  0  0  0  0  0  0  0  0  0  0
  139.0670  159.8320  131.7580 N   0  0  0  0  0  0  0  0  0  0  0  0
  137.8740  158.9680  131.8410 C   0  0  0  0  0  0  0  0  0  0  0  0
  139.1010  160.4840  130.4390 C   0  0  0  0  0  0  0  0  0  0  0  0
  143.5490  157.9420  133.7880 C   0  0  0  0  0  0  0  0  0  0  0  0
  144.8500  158.4160  133.6060 C   0  0  0  0  0  0  0  0  0  0  0  0
  147.4536  153.6937  138.1160 H   0  0  0  0  0  0  0  0  0  0  0  0
  148.4512  152.7215  136.9819 H   0  0  0  0  0  0  0  0  0  0  0  0
  148.5801  154.5132  136.9819 H   0  0  0  0  0  0  0  0  0  0  0  0
  144.9216  154.7235  134.2611 H   0  0  0  0  0  0  0  0  0  0  0  0
  145.4575  156.0421  135.3778 H   0  0  0  0  0  0  0  0  0  0  0  0
  148.3620  156.7500  131.8380 H   0  0  0  0  0  0  0  0  0  0  0  0
  147.0297  160.8603  133.3111 H   0  0  0  0  0  0  0  0  0  0  0  0
  144.3592  161.7847  133.6767 H   0  0  0  0  0  0  0  0  0  0  0  0
  141.9988  161.0096  134.0173 H   0  0  0  0  0  0  0  0  0  0  0  0
  141.4527  158.5078  136.3132 H   0  0  0  0  0  0  0  0  0  0  0  0
  139.8096  158.9961  135.7761 H   0  0  0  0  0  0  0  0  0  0  0  0
  140.2759  157.2614  135.7761 H   0  0  0  0  0  0  0  0  0  0  0  0
  140.4357  157.0566  132.7757 H   0  0  0  0  0  0  0  0  0  0  0  0
  139.1698  158.1082  133.5259 H   0  0  0  0  0  0  0  0  0  0  0  0
  141.1357  159.7652  132.1780 H   0  0  0  0  0  0  0  0  0  0  0  0
  140.5149  158.4847  131.0498 H   0  0  0  0  0  0  0  0  0  0  0  0
  137.6248  158.7875  132.8971 H   0  0  0  0  0  0  0  0  0  0  0  0
  137.0271  159.4636  131.3439 H   0  0  0  0  0  0  0  0  0  0  0  0
  138.0807  158.0087  131.3439 H   0  0  0  0  0  0  0  0  0  0  0  0
  139.1579  161.5746  130.5704 H   0  0  0  0  0  0  0  0  0  0  0  0
  139.9822  160.1356  129.8803 H   0  0  0  0  0  0  0  0  0  0  0  0
  138.1883  160.2291  129.8803 H   0  0  0  0  0  0  0  0  0  0  0  0
  143.3452  156.8610  133.7893 H   0  0  0  0  0  0  0  0  0  0  0  0
  1  2  1  0
  2  3  1  0
  3  4  2  0
  3  5  1  0
  5  6  1  0
  6  7  2  0
  6  8  1  0
  8  9  1  0
  9 10  1  0
 10 11  1  0
 10 12  2  0
  9 13  2  0
 13 14  1  0
 14 15  2  0
 15 16  1  0
 16 17  2  0
 17 18  1  0
 18 19  1  0
 18 20  1  0
 20 21  1  0
 21 22  1  0
 22 23  1  0
 22 24  1  0
 17 25  1  0
 25 26  2  0
 26  8  1  0
 26 14  1  0
  1 27  1  0
  1 28  1  0
  1 29  1  0
  5 30  1  0
  5 31  1  0
 11 32  1  0
 13 33  1  0
 15 34  1  0
 16 35  1  0
 19 36  1  0
 19 37  1  0
 19 38  1  0
 20 39  1  0
 20 40  1  0
 21 41  1  0
 21 42  1  0
 23 43  1  0
 23 44  1  0
 23 45  1  0
 24 46  1  0
 24 47  1  0
 24 48  1  0
 25 49  1  0
M  CHG  2   2  -1  11  -1
M  END
>  <UniqueID>  (30) 
30

>  <SMILES>  (30) 
C[N-]C(=O)CC(=O)n1c(C([NH-])=O)cc2ccc(N(C)CCN(C)C)cc21

>  <Energy>  (30) 
87.25829776309935

>  <Genealogy>  (30) 
C[N-]C(=O)CC(=O)n1c(C([NH-])=O)cc2ccc(N(C)CCN(C)C)cc21 (protonated)
C[N-]C(=O)CC(=O)n1c(C([NH-])=O)cc2ccc(N(C)CCN(C)C)cc21 (3D coordinates assigned)
C[N-]C(=O)CC(=O)n1c(C([NH-])=O)cc2ccc(N(C)CCN(C)C)cc21 (optimized conformer: 87.25829776309935 kcal/mol)

>  <smiles>  (30) 
CNC(=O)CC(=O)n1c(C(N)=O)cc2ccc(N(C)CCN(C)C)cc21

>  <score_type>  (30) 
oracle

>  <origin>  (30) 
adg

>  <m_score__min__energy>  (30) 
-6.7800000000000002

>  <m_primary>  (30) 
energy

$$$$
30:0
     RDKit          3D

 39 40  0  0  0  0  0  0  0  0999 V2000
  142.1900  157.4880  132.3500 N   0  0  0  0  0  0  0  0  0  0  0  0
  143.1210  156.6250  133.0020 C   0  0  0  0  0  0  0  0  0  0  0  0
  144.1410  157.1220  133.5500 O   0  0  0  0  0  0  0  0  0  0  0  0
  142.8730  155.1680  133.0770 C   0  0  0  0  0  0  0  0  0  0  0  0
  143.8860  154.2130  133.0600 C   0  0  0  0  0  0  0  0  0  0  0  0
  143.2430  152.9980  133.0230 C   0  0  0  0  0  0  0  0  0  0  0  0
  143.7690  151.7120  132.9730 C   0  0  0  0  0  0  0  0  0  0  0  0
  142.8710  150.6330  132.9420 C   0  0  0  0  0  0  0  0  0  0  0  0
  141.4700  150.8530  132.9880 C   0  0  0  0  0  0  0  0  0  0  0  0
  140.5120  149.6930  132.9110 C   0  0  0  0  0  0  0  0  0  0  0  0
  141.0980  148.6200  132.2620 F   0  0  0  0  0  0  0  0  0  0  0  0
  139.3660  150.0440  132.2170 F   0  0  0  0  0  0  0  0  0  0  0  0
  140.1610  149.3070  134.1910 F   0  0  0  0  0  0  0  0  0  0  0  0
  140.9750  152.1780  133.0180 C   0  0  0  0  0  0  0  0  0  0  0  0
  141.8930  153.2360  133.0270 C   0  0  0  0  0  0  0  0  0  0  0  0
  141.6480  154.5670  133.0620 N   0  0  0  0  0  0  0  0  0  0  0  0
  140.3570  155.2010  133.1070 C   0  0  0  0  0  0  0  0  0  0  0  0
  139.3360  154.5940  132.6830 O   0  0  0  0  0  0  0  0  0  0  0  0
  140.2410  156.4980  133.6120 O   0  0  0  0  0  0  0  0  0  0  0  0
  139.0090  157.2060  133.6710 C   0  0  0  0  0  0  0  0  0  0  0  0
  139.2460  158.6940  133.4050 C   0  0  0  0  0  0  0  0  0  0  0  0
  138.4620  159.2410  132.1980 C   0  0  0  0  0  0  0  0  0  0  0  0
  139.3490  159.6240  131.0050 C   0  0  0  0  0  0  0  0  0  0  0  0
  140.5990  159.0030  131.1090 O   0  0  0  0  0  0  0  0  0  0  0  0
  142.3520  158.5200  132.3370 H   0  0  0  0  0  0  0  0  0  0  0  0
  141.3590  157.1080  131.8470 H   0  0  0  0  0  0  0  0  0  0  0  0
  144.9712  154.3924  133.0733 H   0  0  0  0  0  0  0  0  0  0  0  0
  144.8561  151.5448  132.9582 H   0  0  0  0  0  0  0  0  0  0  0  0
  143.2581  149.6052  132.8813 H   0  0  0  0  0  0  0  0  0  0  0  0
  139.8926  152.3732  133.0339 H   0  0  0  0  0  0  0  0  0  0  0  0
  138.3220  156.8052  132.9111 H   0  0  0  0  0  0  0  0  0  0  0  0
  138.5706  157.0841  134.6725 H   0  0  0  0  0  0  0  0  0  0  0  0
  138.9444  159.2588  134.2995 H   0  0  0  0  0  0  0  0  0  0  0  0
  140.3149  158.8123  133.1736 H   0  0  0  0  0  0  0  0  0  0  0  0
  137.7509  158.4694  131.8678 H   0  0  0  0  0  0  0  0  0  0  0  0
  137.9600  160.1609  132.5323 H   0  0  0  0  0  0  0  0  0  0  0  0
  138.8612  159.3035  130.0726 H   0  0  0  0  0  0  0  0  0  0  0  0
  139.4910  160.7148  131.0008 H   0  0  0  0  0  0  0  0  0  0  0  0
  141.2680  159.7350  131.1610 H   0  0  0  0  0  0  0  0  0  0  0  0
  1  2  1  0
  2  3  2  0
  2  4  1  0
  4  5  2  0
  5  6  1  0
  6  7  2  0
  7  8  1  0
  8  9  2  0
  9 10  1  0
 10 11  1  0
 10 12  1  0
 10 13  1  0
  9 14  1  0
 14 15  2  0
 15 16  1  0
 16 17  1  0
 17 18  2  0
 17 19  1  0
 19 20  1  0
 20 21  1  0
 21 22  1  0
 22 23  1  0
 23 24  1  0
 16  4  1  0
 15  6  1  0
  1 25  1  0
  1 26  1  0
  5 27  1  0
  7 28  1  0
  8 29  1  0
 14 30  1  0
 20 31  1  0
 20 32  1  0
 21 33  1  0
 21 34  1  0
 22 35  1  0
 22 36  1  0
 23 37  1  0
 23 38  1  0
 24 39  1  0
M  END
>  <UniqueID>  (31) 
31

>  <SMILES>  (31) 
NC(=O)c1cc2ccc(C(F)(F)F)cc2n1C(=O)OCCCCO

>  <Energy>  (31) 
70.8200385210687

>  <Genealogy>  (31) 
NC(=O)c1cc2ccc(C(F)(F)F)cc2n1C(=O)OCCCCO (3D coordinates assigned)
NC(=O)c1cc2ccc(C(F)(F)F)cc2n1C(=O)OCCCCO (optimized conformer: 70.8200385210687 kcal/mol)

>  <smiles>  (31) 
NC(=O)c1cc2ccc(C(F)(F)F)cc2n1C(=O)OCCCCO

>  <score_type>  (31) 
oracle

>  <origin>  (31) 
adg

>  <m_score__min__energy>  (31) 
-6.1799999999999997

>  <m_primary>  (31) 
energy

$$$$
31:0
     RDKit          3D

 34 35  0  0  0  0  0  0  0  0999 V2000
  150.7320  151.1190  132.3630 C   0  0  0  0  0  0  0  0  0  0  0  0
  149.1270  151.7420  131.9140 S   0  0  0  0  0  0  0  0  0  0  0  0
  147.9030  150.8000  132.5810 O   0  0  0  0  0  0  0  0  0  0  0  0
  148.9030  153.4770  132.2900 C   0  0  0  0  0  0  0  0  0  0  0  0
  147.9740  153.7130  133.4490 C   0  0  0  0  0  0  0  0  0  0  0  0
  148.1310  153.0820  134.5290 O   0  0  0  0  0  0  0  0  0  0  0  0
  146.8030  154.5240  133.2750 N   0  0  0  0  0  0  0  0  0  0  0  0
  145.5200  154.1160  133.0670 C   0  0  0  0  0  0  0  0  0  0  0  0
  145.0980  152.7200  132.8230 C   0  0  0  0  0  0  0  0  0  0  0  0
  145.8500  151.8660  131.9590 N   0  0  0  0  0  0  0  0  0  0  0  0
  144.0760  152.2620  133.3990 O   0  0  0  0  0  0  0  0  0  0  0  0
  144.6620  155.2140  133.0190 C   0  0  0  0  0  0  0  0  0  0  0  0
  145.4670  156.3150  133.2020 C   0  0  0  0  0  0  0  0  0  0  0  0
  145.1460  157.6680  133.2350 C   0  0  0  0  0  0  0  0  0  0  0  0
  146.1860  158.5870  133.4490 C   0  0  0  0  0  0  0  0  0  0  0  0
  147.5200  158.1440  133.6450 C   0  0  0  0  0  0  0  0  0  0  0  0
  148.6340  159.1430  133.8300 C   0  0  0  0  0  0  0  0  0  0  0  0
  148.1200  160.4220  133.7300 F   0  0  0  0  0  0  0  0  0  0  0  0
  149.2260  158.9890  135.0720 F   0  0  0  0  0  0  0  0  0  0  0  0
  149.6090  158.9710  132.8620 F   0  0  0  0  0  0  0  0  0  0  0  0
  147.8090  156.7600  133.5780 C   0  0  0  0  0  0  0  0  0  0  0  0
  146.7550  155.8710  133.3530 C   0  0  0  0  0  0  0  0  0  0  0  0
  150.8188  151.0853  133.4591 H   0  0  0  0  0  0  0  0  0  0  0  0
  150.8597  150.1060  131.9538 H   0  0  0  0  0  0  0  0  0  0  0  0
  151.5097  151.7805  131.9538 H   0  0  0  0  0  0  0  0  0  0  0  0
  147.6600  151.2520  133.4270 H   0  0  0  0  0  0  0  0  0  0  0  0
  149.8836  153.9123  132.5327 H   0  0  0  0  0  0  0  0  0  0  0  0
  148.4511  153.9493  131.4052 H   0  0  0  0  0  0  0  0  0  0  0  0
  145.5610  150.8720  131.8250 H   0  0  0  0  0  0  0  0  0  0  0  0
  146.6670  152.2240  131.4170 H   0  0  0  0  0  0  0  0  0  0  0  0
  143.5726  155.2026  132.8671 H   0  0  0  0  0  0  0  0  0  0  0  0
  144.1089  158.0078  133.0976 H   0  0  0  0  0  0  0  0  0  0  0  0
  145.9638  159.6642  133.4649 H   0  0  0  0  0  0  0  0  0  0  0  0
  148.8388  156.3932  133.7002 H   0  0  0  0  0  0  0  0  0  0  0  0
  1  2  1  0
  2  3  1  1
  2  4  1  0
  4  5  1  0
  5  6  2  0
  5  7  1  0
  7  8  1  0
  8  9  1  0
  9 10  1  0
  9 11  2  0
  8 12  2  0
 12 13  1  0
 13 14  2  0
 14 15  1  0
 15 16  2  0
 16 17  1  0
 17 18  1  0
 17 19  1  0
 17 20  1  0
 16 21  1  0
 21 22  2  0
 22  7  1  0
 22 13  1  0
  1 23  1  0
  1 24  1  0
  1 25  1  0
  3 26  1  0
  4 27  1  0
  4 28  1  0
 10 29  1  0
 10 30  1  0
 12 31  1  0
 14 32  1  0
 15 33  1  0
 21 34  1  0
M  CHG  1   2   1
M  END
>  <UniqueID>  (32) 
32

>  <SMILES>  (32) 
C[S@@+](O)CC(=O)n1c(C(N)=O)cc2ccc(C(F)(F)F)cc21

>  <Energy>  (32) 
68.99980549186962

>  <Genealogy>  (32) 
C[S+](O)CC(=O)n1c(C(N)=O)cc2ccc(C(F)(F)F)cc21 (protonated)
C[S@@+](O)CC(=O)n1c(C(N)=O)cc2ccc(C(F)(F)F)cc21 (chirality)
C[S@@+](O)CC(=O)n1c(C(N)=O)cc2ccc(C(F)(F)F)cc21 (3D coordinates assigned)
C[S@@+](O)CC(=O)n1c(C(N)=O)cc2ccc(C(F)(F)F)cc21 (optimized conformer: 68.99980549186962 kcal/mol)

>  <smiles>  (32) 
C[S+]([O-])CC(=O)n1c(C(N)=O)cc2ccc(C(F)(F)F)cc21

>  <score_type>  (32) 
oracle

>  <origin>  (32) 
adg

>  <m_score__min__energy>  (32) 
-5.96

>  <m_primary>  (32) 
energy

$$$$
32:0
     RDKit          3D

 32 33  0  0  0  0  0  0  0  0999 V2000
  148.7460  159.3580  133.6800 C   0  0  0  0  0  0  0  0  0  0  0  0
  148.1150  159.2890  132.2870 C   0  0  1  0  0  0  0  0  0  0  0  0
  146.7270  159.7680  132.3340 N   0  0  0  0  0  0  0  0  0  0  0  0
  145.6400  159.0740  132.9810 C   0  0  0  0  0  0  0  0  0  0  0  0
  145.8820  157.7870  133.5250 C   0  0  0  0  0  0  0  0  0  0  0  0
  144.8560  157.0640  134.1530 C   0  0  0  0  0  0  0  0  0  0  0  0
  143.6000  157.6530  134.2390 C   0  0  0  0  0  0  0  0  0  0  0  0
  142.4270  157.1590  134.7630 C   0  0  0  0  0  0  0  0  0  0  0  0
  141.4860  158.1640  134.5650 C   0  0  0  0  0  0  0  0  0  0  0  0
  140.0890  158.0720  135.0360 C   0  0  0  0  0  0  0  0  0  0  0  0
  138.9940  158.3530  134.1640 N   0  0  0  0  0  0  0  0  0  0  0  0
  139.8610  157.7930  136.2430 O   0  0  0  0  0  0  0  0  0  0  0  0
  142.0470  159.2340  133.9330 N   0  0  0  0  0  0  0  0  0  0  0  0
  141.3810  160.4160  133.4590 C   0  0  0  0  0  0  0  0  0  0  0  0
  141.8380  161.5580  133.7320 O   0  0  0  0  0  0  0  0  0  0  0  0
  140.2250  160.3150  132.6940 O   0  0  0  0  0  0  0  0  0  0  0  0
  143.3460  158.9050  133.7420 C   0  0  0  0  0  0  0  0  0  0  0  0
  144.3430  159.6390  133.0890 C   0  0  0  0  0  0  0  0  0  0  0  0
  148.9150  160.1170  131.3190 C   0  0  0  0  0  0  0  0  0  0  0  0
  148.4070  161.1420  130.7910 O   0  0  0  0  0  0  0  0  0  0  0  0
  150.2230  159.7630  131.0060 O   0  0  0  0  0  0  0  0  0  0  0  0
  147.9590  159.2719  134.4437 H   0  0  0  0  0  0  0  0  0  0  0  0
  149.4638  158.5330  133.7986 H   0  0  0  0  0  0  0  0  0  0  0  0
  149.2686  160.3186  133.7986 H   0  0  0  0  0  0  0  0  0  0  0  0
  148.1159  158.2425  131.9481 H   0  0  0  0  0  0  0  0  0  0  0  0
  146.5150  160.6980  131.9050 H   0  0  0  0  0  0  0  0  0  0  0  0
  146.8885  157.3489  133.4537 H   0  0  0  0  0  0  0  0  0  0  0  0
  145.0404  156.0609  134.5650 H   0  0  0  0  0  0  0  0  0  0  0  0
  142.2678  156.1792  135.2369 H   0  0  0  0  0  0  0  0  0  0  0  0
  138.0130  158.2380  134.5020 H   0  0  0  0  0  0  0  0  0  0  0  0
  139.1510  158.7520  133.2130 H   0  0  0  0  0  0  0  0  0  0  0  0
  144.1258  160.6321  132.6688 H   0  0  0  0  0  0  0  0  0  0  0  0
  1  2  1  0
  2  3  1  0
  3  4  1  0
  4  5  2  0
  5  6  1  0
  6  7  2  0
  7  8  1  0
  8  9  2  0
  9 10  1  0
 10 11  1  0
 10 12  2  0
  9 13  1  0
 13 14  1  0
 14 15  2  0
 14 16  1  0
 13 17  1  0
 17 18  2  0
  2 19  1  0
 19 20  2  0
 19 21  1  0
 18  4  1  0
 17  7  1  0
  1 22  1  0
  1 23  1  0
  1 24  1  0
  2 25  1  6
  3 26  1  0
  5 27  1  0
  6 28  1  0
  8 29  1  0
 11 30  1  0
 11 31  1  0
 18 32  1  0
M  CHG  2  16  -1  21  -1
M  END
>  <UniqueID>  (33) 
33

>  <SMILES>  (33) 
C[C@@H](Nc1ccc2cc(C(N)=O)n(C(=O)[O-])c2c1)C(=O)[O-]

>  <Energy>  (33) 
70.89390056442974

>  <Genealogy>  (33) 
CC(Nc1ccc2cc(C(N)=O)n(C(=O)[O-])c2c1)C(=O)[O-] (protonated)
C[C@@H](Nc1ccc2cc(C(N)=O)n(C(=O)[O-])c2c1)C(=O)[O-] (chirality)
C[C@@H](Nc1ccc2cc(C(N)=O)n(C(=O)[O-])c2c1)C(=O)[O-] (3D coordinates assigned)
C[C@@H](Nc1ccc2cc(C(N)=O)n(C(=O)[O-])c2c1)C(=O)[O-] (optimized conformer: 70.89390056442974 kcal/mol)

>  <smiles>  (33) 
CC(Nc1ccc2cc(C(N)=O)n(C(=O)O)c2c1)C(=O)O

>  <score_type>  (33) 
oracle

>  <origin>  (33) 
adg

>  <m_score__min__energy>  (33) 
-6.3700000000000001

>  <m_primary>  (33) 
energy

$$$$
33:0
     RDKit          3D

 36 37  0  0  0  0  0  0  0  0999 V2000
  147.7630  161.2730  132.0300 H   0  0  0  0  0  0  0  0  0  0  0  0
  148.0250  160.8420  131.1750 O   0  0  0  0  0  0  0  0  0  0  0  0
  148.3250  159.5100  131.4860 C   0  0  0  0  0  0  0  0  0  0  0  0
  149.4065  159.3453  131.3710 H   0  0  0  0  0  0  0  0  0  0  0  0
  147.7685  158.8496  130.8047 H   0  0  0  0  0  0  0  0  0  0  0  0
  147.9250  159.2020  132.8990 C   0  0  0  0  0  0  0  0  0  0  0  0
  148.4260  159.8770  133.8370 O   0  0  0  0  0  0  0  0  0  0  0  0
  146.9760  158.1640  133.2010 N   0  0  0  0  0  0  0  0  0  0  0  0
  145.6530  158.3210  133.4880 C   0  0  0  0  0  0  0  0  0  0  0  0
  144.9650  159.6220  133.6580 C   0  0  0  0  0  0  0  0  0  0  0  0
  143.7970  159.6630  134.1280 O   0  0  0  0  0  0  0  0  0  0  0  0
  145.6000  160.8430  133.2740 N   0  0  0  0  0  0  0  0  0  0  0  0
  146.5900  160.8640  132.9420 H   0  0  0  0  0  0  0  0  0  0  0  0
  145.0880  161.7490  133.3640 H   0  0  0  0  0  0  0  0  0  0  0  0
  145.0440  157.0790  133.6680 C   0  0  0  0  0  0  0  0  0  0  0  0
  143.9901  156.8824  133.9142 H   0  0  0  0  0  0  0  0  0  0  0  0
  146.0420  156.1520  133.4720 C   0  0  0  0  0  0  0  0  0  0  0  0
  145.9900  154.7610  133.5070 C   0  0  0  0  0  0  0  0  0  0  0  0
  145.0542  154.2345  133.7459 H   0  0  0  0  0  0  0  0  0  0  0  0
  147.1690  154.0510  133.2280 C   0  0  0  0  0  0  0  0  0  0  0  0
  147.1600  152.9512  133.2480 H   0  0  0  0  0  0  0  0  0  0  0  0
  148.3700  154.7370  132.9210 C   0  0  0  0  0  0  0  0  0  0  0  0
  149.6170  153.9680  132.5780 C   0  0  0  0  0  0  0  0  0  0  0  0
  150.2379  153.8659  133.4803 H   0  0  0  0  0  0  0  0  0  0  0  0
  150.1658  154.5145  131.7969 H   0  0  0  0  0  0  0  0  0  0  0  0
  149.2720  152.6000  132.0590 C   0  0  0  0  0  0  0  0  0  0  0  0
  148.7477  152.5071  131.0965 H   0  0  0  0  0  0  0  0  0  0  0  0
  149.5880  151.4920  132.7410 C   0  0  0  0  0  0  0  0  0  0  0  0
  150.1133  151.5794  133.7035 H   0  0  0  0  0  0  0  0  0  0  0  0
  149.2370  150.1360  132.2130 C   0  0  0  0  0  0  0  0  0  0  0  0
  149.0594  149.4497  133.0541 H   0  0  0  0  0  0  0  0  0  0  0  0
  148.3274  150.2060  131.5984 H   0  0  0  0  0  0  0  0  0  0  0  0
  150.0663  149.7559  131.5984 H   0  0  0  0  0  0  0  0  0  0  0  0
  148.3820  156.1490  132.8860 C   0  0  0  0  0  0  0  0  0  0  0  0
  149.2995  156.6984  132.6285 H   0  0  0  0  0  0  0  0  0  0  0  0
  147.1980  156.8320  133.1870 C   0  0  0  0  0  0  0  0  0  0  0  0
  1  2  1  0
  2  3  1  0
  3  4  1  0
  3  5  1  0
  3  6  1  0
  6  7  2  0
  6  8  1  0
  8  9  1  0
  9 10  1  0
 10 11  2  0
 10 12  1  0
 12 13  1  0
 12 14  1  0
  9 15  2  0
 15 16  1  0
 15 17  1  0
 17 18  2  0
 18 19  1  0
 18 20  1  0
 20 21  1  0
 20 22  2  0
 22 23  1  0
 23 24  1  0
 23 25  1  0
 23 26  1  0
 26 27  1  0
 26 28  2  0
 28 29  1  0
 28 30  1  0
 30 31  1  0
 30 32  1  0
 30 33  1  0
 22 34  1  0
 34 35  1  0
 34 36  2  0
 36  8  1  0
 36 17  1  0
M  END
>  <UniqueID>  (34) 
34

>  <SMILES>  (34) 
C/C=C/Cc1ccc2cc(C(N)=O)n(C(=O)CO)c2c1

>  <Energy>  (34) 
68.6064863954539

>  <Genealogy>  (34) 
C/C=C/Cc1ccc2cc(C(N)=O)n(C(=O)CO)c2c1 (cis-trans isomerization)
C/C=C/Cc1ccc2cc(C(N)=O)n(C(=O)CO)c2c1 (3D coordinates assigned)
C/C=C/Cc1ccc2cc(C(N)=O)n(C(=O)CO)c2c1 (optimized conformer: 68.6064863954539 kcal/mol)

>  <smiles>  (34) 
C/C=C/Cc1ccc2cc(C(N)=O)n(C(=O)CO)c2c1

>  <score_type>  (34) 
oracle

>  <origin>  (34) 
adg

>  <m_score__min__energy>  (34) 
-6.6600000000000001

>  <m_primary>  (34) 
energy

$$$$
34:0
     RDKit          3D

 34 35  0  0  0  0  0  0  0  0999 V2000
  139.9380  156.4850  133.2620 C   0  0  0  0  0  0  0  0  0  0  0  0
  140.5080  157.7950  134.3250 S   0  0  0  0  0  0  0  0  0  0  0  0
  140.7530  159.0520  133.5380 O   0  0  0  0  0  0  0  0  0  0  0  0
  139.4390  158.0760  135.3420 O   0  0  0  0  0  0  0  0  0  0  0  0
  141.9690  157.3060  135.1850 C   0  0  0  0  0  0  0  0  0  0  0  0
  143.2310  157.4370  134.7450 C   0  0  0  0  0  0  0  0  0  0  0  0
  143.6710  157.9800  133.4410 C   0  0  0  0  0  0  0  0  0  0  0  0
  142.9720  157.8490  132.4030 O   0  0  0  0  0  0  0  0  0  0  0  0
  144.9410  158.6450  133.3470 N   0  0  0  0  0  0  0  0  0  0  0  0
  145.1970  159.9750  133.4920 C   0  0  0  0  0  0  0  0  0  0  0  0
  144.1830  161.0360  133.6710 C   0  0  0  0  0  0  0  0  0  0  0  0
  142.8160  160.7700  133.3670 N   0  0  0  0  0  0  0  0  0  0  0  0
  144.5070  162.1700  134.1140 O   0  0  0  0  0  0  0  0  0  0  0  0
  146.5650  160.2220  133.3860 C   0  0  0  0  0  0  0  0  0  0  0  0
  147.1420  158.9920  133.1710 C   0  0  0  0  0  0  0  0  0  0  0  0
  148.4810  158.6470  133.0010 C   0  0  0  0  0  0  0  0  0  0  0  0
  148.7930  157.2890  132.8200 C   0  0  0  0  0  0  0  0  0  0  0  0
  147.7720  156.3060  132.8340 C   0  0  0  0  0  0  0  0  0  0  0  0
  148.1150  154.8620  132.6140 C   0  0  0  0  0  0  0  0  0  0  0  0
  149.4880  154.7120  132.5930 F   0  0  0  0  0  0  0  0  0  0  0  0
  146.4240  156.6950  132.9950 C   0  0  0  0  0  0  0  0  0  0  0  0
  146.1420  158.0560  133.1540 C   0  0  0  0  0  0  0  0  0  0  0  0
  139.5736  155.6476  133.8751 H   0  0  0  0  0  0  0  0  0  0  0  0
  139.1206  156.8574  132.6271 H   0  0  0  0  0  0  0  0  0  0  0  0
  140.7677  156.1408  132.6271 H   0  0  0  0  0  0  0  0  0  0  0  0
  141.8330  156.8501  136.1768 H   0  0  0  0  0  0  0  0  0  0  0  0
  144.0250  157.1039  135.4295 H   0  0  0  0  0  0  0  0  0  0  0  0
  142.5500  159.9780  132.7410 H   0  0  0  0  0  0  0  0  0  0  0  0
  147.0747  161.1941  133.4588 H   0  0  0  0  0  0  0  0  0  0  0  0
  149.2695  159.4139  133.0083 H   0  0  0  0  0  0  0  0  0  0  0  0
  149.8392  156.9860  132.6660 H   0  0  0  0  0  0  0  0  0  0  0  0
  147.6926  154.2566  133.4295 H   0  0  0  0  0  0  0  0  0  0  0  0
  147.6954  154.5281  131.6536 H   0  0  0  0  0  0  0  0  0  0  0  0
  145.6170  155.9475  132.9954 H   0  0  0  0  0  0  0  0  0  0  0  0
  1  2  1  0
  2  3  2  0
  2  4  2  0
  2  5  1  0
  5  6  2  3
  6  7  1  0
  7  8  2  0
  7  9  1  0
  9 10  1  0
 10 11  1  0
 11 12  1  0
 11 13  2  0
 10 14  2  0
 14 15  1  0
 15 16  2  0
 16 17  1  0
 17 18  2  0
 18 19  1  0
 19 20  1  0
 18 21  1  0
 21 22  2  0
 22  9  1  0
 22 15  1  0
  1 23  1  0
  1 24  1  0
  1 25  1  0
  5 26  1  0
  6 27  1  0
 12 28  1  0
 14 29  1  0
 16 30  1  0
 17 31  1  0
 19 32  1  0
 19 33  1  0
 21 34  1  0
M  CHG  1  12  -1
M  END
>  <UniqueID>  (35) 
35

>  <SMILES>  (35) 
CS(=O)(=O)C=CC(=O)n1c(C([NH-])=O)cc2ccc(CF)cc21

>  <Energy>  (35) 
73.806264821275

>  <Genealogy>  (35) 
CS(=O)(=O)C=CC(=O)n1c(C([NH-])=O)cc2ccc(CF)cc21 (protonated)
CS(=O)(=O)C=CC(=O)n1c(C([NH-])=O)cc2ccc(CF)cc21 (3D coordinates assigned)
CS(=O)(=O)C=CC(=O)n1c(C([NH-])=O)cc2ccc(CF)cc21 (optimized conformer: 73.806264821275 kcal/mol)

>  <smiles>  (35) 
CS(=O)(=O)C=CC(=O)n1c(C(N)=O)cc2ccc(CF)cc21

>  <score_type>  (35) 
oracle

>  <origin>  (35) 
adg

>  <m_score__min__energy>  (35) 
-6.4400000000000004

>  <m_primary>  (35) 
energy

$$$$
35:0
     RDKit          3D

 47 49  0  0  0  0  0  0  0  0999 V2000
  141.3790  159.6700  135.2240 C   0  0  0  0  0  0  0  0  0  0  0  0
  141.5810  159.7570  133.9110 C   0  0  0  0  0  0  0  0  0  0  0  0
  141.2800  158.6460  132.9860 C   0  0  0  0  0  0  0  0  0  0  0  0
  140.5070  158.8260  132.0070 O   0  0  0  0  0  0  0  0  0  0  0  0
  141.8920  157.3610  133.1780 N   0  0  0  0  0  0  0  0  0  0  0  0
  141.2620  156.1660  133.3590 C   0  0  0  0  0  0  0  0  0  0  0  0
  139.8080  155.9320  133.2480 C   0  0  0  0  0  0  0  0  0  0  0  0
  138.8670  156.9920  133.4240 N   0  0  0  0  0  0  0  0  0  0  0  0
  139.3900  154.7820  132.9440 O   0  0  0  0  0  0  0  0  0  0  0  0
  142.1840  155.1640  133.6520 C   0  0  0  0  0  0  0  0  0  0  0  0
  143.4120  155.7860  133.6400 C   0  0  0  0  0  0  0  0  0  0  0  0
  144.6780  155.2690  133.8980 C   0  0  0  0  0  0  0  0  0  0  0  0
  145.7680  156.1550  133.8720 C   0  0  0  0  0  0  0  0  0  0  0  0
  145.5750  157.5340  133.6020 C   0  0  0  0  0  0  0  0  0  0  0  0
  146.6950  158.4380  133.5910 N   0  0  0  0  0  0  0  0  0  0  0  0
  146.4760  159.8800  133.4380 C   0  0  0  0  0  0  0  0  0  0  0  0
  147.5910  160.5480  132.5990 C   0  0  0  0  0  0  0  0  0  0  0  0
  148.8410  159.7550  132.5000 N   0  0  0  0  0  0  0  0  0  0  0  0
  148.8720  158.9260  131.2700 C   0  0  0  0  0  0  0  0  0  0  0  0
  149.4840  159.6720  130.0770 C   0  0  0  0  0  0  0  0  0  0  0  0
  149.9150  160.9470  130.4690 O   0  0  0  0  0  0  0  0  0  0  0  0
  149.0980  159.0030  133.7460 C   0  0  0  0  0  0  0  0  0  0  0  0
  148.0170  157.9460  134.0030 C   0  0  0  0  0  0  0  0  0  0  0  0
  144.2730  158.0210  133.3530 C   0  0  0  0  0  0  0  0  0  0  0  0
  143.2080  157.1110  133.3570 C   0  0  0  0  0  0  0  0  0  0  0  0
  141.6180  160.5238  135.8750 H   0  0  0  0  0  0  0  0  0  0  0  0
  140.9731  158.7443  135.6579 H   0  0  0  0  0  0  0  0  0  0  0  0
  141.9877  160.6925  133.4993 H   0  0  0  0  0  0  0  0  0  0  0  0
  137.8440  156.7930  133.3930 H   0  0  0  0  0  0  0  0  0  0  0  0
  139.1780  157.9860  133.4860 H   0  0  0  0  0  0  0  0  0  0  0  0
  141.9755  154.1024  133.8506 H   0  0  0  0  0  0  0  0  0  0  0  0
  144.8208  154.2002  134.1155 H   0  0  0  0  0  0  0  0  0  0  0  0
  146.7824  155.7750  134.0632 H   0  0  0  0  0  0  0  0  0  0  0  0
  145.5097  160.0417  132.9379 H   0  0  0  0  0  0  0  0  0  0  0  0
  146.4854  160.3340  134.4399 H   0  0  0  0  0  0  0  0  0  0  0  0
  147.2054  160.7111  131.5818 H   0  0  0  0  0  0  0  0  0  0  0  0
  147.8529  161.4845  133.1132 H   0  0  0  0  0  0  0  0  0  0  0  0
  149.4699  158.0239  131.4670 H   0  0  0  0  0  0  0  0  0  0  0  0
  147.8336  158.6726  131.0102 H   0  0  0  0  0  0  0  0  0  0  0  0
  150.3424  159.1009  129.6936 H   0  0  0  0  0  0  0  0  0  0  0  0
  148.7208  159.7782  129.2920 H   0  0  0  0  0  0  0  0  0  0  0  0
  150.3540  160.8300  131.3520 H   0  0  0  0  0  0  0  0  0  0  0  0
  150.0742  158.5025  133.6655 H   0  0  0  0  0  0  0  0  0  0  0  0
  149.0883  159.7148  134.5846 H   0  0  0  0  0  0  0  0  0  0  0  0
  148.2578  157.0379  133.4309 H   0  0  0  0  0  0  0  0  0  0  0  0
  147.9901  157.7251  135.0803 H   0  0  0  0  0  0  0  0  0  0  0  0
  144.0992  159.0900  133.1604 H   0  0  0  0  0  0  0  0  0  0  0  0
  1  2  2  0
  2  3  1  0
  3  4  2  0
  3  5  1  0
  5  6  1  0
  6  7  1  0
  7  8  1  0
  7  9  2  0
  6 10  2  0
 10 11  1  0
 11 12  2  0
 12 13  1  0
 13 14  2  0
 14 15  1  0
 15 16  1  0
 16 17  1  0
 17 18  1  0
 18 19  1  0
 19 20  1  0
 20 21  1  0
 18 22  1  0
 22 23  1  0
 14 24  1  0
 24 25  2  0
 25  5  1  0
 25 11  1  0
 23 15  1  0
  1 26  1  0
  1 27  1  0
  2 28  1  0
  8 29  1  0
  8 30  1  0
 10 31  1  0
 12 32  1  0
 13 33  1  0
 16 34  1  0
 16 35  1  0
 17 36  1  0
 17 37  1  0
 19 38  1  0
 19 39  1  0
 20 40  1  0
 20 41  1  0
 21 42  1  0
 22 43  1  0
 22 44  1  0
 23 45  1  0
 23 46  1  0
 24 47  1  0
M  END
>  <UniqueID>  (36) 
36

>  <SMILES>  (36) 
C=CC(=O)n1c(C(N)=O)cc2ccc(N3CCN(CCO)CC3)cc21

>  <Energy>  (36) 
99.11821251711292

>  <Genealogy>  (36) 
C=CC(=O)n1c(C(N)=O)cc2ccc(N3CCN(CCO)CC3)cc21 (3D coordinates assigned)
C=CC(=O)n1c(C(N)=O)cc2ccc(N3CCN(CCO)CC3)cc21 (nonaromatic ring conformer: 99.11821251711292 kcal/mol)

>  <smiles>  (36) 
C=CC(=O)n1c(C(N)=O)cc2ccc(N3CCN(CCO)CC3)cc21

>  <score_type>  (36) 
oracle

>  <origin>  (36) 
adg

>  <m_score__min__energy>  (36) 
-7.7199999999999998

>  <m_primary>  (36) 
energy

$$$$
36:0
     RDKit          3D

 45 46  0  0  0  0  0  0  0  0999 V2000
  149.6310  151.6460  131.4360 C   0  0  0  0  0  0  0  0  0  0  0  0
  148.7700  151.9010  132.6840 C   0  0  0  0  0  0  0  0  0  0  0  0
  149.5280  151.4910  133.9570 C   0  0  0  0  0  0  0  0  0  0  0  0
  147.5610  151.1900  132.5900 O   0  0  0  0  0  0  0  0  0  0  0  0
  148.4520  153.3350  132.7590 C   0  0  0  0  0  0  0  0  0  0  0  0
  148.1960  154.5110  132.8250 C   0  0  0  0  0  0  0  0  0  0  0  0
  147.8840  155.9130  132.9050 C   0  0  0  0  0  0  0  0  0  0  0  0
  148.8790  156.8760  132.6150 C   0  0  0  0  0  0  0  0  0  0  0  0
  148.5810  158.2480  132.6810 C   0  0  0  0  0  0  0  0  0  0  0  0
  147.2880  158.6180  133.0450 C   0  0  0  0  0  0  0  0  0  0  0  0
  146.7250  159.8680  133.1640 C   0  0  0  0  0  0  0  0  0  0  0  0
  145.4040  159.6440  133.5470 C   0  0  0  0  0  0  0  0  0  0  0  0
  144.4560  160.7300  133.8720 C   0  0  0  0  0  0  0  0  0  0  0  0
  143.0880  160.6510  133.4830 N   0  0  0  0  0  0  0  0  0  0  0  0
  144.8500  161.7210  134.5450 O   0  0  0  0  0  0  0  0  0  0  0  0
  145.1580  158.3070  133.6510 N   0  0  0  0  0  0  0  0  0  0  0  0
  143.9120  157.6570  133.9420 C   0  0  0  0  0  0  0  0  0  0  0  0
  143.6520  156.5380  133.4240 O   0  0  0  0  0  0  0  0  0  0  0  0
  143.0020  158.2690  134.8190 O   0  0  0  0  0  0  0  0  0  0  0  0
  141.6020  157.9690  134.9080 C   0  0  0  0  0  0  0  0  0  0  0  0
  141.4690  156.5200  135.3910 C   0  0  0  0  0  0  0  0  0  0  0  0
  140.9530  158.0980  133.5160 C   0  0  0  0  0  0  0  0  0  0  0  0
  140.9260  158.8730  135.9150 C   0  0  0  0  0  0  0  0  0  0  0  0
  140.9710  160.1240  135.7720 O   0  0  0  0  0  0  0  0  0  0  0  0
  140.3180  158.3420  137.0470 O   0  0  0  0  0  0  0  0  0  0  0  0
  146.3220  157.6930  133.3460 C   0  0  0  0  0  0  0  0  0  0  0  0
  146.5850  156.3200  133.2690 C   0  0  0  0  0  0  0  0  0  0  0  0
  150.6435  151.3461  131.7441 H   0  0  0  0  0  0  0  0  0  0  0  0
  149.1777  150.8435  130.8355 H   0  0  0  0  0  0  0  0  0  0  0  0
  149.6878  152.5659  130.8355 H   0  0  0  0  0  0  0  0  0  0  0  0
  148.9534  151.8018  134.8420 H   0  0  0  0  0  0  0  0  0  0  0  0
  149.6592  150.3989  133.9699 H   0  0  0  0  0  0  0  0  0  0  0  0
  150.5138  151.9789  133.9699 H   0  0  0  0  0  0  0  0  0  0  0  0
  146.9910  151.4540  133.3590 H   0  0  0  0  0  0  0  0  0  0  0  0
  149.8917  156.5492  132.3363 H   0  0  0  0  0  0  0  0  0  0  0  0
  149.3447  159.0059  132.4524 H   0  0  0  0  0  0  0  0  0  0  0  0
  147.2141  160.8384  132.9930 H   0  0  0  0  0  0  0  0  0  0  0  0
  142.3750  160.2170  134.1110 H   0  0  0  0  0  0  0  0  0  0  0  0
  141.4670  156.4988  136.4908 H   0  0  0  0  0  0  0  0  0  0  0  0
  140.5279  156.0929  135.0144 H   0  0  0  0  0  0  0  0  0  0  0  0
  142.3166  155.9287  135.0144 H   0  0  0  0  0  0  0  0  0  0  0  0
  139.8799  158.3113  133.6301 H   0  0  0  0  0  0  0  0  0  0  0  0
  141.4331  158.9183  132.9622 H   0  0  0  0  0  0  0  0  0  0  0  0
  141.0828  157.1565  132.9622 H   0  0  0  0  0  0  0  0  0  0  0  0
  145.8003  155.5804  133.4864 H   0  0  0  0  0  0  0  0  0  0  0  0
  1  2  1  0
  2  3  1  0
  2  4  1  0
  2  5  1  0
  5  6  3  0
  6  7  1  0
  7  8  2  0
  8  9  1  0
  9 10  2  0
 10 11  1  0
 11 12  2  0
 12 13  1  0
 13 14  1  0
 13 15  2  0
 12 16  1  0
 16 17  1  0
 17 18  2  0
 17 19  1  0
 19 20  1  0
 20 21  1  0
 20 22  1  0
 20 23  1  0
 23 24  2  0
 23 25  1  0
 16 26  1  0
 26 27  2  0
 27  7  1  0
 26 10  1  0
  1 28  1  0
  1 29  1  0
  1 30  1  0
  3 31  1  0
  3 32  1  0
  3 33  1  0
  4 34  1  0
  8 35  1  0
  9 36  1  0
 11 37  1  0
 14 38  1  0
 21 39  1  0
 21 40  1  0
 21 41  1  0
 22 42  1  0
 22 43  1  0
 22 44  1  0
 27 45  1  0
M  CHG  2  14  -1  25  -1
M  END
>  <UniqueID>  (37) 
37

>  <SMILES>  (37) 
CC(C)(O)C#Cc1ccc2cc(C([NH-])=O)n(C(=O)OC(C)(C)C(=O)[O-])c2c1

>  <Energy>  (37) 
73.07269979091288

>  <Genealogy>  (37) 
CC(C)(O)C#Cc1ccc2cc(C([NH-])=O)n(C(=O)OC(C)(C)C(=O)[O-])c2c1 (protonated)
CC(C)(O)C#Cc1ccc2cc(C([NH-])=O)n(C(=O)OC(C)(C)C(=O)[O-])c2c1 (3D coordinates assigned)
CC(C)(O)C#Cc1ccc2cc(C([NH-])=O)n(C(=O)OC(C)(C)C(=O)[O-])c2c1 (optimized conformer: 73.07269979091288 kcal/mol)

>  <smiles>  (37) 
CC(C)(O)C#Cc1ccc2cc(C(N)=O)n(C(=O)OC(C)(C)C(=O)O)c2c1

>  <score_type>  (37) 
oracle

>  <origin>  (37) 
adg

>  <m_score__min__energy>  (37) 
-8.1999999999999993

>  <m_primary>  (37) 
energy

$$$$
37:0
     RDKit          3D

 47 49  0  0  0  0  0  0  0  0999 V2000
  141.7230  161.0960  133.7230 C   0  0  0  0  0  0  0  0  0  0  0  0
  141.6770  159.8210  133.3420 C   0  0  0  0  0  0  0  0  0  0  0  0
  142.3720  158.7470  134.0770 C   0  0  0  0  0  0  0  0  0  0  0  0
  143.3380  159.0170  134.8420 O   0  0  0  0  0  0  0  0  0  0  0  0
  141.9470  157.3830  133.9280 N   0  0  0  0  0  0  0  0  0  0  0  0
  140.7270  156.8520  134.2230 C   0  0  0  0  0  0  0  0  0  0  0  0
  139.5470  157.6060  134.6970 C   0  0  0  0  0  0  0  0  0  0  0  0
  139.4700  158.0200  136.0590 N   0  0  0  0  0  0  0  0  0  0  0  0
  138.5950  157.8700  133.9160 O   0  0  0  0  0  0  0  0  0  0  0  0
  140.7110  155.4850  133.9490 C   0  0  0  0  0  0  0  0  0  0  0  0
  141.9700  155.1920  133.4730 C   0  0  0  0  0  0  0  0  0  0  0  0
  142.5070  153.9850  133.0400 C   0  0  0  0  0  0  0  0  0  0  0  0
  143.8420  153.9780  132.6010 C   0  0  0  0  0  0  0  0  0  0  0  0
  144.6190  155.1650  132.6230 C   0  0  0  0  0  0  0  0  0  0  0  0
  145.9810  155.1510  132.1440 N   0  0  0  0  0  0  0  0  0  0  0  0
  146.9420  155.1530  133.2620 C   0  0  0  0  0  0  0  0  0  0  0  0
  148.0000  156.2680  133.1200 C   0  0  0  0  0  0  0  0  0  0  0  0
  147.4320  157.4750  132.4820 N   0  0  0  0  0  0  0  0  0  0  0  0
  146.5890  158.2480  133.4270 C   0  0  0  0  0  0  0  0  0  0  0  0
  146.5410  159.7380  133.0480 C   0  0  0  0  0  0  0  0  0  0  0  0
  147.8150  160.3670  133.0680 O   0  0  0  0  0  0  0  0  0  0  0  0
  148.8910  159.4890  132.7660 C   0  0  0  0  0  0  0  0  0  0  0  0
  148.4930  158.3080  131.8630 C   0  0  0  0  0  0  0  0  0  0  0  0
  144.0380  156.3700  133.0790 C   0  0  0  0  0  0  0  0  0  0  0  0
  142.6970  156.3550  133.4770 C   0  0  0  0  0  0  0  0  0  0  0  0
  141.1885  161.8629  133.1432 H   0  0  0  0  0  0  0  0  0  0  0  0
  142.2955  161.3824  134.6176 H   0  0  0  0  0  0  0  0  0  0  0  0
  141.0983  159.5582  132.4442 H   0  0  0  0  0  0  0  0  0  0  0  0
  139.1070  158.9660  136.3120 H   0  0  0  0  0  0  0  0  0  0  0  0
  139.8708  154.7880  134.0843 H   0  0  0  0  0  0  0  0  0  0  0  0
  141.9056  153.0640  133.0410 H   0  0  0  0  0  0  0  0  0  0  0  0
  144.2896  153.0417  132.2362 H   0  0  0  0  0  0  0  0  0  0  0  0
  146.1470  154.3220  131.5270 H   0  0  0  0  0  0  0  0  0  0  0  0
  146.1460  156.0040  131.5610 H   0  0  0  0  0  0  0  0  0  0  0  0
  146.3914  155.3049  134.2021 H   0  0  0  0  0  0  0  0  0  0  0  0
  147.4674  154.1866  133.2572 H   0  0  0  0  0  0  0  0  0  0  0  0
  148.3749  156.5345  134.1192 H   0  0  0  0  0  0  0  0  0  0  0  0
  148.8148  155.8920  132.4839 H   0  0  0  0  0  0  0  0  0  0  0  0
  145.5671  157.8414  133.4096 H   0  0  0  0  0  0  0  0  0  0  0  0
  147.0273  158.1608  134.4322 H   0  0  0  0  0  0  0  0  0  0  0  0
  146.1244  159.8265  132.0338 H   0  0  0  0  0  0  0  0  0  0  0  0
  145.9173  160.2442  133.7995 H   0  0  0  0  0  0  0  0  0  0  0  0
  149.6770  160.0658  132.2566 H   0  0  0  0  0  0  0  0  0  0  0  0
  149.2341  159.0621  133.7199 H   0  0  0  0  0  0  0  0  0  0  0  0
  148.1233  158.7013  130.9045 H   0  0  0  0  0  0  0  0  0  0  0  0
  149.3811  157.6762  131.7145 H   0  0  0  0  0  0  0  0  0  0  0  0
  144.6267  157.2983  133.1200 H   0  0  0  0  0  0  0  0  0  0  0  0
  1  2  2  0
  2  3  1  0
  3  4  2  0
  3  5  1  0
  5  6  1  0
  6  7  1  0
  7  8  1  0
  7  9  2  0
  6 10  2  0
 10 11  1  0
 11 12  2  0
 12 13  1  0
 13 14  2  0
 14 15  1  0
 15 16  1  0
 16 17  1  0
 17 18  1  0
 18 19  1  0
 19 20  1  0
 20 21  1  0
 21 22  1  0
 22 23  1  0
 14 24  1  0
 24 25  2  0
 25  5  1  0
 25 11  1  0
 23 18  1  0
  1 26  1  0
  1 27  1  0
  2 28  1  0
  8 29  1  0
 10 30  1  0
 12 31  1  0
 13 32  1  0
 15 33  1  0
 15 34  1  0
 16 35  1  0
 16 36  1  0
 17 37  1  0
 17 38  1  0
 19 39  1  0
 19 40  1  0
 20 41  1  0
 20 42  1  0
 22 43  1  0
 22 44  1  0
 23 45  1  0
 23 46  1  0
 24 47  1  0
M  CHG  2   8  -1  15   1
M  END
>  <UniqueID>  (38) 
38

>  <SMILES>  (38) 
C=CC(=O)n1c(C([NH-])=O)cc2ccc([NH2+]CCN3CCOCC3)cc21

>  <Energy>  (38) 
99.80133429762648

>  <Genealogy>  (38) 
C=CC(=O)n1c(C([NH-])=O)cc2ccc([NH2+]CCN3CCOCC3)cc21 (protonated)
C=CC(=O)n1c(C([NH-])=O)cc2ccc([NH2+]CCN3CCOCC3)cc21 (3D coordinates assigned)
C=CC(=O)n1c(C([NH-])=O)cc2ccc([NH2+]CCN3CCOCC3)cc21 (nonaromatic ring conformer: 99.80133429762648 kcal/mol)

>  <smiles>  (38) 
C=CC(=O)n1c(C(N)=O)cc2ccc(NCCN3CCOCC3)cc21

>  <score_type>  (38) 
oracle

>  <origin>  (38) 
adg

>  <m_score__min__energy>  (38) 
-7.5700000000000003

>  <m_primary>  (38) 
energy

$$$$
38:0
     RDKit          3D

 41 42  0  0  0  0  0  0  0  0999 V2000
  143.9710  160.5280  133.6990 C   0  0  0  0  0  0  0  0  0  0  0  0
  145.2770  161.0890  134.2780 C   0  0  2  0  0  0  0  0  0  0  0  0
  145.1370  162.5560  134.7210 C   0  0  0  0  0  0  0  0  0  0  0  0
  146.3130  163.2650  134.4510 O   0  0  0  0  0  0  0  0  0  0  0  0
  146.4200  160.8880  133.3710 N   0  0  0  0  0  0  0  0  0  0  0  0
  147.1610  159.6660  133.1690 C   0  0  0  0  0  0  0  0  0  0  0  0
  148.4790  159.7460  132.6520 C   0  0  0  0  0  0  0  0  0  0  0  0
  149.2420  158.5880  132.4310 C   0  0  0  0  0  0  0  0  0  0  0  0
  148.6640  157.3600  132.7330 C   0  0  0  0  0  0  0  0  0  0  0  0
  149.1730  156.0890  132.6080 C   0  0  0  0  0  0  0  0  0  0  0  0
  148.1630  155.2390  133.0570 C   0  0  0  0  0  0  0  0  0  0  0  0
  148.3170  153.7720  133.1890 C   0  0  0  0  0  0  0  0  0  0  0  0
  147.2320  152.9620  133.6480 N   0  0  0  0  0  0  0  0  0  0  0  0
  149.4020  153.2160  132.8710 O   0  0  0  0  0  0  0  0  0  0  0  0
  147.0700  155.9600  133.4410 N   0  0  0  0  0  0  0  0  0  0  0  0
  145.8090  155.4630  133.9240 C   0  0  0  0  0  0  0  0  0  0  0  0
  145.6910  155.1040  135.1290 O   0  0  0  0  0  0  0  0  0  0  0  0
  144.7250  155.3540  133.0470 O   0  0  0  0  0  0  0  0  0  0  0  0
  144.6640  154.3880  132.0040 C   0  0  0  0  0  0  0  0  0  0  0  0
  144.6350  153.0240  132.6070 C   0  0  0  0  0  0  0  0  0  0  0  0
  144.2340  152.8530  133.9640 N   0  0  0  0  0  0  0  0  0  0  0  0
  145.0340  152.0330  131.9380 O   0  0  0  0  0  0  0  0  0  0  0  0
  147.3950  157.2570  133.2380 C   0  0  0  0  0  0  0  0  0  0  0  0
  146.6050  158.3940  133.4440 C   0  0  0  0  0  0  0  0  0  0  0  0
  143.2995  160.2396  134.5211 H   0  0  0  0  0  0  0  0  0  0  0  0
  143.4842  161.2964  133.0804 H   0  0  0  0  0  0  0  0  0  0  0  0
  144.1932  159.6460  133.0804 H   0  0  0  0  0  0  0  0  0  0  0  0
  145.4908  160.5073  135.1868 H   0  0  0  0  0  0  0  0  0  0  0  0
  144.3016  163.0202  134.1764 H   0  0  0  0  0  0  0  0  0  0  0  0
  144.9463  162.5834  135.8040 H   0  0  0  0  0  0  0  0  0  0  0  0
  147.0590  162.7330  134.8320 H   0  0  0  0  0  0  0  0  0  0  0  0
  146.8500  161.7650  132.9940 H   0  0  0  0  0  0  0  0  0  0  0  0
  148.9106  160.7309  132.4203 H   0  0  0  0  0  0  0  0  0  0  0  0
  150.2650  158.6505  132.0315 H   0  0  0  0  0  0  0  0  0  0  0  0
  150.1668  155.8031  132.2331 H   0  0  0  0  0  0  0  0  0  0  0  0
  147.3500  151.9280  133.7320 H   0  0  0  0  0  0  0  0  0  0  0  0
  146.3300  153.3900  133.9550 H   0  0  0  0  0  0  0  0  0  0  0  0
  143.7539  154.5468  131.4069 H   0  0  0  0  0  0  0  0  0  0  0  0
  145.5448  154.4879  131.3527 H   0  0  0  0  0  0  0  0  0  0  0  0
  144.1730  153.6700  134.6100 H   0  0  0  0  0  0  0  0  0  0  0  0
  145.5727  158.3007  133.8123 H   0  0  0  0  0  0  0  0  0  0  0  0
  1  2  1  0
  2  3  1  0
  3  4  1  0
  2  5  1  0
  5  6  1  0
  6  7  2  0
  7  8  1  0
  8  9  2  0
  9 10  1  0
 10 11  2  0
 11 12  1  0
 12 13  1  0
 12 14  2  0
 11 15  1  0
 15 16  1  0
 16 17  2  0
 16 18  1  0
 18 19  1  0
 19 20  1  0
 20 21  1  0
 20 22  2  0
 15 23  1  0
 23 24  2  0
 24  6  1  0
 23  9  1  0
  1 25  1  0
  1 26  1  0
  1 27  1  0
  2 28  1  1
  3 29  1  0
  3 30  1  0
  4 31  1  0
  5 32  1  0
  7 33  1  0
  8 34  1  0
 10 35  1  0
 13 36  1  0
 13 37  1  0
 19 38  1  0
 19 39  1  0
 21 40  1  0
 24 41  1  0
M  CHG  1  21  -1
M  END
>  <UniqueID>  (39) 
39

>  <SMILES>  (39) 
C[C@H](CO)Nc1ccc2cc(C(N)=O)n(C(=O)OCC([NH-])=O)c2c1

>  <Energy>  (39) 
75.25941693858512

>  <Genealogy>  (39) 
CC(CO)Nc1ccc2cc(C(N)=O)n(C(=O)OCC([NH-])=O)c2c1 (protonated)
C[C@H](CO)Nc1ccc2cc(C(N)=O)n(C(=O)OCC([NH-])=O)c2c1 (chirality)
C[C@H](CO)Nc1ccc2cc(C(N)=O)n(C(=O)OCC([NH-])=O)c2c1 (3D coordinates assigned)
C[C@H](CO)Nc1ccc2cc(C(N)=O)n(C(=O)OCC([NH-])=O)c2c1 (optimized conformer: 75.25941693858512 kcal/mol)

>  <smiles>  (39) 
CC(CO)Nc1ccc2cc(C(N)=O)n(C(=O)OCC(N)=O)c2c1

>  <score_type>  (39) 
oracle

>  <origin>  (39) 
adg

>  <m_score__min__energy>  (39) 
-6.4400000000000004

>  <m_primary>  (39) 
energy

$$$$
39:0
     RDKit          3D

 32 33  0  0  0  0  0  0  0  0999 V2000
  140.2330  157.3760  133.3150 C   0  0  0  0  0  0  0  0  0  0  0  0
  141.3770  158.2750  132.9480 C   0  0  0  0  0  0  0  0  0  0  0  0
  141.1450  159.4280  132.6190 O   0  0  0  0  0  0  0  0  0  0  0  0
  142.7970  157.7870  132.9830 C   0  0  0  0  0  0  0  0  0  0  0  0
  143.5730  158.5470  134.0150 C   0  0  0  0  0  0  0  0  0  0  0  0
  143.0550  158.7710  135.1430 O   0  0  0  0  0  0  0  0  0  0  0  0
  144.8730  159.0710  133.7120 N   0  0  0  0  0  0  0  0  0  0  0  0
  145.2500  160.3800  133.6600 C   0  0  0  0  0  0  0  0  0  0  0  0
  144.3550  161.5440  133.8410 C   0  0  0  0  0  0  0  0  0  0  0  0
  142.9450  161.3830  133.7010 N   0  0  0  0  0  0  0  0  0  0  0  0
  144.8210  162.6760  134.1340 O   0  0  0  0  0  0  0  0  0  0  0  0
  146.6070  160.4830  133.3600 C   0  0  0  0  0  0  0  0  0  0  0  0
  147.0520  159.1860  133.2350 C   0  0  0  0  0  0  0  0  0  0  0  0
  148.3230  158.6980  132.9470 C   0  0  0  0  0  0  0  0  0  0  0  0
  148.4980  157.3030  132.9010 C   0  0  0  0  0  0  0  0  0  0  0  0
  147.4140  156.4260  133.1670 C   0  0  0  0  0  0  0  0  0  0  0  0
  147.6080  154.9340  133.0780 C   0  0  0  0  0  0  0  0  0  0  0  0
  148.6660  154.6280  132.2410 F   0  0  0  0  0  0  0  0  0  0  0  0
  147.8730  154.4340  134.3400 F   0  0  0  0  0  0  0  0  0  0  0  0
  146.4710  154.3220  132.5790 F   0  0  0  0  0  0  0  0  0  0  0  0
  146.1340  156.9630  133.4340 C   0  0  0  0  0  0  0  0  0  0  0  0
  145.9870  158.3540  133.4560 C   0  0  0  0  0  0  0  0  0  0  0  0
  140.1529  157.3131  134.4103 H   0  0  0  0  0  0  0  0  0  0  0  0
  139.2988  157.7842  132.9019 H   0  0  0  0  0  0  0  0  0  0  0  0
  140.4087  156.3718  132.9019 H   0  0  0  0  0  0  0  0  0  0  0  0
  142.8084  156.7160  133.2338 H   0  0  0  0  0  0  0  0  0  0  0  0
  143.2576  157.9432  131.9964 H   0  0  0  0  0  0  0  0  0  0  0  0
  142.4820  160.4800  133.9410 H   0  0  0  0  0  0  0  0  0  0  0  0
  147.1971  161.4044  133.2471 H   0  0  0  0  0  0  0  0  0  0  0  0
  149.1644  159.3817  132.7612 H   0  0  0  0  0  0  0  0  0  0  0  0
  149.4864  156.8869  132.6560 H   0  0  0  0  0  0  0  0  0  0  0  0
  145.2740  156.3029  133.6201 H   0  0  0  0  0  0  0  0  0  0  0  0
  1  2  1  0
  2  3  2  0
  2  4  1  0
  4  5  1  0
  5  6  2  0
  5  7  1  0
  7  8  1  0
  8  9  1  0
  9 10  1  0
  9 11  2  0
  8 12  2  0
 12 13  1  0
 13 14  2  0
 14 15  1  0
 15 16  2  0
 16 17  1  0
 17 18  1  0
 17 19  1  0
 17 20  1  0
 16 21  1  0
 21 22  2  0
 22  7  1  0
 22 13  1  0
  1 23  1  0
  1 24  1  0
  1 25  1  0
  4 26  1  0
  4 27  1  0
 10 28  1  0
 12 29  1  0
 14 30  1  0
 15 31  1  0
 21 32  1  0
M  CHG  1  10  -1
M  END
>  <UniqueID>  (40) 
40

>  <SMILES>  (40) 
CC(=O)CC(=O)n1c(C([NH-])=O)cc2ccc(C(F)(F)F)cc21

>  <Energy>  (40) 
67.73983406408058

>  <Genealogy>  (40) 
CC(=O)CC(=O)n1c(C([NH-])=O)cc2ccc(C(F)(F)F)cc21 (protonated)
CC(=O)CC(=O)n1c(C([NH-])=O)cc2ccc(C(F)(F)F)cc21 (3D coordinates assigned)
CC(=O)CC(=O)n1c(C([NH-])=O)cc2ccc(C(F)(F)F)cc21 (optimized conformer: 67.73983406408058 kcal/mol)

>  <smiles>  (40) 
CC(=O)CC(=O)n1c(C(N)=O)cc2ccc(C(F)(F)F)cc21

>  <score_type>  (40) 
oracle

>  <origin>  (40) 
adg

>  <m_score__min__energy>  (40) 
-6.3099999999999996

>  <m_primary>  (40) 
energy

$$$$
40:0
     RDKit          3D

 33 35  0  0  0  0  0  0  0  0999 V2000
  143.3030  158.8360  133.4260 C   0  0  0  0  0  0  0  0  0  0  0  0
  144.1430  160.0360  133.7260 C   0  0  0  0  0  0  0  0  0  0  0  0
  143.6250  161.2330  134.0610 N   0  0  0  0  0  0  0  0  0  0  0  0
  144.6260  162.0360  134.2820 O   0  0  0  0  0  0  0  0  0  0  0  0
  145.7770  161.4300  134.1080 C   0  0  0  0  0  0  0  0  0  0  0  0
  145.5280  160.1240  133.7310 C   0  0  0  0  0  0  0  0  0  0  0  0
  146.5370  159.0810  133.4390 C   0  0  0  0  0  0  0  0  0  0  0  0
  147.8070  159.4520  132.9290 C   0  0  0  0  0  0  0  0  0  0  0  0
  148.7760  158.4780  132.6300 C   0  0  0  0  0  0  0  0  0  0  0  0
  148.4490  157.1440  132.8520 C   0  0  0  0  0  0  0  0  0  0  0  0
  149.1800  156.0020  132.6180 C   0  0  0  0  0  0  0  0  0  0  0  0
  148.3470  154.9460  132.9960 C   0  0  0  0  0  0  0  0  0  0  0  0
  148.7370  153.5170  132.9610 C   0  0  0  0  0  0  0  0  0  0  0  0
  147.8420  152.5000  133.4120 N   0  0  0  0  0  0  0  0  0  0  0  0
  149.8660  153.1820  132.5140 O   0  0  0  0  0  0  0  0  0  0  0  0
  147.1550  155.4240  133.4510 N   0  0  0  0  0  0  0  0  0  0  0  0
  146.0140  154.6590  133.8750 C   0  0  0  0  0  0  0  0  0  0  0  0
  145.1770  154.2640  133.0210 O   0  0  0  0  0  0  0  0  0  0  0  0
  145.8160  154.3190  135.2920 C   0  0  0  0  0  0  0  0  0  0  0  0
  144.8670  154.8280  135.9430 O   0  0  0  0  0  0  0  0  0  0  0  0
  146.6920  153.4470  135.9260 O   0  0  0  0  0  0  0  0  0  0  0  0
  147.2290  156.7680  133.3480 C   0  0  0  0  0  0  0  0  0  0  0  0
  146.2380  157.7130  133.6310 C   0  0  0  0  0  0  0  0  0  0  0  0
  142.9777  158.3713  134.3684 H   0  0  0  0  0  0  0  0  0  0  0  0
  142.4209  159.1420  132.8444 H   0  0  0  0  0  0  0  0  0  0  0  0
  143.8924  158.1119  132.8444 H   0  0  0  0  0  0  0  0  0  0  0  0
  146.7702  161.8840  134.2397 H   0  0  0  0  0  0  0  0  0  0  0  0
  148.0370  160.5151  132.7652 H   0  0  0  0  0  0  0  0  0  0  0  0
  149.7618  158.7618  132.2330 H   0  0  0  0  0  0  0  0  0  0  0  0
  150.2026  155.9348  132.2183 H   0  0  0  0  0  0  0  0  0  0  0  0
  148.1180  151.4950  133.3480 H   0  0  0  0  0  0  0  0  0  0  0  0
  146.9250  152.7340  133.8520 H   0  0  0  0  0  0  0  0  0  0  0  0
  145.2485  157.3990  133.9947 H   0  0  0  0  0  0  0  0  0  0  0  0
  1  2  1  0
  2  3  2  0
  3  4  1  0
  4  5  1  0
  5  6  2  0
  6  7  1  0
  7  8  2  0
  8  9  1  0
  9 10  2  0
 10 11  1  0
 11 12  2  0
 12 13  1  0
 13 14  1  0
 13 15  2  0
 12 16  1  0
 16 17  1  0
 17 18  2  0
 17 19  1  0
 19 20  2  0
 19 21  1  0
 16 22  1  0
 22 23  2  0
  6  2  1  0
 23  7  1  0
 22 10  1  0
  1 24  1  0
  1 25  1  0
  1 26  1  0
  5 27  1  0
  8 28  1  0
  9 29  1  0
 11 30  1  0
 14 31  1  0
 14 32  1  0
 23 33  1  0
M  CHG  1  21  -1
M  END
>  <UniqueID>  (41) 
41

>  <SMILES>  (41) 
Cc1nocc1-c1ccc2cc(C(N)=O)n(C(=O)C(=O)[O-])c2c1

>  <Energy>  (41) 
107.92101674936332

>  <Genealogy>  (41) 
Cc1nocc1-c1ccc2cc(C(N)=O)n(C(=O)C(=O)[O-])c2c1 (protonated)
Cc1nocc1-c1ccc2cc(C(N)=O)n(C(=O)C(=O)[O-])c2c1 (3D coordinates assigned)
Cc1nocc1-c1ccc2cc(C(N)=O)n(C(=O)C(=O)[O-])c2c1 (optimized conformer: 107.92101674936332 kcal/mol)

>  <smiles>  (41) 
Cc1nocc1-c1ccc2cc(C(N)=O)n(C(=O)C(=O)O)c2c1

>  <score_type>  (41) 
oracle

>  <origin>  (41) 
adg

>  <m_score__min__energy>  (41) 
-7.3399999999999999

>  <m_primary>  (41) 
energy

$$$$
41:0
     RDKit          3D

 42 43  0  0  0  0  0  0  0  0999 V2000
  148.4790  157.6160  134.0680 N   0  0  0  0  0  0  0  0  0  0  0  0
  147.7730  158.8100  133.7260 C   0  0  0  0  0  0  0  0  0  0  0  0
  148.4240  159.8620  133.4900 O   0  0  0  0  0  0  0  0  0  0  0  0
  146.2980  158.8140  133.6180 C   0  0  0  0  0  0  0  0  0  0  0  0
  145.5090  159.9610  133.7030 C   0  0  0  0  0  0  0  0  0  0  0  0
  144.2080  159.5120  133.6890 C   0  0  0  0  0  0  0  0  0  0  0  0
  143.0120  160.2220  133.7390 C   0  0  0  0  0  0  0  0  0  0  0  0
  141.8110  159.4940  133.6920 C   0  0  0  0  0  0  0  0  0  0  0  0
  141.8270  158.0780  133.6060 C   0  0  0  0  0  0  0  0  0  0  0  0
  140.5380  157.3060  133.5450 C   0  0  0  0  0  0  0  0  0  0  0  0
  139.5060  158.0740  132.7820 C   0  0  0  0  0  0  0  0  0  0  0  0
  138.3590  158.2450  133.2830 O   0  0  0  0  0  0  0  0  0  0  0  0
  139.8300  158.6110  131.5330 O   0  0  0  0  0  0  0  0  0  0  0  0
  138.8560  159.0700  130.5980 C   0  0  0  0  0  0  0  0  0  0  0  0
  138.2560  160.3960  131.0520 C   0  0  0  0  0  0  0  0  0  0  0  0
  139.2170  161.1370  131.7170 F   0  0  0  0  0  0  0  0  0  0  0  0
  143.0600  157.3930  133.5490 C   0  0  0  0  0  0  0  0  0  0  0  0
  144.2390  158.1450  133.6020 C   0  0  0  0  0  0  0  0  0  0  0  0
  145.5120  157.7030  133.5440 N   0  0  0  0  0  0  0  0  0  0  0  0
  145.9230  156.3380  133.3670 C   0  0  0  0  0  0  0  0  0  0  0  0
  146.8680  156.0700  132.5760 O   0  0  0  0  0  0  0  0  0  0  0  0
  145.3290  155.2370  134.2010 C   0  0  0  0  0  0  0  0  0  0  0  0
  146.3400  154.1090  134.4430 C   0  0  0  0  0  0  0  0  0  0  0  0
  147.0640  154.2920  135.7430 C   0  0  0  0  0  0  0  0  0  0  0  0
  147.7530  155.3260  135.9420 O   0  0  0  0  0  0  0  0  0  0  0  0
  147.0180  153.3020  136.7120 O   0  0  0  0  0  0  0  0  0  0  0  0
  147.9730  156.7410  134.3270 H   0  0  0  0  0  0  0  0  0  0  0  0
  149.5220  157.6200  134.1160 H   0  0  0  0  0  0  0  0  0  0  0  0
  145.8535  161.0036  133.7676 H   0  0  0  0  0  0  0  0  0  0  0  0
  143.0070  161.3195  133.8130 H   0  0  0  0  0  0  0  0  0  0  0  0
  140.8493  160.0271  133.7222 H   0  0  0  0  0  0  0  0  0  0  0  0
  140.7159  156.3425  133.0450 H   0  0  0  0  0  0  0  0  0  0  0  0
  140.1734  157.1387  134.5692 H   0  0  0  0  0  0  0  0  0  0  0  0
  139.3339  159.2071  129.6168 H   0  0  0  0  0  0  0  0  0  0  0  0
  138.0516  158.3228  130.5298 H   0  0  0  0  0  0  0  0  0  0  0  0
  137.9031  160.9576  130.1745 H   0  0  0  0  0  0  0  0  0  0  0  0
  137.4112  160.2018  131.7292 H   0  0  0  0  0  0  0  0  0  0  0  0
  143.0932  156.2967  133.4651 H   0  0  0  0  0  0  0  0  0  0  0  0
  145.0168  155.6516  135.1708 H   0  0  0  0  0  0  0  0  0  0  0  0
  144.4678  154.8190  133.6591 H   0  0  0  0  0  0  0  0  0  0  0  0
  145.8055  153.1478  134.4634 H   0  0  0  0  0  0  0  0  0  0  0  0
  147.0800  154.1273  133.6294 H   0  0  0  0  0  0  0  0  0  0  0  0
  1  2  1  0
  2  3  2  0
  2  4  1  0
  4  5  2  0
  5  6  1  0
  6  7  2  0
  7  8  1  0
  8  9  2  0
  9 10  1  0
 10 11  1  0
 11 12  2  0
 11 13  1  0
 13 14  1  0
 14 15  1  0
 15 16  1  0
  9 17  1  0
 17 18  2  0
 18 19  1  0
 19 20  1  0
 20 21  2  0
 20 22  1  0
 22 23  1  0
 23 24  1  0
 24 25  2  0
 24 26  1  0
 19  4  1  0
 18  6  1  0
  1 27  1  0
  1 28  1  0
  5 29  1  0
  7 30  1  0
  8 31  1  0
 10 32  1  0
 10 33  1  0
 14 34  1  0
 14 35  1  0
 15 36  1  0
 15 37  1  0
 17 38  1  0
 22 39  1  0
 22 40  1  0
 23 41  1  0
 23 42  1  0
M  CHG  1  26  -1
M  END
>  <UniqueID>  (42) 
42

>  <SMILES>  (42) 
NC(=O)c1cc2ccc(CC(=O)OCCF)cc2n1C(=O)CCC(=O)[O-]

>  <Energy>  (42) 
70.4637266523318

>  <Genealogy>  (42) 
NC(=O)c1cc2ccc(CC(=O)OCCF)cc2n1C(=O)CCC(=O)[O-] (protonated)
NC(=O)c1cc2ccc(CC(=O)OCCF)cc2n1C(=O)CCC(=O)[O-] (3D coordinates assigned)
NC(=O)c1cc2ccc(CC(=O)OCCF)cc2n1C(=O)CCC(=O)[O-] (optimized conformer: 70.4637266523318 kcal/mol)

>  <smiles>  (42) 
NC(=O)c1cc2ccc(CC(=O)OCCF)cc2n1C(=O)CCC(=O)O

>  <score_type>  (42) 
oracle

>  <origin>  (42) 
adg

>  <m_score__min__energy>  (42) 
-6.7199999999999998

>  <m_primary>  (42) 
energy

$$$$
42:0
     RDKit          3D

 38 39  0  0  0  0  0  0  0  0999 V2000
  145.7560  161.2380  133.8140 N   0  0  0  0  0  0  0  0  0  0  0  0
  144.3540  161.4860  133.7430 C   0  0  0  0  0  0  0  0  0  0  0  0
  143.9430  162.6670  133.5900 O   0  0  0  0  0  0  0  0  0  0  0  0
  143.3800  160.3730  133.7930 C   0  0  0  0  0  0  0  0  0  0  0  0
  142.0500  160.5390  134.1680 C   0  0  0  0  0  0  0  0  0  0  0  0
  141.4700  159.3040  134.0080 C   0  0  0  0  0  0  0  0  0  0  0  0
  140.1590  158.8960  134.2420 C   0  0  0  0  0  0  0  0  0  0  0  0
  139.8430  157.5460  134.0290 C   0  0  0  0  0  0  0  0  0  0  0  0
  140.8390  156.6280  133.6160 C   0  0  0  0  0  0  0  0  0  0  0  0
  140.4830  155.1910  133.3730 C   0  0  0  0  0  0  0  0  0  0  0  0
  139.1770  155.1080  132.9300 F   0  0  0  0  0  0  0  0  0  0  0  0
  142.1540  157.0790  133.3770 C   0  0  0  0  0  0  0  0  0  0  0  0
  142.4370  158.4380  133.5640 C   0  0  0  0  0  0  0  0  0  0  0  0
  143.6190  159.0840  133.4170 N   0  0  0  0  0  0  0  0  0  0  0  0
  144.8960  158.4910  133.1140 C   0  0  0  0  0  0  0  0  0  0  0  0
  145.6170  159.0070  132.2190 O   0  0  0  0  0  0  0  0  0  0  0  0
  145.4580  157.3700  133.8960 C   0  0  0  0  0  0  0  0  0  0  0  0
  146.7290  156.9430  133.8760 C   0  0  0  0  0  0  0  0  0  0  0  0
  147.8710  157.6230  133.2400 C   0  0  0  0  0  0  0  0  0  0  0  0
  148.8400  156.9230  132.8380 O   0  0  0  0  0  0  0  0  0  0  0  0
  147.9330  159.0190  133.1640 O   0  0  0  0  0  0  0  0  0  0  0  0
  149.0630  159.7300  132.6580 C   0  0  0  0  0  0  0  0  0  0  0  0
  148.6510  160.7180  131.5640 C   0  0  0  0  0  0  0  0  0  0  0  0
  147.3330  160.4690  131.1590 O   0  0  0  0  0  0  0  0  0  0  0  0
  146.2840  160.9060  132.9760 H   0  0  0  0  0  0  0  0  0  0  0  0
  141.5661  161.4627  134.5181 H   0  0  0  0  0  0  0  0  0  0  0  0
  139.3951  159.6102  134.5832 H   0  0  0  0  0  0  0  0  0  0  0  0
  138.8114  157.1971  134.1843 H   0  0  0  0  0  0  0  0  0  0  0  0
  141.1559  154.7704  132.6112 H   0  0  0  0  0  0  0  0  0  0  0  0
  140.5889  154.6239  134.3096 H   0  0  0  0  0  0  0  0  0  0  0  0
  142.9386  156.3801  133.0515 H   0  0  0  0  0  0  0  0  0  0  0  0
  144.7651  156.8327  134.5602 H   0  0  0  0  0  0  0  0  0  0  0  0
  146.9399  155.9908  134.3848 H   0  0  0  0  0  0  0  0  0  0  0  0
  149.5367  160.2840  133.4819 H   0  0  0  0  0  0  0  0  0  0  0  0
  149.7660  159.0035  132.2244 H   0  0  0  0  0  0  0  0  0  0  0  0
  148.7235  161.7438  131.9546 H   0  0  0  0  0  0  0  0  0  0  0  0
  149.3211  160.5971  130.7001 H   0  0  0  0  0  0  0  0  0  0  0  0
  146.7770  160.4790  131.9810 H   0  0  0  0  0  0  0  0  0  0  0  0
  1  2  1  0
  2  3  2  0
  2  4  1  0
  4  5  2  0
  5  6  1  0
  6  7  2  0
  7  8  1  0
  8  9  2  0
  9 10  1  0
 10 11  1  0
  9 12  1  0
 12 13  2  0
 13 14  1  0
 14 15  1  0
 15 16  2  0
 15 17  1  0
 17 18  2  3
 18 19  1  0
 19 20  2  0
 19 21  1  0
 21 22  1  0
 22 23  1  0
 23 24  1  0
 14  4  1  0
 13  6  1  0
  1 25  1  0
  5 26  1  0
  7 27  1  0
  8 28  1  0
 10 29  1  0
 10 30  1  0
 12 31  1  0
 17 32  1  0
 18 33  1  0
 22 34  1  0
 22 35  1  0
 23 36  1  0
 23 37  1  0
 24 38  1  0
M  CHG  1   1  -1
M  END
>  <UniqueID>  (43) 
43

>  <SMILES>  (43) 
[NH-]C(=O)c1cc2ccc(CF)cc2n1C(=O)C=CC(=O)OCCO

>  <Energy>  (43) 
76.24347145458486

>  <Genealogy>  (43) 
[NH-]C(=O)c1cc2ccc(CF)cc2n1C(=O)C=CC(=O)OCCO (protonated)
[NH-]C(=O)c1cc2ccc(CF)cc2n1C(=O)C=CC(=O)OCCO (3D coordinates assigned)
[NH-]C(=O)c1cc2ccc(CF)cc2n1C(=O)C=CC(=O)OCCO (optimized conformer: 76.24347145458486 kcal/mol)

>  <smiles>  (43) 
NC(=O)c1cc2ccc(CF)cc2n1C(=O)C=CC(=O)OCCO

>  <score_type>  (43) 
oracle

>  <origin>  (43) 
adg

>  <m_score__min__energy>  (43) 
-5.5099999999999998

>  <m_primary>  (43) 
energy

$$$$
43:0
     RDKit          3D

 43 44  0  0  0  0  0  0  0  0999 V2000
  143.5800  155.1630  137.5700 H   0  0  0  0  0  0  0  0  0  0  0  0
  142.6970  154.6060  137.5940 N   0  0  0  0  0  0  0  0  0  0  0  0
  141.5060  155.1540  138.1510 C   0  0  0  0  0  0  0  0  0  0  0  0
  140.4810  154.4330  138.2720 O   0  0  0  0  0  0  0  0  0  0  0  0
  141.4650  156.5930  138.5540 C   0  0  0  0  0  0  0  0  0  0  0  0
  142.4430  156.8842  138.9648 H   0  0  0  0  0  0  0  0  0  0  0  0
  140.6837  156.7323  139.3157 H   0  0  0  0  0  0  0  0  0  0  0  0
  141.1500  157.4530  137.3610 C   0  0  0  0  0  0  0  0  0  0  0  0
  141.3210  158.8580  137.4330 C   0  0  0  0  0  0  0  0  0  0  0  0
  141.6488  159.3188  138.3765 H   0  0  0  0  0  0  0  0  0  0  0  0
  141.0760  159.6690  136.3110 C   0  0  0  0  0  0  0  0  0  0  0  0
  141.2042  160.7604  136.3608 H   0  0  0  0  0  0  0  0  0  0  0  0
  140.6660  159.0470  135.1350 C   0  0  0  0  0  0  0  0  0  0  0  0
  140.3760  159.5850  133.9010 C   0  0  0  0  0  0  0  0  0  0  0  0
  140.4146  160.6451  133.6098 H   0  0  0  0  0  0  0  0  0  0  0  0
  140.0230  158.5000  133.0990 C   0  0  0  0  0  0  0  0  0  0  0  0
  139.5630  158.6110  131.6960 C   0  0  0  0  0  0  0  0  0  0  0  0
  140.2500  159.2520  130.8570 O   0  0  0  0  0  0  0  0  0  0  0  0
  138.3550  157.9800  131.2680 N   0  0  0  0  0  0  0  0  0  0  0  0
  137.7310  157.4860  131.9420 H   0  0  0  0  0  0  0  0  0  0  0  0
  138.0520  158.0530  130.2720 H   0  0  0  0  0  0  0  0  0  0  0  0
  140.1040  157.3410  133.8110 N   0  0  0  0  0  0  0  0  0  0  0  0
  139.8450  156.0030  133.3510 C   0  0  0  0  0  0  0  0  0  0  0  0
  138.7360  155.7390  132.8160 O   0  0  0  0  0  0  0  0  0  0  0  0
  140.8360  154.9240  133.5050 C   0  0  0  0  0  0  0  0  0  0  0  0
  141.7390  155.1179  134.1025 H   0  0  0  0  0  0  0  0  0  0  0  0
  140.6820  153.7190  132.9480 C   0  0  0  0  0  0  0  0  0  0  0  0
  139.7795  153.5091  132.3552 H   0  0  0  0  0  0  0  0  0  0  0  0
  141.7180  152.6480  133.1170 C   0  0  0  0  0  0  0  0  0  0  0  0
  142.2557  152.8102  134.0628 H   0  0  0  0  0  0  0  0  0  0  0  0
  142.4189  152.6935  132.2704 H   0  0  0  0  0  0  0  0  0  0  0  0
  141.0830  151.3150  133.1410 N   0  0  0  0  0  0  0  0  0  0  0  0
  139.9380  151.2620  132.2170 C   0  0  0  0  0  0  0  0  0  0  0  0
  139.0027  151.2187  132.7943 H   0  0  0  0  0  0  0  0  0  0  0  0
  139.9364  152.1610  131.5832 H   0  0  0  0  0  0  0  0  0  0  0  0
  140.0195  150.3667  131.5832 H   0  0  0  0  0  0  0  0  0  0  0  0
  142.0610  150.2790  132.7740 C   0  0  0  0  0  0  0  0  0  0  0  0
  142.4823  149.8327  133.6868 H   0  0  0  0  0  0  0  0  0  0  0  0
  141.5629  149.4983  132.1804 H   0  0  0  0  0  0  0  0  0  0  0  0
  142.8691  150.7314  132.1804 H   0  0  0  0  0  0  0  0  0  0  0  0
  140.4920  157.6920  135.0530 C   0  0  0  0  0  0  0  0  0  0  0  0
  140.7420  156.8580  136.1460 C   0  0  0  0  0  0  0  0  0  0  0  0
  140.6243  155.7675  136.0628 H   0  0  0  0  0  0  0  0  0  0  0  0
  1  2  1  0
  2  3  1  0
  3  4  2  0
  3  5  1  0
  5  6  1  0
  5  7  1  0
  5  8  1  0
  8  9  2  0
  9 10  1  0
  9 11  1  0
 11 12  1  0
 11 13  2  0
 13 14  1  0
 14 15  1  0
 14 16  2  0
 16 17  1  0
 17 18  2  0
 17 19  1  0
 19 20  1  0
 19 21  1  0
 16 22  1  0
 22 23  1  0
 23 24  2  0
 23 25  1  0
 25 26  1  0
 25 27  2  0
 27 28  1  0
 27 29  1  0
 29 30  1  0
 29 31  1  0
 29 32  1  0
 32 33  1  0
 33 34  1  0
 33 35  1  0
 33 36  1  0
 32 37  1  0
 37 38  1  0
 37 39  1  0
 37 40  1  0
 22 41  1  0
 41 42  2  0
 42 43  1  0
 42  8  1  0
 41 13  1  0
M  CHG  1   2  -1
M  END
>  <UniqueID>  (44) 
44

>  <SMILES>  (44) 
CN(C)C/C=C/C(=O)n1c(C(N)=O)cc2ccc(CC([NH-])=O)cc21

>  <Energy>  (44) 
76.23300215066777

>  <Genealogy>  (44) 
CN(C)CC=CC(=O)n1c(C(N)=O)cc2ccc(CC([NH-])=O)cc21 (protonated)
CN(C)C/C=C/C(=O)n1c(C(N)=O)cc2ccc(CC([NH-])=O)cc21 (cis-trans isomerization)
CN(C)C/C=C/C(=O)n1c(C(N)=O)cc2ccc(CC([NH-])=O)cc21 (3D coordinates assigned)
CN(C)C/C=C/C(=O)n1c(C(N)=O)cc2ccc(CC([NH-])=O)cc21 (optimized conformer: 76.23300215066777 kcal/mol)

>  <smiles>  (44) 
CN(C)CC=CC(=O)n1c(C(N)=O)cc2ccc(CC(N)=O)cc21

>  <score_type>  (44) 
oracle

>  <origin>  (44) 
adg

>  <m_score__min__energy>  (44) 
-7.5199999999999996

>  <m_primary>  (44) 
energy

$$$$
44:0
     RDKit          3D

 54 57  0  0  0  0  0  0  0  0999 V2000
  148.6890  157.4610  132.9840 N   0  0  0  0  0  0  0  0  0  0  0  0
  148.1680  158.5600  133.7330 C   0  0  0  0  0  0  0  0  0  0  0  0
  148.9600  159.2950  134.3820 O   0  0  0  0  0  0  0  0  0  0  0  0
  146.7290  158.8900  133.7090 C   0  0  0  0  0  0  0  0  0  0  0  0
  146.2410  160.1920  133.7500 C   0  0  0  0  0  0  0  0  0  0  0  0
  144.8740  160.0700  133.6450 C   0  0  0  0  0  0  0  0  0  0  0  0
  143.8880  161.0490  133.6460 C   0  0  0  0  0  0  0  0  0  0  0  0
  142.5480  160.6370  133.5620 C   0  0  0  0  0  0  0  0  0  0  0  0
  142.2090  159.2590  133.4890 C   0  0  0  0  0  0  0  0  0  0  0  0
  140.8250  158.8440  133.4180 N   0  0  0  0  0  0  0  0  0  0  0  0
  139.9830  159.0210  132.2440 C   0  0  0  0  0  0  0  0  0  0  0  0
  138.5790  158.6220  132.6770 C   0  0  0  0  0  0  0  0  0  0  0  0
  138.7560  157.7820  133.9400 C   0  0  1  0  0  0  0  0  0  0  0  0
  138.7730  156.4200  133.5970 O   0  0  0  0  0  0  0  0  0  0  0  0
  140.1100  158.2020  134.5120 C   0  0  0  0  0  0  0  0  0  0  0  0
  143.2490  158.2940  133.4940 C   0  0  0  0  0  0  0  0  0  0  0  0
  144.5760  158.7350  133.5550 C   0  0  0  0  0  0  0  0  0  0  0  0
  145.7070  157.9950  133.5970 N   0  0  0  0  0  0  0  0  0  0  0  0
  145.7920  156.5610  133.6330 C   0  0  0  0  0  0  0  0  0  0  0  0
  145.1940  155.9190  134.5390 O   0  0  0  0  0  0  0  0  0  0  0  0
  146.5400  155.8820  132.6640 O   0  0  0  0  0  0  0  0  0  0  0  0
  146.7110  154.4660  132.6590 C   0  0  0  0  0  0  0  0  0  0  0  0
  148.1710  154.0970  132.6180 C   0  0  0  0  0  0  0  0  0  0  0  0
  149.0290  155.0210  132.6190 O   0  0  0  0  0  0  0  0  0  0  0  0
  148.6040  152.7200  132.5250 N   0  0  0  0  0  0  0  0  0  0  0  0
  147.6320  151.6380  132.3150 C   0  0  0  0  0  0  0  0  0  0  0  0
  148.3090  150.4270  131.6690 C   0  0  0  0  0  0  0  0  0  0  0  0
  149.4740  150.0610  132.3810 O   0  0  0  0  0  0  0  0  0  0  0  0
  150.4350  151.0910  132.2730 C   0  0  0  0  0  0  0  0  0  0  0  0
  149.9530  152.3590  132.9800 C   0  0  0  0  0  0  0  0  0  0  0  0
  148.0920  156.9410  132.3050 H   0  0  0  0  0  0  0  0  0  0  0  0
  149.7020  157.2190  133.0450 H   0  0  0  0  0  0  0  0  0  0  0  0
  146.8230  161.1205  133.8458 H   0  0  0  0  0  0  0  0  0  0  0  0
  144.1493  162.1155  133.7107 H   0  0  0  0  0  0  0  0  0  0  0  0
  141.7487  161.3926  133.5526 H   0  0  0  0  0  0  0  0  0  0  0  0
  139.9989  160.0708  131.9159 H   0  0  0  0  0  0  0  0  0  0  0  0
  140.3344  158.4120  131.3981 H   0  0  0  0  0  0  0  0  0  0  0  0
  137.9761  159.5163  132.8932 H   0  0  0  0  0  0  0  0  0  0  0  0
  138.0560  158.0616  131.8881 H   0  0  0  0  0  0  0  0  0  0  0  0
  137.9426  157.9327  134.6651 H   0  0  0  0  0  0  0  0  0  0  0  0
  138.0320  156.2820  132.9510 H   0  0  0  0  0  0  0  0  0  0  0  0
  139.9712  158.9076  135.3443 H   0  0  0  0  0  0  0  0  0  0  0  0
  140.6666  157.3389  134.9061 H   0  0  0  0  0  0  0  0  0  0  0  0
  143.0169  157.2196  133.4508 H   0  0  0  0  0  0  0  0  0  0  0  0
  146.2596  154.0463  133.5701 H   0  0  0  0  0  0  0  0  0  0  0  0
  146.2218  154.0578  131.7623 H   0  0  0  0  0  0  0  0  0  0  0  0
  147.2066  151.3403  133.2848 H   0  0  0  0  0  0  0  0  0  0  0  0
  146.8365  151.9993  131.6467 H   0  0  0  0  0  0  0  0  0  0  0  0
  147.6069  149.5802  131.6675 H   0  0  0  0  0  0  0  0  0  0  0  0
  148.5944  150.6913  130.6401 H   0  0  0  0  0  0  0  0  0  0  0  0
  151.3759  150.7563  132.7342 H   0  0  0  0  0  0  0  0  0  0  0  0
  150.5906  151.3182  131.2080 H   0  0  0  0  0  0  0  0  0  0  0  0
  149.9340  152.1832  134.0657 H   0  0  0  0  0  0  0  0  0  0  0  0
  150.6415  153.1831  132.7415 H   0  0  0  0  0  0  0  0  0  0  0  0
  1  2  1  0
  2  3  2  0
  2  4  1  0
  4  5  2  0
  5  6  1  0
  6  7  2  0
  7  8  1  0
  8  9  2  0
  9 10  1  0
 10 11  1  0
 11 12  1  0
 12 13  1  0
 13 14  1  0
 13 15  1  0
  9 16  1  0
 16 17  2  0
 17 18  1  0
 18 19  1  0
 19 20  2  0
 19 21  1  0
 21 22  1  0
 22 23  1  0
 23 24  2  0
 23 25  1  0
 25 26  1  0
 26 27  1  0
 27 28  1  0
 28 29  1  0
 29 30  1  0
 18  4  1  0
 30 25  1  0
 17  6  1  0
 15 10  1  0
  1 31  1  0
  1 32  1  0
  5 33  1  0
  7 34  1  0
  8 35  1  0
 11 36  1  0
 11 37  1  0
 12 38  1  0
 12 39  1  0
 13 40  1  1
 14 41  1  0
 15 42  1  0
 15 43  1  0
 16 44  1  0
 22 45  1  0
 22 46  1  0
 26 47  1  0
 26 48  1  0
 27 49  1  0
 27 50  1  0
 29 51  1  0
 29 52  1  0
 30 53  1  0
 30 54  1  0
M  END
>  <UniqueID>  (45) 
45

>  <SMILES>  (45) 
NC(=O)c1cc2ccc(N3CC[C@@H](O)C3)cc2n1C(=O)OCC(=O)N1CCOCC1

>  <Energy>  (45) 
97.79561266524261

>  <Genealogy>  (45) 
NC(=O)c1cc2ccc(N3CC[C@@H](O)C3)cc2n1C(=O)OCC(=O)N1CCOCC1 (chirality)
NC(=O)c1cc2ccc(N3CC[C@@H](O)C3)cc2n1C(=O)OCC(=O)N1CCOCC1 (3D coordinates assigned)
NC(=O)c1cc2ccc(N3CC[C@@H](O)C3)cc2n1C(=O)OCC(=O)N1CCOCC1 (nonaromatic ring conformer: 97.79561266524261 kcal/mol)

>  <smiles>  (45) 
NC(=O)c1cc2ccc(N3CCC(O)C3)cc2n1C(=O)OCC(=O)N1CCOCC1

>  <score_type>  (45) 
oracle

>  <origin>  (45) 
adg

>  <m_score__min__energy>  (45) 
-8.8200000000000003

>  <m_primary>  (45) 
energy

$$$$
45:0
     RDKit          3D

 40 41  0  0  0  0  0  0  0  0999 V2000
  142.1420  158.4080  132.1730 H   0  0  0  0  0  0  0  0  0  0  0  0
  142.9730  157.9530  132.6110 N   0  0  0  0  0  0  0  0  0  0  0  0
  142.8220  157.0350  133.6890 C   0  0  0  0  0  0  0  0  0  0  0  0
  142.8760  157.4610  134.8730 O   0  0  0  0  0  0  0  0  0  0  0  0
  142.5720  155.5990  133.4390 C   0  0  0  0  0  0  0  0  0  0  0  0
  143.5830  154.6460  133.3170 C   0  0  0  0  0  0  0  0  0  0  0  0
  144.6689  154.8180  133.3517 H   0  0  0  0  0  0  0  0  0  0  0  0
  142.9340  153.4450  133.1440 C   0  0  0  0  0  0  0  0  0  0  0  0
  143.4480  152.1620  132.9680 C   0  0  0  0  0  0  0  0  0  0  0  0
  144.5331  151.9819  132.9608 H   0  0  0  0  0  0  0  0  0  0  0  0
  142.5370  151.1050  132.8000 C   0  0  0  0  0  0  0  0  0  0  0  0
  142.9111  150.0788  132.6696 H   0  0  0  0  0  0  0  0  0  0  0  0
  141.1400  151.3490  132.7970 C   0  0  0  0  0  0  0  0  0  0  0  0
  140.1750  150.2080  132.6370 C   0  0  0  0  0  0  0  0  0  0  0  0
  140.6521  149.2769  132.9768 H   0  0  0  0  0  0  0  0  0  0  0  0
  139.2763  150.4077  133.2391 H   0  0  0  0  0  0  0  0  0  0  0  0
  139.7910  150.0710  131.2300 C   0  0  0  0  0  0  0  0  0  0  0  0
  139.4880  149.9620  130.1170 N   0  0  0  0  0  0  0  0  0  0  0  0
  140.6560  152.6620  132.9900 C   0  0  0  0  0  0  0  0  0  0  0  0
  139.5758  152.8695  133.0030 H   0  0  0  0  0  0  0  0  0  0  0  0
  141.5860  153.6900  133.1640 C   0  0  0  0  0  0  0  0  0  0  0  0
  141.3490  155.0070  133.3290 N   0  0  0  0  0  0  0  0  0  0  0  0
  140.0550  155.6270  133.3800 C   0  0  0  0  0  0  0  0  0  0  0  0
  139.1460  155.2120  132.6130 O   0  0  0  0  0  0  0  0  0  0  0  0
  139.7390  156.7150  134.3300 C   0  0  0  0  0  0  0  0  0  0  0  0
  139.9146  156.5150  135.3973 H   0  0  0  0  0  0  0  0  0  0  0  0
  139.2570  157.9250  134.0060 C   0  0  0  0  0  0  0  0  0  0  0  0
  139.1190  158.6549  134.8173 H   0  0  0  0  0  0  0  0  0  0  0  0
  138.8920  158.3530  132.6090 C   0  0  0  0  0  0  0  0  0  0  0  0
  138.0364  159.0429  132.6542 H   0  0  0  0  0  0  0  0  0  0  0  0
  138.6306  157.4604  132.0217 H   0  0  0  0  0  0  0  0  0  0  0  0
  140.0310  159.0340  131.9590 N   0  0  0  0  0  0  0  0  0  0  0  0
  139.6070  159.6820  130.7030 C   0  0  0  0  0  0  0  0  0  0  0  0
  139.0183  160.5817  130.9352 H   0  0  0  0  0  0  0  0  0  0  0  0
  140.4949  159.9654  130.1187 H   0  0  0  0  0  0  0  0  0  0  0  0
  138.9918  158.9819  130.1187 H   0  0  0  0  0  0  0  0  0  0  0  0
  140.5960  160.0480  132.8640 C   0  0  0  0  0  0  0  0  0  0  0  0
  140.4264  159.7436  133.9073 H   0  0  0  0  0  0  0  0  0  0  0  0
  141.6765  160.1420  132.6805 H   0  0  0  0  0  0  0  0  0  0  0  0
  140.1073  161.0163  132.6805 H   0  0  0  0  0  0  0  0  0  0  0  0
  1  2  1  0
  2  3  1  0
  3  4  2  0
  3  5  1  0
  5  6  2  0
  6  7  1  0
  6  8  1  0
  8  9  2  0
  9 10  1  0
  9 11  1  0
 11 12  1  0
 11 13  2  0
 13 14  1  0
 14 15  1  0
 14 16  1  0
 14 17  1  0
 17 18  3  0
 13 19  1  0
 19 20  1  0
 19 21  2  0
 21 22  1  0
 22 23  1  0
 23 24  2  0
 23 25  1  0
 25 26  1  0
 25 27  2  0
 27 28  1  0
 27 29  1  0
 29 30  1  0
 29 31  1  0
 29 32  1  0
 32 33  1  0
 33 34  1  0
 33 35  1  0
 33 36  1  0
 32 37  1  0
 37 38  1  0
 37 39  1  0
 37 40  1  0
 22  5  1  0
 21  8  1  0
M  CHG  1   2  -1
M  END
>  <UniqueID>  (46) 
46

>  <SMILES>  (46) 
CN(C)C/C=C\C(=O)n1c(C([NH-])=O)cc2ccc(CC#N)cc21

>  <Energy>  (46) 
78.73618469243026

>  <Genealogy>  (46) 
CN(C)CC=CC(=O)n1c(C([NH-])=O)cc2ccc(CC#N)cc21 (protonated)
CN(C)C/C=C\C(=O)n1c(C([NH-])=O)cc2ccc(CC#N)cc21 (cis-trans isomerization)
CN(C)C/C=C\C(=O)n1c(C([NH-])=O)cc2ccc(CC#N)cc21 (3D coordinates assigned)
CN(C)C/C=C\C(=O)n1c(C([NH-])=O)cc2ccc(CC#N)cc21 (optimized conformer: 78.73618469243026 kcal/mol)

>  <smiles>  (46) 
CN(C)CC=CC(=O)n1c(C(N)=O)cc2ccc(CC#N)cc21

>  <score_type>  (46) 
oracle

>  <origin>  (46) 
adg

>  <m_score__min__energy>  (46) 
-7.4299999999999997

>  <m_primary>  (46) 
energy

$$$$
46:0
     RDKit          3D

 38 40  0  0  0  0  0  0  0  0999 V2000
  147.7660  160.8710  132.5350 N   0  0  0  0  0  0  0  0  0  0  0  0
  147.4790  159.7420  133.3560 C   0  0  0  0  0  0  0  0  0  0  0  0
  148.4220  159.1460  133.9380 O   0  0  0  0  0  0  0  0  0  0  0  0
  146.0870  159.2600  133.4800 C   0  0  0  0  0  0  0  0  0  0  0  0
  145.7240  157.9210  133.3460 C   0  0  0  0  0  0  0  0  0  0  0  0
  144.3750  157.8790  133.6170 C   0  0  0  0  0  0  0  0  0  0  0  0
  143.4970  156.8010  133.6130 C   0  0  0  0  0  0  0  0  0  0  0  0
  142.1450  157.0520  133.9030 C   0  0  0  0  0  0  0  0  0  0  0  0
  141.6980  158.3670  134.1910 C   0  0  0  0  0  0  0  0  0  0  0  0
  140.2380  158.6220  134.4880 C   0  0  0  0  0  0  0  0  0  0  0  0
  139.3900  159.0120  133.2530 C   0  0  1  0  0  0  0  0  0  0  0  0
  139.9670  160.2020  132.4680 C   0  0  0  0  0  0  0  0  0  0  0  0
  139.0220  160.5930  131.3210 C   0  0  0  0  0  0  0  0  0  0  0  0
  138.3040  159.3620  130.7380 C   0  0  0  0  0  0  0  0  0  0  0  0
  139.0800  158.1940  130.9210 O   0  0  0  0  0  0  0  0  0  0  0  0
  139.1020  157.8210  132.2920 C   0  0  0  0  0  0  0  0  0  0  0  0
  142.6190  159.4380  134.1660 C   0  0  0  0  0  0  0  0  0  0  0  0
  143.9640  159.1560  133.8950 C   0  0  0  0  0  0  0  0  0  0  0  0
  145.0020  160.0180  133.8120 N   0  0  0  0  0  0  0  0  0  0  0  0
  144.9390  161.4430  133.9850 C   0  0  0  0  0  0  0  0  0  0  0  0
  143.8780  162.0700  133.7240 O   0  0  0  0  0  0  0  0  0  0  0  0
  146.0400  162.1410  134.4660 O   0  0  0  0  0  0  0  0  0  0  0  0
  147.3810  161.8140  132.7650 H   0  0  0  0  0  0  0  0  0  0  0  0
  146.3771  157.0767  133.0800 H   0  0  0  0  0  0  0  0  0  0  0  0
  143.8496  155.7832  133.3898 H   0  0  0  0  0  0  0  0  0  0  0  0
  141.4257  156.2198  133.9067 H   0  0  0  0  0  0  0  0  0  0  0  0
  139.8109  157.7063  134.9227 H   0  0  0  0  0  0  0  0  0  0  0  0
  140.2039  159.4807  135.1746 H   0  0  0  0  0  0  0  0  0  0  0  0
  138.4282  159.3287  133.6828 H   0  0  0  0  0  0  0  0  0  0  0  0
  140.0886  161.0594  133.1463 H   0  0  0  0  0  0  0  0  0  0  0  0
  140.9413  159.9138  132.0464 H   0  0  0  0  0  0  0  0  0  0  0  0
  138.2693  161.2986  131.7026 H   0  0  0  0  0  0  0  0  0  0  0  0
  139.6209  161.0542  130.5219 H   0  0  0  0  0  0  0  0  0  0  0  0
  137.3363  159.2351  131.2455 H   0  0  0  0  0  0  0  0  0  0  0  0
  138.1535  159.5197  129.6598 H   0  0  0  0  0  0  0  0  0  0  0  0
  138.1231  157.3919  132.5523 H   0  0  0  0  0  0  0  0  0  0  0  0
  139.9205  157.0970  132.4182 H   0  0  0  0  0  0  0  0  0  0  0  0
  142.2875  160.4697  134.3550 H   0  0  0  0  0  0  0  0  0  0  0  0
  1  2  1  0
  2  3  2  0
  2  4  1  0
  4  5  2  0
  5  6  1  0
  6  7  2  0
  7  8  1  0
  8  9  2  0
  9 10  1  0
 10 11  1  0
 11 12  1  0
 12 13  1  0
 13 14  1  0
 14 15  1  0
 15 16  1  0
  9 17  1  0
 17 18  2  0
 18 19  1  0
 19 20  1  0
 20 21  2  0
 20 22  1  0
 19  4  1  0
 18  6  1  0
 16 11  1  0
  1 23  1  0
  5 24  1  0
  7 25  1  0
  8 26  1  0
 10 27  1  0
 10 28  1  0
 11 29  1  1
 12 30  1  0
 12 31  1  0
 13 32  1  0
 13 33  1  0
 14 34  1  0
 14 35  1  0
 16 36  1  0
 16 37  1  0
 17 38  1  0
M  CHG  2   1  -1  22  -1
M  END
>  <UniqueID>  (47) 
47

>  <SMILES>  (47) 
[NH-]C(=O)c1cc2ccc(C[C@H]3CCCOC3)cc2n1C(=O)[O-]

>  <Energy>  (47) 
85.28440012465855

>  <Genealogy>  (47) 
[NH-]C(=O)c1cc2ccc(CC3CCCOC3)cc2n1C(=O)[O-] (protonated)
[NH-]C(=O)c1cc2ccc(C[C@H]3CCCOC3)cc2n1C(=O)[O-] (chirality)
[NH-]C(=O)c1cc2ccc(C[C@H]3CCCOC3)cc2n1C(=O)[O-] (3D coordinates assigned)
[NH-]C(=O)c1cc2ccc(C[C@H]3CCCOC3)cc2n1C(=O)[O-] (nonaromatic ring conformer: 85.28440012465855 kcal/mol)

>  <smiles>  (47) 
NC(=O)c1cc2ccc(CC3CCCOC3)cc2n1C(=O)O

>  <score_type>  (47) 
oracle

>  <origin>  (47) 
adg

>  <m_score__min__energy>  (47) 
-7.8200000000000003

>  <m_primary>  (47) 
energy

$$$$
47:0
     RDKit          3D

 66 68  0  0  0  0  0  0  0  0999 V2000
  148.1710  157.7440  134.3710 C   0  0  0  0  0  0  0  0  0  0  0  0
  148.4300  157.4230  132.8790 C   0  0  0  0  0  0  0  0  0  0  0  0
  149.5940  158.3300  132.3930 C   0  0  0  0  0  0  0  0  0  0  0  0
  148.8580  155.9360  132.7360 C   0  0  0  0  0  0  0  0  0  0  0  0
  147.7500  155.1430  132.3560 O   0  0  0  0  0  0  0  0  0  0  0  0
  147.6420  153.9790  133.1570 C   0  0  0  0  0  0  0  0  0  0  0  0
  146.2000  153.8370  133.6510 C   0  0  0  0  0  0  0  0  0  0  0  0
  145.9560  154.5810  134.9750 C   0  0  0  0  0  0  0  0  0  0  0  0
  147.0370  154.3050  135.9770 C   0  0  0  0  0  0  0  0  0  0  0  0
  146.9840  153.2700  136.6940 O   0  0  0  0  0  0  0  0  0  0  0  0
  148.1090  155.1800  136.1120 O   0  0  0  0  0  0  0  0  0  0  0  0
  147.2290  157.7290  132.0450 N   0  0  0  0  0  0  0  0  0  0  0  0
  146.1560  158.4210  132.7350 C   0  0  0  0  0  0  0  0  0  0  0  0
  146.0390  159.8330  132.6670 C   0  0  0  0  0  0  0  0  0  0  0  0
  145.0320  160.5110  133.3760 C   0  0  0  0  0  0  0  0  0  0  0  0
  144.1120  159.7470  134.0890 C   0  0  0  0  0  0  0  0  0  0  0  0
  143.0170  160.1360  134.8320 C   0  0  0  0  0  0  0  0  0  0  0  0
  142.4290  158.9460  135.2590 C   0  0  0  0  0  0  0  0  0  0  0  0
  141.2730  158.8750  136.1630 C   0  0  0  0  0  0  0  0  0  0  0  0
  141.1960  157.8420  137.1430 N   0  0  0  0  0  0  0  0  0  0  0  0
  140.3660  159.7470  136.1000 O   0  0  0  0  0  0  0  0  0  0  0  0
  143.1200  157.8720  134.7980 N   0  0  0  0  0  0  0  0  0  0  0  0
  142.7140  156.4930  134.8290 C   0  0  0  0  0  0  0  0  0  0  0  0
  142.9110  155.8260  135.8810 O   0  0  0  0  0  0  0  0  0  0  0  0
  142.0390  155.8240  133.6250 C   0  0  0  0  0  0  0  0  0  0  0  0
  143.1380  155.1140  132.7980 C   0  0  0  0  0  0  0  0  0  0  0  0
  141.3540  156.9140  132.7290 C   0  0  0  0  0  0  0  0  0  0  0  0
  139.8410  156.9850  132.9600 C   0  0  0  0  0  0  0  0  0  0  0  0
  139.1800  155.7180  132.6030 N   0  0  0  0  0  0  0  0  0  0  0  0
  139.9220  154.5030  132.9970 C   0  0  0  0  0  0  0  0  0  0  0  0
  140.9820  154.7670  134.0810 C   0  0  0  0  0  0  0  0  0  0  0  0
  144.1650  158.3760  134.1060 C   0  0  0  0  0  0  0  0  0  0  0  0
  145.1800  157.6800  133.4480 C   0  0  0  0  0  0  0  0  0  0  0  0
  148.7373  157.0421  135.0007 H   0  0  0  0  0  0  0  0  0  0  0  0
  148.4948  158.7730  134.5863 H   0  0  0  0  0  0  0  0  0  0  0  0
  147.0968  157.6451  134.5863 H   0  0  0  0  0  0  0  0  0  0  0  0
  150.1246  158.7435  133.2634 H   0  0  0  0  0  0  0  0  0  0  0  0
  150.2928  157.7359  131.7858 H   0  0  0  0  0  0  0  0  0  0  0  0
  149.1887  159.1528  131.7858 H   0  0  0  0  0  0  0  0  0  0  0  0
  149.6423  155.8558  131.9689 H   0  0  0  0  0  0  0  0  0  0  0  0
  149.2406  155.5781  133.7032 H   0  0  0  0  0  0  0  0  0  0  0  0
  147.9148  153.0959  132.5606 H   0  0  0  0  0  0  0  0  0  0  0  0
  148.3205  154.0605  134.0189 H   0  0  0  0  0  0  0  0  0  0  0  0
  145.5231  154.2460  132.8864 H   0  0  0  0  0  0  0  0  0  0  0  0
  146.0106  152.7680  133.8280 H   0  0  0  0  0  0  0  0  0  0  0  0
  145.9236  155.6622  134.7750 H   0  0  0  0  0  0  0  0  0  0  0  0
  145.0027  154.2276  135.3948 H   0  0  0  0  0  0  0  0  0  0  0  0
  147.5020  158.2900  131.2010 H   0  0  0  0  0  0  0  0  0  0  0  0
  146.8470  156.8270  131.6690 H   0  0  0  0  0  0  0  0  0  0  0  0
  146.7469  160.4061  132.0502 H   0  0  0  0  0  0  0  0  0  0  0  0
  144.9729  161.6094  133.3677 H   0  0  0  0  0  0  0  0  0  0  0  0
  142.6807  161.1620  135.0420 H   0  0  0  0  0  0  0  0  0  0  0  0
  141.2840  156.8370  136.8710 H   0  0  0  0  0  0  0  0  0  0  0  0
  143.8638  154.6451  133.4788 H   0  0  0  0  0  0  0  0  0  0  0  0
  142.6782  154.3417  132.1638 H   0  0  0  0  0  0  0  0  0  0  0  0
  143.6530  155.8506  132.1638 H   0  0  0  0  0  0  0  0  0  0  0  0
  141.7947  157.8941  132.9640 H   0  0  0  0  0  0  0  0  0  0  0  0
  141.5228  156.6414  131.6768 H   0  0  0  0  0  0  0  0  0  0  0  0
  139.6513  157.2002  134.0220 H   0  0  0  0  0  0  0  0  0  0  0  0
  139.4313  157.7802  132.3199 H   0  0  0  0  0  0  0  0  0  0  0  0
  138.2360  155.7040  133.0540 H   0  0  0  0  0  0  0  0  0  0  0  0
  139.2040  153.7640  133.3822 H   0  0  0  0  0  0  0  0  0  0  0  0
  140.4504  154.1378  132.1040 H   0  0  0  0  0  0  0  0  0  0  0  0
  140.4787  155.1366  134.9866 H   0  0  0  0  0  0  0  0  0  0  0  0
  141.5103  153.8219  134.2753 H   0  0  0  0  0  0  0  0  0  0  0  0
  145.2218  156.5813  133.4818 H   0  0  0  0  0  0  0  0  0  0  0  0
  1  2  1  0
  2  3  1  0
  2  4  1  0
  4  5  1  0
  5  6  1  0
  6  7  1  0
  7  8  1  0
  8  9  1  0
  9 10  2  0
  9 11  1  0
  2 12  1  0
 12 13  1  0
 13 14  2  0
 14 15  1  0
 15 16  2  0
 16 17  1  0
 17 18  2  0
 18 19  1  0
 19 20  1  0
 19 21  2  0
 18 22  1  0
 22 23  1  0
 23 24  2  0
 23 25  1  0
 25 26  1  0
 25 27  1  0
 27 28  1  0
 28 29  1  0
 29 30  1  0
 30 31  1  0
 22 32  1  0
 32 33  2  0
 33 13  1  0
 32 16  1  0
 31 25  1  0
  1 34  1  0
  1 35  1  0
  1 36  1  0
  3 37  1  0
  3 38  1  0
  3 39  1  0
  4 40  1  0
  4 41  1  0
  6 42  1  0
  6 43  1  0
  7 44  1  0
  7 45  1  0
  8 46  1  0
  8 47  1  0
 12 48  1  0
 12 49  1  0
 14 50  1  0
 15 51  1  0
 17 52  1  0
 20 53  1  0
 26 54  1  0
 26 55  1  0
 26 56  1  0
 27 57  1  0
 27 58  1  0
 28 59  1  0
 28 60  1  0
 29 61  1  0
 30 62  1  0
 30 63  1  0
 31 64  1  0
 31 65  1  0
 33 66  1  0
M  CHG  3  11  -1  12   1  20  -1
M  END
>  <UniqueID>  (48) 
48

>  <SMILES>  (48) 
CC(C)(COCCCC(=O)[O-])[NH2+]c1ccc2cc(C([NH-])=O)n(C(=O)C3(C)CCNCC3)c2c1

>  <Energy>  (48) 
118.6913413012459

>  <Genealogy>  (48) 
CC(C)(COCCCC(=O)[O-])[NH2+]c1ccc2cc(C([NH-])=O)n(C(=O)C3(C)CCNCC3)c2c1 (protonated)
CC(C)(COCCCC(=O)[O-])[NH2+]c1ccc2cc(C([NH-])=O)n(C(=O)C3(C)CCNCC3)c2c1 (3D coordinates assigned)
CC(C)(COCCCC(=O)[O-])[NH2+]c1ccc2cc(C([NH-])=O)n(C(=O)C3(C)CCNCC3)c2c1 (nonaromatic ring conformer: 118.6913413012459 kcal/mol)

>  <smiles>  (48) 
CC(C)(COCCCC(=O)O)Nc1ccc2cc(C(N)=O)n(C(=O)C3(C)CCNCC3)c2c1

>  <score_type>  (48) 
oracle

>  <origin>  (48) 
adg

>  <m_score__min__energy>  (48) 
-8.4499999999999993

>  <m_primary>  (48) 
energy

$$$$
48:0
     RDKit          3D

 48 50  0  0  0  0  0  0  0  0999 V2000
  148.8510  161.6630  130.7750 C   0  0  0  0  0  0  0  0  0  0  0  0
  149.7760  160.5230  130.8850 N   0  0  0  0  0  0  0  0  0  0  0  0
  149.8700  159.8400  129.5830 C   0  0  0  0  0  0  0  0  0  0  0  0
  149.3180  159.5940  131.9410 C   0  0  0  0  0  0  0  0  0  0  0  0
  147.8000  159.3860  131.8740 C   0  0  0  0  0  0  0  0  0  0  0  0
  147.1220  160.2300  132.8030 O   0  0  0  0  0  0  0  0  0  0  0  0
  145.8010  160.0250  133.2180 C   0  0  0  0  0  0  0  0  0  0  0  0
  145.1100  161.0660  133.8390 C   0  0  0  0  0  0  0  0  0  0  0  0
  143.7880  160.8690  134.2430 C   0  0  0  0  0  0  0  0  0  0  0  0
  143.1590  159.6330  134.0240 C   0  0  0  0  0  0  0  0  0  0  0  0
  141.7510  159.4180  134.4360 C   0  0  0  0  0  0  0  0  0  0  0  0
  141.2900  160.0240  135.4410 O   0  0  0  0  0  0  0  0  0  0  0  0
  140.9030  158.5020  133.7260 N   0  0  0  0  0  0  0  0  0  0  0  0
  139.9520  158.7840  132.7920 C   0  0  0  0  0  0  0  0  0  0  0  0
  139.5240  160.1360  132.3710 C   0  0  0  0  0  0  0  0  0  0  0  0
  138.3300  160.3270  131.6170 N   0  0  0  0  0  0  0  0  0  0  0  0
  140.2380  161.1330  132.6570 O   0  0  0  0  0  0  0  0  0  0  0  0
  139.3840  157.6080  132.3060 C   0  0  0  0  0  0  0  0  0  0  0  0
  140.0150  156.5890  132.9860 C   0  0  0  0  0  0  0  0  0  0  0  0
  139.8380  155.2120  132.9080 C   0  0  0  0  0  0  0  0  0  0  0  0
  140.6370  154.3980  133.7290 C   0  0  0  0  0  0  0  0  0  0  0  0
  141.6090  154.9670  134.5920 C   0  0  0  0  0  0  0  0  0  0  0  0
  142.4290  154.0850  135.4990 C   0  0  0  0  0  0  0  0  0  0  0  0
  143.6930  153.8830  134.9730 F   0  0  0  0  0  0  0  0  0  0  0  0
  142.5470  154.6890  136.7360 F   0  0  0  0  0  0  0  0  0  0  0  0
  141.8240  152.8500  135.6560 F   0  0  0  0  0  0  0  0  0  0  0  0
  141.7400  156.3740  134.6590 C   0  0  0  0  0  0  0  0  0  0  0  0
  140.9250  157.1570  133.8380 C   0  0  0  0  0  0  0  0  0  0  0  0
  143.8990  158.6080  133.4110 C   0  0  0  0  0  0  0  0  0  0  0  0
  145.1850  158.8260  133.0270 N   0  0  0  0  0  0  0  0  0  0  0  0
  148.5718  162.0071  131.7818 H   0  0  0  0  0  0  0  0  0  0  0  0
  149.3425  162.4827  130.2305 H   0  0  0  0  0  0  0  0  0  0  0  0
  147.9476  161.3509  130.2305 H   0  0  0  0  0  0  0  0  0  0  0  0
  150.0183  158.7620  129.7443 H   0  0  0  0  0  0  0  0  0  0  0  0
  148.9412  160.0015  129.0163 H   0  0  0  0  0  0  0  0  0  0  0  0
  150.7207  160.2464  129.0163 H   0  0  0  0  0  0  0  0  0  0  0  0
  149.8196  158.6240  131.8083 H   0  0  0  0  0  0  0  0  0  0  0  0
  149.5680  160.0281  132.9203 H   0  0  0  0  0  0  0  0  0  0  0  0
  147.4506  159.6182  130.8571 H   0  0  0  0  0  0  0  0  0  0  0  0
  147.5803  158.3390  132.1301 H   0  0  0  0  0  0  0  0  0  0  0  0
  145.6030  162.0345  134.0090 H   0  0  0  0  0  0  0  0  0  0  0  0
  143.2376  161.6848  134.7344 H   0  0  0  0  0  0  0  0  0  0  0  0
  137.8950  161.2720  131.5300 H   0  0  0  0  0  0  0  0  0  0  0  0
  138.5986  157.5132  131.5417 H   0  0  0  0  0  0  0  0  0  0  0  0
  139.0957  154.7735  132.2249 H   0  0  0  0  0  0  0  0  0  0  0  0
  140.5072  153.3060  133.7022 H   0  0  0  0  0  0  0  0  0  0  0  0
  142.4662  156.8402  135.3412 H   0  0  0  0  0  0  0  0  0  0  0  0
  143.4359  157.6248  133.2410 H   0  0  0  0  0  0  0  0  0  0  0  0
  1  2  1  0
  2  3  1  0
  2  4  1  0
  4  5  1  0
  5  6  1  0
  6  7  1  0
  7  8  2  0
  8  9  1  0
  9 10  2  0
 10 11  1  0
 11 12  2  0
 11 13  1  0
 13 14  1  0
 14 15  1  0
 15 16  1  0
 15 17  2  0
 14 18  2  0
 18 19  1  0
 19 20  2  0
 20 21  1  0
 21 22  2  0
 22 23  1  0
 23 24  1  0
 23 25  1  0
 23 26  1  0
 22 27  1  0
 27 28  2  0
 10 29  1  0
 29 30  2  0
 30  7  1  0
 28 13  1  0
 28 19  1  0
  1 31  1  0
  1 32  1  0
  1 33  1  0
  3 34  1  0
  3 35  1  0
  3 36  1  0
  4 37  1  0
  4 38  1  0
  5 39  1  0
  5 40  1  0
  8 41  1  0
  9 42  1  0
 16 43  1  0
 18 44  1  0
 20 45  1  0
 21 46  1  0
 27 47  1  0
 29 48  1  0
M  CHG  1  16  -1
M  END
>  <UniqueID>  (49) 
49

>  <SMILES>  (49) 
CN(C)CCOc1ccc(C(=O)n2c(C([NH-])=O)cc3ccc(C(F)(F)F)cc32)cn1

>  <Energy>  (49) 
89.72785676802842

>  <Genealogy>  (49) 
CN(C)CCOc1ccc(C(=O)n2c(C([NH-])=O)cc3ccc(C(F)(F)F)cc32)cn1 (protonated)
CN(C)CCOc1ccc(C(=O)n2c(C([NH-])=O)cc3ccc(C(F)(F)F)cc32)cn1 (3D coordinates assigned)
CN(C)CCOc1ccc(C(=O)n2c(C([NH-])=O)cc3ccc(C(F)(F)F)cc32)cn1 (optimized conformer: 89.72785676802842 kcal/mol)

>  <smiles>  (49) 
CN(C)CCOc1ccc(C(=O)n2c(C(N)=O)cc3ccc(C(F)(F)F)cc32)cn1

>  <score_type>  (49) 
oracle

>  <origin>  (49) 
adg

>  <m_score__min__energy>  (49) 
-7.6699999999999999

>  <m_primary>  (49) 
energy

$$$$
49:0
     RDKit          3D

 31 32  0  0  0  0  0  0  0  0999 V2000
  142.8960  161.2410  133.6980 N   0  0  0  0  0  0  0  0  0  0  0  0
  144.2910  161.2830  133.9890 C   0  0  0  0  0  0  0  0  0  0  0  0
  144.7850  162.3280  134.4890 O   0  0  0  0  0  0  0  0  0  0  0  0
  145.1460  160.1230  133.6640 C   0  0  0  0  0  0  0  0  0  0  0  0
  146.4880  160.2350  133.3040 C   0  0  0  0  0  0  0  0  0  0  0  0
  146.9400  158.9410  133.1790 C   0  0  0  0  0  0  0  0  0  0  0  0
  148.2000  158.4640  132.8300 C   0  0  0  0  0  0  0  0  0  0  0  0
  148.3790  157.0720  132.7530 C   0  0  0  0  0  0  0  0  0  0  0  0
  147.3020  156.1900  133.0200 C   0  0  0  0  0  0  0  0  0  0  0  0
  147.5120  154.7060  132.9170 C   0  0  0  0  0  0  0  0  0  0  0  0
  147.2050  154.1070  134.1250 F   0  0  0  0  0  0  0  0  0  0  0  0
  148.8320  154.4440  132.5990 F   0  0  0  0  0  0  0  0  0  0  0  0
  146.0370  156.7120  133.3700 C   0  0  0  0  0  0  0  0  0  0  0  0
  145.8920  158.1020  133.4540 C   0  0  0  0  0  0  0  0  0  0  0  0
  144.7820  158.8120  133.7500 N   0  0  0  0  0  0  0  0  0  0  0  0
  143.4770  158.2760  134.0210 C   0  0  0  0  0  0  0  0  0  0  0  0
  143.2330  157.7520  135.1410 O   0  0  0  0  0  0  0  0  0  0  0  0
  142.4680  158.3090  133.0080 N   0  0  0  0  0  0  0  0  0  0  0  0
  140.8680  158.9070  133.2930 S   0  0  0  0  0  0  0  0  0  0  0  0
  140.7550  159.3300  134.7290 O   0  0  0  0  0  0  0  0  0  0  0  0
  140.6060  160.0970  132.4130 O   0  0  0  0  0  0  0  0  0  0  0  0
  139.6740  157.6280  132.9630 C   0  0  0  0  0  0  0  0  0  0  0  0
  139.0780  157.8570  131.7370 F   0  0  0  0  0  0  0  0  0  0  0  0
  138.7060  157.6260  133.9490 F   0  0  0  0  0  0  0  0  0  0  0  0
  140.3070  156.3990  132.9410 F   0  0  0  0  0  0  0  0  0  0  0  0
  142.3700  160.3390  133.7140 H   0  0  0  0  0  0  0  0  0  0  0  0
  147.0632  161.1603  133.1522 H   0  0  0  0  0  0  0  0  0  0  0  0
  149.0300  159.1549  132.6209 H   0  0  0  0  0  0  0  0  0  0  0  0
  149.3639  156.6633  132.4831 H   0  0  0  0  0  0  0  0  0  0  0  0
  146.8573  154.3027  132.1305 H   0  0  0  0  0  0  0  0  0  0  0  0
  145.1872  156.0433  133.5715 H   0  0  0  0  0  0  0  0  0  0  0  0
  1  2  1  0
  2  3  2  0
  2  4  1  0
  4  5  2  0
  5  6  1  0
  6  7  2  0
  7  8  1  0
  8  9  2  0
  9 10  1  0
 10 11  1  0
 10 12  1  0
  9 13  1  0
 13 14  2  0
 14 15  1  0
 15 16  1  0
 16 17  2  0
 16 18  1  0
 18 19  1  0
 19 20  2  0
 19 21  2  0
 19 22  1  0
 22 23  1  0
 22 24  1  0
 22 25  1  0
 15  4  1  0
 14  6  1  0
  1 26  1  0
  5 27  1  0
  7 28  1  0
  8 29  1  0
 10 30  1  0
 13 31  1  0
M  CHG  2   1  -1  18  -1
M  END
>  <UniqueID>  (50) 
50

>  <SMILES>  (50) 
[NH-]C(=O)c1cc2ccc(C(F)F)cc2n1C(=O)[N-]S(=O)(=O)C(F)(F)F

>  <Energy>  (50) 
67.45332685240594

>  <Genealogy>  (50) 
[NH-]C(=O)c1cc2ccc(C(F)F)cc2n1C(=O)[N-]S(=O)(=O)C(F)(F)F (protonated)
[NH-]C(=O)c1cc2ccc(C(F)F)cc2n1C(=O)[N-]S(=O)(=O)C(F)(F)F (3D coordinates assigned)
[NH-]C(=O)c1cc2ccc(C(F)F)cc2n1C(=O)[N-]S(=O)(=O)C(F)(F)F (optimized conformer: 67.45332685240594 kcal/mol)

>  <smiles>  (50) 
NC(=O)c1cc2ccc(C(F)F)cc2n1C(=O)NS(=O)(=O)C(F)(F)F

>  <score_type>  (50) 
oracle

>  <origin>  (50) 
adg

>  <m_score__min__energy>  (50) 
-6.1600000000000001

>  <m_primary>  (50) 
energy

$$$$
50:0
     RDKit          3D

 42 44  0  0  0  0  0  0  0  0999 V2000
  150.7100  150.3800  131.3000 C   0  0  0  0  0  0  0  0  0  0  0  0
  149.9250  151.1930  132.2190 N   0  0  0  0  0  0  0  0  0  0  0  0
  149.0300  152.1330  131.8690 C   0  0  0  0  0  0  0  0  0  0  0  0
  148.5580  152.7320  133.0250 C   0  0  0  0  0  0  0  0  0  0  0  0
  147.5550  153.8220  133.1380 C   0  0  0  0  0  0  0  0  0  0  0  0
  146.1740  153.5190  133.2770 C   0  0  0  0  0  0  0  0  0  0  0  0
  145.2190  154.5420  133.3970 C   0  0  0  0  0  0  0  0  0  0  0  0
  145.6650  155.8580  133.3670 C   0  0  0  0  0  0  0  0  0  0  0  0
  144.9600  157.0330  133.4840 C   0  0  0  0  0  0  0  0  0  0  0  0
  145.9100  158.0470  133.3920 C   0  0  0  0  0  0  0  0  0  0  0  0
  145.5790  159.4900  133.3800 C   0  0  0  0  0  0  0  0  0  0  0  0
  146.6010  160.4700  133.1980 N   0  0  0  0  0  0  0  0  0  0  0  0
  144.3920  159.8690  133.5620 O   0  0  0  0  0  0  0  0  0  0  0  0
  147.1570  157.5180  133.2260 N   0  0  0  0  0  0  0  0  0  0  0  0
  148.4060  158.2240  133.1430 C   0  0  0  0  0  0  0  0  0  0  0  0
  148.8420  158.8490  134.1470 O   0  0  0  0  0  0  0  0  0  0  0  0
  149.1410  158.1960  131.9520 O   0  0  0  0  0  0  0  0  0  0  0  0
  149.9950  159.2550  131.5160 C   0  0  0  0  0  0  0  0  0  0  0  0
  149.1770  160.4640  131.0480 C   0  0  0  0  0  0  0  0  0  0  0  0
  149.6140  160.9890  129.6810 C   0  0  0  0  0  0  0  0  0  0  0  0
  150.3920  160.0500  129.0260 F   0  0  0  0  0  0  0  0  0  0  0  0
  146.9890  156.1770  133.2140 C   0  0  0  0  0  0  0  0  0  0  0  0
  147.9650  155.1770  133.1130 C   0  0  0  0  0  0  0  0  0  0  0  0
  149.2380  152.0910  134.0520 C   0  0  0  0  0  0  0  0  0  0  0  0
  150.0690  151.1660  133.5340 N   0  0  0  0  0  0  0  0  0  0  0  0
  151.3621  149.7047  131.8733 H   0  0  0  0  0  0  0  0  0  0  0  0
  150.0343  149.7868  130.6664 H   0  0  0  0  0  0  0  0  0  0  0  0
  151.3265  151.0346  130.6664 H   0  0  0  0  0  0  0  0  0  0  0  0
  148.7253  152.3831  130.8421 H   0  0  0  0  0  0  0  0  0  0  0  0
  145.8480  152.4685  133.2908 H   0  0  0  0  0  0  0  0  0  0  0  0
  144.1501  154.3086  133.5113 H   0  0  0  0  0  0  0  0  0  0  0  0
  143.8746  157.1477  133.6213 H   0  0  0  0  0  0  0  0  0  0  0  0
  146.3650  161.4870  133.2320 H   0  0  0  0  0  0  0  0  0  0  0  0
  147.5870  160.1960  132.9900 H   0  0  0  0  0  0  0  0  0  0  0  0
  150.6434  159.5607  132.3504 H   0  0  0  0  0  0  0  0  0  0  0  0
  150.5988  158.8925  130.6710 H   0  0  0  0  0  0  0  0  0  0  0  0
  148.1189  160.1691  130.9881 H   0  0  0  0  0  0  0  0  0  0  0  0
  149.3382  161.2718  131.7770 H   0  0  0  0  0  0  0  0  0  0  0  0
  148.7221  161.2062  129.0749 H   0  0  0  0  0  0  0  0  0  0  0  0
  150.2074  161.9040  129.8249 H   0  0  0  0  0  0  0  0  0  0  0  0
  149.0289  155.4394  133.0162 H   0  0  0  0  0  0  0  0  0  0  0  0
  149.1167  152.3056  135.1240 H   0  0  0  0  0  0  0  0  0  0  0  0
  1  2  1  0
  2  3  1  0
  3  4  2  0
  4  5  1  0
  5  6  2  0
  6  7  1  0
  7  8  2  0
  8  9  1  0
  9 10  2  0
 10 11  1  0
 11 12  1  0
 11 13  2  0
 10 14  1  0
 14 15  1  0
 15 16  2  0
 15 17  1  0
 17 18  1  0
 18 19  1  0
 19 20  1  0
 20 21  1  0
 14 22  1  0
 22 23  2  0
  4 24  1  0
 24 25  2  0
 25  2  1  0
 23  5  1  0
 22  8  1  0
  1 26  1  0
  1 27  1  0
  1 28  1  0
  3 29  1  0
  6 30  1  0
  7 31  1  0
  9 32  1  0
 12 33  1  0
 12 34  1  0
 18 35  1  0
 18 36  1  0
 19 37  1  0
 19 38  1  0
 20 39  1  0
 20 40  1  0
 23 41  1  0
 24 42  1  0
M  END
>  <UniqueID>  (51) 
51

>  <SMILES>  (51) 
Cn1cc(-c2ccc3cc(C(N)=O)n(C(=O)OCCCF)c3c2)cn1

>  <Energy>  (51) 
109.04882015255735

>  <Genealogy>  (51) 
Cn1cc(-c2ccc3cc(C(N)=O)n(C(=O)OCCCF)c3c2)cn1 (3D coordinates assigned)
Cn1cc(-c2ccc3cc(C(N)=O)n(C(=O)OCCCF)c3c2)cn1 (optimized conformer: 109.04882015255735 kcal/mol)

>  <smiles>  (51) 
Cn1cc(-c2ccc3cc(C(N)=O)n(C(=O)OCCCF)c3c2)cn1

>  <score_type>  (51) 
oracle

>  <origin>  (51) 
adg

>  <m_score__min__energy>  (51) 
-6.96

>  <m_primary>  (51) 
energy

$$$$
51:0
     RDKit          3D

 51 53  0  0  0  0  0  0  0  0999 V2000
  140.2020  156.1720  133.3080 C   0  0  0  0  0  0  0  0  0  0  0  0
  139.2630  157.2980  133.4550 N   0  0  0  0  0  0  0  0  0  0  0  0
  139.4430  158.3110  132.3800 C   0  0  0  0  0  0  0  0  0  0  0  0
  140.1690  159.5880  132.8410 C   0  0  0  0  0  0  0  0  0  0  0  0
  141.1310  159.2710  133.9010 N   0  0  0  0  0  0  0  0  0  0  0  0
  142.5290  159.5830  133.7620 C   0  0  0  0  0  0  0  0  0  0  0  0
  142.9610  160.9340  133.7340 C   0  0  0  0  0  0  0  0  0  0  0  0
  144.3260  161.2500  133.6270 C   0  0  0  0  0  0  0  0  0  0  0  0
  145.2350  160.1990  133.5500 C   0  0  0  0  0  0  0  0  0  0  0  0
  146.6100  160.2180  133.4730 C   0  0  0  0  0  0  0  0  0  0  0  0
  146.9960  158.8790  133.4450 C   0  0  0  0  0  0  0  0  0  0  0  0
  148.3970  158.4360  133.2850 C   0  0  0  0  0  0  0  0  0  0  0  0
  149.3270  159.2060  132.5290 N   0  0  0  0  0  0  0  0  0  0  0  0
  148.7880  157.3840  133.8580 O   0  0  0  0  0  0  0  0  0  0  0  0
  145.9040  158.0670  133.5110 N   0  0  0  0  0  0  0  0  0  0  0  0
  145.8700  156.6340  133.5940 C   0  0  0  0  0  0  0  0  0  0  0  0
  145.0730  155.9920  132.8580 O   0  0  0  0  0  0  0  0  0  0  0  0
  146.7080  155.9530  134.5450 N   0  0  0  0  0  0  0  0  0  0  0  0
  146.7740  154.4880  134.7280 C   0  0  0  0  0  0  0  0  0  0  0  0
  147.6610  153.8470  133.6410 C   0  0  0  0  0  0  0  0  0  0  0  0
  145.3530  153.8930  134.6660 C   0  0  0  0  0  0  0  0  0  0  0  0
  147.4060  154.1900  136.0760 C   0  0  0  0  0  0  0  0  0  0  0  0
  148.1910  155.0250  136.6000 O   0  0  0  0  0  0  0  0  0  0  0  0
  147.1540  152.9940  136.7420 O   0  0  0  0  0  0  0  0  0  0  0  0
  144.8350  158.8890  133.5690 C   0  0  0  0  0  0  0  0  0  0  0  0
  143.4860  158.5440  133.6880 C   0  0  0  0  0  0  0  0  0  0  0  0
  140.6460  158.5770  135.1000 C   0  0  0  0  0  0  0  0  0  0  0  0
  139.3060  157.8760  134.8160 C   0  0  0  0  0  0  0  0  0  0  0  0
  140.5019  155.8123  134.3033 H   0  0  0  0  0  0  0  0  0  0  0  0
  139.7127  155.3563  132.7555 H   0  0  0  0  0  0  0  0  0  0  0  0
  141.0923  156.5067  132.7555 H   0  0  0  0  0  0  0  0  0  0  0  0
  140.0278  157.8541  131.5681 H   0  0  0  0  0  0  0  0  0  0  0  0
  138.4367  158.6152  132.0564 H   0  0  0  0  0  0  0  0  0  0  0  0
  140.7026  160.0306  131.9870 H   0  0  0  0  0  0  0  0  0  0  0  0
  139.4274  160.3003  133.2317 H   0  0  0  0  0  0  0  0  0  0  0  0
  142.2189  161.7435  133.7968 H   0  0  0  0  0  0  0  0  0  0  0  0
  144.6657  162.2960  133.6048 H   0  0  0  0  0  0  0  0  0  0  0  0
  147.2642  161.1017  133.4405 H   0  0  0  0  0  0  0  0  0  0  0  0
  150.3550  159.0950  132.6690 H   0  0  0  0  0  0  0  0  0  0  0  0
  147.2660  156.5630  135.1850 H   0  0  0  0  0  0  0  0  0  0  0  0
  148.4642  153.2665  134.1184 H   0  0  0  0  0  0  0  0  0  0  0  0
  147.0496  153.1807  133.0147 H   0  0  0  0  0  0  0  0  0  0  0  0
  148.1017  154.6366  133.0147 H   0  0  0  0  0  0  0  0  0  0  0  0
  144.9766  153.7354  135.6875 H   0  0  0  0  0  0  0  0  0  0  0  0
  144.6874  154.5880  134.1331 H   0  0  0  0  0  0  0  0  0  0  0  0
  145.3812  152.9311  134.1331 H   0  0  0  0  0  0  0  0  0  0  0  0
  143.1757  157.4893  133.7233 H   0  0  0  0  0  0  0  0  0  0  0  0
  141.3885  157.8261  135.4081 H   0  0  0  0  0  0  0  0  0  0  0  0
  140.4966  159.3159  135.9011 H   0  0  0  0  0  0  0  0  0  0  0  0
  139.1645  157.0688  135.5497 H   0  0  0  0  0  0  0  0  0  0  0  0
  138.5057  158.6268  134.8928 H   0  0  0  0  0  0  0  0  0  0  0  0
  1  2  1  0
  2  3  1  0
  3  4  1  0
  4  5  1  0
  5  6  1  0
  6  7  2  0
  7  8  1  0
  8  9  2  0
  9 10  1  0
 10 11  2  0
 11 12  1  0
 12 13  1  0
 12 14  2  0
 11 15  1  0
 15 16  1  0
 16 17  2  0
 16 18  1  0
 18 19  1  0
 19 20  1  0
 19 21  1  0
 19 22  1  0
 22 23  2  0
 22 24  1  0
 15 25  1  0
 25 26  2  0
  5 27  1  0
 27 28  1  0
 28  2  1  0
 26  6  1  0
 25  9  1  0
  1 29  1  0
  1 30  1  0
  1 31  1  0
  3 32  1  0
  3 33  1  0
  4 34  1  0
  4 35  1  0
  7 36  1  0
  8 37  1  0
 10 38  1  0
 13 39  1  0
 18 40  1  0
 20 41  1  0
 20 42  1  0
 20 43  1  0
 21 44  1  0
 21 45  1  0
 21 46  1  0
 26 47  1  0
 27 48  1  0
 27 49  1  0
 28 50  1  0
 28 51  1  0
M  CHG  2  13  -1  24  -1
M  END
>  <UniqueID>  (52) 
52

>  <SMILES>  (52) 
CN1CCN(c2ccc3cc(C([NH-])=O)n(C(=O)NC(C)(C)C(=O)[O-])c3c2)CC1

>  <Energy>  (52) 
101.12487122253755

>  <Genealogy>  (52) 
CN1CCN(c2ccc3cc(C([NH-])=O)n(C(=O)NC(C)(C)C(=O)[O-])c3c2)CC1 (protonated)
CN1CCN(c2ccc3cc(C([NH-])=O)n(C(=O)NC(C)(C)C(=O)[O-])c3c2)CC1 (3D coordinates assigned)
CN1CCN(c2ccc3cc(C([NH-])=O)n(C(=O)NC(C)(C)C(=O)[O-])c3c2)CC1 (nonaromatic ring conformer: 101.12487122253755 kcal/mol)

>  <smiles>  (52) 
CN1CCN(c2ccc3cc(C(N)=O)n(C(=O)NC(C)(C)C(=O)O)c3c2)CC1

>  <score_type>  (52) 
oracle

>  <origin>  (52) 
adg

>  <m_score__min__energy>  (52) 
-8.5800000000000001

>  <m_primary>  (52) 
energy

$$$$
52:0
     RDKit          3D

 32 33  0  0  0  0  0  0  0  0999 V2000
  148.4820  161.5760  131.1180 C   0  0  0  0  0  0  0  0  0  0  0  0
  149.0500  160.2330  130.7610 C   0  0  0  0  0  0  0  0  0  0  0  0
  150.0100  160.1170  129.2910 Cl  0  0  0  0  0  0  0  0  0  0  0  0
  148.9350  159.1380  131.5320 C   0  0  0  0  0  0  0  0  0  0  0  0
  148.2010  159.0530  132.8140 C   0  0  0  0  0  0  0  0  0  0  0  0
  148.5440  159.8190  133.7540 O   0  0  0  0  0  0  0  0  0  0  0  0
  147.1640  158.0870  133.0410 N   0  0  0  0  0  0  0  0  0  0  0  0
  145.8870  158.3190  133.4590 C   0  0  0  0  0  0  0  0  0  0  0  0
  145.2560  159.6450  133.6470 C   0  0  0  0  0  0  0  0  0  0  0  0
  145.9470  160.8610  133.3590 N   0  0  0  0  0  0  0  0  0  0  0  0
  144.0590  159.7030  134.0350 O   0  0  0  0  0  0  0  0  0  0  0  0
  145.2350  157.1160  133.7210 C   0  0  0  0  0  0  0  0  0  0  0  0
  146.1610  156.1320  133.4580 C   0  0  0  0  0  0  0  0  0  0  0  0
  146.0590  154.7490  133.5770 C   0  0  0  0  0  0  0  0  0  0  0  0
  147.1970  153.9770  133.2850 C   0  0  0  0  0  0  0  0  0  0  0  0
  148.4130  154.5990  132.9060 C   0  0  0  0  0  0  0  0  0  0  0  0
  149.6130  153.7620  132.5820 C   0  0  0  0  0  0  0  0  0  0  0  0
  148.4770  156.0040  132.7860 C   0  0  0  0  0  0  0  0  0  0  0  0
  147.3210  156.7450  133.0620 C   0  0  0  0  0  0  0  0  0  0  0  0
  148.4393  161.6769  132.2125 H   0  0  0  0  0  0  0  0  0  0  0  0
  149.1224  162.3674  130.7015 H   0  0  0  0  0  0  0  0  0  0  0  0
  147.4680  161.6677  130.7015 H   0  0  0  0  0  0  0  0  0  0  0  0
  149.4313  158.2224  131.1780 H   0  0  0  0  0  0  0  0  0  0  0  0
  145.4820  161.7760  133.5470 H   0  0  0  0  0  0  0  0  0  0  0  0
  146.8690  160.8730  132.8720 H   0  0  0  0  0  0  0  0  0  0  0  0
  144.1990  156.9810  134.0653 H   0  0  0  0  0  0  0  0  0  0  0  0
  145.1171  154.2747  133.8898 H   0  0  0  0  0  0  0  0  0  0  0  0
  147.1433  152.8803  133.3512 H   0  0  0  0  0  0  0  0  0  0  0  0
  150.0905  153.4289  133.5153 H   0  0  0  0  0  0  0  0  0  0  0  0
  149.3009  152.8847  131.9964 H   0  0  0  0  0  0  0  0  0  0  0  0
  150.3285  154.3580  131.9964 H   0  0  0  0  0  0  0  0  0  0  0  0
  149.4094  156.5033  132.4839 H   0  0  0  0  0  0  0  0  0  0  0  0
  1  2  1  0
  2  3  1  0
  2  4  2  3
  4  5  1  0
  5  6  2  0
  5  7  1  0
  7  8  1  0
  8  9  1  0
  9 10  1  0
  9 11  2  0
  8 12  2  0
 12 13  1  0
 13 14  2  0
 14 15  1  0
 15 16  2  0
 16 17  1  0
 16 18  1  0
 18 19  2  0
 19  7  1  0
 19 13  1  0
  1 20  1  0
  1 21  1  0
  1 22  1  0
  4 23  1  0
 10 24  1  0
 10 25  1  0
 12 26  1  0
 14 27  1  0
 15 28  1  0
 17 29  1  0
 17 30  1  0
 17 31  1  0
 18 32  1  0
M  END
>  <UniqueID>  (53) 
53

>  <SMILES>  (53) 
CC(Cl)=CC(=O)n1c(C(N)=O)cc2ccc(C)cc21

>  <Energy>  (53) 
72.34073787647878

>  <Genealogy>  (53) 
CC(Cl)=CC(=O)n1c(C(N)=O)cc2ccc(C)cc21 (3D coordinates assigned)
CC(Cl)=CC(=O)n1c(C(N)=O)cc2ccc(C)cc21 (optimized conformer: 72.34073787647878 kcal/mol)

>  <smiles>  (53) 
CC(Cl)=CC(=O)n1c(C(N)=O)cc2ccc(C)cc21

>  <score_type>  (53) 
oracle

>  <origin>  (53) 
adg

>  <m_score__min__energy>  (53) 
-8.0800000000000001

>  <m_primary>  (53) 
energy

$$$$
53:0
     RDKit          3D

 38 39  0  0  0  0  0  0  0  0999 V2000
  149.2150  160.7280  130.4040 C   0  0  0  0  0  0  0  0  0  0  0  0
  147.9340  160.2690  131.1000 C   0  0  0  0  0  0  0  0  0  0  0  0
  148.2060  159.6380  132.4840 C   0  0  2  0  0  0  0  0  0  0  0  0
  149.6030  159.0050  132.5720 C   0  0  0  0  0  0  0  0  0  0  0  0
  147.1670  158.6400  132.8090 N   0  0  0  0  0  0  0  0  0  0  0  0
  147.4150  157.2030  132.6280 C   0  0  0  0  0  0  0  0  0  0  0  0
  145.8580  159.0690  133.2410 C   0  0  0  0  0  0  0  0  0  0  0  0
  145.5630  160.4510  133.3670 C   0  0  0  0  0  0  0  0  0  0  0  0
  144.2920  160.8810  133.7800 C   0  0  0  0  0  0  0  0  0  0  0  0
  143.3380  159.9110  134.0720 C   0  0  0  0  0  0  0  0  0  0  0  0
  142.0280  160.0510  134.4680 C   0  0  0  0  0  0  0  0  0  0  0  0
  141.5430  158.7510  134.6090 C   0  0  0  0  0  0  0  0  0  0  0  0
  140.1870  158.4410  135.1050 C   0  0  0  0  0  0  0  0  0  0  0  0
  139.9320  158.2910  136.4990 N   0  0  0  0  0  0  0  0  0  0  0  0
  139.2300  158.3550  134.2910 O   0  0  0  0  0  0  0  0  0  0  0  0
  142.5150  157.8440  134.3030 N   0  0  0  0  0  0  0  0  0  0  0  0
  142.3960  156.4140  134.2390 C   0  0  0  0  0  0  0  0  0  0  0  0
  143.1730  155.6800  134.9060 O   0  0  0  0  0  0  0  0  0  0  0  0
  141.4060  155.8260  133.4610 O   0  0  0  0  0  0  0  0  0  0  0  0
  143.6080  158.5710  133.9790 C   0  0  0  0  0  0  0  0  0  0  0  0
  144.8590  158.1140  133.5510 C   0  0  0  0  0  0  0  0  0  0  0  0
  149.9669  160.9974  131.1604 H   0  0  0  0  0  0  0  0  0  0  0  0
  149.6030  159.9130  129.7754 H   0  0  0  0  0  0  0  0  0  0  0  0
  148.9971  161.6040  129.7754 H   0  0  0  0  0  0  0  0  0  0  0  0
  147.2735  161.1386  131.2324 H   0  0  0  0  0  0  0  0  0  0  0  0
  147.4675  159.4993  130.4676 H   0  0  0  0  0  0  0  0  0  0  0  0
  148.1703  160.4511  133.2240 H   0  0  0  0  0  0  0  0  0  0  0  0
  149.8823  158.8784  133.6284 H   0  0  0  0  0  0  0  0  0  0  0  0
  149.5928  158.0236  132.0753 H   0  0  0  0  0  0  0  0  0  0  0  0
  150.3342  159.6597  132.0753 H   0  0  0  0  0  0  0  0  0  0  0  0
  147.4986  156.7185  133.6120 H   0  0  0  0  0  0  0  0  0  0  0  0
  146.5809  156.7546  132.0682 H   0  0  0  0  0  0  0  0  0  0  0  0
  148.3511  157.0601  132.0682 H   0  0  0  0  0  0  0  0  0  0  0  0
  146.3401  161.1951  133.1382 H   0  0  0  0  0  0  0  0  0  0  0  0
  144.0575  161.9519  133.8700 H   0  0  0  0  0  0  0  0  0  0  0  0
  141.4794  160.9893  134.6375 H   0  0  0  0  0  0  0  0  0  0  0  0
  139.4610  159.0450  137.0440 H   0  0  0  0  0  0  0  0  0  0  0  0
  145.0623  157.0370  133.4573 H   0  0  0  0  0  0  0  0  0  0  0  0
  1  2  1  0
  2  3  1  0
  3  4  1  0
  3  5  1  0
  5  6  1  0
  5  7  1  0
  7  8  2  0
  8  9  1  0
  9 10  2  0
 10 11  1  0
 11 12  2  0
 12 13  1  0
 13 14  1  0
 13 15  2  0
 12 16  1  0
 16 17  1  0
 17 18  2  0
 17 19  1  0
 16 20  1  0
 20 21  2  0
 21  7  1  0
 20 10  1  0
  1 22  1  0
  1 23  1  0
  1 24  1  0
  2 25  1  0
  2 26  1  0
  3 27  1  1
  4 28  1  0
  4 29  1  0
  4 30  1  0
  6 31  1  0
  6 32  1  0
  6 33  1  0
  8 34  1  0
  9 35  1  0
 11 36  1  0
 14 37  1  0
 21 38  1  0
M  CHG  2  14  -1  19  -1
M  END
>  <UniqueID>  (54) 
54

>  <SMILES>  (54) 
CC[C@H](C)N(C)c1ccc2cc(C([NH-])=O)n(C(=O)[O-])c2c1

>  <Energy>  (54) 
76.14222330764345

>  <Genealogy>  (54) 
CCC(C)N(C)c1ccc2cc(C([NH-])=O)n(C(=O)[O-])c2c1 (protonated)
CC[C@H](C)N(C)c1ccc2cc(C([NH-])=O)n(C(=O)[O-])c2c1 (chirality)
CC[C@H](C)N(C)c1ccc2cc(C([NH-])=O)n(C(=O)[O-])c2c1 (3D coordinates assigned)
CC[C@H](C)N(C)c1ccc2cc(C([NH-])=O)n(C(=O)[O-])c2c1 (optimized conformer: 76.14222330764345 kcal/mol)

>  <smiles>  (54) 
CCC(C)N(C)c1ccc2cc(C(N)=O)n(C(=O)O)c2c1

>  <score_type>  (54) 
oracle

>  <origin>  (54) 
adg

>  <m_score__min__energy>  (54) 
-6.5800000000000001

>  <m_primary>  (54) 
energy

$$$$
54:0
     RDKit          3D

 36 37  0  0  0  0  0  0  0  0999 V2000
  149.4360  160.2050  130.0430 C   0  0  0  0  0  0  0  0  0  0  0  0
  149.7920  159.8600  131.4850 C   0  0  0  0  0  0  0  0  0  0  0  0
  148.7210  159.0070  132.1090 C   0  0  0  0  0  0  0  0  0  0  0  0
  147.5150  159.5970  132.5620 C   0  0  0  0  0  0  0  0  0  0  0  0
  146.5020  158.8070  133.1290 C   0  0  0  0  0  0  0  0  0  0  0  0
  146.7130  157.4340  133.2120 C   0  0  0  0  0  0  0  0  0  0  0  0
  145.9120  156.4470  133.7380 C   0  0  0  0  0  0  0  0  0  0  0  0
  146.6210  155.2640  133.5570 C   0  0  0  0  0  0  0  0  0  0  0  0
  146.0910  153.9350  133.9250 C   0  0  0  0  0  0  0  0  0  0  0  0
  146.2810  152.8020  133.0780 N   0  0  0  0  0  0  0  0  0  0  0  0
  145.4100  153.8110  134.9780 O   0  0  0  0  0  0  0  0  0  0  0  0
  147.8200  155.5060  132.9580 N   0  0  0  0  0  0  0  0  0  0  0  0
  148.8770  154.5660  132.6970 C   0  0  0  0  0  0  0  0  0  0  0  0
  149.9780  154.9700  132.2330 O   0  0  0  0  0  0  0  0  0  0  0  0
  148.6780  153.2070  132.9570 O   0  0  0  0  0  0  0  0  0  0  0  0
  149.6480  152.2140  132.6450 C   0  0  0  0  0  0  0  0  0  0  0  0
  148.9750  151.0430  131.9420 C   0  0  0  0  0  0  0  0  0  0  0  0
  147.6560  150.9140  132.3950 O   0  0  0  0  0  0  0  0  0  0  0  0
  147.8610  156.8420  132.7490 C   0  0  0  0  0  0  0  0  0  0  0  0
  148.8980  157.6090  132.2010 C   0  0  0  0  0  0  0  0  0  0  0  0
  148.6461  160.9705  130.0334 H   0  0  0  0  0  0  0  0  0  0  0  0
  150.3276  160.5917  129.5277 H   0  0  0  0  0  0  0  0  0  0  0  0
  149.0775  159.3017  129.5277 H   0  0  0  0  0  0  0  0  0  0  0  0
  150.7450  159.3109  131.4999 H   0  0  0  0  0  0  0  0  0  0  0  0
  149.8797  160.7936  132.0601 H   0  0  0  0  0  0  0  0  0  0  0  0
  147.3710  160.6835  132.4687 H   0  0  0  0  0  0  0  0  0  0  0  0
  145.5694  159.2600  133.4966 H   0  0  0  0  0  0  0  0  0  0  0  0
  144.9222  156.5675  134.2025 H   0  0  0  0  0  0  0  0  0  0  0  0
  145.9330  151.8630  133.3730 H   0  0  0  0  0  0  0  0  0  0  0  0
  146.6890  152.9050  132.1230 H   0  0  0  0  0  0  0  0  0  0  0  0
  150.4141  152.6459  131.9843 H   0  0  0  0  0  0  0  0  0  0  0  0
  150.1188  151.8598  133.5739 H   0  0  0  0  0  0  0  0  0  0  0  0
  148.9729  151.2207  130.8565 H   0  0  0  0  0  0  0  0  0  0  0  0
  149.5281  150.1185  132.1644 H   0  0  0  0  0  0  0  0  0  0  0  0
  147.6340  151.3220  133.2990 H   0  0  0  0  0  0  0  0  0  0  0  0
  149.8265  157.1340  131.8513 H   0  0  0  0  0  0  0  0  0  0  0  0
  1  2  1  0
  2  3  1  0
  3  4  2  0
  4  5  1  0
  5  6  2  0
  6  7  1  0
  7  8  2  0
  8  9  1  0
  9 10  1  0
  9 11  2  0
  8 12  1  0
 12 13  1  0
 13 14  2  0
 13 15  1  0
 15 16  1  0
 16 17  1  0
 17 18  1  0
 12 19  1  0
 19 20  2  0
 20  3  1  0
 19  6  1  0
  1 21  1  0
  1 22  1  0
  1 23  1  0
  2 24  1  0
  2 25  1  0
  4 26  1  0
  5 27  1  0
  7 28  1  0
 10 29  1  0
 10 30  1  0
 16 31  1  0
 16 32  1  0
 17 33  1  0
 17 34  1  0
 18 35  1  0
 20 36  1  0
M  END
>  <UniqueID>  (55) 
55

>  <SMILES>  (55) 
CCc1ccc2cc(C(N)=O)n(C(=O)OCCO)c2c1

>  <Energy>  (55) 
66.85663850077083

>  <Genealogy>  (55) 
CCc1ccc2cc(C(N)=O)n(C(=O)OCCO)c2c1 (3D coordinates assigned)
CCc1ccc2cc(C(N)=O)n(C(=O)OCCO)c2c1 (optimized conformer: 66.85663850077083 kcal/mol)

>  <smiles>  (55) 
CCc1ccc2cc(C(N)=O)n(C(=O)OCCO)c2c1

>  <score_type>  (55) 
oracle

>  <origin>  (55) 
adg

>  <m_score__min__energy>  (55) 
-6.5300000000000002

>  <m_primary>  (55) 
energy

$$$$
55:0
     RDKit          3D

 27 28  0  0  0  0  0  0  0  0999 V2000
  149.3780  158.9510  133.2660 N   0  0  0  0  0  0  0  0  0  0  0  0
  148.2510  159.6710  132.7650 C   0  0  0  0  0  0  0  0  0  0  0  0
  148.4400  160.6540  132.0020 O   0  0  0  0  0  0  0  0  0  0  0  0
  146.8700  159.2540  133.0810 C   0  0  0  0  0  0  0  0  0  0  0  0
  145.7680  160.1020  132.9910 C   0  0  0  0  0  0  0  0  0  0  0  0
  144.6870  159.3360  133.3630 C   0  0  0  0  0  0  0  0  0  0  0  0
  143.3450  159.6820  133.4880 C   0  0  0  0  0  0  0  0  0  0  0  0
  142.4520  158.7020  133.9530 C   0  0  0  0  0  0  0  0  0  0  0  0
  142.9150  157.4070  134.2930 C   0  0  0  0  0  0  0  0  0  0  0  0
  141.9630  156.3690  134.8140 C   0  0  0  0  0  0  0  0  0  0  0  0
  141.2440  156.8850  135.8770 F   0  0  0  0  0  0  0  0  0  0  0  0
  141.0890  155.9940  133.8110 F   0  0  0  0  0  0  0  0  0  0  0  0
  144.2870  157.0950  134.1610 C   0  0  0  0  0  0  0  0  0  0  0  0
  145.1490  158.0820  133.6700 C   0  0  0  0  0  0  0  0  0  0  0  0
  146.4870  158.0140  133.4930 N   0  0  0  0  0  0  0  0  0  0  0  0
  147.3400  156.9110  133.8390 C   0  0  0  0  0  0  0  0  0  0  0  0
  147.5710  156.6590  135.0530 O   0  0  0  0  0  0  0  0  0  0  0  0
  147.9770  156.0890  132.8030 C   0  0  0  0  0  0  0  0  0  0  0  0
  149.2160  156.1600  132.5960 O   0  0  0  0  0  0  0  0  0  0  0  0
  149.2670  158.0250  133.7340 H   0  0  0  0  0  0  0  0  0  0  0  0
  150.3460  159.2970  133.0770 H   0  0  0  0  0  0  0  0  0  0  0  0
  145.7632  161.1592  132.6871 H   0  0  0  0  0  0  0  0  0  0  0  0
  142.9939  160.6922  133.2306 H   0  0  0  0  0  0  0  0  0  0  0  0
  141.3834  158.9425  134.0540 H   0  0  0  0  0  0  0  0  0  0  0  0
  142.5360  155.4923  135.1502 H   0  0  0  0  0  0  0  0  0  0  0  0
  144.6680  156.1008  134.4374 H   0  0  0  0  0  0  0  0  0  0  0  0
  147.3638  155.4028  132.2004 H   0  0  0  0  0  0  0  0  0  0  0  0
  1  2  1  0
  2  3  2  0
  2  4  1  0
  4  5  2  0
  5  6  1  0
  6  7  2  0
  7  8  1  0
  8  9  2  0
  9 10  1  0
 10 11  1  0
 10 12  1  0
  9 13  1  0
 13 14  2  0
 14 15  1  0
 15 16  1  0
 16 17  2  0
 16 18  1  0
 18 19  2  0
 15  4  1  0
 14  6  1  0
  1 20  1  0
  1 21  1  0
  5 22  1  0
  7 23  1  0
  8 24  1  0
 10 25  1  0
 13 26  1  0
 18 27  1  0
M  END
>  <UniqueID>  (56) 
56

>  <SMILES>  (56) 
NC(=O)c1cc2ccc(C(F)F)cc2n1C(=O)C=O

>  <Energy>  (56) 
67.10019288720196

>  <Genealogy>  (56) 
NC(=O)c1cc2ccc(C(F)F)cc2n1C(=O)C=O (3D coordinates assigned)
NC(=O)c1cc2ccc(C(F)F)cc2n1C(=O)C=O (optimized conformer: 67.10019288720196 kcal/mol)

>  <smiles>  (56) 
NC(=O)c1cc2ccc(C(F)F)cc2n1C(=O)C=O

>  <score_type>  (56) 
oracle

>  <origin>  (56) 
adg

>  <m_score__min__energy>  (56) 
-5.6699999999999999

>  <m_primary>  (56) 
energy

$$$$
56:0
     RDKit          3D

 40 41  0  0  0  0  0  0  0  0999 V2000
  139.1140  156.9000  133.3060 C   0  0  0  0  0  0  0  0  0  0  0  0
  140.0480  158.0580  132.9250 C   0  0  1  0  0  0  0  0  0  0  0  0
  139.3000  159.2040  132.2970 C   0  0  0  0  0  0  0  0  0  0  0  0
  138.1680  159.0310  131.7720 O   0  0  0  0  0  0  0  0  0  0  0  0
  139.8420  160.4830  132.3350 O   0  0  0  0  0  0  0  0  0  0  0  0
  140.8340  158.5140  134.0920 N   0  0  0  0  0  0  0  0  0  0  0  0
  140.2760  158.4280  135.4490 C   0  0  0  0  0  0  0  0  0  0  0  0
  142.1900  158.9910  133.9240 C   0  0  0  0  0  0  0  0  0  0  0  0
  142.4610  160.3870  133.8830 C   0  0  0  0  0  0  0  0  0  0  0  0
  143.7750  160.8640  133.7420 C   0  0  0  0  0  0  0  0  0  0  0  0
  144.8000  159.9310  133.6400 C   0  0  0  0  0  0  0  0  0  0  0  0
  146.1570  160.1170  133.5030 C   0  0  0  0  0  0  0  0  0  0  0  0
  146.7030  158.8350  133.4440 C   0  0  0  0  0  0  0  0  0  0  0  0
  148.1300  158.5550  133.1830 C   0  0  0  0  0  0  0  0  0  0  0  0
  148.6880  157.2680  133.4690 N   0  0  0  0  0  0  0  0  0  0  0  0
  148.8800  159.4600  132.7320 O   0  0  0  0  0  0  0  0  0  0  0  0
  145.7190  157.8960  133.5500 N   0  0  0  0  0  0  0  0  0  0  0  0
  145.8600  156.4650  133.5710 C   0  0  0  0  0  0  0  0  0  0  0  0
  146.3890  155.8740  132.5890 O   0  0  0  0  0  0  0  0  0  0  0  0
  145.3710  155.6610  134.7410 C   0  0  0  0  0  0  0  0  0  0  0  0
  146.5110  154.9790  135.4320 C   0  0  0  0  0  0  0  0  0  0  0  0
  146.3700  153.8140  135.8870 O   0  0  0  0  0  0  0  0  0  0  0  0
  147.7320  155.6300  135.5640 O   0  0  0  0  0  0  0  0  0  0  0  0
  144.5620  158.5830  133.6640 C   0  0  0  0  0  0  0  0  0  0  0  0
  143.2680  158.0780  133.8240 C   0  0  0  0  0  0  0  0  0  0  0  0
  139.0525  156.8238  134.4016 H   0  0  0  0  0  0  0  0  0  0  0  0
  138.1111  157.0872  132.8946 H   0  0  0  0  0  0  0  0  0  0  0  0
  139.5093  155.9595  132.8946 H   0  0  0  0  0  0  0  0  0  0  0  0
  140.7478  157.6732  132.1685 H   0  0  0  0  0  0  0  0  0  0  0  0
  141.0831  158.5524  136.1859 H   0  0  0  0  0  0  0  0  0  0  0  0
  139.5268  159.2213  135.5884 H   0  0  0  0  0  0  0  0  0  0  0  0
  139.8005  157.4459  135.5884 H   0  0  0  0  0  0  0  0  0  0  0  0
  141.6299  161.1032  133.9628 H   0  0  0  0  0  0  0  0  0  0  0  0
  143.9861  161.9432  133.7132 H   0  0  0  0  0  0  0  0  0  0  0  0
  146.6966  161.0742  133.4511 H   0  0  0  0  0  0  0  0  0  0  0  0
  149.6980  157.0860  133.2840 H   0  0  0  0  0  0  0  0  0  0  0  0
  148.0860  156.4750  133.7850 H   0  0  0  0  0  0  0  0  0  0  0  0
  144.8665  156.3307  135.4530 H   0  0  0  0  0  0  0  0  0  0  0  0
  144.6720  154.8948  134.3745 H   0  0  0  0  0  0  0  0  0  0  0  0
  143.0909  156.9934  133.8713 H   0  0  0  0  0  0  0  0  0  0  0  0
  1  2  1  0
  2  3  1  0
  3  4  2  0
  3  5  1  0
  2  6  1  0
  6  7  1  0
  6  8  1  0
  8  9  2  0
  9 10  1  0
 10 11  2  0
 11 12  1  0
 12 13  2  0
 13 14  1  0
 14 15  1  0
 14 16  2  0
 13 17  1  0
 17 18  1  0
 18 19  2  0
 18 20  1  0
 20 21  1  0
 21 22  2  0
 21 23  1  0
 17 24  1  0
 24 25  2  0
 25  8  1  0
 24 11  1  0
  1 26  1  0
  1 27  1  0
  1 28  1  0
  2 29  1  6
  7 30  1  0
  7 31  1  0
  7 32  1  0
  9 33  1  0
 10 34  1  0
 12 35  1  0
 15 36  1  0
 15 37  1  0
 20 38  1  0
 20 39  1  0
 25 40  1  0
M  CHG  2   5  -1  23  -1
M  END
>  <UniqueID>  (57) 
57

>  <SMILES>  (57) 
C[C@@H](C(=O)[O-])N(C)c1ccc2cc(C(N)=O)n(C(=O)CC(=O)[O-])c2c1

>  <Energy>  (57) 
80.05856243497652

>  <Genealogy>  (57) 
CC(C(=O)[O-])N(C)c1ccc2cc(C(N)=O)n(C(=O)CC(=O)[O-])c2c1 (protonated)
C[C@@H](C(=O)[O-])N(C)c1ccc2cc(C(N)=O)n(C(=O)CC(=O)[O-])c2c1 (chirality)
C[C@@H](C(=O)[O-])N(C)c1ccc2cc(C(N)=O)n(C(=O)CC(=O)[O-])c2c1 (3D coordinates assigned)
C[C@@H](C(=O)[O-])N(C)c1ccc2cc(C(N)=O)n(C(=O)CC(=O)[O-])c2c1 (optimized conformer: 80.05856243497652 kcal/mol)

>  <smiles>  (57) 
CC(C(=O)O)N(C)c1ccc2cc(C(N)=O)n(C(=O)CC(=O)O)c2c1

>  <score_type>  (57) 
oracle

>  <origin>  (57) 
adg

>  <m_score__min__energy>  (57) 
-7.0300000000000002

>  <m_primary>  (57) 
energy

$$$$
57:0
     RDKit          3D

 43 45  0  0  0  0  0  0  0  0999 V2000
  141.3360  159.4700  132.8150 N   0  0  0  0  0  0  0  0  0  0  0  0
  142.2790  159.8840  133.8010 C   0  0  0  0  0  0  0  0  0  0  0  0
  141.8620  160.3960  134.8730 O   0  0  0  0  0  0  0  0  0  0  0  0
  143.7270  159.7020  133.5620 C   0  0  0  0  0  0  0  0  0  0  0  0
  144.6770  160.7070  133.7380 C   0  0  0  0  0  0  0  0  0  0  0  0
  145.8870  160.1290  133.4200 C   0  0  0  0  0  0  0  0  0  0  0  0
  147.1660  160.6770  133.3940 C   0  0  0  0  0  0  0  0  0  0  0  0
  148.2300  159.8500  132.9910 C   0  0  0  0  0  0  0  0  0  0  0  0
  147.9970  158.5050  132.6130 C   0  0  0  0  0  0  0  0  0  0  0  0
  149.1390  157.6530  132.1360 C   0  0  0  0  0  0  0  0  0  0  0  0
  149.2280  156.5080  132.9090 F   0  0  0  0  0  0  0  0  0  0  0  0
  150.3210  158.3660  132.2340 F   0  0  0  0  0  0  0  0  0  0  0  0
  146.6850  157.9860  132.6460 C   0  0  0  0  0  0  0  0  0  0  0  0
  145.6460  158.8250  133.0710 C   0  0  0  0  0  0  0  0  0  0  0  0
  144.3270  158.5480  133.1580 N   0  0  0  0  0  0  0  0  0  0  0  0
  143.6940  157.2930  132.8710 C   0  0  0  0  0  0  0  0  0  0  0  0
  142.8800  157.2070  131.9110 O   0  0  0  0  0  0  0  0  0  0  0  0
  143.9950  156.0820  133.6960 C   0  0  0  0  0  0  0  0  0  0  0  0
  142.9240  155.8450  134.6000 O   0  0  0  0  0  0  0  0  0  0  0  0
  141.6110  156.2480  134.3410 C   0  0  0  0  0  0  0  0  0  0  0  0
  140.8910  155.5830  133.5440 O   0  0  0  0  0  0  0  0  0  0  0  0
  141.0900  157.4180  135.0040 N   0  0  0  0  0  0  0  0  0  0  0  0
  141.6400  157.5830  136.3550 C   0  0  0  0  0  0  0  0  0  0  0  0
  140.6160  158.3930  137.1410 C   0  0  0  0  0  0  0  0  0  0  0  0
  139.3070  158.2520  136.3730 C   0  0  0  0  0  0  0  0  0  0  0  0
  139.6330  157.3750  135.1710 C   0  0  0  0  0  0  0  0  0  0  0  0
  141.6460  159.0050  131.9320 H   0  0  0  0  0  0  0  0  0  0  0  0
  144.4985  161.7428  134.0623 H   0  0  0  0  0  0  0  0  0  0  0  0
  147.3395  161.7249  133.6799 H   0  0  0  0  0  0  0  0  0  0  0  0
  149.2537  160.2520  132.9692 H   0  0  0  0  0  0  0  0  0  0  0  0
  148.9636  157.3704  131.0875 H   0  0  0  0  0  0  0  0  0  0  0  0
  146.4827  156.9474  132.3452 H   0  0  0  0  0  0  0  0  0  0  0  0
  144.1174  155.2103  133.0363 H   0  0  0  0  0  0  0  0  0  0  0  0
  144.9231  156.2466  134.2630 H   0  0  0  0  0  0  0  0  0  0  0  0
  141.3330  158.2670  134.4370 H   0  0  0  0  0  0  0  0  0  0  0  0
  141.7912  156.6008  136.8267 H   0  0  0  0  0  0  0  0  0  0  0  0
  142.6152  158.0912  136.3290 H   0  0  0  0  0  0  0  0  0  0  0  0
  140.5089  157.9920  138.1597 H   0  0  0  0  0  0  0  0  0  0  0  0
  140.9187  159.4458  137.2406 H   0  0  0  0  0  0  0  0  0  0  0  0
  138.5419  157.7734  137.0019 H   0  0  0  0  0  0  0  0  0  0  0  0
  138.9054  159.2296  136.0680 H   0  0  0  0  0  0  0  0  0  0  0  0
  139.3022  156.3420  135.3540 H   0  0  0  0  0  0  0  0  0  0  0  0
  139.1192  157.7338  134.2670 H   0  0  0  0  0  0  0  0  0  0  0  0
  1  2  1  0
  2  3  2  0
  2  4  1  0
  4  5  2  0
  5  6  1  0
  6  7  2  0
  7  8  1  0
  8  9  2  0
  9 10  1  0
 10 11  1  0
 10 12  1  0
  9 13  1  0
 13 14  2  0
 14 15  1  0
 15 16  1  0
 16 17  2  0
 16 18  1  0
 18 19  1  0
 19 20  1  0
 20 21  2  0
 20 22  1  0
 22 23  1  0
 23 24  1  0
 24 25  1  0
 25 26  1  0
 15  4  1  0
 26 22  1  0
 14  6  1  0
  1 27  1  0
  5 28  1  0
  7 29  1  0
  8 30  1  0
 10 31  1  0
 13 32  1  0
 18 33  1  0
 18 34  1  0
 22 35  1  0
 23 36  1  0
 23 37  1  0
 24 38  1  0
 24 39  1  0
 25 40  1  0
 25 41  1  0
 26 42  1  0
 26 43  1  0
M  CHG  2   1  -1  22   1
M  END
>  <UniqueID>  (58) 
58

>  <SMILES>  (58) 
[NH-]C(=O)c1cc2ccc(C(F)F)cc2n1C(=O)COC(=O)[NH+]1CCCC1

>  <Energy>  (58) 
84.58515315302371

>  <Genealogy>  (58) 
[NH-]C(=O)c1cc2ccc(C(F)F)cc2n1C(=O)COC(=O)[NH+]1CCCC1 (protonated)
[NH-]C(=O)c1cc2ccc(C(F)F)cc2n1C(=O)COC(=O)[NH+]1CCCC1 (3D coordinates assigned)
[NH-]C(=O)c1cc2ccc(C(F)F)cc2n1C(=O)COC(=O)[NH+]1CCCC1 (nonaromatic ring conformer: 84.58515315302371 kcal/mol)

>  <smiles>  (58) 
NC(=O)c1cc2ccc(C(F)F)cc2n1C(=O)COC(=O)N1CCCC1

>  <score_type>  (58) 
oracle

>  <origin>  (58) 
adg

>  <m_score__min__energy>  (58) 
-6.0999999999999996

>  <m_primary>  (58) 
energy

$$$$
58:0
     RDKit          3D

 43 45  0  0  0  0  0  0  0  0999 V2000
  139.8890  158.2190  136.4390 C   0  0  0  0  0  0  0  0  0  0  0  0
  140.2450  158.2750  134.9430 C   0  0  1  0  0  0  0  0  0  0  0  0
  141.4780  157.3810  134.6810 C   0  0  0  0  0  0  0  0  0  0  0  0
  142.6830  158.1770  134.2420 C   0  0  0  0  0  0  0  0  0  0  0  0
  142.6020  159.5860  134.1080 C   0  0  0  0  0  0  0  0  0  0  0  0
  143.7260  160.3350  133.7250 C   0  0  0  0  0  0  0  0  0  0  0  0
  144.9120  159.6510  133.4750 C   0  0  0  0  0  0  0  0  0  0  0  0
  146.1520  160.1300  133.1200 C   0  0  0  0  0  0  0  0  0  0  0  0
  146.9680  159.0040  133.0180 C   0  0  0  0  0  0  0  0  0  0  0  0
  148.3770  159.0580  132.5750 C   0  0  0  0  0  0  0  0  0  0  0  0
  148.7870  158.4490  131.3540 N   0  0  0  0  0  0  0  0  0  0  0  0
  149.2230  159.6870  133.2650 O   0  0  0  0  0  0  0  0  0  0  0  0
  146.2600  157.8740  133.3060 N   0  0  0  0  0  0  0  0  0  0  0  0
  146.7510  156.5280  133.3900 C   0  0  0  0  0  0  0  0  0  0  0  0
  147.5280  156.0860  132.5010 O   0  0  0  0  0  0  0  0  0  0  0  0
  146.3710  155.6970  134.4910 N   0  0  0  0  0  0  0  0  0  0  0  0
  147.3240  154.9540  135.3070 C   0  0  0  0  0  0  0  0  0  0  0  0
  146.6130  153.9210  136.1200 C   0  0  0  0  0  0  0  0  0  0  0  0
  147.2690  153.0340  136.7280 O   0  0  0  0  0  0  0  0  0  0  0  0
  145.2290  153.9540  136.2360 O   0  0  0  0  0  0  0  0  0  0  0  0
  145.0040  158.2870  133.5810 C   0  0  0  0  0  0  0  0  0  0  0  0
  143.9040  157.5170  133.9780 C   0  0  0  0  0  0  0  0  0  0  0  0
  139.0820  157.8790  133.9850 C   0  0  0  0  0  0  0  0  0  0  0  0
  139.4750  156.8240  132.9540 C   0  0  0  0  0  0  0  0  0  0  0  0
  139.1170  158.2270  132.4970 C   0  0  0  0  0  0  0  0  0  0  0  0
  140.8002  158.3623  137.0383 H   0  0  0  0  0  0  0  0  0  0  0  0
  139.1666  159.0145  136.6740 H   0  0  0  0  0  0  0  0  0  0  0  0
  139.4457  157.2401  136.6740 H   0  0  0  0  0  0  0  0  0  0  0  0
  140.4632  159.3288  134.7153 H   0  0  0  0  0  0  0  0  0  0  0  0
  141.7280  156.8436  135.6077 H   0  0  0  0  0  0  0  0  0  0  0  0
  141.2214  156.6854  133.8684 H   0  0  0  0  0  0  0  0  0  0  0  0
  141.6486  160.0977  134.3062 H   0  0  0  0  0  0  0  0  0  0  0  0
  143.6709  161.4291  133.6256 H   0  0  0  0  0  0  0  0  0  0  0  0
  146.4387  161.1786  132.9522 H   0  0  0  0  0  0  0  0  0  0  0  0
  148.5010  157.4730  131.1180 H   0  0  0  0  0  0  0  0  0  0  0  0
  148.0559  154.4597  134.6513 H   0  0  0  0  0  0  0  0  0  0  0  0
  147.8375  155.6524  135.9841 H   0  0  0  0  0  0  0  0  0  0  0  0
  143.9884  156.4252  134.0818 H   0  0  0  0  0  0  0  0  0  0  0  0
  138.3147  158.0353  134.7576 H   0  0  0  0  0  0  0  0  0  0  0  0
  140.5167  156.4759  132.8940 H   0  0  0  0  0  0  0  0  0  0  0  0
  139.1216  155.8126  132.7048 H   0  0  0  0  0  0  0  0  0  0  0  0
  139.8995  158.8944  132.1069 H   0  0  0  0  0  0  0  0  0  0  0  0
  138.3976  158.6512  131.7811 H   0  0  0  0  0  0  0  0  0  0  0  0
  1  2  1  0
  2  3  1  0
  3  4  1  0
  4  5  2  0
  5  6  1  0
  6  7  2  0
  7  8  1  0
  8  9  2  0
  9 10  1  0
 10 11  1  0
 10 12  2  0
  9 13  1  0
 13 14  1  0
 14 15  2  0
 14 16  1  0
 16 17  1  0
 17 18  1  0
 18 19  2  0
 18 20  1  0
 13 21  1  0
 21 22  2  0
  2 23  1  0
 23 24  1  0
 24 25  1  0
 22  4  1  0
 25 23  1  0
 21  7  1  0
  1 26  1  0
  1 27  1  0
  1 28  1  0
  2 29  1  6
  3 30  1  0
  3 31  1  0
  5 32  1  0
  6 33  1  0
  8 34  1  0
 11 35  1  0
 17 36  1  0
 17 37  1  0
 22 38  1  0
 23 39  1  0
 24 40  1  0
 24 41  1  0
 25 42  1  0
 25 43  1  0
M  CHG  3  11  -1  16  -1  20  -1
M  END
>  <UniqueID>  (59) 
59

>  <SMILES>  (59) 
C[C@@H](Cc1ccc2cc(C([NH-])=O)n(C(=O)[N-]CC(=O)[O-])c2c1)C1CC1

>  <Energy>  (59) 
345.2405031728963

>  <Genealogy>  (59) 
CC(Cc1ccc2cc(C([NH-])=O)n(C(=O)[N-]CC(=O)[O-])c2c1)C1CC1 (protonated)
C[C@@H](Cc1ccc2cc(C([NH-])=O)n(C(=O)[N-]CC(=O)[O-])c2c1)C1CC1 (chirality)
C[C@@H](Cc1ccc2cc(C([NH-])=O)n(C(=O)[N-]CC(=O)[O-])c2c1)C1CC1 (3D coordinates assigned)
C[C@@H](Cc1ccc2cc(C([NH-])=O)n(C(=O)[N-]CC(=O)[O-])c2c1)C1CC1 (nonaromatic ring conformer: 345.2405031728963 kcal/mol)

>  <smiles>  (59) 
CC(Cc1ccc2cc(C(N)=O)n(C(=O)NCC(=O)O)c2c1)C1CC1

>  <score_type>  (59) 
oracle

>  <origin>  (59) 
adg

>  <m_score__min__energy>  (59) 
-8.5099999999999998

>  <m_primary>  (59) 
energy

$$$$
59:0
     RDKit          3D

 37 38  0  0  0  0  0  0  0  0999 V2000
  148.8510  162.0120  130.4280 C   0  0  0  0  0  0  0  0  0  0  0  0
  148.5540  161.0700  131.4990 N   0  0  0  0  0  0  0  0  0  0  0  0
  149.3460  159.8930  131.7080 C   0  0  0  0  0  0  0  0  0  0  0  0
  150.3710  159.6890  131.0030 O   0  0  0  0  0  0  0  0  0  0  0  0
  148.9690  158.8980  132.7690 C   0  0  0  0  0  0  0  0  0  0  0  0
  148.8160  157.4740  132.2040 C   0  0  0  0  0  0  0  0  0  0  0  0
  148.1520  156.4870  133.1810 C   0  0  0  0  0  0  0  0  0  0  0  0
  146.6850  156.7610  133.3940 C   0  0  0  0  0  0  0  0  0  0  0  0
  145.7680  155.6860  133.5010 C   0  0  0  0  0  0  0  0  0  0  0  0
  144.4010  155.9290  133.7140 C   0  0  0  0  0  0  0  0  0  0  0  0
  143.9820  157.2510  133.8190 C   0  0  0  0  0  0  0  0  0  0  0  0
  142.7230  157.7660  134.0190 C   0  0  0  0  0  0  0  0  0  0  0  0
  142.8900  159.1490  134.0460 C   0  0  0  0  0  0  0  0  0  0  0  0
  141.7900  160.0930  134.3350 C   0  0  0  0  0  0  0  0  0  0  0  0
  141.3620  161.0410  133.3600 N   0  0  0  0  0  0  0  0  0  0  0  0
  141.2550  160.0980  135.4750 O   0  0  0  0  0  0  0  0  0  0  0  0
  144.2000  159.4780  133.8600 N   0  0  0  0  0  0  0  0  0  0  0  0
  144.7680  160.7920  133.7380 C   0  0  0  0  0  0  0  0  0  0  0  0
  144.0320  161.8120  133.8050 O   0  0  0  0  0  0  0  0  0  0  0  0
  146.1390  160.9510  133.5740 O   0  0  0  0  0  0  0  0  0  0  0  0
  144.8570  158.3040  133.7250 C   0  0  0  0  0  0  0  0  0  0  0  0
  146.2200  158.0920  133.4880 C   0  0  0  0  0  0  0  0  0  0  0  0
  149.1550  162.9762  130.8615 H   0  0  0  0  0  0  0  0  0  0  0  0
  149.6677  161.6154  129.8069 H   0  0  0  0  0  0  0  0  0  0  0  0
  147.9545  162.1556  129.8069 H   0  0  0  0  0  0  0  0  0  0  0  0
  147.7270  161.2510  132.1120 H   0  0  0  0  0  0  0  0  0  0  0  0
  149.7521  158.8902  133.5414 H   0  0  0  0  0  0  0  0  0  0  0  0
  147.9975  159.2016  133.1862 H   0  0  0  0  0  0  0  0  0  0  0  0
  148.2019  157.5263  131.2928 H   0  0  0  0  0  0  0  0  0  0  0  0
  149.8302  157.0966  132.0065 H   0  0  0  0  0  0  0  0  0  0  0  0
  148.2631  155.4690  132.7794 H   0  0  0  0  0  0  0  0  0  0  0  0
  148.6516  156.6032  134.1541 H   0  0  0  0  0  0  0  0  0  0  0  0
  146.1303  154.6508  133.4164 H   0  0  0  0  0  0  0  0  0  0  0  0
  143.6837  155.0990  133.7953 H   0  0  0  0  0  0  0  0  0  0  0  0
  141.7836  157.2053  134.1334 H   0  0  0  0  0  0  0  0  0  0  0  0
  141.9990  161.8010  133.0340 H   0  0  0  0  0  0  0  0  0  0  0  0
  146.9118  158.9401  133.3777 H   0  0  0  0  0  0  0  0  0  0  0  0
  1  2  1  0
  2  3  1  0
  3  4  2  0
  3  5  1  0
  5  6  1  0
  6  7  1  0
  7  8  1  0
  8  9  2  0
  9 10  1  0
 10 11  2  0
 11 12  1  0
 12 13  2  0
 13 14  1  0
 14 15  1  0
 14 16  2  0
 13 17  1  0
 17 18  1  0
 18 19  2  0
 18 20  1  0
 17 21  1  0
 21 22  2  0
 22  8  1  0
 21 11  1  0
  1 23  1  0
  1 24  1  0
  1 25  1  0
  2 26  1  0
  5 27  1  0
  5 28  1  0
  6 29  1  0
  6 30  1  0
  7 31  1  0
  7 32  1  0
  9 33  1  0
 10 34  1  0
 12 35  1  0
 15 36  1  0
 22 37  1  0
M  CHG  2  15  -1  20  -1
M  END
>  <UniqueID>  (60) 
60

>  <SMILES>  (60) 
CNC(=O)CCCc1ccc2cc(C([NH-])=O)n(C(=O)[O-])c2c1

>  <Energy>  (60) 
67.51059061764374

>  <Genealogy>  (60) 
CNC(=O)CCCc1ccc2cc(C([NH-])=O)n(C(=O)[O-])c2c1 (protonated)
CNC(=O)CCCc1ccc2cc(C([NH-])=O)n(C(=O)[O-])c2c1 (3D coordinates assigned)
CNC(=O)CCCc1ccc2cc(C([NH-])=O)n(C(=O)[O-])c2c1 (optimized conformer: 67.51059061764374 kcal/mol)

>  <smiles>  (60) 
CNC(=O)CCCc1ccc2cc(C(N)=O)n(C(=O)O)c2c1

>  <score_type>  (60) 
oracle

>  <origin>  (60) 
adg

>  <m_score__min__energy>  (60) 
-7.3499999999999996

>  <m_primary>  (60) 
energy

$$$$
60:0
     RDKit          3D

 43 45  0  0  0  0  0  0  0  0999 V2000
  141.4290  156.0980  135.8850 C   0  0  0  0  0  0  0  0  0  0  0  0
  141.5250  155.8040  134.5900 C   0  0  0  0  0  0  0  0  0  0  0  0
  142.3120  156.6180  133.6440 C   0  0  0  0  0  0  0  0  0  0  0  0
  143.0380  156.0370  132.7950 O   0  0  0  0  0  0  0  0  0  0  0  0
  142.2920  158.0530  133.6880 N   0  0  0  0  0  0  0  0  0  0  0  0
  141.2100  158.8770  133.7300 C   0  0  0  0  0  0  0  0  0  0  0  0
  139.7970  158.4480  133.6750 C   0  0  0  0  0  0  0  0  0  0  0  0
  139.0640  158.2550  134.8830 N   0  0  0  0  0  0  0  0  0  0  0  0
  139.2230  158.2650  132.5680 O   0  0  0  0  0  0  0  0  0  0  0  0
  141.6170  160.2110  133.7800 C   0  0  0  0  0  0  0  0  0  0  0  0
  142.9930  160.1720  133.7560 C   0  0  0  0  0  0  0  0  0  0  0  0
  143.9210  161.2070  133.7770 C   0  0  0  0  0  0  0  0  0  0  0  0
  145.2850  160.8700  133.7460 C   0  0  0  0  0  0  0  0  0  0  0  0
  145.7000  159.5130  133.7020 C   0  0  0  0  0  0  0  0  0  0  0  0
  147.1020  159.1760  133.6750 N   0  0  0  0  0  0  0  0  0  0  0  0
  148.0980  160.1220  133.1520 C   0  0  0  0  0  0  0  0  0  0  0  0
  149.1400  159.4330  132.2540 C   0  0  0  0  0  0  0  0  0  0  0  0
  148.5330  158.5100  131.1800 C   0  0  0  0  0  0  0  0  0  0  0  0
  147.8310  157.3530  131.7760 N   0  0  0  0  0  0  0  0  0  0  0  0
  148.2550  157.0400  133.1540 C   0  0  0  0  0  0  0  0  0  0  0  0
  147.5780  157.9030  134.2310 C   0  0  0  0  0  0  0  0  0  0  0  0
  144.7220  158.4910  133.6700 C   0  0  0  0  0  0  0  0  0  0  0  0
  143.3740  158.8590  133.6980 C   0  0  0  0  0  0  0  0  0  0  0  0
  140.8296  155.4598  136.5509 H   0  0  0  0  0  0  0  0  0  0  0  0
  141.9491  156.9791  136.2890 H   0  0  0  0  0  0  0  0  0  0  0  0
  140.9958  154.9178  134.2097 H   0  0  0  0  0  0  0  0  0  0  0  0
  138.0460  158.4810  134.9350 H   0  0  0  0  0  0  0  0  0  0  0  0
  140.9754  161.1032  133.8283 H   0  0  0  0  0  0  0  0  0  0  0  0
  143.5975  162.2576  133.8167 H   0  0  0  0  0  0  0  0  0  0  0  0
  146.0414  161.6686  133.7560 H   0  0  0  0  0  0  0  0  0  0  0  0
  147.5791  160.8936  132.5644 H   0  0  0  0  0  0  0  0  0  0  0  0
  148.6292  160.5608  134.0095 H   0  0  0  0  0  0  0  0  0  0  0  0
  149.7285  160.2121  131.7474 H   0  0  0  0  0  0  0  0  0  0  0  0
  149.7526  158.7967  132.9096 H   0  0  0  0  0  0  0  0  0  0  0  0
  147.8166  159.0885  130.5783 H   0  0  0  0  0  0  0  0  0  0  0  0
  149.3552  158.1252  130.5588 H   0  0  0  0  0  0  0  0  0  0  0  0
  147.9350  156.5010  131.1760 H   0  0  0  0  0  0  0  0  0  0  0  0
  146.8070  157.5700  131.8070 H   0  0  0  0  0  0  0  0  0  0  0  0
  148.0177  155.9853  133.3571 H   0  0  0  0  0  0  0  0  0  0  0  0
  149.3330  157.2517  133.2097 H   0  0  0  0  0  0  0  0  0  0  0  0
  146.7218  157.3511  134.6461 H   0  0  0  0  0  0  0  0  0  0  0  0
  148.3177  158.1222  135.0151 H   0  0  0  0  0  0  0  0  0  0  0  0
  145.0157  157.4319  133.6242 H   0  0  0  0  0  0  0  0  0  0  0  0
  1  2  2  0
  2  3  1  0
  3  4  2  0
  3  5  1  0
  5  6  1  0
  6  7  1  0
  7  8  1  0
  7  9  2  0
  6 10  2  0
 10 11  1  0
 11 12  2  0
 12 13  1  0
 13 14  2  0
 14 15  1  0
 15 16  1  0
 16 17  1  0
 17 18  1  0
 18 19  1  0
 19 20  1  0
 20 21  1  0
 14 22  1  0
 22 23  2  0
 23  5  1  0
 23 11  1  0
 21 15  1  0
  1 24  1  0
  1 25  1  0
  2 26  1  0
  8 27  1  0
 10 28  1  0
 12 29  1  0
 13 30  1  0
 16 31  1  0
 16 32  1  0
 17 33  1  0
 17 34  1  0
 18 35  1  0
 18 36  1  0
 19 37  1  0
 19 38  1  0
 20 39  1  0
 20 40  1  0
 21 41  1  0
 21 42  1  0
 22 43  1  0
M  CHG  2   8  -1  19   1
M  END
>  <UniqueID>  (61) 
61

>  <SMILES>  (61) 
C=CC(=O)n1c(C([NH-])=O)cc2ccc(N3CCC[NH2+]CC3)cc21

>  <Energy>  (61) 
91.01205116641731

>  <Genealogy>  (61) 
C=CC(=O)n1c(C([NH-])=O)cc2ccc(N3CCC[NH2+]CC3)cc21 (protonated)
C=CC(=O)n1c(C([NH-])=O)cc2ccc(N3CCC[NH2+]CC3)cc21 (3D coordinates assigned)
C=CC(=O)n1c(C([NH-])=O)cc2ccc(N3CCC[NH2+]CC3)cc21 (nonaromatic ring conformer: 91.01205116641731 kcal/mol)

>  <smiles>  (61) 
C=CC(=O)n1c(C(N)=O)cc2ccc(N3CCCNCC3)cc21

>  <score_type>  (61) 
oracle

>  <origin>  (61) 
adg

>  <m_score__min__energy>  (61) 
-5.5800000000000001

>  <m_primary>  (61) 
energy

$$$$
62:0
     RDKit          3D

 32 33  0  0  0  0  0  0  0  0999 V2000
  147.6330  154.1310  136.6600 C   0  0  0  0  0  0  0  0  0  0  0  0
  146.4210  153.6480  136.1280 O   0  0  0  0  0  0  0  0  0  0  0  0
  145.6570  154.7320  135.6440 C   0  0  0  0  0  0  0  0  0  0  0  0
  145.8380  154.8620  134.1600 C   0  0  0  0  0  0  0  0  0  0  0  0
  145.0440  154.2580  133.3910 O   0  0  0  0  0  0  0  0  0  0  0  0
  146.8870  155.6730  133.6000 N   0  0  0  0  0  0  0  0  0  0  0  0
  148.0840  155.2420  133.1120 C   0  0  0  0  0  0  0  0  0  0  0  0
  148.5790  153.8460  133.1720 C   0  0  0  0  0  0  0  0  0  0  0  0
  147.7530  152.7960  133.6780 N   0  0  0  0  0  0  0  0  0  0  0  0
  149.7350  153.5690  132.7570 O   0  0  0  0  0  0  0  0  0  0  0  0
  148.8180  156.3150  132.6070 C   0  0  0  0  0  0  0  0  0  0  0  0
  148.0240  157.4220  132.7960 C   0  0  0  0  0  0  0  0  0  0  0  0
  148.2540  158.7540  132.4670 C   0  0  0  0  0  0  0  0  0  0  0  0
  147.2440  159.6880  132.7530 C   0  0  0  0  0  0  0  0  0  0  0  0
  146.0280  159.2750  133.3530 C   0  0  0  0  0  0  0  0  0  0  0  0
  144.9560  160.2870  133.6370 C   0  0  0  0  0  0  0  0  0  0  0  0
  143.9340  159.6950  134.3580 F   0  0  0  0  0  0  0  0  0  0  0  0
  145.4850  161.3330  134.3680 F   0  0  0  0  0  0  0  0  0  0  0  0
  145.8290  157.9130  133.6710 C   0  0  0  0  0  0  0  0  0  0  0  0
  146.8610  157.0080  133.3940 C   0  0  0  0  0  0  0  0  0  0  0  0
  147.5846  154.1117  137.7588 H   0  0  0  0  0  0  0  0  0  0  0  0
  148.4628  153.4948  136.3183 H   0  0  0  0  0  0  0  0  0  0  0  0
  147.7978  155.1635  136.3183 H   0  0  0  0  0  0  0  0  0  0  0  0
  144.5942  154.5580  135.8680 H   0  0  0  0  0  0  0  0  0  0  0  0
  145.9930  155.6586  136.1324 H   0  0  0  0  0  0  0  0  0  0  0  0
  148.1020  151.8120  133.6790 H   0  0  0  0  0  0  0  0  0  0  0  0
  146.8160  152.9900  134.0930 H   0  0  0  0  0  0  0  0  0  0  0  0
  149.8197  156.2828  132.1536 H   0  0  0  0  0  0  0  0  0  0  0  0
  149.1982  159.0666  131.9971 H   0  0  0  0  0  0  0  0  0  0  0  0
  147.3984  160.7494  132.5091 H   0  0  0  0  0  0  0  0  0  0  0  0
  144.5595  160.6683  132.6844 H   0  0  0  0  0  0  0  0  0  0  0  0
  144.8868  157.5719  134.1249 H   0  0  0  0  0  0  0  0  0  0  0  0
  1  2  1  0
  2  3  1  0
  3  4  1  0
  4  5  2  0
  4  6  1  0
  6  7  1  0
  7  8  1  0
  8  9  1  0
  8 10  2  0
  7 11  2  0
 11 12  1  0
 12 13  2  0
 13 14  1  0
 14 15  2  0
 15 16  1  0
 16 17  1  0
 16 18  1  0
 15 19  1  0
 19 20  2  0
 20  6  1  0
 20 12  1  0
  1 21  1  0
  1 22  1  0
  1 23  1  0
  3 24  1  0
  3 25  1  0
  9 26  1  0
  9 27  1  0
 11 28  1  0
 13 29  1  0
 14 30  1  0
 16 31  1  0
 19 32  1  0
M  END
>  <UniqueID>  (62) 
62

>  <SMILES>  (62) 
COCC(=O)n1c(C(N)=O)cc2ccc(C(F)F)cc21

>  <Energy>  (62) 
71.20383677008952

>  <Genealogy>  (62) 
COCC(=O)n1c(C(N)=O)cc2ccc(C(F)F)cc21 (3D coordinates assigned)
COCC(=O)n1c(C(N)=O)cc2ccc(C(F)F)cc21 (optimized conformer: 71.20383677008952 kcal/mol)

>  <smiles>  (62) 
COCC(=O)n1c(C(N)=O)cc2ccc(C(F)F)cc21

>  <score_type>  (62) 
oracle

>  <origin>  (62) 
adg

>  <m_score__min__energy>  (62) 
-5.6299999999999999

>  <m_primary>  (62) 
energy

$$$$
63:0
     RDKit          3D

 40 41  0  0  0  0  0  0  0  0999 V2000
  140.0520  158.2170  135.7660 C   0  0  0  0  0  0  0  0  0  0  0  0
  139.7380  158.2960  134.2670 C   0  0  2  0  0  0  0  0  0  0  0  0
  139.3170  156.9300  133.7050 C   0  0  0  0  0  0  0  0  0  0  0  0
  140.3750  155.9840  133.8340 O   0  0  0  0  0  0  0  0  0  0  0  0
  140.3670  154.7460  133.1850 C   0  0  0  0  0  0  0  0  0  0  0  0
  139.3140  154.3230  132.6350 O   0  0  0  0  0  0  0  0  0  0  0  0
  141.5680  153.9590  133.1420 N   0  0  0  0  0  0  0  0  0  0  0  0
  142.8510  154.4170  133.1130 C   0  0  0  0  0  0  0  0  0  0  0  0
  143.2700  155.8200  133.3070 C   0  0  0  0  0  0  0  0  0  0  0  0
  142.5410  156.8970  132.7170 N   0  0  0  0  0  0  0  0  0  0  0  0
  144.2540  156.0730  134.0510 O   0  0  0  0  0  0  0  0  0  0  0  0
  143.7460  153.3680  132.9260 C   0  0  0  0  0  0  0  0  0  0  0  0
  142.9660  152.2360  132.8550 C   0  0  0  0  0  0  0  0  0  0  0  0
  143.3340  150.9080  132.6550 C   0  0  0  0  0  0  0  0  0  0  0  0
  142.3140  149.9460  132.5800 C   0  0  0  0  0  0  0  0  0  0  0  0
  140.9540  150.3240  132.7050 C   0  0  0  0  0  0  0  0  0  0  0  0
  139.8660  149.2910  132.5760 C   0  0  0  0  0  0  0  0  0  0  0  0
  139.4050  149.1570  131.1270 C   0  0  0  0  0  0  0  0  0  0  0  0
  139.4330  147.8300  130.7340 F   0  0  0  0  0  0  0  0  0  0  0  0
  140.6170  151.6830  132.8950 C   0  0  0  0  0  0  0  0  0  0  0  0
  141.6550  152.6190  132.9870 C   0  0  0  0  0  0  0  0  0  0  0  0
  140.9110  158.8480  133.5050 C   0  0  0  0  0  0  0  0  0  0  0  0
  140.9300  158.7900  132.2480 O   0  0  0  0  0  0  0  0  0  0  0  0
  141.9940  159.3980  134.1810 O   0  0  0  0  0  0  0  0  0  0  0  0
  139.1440  158.4455  136.3434 H   0  0  0  0  0  0  0  0  0  0  0  0
  140.3994  157.2034  136.0149 H   0  0  0  0  0  0  0  0  0  0  0  0
  140.8378  158.9454  136.0149 H   0  0  0  0  0  0  0  0  0  0  0  0
  138.8877  158.9825  134.1416 H   0  0  0  0  0  0  0  0  0  0  0  0
  138.4386  156.5670  134.2588 H   0  0  0  0  0  0  0  0  0  0  0  0
  139.0748  157.0461  132.6383 H   0  0  0  0  0  0  0  0  0  0  0  0
  141.6360  156.7310  132.2240 H   0  0  0  0  0  0  0  0  0  0  0  0
  142.8690  157.8800  132.8410 H   0  0  0  0  0  0  0  0  0  0  0  0
  144.8417  153.4300  132.8510 H   0  0  0  0  0  0  0  0  0  0  0  0
  144.3916  150.6213  132.5587 H   0  0  0  0  0  0  0  0  0  0  0  0
  142.5731  148.8886  132.4227 H   0  0  0  0  0  0  0  0  0  0  0  0
  140.2496  148.3200  132.9223 H   0  0  0  0  0  0  0  0  0  0  0  0
  139.0085  149.6082  133.1877 H   0  0  0  0  0  0  0  0  0  0  0  0
  138.3781  149.5406  131.0361 H   0  0  0  0  0  0  0  0  0  0  0  0
  140.0823  149.7354  130.4814 H   0  0  0  0  0  0  0  0  0  0  0  0
  139.5657  151.9981  132.9688 H   0  0  0  0  0  0  0  0  0  0  0  0
  1  2  1  0
  2  3  1  0
  3  4  1  0
  4  5  1  0
  5  6  2  0
  5  7  1  0
  7  8  1  0
  8  9  1  0
  9 10  1  0
  9 11  2  0
  8 12  2  0
 12 13  1  0
 13 14  2  0
 14 15  1  0
 15 16  2  0
 16 17  1  0
 17 18  1  0
 18 19  1  0
 16 20  1  0
 20 21  2  0
  2 22  1  0
 22 23  2  0
 22 24  1  0
 21  7  1  0
 21 13  1  0
  1 25  1  0
  1 26  1  0
  1 27  1  0
  2 28  1  1
  3 29  1  0
  3 30  1  0
 10 31  1  0
 10 32  1  0
 12 33  1  0
 14 34  1  0
 15 35  1  0
 17 36  1  0
 17 37  1  0
 18 38  1  0
 18 39  1  0
 20 40  1  0
M  CHG  1  24  -1
M  END
>  <UniqueID>  (63) 
63

>  <SMILES>  (63) 
C[C@H](COC(=O)n1c(C(N)=O)cc2ccc(CCF)cc21)C(=O)[O-]

>  <Energy>  (63) 
69.2964169091062

>  <Genealogy>  (63) 
CC(COC(=O)n1c(C(N)=O)cc2ccc(CCF)cc21)C(=O)[O-] (protonated)
C[C@H](COC(=O)n1c(C(N)=O)cc2ccc(CCF)cc21)C(=O)[O-] (chirality)
C[C@H](COC(=O)n1c(C(N)=O)cc2ccc(CCF)cc21)C(=O)[O-] (3D coordinates assigned)
C[C@H](COC(=O)n1c(C(N)=O)cc2ccc(CCF)cc21)C(=O)[O-] (optimized conformer: 69.2964169091062 kcal/mol)

>  <smiles>  (63) 
CC(COC(=O)n1c(C(N)=O)cc2ccc(CCF)cc21)C(=O)O

>  <score_type>  (63) 
oracle

>  <origin>  (63) 
adg

>  <m_score__min__energy>  (63) 
-6.46

>  <m_primary>  (63) 
energy

$$$$
64:0
     RDKit          3D

 39 40  0  0  0  0  0  0  0  0999 V2000
  141.6150  160.5140  133.7420 C   0  0  0  0  0  0  0  0  0  0  0  0
  141.9860  159.1980  134.2850 N   0  0  0  0  0  0  0  0  0  0  0  0
  141.6430  159.1470  135.7180 C   0  0  0  0  0  0  0  0  0  0  0  0
  143.4290  158.9460  134.0740 C   0  0  0  0  0  0  0  0  0  0  0  0
  144.1680  160.2550  133.7720 C   0  0  0  0  0  0  0  0  0  0  0  0
  145.2460  160.0200  132.8180 N   0  0  0  0  0  0  0  0  0  0  0  0
  146.6350  160.0860  133.1560 C   0  0  0  0  0  0  0  0  0  0  0  0
  147.1020  161.1100  133.7250 O   0  0  0  0  0  0  0  0  0  0  0  0
  147.4960  158.9770  132.8600 N   0  0  0  0  0  0  0  0  0  0  0  0
  148.6800  158.9920  132.1830 C   0  0  0  0  0  0  0  0  0  0  0  0
  149.2600  160.1520  131.4730 C   0  0  0  0  0  0  0  0  0  0  0  0
  148.4800  161.3130  131.2040 N   0  0  0  0  0  0  0  0  0  0  0  0
  150.4480  160.0980  131.0580 O   0  0  0  0  0  0  0  0  0  0  0  0
  149.2580  157.7240  132.1830 C   0  0  0  0  0  0  0  0  0  0  0  0
  148.3830  156.9230  132.8810 C   0  0  0  0  0  0  0  0  0  0  0  0
  148.4660  155.5720  133.1990 C   0  0  0  0  0  0  0  0  0  0  0  0
  147.4300  155.0100  133.9640 C   0  0  0  0  0  0  0  0  0  0  0  0
  146.3410  155.8050  134.3990 C   0  0  0  0  0  0  0  0  0  0  0  0
  145.2520  155.1900  135.2330 C   0  0  0  0  0  0  0  0  0  0  0  0
  145.2110  153.8260  135.0100 F   0  0  0  0  0  0  0  0  0  0  0  0
  144.0320  155.7460  134.8910 F   0  0  0  0  0  0  0  0  0  0  0  0
  146.2910  157.1760  134.0590 C   0  0  0  0  0  0  0  0  0  0  0  0
  147.3280  157.7030  133.2790 C   0  0  0  0  0  0  0  0  0  0  0  0
  141.4187  161.2104  134.5705 H   0  0  0  0  0  0  0  0  0  0  0  0
  142.4389  160.9015  133.1247 H   0  0  0  0  0  0  0  0  0  0  0  0
  140.7100  160.4141  133.1247 H   0  0  0  0  0  0  0  0  0  0  0  0
  142.5547  159.2826  136.3183 H   0  0  0  0  0  0  0  0  0  0  0  0
  140.9271  159.9486  135.9524 H   0  0  0  0  0  0  0  0  0  0  0  0
  141.1913  158.1718  135.9524 H   0  0  0  0  0  0  0  0  0  0  0  0
  143.8532  158.4928  134.9821 H   0  0  0  0  0  0  0  0  0  0  0  0
  143.5483  158.2662  133.2175 H   0  0  0  0  0  0  0  0  0  0  0  0
  143.4598  160.9817  133.3474 H   0  0  0  0  0  0  0  0  0  0  0  0
  144.5964  160.6474  134.7061 H   0  0  0  0  0  0  0  0  0  0  0  0
  148.1040  161.8990  131.9820 H   0  0  0  0  0  0  0  0  0  0  0  0
  150.2116  157.4263  131.7226 H   0  0  0  0  0  0  0  0  0  0  0  0
  149.3168  154.9617  132.8620 H   0  0  0  0  0  0  0  0  0  0  0  0
  147.4648  153.9426  134.2276 H   0  0  0  0  0  0  0  0  0  0  0  0
  145.4583  155.3837  136.2960 H   0  0  0  0  0  0  0  0  0  0  0  0
  145.4599  157.8120  134.3979 H   0  0  0  0  0  0  0  0  0  0  0  0
  1  2  1  0
  2  3  1  0
  2  4  1  0
  4  5  1  0
  5  6  1  0
  6  7  1  0
  7  8  2  0
  7  9  1  0
  9 10  1  0
 10 11  1  0
 11 12  1  0
 11 13  2  0
 10 14  2  0
 14 15  1  0
 15 16  2  0
 16 17  1  0
 17 18  2  0
 18 19  1  0
 19 20  1  0
 19 21  1  0
 18 22  1  0
 22 23  2  0
 23  9  1  0
 23 15  1  0
  1 24  1  0
  1 25  1  0
  1 26  1  0
  3 27  1  0
  3 28  1  0
  3 29  1  0
  4 30  1  0
  4 31  1  0
  5 32  1  0
  5 33  1  0
 12 34  1  0
 14 35  1  0
 16 36  1  0
 17 37  1  0
 19 38  1  0
 22 39  1  0
M  CHG  2   6  -1  12  -1
M  END
>  <UniqueID>  (64) 
64

>  <SMILES>  (64) 
CN(C)CC[N-]C(=O)n1c(C([NH-])=O)cc2ccc(C(F)F)cc21

>  <Energy>  (64) 
75.03542118394313

>  <Genealogy>  (64) 
CN(C)CC[N-]C(=O)n1c(C([NH-])=O)cc2ccc(C(F)F)cc21 (protonated)
CN(C)CC[N-]C(=O)n1c(C([NH-])=O)cc2ccc(C(F)F)cc21 (3D coordinates assigned)
CN(C)CC[N-]C(=O)n1c(C([NH-])=O)cc2ccc(C(F)F)cc21 (optimized conformer: 75.03542118394313 kcal/mol)

>  <smiles>  (64) 
CN(C)CCNC(=O)n1c(C(N)=O)cc2ccc(C(F)F)cc21

>  <score_type>  (64) 
oracle

>  <origin>  (64) 
adg

>  <m_score__min__energy>  (64) 
-6.21

>  <m_primary>  (64) 
energy

$$$$
65:0
     RDKit          3D

 42 44  0  0  0  0  0  0  0  0999 V2000
  142.8440  156.5890  135.3890 C   0  0  0  0  0  0  0  0  0  0  0  0
  142.7790  157.9820  134.9360 N   0  0  0  0  0  0  0  0  0  0  0  0
  142.0350  158.9370  135.7170 C   0  0  0  0  0  0  0  0  0  0  0  0
  141.3150  159.8070  135.1580 O   0  0  0  0  0  0  0  0  0  0  0  0
  142.0850  158.8970  137.1060 O   0  0  0  0  0  0  0  0  0  0  0  0
  143.3980  158.3630  133.6910 C   0  0  0  0  0  0  0  0  0  0  0  0
  142.7680  158.2360  132.6070 O   0  0  0  0  0  0  0  0  0  0  0  0
  144.7340  158.8940  133.6690 N   0  0  0  0  0  0  0  0  0  0  0  0
  145.1070  160.2040  133.6310 C   0  0  0  0  0  0  0  0  0  0  0  0
  144.1850  161.3580  133.7310 C   0  0  0  0  0  0  0  0  0  0  0  0
  142.7850  161.2020  133.4870 N   0  0  0  0  0  0  0  0  0  0  0  0
  144.6320  162.5010  134.0140 O   0  0  0  0  0  0  0  0  0  0  0  0
  146.4970  160.3100  133.5580 C   0  0  0  0  0  0  0  0  0  0  0  0
  146.9610  159.0130  133.5450 C   0  0  0  0  0  0  0  0  0  0  0  0
  148.2610  158.5270  133.4590 C   0  0  0  0  0  0  0  0  0  0  0  0
  148.4430  157.1340  133.4340 C   0  0  0  0  0  0  0  0  0  0  0  0
  147.3340  156.2520  133.4960 C   0  0  0  0  0  0  0  0  0  0  0  0
  147.5880  154.7910  133.4510 C   0  0  0  0  0  0  0  0  0  0  0  0
  148.3960  154.2080  132.5510 C   0  0  0  0  0  0  0  0  0  0  0  0
  148.6560  152.7480  132.4990 C   0  0  0  0  0  0  0  0  0  0  0  0
  147.6360  151.7970  132.3000 C   0  0  0  0  0  0  0  0  0  0  0  0
  147.9580  150.4380  132.2520 C   0  0  0  0  0  0  0  0  0  0  0  0
  149.2480  150.0360  132.3860 N   0  0  0  0  0  0  0  0  0  0  0  0
  150.2560  150.9290  132.5670 C   0  0  0  0  0  0  0  0  0  0  0  0
  149.9800  152.2970  132.6200 C   0  0  0  0  0  0  0  0  0  0  0  0
  146.0240  156.7890  133.5630 C   0  0  0  0  0  0  0  0  0  0  0  0
  145.8770  158.1790  133.6100 C   0  0  0  0  0  0  0  0  0  0  0  0
  142.8453  156.5607  136.4886 H   0  0  0  0  0  0  0  0  0  0  0  0
  141.9705  156.0388  135.0091 H   0  0  0  0  0  0  0  0  0  0  0  0
  143.7649  156.1225  135.0091 H   0  0  0  0  0  0  0  0  0  0  0  0
  142.3620  160.2640  133.3130 H   0  0  0  0  0  0  0  0  0  0  0  0
  142.1530  162.0330  133.5250 H   0  0  0  0  0  0  0  0  0  0  0  0
  147.0946  161.2327  133.5191 H   0  0  0  0  0  0  0  0  0  0  0  0
  149.1204  159.2120  133.4120 H   0  0  0  0  0  0  0  0  0  0  0  0
  149.4604  156.7215  133.3654 H   0  0  0  0  0  0  0  0  0  0  0  0
  147.0882  154.1519  134.1939 H   0  0  0  0  0  0  0  0  0  0  0  0
  148.8940  154.8498  131.8093 H   0  0  0  0  0  0  0  0  0  0  0  0
  146.5917  152.1224  132.1830 H   0  0  0  0  0  0  0  0  0  0  0  0
  147.1637  149.6914  132.1051 H   0  0  0  0  0  0  0  0  0  0  0  0
  151.2917  150.5737  132.6720 H   0  0  0  0  0  0  0  0  0  0  0  0
  150.7982  153.0195  132.7562 H   0  0  0  0  0  0  0  0  0  0  0  0
  145.1444  156.1286  133.5777 H   0  0  0  0  0  0  0  0  0  0  0  0
  1  2  1  0
  2  3  1  0
  3  4  2  0
  3  5  1  0
  2  6  1  0
  6  7  2  0
  6  8  1  0
  8  9  1  0
  9 10  1  0
 10 11  1  0
 10 12  2  0
  9 13  2  0
 13 14  1  0
 14 15  2  0
 15 16  1  0
 16 17  2  0
 17 18  1  0
 18 19  2  3
 19 20  1  0
 20 21  2  0
 21 22  1  0
 22 23  2  0
 23 24  1  0
 24 25  2  0
 17 26  1  0
 26 27  2  0
 27  8  1  0
 27 14  1  0
 25 20  1  0
  1 28  1  0
  1 29  1  0
  1 30  1  0
 11 31  1  0
 11 32  1  0
 13 33  1  0
 15 34  1  0
 16 35  1  0
 18 36  1  0
 19 37  1  0
 21 38  1  0
 22 39  1  0
 24 40  1  0
 25 41  1  0
 26 42  1  0
M  CHG  1   5  -1
M  END
>  <UniqueID>  (65) 
65

>  <SMILES>  (65) 
CN(C(=O)[O-])C(=O)n1c(C(N)=O)cc2ccc(C=Cc3ccncc3)cc21

>  <Energy>  (65) 
90.55152203765088

>  <Genealogy>  (65) 
CN(C(=O)[O-])C(=O)n1c(C(N)=O)cc2ccc(C=Cc3ccncc3)cc21 (protonated)
CN(C(=O)[O-])C(=O)n1c(C(N)=O)cc2ccc(C=Cc3ccncc3)cc21 (3D coordinates assigned)
CN(C(=O)[O-])C(=O)n1c(C(N)=O)cc2ccc(C=Cc3ccncc3)cc21 (optimized conformer: 90.55152203765088 kcal/mol)

>  <smiles>  (65) 
CN(C(=O)O)C(=O)n1c(C(N)=O)cc2ccc(C=Cc3ccncc3)cc21

>  <score_type>  (65) 
oracle

>  <origin>  (65) 
adg

>  <m_score__min__energy>  (65) 
-8.2400000000000002

>  <m_primary>  (65) 
energy

$$$$
66:0
     RDKit          3D

 41 42  0  0  0  0  0  0  0  0999 V2000
  139.7490  159.1420  131.9360 C   0  0  0  0  0  0  0  0  0  0  0  0
  140.3030  159.1810  133.2450 O   0  0  0  0  0  0  0  0  0  0  0  0
  139.8460  158.3610  134.2810 C   0  0  0  0  0  0  0  0  0  0  0  0
  139.1440  157.3420  134.0340 O   0  0  0  0  0  0  0  0  0  0  0  0
  140.2210  158.6800  135.6970 C   0  0  0  0  0  0  0  0  0  0  0  0
  141.5900  158.0960  136.0780 C   0  0  0  0  0  0  0  0  0  0  0  0
  141.9330  156.8200  135.3030 C   0  0  0  0  0  0  0  0  0  0  0  0
  143.2800  156.8730  134.8490 O   0  0  0  0  0  0  0  0  0  0  0  0
  143.6480  157.3850  133.6030 C   0  0  0  0  0  0  0  0  0  0  0  0
  142.9210  157.1820  132.5930 O   0  0  0  0  0  0  0  0  0  0  0  0
  144.8560  158.1540  133.4810 N   0  0  0  0  0  0  0  0  0  0  0  0
  144.9900  159.5110  133.5240 C   0  0  0  0  0  0  0  0  0  0  0  0
  143.8790  160.4860  133.5880 C   0  0  0  0  0  0  0  0  0  0  0  0
  142.5810  160.1440  133.0990 N   0  0  0  0  0  0  0  0  0  0  0  0
  144.0590  161.6190  134.1080 O   0  0  0  0  0  0  0  0  0  0  0  0
  146.3290  159.8730  133.3860 C   0  0  0  0  0  0  0  0  0  0  0  0
  147.0150  158.6890  133.2480 C   0  0  0  0  0  0  0  0  0  0  0  0
  148.3760  158.4590  133.0760 C   0  0  0  0  0  0  0  0  0  0  0  0
  148.8120  157.1270  132.9680 C   0  0  0  0  0  0  0  0  0  0  0  0
  147.8850  156.0550  133.0250 C   0  0  0  0  0  0  0  0  0  0  0  0
  148.3680  154.6280  132.9610 C   0  0  0  0  0  0  0  0  0  0  0  0
  148.4970  154.0960  134.2320 F   0  0  0  0  0  0  0  0  0  0  0  0
  147.4580  153.8720  132.2460 F   0  0  0  0  0  0  0  0  0  0  0  0
  149.6020  154.5590  132.3360 F   0  0  0  0  0  0  0  0  0  0  0  0
  146.5140  156.3290  133.2300 C   0  0  0  0  0  0  0  0  0  0  0  0
  146.1040  157.6660  133.3110 C   0  0  0  0  0  0  0  0  0  0  0  0
  138.6538  159.0649  132.0035 H   0  0  0  0  0  0  0  0  0  0  0  0
  140.0192  160.0614  131.3959 H   0  0  0  0  0  0  0  0  0  0  0  0
  140.1454  158.2695  131.3959 H   0  0  0  0  0  0  0  0  0  0  0  0
  140.2558  159.7729  135.8171 H   0  0  0  0  0  0  0  0  0  0  0  0
  139.4651  158.2297  136.3572 H   0  0  0  0  0  0  0  0  0  0  0  0
  142.3630  158.8506  135.8706 H   0  0  0  0  0  0  0  0  0  0  0  0
  141.5497  157.8320  137.1451 H   0  0  0  0  0  0  0  0  0  0  0  0
  141.8047  155.9484  135.9616 H   0  0  0  0  0  0  0  0  0  0  0  0
  141.2628  156.7340  134.4350 H   0  0  0  0  0  0  0  0  0  0  0  0
  142.4060  159.2360  132.6160 H   0  0  0  0  0  0  0  0  0  0  0  0
  141.7930  160.8240  133.1850 H   0  0  0  0  0  0  0  0  0  0  0  0
  146.7481  160.8900  133.3872 H   0  0  0  0  0  0  0  0  0  0  0  0
  149.0898  159.2945  133.0260 H   0  0  0  0  0  0  0  0  0  0  0  0
  149.8833  156.9138  132.8379 H   0  0  0  0  0  0  0  0  0  0  0  0
  145.7850  155.5106  133.3239 H   0  0  0  0  0  0  0  0  0  0  0  0
  1  2  1  0
  2  3  1  0
  3  4  2  0
  3  5  1  0
  5  6  1  0
  6  7  1  0
  7  8  1  0
  8  9  1  0
  9 10  2  0
  9 11  1  0
 11 12  1  0
 12 13  1  0
 13 14  1  0
 13 15  2  0
 12 16  2  0
 16 17  1  0
 17 18  2  0
 18 19  1  0
 19 20  2  0
 20 21  1  0
 21 22  1  0
 21 23  1  0
 21 24  1  0
 20 25  1  0
 25 26  2  0
 26 11  1  0
 26 17  1  0
  1 27  1  0
  1 28  1  0
  1 29  1  0
  5 30  1  0
  5 31  1  0
  6 32  1  0
  6 33  1  0
  7 34  1  0
  7 35  1  0
 14 36  1  0
 14 37  1  0
 16 38  1  0
 18 39  1  0
 19 40  1  0
 25 41  1  0
M  END
>  <UniqueID>  (66) 
66

>  <SMILES>  (66) 
COC(=O)CCCOC(=O)n1c(C(N)=O)cc2ccc(C(F)(F)F)cc21

>  <Energy>  (66) 
68.50350499756458

>  <Genealogy>  (66) 
COC(=O)CCCOC(=O)n1c(C(N)=O)cc2ccc(C(F)(F)F)cc21 (3D coordinates assigned)
COC(=O)CCCOC(=O)n1c(C(N)=O)cc2ccc(C(F)(F)F)cc21 (optimized conformer: 68.50350499756458 kcal/mol)

>  <smiles>  (66) 
COC(=O)CCCOC(=O)n1c(C(N)=O)cc2ccc(C(F)(F)F)cc21

>  <score_type>  (66) 
oracle

>  <origin>  (66) 
adg

>  <m_score__min__energy>  (66) 
-6

>  <m_primary>  (66) 
energy

$$$$
67:0
     RDKit          3D

 38 39  0  0  0  0  0  0  0  0999 V2000
  149.1420  152.2020  132.2670 C   0  0  0  0  0  0  0  0  0  0  0  0
  149.5920  153.6190  132.6060 C   0  0  0  0  0  0  0  0  0  0  0  0
  148.4040  154.5210  132.8040 C   0  0  0  0  0  0  0  0  0  0  0  0
  147.1260  153.9680  133.0670 C   0  0  0  0  0  0  0  0  0  0  0  0
  146.0140  154.8020  133.2730 C   0  0  0  0  0  0  0  0  0  0  0  0
  146.2140  156.1790  133.2300 C   0  0  0  0  0  0  0  0  0  0  0  0
  145.3160  157.2120  133.3790 C   0  0  0  0  0  0  0  0  0  0  0  0
  146.0660  158.3780  133.2340 C   0  0  0  0  0  0  0  0  0  0  0  0
  145.5040  159.7390  133.3600 C   0  0  0  0  0  0  0  0  0  0  0  0
  146.3770  160.8600  133.4810 N   0  0  0  0  0  0  0  0  0  0  0  0
  144.2590  159.9270  133.3500 O   0  0  0  0  0  0  0  0  0  0  0  0
  147.3750  158.0750  133.0110 N   0  0  0  0  0  0  0  0  0  0  0  0
  148.4650  158.9880  132.8150 C   0  0  0  0  0  0  0  0  0  0  0  0
  148.7130  159.8630  133.6870 O   0  0  0  0  0  0  0  0  0  0  0  0
  149.3620  158.8580  131.6170 C   0  0  0  0  0  0  0  0  0  0  0  0
  148.7890  159.6120  130.4150 C   0  0  0  0  0  0  0  0  0  0  0  0
  148.1300  160.8500  130.8530 N   0  0  0  0  0  0  0  0  0  0  0  0
  149.0440  161.9850  130.7290 C   0  0  0  0  0  0  0  0  0  0  0  0
  147.4500  156.7270  133.0060 C   0  0  0  0  0  0  0  0  0  0  0  0
  148.5700  155.9230  132.7770 C   0  0  0  0  0  0  0  0  0  0  0  0
  148.9640  151.6415  133.1966 H   0  0  0  0  0  0  0  0  0  0  0  0
  148.2127  152.2430  131.6799 H   0  0  0  0  0  0  0  0  0  0  0  0
  149.9247  151.6993  131.6799 H   0  0  0  0  0  0  0  0  0  0  0  0
  150.1871  153.5974  133.5309 H   0  0  0  0  0  0  0  0  0  0  0  0
  150.1960  154.0073  131.7726 H   0  0  0  0  0  0  0  0  0  0  0  0
  147.0034  152.8757  133.1103 H   0  0  0  0  0  0  0  0  0  0  0  0
  145.0161  154.3798  133.4624 H   0  0  0  0  0  0  0  0  0  0  0  0
  144.2358  157.1338  133.5716 H   0  0  0  0  0  0  0  0  0  0  0  0
  147.1040  161.0540  132.7570 H   0  0  0  0  0  0  0  0  0  0  0  0
  150.3512  159.2718  131.8623 H   0  0  0  0  0  0  0  0  0  0  0  0
  149.4426  157.7927  131.3550 H   0  0  0  0  0  0  0  0  0  0  0  0
  149.6053  159.8619  129.7213 H   0  0  0  0  0  0  0  0  0  0  0  0
  148.0484  158.9723  129.9128 H   0  0  0  0  0  0  0  0  0  0  0  0
  147.8860  160.7500  131.8660 H   0  0  0  0  0  0  0  0  0  0  0  0
  149.3283  162.3380  131.7313 H   0  0  0  0  0  0  0  0  0  0  0  0
  149.9451  161.6720  130.1812 H   0  0  0  0  0  0  0  0  0  0  0  0
  148.5461  162.7986  130.1812 H   0  0  0  0  0  0  0  0  0  0  0  0
  149.5554  156.3708  132.5808 H   0  0  0  0  0  0  0  0  0  0  0  0
  1  2  1  0
  2  3  1  0
  3  4  2  0
  4  5  1  0
  5  6  2  0
  6  7  1  0
  7  8  2  0
  8  9  1  0
  9 10  1  0
  9 11  2  0
  8 12  1  0
 12 13  1  0
 13 14  2  0
 13 15  1  0
 15 16  1  0
 16 17  1  0
 17 18  1  0
 12 19  1  0
 19 20  2  0
 20  3  1  0
 19  6  1  0
  1 21  1  0
  1 22  1  0
  1 23  1  0
  2 24  1  0
  2 25  1  0
  4 26  1  0
  5 27  1  0
  7 28  1  0
 10 29  1  0
 15 30  1  0
 15 31  1  0
 16 32  1  0
 16 33  1  0
 17 34  1  0
 18 35  1  0
 18 36  1  0
 18 37  1  0
 20 38  1  0
M  CHG  1  10  -1
M  END
>  <UniqueID>  (67) 
67

>  <SMILES>  (67) 
CCc1ccc2cc(C([NH-])=O)n(C(=O)CCNC)c2c1

>  <Energy>  (67) 
68.1440283548121

>  <Genealogy>  (67) 
CCc1ccc2cc(C([NH-])=O)n(C(=O)CCNC)c2c1 (protonated)
CCc1ccc2cc(C([NH-])=O)n(C(=O)CCNC)c2c1 (3D coordinates assigned)
CCc1ccc2cc(C([NH-])=O)n(C(=O)CCNC)c2c1 (optimized conformer: 68.1440283548121 kcal/mol)

>  <smiles>  (67) 
CCc1ccc2cc(C(N)=O)n(C(=O)CCNC)c2c1

>  <score_type>  (67) 
oracle

>  <origin>  (67) 
adg

>  <m_score__min__energy>  (67) 
-6.0499999999999998

>  <m_primary>  (67) 
energy

$$$$
68:0
     RDKit          3D

 30 31  0  0  0  0  0  0  0  0999 V2000
  143.4130  161.5870  133.7350 N   0  0  0  0  0  0  0  0  0  0  0  0
  144.8200  161.5800  133.9630 C   0  0  0  0  0  0  0  0  0  0  0  0
  145.3600  162.5760  134.5150 O   0  0  0  0  0  0  0  0  0  0  0  0
  145.6410  160.4020  133.6150 C   0  0  0  0  0  0  0  0  0  0  0  0
  147.0070  160.4720  133.3460 C   0  0  0  0  0  0  0  0  0  0  0  0
  147.4090  159.1700  133.1580 C   0  0  0  0  0  0  0  0  0  0  0  0
  148.6650  158.6570  132.8480 C   0  0  0  0  0  0  0  0  0  0  0  0
  148.7840  157.2670  132.6790 C   0  0  0  0  0  0  0  0  0  0  0  0
  147.6550  156.4230  132.8140 C   0  0  0  0  0  0  0  0  0  0  0  0
  147.8030  154.9420  132.6100 C   0  0  0  0  0  0  0  0  0  0  0  0
  149.1360  154.6290  132.4210 F   0  0  0  0  0  0  0  0  0  0  0  0
  147.3290  154.2690  133.7210 F   0  0  0  0  0  0  0  0  0  0  0  0
  146.3940  156.9790  133.1250 C   0  0  0  0  0  0  0  0  0  0  0  0
  146.3080  158.3660  133.3080 C   0  0  0  0  0  0  0  0  0  0  0  0
  145.2140  159.1090  133.5860 N   0  0  0  0  0  0  0  0  0  0  0  0
  143.8670  158.6260  133.7140 C   0  0  0  0  0  0  0  0  0  0  0  0
  143.2400  158.7920  134.7950 O   0  0  0  0  0  0  0  0  0  0  0  0
  143.2650  157.9560  132.6420 O   0  0  0  0  0  0  0  0  0  0  0  0
  141.9170  157.4930  132.6650 C   0  0  0  0  0  0  0  0  0  0  0  0
  140.9700  158.6390  132.5030 C   0  0  0  0  0  0  0  0  0  0  0  0
  141.0570  159.6420  133.2580 O   0  0  0  0  0  0  0  0  0  0  0  0
  140.0090  158.6120  131.5000 O   0  0  0  0  0  0  0  0  0  0  0  0
  142.8480  160.7150  133.8360 H   0  0  0  0  0  0  0  0  0  0  0  0
  147.6310  161.3764  133.2949 H   0  0  0  0  0  0  0  0  0  0  0  0
  149.5370  159.3186  132.7387 H   0  0  0  0  0  0  0  0  0  0  0  0
  149.7646  156.8299  132.4393 H   0  0  0  0  0  0  0  0  0  0  0  0
  147.2253  154.6409  131.7237 H   0  0  0  0  0  0  0  0  0  0  0  0
  145.5035  156.3405  133.2210 H   0  0  0  0  0  0  0  0  0  0  0  0
  141.7651  156.7782  131.8428 H   0  0  0  0  0  0  0  0  0  0  0  0
  141.7238  157.0040  133.6312 H   0  0  0  0  0  0  0  0  0  0  0  0
  1  2  1  0
  2  3  2  0
  2  4  1  0
  4  5  2  0
  5  6  1  0
  6  7  2  0
  7  8  1  0
  8  9  2  0
  9 10  1  0
 10 11  1  0
 10 12  1  0
  9 13  1  0
 13 14  2  0
 14 15  1  0
 15 16  1  0
 16 17  2  0
 16 18  1  0
 18 19  1  0
 19 20  1  0
 20 21  2  0
 20 22  1  0
 15  4  1  0
 14  6  1  0
  1 23  1  0
  5 24  1  0
  7 25  1  0
  8 26  1  0
 10 27  1  0
 13 28  1  0
 19 29  1  0
 19 30  1  0
M  CHG  2   1  -1  22  -1
M  END
>  <UniqueID>  (68) 
68

>  <SMILES>  (68) 
[NH-]C(=O)c1cc2ccc(C(F)F)cc2n1C(=O)OCC(=O)[O-]

>  <Energy>  (68) 
67.05771237329687

>  <Genealogy>  (68) 
[NH-]C(=O)c1cc2ccc(C(F)F)cc2n1C(=O)OCC(=O)[O-] (protonated)
[NH-]C(=O)c1cc2ccc(C(F)F)cc2n1C(=O)OCC(=O)[O-] (3D coordinates assigned)
[NH-]C(=O)c1cc2ccc(C(F)F)cc2n1C(=O)OCC(=O)[O-] (optimized conformer: 67.05771237329687 kcal/mol)

>  <smiles>  (68) 
NC(=O)c1cc2ccc(C(F)F)cc2n1C(=O)OCC(=O)O

>  <score_type>  (68) 
oracle

>  <origin>  (68) 
adg

>  <m_score__min__energy>  (68) 
-5.6500000000000004

>  <m_primary>  (68) 
energy

$$$$
69:0
     RDKit          3D

 49 51  0  0  0  0  0  0  0  0999 V2000
  141.3850  156.0420  132.6040 H   0  0  0  0  0  0  0  0  0  0  0  0
  140.6110  156.4470  133.1790 N   0  0  0  0  0  0  0  0  0  0  0  0
  140.7760  157.7040  133.8310 C   0  0  0  0  0  0  0  0  0  0  0  0
  139.7960  158.2200  134.4310 O   0  0  0  0  0  0  0  0  0  0  0  0
  142.0660  158.4240  133.7870 C   0  0  0  0  0  0  0  0  0  0  0  0
  142.2050  159.7790  134.0830 C   0  0  0  0  0  0  0  0  0  0  0  0
  141.4155  160.4771  134.3982 H   0  0  0  0  0  0  0  0  0  0  0  0
  143.5400  160.0580  133.8970 C   0  0  0  0  0  0  0  0  0  0  0  0
  144.2420  161.2420  134.0880 C   0  0  0  0  0  0  0  0  0  0  0  0
  143.7297  162.1572  134.4195 H   0  0  0  0  0  0  0  0  0  0  0  0
  145.6260  161.2350  133.8450 C   0  0  0  0  0  0  0  0  0  0  0  0
  146.2086  162.1560  133.9944 H   0  0  0  0  0  0  0  0  0  0  0  0
  146.2830  160.0510  133.4080 C   0  0  0  0  0  0  0  0  0  0  0  0
  147.7680  160.0420  133.0990 C   0  0  1  0  0  0  0  0  0  0  0  0
  148.1472  160.7741  133.8271 H   0  0  0  0  0  0  0  0  0  0  0  0
  148.4240  158.6770  133.2620 C   0  0  0  0  0  0  0  0  0  0  0  0
  147.7184  157.8835  132.9749 H   0  0  0  0  0  0  0  0  0  0  0  0
  148.7187  158.5089  134.3084 H   0  0  0  0  0  0  0  0  0  0  0  0
  149.5940  158.6490  132.3830 N   0  0  0  0  0  0  0  0  0  0  0  0
  150.4440  158.8410  132.9650 H   0  0  0  0  0  0  0  0  0  0  0  0
  149.4370  159.7440  131.4170 C   0  0  0  0  0  0  0  0  0  0  0  0
  149.4561  159.3411  130.3936 H   0  0  0  0  0  0  0  0  0  0  0  0
  150.2587  160.4664  131.5305 H   0  0  0  0  0  0  0  0  0  0  0  0
  148.1010  160.4300  131.6740 C   0  0  0  0  0  0  0  0  0  0  0  0
  147.3318  160.0645  130.9778 H   0  0  0  0  0  0  0  0  0  0  0  0
  148.1454  161.5193  131.5276 H   0  0  0  0  0  0  0  0  0  0  0  0
  145.5340  158.8620  133.2530 C   0  0  0  0  0  0  0  0  0  0  0  0
  146.0218  157.9261  132.9428 H   0  0  0  0  0  0  0  0  0  0  0  0
  144.1590  158.9030  133.5030 C   0  0  0  0  0  0  0  0  0  0  0  0
  143.2730  157.8860  133.4440 N   0  0  0  0  0  0  0  0  0  0  0  0
  143.5930  156.5070  133.2010 C   0  0  0  0  0  0  0  0  0  0  0  0
  143.6100  156.0770  132.0150 O   0  0  0  0  0  0  0  0  0  0  0  0
  143.9580  155.5910  134.3020 C   0  0  0  0  0  0  0  0  0  0  0  0
  145.0214  155.4485  134.5444 H   0  0  0  0  0  0  0  0  0  0  0  0
  143.0380  154.9290  135.0140 C   0  0  0  0  0  0  0  0  0  0  0  0
  141.9766  155.0290  134.7430 H   0  0  0  0  0  0  0  0  0  0  0  0
  143.4210  154.0460  136.1830 C   0  0  0  0  0  0  0  0  0  0  0  0
  144.5025  153.8515  136.1328 H   0  0  0  0  0  0  0  0  0  0  0  0
  142.8270  153.1239  136.1002 H   0  0  0  0  0  0  0  0  0  0  0  0
  143.1130  154.6460  137.5030 N   0  0  0  0  0  0  0  0  0  0  0  0
  143.9750  155.1530  137.8150 H   0  0  0  0  0  0  0  0  0  0  0  0
  142.8200  153.6170  138.5150 C   0  0  0  0  0  0  0  0  0  0  0  0
  142.9422  154.0462  139.5204 H   0  0  0  0  0  0  0  0  0  0  0  0
  141.7857  153.2641  138.3902 H   0  0  0  0  0  0  0  0  0  0  0  0
  143.5133  152.7721  138.3902 H   0  0  0  0  0  0  0  0  0  0  0  0
  142.0230  155.6390  137.4410 C   0  0  0  0  0  0  0  0  0  0  0  0
  141.7200  155.9151  138.4618 H   0  0  0  0  0  0  0  0  0  0  0  0
  142.3731  156.5350  136.9075 H   0  0  0  0  0  0  0  0  0  0  0  0
  141.1634  155.2071  136.9075 H   0  0  0  0  0  0  0  0  0  0  0  0
  1  2  1  0
  2  3  1  0
  3  4  2  0
  3  5  1  0
  5  6  2  0
  6  7  1  0
  6  8  1  0
  8  9  2  0
  9 10  1  0
  9 11  1  0
 11 12  1  0
 11 13  2  0
 13 14  1  0
 14 15  1  1
 14 16  1  0
 16 17  1  0
 16 18  1  0
 16 19  1  0
 19 20  1  0
 19 21  1  0
 21 22  1  0
 21 23  1  0
 21 24  1  0
 24 25  1  0
 24 26  1  0
 13 27  1  0
 27 28  1  0
 27 29  2  0
 29 30  1  0
 30 31  1  0
 31 32  2  0
 31 33  1  0
 33 34  1  0
 33 35  2  0
 35 36  1  0
 35 37  1  0
 37 38  1  0
 37 39  1  0
 37 40  1  0
 40 41  1  0
 40 42  1  0
 42 43  1  0
 42 44  1  0
 42 45  1  0
 40 46  1  0
 46 47  1  0
 46 48  1  0
 46 49  1  0
 30  5  1  0
 29  8  1  0
 24 14  1  0
M  CHG  2   2  -1  40   1
M  END
>  <UniqueID>  (69) 
69

>  <SMILES>  (69) 
C[NH+](C)C/C=C/C(=O)n1c(C([NH-])=O)cc2ccc([C@@H]3CCNC3)cc21

>  <Energy>  (69) 
92.51446253673956

>  <Genealogy>  (69) 
C[NH+](C)C/C=C/C(=O)n1c(C([NH-])=O)cc2ccc(C3CCNC3)cc21 (protonated)
C[NH+](C)C/C=C/C(=O)n1c(C([NH-])=O)cc2ccc([C@@H]3CCNC3)cc21 (chirality)
C[NH+](C)C/C=C/C(=O)n1c(C([NH-])=O)cc2ccc([C@@H]3CCNC3)cc21 (cis-trans isomerization)
C[NH+](C)C/C=C/C(=O)n1c(C([NH-])=O)cc2ccc([C@@H]3CCNC3)cc21 (3D coordinates assigned)
C[NH+](C)C/C=C/C(=O)n1c(C([NH-])=O)cc2ccc([C@@H]3CCNC3)cc21 (nonaromatic ring conformer: 92.51446253673956 kcal/mol)

>  <smiles>  (69) 
CN(C)C/C=C/C(=O)n1c(C(N)=O)cc2ccc(C3CCNC3)cc21

>  <score_type>  (69) 
oracle

>  <origin>  (69) 
adg

>  <m_score__min__energy>  (69) 
-8.2200000000000006

>  <m_primary>  (69) 
energy

$$$$
70:0
     RDKit          3D

 38 40  0  0  0  0  0  0  0  0999 V2000
  146.7590  152.9120  138.4460 C   0  0  0  0  0  0  0  0  0  0  0  0
  147.2270  152.9480  137.1030 O   0  0  0  0  0  0  0  0  0  0  0  0
  147.7100  154.1150  136.5050 C   0  0  0  0  0  0  0  0  0  0  0  0
  148.5410  154.8490  137.1060 O   0  0  0  0  0  0  0  0  0  0  0  0
  147.2490  154.4910  135.1660 C   0  0  0  0  0  0  0  0  0  0  0  0
  147.7650  154.0280  133.9710 C   0  0  0  0  0  0  0  0  0  0  0  0
  147.0330  154.6490  132.9810 C   0  0  0  0  0  0  0  0  0  0  0  0
  146.1200  155.4530  133.6380 C   0  0  0  0  0  0  0  0  0  0  0  0
  145.1150  156.3190  133.0020 C   0  0  0  0  0  0  0  0  0  0  0  0
  144.2390  155.8140  132.2500 O   0  0  0  0  0  0  0  0  0  0  0  0
  145.1150  157.7360  133.2450 N   0  0  0  0  0  0  0  0  0  0  0  0
  146.1970  158.5410  133.4360 C   0  0  0  0  0  0  0  0  0  0  0  0
  147.6110  158.1140  133.3210 C   0  0  0  0  0  0  0  0  0  0  0  0
  148.2280  157.3320  134.3470 N   0  0  0  0  0  0  0  0  0  0  0  0
  148.2930  158.4520  132.3170 O   0  0  0  0  0  0  0  0  0  0  0  0
  145.7880  159.8510  133.6860 C   0  0  0  0  0  0  0  0  0  0  0  0
  144.4120  159.8170  133.6500 C   0  0  0  0  0  0  0  0  0  0  0  0
  143.4850  160.8380  133.8320 C   0  0  0  0  0  0  0  0  0  0  0  0
  142.1210  160.5120  133.7560 C   0  0  0  0  0  0  0  0  0  0  0  0
  141.7060  159.1740  133.5300 C   0  0  0  0  0  0  0  0  0  0  0  0
  140.2410  158.8400  133.4100 C   0  0  0  0  0  0  0  0  0  0  0  0
  139.5830  159.8900  132.7980 F   0  0  0  0  0  0  0  0  0  0  0  0
  140.0620  157.6940  132.6560 F   0  0  0  0  0  0  0  0  0  0  0  0
  139.6830  158.6260  134.6600 F   0  0  0  0  0  0  0  0  0  0  0  0
  142.6800  158.1680  133.3310 C   0  0  0  0  0  0  0  0  0  0  0  0
  144.0310  158.5270  133.3880 C   0  0  0  0  0  0  0  0  0  0  0  0
  146.2690  155.3350  134.9380 O   0  0  0  0  0  0  0  0  0  0  0  0
  147.6145  152.9778  139.1343 H   0  0  0  0  0  0  0  0  0  0  0  0
  146.0814  153.7607  138.6211 H   0  0  0  0  0  0  0  0  0  0  0  0
  146.2192  151.9697  138.6211 H   0  0  0  0  0  0  0  0  0  0  0  0
  148.5893  153.3121  133.8370 H   0  0  0  0  0  0  0  0  0  0  0  0
  147.1510  154.5295  131.8939 H   0  0  0  0  0  0  0  0  0  0  0  0
  149.2350  157.0700  134.2670 H   0  0  0  0  0  0  0  0  0  0  0  0
  147.6840  156.9740  135.1620 H   0  0  0  0  0  0  0  0  0  0  0  0
  146.4287  160.7255  133.8723 H   0  0  0  0  0  0  0  0  0  0  0  0
  143.8105  161.8700  134.0296 H   0  0  0  0  0  0  0  0  0  0  0  0
  141.3657  161.3030  133.8730 H   0  0  0  0  0  0  0  0  0  0  0  0
  142.3821  157.1272  133.1359 H   0  0  0  0  0  0  0  0  0  0  0  0
  1  2  1  0
  2  3  1  0
  3  4  2  0
  3  5  1  0
  5  6  2  0
  6  7  1  0
  7  8  2  0
  8  9  1  0
  9 10  2  0
  9 11  1  0
 11 12  1  0
 12 13  1  0
 13 14  1  0
 13 15  2  0
 12 16  2  0
 16 17  1  0
 17 18  2  0
 18 19  1  0
 19 20  2  0
 20 21  1  0
 21 22  1  0
 21 23  1  0
 21 24  1  0
 20 25  1  0
 25 26  2  0
  8 27  1  0
 27  5  1  0
 26 11  1  0
 26 17  1  0
  1 28  1  0
  1 29  1  0
  1 30  1  0
  6 31  1  0
  7 32  1  0
 14 33  1  0
 14 34  1  0
 16 35  1  0
 18 36  1  0
 19 37  1  0
 25 38  1  0
M  END
>  <UniqueID>  (70) 
70

>  <SMILES>  (70) 
COC(=O)c1ccc(C(=O)n2c(C(N)=O)cc3ccc(C(F)(F)F)cc32)o1

>  <Energy>  (70) 
101.87155638564491

>  <Genealogy>  (70) 
COC(=O)c1ccc(C(=O)n2c(C(N)=O)cc3ccc(C(F)(F)F)cc32)o1 (3D coordinates assigned)
COC(=O)c1ccc(C(=O)n2c(C(N)=O)cc3ccc(C(F)(F)F)cc32)o1 (optimized conformer: 101.87155638564491 kcal/mol)

>  <smiles>  (70) 
COC(=O)c1ccc(C(=O)n2c(C(N)=O)cc3ccc(C(F)(F)F)cc32)o1

>  <score_type>  (70) 
oracle

>  <origin>  (70) 
adg

>  <m_score__min__energy>  (70) 
-6.8799999999999999

>  <m_primary>  (70) 
energy

$$$$
71:0
     RDKit          3D

 41 42  0  0  0  0  0  0  0  0999 V2000
  149.2600  158.8790  132.1650 C   0  0  0  0  0  0  0  0  0  0  0  0
  148.5220  160.0630  131.5430 C   0  0  0  0  0  0  0  0  0  0  0  0
  148.8040  160.1390  130.0380 C   0  0  0  0  0  0  0  0  0  0  0  0
  147.1230  159.9060  131.7760 O   0  0  0  0  0  0  0  0  0  0  0  0
  146.5160  160.1020  133.0210 C   0  0  0  0  0  0  0  0  0  0  0  0
  146.8710  161.0600  133.7590 O   0  0  0  0  0  0  0  0  0  0  0  0
  145.4690  159.2160  133.4500 N   0  0  0  0  0  0  0  0  0  0  0  0
  144.1570  159.5160  133.6700 C   0  0  0  0  0  0  0  0  0  0  0  0
  143.5640  160.8690  133.6850 C   0  0  0  0  0  0  0  0  0  0  0  0
  144.3860  162.0290  133.7880 N   0  0  0  0  0  0  0  0  0  0  0  0
  142.3110  161.0020  133.6580 O   0  0  0  0  0  0  0  0  0  0  0  0
  143.4360  158.3630  133.9730 C   0  0  0  0  0  0  0  0  0  0  0  0
  144.3560  157.3410  133.9430 C   0  0  0  0  0  0  0  0  0  0  0  0
  144.1830  155.9790  134.1590 C   0  0  0  0  0  0  0  0  0  0  0  0
  145.3060  155.1440  134.0380 C   0  0  0  0  0  0  0  0  0  0  0  0
  146.5800  155.6750  133.6980 C   0  0  0  0  0  0  0  0  0  0  0  0
  147.7300  154.8010  133.5720 N   0  0  0  0  0  0  0  0  0  0  0  0
  148.8250  155.1500  132.6620 C   0  0  0  0  0  0  0  0  0  0  0  0
  147.8290  153.5620  134.3590 C   0  0  0  0  0  0  0  0  0  0  0  0
  147.8070  153.8470  135.8310 C   0  0  0  0  0  0  0  0  0  0  0  0
  147.8990  155.0290  136.2570 O   0  0  0  0  0  0  0  0  0  0  0  0
  147.7540  152.7950  136.7350 O   0  0  0  0  0  0  0  0  0  0  0  0
  146.7070  157.0690  133.4800 C   0  0  0  0  0  0  0  0  0  0  0  0
  145.5750  157.8790  133.6270 C   0  0  0  0  0  0  0  0  0  0  0  0
  149.2138  158.9532  133.2615 H   0  0  0  0  0  0  0  0  0  0  0  0
  148.7866  157.9405  131.8407 H   0  0  0  0  0  0  0  0  0  0  0  0
  150.3110  158.8907  131.8407 H   0  0  0  0  0  0  0  0  0  0  0  0
  148.8728  160.9984  132.0034 H   0  0  0  0  0  0  0  0  0  0  0  0
  149.8545  160.4221  129.8756 H   0  0  0  0  0  0  0  0  0  0  0  0
  148.6137  159.1575  129.5793 H   0  0  0  0  0  0  0  0  0  0  0  0
  148.1462  160.8919  129.5793 H   0  0  0  0  0  0  0  0  0  0  0  0
  145.3060  162.0820  133.2990 H   0  0  0  0  0  0  0  0  0  0  0  0
  142.3603  158.2864  134.1900 H   0  0  0  0  0  0  0  0  0  0  0  0
  143.1961  155.5673  134.4170 H   0  0  0  0  0  0  0  0  0  0  0  0
  145.1979  154.0627  134.2089 H   0  0  0  0  0  0  0  0  0  0  0  0
  149.7123  155.4328  133.2475 H   0  0  0  0  0  0  0  0  0  0  0  0
  149.0649  154.2838  132.0278 H   0  0  0  0  0  0  0  0  0  0  0  0
  148.5195  155.9953  132.0278 H   0  0  0  0  0  0  0  0  0  0  0  0
  146.9798  152.9094  134.1079 H   0  0  0  0  0  0  0  0  0  0  0  0
  148.7829  153.0716  134.1150 H   0  0  0  0  0  0  0  0  0  0  0  0
  147.6768  157.5065  133.2005 H   0  0  0  0  0  0  0  0  0  0  0  0
  1  2  1  0
  2  3  1  0
  2  4  1  0
  4  5  1  0
  5  6  2  0
  5  7  1  0
  7  8  1  0
  8  9  1  0
  9 10  1  0
  9 11  2  0
  8 12  2  0
 12 13  1  0
 13 14  2  0
 14 15  1  0
 15 16  2  0
 16 17  1  0
 17 18  1  0
 17 19  1  0
 19 20  1  0
 20 21  2  0
 20 22  1  0
 16 23  1  0
 23 24  2  0
 24  7  1  0
 24 13  1  0
  1 25  1  0
  1 26  1  0
  1 27  1  0
  2 28  1  0
  3 29  1  0
  3 30  1  0
  3 31  1  0
 10 32  1  0
 12 33  1  0
 14 34  1  0
 15 35  1  0
 18 36  1  0
 18 37  1  0
 18 38  1  0
 19 39  1  0
 19 40  1  0
 23 41  1  0
M  CHG  2  10  -1  22  -1
M  END
>  <UniqueID>  (71) 
71

>  <SMILES>  (71) 
CC(C)OC(=O)n1c(C([NH-])=O)cc2ccc(N(C)CC(=O)[O-])cc21

>  <Energy>  (71) 
74.67377304271815

>  <Genealogy>  (71) 
CC(C)OC(=O)n1c(C([NH-])=O)cc2ccc(N(C)CC(=O)[O-])cc21 (protonated)
CC(C)OC(=O)n1c(C([NH-])=O)cc2ccc(N(C)CC(=O)[O-])cc21 (3D coordinates assigned)
CC(C)OC(=O)n1c(C([NH-])=O)cc2ccc(N(C)CC(=O)[O-])cc21 (optimized conformer: 74.67377304271815 kcal/mol)

>  <smiles>  (71) 
CC(C)OC(=O)n1c(C(N)=O)cc2ccc(N(C)CC(=O)O)cc21

>  <score_type>  (71) 
oracle

>  <origin>  (71) 
adg

>  <m_score__min__energy>  (71) 
-6.8200000000000003

>  <m_primary>  (71) 
energy

$$$$
72:0
     RDKit          3D

 36 38  0  0  0  0  0  0  0  0999 V2000
  141.6750  160.5180  133.7960 C   0  0  0  0  0  0  0  0  0  0  0  0
  143.1240  160.4030  133.7180 N   0  0  0  0  0  0  0  0  0  0  0  0
  143.9660  161.3640  134.0520 N   0  0  0  0  0  0  0  0  0  0  0  0
  145.2030  160.9090  133.9320 N   0  0  0  0  0  0  0  0  0  0  0  0
  145.0670  159.6290  133.5220 C   0  0  0  0  0  0  0  0  0  0  0  0
  146.1940  158.7110  133.2590 C   0  0  0  0  0  0  0  0  0  0  0  0
  147.4760  159.2270  132.9370 C   0  0  0  0  0  0  0  0  0  0  0  0
  148.5560  158.3610  132.6940 C   0  0  0  0  0  0  0  0  0  0  0  0
  148.3250  156.9920  132.7730 C   0  0  0  0  0  0  0  0  0  0  0  0
  149.1930  155.9350  132.6100 C   0  0  0  0  0  0  0  0  0  0  0  0
  148.4260  154.7910  132.8170 C   0  0  0  0  0  0  0  0  0  0  0  0
  148.9520  153.4160  132.6920 C   0  0  0  0  0  0  0  0  0  0  0  0
  148.4540  152.3850  133.5430 N   0  0  0  0  0  0  0  0  0  0  0  0
  149.8500  153.1420  131.8520 O   0  0  0  0  0  0  0  0  0  0  0  0
  147.1350  155.1270  133.0940 N   0  0  0  0  0  0  0  0  0  0  0  0
  146.0510  154.2390  133.4080 C   0  0  0  0  0  0  0  0  0  0  0  0
  145.9800  153.7310  134.5600 O   0  0  0  0  0  0  0  0  0  0  0  0
  145.0780  153.8190  132.3400 C   0  0  0  0  0  0  0  0  0  0  0  0
  144.6940  152.3380  132.4350 C   0  0  0  0  0  0  0  0  0  0  0  0
  145.8290  151.5350  132.6140 O   0  0  0  0  0  0  0  0  0  0  0  0
  147.0900  156.4770  133.0660 C   0  0  0  0  0  0  0  0  0  0  0  0
  146.0010  157.3130  133.3280 C   0  0  0  0  0  0  0  0  0  0  0  0
  143.7660  159.2950  133.3930 N   0  0  0  0  0  0  0  0  0  0  0  0
  141.3654  160.5426  134.8513 H   0  0  0  0  0  0  0  0  0  0  0  0
  141.3534  161.4445  133.2979 H   0  0  0  0  0  0  0  0  0  0  0  0
  141.2112  159.6538  133.2979 H   0  0  0  0  0  0  0  0  0  0  0  0
  147.6260  160.3151  132.8770 H   0  0  0  0  0  0  0  0  0  0  0  0
  149.5536  158.7542  132.4488 H   0  0  0  0  0  0  0  0  0  0  0  0
  150.2649  155.9840  132.3677 H   0  0  0  0  0  0  0  0  0  0  0  0
  147.4430  152.3420  133.7990 H   0  0  0  0  0  0  0  0  0  0  0  0
  144.1656  154.4256  132.4377 H   0  0  0  0  0  0  0  0  0  0  0  0
  145.5678  153.9722  131.3671 H   0  0  0  0  0  0  0  0  0  0  0  0
  144.0150  152.1965  133.2888 H   0  0  0  0  0  0  0  0  0  0  0  0
  144.2006  152.0431  131.4971 H   0  0  0  0  0  0  0  0  0  0  0  0
  146.3220  151.9040  133.3920 H   0  0  0  0  0  0  0  0  0  0  0  0
  145.0168  156.8925  133.5820 H   0  0  0  0  0  0  0  0  0  0  0  0
  1  2  1  0
  2  3  1  0
  3  4  2  0
  4  5  1  0
  5  6  1  0
  6  7  2  0
  7  8  1  0
  8  9  2  0
  9 10  1  0
 10 11  2  0
 11 12  1  0
 12 13  1  0
 12 14  2  0
 11 15  1  0
 15 16  1  0
 16 17  2  0
 16 18  1  0
 18 19  1  0
 19 20  1  0
 15 21  1  0
 21 22  2  0
  5 23  2  0
 23  2  1  0
 22  6  1  0
 21  9  1  0
  1 24  1  0
  1 25  1  0
  1 26  1  0
  7 27  1  0
  8 28  1  0
 10 29  1  0
 13 30  1  0
 18 31  1  0
 18 32  1  0
 19 33  1  0
 19 34  1  0
 20 35  1  0
 22 36  1  0
M  CHG  1  13  -1
M  END
>  <UniqueID>  (72) 
72

>  <SMILES>  (72) 
Cn1nnc(-c2ccc3cc(C([NH-])=O)n(C(=O)CCO)c3c2)n1

>  <Energy>  (72) 
113.2307723060457

>  <Genealogy>  (72) 
Cn1nnc(-c2ccc3cc(C([NH-])=O)n(C(=O)CCO)c3c2)n1 (protonated)
Cn1nnc(-c2ccc3cc(C([NH-])=O)n(C(=O)CCO)c3c2)n1 (3D coordinates assigned)
Cn1nnc(-c2ccc3cc(C([NH-])=O)n(C(=O)CCO)c3c2)n1 (optimized conformer: 113.2307723060457 kcal/mol)

>  <smiles>  (72) 
Cn1nnc(-c2ccc3cc(C(N)=O)n(C(=O)CCO)c3c2)n1

>  <score_type>  (72) 
oracle

>  <origin>  (72) 
adg

>  <m_score__min__energy>  (72) 
-7.1600000000000001

>  <m_primary>  (72) 
energy

$$$$
73:0
     RDKit          3D

 40 41  0  0  0  0  0  0  0  0999 V2000
  149.6400  152.6230  132.2000 C   0  0  0  0  0  0  0  0  0  0  0  0
  148.4450  153.3770  132.5850 N   0  0  0  0  0  0  0  0  0  0  0  0
  147.2160  152.6650  132.9450 C   0  0  0  0  0  0  0  0  0  0  0  0
  148.4980  154.8200  132.5890 C   0  0  0  0  0  0  0  0  0  0  0  0
  149.6200  155.3990  132.5620 O   0  0  0  0  0  0  0  0  0  0  0  0
  147.2390  155.6510  132.6830 C   0  0  0  0  0  0  0  0  0  0  0  0
  147.3520  156.7620  133.6940 C   0  0  0  0  0  0  0  0  0  0  0  0
  148.0470  156.5940  134.7330 O   0  0  0  0  0  0  0  0  0  0  0  0
  146.7040  158.0230  133.4690 N   0  0  0  0  0  0  0  0  0  0  0  0
  147.2160  159.1280  132.8590 C   0  0  0  0  0  0  0  0  0  0  0  0
  148.6290  159.3290  132.4810 C   0  0  0  0  0  0  0  0  0  0  0  0
  149.6020  158.3080  132.6970 N   0  0  0  0  0  0  0  0  0  0  0  0
  148.9960  160.4440  132.0280 O   0  0  0  0  0  0  0  0  0  0  0  0
  146.2350  160.1050  132.7140 C   0  0  0  0  0  0  0  0  0  0  0  0
  145.0990  159.5680  133.2780 C   0  0  0  0  0  0  0  0  0  0  0  0
  143.8240  160.1120  133.4200 C   0  0  0  0  0  0  0  0  0  0  0  0
  142.8390  159.3260  134.0390 C   0  0  0  0  0  0  0  0  0  0  0  0
  143.1380  158.0140  134.4880 C   0  0  0  0  0  0  0  0  0  0  0  0
  142.0800  157.1900  135.1680 C   0  0  0  0  0  0  0  0  0  0  0  0
  141.0300  158.0780  135.7610 C   0  0  0  0  0  0  0  0  0  0  0  0
  139.8680  158.0970  135.2740 O   0  0  0  0  0  0  0  0  0  0  0  0
  141.3390  158.9000  136.8400 O   0  0  0  0  0  0  0  0  0  0  0  0
  144.4470  157.5010  134.3380 C   0  0  0  0  0  0  0  0  0  0  0  0
  145.4110  158.3110  133.7310 C   0  0  0  0  0  0  0  0  0  0  0  0
  150.1698  152.2887  133.1042 H   0  0  0  0  0  0  0  0  0  0  0  0
  149.3446  151.7474  131.6033 H   0  0  0  0  0  0  0  0  0  0  0  0
  150.3032  153.2665  131.6033 H   0  0  0  0  0  0  0  0  0  0  0  0
  147.1289  152.6146  134.0404 H   0  0  0  0  0  0  0  0  0  0  0  0
  146.3480  153.2001  132.5324 H   0  0  0  0  0  0  0  0  0  0  0  0
  147.2484  151.6458  132.5324 H   0  0  0  0  0  0  0  0  0  0  0  0
  147.0336  156.0920  131.6964 H   0  0  0  0  0  0  0  0  0  0  0  0
  146.4249  154.9865  133.0080 H   0  0  0  0  0  0  0  0  0  0  0  0
  149.3830  157.4630  133.2700 H   0  0  0  0  0  0  0  0  0  0  0  0
  150.5860  158.4460  132.3750 H   0  0  0  0  0  0  0  0  0  0  0  0
  146.3440  161.0954  132.2480 H   0  0  0  0  0  0  0  0  0  0  0  0
  143.5964  161.1256  133.0584 H   0  0  0  0  0  0  0  0  0  0  0  0
  141.8258  159.7314  134.1771 H   0  0  0  0  0  0  0  0  0  0  0  0
  141.6139  156.5189  134.4316 H   0  0  0  0  0  0  0  0  0  0  0  0
  142.5466  156.6019  135.9720 H   0  0  0  0  0  0  0  0  0  0  0  0
  144.7003  156.4901  134.6900 H   0  0  0  0  0  0  0  0  0  0  0  0
  1  2  1  0
  2  3  1  0
  2  4  1  0
  4  5  2  0
  4  6  1  0
  6  7  1  0
  7  8  2  0
  7  9  1  0
  9 10  1  0
 10 11  1  0
 11 12  1  0
 11 13  2  0
 10 14  2  0
 14 15  1  0
 15 16  2  0
 16 17  1  0
 17 18  2  0
 18 19  1  0
 19 20  1  0
 20 21  2  0
 20 22  1  0
 18 23  1  0
 23 24  2  0
 24  9  1  0
 24 15  1  0
  1 25  1  0
  1 26  1  0
  1 27  1  0
  3 28  1  0
  3 29  1  0
  3 30  1  0
  6 31  1  0
  6 32  1  0
 12 33  1  0
 12 34  1  0
 14 35  1  0
 16 36  1  0
 17 37  1  0
 19 38  1  0
 19 39  1  0
 23 40  1  0
M  CHG  1  22  -1
M  END
>  <UniqueID>  (73) 
73

>  <SMILES>  (73) 
CN(C)C(=O)CC(=O)n1c(C(N)=O)cc2ccc(CC(=O)[O-])cc21

>  <Energy>  (73) 
77.0370126522112

>  <Genealogy>  (73) 
CN(C)C(=O)CC(=O)n1c(C(N)=O)cc2ccc(CC(=O)[O-])cc21 (protonated)
CN(C)C(=O)CC(=O)n1c(C(N)=O)cc2ccc(CC(=O)[O-])cc21 (3D coordinates assigned)
CN(C)C(=O)CC(=O)n1c(C(N)=O)cc2ccc(CC(=O)[O-])cc21 (optimized conformer: 77.0370126522112 kcal/mol)

>  <smiles>  (73) 
CN(C)C(=O)CC(=O)n1c(C(N)=O)cc2ccc(CC(=O)O)cc21

>  <score_type>  (73) 
oracle

>  <origin>  (73) 
adg

>  <m_score__min__energy>  (73) 
-7.2599999999999998

>  <m_primary>  (73) 
energy

$$$$
74:0
     RDKit          3D

 35 36  0  0  0  0  0  0  0  0999 V2000
  141.7160  160.8640  133.7410 C   0  0  0  0  0  0  0  0  0  0  0  0
  141.1720  159.5740  134.1760 N   0  0  0  0  0  0  0  0  0  0  0  0
  140.8250  159.3520  135.5860 C   0  0  0  0  0  0  0  0  0  0  0  0
  139.9700  158.1310  135.7160 C   0  0  0  0  0  0  0  0  0  0  0  0
  138.7160  158.2380  135.7480 O   0  0  0  0  0  0  0  0  0  0  0  0
  140.5550  156.8730  135.7540 O   0  0  0  0  0  0  0  0  0  0  0  0
  141.0370  158.5010  133.2230 C   0  0  0  0  0  0  0  0  0  0  0  0
  140.1220  158.5360  132.3550 O   0  0  0  0  0  0  0  0  0  0  0  0
  141.9370  157.3840  133.2440 N   0  0  0  0  0  0  0  0  0  0  0  0
  141.6260  156.0640  133.1250 C   0  0  0  0  0  0  0  0  0  0  0  0
  140.2500  155.5180  133.0650 C   0  0  0  0  0  0  0  0  0  0  0  0
  139.1280  156.3000  133.4790 N   0  0  0  0  0  0  0  0  0  0  0  0
  140.0540  154.3500  132.6350 O   0  0  0  0  0  0  0  0  0  0  0  0
  142.7910  155.2950  133.1160 C   0  0  0  0  0  0  0  0  0  0  0  0
  143.8270  156.1970  133.2210 C   0  0  0  0  0  0  0  0  0  0  0  0
  145.2020  155.9880  133.2330 C   0  0  0  0  0  0  0  0  0  0  0  0
  146.0390  157.1150  133.3160 C   0  0  0  0  0  0  0  0  0  0  0  0
  145.4910  158.4230  133.3990 C   0  0  0  0  0  0  0  0  0  0  0  0
  146.3990  159.6260  133.4320 C   0  0  0  0  0  0  0  0  0  0  0  0
  145.7700  160.6500  134.1150 F   0  0  0  0  0  0  0  0  0  0  0  0
  147.5900  159.3230  134.0680 F   0  0  0  0  0  0  0  0  0  0  0  0
  146.6900  160.0500  132.1470 F   0  0  0  0  0  0  0  0  0  0  0  0
  144.0870  158.5910  133.3590 C   0  0  0  0  0  0  0  0  0  0  0  0
  143.2840  157.4510  133.2920 C   0  0  0  0  0  0  0  0  0  0  0  0
  141.9716  161.4702  134.6226 H   0  0  0  0  0  0  0  0  0  0  0  0
  142.6198  160.6959  133.1370 H   0  0  0  0  0  0  0  0  0  0  0  0
  140.9647  161.3939  133.1370 H   0  0  0  0  0  0  0  0  0  0  0  0
  141.7466  159.2155  136.1709 H   0  0  0  0  0  0  0  0  0  0  0  0
  140.2698  160.2236  135.9630 H   0  0  0  0  0  0  0  0  0  0  0  0
  138.1630  155.9100  133.3990 H   0  0  0  0  0  0  0  0  0  0  0  0
  139.2450  157.2460  133.9030 H   0  0  0  0  0  0  0  0  0  0  0  0
  142.8660  154.2001  133.0409 H   0  0  0  0  0  0  0  0  0  0  0  0
  145.6217  154.9727  133.1792 H   0  0  0  0  0  0  0  0  0  0  0  0
  147.1310  156.9822  133.3166 H   0  0  0  0  0  0  0  0  0  0  0  0
  143.6389  159.5954  133.3801 H   0  0  0  0  0  0  0  0  0  0  0  0
  1  2  1  0
  2  3  1  0
  3  4  1  0
  4  5  2  0
  4  6  1  0
  2  7  1  0
  7  8  2  0
  7  9  1  0
  9 10  1  0
 10 11  1  0
 11 12  1  0
 11 13  2  0
 10 14  2  0
 14 15  1  0
 15 16  2  0
 16 17  1  0
 17 18  2  0
 18 19  1  0
 19 20  1  0
 19 21  1  0
 19 22  1  0
 18 23  1  0
 23 24  2  0
 24  9  1  0
 24 15  1  0
  1 25  1  0
  1 26  1  0
  1 27  1  0
  3 28  1  0
  3 29  1  0
 12 30  1  0
 12 31  1  0
 14 32  1  0
 16 33  1  0
 17 34  1  0
 23 35  1  0
M  CHG  1   6  -1
M  END
>  <UniqueID>  (74) 
74

>  <SMILES>  (74) 
CN(CC(=O)[O-])C(=O)n1c(C(N)=O)cc2ccc(C(F)(F)F)cc21

>  <Energy>  (74) 
71.93061980076035

>  <Genealogy>  (74) 
CN(CC(=O)[O-])C(=O)n1c(C(N)=O)cc2ccc(C(F)(F)F)cc21 (protonated)
CN(CC(=O)[O-])C(=O)n1c(C(N)=O)cc2ccc(C(F)(F)F)cc21 (3D coordinates assigned)
CN(CC(=O)[O-])C(=O)n1c(C(N)=O)cc2ccc(C(F)(F)F)cc21 (optimized conformer: 71.93061980076035 kcal/mol)

>  <smiles>  (74) 
CN(CC(=O)O)C(=O)n1c(C(N)=O)cc2ccc(C(F)(F)F)cc21

>  <score_type>  (74) 
oracle

>  <origin>  (74) 
adg

>  <m_score__min__energy>  (74) 
-5.75

>  <m_primary>  (74) 
energy

$$$$
75:0
     RDKit          3D

 28 30  0  0  0  0  0  0  0  0999 V2000
  148.6610  157.4520  131.8830 N   0  0  0  0  0  0  0  0  0  0  0  0
  148.3110  158.5010  132.7870 C   0  0  0  0  0  0  0  0  0  0  0  0
  149.2270  159.1920  133.3090 O   0  0  0  0  0  0  0  0  0  0  0  0
  146.8930  158.8020  133.0830 C   0  0  0  0  0  0  0  0  0  0  0  0
  146.3650  160.0910  133.1230 C   0  0  0  0  0  0  0  0  0  0  0  0
  145.0590  159.9390  133.5270 C   0  0  0  0  0  0  0  0  0  0  0  0
  144.0700  160.8950  133.7240 C   0  0  0  0  0  0  0  0  0  0  0  0
  142.7970  160.4530  134.1180 C   0  0  0  0  0  0  0  0  0  0  0  0
  142.5290  159.0710  134.3010 C   0  0  0  0  0  0  0  0  0  0  0  0
  141.1700  158.6340  134.7060 C   0  0  0  0  0  0  0  0  0  0  0  0
  140.1920  158.0860  133.8960 C   0  0  0  0  0  0  0  0  0  0  0  0
  139.1340  157.8570  134.7460 C   0  0  0  0  0  0  0  0  0  0  0  0
  139.4640  158.2460  135.9900 N   0  0  0  0  0  0  0  0  0  0  0  0
  140.7010  158.7190  135.9670 N   0  0  0  0  0  0  0  0  0  0  0  0
  143.5650  158.1300  134.0890 C   0  0  0  0  0  0  0  0  0  0  0  0
  144.8300  158.6010  133.7150 C   0  0  0  0  0  0  0  0  0  0  0  0
  145.9490  157.8880  133.4460 N   0  0  0  0  0  0  0  0  0  0  0  0
  146.0800  156.4570  133.4660 C   0  0  0  0  0  0  0  0  0  0  0  0
  146.4090  155.8320  132.4230 O   0  0  0  0  0  0  0  0  0  0  0  0
  145.8590  155.7480  134.6400 O   0  0  0  0  0  0  0  0  0  0  0  0
  149.6640  157.2720  131.6520 H   0  0  0  0  0  0  0  0  0  0  0  0
  147.9350  156.8230  131.4730 H   0  0  0  0  0  0  0  0  0  0  0  0
  146.8830  161.0311  132.8824 H   0  0  0  0  0  0  0  0  0  0  0  0
  144.2780  161.9649  133.5759 H   0  0  0  0  0  0  0  0  0  0  0  0
  141.9961  161.1878  134.2872 H   0  0  0  0  0  0  0  0  0  0  0  0
  140.2472  157.8799  132.8169 H   0  0  0  0  0  0  0  0  0  0  0  0
  138.1670  157.4225  134.4527 H   0  0  0  0  0  0  0  0  0  0  0  0
  143.3807  157.0529  134.2152 H   0  0  0  0  0  0  0  0  0  0  0  0
  1  2  1  0
  2  3  2  0
  2  4  1  0
  4  5  2  0
  5  6  1  0
  6  7  2  0
  7  8  1  0
  8  9  2  0
  9 10  1  0
 10 11  2  0
 11 12  1  0
 12 13  2  0
 13 14  1  0
  9 15  1  0
 15 16  2  0
 16 17  1  0
 17 18  1  0
 18 19  2  0
 18 20  1  0
 17  4  1  0
 16  6  1  0
 14 10  1  0
  1 21  1  0
  1 22  1  0
  5 23  1  0
  7 24  1  0
  8 25  1  0
 11 26  1  0
 12 27  1  0
 15 28  1  0
M  CHG  2  14  -1  20  -1
M  END
>  <UniqueID>  (75) 
75

>  <SMILES>  (75) 
NC(=O)c1cc2ccc(-c3ccn[n-]3)cc2n1C(=O)[O-]

>  <Energy>  (75) 
100.48862217526138

>  <Genealogy>  (75) 
NC(=O)c1cc2ccc(-c3ccn[n-]3)cc2n1C(=O)[O-] (protonated)
NC(=O)c1cc2ccc(-c3ccn[n-]3)cc2n1C(=O)[O-] (3D coordinates assigned)
NC(=O)c1cc2ccc(-c3ccn[n-]3)cc2n1C(=O)[O-] (optimized conformer: 100.48862217526138 kcal/mol)

>  <smiles>  (75) 
NC(=O)c1cc2ccc(-c3ccn[nH]3)cc2n1C(=O)O

>  <score_type>  (75) 
oracle

>  <origin>  (75) 
adg

>  <m_score__min__energy>  (75) 
-6.4199999999999999

>  <m_primary>  (75) 
energy

$$$$
76:0
     RDKit          3D

 32 33  0  0  0  0  0  0  0  0999 V2000
  146.4650  161.0860  133.7320 N   0  0  0  0  0  0  0  0  0  0  0  0
  145.4640  160.0940  133.5170 C   0  0  0  0  0  0  0  0  0  0  0  0
  144.2680  160.4500  133.3440 O   0  0  0  0  0  0  0  0  0  0  0  0
  145.8310  158.6640  133.5260 C   0  0  0  0  0  0  0  0  0  0  0  0
  144.9350  157.6320  133.8050 C   0  0  0  0  0  0  0  0  0  0  0  0
  145.6550  156.4690  133.6410 C   0  0  0  0  0  0  0  0  0  0  0  0
  145.2670  155.1410  133.7970 C   0  0  0  0  0  0  0  0  0  0  0  0
  146.2330  154.1430  133.5760 C   0  0  0  0  0  0  0  0  0  0  0  0
  147.5540  154.4930  133.2110 C   0  0  0  0  0  0  0  0  0  0  0  0
  148.5350  153.4620  132.9950 C   0  0  0  0  0  0  0  0  0  0  0  0
  149.3580  152.6000  132.8140 C   0  0  0  0  0  0  0  0  0  0  0  0
  150.3590  151.5520  132.5940 C   0  0  0  0  0  0  0  0  0  0  0  0
  150.3500  151.1550  131.2510 O   0  0  0  0  0  0  0  0  0  0  0  0
  147.9150  155.8470  133.0600 C   0  0  0  0  0  0  0  0  0  0  0  0
  146.9300  156.8160  133.2770 C   0  0  0  0  0  0  0  0  0  0  0  0
  147.0540  158.1560  133.2070 N   0  0  0  0  0  0  0  0  0  0  0  0
  148.2590  158.8750  132.9090 C   0  0  0  0  0  0  0  0  0  0  0  0
  148.6930  159.7300  133.7270 O   0  0  0  0  0  0  0  0  0  0  0  0
  148.9380  158.7010  131.5860 C   0  0  0  0  0  0  0  0  0  0  0  0
  149.3160  160.0380  131.0340 C   0  0  0  0  0  0  0  0  0  0  0  0
  150.3380  160.1580  130.3110 O   0  0  0  0  0  0  0  0  0  0  0  0
  148.5100  161.1430  131.2770 O   0  0  0  0  0  0  0  0  0  0  0  0
  147.2300  161.2350  133.0370 H   0  0  0  0  0  0  0  0  0  0  0  0
  143.8780  157.7267  134.0945 H   0  0  0  0  0  0  0  0  0  0  0  0
  144.2375  154.8806  134.0840 H   0  0  0  0  0  0  0  0  0  0  0  0
  145.9595  153.0834  133.6877 H   0  0  0  0  0  0  0  0  0  0  0  0
  151.3553  151.9400  132.8524 H   0  0  0  0  0  0  0  0  0  0  0  0
  150.1198  150.6856  133.2281 H   0  0  0  0  0  0  0  0  0  0  0  0
  151.2890  151.2090  130.9320 H   0  0  0  0  0  0  0  0  0  0  0  0
  148.9397  156.1328  132.7802 H   0  0  0  0  0  0  0  0  0  0  0  0
  149.8435  158.0903  131.7172 H   0  0  0  0  0  0  0  0  0  0  0  0
  148.2520  158.1992  130.8877 H   0  0  0  0  0  0  0  0  0  0  0  0
  1  2  1  0
  2  3  2  0
  2  4  1  0
  4  5  2  0
  5  6  1  0
  6  7  2  0
  7  8  1  0
  8  9  2  0
  9 10  1  0
 10 11  3  0
 11 12  1  0
 12 13  1  0
  9 14  1  0
 14 15  2  0
 15 16  1  0
 16 17  1  0
 17 18  2  0
 17 19  1  0
 19 20  1  0
 20 21  2  0
 20 22  1  0
 16  4  1  0
 15  6  1  0
  1 23  1  0
  5 24  1  0
  7 25  1  0
  8 26  1  0
 12 27  1  0
 12 28  1  0
 13 29  1  0
 14 30  1  0
 19 31  1  0
 19 32  1  0
M  CHG  2   1  -1  22  -1
M  END
>  <UniqueID>  (76) 
76

>  <SMILES>  (76) 
[NH-]C(=O)c1cc2ccc(C#CCO)cc2n1C(=O)CC(=O)[O-]

>  <Energy>  (76) 
65.07599350941788

>  <Genealogy>  (76) 
[NH-]C(=O)c1cc2ccc(C#CCO)cc2n1C(=O)CC(=O)[O-] (protonated)
[NH-]C(=O)c1cc2ccc(C#CCO)cc2n1C(=O)CC(=O)[O-] (3D coordinates assigned)
[NH-]C(=O)c1cc2ccc(C#CCO)cc2n1C(=O)CC(=O)[O-] (optimized conformer: 65.07599350941788 kcal/mol)

>  <smiles>  (76) 
NC(=O)c1cc2ccc(C#CCO)cc2n1C(=O)CC(=O)O

>  <score_type>  (76) 
oracle

>  <origin>  (76) 
adg

>  <m_score__min__energy>  (76) 
-6.4800000000000004

>  <m_primary>  (76) 
energy

$$$$
77:0
     RDKit          3D

 34 35  0  0  0  0  0  0  0  0999 V2000
  142.1640  160.1570  132.9770 N   0  0  0  0  0  0  0  0  0  0  0  0
  143.4380  160.4470  133.5530 C   0  0  0  0  0  0  0  0  0  0  0  0
  143.6340  161.5710  134.0890 O   0  0  0  0  0  0  0  0  0  0  0  0
  144.5490  159.4810  133.4680 C   0  0  0  0  0  0  0  0  0  0  0  0
  145.8750  159.8530  133.2660 C   0  0  0  0  0  0  0  0  0  0  0  0
  146.5740  158.6710  133.1850 C   0  0  0  0  0  0  0  0  0  0  0  0
  147.9380  158.4520  133.0200 C   0  0  0  0  0  0  0  0  0  0  0  0
  148.3980  157.1240  133.0230 C   0  0  0  0  0  0  0  0  0  0  0  0
  147.4920  156.0430  133.1840 C   0  0  0  0  0  0  0  0  0  0  0  0
  147.9940  154.6210  133.2520 C   0  0  0  0  0  0  0  0  0  0  0  0
  149.2210  154.4960  132.6240 F   0  0  0  0  0  0  0  0  0  0  0  0
  147.1000  153.7660  132.6310 F   0  0  0  0  0  0  0  0  0  0  0  0
  148.1240  154.2500  134.5760 F   0  0  0  0  0  0  0  0  0  0  0  0
  146.1170  156.3100  133.3740 C   0  0  0  0  0  0  0  0  0  0  0  0
  145.6830  157.6410  133.3440 C   0  0  0  0  0  0  0  0  0  0  0  0
  144.4310  158.1220  133.5210 N   0  0  0  0  0  0  0  0  0  0  0  0
  143.2590  157.3590  133.8570 C   0  0  0  0  0  0  0  0  0  0  0  0
  143.2010  156.7400  134.9530 O   0  0  0  0  0  0  0  0  0  0  0  0
  142.1460  157.3250  132.9590 N   0  0  0  0  0  0  0  0  0  0  0  0
  140.5120  157.1290  133.4990 S   0  0  0  0  0  0  0  0  0  0  0  0
  140.2320  155.6690  133.7210 O   0  0  0  0  0  0  0  0  0  0  0  0
  140.3380  157.8570  134.8020 O   0  0  0  0  0  0  0  0  0  0  0  0
  139.3640  157.7800  132.2960 C   0  0  0  0  0  0  0  0  0  0  0  0
  139.7730  159.1480  131.8490 C   0  0  0  0  0  0  0  0  0  0  0  0
  140.5150  159.2910  130.8380 O   0  0  0  0  0  0  0  0  0  0  0  0
  139.3590  160.2660  132.5630 O   0  0  0  0  0  0  0  0  0  0  0  0
  142.0320  159.3130  132.3780 H   0  0  0  0  0  0  0  0  0  0  0  0
  141.3730  160.8300  133.0790 H   0  0  0  0  0  0  0  0  0  0  0  0
  146.2777  160.8736  133.1879 H   0  0  0  0  0  0  0  0  0  0  0  0
  148.6354  159.2929  132.8911 H   0  0  0  0  0  0  0  0  0  0  0  0
  149.4718  156.9200  132.8992 H   0  0  0  0  0  0  0  0  0  0  0  0
  145.4033  155.4899  133.5418 H   0  0  0  0  0  0  0  0  0  0  0  0
  139.3380  157.1096  131.4243 H   0  0  0  0  0  0  0  0  0  0  0  0
  138.3695  157.8464  132.7613 H   0  0  0  0  0  0  0  0  0  0  0  0
  1  2  1  0
  2  3  2  0
  2  4  1  0
  4  5  2  0
  5  6  1  0
  6  7  2  0
  7  8  1  0
  8  9  2  0
  9 10  1  0
 10 11  1  0
 10 12  1  0
 10 13  1  0
  9 14  1  0
 14 15  2  0
 15 16  1  0
 16 17  1  0
 17 18  2  0
 17 19  1  0
 19 20  1  0
 20 21  2  0
 20 22  2  0
 20 23  1  0
 23 24  1  0
 24 25  2  0
 24 26  1  0
 16  4  1  0
 15  6  1  0
  1 27  1  0
  1 28  1  0
  5 29  1  0
  7 30  1  0
  8 31  1  0
 14 32  1  0
 23 33  1  0
 23 34  1  0
M  CHG  2  19  -1  26  -1
M  END
>  <UniqueID>  (77) 
77

>  <SMILES>  (77) 
NC(=O)c1cc2ccc(C(F)(F)F)cc2n1C(=O)[N-]S(=O)(=O)CC(=O)[O-]

>  <Energy>  (77) 
70.80825222718916

>  <Genealogy>  (77) 
NC(=O)c1cc2ccc(C(F)(F)F)cc2n1C(=O)[N-]S(=O)(=O)CC(=O)[O-] (protonated)
NC(=O)c1cc2ccc(C(F)(F)F)cc2n1C(=O)[N-]S(=O)(=O)CC(=O)[O-] (3D coordinates assigned)
NC(=O)c1cc2ccc(C(F)(F)F)cc2n1C(=O)[N-]S(=O)(=O)CC(=O)[O-] (optimized conformer: 70.80825222718916 kcal/mol)

>  <smiles>  (77) 
NC(=O)c1cc2ccc(C(F)(F)F)cc2n1C(=O)NS(=O)(=O)CC(=O)O

>  <score_type>  (77) 
oracle

>  <origin>  (77) 
adg

>  <m_score__min__energy>  (77) 
-6.7699999999999996

>  <m_primary>  (77) 
energy

$$$$
78:0
     RDKit          3D

 35 37  0  0  0  0  0  0  0  0999 V2000
  141.7880  151.9890  138.8280 N   0  0  0  0  0  0  0  0  0  0  0  0
  141.0330  153.1500  139.1610 C   0  0  0  0  0  0  0  0  0  0  0  0
  140.3120  153.1410  140.1950 O   0  0  0  0  0  0  0  0  0  0  0  0
  141.0560  154.3510  138.2970 C   0  0  0  0  0  0  0  0  0  0  0  0
  140.4510  155.5600  138.6370 C   0  0  0  0  0  0  0  0  0  0  0  0
  140.6580  156.3890  137.5570 C   0  0  0  0  0  0  0  0  0  0  0  0
  140.2740  157.7110  137.3540 C   0  0  0  0  0  0  0  0  0  0  0  0
  140.6430  158.3260  136.1450 C   0  0  0  0  0  0  0  0  0  0  0  0
  141.4030  157.6190  135.1800 C   0  0  0  0  0  0  0  0  0  0  0  0
  141.7590  158.2690  133.8730 C   0  0  0  0  0  0  0  0  0  0  0  0
  140.5550  158.4510  133.0690 N   0  0  0  0  0  0  0  0  0  0  0  0
  139.7150  157.4750  132.6740 C   0  0  0  0  0  0  0  0  0  0  0  0
  138.7500  158.0340  131.8620 C   0  0  0  0  0  0  0  0  0  0  0  0
  139.0870  159.3750  131.8030 C   0  0  0  0  0  0  0  0  0  0  0  0
  138.3760  160.4090  131.0440 C   0  0  0  0  0  0  0  0  0  0  0  0
  139.0180  161.2240  130.3320 O   0  0  0  0  0  0  0  0  0  0  0  0
  136.9900  160.4940  131.1060 O   0  0  0  0  0  0  0  0  0  0  0  0
  140.1920  159.6060  132.5370 N   0  0  0  0  0  0  0  0  0  0  0  0
  141.7670  156.2760  135.4180 C   0  0  0  0  0  0  0  0  0  0  0  0
  141.3650  155.6840  136.6190 C   0  0  0  0  0  0  0  0  0  0  0  0
  141.6120  154.4300  137.0550 N   0  0  0  0  0  0  0  0  0  0  0  0
  142.3780  153.4270  136.3690 C   0  0  0  0  0  0  0  0  0  0  0  0
  143.6250  153.3720  136.5390 O   0  0  0  0  0  0  0  0  0  0  0  0
  141.7260  152.4610  135.4740 C   0  0  0  0  0  0  0  0  0  0  0  0
  141.7970  152.6000  134.2250 O   0  0  0  0  0  0  0  0  0  0  0  0
  141.0110  151.3940  136.0050 O   0  0  0  0  0  0  0  0  0  0  0  0
  142.1280  151.8310  137.8540 H   0  0  0  0  0  0  0  0  0  0  0  0
  139.9207  155.8008  139.5701 H   0  0  0  0  0  0  0  0  0  0  0  0
  139.6994  158.2579  138.1161 H   0  0  0  0  0  0  0  0  0  0  0  0
  140.3394  159.3644  135.9463 H   0  0  0  0  0  0  0  0  0  0  0  0
  142.2212  159.2484  134.0658 H   0  0  0  0  0  0  0  0  0  0  0  0
  142.4667  157.6269  133.3282 H   0  0  0  0  0  0  0  0  0  0  0  0
  139.7863  156.4130  132.9516 H   0  0  0  0  0  0  0  0  0  0  0  0
  137.9045  157.5285  131.3725 H   0  0  0  0  0  0  0  0  0  0  0  0
  142.3517  155.7101  134.6778 H   0  0  0  0  0  0  0  0  0  0  0  0
  1  2  1  0
  2  3  2  0
  2  4  1  0
  4  5  2  0
  5  6  1  0
  6  7  2  0
  7  8  1  0
  8  9  2  0
  9 10  1  0
 10 11  1  0
 11 12  1  0
 12 13  2  0
 13 14  1  0
 14 15  1  0
 15 16  2  0
 15 17  1  0
 14 18  2  0
  9 19  1  0
 19 20  2  0
 20 21  1  0
 21 22  1  0
 22 23  2  0
 22 24  1  0
 24 25  2  0
 24 26  1  0
 21  4  1  0
 20  6  1  0
 18 11  1  0
  1 27  1  0
  5 28  1  0
  7 29  1  0
  8 30  1  0
 10 31  1  0
 10 32  1  0
 12 33  1  0
 13 34  1  0
 19 35  1  0
M  CHG  3   1  -1  17  -1  26  -1
M  END
>  <UniqueID>  (78) 
78

>  <SMILES>  (78) 
[NH-]C(=O)c1cc2ccc(Cn3ccc(C(=O)[O-])n3)cc2n1C(=O)C(=O)[O-]

>  <Energy>  (78) 
103.53359468843497

>  <Genealogy>  (78) 
[NH-]C(=O)c1cc2ccc(Cn3ccc(C(=O)[O-])n3)cc2n1C(=O)C(=O)[O-] (protonated)
[NH-]C(=O)c1cc2ccc(Cn3ccc(C(=O)[O-])n3)cc2n1C(=O)C(=O)[O-] (3D coordinates assigned)
[NH-]C(=O)c1cc2ccc(Cn3ccc(C(=O)[O-])n3)cc2n1C(=O)C(=O)[O-] (optimized conformer: 103.53359468843497 kcal/mol)

>  <smiles>  (78) 
NC(=O)c1cc2ccc(Cn3ccc(C(=O)O)n3)cc2n1C(=O)C(=O)O

>  <score_type>  (78) 
oracle

>  <origin>  (78) 
adg

>  <m_score__min__energy>  (78) 
-7.6299999999999999

>  <m_primary>  (78) 
energy

$$$$
79:0
     RDKit          3D

 37 38  0  0  0  0  0  0  0  0999 V2000
  140.6260  159.3620  134.0260 C   0  0  0  0  0  0  0  0  0  0  0  0
  141.4150  158.7420  135.1930 C   0  0  0  0  0  0  0  0  0  0  0  0
  140.9750  159.3620  136.5330 C   0  0  0  0  0  0  0  0  0  0  0  0
  141.1500  157.2290  135.2300 C   0  0  0  0  0  0  0  0  0  0  0  0
  142.8550  158.9370  134.9910 N   0  0  0  0  0  0  0  0  0  0  0  0
  143.6020  158.6730  133.7960 C   0  0  0  0  0  0  0  0  0  0  0  0
  143.0910  158.0140  132.8520 O   0  0  0  0  0  0  0  0  0  0  0  0
  144.9520  159.1510  133.6830 N   0  0  0  0  0  0  0  0  0  0  0  0
  145.3870  160.4420  133.6940 C   0  0  0  0  0  0  0  0  0  0  0  0
  144.5540  161.6360  133.9540 C   0  0  0  0  0  0  0  0  0  0  0  0
  143.1490  161.5870  133.7130 N   0  0  0  0  0  0  0  0  0  0  0  0
  145.0730  162.7100  134.3570 O   0  0  0  0  0  0  0  0  0  0  0  0
  146.7660  160.4940  133.4990 C   0  0  0  0  0  0  0  0  0  0  0  0
  147.1660  159.1830  133.3740 C   0  0  0  0  0  0  0  0  0  0  0  0
  148.4310  158.6530  133.1420 C   0  0  0  0  0  0  0  0  0  0  0  0
  148.5490  157.2580  133.0220 C   0  0  0  0  0  0  0  0  0  0  0  0
  147.4100  156.4200  133.1430 C   0  0  0  0  0  0  0  0  0  0  0  0
  147.5390  154.9310  132.9490 C   0  0  0  0  0  0  0  0  0  0  0  0
  146.4370  154.4660  132.2540 F   0  0  0  0  0  0  0  0  0  0  0  0
  147.6070  154.2830  134.1700 F   0  0  0  0  0  0  0  0  0  0  0  0
  148.6840  154.6280  132.2340 F   0  0  0  0  0  0  0  0  0  0  0  0
  146.1370  157.0010  133.3530 C   0  0  0  0  0  0  0  0  0  0  0  0
  146.0530  158.3920  133.4880 C   0  0  0  0  0  0  0  0  0  0  0  0
  139.8197  159.9956  134.4241 H   0  0  0  0  0  0  0  0  0  0  0  0
  141.3021  159.9730  133.4099 H   0  0  0  0  0  0  0  0  0  0  0  0
  140.1923  158.5606  133.4099 H   0  0  0  0  0  0  0  0  0  0  0  0
  141.3923  158.7739  137.3637 H   0  0  0  0  0  0  0  0  0  0  0  0
  141.3417  160.3972  136.5960 H   0  0  0  0  0  0  0  0  0  0  0  0
  139.8768  159.3576  136.5960 H   0  0  0  0  0  0  0  0  0  0  0  0
  141.0911  156.8925  136.2756 H   0  0  0  0  0  0  0  0  0  0  0  0
  140.1999  157.0106  134.7204 H   0  0  0  0  0  0  0  0  0  0  0  0
  141.9693  156.7007  134.7204 H   0  0  0  0  0  0  0  0  0  0  0  0
  142.6360  160.6770  133.7150 H   0  0  0  0  0  0  0  0  0  0  0  0
  147.3999  161.3919  133.4545 H   0  0  0  0  0  0  0  0  0  0  0  0
  149.3120  159.3060  133.0551 H   0  0  0  0  0  0  0  0  0  0  0  0
  149.5356  156.8102  132.8321 H   0  0  0  0  0  0  0  0  0  0  0  0
  145.2346  156.3745  133.4089 H   0  0  0  0  0  0  0  0  0  0  0  0
  1  2  1  0
  2  3  1  0
  2  4  1  0
  2  5  1  0
  5  6  1  0
  6  7  2  0
  6  8  1  0
  8  9  1  0
  9 10  1  0
 10 11  1  0
 10 12  2  0
  9 13  2  0
 13 14  1  0
 14 15  2  0
 15 16  1  0
 16 17  2  0
 17 18  1  0
 18 19  1  0
 18 20  1  0
 18 21  1  0
 17 22  1  0
 22 23  2  0
 23  8  1  0
 23 14  1  0
  1 24  1  0
  1 25  1  0
  1 26  1  0
  3 27  1  0
  3 28  1  0
  3 29  1  0
  4 30  1  0
  4 31  1  0
  4 32  1  0
 11 33  1  0
 13 34  1  0
 15 35  1  0
 16 36  1  0
 22 37  1  0
M  CHG  2   5  -1  11  -1
M  END
>  <UniqueID>  (79) 
79

>  <SMILES>  (79) 
CC(C)(C)[N-]C(=O)n1c(C([NH-])=O)cc2ccc(C(F)(F)F)cc21

>  <Energy>  (79) 
70.71082742699224

>  <Genealogy>  (79) 
CC(C)(C)[N-]C(=O)n1c(C([NH-])=O)cc2ccc(C(F)(F)F)cc21 (protonated)
CC(C)(C)[N-]C(=O)n1c(C([NH-])=O)cc2ccc(C(F)(F)F)cc21 (3D coordinates assigned)
CC(C)(C)[N-]C(=O)n1c(C([NH-])=O)cc2ccc(C(F)(F)F)cc21 (optimized conformer: 70.71082742699224 kcal/mol)

>  <smiles>  (79) 
CC(C)(C)NC(=O)n1c(C(N)=O)cc2ccc(C(F)(F)F)cc21

>  <score_type>  (79) 
oracle

>  <origin>  (79) 
adg

>  <m_score__min__energy>  (79) 
-6.5099999999999998

>  <m_primary>  (79) 
energy

$$$$
80:0
     RDKit          3D

 40 41  0  0  0  0  0  0  0  0999 V2000
  141.7360  159.6200  135.5490 N   0  0  0  0  0  0  0  0  0  0  0  0
  142.3520  160.1110  134.3610 C   0  0  0  0  0  0  0  0  0  0  0  0
  141.6750  160.8030  133.5570 O   0  0  0  0  0  0  0  0  0  0  0  0
  143.7530  159.7710  134.0350 C   0  0  0  0  0  0  0  0  0  0  0  0
  144.7140  160.7230  133.7020 C   0  0  0  0  0  0  0  0  0  0  0  0
  145.8430  160.0040  133.3780 C   0  0  0  0  0  0  0  0  0  0  0  0
  147.1000  160.4440  132.9740 C   0  0  0  0  0  0  0  0  0  0  0  0
  148.0880  159.4770  132.7270 C   0  0  0  0  0  0  0  0  0  0  0  0
  147.8090  158.0990  132.9030 C   0  0  0  0  0  0  0  0  0  0  0  0
  148.8700  157.0730  132.6150 C   0  0  0  0  0  0  0  0  0  0  0  0
  148.3290  155.6900  132.8080 C   0  0  0  0  0  0  0  0  0  0  0  0
  149.0470  154.7160  132.6480 O   0  0  0  0  0  0  0  0  0  0  0  0
  146.5180  157.6880  133.3050 C   0  0  0  0  0  0  0  0  0  0  0  0
  145.5480  158.6740  133.5260 C   0  0  0  0  0  0  0  0  0  0  0  0
  144.2690  158.5130  133.9320 N   0  0  0  0  0  0  0  0  0  0  0  0
  143.6320  157.2690  134.2580 C   0  0  0  0  0  0  0  0  0  0  0  0
  144.3320  156.2670  134.5700 O   0  0  0  0  0  0  0  0  0  0  0  0
  142.2380  157.1690  134.2000 O   0  0  0  0  0  0  0  0  0  0  0  0
  141.5070  157.0870  132.9780 C   0  0  0  0  0  0  0  0  0  0  0  0
  140.1400  156.4370  133.2140 C   0  0  0  0  0  0  0  0  0  0  0  0
  139.0430  157.4980  133.3630 C   0  0  0  0  0  0  0  0  0  0  0  0
  139.1070  158.1930  134.7260 C   0  0  0  0  0  0  0  0  0  0  0  0
  139.8530  157.4350  135.6410 O   0  0  0  0  0  0  0  0  0  0  0  0
  141.6810  158.5950  135.7420 H   0  0  0  0  0  0  0  0  0  0  0  0
  144.5961  161.8167  133.6986 H   0  0  0  0  0  0  0  0  0  0  0  0
  147.3131  161.5162  132.8519 H   0  0  0  0  0  0  0  0  0  0  0  0
  149.0878  159.7923  132.3938 H   0  0  0  0  0  0  0  0  0  0  0  0
  149.2105  157.1866  131.5752 H   0  0  0  0  0  0  0  0  0  0  0  0
  149.7102  157.2261  133.3083 H   0  0  0  0  0  0  0  0  0  0  0  0
  147.2766  155.5509  133.0961 H   0  0  0  0  0  0  0  0  0  0  0  0
  146.2813  156.6224  133.4407 H   0  0  0  0  0  0  0  0  0  0  0  0
  141.3615  158.0999  132.5744 H   0  0  0  0  0  0  0  0  0  0  0  0
  142.0749  156.4726  132.2639 H   0  0  0  0  0  0  0  0  0  0  0  0
  139.8984  155.7879  132.3594 H   0  0  0  0  0  0  0  0  0  0  0  0
  140.1876  155.8505  134.1434 H   0  0  0  0  0  0  0  0  0  0  0  0
  139.1673  158.2525  132.5722 H   0  0  0  0  0  0  0  0  0  0  0  0
  138.0677  156.9961  133.2800 H   0  0  0  0  0  0  0  0  0  0  0  0
  139.5797  159.1789  134.6055 H   0  0  0  0  0  0  0  0  0  0  0  0
  138.0831  158.3019  135.1129 H   0  0  0  0  0  0  0  0  0  0  0  0
  140.8040  157.6860  135.5090 H   0  0  0  0  0  0  0  0  0  0  0  0
  1  2  1  0
  2  3  2  0
  2  4  1  0
  4  5  2  0
  5  6  1  0
  6  7  2  0
  7  8  1  0
  8  9  2  0
  9 10  1  0
 10 11  1  0
 11 12  2  0
  9 13  1  0
 13 14  2  0
 14 15  1  0
 15 16  1  0
 16 17  2  0
 16 18  1  0
 18 19  1  0
 19 20  1  0
 20 21  1  0
 21 22  1  0
 22 23  1  0
 15  4  1  0
 14  6  1  0
  1 24  1  0
  5 25  1  0
  7 26  1  0
  8 27  1  0
 10 28  1  0
 10 29  1  0
 11 30  1  0
 13 31  1  0
 19 32  1  0
 19 33  1  0
 20 34  1  0
 20 35  1  0
 21 36  1  0
 21 37  1  0
 22 38  1  0
 22 39  1  0
 23 40  1  0
M  CHG  1   1  -1
M  END
>  <UniqueID>  (80) 
80

>  <SMILES>  (80) 
[NH-]C(=O)c1cc2ccc(CC=O)cc2n1C(=O)OCCCCO

>  <Energy>  (80) 
69.43893056047357

>  <Genealogy>  (80) 
[NH-]C(=O)c1cc2ccc(CC=O)cc2n1C(=O)OCCCCO (protonated)
[NH-]C(=O)c1cc2ccc(CC=O)cc2n1C(=O)OCCCCO (3D coordinates assigned)
[NH-]C(=O)c1cc2ccc(CC=O)cc2n1C(=O)OCCCCO (optimized conformer: 69.43893056047357 kcal/mol)

>  <smiles>  (80) 
NC(=O)c1cc2ccc(CC=O)cc2n1C(=O)OCCCCO

>  <score_type>  (80) 
oracle

>  <origin>  (80) 
adg

>  <m_score__min__energy>  (80) 
-5.6699999999999999

>  <m_primary>  (80) 
energy

$$$$
81:0
     RDKit          3D

 41 43  0  0  0  0  0  0  0  0999 V2000
  150.0010  150.6160  134.2860 C   0  0  0  0  0  0  0  0  0  0  0  0
  149.4970  151.8450  133.6090 C   0  0  0  0  0  0  0  0  0  0  0  0
  148.5010  152.6080  134.1050 N   0  0  0  0  0  0  0  0  0  0  0  0
  148.3730  153.5880  133.1860 C   0  0  0  0  0  0  0  0  0  0  0  0
  147.3850  154.6900  133.2890 C   0  0  0  0  0  0  0  0  0  0  0  0
  145.9970  154.4220  133.4320 C   0  0  0  0  0  0  0  0  0  0  0  0
  145.0670  155.4710  133.5200 C   0  0  0  0  0  0  0  0  0  0  0  0
  145.5470  156.7750  133.4710 C   0  0  0  0  0  0  0  0  0  0  0  0
  144.8690  157.9720  133.5130 C   0  0  0  0  0  0  0  0  0  0  0  0
  145.8510  158.9580  133.4170 C   0  0  0  0  0  0  0  0  0  0  0  0
  145.5850  160.4130  133.4880 C   0  0  0  0  0  0  0  0  0  0  0  0
  146.6430  161.3420  133.7300 N   0  0  0  0  0  0  0  0  0  0  0  0
  144.4160  160.8500  133.3130 O   0  0  0  0  0  0  0  0  0  0  0  0
  147.0860  158.3890  133.3260 N   0  0  0  0  0  0  0  0  0  0  0  0
  148.3470  159.0590  133.1560 C   0  0  0  0  0  0  0  0  0  0  0  0
  148.8180  159.7340  134.1090 O   0  0  0  0  0  0  0  0  0  0  0  0
  149.1030  158.9180  131.8910 C   0  0  0  0  0  0  0  0  0  0  0  0
  149.5780  157.7840  131.6090 O   0  0  0  0  0  0  0  0  0  0  0  0
  149.3140  160.0200  130.9810 N   0  0  0  0  0  0  0  0  0  0  0  0
  148.5020  161.2420  131.0540 C   0  0  0  0  0  0  0  0  0  0  0  0
  150.2950  159.8670  129.9020 C   0  0  0  0  0  0  0  0  0  0  0  0
  146.8830  157.0540  133.3530 C   0  0  0  0  0  0  0  0  0  0  0  0
  147.8300  156.0310  133.2410 C   0  0  0  0  0  0  0  0  0  0  0  0
  149.2920  153.3780  132.1730 C   0  0  0  0  0  0  0  0  0  0  0  0
  149.9660  152.2950  132.4680 O   0  0  0  0  0  0  0  0  0  0  0  0
  149.9463  150.7495  135.3765 H   0  0  0  0  0  0  0  0  0  0  0  0
  149.3833  149.7551  133.9905 H   0  0  0  0  0  0  0  0  0  0  0  0
  151.0453  150.4367  133.9905 H   0  0  0  0  0  0  0  0  0  0  0  0
  145.6464  153.3802  133.4743 H   0  0  0  0  0  0  0  0  0  0  0  0
  143.9912  155.2669  133.6246 H   0  0  0  0  0  0  0  0  0  0  0  0
  143.7827  158.1198  133.6032 H   0  0  0  0  0  0  0  0  0  0  0  0
  146.4470  162.3710  133.7220 H   0  0  0  0  0  0  0  0  0  0  0  0
  147.6120  161.0200  133.9490 H   0  0  0  0  0  0  0  0  0  0  0  0
  148.3278  161.5041  132.1080 H   0  0  0  0  0  0  0  0  0  0  0  0
  149.0331  162.0656  130.5543 H   0  0  0  0  0  0  0  0  0  0  0  0
  147.5370  161.0714  130.5543 H   0  0  0  0  0  0  0  0  0  0  0  0
  151.2944  159.7111  130.3344 H   0  0  0  0  0  0  0  0  0  0  0  0
  150.0249  159.0001  129.2811 H   0  0  0  0  0  0  0  0  0  0  0  0
  150.3017  160.7750  129.2811 H   0  0  0  0  0  0  0  0  0  0  0  0
  148.8979  156.2647  133.1182 H   0  0  0  0  0  0  0  0  0  0  0  0
  149.4311  154.0070  131.2814 H   0  0  0  0  0  0  0  0  0  0  0  0
  1  2  1  0
  2  3  2  0
  3  4  1  0
  4  5  1  0
  5  6  2  0
  6  7  1  0
  7  8  2  0
  8  9  1  0
  9 10  2  0
 10 11  1  0
 11 12  1  0
 11 13  2  0
 10 14  1  0
 14 15  1  0
 15 16  2  0
 15 17  1  0
 17 18  2  0
 17 19  1  0
 19 20  1  0
 19 21  1  0
 14 22  1  0
 22 23  2  0
  4 24  2  0
 24 25  1  0
 25  2  1  0
 23  5  1  0
 22  8  1  0
  1 26  1  0
  1 27  1  0
  1 28  1  0
  6 29  1  0
  7 30  1  0
  9 31  1  0
 12 32  1  0
 12 33  1  0
 20 34  1  0
 20 35  1  0
 20 36  1  0
 21 37  1  0
 21 38  1  0
 21 39  1  0
 23 40  1  0
 24 41  1  0
M  END
>  <UniqueID>  (81) 
81

>  <SMILES>  (81) 
Cc1nc(-c2ccc3cc(C(N)=O)n(C(=O)C(=O)N(C)C)c3c2)co1

>  <Energy>  (81) 
111.63544299999205

>  <Genealogy>  (81) 
Cc1nc(-c2ccc3cc(C(N)=O)n(C(=O)C(=O)N(C)C)c3c2)co1 (3D coordinates assigned)
Cc1nc(-c2ccc3cc(C(N)=O)n(C(=O)C(=O)N(C)C)c3c2)co1 (optimized conformer: 111.63544299999205 kcal/mol)

>  <smiles>  (81) 
Cc1nc(-c2ccc3cc(C(N)=O)n(C(=O)C(=O)N(C)C)c3c2)co1

>  <score_type>  (81) 
oracle

>  <origin>  (81) 
adg

>  <m_score__min__energy>  (81) 
-7.7699999999999996

>  <m_primary>  (81) 
energy

$$$$
82:0
     RDKit          3D

 42 44  0  0  0  0  0  0  0  0999 V2000
  139.8440  159.3630  131.5810 C   0  0  0  0  0  0  0  0  0  0  0  0
  140.6920  158.9960  132.7650 C   0  0  0  0  0  0  0  0  0  0  0  0
  140.6450  159.6840  133.7730 O   0  0  0  0  0  0  0  0  0  0  0  0
  141.6060  157.8020  132.7400 C   0  0  0  0  0  0  0  0  0  0  0  0
  142.9690  158.2070  132.6420 O   0  0  0  0  0  0  0  0  0  0  0  0
  143.8310  158.2370  133.7420 C   0  0  0  0  0  0  0  0  0  0  0  0
  143.4680  157.7520  134.8480 O   0  0  0  0  0  0  0  0  0  0  0  0
  145.1410  158.8060  133.6020 N   0  0  0  0  0  0  0  0  0  0  0  0
  145.4730  160.1290  133.5740 C   0  0  0  0  0  0  0  0  0  0  0  0
  144.5650  161.2570  133.8650 C   0  0  0  0  0  0  0  0  0  0  0  0
  143.1540  161.1150  133.7260 N   0  0  0  0  0  0  0  0  0  0  0  0
  145.0370  162.3450  134.2890 O   0  0  0  0  0  0  0  0  0  0  0  0
  146.8300  160.2870  133.3050 C   0  0  0  0  0  0  0  0  0  0  0  0
  147.3280  159.0100  133.1780 C   0  0  0  0  0  0  0  0  0  0  0  0
  148.6180  158.5780  132.8970 C   0  0  0  0  0  0  0  0  0  0  0  0
  148.8430  157.1970  132.7910 C   0  0  0  0  0  0  0  0  0  0  0  0
  147.7800  156.2650  132.9550 C   0  0  0  0  0  0  0  0  0  0  0  0
  148.0210  154.8440  132.8300 N   0  0  0  0  0  0  0  0  0  0  0  0
  149.3200  154.2640  132.5230 C   0  0  0  0  0  0  0  0  0  0  0  0
  149.1460  152.7580  132.6570 C   0  0  0  0  0  0  0  0  0  0  0  0
  147.6430  152.5080  132.6050 C   0  0  0  0  0  0  0  0  0  0  0  0
  146.9920  153.8280  132.9930 C   0  0  0  0  0  0  0  0  0  0  0  0
  146.4800  156.7530  133.2390 C   0  0  0  0  0  0  0  0  0  0  0  0
  146.2890  158.1340  133.3600 C   0  0  0  0  0  0  0  0  0  0  0  0
  138.8866  159.7773  131.9300 H   0  0  0  0  0  0  0  0  0  0  0  0
  140.3689  160.1145  130.9729 H   0  0  0  0  0  0  0  0  0  0  0  0
  139.6554  158.4660  130.9729 H   0  0  0  0  0  0  0  0  0  0  0  0
  141.4679  157.2232  133.6652 H   0  0  0  0  0  0  0  0  0  0  0  0
  141.3578  157.1877  131.8619 H   0  0  0  0  0  0  0  0  0  0  0  0
  142.7270  160.1930  133.4860 H   0  0  0  0  0  0  0  0  0  0  0  0
  147.3860  161.2317  133.2134 H   0  0  0  0  0  0  0  0  0  0  0  0
  149.4390  159.2974  132.7616 H   0  0  0  0  0  0  0  0  0  0  0  0
  149.8574  156.8288  132.5777 H   0  0  0  0  0  0  0  0  0  0  0  0
  149.6229  154.5246  131.4981 H   0  0  0  0  0  0  0  0  0  0  0  0
  150.1013  154.6422  133.1987 H   0  0  0  0  0  0  0  0  0  0  0  0
  149.6497  152.2388  131.8283 H   0  0  0  0  0  0  0  0  0  0  0  0
  149.5874  152.3807  133.5913 H   0  0  0  0  0  0  0  0  0  0  0  0
  147.3381  152.2138  131.5899 H   0  0  0  0  0  0  0  0  0  0  0  0
  147.3434  151.6935  133.2809 H   0  0  0  0  0  0  0  0  0  0  0  0
  146.1367  154.0407  132.3348 H   0  0  0  0  0  0  0  0  0  0  0  0
  146.6103  153.8020  134.0243 H   0  0  0  0  0  0  0  0  0  0  0  0
  145.6360  156.0584  133.3621 H   0  0  0  0  0  0  0  0  0  0  0  0
  1  2  1  0
  2  3  2  0
  2  4  1  0
  4  5  1  0
  5  6  1  0
  6  7  2  0
  6  8  1  0
  8  9  1  0
  9 10  1  0
 10 11  1  0
 10 12  2  0
  9 13  2  0
 13 14  1  0
 14 15  2  0
 15 16  1  0
 16 17  2  0
 17 18  1  0
 18 19  1  0
 19 20  1  0
 20 21  1  0
 21 22  1  0
 17 23  1  0
 23 24  2  0
 24  8  1  0
 24 14  1  0
 22 18  1  0
  1 25  1  0
  1 26  1  0
  1 27  1  0
  4 28  1  0
  4 29  1  0
 11 30  1  0
 13 31  1  0
 15 32  1  0
 16 33  1  0
 19 34  1  0
 19 35  1  0
 20 36  1  0
 20 37  1  0
 21 38  1  0
 21 39  1  0
 22 40  1  0
 22 41  1  0
 23 42  1  0
M  CHG  1  11  -1
M  END
>  <UniqueID>  (82) 
82

>  <SMILES>  (82) 
CC(=O)COC(=O)n1c(C([NH-])=O)cc2ccc(N3CCCC3)cc21

>  <Energy>  (82) 
78.83223144013654

>  <Genealogy>  (82) 
CC(=O)COC(=O)n1c(C([NH-])=O)cc2ccc(N3CCCC3)cc21 (protonated)
CC(=O)COC(=O)n1c(C([NH-])=O)cc2ccc(N3CCCC3)cc21 (3D coordinates assigned)
CC(=O)COC(=O)n1c(C([NH-])=O)cc2ccc(N3CCCC3)cc21 (nonaromatic ring conformer: 78.83223144013654 kcal/mol)

>  <smiles>  (82) 
CC(=O)COC(=O)n1c(C(N)=O)cc2ccc(N3CCCC3)cc21

>  <score_type>  (82) 
oracle

>  <origin>  (82) 
adg

>  <m_score__min__energy>  (82) 
-7.1699999999999999

>  <m_primary>  (82) 
energy

$$$$
83:0
     RDKit          3D

 38 40  0  0  0  0  0  0  0  0999 V2000
  145.7570  160.3830  133.9910 N   0  0  0  0  0  0  0  0  0  0  0  0
  144.9070  159.2890  133.6510 C   0  0  0  0  0  0  0  0  0  0  0  0
  143.6890  159.5060  133.4160 O   0  0  0  0  0  0  0  0  0  0  0  0
  145.4440  157.9170  133.5320 C   0  0  0  0  0  0  0  0  0  0  0  0
  144.6420  156.7800  133.4510 C   0  0  0  0  0  0  0  0  0  0  0  0
  145.5160  155.7310  133.2690 C   0  0  0  0  0  0  0  0  0  0  0  0
  145.2670  154.3680  133.1400 C   0  0  0  0  0  0  0  0  0  0  0  0
  146.3680  153.5080  132.9870 C   0  0  0  0  0  0  0  0  0  0  0  0
  147.6920  154.0230  132.9500 C   0  0  0  0  0  0  0  0  0  0  0  0
  148.8670  153.0850  132.8440 C   0  0  0  0  0  0  0  0  0  0  0  0
  149.9980  153.7650  132.4270 F   0  0  0  0  0  0  0  0  0  0  0  0
  148.6080  152.0790  131.9300 F   0  0  0  0  0  0  0  0  0  0  0  0
  149.1110  152.5180  134.0800 F   0  0  0  0  0  0  0  0  0  0  0  0
  147.9020  155.4130  133.1080 C   0  0  0  0  0  0  0  0  0  0  0  0
  146.7860  156.2420  133.2480 C   0  0  0  0  0  0  0  0  0  0  0  0
  146.7590  157.5810  133.4160 N   0  0  0  0  0  0  0  0  0  0  0  0
  147.9070  158.4390  133.5080 C   0  0  0  0  0  0  0  0  0  0  0  0
  148.4320  158.6520  134.6330 O   0  0  0  0  0  0  0  0  0  0  0  0
  148.4380  159.1130  132.3070 C   0  0  0  0  0  0  0  0  0  0  0  0
  149.5410  158.7420  131.8250 O   0  0  0  0  0  0  0  0  0  0  0  0
  147.7050  160.1790  131.6830 N   0  0  0  0  0  0  0  0  0  0  0  0
  148.2190  160.8600  130.4920 C   0  0  0  0  0  0  0  0  0  0  0  0
  148.7860  159.9020  129.4440 C   0  0  0  0  0  0  0  0  0  0  0  0
  150.1750  160.4870  129.6680 C   0  0  0  0  0  0  0  0  0  0  0  0
  149.6130  161.4400  130.7140 C   0  0  0  0  0  0  0  0  0  0  0  0
  146.7510  160.2260  134.2660 H   0  0  0  0  0  0  0  0  0  0  0  0
  143.5451  156.7308  133.5181 H   0  0  0  0  0  0  0  0  0  0  0  0
  144.2395  153.9756  133.1573 H   0  0  0  0  0  0  0  0  0  0  0  0
  146.2031  152.4243  132.8949 H   0  0  0  0  0  0  0  0  0  0  0  0
  148.9193  155.8311  133.1204 H   0  0  0  0  0  0  0  0  0  0  0  0
  146.8150  160.5040  132.1230 H   0  0  0  0  0  0  0  0  0  0  0  0
  147.3668  161.5094  130.2428 H   0  0  0  0  0  0  0  0  0  0  0  0
  148.6972  158.8388  129.7117 H   0  0  0  0  0  0  0  0  0  0  0  0
  148.3538  159.8607  128.4333 H   0  0  0  0  0  0  0  0  0  0  0  0
  150.9058  159.7668  130.0647 H   0  0  0  0  0  0  0  0  0  0  0  0
  150.7561  160.8761  128.8189 H   0  0  0  0  0  0  0  0  0  0  0  0
  150.0101  161.2798  131.7272 H   0  0  0  0  0  0  0  0  0  0  0  0
  149.7855  162.5232  130.6306 H   0  0  0  0  0  0  0  0  0  0  0  0
  1  2  1  0
  2  3  2  0
  2  4  1  0
  4  5  2  0
  5  6  1  0
  6  7  2  0
  7  8  1  0
  8  9  2  0
  9 10  1  0
 10 11  1  0
 10 12  1  0
 10 13  1  0
  9 14  1  0
 14 15  2  0
 15 16  1  0
 16 17  1  0
 17 18  2  0
 17 19  1  0
 19 20  2  0
 19 21  1  0
 21 22  1  0
 22 23  1  0
 23 24  1  0
 24 25  1  0
 16  4  1  0
 25 22  1  0
 15  6  1  0
  1 26  1  0
  5 27  1  0
  7 28  1  0
  8 29  1  0
 14 30  1  0
 21 31  1  0
 22 32  1  0
 23 33  1  0
 23 34  1  0
 24 35  1  0
 24 36  1  0
 25 37  1  0
 25 38  1  0
M  CHG  1   1  -1
M  END
>  <UniqueID>  (83) 
83

>  <SMILES>  (83) 
[NH-]C(=O)c1cc2ccc(C(F)(F)F)cc2n1C(=O)C(=O)NC1CCC1

>  <Energy>  (83) 
137.30424037985767

>  <Genealogy>  (83) 
[NH-]C(=O)c1cc2ccc(C(F)(F)F)cc2n1C(=O)C(=O)NC1CCC1 (protonated)
[NH-]C(=O)c1cc2ccc(C(F)(F)F)cc2n1C(=O)C(=O)NC1CCC1 (3D coordinates assigned)
[NH-]C(=O)c1cc2ccc(C(F)(F)F)cc2n1C(=O)C(=O)NC1CCC1 (nonaromatic ring conformer: 137.30424037985767 kcal/mol)

>  <smiles>  (83) 
NC(=O)c1cc2ccc(C(F)(F)F)cc2n1C(=O)C(=O)NC1CCC1

>  <score_type>  (83) 
oracle

>  <origin>  (83) 
adg

>  <m_score__min__energy>  (83) 
-7.4500000000000002

>  <m_primary>  (83) 
energy

$$$$
84:0
     RDKit          3D

 56 58  0  0  0  0  0  0  0  0999 V2000
  140.9980  152.0850  133.3130 C   0  0  0  0  0  0  0  0  0  0  0  0
  141.3030  153.7450  132.7340 S   0  0  0  0  0  0  0  0  0  0  0  0
  142.9470  154.0160  132.5020 O   0  0  0  0  0  0  0  0  0  0  0  0
  140.6110  154.9500  133.7780 N   0  0  0  0  0  0  0  0  0  0  0  0
  139.9260  155.9700  132.9790 C   0  0  0  0  0  0  0  0  0  0  0  0
  139.3650  157.0900  133.8850 C   0  0  0  0  0  0  0  0  0  0  0  0
  140.3900  157.5140  134.9750 C   0  0  0  0  0  0  0  0  0  0  0  0
  140.6070  159.0320  135.0310 C   0  0  0  0  0  0  0  0  0  0  0  0
  140.9710  159.6000  133.7100 N   0  0  0  0  0  0  0  0  0  0  0  0
  142.3980  159.3960  133.3630 C   0  0  0  0  0  0  0  0  0  0  0  0
  143.1380  158.5400  134.4130 C   0  0  0  0  0  0  0  0  0  0  0  0
  143.6240  157.2360  133.8390 C   0  0  0  0  0  0  0  0  0  0  0  0
  142.8510  156.5490  133.1190 O   0  0  0  0  0  0  0  0  0  0  0  0
  144.9410  156.7470  134.1280 N   0  0  0  0  0  0  0  0  0  0  0  0
  145.2860  155.5820  134.7430 C   0  0  0  0  0  0  0  0  0  0  0  0
  144.3580  154.6690  135.4450 C   0  0  0  0  0  0  0  0  0  0  0  0
  142.9500  154.7740  135.2530 N   0  0  0  0  0  0  0  0  0  0  0  0
  144.8100  153.8160  136.2550 O   0  0  0  0  0  0  0  0  0  0  0  0
  146.6670  155.4020  134.7070 C   0  0  0  0  0  0  0  0  0  0  0  0
  147.1620  156.5130  134.0600 C   0  0  0  0  0  0  0  0  0  0  0  0
  148.4720  156.8590  133.7480 C   0  0  0  0  0  0  0  0  0  0  0  0
  148.6880  158.0660  133.0580 C   0  0  0  0  0  0  0  0  0  0  0  0
  147.5960  158.8890  132.6760 C   0  0  0  0  0  0  0  0  0  0  0  0
  147.8450  160.2070  131.9840 C   0  0  0  0  0  0  0  0  0  0  0  0
  147.6390  161.2360  132.8830 F   0  0  0  0  0  0  0  0  0  0  0  0
  149.1460  160.2730  131.5140 F   0  0  0  0  0  0  0  0  0  0  0  0
  146.9860  160.3660  130.9090 F   0  0  0  0  0  0  0  0  0  0  0  0
  146.2810  158.5110  133.0320 C   0  0  0  0  0  0  0  0  0  0  0  0
  146.1000  157.3110  133.7270 C   0  0  0  0  0  0  0  0  0  0  0  0
  140.0760  159.1680  132.5990 C   0  0  0  0  0  0  0  0  0  0  0  0
  138.8920  158.2980  133.0480 C   0  0  0  0  0  0  0  0  0  0  0  0
  140.9961  152.0749  134.4130 H   0  0  0  0  0  0  0  0  0  0  0  0
  140.0216  151.7407  132.9415 H   0  0  0  0  0  0  0  0  0  0  0  0
  141.7883  151.4161  132.9415 H   0  0  0  0  0  0  0  0  0  0  0  0
  143.1920  154.7140  133.1610 H   0  0  0  0  0  0  0  0  0  0  0  0
  141.4170  155.3950  134.2690 H   0  0  0  0  0  0  0  0  0  0  0  0
  140.6387  156.4071  132.2642 H   0  0  0  0  0  0  0  0  0  0  0  0
  139.0896  155.4965  132.4439 H   0  0  0  0  0  0  0  0  0  0  0  0
  138.4871  156.6844  134.4092 H   0  0  0  0  0  0  0  0  0  0  0  0
  140.0211  157.1756  135.9545 H   0  0  0  0  0  0  0  0  0  0  0  0
  141.3547  157.0514  134.7193 H   0  0  0  0  0  0  0  0  0  0  0  0
  139.6782  159.5091  135.3770 H   0  0  0  0  0  0  0  0  0  0  0  0
  141.4412  159.2264  135.7212 H   0  0  0  0  0  0  0  0  0  0  0  0
  142.4564  158.8894  132.3884 H   0  0  0  0  0  0  0  0  0  0  0  0
  142.8818  160.3834  133.3313 H   0  0  0  0  0  0  0  0  0  0  0  0
  144.0030  159.1072  134.7874 H   0  0  0  0  0  0  0  0  0  0  0  0
  142.4303  158.3109  135.2234 H   0  0  0  0  0  0  0  0  0  0  0  0
  142.5350  154.7830  134.2950 H   0  0  0  0  0  0  0  0  0  0  0  0
  147.2400  154.5536  135.1094 H   0  0  0  0  0  0  0  0  0  0  0  0
  149.3132  156.2094  134.0317 H   0  0  0  0  0  0  0  0  0  0  0  0
  149.7144  158.3755  132.8117 H   0  0  0  0  0  0  0  0  0  0  0  0
  145.4215  159.1451  132.7688 H   0  0  0  0  0  0  0  0  0  0  0  0
  139.6767  160.0675  132.1077 H   0  0  0  0  0  0  0  0  0  0  0  0
  140.6854  158.5494  131.9237 H   0  0  0  0  0  0  0  0  0  0  0  0
  138.2093  158.9094  133.6564 H   0  0  0  0  0  0  0  0  0  0  0  0
  138.3818  157.9184  132.1505 H   0  0  0  0  0  0  0  0  0  0  0  0
  1  2  1  0
  2  3  1  1
  2  4  1  0
  4  5  1  0
  5  6  1  0
  6  7  1  0
  7  8  1  0
  8  9  1  0
  9 10  1  0
 10 11  1  0
 11 12  1  0
 12 13  2  0
 12 14  1  0
 14 15  1  0
 15 16  1  0
 16 17  1  0
 16 18  2  0
 15 19  2  0
 19 20  1  0
 20 21  2  0
 21 22  1  0
 22 23  2  0
 23 24  1  0
 24 25  1  0
 24 26  1  0
 24 27  1  0
 23 28  1  0
 28 29  2  0
  9 30  1  0
 30 31  1  0
 31  6  1  0
 29 14  1  0
 29 20  1  0
  1 32  1  0
  1 33  1  0
  1 34  1  0
  3 35  1  0
  4 36  1  0
  5 37  1  0
  5 38  1  0
  6 39  1  0
  7 40  1  0
  7 41  1  0
  8 42  1  0
  8 43  1  0
 10 44  1  0
 10 45  1  0
 11 46  1  0
 11 47  1  0
 17 48  1  0
 19 49  1  0
 21 50  1  0
 22 51  1  0
 28 52  1  0
 30 53  1  0
 30 54  1  0
 31 55  1  0
 31 56  1  0
M  CHG  2   2   1  17  -1
M  END
>  <UniqueID>  (84) 
84

>  <SMILES>  (84) 
C[S@+](O)NCC1CCN(CCC(=O)n2c(C([NH-])=O)cc3ccc(C(F)(F)F)cc32)CC1

>  <Energy>  (84) 
99.24971176911215

>  <Genealogy>  (84) 
C[S+](O)NCC1CCN(CCC(=O)n2c(C([NH-])=O)cc3ccc(C(F)(F)F)cc32)CC1 (protonated)
C[S@+](O)NCC1CCN(CCC(=O)n2c(C([NH-])=O)cc3ccc(C(F)(F)F)cc32)CC1 (chirality)
C[S@+](O)NCC1CCN(CCC(=O)n2c(C([NH-])=O)cc3ccc(C(F)(F)F)cc32)CC1 (3D coordinates assigned)
C[S@+](O)NCC1CCN(CCC(=O)n2c(C([NH-])=O)cc3ccc(C(F)(F)F)cc32)CC1 (nonaromatic ring conformer: 99.24971176911215 kcal/mol)

>  <smiles>  (84) 
C[S+]([O-])NCC1CCN(CCC(=O)n2c(C(N)=O)cc3ccc(C(F)(F)F)cc32)CC1

>  <score_type>  (84) 
oracle

>  <origin>  (84) 
adg

>  <m_score__min__energy>  (84) 
-6.9299999999999997

>  <m_primary>  (84) 
energy

$$$$
85:0
     RDKit          3D

 34 35  0  0  0  0  0  0  0  0999 V2000
  149.6320  150.8960  134.1740 C   0  0  0  0  0  0  0  0  0  0  0  0
  150.2650  151.3180  132.9870 O   0  0  0  0  0  0  0  0  0  0  0  0
  149.4140  152.1820  132.2530 C   0  0  0  0  0  0  0  0  0  0  0  0
  149.7060  153.6520  132.5780 C   0  0  0  0  0  0  0  0  0  0  0  0
  148.4330  154.4290  132.7880 C   0  0  0  0  0  0  0  0  0  0  0  0
  147.2060  153.7460  132.9800 C   0  0  0  0  0  0  0  0  0  0  0  0
  146.0190  154.4580  133.2170 C   0  0  0  0  0  0  0  0  0  0  0  0
  146.0900  155.8480  133.2630 C   0  0  0  0  0  0  0  0  0  0  0  0
  145.1030  156.7810  133.4900 C   0  0  0  0  0  0  0  0  0  0  0  0
  145.7440  158.0190  133.4300 C   0  0  0  0  0  0  0  0  0  0  0  0
  145.0490  159.3230  133.5250 C   0  0  0  0  0  0  0  0  0  0  0  0
  145.5740  160.4840  132.8790 N   0  0  0  0  0  0  0  0  0  0  0  0
  143.9890  159.4240  134.1990 O   0  0  0  0  0  0  0  0  0  0  0  0
  147.0740  157.8530  133.1840 N   0  0  0  0  0  0  0  0  0  0  0  0
  148.0900  158.8640  133.0870 C   0  0  0  0  0  0  0  0  0  0  0  0
  148.5930  159.3430  134.1380 O   0  0  0  0  0  0  0  0  0  0  0  0
  148.5190  159.3840  131.7800 C   0  0  0  0  0  0  0  0  0  0  0  0
  147.7640  160.1430  131.1170 O   0  0  0  0  0  0  0  0  0  0  0  0
  149.7710  159.0530  131.2770 O   0  0  0  0  0  0  0  0  0  0  0  0
  147.2690  156.5210  133.0770 C   0  0  0  0  0  0  0  0  0  0  0  0
  148.4670  155.8400  132.8480 C   0  0  0  0  0  0  0  0  0  0  0  0
  150.1939  151.2706  135.0423 H   0  0  0  0  0  0  0  0  0  0  0  0
  148.6059  151.2914  134.2029 H   0  0  0  0  0  0  0  0  0  0  0  0
  149.6023  149.7968  134.2029 H   0  0  0  0  0  0  0  0  0  0  0  0
  149.5723  152.0136  131.1776 H   0  0  0  0  0  0  0  0  0  0  0  0
  148.3720  151.9635  132.5295 H   0  0  0  0  0  0  0  0  0  0  0  0
  150.3122  153.7028  133.4945 H   0  0  0  0  0  0  0  0  0  0  0  0
  150.2470  154.0946  131.7287 H   0  0  0  0  0  0  0  0  0  0  0  0
  147.1833  152.6469  132.9430 H   0  0  0  0  0  0  0  0  0  0  0  0
  145.0627  153.9340  133.3618 H   0  0  0  0  0  0  0  0  0  0  0  0
  144.0361  156.5908  133.6786 H   0  0  0  0  0  0  0  0  0  0  0  0
  146.4130  160.4310  132.2600 H   0  0  0  0  0  0  0  0  0  0  0  0
  145.0930  161.4040  132.9850 H   0  0  0  0  0  0  0  0  0  0  0  0
  149.4119  156.3880  132.7179 H   0  0  0  0  0  0  0  0  0  0  0  0
  1  2  1  0
  2  3  1  0
  3  4  1  0
  4  5  1  0
  5  6  2  0
  6  7  1  0
  7  8  2  0
  8  9  1  0
  9 10  2  0
 10 11  1  0
 11 12  1  0
 11 13  2  0
 10 14  1  0
 14 15  1  0
 15 16  2  0
 15 17  1  0
 17 18  2  0
 17 19  1  0
 14 20  1  0
 20 21  2  0
 21  5  1  0
 20  8  1  0
  1 22  1  0
  1 23  1  0
  1 24  1  0
  3 25  1  0
  3 26  1  0
  4 27  1  0
  4 28  1  0
  6 29  1  0
  7 30  1  0
  9 31  1  0
 12 32  1  0
 12 33  1  0
 21 34  1  0
M  CHG  1  19  -1
M  END
>  <UniqueID>  (85) 
85

>  <SMILES>  (85) 
COCCc1ccc2cc(C(N)=O)n(C(=O)C(=O)[O-])c2c1

>  <Energy>  (85) 
72.6787232209938

>  <Genealogy>  (85) 
COCCc1ccc2cc(C(N)=O)n(C(=O)C(=O)[O-])c2c1 (protonated)
COCCc1ccc2cc(C(N)=O)n(C(=O)C(=O)[O-])c2c1 (3D coordinates assigned)
COCCc1ccc2cc(C(N)=O)n(C(=O)C(=O)[O-])c2c1 (optimized conformer: 72.6787232209938 kcal/mol)

>  <smiles>  (85) 
COCCc1ccc2cc(C(N)=O)n(C(=O)C(=O)O)c2c1

>  <score_type>  (85) 
oracle

>  <origin>  (85) 
adg

>  <m_score__min__energy>  (85) 
-6.4299999999999997

>  <m_primary>  (85) 
energy

$$$$
86:0
     RDKit          3D

 44 46  0  0  0  0  0  0  0  0999 V2000
  140.8010  160.6670  135.4950 H   0  0  0  0  0  0  0  0  0  0  0  0
  141.5350  160.0670  135.0610 N   0  0  0  0  0  0  0  0  0  0  0  0
  142.4130  160.6000  134.0690 C   0  0  0  0  0  0  0  0  0  0  0  0
  142.0560  161.5910  133.3770 O   0  0  0  0  0  0  0  0  0  0  0  0
  143.7560  160.0300  133.8970 C   0  0  0  0  0  0  0  0  0  0  0  0
  144.9090  160.8040  133.8150 C   0  0  0  0  0  0  0  0  0  0  0  0
  144.9912  161.8940  133.9383 H   0  0  0  0  0  0  0  0  0  0  0  0
  145.9240  159.9160  133.5470 C   0  0  0  0  0  0  0  0  0  0  0  0
  147.2850  160.1380  133.3670 C   0  0  0  0  0  0  0  0  0  0  0  0
  147.7028  161.1551  133.3986 H   0  0  0  0  0  0  0  0  0  0  0  0
  148.1080  159.0250  133.1440 C   0  0  0  0  0  0  0  0  0  0  0  0
  149.1884  159.1694  132.9958 H   0  0  0  0  0  0  0  0  0  0  0  0
  147.5640  157.7130  133.1070 C   0  0  0  0  0  0  0  0  0  0  0  0
  148.4690  156.5270  132.9410 C   0  0  0  0  0  0  0  0  0  0  0  0
  148.7522  156.1455  133.9331 H   0  0  0  0  0  0  0  0  0  0  0  0
  149.6060  156.9110  132.2450 F   0  0  0  0  0  0  0  0  0  0  0  0
  147.8150  155.5270  132.2420 F   0  0  0  0  0  0  0  0  0  0  0  0
  146.1760  157.5230  133.2970 C   0  0  0  0  0  0  0  0  0  0  0  0
  145.7384  156.5138  133.2871 H   0  0  0  0  0  0  0  0  0  0  0  0
  145.3730  158.6510  133.4980 C   0  0  0  0  0  0  0  0  0  0  0  0
  144.0390  158.7080  133.7110 N   0  0  0  0  0  0  0  0  0  0  0  0
  143.1190  157.5960  133.7600 C   0  0  0  0  0  0  0  0  0  0  0  0
  143.3730  156.6040  134.4950 O   0  0  0  0  0  0  0  0  0  0  0  0
  141.8790  157.6170  132.9580 C   0  0  0  0  0  0  0  0  0  0  0  0
  141.9504  157.8552  131.8865 H   0  0  0  0  0  0  0  0  0  0  0  0
  140.6710  157.3590  133.4770 C   0  0  0  0  0  0  0  0  0  0  0  0
  140.5674  157.2074  134.5616 H   0  0  0  0  0  0  0  0  0  0  0  0
  139.4570  157.2740  132.5980 C   0  0  0  0  0  0  0  0  0  0  0  0
  139.5769  156.4371  131.8943 H   0  0  0  0  0  0  0  0  0  0  0  0
  138.5702  157.1133  133.2287 H   0  0  0  0  0  0  0  0  0  0  0  0
  139.2830  158.5310  131.8360 N   0  0  0  0  0  0  0  0  0  0  0  0
  139.5140  159.7080  132.6920 C   0  0  0  0  0  0  0  0  0  0  0  0
  138.7605  159.7303  133.4931 H   0  0  0  0  0  0  0  0  0  0  0  0
  140.5206  159.6454  133.1311 H   0  0  0  0  0  0  0  0  0  0  0  0
  139.4050  160.9960  131.8510 C   0  0  0  0  0  0  0  0  0  0  0  0
  138.7727  161.7160  132.3913 H   0  0  0  0  0  0  0  0  0  0  0  0
  140.4246  161.3805  131.7007 H   0  0  0  0  0  0  0  0  0  0  0  0
  138.8410  160.7700  130.5700 O   0  0  0  0  0  0  0  0  0  0  0  0
  137.6420  160.0390  130.7050 C   0  0  0  0  0  0  0  0  0  0  0  0
  136.9866  160.5460  131.4285 H   0  0  0  0  0  0  0  0  0  0  0  0
  137.1448  159.9802  129.7255 H   0  0  0  0  0  0  0  0  0  0  0  0
  137.9440  158.6070  131.2050 C   0  0  0  0  0  0  0  0  0  0  0  0
  137.1823  158.3167  131.9436 H   0  0  0  0  0  0  0  0  0  0  0  0
  137.9265  157.9256  130.3416 H   0  0  0  0  0  0  0  0  0  0  0  0
  1  2  1  0
  2  3  1  0
  3  4  2  0
  3  5  1  0
  5  6  2  0
  6  7  1  0
  6  8  1  0
  8  9  2  0
  9 10  1  0
  9 11  1  0
 11 12  1  0
 11 13  2  0
 13 14  1  0
 14 15  1  0
 14 16  1  0
 14 17  1  0
 13 18  1  0
 18 19  1  0
 18 20  2  0
 20 21  1  0
 21 22  1  0
 22 23  2  0
 22 24  1  0
 24 25  1  0
 24 26  2  0
 26 27  1  0
 26 28  1  0
 28 29  1  0
 28 30  1  0
 28 31  1  0
 31 32  1  0
 32 33  1  0
 32 34  1  0
 32 35  1  0
 35 36  1  0
 35 37  1  0
 35 38  1  0
 38 39  1  0
 39 40  1  0
 39 41  1  0
 39 42  1  0
 42 43  1  0
 42 44  1  0
 21  5  1  0
 42 31  1  0
 20  8  1  0
M  CHG  1   2  -1
M  END
>  <UniqueID>  (86) 
86

>  <SMILES>  (86) 
[NH-]C(=O)c1cc2ccc(C(F)F)cc2n1C(=O)/C=C/CN1CCOCC1

>  <Energy>  (86) 
93.8810322117196

>  <Genealogy>  (86) 
[NH-]C(=O)c1cc2ccc(C(F)F)cc2n1C(=O)/C=C/CN1CCOCC1 (protonated)
[NH-]C(=O)c1cc2ccc(C(F)F)cc2n1C(=O)/C=C/CN1CCOCC1 (cis-trans isomerization)
[NH-]C(=O)c1cc2ccc(C(F)F)cc2n1C(=O)/C=C/CN1CCOCC1 (3D coordinates assigned)
[NH-]C(=O)c1cc2ccc(C(F)F)cc2n1C(=O)/C=C/CN1CCOCC1 (nonaromatic ring conformer: 93.8810322117196 kcal/mol)

>  <smiles>  (86) 
NC(=O)c1cc2ccc(C(F)F)cc2n1C(=O)/C=C/CN1CCOCC1

>  <score_type>  (86) 
oracle

>  <origin>  (86) 
adg

>  <m_score__min__energy>  (86) 
-7.5300000000000002

>  <m_primary>  (86) 
energy

$$$$
87:0
     RDKit          3D

 36 37  0  0  0  0  0  0  0  0999 V2000
  150.3240  160.0030  130.0000 C   0  0  0  0  0  0  0  0  0  0  0  0
  149.3730  160.1010  131.1160 N   0  0  0  0  0  0  0  0  0  0  0  0
  148.0460  160.5460  130.6600 C   0  0  0  0  0  0  0  0  0  0  0  0
  149.3280  158.8900  131.9680 C   0  0  0  0  0  0  0  0  0  0  0  0
  148.3160  158.9290  133.0970 C   0  0  0  0  0  0  0  0  0  0  0  0
  148.4910  159.7210  134.0610 O   0  0  0  0  0  0  0  0  0  0  0  0
  147.1870  158.0290  133.1240 N   0  0  0  0  0  0  0  0  0  0  0  0
  145.9000  158.3560  133.4380 C   0  0  0  0  0  0  0  0  0  0  0  0
  145.3920  159.7200  133.6660 C   0  0  0  0  0  0  0  0  0  0  0  0
  146.1890  160.8570  133.3460 N   0  0  0  0  0  0  0  0  0  0  0  0
  144.2190  159.8840  134.0930 O   0  0  0  0  0  0  0  0  0  0  0  0
  145.0990  157.2240  133.5180 C   0  0  0  0  0  0  0  0  0  0  0  0
  145.9350  156.1710  133.2400 C   0  0  0  0  0  0  0  0  0  0  0  0
  145.6650  154.8060  133.2320 C   0  0  0  0  0  0  0  0  0  0  0  0
  146.7300  153.9260  132.9910 C   0  0  0  0  0  0  0  0  0  0  0  0
  148.0400  154.4180  132.7650 C   0  0  0  0  0  0  0  0  0  0  0  0
  149.1910  153.4590  132.5840 C   0  0  0  0  0  0  0  0  0  0  0  0
  148.9210  152.6210  131.5190 F   0  0  0  0  0  0  0  0  0  0  0  0
  150.3650  154.1460  132.3300 F   0  0  0  0  0  0  0  0  0  0  0  0
  149.3730  152.6960  133.7250 F   0  0  0  0  0  0  0  0  0  0  0  0
  148.2790  155.8110  132.8140 C   0  0  0  0  0  0  0  0  0  0  0  0
  147.1930  156.6750  133.0170 C   0  0  0  0  0  0  0  0  0  0  0  0
  151.3447  159.8978  130.3963 H   0  0  0  0  0  0  0  0  0  0  0  0
  150.0775  159.1255  129.3842 H   0  0  0  0  0  0  0  0  0  0  0  0
  150.2616  160.9123  129.3842 H   0  0  0  0  0  0  0  0  0  0  0  0
  147.4109  160.7590  131.5325 H   0  0  0  0  0  0  0  0  0  0  0  0
  148.1533  161.4573  130.0534 H   0  0  0  0  0  0  0  0  0  0  0  0
  147.5822  159.7542  130.0534 H   0  0  0  0  0  0  0  0  0  0  0  0
  149.0867  158.0308  131.3249 H   0  0  0  0  0  0  0  0  0  0  0  0
  150.3156  158.8183  132.4471 H   0  0  0  0  0  0  0  0  0  0  0  0
  145.8500  161.8200  133.5670 H   0  0  0  0  0  0  0  0  0  0  0  0
  147.0600  160.7460  132.7830 H   0  0  0  0  0  0  0  0  0  0  0  0
  144.0254  157.1805  133.7535 H   0  0  0  0  0  0  0  0  0  0  0  0
  144.6471  154.4286  133.4093 H   0  0  0  0  0  0  0  0  0  0  0  0
  146.5467  152.8415  132.9772 H   0  0  0  0  0  0  0  0  0  0  0  0
  149.2974  156.2094  132.6951 H   0  0  0  0  0  0  0  0  0  0  0  0
  1  2  1  0
  2  3  1  0
  2  4  1  0
  4  5  1  0
  5  6  2  0
  5  7  1  0
  7  8  1  0
  8  9  1  0
  9 10  1  0
  9 11  2  0
  8 12  2  0
 12 13  1  0
 13 14  2  0
 14 15  1  0
 15 16  2  0
 16 17  1  0
 17 18  1  0
 17 19  1  0
 17 20  1  0
 16 21  1  0
 21 22  2  0
 22  7  1  0
 22 13  1  0
  1 23  1  0
  1 24  1  0
  1 25  1  0
  3 26  1  0
  3 27  1  0
  3 28  1  0
  4 29  1  0
  4 30  1  0
 10 31  1  0
 10 32  1  0
 12 33  1  0
 14 34  1  0
 15 35  1  0
 21 36  1  0
M  END
>  <UniqueID>  (87) 
87

>  <SMILES>  (87) 
CN(C)CC(=O)n1c(C(N)=O)cc2ccc(C(F)(F)F)cc21

>  <Energy>  (87) 
82.32808579781447

>  <Genealogy>  (87) 
CN(C)CC(=O)n1c(C(N)=O)cc2ccc(C(F)(F)F)cc21 (3D coordinates assigned)
CN(C)CC(=O)n1c(C(N)=O)cc2ccc(C(F)(F)F)cc21 (optimized conformer: 82.32808579781447 kcal/mol)

>  <smiles>  (87) 
CN(C)CC(=O)n1c(C(N)=O)cc2ccc(C(F)(F)F)cc21

>  <score_type>  (87) 
oracle

>  <origin>  (87) 
adg

>  <m_score__min__energy>  (87) 
-6.4500000000000002

>  <m_primary>  (87) 
energy

$$$$
88:0
     RDKit          3D

 41 43  0  0  0  0  0  0  0  0999 V2000
  146.9260  160.8650  133.2730 N   0  0  0  0  0  0  0  0  0  0  0  0
  145.8390  160.0140  133.6420 C   0  0  0  0  0  0  0  0  0  0  0  0
  144.7810  160.5300  134.0890 O   0  0  0  0  0  0  0  0  0  0  0  0
  145.9620  158.5420  133.5370 C   0  0  0  0  0  0  0  0  0  0  0  0
  144.8820  157.6650  133.6110 C   0  0  0  0  0  0  0  0  0  0  0  0
  145.4110  156.4170  133.3700 C   0  0  0  0  0  0  0  0  0  0  0  0
  144.7880  155.1780  133.3380 C   0  0  0  0  0  0  0  0  0  0  0  0
  145.5810  154.0450  133.0930 C   0  0  0  0  0  0  0  0  0  0  0  0
  146.9900  154.1530  132.8870 C   0  0  0  0  0  0  0  0  0  0  0  0
  147.8090  152.9670  132.6420 N   0  0  0  0  0  0  0  0  0  0  0  0
  147.1540  151.7050  132.2380 C   0  0  0  0  0  0  0  0  0  0  0  0
  148.1380  150.5720  131.9350 C   0  0  0  0  0  0  0  0  0  0  0  0
  149.2230  150.5920  132.8320 O   0  0  0  0  0  0  0  0  0  0  0  0
  150.0020  151.7310  132.5570 C   0  0  0  0  0  0  0  0  0  0  0  0
  149.2570  153.0110  132.9440 C   0  0  0  0  0  0  0  0  0  0  0  0
  147.5760  155.4500  132.9400 C   0  0  0  0  0  0  0  0  0  0  0  0
  146.7550  156.5610  133.1650 C   0  0  0  0  0  0  0  0  0  0  0  0
  147.1110  157.8610  133.2640 N   0  0  0  0  0  0  0  0  0  0  0  0
  148.4410  158.3930  133.1570 C   0  0  0  0  0  0  0  0  0  0  0  0
  148.8850  159.1620  134.0530 O   0  0  0  0  0  0  0  0  0  0  0  0
  149.2440  158.0450  132.0640 O   0  0  0  0  0  0  0  0  0  0  0  0
  149.6420  158.9720  131.0570 C   0  0  0  0  0  0  0  0  0  0  0  0
  148.7760  160.1900  131.0990 C   0  0  0  0  0  0  0  0  0  0  0  0
  149.2620  161.2980  131.4460 O   0  0  0  0  0  0  0  0  0  0  0  0
  147.4410  160.1100  130.7230 O   0  0  0  0  0  0  0  0  0  0  0  0
  147.7980  160.4810  132.8480 H   0  0  0  0  0  0  0  0  0  0  0  0
  146.8420  161.9000  133.3880 H   0  0  0  0  0  0  0  0  0  0  0  0
  143.8312  157.9160  133.8178 H   0  0  0  0  0  0  0  0  0  0  0  0
  143.7039  155.0855  133.4999 H   0  0  0  0  0  0  0  0  0  0  0  0
  145.1066  153.0531  133.0591 H   0  0  0  0  0  0  0  0  0  0  0  0
  146.4912  151.3808  133.0539 H   0  0  0  0  0  0  0  0  0  0  0  0
  146.6039  151.9111  131.3080 H   0  0  0  0  0  0  0  0  0  0  0  0
  147.6153  149.6083  132.0243 H   0  0  0  0  0  0  0  0  0  0  0  0
  148.5249  150.7078  130.9143 H   0  0  0  0  0  0  0  0  0  0  0  0
  150.9391  151.6729  133.1301 H   0  0  0  0  0  0  0  0  0  0  0  0
  150.2118  151.7601  131.4776 H   0  0  0  0  0  0  0  0  0  0  0  0
  149.3822  153.1732  134.0247 H   0  0  0  0  0  0  0  0  0  0  0  0
  149.6869  153.8282  132.3462 H   0  0  0  0  0  0  0  0  0  0  0  0
  148.6604  155.5770  132.8058 H   0  0  0  0  0  0  0  0  0  0  0  0
  150.6885  159.2651  131.2273 H   0  0  0  0  0  0  0  0  0  0  0  0
  149.5391  158.4945  130.0714 H   0  0  0  0  0  0  0  0  0  0  0  0
  1  2  1  0
  2  3  2  0
  2  4  1  0
  4  5  2  0
  5  6  1  0
  6  7  2  0
  7  8  1  0
  8  9  2  0
  9 10  1  0
 10 11  1  0
 11 12  1  0
 12 13  1  0
 13 14  1  0
 14 15  1  0
  9 16  1  0
 16 17  2  0
 17 18  1  0
 18 19  1  0
 19 20  2  0
 19 21  1  0
 21 22  1  0
 22 23  1  0
 23 24  2  0
 23 25  1  0
 18  4  1  0
 17  6  1  0
 15 10  1  0
  1 26  1  0
  1 27  1  0
  5 28  1  0
  7 29  1  0
  8 30  1  0
 11 31  1  0
 11 32  1  0
 12 33  1  0
 12 34  1  0
 14 35  1  0
 14 36  1  0
 15 37  1  0
 15 38  1  0
 16 39  1  0
 22 40  1  0
 22 41  1  0
M  CHG  1  25  -1
M  END
>  <UniqueID>  (88) 
88

>  <SMILES>  (88) 
NC(=O)c1cc2ccc(N3CCOCC3)cc2n1C(=O)OCC(=O)[O-]

>  <Energy>  (88) 
86.43252405852536

>  <Genealogy>  (88) 
NC(=O)c1cc2ccc(N3CCOCC3)cc2n1C(=O)OCC(=O)[O-] (protonated)
NC(=O)c1cc2ccc(N3CCOCC3)cc2n1C(=O)OCC(=O)[O-] (3D coordinates assigned)
NC(=O)c1cc2ccc(N3CCOCC3)cc2n1C(=O)OCC(=O)[O-] (nonaromatic ring conformer: 86.43252405852536 kcal/mol)

>  <smiles>  (88) 
NC(=O)c1cc2ccc(N3CCOCC3)cc2n1C(=O)OCC(=O)O

>  <score_type>  (88) 
oracle

>  <origin>  (88) 
adg

>  <m_score__min__energy>  (88) 
-7.7400000000000002

>  <m_primary>  (88) 
energy

$$$$
89:0
     RDKit          3D

 47 48  0  0  0  0  0  0  0  0999 V2000
  149.5980  151.1410  134.3130 C   0  0  0  0  0  0  0  0  0  0  0  0
  149.4760  151.6050  132.8640 C   0  0  2  0  0  0  0  0  0  0  0  0
  150.6670  151.3170  132.1800 O   0  0  0  0  0  0  0  0  0  0  0  0
  149.1930  153.0790  132.8160 C   0  0  0  0  0  0  0  0  0  0  0  0
  149.6310  153.7730  131.8570 O   0  0  0  0  0  0  0  0  0  0  0  0
  148.4850  153.6750  133.8660 O   0  0  0  0  0  0  0  0  0  0  0  0
  147.0750  153.5430  134.0330 C   0  0  0  0  0  0  0  0  0  0  0  0
  146.5490  154.5980  135.0090 C   0  0  0  0  0  0  0  0  0  0  0  0
  145.6320  155.4710  134.3540 O   0  0  0  0  0  0  0  0  0  0  0  0
  145.9400  156.1760  133.1850 C   0  0  0  0  0  0  0  0  0  0  0  0
  146.0100  155.5750  132.0770 O   0  0  0  0  0  0  0  0  0  0  0  0
  146.1840  157.5910  133.2490 N   0  0  0  0  0  0  0  0  0  0  0  0
  147.3310  158.2480  132.9200 C   0  0  0  0  0  0  0  0  0  0  0  0
  148.6210  157.6060  132.5780 C   0  0  0  0  0  0  0  0  0  0  0  0
  148.7590  156.1840  132.6030 N   0  0  0  0  0  0  0  0  0  0  0  0
  149.6050  158.3110  132.2320 O   0  0  0  0  0  0  0  0  0  0  0  0
  147.1570  159.6250  133.0390 C   0  0  0  0  0  0  0  0  0  0  0  0
  145.8560  159.7920  133.4550 C   0  0  0  0  0  0  0  0  0  0  0  0
  145.1470  160.9560  133.7220 C   0  0  0  0  0  0  0  0  0  0  0  0
  143.8030  160.8370  134.1110 C   0  0  0  0  0  0  0  0  0  0  0  0
  143.1790  159.5610  134.2220 C   0  0  0  0  0  0  0  0  0  0  0  0
  141.7850  159.4500  134.6120 N   0  0  0  0  0  0  0  0  0  0  0  0
  141.4130  159.3400  136.0280 C   0  0  0  0  0  0  0  0  0  0  0  0
  140.7240  159.4450  133.5980 C   0  0  0  0  0  0  0  0  0  0  0  0
  143.9470  158.4010  133.9400 C   0  0  0  0  0  0  0  0  0  0  0  0
  145.2890  158.5520  133.5740 C   0  0  0  0  0  0  0  0  0  0  0  0
  149.3769  151.9817  134.9871 H   0  0  0  0  0  0  0  0  0  0  0  0
  148.8839  150.3251  134.4981 H   0  0  0  0  0  0  0  0  0  0  0  0
  150.6211  150.7819  134.4981 H   0  0  0  0  0  0  0  0  0  0  0  0
  148.6432  151.0735  132.3803 H   0  0  0  0  0  0  0  0  0  0  0  0
  151.0340  152.1840  131.8680 H   0  0  0  0  0  0  0  0  0  0  0  0
  146.5814  153.6734  133.0586 H   0  0  0  0  0  0  0  0  0  0  0  0
  146.8571  152.5438  134.4382 H   0  0  0  0  0  0  0  0  0  0  0  0
  146.0377  154.0961  135.8436 H   0  0  0  0  0  0  0  0  0  0  0  0
  147.3970  155.1896  135.3845 H   0  0  0  0  0  0  0  0  0  0  0  0
  149.6600  155.7400  132.3220 H   0  0  0  0  0  0  0  0  0  0  0  0
  147.9840  155.5690  132.9370 H   0  0  0  0  0  0  0  0  0  0  0  0
  147.9009  160.4111  132.8424 H   0  0  0  0  0  0  0  0  0  0  0  0
  145.6246  161.9428  133.6314 H   0  0  0  0  0  0  0  0  0  0  0  0
  143.2222  161.7442  134.3337 H   0  0  0  0  0  0  0  0  0  0  0  0
  142.2793  159.5961  136.6557 H   0  0  0  0  0  0  0  0  0  0  0  0
  140.5858  160.0320  136.2446 H   0  0  0  0  0  0  0  0  0  0  0  0
  141.0952  158.3094  136.2446 H   0  0  0  0  0  0  0  0  0  0  0  0
  139.7424  159.4404  134.0944 H   0  0  0  0  0  0  0  0  0  0  0  0
  140.8130  160.3436  132.9698 H   0  0  0  0  0  0  0  0  0  0  0  0
  140.8214  158.5473  132.9698 H   0  0  0  0  0  0  0  0  0  0  0  0
  143.4949  157.4005  134.0080 H   0  0  0  0  0  0  0  0  0  0  0  0
  1  2  1  0
  2  3  1  0
  2  4  1  0
  4  5  2  0
  4  6  1  0
  6  7  1  0
  7  8  1  0
  8  9  1  0
  9 10  1  0
 10 11  2  0
 10 12  1  0
 12 13  1  0
 13 14  1  0
 14 15  1  0
 14 16  2  0
 13 17  2  0
 17 18  1  0
 18 19  2  0
 19 20  1  0
 20 21  2  0
 21 22  1  0
 22 23  1  0
 22 24  1  0
 21 25  1  0
 25 26  2  0
 26 12  1  0
 26 18  1  0
  1 27  1  0
  1 28  1  0
  1 29  1  0
  2 30  1  6
  3 31  1  0
  7 32  1  0
  7 33  1  0
  8 34  1  0
  8 35  1  0
 15 36  1  0
 15 37  1  0
 17 38  1  0
 19 39  1  0
 20 40  1  0
 23 41  1  0
 23 42  1  0
 23 43  1  0
 24 44  1  0
 24 45  1  0
 24 46  1  0
 25 47  1  0
M  END
>  <UniqueID>  (89) 
89

>  <SMILES>  (89) 
C[C@H](O)C(=O)OCCOC(=O)n1c(C(N)=O)cc2ccc(N(C)C)cc21

>  <Energy>  (89) 
78.55953885346865

>  <Genealogy>  (89) 
C[C@H](O)C(=O)OCCOC(=O)n1c(C(N)=O)cc2ccc(N(C)C)cc21 (3D coordinates assigned)
C[C@H](O)C(=O)OCCOC(=O)n1c(C(N)=O)cc2ccc(N(C)C)cc21 (optimized conformer: 78.55953885346865 kcal/mol)

>  <smiles>  (89) 
C[C@H](O)C(=O)OCCOC(=O)n1c(C(N)=O)cc2ccc(N(C)C)cc21

>  <score_type>  (89) 
oracle

>  <origin>  (89) 
adg

>  <m_score__min__energy>  (89) 
-5.9400000000000004

>  <m_primary>  (89) 
energy

$$$$
90:0
     RDKit          3D

 35 36  0  0  0  0  0  0  0  0999 V2000
  140.4140  158.3950  134.3180 C   0  0  0  0  0  0  0  0  0  0  0  0
  141.6040  158.8810  135.0350 N   0  0  2  0  0  0  0  0  0  0  0  0
  142.7270  157.9300  134.8820 C   0  0  0  0  0  0  0  0  0  0  0  0
  143.4520  158.1380  133.5770 C   0  0  0  0  0  0  0  0  0  0  0  0
  142.8880  157.8220  132.4960 O   0  0  0  0  0  0  0  0  0  0  0  0
  144.7330  158.7830  133.5490 N   0  0  0  0  0  0  0  0  0  0  0  0
  145.0010  160.1190  133.5470 C   0  0  0  0  0  0  0  0  0  0  0  0
  144.0080  161.1970  133.7320 C   0  0  0  0  0  0  0  0  0  0  0  0
  142.6160  160.9060  133.6340 N   0  0  0  0  0  0  0  0  0  0  0  0
  144.3780  162.3810  133.9490 O   0  0  0  0  0  0  0  0  0  0  0  0
  146.3720  160.3410  133.4230 C   0  0  0  0  0  0  0  0  0  0  0  0
  146.9390  159.0870  133.3580 C   0  0  0  0  0  0  0  0  0  0  0  0
  148.2700  158.7100  133.2110 C   0  0  0  0  0  0  0  0  0  0  0  0
  148.5630  157.3370  133.1460 C   0  0  0  0  0  0  0  0  0  0  0  0
  147.5310  156.3690  133.2450 C   0  0  0  0  0  0  0  0  0  0  0  0
  147.8480  154.9010  133.1130 C   0  0  0  0  0  0  0  0  0  0  0  0
  148.9400  154.7110  132.2840 F   0  0  0  0  0  0  0  0  0  0  0  0
  146.7720  154.2150  132.5760 F   0  0  0  0  0  0  0  0  0  0  0  0
  148.1350  154.3840  134.3620 F   0  0  0  0  0  0  0  0  0  0  0  0
  146.1870  156.7940  133.3740 C   0  0  0  0  0  0  0  0  0  0  0  0
  145.9290  158.1670  133.4430 C   0  0  0  0  0  0  0  0  0  0  0  0
  141.2720  159.0910  136.4250 C   0  0  0  0  0  0  0  0  0  0  0  0
  140.6000  160.0970  136.7840 O   0  0  0  0  0  0  0  0  0  0  0  0
  141.7250  158.1990  137.3900 O   0  0  0  0  0  0  0  0  0  0  0  0
  139.6498  158.0829  135.0451 H   0  0  0  0  0  0  0  0  0  0  0  0
  140.0118  159.2009  133.6865 H   0  0  0  0  0  0  0  0  0  0  0  0
  140.6910  157.5380  133.6865 H   0  0  0  0  0  0  0  0  0  0  0  0
  141.8770  159.8000  134.6110 H   0  0  0  0  0  0  0  0  0  0  0  0
  143.4347  158.0759  135.7114 H   0  0  0  0  0  0  0  0  0  0  0  0
  142.3186  156.9087  134.8914 H   0  0  0  0  0  0  0  0  0  0  0  0
  142.2840  160.0130  133.2070 H   0  0  0  0  0  0  0  0  0  0  0  0
  146.8903  161.3105  133.3852 H   0  0  0  0  0  0  0  0  0  0  0  0
  149.0688  159.4636  133.1476 H   0  0  0  0  0  0  0  0  0  0  0  0
  149.6050  157.0092  133.0168 H   0  0  0  0  0  0  0  0  0  0  0  0
  145.3662  156.0630  133.4188 H   0  0  0  0  0  0  0  0  0  0  0  0
  1  2  1  0
  2  3  1  0
  3  4  1  0
  4  5  2  0
  4  6  1  0
  6  7  1  0
  7  8  1  0
  8  9  1  0
  8 10  2  0
  7 11  2  0
 11 12  1  0
 12 13  2  0
 13 14  1  0
 14 15  2  0
 15 16  1  0
 16 17  1  0
 16 18  1  0
 16 19  1  0
 15 20  1  0
 20 21  2  0
  2 22  1  0
 22 23  2  0
 22 24  1  0
 21  6  1  0
 21 12  1  0
  1 25  1  0
  1 26  1  0
  1 27  1  0
  2 28  1  6
  3 29  1  0
  3 30  1  0
  9 31  1  0
 11 32  1  0
 13 33  1  0
 14 34  1  0
 20 35  1  0
M  CHG  3   2   1   9  -1  24  -1
M  END
>  <UniqueID>  (90) 
90

>  <SMILES>  (90) 
C[N@H+](CC(=O)n1c(C([NH-])=O)cc2ccc(C(F)(F)F)cc21)C(=O)[O-]

>  <Energy>  (90) 
75.81138534219139

>  <Genealogy>  (90) 
C[NH+](CC(=O)n1c(C([NH-])=O)cc2ccc(C(F)(F)F)cc21)C(=O)[O-] (protonated)
C[N@H+](CC(=O)n1c(C([NH-])=O)cc2ccc(C(F)(F)F)cc21)C(=O)[O-] (chirality)
C[N@H+](CC(=O)n1c(C([NH-])=O)cc2ccc(C(F)(F)F)cc21)C(=O)[O-] (3D coordinates assigned)
C[N@H+](CC(=O)n1c(C([NH-])=O)cc2ccc(C(F)(F)F)cc21)C(=O)[O-] (optimized conformer: 75.81138534219139 kcal/mol)

>  <smiles>  (90) 
CN(CC(=O)n1c(C(N)=O)cc2ccc(C(F)(F)F)cc21)C(=O)O

>  <score_type>  (90) 
oracle

>  <origin>  (90) 
adg

>  <m_score__min__energy>  (90) 
-5.8700000000000001

>  <m_primary>  (90) 
energy

$$$$
91:0
     RDKit          3D

 34 35  0  0  0  0  0  0  0  0999 V2000
  144.6730  154.8620  135.5790 C   0  0  0  0  0  0  0  0  0  0  0  0
  146.0620  154.6460  134.9860 C   0  0  1  0  0  0  0  0  0  0  0  0
  146.4360  155.8020  134.2380 O   0  0  0  0  0  0  0  0  0  0  0  0
  145.5470  156.5190  133.4280 C   0  0  0  0  0  0  0  0  0  0  0  0
  144.8540  155.9200  132.5630 O   0  0  0  0  0  0  0  0  0  0  0  0
  145.4270  157.9410  133.5910 N   0  0  0  0  0  0  0  0  0  0  0  0
  146.4350  158.8590  133.5900 C   0  0  0  0  0  0  0  0  0  0  0  0
  147.8800  158.5560  133.5910 C   0  0  0  0  0  0  0  0  0  0  0  0
  148.4280  157.5620  134.4570 N   0  0  0  0  0  0  0  0  0  0  0  0
  148.6530  159.2270  132.8560 O   0  0  0  0  0  0  0  0  0  0  0  0
  145.9240  160.1530  133.6380 C   0  0  0  0  0  0  0  0  0  0  0  0
  144.5580  160.0020  133.6850 C   0  0  0  0  0  0  0  0  0  0  0  0
  143.5540  160.9650  133.7370 C   0  0  0  0  0  0  0  0  0  0  0  0
  142.2190  160.5260  133.7430 C   0  0  0  0  0  0  0  0  0  0  0  0
  141.9140  159.1450  133.6760 C   0  0  0  0  0  0  0  0  0  0  0  0
  140.4860  158.6880  133.7050 C   0  0  0  0  0  0  0  0  0  0  0  0
  139.7490  158.9180  132.1010 Cl  0  0  0  0  0  0  0  0  0  0  0  0
  142.9590  158.1950  133.6340 C   0  0  0  0  0  0  0  0  0  0  0  0
  144.2810  158.6580  133.6520 C   0  0  0  0  0  0  0  0  0  0  0  0
  147.0570  154.3850  136.0790 C   0  0  0  0  0  0  0  0  0  0  0  0
  146.9830  153.3340  136.7710 O   0  0  0  0  0  0  0  0  0  0  0  0
  148.0920  155.2840  136.3050 O   0  0  0  0  0  0  0  0  0  0  0  0
  144.7375  154.8520  136.6771 H   0  0  0  0  0  0  0  0  0  0  0  0
  144.2780  155.8324  135.2437 H   0  0  0  0  0  0  0  0  0  0  0  0
  144.0020  154.0574  135.2437 H   0  0  0  0  0  0  0  0  0  0  0  0
  146.0455  153.7711  134.3194 H   0  0  0  0  0  0  0  0  0  0  0  0
  149.4450  157.3300  134.4110 H   0  0  0  0  0  0  0  0  0  0  0  0
  147.8450  157.1070  135.1930 H   0  0  0  0  0  0  0  0  0  0  0  0
  146.4917  161.0952  133.6383 H   0  0  0  0  0  0  0  0  0  0  0  0
  143.7982  162.0370  133.7723 H   0  0  0  0  0  0  0  0  0  0  0  0
  141.4035  161.2620  133.8003 H   0  0  0  0  0  0  0  0  0  0  0  0
  140.4487  157.6223  133.9750 H   0  0  0  0  0  0  0  0  0  0  0  0
  139.9301  159.2776  134.4489 H   0  0  0  0  0  0  0  0  0  0  0  0
  142.7398  157.1180  133.5883 H   0  0  0  0  0  0  0  0  0  0  0  0
  1  2  1  0
  2  3  1  0
  3  4  1  0
  4  5  2  0
  4  6  1  0
  6  7  1  0
  7  8  1  0
  8  9  1  0
  8 10  2  0
  7 11  2  0
 11 12  1  0
 12 13  2  0
 13 14  1  0
 14 15  2  0
 15 16  1  0
 16 17  1  0
 15 18  1  0
 18 19  2  0
  2 20  1  0
 20 21  2  0
 20 22  1  0
 19  6  1  0
 19 12  1  0
  1 23  1  0
  1 24  1  0
  1 25  1  0
  2 26  1  6
  9 27  1  0
  9 28  1  0
 11 29  1  0
 13 30  1  0
 14 31  1  0
 16 32  1  0
 16 33  1  0
 18 34  1  0
M  CHG  1  22  -1
M  END
>  <UniqueID>  (91) 
91

>  <SMILES>  (91) 
C[C@@H](OC(=O)n1c(C(N)=O)cc2ccc(CCl)cc21)C(=O)[O-]

>  <Energy>  (91) 
67.70819308878862

>  <Genealogy>  (91) 
CC(OC(=O)n1c(C(N)=O)cc2ccc(CCl)cc21)C(=O)[O-] (protonated)
C[C@@H](OC(=O)n1c(C(N)=O)cc2ccc(CCl)cc21)C(=O)[O-] (chirality)
C[C@@H](OC(=O)n1c(C(N)=O)cc2ccc(CCl)cc21)C(=O)[O-] (3D coordinates assigned)
C[C@@H](OC(=O)n1c(C(N)=O)cc2ccc(CCl)cc21)C(=O)[O-] (optimized conformer: 67.70819308878862 kcal/mol)

>  <smiles>  (91) 
CC(OC(=O)n1c(C(N)=O)cc2ccc(CCl)cc21)C(=O)O

>  <score_type>  (91) 
oracle

>  <origin>  (91) 
adg

>  <m_score__min__energy>  (91) 
-6.7800000000000002

>  <m_primary>  (91) 
energy

$$$$
92:0
     RDKit          3D

 34 35  0  0  0  0  0  0  0  0999 V2000
  148.8570  150.4580  133.3110 C   0  0  0  0  0  0  0  0  0  0  0  0
  149.1540  151.8450  132.8440 C   0  0  0  0  0  0  0  0  0  0  0  0
  150.0090  152.0230  131.9340 O   0  0  0  0  0  0  0  0  0  0  0  0
  148.4400  152.9550  133.4100 N   0  0  0  0  0  0  0  0  0  0  0  0
  148.6620  154.3260  133.0450 C   0  0  0  0  0  0  0  0  0  0  0  0
  149.6070  154.6390  132.2710 O   0  0  0  0  0  0  0  0  0  0  0  0
  147.8030  155.3520  133.5620 N   0  0  0  0  0  0  0  0  0  0  0  0
  146.8840  155.2470  134.5650 C   0  0  0  0  0  0  0  0  0  0  0  0
  146.4840  153.9990  135.2490 C   0  0  0  0  0  0  0  0  0  0  0  0
  147.3300  153.3900  136.2210 N   0  0  0  0  0  0  0  0  0  0  0  0
  145.3960  153.4420  134.9440 O   0  0  0  0  0  0  0  0  0  0  0  0
  146.3050  156.4880  134.8250 C   0  0  0  0  0  0  0  0  0  0  0  0
  146.9000  157.3610  133.9430 C   0  0  0  0  0  0  0  0  0  0  0  0
  146.7030  158.7270  133.7640 C   0  0  0  0  0  0  0  0  0  0  0  0
  147.4750  159.3820  132.7910 C   0  0  0  0  0  0  0  0  0  0  0  0
  148.4440  158.6720  132.0320 C   0  0  0  0  0  0  0  0  0  0  0  0
  149.2510  159.3760  130.9630 C   0  0  0  0  0  0  0  0  0  0  0  0
  150.6050  159.2970  131.2450 F   0  0  0  0  0  0  0  0  0  0  0  0
  149.0380  158.7680  129.7370 F   0  0  0  0  0  0  0  0  0  0  0  0
  148.8450  160.8470  130.8650 C   0  0  0  0  0  0  0  0  0  0  0  0
  149.9600  161.6440  130.6760 F   0  0  0  0  0  0  0  0  0  0  0  0
  148.6010  157.2810  132.2340 C   0  0  0  0  0  0  0  0  0  0  0  0
  147.8010  156.6520  133.1950 C   0  0  0  0  0  0  0  0  0  0  0  0
  148.8520  150.4346  134.4107 H   0  0  0  0  0  0  0  0  0  0  0  0
  147.8719  150.1469  132.9331 H   0  0  0  0  0  0  0  0  0  0  0  0
  149.6283  149.7708  132.9331 H   0  0  0  0  0  0  0  0  0  0  0  0
  147.7160  152.7540  134.1370 H   0  0  0  0  0  0  0  0  0  0  0  0
  146.9280  152.8850  137.0420 H   0  0  0  0  0  0  0  0  0  0  0  0
  145.5356  156.7204  135.5760 H   0  0  0  0  0  0  0  0  0  0  0  0
  145.9650  159.2769  134.3665 H   0  0  0  0  0  0  0  0  0  0  0  0
  147.3279  160.4577  132.6142 H   0  0  0  0  0  0  0  0  0  0  0  0
  148.1581  160.9775  130.0158 H   0  0  0  0  0  0  0  0  0  0  0  0
  148.3494  161.1433  131.8013 H   0  0  0  0  0  0  0  0  0  0  0  0
  149.3348  156.7068  131.6494 H   0  0  0  0  0  0  0  0  0  0  0  0
  1  2  1  0
  2  3  2  0
  2  4  1  0
  4  5  1  0
  5  6  2  0
  5  7  1  0
  7  8  1  0
  8  9  1  0
  9 10  1  0
  9 11  2  0
  8 12  2  0
 12 13  1  0
 13 14  2  0
 14 15  1  0
 15 16  2  0
 16 17  1  0
 17 18  1  0
 17 19  1  0
 17 20  1  0
 20 21  1  0
 16 22  1  0
 22 23  2  0
 23  7  1  0
 23 13  1  0
  1 24  1  0
  1 25  1  0
  1 26  1  0
  4 27  1  0
 10 28  1  0
 12 29  1  0
 14 30  1  0
 15 31  1  0
 20 32  1  0
 20 33  1  0
 22 34  1  0
M  CHG  1  10  -1
M  END
>  <UniqueID>  (92) 
92

>  <SMILES>  (92) 
CC(=O)NC(=O)n1c(C([NH-])=O)cc2ccc(C(F)(F)CF)cc21

>  <Energy>  (92) 
70.42796728410113

>  <Genealogy>  (92) 
CC(=O)NC(=O)n1c(C([NH-])=O)cc2ccc(C(F)(F)CF)cc21 (protonated)
CC(=O)NC(=O)n1c(C([NH-])=O)cc2ccc(C(F)(F)CF)cc21 (3D coordinates assigned)
CC(=O)NC(=O)n1c(C([NH-])=O)cc2ccc(C(F)(F)CF)cc21 (optimized conformer: 70.42796728410113 kcal/mol)

>  <smiles>  (92) 
CC(=O)NC(=O)n1c(C(N)=O)cc2ccc(C(F)(F)CF)cc21

>  <score_type>  (92) 
oracle

>  <origin>  (92) 
adg

>  <m_score__min__energy>  (92) 
-6.79

>  <m_primary>  (92) 
energy

$$$$
93:0
     RDKit          3D

 40 42  0  0  0  0  0  0  0  0999 V2000
  148.1320  153.1140  133.6930 C   0  0  0  0  0  0  0  0  0  0  0  0
  147.9860  154.4690  134.2320 N   0  0  0  0  0  0  0  0  0  0  0  0
  147.6010  154.6190  135.6100 C   0  0  0  0  0  0  0  0  0  0  0  0
  148.1100  155.5430  136.3000 O   0  0  0  0  0  0  0  0  0  0  0  0
  146.5900  153.7430  136.2240 C   0  0  0  0  0  0  0  0  0  0  0  0
  145.3700  153.8830  135.9500 O   0  0  0  0  0  0  0  0  0  0  0  0
  146.9770  152.7730  137.1400 O   0  0  0  0  0  0  0  0  0  0  0  0
  148.0180  155.6090  133.3470 C   0  0  0  0  0  0  0  0  0  0  0  0
  149.0000  155.7940  132.5790 O   0  0  0  0  0  0  0  0  0  0  0  0
  146.9500  156.5670  133.3470 N   0  0  0  0  0  0  0  0  0  0  0  0
  147.0440  157.9220  133.4410 C   0  0  0  0  0  0  0  0  0  0  0  0
  148.2980  158.6990  133.5050 C   0  0  0  0  0  0  0  0  0  0  0  0
  149.3270  158.5130  132.5360 N   0  0  0  0  0  0  0  0  0  0  0  0
  148.4620  159.5490  134.4210 O   0  0  0  0  0  0  0  0  0  0  0  0
  145.7710  158.4940  133.4450 C   0  0  0  0  0  0  0  0  0  0  0  0
  144.8940  157.4360  133.3540 C   0  0  0  0  0  0  0  0  0  0  0  0
  143.5030  157.4190  133.3240 C   0  0  0  0  0  0  0  0  0  0  0  0
  142.8610  156.1720  133.2380 C   0  0  0  0  0  0  0  0  0  0  0  0
  143.6120  154.9670  133.1880 C   0  0  0  0  0  0  0  0  0  0  0  0
  142.9240  153.6550  133.0940 C   0  0  0  0  0  0  0  0  0  0  0  0
  143.6670  152.4600  133.0340 C   0  0  0  0  0  0  0  0  0  0  0  0
  143.0180  151.2250  132.9470 C   0  0  0  0  0  0  0  0  0  0  0  0
  141.6220  151.1680  132.9180 C   0  0  0  0  0  0  0  0  0  0  0  0
  140.9950  149.9690  132.8330 F   0  0  0  0  0  0  0  0  0  0  0  0
  140.8740  152.3460  132.9770 C   0  0  0  0  0  0  0  0  0  0  0  0
  141.5180  153.5830  133.0640 C   0  0  0  0  0  0  0  0  0  0  0  0
  145.0250  155.0300  133.2270 C   0  0  0  0  0  0  0  0  0  0  0  0
  145.6340  156.2840  133.3000 C   0  0  0  0  0  0  0  0  0  0  0  0
  148.2094  152.3958  134.5225 H   0  0  0  0  0  0  0  0  0  0  0  0
  147.2551  152.8684  133.0759 H   0  0  0  0  0  0  0  0  0  0  0  0
  149.0411  153.0608  133.0759 H   0  0  0  0  0  0  0  0  0  0  0  0
  149.9900  157.7090  132.6030 H   0  0  0  0  0  0  0  0  0  0  0  0
  145.5210  159.5634  133.5076 H   0  0  0  0  0  0  0  0  0  0  0  0
  142.9237  158.3531  133.3663 H   0  0  0  0  0  0  0  0  0  0  0  0
  141.7622  156.1282  133.2090 H   0  0  0  0  0  0  0  0  0  0  0  0
  144.7661  152.4988  133.0558 H   0  0  0  0  0  0  0  0  0  0  0  0
  143.6068  150.2970  132.9013 H   0  0  0  0  0  0  0  0  0  0  0  0
  139.7752  152.2999  132.9549 H   0  0  0  0  0  0  0  0  0  0  0  0
  140.9226  154.5068  133.1094 H   0  0  0  0  0  0  0  0  0  0  0  0
  145.6299  154.1116  133.2004 H   0  0  0  0  0  0  0  0  0  0  0  0
  1  2  1  0
  2  3  1  0
  3  4  2  0
  3  5  1  0
  5  6  2  0
  5  7  1  0
  2  8  1  0
  8  9  2  0
  8 10  1  0
 10 11  1  0
 11 12  1  0
 12 13  1  0
 12 14  2  0
 11 15  2  0
 15 16  1  0
 16 17  2  0
 17 18  1  0
 18 19  2  0
 19 20  1  0
 20 21  2  0
 21 22  1  0
 22 23  2  0
 23 24  1  0
 23 25  1  0
 25 26  2  0
 19 27  1  0
 27 28  2  0
 28 10  1  0
 28 16  1  0
 26 20  1  0
  1 29  1  0
  1 30  1  0
  1 31  1  0
 13 32  1  0
 15 33  1  0
 17 34  1  0
 18 35  1  0
 21 36  1  0
 22 37  1  0
 25 38  1  0
 26 39  1  0
 27 40  1  0
M  CHG  2   7  -1  13  -1
M  END
>  <UniqueID>  (93) 
93

>  <SMILES>  (93) 
CN(C(=O)C(=O)[O-])C(=O)n1c(C([NH-])=O)cc2ccc(-c3ccc(F)cc3)cc21

>  <Energy>  (93) 
91.47830077402779

>  <Genealogy>  (93) 
CN(C(=O)C(=O)[O-])C(=O)n1c(C([NH-])=O)cc2ccc(-c3ccc(F)cc3)cc21 (protonated)
CN(C(=O)C(=O)[O-])C(=O)n1c(C([NH-])=O)cc2ccc(-c3ccc(F)cc3)cc21 (3D coordinates assigned)
CN(C(=O)C(=O)[O-])C(=O)n1c(C([NH-])=O)cc2ccc(-c3ccc(F)cc3)cc21 (optimized conformer: 91.47830077402779 kcal/mol)

>  <smiles>  (93) 
CN(C(=O)C(=O)O)C(=O)n1c(C(N)=O)cc2ccc(-c3ccc(F)cc3)cc21

>  <score_type>  (93) 
oracle

>  <origin>  (93) 
adg

>  <m_score__min__energy>  (93) 
-8.0899999999999999

>  <m_primary>  (93) 
energy

$$$$
94:0
     RDKit          3D

 34 36  0  0  0  0  0  0  0  0999 V2000
  139.2890  155.4260  132.9970 N   0  0  0  0  0  0  0  0  0  0  0  0
  139.7130  156.6860  133.5110 C   0  0  0  0  0  0  0  0  0  0  0  0
  138.8540  157.4820  133.9750 O   0  0  0  0  0  0  0  0  0  0  0  0
  141.1440  157.0600  133.5310 C   0  0  0  0  0  0  0  0  0  0  0  0
  142.1830  156.1370  133.6460 C   0  0  0  0  0  0  0  0  0  0  0  0
  143.3400  156.8790  133.5700 C   0  0  0  0  0  0  0  0  0  0  0  0
  144.6720  156.4770  133.6290 C   0  0  0  0  0  0  0  0  0  0  0  0
  145.6640  157.4680  133.5440 C   0  0  0  0  0  0  0  0  0  0  0  0
  145.3130  158.8400  133.4300 C   0  0  0  0  0  0  0  0  0  0  0  0
  146.3860  159.8900  133.2980 C   0  0  0  0  0  0  0  0  0  0  0  0
  145.9620  161.0930  133.8350 F   0  0  0  0  0  0  0  0  0  0  0  0
  147.5180  159.4700  133.9730 F   0  0  0  0  0  0  0  0  0  0  0  0
  146.7060  160.0980  131.9680 F   0  0  0  0  0  0  0  0  0  0  0  0
  143.9490  159.2040  133.3540 C   0  0  0  0  0  0  0  0  0  0  0  0
  142.9860  158.1930  133.4190 C   0  0  0  0  0  0  0  0  0  0  0  0
  141.6420  158.3190  133.3890 N   0  0  0  0  0  0  0  0  0  0  0  0
  140.9140  159.5480  133.2790 C   0  0  0  0  0  0  0  0  0  0  0  0
  141.0850  160.4600  134.1310 O   0  0  0  0  0  0  0  0  0  0  0  0
  139.9890  159.7410  132.2110 N   0  0  0  0  0  0  0  0  0  0  0  0
  139.3970  158.9400  131.1220 C   0  0  0  0  0  0  0  0  0  0  0  0
  138.4850  160.0170  130.6200 C   0  0  0  0  0  0  0  0  0  0  0  0
  137.1140  159.7410  130.8040 O   0  0  0  0  0  0  0  0  0  0  0  0
  139.1010  160.8150  131.7280 C   0  0  0  0  0  0  0  0  0  0  0  0
  138.3380  155.3060  132.5840 H   0  0  0  0  0  0  0  0  0  0  0  0
  142.0964  155.0475  133.7709 H   0  0  0  0  0  0  0  0  0  0  0  0
  144.9393  155.4156  133.7388 H   0  0  0  0  0  0  0  0  0  0  0  0
  146.7250  157.1784  133.5660 H   0  0  0  0  0  0  0  0  0  0  0  0
  143.6526  160.2578  133.2463 H   0  0  0  0  0  0  0  0  0  0  0  0
  140.1386  158.6265  130.3725 H   0  0  0  0  0  0  0  0  0  0  0  0
  138.9379  157.9787  131.3962 H   0  0  0  0  0  0  0  0  0  0  0  0
  138.4432  160.3491  129.5722 H   0  0  0  0  0  0  0  0  0  0  0  0
  136.8830  158.9010  130.3250 H   0  0  0  0  0  0  0  0  0  0  0  0
  139.6544  161.6930  131.3634 H   0  0  0  0  0  0  0  0  0  0  0  0
  138.4179  161.2705  132.4600 H   0  0  0  0  0  0  0  0  0  0  0  0
  1  2  1  0
  2  3  2  0
  2  4  1  0
  4  5  2  0
  5  6  1  0
  6  7  2  0
  7  8  1  0
  8  9  2  0
  9 10  1  0
 10 11  1  0
 10 12  1  0
 10 13  1  0
  9 14  1  0
 14 15  2  0
 15 16  1  0
 16 17  1  0
 17 18  2  0
 17 19  1  0
 19 20  1  0
 20 21  1  0
 21 22  1  0
 21 23  1  0
 16  4  1  0
 23 19  1  0
 15  6  1  0
  1 24  1  0
  5 25  1  0
  7 26  1  0
  8 27  1  0
 14 28  1  0
 20 29  1  0
 20 30  1  0
 21 31  1  0
 22 32  1  0
 23 33  1  0
 23 34  1  0
M  CHG  1   1  -1
M  END
>  <UniqueID>  (94) 
94

>  <SMILES>  (94) 
[NH-]C(=O)c1cc2ccc(C(F)(F)F)cc2n1C(=O)N1CC(O)C1

>  <Energy>  (94) 
122.06682302272132

>  <Genealogy>  (94) 
[NH-]C(=O)c1cc2ccc(C(F)(F)F)cc2n1C(=O)N1CC(O)C1 (protonated)
[NH-]C(=O)c1cc2ccc(C(F)(F)F)cc2n1C(=O)N1CC(O)C1 (3D coordinates assigned)
[NH-]C(=O)c1cc2ccc(C(F)(F)F)cc2n1C(=O)N1CC(O)C1 (nonaromatic ring conformer: 122.06682302272132 kcal/mol)

>  <smiles>  (94) 
NC(=O)c1cc2ccc(C(F)(F)F)cc2n1C(=O)N1CC(O)C1

>  <score_type>  (94) 
oracle

>  <origin>  (94) 
adg

>  <m_score__min__energy>  (94) 
-6.8499999999999996

>  <m_primary>  (94) 
energy

$$$$
95:0
     RDKit          3D

 38 39  0  0  0  0  0  0  0  0999 V2000
  148.7470  154.3540  132.9840 C   0  0  0  0  0  0  0  0  0  0  0  0
  147.5630  153.6850  133.6760 C   0  0  0  0  0  0  0  0  0  0  0  0
  146.9960  154.6490  135.0720 S   0  0  0  0  0  0  0  0  0  0  0  0
  148.1030  155.5640  135.5180 O   0  0  0  0  0  0  0  0  0  0  0  0
  146.6440  153.7310  136.2090 O   0  0  0  0  0  0  0  0  0  0  0  0
  145.5530  155.6180  134.6410 C   0  0  0  0  0  0  0  0  0  0  0  0
  145.7980  156.5470  133.4830 C   0  0  0  0  0  0  0  0  0  0  0  0
  146.3910  156.1330  132.4510 O   0  0  0  0  0  0  0  0  0  0  0  0
  145.4890  157.9430  133.6020 N   0  0  0  0  0  0  0  0  0  0  0  0
  146.3690  158.9820  133.6510 C   0  0  0  0  0  0  0  0  0  0  0  0
  147.8440  158.8480  133.6830 C   0  0  0  0  0  0  0  0  0  0  0  0
  148.4640  157.5630  133.7750 N   0  0  0  0  0  0  0  0  0  0  0  0
  148.5730  159.8730  133.6160 O   0  0  0  0  0  0  0  0  0  0  0  0
  145.6820  160.1950  133.7230 C   0  0  0  0  0  0  0  0  0  0  0  0
  144.3470  159.8610  133.7090 C   0  0  0  0  0  0  0  0  0  0  0  0
  143.2170  160.6740  133.7360 C   0  0  0  0  0  0  0  0  0  0  0  0
  141.9560  160.0530  133.6730 C   0  0  0  0  0  0  0  0  0  0  0  0
  141.8510  158.6420  133.5850 C   0  0  0  0  0  0  0  0  0  0  0  0
  140.5040  157.9880  133.4760 C   0  0  0  0  0  0  0  0  0  0  0  0
  139.7100  158.6500  132.4370 C   0  0  0  0  0  0  0  0  0  0  0  0
  139.0820  159.1720  131.6160 N   0  0  0  0  0  0  0  0  0  0  0  0
  143.0220  157.8530  133.5470 C   0  0  0  0  0  0  0  0  0  0  0  0
  144.2590  158.4960  133.6320 C   0  0  0  0  0  0  0  0  0  0  0  0
  149.4410  154.7461  133.7420 H   0  0  0  0  0  0  0  0  0  0  0  0
  149.2686  153.6171  132.3556 H   0  0  0  0  0  0  0  0  0  0  0  0
  148.3849  155.1810  132.3556 H   0  0  0  0  0  0  0  0  0  0  0  0
  146.7391  153.5801  132.9548 H   0  0  0  0  0  0  0  0  0  0  0  0
  147.8869  152.7000  134.0431 H   0  0  0  0  0  0  0  0  0  0  0  0
  144.7359  154.9317  134.3740 H   0  0  0  0  0  0  0  0  0  0  0  0
  145.2977  156.2372  135.5136 H   0  0  0  0  0  0  0  0  0  0  0  0
  147.9040  156.6920  133.9000 H   0  0  0  0  0  0  0  0  0  0  0  0
  149.5050  157.4840  133.7620 H   0  0  0  0  0  0  0  0  0  0  0  0
  146.1159  161.2043  133.7791 H   0  0  0  0  0  0  0  0  0  0  0  0
  143.3073  161.7681  133.8045 H   0  0  0  0  0  0  0  0  0  0  0  0
  141.0439  160.6676  133.6922 H   0  0  0  0  0  0  0  0  0  0  0  0
  140.6337  156.9272  133.2154 H   0  0  0  0  0  0  0  0  0  0  0  0
  139.9813  158.0731  134.4401 H   0  0  0  0  0  0  0  0  0  0  0  0
  142.9612  156.7587  133.4527 H   0  0  0  0  0  0  0  0  0  0  0  0
  1  2  1  0
  2  3  1  0
  3  4  2  0
  3  5  2  0
  3  6  1  0
  6  7  1  0
  7  8  2  0
  7  9  1  0
  9 10  1  0
 10 11  1  0
 11 12  1  0
 11 13  2  0
 10 14  2  0
 14 15  1  0
 15 16  2  0
 16 17  1  0
 17 18  2  0
 18 19  1  0
 19 20  1  0
 20 21  3  0
 18 22  1  0
 22 23  2  0
 23  9  1  0
 23 15  1  0
  1 24  1  0
  1 25  1  0
  1 26  1  0
  2 27  1  0
  2 28  1  0
  6 29  1  0
  6 30  1  0
 12 31  1  0
 12 32  1  0
 14 33  1  0
 16 34  1  0
 17 35  1  0
 19 36  1  0
 19 37  1  0
 22 38  1  0
M  END
>  <UniqueID>  (95) 
95

>  <SMILES>  (95) 
CCS(=O)(=O)CC(=O)n1c(C(N)=O)cc2ccc(CC#N)cc21

>  <Energy>  (95) 
65.68343047716974

>  <Genealogy>  (95) 
CCS(=O)(=O)CC(=O)n1c(C(N)=O)cc2ccc(CC#N)cc21 (3D coordinates assigned)
CCS(=O)(=O)CC(=O)n1c(C(N)=O)cc2ccc(CC#N)cc21 (optimized conformer: 65.68343047716974 kcal/mol)

>  <smiles>  (95) 
CCS(=O)(=O)CC(=O)n1c(C(N)=O)cc2ccc(CC#N)cc21

>  <score_type>  (95) 
oracle

>  <origin>  (95) 
adg

>  <m_score__min__energy>  (95) 
-7.5800000000000001

>  <m_primary>  (95) 
energy

$$$$
96:0
     RDKit          3D

 33 34  0  0  0  0  0  0  0  0999 V2000
  149.2200  154.8240  132.6060 C   0  0  0  0  0  0  0  0  0  0  0  0
  148.5090  156.1000  132.7320 N   0  0  0  0  0  0  0  0  0  0  0  0
  147.4060  155.9880  133.6970 C   0  0  0  0  0  0  0  0  0  0  0  0
  146.1730  156.6670  133.1700 C   0  0  0  0  0  0  0  0  0  0  0  0
  145.2780  155.9820  132.6050 O   0  0  0  0  0  0  0  0  0  0  0  0
  146.0110  158.0880  133.2920 N   0  0  0  0  0  0  0  0  0  0  0  0
  146.9540  159.0530  133.0940 C   0  0  0  0  0  0  0  0  0  0  0  0
  148.3880  158.8230  132.8220 C   0  0  0  0  0  0  0  0  0  0  0  0
  148.8340  158.3930  131.5380 N   0  0  0  0  0  0  0  0  0  0  0  0
  149.2320  158.9810  133.7450 O   0  0  0  0  0  0  0  0  0  0  0  0
  146.3880  160.3200  133.2370 C   0  0  0  0  0  0  0  0  0  0  0  0
  145.0600  160.0970  133.5250 C   0  0  0  0  0  0  0  0  0  0  0  0
  144.0310  161.0020  133.7570 C   0  0  0  0  0  0  0  0  0  0  0  0
  142.7470  160.4880  134.0070 C   0  0  0  0  0  0  0  0  0  0  0  0
  142.5080  159.0890  133.9940 C   0  0  0  0  0  0  0  0  0  0  0  0
  141.1350  158.5490  134.3010 C   0  0  0  0  0  0  0  0  0  0  0  0
  140.7690  158.9380  135.5760 F   0  0  0  0  0  0  0  0  0  0  0  0
  140.2050  159.0330  133.3990 F   0  0  0  0  0  0  0  0  0  0  0  0
  141.1260  157.1670  134.2310 F   0  0  0  0  0  0  0  0  0  0  0  0
  143.5880  158.2020  133.7750 C   0  0  0  0  0  0  0  0  0  0  0  0
  144.8580  158.7420  133.5490 C   0  0  0  0  0  0  0  0  0  0  0  0
  149.4412  154.4270  133.6077 H   0  0  0  0  0  0  0  0  0  0  0  0
  148.5916  154.1066  132.0579 H   0  0  0  0  0  0  0  0  0  0  0  0
  150.1607  154.9810  132.0579 H   0  0  0  0  0  0  0  0  0  0  0  0
  148.1330  156.3660  131.7910 H   0  0  0  0  0  0  0  0  0  0  0  0
  149.1850  156.8300  133.0550 H   0  0  0  0  0  0  0  0  0  0  0  0
  147.1861  154.9247  133.8733 H   0  0  0  0  0  0  0  0  0  0  0  0
  147.7054  156.4748  134.6369 H   0  0  0  0  0  0  0  0  0  0  0  0
  148.5080  157.4880  131.1310 H   0  0  0  0  0  0  0  0  0  0  0  0
  146.8951  161.2914  133.1402 H   0  0  0  0  0  0  0  0  0  0  0  0
  144.2157  162.0863  133.7453 H   0  0  0  0  0  0  0  0  0  0  0  0
  141.9167  161.1788  134.2154 H   0  0  0  0  0  0  0  0  0  0  0  0
  143.4325  157.1131  133.7823 H   0  0  0  0  0  0  0  0  0  0  0  0
  1  2  1  0
  2  3  1  0
  3  4  1  0
  4  5  2  0
  4  6  1  0
  6  7  1  0
  7  8  1  0
  8  9  1  0
  8 10  2  0
  7 11  2  0
 11 12  1  0
 12 13  2  0
 13 14  1  0
 14 15  2  0
 15 16  1  0
 16 17  1  0
 16 18  1  0
 16 19  1  0
 15 20  1  0
 20 21  2  0
 21  6  1  0
 21 12  1  0
  1 22  1  0
  1 23  1  0
  1 24  1  0
  2 25  1  0
  2 26  1  0
  3 27  1  0
  3 28  1  0
  9 29  1  0
 11 30  1  0
 13 31  1  0
 14 32  1  0
 20 33  1  0
M  CHG  2   2   1   9  -1
M  END
>  <UniqueID>  (96) 
96

>  <SMILES>  (96) 
C[NH2+]CC(=O)n1c(C([NH-])=O)cc2ccc(C(F)(F)F)cc21

>  <Energy>  (96) 
71.00954780664651

>  <Genealogy>  (96) 
C[NH2+]CC(=O)n1c(C([NH-])=O)cc2ccc(C(F)(F)F)cc21 (protonated)
C[NH2+]CC(=O)n1c(C([NH-])=O)cc2ccc(C(F)(F)F)cc21 (3D coordinates assigned)
C[NH2+]CC(=O)n1c(C([NH-])=O)cc2ccc(C(F)(F)F)cc21 (optimized conformer: 71.00954780664651 kcal/mol)

>  <smiles>  (96) 
CNCC(=O)n1c(C(N)=O)cc2ccc(C(F)(F)F)cc21

>  <score_type>  (96) 
oracle

>  <origin>  (96) 
adg

>  <m_score__min__energy>  (96) 
-5.6399999999999997

>  <m_primary>  (96) 
energy

$$$$
97:0
     RDKit          3D

 39 40  0  0  0  0  0  0  0  0999 V2000
  141.6060  158.6200  135.7680 C   0  0  0  0  0  0  0  0  0  0  0  0
  142.3080  158.0820  134.5970 N   0  0  0  0  0  0  0  0  0  0  0  0
  141.7400  156.9210  133.8990 C   0  0  0  0  0  0  0  0  0  0  0  0
  143.5460  158.6840  134.1370 C   0  0  0  0  0  0  0  0  0  0  0  0
  143.6820  160.1000  134.0690 C   0  0  0  0  0  0  0  0  0  0  0  0
  144.8770  160.6940  133.6320 C   0  0  0  0  0  0  0  0  0  0  0  0
  145.9260  159.8590  133.2680 C   0  0  0  0  0  0  0  0  0  0  0  0
  147.1890  160.1680  132.8140 C   0  0  0  0  0  0  0  0  0  0  0  0
  147.8200  158.9420  132.6190 C   0  0  0  0  0  0  0  0  0  0  0  0
  149.2410  158.8050  132.2400 C   0  0  0  0  0  0  0  0  0  0  0  0
  149.7960  157.5100  132.0180 N   0  0  0  0  0  0  0  0  0  0  0  0
  149.9640  159.8230  132.0770 O   0  0  0  0  0  0  0  0  0  0  0  0
  146.9750  157.9170  132.9230 N   0  0  0  0  0  0  0  0  0  0  0  0
  147.2120  156.5070  132.7880 C   0  0  0  0  0  0  0  0  0  0  0  0
  147.1870  155.9750  131.6450 O   0  0  0  0  0  0  0  0  0  0  0  0
  147.5770  155.6710  133.9840 C   0  0  0  0  0  0  0  0  0  0  0  0
  147.5280  154.1730  133.6640 C   0  0  0  0  0  0  0  0  0  0  0  0
  148.8390  153.6730  133.1270 C   0  0  0  0  0  0  0  0  0  0  0  0
  149.6100  154.4740  132.2310 N   0  0  0  0  0  0  0  0  0  0  0  0
  149.2620  152.5360  133.4660 O   0  0  0  0  0  0  0  0  0  0  0  0
  145.8240  158.4960  133.3290 C   0  0  0  0  0  0  0  0  0  0  0  0
  144.6450  157.8740  133.7530 C   0  0  0  0  0  0  0  0  0  0  0  0
  142.0875  158.2510  136.6856 H   0  0  0  0  0  0  0  0  0  0  0  0
  141.6485  159.7190  135.7481 H   0  0  0  0  0  0  0  0  0  0  0  0
  140.5558  158.2932  135.7481 H   0  0  0  0  0  0  0  0  0  0  0  0
  141.3817  156.1885  134.6373 H   0  0  0  0  0  0  0  0  0  0  0  0
  140.8997  157.2472  133.2685 H   0  0  0  0  0  0  0  0  0  0  0  0
  142.5133  156.4578  133.2685 H   0  0  0  0  0  0  0  0  0  0  0  0
  142.8367  160.7392  134.3638 H   0  0  0  0  0  0  0  0  0  0  0  0
  144.9795  161.7880  133.5794 H   0  0  0  0  0  0  0  0  0  0  0  0
  147.6097  161.1697  132.6420 H   0  0  0  0  0  0  0  0  0  0  0  0
  149.2240  156.7480  131.5920 H   0  0  0  0  0  0  0  0  0  0  0  0
  148.5956  155.9339  134.3053 H   0  0  0  0  0  0  0  0  0  0  0  0
  146.8473  155.8756  134.7813 H   0  0  0  0  0  0  0  0  0  0  0  0
  147.2862  153.6203  134.5838 H   0  0  0  0  0  0  0  0  0  0  0  0
  146.7600  154.0135  132.8928 H   0  0  0  0  0  0  0  0  0  0  0  0
  150.5300  154.1310  131.8770 H   0  0  0  0  0  0  0  0  0  0  0  0
  149.2700  155.4130  131.9270 H   0  0  0  0  0  0  0  0  0  0  0  0
  144.5716  156.7770  133.7880 H   0  0  0  0  0  0  0  0  0  0  0  0
  1  2  1  0
  2  3  1  0
  2  4  1  0
  4  5  2  0
  5  6  1  0
  6  7  2  0
  7  8  1  0
  8  9  2  0
  9 10  1  0
 10 11  1  0
 10 12  2  0
  9 13  1  0
 13 14  1  0
 14 15  2  0
 14 16  1  0
 16 17  1  0
 17 18  1  0
 18 19  1  0
 18 20  2  0
 13 21  1  0
 21 22  2  0
 22  4  1  0
 21  7  1  0
  1 23  1  0
  1 24  1  0
  1 25  1  0
  3 26  1  0
  3 27  1  0
  3 28  1  0
  5 29  1  0
  6 30  1  0
  8 31  1  0
 11 32  1  0
 16 33  1  0
 16 34  1  0
 17 35  1  0
 17 36  1  0
 19 37  1  0
 19 38  1  0
 22 39  1  0
M  CHG  1  11  -1
M  END
>  <UniqueID>  (97) 
97

>  <SMILES>  (97) 
CN(C)c1ccc2cc(C([NH-])=O)n(C(=O)CCC(N)=O)c2c1

>  <Energy>  (97) 
73.2753383553917

>  <Genealogy>  (97) 
CN(C)c1ccc2cc(C([NH-])=O)n(C(=O)CCC(N)=O)c2c1 (protonated)
CN(C)c1ccc2cc(C([NH-])=O)n(C(=O)CCC(N)=O)c2c1 (3D coordinates assigned)
CN(C)c1ccc2cc(C([NH-])=O)n(C(=O)CCC(N)=O)c2c1 (optimized conformer: 73.2753383553917 kcal/mol)

>  <smiles>  (97) 
CN(C)c1ccc2cc(C(N)=O)n(C(=O)CCC(N)=O)c2c1

>  <score_type>  (97) 
oracle

>  <origin>  (97) 
adg

>  <m_score__min__energy>  (97) 
-6.6100000000000003

>  <m_primary>  (97) 
energy

$$$$
