0:0
     RDKit          3D

 41 42  0  0  0  0  0  0  0  0999 V2000
  141.0470  159.4850  133.8820 N   0  0  0  0  0  0  0  0  0  0  0  0
  142.0340  160.5060  133.7440 C   0  0  0  0  0  0  0  0  0  0  0  0
  141.6740  161.7110  133.7110 O   0  0  0  0  0  0  0  0  0  0  0  0
  143.4640  160.1430  133.6770 C   0  0  0  0  0  0  0  0  0  0  0  0
  144.5010  161.0660  133.7950 C   0  0  0  0  0  0  0  0  0  0  0  0
  145.6540  160.3470  133.5770 C   0  0  0  0  0  0  0  0  0  0  0  0
  146.9830  160.7620  133.5730 C   0  0  0  0  0  0  0  0  0  0  0  0
  147.9730  159.7970  133.3200 C   0  0  0  0  0  0  0  0  0  0  0  0
  147.6200  158.4460  133.0810 C   0  0  0  0  0  0  0  0  0  0  0  0
  148.6970  157.4330  132.8100 C   0  0  0  0  0  0  0  0  0  0  0  0
  149.5440  157.9070  131.8230 F   0  0  0  0  0  0  0  0  0  0  0  0
  148.1290  156.2440  132.3890 F   0  0  0  0  0  0  0  0  0  0  0  0
  146.2610  158.0590  133.1040 C   0  0  0  0  0  0  0  0  0  0  0  0
  145.2980  159.0440  133.3440 C   0  0  0  0  0  0  0  0  0  0  0  0
  143.9570  158.9010  133.4100 N   0  0  0  0  0  0  0  0  0  0  0  0
  143.2300  157.6690  133.2930 C   0  0  0  0  0  0  0  0  0  0  0  0
  142.6070  157.4090  132.2290 O   0  0  0  0  0  0  0  0  0  0  0  0
  143.2630  156.6530  134.3990 C   0  0  0  0  0  0  0  0  0  0  0  0
  141.9370  156.5590  135.0890 C   0  0  0  0  0  0  0  0  0  0  0  0
  140.8820  156.5020  134.4000 O   0  0  0  0  0  0  0  0  0  0  0  0
  141.8640  156.6020  136.5180 N   0  0  0  0  0  0  0  0  0  0  0  0
  140.5990  156.6500  137.2390 C   0  0  0  0  0  0  0  0  0  0  0  0
  139.9760  158.0430  137.1070 C   0  0  2  0  0  0  0  0  0  0  0  0
  139.5390  158.2240  135.7850 O   0  0  0  0  0  0  0  0  0  0  0  0
  141.0060  159.1240  137.4760 C   0  0  0  0  0  0  0  0  0  0  0  0
  141.9050  159.3340  136.4200 O   0  0  0  0  0  0  0  0  0  0  0  0
  141.2350  158.6280  134.4470 H   0  0  0  0  0  0  0  0  0  0  0  0
  144.4162  162.1403  134.0154 H   0  0  0  0  0  0  0  0  0  0  0  0
  147.2498  161.8123  133.7619 H   0  0  0  0  0  0  0  0  0  0  0  0
  149.0322  160.0936  133.3075 H   0  0  0  0  0  0  0  0  0  0  0  0
  149.2664  157.2597  133.7351 H   0  0  0  0  0  0  0  0  0  0  0  0
  145.9688  157.0117  132.9377 H   0  0  0  0  0  0  0  0  0  0  0  0
  143.5175  155.6701  133.9756 H   0  0  0  0  0  0  0  0  0  0  0  0
  144.0174  156.9654  135.1361 H   0  0  0  0  0  0  0  0  0  0  0  0
  139.9111  155.9015  136.8188 H   0  0  0  0  0  0  0  0  0  0  0  0
  140.7798  156.4335  138.3022 H   0  0  0  0  0  0  0  0  0  0  0  0
  139.1215  158.1298  137.7943 H   0  0  0  0  0  0  0  0  0  0  0  0
  140.3470  158.3570  135.2270 H   0  0  0  0  0  0  0  0  0  0  0  0
  140.4795  160.0648  137.6943 H   0  0  0  0  0  0  0  0  0  0  0  0
  141.5699  158.7882  138.3587 H   0  0  0  0  0  0  0  0  0  0  0  0
  141.7110  158.6400  135.7390 H   0  0  0  0  0  0  0  0  0  0  0  0
  1  2  1  0
  2  3  2  0
  2  4  1  0
  4  5  2  0
  5  6  1  0
  6  7  2  0
  7  8  1  0
  8  9  2  0
  9 10  1  0
 10 11  1  0
 10 12  1  0
  9 13  1  0
 13 14  2  0
 14 15  1  0
 15 16  1  0
 16 17  2  0
 16 18  1  0
 18 19  1  0
 19 20  2  0
 19 21  1  0
 21 22  1  0
 22 23  1  0
 23 24  1  0
 23 25  1  0
 25 26  1  0
 15  4  1  0
 14  6  1  0
  1 27  1  0
  5 28  1  0
  7 29  1  0
  8 30  1  0
 10 31  1  0
 13 32  1  0
 18 33  1  0
 18 34  1  0
 22 35  1  0
 22 36  1  0
 23 37  1  1
 24 38  1  0
 25 39  1  0
 25 40  1  0
 26 41  1  0
M  CHG  2   1  -1  21  -1
M  END
>  <UniqueID>  (1) 
1

>  <SMILES>  (1) 
[NH-]C(=O)c1cc2ccc(C(F)F)cc2n1C(=O)CC(=O)[N-]C[C@H](O)CO

>  <Energy>  (1) 
70.84895616963531

>  <Genealogy>  (1) 
[NH-]C(=O)c1cc2ccc(C(F)F)cc2n1C(=O)CC(=O)[N-]CC(O)CO (protonated)
[NH-]C(=O)c1cc2ccc(C(F)F)cc2n1C(=O)CC(=O)[N-]C[C@H](O)CO (chirality)
[NH-]C(=O)c1cc2ccc(C(F)F)cc2n1C(=O)CC(=O)[N-]C[C@H](O)CO (3D coordinates assigned)
[NH-]C(=O)c1cc2ccc(C(F)F)cc2n1C(=O)CC(=O)[N-]C[C@H](O)CO (optimized conformer: 70.84895616963531 kcal/mol)

>  <smiles>  (1) 
NC(=O)c1cc2ccc(C(F)F)cc2n1C(=O)CC(=O)NCC(O)CO

>  <score_type>  (1) 
oracle

>  <origin>  (1) 
adg

>  <m_score__min__energy>  (1) 
-5.1500000000000004

>  <m_primary>  (1) 
energy

$$$$
1:0
     RDKit          3D

 48 50  0  0  0  0  0  0  0  0999 V2000
  140.7360  155.4810  138.4190 C   0  0  0  0  0  0  0  0  0  0  0  0
  139.9020  156.4610  137.8080 O   0  0  0  0  0  0  0  0  0  0  0  0
  140.3470  157.4110  136.8770 C   0  0  0  0  0  0  0  0  0  0  0  0
  141.4390  158.2170  137.2210 C   0  0  0  0  0  0  0  0  0  0  0  0
  141.9240  159.1750  136.3260 C   0  0  0  0  0  0  0  0  0  0  0  0
  141.3170  159.3440  135.0720 C   0  0  0  0  0  0  0  0  0  0  0  0
  141.8580  160.3440  134.0870 C   0  0  0  0  0  0  0  0  0  0  0  0
  143.0020  159.7810  133.3780 N   0  0  0  0  0  0  0  0  0  0  0  0
  143.1110  158.3980  133.0270 C   0  0  0  0  0  0  0  0  0  0  0  0
  142.2590  157.8680  132.2640 O   0  0  0  0  0  0  0  0  0  0  0  0
  144.2180  157.6230  133.5100 N   0  0  0  0  0  0  0  0  0  0  0  0
  144.1800  156.4820  134.2560 C   0  0  0  0  0  0  0  0  0  0  0  0
  142.9670  155.7120  134.5990 C   0  0  0  0  0  0  0  0  0  0  0  0
  142.0690  155.3050  133.5680 N   0  0  0  0  0  0  0  0  0  0  0  0
  142.6960  155.4360  135.7980 O   0  0  0  0  0  0  0  0  0  0  0  0
  145.4700  156.0800  134.5970 C   0  0  0  0  0  0  0  0  0  0  0  0
  146.3050  157.0170  134.0300 C   0  0  0  0  0  0  0  0  0  0  0  0
  147.6920  157.1180  134.0660 C   0  0  0  0  0  0  0  0  0  0  0  0
  148.2910  158.2120  133.4170 C   0  0  0  0  0  0  0  0  0  0  0  0
  147.4960  159.1890  132.7560 C   0  0  0  0  0  0  0  0  0  0  0  0
  148.0840  160.3240  132.0910 N   0  0  0  0  0  0  0  0  0  0  0  0
  149.3890  160.3210  131.4280 C   0  0  0  0  0  0  0  0  0  0  0  0
  149.4920  161.4630  130.4170 C   0  0  0  0  0  0  0  0  0  0  0  0
  148.5440  162.4490  130.7150 O   0  0  0  0  0  0  0  0  0  0  0  0
  146.0910  159.0420  132.7400 C   0  0  0  0  0  0  0  0  0  0  0  0
  145.5250  157.9350  133.3800 C   0  0  0  0  0  0  0  0  0  0  0  0
  140.2240  158.5360  134.7240 C   0  0  0  0  0  0  0  0  0  0  0  0
  139.7400  157.5770  135.6180 C   0  0  0  0  0  0  0  0  0  0  0  0
  140.6624  155.5675  139.5131 H   0  0  0  0  0  0  0  0  0  0  0  0
  140.4108  154.4773  138.1079 H   0  0  0  0  0  0  0  0  0  0  0  0
  141.7788  155.6415  138.1079 H   0  0  0  0  0  0  0  0  0  0  0  0
  141.9190  158.0954  138.2032 H   0  0  0  0  0  0  0  0  0  0  0  0
  142.7854  159.7993  136.6059 H   0  0  0  0  0  0  0  0  0  0  0  0
  141.0720  160.6025  133.3621 H   0  0  0  0  0  0  0  0  0  0  0  0
  142.1787  161.2459  134.6290 H   0  0  0  0  0  0  0  0  0  0  0  0
  142.1140  155.7340  132.6170 H   0  0  0  0  0  0  0  0  0  0  0  0
  145.7596  155.2015  135.1922 H   0  0  0  0  0  0  0  0  0  0  0  0
  148.3017  156.3647  134.5865 H   0  0  0  0  0  0  0  0  0  0  0  0
  149.3863  158.3135  133.4205 H   0  0  0  0  0  0  0  0  0  0  0  0
  147.5470  161.2230  132.0760 H   0  0  0  0  0  0  0  0  0  0  0  0
  150.1778  160.4389  132.1856 H   0  0  0  0  0  0  0  0  0  0  0  0
  149.5083  159.3673  130.8930 H   0  0  0  0  0  0  0  0  0  0  0  0
  150.5002  161.9006  130.4623 H   0  0  0  0  0  0  0  0  0  0  0  0
  149.3022  161.0711  129.4069 H   0  0  0  0  0  0  0  0  0  0  0  0
  147.7430  162.2320  130.1720 H   0  0  0  0  0  0  0  0  0  0  0  0
  145.4550  159.7835  132.2343 H   0  0  0  0  0  0  0  0  0  0  0  0
  139.7450  158.6581  133.7413 H   0  0  0  0  0  0  0  0  0  0  0  0
  138.8814  156.9495  135.3367 H   0  0  0  0  0  0  0  0  0  0  0  0
  1  2  1  0
  2  3  1  0
  3  4  2  0
  4  5  1  0
  5  6  2  0
  6  7  1  0
  7  8  1  0
  8  9  1  0
  9 10  2  0
  9 11  1  0
 11 12  1  0
 12 13  1  0
 13 14  1  0
 13 15  2  0
 12 16  2  0
 16 17  1  0
 17 18  2  0
 18 19  1  0
 19 20  2  0
 20 21  1  0
 21 22  1  0
 22 23  1  0
 23 24  1  0
 20 25  1  0
 25 26  2  0
  6 27  1  0
 27 28  2  0
 28  3  1  0
 26 11  1  0
 26 17  1  0
  1 29  1  0
  1 30  1  0
  1 31  1  0
  4 32  1  0
  5 33  1  0
  7 34  1  0
  7 35  1  0
 14 36  1  0
 16 37  1  0
 18 38  1  0
 19 39  1  0
 21 40  1  0
 22 41  1  0
 22 42  1  0
 23 43  1  0
 23 44  1  0
 24 45  1  0
 25 46  1  0
 27 47  1  0
 28 48  1  0
M  CHG  2   8  -1  14  -1
M  END
>  <UniqueID>  (2) 
2

>  <SMILES>  (2) 
COc1ccc(C[N-]C(=O)n2c(C([NH-])=O)cc3ccc(NCCO)cc32)cc1

>  <Energy>  (2) 
83.24649919306756

>  <Genealogy>  (2) 
COc1ccc(C[N-]C(=O)n2c(C([NH-])=O)cc3ccc(NCCO)cc32)cc1 (protonated)
COc1ccc(C[N-]C(=O)n2c(C([NH-])=O)cc3ccc(NCCO)cc32)cc1 (3D coordinates assigned)
COc1ccc(C[N-]C(=O)n2c(C([NH-])=O)cc3ccc(NCCO)cc32)cc1 (optimized conformer: 83.24649919306756 kcal/mol)

>  <smiles>  (2) 
COc1ccc(CNC(=O)n2c(C(N)=O)cc3ccc(NCCO)cc32)cc1

>  <score_type>  (2) 
oracle

>  <origin>  (2) 
adg

>  <m_score__min__energy>  (2) 
-8.7799999999999994

>  <m_primary>  (2) 
energy

$$$$
2:0
     RDKit          3D

 40 41  0  0  0  0  0  0  0  0999 V2000
  148.6470  157.1560  131.8840 N   0  0  0  0  0  0  0  0  0  0  0  0
  148.4710  158.3340  132.6730 C   0  0  0  0  0  0  0  0  0  0  0  0
  149.4840  158.9770  133.0530 O   0  0  0  0  0  0  0  0  0  0  0  0
  147.1200  158.7800  133.0740 C   0  0  0  0  0  0  0  0  0  0  0  0
  146.7500  160.1160  133.2240 C   0  0  0  0  0  0  0  0  0  0  0  0
  145.4010  160.0910  133.4980 C   0  0  0  0  0  0  0  0  0  0  0  0
  144.5140  161.1370  133.7320 C   0  0  0  0  0  0  0  0  0  0  0  0
  143.1730  160.8140  134.0010 C   0  0  0  0  0  0  0  0  0  0  0  0
  142.7470  159.4620  134.0530 C   0  0  0  0  0  0  0  0  0  0  0  0
  141.2970  159.1310  134.3030 C   0  0  0  0  0  0  0  0  0  0  0  0
  140.5150  159.7850  133.3690 F   0  0  0  0  0  0  0  0  0  0  0  0
  141.0800  157.7680  134.1990 F   0  0  0  0  0  0  0  0  0  0  0  0
  140.9170  159.5340  135.5710 F   0  0  0  0  0  0  0  0  0  0  0  0
  143.6750  158.4280  133.7850 C   0  0  0  0  0  0  0  0  0  0  0  0
  145.0000  158.7820  133.5070 C   0  0  0  0  0  0  0  0  0  0  0  0
  146.0420  157.9660  133.2510 N   0  0  0  0  0  0  0  0  0  0  0  0
  146.0150  156.5290  133.2820 C   0  0  0  0  0  0  0  0  0  0  0  0
  146.3270  155.8780  132.2500 O   0  0  0  0  0  0  0  0  0  0  0  0
  145.6050  155.7930  134.5220 C   0  0  0  0  0  0  0  0  0  0  0  0
  145.8420  154.4100  134.3480 O   0  0  0  0  0  0  0  0  0  0  0  0
  147.1750  154.0840  134.6900 C   0  0  0  0  0  0  0  0  0  0  0  0
  147.8010  153.1920  133.6000 C   0  0  1  0  0  0  0  0  0  0  0  0
  146.8540  152.8930  132.6050 O   0  0  0  0  0  0  0  0  0  0  0  0
  149.0460  153.8390  132.9700 C   0  0  0  0  0  0  0  0  0  0  0  0
  148.6840  154.6660  131.8960 O   0  0  0  0  0  0  0  0  0  0  0  0
  147.8280  156.6290  131.5090 H   0  0  0  0  0  0  0  0  0  0  0  0
  149.6070  156.8340  131.6310 H   0  0  0  0  0  0  0  0  0  0  0  0
  147.3978  161.0012  133.1411 H   0  0  0  0  0  0  0  0  0  0  0  0
  144.8516  162.1836  133.7072 H   0  0  0  0  0  0  0  0  0  0  0  0
  142.4444  161.6199  134.1735 H   0  0  0  0  0  0  0  0  0  0  0  0
  143.3630  157.3732  133.7949 H   0  0  0  0  0  0  0  0  0  0  0  0
  146.1906  156.1608  135.3775 H   0  0  0  0  0  0  0  0  0  0  0  0
  144.5346  155.9611  134.7117 H   0  0  0  0  0  0  0  0  0  0  0  0
  147.7626  155.0091  134.7843 H   0  0  0  0  0  0  0  0  0  0  0  0
  147.1774  153.5387  135.6453 H   0  0  0  0  0  0  0  0  0  0  0  0
  148.1216  152.2590  134.0865 H   0  0  0  0  0  0  0  0  0  0  0  0
  146.6120  153.7440  132.1550 H   0  0  0  0  0  0  0  0  0  0  0  0
  149.5645  154.4410  133.7308 H   0  0  0  0  0  0  0  0  0  0  0  0
  149.7081  153.0437  132.5971 H   0  0  0  0  0  0  0  0  0  0  0  0
  147.7700  154.3940  131.6170 H   0  0  0  0  0  0  0  0  0  0  0  0
  1  2  1  0
  2  3  2  0
  2  4  1  0
  4  5  2  0
  5  6  1  0
  6  7  2  0
  7  8  1  0
  8  9  2  0
  9 10  1  0
 10 11  1  0
 10 12  1  0
 10 13  1  0
  9 14  1  0
 14 15  2  0
 15 16  1  0
 16 17  1  0
 17 18  2  0
 17 19  1  0
 19 20  1  0
 20 21  1  0
 21 22  1  0
 22 23  1  0
 22 24  1  0
 24 25  1  0
 16  4  1  0
 15  6  1  0
  1 26  1  0
  1 27  1  0
  5 28  1  0
  7 29  1  0
  8 30  1  0
 14 31  1  0
 19 32  1  0
 19 33  1  0
 21 34  1  0
 21 35  1  0
 22 36  1  1
 23 37  1  0
 24 38  1  0
 24 39  1  0
 25 40  1  0
M  END
>  <UniqueID>  (3) 
3

>  <SMILES>  (3) 
NC(=O)c1cc2ccc(C(F)(F)F)cc2n1C(=O)COC[C@@H](O)CO

>  <Energy>  (3) 
78.48986912371349

>  <Genealogy>  (3) 
NC(=O)c1cc2ccc(C(F)(F)F)cc2n1C(=O)COC[C@@H](O)CO (chirality)
NC(=O)c1cc2ccc(C(F)(F)F)cc2n1C(=O)COC[C@@H](O)CO (3D coordinates assigned)
NC(=O)c1cc2ccc(C(F)(F)F)cc2n1C(=O)COC[C@@H](O)CO (optimized conformer: 78.48986912371349 kcal/mol)

>  <smiles>  (3) 
NC(=O)c1cc2ccc(C(F)(F)F)cc2n1C(=O)COCC(O)CO

>  <score_type>  (3) 
oracle

>  <origin>  (3) 
adg

>  <m_score__min__energy>  (3) 
-5.1900000000000004

>  <m_primary>  (3) 
energy

$$$$
3:0
     RDKit          3D

 40 41  0  0  0  0  0  0  0  0999 V2000
  137.9730  159.7560  131.0310 C   0  0  0  0  0  0  0  0  0  0  0  0
  138.2450  159.1020  132.2510 O   0  0  0  0  0  0  0  0  0  0  0  0
  139.6430  159.0510  132.4910 C   0  0  0  0  0  0  0  0  0  0  0  0
  139.9640  158.0080  133.5700 C   0  0  2  0  0  0  0  0  0  0  0  0
  139.1350  156.7330  133.3790 C   0  0  0  0  0  0  0  0  0  0  0  0
  139.7100  158.5810  134.8880 N   0  0  0  0  0  0  0  0  0  0  0  0
  140.7040  158.7200  135.9070 C   0  0  0  0  0  0  0  0  0  0  0  0
  140.6100  159.6280  136.7760 O   0  0  0  0  0  0  0  0  0  0  0  0
  141.8430  157.7500  135.9600 C   0  0  0  0  0  0  0  0  0  0  0  0
  141.5540  156.6750  136.9700 C   0  0  0  0  0  0  0  0  0  0  0  0
  141.2410  157.0220  138.3080 C   0  0  0  0  0  0  0  0  0  0  0  0
  141.0030  156.0260  139.2690 C   0  0  0  0  0  0  0  0  0  0  0  0
  141.0980  154.6970  138.8670 C   0  0  0  0  0  0  0  0  0  0  0  0
  140.8990  153.5410  139.5850 C   0  0  0  0  0  0  0  0  0  0  0  0
  141.1250  152.5020  138.6840 C   0  0  0  0  0  0  0  0  0  0  0  0
  141.1000  151.0740  139.0670 C   0  0  0  0  0  0  0  0  0  0  0  0
  142.2040  150.5100  139.7720 N   0  0  0  0  0  0  0  0  0  0  0  0
  140.1310  150.3370  138.7480 O   0  0  0  0  0  0  0  0  0  0  0  0
  141.4440  152.9980  137.4540 N   0  0  0  0  0  0  0  0  0  0  0  0
  141.6860  152.2640  136.2420 C   0  0  0  0  0  0  0  0  0  0  0  0
  142.5530  152.6610  135.4200 O   0  0  0  0  0  0  0  0  0  0  0  0
  140.9820  151.0970  135.9760 O   0  0  0  0  0  0  0  0  0  0  0  0
  141.4250  154.3430  137.5840 C   0  0  0  0  0  0  0  0  0  0  0  0
  141.6510  155.3150  136.6010 C   0  0  0  0  0  0  0  0  0  0  0  0
  137.5579  160.7541  131.2346 H   0  0  0  0  0  0  0  0  0  0  0  0
  138.9038  159.8568  130.4535 H   0  0  0  0  0  0  0  0  0  0  0  0
  137.2452  159.1670  130.4535 H   0  0  0  0  0  0  0  0  0  0  0  0
  140.1608  158.7795  131.5593 H   0  0  0  0  0  0  0  0  0  0  0  0
  139.9812  160.0385  132.8381 H   0  0  0  0  0  0  0  0  0  0  0  0
  141.0253  157.7319  133.4834 H   0  0  0  0  0  0  0  0  0  0  0  0
  138.8662  156.3197  134.3623 H   0  0  0  0  0  0  0  0  0  0  0  0
  138.2189  156.9718  132.8188 H   0  0  0  0  0  0  0  0  0  0  0  0
  139.7249  155.9926  132.8188 H   0  0  0  0  0  0  0  0  0  0  0  0
  141.9785  157.2922  134.9690 H   0  0  0  0  0  0  0  0  0  0  0  0
  142.7595  158.2837  136.2519 H   0  0  0  0  0  0  0  0  0  0  0  0
  141.1839  158.0819  138.5966 H   0  0  0  0  0  0  0  0  0  0  0  0
  140.7495  156.2880  140.3068 H   0  0  0  0  0  0  0  0  0  0  0  0
  140.6205  153.4547  140.6457 H   0  0  0  0  0  0  0  0  0  0  0  0
  142.4280  149.4930  139.6930 H   0  0  0  0  0  0  0  0  0  0  0  0
  141.8976  155.0267  135.5685 H   0  0  0  0  0  0  0  0  0  0  0  0
  1  2  1  0
  2  3  1  0
  3  4  1  0
  4  5  1  0
  4  6  1  0
  6  7  1  0
  7  8  2  0
  7  9  1  0
  9 10  1  0
 10 11  2  0
 11 12  1  0
 12 13  2  0
 13 14  1  0
 14 15  2  0
 15 16  1  0
 16 17  1  0
 16 18  2  0
 15 19  1  0
 19 20  1  0
 20 21  2  0
 20 22  1  0
 19 23  1  0
 23 24  2  0
 24 10  1  0
 23 13  1  0
  1 25  1  0
  1 26  1  0
  1 27  1  0
  3 28  1  0
  3 29  1  0
  4 30  1  1
  5 31  1  0
  5 32  1  0
  5 33  1  0
  9 34  1  0
  9 35  1  0
 11 36  1  0
 12 37  1  0
 14 38  1  0
 17 39  1  0
 24 40  1  0
M  CHG  3   6  -1  17  -1  22  -1
M  END
>  <UniqueID>  (4) 
4

>  <SMILES>  (4) 
COC[C@H](C)[N-]C(=O)Cc1ccc2cc(C([NH-])=O)n(C(=O)[O-])c2c1

>  <Energy>  (4) 
73.98112542104798

>  <Genealogy>  (4) 
COCC(C)[N-]C(=O)Cc1ccc2cc(C([NH-])=O)n(C(=O)[O-])c2c1 (protonated)
COC[C@H](C)[N-]C(=O)Cc1ccc2cc(C([NH-])=O)n(C(=O)[O-])c2c1 (chirality)
COC[C@H](C)[N-]C(=O)Cc1ccc2cc(C([NH-])=O)n(C(=O)[O-])c2c1 (3D coordinates assigned)
COC[C@H](C)[N-]C(=O)Cc1ccc2cc(C([NH-])=O)n(C(=O)[O-])c2c1 (optimized conformer: 73.98112542104798 kcal/mol)

>  <smiles>  (4) 
COCC(C)NC(=O)Cc1ccc2cc(C(N)=O)n(C(=O)O)c2c1

>  <score_type>  (4) 
oracle

>  <origin>  (4) 
adg

>  <m_score__min__energy>  (4) 
-6.7400000000000002

>  <m_primary>  (4) 
energy

$$$$
4:0
     RDKit          3D

 44 47  0  0  0  0  0  0  0  0999 V2000
  139.3810  154.8480  140.2280 N   0  0  0  0  0  0  0  0  0  0  0  0
  140.7460  155.1360  139.9190 C   0  0  0  0  0  0  0  0  0  0  0  0
  141.5280  155.4680  140.8480 O   0  0  0  0  0  0  0  0  0  0  0  0
  141.2500  155.0190  138.5340 C   0  0  0  0  0  0  0  0  0  0  0  0
  141.2790  156.0700  137.6180 C   0  0  0  0  0  0  0  0  0  0  0  0
  141.7140  155.5130  136.4370 C   0  0  0  0  0  0  0  0  0  0  0  0
  141.9240  156.0990  135.1910 C   0  0  0  0  0  0  0  0  0  0  0  0
  142.3860  155.2790  134.1480 C   0  0  0  0  0  0  0  0  0  0  0  0
  142.6420  153.9020  134.3700 C   0  0  0  0  0  0  0  0  0  0  0  0
  143.1010  153.0260  133.2400 C   0  0  0  0  0  0  0  0  0  0  0  0
  142.1290  151.9600  133.0180 N   0  0  0  0  0  0  0  0  0  0  0  0
  142.4370  150.6690  132.9240 N   0  0  0  0  0  0  0  0  0  0  0  0
  141.2550  150.0440  132.7280 C   0  0  0  0  0  0  0  0  0  0  0  0
  140.2350  150.8820  132.6730 N   0  0  0  0  0  0  0  0  0  0  0  0
  140.8010  152.0860  132.8150 C   0  0  0  0  0  0  0  0  0  0  0  0
  140.1910  153.1820  132.6940 O   0  0  0  0  0  0  0  0  0  0  0  0
  139.1210  150.3820  131.9060 C   0  0  0  0  0  0  0  0  0  0  0  0
  139.5280  148.9170  131.6020 C   0  0  0  0  0  0  0  0  0  0  0  0
  140.9980  148.7480  132.0730 C   0  0  0  0  0  0  0  0  0  0  0  0
  142.4050  153.3410  135.6440 C   0  0  0  0  0  0  0  0  0  0  0  0
  141.9330  154.1790  136.6590 C   0  0  0  0  0  0  0  0  0  0  0  0
  141.6550  153.8610  137.9410 N   0  0  0  0  0  0  0  0  0  0  0  0
  141.8250  152.5700  138.5440 C   0  0  0  0  0  0  0  0  0  0  0  0
  142.9720  152.2080  138.9240 O   0  0  0  0  0  0  0  0  0  0  0  0
  140.6290  151.7180  138.8680 C   0  0  0  0  0  0  0  0  0  0  0  0
  140.2160  150.8840  137.6960 C   0  0  0  0  0  0  0  0  0  0  0  0
  139.3420  149.9860  137.8300 O   0  0  0  0  0  0  0  0  0  0  0  0
  140.7770  151.1150  136.4460 O   0  0  0  0  0  0  0  0  0  0  0  0
  138.6900  154.6250  139.4800 H   0  0  0  0  0  0  0  0  0  0  0  0
  139.0460  154.8980  141.2170 H   0  0  0  0  0  0  0  0  0  0  0  0
  141.0111  157.1211  137.8006 H   0  0  0  0  0  0  0  0  0  0  0  0
  141.7340  157.1703  135.0287 H   0  0  0  0  0  0  0  0  0  0  0  0
  142.5508  155.7094  133.1492 H   0  0  0  0  0  0  0  0  0  0  0  0
  143.1972  153.6294  132.3253 H   0  0  0  0  0  0  0  0  0  0  0  0
  144.0753  152.5834  133.4947 H   0  0  0  0  0  0  0  0  0  0  0  0
  138.1906  150.4193  132.4917 H   0  0  0  0  0  0  0  0  0  0  0  0
  138.9232  150.9715  130.9986 H   0  0  0  0  0  0  0  0  0  0  0  0
  138.8738  148.2219  132.1486 H   0  0  0  0  0  0  0  0  0  0  0  0
  139.4317  148.6972  130.5285 H   0  0  0  0  0  0  0  0  0  0  0  0
  141.0979  147.9136  132.7828 H   0  0  0  0  0  0  0  0  0  0  0  0
  141.7017  148.5114  131.2613 H   0  0  0  0  0  0  0  0  0  0  0  0
  142.5869  152.2727  135.8330 H   0  0  0  0  0  0  0  0  0  0  0  0
  140.8802  151.0541  139.7083 H   0  0  0  0  0  0  0  0  0  0  0  0
  139.7927  152.3826  139.1304 H   0  0  0  0  0  0  0  0  0  0  0  0
  1  2  1  0
  2  3  2  0
  2  4  1  0
  4  5  2  0
  5  6  1  0
  6  7  2  0
  7  8  1  0
  8  9  2  0
  9 10  1  0
 10 11  1  0
 11 12  1  0
 12 13  2  0
 13 14  1  0
 14 15  1  0
 15 16  2  0
 14 17  1  0
 17 18  1  0
 18 19  1  0
  9 20  1  0
 20 21  2  0
 21 22  1  0
 22 23  1  0
 23 24  2  0
 23 25  1  0
 25 26  1  0
 26 27  2  0
 26 28  1  0
 22  4  1  0
 21  6  1  0
 15 11  1  0
 19 13  1  0
  1 29  1  0
  1 30  1  0
  5 31  1  0
  7 32  1  0
  8 33  1  0
 10 34  1  0
 10 35  1  0
 17 36  1  0
 17 37  1  0
 18 38  1  0
 18 39  1  0
 19 40  1  0
 19 41  1  0
 20 42  1  0
 25 43  1  0
 25 44  1  0
M  CHG  1  28  -1
M  END
>  <UniqueID>  (5) 
5

>  <SMILES>  (5) 
NC(=O)c1cc2ccc(Cn3nc4n(c3=O)CCC4)cc2n1C(=O)CC(=O)[O-]

>  <Energy>  (5) 
144.61712653251178

>  <Genealogy>  (5) 
NC(=O)c1cc2ccc(Cn3nc4n(c3=O)CCC4)cc2n1C(=O)CC(=O)[O-] (protonated)
NC(=O)c1cc2ccc(Cn3nc4n(c3=O)CCC4)cc2n1C(=O)CC(=O)[O-] (3D coordinates assigned)
NC(=O)c1cc2ccc(Cn3nc4n(c3=O)CCC4)cc2n1C(=O)CC(=O)[O-] (nonaromatic ring conformer: 144.61712653251178 kcal/mol)

>  <smiles>  (5) 
NC(=O)c1cc2ccc(Cn3nc4n(c3=O)CCC4)cc2n1C(=O)CC(=O)O

>  <score_type>  (5) 
oracle

>  <origin>  (5) 
adg

>  <m_score__min__energy>  (5) 
-8.9800000000000004

>  <m_primary>  (5) 
energy

$$$$
5:0
     RDKit          3D

 54 55  0  0  0  0  0  0  0  0999 V2000
  150.3450  150.5820  131.4300 C   0  0  0  0  0  0  0  0  0  0  0  0
  149.2770  150.9510  132.4780 C   0  0  0  0  0  0  0  0  0  0  0  0
  148.2130  149.8410  132.5820 C   0  0  0  0  0  0  0  0  0  0  0  0
  149.9540  151.1190  133.8460 C   0  0  0  0  0  0  0  0  0  0  0  0
  148.6720  152.2100  132.1480 O   0  0  0  0  0  0  0  0  0  0  0  0
  149.1350  153.4780  132.5290 C   0  0  0  0  0  0  0  0  0  0  0  0
  150.3090  153.8550  132.2620 O   0  0  0  0  0  0  0  0  0  0  0  0
  148.2050  154.4000  133.2520 C   0  0  0  0  0  0  0  0  0  0  0  0
  148.7100  155.7730  133.2280 N   0  0  0  0  0  0  0  0  0  0  0  0
  147.8780  156.9510  133.2130 C   0  0  0  0  0  0  0  0  0  0  0  0
  148.4920  158.2240  133.3020 C   0  0  0  0  0  0  0  0  0  0  0  0
  147.7210  159.3950  133.3420 C   0  0  0  0  0  0  0  0  0  0  0  0
  146.3370  159.2680  133.2860 C   0  0  0  0  0  0  0  0  0  0  0  0
  145.3650  160.2360  133.3550 C   0  0  0  0  0  0  0  0  0  0  0  0
  144.1610  159.5470  133.3020 C   0  0  0  0  0  0  0  0  0  0  0  0
  142.8540  160.2160  133.3850 C   0  0  0  0  0  0  0  0  0  0  0  0
  141.7200  159.6850  132.7000 N   0  0  0  0  0  0  0  0  0  0  0  0
  142.7190  161.2240  134.1280 O   0  0  0  0  0  0  0  0  0  0  0  0
  144.3670  158.2040  133.1720 N   0  0  0  0  0  0  0  0  0  0  0  0
  143.3650  157.1850  132.9700 C   0  0  0  0  0  0  0  0  0  0  0  0
  142.7480  157.1090  131.8720 O   0  0  0  0  0  0  0  0  0  0  0  0
  143.0440  156.3000  134.0050 O   0  0  0  0  0  0  0  0  0  0  0  0
  141.9030  156.4430  134.8490 C   0  0  0  0  0  0  0  0  0  0  0  0
  140.6170  156.0010  134.1330 C   0  0  2  0  0  0  0  0  0  0  0  0
  140.9540  155.1240  133.0890 O   0  0  0  0  0  0  0  0  0  0  0  0
  139.8250  157.1950  133.5810 C   0  0  0  0  0  0  0  0  0  0  0  0
  140.2230  157.4830  132.2690 O   0  0  0  0  0  0  0  0  0  0  0  0
  145.7160  158.0500  133.1770 C   0  0  0  0  0  0  0  0  0  0  0  0
  146.4650  156.8650  133.1370 C   0  0  0  0  0  0  0  0  0  0  0  0
  151.2657  150.2639  131.9410 H   0  0  0  0  0  0  0  0  0  0  0  0
  149.9725  149.7605  130.8005 H   0  0  0  0  0  0  0  0  0  0  0  0
  150.5591  151.4583  130.8005 H   0  0  0  0  0  0  0  0  0  0  0  0
  148.0083  149.6274  133.6415 H   0  0  0  0  0  0  0  0  0  0  0  0
  147.2873  150.1731  132.0894 H   0  0  0  0  0  0  0  0  0  0  0  0
  148.5840  148.9301  132.0894 H   0  0  0  0  0  0  0  0  0  0  0  0
  149.2189  150.9366  134.6437 H   0  0  0  0  0  0  0  0  0  0  0  0
  150.7803  150.3987  133.9371 H   0  0  0  0  0  0  0  0  0  0  0  0
  150.3477  152.1421  133.9371 H   0  0  0  0  0  0  0  0  0  0  0  0
  147.2184  154.3703  132.7665 H   0  0  0  0  0  0  0  0  0  0  0  0
  148.1272  154.0717  134.2990 H   0  0  0  0  0  0  0  0  0  0  0  0
  149.7480  155.8980  133.2430 H   0  0  0  0  0  0  0  0  0  0  0  0
  149.5890  158.2955  133.3403 H   0  0  0  0  0  0  0  0  0  0  0  0
  148.1966  160.3842  133.4154 H   0  0  0  0  0  0  0  0  0  0  0  0
  145.5095  161.3235  133.4350 H   0  0  0  0  0  0  0  0  0  0  0  0
  141.7920  158.7910  132.1640 H   0  0  0  0  0  0  0  0  0  0  0  0
  140.7960  160.1670  132.7570 H   0  0  0  0  0  0  0  0  0  0  0  0
  142.0429  155.8244  135.7478 H   0  0  0  0  0  0  0  0  0  0  0  0
  141.8021  157.5049  135.1178 H   0  0  0  0  0  0  0  0  0  0  0  0
  139.9718  155.4940  134.8656 H   0  0  0  0  0  0  0  0  0  0  0  0
  141.5700  155.6180  132.4870 H   0  0  0  0  0  0  0  0  0  0  0  0
  138.7521  156.9526  133.5889 H   0  0  0  0  0  0  0  0  0  0  0  0
  140.0196  158.0740  134.2130 H   0  0  0  0  0  0  0  0  0  0  0  0
  141.0390  156.9420  132.1050 H   0  0  0  0  0  0  0  0  0  0  0  0
  145.9662  155.8886  133.0484 H   0  0  0  0  0  0  0  0  0  0  0  0
  1  2  1  0
  2  3  1  0
  2  4  1  0
  2  5  1  0
  5  6  1  0
  6  7  2  0
  6  8  1  0
  8  9  1  0
  9 10  1  0
 10 11  2  0
 11 12  1  0
 12 13  2  0
 13 14  1  0
 14 15  2  0
 15 16  1  0
 16 17  1  0
 16 18  2  0
 15 19  1  0
 19 20  1  0
 20 21  2  0
 20 22  1  0
 22 23  1  0
 23 24  1  0
 24 25  1  0
 24 26  1  0
 26 27  1  0
 19 28  1  0
 28 29  2  0
 29 10  1  0
 28 13  1  0
  1 30  1  0
  1 31  1  0
  1 32  1  0
  3 33  1  0
  3 34  1  0
  3 35  1  0
  4 36  1  0
  4 37  1  0
  4 38  1  0
  8 39  1  0
  8 40  1  0
  9 41  1  0
 11 42  1  0
 12 43  1  0
 14 44  1  0
 17 45  1  0
 17 46  1  0
 23 47  1  0
 23 48  1  0
 24 49  1  1
 25 50  1  0
 26 51  1  0
 26 52  1  0
 27 53  1  0
 29 54  1  0
M  END
>  <UniqueID>  (6) 
6

>  <SMILES>  (6) 
CC(C)(C)OC(=O)CNc1ccc2cc(C(N)=O)n(C(=O)OC[C@H](O)CO)c2c1

>  <Energy>  (6) 
80.72076309514216

>  <Genealogy>  (6) 
CC(C)(C)OC(=O)CNc1ccc2cc(C(N)=O)n(C(=O)OC[C@H](O)CO)c2c1 (chirality)
CC(C)(C)OC(=O)CNc1ccc2cc(C(N)=O)n(C(=O)OC[C@H](O)CO)c2c1 (3D coordinates assigned)
CC(C)(C)OC(=O)CNc1ccc2cc(C(N)=O)n(C(=O)OC[C@H](O)CO)c2c1 (optimized conformer: 80.72076309514216 kcal/mol)

>  <smiles>  (6) 
CC(C)(C)OC(=O)CNc1ccc2cc(C(N)=O)n(C(=O)OCC(O)CO)c2c1

>  <score_type>  (6) 
oracle

>  <origin>  (6) 
adg

>  <m_score__min__energy>  (6) 
-6.9699999999999998

>  <m_primary>  (6) 
energy

$$$$
6:0
     RDKit          3D

 42 43  0  0  0  0  0  0  0  0999 V2000
  144.6470  153.8320  134.0480 C   0  0  0  0  0  0  0  0  0  0  0  0
  145.5640  154.9500  134.5640 C   0  0  1  0  0  0  0  0  0  0  0  0
  144.8940  155.6020  135.6180 O   0  0  0  0  0  0  0  0  0  0  0  0
  146.8470  154.3190  135.0650 C   0  0  0  0  0  0  0  0  0  0  0  0
  146.8770  153.7580  136.1960 O   0  0  0  0  0  0  0  0  0  0  0  0
  147.9770  154.2970  134.2360 O   0  0  0  0  0  0  0  0  0  0  0  0
  148.4290  153.1340  133.5430 C   0  0  0  0  0  0  0  0  0  0  0  0
  149.4940  153.4890  132.5070 C   0  0  0  0  0  0  0  0  0  0  0  0
  149.5090  154.8700  132.2800 O   0  0  0  0  0  0  0  0  0  0  0  0
  145.8720  155.9270  133.4380 C   0  0  0  0  0  0  0  0  0  0  0  0
  146.4410  155.5140  132.3920 O   0  0  0  0  0  0  0  0  0  0  0  0
  145.5860  157.3300  133.5670 N   0  0  0  0  0  0  0  0  0  0  0  0
  146.4830  158.3560  133.5970 C   0  0  0  0  0  0  0  0  0  0  0  0
  147.9570  158.2000  133.5770 C   0  0  0  0  0  0  0  0  0  0  0  0
  148.5640  156.9190  133.4000 N   0  0  0  0  0  0  0  0  0  0  0  0
  148.6990  159.2080  133.7130 O   0  0  0  0  0  0  0  0  0  0  0  0
  145.8150  159.5790  133.6810 C   0  0  0  0  0  0  0  0  0  0  0  0
  144.4750  159.2660  133.6840 C   0  0  0  0  0  0  0  0  0  0  0  0
  143.3610  160.0980  133.7320 C   0  0  0  0  0  0  0  0  0  0  0  0
  142.0900  159.5000  133.6910 C   0  0  0  0  0  0  0  0  0  0  0  0
  141.9580  158.0920  133.5970 C   0  0  0  0  0  0  0  0  0  0  0  0
  140.5910  157.4730  133.5400 C   0  0  0  0  0  0  0  0  0  0  0  0
  139.8390  157.9030  134.6180 F   0  0  0  0  0  0  0  0  0  0  0  0
  139.9590  157.8430  132.3670 F   0  0  0  0  0  0  0  0  0  0  0  0
  143.1130  157.2810  133.5470 C   0  0  0  0  0  0  0  0  0  0  0  0
  144.3640  157.9030  133.6080 C   0  0  0  0  0  0  0  0  0  0  0  0
  144.2070  153.2955  134.9015 H   0  0  0  0  0  0  0  0  0  0  0  0
  143.8441  154.2693  133.4364 H   0  0  0  0  0  0  0  0  0  0  0  0
  145.2330  153.1302  133.4364 H   0  0  0  0  0  0  0  0  0  0  0  0
  145.2510  155.2530  136.4780 H   0  0  0  0  0  0  0  0  0  0  0  0
  148.8561  152.4267  134.2691 H   0  0  0  0  0  0  0  0  0  0  0  0
  147.5717  152.6832  133.0217 H   0  0  0  0  0  0  0  0  0  0  0  0
  150.4801  153.1712  132.8766 H   0  0  0  0  0  0  0  0  0  0  0  0
  149.2615  152.9736  131.5635 H   0  0  0  0  0  0  0  0  0  0  0  0
  148.5610  155.1650  132.3110 H   0  0  0  0  0  0  0  0  0  0  0  0
  147.9980  156.0430  133.3500 H   0  0  0  0  0  0  0  0  0  0  0  0
  149.6040  156.8360  133.3580 H   0  0  0  0  0  0  0  0  0  0  0  0
  146.2649  160.5814  133.7337 H   0  0  0  0  0  0  0  0  0  0  0  0
  143.4717  161.1903  133.7999 H   0  0  0  0  0  0  0  0  0  0  0  0
  141.1895  160.1303  133.7322 H   0  0  0  0  0  0  0  0  0  0  0  0
  140.6910  156.3781  133.5740 H   0  0  0  0  0  0  0  0  0  0  0  0
  143.0307  156.1874  133.4622 H   0  0  0  0  0  0  0  0  0  0  0  0
  1  2  1  0
  2  3  1  1
  2  4  1  0
  4  5  2  0
  4  6  1  0
  6  7  1  0
  7  8  1  0
  8  9  1  0
  2 10  1  0
 10 11  2  0
 10 12  1  0
 12 13  1  0
 13 14  1  0
 14 15  1  0
 14 16  2  0
 13 17  2  0
 17 18  1  0
 18 19  2  0
 19 20  1  0
 20 21  2  0
 21 22  1  0
 22 23  1  0
 22 24  1  0
 21 25  1  0
 25 26  2  0
 26 12  1  0
 26 18  1  0
  1 27  1  0
  1 28  1  0
  1 29  1  0
  3 30  1  0
  7 31  1  0
  7 32  1  0
  8 33  1  0
  8 34  1  0
  9 35  1  0
 15 36  1  0
 15 37  1  0
 17 38  1  0
 19 39  1  0
 20 40  1  0
 22 41  1  0
 25 42  1  0
M  END
>  <UniqueID>  (7) 
7

>  <SMILES>  (7) 
C[C@@](O)(C(=O)OCCO)C(=O)n1c(C(N)=O)cc2ccc(C(F)F)cc21

>  <Energy>  (7) 
77.81445534108082

>  <Genealogy>  (7) 
C[C@@](O)(C(=O)OCCO)C(=O)n1c(C(N)=O)cc2ccc(C(F)F)cc21 (3D coordinates assigned)
C[C@@](O)(C(=O)OCCO)C(=O)n1c(C(N)=O)cc2ccc(C(F)F)cc21 (optimized conformer: 77.81445534108082 kcal/mol)

>  <smiles>  (7) 
C[C@@](O)(C(=O)OCCO)C(=O)n1c(C(N)=O)cc2ccc(C(F)F)cc21

>  <score_type>  (7) 
oracle

>  <origin>  (7) 
adg

>  <m_score__min__energy>  (7) 
-5.8799999999999999

>  <m_primary>  (7) 
energy

$$$$
7:0
     RDKit          3D

 43 44  0  0  0  0  0  0  0  0999 V2000
  141.2560  151.7700  132.7120 C   0  0  0  0  0  0  0  0  0  0  0  0
  142.6380  151.2810  132.6540 N   0  0  0  0  0  0  0  0  0  0  0  0
  142.9160  149.9060  132.2270 C   0  0  0  0  0  0  0  0  0  0  0  0
  143.7450  152.1440  132.9970 C   0  0  0  0  0  0  0  0  0  0  0  0
  144.9250  151.7700  132.7510 O   0  0  0  0  0  0  0  0  0  0  0  0
  143.5190  153.5110  133.5980 C   0  0  0  0  0  0  0  0  0  0  0  0
  144.5350  154.4710  133.1370 N   0  0  0  0  0  0  0  0  0  0  0  0
  144.3550  155.1840  131.8700 C   0  0  0  0  0  0  0  0  0  0  0  0
  145.6830  154.7590  133.9620 C   0  0  0  0  0  0  0  0  0  0  0  0
  145.7400  154.3280  135.1450 O   0  0  0  0  0  0  0  0  0  0  0  0
  146.7740  155.5340  133.4470 N   0  0  0  0  0  0  0  0  0  0  0  0
  147.9840  155.0820  133.0120 C   0  0  0  0  0  0  0  0  0  0  0  0
  148.4050  153.6610  133.0020 C   0  0  0  0  0  0  0  0  0  0  0  0
  147.5130  152.6200  133.4120 N   0  0  0  0  0  0  0  0  0  0  0  0
  149.5690  153.3500  132.6360 O   0  0  0  0  0  0  0  0  0  0  0  0
  148.7790  156.1600  132.6120 C   0  0  0  0  0  0  0  0  0  0  0  0
  148.0100  157.2830  132.8230 C   0  0  0  0  0  0  0  0  0  0  0  0
  148.3010  158.6270  132.6110 C   0  0  0  0  0  0  0  0  0  0  0  0
  147.3130  159.5750  132.9330 C   0  0  0  0  0  0  0  0  0  0  0  0
  146.0640  159.1660  133.4640 C   0  0  0  0  0  0  0  0  0  0  0  0
  145.0100  160.1970  133.7640 C   0  0  0  0  0  0  0  0  0  0  0  0
  143.7750  159.6010  133.9580 F   0  0  0  0  0  0  0  0  0  0  0  0
  145.7960  157.7910  133.6420 C   0  0  0  0  0  0  0  0  0  0  0  0
  146.8040  156.8750  133.3270 C   0  0  0  0  0  0  0  0  0  0  0  0
  140.9493  151.8785  133.7628 H   0  0  0  0  0  0  0  0  0  0  0  0
  141.1909  152.7458  132.2084 H   0  0  0  0  0  0  0  0  0  0  0  0
  140.5917  151.0524  132.2084 H   0  0  0  0  0  0  0  0  0  0  0  0
  143.0454  149.2662  133.1124 H   0  0  0  0  0  0  0  0  0  0  0  0
  142.0753  149.5322  131.6242 H   0  0  0  0  0  0  0  0  0  0  0  0
  143.8359  149.8882  131.6242 H   0  0  0  0  0  0  0  0  0  0  0  0
  142.5233  153.8728  133.3018 H   0  0  0  0  0  0  0  0  0  0  0  0
  143.5918  153.4262  134.6923 H   0  0  0  0  0  0  0  0  0  0  0  0
  144.0904  156.2321  132.0735 H   0  0  0  0  0  0  0  0  0  0  0  0
  145.2905  155.1475  131.2926 H   0  0  0  0  0  0  0  0  0  0  0  0
  143.5489  154.7078  131.2926 H   0  0  0  0  0  0  0  0  0  0  0  0
  146.5480  152.8190  133.7500 H   0  0  0  0  0  0  0  0  0  0  0  0
  147.8260  151.6250  133.3790 H   0  0  0  0  0  0  0  0  0  0  0  0
  149.8032  156.1198  132.2128 H   0  0  0  0  0  0  0  0  0  0  0  0
  149.2742  158.9387  132.2039 H   0  0  0  0  0  0  0  0  0  0  0  0
  147.5117  160.6447  132.7711 H   0  0  0  0  0  0  0  0  0  0  0  0
  145.2920  160.7455  134.6749 H   0  0  0  0  0  0  0  0  0  0  0  0
  144.9375  160.8840  132.9080 H   0  0  0  0  0  0  0  0  0  0  0  0
  144.8203  157.4499  134.0184 H   0  0  0  0  0  0  0  0  0  0  0  0
  1  2  1  0
  2  3  1  0
  2  4  1  0
  4  5  2  0
  4  6  1  0
  6  7  1  0
  7  8  1  0
  7  9  1  0
  9 10  2  0
  9 11  1  0
 11 12  1  0
 12 13  1  0
 13 14  1  0
 13 15  2  0
 12 16  2  0
 16 17  1  0
 17 18  2  0
 18 19  1  0
 19 20  2  0
 20 21  1  0
 21 22  1  0
 20 23  1  0
 23 24  2  0
 24 11  1  0
 24 17  1  0
  1 25  1  0
  1 26  1  0
  1 27  1  0
  3 28  1  0
  3 29  1  0
  3 30  1  0
  6 31  1  0
  6 32  1  0
  8 33  1  0
  8 34  1  0
  8 35  1  0
 14 36  1  0
 14 37  1  0
 16 38  1  0
 18 39  1  0
 19 40  1  0
 21 41  1  0
 21 42  1  0
 23 43  1  0
M  END
>  <UniqueID>  (8) 
8

>  <SMILES>  (8) 
CN(C)C(=O)CN(C)C(=O)n1c(C(N)=O)cc2ccc(CF)cc21

>  <Energy>  (8) 
77.74313291398875

>  <Genealogy>  (8) 
CN(C)C(=O)CN(C)C(=O)n1c(C(N)=O)cc2ccc(CF)cc21 (3D coordinates assigned)
CN(C)C(=O)CN(C)C(=O)n1c(C(N)=O)cc2ccc(CF)cc21 (optimized conformer: 77.74313291398875 kcal/mol)

>  <smiles>  (8) 
CN(C)C(=O)CN(C)C(=O)n1c(C(N)=O)cc2ccc(CF)cc21

>  <score_type>  (8) 
oracle

>  <origin>  (8) 
adg

>  <m_score__min__energy>  (8) 
-6.4000000000000004

>  <m_primary>  (8) 
energy

$$$$
8:0
     RDKit          3D

 35 36  0  0  0  0  0  0  0  0999 V2000
  144.3810  153.6100  135.2060 N   0  0  0  0  0  0  0  0  0  0  0  0
  144.1460  155.0050  135.3860 C   0  0  0  0  0  0  0  0  0  0  0  0
  143.1750  155.3780  136.0950 O   0  0  0  0  0  0  0  0  0  0  0  0
  145.0330  155.9910  134.7310 C   0  0  0  0  0  0  0  0  0  0  0  0
  144.5720  157.1550  134.1190 C   0  0  0  0  0  0  0  0  0  0  0  0
  145.6990  157.7930  133.6520 C   0  0  0  0  0  0  0  0  0  0  0  0
  145.8240  158.9760  132.9290 C   0  0  0  0  0  0  0  0  0  0  0  0
  147.1120  159.3720  132.5300 C   0  0  0  0  0  0  0  0  0  0  0  0
  148.2430  158.5820  132.8550 C   0  0  0  0  0  0  0  0  0  0  0  0
  149.6090  158.9860  132.3750 C   0  0  0  0  0  0  0  0  0  0  0  0
  149.5230  159.6640  131.0070 C   0  0  0  0  0  0  0  0  0  0  0  0
  149.7380  161.0430  131.1330 O   0  0  0  0  0  0  0  0  0  0  0  0
  148.0750  157.3790  133.5770 C   0  0  0  0  0  0  0  0  0  0  0  0
  146.7840  157.0250  133.9860 C   0  0  0  0  0  0  0  0  0  0  0  0
  146.3920  155.9210  134.6590 N   0  0  0  0  0  0  0  0  0  0  0  0
  147.2450  154.8720  135.1460 C   0  0  0  0  0  0  0  0  0  0  0  0
  147.2400  153.7470  134.5770 O   0  0  0  0  0  0  0  0  0  0  0  0
  148.1130  155.0830  136.3510 C   0  0  0  0  0  0  0  0  0  0  0  0
  147.9210  153.7110  137.5290 P   0  0  1  0  0  0  0  0  0  0  0  0
  149.1610  152.8460  137.5250 O   0  0  0  0  0  0  0  0  0  0  0  0
  147.6920  154.3480  139.0780 O   0  0  0  0  0  0  0  0  0  0  0  0
  146.5700  152.7770  137.1160 O   0  0  0  0  0  0  0  0  0  0  0  0
  145.3220  153.1960  135.3910 H   0  0  0  0  0  0  0  0  0  0  0  0
  143.5290  157.4924  134.0283 H   0  0  0  0  0  0  0  0  0  0  0  0
  144.9414  159.5825  132.6776 H   0  0  0  0  0  0  0  0  0  0  0  0
  147.2436  160.3037  131.9602 H   0  0  0  0  0  0  0  0  0  0  0  0
  150.0531  159.6863  133.0977 H   0  0  0  0  0  0  0  0  0  0  0  0
  150.2327  158.0845  132.2841 H   0  0  0  0  0  0  0  0  0  0  0  0
  150.2877  159.2369  130.3416 H   0  0  0  0  0  0  0  0  0  0  0  0
  148.5206  159.4952  130.5865 H   0  0  0  0  0  0  0  0  0  0  0  0
  150.7200  161.1810  131.1050 H   0  0  0  0  0  0  0  0  0  0  0  0
  148.9369  156.7370  133.8117 H   0  0  0  0  0  0  0  0  0  0  0  0
  149.1644  155.1415  136.0330 H   0  0  0  0  0  0  0  0  0  0  0  0
  147.8113  156.0184  136.8450 H   0  0  0  0  0  0  0  0  0  0  0  0
  146.1340  153.2680  136.3760 H   0  0  0  0  0  0  0  0  0  0  0  0
  1  2  1  0
  2  3  2  0
  2  4  1  0
  4  5  2  0
  5  6  1  0
  6  7  2  0
  7  8  1  0
  8  9  2  0
  9 10  1  0
 10 11  1  0
 11 12  1  0
  9 13  1  0
 13 14  2  0
 14 15  1  0
 15 16  1  0
 16 17  2  0
 16 18  1  0
 18 19  1  0
 19 20  2  0
 19 21  1  1
 19 22  1  0
 15  4  1  0
 14  6  1  0
  1 23  1  0
  5 24  1  0
  7 25  1  0
  8 26  1  0
 10 27  1  0
 10 28  1  0
 11 29  1  0
 11 30  1  0
 12 31  1  0
 13 32  1  0
 18 33  1  0
 18 34  1  0
 22 35  1  0
M  CHG  2   1  -1  21  -1
M  END
>  <UniqueID>  (9) 
9

>  <SMILES>  (9) 
[NH-]C(=O)c1cc2ccc(CCO)cc2n1C(=O)C[P@@](=O)([O-])O

>  <Energy>  (9) 
65.25507225368449

>  <Genealogy>  (9) 
[NH-]C(=O)c1cc2ccc(CCO)cc2n1C(=O)CP(=O)([O-])O (protonated)
[NH-]C(=O)c1cc2ccc(CCO)cc2n1C(=O)C[P@@](=O)([O-])O (chirality)
[NH-]C(=O)c1cc2ccc(CCO)cc2n1C(=O)C[P@@](=O)([O-])O (3D coordinates assigned)
[NH-]C(=O)c1cc2ccc(CCO)cc2n1C(=O)C[P@@](=O)([O-])O (optimized conformer: 65.25507225368449 kcal/mol)

>  <smiles>  (9) 
NC(=O)c1cc2ccc(CCO)cc2n1C(=O)CP(=O)(O)O

>  <score_type>  (9) 
oracle

>  <origin>  (9) 
adg

>  <m_score__min__energy>  (9) 
-6.0099999999999998

>  <m_primary>  (9) 
energy

$$$$
9:0
     RDKit          3D

 48 50  0  0  0  0  0  0  0  0999 V2000
  138.5230  157.6900  133.7360 C   0  0  0  0  0  0  0  0  0  0  0  0
  139.3670  158.3250  132.7180 N   0  0  0  0  0  0  0  0  0  0  0  0
  140.7550  158.5520  133.0640 C   0  0  0  0  0  0  0  0  0  0  0  0
  141.2230  159.7220  132.9930 O   0  0  0  0  0  0  0  0  0  0  0  0
  141.7060  157.4390  133.4200 C   0  0  0  0  0  0  0  0  0  0  0  0
  143.1280  157.7940  132.9670 C   0  0  0  0  0  0  0  0  0  0  0  0
  143.8530  158.6310  133.9830 C   0  0  0  0  0  0  0  0  0  0  0  0
  143.2710  158.9860  135.0440 O   0  0  0  0  0  0  0  0  0  0  0  0
  145.1640  159.1370  133.6950 N   0  0  0  0  0  0  0  0  0  0  0  0
  145.5780  160.4340  133.7310 C   0  0  0  0  0  0  0  0  0  0  0  0
  144.7250  161.6000  134.0400 C   0  0  0  0  0  0  0  0  0  0  0  0
  143.3380  161.5740  133.7090 N   0  0  0  0  0  0  0  0  0  0  0  0
  145.2050  162.6180  134.6070 O   0  0  0  0  0  0  0  0  0  0  0  0
  146.9270  160.5230  133.3910 C   0  0  0  0  0  0  0  0  0  0  0  0
  147.3260  159.2280  133.1480 C   0  0  0  0  0  0  0  0  0  0  0  0
  148.5730  158.7280  132.7810 C   0  0  0  0  0  0  0  0  0  0  0  0
  148.7010  157.3380  132.6170 C   0  0  0  0  0  0  0  0  0  0  0  0
  147.5950  156.4780  132.8390 C   0  0  0  0  0  0  0  0  0  0  0  0
  147.7550  154.9950  132.6560 C   0  0  0  0  0  0  0  0  0  0  0  0
  149.0890  154.6950  132.4530 F   0  0  0  0  0  0  0  0  0  0  0  0
  147.3020  154.3320  133.7820 F   0  0  0  0  0  0  0  0  0  0  0  0
  146.3440  157.0230  133.2070 C   0  0  0  0  0  0  0  0  0  0  0  0
  146.2440  158.4110  133.3410 C   0  0  0  0  0  0  0  0  0  0  0  0
  138.7840  158.6010  131.3850 C   0  0  2  0  0  0  0  0  0  0  0  0
  139.4800  159.7090  130.6280 C   0  0  0  0  0  0  0  0  0  0  0  0
  138.3270  160.4850  130.0290 C   0  0  0  0  0  0  0  0  0  0  0  0
  137.1850  160.2900  130.8270 O   0  0  0  0  0  0  0  0  0  0  0  0
  137.3240  159.0360  131.4540 C   0  0  0  0  0  0  0  0  0  0  0  0
  138.8871  157.9640  134.7372 H   0  0  0  0  0  0  0  0  0  0  0  0
  137.4845  158.0326  133.6171 H   0  0  0  0  0  0  0  0  0  0  0  0
  138.5644  156.5972  133.6171 H   0  0  0  0  0  0  0  0  0  0  0  0
  141.6983  157.2888  134.5097 H   0  0  0  0  0  0  0  0  0  0  0  0
  141.3866  156.5169  132.9123 H   0  0  0  0  0  0  0  0  0  0  0  0
  143.6919  156.8632  132.8069 H   0  0  0  0  0  0  0  0  0  0  0  0
  143.0514  158.3792  132.0387 H   0  0  0  0  0  0  0  0  0  0  0  0
  142.7140  160.8190  134.0710 H   0  0  0  0  0  0  0  0  0  0  0  0
  147.5414  161.4334  133.3299 H   0  0  0  0  0  0  0  0  0  0  0  0
  149.4302  159.3994  132.6245 H   0  0  0  0  0  0  0  0  0  0  0  0
  149.6689  156.9126  132.3133 H   0  0  0  0  0  0  0  0  0  0  0  0
  147.1676  154.6738  131.7832 H   0  0  0  0  0  0  0  0  0  0  0  0
  145.4738  156.3736  133.3830 H   0  0  0  0  0  0  0  0  0  0  0  0
  138.9037  157.6366  130.8695 H   0  0  0  0  0  0  0  0  0  0  0  0
  140.0721  160.3406  131.3066 H   0  0  0  0  0  0  0  0  0  0  0  0
  140.1928  159.3401  129.8758 H   0  0  0  0  0  0  0  0  0  0  0  0
  138.5782  161.5555  129.9987 H   0  0  0  0  0  0  0  0  0  0  0  0
  138.1317  160.1329  129.0054 H   0  0  0  0  0  0  0  0  0  0  0  0
  137.0125  159.1140  132.5061 H   0  0  0  0  0  0  0  0  0  0  0  0
  136.6925  158.2946  130.9425 H   0  0  0  0  0  0  0  0  0  0  0  0
  1  2  1  0
  2  3  1  0
  3  4  2  0
  3  5  1  0
  5  6  1  0
  6  7  1  0
  7  8  2  0
  7  9  1  0
  9 10  1  0
 10 11  1  0
 11 12  1  0
 11 13  2  0
 10 14  2  0
 14 15  1  0
 15 16  2  0
 16 17  1  0
 17 18  2  0
 18 19  1  0
 19 20  1  0
 19 21  1  0
 18 22  1  0
 22 23  2  0
  2 24  1  0
 24 25  1  0
 25 26  1  0
 26 27  1  0
 27 28  1  0
 23  9  1  0
 28 24  1  0
 23 15  1  0
  1 29  1  0
  1 30  1  0
  1 31  1  0
  5 32  1  0
  5 33  1  0
  6 34  1  0
  6 35  1  0
 12 36  1  0
 14 37  1  0
 16 38  1  0
 17 39  1  0
 19 40  1  0
 22 41  1  0
 24 42  1  6
 25 43  1  0
 25 44  1  0
 26 45  1  0
 26 46  1  0
 28 47  1  0
 28 48  1  0
M  CHG  1  12  -1
M  END
>  <UniqueID>  (10) 
10

>  <SMILES>  (10) 
CN(C(=O)CCC(=O)n1c(C([NH-])=O)cc2ccc(C(F)F)cc21)[C@@H]1CCOC1

>  <Energy>  (10) 
88.73520489580814

>  <Genealogy>  (10) 
CN(C(=O)CCC(=O)n1c(C([NH-])=O)cc2ccc(C(F)F)cc21)C1CCOC1 (protonated)
CN(C(=O)CCC(=O)n1c(C([NH-])=O)cc2ccc(C(F)F)cc21)[C@@H]1CCOC1 (chirality)
CN(C(=O)CCC(=O)n1c(C([NH-])=O)cc2ccc(C(F)F)cc21)[C@@H]1CCOC1 (3D coordinates assigned)
CN(C(=O)CCC(=O)n1c(C([NH-])=O)cc2ccc(C(F)F)cc21)[C@@H]1CCOC1 (nonaromatic ring conformer: 88.73520489580814 kcal/mol)

>  <smiles>  (10) 
CN(C(=O)CCC(=O)n1c(C(N)=O)cc2ccc(C(F)F)cc21)C1CCOC1

>  <score_type>  (10) 
oracle

>  <origin>  (10) 
adg

>  <m_score__min__energy>  (10) 
-7.8499999999999996

>  <m_primary>  (10) 
energy

$$$$
10:0
     RDKit          3D

 46 47  0  0  0  0  0  0  0  0999 V2000
  136.8550  160.1140  130.7320 C   0  0  0  0  0  0  0  0  0  0  0  0
  137.9310  159.8190  131.5940 O   0  0  0  0  0  0  0  0  0  0  0  0
  138.7780  158.8440  131.0130 C   0  0  0  0  0  0  0  0  0  0  0  0
  140.0300  158.6420  131.8760 C   0  0  1  0  0  0  0  0  0  0  0  0
  140.1890  159.7980  132.8670 C   0  0  0  0  0  0  0  0  0  0  0  0
  139.9120  157.4070  132.5820 O   0  0  0  0  0  0  0  0  0  0  0  0
  139.6900  157.3130  133.9600 C   0  0  0  0  0  0  0  0  0  0  0  0
  138.6580  157.8230  134.4770 O   0  0  0  0  0  0  0  0  0  0  0  0
  140.6340  156.6110  134.7800 N   0  0  0  0  0  0  0  0  0  0  0  0
  141.1790  157.0040  135.9670 C   0  0  0  0  0  0  0  0  0  0  0  0
  140.9840  158.3140  136.6220 C   0  0  0  0  0  0  0  0  0  0  0  0
  140.2050  159.3210  135.9780 N   0  0  0  0  0  0  0  0  0  0  0  0
  141.4680  158.5450  137.7620 O   0  0  0  0  0  0  0  0  0  0  0  0
  142.0390  156.0220  136.4570 C   0  0  0  0  0  0  0  0  0  0  0  0
  142.0120  155.0130  135.5230 C   0  0  0  0  0  0  0  0  0  0  0  0
  142.6850  153.7950  135.4980 C   0  0  0  0  0  0  0  0  0  0  0  0
  142.4590  152.9390  134.4070 C   0  0  0  0  0  0  0  0  0  0  0  0
  141.5630  153.3070  133.3690 C   0  0  0  0  0  0  0  0  0  0  0  0
  141.3340  152.4160  132.2510 N   0  0  0  0  0  0  0  0  0  0  0  0
  140.7790  151.1010  132.6450 C   0  0  1  0  0  0  0  0  0  0  0  0
  139.5390  150.7110  131.8200 C   0  0  0  0  0  0  0  0  0  0  0  0
  141.8300  150.0190  132.6290 C   0  0  0  0  0  0  0  0  0  0  0  0
  141.5440  148.8320  132.9420 O   0  0  0  0  0  0  0  0  0  0  0  0
  143.1210  150.3200  132.2100 O   0  0  0  0  0  0  0  0  0  0  0  0
  140.8870  154.5460  133.4410 C   0  0  0  0  0  0  0  0  0  0  0  0
  141.1540  155.3910  134.5230 C   0  0  0  0  0  0  0  0  0  0  0  0
  135.9637  160.3584  131.3285 H   0  0  0  0  0  0  0  0  0  0  0  0
  137.1184  160.9731  130.0975 H   0  0  0  0  0  0  0  0  0  0  0  0
  136.6434  159.2407  130.0975 H   0  0  0  0  0  0  0  0  0  0  0  0
  138.2339  157.8912  130.9348 H   0  0  0  0  0  0  0  0  0  0  0  0
  139.0845  159.1868  130.0137 H   0  0  0  0  0  0  0  0  0  0  0  0
  140.9188  158.6178  131.2283 H   0  0  0  0  0  0  0  0  0  0  0  0
  140.1356  159.4098  133.8948 H   0  0  0  0  0  0  0  0  0  0  0  0
  141.1626  160.2850  132.7091 H   0  0  0  0  0  0  0  0  0  0  0  0
  139.3830  160.5298  132.7091 H   0  0  0  0  0  0  0  0  0  0  0  0
  139.1620  159.2860  135.9950 H   0  0  0  0  0  0  0  0  0  0  0  0
  142.6168  156.0487  137.3926 H   0  0  0  0  0  0  0  0  0  0  0  0
  143.3731  153.5111  136.3079 H   0  0  0  0  0  0  0  0  0  0  0  0
  142.9822  151.9727  134.3565 H   0  0  0  0  0  0  0  0  0  0  0  0
  142.2320  152.2690  131.7330 H   0  0  0  0  0  0  0  0  0  0  0  0
  140.6780  152.8720  131.5730 H   0  0  0  0  0  0  0  0  0  0  0  0
  140.4382  151.2066  133.6855 H   0  0  0  0  0  0  0  0  0  0  0  0
  138.7136  150.4514  132.4992 H   0  0  0  0  0  0  0  0  0  0  0  0
  139.2393  151.5583  131.1857 H   0  0  0  0  0  0  0  0  0  0  0  0
  139.7782  149.8447  131.1857 H   0  0  0  0  0  0  0  0  0  0  0  0
  140.1667  154.8393  132.6631 H   0  0  0  0  0  0  0  0  0  0  0  0
  1  2  1  0
  2  3  1  0
  3  4  1  0
  4  5  1  0
  4  6  1  0
  6  7  1  0
  7  8  2  0
  7  9  1  0
  9 10  1  0
 10 11  1  0
 11 12  1  0
 11 13  2  0
 10 14  2  0
 14 15  1  0
 15 16  2  0
 16 17  1  0
 17 18  2  0
 18 19  1  0
 19 20  1  0
 20 21  1  0
 20 22  1  0
 22 23  2  0
 22 24  1  0
 18 25  1  0
 25 26  2  0
 26  9  1  0
 26 15  1  0
  1 27  1  0
  1 28  1  0
  1 29  1  0
  3 30  1  0
  3 31  1  0
  4 32  1  6
  5 33  1  0
  5 34  1  0
  5 35  1  0
 12 36  1  0
 14 37  1  0
 16 38  1  0
 17 39  1  0
 19 40  1  0
 19 41  1  0
 20 42  1  1
 21 43  1  0
 21 44  1  0
 21 45  1  0
 25 46  1  0
M  CHG  3  12  -1  19   1  24  -1
M  END
>  <UniqueID>  (11) 
11

>  <SMILES>  (11) 
COC[C@@H](C)OC(=O)n1c(C([NH-])=O)cc2ccc([NH2+][C@@H](C)C(=O)[O-])cc21

>  <Energy>  (11) 
82.26310826711811

>  <Genealogy>  (11) 
COCC(C)OC(=O)n1c(C([NH-])=O)cc2ccc([NH2+]C(C)C(=O)[O-])cc21 (protonated)
COC[C@@H](C)OC(=O)n1c(C([NH-])=O)cc2ccc([NH2+][C@@H](C)C(=O)[O-])cc21 (chirality)
COC[C@@H](C)OC(=O)n1c(C([NH-])=O)cc2ccc([NH2+][C@@H](C)C(=O)[O-])cc21 (3D coordinates assigned)
COC[C@@H](C)OC(=O)n1c(C([NH-])=O)cc2ccc([NH2+][C@@H](C)C(=O)[O-])cc21 (optimized conformer: 82.26310826711811 kcal/mol)

>  <smiles>  (11) 
COCC(C)OC(=O)n1c(C(N)=O)cc2ccc(NC(C)C(=O)O)cc21

>  <score_type>  (11) 
oracle

>  <origin>  (11) 
adg

>  <m_score__min__energy>  (11) 
-6.8099999999999996

>  <m_primary>  (11) 
energy

$$$$
11:0
     RDKit          3D

 39 40  0  0  0  0  0  0  0  0999 V2000
  143.0010  153.1850  135.5680 N   0  0  0  0  0  0  0  0  0  0  0  0
  142.0100  154.0410  136.1300 C   0  0  0  0  0  0  0  0  0  0  0  0
  141.6490  153.8580  137.3240 O   0  0  0  0  0  0  0  0  0  0  0  0
  141.4130  155.1470  135.3480 C   0  0  0  0  0  0  0  0  0  0  0  0
  141.2630  156.4410  135.8450 C   0  0  0  0  0  0  0  0  0  0  0  0
  140.6890  157.1620  134.8250 C   0  0  0  0  0  0  0  0  0  0  0  0
  140.2960  158.4980  134.7800 C   0  0  0  0  0  0  0  0  0  0  0  0
  139.6860  158.9660  133.6050 C   0  0  0  0  0  0  0  0  0  0  0  0
  139.4560  158.0930  132.5130 C   0  0  0  0  0  0  0  0  0  0  0  0
  138.8150  158.6110  131.2540 C   0  0  0  0  0  0  0  0  0  0  0  0
  138.6190  160.1280  131.3110 C   0  0  0  0  0  0  0  0  0  0  0  0
  137.2970  160.4710  130.9890 O   0  0  0  0  0  0  0  0  0  0  0  0
  139.8700  156.7450  132.5940 C   0  0  0  0  0  0  0  0  0  0  0  0
  140.5080  156.3140  133.7630 C   0  0  0  0  0  0  0  0  0  0  0  0
  140.9620  155.0770  134.0620 N   0  0  0  0  0  0  0  0  0  0  0  0
  140.9160  153.9260  133.2040 C   0  0  0  0  0  0  0  0  0  0  0  0
  139.8100  153.3720  132.9620 O   0  0  0  0  0  0  0  0  0  0  0  0
  142.1770  153.3590  132.5980 C   0  0  0  0  0  0  0  0  0  0  0  0
  142.6400  152.1420  133.2890 N   0  0  2  0  0  0  0  0  0  0  0  0
  143.9710  151.9800  133.0870 F   0  0  0  0  0  0  0  0  0  0  0  0
  141.9220  150.9380  132.8340 C   0  0  0  0  0  0  0  0  0  0  0  0
  141.0530  150.3920  133.9260 C   0  0  0  0  0  0  0  0  0  0  0  0
  140.3530  149.3640  133.7240 O   0  0  0  0  0  0  0  0  0  0  0  0
  141.0530  150.9910  135.1800 O   0  0  0  0  0  0  0  0  0  0  0  0
  142.8500  152.1540  135.5070 H   0  0  0  0  0  0  0  0  0  0  0  0
  141.5447  156.8077  136.8431 H   0  0  0  0  0  0  0  0  0  0  0  0
  140.4587  159.1658  135.6388 H   0  0  0  0  0  0  0  0  0  0  0  0
  139.3837  160.0211  133.5316 H   0  0  0  0  0  0  0  0  0  0  0  0
  139.4593  158.3652  130.3970 H   0  0  0  0  0  0  0  0  0  0  0  0
  137.8276  158.1379  131.1480 H   0  0  0  0  0  0  0  0  0  0  0  0
  138.8468  160.4834  132.3268 H   0  0  0  0  0  0  0  0  0  0  0  0
  139.2938  160.5989  130.5810 H   0  0  0  0  0  0  0  0  0  0  0  0
  137.1310  161.3720  131.3740 H   0  0  0  0  0  0  0  0  0  0  0  0
  139.6953  156.0508  131.7588 H   0  0  0  0  0  0  0  0  0  0  0  0
  141.9816  153.1129  131.5438 H   0  0  0  0  0  0  0  0  0  0  0  0
  142.9657  154.1193  132.6975 H   0  0  0  0  0  0  0  0  0  0  0  0
  142.4820  152.2670  134.3160 H   0  0  0  0  0  0  0  0  0  0  0  0
  141.2938  151.1980  131.9692 H   0  0  0  0  0  0  0  0  0  0  0  0
  142.6602  150.1718  132.5546 H   0  0  0  0  0  0  0  0  0  0  0  0
  1  2  1  0
  2  3  2  0
  2  4  1  0
  4  5  2  0
  5  6  1  0
  6  7  2  0
  7  8  1  0
  8  9  2  0
  9 10  1  0
 10 11  1  0
 11 12  1  0
  9 13  1  0
 13 14  2  0
 14 15  1  0
 15 16  1  0
 16 17  2  0
 16 18  1  0
 18 19  1  0
 19 20  1  0
 19 21  1  0
 21 22  1  0
 22 23  2  0
 22 24  1  0
 15  4  1  0
 14  6  1  0
  1 25  1  0
  5 26  1  0
  7 27  1  0
  8 28  1  0
 10 29  1  0
 10 30  1  0
 11 31  1  0
 11 32  1  0
 12 33  1  0
 13 34  1  0
 18 35  1  0
 18 36  1  0
 19 37  1  1
 21 38  1  0
 21 39  1  0
M  CHG  3   1  -1  19   1  24  -1
M  END
>  <UniqueID>  (12) 
12

>  <SMILES>  (12) 
[NH-]C(=O)c1cc2ccc(CCO)cc2n1C(=O)C[N@H+](F)CC(=O)[O-]

>  <Energy>  (12) 
75.46901205767094

>  <Genealogy>  (12) 
[NH-]C(=O)c1cc2ccc(CCO)cc2n1C(=O)C[NH+](F)CC(=O)[O-] (protonated)
[NH-]C(=O)c1cc2ccc(CCO)cc2n1C(=O)C[N@H+](F)CC(=O)[O-] (chirality)
[NH-]C(=O)c1cc2ccc(CCO)cc2n1C(=O)C[N@H+](F)CC(=O)[O-] (3D coordinates assigned)
[NH-]C(=O)c1cc2ccc(CCO)cc2n1C(=O)C[N@H+](F)CC(=O)[O-] (optimized conformer: 75.46901205767094 kcal/mol)

>  <smiles>  (12) 
NC(=O)c1cc2ccc(CCO)cc2n1C(=O)CN(F)CC(=O)O

>  <score_type>  (12) 
oracle

>  <origin>  (12) 
adg

>  <m_score__min__energy>  (12) 
-5.75

>  <m_primary>  (12) 
energy

$$$$
12:0
     RDKit          3D

 49 50  0  0  0  0  0  0  0  0999 V2000
  141.5960  160.0700  134.5520 C   0  0  0  0  0  0  0  0  0  0  0  0
  140.5190  159.1500  134.9300 N   0  0  0  0  0  0  0  0  0  0  0  0
  140.1970  158.9760  136.3530 C   0  0  0  0  0  0  0  0  0  0  0  0
  141.4680  158.6870  137.1560 C   0  0  0  0  0  0  0  0  0  0  0  0
  142.2200  157.6930  136.5020 O   0  0  0  0  0  0  0  0  0  0  0  0
  142.0020  156.2230  137.3130 S   0  0  0  0  0  0  0  0  0  0  0  0
  142.2120  156.5040  139.0560 C   0  0  0  0  0  0  0  0  0  0  0  0
  143.0190  155.2120  136.8590 O   0  0  0  0  0  0  0  0  0  0  0  0
  140.6160  155.6930  137.0670 O   0  0  0  0  0  0  0  0  0  0  0  0
  139.9340  158.3150  133.9080 C   0  0  0  0  0  0  0  0  0  0  0  0
  139.1610  158.8280  133.0560 O   0  0  0  0  0  0  0  0  0  0  0  0
  140.1660  156.8260  133.8570 C   0  0  0  0  0  0  0  0  0  0  0  0
  141.5260  156.4600  134.2550 N   0  0  0  0  0  0  0  0  0  0  0  0
  142.6520  156.5260  133.3680 C   0  0  0  0  0  0  0  0  0  0  0  0
  142.5280  157.0570  132.2300 O   0  0  0  0  0  0  0  0  0  0  0  0
  143.9260  155.9860  133.7610 N   0  0  0  0  0  0  0  0  0  0  0  0
  144.2090  154.6890  134.0740 C   0  0  0  0  0  0  0  0  0  0  0  0
  143.2200  153.6070  134.2640 C   0  0  0  0  0  0  0  0  0  0  0  0
  141.9400  153.8750  134.8310 N   0  0  0  0  0  0  0  0  0  0  0  0
  143.5270  152.4220  133.9670 O   0  0  0  0  0  0  0  0  0  0  0  0
  145.5770  154.5160  134.2670 C   0  0  0  0  0  0  0  0  0  0  0  0
  146.1320  155.7580  134.0700 C   0  0  0  0  0  0  0  0  0  0  0  0
  147.4650  156.1540  134.1090 C   0  0  0  0  0  0  0  0  0  0  0  0
  147.7620  157.4970  133.8240 C   0  0  0  0  0  0  0  0  0  0  0  0
  146.7300  158.4180  133.5140 C   0  0  0  0  0  0  0  0  0  0  0  0
  147.0770  159.8440  133.1690 C   0  0  0  0  0  0  0  0  0  0  0  0
  147.0510  160.0250  131.7980 F   0  0  0  0  0  0  0  0  0  0  0  0
  146.1560  160.6920  133.7530 F   0  0  0  0  0  0  0  0  0  0  0  0
  148.3430  160.1730  133.6250 F   0  0  0  0  0  0  0  0  0  0  0  0
  145.3910  157.9680  133.4580 C   0  0  0  0  0  0  0  0  0  0  0  0
  145.1180  156.6290  133.7650 C   0  0  0  0  0  0  0  0  0  0  0  0
  142.0687  160.4738  135.4595 H   0  0  0  0  0  0  0  0  0  0  0  0
  142.3471  159.5304  133.9564 H   0  0  0  0  0  0  0  0  0  0  0  0
  141.1803  160.8962  133.9564 H   0  0  0  0  0  0  0  0  0  0  0  0
  139.7289  159.8957  136.7338 H   0  0  0  0  0  0  0  0  0  0  0  0
  139.5056  158.1273  136.4613 H   0  0  0  0  0  0  0  0  0  0  0  0
  142.0671  159.6059  137.2376 H   0  0  0  0  0  0  0  0  0  0  0  0
  141.1944  158.3373  138.1624 H   0  0  0  0  0  0  0  0  0  0  0  0
  141.6467  155.7476  139.6201 H   0  0  0  0  0  0  0  0  0  0  0  0
  143.2791  156.4315  139.3131 H   0  0  0  0  0  0  0  0  0  0  0  0
  141.8402  157.5068  139.3131 H   0  0  0  0  0  0  0  0  0  0  0  0
  139.4545  156.3340  134.5364 H   0  0  0  0  0  0  0  0  0  0  0  0
  140.0212  156.4991  132.8167 H   0  0  0  0  0  0  0  0  0  0  0  0
  141.6410  155.9630  135.1660 H   0  0  0  0  0  0  0  0  0  0  0  0
  141.8230  154.5970  135.5760 H   0  0  0  0  0  0  0  0  0  0  0  0
  146.1019  153.5838  134.5227 H   0  0  0  0  0  0  0  0  0  0  0  0
  148.2622  155.4373  134.3555 H   0  0  0  0  0  0  0  0  0  0  0  0
  148.8077  157.8380  133.8416 H   0  0  0  0  0  0  0  0  0  0  0  0
  144.5794  158.6560  133.1788 H   0  0  0  0  0  0  0  0  0  0  0  0
  1  2  1  0
  2  3  1  0
  3  4  1  0
  4  5  1  0
  5  6  1  0
  6  7  1  0
  6  8  2  0
  6  9  2  0
  2 10  1  0
 10 11  2  0
 10 12  1  0
 12 13  1  0
 13 14  1  0
 14 15  2  0
 14 16  1  0
 16 17  1  0
 17 18  1  0
 18 19  1  0
 18 20  2  0
 17 21  2  0
 21 22  1  0
 22 23  2  0
 23 24  1  0
 24 25  2  0
 25 26  1  0
 26 27  1  0
 26 28  1  0
 26 29  1  0
 25 30  1  0
 30 31  2  0
 31 16  1  0
 31 22  1  0
  1 32  1  0
  1 33  1  0
  1 34  1  0
  3 35  1  0
  3 36  1  0
  4 37  1  0
  4 38  1  0
  7 39  1  0
  7 40  1  0
  7 41  1  0
 12 42  1  0
 12 43  1  0
 13 44  1  0
 19 45  1  0
 21 46  1  0
 23 47  1  0
 24 48  1  0
 30 49  1  0
M  CHG  1  19  -1
M  END
>  <UniqueID>  (13) 
13

>  <SMILES>  (13) 
CN(CCOS(C)(=O)=O)C(=O)CNC(=O)n1c(C([NH-])=O)cc2ccc(C(F)(F)F)cc21

>  <Energy>  (13) 
76.54501714299172

>  <Genealogy>  (13) 
CN(CCOS(C)(=O)=O)C(=O)CNC(=O)n1c(C([NH-])=O)cc2ccc(C(F)(F)F)cc21 (protonated)
CN(CCOS(C)(=O)=O)C(=O)CNC(=O)n1c(C([NH-])=O)cc2ccc(C(F)(F)F)cc21 (3D coordinates assigned)
CN(CCOS(C)(=O)=O)C(=O)CNC(=O)n1c(C([NH-])=O)cc2ccc(C(F)(F)F)cc21 (optimized conformer: 76.54501714299172 kcal/mol)

>  <smiles>  (13) 
CN(CCOS(C)(=O)=O)C(=O)CNC(=O)n1c(C(N)=O)cc2ccc(C(F)(F)F)cc21

>  <score_type>  (13) 
oracle

>  <origin>  (13) 
adg

>  <m_score__min__energy>  (13) 
-6.7599999999999998

>  <m_primary>  (13) 
energy

$$$$
13:0
     RDKit          3D

 37 38  0  0  0  0  0  0  0  0999 V2000
  139.3470  154.9160  132.9950 C   0  0  0  0  0  0  0  0  0  0  0  0
  139.9350  156.0660  133.3520 C   0  0  0  0  0  0  0  0  0  0  0  0
  139.3050  157.3630  133.0020 C   0  0  0  0  0  0  0  0  0  0  0  0
  138.6870  158.0280  133.8790 O   0  0  0  0  0  0  0  0  0  0  0  0
  139.4020  157.8520  131.6930 O   0  0  0  0  0  0  0  0  0  0  0  0
  138.2940  158.3670  130.9610 C   0  0  0  0  0  0  0  0  0  0  0  0
  138.1910  159.8480  131.1440 C   0  0  0  0  0  0  0  0  0  0  0  0
  137.0740  160.4230  131.0570 O   0  0  0  0  0  0  0  0  0  0  0  0
  139.3350  160.5990  131.3840 O   0  0  0  0  0  0  0  0  0  0  0  0
  141.2140  156.0340  134.1100 C   0  0  0  0  0  0  0  0  0  0  0  0
  142.0500  155.1150  133.8920 O   0  0  0  0  0  0  0  0  0  0  0  0
  141.5230  157.0400  135.0900 N   0  0  0  0  0  0  0  0  0  0  0  0
  141.9090  158.3270  134.8610 C   0  0  0  0  0  0  0  0  0  0  0  0
  142.2020  158.9050  133.5290 C   0  0  0  0  0  0  0  0  0  0  0  0
  141.1610  159.4630  132.7250 N   0  0  0  0  0  0  0  0  0  0  0  0
  143.3850  158.9240  133.0960 O   0  0  0  0  0  0  0  0  0  0  0  0
  142.0600  159.0100  136.0680 C   0  0  0  0  0  0  0  0  0  0  0  0
  141.7430  158.0950  137.0470 C   0  0  0  0  0  0  0  0  0  0  0  0
  141.7310  158.2310  138.4320 C   0  0  0  0  0  0  0  0  0  0  0  0
  141.3580  157.1170  139.2020 C   0  0  0  0  0  0  0  0  0  0  0  0
  140.9810  155.8980  138.5790 C   0  0  0  0  0  0  0  0  0  0  0  0
  140.6300  154.6900  139.4100 C   0  0  0  0  0  0  0  0  0  0  0  0
  140.7830  153.5320  138.6690 F   0  0  0  0  0  0  0  0  0  0  0  0
  141.4670  154.6370  140.5090 F   0  0  0  0  0  0  0  0  0  0  0  0
  139.3170  154.7540  139.8450 F   0  0  0  0  0  0  0  0  0  0  0  0
  141.0250  155.7950  137.1690 C   0  0  0  0  0  0  0  0  0  0  0  0
  141.4170  156.9160  136.4310 C   0  0  0  0  0  0  0  0  0  0  0  0
  139.8150  153.9551  133.2550 H   0  0  0  0  0  0  0  0  0  0  0  0
  138.3963  154.9329  132.4419 H   0  0  0  0  0  0  0  0  0  0  0  0
  138.4295  158.1424  129.8927 H   0  0  0  0  0  0  0  0  0  0  0  0
  137.3715  157.8966  131.3322 H   0  0  0  0  0  0  0  0  0  0  0  0
  140.1600  159.4180  133.0180 H   0  0  0  0  0  0  0  0  0  0  0  0
  141.3870  159.8820  131.7970 H   0  0  0  0  0  0  0  0  0  0  0  0
  142.3670  160.0570  136.2079 H   0  0  0  0  0  0  0  0  0  0  0  0
  142.0056  159.1830  138.9097 H   0  0  0  0  0  0  0  0  0  0  0  0
  141.3579  157.1897  140.2996 H   0  0  0  0  0  0  0  0  0  0  0  0
  140.7570  154.8548  136.6648 H   0  0  0  0  0  0  0  0  0  0  0  0
  1  2  2  0
  2  3  1  0
  3  4  2  0
  3  5  1  0
  5  6  1  0
  6  7  1  0
  7  8  2  0
  7  9  1  0
  2 10  1  0
 10 11  2  0
 10 12  1  0
 12 13  1  0
 13 14  1  0
 14 15  1  0
 14 16  2  0
 13 17  2  0
 17 18  1  0
 18 19  2  0
 19 20  1  0
 20 21  2  0
 21 22  1  0
 22 23  1  0
 22 24  1  0
 22 25  1  0
 21 26  1  0
 26 27  2  0
 27 12  1  0
 27 18  1  0
  1 28  1  0
  1 29  1  0
  6 30  1  0
  6 31  1  0
 15 32  1  0
 15 33  1  0
 17 34  1  0
 19 35  1  0
 20 36  1  0
 26 37  1  0
M  CHG  1   9  -1
M  END
>  <UniqueID>  (14) 
14

>  <SMILES>  (14) 
C=C(C(=O)OCC(=O)[O-])C(=O)n1c(C(N)=O)cc2ccc(C(F)(F)F)cc21

>  <Energy>  (14) 
73.73033499798416

>  <Genealogy>  (14) 
C=C(C(=O)OCC(=O)[O-])C(=O)n1c(C(N)=O)cc2ccc(C(F)(F)F)cc21 (protonated)
C=C(C(=O)OCC(=O)[O-])C(=O)n1c(C(N)=O)cc2ccc(C(F)(F)F)cc21 (3D coordinates assigned)
C=C(C(=O)OCC(=O)[O-])C(=O)n1c(C(N)=O)cc2ccc(C(F)(F)F)cc21 (optimized conformer: 73.73033499798416 kcal/mol)

>  <smiles>  (14) 
C=C(C(=O)OCC(=O)O)C(=O)n1c(C(N)=O)cc2ccc(C(F)(F)F)cc21

>  <score_type>  (14) 
oracle

>  <origin>  (14) 
adg

>  <m_score__min__energy>  (14) 
-6.04

>  <m_primary>  (14) 
energy

$$$$
14:0
     RDKit          3D

 44 46  0  0  0  0  0  0  0  0999 V2000
  147.0720  153.7820  133.8800 C   0  0  0  0  0  0  0  0  0  0  0  0
  146.9860  154.8700  134.6560 C   0  0  0  0  0  0  0  0  0  0  0  0
  147.7000  154.9170  135.9750 C   0  0  0  0  0  0  0  0  0  0  0  0
  147.7290  153.5550  136.5900 C   0  0  0  0  0  0  0  0  0  0  0  0
  148.8050  152.8970  136.6260 O   0  0  0  0  0  0  0  0  0  0  0  0
  146.5650  152.9930  137.0940 O   0  0  0  0  0  0  0  0  0  0  0  0
  146.2530  155.9970  134.2590 O   0  0  0  0  0  0  0  0  0  0  0  0
  146.5250  156.7660  133.1180 C   0  0  0  0  0  0  0  0  0  0  0  0
  146.9120  156.2180  132.0490 O   0  0  0  0  0  0  0  0  0  0  0  0
  146.3260  158.1850  133.1640 N   0  0  0  0  0  0  0  0  0  0  0  0
  147.2490  159.1690  132.9590 C   0  0  0  0  0  0  0  0  0  0  0  0
  148.6570  158.9650  132.5500 C   0  0  0  0  0  0  0  0  0  0  0  0
  148.9500  158.2810  131.3330 N   0  0  0  0  0  0  0  0  0  0  0  0
  149.6050  159.3650  133.2790 O   0  0  0  0  0  0  0  0  0  0  0  0
  146.6640  160.4240  133.1280 C   0  0  0  0  0  0  0  0  0  0  0  0
  145.3460  160.1740  133.4420 C   0  0  0  0  0  0  0  0  0  0  0  0
  144.3100  161.0560  133.7340 C   0  0  0  0  0  0  0  0  0  0  0  0
  143.0570  160.5130  134.0710 C   0  0  0  0  0  0  0  0  0  0  0  0
  142.8670  159.1080  134.1210 C   0  0  0  0  0  0  0  0  0  0  0  0
  141.5990  158.5600  134.5210 N   0  0  0  0  0  0  0  0  0  0  0  0
  140.5570  158.3520  133.5110 C   0  0  0  0  0  0  0  0  0  0  0  0
  139.5040  157.3770  134.0290 C   0  0  0  0  0  0  0  0  0  0  0  0
  139.0230  157.8130  135.2850 O   0  0  0  0  0  0  0  0  0  0  0  0
  140.0470  157.6700  136.2490 C   0  0  0  0  0  0  0  0  0  0  0  0
  141.2450  158.5830  135.9480 C   0  0  0  0  0  0  0  0  0  0  0  0
  143.9390  158.2450  133.8110 C   0  0  0  0  0  0  0  0  0  0  0  0
  145.1700  158.8150  133.4600 C   0  0  0  0  0  0  0  0  0  0  0  0
  146.5467  153.7525  132.9140 H   0  0  0  0  0  0  0  0  0  0  0  0
  147.6680  152.9178  134.2086 H   0  0  0  0  0  0  0  0  0  0  0  0
  148.7307  155.2681  135.8189 H   0  0  0  0  0  0  0  0  0  0  0  0
  147.1690  155.6058  136.6485 H   0  0  0  0  0  0  0  0  0  0  0  0
  148.4520  157.3980  131.0820 H   0  0  0  0  0  0  0  0  0  0  0  0
  147.1516  161.4052  133.0311 H   0  0  0  0  0  0  0  0  0  0  0  0
  144.4662  162.1444  133.7022 H   0  0  0  0  0  0  0  0  0  0  0  0
  142.2159  161.1846  134.2981 H   0  0  0  0  0  0  0  0  0  0  0  0
  140.0777  159.3149  133.2806 H   0  0  0  0  0  0  0  0  0  0  0  0
  141.0168  157.9331  132.6038 H   0  0  0  0  0  0  0  0  0  0  0  0
  138.6686  157.3287  133.3150 H   0  0  0  0  0  0  0  0  0  0  0  0
  139.9558  156.3802  134.1397 H   0  0  0  0  0  0  0  0  0  0  0  0
  139.6426  157.9278  137.2390 H   0  0  0  0  0  0  0  0  0  0  0  0
  140.3968  156.6274  136.2242 H   0  0  0  0  0  0  0  0  0  0  0  0
  140.9894  159.6135  136.2357 H   0  0  0  0  0  0  0  0  0  0  0  0
  142.1088  158.2171  136.5224 H   0  0  0  0  0  0  0  0  0  0  0  0
  143.8118  157.1529  133.8440 H   0  0  0  0  0  0  0  0  0  0  0  0
  1  2  2  0
  2  3  1  0
  3  4  1  0
  4  5  2  0
  4  6  1  0
  2  7  1  0
  7  8  1  0
  8  9  2  0
  8 10  1  0
 10 11  1  0
 11 12  1  0
 12 13  1  0
 12 14  2  0
 11 15  2  0
 15 16  1  0
 16 17  2  0
 17 18  1  0
 18 19  2  0
 19 20  1  0
 20 21  1  0
 21 22  1  0
 22 23  1  0
 23 24  1  0
 24 25  1  0
 19 26  1  0
 26 27  2  0
 27 10  1  0
 27 16  1  0
 25 20  1  0
  1 28  1  0
  1 29  1  0
  3 30  1  0
  3 31  1  0
 13 32  1  0
 15 33  1  0
 17 34  1  0
 18 35  1  0
 21 36  1  0
 21 37  1  0
 22 38  1  0
 22 39  1  0
 24 40  1  0
 24 41  1  0
 25 42  1  0
 25 43  1  0
 26 44  1  0
M  CHG  2   6  -1  13  -1
M  END
>  <UniqueID>  (15) 
15

>  <SMILES>  (15) 
C=C(CC(=O)[O-])OC(=O)n1c(C([NH-])=O)cc2ccc(N3CCOCC3)cc21

>  <Energy>  (15) 
92.37491104956123

>  <Genealogy>  (15) 
C=C(CC(=O)[O-])OC(=O)n1c(C([NH-])=O)cc2ccc(N3CCOCC3)cc21 (protonated)
C=C(CC(=O)[O-])OC(=O)n1c(C([NH-])=O)cc2ccc(N3CCOCC3)cc21 (3D coordinates assigned)
C=C(CC(=O)[O-])OC(=O)n1c(C([NH-])=O)cc2ccc(N3CCOCC3)cc21 (nonaromatic ring conformer: 92.37491104956123 kcal/mol)

>  <smiles>  (15) 
C=C(CC(=O)O)OC(=O)n1c(C(N)=O)cc2ccc(N3CCOCC3)cc21

>  <score_type>  (15) 
oracle

>  <origin>  (15) 
adg

>  <m_score__min__energy>  (15) 
-7.7699999999999996

>  <m_primary>  (15) 
energy

$$$$
15:0
     RDKit          3D

 47 48  0  0  0  0  0  0  0  0999 V2000
  139.8960  155.5110  133.2830 C   0  0  0  0  0  0  0  0  0  0  0  0
  140.9880  156.2860  133.8820 N   0  0  0  0  0  0  0  0  0  0  0  0
  140.6720  157.4700  134.7000 C   0  0  0  0  0  0  0  0  0  0  0  0
  141.6860  157.6480  135.8380 C   0  0  0  0  0  0  0  0  0  0  0  0
  141.4370  156.6640  136.9510 C   0  0  0  0  0  0  0  0  0  0  0  0
  141.2140  157.1270  138.2720 C   0  0  0  0  0  0  0  0  0  0  0  0
  141.0260  156.2160  139.3240 C   0  0  0  0  0  0  0  0  0  0  0  0
  141.0840  154.8580  139.0300 C   0  0  0  0  0  0  0  0  0  0  0  0
  140.9290  153.7670  139.8540 C   0  0  0  0  0  0  0  0  0  0  0  0
  141.0930  152.6540  139.0320 C   0  0  0  0  0  0  0  0  0  0  0  0
  141.0930  151.2650  139.5350 C   0  0  0  0  0  0  0  0  0  0  0  0
  140.4910  150.9660  140.7930 N   0  0  0  0  0  0  0  0  0  0  0  0
  141.6490  150.3410  138.8840 O   0  0  0  0  0  0  0  0  0  0  0  0
  141.3340  153.0420  137.7460 N   0  0  0  0  0  0  0  0  0  0  0  0
  141.5090  152.2090  136.5890 C   0  0  0  0  0  0  0  0  0  0  0  0
  140.7750  151.2010  136.4120 O   0  0  0  0  0  0  0  0  0  0  0  0
  142.4750  152.5200  135.6400 O   0  0  0  0  0  0  0  0  0  0  0  0
  141.3250  154.3930  137.7630 C   0  0  0  0  0  0  0  0  0  0  0  0
  141.4910  155.2770  136.6910 C   0  0  0  0  0  0  0  0  0  0  0  0
  142.3500  155.8860  133.5980 C   0  0  0  0  0  0  0  0  0  0  0  0
  143.1230  156.7140  133.0360 O   0  0  0  0  0  0  0  0  0  0  0  0
  142.8120  154.5340  133.8570 N   0  0  2  0  0  0  0  0  0  0  0  0
  144.1400  154.5130  134.5010 C   0  0  0  0  0  0  0  0  0  0  0  0
  142.7550  153.6860  132.6410 C   0  0  0  0  0  0  0  0  0  0  0  0
  141.7960  152.4780  132.7210 C   0  0  0  0  0  0  0  0  0  0  0  0
  140.8060  152.6680  133.6960 O   0  0  0  0  0  0  0  0  0  0  0  0
  139.2777  155.0722  134.0800 H   0  0  0  0  0  0  0  0  0  0  0  0
  139.2759  156.1723  132.6599 H   0  0  0  0  0  0  0  0  0  0  0  0
  140.3155  154.7074  132.6599 H   0  0  0  0  0  0  0  0  0  0  0  0
  140.6918  158.3639  134.0593 H   0  0  0  0  0  0  0  0  0  0  0  0
  139.6746  157.3304  135.1423 H   0  0  0  0  0  0  0  0  0  0  0  0
  142.7003  157.4920  135.4419 H   0  0  0  0  0  0  0  0  0  0  0  0
  141.5788  158.6651  136.2430 H   0  0  0  0  0  0  0  0  0  0  0  0
  141.1880  158.2079  138.4746 H   0  0  0  0  0  0  0  0  0  0  0  0
  140.8385  156.5660  140.3498 H   0  0  0  0  0  0  0  0  0  0  0  0
  140.7198  153.7724  140.9339 H   0  0  0  0  0  0  0  0  0  0  0  0
  139.4730  150.7400  140.8600 H   0  0  0  0  0  0  0  0  0  0  0  0
  141.6594  154.9008  135.6711 H   0  0  0  0  0  0  0  0  0  0  0  0
  142.1730  154.0940  134.5560 H   0  0  0  0  0  0  0  0  0  0  0  0
  144.0175  154.5149  135.5942 H   0  0  0  0  0  0  0  0  0  0  0  0
  144.6819  153.6062  134.1944 H   0  0  0  0  0  0  0  0  0  0  0  0
  144.7103  155.4022  134.1944 H   0  0  0  0  0  0  0  0  0  0  0  0
  142.4344  154.3190  131.8004 H   0  0  0  0  0  0  0  0  0  0  0  0
  143.7637  153.2650  132.5172 H   0  0  0  0  0  0  0  0  0  0  0  0
  141.3119  152.3412  131.7428 H   0  0  0  0  0  0  0  0  0  0  0  0
  142.3838  151.5899  132.9963 H   0  0  0  0  0  0  0  0  0  0  0  0
  141.0480  152.0870  134.4640 H   0  0  0  0  0  0  0  0  0  0  0  0
  1  2  1  0
  2  3  1  0
  3  4  1  0
  4  5  1  0
  5  6  2  0
  6  7  1  0
  7  8  2  0
  8  9  1  0
  9 10  2  0
 10 11  1  0
 11 12  1  0
 11 13  2  0
 10 14  1  0
 14 15  1  0
 15 16  2  0
 15 17  1  0
 14 18  1  0
 18 19  2  0
  2 20  1  0
 20 21  2  0
 20 22  1  0
 22 23  1  0
 22 24  1  0
 24 25  1  0
 25 26  1  0
 19  5  1  0
 18  8  1  0
  1 27  1  0
  1 28  1  0
  1 29  1  0
  3 30  1  0
  3 31  1  0
  4 32  1  0
  4 33  1  0
  6 34  1  0
  7 35  1  0
  9 36  1  0
 12 37  1  0
 19 38  1  0
 22 39  1  1
 23 40  1  0
 23 41  1  0
 23 42  1  0
 24 43  1  0
 24 44  1  0
 25 45  1  0
 25 46  1  0
 26 47  1  0
M  CHG  3  12  -1  17  -1  22   1
M  END
>  <UniqueID>  (16) 
16

>  <SMILES>  (16) 
CN(CCc1ccc2cc(C([NH-])=O)n(C(=O)[O-])c2c1)C(=O)[N@H+](C)CCO

>  <Energy>  (16) 
85.85740954109446

>  <Genealogy>  (16) 
CN(CCc1ccc2cc(C([NH-])=O)n(C(=O)[O-])c2c1)C(=O)[NH+](C)CCO (protonated)
CN(CCc1ccc2cc(C([NH-])=O)n(C(=O)[O-])c2c1)C(=O)[N@H+](C)CCO (chirality)
CN(CCc1ccc2cc(C([NH-])=O)n(C(=O)[O-])c2c1)C(=O)[N@H+](C)CCO (3D coordinates assigned)
CN(CCc1ccc2cc(C([NH-])=O)n(C(=O)[O-])c2c1)C(=O)[N@H+](C)CCO (optimized conformer: 85.85740954109446 kcal/mol)

>  <smiles>  (16) 
CN(CCO)C(=O)N(C)CCc1ccc2cc(C(N)=O)n(C(=O)O)c2c1

>  <score_type>  (16) 
oracle

>  <origin>  (16) 
adg

>  <m_score__min__energy>  (16) 
-4.9699999999999998

>  <m_primary>  (16) 
energy

$$$$
16:0
     RDKit          3D

 43 44  0  0  0  0  0  0  0  0999 V2000
  148.1350  155.0700  132.9650 C   0  0  0  0  0  0  0  0  0  0  0  0
  147.7380  156.5120  133.0730 C   0  0  0  0  0  0  0  0  0  0  0  0
  148.6990  157.5290  132.8530 C   0  0  0  0  0  0  0  0  0  0  0  0
  148.3350  158.8850  132.9260 C   0  0  0  0  0  0  0  0  0  0  0  0
  147.0040  159.1880  133.1980 C   0  0  0  0  0  0  0  0  0  0  0  0
  146.3880  160.4090  133.3480 C   0  0  0  0  0  0  0  0  0  0  0  0
  145.0510  160.1190  133.6190 C   0  0  0  0  0  0  0  0  0  0  0  0
  144.0130  161.1570  133.7980 C   0  0  0  0  0  0  0  0  0  0  0  0
  142.6460  160.8060  134.0030 N   0  0  0  0  0  0  0  0  0  0  0  0
  144.3330  162.3750  133.7470 O   0  0  0  0  0  0  0  0  0  0  0  0
  144.8500  158.7710  133.6280 N   0  0  0  0  0  0  0  0  0  0  0  0
  143.6240  158.0760  133.9100 C   0  0  0  0  0  0  0  0  0  0  0  0
  143.2310  157.9750  135.1040 O   0  0  0  0  0  0  0  0  0  0  0  0
  142.8120  157.4270  132.8210 C   0  0  0  0  0  0  0  0  0  0  0  0
  141.4790  158.1050  132.6190 C   0  0  0  0  0  0  0  0  0  0  0  0
  141.0470  158.2260  131.4810 O   0  0  0  0  0  0  0  0  0  0  0  0
  140.7320  158.6150  133.7540 N   0  0  1  0  0  0  0  0  0  0  0  0
  139.7990  159.6850  133.3570 C   0  0  0  0  0  0  0  0  0  0  0  0
  140.0860  157.5250  134.5270 C   0  0  0  0  0  0  0  0  0  0  0  0
  139.6160  157.9020  135.9520 C   0  0  0  0  0  0  0  0  0  0  0  0
  140.5760  158.8100  136.6610 C   0  0  0  0  0  0  0  0  0  0  0  0
  141.0640  158.4760  137.7730 O   0  0  0  0  0  0  0  0  0  0  0  0
  140.9030  160.0440  136.1130 O   0  0  0  0  0  0  0  0  0  0  0  0
  146.0550  158.2150  133.3790 C   0  0  0  0  0  0  0  0  0  0  0  0
  146.3940  156.8590  133.3350 C   0  0  0  0  0  0  0  0  0  0  0  0
  148.2519  154.6454  133.9730 H   0  0  0  0  0  0  0  0  0  0  0  0
  147.3562  154.5150  132.4214 H   0  0  0  0  0  0  0  0  0  0  0  0
  149.0881  154.9918  132.4214 H   0  0  0  0  0  0  0  0  0  0  0  0
  149.7393  157.2555  132.6230 H   0  0  0  0  0  0  0  0  0  0  0  0
  149.0784  159.6812  132.7730 H   0  0  0  0  0  0  0  0  0  0  0  0
  146.8518  161.4034  133.2706 H   0  0  0  0  0  0  0  0  0  0  0  0
  142.3870  159.9410  134.5250 H   0  0  0  0  0  0  0  0  0  0  0  0
  143.3796  157.4753  131.8800 H   0  0  0  0  0  0  0  0  0  0  0  0
  142.6183  156.3864  133.1204 H   0  0  0  0  0  0  0  0  0  0  0  0
  141.4190  159.0610  134.4080 H   0  0  0  0  0  0  0  0  0  0  0  0
  139.3834  160.1617  134.2570 H   0  0  0  0  0  0  0  0  0  0  0  0
  140.3356  160.4362  132.7589 H   0  0  0  0  0  0  0  0  0  0  0  0
  138.9818  159.2556  132.7589 H   0  0  0  0  0  0  0  0  0  0  0  0
  139.2072  157.1835  133.9603 H   0  0  0  0  0  0  0  0  0  0  0  0
  140.8580  156.7528  134.6599 H   0  0  0  0  0  0  0  0  0  0  0  0
  138.6426  158.4089  135.8781 H   0  0  0  0  0  0  0  0  0  0  0  0
  139.5492  156.9716  136.5350 H   0  0  0  0  0  0  0  0  0  0  0  0
  145.6331  156.0820  133.5003 H   0  0  0  0  0  0  0  0  0  0  0  0
  1  2  1  0
  2  3  2  0
  3  4  1  0
  4  5  2  0
  5  6  1  0
  6  7  2  0
  7  8  1  0
  8  9  1  0
  8 10  2  0
  7 11  1  0
 11 12  1  0
 12 13  2  0
 12 14  1  0
 14 15  1  0
 15 16  2  0
 15 17  1  0
 17 18  1  0
 17 19  1  0
 19 20  1  0
 20 21  1  0
 21 22  2  0
 21 23  1  0
 11 24  1  0
 24 25  2  0
 25  2  1  0
 24  5  1  0
  1 26  1  0
  1 27  1  0
  1 28  1  0
  3 29  1  0
  4 30  1  0
  6 31  1  0
  9 32  1  0
 14 33  1  0
 14 34  1  0
 17 35  1  1
 18 36  1  0
 18 37  1  0
 18 38  1  0
 19 39  1  0
 19 40  1  0
 20 41  1  0
 20 42  1  0
 25 43  1  0
M  CHG  3   9  -1  17   1  23  -1
M  END
>  <UniqueID>  (17) 
17

>  <SMILES>  (17) 
Cc1ccc2cc(C([NH-])=O)n(C(=O)CC(=O)[N@@H+](C)CCC(=O)[O-])c2c1

>  <Energy>  (17) 
83.40840836462623

>  <Genealogy>  (17) 
Cc1ccc2cc(C([NH-])=O)n(C(=O)CC(=O)[NH+](C)CCC(=O)[O-])c2c1 (protonated)
Cc1ccc2cc(C([NH-])=O)n(C(=O)CC(=O)[N@@H+](C)CCC(=O)[O-])c2c1 (chirality)
Cc1ccc2cc(C([NH-])=O)n(C(=O)CC(=O)[N@@H+](C)CCC(=O)[O-])c2c1 (3D coordinates assigned)
Cc1ccc2cc(C([NH-])=O)n(C(=O)CC(=O)[N@@H+](C)CCC(=O)[O-])c2c1 (optimized conformer: 83.40840836462623 kcal/mol)

>  <smiles>  (17) 
Cc1ccc2cc(C(N)=O)n(C(=O)CC(=O)N(C)CCC(=O)O)c2c1

>  <score_type>  (17) 
oracle

>  <origin>  (17) 
adg

>  <m_score__min__energy>  (17) 
-6.0700000000000003

>  <m_primary>  (17) 
energy

$$$$
17:0
     RDKit          3D

 58 59  0  0  0  0  0  0  0  0999 V2000
  141.4010  148.8690  132.1050 C   0  0  0  0  0  0  0  0  0  0  0  0
  140.8060  150.2090  132.1890 N   0  0  0  0  0  0  0  0  0  0  0  0
  139.3890  150.4210  131.8720 C   0  0  0  0  0  0  0  0  0  0  0  0
  141.6100  151.3270  132.6060 C   0  0  0  0  0  0  0  0  0  0  0  0
  142.8090  151.1480  132.9610 O   0  0  0  0  0  0  0  0  0  0  0  0
  141.0610  152.6140  132.6110 O   0  0  0  0  0  0  0  0  0  0  0  0
  141.3050  153.5450  133.6580 C   0  0  0  0  0  0  0  0  0  0  0  0
  141.2020  154.8670  133.1430 O   0  0  0  0  0  0  0  0  0  0  0  0
  140.1870  155.7470  133.5330 C   0  0  0  0  0  0  0  0  0  0  0  0
  139.0540  155.6880  132.9750 O   0  0  0  0  0  0  0  0  0  0  0  0
  140.4380  156.7200  134.5640 N   0  0  0  0  0  0  0  0  0  0  0  0
  141.5570  156.5030  135.4890 C   0  0  0  0  0  0  0  0  0  0  0  0
  139.6290  157.9450  134.6700 C   0  0  0  0  0  0  0  0  0  0  0  0
  139.6540  158.7610  133.3680 C   0  0  0  0  0  0  0  0  0  0  0  0
  141.0680  158.9020  132.7640 C   0  0  0  0  0  0  0  0  0  0  0  0
  141.8260  160.1010  133.3600 C   0  0  0  0  0  0  0  0  0  0  0  0
  142.8800  159.7180  134.3680 C   0  0  0  0  0  0  0  0  0  0  0  0
  142.5320  159.5180  135.5610 O   0  0  0  0  0  0  0  0  0  0  0  0
  144.2660  159.6000  134.0160 N   0  0  0  0  0  0  0  0  0  0  0  0
  145.2040  160.5850  133.9380 C   0  0  0  0  0  0  0  0  0  0  0  0
  144.9610  162.0300  134.1300 C   0  0  0  0  0  0  0  0  0  0  0  0
  145.8850  162.8400  134.8540 N   0  0  0  0  0  0  0  0  0  0  0  0
  143.9110  162.5540  133.6660 O   0  0  0  0  0  0  0  0  0  0  0  0
  146.4390  160.0490  133.5780 C   0  0  0  0  0  0  0  0  0  0  0  0
  146.2180  158.6960  133.4160 C   0  0  0  0  0  0  0  0  0  0  0  0
  147.0880  157.6850  133.0270 C   0  0  0  0  0  0  0  0  0  0  0  0
  146.5700  156.3830  132.9040 C   0  0  0  0  0  0  0  0  0  0  0  0
  145.2020  156.1190  133.1710 C   0  0  0  0  0  0  0  0  0  0  0  0
  144.6620  154.7310  132.9810 C   0  0  0  0  0  0  0  0  0  0  0  0
  143.7030  154.7370  131.9820 F   0  0  0  0  0  0  0  0  0  0  0  0
  144.0880  154.2910  134.1600 F   0  0  0  0  0  0  0  0  0  0  0  0
  144.3510  157.1710  133.5730 C   0  0  0  0  0  0  0  0  0  0  0  0
  144.8950  158.4550  133.6810 C   0  0  0  0  0  0  0  0  0  0  0  0
  141.5736  148.4802  133.1194 H   0  0  0  0  0  0  0  0  0  0  0  0
  140.7167  148.1971  131.5663 H   0  0  0  0  0  0  0  0  0  0  0  0
  142.3584  148.9260  131.5663 H   0  0  0  0  0  0  0  0  0  0  0  0
  138.8134  150.5071  132.8054 H   0  0  0  0  0  0  0  0  0  0  0  0
  139.2786  151.3457  131.2865 H   0  0  0  0  0  0  0  0  0  0  0  0
  139.0128  149.5691  131.2865 H   0  0  0  0  0  0  0  0  0  0  0  0
  140.5625  153.4027  134.4570 H   0  0  0  0  0  0  0  0  0  0  0  0
  142.3139  153.3854  134.0662 H   0  0  0  0  0  0  0  0  0  0  0  0
  141.1950  156.5732  136.5253 H   0  0  0  0  0  0  0  0  0  0  0  0
  141.9863  155.5049  135.3174 H   0  0  0  0  0  0  0  0  0  0  0  0
  142.3283  157.2683  135.3174 H   0  0  0  0  0  0  0  0  0  0  0  0
  138.5890  157.6663  134.8954 H   0  0  0  0  0  0  0  0  0  0  0  0
  140.0546  158.5671  135.4712 H   0  0  0  0  0  0  0  0  0  0  0  0
  139.0073  158.2626  132.6308 H   0  0  0  0  0  0  0  0  0  0  0  0
  139.3004  159.7739  133.6109 H   0  0  0  0  0  0  0  0  0  0  0  0
  141.6365  157.9831  132.9699 H   0  0  0  0  0  0  0  0  0  0  0  0
  140.9629  159.0672  131.6816 H   0  0  0  0  0  0  0  0  0  0  0  0
  142.3143  160.6452  132.5382 H   0  0  0  0  0  0  0  0  0  0  0  0
  141.0843  160.7153  133.8915 H   0  0  0  0  0  0  0  0  0  0  0  0
  146.9150  162.6990  134.7550 H   0  0  0  0  0  0  0  0  0  0  0  0
  147.3885  160.5894  133.4501 H   0  0  0  0  0  0  0  0  0  0  0  0
  148.1479  157.8960  132.8218 H   0  0  0  0  0  0  0  0  0  0  0  0
  147.2330  155.5605  132.5974 H   0  0  0  0  0  0  0  0  0  0  0  0
  145.4852  154.0588  132.6975 H   0  0  0  0  0  0  0  0  0  0  0  0
  143.2896  156.9862  133.7951 H   0  0  0  0  0  0  0  0  0  0  0  0
  1  2  1  0
  2  3  1  0
  2  4  1  0
  4  5  2  0
  4  6  1  0
  6  7  1  0
  7  8  1  0
  8  9  1  0
  9 10  2  0
  9 11  1  0
 11 12  1  0
 11 13  1  0
 13 14  1  0
 14 15  1  0
 15 16  1  0
 16 17  1  0
 17 18  2  0
 17 19  1  0
 19 20  1  0
 20 21  1  0
 21 22  1  0
 21 23  2  0
 20 24  2  0
 24 25  1  0
 25 26  2  0
 26 27  1  0
 27 28  2  0
 28 29  1  0
 29 30  1  0
 29 31  1  0
 28 32  1  0
 32 33  2  0
 33 19  1  0
 33 25  1  0
  1 34  1  0
  1 35  1  0
  1 36  1  0
  3 37  1  0
  3 38  1  0
  3 39  1  0
  7 40  1  0
  7 41  1  0
 12 42  1  0
 12 43  1  0
 12 44  1  0
 13 45  1  0
 13 46  1  0
 14 47  1  0
 14 48  1  0
 15 49  1  0
 15 50  1  0
 16 51  1  0
 16 52  1  0
 22 53  1  0
 24 54  1  0
 26 55  1  0
 27 56  1  0
 29 57  1  0
 32 58  1  0
M  CHG  1  22  -1
M  END
>  <UniqueID>  (18) 
18

>  <SMILES>  (18) 
CN(C)C(=O)OCOC(=O)N(C)CCCCC(=O)n1c(C([NH-])=O)cc2ccc(C(F)F)cc21

>  <Energy>  (18) 
82.24704165717574

>  <Genealogy>  (18) 
CN(C)C(=O)OCOC(=O)N(C)CCCCC(=O)n1c(C([NH-])=O)cc2ccc(C(F)F)cc21 (protonated)
CN(C)C(=O)OCOC(=O)N(C)CCCCC(=O)n1c(C([NH-])=O)cc2ccc(C(F)F)cc21 (3D coordinates assigned)
CN(C)C(=O)OCOC(=O)N(C)CCCCC(=O)n1c(C([NH-])=O)cc2ccc(C(F)F)cc21 (optimized conformer: 82.24704165717574 kcal/mol)

>  <smiles>  (18) 
CN(C)C(=O)OCOC(=O)N(C)CCCCC(=O)n1c(C(N)=O)cc2ccc(C(F)F)cc21

>  <score_type>  (18) 
oracle

>  <origin>  (18) 
adg

>  <m_score__min__energy>  (18) 
-6.8899999999999997

>  <m_primary>  (18) 
energy

$$$$
18:0
     RDKit          3D

 40 41  0  0  0  0  0  0  0  0999 V2000
  147.0620  161.5840  134.4320 H   0  0  0  0  0  0  0  0  0  0  0  0
  146.1180  162.0110  134.3070 N   0  0  0  0  0  0  0  0  0  0  0  0
  145.0100  161.2270  133.8720 C   0  0  0  0  0  0  0  0  0  0  0  0
  143.8820  161.7740  133.7390 O   0  0  0  0  0  0  0  0  0  0  0  0
  145.1550  159.7770  133.6270 C   0  0  0  0  0  0  0  0  0  0  0  0
  144.0920  158.8770  133.6880 C   0  0  0  0  0  0  0  0  0  0  0  0
  143.0302  159.1092  133.8575 H   0  0  0  0  0  0  0  0  0  0  0  0
  144.6540  157.6360  133.4910 C   0  0  0  0  0  0  0  0  0  0  0  0
  144.0590  156.3790  133.4450 C   0  0  0  0  0  0  0  0  0  0  0  0
  142.9761  156.2586  133.5958 H   0  0  0  0  0  0  0  0  0  0  0  0
  144.8840  155.2680  133.2000 C   0  0  0  0  0  0  0  0  0  0  0  0
  144.4429  154.2610  133.1635 H   0  0  0  0  0  0  0  0  0  0  0  0
  146.2800  155.4300  132.9990 C   0  0  0  0  0  0  0  0  0  0  0  0
  147.1180  154.2860  132.7290 N   0  0  0  0  0  0  0  0  0  0  0  0
  146.8080  153.7870  131.8650 H   0  0  0  0  0  0  0  0  0  0  0  0
  147.0120  153.6060  133.5180 H   0  0  0  0  0  0  0  0  0  0  0  0
  148.5420  154.6580  132.6290 C   0  0  0  0  0  0  0  0  0  0  0  0
  148.6436  155.4375  131.8595 H   0  0  0  0  0  0  0  0  0  0  0  0
  148.8527  155.0065  133.6250 H   0  0  0  0  0  0  0  0  0  0  0  0
  149.4690  153.4810  132.2550 C   0  0  0  0  0  0  0  0  0  0  0  0
  149.4886  153.3881  131.1591 H   0  0  0  0  0  0  0  0  0  0  0  0
  150.4613  153.7058  132.6730 H   0  0  0  0  0  0  0  0  0  0  0  0
  149.0240  152.1380  132.8480 C   0  0  0  0  0  0  0  0  0  0  0  0
  149.6586  151.3358  132.4433 H   0  0  0  0  0  0  0  0  0  0  0  0
  149.1212  152.1834  133.9428 H   0  0  0  0  0  0  0  0  0  0  0  0
  147.6870  151.8760  132.5230 O   0  0  0  0  0  0  0  0  0  0  0  0
  147.3280  151.3170  133.2610 H   0  0  0  0  0  0  0  0  0  0  0  0
  146.8460  156.7260  133.0580 C   0  0  0  0  0  0  0  0  0  0  0  0
  147.9249  156.8768  132.9053 H   0  0  0  0  0  0  0  0  0  0  0  0
  146.0010  157.8100  133.3150 C   0  0  0  0  0  0  0  0  0  0  0  0
  146.3240  159.1180  133.3910 N   0  0  0  0  0  0  0  0  0  0  0  0
  147.6290  159.6770  133.1760 C   0  0  0  0  0  0  0  0  0  0  0  0
  148.4510  159.7200  134.1320 O   0  0  0  0  0  0  0  0  0  0  0  0
  148.0200  160.1480  131.8320 C   0  0  0  0  0  0  0  0  0  0  0  0
  147.2362  160.4965  131.1434 H   0  0  0  0  0  0  0  0  0  0  0  0
  149.2930  160.1660  131.4220 C   0  0  0  0  0  0  0  0  0  0  0  0
  150.0770  159.8171  132.1102 H   0  0  0  0  0  0  0  0  0  0  0  0
  149.6820  160.6360  130.0830 C   0  0  0  0  0  0  0  0  0  0  0  0
  149.5960  161.8540  129.7700 O   0  0  0  0  0  0  0  0  0  0  0  0
  150.1490  159.7230  129.1470 O   0  0  0  0  0  0  0  0  0  0  0  0
  1  2  1  0
  2  3  1  0
  3  4  2  0
  3  5  1  0
  5  6  2  0
  6  7  1  0
  6  8  1  0
  8  9  2  0
  9 10  1  0
  9 11  1  0
 11 12  1  0
 11 13  2  0
 13 14  1  0
 14 15  1  0
 14 16  1  0
 14 17  1  0
 17 18  1  0
 17 19  1  0
 17 20  1  0
 20 21  1  0
 20 22  1  0
 20 23  1  0
 23 24  1  0
 23 25  1  0
 23 26  1  0
 26 27  1  0
 13 28  1  0
 28 29  1  0
 28 30  2  0
 30 31  1  0
 31 32  1  0
 32 33  2  0
 32 34  1  0
 34 35  1  0
 34 36  2  0
 36 37  1  0
 36 38  1  0
 38 39  2  0
 38 40  1  0
 31  5  1  0
 30  8  1  0
M  CHG  3   2  -1  14   1  40  -1
M  END
>  <UniqueID>  (19) 
19

>  <SMILES>  (19) 
[NH-]C(=O)c1cc2ccc([NH2+]CCCO)cc2n1C(=O)/C=C/C(=O)[O-]

>  <Energy>  (19) 
77.42349468695294

>  <Genealogy>  (19) 
[NH-]C(=O)c1cc2ccc([NH2+]CCCO)cc2n1C(=O)C=CC(=O)[O-] (protonated)
[NH-]C(=O)c1cc2ccc([NH2+]CCCO)cc2n1C(=O)/C=C/C(=O)[O-] (cis-trans isomerization)
[NH-]C(=O)c1cc2ccc([NH2+]CCCO)cc2n1C(=O)/C=C/C(=O)[O-] (3D coordinates assigned)
[NH-]C(=O)c1cc2ccc([NH2+]CCCO)cc2n1C(=O)/C=C/C(=O)[O-] (optimized conformer: 77.42349468695294 kcal/mol)

>  <smiles>  (19) 
NC(=O)c1cc2ccc(NCCCO)cc2n1C(=O)C=CC(=O)O

>  <score_type>  (19) 
oracle

>  <origin>  (19) 
adg

>  <m_score__min__energy>  (19) 
-7.2000000000000002

>  <m_primary>  (19) 
energy

$$$$
19:0
     RDKit          3D

 47 49  0  0  0  0  0  0  0  0999 V2000
  148.5390  157.0920  133.6030 N   0  0  0  0  0  0  0  0  0  0  0  0
  147.9680  158.3810  133.3730 C   0  0  0  0  0  0  0  0  0  0  0  0
  148.7290  159.3420  133.0790 O   0  0  0  0  0  0  0  0  0  0  0  0
  146.5090  158.6010  133.4940 C   0  0  0  0  0  0  0  0  0  0  0  0
  145.9090  159.8560  133.6000 C   0  0  0  0  0  0  0  0  0  0  0  0
  144.5560  159.6120  133.6330 C   0  0  0  0  0  0  0  0  0  0  0  0
  143.4900  160.4990  133.7620 C   0  0  0  0  0  0  0  0  0  0  0  0
  142.1930  159.9660  133.8150 C   0  0  0  0  0  0  0  0  0  0  0  0
  141.9850  158.5660  133.7410 C   0  0  0  0  0  0  0  0  0  0  0  0
  140.5970  157.9970  133.8570 C   0  0  0  0  0  0  0  0  0  0  0  0
  139.5270  158.9090  133.2320 C   0  0  0  0  0  0  0  0  0  0  0  0
  139.1450  158.5040  131.7810 C   0  0  0  0  0  0  0  0  0  0  0  0
  137.6520  158.7040  131.5140 C   0  0  0  0  0  0  0  0  0  0  0  0
  137.5160  160.1240  131.0030 C   0  0  0  0  0  0  0  0  0  0  0  0
  138.8170  160.4280  130.2720 C   0  0  0  0  0  0  0  0  0  0  0  0
  139.8360  159.3840  130.7270 C   0  0  0  0  0  0  0  0  0  0  0  0
  143.0900  157.6980  133.6110 C   0  0  0  0  0  0  0  0  0  0  0  0
  144.3700  158.2570  133.5450 C   0  0  0  0  0  0  0  0  0  0  0  0
  145.5600  157.6230  133.4550 N   0  0  0  0  0  0  0  0  0  0  0  0
  145.7820  156.2030  133.4250 C   0  0  0  0  0  0  0  0  0  0  0  0
  146.0390  155.6390  132.3270 O   0  0  0  0  0  0  0  0  0  0  0  0
  145.5940  155.3720  134.6620 C   0  0  0  0  0  0  0  0  0  0  0  0
  147.1730  154.6690  135.2420 P   0  0  0  0  0  0  0  0  0  0  0  0
  147.9460  154.0870  134.0800 O   0  0  0  0  0  0  0  0  0  0  0  0
  148.0900  155.8900  135.9680 O   0  0  0  0  0  0  0  0  0  0  0  0
  146.8690  153.4520  136.3770 O   0  0  0  0  0  0  0  0  0  0  0  0
  147.9420  156.2550  133.7840 H   0  0  0  0  0  0  0  0  0  0  0  0
  149.5730  156.9610  133.5490 H   0  0  0  0  0  0  0  0  0  0  0  0
  146.4115  160.8334  133.6472 H   0  0  0  0  0  0  0  0  0  0  0  0
  143.6596  161.5843  133.8205 H   0  0  0  0  0  0  0  0  0  0  0  0
  141.3300  160.6408  133.9149 H   0  0  0  0  0  0  0  0  0  0  0  0
  140.5719  157.0235  133.3455 H   0  0  0  0  0  0  0  0  0  0  0  0
  140.3662  157.9000  134.9281 H   0  0  0  0  0  0  0  0  0  0  0  0
  138.6225  158.8646  133.8564 H   0  0  0  0  0  0  0  0  0  0  0  0
  139.9500  159.9234  133.1863 H   0  0  0  0  0  0  0  0  0  0  0  0
  139.4517  157.4507  131.7008 H   0  0  0  0  0  0  0  0  0  0  0  0
  137.2979  157.9882  130.7576 H   0  0  0  0  0  0  0  0  0  0  0  0
  137.0507  158.5382  132.4201 H   0  0  0  0  0  0  0  0  0  0  0  0
  136.6620  160.2031  130.3142 H   0  0  0  0  0  0  0  0  0  0  0  0
  137.3371  160.8343  131.8236 H   0  0  0  0  0  0  0  0  0  0  0  0
  138.6649  160.3595  129.1847 H   0  0  0  0  0  0  0  0  0  0  0  0
  139.1677  161.4456  130.4989 H   0  0  0  0  0  0  0  0  0  0  0  0
  140.1531  158.7691  129.8718 H   0  0  0  0  0  0  0  0  0  0  0  0
  140.7299  159.8680  131.1475 H   0  0  0  0  0  0  0  0  0  0  0  0
  142.9479  156.6083  133.5627 H   0  0  0  0  0  0  0  0  0  0  0  0
  145.1712  156.0045  135.4565 H   0  0  0  0  0  0  0  0  0  0  0  0
  144.9151  154.5412  134.4194 H   0  0  0  0  0  0  0  0  0  0  0  0
  1  2  1  0
  2  3  2  0
  2  4  1  0
  4  5  2  0
  5  6  1  0
  6  7  2  0
  7  8  1  0
  8  9  2  0
  9 10  1  0
 10 11  1  0
 11 12  1  0
 12 13  1  0
 13 14  1  0
 14 15  1  0
 15 16  1  0
  9 17  1  0
 17 18  2  0
 18 19  1  0
 19 20  1  0
 20 21  2  0
 20 22  1  0
 22 23  1  0
 23 24  2  0
 23 25  1  0
 23 26  1  0
 19  4  1  0
 18  6  1  0
 16 12  1  0
  1 27  1  0
  1 28  1  0
  5 29  1  0
  7 30  1  0
  8 31  1  0
 10 32  1  0
 10 33  1  0
 11 34  1  0
 11 35  1  0
 12 36  1  0
 13 37  1  0
 13 38  1  0
 14 39  1  0
 14 40  1  0
 15 41  1  0
 15 42  1  0
 16 43  1  0
 16 44  1  0
 17 45  1  0
 22 46  1  0
 22 47  1  0
M  CHG  2  25  -1  26  -1
M  END
>  <UniqueID>  (20) 
20

>  <SMILES>  (20) 
NC(=O)c1cc2ccc(CCC3CCCC3)cc2n1C(=O)CP(=O)([O-])[O-]

>  <Energy>  (20) 
81.22917491213775

>  <Genealogy>  (20) 
NC(=O)c1cc2ccc(CCC3CCCC3)cc2n1C(=O)CP(=O)([O-])[O-] (protonated)
NC(=O)c1cc2ccc(CCC3CCCC3)cc2n1C(=O)CP(=O)([O-])[O-] (3D coordinates assigned)
NC(=O)c1cc2ccc(CCC3CCCC3)cc2n1C(=O)CP(=O)([O-])[O-] (nonaromatic ring conformer: 81.22917491213775 kcal/mol)

>  <smiles>  (20) 
NC(=O)c1cc2ccc(CCC3CCCC3)cc2n1C(=O)CP(=O)(O)O

>  <score_type>  (20) 
oracle

>  <origin>  (20) 
adg

>  <m_score__min__energy>  (20) 
-8.9600000000000009

>  <m_primary>  (20) 
energy

$$$$
20:0
     RDKit          3D

 38 39  0  0  0  0  0  0  0  0999 V2000
  143.4860  160.0360  134.1020 C   0  0  0  0  0  0  0  0  0  0  0  0
  142.7060  158.8330  133.7800 N   0  0  0  0  0  0  0  0  0  0  0  0
  143.3350  157.8060  132.9830 C   0  0  0  0  0  0  0  0  0  0  0  0
  142.8460  157.4850  131.8650 O   0  0  0  0  0  0  0  0  0  0  0  0
  144.5240  157.1450  133.4340 N   0  0  0  0  0  0  0  0  0  0  0  0
  144.6210  155.9430  134.0660 C   0  0  0  0  0  0  0  0  0  0  0  0
  143.4930  155.0350  134.3550 C   0  0  0  0  0  0  0  0  0  0  0  0
  142.4950  154.8020  133.3640 N   0  0  0  0  0  0  0  0  0  0  0  0
  143.3940  154.4700  135.4750 O   0  0  0  0  0  0  0  0  0  0  0  0
  145.9510  155.6660  134.3780 C   0  0  0  0  0  0  0  0  0  0  0  0
  146.6680  156.7440  133.9070 C   0  0  0  0  0  0  0  0  0  0  0  0
  148.0340  157.0070  133.9550 C   0  0  0  0  0  0  0  0  0  0  0  0
  148.4920  158.2160  133.4020 C   0  0  0  0  0  0  0  0  0  0  0  0
  147.5830  159.1340  132.8160 C   0  0  0  0  0  0  0  0  0  0  0  0
  148.0920  160.4240  132.2410 C   0  0  0  0  0  0  0  0  0  0  0  0
  149.4750  160.4120  132.2230 F   0  0  0  0  0  0  0  0  0  0  0  0
  147.6200  160.5780  130.9500 F   0  0  0  0  0  0  0  0  0  0  0  0
  146.2030  158.8320  132.7850 C   0  0  0  0  0  0  0  0  0  0  0  0
  145.7810  157.6200  133.3390 C   0  0  0  0  0  0  0  0  0  0  0  0
  141.3780  158.6110  134.3900 C   0  0  1  0  0  0  0  0  0  0  0  0
  140.9540  157.1420  134.2460 C   0  0  0  0  0  0  0  0  0  0  0  0
  140.5760  156.8870  132.9210 O   0  0  0  0  0  0  0  0  0  0  0  0
  141.3680  159.0620  135.8280 C   0  0  0  0  0  0  0  0  0  0  0  0
  142.0300  158.4230  136.6890 O   0  0  0  0  0  0  0  0  0  0  0  0
  140.6070  160.1540  136.2300 O   0  0  0  0  0  0  0  0  0  0  0  0
  143.5570  160.1455  135.1942 H   0  0  0  0  0  0  0  0  0  0  0  0
  144.4960  159.9429  133.6764 H   0  0  0  0  0  0  0  0  0  0  0  0
  142.9888  160.9201  133.6764 H   0  0  0  0  0  0  0  0  0  0  0  0
  142.2770  155.5240  132.6420 H   0  0  0  0  0  0  0  0  0  0  0  0
  146.3444  154.7761  134.8911 H   0  0  0  0  0  0  0  0  0  0  0  0
  148.7336  156.2912  134.4114 H   0  0  0  0  0  0  0  0  0  0  0  0
  149.5661  158.4524  133.4240 H   0  0  0  0  0  0  0  0  0  0  0  0
  147.7390  161.2596  132.8632 H   0  0  0  0  0  0  0  0  0  0  0  0
  145.4811  159.5310  132.3375 H   0  0  0  0  0  0  0  0  0  0  0  0
  140.6376  159.2208  133.8516 H   0  0  0  0  0  0  0  0  0  0  0  0
  141.7971  156.4898  134.5176 H   0  0  0  0  0  0  0  0  0  0  0  0
  140.1022  156.9418  134.9127 H   0  0  0  0  0  0  0  0  0  0  0  0
  141.3280  156.3880  132.5110 H   0  0  0  0  0  0  0  0  0  0  0  0
  1  2  1  0
  2  3  1  0
  3  4  2  0
  3  5  1  0
  5  6  1  0
  6  7  1  0
  7  8  1  0
  7  9  2  0
  6 10  2  0
 10 11  1  0
 11 12  2  0
 12 13  1  0
 13 14  2  0
 14 15  1  0
 15 16  1  0
 15 17  1  0
 14 18  1  0
 18 19  2  0
  2 20  1  0
 20 21  1  0
 21 22  1  0
 20 23  1  0
 23 24  2  0
 23 25  1  0
 19  5  1  0
 19 11  1  0
  1 26  1  0
  1 27  1  0
  1 28  1  0
  8 29  1  0
 10 30  1  0
 12 31  1  0
 13 32  1  0
 15 33  1  0
 18 34  1  0
 20 35  1  6
 21 36  1  0
 21 37  1  0
 22 38  1  0
M  CHG  2   8  -1  25  -1
M  END
>  <UniqueID>  (21) 
21

>  <SMILES>  (21) 
CN(C(=O)n1c(C([NH-])=O)cc2ccc(C(F)F)cc21)[C@@H](CO)C(=O)[O-]

>  <Energy>  (21) 
74.37883450335352

>  <Genealogy>  (21) 
CN(C(=O)n1c(C([NH-])=O)cc2ccc(C(F)F)cc21)[C@@H](CO)C(=O)[O-] (protonated)
CN(C(=O)n1c(C([NH-])=O)cc2ccc(C(F)F)cc21)[C@@H](CO)C(=O)[O-] (3D coordinates assigned)
CN(C(=O)n1c(C([NH-])=O)cc2ccc(C(F)F)cc21)[C@@H](CO)C(=O)[O-] (optimized conformer: 74.37883450335352 kcal/mol)

>  <smiles>  (21) 
CN(C(=O)n1c(C(N)=O)cc2ccc(C(F)F)cc21)[C@@H](CO)C(=O)O

>  <score_type>  (21) 
oracle

>  <origin>  (21) 
adg

>  <m_score__min__energy>  (21) 
-5.7599999999999998

>  <m_primary>  (21) 
energy

$$$$
21:0
     RDKit          3D

 47 48  0  0  0  0  0  0  0  0999 V2000
  139.5170  159.7370  131.5430 C   0  0  0  0  0  0  0  0  0  0  0  0
  140.4290  159.2650  132.5900 N   0  0  0  0  0  0  0  0  0  0  0  0
  140.9250  160.1950  133.6160 C   0  0  0  0  0  0  0  0  0  0  0  0
  141.8050  159.4770  134.6470 C   0  0  0  0  0  0  0  0  0  0  0  0
  143.2640  159.5640  134.2840 C   0  0  0  0  0  0  0  0  0  0  0  0
  143.8780  160.8260  134.0920 C   0  0  0  0  0  0  0  0  0  0  0  0
  145.2240  160.9130  133.7030 C   0  0  0  0  0  0  0  0  0  0  0  0
  145.9280  159.7270  133.5130 C   0  0  0  0  0  0  0  0  0  0  0  0
  147.2210  159.5250  133.0890 C   0  0  0  0  0  0  0  0  0  0  0  0
  147.3810  158.1430  133.0420 C   0  0  0  0  0  0  0  0  0  0  0  0
  148.6440  157.4820  132.6560 C   0  0  0  0  0  0  0  0  0  0  0  0
  148.8560  156.0890  132.8940 N   0  0  0  0  0  0  0  0  0  0  0  0
  149.5720  158.1680  132.1510 O   0  0  0  0  0  0  0  0  0  0  0  0
  146.2320  157.5100  133.4140 N   0  0  0  0  0  0  0  0  0  0  0  0
  145.9690  156.0960  133.3480 C   0  0  0  0  0  0  0  0  0  0  0  0
  146.3230  155.4460  132.3280 O   0  0  0  0  0  0  0  0  0  0  0  0
  145.2720  155.3690  134.4610 C   0  0  0  0  0  0  0  0  0  0  0  0
  145.7800  154.0590  134.5660 O   0  0  0  0  0  0  0  0  0  0  0  0
  147.3320  154.1350  135.2700 P   0  0  0  0  0  0  0  0  0  0  0  0
  148.3650  153.5610  134.3250 O   0  0  0  0  0  0  0  0  0  0  0  0
  147.3510  153.2710  136.7240 O   0  0  0  0  0  0  0  0  0  0  0  0
  147.7100  155.7530  135.5870 O   0  0  0  0  0  0  0  0  0  0  0  0
  145.3500  158.4960  133.6990 C   0  0  0  0  0  0  0  0  0  0  0  0
  144.0050  158.3830  134.0680 C   0  0  0  0  0  0  0  0  0  0  0  0
  140.8310  157.8830  132.6090 C   0  0  0  0  0  0  0  0  0  0  0  0
  141.9880  157.5560  132.2240 O   0  0  0  0  0  0  0  0  0  0  0  0
  139.9420  156.9010  133.0640 O   0  0  0  0  0  0  0  0  0  0  0  0
  140.3570  155.7640  133.8140 C   0  0  0  0  0  0  0  0  0  0  0  0
  141.1230  154.9060  133.0150 O   0  0  0  0  0  0  0  0  0  0  0  0
  138.6314  160.1953  132.0074 H   0  0  0  0  0  0  0  0  0  0  0  0
  140.0306  160.4825  130.9181 H   0  0  0  0  0  0  0  0  0  0  0  0
  139.2049  158.8872  130.9181 H   0  0  0  0  0  0  0  0  0  0  0  0
  141.5169  160.9832  133.1278 H   0  0  0  0  0  0  0  0  0  0  0  0
  140.0587  160.6242  134.1407 H   0  0  0  0  0  0  0  0  0  0  0  0
  141.6535  159.9424  135.6321 H   0  0  0  0  0  0  0  0  0  0  0  0
  141.5171  158.4155  134.6667 H   0  0  0  0  0  0  0  0  0  0  0  0
  143.2952  161.7456  134.2490 H   0  0  0  0  0  0  0  0  0  0  0  0
  145.7081  161.8892  133.5528 H   0  0  0  0  0  0  0  0  0  0  0  0
  147.9691  160.2921  132.8401 H   0  0  0  0  0  0  0  0  0  0  0  0
  148.1910  155.5330  133.4750 H   0  0  0  0  0  0  0  0  0  0  0  0
  149.7360  155.6320  132.5690 H   0  0  0  0  0  0  0  0  0  0  0  0
  145.4402  155.9030  135.4078 H   0  0  0  0  0  0  0  0  0  0  0  0
  144.1939  155.3248  134.2473 H   0  0  0  0  0  0  0  0  0  0  0  0
  143.5358  157.3952  134.1870 H   0  0  0  0  0  0  0  0  0  0  0  0
  140.9605  156.0960  134.6717 H   0  0  0  0  0  0  0  0  0  0  0  0
  139.4658  155.2236  134.1659 H   0  0  0  0  0  0  0  0  0  0  0  0
  141.7700  155.4830  132.5310 H   0  0  0  0  0  0  0  0  0  0  0  0
  1  2  1  0
  2  3  1  0
  3  4  1  0
  4  5  1  0
  5  6  2  0
  6  7  1  0
  7  8  2  0
  8  9  1  0
  9 10  2  0
 10 11  1  0
 11 12  1  0
 11 13  2  0
 10 14  1  0
 14 15  1  0
 15 16  2  0
 15 17  1  0
 17 18  1  0
 18 19  1  0
 19 20  2  0
 19 21  1  0
 19 22  1  0
 14 23  1  0
 23 24  2  0
  2 25  1  0
 25 26  2  0
 25 27  1  0
 27 28  1  0
 28 29  1  0
 24  5  1  0
 23  8  1  0
  1 30  1  0
  1 31  1  0
  1 32  1  0
  3 33  1  0
  3 34  1  0
  4 35  1  0
  4 36  1  0
  6 37  1  0
  7 38  1  0
  9 39  1  0
 12 40  1  0
 12 41  1  0
 17 42  1  0
 17 43  1  0
 24 44  1  0
 28 45  1  0
 28 46  1  0
 29 47  1  0
M  CHG  2  21  -1  22  -1
M  END
>  <UniqueID>  (22) 
22

>  <SMILES>  (22) 
CN(CCc1ccc2cc(C(N)=O)n(C(=O)COP(=O)([O-])[O-])c2c1)C(=O)OCO

>  <Energy>  (22) 
75.09416591703899

>  <Genealogy>  (22) 
CN(CCc1ccc2cc(C(N)=O)n(C(=O)COP(=O)([O-])[O-])c2c1)C(=O)OCO (protonated)
CN(CCc1ccc2cc(C(N)=O)n(C(=O)COP(=O)([O-])[O-])c2c1)C(=O)OCO (3D coordinates assigned)
CN(CCc1ccc2cc(C(N)=O)n(C(=O)COP(=O)([O-])[O-])c2c1)C(=O)OCO (optimized conformer: 75.09416591703899 kcal/mol)

>  <smiles>  (22) 
CN(CCc1ccc2cc(C(N)=O)n(C(=O)COP(=O)(O)O)c2c1)C(=O)OCO

>  <score_type>  (22) 
oracle

>  <origin>  (22) 
adg

>  <m_score__min__energy>  (22) 
-6.8099999999999996

>  <m_primary>  (22) 
energy

$$$$
22:0
     RDKit          3D

 37 38  0  0  0  0  0  0  0  0999 V2000
  144.4741  154.3536  135.9617 H   0  0  0  0  0  0  0  0  0  0  0  0
  145.2630  154.8710  135.3960 C   0  0  0  0  0  0  0  0  0  0  0  0
  146.6570  154.6050  135.7930 C   0  0  0  0  0  0  0  0  0  0  0  0
  147.5720  155.4370  135.5670 O   0  0  0  0  0  0  0  0  0  0  0  0
  146.9800  153.3740  136.3490 O   0  0  0  0  0  0  0  0  0  0  0  0
  144.8690  155.6880  134.4060 C   0  0  0  0  0  0  0  0  0  0  0  0
  143.8068  155.6528  134.1222 H   0  0  0  0  0  0  0  0  0  0  0  0
  145.7320  156.6310  133.6620 C   0  0  0  0  0  0  0  0  0  0  0  0
  146.6190  156.1560  132.9040 O   0  0  0  0  0  0  0  0  0  0  0  0
  145.5330  158.0570  133.7060 N   0  0  0  0  0  0  0  0  0  0  0  0
  146.4930  159.0250  133.6420 C   0  0  0  0  0  0  0  0  0  0  0  0
  147.9550  158.7820  133.6570 C   0  0  0  0  0  0  0  0  0  0  0  0
  148.7470  159.6630  133.2310 O   0  0  0  0  0  0  0  0  0  0  0  0
  148.4860  157.5420  134.1300 N   0  0  0  0  0  0  0  0  0  0  0  0
  149.5140  157.3680  134.0980 H   0  0  0  0  0  0  0  0  0  0  0  0
  147.8720  156.8110  134.5520 H   0  0  0  0  0  0  0  0  0  0  0  0
  145.9110  160.2910  133.6490 C   0  0  0  0  0  0  0  0  0  0  0  0
  146.4268  161.2620  133.6153 H   0  0  0  0  0  0  0  0  0  0  0  0
  144.5540  160.0690  133.7070 C   0  0  0  0  0  0  0  0  0  0  0  0
  143.5000  160.9780  133.7370 C   0  0  0  0  0  0  0  0  0  0  0  0
  143.6855  162.0622  133.7273 H   0  0  0  0  0  0  0  0  0  0  0  0
  142.1920  160.4670  133.7800 C   0  0  0  0  0  0  0  0  0  0  0  0
  141.3379  161.1588  133.8242 H   0  0  0  0  0  0  0  0  0  0  0  0
  141.9630  159.0700  133.7670 C   0  0  0  0  0  0  0  0  0  0  0  0
  140.5610  158.5320  133.8490 C   0  0  0  0  0  0  0  0  0  0  0  0
  140.5468  157.4929  133.4882 H   0  0  0  0  0  0  0  0  0  0  0  0
  139.8977  159.1497  133.2257 H   0  0  0  0  0  0  0  0  0  0  0  0
  140.0860  158.5720  135.2650 C   0  0  0  0  0  0  0  0  0  0  0  0
  139.1070  157.8600  135.6190 O   0  0  0  0  0  0  0  0  0  0  0  0
  140.7660  159.3650  136.1950 O   0  0  0  0  0  0  0  0  0  0  0  0
  141.3060  158.8370  137.4000 C   0  0  0  0  0  0  0  0  0  0  0  0
  140.8169  159.3152  138.2614 H   0  0  0  0  0  0  0  0  0  0  0  0
  141.1315  157.7515  137.4353 H   0  0  0  0  0  0  0  0  0  0  0  0
  142.3873  159.0359  137.4353 H   0  0  0  0  0  0  0  0  0  0  0  0
  143.0570  158.1780  133.7380 C   0  0  0  0  0  0  0  0  0  0  0  0
  142.8967  157.0898  133.7236 H   0  0  0  0  0  0  0  0  0  0  0  0
  144.3520  158.7130  133.7280 C   0  0  0  0  0  0  0  0  0  0  0  0
  1  2  1  0
  2  3  1  0
  3  4  2  0
  3  5  1  0
  2  6  2  0
  6  7  1  0
  6  8  1  0
  8  9  2  0
  8 10  1  0
 10 11  1  0
 11 12  1  0
 12 13  2  0
 12 14  1  0
 14 15  1  0
 14 16  1  0
 11 17  2  0
 17 18  1  0
 17 19  1  0
 19 20  2  0
 20 21  1  0
 20 22  1  0
 22 23  1  0
 22 24  2  0
 24 25  1  0
 25 26  1  0
 25 27  1  0
 25 28  1  0
 28 29  2  0
 28 30  1  0
 30 31  1  0
 31 32  1  0
 31 33  1  0
 31 34  1  0
 24 35  1  0
 35 36  1  0
 35 37  2  0
 37 10  1  0
 37 19  1  0
M  CHG  1   5  -1
M  END
>  <UniqueID>  (23) 
23

>  <SMILES>  (23) 
COC(=O)Cc1ccc2cc(C(N)=O)n(C(=O)/C=C\C(=O)[O-])c2c1

>  <Energy>  (23) 
77.01979477520472

>  <Genealogy>  (23) 
COC(=O)Cc1ccc2cc(C(N)=O)n(C(=O)/C=C\C(=O)[O-])c2c1 (protonated)
COC(=O)Cc1ccc2cc(C(N)=O)n(C(=O)/C=C\C(=O)[O-])c2c1 (cis-trans isomerization)
COC(=O)Cc1ccc2cc(C(N)=O)n(C(=O)/C=C\C(=O)[O-])c2c1 (3D coordinates assigned)
COC(=O)Cc1ccc2cc(C(N)=O)n(C(=O)/C=C\C(=O)[O-])c2c1 (optimized conformer: 77.01979477520472 kcal/mol)

>  <smiles>  (23) 
COC(=O)Cc1ccc2cc(C(N)=O)n(C(=O)/C=C\C(=O)O)c2c1

>  <score_type>  (23) 
oracle

>  <origin>  (23) 
adg

>  <m_score__min__energy>  (23) 
-7.2199999999999998

>  <m_primary>  (23) 
energy

$$$$
23:0
     RDKit          3D

 44 45  0  0  0  0  0  0  0  0999 V2000
  139.5260  157.3290  132.6080 C   0  0  0  0  0  0  0  0  0  0  0  0
  139.2840  158.7740  132.5570 N   0  0  0  0  0  0  0  0  0  0  0  0
  138.1220  159.3060  131.8320 C   0  0  0  0  0  0  0  0  0  0  0  0
  138.5560  159.9710  130.5230 C   0  0  0  0  0  0  0  0  0  0  0  0
  138.7620  161.3460  130.7110 O   0  0  0  0  0  0  0  0  0  0  0  0
  140.2050  159.6710  133.2050 C   0  0  0  0  0  0  0  0  0  0  0  0
  140.5390  160.7490  132.6390 O   0  0  0  0  0  0  0  0  0  0  0  0
  140.7290  159.3470  134.4630 O   0  0  0  0  0  0  0  0  0  0  0  0
  141.4700  158.1580  134.7100 C   0  0  0  0  0  0  0  0  0  0  0  0
  142.8630  158.4500  134.6920 O   0  0  0  0  0  0  0  0  0  0  0  0
  143.6540  158.2950  133.5500 C   0  0  0  0  0  0  0  0  0  0  0  0
  143.2490  157.5850  132.5890 O   0  0  0  0  0  0  0  0  0  0  0  0
  144.9390  158.9350  133.4810 N   0  0  0  0  0  0  0  0  0  0  0  0
  145.2060  160.2730  133.5000 C   0  0  0  0  0  0  0  0  0  0  0  0
  144.2150  161.3450  133.7420 C   0  0  0  0  0  0  0  0  0  0  0  0
  142.8170  161.0910  133.6010 N   0  0  0  0  0  0  0  0  0  0  0  0
  144.5990  162.5050  134.0450 O   0  0  0  0  0  0  0  0  0  0  0  0
  146.5740  160.5000  133.3580 C   0  0  0  0  0  0  0  0  0  0  0  0
  147.1410  159.2510  133.2520 C   0  0  0  0  0  0  0  0  0  0  0  0
  148.4750  158.8860  133.1000 C   0  0  0  0  0  0  0  0  0  0  0  0
  148.7780  157.5180  133.0040 C   0  0  0  0  0  0  0  0  0  0  0  0
  147.7480  156.5430  133.0350 C   0  0  0  0  0  0  0  0  0  0  0  0
  148.0870  155.0760  132.9710 C   0  0  0  0  0  0  0  0  0  0  0  0
  147.1050  154.4120  132.2590 F   0  0  0  0  0  0  0  0  0  0  0  0
  148.1630  154.5360  134.2420 F   0  0  0  0  0  0  0  0  0  0  0  0
  149.3070  154.8830  132.3450 F   0  0  0  0  0  0  0  0  0  0  0  0
  146.4060  156.9530  133.2160 C   0  0  0  0  0  0  0  0  0  0  0  0
  146.1360  158.3230  133.3280 C   0  0  0  0  0  0  0  0  0  0  0  0
  139.5806  157.0032  133.6572 H   0  0  0  0  0  0  0  0  0  0  0  0
  138.7037  156.8014  132.1025 H   0  0  0  0  0  0  0  0  0  0  0  0
  140.4753  157.0981  132.1025 H   0  0  0  0  0  0  0  0  0  0  0  0
  137.4298  158.4816  131.6056 H   0  0  0  0  0  0  0  0  0  0  0  0
  137.6271  160.0590  132.4630 H   0  0  0  0  0  0  0  0  0  0  0  0
  139.4924  159.5094  130.1764 H   0  0  0  0  0  0  0  0  0  0  0  0
  137.7622  159.8309  129.7745 H   0  0  0  0  0  0  0  0  0  0  0  0
  138.7140  161.5090  131.6890 H   0  0  0  0  0  0  0  0  0  0  0  0
  141.1938  157.7526  135.6946 H   0  0  0  0  0  0  0  0  0  0  0  0
  141.2423  157.4173  133.9293 H   0  0  0  0  0  0  0  0  0  0  0  0
  142.1280  161.8620  133.7380 H   0  0  0  0  0  0  0  0  0  0  0  0
  142.4570  160.1310  133.4020 H   0  0  0  0  0  0  0  0  0  0  0  0
  147.0903  161.4711  133.3355 H   0  0  0  0  0  0  0  0  0  0  0  0
  149.2688  159.6463  133.0563 H   0  0  0  0  0  0  0  0  0  0  0  0
  149.8259  157.1989  132.9036 H   0  0  0  0  0  0  0  0  0  0  0  0
  145.5936  156.2132  133.2676 H   0  0  0  0  0  0  0  0  0  0  0  0
  1  2  1  0
  2  3  1  0
  3  4  1  0
  4  5  1  0
  2  6  1  0
  6  7  2  0
  6  8  1  0
  8  9  1  0
  9 10  1  0
 10 11  1  0
 11 12  2  0
 11 13  1  0
 13 14  1  0
 14 15  1  0
 15 16  1  0
 15 17  2  0
 14 18  2  0
 18 19  1  0
 19 20  2  0
 20 21  1  0
 21 22  2  0
 22 23  1  0
 23 24  1  0
 23 25  1  0
 23 26  1  0
 22 27  1  0
 27 28  2  0
 28 13  1  0
 28 19  1  0
  1 29  1  0
  1 30  1  0
  1 31  1  0
  3 32  1  0
  3 33  1  0
  4 34  1  0
  4 35  1  0
  5 36  1  0
  9 37  1  0
  9 38  1  0
 16 39  1  0
 16 40  1  0
 18 41  1  0
 20 42  1  0
 21 43  1  0
 27 44  1  0
M  END
>  <UniqueID>  (24) 
24

>  <SMILES>  (24) 
CN(CCO)C(=O)OCOC(=O)n1c(C(N)=O)cc2ccc(C(F)(F)F)cc21

>  <Energy>  (24) 
74.1251337734624

>  <Genealogy>  (24) 
CN(CCO)C(=O)OCOC(=O)n1c(C(N)=O)cc2ccc(C(F)(F)F)cc21 (3D coordinates assigned)
CN(CCO)C(=O)OCOC(=O)n1c(C(N)=O)cc2ccc(C(F)(F)F)cc21 (optimized conformer: 74.1251337734624 kcal/mol)

>  <smiles>  (24) 
CN(CCO)C(=O)OCOC(=O)n1c(C(N)=O)cc2ccc(C(F)(F)F)cc21

>  <score_type>  (24) 
oracle

>  <origin>  (24) 
adg

>  <m_score__min__energy>  (24) 
-5.6699999999999999

>  <m_primary>  (24) 
energy

$$$$
24:0
     RDKit          3D

 41 42  0  0  0  0  0  0  0  0999 V2000
  149.6090  162.3370  130.0640 C   0  0  0  0  0  0  0  0  0  0  0  0
  148.4120  161.5620  130.3760 N   0  0  0  0  0  0  0  0  0  0  0  0
  148.4230  160.3780  131.1940 C   0  0  0  0  0  0  0  0  0  0  0  0
  149.6140  159.6340  131.4100 C   0  0  0  0  0  0  0  0  0  0  0  0
  149.6070  158.4860  132.2210 C   0  0  0  0  0  0  0  0  0  0  0  0
  148.4010  158.1010  132.7960 C   0  0  0  0  0  0  0  0  0  0  0  0
  148.1180  157.0480  133.6370 C   0  0  0  0  0  0  0  0  0  0  0  0
  146.7550  157.1490  133.9080 C   0  0  0  0  0  0  0  0  0  0  0  0
  146.0090  156.1550  134.7090 C   0  0  0  0  0  0  0  0  0  0  0  0
  144.5830  156.1440  134.6750 N   0  0  0  0  0  0  0  0  0  0  0  0
  146.6140  155.3380  135.4510 O   0  0  0  0  0  0  0  0  0  0  0  0
  146.2190  158.2270  133.2670 N   0  0  0  0  0  0  0  0  0  0  0  0
  144.8680  158.7080  133.3260 C   0  0  0  0  0  0  0  0  0  0  0  0
  143.9770  158.1730  132.6110 O   0  0  0  0  0  0  0  0  0  0  0  0
  144.5440  159.7570  134.1950 O   0  0  0  0  0  0  0  0  0  0  0  0
  143.3410  160.5150  134.0960 C   0  0  0  0  0  0  0  0  0  0  0  0
  142.1780  159.7110  134.5930 C   0  0  0  0  0  0  0  0  0  0  0  0
  141.0910  160.2950  134.8540 O   0  0  0  0  0  0  0  0  0  0  0  0
  142.2880  158.2870  134.7340 N   0  0  0  0  0  0  0  0  0  0  0  0
  141.1540  157.4460  135.1060 C   0  0  0  0  0  0  0  0  0  0  0  0
  141.2080  156.1150  134.3550 C   0  0  0  0  0  0  0  0  0  0  0  0
  142.1820  156.1660  133.3480 O   0  0  0  0  0  0  0  0  0  0  0  0
  147.2390  158.7960  132.5870 C   0  0  0  0  0  0  0  0  0  0  0  0
  147.2190  159.9510  131.7990 C   0  0  0  0  0  0  0  0  0  0  0  0
  150.0957  162.6522  130.9987 H   0  0  0  0  0  0  0  0  0  0  0  0
  150.3048  161.7175  129.4791 H   0  0  0  0  0  0  0  0  0  0  0  0
  149.3285  163.2254  129.4791 H   0  0  0  0  0  0  0  0  0  0  0  0
  147.5050  161.8930  129.9770 H   0  0  0  0  0  0  0  0  0  0  0  0
  150.5522  159.9601  130.9372 H   0  0  0  0  0  0  0  0  0  0  0  0
  150.5276  157.9097  132.3954 H   0  0  0  0  0  0  0  0  0  0  0  0
  148.8188  156.2888  134.0145 H   0  0  0  0  0  0  0  0  0  0  0  0
  144.0510  156.9210  134.2240 H   0  0  0  0  0  0  0  0  0  0  0  0
  143.4364  161.4281  134.7019 H   0  0  0  0  0  0  0  0  0  0  0  0
  143.1697  160.7787  133.0419 H   0  0  0  0  0  0  0  0  0  0  0  0
  143.2190  157.8320  134.5970 H   0  0  0  0  0  0  0  0  0  0  0  0
  141.1858  157.2529  136.1885 H   0  0  0  0  0  0  0  0  0  0  0  0
  140.2218  157.9669  134.8420 H   0  0  0  0  0  0  0  0  0  0  0  0
  141.4574  155.3093  135.0612 H   0  0  0  0  0  0  0  0  0  0  0  0
  140.2272  155.9221  133.8959 H   0  0  0  0  0  0  0  0  0  0  0  0
  142.9810  156.5970  133.7490 H   0  0  0  0  0  0  0  0  0  0  0  0
  146.2861  160.5153  131.6530 H   0  0  0  0  0  0  0  0  0  0  0  0
  1  2  1  0
  2  3  1  0
  3  4  2  0
  4  5  1  0
  5  6  2  0
  6  7  1  0
  7  8  2  0
  8  9  1  0
  9 10  1  0
  9 11  2  0
  8 12  1  0
 12 13  1  0
 13 14  2  0
 13 15  1  0
 15 16  1  0
 16 17  1  0
 17 18  2  0
 17 19  1  0
 19 20  1  0
 20 21  1  0
 21 22  1  0
 12 23  1  0
 23 24  2  0
 24  3  1  0
 23  6  1  0
  1 25  1  0
  1 26  1  0
  1 27  1  0
  2 28  1  0
  4 29  1  0
  5 30  1  0
  7 31  1  0
 10 32  1  0
 16 33  1  0
 16 34  1  0
 19 35  1  0
 20 36  1  0
 20 37  1  0
 21 38  1  0
 21 39  1  0
 22 40  1  0
 24 41  1  0
M  CHG  1  10  -1
M  END
>  <UniqueID>  (25) 
25

>  <SMILES>  (25) 
CNc1ccc2cc(C([NH-])=O)n(C(=O)OCC(=O)NCCO)c2c1

>  <Energy>  (25) 
70.45380392898338

>  <Genealogy>  (25) 
CNc1ccc2cc(C([NH-])=O)n(C(=O)OCC(=O)NCCO)c2c1 (protonated)
CNc1ccc2cc(C([NH-])=O)n(C(=O)OCC(=O)NCCO)c2c1 (3D coordinates assigned)
CNc1ccc2cc(C([NH-])=O)n(C(=O)OCC(=O)NCCO)c2c1 (optimized conformer: 70.45380392898338 kcal/mol)

>  <smiles>  (25) 
CNc1ccc2cc(C(N)=O)n(C(=O)OCC(=O)NCCO)c2c1

>  <score_type>  (25) 
oracle

>  <origin>  (25) 
adg

>  <m_score__min__energy>  (25) 
-5.6200000000000001

>  <m_primary>  (25) 
energy

$$$$
25:0
     RDKit          3D

 38 39  0  0  0  0  0  0  0  0999 V2000
  144.2000  161.2410  133.8110 C   0  0  0  0  0  0  0  0  0  0  0  0
  145.0680  160.4260  133.6270 C   0  0  0  0  0  0  0  0  0  0  0  0
  146.1060  159.4520  133.4070 C   0  0  0  0  0  0  0  0  0  0  0  0
  147.4440  159.8750  133.2340 C   0  0  0  0  0  0  0  0  0  0  0  0
  148.4650  158.9350  133.0100 C   0  0  0  0  0  0  0  0  0  0  0  0
  148.1130  157.5870  132.9700 C   0  0  0  0  0  0  0  0  0  0  0  0
  148.8880  156.4710  132.7490 C   0  0  0  0  0  0  0  0  0  0  0  0
  148.0070  155.3920  132.8060 C   0  0  0  0  0  0  0  0  0  0  0  0
  148.4290  153.9810  132.6860 C   0  0  0  0  0  0  0  0  0  0  0  0
  147.5740  152.9230  133.1070 N   0  0  0  0  0  0  0  0  0  0  0  0
  149.5740  153.7080  132.2360 O   0  0  0  0  0  0  0  0  0  0  0  0
  146.7380  155.8260  133.0480 N   0  0  0  0  0  0  0  0  0  0  0  0
  145.5280  155.0550  133.0920 C   0  0  0  0  0  0  0  0  0  0  0  0
  144.6380  155.2720  132.2250 O   0  0  0  0  0  0  0  0  0  0  0  0
  145.4050  153.9530  134.0240 N   0  0  2  0  0  0  0  0  0  0  0  0
  144.5180  152.9260  133.4460 C   0  0  0  0  0  0  0  0  0  0  0  0
  145.0320  154.3950  135.4110 C   0  0  1  0  0  0  0  0  0  0  0  0
  143.5410  154.2100  135.7940 C   0  0  0  0  0  0  0  0  0  0  0  0
  143.2130  154.9600  136.9290 O   0  0  0  0  0  0  0  0  0  0  0  0
  145.8880  153.6900  136.4390 C   0  0  0  0  0  0  0  0  0  0  0  0
  147.0760  153.3780  136.1650 O   0  0  0  0  0  0  0  0  0  0  0  0
  145.3650  153.3590  137.6820 O   0  0  0  0  0  0  0  0  0  0  0  0
  146.8200  157.1690  133.1480 C   0  0  0  0  0  0  0  0  0  0  0  0
  145.7820  158.0820  133.3610 C   0  0  0  0  0  0  0  0  0  0  0  0
  143.4075  161.9851  133.9790 H   0  0  0  0  0  0  0  0  0  0  0  0
  147.6877  160.9469  133.2750 H   0  0  0  0  0  0  0  0  0  0  0  0
  149.5087  159.2533  132.8707 H   0  0  0  0  0  0  0  0  0  0  0  0
  149.9722  156.4376  132.5662 H   0  0  0  0  0  0  0  0  0  0  0  0
  147.4250  152.7220  134.1210 H   0  0  0  0  0  0  0  0  0  0  0  0
  146.3550  153.5130  134.0720 H   0  0  0  0  0  0  0  0  0  0  0  0
  144.0319  152.3631  134.2565 H   0  0  0  0  0  0  0  0  0  0  0  0
  143.7506  153.4115  132.8252 H   0  0  0  0  0  0  0  0  0  0  0  0
  145.1101  152.2374  132.8252 H   0  0  0  0  0  0  0  0  0  0  0  0
  145.2137  155.4799  135.4062 H   0  0  0  0  0  0  0  0  0  0  0  0
  142.9114  154.5373  134.9535 H   0  0  0  0  0  0  0  0  0  0  0  0
  143.3682  153.1469  136.0173 H   0  0  0  0  0  0  0  0  0  0  0  0
  143.9770  154.8640  137.5540 H   0  0  0  0  0  0  0  0  0  0  0  0
  144.7442  157.7405  133.4887 H   0  0  0  0  0  0  0  0  0  0  0  0
  1  2  3  0
  2  3  1  0
  3  4  2  0
  4  5  1  0
  5  6  2  0
  6  7  1  0
  7  8  2  0
  8  9  1  0
  9 10  1  0
  9 11  2  0
  8 12  1  0
 12 13  1  0
 13 14  2  0
 13 15  1  0
 15 16  1  0
 15 17  1  0
 17 18  1  0
 18 19  1  0
 17 20  1  0
 20 21  2  0
 20 22  1  0
 12 23  1  0
 23 24  2  0
 24  3  1  0
 23  6  1  0
  1 25  1  0
  4 26  1  0
  5 27  1  0
  7 28  1  0
 10 29  1  0
 15 30  1  1
 16 31  1  0
 16 32  1  0
 16 33  1  0
 17 34  1  6
 18 35  1  0
 18 36  1  0
 19 37  1  0
 24 38  1  0
M  CHG  3  10  -1  15   1  22  -1
M  END
>  <UniqueID>  (26) 
26

>  <SMILES>  (26) 
C#Cc1ccc2cc(C([NH-])=O)n(C(=O)[N@H+](C)[C@@H](CO)C(=O)[O-])c2c1

>  <Energy>  (26) 
84.90053971996436

>  <Genealogy>  (26) 
C#Cc1ccc2cc(C([NH-])=O)n(C(=O)[NH+](C)[C@@H](CO)C(=O)[O-])c2c1 (protonated)
C#Cc1ccc2cc(C([NH-])=O)n(C(=O)[N@H+](C)[C@@H](CO)C(=O)[O-])c2c1 (chirality)
C#Cc1ccc2cc(C([NH-])=O)n(C(=O)[N@H+](C)[C@@H](CO)C(=O)[O-])c2c1 (3D coordinates assigned)
C#Cc1ccc2cc(C([NH-])=O)n(C(=O)[N@H+](C)[C@@H](CO)C(=O)[O-])c2c1 (optimized conformer: 84.90053971996436 kcal/mol)

>  <smiles>  (26) 
C#Cc1ccc2cc(C(N)=O)n(C(=O)N(C)[C@@H](CO)C(=O)O)c2c1

>  <score_type>  (26) 
oracle

>  <origin>  (26) 
adg

>  <m_score__min__energy>  (26) 
-6.1600000000000001

>  <m_primary>  (26) 
energy

$$$$
26:0
     RDKit          3D

 38 39  0  0  0  0  0  0  0  0999 V2000
  149.8030  150.8850  131.0950 C   0  0  0  0  0  0  0  0  0  0  0  0
  149.6540  151.5590  132.4560 C   0  0  0  0  0  0  0  0  0  0  0  0
  150.6800  152.4770  132.6220 F   0  0  0  0  0  0  0  0  0  0  0  0
  149.7740  150.6040  133.4510 F   0  0  0  0  0  0  0  0  0  0  0  0
  148.3140  152.2530  132.5520 C   0  0  0  0  0  0  0  0  0  0  0  0
  147.1150  151.5420  132.2820 C   0  0  0  0  0  0  0  0  0  0  0  0
  145.8700  152.1910  132.3150 C   0  0  0  0  0  0  0  0  0  0  0  0
  145.8500  153.5490  132.6140 C   0  0  0  0  0  0  0  0  0  0  0  0
  144.7920  154.4280  132.6770 C   0  0  0  0  0  0  0  0  0  0  0  0
  145.3570  155.6640  132.9860 C   0  0  0  0  0  0  0  0  0  0  0  0
  144.5660  156.8940  133.2090 C   0  0  0  0  0  0  0  0  0  0  0  0
  144.9930  157.8460  134.1790 N   0  0  0  0  0  0  0  0  0  0  0  0
  143.5280  157.1240  132.5330 O   0  0  0  0  0  0  0  0  0  0  0  0
  146.7090  155.5530  133.1070 N   0  0  0  0  0  0  0  0  0  0  0  0
  147.6600  156.5990  133.3640 C   0  0  0  0  0  0  0  0  0  0  0  0
  147.9440  156.9060  134.5530 O   0  0  0  0  0  0  0  0  0  0  0  0
  148.2770  157.2930  132.2700 N   0  0  0  0  0  0  0  0  0  0  0  0
  149.1320  158.4680  132.4710 C   0  0  2  0  0  0  0  0  0  0  0  0
  148.4630  159.4700  133.4250 C   0  0  0  0  0  0  0  0  0  0  0  0
  147.0640  159.4070  133.3250 O   0  0  0  0  0  0  0  0  0  0  0  0
  149.4690  159.1180  131.1540 C   0  0  0  0  0  0  0  0  0  0  0  0
  150.2590  160.0980  131.1030 O   0  0  0  0  0  0  0  0  0  0  0  0
  148.9320  158.6120  129.9770 O   0  0  0  0  0  0  0  0  0  0  0  0
  146.9950  154.2540  132.8760 C   0  0  0  0  0  0  0  0  0  0  0  0
  148.2510  153.6380  132.8300 C   0  0  0  0  0  0  0  0  0  0  0  0
  150.0384  149.8199  131.2371 H   0  0  0  0  0  0  0  0  0  0  0  0
  148.8620  150.9808  130.5334 H   0  0  0  0  0  0  0  0  0  0  0  0
  150.6160  151.3685  130.5334 H   0  0  0  0  0  0  0  0  0  0  0  0
  147.1619  150.4691  132.0439 H   0  0  0  0  0  0  0  0  0  0  0  0
  144.9390  151.6419  132.1106 H   0  0  0  0  0  0  0  0  0  0  0  0
  143.7272  154.2026  132.5174 H   0  0  0  0  0  0  0  0  0  0  0  0
  145.9950  157.9070  134.4660 H   0  0  0  0  0  0  0  0  0  0  0  0
  148.0910  156.9430  131.3030 H   0  0  0  0  0  0  0  0  0  0  0  0
  150.0726  158.1337  132.9330 H   0  0  0  0  0  0  0  0  0  0  0  0
  148.7602  159.2359  134.4579 H   0  0  0  0  0  0  0  0  0  0  0  0
  148.7874  160.4844  133.1496 H   0  0  0  0  0  0  0  0  0  0  0  0
  146.7770  158.5820  133.7970 H   0  0  0  0  0  0  0  0  0  0  0  0
  149.1687  154.2184  133.0062 H   0  0  0  0  0  0  0  0  0  0  0  0
  1  2  1  0
  2  3  1  0
  2  4  1  0
  2  5  1  0
  5  6  2  0
  6  7  1  0
  7  8  2  0
  8  9  1  0
  9 10  2  0
 10 11  1  0
 11 12  1  0
 11 13  2  0
 10 14  1  0
 14 15  1  0
 15 16  2  0
 15 17  1  0
 17 18  1  0
 18 19  1  0
 19 20  1  0
 18 21  1  0
 21 22  2  0
 21 23  1  0
 14 24  1  0
 24 25  2  0
 25  5  1  0
 24  8  1  0
  1 26  1  0
  1 27  1  0
  1 28  1  0
  6 29  1  0
  7 30  1  0
  9 31  1  0
 12 32  1  0
 17 33  1  0
 18 34  1  1
 19 35  1  0
 19 36  1  0
 20 37  1  0
 25 38  1  0
M  CHG  2  12  -1  23  -1
M  END
>  <UniqueID>  (27) 
27

>  <SMILES>  (27) 
CC(F)(F)c1ccc2cc(C([NH-])=O)n(C(=O)N[C@H](CO)C(=O)[O-])c2c1

>  <Energy>  (27) 
72.14264286625986

>  <Genealogy>  (27) 
CC(F)(F)c1ccc2cc(C([NH-])=O)n(C(=O)NC(CO)C(=O)[O-])c2c1 (protonated)
CC(F)(F)c1ccc2cc(C([NH-])=O)n(C(=O)N[C@H](CO)C(=O)[O-])c2c1 (chirality)
CC(F)(F)c1ccc2cc(C([NH-])=O)n(C(=O)N[C@H](CO)C(=O)[O-])c2c1 (3D coordinates assigned)
CC(F)(F)c1ccc2cc(C([NH-])=O)n(C(=O)N[C@H](CO)C(=O)[O-])c2c1 (optimized conformer: 72.14264286625986 kcal/mol)

>  <smiles>  (27) 
CC(F)(F)c1ccc2cc(C(N)=O)n(C(=O)NC(CO)C(=O)O)c2c1

>  <score_type>  (27) 
oracle

>  <origin>  (27) 
adg

>  <m_score__min__energy>  (27) 
-7.1200000000000001

>  <m_primary>  (27) 
energy

$$$$
27:0
     RDKit          3D

 51 53  0  0  0  0  0  0  0  0999 V2000
  148.5620  160.7500  131.4790 C   0  0  0  0  0  0  0  0  0  0  0  0
  148.1950  159.4820  132.2730 C   0  0  0  0  0  0  0  0  0  0  0  0
  148.8570  159.5000  133.6630 C   0  0  0  0  0  0  0  0  0  0  0  0
  148.6910  158.2490  131.5030 C   0  0  0  0  0  0  0  0  0  0  0  0
  146.7700  159.3560  132.3840 O   0  0  0  0  0  0  0  0  0  0  0  0
  146.0700  158.6700  133.3900 C   0  0  0  0  0  0  0  0  0  0  0  0
  146.6330  157.7750  134.0720 O   0  0  0  0  0  0  0  0  0  0  0  0
  144.6900  158.9930  133.6320 N   0  0  0  0  0  0  0  0  0  0  0  0
  144.1750  160.2140  133.9530 C   0  0  0  0  0  0  0  0  0  0  0  0
  144.9100  161.4930  133.9340 C   0  0  0  0  0  0  0  0  0  0  0  0
  146.3310  161.5340  134.0860 N   0  0  0  0  0  0  0  0  0  0  0  0
  144.2780  162.5650  133.7350 O   0  0  0  0  0  0  0  0  0  0  0  0
  142.8190  160.1160  134.2480 C   0  0  0  0  0  0  0  0  0  0  0  0
  142.5070  158.7880  134.0800 C   0  0  0  0  0  0  0  0  0  0  0  0
  141.2910  158.1320  134.2370 C   0  0  0  0  0  0  0  0  0  0  0  0
  141.2540  156.7470  134.0070 C   0  0  0  0  0  0  0  0  0  0  0  0
  142.4280  156.0410  133.6390 C   0  0  0  0  0  0  0  0  0  0  0  0
  142.3740  154.5790  133.3820 C   0  0  0  0  0  0  0  0  0  0  0  0
  141.1370  153.9210  133.2710 C   0  0  0  0  0  0  0  0  0  0  0  0
  141.0830  152.5490  133.0090 C   0  0  0  0  0  0  0  0  0  0  0  0
  142.2640  151.8000  132.8520 C   0  0  0  0  0  0  0  0  0  0  0  0
  142.2250  150.3420  132.5590 C   0  0  0  0  0  0  0  0  0  0  0  0
  143.2890  149.7450  132.2280 O   0  0  0  0  0  0  0  0  0  0  0  0
  140.9500  149.5460  132.6710 C   0  0  0  0  0  0  0  0  0  0  0  0
  141.1570  148.2020  132.3280 O   0  0  0  0  0  0  0  0  0  0  0  0
  143.5010  152.4590  132.9770 C   0  0  0  0  0  0  0  0  0  0  0  0
  143.5550  153.8320  133.2380 C   0  0  0  0  0  0  0  0  0  0  0  0
  143.6500  156.7440  133.5020 C   0  0  0  0  0  0  0  0  0  0  0  0
  143.6510  158.1290  133.7110 C   0  0  0  0  0  0  0  0  0  0  0  0
  148.7980  161.5653  132.1787 H   0  0  0  0  0  0  0  0  0  0  0  0
  149.4378  160.5454  130.8457 H   0  0  0  0  0  0  0  0  0  0  0  0
  147.7123  161.0448  130.8457 H   0  0  0  0  0  0  0  0  0  0  0  0
  148.0787  159.4788  134.4401 H   0  0  0  0  0  0  0  0  0  0  0  0
  149.5070  158.6192  133.7710 H   0  0  0  0  0  0  0  0  0  0  0  0
  149.4582  160.4148  133.7710 H   0  0  0  0  0  0  0  0  0  0  0  0
  149.0034  157.4723  132.2166 H   0  0  0  0  0  0  0  0  0  0  0  0
  147.8791  157.8606  130.8705 H   0  0  0  0  0  0  0  0  0  0  0  0
  149.5456  158.5310  130.8705 H   0  0  0  0  0  0  0  0  0  0  0  0
  146.8920  160.6560  134.1110 H   0  0  0  0  0  0  0  0  0  0  0  0
  146.8270  162.4500  134.1280 H   0  0  0  0  0  0  0  0  0  0  0  0
  142.1414  160.9278  134.5510 H   0  0  0  0  0  0  0  0  0  0  0  0
  140.3850  158.6815  134.5325 H   0  0  0  0  0  0  0  0  0  0  0  0
  140.3036  156.2034  134.1135 H   0  0  0  0  0  0  0  0  0  0  0  0
  140.2036  154.4905  133.3913 H   0  0  0  0  0  0  0  0  0  0  0  0
  140.1067  152.0493  132.9246 H   0  0  0  0  0  0  0  0  0  0  0  0
  140.5841  149.5992  133.7070 H   0  0  0  0  0  0  0  0  0  0  0  0
  140.2121  149.9723  131.9755 H   0  0  0  0  0  0  0  0  0  0  0  0
  142.1280  148.1010  132.1470 H   0  0  0  0  0  0  0  0  0  0  0  0
  144.4352  151.8884  132.8683 H   0  0  0  0  0  0  0  0  0  0  0  0
  144.5307  154.3313  133.3313 H   0  0  0  0  0  0  0  0  0  0  0  0
  144.5771  156.2143  133.2375 H   0  0  0  0  0  0  0  0  0  0  0  0
  1  2  1  0
  2  3  1  0
  2  4  1  0
  2  5  1  0
  5  6  1  0
  6  7  2  0
  6  8  1  0
  8  9  1  0
  9 10  1  0
 10 11  1  0
 10 12  2  0
  9 13  2  0
 13 14  1  0
 14 15  2  0
 15 16  1  0
 16 17  2  0
 17 18  1  0
 18 19  2  0
 19 20  1  0
 20 21  2  0
 21 22  1  0
 22 23  2  0
 22 24  1  0
 24 25  1  0
 21 26  1  0
 26 27  2  0
 17 28  1  0
 28 29  2  0
 29  8  1  0
 29 14  1  0
 27 18  1  0
  1 30  1  0
  1 31  1  0
  1 32  1  0
  3 33  1  0
  3 34  1  0
  3 35  1  0
  4 36  1  0
  4 37  1  0
  4 38  1  0
 11 39  1  0
 11 40  1  0
 13 41  1  0
 15 42  1  0
 16 43  1  0
 19 44  1  0
 20 45  1  0
 24 46  1  0
 24 47  1  0
 25 48  1  0
 26 49  1  0
 27 50  1  0
 28 51  1  0
M  END
>  <UniqueID>  (28) 
28

>  <SMILES>  (28) 
CC(C)(C)OC(=O)n1c(C(N)=O)cc2ccc(-c3ccc(C(=O)CO)cc3)cc21

>  <Energy>  (28) 
94.09245848488669

>  <Genealogy>  (28) 
CC(C)(C)OC(=O)n1c(C(N)=O)cc2ccc(-c3ccc(C(=O)CO)cc3)cc21 (3D coordinates assigned)
CC(C)(C)OC(=O)n1c(C(N)=O)cc2ccc(-c3ccc(C(=O)CO)cc3)cc21 (optimized conformer: 94.09245848488669 kcal/mol)

>  <smiles>  (28) 
CC(C)(C)OC(=O)n1c(C(N)=O)cc2ccc(-c3ccc(C(=O)CO)cc3)cc21

>  <score_type>  (28) 
oracle

>  <origin>  (28) 
adg

>  <m_score__min__energy>  (28) 
-9.1400000000000006

>  <m_primary>  (28) 
energy

$$$$
28:0
     RDKit          3D

 35 37  0  0  0  0  0  0  0  0999 V2000
  149.7260  158.4680  132.4170 N   0  0  0  0  0  0  0  0  0  0  0  0
  148.8480  157.3720  132.6780 C   0  0  0  0  0  0  0  0  0  0  0  0
  149.2830  156.1940  132.5750 O   0  0  0  0  0  0  0  0  0  0  0  0
  147.4260  157.5970  132.9970 C   0  0  0  0  0  0  0  0  0  0  0  0
  146.5540  156.5800  133.3730 C   0  0  0  0  0  0  0  0  0  0  0  0
  145.3260  157.1870  133.5050 C   0  0  0  0  0  0  0  0  0  0  0  0
  144.1010  156.6490  133.8780 C   0  0  0  0  0  0  0  0  0  0  0  0
  143.0020  157.5170  133.9750 C   0  0  0  0  0  0  0  0  0  0  0  0
  143.1380  158.9020  133.7090 C   0  0  0  0  0  0  0  0  0  0  0  0
  141.8970  159.7680  133.8570 C   0  0  0  0  0  0  0  0  0  0  0  0
  140.5490  159.0710  133.7440 C   0  0  0  0  0  0  0  0  0  0  0  0
  141.0410  159.5650  135.1000 C   0  0  0  0  0  0  0  0  0  0  0  0
  144.4090  159.4120  133.3320 C   0  0  0  0  0  0  0  0  0  0  0  0
  145.4830  158.5190  133.2230 C   0  0  0  0  0  0  0  0  0  0  0  0
  146.7700  158.7880  132.9090 N   0  0  0  0  0  0  0  0  0  0  0  0
  147.3440  160.0860  132.6800 C   0  0  0  0  0  0  0  0  0  0  0  0
  147.5420  160.8690  133.6480 O   0  0  0  0  0  0  0  0  0  0  0  0
  147.7270  160.4800  131.3610 N   0  0  0  0  0  0  0  0  0  0  0  0
  148.8970  161.1340  131.1320 O   0  0  0  0  0  0  0  0  0  0  0  0
  149.5820  160.4180  130.1320 C   0  0  0  0  0  0  0  0  0  0  0  0
  150.7400  159.8330  130.6630 O   0  0  0  0  0  0  0  0  0  0  0  0
  149.3610  159.4430  132.3430 H   0  0  0  0  0  0  0  0  0  0  0  0
  150.7360  158.2950  132.2180 H   0  0  0  0  0  0  0  0  0  0  0  0
  146.7946  155.5183  133.5309 H   0  0  0  0  0  0  0  0  0  0  0  0
  143.9952  155.5750  134.0910 H   0  0  0  0  0  0  0  0  0  0  0  0
  142.0191  157.1153  134.2623 H   0  0  0  0  0  0  0  0  0  0  0  0
  142.3696  160.6364  133.3748 H   0  0  0  0  0  0  0  0  0  0  0  0
  139.7083  159.5766  133.2463 H   0  0  0  0  0  0  0  0  0  0  0  0
  140.2035  158.1053  133.3465 H   0  0  0  0  0  0  0  0  0  0  0  0
  140.5557  160.4272  135.5807 H   0  0  0  0  0  0  0  0  0  0  0  0
  141.1979  159.1039  136.0863 H   0  0  0  0  0  0  0  0  0  0  0  0
  144.5470  160.4845  133.1301 H   0  0  0  0  0  0  0  0  0  0  0  0
  148.9256  159.6295  129.7354 H   0  0  0  0  0  0  0  0  0  0  0  0
  149.8667  161.1102  129.3259 H   0  0  0  0  0  0  0  0  0  0  0  0
  151.0920  160.4650  131.3390 H   0  0  0  0  0  0  0  0  0  0  0  0
  1  2  1  0
  2  3  2  0
  2  4  1  0
  4  5  2  0
  5  6  1  0
  6  7  2  0
  7  8  1  0
  8  9  2  0
  9 10  1  0
 10 11  1  0
 11 12  1  0
  9 13  1  0
 13 14  2  0
 14 15  1  0
 15 16  1  0
 16 17  2  0
 16 18  1  0
 18 19  1  0
 19 20  1  0
 20 21  1  0
 15  4  1  0
 14  6  1  0
 12 10  1  0
  1 22  1  0
  1 23  1  0
  5 24  1  0
  7 25  1  0
  8 26  1  0
 10 27  1  0
 11 28  1  0
 11 29  1  0
 12 30  1  0
 12 31  1  0
 13 32  1  0
 20 33  1  0
 20 34  1  0
 21 35  1  0
M  CHG  1  18  -1
M  END
>  <UniqueID>  (29) 
29

>  <SMILES>  (29) 
NC(=O)c1cc2ccc(C3CC3)cc2n1C(=O)[N-]OCO

>  <Energy>  (29) 
342.29682125541615

>  <Genealogy>  (29) 
NC(=O)c1cc2ccc(C3CC3)cc2n1C(=O)[N-]OCO (protonated)
NC(=O)c1cc2ccc(C3CC3)cc2n1C(=O)[N-]OCO (3D coordinates assigned)
NC(=O)c1cc2ccc(C3CC3)cc2n1C(=O)[N-]OCO (nonaromatic ring conformer: 342.29682125541615 kcal/mol)

>  <smiles>  (29) 
NC(=O)c1cc2ccc(C3CC3)cc2n1C(=O)NOCO

>  <score_type>  (29) 
oracle

>  <origin>  (29) 
adg

>  <m_score__min__energy>  (29) 
-7.2300000000000004

>  <m_primary>  (29) 
energy

$$$$
29:0
     RDKit          3D

 38 39  0  0  0  0  0  0  0  0999 V2000
  139.8490  159.8450  136.3440 H   0  0  0  0  0  0  0  0  0  0  0  0
  140.8500  160.1090  136.2030 N   0  0  0  0  0  0  0  0  0  0  0  0
  141.5120  159.8440  134.9690 C   0  0  0  0  0  0  0  0  0  0  0  0
  141.9470  160.8060  134.2830 O   0  0  0  0  0  0  0  0  0  0  0  0
  141.6520  158.4510  134.4940 C   0  0  0  0  0  0  0  0  0  0  0  0
  142.8760  157.8650  134.1800 C   0  0  0  0  0  0  0  0  0  0  0  0
  143.8671  158.3420  134.1951 H   0  0  0  0  0  0  0  0  0  0  0  0
  142.5820  156.5630  133.8470 C   0  0  0  0  0  0  0  0  0  0  0  0
  143.4240  155.5350  133.4350 C   0  0  0  0  0  0  0  0  0  0  0  0
  144.5104  155.6890  133.3576 H   0  0  0  0  0  0  0  0  0  0  0  0
  142.8450  154.2950  133.1210 C   0  0  0  0  0  0  0  0  0  0  0  0
  143.4875  153.4615  132.8010 H   0  0  0  0  0  0  0  0  0  0  0  0
  141.4430  154.1030  133.2110 C   0  0  0  0  0  0  0  0  0  0  0  0
  140.8900  152.8170  132.8760 N   0  0  0  0  0  0  0  0  0  0  0  0
  140.1270  152.7810  132.1610 H   0  0  0  0  0  0  0  0  0  0  0  0
  141.3600  151.5650  133.4720 C   0  0  0  0  0  0  0  0  0  0  0  0
  141.2089  151.6039  134.5609 H   0  0  0  0  0  0  0  0  0  0  0  0
  142.4281  151.4410  133.2402 H   0  0  0  0  0  0  0  0  0  0  0  0
  140.6060  150.3990  132.9120 C   0  0  0  0  0  0  0  0  0  0  0  0
  140.8180  149.2410  133.3630 O   0  0  0  0  0  0  0  0  0  0  0  0
  139.6150  150.6140  131.9050 N   0  0  0  0  0  0  0  0  0  0  0  0
  139.1800  149.5660  130.9940 C   0  0  0  0  0  0  0  0  0  0  0  0
  138.8215  148.7023  131.5732 H   0  0  0  0  0  0  0  0  0  0  0  0
  138.3653  149.9461  130.3601 H   0  0  0  0  0  0  0  0  0  0  0  0
  140.0244  149.2574  130.3601 H   0  0  0  0  0  0  0  0  0  0  0  0
  140.6190  155.1780  133.6260 C   0  0  0  0  0  0  0  0  0  0  0  0
  139.5271  155.0589  133.6862 H   0  0  0  0  0  0  0  0  0  0  0  0
  141.2260  156.3960  133.9580 C   0  0  0  0  0  0  0  0  0  0  0  0
  140.6410  157.5450  134.3670 N   0  0  0  0  0  0  0  0  0  0  0  0
  139.2280  157.7850  134.5220 C   0  0  0  0  0  0  0  0  0  0  0  0
  138.7770  158.0960  135.6560 O   0  0  0  0  0  0  0  0  0  0  0  0
  138.2960  157.7830  133.3740 C   0  0  0  0  0  0  0  0  0  0  0  0
  137.4708  157.0562  133.4021 H   0  0  0  0  0  0  0  0  0  0  0  0
  138.3640  158.5860  132.3010 C   0  0  0  0  0  0  0  0  0  0  0  0
  137.5023  158.5813  131.6173 H   0  0  0  0  0  0  0  0  0  0  0  0
  139.4880  159.4730  131.9560 C   0  0  0  0  0  0  0  0  0  0  0  0
  140.5630  159.0170  131.4880 O   0  0  0  0  0  0  0  0  0  0  0  0
  139.3240  160.8480  132.0670 O   0  0  0  0  0  0  0  0  0  0  0  0
  1  2  1  0
  2  3  1  0
  3  4  2  0
  3  5  1  0
  5  6  2  0
  6  7  1  0
  6  8  1  0
  8  9  2  0
  9 10  1  0
  9 11  1  0
 11 12  1  0
 11 13  2  0
 13 14  1  0
 14 15  1  0
 14 16  1  0
 16 17  1  0
 16 18  1  0
 16 19  1  0
 19 20  2  0
 19 21  1  0
 21 22  1  0
 22 23  1  0
 22 24  1  0
 22 25  1  0
 13 26  1  0
 26 27  1  0
 26 28  2  0
 28 29  1  0
 29 30  1  0
 30 31  2  0
 30 32  1  0
 32 33  1  0
 32 34  2  0
 34 35  1  0
 34 36  1  0
 36 37  2  0
 36 38  1  0
 29  5  1  0
 28  8  1  0
M  CHG  3   2  -1  21  -1  38  -1
M  END
>  <UniqueID>  (30) 
30

>  <SMILES>  (30) 
C[N-]C(=O)CNc1ccc2cc(C([NH-])=O)n(C(=O)/C=C\C(=O)[O-])c2c1

>  <Energy>  (30) 
78.42570666872528

>  <Genealogy>  (30) 
C[N-]C(=O)CNc1ccc2cc(C([NH-])=O)n(C(=O)/C=C\C(=O)[O-])c2c1 (protonated)
C[N-]C(=O)CNc1ccc2cc(C([NH-])=O)n(C(=O)/C=C\C(=O)[O-])c2c1 (cis-trans isomerization)
C[N-]C(=O)CNc1ccc2cc(C([NH-])=O)n(C(=O)/C=C\C(=O)[O-])c2c1 (3D coordinates assigned)
C[N-]C(=O)CNc1ccc2cc(C([NH-])=O)n(C(=O)/C=C\C(=O)[O-])c2c1 (optimized conformer: 78.42570666872528 kcal/mol)

>  <smiles>  (30) 
CNC(=O)CNc1ccc2cc(C(N)=O)n(C(=O)/C=C\C(=O)O)c2c1

>  <score_type>  (30) 
oracle

>  <origin>  (30) 
adg

>  <m_score__min__energy>  (30) 
-6.9500000000000002

>  <m_primary>  (30) 
energy

$$$$
30:0
     RDKit          3D

 57 60  0  0  0  0  0  0  0  0999 V2000
  144.3390  154.2020  131.4770 C   0  0  0  0  0  0  0  0  0  0  0  0
  145.0520  153.3700  132.2350 C   0  0  0  0  0  0  0  0  0  0  0  0
  145.8630  153.8340  133.3760 C   0  0  0  0  0  0  0  0  0  0  0  0
  145.8050  153.2400  134.4860 O   0  0  0  0  0  0  0  0  0  0  0  0
  146.7200  154.9750  133.2250 N   0  0  0  0  0  0  0  0  0  0  0  0
  148.0760  154.9890  133.1070 C   0  0  0  0  0  0  0  0  0  0  0  0
  148.9530  153.8000  133.0540 C   0  0  0  0  0  0  0  0  0  0  0  0
  148.6460  152.6560  133.8470 N   0  0  0  0  0  0  0  0  0  0  0  0
  149.9750  153.7840  132.3200 O   0  0  0  0  0  0  0  0  0  0  0  0
  148.5370  156.2990  132.9810 C   0  0  0  0  0  0  0  0  0  0  0  0
  147.4120  157.0900  133.0300 C   0  0  0  0  0  0  0  0  0  0  0  0
  147.2820  158.4740  132.9740 C   0  0  0  0  0  0  0  0  0  0  0  0
  145.9910  159.0220  133.0780 C   0  0  0  0  0  0  0  0  0  0  0  0
  144.8550  158.1850  133.2420 C   0  0  0  0  0  0  0  0  0  0  0  0
  143.5350  158.7600  133.3660 N   0  0  0  0  0  0  0  0  0  0  0  0
  142.3490  157.9180  133.1320 C   0  0  0  0  0  0  0  0  0  0  0  0
  141.1080  158.7810  132.8890 C   0  0  0  0  0  0  0  0  0  0  0  0
  140.8450  159.7450  134.0840 C   0  0  0  0  0  0  0  0  0  0  0  0
  140.2590  159.0680  135.2820 N   0  0  0  0  0  0  0  0  0  0  0  0
  139.7490  157.7020  134.9560 C   0  0  0  0  0  0  0  0  0  0  0  0
  140.6530  156.5880  135.5040 C   0  0  0  0  0  0  0  0  0  0  0  0
  140.7450  156.6500  136.9800 N   0  0  0  0  0  0  0  0  0  0  0  0
  141.9400  155.9300  137.4500 C   0  0  0  0  0  0  0  0  0  0  0  0
  140.7030  158.0330  137.5140 C   0  0  0  0  0  0  0  0  0  0  0  0
  141.1490  159.0690  136.4730 C   0  0  0  0  0  0  0  0  0  0  0  0
  142.1640  160.4840  134.4880 C   0  0  0  0  0  0  0  0  0  0  0  0
  143.3650  160.2070  133.5710 C   0  0  0  0  0  0  0  0  0  0  0  0
  145.0320  156.7810  133.2980 C   0  0  0  0  0  0  0  0  0  0  0  0
  146.3270  156.2660  133.1780 C   0  0  0  0  0  0  0  0  0  0  0  0
  143.7486  153.8102  130.6356 H   0  0  0  0  0  0  0  0  0  0  0  0
  144.3408  155.2807  131.6926 H   0  0  0  0  0  0  0  0  0  0  0  0
  145.0351  152.2954  132.0007 H   0  0  0  0  0  0  0  0  0  0  0  0
  147.6710  152.2860  133.9030 H   0  0  0  0  0  0  0  0  0  0  0  0
  149.5797  156.6302  132.8666 H   0  0  0  0  0  0  0  0  0  0  0  0
  148.1633  159.1208  132.8519 H   0  0  0  0  0  0  0  0  0  0  0  0
  145.8591  160.1131  133.0318 H   0  0  0  0  0  0  0  0  0  0  0  0
  142.5253  157.2839  132.2507 H   0  0  0  0  0  0  0  0  0  0  0  0
  142.1769  157.2965  134.0231 H   0  0  0  0  0  0  0  0  0  0  0  0
  141.2583  159.3754  131.9757 H   0  0  0  0  0  0  0  0  0  0  0  0
  140.2385  158.1158  132.7822 H   0  0  0  0  0  0  0  0  0  0  0  0
  140.0960  160.4692  133.7311 H   0  0  0  0  0  0  0  0  0  0  0  0
  138.7453  157.5874  135.3914 H   0  0  0  0  0  0  0  0  0  0  0  0
  139.7292  157.6064  133.8603 H   0  0  0  0  0  0  0  0  0  0  0  0
  140.2377  155.6124  135.2112 H   0  0  0  0  0  0  0  0  0  0  0  0
  141.6619  156.7215  135.0865 H   0  0  0  0  0  0  0  0  0  0  0  0
  141.9540  155.9215  138.5499 H   0  0  0  0  0  0  0  0  0  0  0  0
  141.9159  154.8959  137.0756 H   0  0  0  0  0  0  0  0  0  0  0  0
  142.8429  156.4345  137.0756 H   0  0  0  0  0  0  0  0  0  0  0  0
  139.6726  158.2624  137.8235 H   0  0  0  0  0  0  0  0  0  0  0  0
  141.3977  158.0881  138.3651 H   0  0  0  0  0  0  0  0  0  0  0  0
  141.1287  160.0682  136.9327 H   0  0  0  0  0  0  0  0  0  0  0  0
  142.1653  158.8084  136.1426 H   0  0  0  0  0  0  0  0  0  0  0  0
  141.9671  161.5662  134.4764 H   0  0  0  0  0  0  0  0  0  0  0  0
  142.4398  160.1034  135.4825 H   0  0  0  0  0  0  0  0  0  0  0  0
  143.1974  160.6930  132.5985 H   0  0  0  0  0  0  0  0  0  0  0  0
  144.2734  160.6080  134.0443 H   0  0  0  0  0  0  0  0  0  0  0  0
  144.1704  156.1105  133.4328 H   0  0  0  0  0  0  0  0  0  0  0  0
  1  2  2  0
  2  3  1  0
  3  4  2  0
  3  5  1  0
  5  6  1  0
  6  7  1  0
  7  8  1  0
  7  9  2  0
  6 10  2  0
 10 11  1  0
 11 12  2  0
 12 13  1  0
 13 14  2  0
 14 15  1  0
 15 16  1  0
 16 17  1  0
 17 18  1  0
 18 19  1  0
 19 20  1  0
 20 21  1  0
 21 22  1  0
 22 23  1  0
 22 24  1  0
 24 25  1  0
 18 26  1  0
 26 27  1  0
 14 28  1  0
 28 29  2  0
 29  5  1  0
 29 11  1  0
 27 15  1  0
 25 19  1  0
  1 30  1  0
  1 31  1  0
  2 32  1  0
  8 33  1  0
 10 34  1  0
 12 35  1  0
 13 36  1  0
 16 37  1  0
 16 38  1  0
 17 39  1  0
 17 40  1  0
 18 41  1  0
 20 42  1  0
 20 43  1  0
 21 44  1  0
 21 45  1  0
 23 46  1  0
 23 47  1  0
 23 48  1  0
 24 49  1  0
 24 50  1  0
 25 51  1  0
 25 52  1  0
 26 53  1  0
 26 54  1  0
 27 55  1  0
 27 56  1  0
 28 57  1  0
M  CHG  1   8  -1
M  END
>  <UniqueID>  (31) 
31

>  <SMILES>  (31) 
C=CC(=O)n1c(C([NH-])=O)cc2ccc(N3CCC(N4CCN(C)CC4)CC3)cc21

>  <Energy>  (31) 
121.6252589301796

>  <Genealogy>  (31) 
C=CC(=O)n1c(C([NH-])=O)cc2ccc(N3CCC(N4CCN(C)CC4)CC3)cc21 (protonated)
C=CC(=O)n1c(C([NH-])=O)cc2ccc(N3CCC(N4CCN(C)CC4)CC3)cc21 (3D coordinates assigned)
C=CC(=O)n1c(C([NH-])=O)cc2ccc(N3CCC(N4CCN(C)CC4)CC3)cc21 (nonaromatic ring conformer: 121.6252589301796 kcal/mol)

>  <smiles>  (31) 
C=CC(=O)n1c(C(N)=O)cc2ccc(N3CCC(N4CCN(C)CC4)CC3)cc21

>  <score_type>  (31) 
oracle

>  <origin>  (31) 
adg

>  <m_score__min__energy>  (31) 
-8.5

>  <m_primary>  (31) 
energy

$$$$
31:0
     RDKit          3D

 51 53  0  0  0  0  0  0  0  0999 V2000
  146.4610  153.8160  133.0390 C   0  0  0  0  0  0  0  0  0  0  0  0
  147.6810  154.6160  132.8690 N   0  0  0  0  0  0  0  0  0  0  0  0
  148.9360  153.9630  132.4460 C   0  0  0  0  0  0  0  0  0  0  0  0
  149.1020  152.5160  132.9840 C   0  0  0  0  0  0  0  0  0  0  0  0
  148.8510  152.4160  134.3630 O   0  0  0  0  0  0  0  0  0  0  0  0
  150.3320  151.7330  132.5570 C   0  0  0  0  0  0  0  0  0  0  0  0
  149.5620  150.7810  131.8570 O   0  0  0  0  0  0  0  0  0  0  0  0
  148.3660  151.4350  132.2200 C   0  0  0  0  0  0  0  0  0  0  0  0
  147.5830  156.0500  132.9850 C   0  0  0  0  0  0  0  0  0  0  0  0
  148.7450  156.8530  132.8540 C   0  0  0  0  0  0  0  0  0  0  0  0
  148.6710  158.2500  132.9780 C   0  0  0  0  0  0  0  0  0  0  0  0
  147.4280  158.8170  133.2390 C   0  0  0  0  0  0  0  0  0  0  0  0
  147.0750  160.1380  133.3890 C   0  0  0  0  0  0  0  0  0  0  0  0
  145.7040  160.1270  133.6300 C   0  0  0  0  0  0  0  0  0  0  0  0
  144.9290  161.3430  133.9500 C   0  0  0  0  0  0  0  0  0  0  0  0
  143.5210  161.3880  133.7330 N   0  0  0  0  0  0  0  0  0  0  0  0
  145.5060  162.3320  134.4750 O   0  0  0  0  0  0  0  0  0  0  0  0
  145.2220  158.8520  133.6160 N   0  0  0  0  0  0  0  0  0  0  0  0
  143.8440  158.4430  133.6810 C   0  0  0  0  0  0  0  0  0  0  0  0
  143.3140  157.8630  132.6950 O   0  0  0  0  0  0  0  0  0  0  0  0
  143.0970  158.7230  134.8360 O   0  0  0  0  0  0  0  0  0  0  0  0
  141.6690  158.6670  134.9630 C   0  0  0  0  0  0  0  0  0  0  0  0
  141.2290  159.2740  136.3080 C   0  0  0  0  0  0  0  0  0  0  0  0
  140.9840  159.3890  133.7860 C   0  0  0  0  0  0  0  0  0  0  0  0
  141.2700  157.1840  134.9320 C   0  0  0  0  0  0  0  0  0  0  0  0
  146.2930  158.0600  133.3810 C   0  0  0  0  0  0  0  0  0  0  0  0
  146.3370  156.6660  133.2520 C   0  0  0  0  0  0  0  0  0  0  0  0
  146.2568  153.6821  134.1116 H   0  0  0  0  0  0  0  0  0  0  0  0
  145.6137  154.3344  132.5664 H   0  0  0  0  0  0  0  0  0  0  0  0
  146.5988  152.8323  132.5664 H   0  0  0  0  0  0  0  0  0  0  0  0
  148.9556  153.9286  131.3467 H   0  0  0  0  0  0  0  0  0  0  0  0
  149.7625  154.5567  132.8636 H   0  0  0  0  0  0  0  0  0  0  0  0
  148.5920  151.4740  134.5370 H   0  0  0  0  0  0  0  0  0  0  0  0
  151.0144  152.3056  131.9117 H   0  0  0  0  0  0  0  0  0  0  0  0
  151.0375  151.3866  133.3266 H   0  0  0  0  0  0  0  0  0  0  0  0
  147.7970  151.8169  131.3595 H   0  0  0  0  0  0  0  0  0  0  0  0
  147.5812  150.8610  132.7344 H   0  0  0  0  0  0  0  0  0  0  0  0
  149.7155  156.3759  132.6529 H   0  0  0  0  0  0  0  0  0  0  0  0
  149.5688  158.8767  132.8719 H   0  0  0  0  0  0  0  0  0  0  0  0
  147.7353  161.0159  133.3309 H   0  0  0  0  0  0  0  0  0  0  0  0
  142.9690  160.5100  133.6130 H   0  0  0  0  0  0  0  0  0  0  0  0
  141.6559  158.6851  137.1332 H   0  0  0  0  0  0  0  0  0  0  0  0
  141.5856  160.3124  136.3758 H   0  0  0  0  0  0  0  0  0  0  0  0
  140.1312  159.2581  136.3758 H   0  0  0  0  0  0  0  0  0  0  0  0
  140.2760  160.1353  134.1756 H   0  0  0  0  0  0  0  0  0  0  0  0
  141.7451  159.8917  133.1712 H   0  0  0  0  0  0  0  0  0  0  0  0
  140.4420  158.6553  133.1712 H   0  0  0  0  0  0  0  0  0  0  0  0
  141.1693  156.8098  135.9615 H   0  0  0  0  0  0  0  0  0  0  0  0
  140.3102  157.0735  134.4062 H   0  0  0  0  0  0  0  0  0  0  0  0
  142.0448  156.6068  134.4062 H   0  0  0  0  0  0  0  0  0  0  0  0
  145.4229  156.0630  133.3560 H   0  0  0  0  0  0  0  0  0  0  0  0
  1  2  1  0
  2  3  1  0
  3  4  1  0
  4  5  1  0
  4  6  1  0
  6  7  1  0
  7  8  1  0
  2  9  1  0
  9 10  2  0
 10 11  1  0
 11 12  2  0
 12 13  1  0
 13 14  2  0
 14 15  1  0
 15 16  1  0
 15 17  2  0
 14 18  1  0
 18 19  1  0
 19 20  2  0
 19 21  1  0
 21 22  1  0
 22 23  1  0
 22 24  1  0
 22 25  1  0
 18 26  1  0
 26 27  2  0
  8  4  1  0
 27  9  1  0
 26 12  1  0
  1 28  1  0
  1 29  1  0
  1 30  1  0
  3 31  1  0
  3 32  1  0
  5 33  1  0
  6 34  1  0
  6 35  1  0
  8 36  1  0
  8 37  1  0
 10 38  1  0
 11 39  1  0
 13 40  1  0
 16 41  1  0
 23 42  1  0
 23 43  1  0
 23 44  1  0
 24 45  1  0
 24 46  1  0
 24 47  1  0
 25 48  1  0
 25 49  1  0
 25 50  1  0
 27 51  1  0
M  CHG  1  16  -1
M  END
>  <UniqueID>  (32) 
32

>  <SMILES>  (32) 
CN(CC1(O)COC1)c1ccc2cc(C([NH-])=O)n(C(=O)OC(C)(C)C)c2c1

>  <Energy>  (32) 
155.26374653479127

>  <Genealogy>  (32) 
CN(CC1(O)COC1)c1ccc2cc(C([NH-])=O)n(C(=O)OC(C)(C)C)c2c1 (protonated)
CN(CC1(O)COC1)c1ccc2cc(C([NH-])=O)n(C(=O)OC(C)(C)C)c2c1 (3D coordinates assigned)
CN(CC1(O)COC1)c1ccc2cc(C([NH-])=O)n(C(=O)OC(C)(C)C)c2c1 (nonaromatic ring conformer: 155.26374653479127 kcal/mol)

>  <smiles>  (32) 
CN(CC1(O)COC1)c1ccc2cc(C(N)=O)n(C(=O)OC(C)(C)C)c2c1

>  <score_type>  (32) 
oracle

>  <origin>  (32) 
adg

>  <m_score__min__energy>  (32) 
-7.4900000000000002

>  <m_primary>  (32) 
energy

$$$$
33:0
     RDKit          3D

 43 44  0  0  0  0  0  0  0  0999 V2000
  139.1040  160.3580  131.5790 C   0  0  0  0  0  0  0  0  0  0  0  0
  138.9070  159.3760  132.6490 N   0  0  0  0  0  0  0  0  0  0  0  0
  139.1040  158.0000  132.1690 C   0  0  0  0  0  0  0  0  0  0  0  0
  139.5240  157.0750  133.2730 C   0  0  0  0  0  0  0  0  0  0  0  0
  139.3410  157.4130  134.4750 O   0  0  0  0  0  0  0  0  0  0  0  0
  140.1540  155.8670  132.9560 O   0  0  0  0  0  0  0  0  0  0  0  0
  141.2230  155.3090  133.7230 C   0  0  1  0  0  0  0  0  0  0  0  0
  141.5070  153.8750  133.2680 C   0  0  0  0  0  0  0  0  0  0  0  0
  142.4600  156.1510  133.5470 C   0  0  0  0  0  0  0  0  0  0  0  0
  143.2660  155.8850  132.6150 O   0  0  0  0  0  0  0  0  0  0  0  0
  142.7730  157.2510  134.4820 C   0  0  0  0  0  0  0  0  0  0  0  0
  142.3800  157.1920  135.6790 O   0  0  0  0  0  0  0  0  0  0  0  0
  143.5300  158.3910  134.0440 N   0  0  0  0  0  0  0  0  0  0  0  0
  143.1000  159.6790  133.9240 C   0  0  0  0  0  0  0  0  0  0  0  0
  141.7120  160.1450  134.1180 C   0  0  0  0  0  0  0  0  0  0  0  0
  140.9140  159.5880  135.1610 N   0  0  0  0  0  0  0  0  0  0  0  0
  141.2270  161.0480  133.3850 O   0  0  0  0  0  0  0  0  0  0  0  0
  144.1510  160.5100  133.5400 C   0  0  0  0  0  0  0  0  0  0  0  0
  145.2490  159.6840  133.4320 C   0  0  0  0  0  0  0  0  0  0  0  0
  146.5660  159.9830  133.1000 C   0  0  0  0  0  0  0  0  0  0  0  0
  147.4990  158.9310  133.0970 C   0  0  0  0  0  0  0  0  0  0  0  0
  147.1030  157.6120  133.4320 C   0  0  0  0  0  0  0  0  0  0  0  0
  148.1190  156.5050  133.4330 C   0  0  0  0  0  0  0  0  0  0  0  0
  148.1130  155.8670  134.6610 F   0  0  0  0  0  0  0  0  0  0  0  0
  147.8140  155.5920  132.4410 F   0  0  0  0  0  0  0  0  0  0  0  0
  145.7570  157.3490  133.7720 C   0  0  0  0  0  0  0  0  0  0  0  0
  144.8460  158.4110  133.7440 C   0  0  0  0  0  0  0  0  0  0  0  0
  139.3022  161.3460  132.0200 H   0  0  0  0  0  0  0  0  0  0  0  0
  139.9594  160.0558  130.9569 H   0  0  0  0  0  0  0  0  0  0  0  0
  138.1982  160.4092  130.9569 H   0  0  0  0  0  0  0  0  0  0  0  0
  139.5900  159.5770  133.4180 H   0  0  0  0  0  0  0  0  0  0  0  0
  138.1594  157.6349  131.7397 H   0  0  0  0  0  0  0  0  0  0  0  0
  139.9043  158.0144  131.4145 H   0  0  0  0  0  0  0  0  0  0  0  0
  140.9344  155.2949  134.7844 H   0  0  0  0  0  0  0  0  0  0  0  0
  141.6349  153.2292  134.1493 H   0  0  0  0  0  0  0  0  0  0  0  0
  140.6640  153.5083  132.6639 H   0  0  0  0  0  0  0  0  0  0  0  0
  142.4261  153.8572  132.6639 H   0  0  0  0  0  0  0  0  0  0  0  0
  140.7710  158.5550  135.2340 H   0  0  0  0  0  0  0  0  0  0  0  0
  144.1123  161.5947  133.3611 H   0  0  0  0  0  0  0  0  0  0  0  0
  146.8683  161.0101  132.8477 H   0  0  0  0  0  0  0  0  0  0  0  0
  148.5471  159.1338  132.8319 H   0  0  0  0  0  0  0  0  0  0  0  0
  149.1159  156.9307  133.2460 H   0  0  0  0  0  0  0  0  0  0  0  0
  145.4335  156.3355  134.0515 H   0  0  0  0  0  0  0  0  0  0  0  0
  1  2  1  0
  2  3  1  0
  3  4  1  0
  4  5  2  0
  4  6  1  0
  6  7  1  0
  7  8  1  0
  7  9  1  0
  9 10  2  0
  9 11  1  0
 11 12  2  0
 11 13  1  0
 13 14  1  0
 14 15  1  0
 15 16  1  0
 15 17  2  0
 14 18  2  0
 18 19  1  0
 19 20  2  0
 20 21  1  0
 21 22  2  0
 22 23  1  0
 23 24  1  0
 23 25  1  0
 22 26  1  0
 26 27  2  0
 27 13  1  0
 27 19  1  0
  1 28  1  0
  1 29  1  0
  1 30  1  0
  2 31  1  0
  3 32  1  0
  3 33  1  0
  7 34  1  1
  8 35  1  0
  8 36  1  0
  8 37  1  0
 16 38  1  0
 18 39  1  0
 20 40  1  0
 21 41  1  0
 23 42  1  0
 26 43  1  0
M  CHG  1  16  -1
M  END
>  <UniqueID>  (33) 
33

>  <SMILES>  (33) 
CNCC(=O)O[C@@H](C)C(=O)C(=O)n1c(C([NH-])=O)cc2ccc(C(F)F)cc21

>  <Energy>  (33) 
75.84409935364941

>  <Genealogy>  (33) 
CNCC(=O)OC(C)C(=O)C(=O)n1c(C([NH-])=O)cc2ccc(C(F)F)cc21 (protonated)
CNCC(=O)O[C@@H](C)C(=O)C(=O)n1c(C([NH-])=O)cc2ccc(C(F)F)cc21 (chirality)
CNCC(=O)O[C@@H](C)C(=O)C(=O)n1c(C([NH-])=O)cc2ccc(C(F)F)cc21 (3D coordinates assigned)
CNCC(=O)O[C@@H](C)C(=O)C(=O)n1c(C([NH-])=O)cc2ccc(C(F)F)cc21 (optimized conformer: 75.84409935364941 kcal/mol)

>  <smiles>  (33) 
CNCC(=O)OC(C)C(=O)C(=O)n1c(C(N)=O)cc2ccc(C(F)F)cc21

>  <score_type>  (33) 
oracle

>  <origin>  (33) 
adg

>  <m_score__min__energy>  (33) 
-5.7199999999999998

>  <m_primary>  (33) 
energy

$$$$
35:0
     RDKit          3D

 35 36  0  0  0  0  0  0  0  0999 V2000
  145.2940  154.8280  132.1260 C   0  0  0  0  0  0  0  0  0  0  0  0
  145.3000  155.0780  133.5700 N   0  0  0  0  0  0  0  0  0  0  0  0
  146.3430  154.4620  134.4010 C   0  0  0  0  0  0  0  0  0  0  0  0
  147.6720  155.1120  134.1640 C   0  0  0  0  0  0  0  0  0  0  0  0
  148.4200  154.6990  133.2410 O   0  0  0  0  0  0  0  0  0  0  0  0
  148.1110  156.1360  134.9960 O   0  0  0  0  0  0  0  0  0  0  0  0
  144.3420  156.0140  134.1120 C   0  0  0  0  0  0  0  0  0  0  0  0
  143.9390  155.8610  135.2970 O   0  0  0  0  0  0  0  0  0  0  0  0
  143.8150  157.1590  133.3340 C   0  0  0  0  0  0  0  0  0  0  0  0
  142.7920  157.0310  132.6110 O   0  0  0  0  0  0  0  0  0  0  0  0
  144.4810  158.4300  133.3770 N   0  0  0  0  0  0  0  0  0  0  0  0
  143.9120  159.6580  133.5230 C   0  0  0  0  0  0  0  0  0  0  0  0
  142.4760  159.9180  133.7540 C   0  0  0  0  0  0  0  0  0  0  0  0
  141.5190  159.5600  132.7590 N   0  0  0  0  0  0  0  0  0  0  0  0
  142.0840  160.4670  134.8180 O   0  0  0  0  0  0  0  0  0  0  0  0
  144.8850  160.6550  133.4600 C   0  0  0  0  0  0  0  0  0  0  0  0
  146.0750  159.9920  133.2610 C   0  0  0  0  0  0  0  0  0  0  0  0
  147.3660  160.4890  133.1020 C   0  0  0  0  0  0  0  0  0  0  0  0
  148.4030  159.5670  132.8790 C   0  0  0  0  0  0  0  0  0  0  0  0
  148.1320  158.1790  132.8120 C   0  0  0  0  0  0  0  0  0  0  0  0
  149.1950  157.2530  132.5740 N   0  0  0  0  0  0  0  0  0  0  0  0
  146.8110  157.7110  132.9740 C   0  0  0  0  0  0  0  0  0  0  0  0
  145.8020  158.6500  133.2100 C   0  0  0  0  0  0  0  0  0  0  0  0
  145.2680  153.7439  131.9417 H   0  0  0  0  0  0  0  0  0  0  0  0
  144.4069  155.2978  131.6762 H   0  0  0  0  0  0  0  0  0  0  0  0
  146.2026  155.2547  131.6762 H   0  0  0  0  0  0  0  0  0  0  0  0
  146.0715  154.5745  135.4610 H   0  0  0  0  0  0  0  0  0  0  0  0
  146.4208  153.3978  134.1339 H   0  0  0  0  0  0  0  0  0  0  0  0
  141.7500  158.8620  132.0180 H   0  0  0  0  0  0  0  0  0  0  0  0
  144.7337  161.7408  133.5502 H   0  0  0  0  0  0  0  0  0  0  0  0
  147.5678  161.5693  133.1495 H   0  0  0  0  0  0  0  0  0  0  0  0
  149.4350  159.9272  132.7553 H   0  0  0  0  0  0  0  0  0  0  0  0
  149.6480  157.1890  131.6340 H   0  0  0  0  0  0  0  0  0  0  0  0
  149.5360  156.6230  133.3340 H   0  0  0  0  0  0  0  0  0  0  0  0
  146.5810  156.6369  132.9162 H   0  0  0  0  0  0  0  0  0  0  0  0
  1  2  1  0
  2  3  1  0
  3  4  1  0
  4  5  2  0
  4  6  1  0
  2  7  1  0
  7  8  2  0
  7  9  1  0
  9 10  2  0
  9 11  1  0
 11 12  1  0
 12 13  1  0
 13 14  1  0
 13 15  2  0
 12 16  2  0
 16 17  1  0
 17 18  2  0
 18 19  1  0
 19 20  2  0
 20 21  1  0
 20 22  1  0
 22 23  2  0
 23 11  1  0
 23 17  1  0
  1 24  1  0
  1 25  1  0
  1 26  1  0
  3 27  1  0
  3 28  1  0
 14 29  1  0
 16 30  1  0
 18 31  1  0
 19 32  1  0
 21 33  1  0
 21 34  1  0
 22 35  1  0
M  CHG  2   6  -1  14  -1
M  END
>  <UniqueID>  (34) 
34

>  <SMILES>  (34) 
CN(CC(=O)[O-])C(=O)C(=O)n1c(C([NH-])=O)cc2ccc(N)cc21

>  <Energy>  (34) 
74.75556208814459

>  <Genealogy>  (34) 
CN(CC(=O)[O-])C(=O)C(=O)n1c(C([NH-])=O)cc2ccc(N)cc21 (protonated)
CN(CC(=O)[O-])C(=O)C(=O)n1c(C([NH-])=O)cc2ccc(N)cc21 (3D coordinates assigned)
CN(CC(=O)[O-])C(=O)C(=O)n1c(C([NH-])=O)cc2ccc(N)cc21 (optimized conformer: 74.75556208814459 kcal/mol)

>  <smiles>  (34) 
CN(CC(=O)O)C(=O)C(=O)n1c(C(N)=O)cc2ccc(N)cc21

>  <score_type>  (34) 
oracle

>  <origin>  (34) 
adg

>  <m_score__min__energy>  (34) 
-6.4800000000000004

>  <m_primary>  (34) 
energy

$$$$
36:0
     RDKit          3D

 44 45  0  0  0  0  0  0  0  0999 V2000
  139.1040  157.8470  134.6910 C   0  0  0  0  0  0  0  0  0  0  0  0
  140.3000  158.1700  133.7710 C   0  0  1  0  0  0  0  0  0  0  0  0
  139.8420  158.9300  132.5470 C   0  0  0  0  0  0  0  0  0  0  0  0
  140.3340  160.0620  132.2960 O   0  0  0  0  0  0  0  0  0  0  0  0
  138.8470  158.4210  131.7210 O   0  0  0  0  0  0  0  0  0  0  0  0
  141.4200  158.8770  134.4560 N   0  0  1  0  0  0  0  0  0  0  0  0
  141.0870  159.3540  135.8150 C   0  0  0  0  0  0  0  0  0  0  0  0
  142.6150  158.0530  134.4700 C   0  0  0  0  0  0  0  0  0  0  0  0
  142.8760  157.3200  135.4640 O   0  0  0  0  0  0  0  0  0  0  0  0
  143.5190  158.0070  133.2990 C   0  0  0  0  0  0  0  0  0  0  0  0
  143.1540  157.4340  132.2380 O   0  0  0  0  0  0  0  0  0  0  0  0
  144.8230  158.6040  133.3630 N   0  0  0  0  0  0  0  0  0  0  0  0
  145.1310  159.9230  133.5040 C   0  0  0  0  0  0  0  0  0  0  0  0
  144.1590  161.0150  133.7170 C   0  0  0  0  0  0  0  0  0  0  0  0
  142.7810  160.8090  133.4130 N   0  0  0  0  0  0  0  0  0  0  0  0
  144.5330  162.1360  134.1510 O   0  0  0  0  0  0  0  0  0  0  0  0
  146.5130  160.1070  133.4660 C   0  0  0  0  0  0  0  0  0  0  0  0
  147.0440  158.8490  133.2910 C   0  0  0  0  0  0  0  0  0  0  0  0
  148.3690  158.4430  133.1580 C   0  0  0  0  0  0  0  0  0  0  0  0
  148.6220  157.0760  132.9490 C   0  0  0  0  0  0  0  0  0  0  0  0
  147.5540  156.1470  132.8770 C   0  0  0  0  0  0  0  0  0  0  0  0
  147.8310  154.6920  132.6090 C   0  0  0  0  0  0  0  0  0  0  0  0
  149.3340  154.4240  132.5880 C   0  0  0  0  0  0  0  0  0  0  0  0
  149.5890  153.2540  131.8640 O   0  0  0  0  0  0  0  0  0  0  0  0
  146.2220  156.5980  133.0010 C   0  0  0  0  0  0  0  0  0  0  0  0
  146.0020  157.9610  133.2280 C   0  0  0  0  0  0  0  0  0  0  0  0
  139.4167  157.9315  135.7422 H   0  0  0  0  0  0  0  0  0  0  0  0
  138.2872  158.5567  134.4933 H   0  0  0  0  0  0  0  0  0  0  0  0
  138.7555  156.8226  134.4933 H   0  0  0  0  0  0  0  0  0  0  0  0
  140.7135  157.1993  133.4599 H   0  0  0  0  0  0  0  0  0  0  0  0
  141.6410  159.7380  133.9010 H   0  0  0  0  0  0  0  0  0  0  0  0
  141.5502  158.6905  136.5602 H   0  0  0  0  0  0  0  0  0  0  0  0
  141.4680  160.3773  135.9480 H   0  0  0  0  0  0  0  0  0  0  0  0
  139.9951  159.3491  135.9480 H   0  0  0  0  0  0  0  0  0  0  0  0
  142.4870  160.1000  132.7050 H   0  0  0  0  0  0  0  0  0  0  0  0
  147.0621  161.0558  133.5566 H   0  0  0  0  0  0  0  0  0  0  0  0
  149.1929  159.1697  133.2147 H   0  0  0  0  0  0  0  0  0  0  0  0
  149.6585  156.7241  132.8403 H   0  0  0  0  0  0  0  0  0  0  0  0
  147.3668  154.0844  133.3998 H   0  0  0  0  0  0  0  0  0  0  0  0
  147.4106  154.4267  131.6277 H   0  0  0  0  0  0  0  0  0  0  0  0
  149.8507  155.2701  132.1114 H   0  0  0  0  0  0  0  0  0  0  0  0
  149.6996  154.3046  133.6186 H   0  0  0  0  0  0  0  0  0  0  0  0
  150.5360  153.3110  131.5730 H   0  0  0  0  0  0  0  0  0  0  0  0
  145.3789  155.8960  132.9212 H   0  0  0  0  0  0  0  0  0  0  0  0
  1  2  1  0
  2  3  1  0
  3  4  2  0
  3  5  1  0
  2  6  1  0
  6  7  1  0
  6  8  1  0
  8  9  2  0
  8 10  1  0
 10 11  2  0
 10 12  1  0
 12 13  1  0
 13 14  1  0
 14 15  1  0
 14 16  2  0
 13 17  2  0
 17 18  1  0
 18 19  2  0
 19 20  1  0
 20 21  2  0
 21 22  1  0
 22 23  1  0
 23 24  1  0
 21 25  1  0
 25 26  2  0
 26 12  1  0
 26 18  1  0
  1 27  1  0
  1 28  1  0
  1 29  1  0
  2 30  1  6
  6 31  1  6
  7 32  1  0
  7 33  1  0
  7 34  1  0
 15 35  1  0
 17 36  1  0
 19 37  1  0
 20 38  1  0
 22 39  1  0
 22 40  1  0
 23 41  1  0
 23 42  1  0
 24 43  1  0
 25 44  1  0
M  CHG  3   5  -1   6   1  15  -1
M  END
>  <UniqueID>  (35) 
35

>  <SMILES>  (35) 
C[C@@H](C(=O)[O-])[N@@H+](C)C(=O)C(=O)n1c(C([NH-])=O)cc2ccc(CCO)cc21

>  <Energy>  (35) 
84.52107490429074

>  <Genealogy>  (35) 
CC(C(=O)[O-])[NH+](C)C(=O)C(=O)n1c(C([NH-])=O)cc2ccc(CCO)cc21 (protonated)
C[C@@H](C(=O)[O-])[N@@H+](C)C(=O)C(=O)n1c(C([NH-])=O)cc2ccc(CCO)cc21 (chirality)
C[C@@H](C(=O)[O-])[N@@H+](C)C(=O)C(=O)n1c(C([NH-])=O)cc2ccc(CCO)cc21 (3D coordinates assigned)
C[C@@H](C(=O)[O-])[N@@H+](C)C(=O)C(=O)n1c(C([NH-])=O)cc2ccc(CCO)cc21 (optimized conformer: 84.52107490429074 kcal/mol)

>  <smiles>  (35) 
CC(C(=O)O)N(C)C(=O)C(=O)n1c(C(N)=O)cc2ccc(CCO)cc21

>  <score_type>  (35) 
oracle

>  <origin>  (35) 
adg

>  <m_score__min__energy>  (35) 
-6.04

>  <m_primary>  (35) 
energy

$$$$
37:0
     RDKit          3D

 49 51  0  0  0  0  0  0  0  0999 V2000
  140.5960  152.9140  133.2920 C   0  0  0  0  0  0  0  0  0  0  0  0
  141.2960  151.7590  132.7140 N   0  0  0  0  0  0  0  0  0  0  0  0
  140.5270  150.7010  132.0480 C   0  0  0  0  0  0  0  0  0  0  0  0
  142.7410  151.6920  132.7670 C   0  0  0  0  0  0  0  0  0  0  0  0
  143.5480  150.3590  132.2420 S   0  0  0  0  0  0  0  0  0  0  0  0
  143.5100  152.8300  133.1880 N   0  0  0  0  0  0  0  0  0  0  0  0
  143.6870  153.0890  134.6230 C   0  0  0  0  0  0  0  0  0  0  0  0
  144.9560  153.9020  134.8900 C   0  0  0  0  0  0  0  0  0  0  0  0
  145.0000  155.0810  134.0190 N   0  0  0  0  0  0  0  0  0  0  0  0
  145.6690  156.2730  134.4670 C   0  0  0  0  0  0  0  0  0  0  0  0
  146.5580  156.2020  135.3530 O   0  0  0  0  0  0  0  0  0  0  0  0
  145.3460  157.5510  133.8950 N   0  0  0  0  0  0  0  0  0  0  0  0
  146.1900  158.4390  133.2990 C   0  0  0  0  0  0  0  0  0  0  0  0
  147.6170  158.2060  132.9890 C   0  0  0  0  0  0  0  0  0  0  0  0
  148.5060  157.6300  133.9480 N   0  0  0  0  0  0  0  0  0  0  0  0
  148.0520  158.4860  131.8390 O   0  0  0  0  0  0  0  0  0  0  0  0
  145.5170  159.6180  132.9880 C   0  0  0  0  0  0  0  0  0  0  0  0
  144.2190  159.4150  133.4000 C   0  0  0  0  0  0  0  0  0  0  0  0
  143.1210  160.2690  133.3600 C   0  0  0  0  0  0  0  0  0  0  0  0
  141.9090  159.8100  133.9080 C   0  0  0  0  0  0  0  0  0  0  0  0
  141.8140  158.5120  134.4700 C   0  0  0  0  0  0  0  0  0  0  0  0
  140.5320  158.0630  135.1130 C   0  0  0  0  0  0  0  0  0  0  0  0
  139.4560  158.3680  134.3010 F   0  0  0  0  0  0  0  0  0  0  0  0
  140.3830  158.7020  136.3290 F   0  0  0  0  0  0  0  0  0  0  0  0
  142.9540  157.6770  134.5020 C   0  0  0  0  0  0  0  0  0  0  0  0
  144.1420  158.1580  133.9410 C   0  0  0  0  0  0  0  0  0  0  0  0
  144.5420  154.9910  132.6230 C   0  0  0  0  0  0  0  0  0  0  0  0
  144.3210  153.5400  132.1940 C   0  0  0  0  0  0  0  0  0  0  0  0
  140.6328  152.8533  134.3897 H   0  0  0  0  0  0  0  0  0  0  0  0
  141.0836  153.8423  132.9596 H   0  0  0  0  0  0  0  0  0  0  0  0
  139.5474  152.9112  132.9596 H   0  0  0  0  0  0  0  0  0  0  0  0
  140.0582  150.0560  132.8058 H   0  0  0  0  0  0  0  0  0  0  0  0
  139.7467  151.1551  131.4195 H   0  0  0  0  0  0  0  0  0  0  0  0
  141.1997  150.0990  131.4195 H   0  0  0  0  0  0  0  0  0  0  0  0
  142.8173  153.6500  134.9956 H   0  0  0  0  0  0  0  0  0  0  0  0
  143.7787  152.1230  135.1410 H   0  0  0  0  0  0  0  0  0  0  0  0
  144.9639  154.2271  135.9408 H   0  0  0  0  0  0  0  0  0  0  0  0
  145.8337  153.2721  134.6828 H   0  0  0  0  0  0  0  0  0  0  0  0
  149.5220  157.5330  133.7260 H   0  0  0  0  0  0  0  0  0  0  0  0
  148.1500  157.2150  134.8350 H   0  0  0  0  0  0  0  0  0  0  0  0
  145.9336  160.5191  132.5143 H   0  0  0  0  0  0  0  0  0  0  0  0
  143.1981  161.2715  132.9139 H   0  0  0  0  0  0  0  0  0  0  0  0
  141.0256  160.4655  133.9002 H   0  0  0  0  0  0  0  0  0  0  0  0
  140.5690  156.9739  135.2631 H   0  0  0  0  0  0  0  0  0  0  0  0
  142.9084  156.6760  134.9557 H   0  0  0  0  0  0  0  0  0  0  0  0
  143.5947  155.5410  132.5222 H   0  0  0  0  0  0  0  0  0  0  0  0
  145.3198  155.4252  131.9777 H   0  0  0  0  0  0  0  0  0  0  0  0
  143.8017  153.5240  131.2244 H   0  0  0  0  0  0  0  0  0  0  0  0
  145.2975  153.0409  132.1086 H   0  0  0  0  0  0  0  0  0  0  0  0
  1  2  1  0
  2  3  1  0
  2  4  1  0
  4  5  2  0
  4  6  1  0
  6  7  1  0
  7  8  1  0
  8  9  1  0
  9 10  1  0
 10 11  2  0
 10 12  1  0
 12 13  1  0
 13 14  1  0
 14 15  1  0
 14 16  2  0
 13 17  2  0
 17 18  1  0
 18 19  2  0
 19 20  1  0
 20 21  2  0
 21 22  1  0
 22 23  1  0
 22 24  1  0
 21 25  1  0
 25 26  2  0
  9 27  1  0
 27 28  1  0
 28  6  1  0
 26 12  1  0
 26 18  1  0
  1 29  1  0
  1 30  1  0
  1 31  1  0
  3 32  1  0
  3 33  1  0
  3 34  1  0
  7 35  1  0
  7 36  1  0
  8 37  1  0
  8 38  1  0
 15 39  1  0
 15 40  1  0
 17 41  1  0
 19 42  1  0
 20 43  1  0
 22 44  1  0
 25 45  1  0
 27 46  1  0
 27 47  1  0
 28 48  1  0
 28 49  1  0
M  END
>  <UniqueID>  (36) 
36

>  <SMILES>  (36) 
CN(C)C(=S)N1CCN(C(=O)n2c(C(N)=O)cc3ccc(C(F)F)cc32)CC1

>  <Energy>  (36) 
92.92037745750773

>  <Genealogy>  (36) 
CN(C)C(=S)N1CCN(C(=O)n2c(C(N)=O)cc3ccc(C(F)F)cc32)CC1 (3D coordinates assigned)
CN(C)C(=S)N1CCN(C(=O)n2c(C(N)=O)cc3ccc(C(F)F)cc32)CC1 (nonaromatic ring conformer: 92.92037745750773 kcal/mol)

>  <smiles>  (36) 
CN(C)C(=S)N1CCN(C(=O)n2c(C(N)=O)cc3ccc(C(F)F)cc32)CC1

>  <score_type>  (36) 
oracle

>  <origin>  (36) 
adg

>  <m_score__min__energy>  (36) 
-7.4199999999999999

>  <m_primary>  (36) 
energy

$$$$
38:0
     RDKit          3D

 41 42  0  0  0  0  0  0  0  0999 V2000
  142.3720  159.7060  133.4200 N   0  0  0  0  0  0  0  0  0  0  0  0
  143.6850  160.1860  133.7120 C   0  0  0  0  0  0  0  0  0  0  0  0
  143.8360  161.3820  134.0920 O   0  0  0  0  0  0  0  0  0  0  0  0
  144.8680  159.3140  133.5370 C   0  0  0  0  0  0  0  0  0  0  0  0
  146.1390  159.7830  133.2050 C   0  0  0  0  0  0  0  0  0  0  0  0
  146.9180  158.6560  133.0580 C   0  0  0  0  0  0  0  0  0  0  0  0
  148.2630  158.5300  132.7200 C   0  0  0  0  0  0  0  0  0  0  0  0
  148.7980  157.2310  132.6240 C   0  0  0  0  0  0  0  0  0  0  0  0
  147.9830  156.0920  132.8580 C   0  0  0  0  0  0  0  0  0  0  0  0
  148.5650  154.7150  132.7150 C   0  0  0  0  0  0  0  0  0  0  0  0
  149.8810  154.8020  132.2960 F   0  0  0  0  0  0  0  0  0  0  0  0
  148.5150  154.0580  133.9300 F   0  0  0  0  0  0  0  0  0  0  0  0
  146.6270  156.2610  133.2170 C   0  0  0  0  0  0  0  0  0  0  0  0
  146.1230  157.5630  133.2980 C   0  0  0  0  0  0  0  0  0  0  0  0
  144.8690  157.9510  133.6030 N   0  0  0  0  0  0  0  0  0  0  0  0
  143.7840  157.0840  133.9650 C   0  0  0  0  0  0  0  0  0  0  0  0
  143.5860  156.8100  135.1790 O   0  0  0  0  0  0  0  0  0  0  0  0
  142.8220  156.5800  132.9260 C   0  0  2  0  0  0  0  0  0  0  0  0
  142.7510  157.4800  131.8500 O   0  0  0  0  0  0  0  0  0  0  0  0
  141.4630  156.4050  133.5450 C   0  0  0  0  0  0  0  0  0  0  0  0
  141.1840  155.3150  134.1170 O   0  0  0  0  0  0  0  0  0  0  0  0
  140.5040  157.4730  133.5140 N   0  0  0  0  0  0  0  0  0  0  0  0
  139.1480  157.3220  134.0400 C   0  0  0  0  0  0  0  0  0  0  0  0
  138.1870  158.2590  133.3190 C   0  0  0  0  0  0  0  0  0  0  0  0
  138.6830  158.5430  132.0150 O   0  0  0  0  0  0  0  0  0  0  0  0
  139.8090  159.3160  131.8200 N   0  0  0  0  0  0  0  0  0  0  0  0
  140.6050  159.0250  130.9030 O   0  0  0  0  0  0  0  0  0  0  0  0
  140.0500  160.4240  132.6050 O   0  0  0  0  0  0  0  0  0  0  0  0
  142.0760  159.5130  132.4360 H   0  0  0  0  0  0  0  0  0  0  0  0
  146.4529  160.8305  133.0858 H   0  0  0  0  0  0  0  0  0  0  0  0
  148.8872  159.4164  132.5340 H   0  0  0  0  0  0  0  0  0  0  0  0
  149.8587  157.0972  132.3649 H   0  0  0  0  0  0  0  0  0  0  0  0
  147.9801  154.1554  131.9701 H   0  0  0  0  0  0  0  0  0  0  0  0
  145.9854  155.3925  133.4270 H   0  0  0  0  0  0  0  0  0  0  0  0
  143.1765  155.6105  132.5460 H   0  0  0  0  0  0  0  0  0  0  0  0
  142.2170  158.2580  132.1610 H   0  0  0  0  0  0  0  0  0  0  0  0
  140.7520  158.3700  133.0380 H   0  0  0  0  0  0  0  0  0  0  0  0
  138.8173  156.2830  133.8948 H   0  0  0  0  0  0  0  0  0  0  0  0
  139.1525  157.5732  135.1109 H   0  0  0  0  0  0  0  0  0  0  0  0
  137.2001  157.7799  133.2387 H   0  0  0  0  0  0  0  0  0  0  0  0
  138.0967  159.1966  133.8871 H   0  0  0  0  0  0  0  0  0  0  0  0
  1  2  1  0
  2  3  2  0
  2  4  1  0
  4  5  2  0
  5  6  1  0
  6  7  2  0
  7  8  1  0
  8  9  2  0
  9 10  1  0
 10 11  1  0
 10 12  1  0
  9 13  1  0
 13 14  2  0
 14 15  1  0
 15 16  1  0
 16 17  2  0
 16 18  1  0
 18 19  1  0
 18 20  1  0
 20 21  2  0
 20 22  1  0
 22 23  1  0
 23 24  1  0
 24 25  1  0
 25 26  1  0
 26 27  2  0
 26 28  1  0
 15  4  1  0
 14  6  1  0
  1 29  1  0
  5 30  1  0
  7 31  1  0
  8 32  1  0
 10 33  1  0
 13 34  1  0
 18 35  1  6
 19 36  1  0
 22 37  1  0
 23 38  1  0
 23 39  1  0
 24 40  1  0
 24 41  1  0
M  CHG  3   1  -1  26   1  28  -1
M  END
>  <UniqueID>  (37) 
37

>  <SMILES>  (37) 
[NH-]C(=O)c1cc2ccc(C(F)F)cc2n1C(=O)[C@H](O)C(=O)NCCO[N+](=O)[O-]

>  <Energy>  (37) 
70.62175173464223

>  <Genealogy>  (37) 
[NH-]C(=O)c1cc2ccc(C(F)F)cc2n1C(=O)C(O)C(=O)NCCO[N+](=O)[O-] (protonated)
[NH-]C(=O)c1cc2ccc(C(F)F)cc2n1C(=O)[C@H](O)C(=O)NCCO[N+](=O)[O-] (chirality)
[NH-]C(=O)c1cc2ccc(C(F)F)cc2n1C(=O)[C@H](O)C(=O)NCCO[N+](=O)[O-] (3D coordinates assigned)
[NH-]C(=O)c1cc2ccc(C(F)F)cc2n1C(=O)[C@H](O)C(=O)NCCO[N+](=O)[O-] (optimized conformer: 70.62175173464223 kcal/mol)

>  <smiles>  (37) 
NC(=O)c1cc2ccc(C(F)F)cc2n1C(=O)C(O)C(=O)NCCO[N+](=O)[O-]

>  <score_type>  (37) 
oracle

>  <origin>  (37) 
adg

>  <m_score__min__energy>  (37) 
-6

>  <m_primary>  (37) 
energy

$$$$
39:0
     RDKit          3D

 49 50  0  0  0  0  0  0  0  0999 V2000
  141.7800  158.0130  138.9430 C   0  0  0  0  0  0  0  0  0  0  0  0
  141.2370  157.5460  137.6560 N   0  0  0  0  0  0  0  0  0  0  0  0
  140.6220  156.2210  137.8290 C   0  0  0  0  0  0  0  0  0  0  0  0
  140.2590  158.5110  137.1070 C   0  0  0  0  0  0  0  0  0  0  0  0
  140.9740  159.6690  136.3950 C   0  0  0  0  0  0  0  0  0  0  0  0
  141.4510  159.2530  135.0650 N   0  0  0  0  0  0  0  0  0  0  0  0
  142.4040  160.0860  134.3240 C   0  0  0  0  0  0  0  0  0  0  0  0
  140.9950  158.0190  134.4770 C   0  0  0  0  0  0  0  0  0  0  0  0
  139.7790  157.9850  133.7480 C   0  0  0  0  0  0  0  0  0  0  0  0
  139.3050  156.7820  133.1970 C   0  0  0  0  0  0  0  0  0  0  0  0
  140.0600  155.6310  133.3970 C   0  0  0  0  0  0  0  0  0  0  0  0
  139.8470  154.3440  132.9590 C   0  0  0  0  0  0  0  0  0  0  0  0
  140.9270  153.6060  133.4410 C   0  0  0  0  0  0  0  0  0  0  0  0
  141.0740  152.1470  133.2410 C   0  0  0  0  0  0  0  0  0  0  0  0
  141.9060  151.3660  134.0940 N   0  0  0  0  0  0  0  0  0  0  0  0
  140.4330  151.5770  132.3180 O   0  0  0  0  0  0  0  0  0  0  0  0
  141.7720  154.4070  134.1490 N   0  0  0  0  0  0  0  0  0  0  0  0
  143.0100  154.0420  134.7770 C   0  0  0  0  0  0  0  0  0  0  0  0
  144.0960  154.1950  134.1550 O   0  0  0  0  0  0  0  0  0  0  0  0
  143.0210  153.4280  136.1460 C   0  0  0  0  0  0  0  0  0  0  0  0
  141.6990  153.1560  136.5680 O   0  0  0  0  0  0  0  0  0  0  0  0
  141.7060  152.5590  137.8480 C   0  0  0  0  0  0  0  0  0  0  0  0
  140.9080  151.2980  137.8040 C   0  0  0  0  0  0  0  0  0  0  0  0
  140.4730  150.7840  138.8670 O   0  0  0  0  0  0  0  0  0  0  0  0
  140.6110  150.7070  136.5810 O   0  0  0  0  0  0  0  0  0  0  0  0
  141.2300  155.6430  134.1090 C   0  0  0  0  0  0  0  0  0  0  0  0
  141.7390  156.8300  134.6480 C   0  0  0  0  0  0  0  0  0  0  0  0
  141.2281  157.5384  139.7677 H   0  0  0  0  0  0  0  0  0  0  0  0
  142.8444  157.7438  139.0112 H   0  0  0  0  0  0  0  0  0  0  0  0
  141.6731  159.1057  139.0112 H   0  0  0  0  0  0  0  0  0  0  0  0
  140.5200  156.0013  138.9020 H   0  0  0  0  0  0  0  0  0  0  0  0
  139.6284  156.2135  137.3572 H   0  0  0  0  0  0  0  0  0  0  0  0
  141.2577  155.4573  137.3572 H   0  0  0  0  0  0  0  0  0  0  0  0
  139.6069  157.9936  136.3880 H   0  0  0  0  0  0  0  0  0  0  0  0
  139.6652  158.9212  137.9372 H   0  0  0  0  0  0  0  0  0  0  0  0
  140.2730  160.5089  136.2799 H   0  0  0  0  0  0  0  0  0  0  0  0
  141.8408  159.9726  137.0004 H   0  0  0  0  0  0  0  0  0  0  0  0
  143.0368  160.6391  135.0338 H   0  0  0  0  0  0  0  0  0  0  0  0
  143.0361  159.4456  133.6913 H   0  0  0  0  0  0  0  0  0  0  0  0
  141.8539  160.7981  133.6913 H   0  0  0  0  0  0  0  0  0  0  0  0
  139.2003  158.9106  133.6122 H   0  0  0  0  0  0  0  0  0  0  0  0
  138.3658  156.7516  132.6252 H   0  0  0  0  0  0  0  0  0  0  0  0
  139.0036  153.9757  132.3565 H   0  0  0  0  0  0  0  0  0  0  0  0
  141.9540  151.5550  135.1200 H   0  0  0  0  0  0  0  0  0  0  0  0
  143.5945  152.4897  136.1192 H   0  0  0  0  0  0  0  0  0  0  0  0
  143.4864  154.1315  136.8520 H   0  0  0  0  0  0  0  0  0  0  0  0
  142.7410  152.3298  138.1417 H   0  0  0  0  0  0  0  0  0  0  0  0
  141.2657  153.2505  138.5815 H   0  0  0  0  0  0  0  0  0  0  0  0
  142.6952  156.8372  135.1917 H   0  0  0  0  0  0  0  0  0  0  0  0
  1  2  1  0
  2  3  1  0
  2  4  1  0
  4  5  1  0
  5  6  1  0
  6  7  1  0
  6  8  1  0
  8  9  2  0
  9 10  1  0
 10 11  2  0
 11 12  1  0
 12 13  2  0
 13 14  1  0
 14 15  1  0
 14 16  2  0
 13 17  1  0
 17 18  1  0
 18 19  2  0
 18 20  1  0
 20 21  1  0
 21 22  1  0
 22 23  1  0
 23 24  2  0
 23 25  1  0
 17 26  1  0
 26 27  2  0
 27  8  1  0
 26 11  1  0
  1 28  1  0
  1 29  1  0
  1 30  1  0
  3 31  1  0
  3 32  1  0
  3 33  1  0
  4 34  1  0
  4 35  1  0
  5 36  1  0
  5 37  1  0
  7 38  1  0
  7 39  1  0
  7 40  1  0
  9 41  1  0
 10 42  1  0
 12 43  1  0
 15 44  1  0
 20 45  1  0
 20 46  1  0
 22 47  1  0
 22 48  1  0
 27 49  1  0
M  CHG  2  15  -1  25  -1
M  END
>  <UniqueID>  (38) 
38

>  <SMILES>  (38) 
CN(C)CCN(C)c1ccc2cc(C([NH-])=O)n(C(=O)COCC(=O)[O-])c2c1

>  <Energy>  (38) 
87.05986579185691

>  <Genealogy>  (38) 
CN(C)CCN(C)c1ccc2cc(C([NH-])=O)n(C(=O)COCC(=O)[O-])c2c1 (protonated)
CN(C)CCN(C)c1ccc2cc(C([NH-])=O)n(C(=O)COCC(=O)[O-])c2c1 (3D coordinates assigned)
CN(C)CCN(C)c1ccc2cc(C([NH-])=O)n(C(=O)COCC(=O)[O-])c2c1 (optimized conformer: 87.05986579185691 kcal/mol)

>  <smiles>  (38) 
CN(C)CCN(C)c1ccc2cc(C(N)=O)n(C(=O)COCC(=O)O)c2c1

>  <score_type>  (38) 
oracle

>  <origin>  (38) 
adg

>  <m_score__min__energy>  (38) 
-7.25

>  <m_primary>  (38) 
energy

$$$$
40:0
     RDKit          3D

 43 45  0  0  0  0  0  0  0  0999 V2000
  142.0920  158.3200  132.6150 N   0  0  0  0  0  0  0  0  0  0  0  0
  143.0360  157.3910  133.1460 C   0  0  0  0  0  0  0  0  0  0  0  0
  144.0600  157.8280  133.7400 O   0  0  0  0  0  0  0  0  0  0  0  0
  142.7960  155.9340  133.0980 C   0  0  0  0  0  0  0  0  0  0  0  0
  143.8180  154.9970  132.9500 C   0  0  0  0  0  0  0  0  0  0  0  0
  143.2030  153.7680  133.0450 C   0  0  0  0  0  0  0  0  0  0  0  0
  143.7410  152.4860  132.9660 C   0  0  0  0  0  0  0  0  0  0  0  0
  142.8590  151.3940  133.0740 C   0  0  0  0  0  0  0  0  0  0  0  0
  141.4700  151.6000  133.2610 C   0  0  0  0  0  0  0  0  0  0  0  0
  140.5890  150.4660  133.3400 N   0  0  0  0  0  0  0  0  0  0  0  0
  140.0830  149.7580  132.1950 C   0  0  0  0  0  0  0  0  0  0  0  0
  140.9190  148.8680  131.5030 C   0  0  0  0  0  0  0  0  0  0  0  0
  140.4470  148.1760  130.3840 C   0  0  0  0  0  0  0  0  0  0  0  0
  139.1280  148.3570  129.9570 C   0  0  0  0  0  0  0  0  0  0  0  0
  138.6700  147.6870  128.8710 F   0  0  0  0  0  0  0  0  0  0  0  0
  138.2780  149.2190  130.6560 C   0  0  0  0  0  0  0  0  0  0  0  0
  138.7490  149.9120  131.7760 C   0  0  0  0  0  0  0  0  0  0  0  0
  140.9610  152.9180  133.3030 C   0  0  0  0  0  0  0  0  0  0  0  0
  141.8620  153.9870  133.2290 C   0  0  0  0  0  0  0  0  0  0  0  0
  141.5940  155.3100  133.2570 N   0  0  0  0  0  0  0  0  0  0  0  0
  140.2890  155.9010  133.3930 C   0  0  0  0  0  0  0  0  0  0  0  0
  139.2690  155.2930  132.9670 O   0  0  0  0  0  0  0  0  0  0  0  0
  140.1630  157.1500  134.0090 O   0  0  0  0  0  0  0  0  0  0  0  0
  138.9230  157.8290  134.1730 C   0  0  0  0  0  0  0  0  0  0  0  0
  138.2880  158.0050  132.8660 N   0  0  0  0  0  0  0  0  0  0  0  0
  139.1130  159.2650  131.9570 P   0  0  0  0  0  0  0  0  0  0  0  0
  139.7970  158.6660  130.7470 O   0  0  0  0  0  0  0  0  0  0  0  0
  138.0000  160.4320  131.4520 O   0  0  0  0  0  0  0  0  0  0  0  0
  140.2760  159.9960  132.9470 O   0  0  0  0  0  0  0  0  0  0  0  0
  142.3110  159.3420  132.6140 H   0  0  0  0  0  0  0  0  0  0  0  0
  141.1450  158.0150  132.3110 H   0  0  0  0  0  0  0  0  0  0  0  0
  144.8880  155.1967  132.7911 H   0  0  0  0  0  0  0  0  0  0  0  0
  144.8208  152.3314  132.8237 H   0  0  0  0  0  0  0  0  0  0  0  0
  143.2530  150.3688  133.0125 H   0  0  0  0  0  0  0  0  0  0  0  0
  140.3240  150.1130  134.2890 H   0  0  0  0  0  0  0  0  0  0  0  0
  141.9535  148.7139  131.8438 H   0  0  0  0  0  0  0  0  0  0  0  0
  141.1126  147.4897  129.8399 H   0  0  0  0  0  0  0  0  0  0  0  0
  137.2375  149.3524  130.3249 H   0  0  0  0  0  0  0  0  0  0  0  0
  138.0738  150.5798  132.3311 H   0  0  0  0  0  0  0  0  0  0  0  0
  139.8798  153.0999  133.3919 H   0  0  0  0  0  0  0  0  0  0  0  0
  138.2637  157.2366  134.8245 H   0  0  0  0  0  0  0  0  0  0  0  0
  139.1011  158.8134  134.6303 H   0  0  0  0  0  0  0  0  0  0  0  0
  138.3940  157.1190  132.3200 H   0  0  0  0  0  0  0  0  0  0  0  0
  1  2  1  0
  2  3  2  0
  2  4  1  0
  4  5  2  0
  5  6  1  0
  6  7  2  0
  7  8  1  0
  8  9  2  0
  9 10  1  0
 10 11  1  0
 11 12  2  0
 12 13  1  0
 13 14  2  0
 14 15  1  0
 14 16  1  0
 16 17  2  0
  9 18  1  0
 18 19  2  0
 19 20  1  0
 20 21  1  0
 21 22  2  0
 21 23  1  0
 23 24  1  0
 24 25  1  0
 25 26  1  0
 26 27  2  0
 26 28  1  0
 26 29  1  0
 20  4  1  0
 19  6  1  0
 17 11  1  0
  1 30  1  0
  1 31  1  0
  5 32  1  0
  7 33  1  0
  8 34  1  0
 10 35  1  0
 12 36  1  0
 13 37  1  0
 16 38  1  0
 17 39  1  0
 18 40  1  0
 24 41  1  0
 24 42  1  0
 25 43  1  0
M  CHG  2  28  -1  29  -1
M  END
>  <UniqueID>  (39) 
39

>  <SMILES>  (39) 
NC(=O)c1cc2ccc(Nc3ccc(F)cc3)cc2n1C(=O)OCNP(=O)([O-])[O-]

>  <Energy>  (39) 
83.36087476407572

>  <Genealogy>  (39) 
NC(=O)c1cc2ccc(Nc3ccc(F)cc3)cc2n1C(=O)OCNP(=O)([O-])[O-] (protonated)
NC(=O)c1cc2ccc(Nc3ccc(F)cc3)cc2n1C(=O)OCNP(=O)([O-])[O-] (3D coordinates assigned)
NC(=O)c1cc2ccc(Nc3ccc(F)cc3)cc2n1C(=O)OCNP(=O)([O-])[O-] (optimized conformer: 83.36087476407572 kcal/mol)

>  <smiles>  (39) 
NC(=O)c1cc2ccc(Nc3ccc(F)cc3)cc2n1C(=O)OCNP(=O)(O)O

>  <score_type>  (39) 
oracle

>  <origin>  (39) 
adg

>  <m_score__min__energy>  (39) 
-8.1300000000000008

>  <m_primary>  (39) 
energy

$$$$
41:0
     RDKit          3D

 36 37  0  0  0  0  0  0  0  0999 V2000
  143.8020  161.8710  133.7260 N   0  0  0  0  0  0  0  0  0  0  0  0
  145.1530  161.6770  134.1430 C   0  0  0  0  0  0  0  0  0  0  0  0
  145.7080  162.5480  134.8620 O   0  0  0  0  0  0  0  0  0  0  0  0
  145.8960  160.4810  133.6930 C   0  0  0  0  0  0  0  0  0  0  0  0
  147.2590  160.4870  133.4050 C   0  0  0  0  0  0  0  0  0  0  0  0
  147.5760  159.1800  133.1120 C   0  0  0  0  0  0  0  0  0  0  0  0
  148.7920  158.6180  132.7360 C   0  0  0  0  0  0  0  0  0  0  0  0
  148.8230  157.2410  132.4600 C   0  0  0  0  0  0  0  0  0  0  0  0
  147.6470  156.4540  132.5630 C   0  0  0  0  0  0  0  0  0  0  0  0
  147.6820  155.0500  132.2320 N   0  0  0  0  0  0  0  0  0  0  0  0
  148.4720  154.3200  133.2350 C   0  0  0  0  0  0  0  0  0  0  0  0
  148.2660  152.8060  133.1170 C   0  0  0  0  0  0  0  0  0  0  0  0
  149.6260  152.0340  132.2590 Cl  0  0  0  0  0  0  0  0  0  0  0  0
  146.4270  157.0660  132.9360 C   0  0  0  0  0  0  0  0  0  0  0  0
  146.4300  158.4360  133.2240 C   0  0  0  0  0  0  0  0  0  0  0  0
  145.3880  159.2210  133.5770 N   0  0  0  0  0  0  0  0  0  0  0  0
  144.0190  158.8100  133.7130 C   0  0  0  0  0  0  0  0  0  0  0  0
  143.3230  159.2500  134.6680 O   0  0  0  0  0  0  0  0  0  0  0  0
  143.4710  157.9050  132.7960 O   0  0  0  0  0  0  0  0  0  0  0  0
  142.8600  156.6760  133.1790 C   0  0  0  0  0  0  0  0  0  0  0  0
  143.8980  155.7000  133.6350 C   0  0  0  0  0  0  0  0  0  0  0  0
  144.1630  155.5800  134.8600 O   0  0  0  0  0  0  0  0  0  0  0  0
  144.5930  154.9410  132.7020 O   0  0  0  0  0  0  0  0  0  0  0  0
  143.1840  161.0560  133.5170 H   0  0  0  0  0  0  0  0  0  0  0  0
  147.9378  161.3525  133.4106 H   0  0  0  0  0  0  0  0  0  0  0  0
  149.7008  159.2328  132.6573 H   0  0  0  0  0  0  0  0  0  0  0  0
  149.7697  156.7675  132.1607 H   0  0  0  0  0  0  0  0  0  0  0  0
  148.1070  154.9230  131.2840 H   0  0  0  0  0  0  0  0  0  0  0  0
  146.7050  154.6760  132.2010 H   0  0  0  0  0  0  0  0  0  0  0  0
  149.5377  154.5486  133.0865 H   0  0  0  0  0  0  0  0  0  0  0  0
  148.1397  154.6372  134.2345 H   0  0  0  0  0  0  0  0  0  0  0  0
  148.1875  152.3750  134.1260 H   0  0  0  0  0  0  0  0  0  0  0  0
  147.3448  152.6237  132.5442 H   0  0  0  0  0  0  0  0  0  0  0  0
  145.4985  156.4794  132.9982 H   0  0  0  0  0  0  0  0  0  0  0  0
  142.1522  156.8630  134.0000 H   0  0  0  0  0  0  0  0  0  0  0  0
  142.3292  156.2550  132.3124 H   0  0  0  0  0  0  0  0  0  0  0  0
  1  2  1  0
  2  3  2  0
  2  4  1  0
  4  5  2  0
  5  6  1  0
  6  7  2  0
  7  8  1  0
  8  9  2  0
  9 10  1  0
 10 11  1  0
 11 12  1  0
 12 13  1  0
  9 14  1  0
 14 15  2  0
 15 16  1  0
 16 17  1  0
 17 18  2  0
 17 19  1  0
 19 20  1  0
 20 21  1  0
 21 22  2  0
 21 23  1  0
 16  4  1  0
 15  6  1  0
  1 24  1  0
  5 25  1  0
  7 26  1  0
  8 27  1  0
 10 28  1  0
 10 29  1  0
 11 30  1  0
 11 31  1  0
 12 32  1  0
 12 33  1  0
 14 34  1  0
 20 35  1  0
 20 36  1  0
M  CHG  3   1  -1  10   1  23  -1
M  END
>  <UniqueID>  (40) 
40

>  <SMILES>  (40) 
[NH-]C(=O)c1cc2ccc([NH2+]CCCl)cc2n1C(=O)OCC(=O)[O-]

>  <Energy>  (40) 
70.97173136736266

>  <Genealogy>  (40) 
[NH-]C(=O)c1cc2ccc([NH2+]CCCl)cc2n1C(=O)OCC(=O)[O-] (protonated)
[NH-]C(=O)c1cc2ccc([NH2+]CCCl)cc2n1C(=O)OCC(=O)[O-] (3D coordinates assigned)
[NH-]C(=O)c1cc2ccc([NH2+]CCCl)cc2n1C(=O)OCC(=O)[O-] (optimized conformer: 70.97173136736266 kcal/mol)

>  <smiles>  (40) 
NC(=O)c1cc2ccc(NCCCl)cc2n1C(=O)OCC(=O)O

>  <score_type>  (40) 
oracle

>  <origin>  (40) 
adg

>  <m_score__min__energy>  (40) 
-5.7400000000000002

>  <m_primary>  (40) 
energy

$$$$
42:0
     RDKit          3D

 43 44  0  0  0  0  0  0  0  0999 V2000
  148.3040  155.0830  132.9640 C   0  0  0  0  0  0  0  0  0  0  0  0
  147.7210  156.4610  133.0520 C   0  0  0  0  0  0  0  0  0  0  0  0
  148.5640  157.5730  133.2940 C   0  0  0  0  0  0  0  0  0  0  0  0
  148.0240  158.8630  133.4400 C   0  0  0  0  0  0  0  0  0  0  0  0
  146.6420  159.0050  133.3510 C   0  0  0  0  0  0  0  0  0  0  0  0
  145.8500  160.1210  133.5120 C   0  0  0  0  0  0  0  0  0  0  0  0
  144.5390  159.6660  133.3760 C   0  0  0  0  0  0  0  0  0  0  0  0
  143.3460  160.5340  133.4590 C   0  0  0  0  0  0  0  0  0  0  0  0
  142.0520  159.9910  133.2120 N   0  0  0  0  0  0  0  0  0  0  0  0
  143.4580  161.7500  133.7650 O   0  0  0  0  0  0  0  0  0  0  0  0
  144.5260  158.3270  133.1350 N   0  0  0  0  0  0  0  0  0  0  0  0
  143.3870  157.4610  133.0410 C   0  0  0  0  0  0  0  0  0  0  0  0
  142.4580  157.7380  132.2360 O   0  0  0  0  0  0  0  0  0  0  0  0
  143.3620  156.1630  133.7890 C   0  0  0  0  0  0  0  0  0  0  0  0
  142.1500  156.0650  134.5350 O   0  0  0  0  0  0  0  0  0  0  0  0
  140.8840  156.1060  133.9420 C   0  0  0  0  0  0  0  0  0  0  0  0
  140.2330  155.0420  133.7470 O   0  0  0  0  0  0  0  0  0  0  0  0
  140.3440  157.3650  133.5310 N   0  0  0  0  0  0  0  0  0  0  0  0
  139.1200  157.4420  132.7330 C   0  0  0  0  0  0  0  0  0  0  0  0
  138.8930  158.8620  132.1720 C   0  0  1  0  0  0  0  0  0  0  0  0
  139.5990  159.8140  132.9280 O   0  0  0  0  0  0  0  0  0  0  0  0
  139.2600  158.9790  130.6790 C   0  0  0  0  0  0  0  0  0  0  0  0
  140.5970  159.3710  130.5120 O   0  0  0  0  0  0  0  0  0  0  0  0
  145.8160  157.9370  133.1200 C   0  0  0  0  0  0  0  0  0  0  0  0
  146.3230  156.6420  132.9750 C   0  0  0  0  0  0  0  0  0  0  0  0
  148.4703  154.6898  133.9778 H   0  0  0  0  0  0  0  0  0  0  0  0
  147.6076  154.4240  132.4248 H   0  0  0  0  0  0  0  0  0  0  0  0
  149.2619  155.1239  132.4248 H   0  0  0  0  0  0  0  0  0  0  0  0
  149.6516  157.4261  133.3685 H   0  0  0  0  0  0  0  0  0  0  0  0
  148.6732  159.7328  133.6189 H   0  0  0  0  0  0  0  0  0  0  0  0
  146.1815  161.1517  133.7064 H   0  0  0  0  0  0  0  0  0  0  0  0
  141.7450  159.7590  132.2410 H   0  0  0  0  0  0  0  0  0  0  0  0
  143.4215  155.3279  133.0755 H   0  0  0  0  0  0  0  0  0  0  0  0
  144.2193  156.1207  134.4769 H   0  0  0  0  0  0  0  0  0  0  0  0
  140.9000  158.2260  133.7360 H   0  0  0  0  0  0  0  0  0  0  0  0
  139.1965  156.7351  131.8937 H   0  0  0  0  0  0  0  0  0  0  0  0
  138.2697  157.1903  133.3839 H   0  0  0  0  0  0  0  0  0  0  0  0
  137.8149  159.0647  132.2535 H   0  0  0  0  0  0  0  0  0  0  0  0
  140.5500  159.7810  132.6460 H   0  0  0  0  0  0  0  0  0  0  0  0
  139.1098  158.0025  130.1955 H   0  0  0  0  0  0  0  0  0  0  0  0
  138.6143  159.7431  130.2215 H   0  0  0  0  0  0  0  0  0  0  0  0
  141.0550  159.2140  131.3780 H   0  0  0  0  0  0  0  0  0  0  0  0
  145.6510  155.7877  132.8056 H   0  0  0  0  0  0  0  0  0  0  0  0
  1  2  1  0
  2  3  2  0
  3  4  1  0
  4  5  2  0
  5  6  1  0
  6  7  2  0
  7  8  1  0
  8  9  1  0
  8 10  2  0
  7 11  1  0
 11 12  1  0
 12 13  2  0
 12 14  1  0
 14 15  1  0
 15 16  1  0
 16 17  2  0
 16 18  1  0
 18 19  1  0
 19 20  1  0
 20 21  1  0
 20 22  1  0
 22 23  1  0
 11 24  1  0
 24 25  2  0
 25  2  1  0
 24  5  1  0
  1 26  1  0
  1 27  1  0
  1 28  1  0
  3 29  1  0
  4 30  1  0
  6 31  1  0
  9 32  1  0
 14 33  1  0
 14 34  1  0
 18 35  1  0
 19 36  1  0
 19 37  1  0
 20 38  1  6
 21 39  1  0
 22 40  1  0
 22 41  1  0
 23 42  1  0
 25 43  1  0
M  CHG  1   9  -1
M  END
>  <UniqueID>  (41) 
41

>  <SMILES>  (41) 
Cc1ccc2cc(C([NH-])=O)n(C(=O)COC(=O)NC[C@@H](O)CO)c2c1

>  <Energy>  (41) 
73.76242356611594

>  <Genealogy>  (41) 
Cc1ccc2cc(C([NH-])=O)n(C(=O)COC(=O)NCC(O)CO)c2c1 (protonated)
Cc1ccc2cc(C([NH-])=O)n(C(=O)COC(=O)NC[C@@H](O)CO)c2c1 (chirality)
Cc1ccc2cc(C([NH-])=O)n(C(=O)COC(=O)NC[C@@H](O)CO)c2c1 (3D coordinates assigned)
Cc1ccc2cc(C([NH-])=O)n(C(=O)COC(=O)NC[C@@H](O)CO)c2c1 (optimized conformer: 73.76242356611594 kcal/mol)

>  <smiles>  (41) 
Cc1ccc2cc(C(N)=O)n(C(=O)COC(=O)NCC(O)CO)c2c1

>  <score_type>  (41) 
oracle

>  <origin>  (41) 
adg

>  <m_score__min__energy>  (41) 
-5.3200000000000003

>  <m_primary>  (41) 
energy

$$$$
43:0
     RDKit          3D

 42 43  0  0  0  0  0  0  0  0999 V2000
  139.1100  160.4040  131.0960 C   0  0  0  0  0  0  0  0  0  0  0  0
  140.1990  159.6480  131.7330 N   0  0  0  0  0  0  0  0  0  0  0  0
  139.7660  158.8060  132.8690 C   0  0  1  0  0  0  0  0  0  0  0  0
  138.3500  158.2320  132.6700 C   0  0  0  0  0  0  0  0  0  0  0  0
  140.7810  157.7250  133.1780 C   0  0  0  0  0  0  0  0  0  0  0  0
  140.6170  156.9770  134.1810 O   0  0  0  0  0  0  0  0  0  0  0  0
  141.8880  157.4970  132.2930 N   0  0  0  0  0  0  0  0  0  0  0  0
  143.0540  156.7020  132.6750 C   0  0  0  0  0  0  0  0  0  0  0  0
  143.7490  157.3240  133.8510 C   0  0  0  0  0  0  0  0  0  0  0  0
  143.6960  156.7570  134.9750 O   0  0  0  0  0  0  0  0  0  0  0  0
  144.4550  158.5670  133.7190 N   0  0  0  0  0  0  0  0  0  0  0  0
  143.9550  159.8240  133.8730 C   0  0  0  0  0  0  0  0  0  0  0  0
  142.5750  160.1630  134.2810 C   0  0  0  0  0  0  0  0  0  0  0  0
  141.8970  159.4080  135.2820 N   0  0  0  0  0  0  0  0  0  0  0  0
  141.9910  161.1460  133.7520 O   0  0  0  0  0  0  0  0  0  0  0  0
  144.9510  160.7740  133.6510 C   0  0  0  0  0  0  0  0  0  0  0  0
  146.0870  160.0510  133.3590 C   0  0  0  0  0  0  0  0  0  0  0  0
  147.3790  160.4840  133.0770 C   0  0  0  0  0  0  0  0  0  0  0  0
  148.3570  159.5100  132.8160 C   0  0  0  0  0  0  0  0  0  0  0  0
  148.0230  158.1320  132.8220 C   0  0  0  0  0  0  0  0  0  0  0  0
  149.0850  157.1010  132.5850 C   0  0  0  0  0  0  0  0  0  0  0  0
  146.7040  157.7300  133.1250 C   0  0  0  0  0  0  0  0  0  0  0  0
  145.7570  158.7210  133.4010 C   0  0  0  0  0  0  0  0  0  0  0  0
  138.4695  160.8486  131.8720 H   0  0  0  0  0  0  0  0  0  0  0  0
  139.5352  161.2022  130.4698 H   0  0  0  0  0  0  0  0  0  0  0  0
  138.5108  159.7266  130.4698 H   0  0  0  0  0  0  0  0  0  0  0  0
  140.9090  160.3350  132.0770 H   0  0  0  0  0  0  0  0  0  0  0  0
  139.7102  159.4626  133.7498 H   0  0  0  0  0  0  0  0  0  0  0  0
  137.8889  158.0451  133.6510 H   0  0  0  0  0  0  0  0  0  0  0  0
  137.7377  158.9529  132.1084 H   0  0  0  0  0  0  0  0  0  0  0  0
  138.4125  157.2882  132.1084 H   0  0  0  0  0  0  0  0  0  0  0  0
  141.9270  158.0080  131.3820 H   0  0  0  0  0  0  0  0  0  0  0  0
  142.7281  155.6860  132.9424 H   0  0  0  0  0  0  0  0  0  0  0  0
  143.7532  156.6637  131.8267 H   0  0  0  0  0  0  0  0  0  0  0  0
  141.9220  158.3640  135.2760 H   0  0  0  0  0  0  0  0  0  0  0  0
  144.8511  161.8684  133.6988 H   0  0  0  0  0  0  0  0  0  0  0  0
  147.6268  161.5556  133.0590 H   0  0  0  0  0  0  0  0  0  0  0  0
  149.3914  159.8191  132.6050 H   0  0  0  0  0  0  0  0  0  0  0  0
  149.4624  156.7346  133.5511 H   0  0  0  0  0  0  0  0  0  0  0  0
  148.6604  156.2615  132.0150 H   0  0  0  0  0  0  0  0  0  0  0  0
  149.9116  157.5503  132.0150 H   0  0  0  0  0  0  0  0  0  0  0  0
  146.4286  156.6652  133.1435 H   0  0  0  0  0  0  0  0  0  0  0  0
  1  2  1  0
  2  3  1  0
  3  4  1  0
  3  5  1  0
  5  6  2  0
  5  7  1  0
  7  8  1  0
  8  9  1  0
  9 10  2  0
  9 11  1  0
 11 12  1  0
 12 13  1  0
 13 14  1  0
 13 15  2  0
 12 16  2  0
 16 17  1  0
 17 18  2  0
 18 19  1  0
 19 20  2  0
 20 21  1  0
 20 22  1  0
 22 23  2  0
 23 11  1  0
 23 17  1  0
  1 24  1  0
  1 25  1  0
  1 26  1  0
  2 27  1  0
  3 28  1  1
  4 29  1  0
  4 30  1  0
  4 31  1  0
  7 32  1  0
  8 33  1  0
  8 34  1  0
 14 35  1  0
 16 36  1  0
 18 37  1  0
 19 38  1  0
 21 39  1  0
 21 40  1  0
 21 41  1  0
 22 42  1  0
M  CHG  1  14  -1
M  END
>  <UniqueID>  (42) 
42

>  <SMILES>  (42) 
CN[C@@H](C)C(=O)NCC(=O)n1c(C([NH-])=O)cc2ccc(C)cc21

>  <Energy>  (42) 
76.03868714199636

>  <Genealogy>  (42) 
CN[C@@H](C)C(=O)NCC(=O)n1c(C([NH-])=O)cc2ccc(C)cc21 (protonated)
CN[C@@H](C)C(=O)NCC(=O)n1c(C([NH-])=O)cc2ccc(C)cc21 (3D coordinates assigned)
CN[C@@H](C)C(=O)NCC(=O)n1c(C([NH-])=O)cc2ccc(C)cc21 (optimized conformer: 76.03868714199636 kcal/mol)

>  <smiles>  (42) 
CN[C@@H](C)C(=O)NCC(=O)n1c(C(N)=O)cc2ccc(C)cc21

>  <score_type>  (42) 
oracle

>  <origin>  (42) 
adg

>  <m_score__min__energy>  (42) 
-7.8300000000000001

>  <m_primary>  (42) 
energy

$$$$
44:0
     RDKit          3D

 49 52  0  0  0  0  0  0  0  0999 V2000
  148.4580  154.2650  137.0650 C   0  0  0  0  0  0  0  0  0  0  0  0
  147.3180  154.5810  136.1350 C   0  0  0  0  0  0  0  0  0  0  0  0
  147.5380  155.3880  135.0080 C   0  0  0  0  0  0  0  0  0  0  0  0
  146.4840  155.7020  134.1380 C   0  0  0  0  0  0  0  0  0  0  0  0
  146.7130  156.5630  132.9520 C   0  0  0  0  0  0  0  0  0  0  0  0
  147.0840  156.0470  131.8640 O   0  0  0  0  0  0  0  0  0  0  0  0
  146.5350  157.9870  133.0260 N   0  0  0  0  0  0  0  0  0  0  0  0
  147.4880  158.9540  132.9160 C   0  0  0  0  0  0  0  0  0  0  0  0
  148.9040  158.7360  132.5480 C   0  0  0  0  0  0  0  0  0  0  0  0
  149.4010  157.4260  132.2870 N   0  0  0  0  0  0  0  0  0  0  0  0
  149.6780  159.7230  132.4340 O   0  0  0  0  0  0  0  0  0  0  0  0
  146.9350  160.2120  133.1500 C   0  0  0  0  0  0  0  0  0  0  0  0
  145.6030  159.9820  133.4140 C   0  0  0  0  0  0  0  0  0  0  0  0
  144.5830  160.8730  133.7340 C   0  0  0  0  0  0  0  0  0  0  0  0
  143.3040  160.3490  133.9850 C   0  0  0  0  0  0  0  0  0  0  0  0
  143.0700  158.9510  133.9170 C   0  0  0  0  0  0  0  0  0  0  0  0
  141.7030  158.3920  134.2120 C   0  0  0  0  0  0  0  0  0  0  0  0
  141.6020  157.9980  135.6310 N   0  0  0  0  0  0  0  0  0  0  0  0
  141.8850  156.7070  135.9990 C   0  0  0  0  0  0  0  0  0  0  0  0
  142.2920  155.7740  135.0430 O   0  0  0  0  0  0  0  0  0  0  0  0
  141.7680  156.3150  137.3350 C   0  0  0  0  0  0  0  0  0  0  0  0
  141.3570  157.2510  138.2750 C   0  0  0  0  0  0  0  0  0  0  0  0
  141.0790  158.5170  137.8840 N   0  0  0  0  0  0  0  0  0  0  0  0
  141.1930  158.9000  136.5860 C   0  0  0  0  0  0  0  0  0  0  0  0
  140.9190  160.0910  136.2780 O   0  0  0  0  0  0  0  0  0  0  0  0
  144.1320  158.0790  133.5960 C   0  0  0  0  0  0  0  0  0  0  0  0
  145.3890  158.6310  133.3370 C   0  0  0  0  0  0  0  0  0  0  0  0
  145.2120  155.1790  134.4120 C   0  0  0  0  0  0  0  0  0  0  0  0
  145.0130  154.4000  135.5060 N   0  0  0  0  0  0  0  0  0  0  0  0
  146.0160  154.0900  136.3710 C   0  0  0  0  0  0  0  0  0  0  0  0
  145.7010  153.2230  137.5560 C   0  0  0  0  0  0  0  0  0  0  0  0
  148.1181  154.3592  138.1069 H   0  0  0  0  0  0  0  0  0  0  0  0
  148.8047  153.2369  136.8840 H   0  0  0  0  0  0  0  0  0  0  0  0
  149.2845  154.9679  136.8840 H   0  0  0  0  0  0  0  0  0  0  0  0
  148.5465  155.7778  134.8053 H   0  0  0  0  0  0  0  0  0  0  0  0
  149.0400  156.8640  131.4850 H   0  0  0  0  0  0  0  0  0  0  0  0
  147.4526  161.1824  133.1284 H   0  0  0  0  0  0  0  0  0  0  0  0
  144.7726  161.9552  133.7887 H   0  0  0  0  0  0  0  0  0  0  0  0
  142.4764  161.0285  134.2365 H   0  0  0  0  0  0  0  0  0  0  0  0
  140.9438  159.1575  133.9937 H   0  0  0  0  0  0  0  0  0  0  0  0
  141.5377  157.5047  133.5833 H   0  0  0  0  0  0  0  0  0  0  0  0
  142.9770  155.0570  135.2560 H   0  0  0  0  0  0  0  0  0  0  0  0
  141.9976  155.2825  137.6371 H   0  0  0  0  0  0  0  0  0  0  0  0
  141.2578  156.9650  139.3325 H   0  0  0  0  0  0  0  0  0  0  0  0
  143.9740  156.9913  133.5508 H   0  0  0  0  0  0  0  0  0  0  0  0
  144.3718  155.4009  133.7376 H   0  0  0  0  0  0  0  0  0  0  0  0
  145.9036  153.7805  138.4824 H   0  0  0  0  0  0  0  0  0  0  0  0
  144.6402  152.9334  137.5268 H   0  0  0  0  0  0  0  0  0  0  0  0
  146.3285  152.3200  137.5268 H   0  0  0  0  0  0  0  0  0  0  0  0
  1  2  1  0
  2  3  2  0
  3  4  1  0
  4  5  1  0
  5  6  2  0
  5  7  1  0
  7  8  1  0
  8  9  1  0
  9 10  1  0
  9 11  2  0
  8 12  2  0
 12 13  1  0
 13 14  2  0
 14 15  1  0
 15 16  2  0
 16 17  1  0
 17 18  1  0
 18 19  2  0
 19 20  1  0
 19 21  1  0
 21 22  2  0
 22 23  1  0
 23 24  1  0
 24 25  2  0
 16 26  1  0
 26 27  2  0
  4 28  2  0
 28 29  1  0
 29 30  2  0
 30 31  1  0
 30  2  1  0
 27  7  1  0
 27 13  1  0
 24 18  1  0
  1 32  1  0
  1 33  1  0
  1 34  1  0
  3 35  1  0
 10 36  1  0
 12 37  1  0
 14 38  1  0
 15 39  1  0
 17 40  1  0
 17 41  1  0
 20 42  1  0
 21 43  1  0
 22 44  1  0
 26 45  1  0
 28 46  1  0
 31 47  1  0
 31 48  1  0
 31 49  1  0
M  CHG  3  10  -1  18   1  23  -1
M  END
>  <UniqueID>  (43) 
43

>  <SMILES>  (43) 
Cc1cc(C(=O)n2c(C([NH-])=O)cc3ccc(C[n+]4c(O)cc[n-]c4=O)cc32)cnc1C

>  <Energy>  (43) 
96.94820000378242

>  <Genealogy>  (43) 
Cc1cc(C(=O)n2c(C([NH-])=O)cc3ccc(C[n+]4c(O)cc[n-]c4=O)cc32)cnc1C (protonated)
Cc1cc(C(=O)n2c(C([NH-])=O)cc3ccc(C[n+]4c(O)cc[n-]c4=O)cc32)cnc1C (3D coordinates assigned)
Cc1cc(C(=O)n2c(C([NH-])=O)cc3ccc(C[n+]4c(O)cc[n-]c4=O)cc32)cnc1C (optimized conformer: 96.94820000378242 kcal/mol)

>  <smiles>  (43) 
Cc1cc(C(=O)n2c(C(N)=O)cc3ccc(C[n+]4c(O)cc[nH]c4=O)cc32)cnc1C

>  <score_type>  (43) 
oracle

>  <origin>  (43) 
adg

>  <m_score__min__energy>  (43) 
-9.3100000000000005

>  <m_primary>  (43) 
energy

$$$$
45:0
     RDKit          3D

 48 49  0  0  0  0  0  0  0  0999 V2000
  143.8650  154.0140  133.4810 C   0  0  0  0  0  0  0  0  0  0  0  0
  145.0100  154.5170  134.3000 C   0  0  0  0  0  0  0  0  0  0  0  0
  145.2750  153.9600  135.3980 O   0  0  0  0  0  0  0  0  0  0  0  0
  145.7510  155.6780  133.8920 N   0  0  0  0  0  0  0  0  0  0  0  0
  147.0340  155.7410  133.4370 C   0  0  0  0  0  0  0  0  0  0  0  0
  148.0010  154.6240  133.4180 C   0  0  0  0  0  0  0  0  0  0  0  0
  147.8890  153.5430  134.3390 N   0  0  0  0  0  0  0  0  0  0  0  0
  148.9620  154.6440  132.6030 O   0  0  0  0  0  0  0  0  0  0  0  0
  147.3500  157.0430  133.0490 C   0  0  0  0  0  0  0  0  0  0  0  0
  146.2140  157.7820  133.2950 C   0  0  0  0  0  0  0  0  0  0  0  0
  145.9620  159.1350  133.0870 C   0  0  0  0  0  0  0  0  0  0  0  0
  144.6850  159.6250  133.4120 C   0  0  0  0  0  0  0  0  0  0  0  0
  143.6910  158.7610  133.9400 C   0  0  0  0  0  0  0  0  0  0  0  0
  142.3740  159.2670  134.2370 N   0  0  0  0  0  0  0  0  0  0  0  0
  142.0970  159.1350  135.6750 C   0  0  0  0  0  0  0  0  0  0  0  0
  140.6530  158.6810  135.9270 C   0  0  0  0  0  0  0  0  0  0  0  0
  139.9220  158.6060  134.7160 O   0  0  0  0  0  0  0  0  0  0  0  0
  139.4670  157.2880  134.4650 C   0  0  0  0  0  0  0  0  0  0  0  0
  139.5540  156.9740  132.9690 C   0  0  0  0  0  0  0  0  0  0  0  0
  140.2860  157.9800  132.2930 O   0  0  0  0  0  0  0  0  0  0  0  0
  139.4510  158.7590  131.4530 C   0  0  0  0  0  0  0  0  0  0  0  0
  139.5270  160.2290  131.8560 C   0  0  0  0  0  0  0  0  0  0  0  0
  140.4750  160.3980  132.8740 O   0  0  0  0  0  0  0  0  0  0  0  0
  143.9840  157.3900  134.1260 C   0  0  0  0  0  0  0  0  0  0  0  0
  145.2660  156.9350  133.8040 C   0  0  0  0  0  0  0  0  0  0  0  0
  143.0640  153.6621  134.1477 H   0  0  0  0  0  0  0  0  0  0  0  0
  143.4830  154.8272  132.8463 H   0  0  0  0  0  0  0  0  0  0  0  0
  144.2055  153.1826  132.8463 H   0  0  0  0  0  0  0  0  0  0  0  0
  146.9930  153.0180  134.4460 H   0  0  0  0  0  0  0  0  0  0  0  0
  148.3034  157.4029  132.6348 H   0  0  0  0  0  0  0  0  0  0  0  0
  146.7381  159.8004  132.6809 H   0  0  0  0  0  0  0  0  0  0  0  0
  144.4541  160.6890  133.2554 H   0  0  0  0  0  0  0  0  0  0  0  0
  142.3110  160.2750  133.9550 H   0  0  0  0  0  0  0  0  0  0  0  0
  141.6630  158.7310  133.6850 H   0  0  0  0  0  0  0  0  0  0  0  0
  142.7858  158.3933  136.1057 H   0  0  0  0  0  0  0  0  0  0  0  0
  142.2383  160.1186  136.1468 H   0  0  0  0  0  0  0  0  0  0  0  0
  140.6662  157.6882  136.4004 H   0  0  0  0  0  0  0  0  0  0  0  0
  140.1656  159.4167  136.5836 H   0  0  0  0  0  0  0  0  0  0  0  0
  140.0924  156.5754  135.0227 H   0  0  0  0  0  0  0  0  0  0  0  0
  138.4193  157.2023  134.7892 H   0  0  0  0  0  0  0  0  0  0  0  0
  140.0572  156.0056  132.8310 H   0  0  0  0  0  0  0  0  0  0  0  0
  138.5361  156.9349  132.5539 H   0  0  0  0  0  0  0  0  0  0  0  0
  139.7815  158.6502  130.4095 H   0  0  0  0  0  0  0  0  0  0  0  0
  138.4125  158.4109  131.5548 H   0  0  0  0  0  0  0  0  0  0  0  0
  139.8184  160.8315  130.9831 H   0  0  0  0  0  0  0  0  0  0  0  0
  138.5421  160.5547  132.2218 H   0  0  0  0  0  0  0  0  0  0  0  0
  140.2560  159.7240  133.5680 H   0  0  0  0  0  0  0  0  0  0  0  0
  143.2218  156.6986  134.5145 H   0  0  0  0  0  0  0  0  0  0  0  0
  1  2  1  0
  2  3  2  0
  2  4  1  0
  4  5  1  0
  5  6  1  0
  6  7  1  0
  6  8  2  0
  5  9  2  0
  9 10  1  0
 10 11  2  0
 11 12  1  0
 12 13  2  0
 13 14  1  0
 14 15  1  0
 15 16  1  0
 16 17  1  0
 17 18  1  0
 18 19  1  0
 19 20  1  0
 20 21  1  0
 21 22  1  0
 22 23  1  0
 13 24  1  0
 24 25  2  0
 25  4  1  0
 25 10  1  0
  1 26  1  0
  1 27  1  0
  1 28  1  0
  7 29  1  0
  9 30  1  0
 11 31  1  0
 12 32  1  0
 14 33  1  0
 14 34  1  0
 15 35  1  0
 15 36  1  0
 16 37  1  0
 16 38  1  0
 18 39  1  0
 18 40  1  0
 19 41  1  0
 19 42  1  0
 21 43  1  0
 21 44  1  0
 22 45  1  0
 22 46  1  0
 23 47  1  0
 24 48  1  0
M  CHG  2   7  -1  14   1
M  END
>  <UniqueID>  (44) 
44

>  <SMILES>  (44) 
CC(=O)n1c(C([NH-])=O)cc2ccc([NH2+]CCOCCOCCO)cc21

>  <Energy>  (44) 
87.99741350318047

>  <Genealogy>  (44) 
CC(=O)n1c(C([NH-])=O)cc2ccc([NH2+]CCOCCOCCO)cc21 (protonated)
CC(=O)n1c(C([NH-])=O)cc2ccc([NH2+]CCOCCOCCO)cc21 (3D coordinates assigned)
CC(=O)n1c(C([NH-])=O)cc2ccc([NH2+]CCOCCOCCO)cc21 (optimized conformer: 87.99741350318047 kcal/mol)

>  <smiles>  (44) 
CC(=O)n1c(C(N)=O)cc2ccc(NCCOCCOCCO)cc21

>  <score_type>  (44) 
oracle

>  <origin>  (44) 
adg

>  <m_score__min__energy>  (44) 
-4.75

>  <m_primary>  (44) 
energy

$$$$
46:0
     RDKit          3D

 45 47  0  0  0  0  0  0  0  0999 V2000
  141.4080  156.7680  137.2360 C   0  0  0  0  0  0  0  0  0  0  0  0
  141.6200  158.2040  137.1440 N   0  0  0  0  0  0  0  0  0  0  0  0
  141.0250  159.0100  136.1220 C   0  0  0  0  0  0  0  0  0  0  0  0
  140.9410  160.2590  136.2750 O   0  0  0  0  0  0  0  0  0  0  0  0
  140.5240  158.3750  134.8800 C   0  0  0  0  0  0  0  0  0  0  0  0
  139.1920  157.9270  134.8450 C   0  0  0  0  0  0  0  0  0  0  0  0
  138.6940  157.2590  133.7250 C   0  0  0  0  0  0  0  0  0  0  0  0
  139.5150  157.0290  132.6240 C   0  0  0  0  0  0  0  0  0  0  0  0
  140.8350  157.4820  132.6300 C   0  0  0  0  0  0  0  0  0  0  0  0
  141.3550  158.1680  133.7420 C   0  0  0  0  0  0  0  0  0  0  0  0
  142.7310  158.7160  133.6540 C   0  0  0  0  0  0  0  0  0  0  0  0
  142.9550  160.1100  133.7830 C   0  0  0  0  0  0  0  0  0  0  0  0
  144.2560  160.6360  133.7120 C   0  0  0  0  0  0  0  0  0  0  0  0
  145.3090  159.7480  133.5040 C   0  0  0  0  0  0  0  0  0  0  0  0
  146.6600  159.9850  133.3940 C   0  0  0  0  0  0  0  0  0  0  0  0
  147.2370  158.7360  133.1770 C   0  0  0  0  0  0  0  0  0  0  0  0
  148.6760  158.5450  132.8950 C   0  0  0  0  0  0  0  0  0  0  0  0
  149.1270  157.4880  132.0540 N   0  0  0  0  0  0  0  0  0  0  0  0
  149.5160  159.3590  133.3660 O   0  0  0  0  0  0  0  0  0  0  0  0
  146.2820  157.7630  133.1670 N   0  0  0  0  0  0  0  0  0  0  0  0
  146.4590  156.3470  133.0080 C   0  0  0  0  0  0  0  0  0  0  0  0
  146.5580  155.8500  131.8530 O   0  0  0  0  0  0  0  0  0  0  0  0
  146.5600  155.5310  134.1420 O   0  0  0  0  0  0  0  0  0  0  0  0
  147.7630  154.8830  134.5510 C   0  0  0  0  0  0  0  0  0  0  0  0
  148.2850  153.9660  133.4480 C   0  0  0  0  0  0  0  0  0  0  0  0
  149.0080  154.7050  132.5040 O   0  0  0  0  0  0  0  0  0  0  0  0
  145.1080  158.4000  133.3680 C   0  0  0  0  0  0  0  0  0  0  0  0
  143.8280  157.8460  133.4710 C   0  0  0  0  0  0  0  0  0  0  0  0
  141.3641  156.4709  138.2942 H   0  0  0  0  0  0  0  0  0  0  0  0
  140.4613  156.5047  136.7417 H   0  0  0  0  0  0  0  0  0  0  0  0
  142.2383  156.2424  136.7417 H   0  0  0  0  0  0  0  0  0  0  0  0
  138.5352  158.1047  135.7093 H   0  0  0  0  0  0  0  0  0  0  0  0
  137.6498  156.9132  133.7121 H   0  0  0  0  0  0  0  0  0  0  0  0
  139.1228  156.4899  131.7490 H   0  0  0  0  0  0  0  0  0  0  0  0
  141.4761  157.3003  131.7548 H   0  0  0  0  0  0  0  0  0  0  0  0
  142.1019  160.7864  133.9402 H   0  0  0  0  0  0  0  0  0  0  0  0
  144.4374  161.7158  133.8174 H   0  0  0  0  0  0  0  0  0  0  0  0
  147.1748  160.9547  133.4628 H   0  0  0  0  0  0  0  0  0  0  0  0
  148.4900  156.7040  131.7880 H   0  0  0  0  0  0  0  0  0  0  0  0
  148.5239  155.6443  134.7776 H   0  0  0  0  0  0  0  0  0  0  0  0
  147.5515  154.2764  135.4439 H   0  0  0  0  0  0  0  0  0  0  0  0
  148.9412  153.2024  133.8911 H   0  0  0  0  0  0  0  0  0  0  0  0
  147.4312  153.4849  132.9484 H   0  0  0  0  0  0  0  0  0  0  0  0
  148.5450  155.5780  132.4250 H   0  0  0  0  0  0  0  0  0  0  0  0
  143.6793  156.7578  133.4108 H   0  0  0  0  0  0  0  0  0  0  0  0
  1  2  1  0
  2  3  1  0
  3  4  2  0
  3  5  1  0
  5  6  2  0
  6  7  1  0
  7  8  2  0
  8  9  1  0
  9 10  2  0
 10 11  1  0
 11 12  2  0
 12 13  1  0
 13 14  2  0
 14 15  1  0
 15 16  2  0
 16 17  1  0
 17 18  1  0
 17 19  2  0
 16 20  1  0
 20 21  1  0
 21 22  2  0
 21 23  1  0
 23 24  1  0
 24 25  1  0
 25 26  1  0
 20 27  1  0
 27 28  2  0
 10  5  1  0
 28 11  1  0
 27 14  1  0
  1 29  1  0
  1 30  1  0
  1 31  1  0
  6 32  1  0
  7 33  1  0
  8 34  1  0
  9 35  1  0
 12 36  1  0
 13 37  1  0
 15 38  1  0
 18 39  1  0
 24 40  1  0
 24 41  1  0
 25 42  1  0
 25 43  1  0
 26 44  1  0
 28 45  1  0
M  CHG  2   2  -1  18  -1
M  END
>  <UniqueID>  (45) 
45

>  <SMILES>  (45) 
C[N-]C(=O)c1ccccc1-c1ccc2cc(C([NH-])=O)n(C(=O)OCCO)c2c1

>  <Energy>  (45) 
90.3716078183794

>  <Genealogy>  (45) 
C[N-]C(=O)c1ccccc1-c1ccc2cc(C([NH-])=O)n(C(=O)OCCO)c2c1 (protonated)
C[N-]C(=O)c1ccccc1-c1ccc2cc(C([NH-])=O)n(C(=O)OCCO)c2c1 (3D coordinates assigned)
C[N-]C(=O)c1ccccc1-c1ccc2cc(C([NH-])=O)n(C(=O)OCCO)c2c1 (optimized conformer: 90.3716078183794 kcal/mol)

>  <smiles>  (45) 
CNC(=O)c1ccccc1-c1ccc2cc(C(N)=O)n(C(=O)OCCO)c2c1

>  <score_type>  (45) 
oracle

>  <origin>  (45) 
adg

>  <m_score__min__energy>  (45) 
-7.4900000000000002

>  <m_primary>  (45) 
energy

$$$$
47:0
     RDKit          3D

 37 38  0  0  0  0  0  0  0  0999 V2000
  139.6090  158.9690  131.8360 C   0  0  0  0  0  0  0  0  0  0  0  0
  139.1030  157.9130  132.4720 C   0  0  0  0  0  0  0  0  0  0  0  0
  139.6090  157.4600  133.7820 C   0  0  0  0  0  0  0  0  0  0  0  0
  139.0650  157.8520  134.8490 O   0  0  0  0  0  0  0  0  0  0  0  0
  140.8000  156.5520  133.8610 C   0  0  0  0  0  0  0  0  0  0  0  0
  141.9840  157.3150  134.2330 N   0  0  0  0  0  0  0  0  0  0  0  0
  143.0050  157.6990  133.3060 C   0  0  0  0  0  0  0  0  0  0  0  0
  143.2540  156.9780  132.3010 O   0  0  0  0  0  0  0  0  0  0  0  0
  143.7360  158.9170  133.5110 N   0  0  0  0  0  0  0  0  0  0  0  0
  143.2610  160.1160  133.9500 C   0  0  0  0  0  0  0  0  0  0  0  0
  141.8400  160.4600  134.1720 C   0  0  0  0  0  0  0  0  0  0  0  0
  141.1120  159.9040  135.2640 N   0  0  0  0  0  0  0  0  0  0  0  0
  141.2490  161.2220  133.3620 O   0  0  0  0  0  0  0  0  0  0  0  0
  144.3040  161.0290  134.0990 C   0  0  0  0  0  0  0  0  0  0  0  0
  145.4410  160.3480  133.7290 C   0  0  0  0  0  0  0  0  0  0  0  0
  146.7670  160.7700  133.6950 C   0  0  0  0  0  0  0  0  0  0  0  0
  147.7430  159.8410  133.2980 C   0  0  0  0  0  0  0  0  0  0  0  0
  147.3830  158.5130  132.9620 C   0  0  0  0  0  0  0  0  0  0  0  0
  148.4380  157.5280  132.5260 C   0  0  0  0  0  0  0  0  0  0  0  0
  148.1070  156.1110  132.9950 C   0  0  0  0  0  0  0  0  0  0  0  0
  147.7860  156.1130  134.3400 F   0  0  0  0  0  0  0  0  0  0  0  0
  147.0430  155.6020  132.2720 F   0  0  0  0  0  0  0  0  0  0  0  0
  149.2090  155.2960  132.8000 F   0  0  0  0  0  0  0  0  0  0  0  0
  146.0260  158.1220  133.0020 C   0  0  0  0  0  0  0  0  0  0  0  0
  145.0720  159.0740  133.3800 C   0  0  0  0  0  0  0  0  0  0  0  0
  139.2005  159.2712  130.8604 H   0  0  0  0  0  0  0  0  0  0  0  0
  140.4352  159.5385  132.2866 H   0  0  0  0  0  0  0  0  0  0  0  0
  138.2771  157.3582  132.0029 H   0  0  0  0  0  0  0  0  0  0  0  0
  140.6156  155.7741  134.6165 H   0  0  0  0  0  0  0  0  0  0  0  0
  140.9647  156.0858  132.8783 H   0  0  0  0  0  0  0  0  0  0  0  0
  140.9120  158.8810  135.3100 H   0  0  0  0  0  0  0  0  0  0  0  0
  144.2331  162.0724  134.4400 H   0  0  0  0  0  0  0  0  0  0  0  0
  147.0420  161.7988  133.9704 H   0  0  0  0  0  0  0  0  0  0  0  0
  148.7980  160.1482  133.2475 H   0  0  0  0  0  0  0  0  0  0  0  0
  148.5025  157.5355  131.4279 H   0  0  0  0  0  0  0  0  0  0  0  0
  149.3966  157.8261  132.9757 H   0  0  0  0  0  0  0  0  0  0  0  0
  145.7268  157.0957  132.7427 H   0  0  0  0  0  0  0  0  0  0  0  0
  1  2  2  0
  2  3  1  0
  3  4  2  0
  3  5  1  0
  5  6  1  0
  6  7  1  0
  7  8  2  0
  7  9  1  0
  9 10  1  0
 10 11  1  0
 11 12  1  0
 11 13  2  0
 10 14  2  0
 14 15  1  0
 15 16  2  0
 16 17  1  0
 17 18  2  0
 18 19  1  0
 19 20  1  0
 20 21  1  0
 20 22  1  0
 20 23  1  0
 18 24  1  0
 24 25  2  0
 25  9  1  0
 25 15  1  0
  1 26  1  0
  1 27  1  0
  2 28  1  0
  5 29  1  0
  5 30  1  0
 12 31  1  0
 14 32  1  0
 16 33  1  0
 17 34  1  0
 19 35  1  0
 19 36  1  0
 24 37  1  0
M  CHG  2   6  -1  12  -1
M  END
>  <UniqueID>  (46) 
46

>  <SMILES>  (46) 
C=CC(=O)C[N-]C(=O)n1c(C([NH-])=O)cc2ccc(CC(F)(F)F)cc21

>  <Energy>  (46) 
69.08330334260934

>  <Genealogy>  (46) 
C=CC(=O)C[N-]C(=O)n1c(C([NH-])=O)cc2ccc(CC(F)(F)F)cc21 (protonated)
C=CC(=O)C[N-]C(=O)n1c(C([NH-])=O)cc2ccc(CC(F)(F)F)cc21 (3D coordinates assigned)
C=CC(=O)C[N-]C(=O)n1c(C([NH-])=O)cc2ccc(CC(F)(F)F)cc21 (optimized conformer: 69.08330334260934 kcal/mol)

>  <smiles>  (46) 
C=CC(=O)CNC(=O)n1c(C(N)=O)cc2ccc(CC(F)(F)F)cc21

>  <score_type>  (46) 
oracle

>  <origin>  (46) 
adg

>  <m_score__min__energy>  (46) 
-6.96

>  <m_primary>  (46) 
energy

$$$$
48:0
     RDKit          3D

107113  0  0  0  0  0  0  0  0999 V2000
  144.7530  151.1050  132.2640 C   0  0  0  0  0  0  0  0  0  0  0  0
  145.5750  152.3690  131.9530 C   0  0  0  0  0  0  0  0  0  0  0  0
  144.7340  153.3530  131.1210 C   0  0  0  0  0  0  0  0  0  0  0  0
  146.1100  153.0370  133.2110 C   0  0  0  0  0  0  0  0  0  0  0  0
  145.4290  153.4880  134.2920 C   0  0  0  0  0  0  0  0  0  0  0  0
  143.9210  153.3020  134.6190 C   0  0  2  0  0  0  0  0  0  0  0  0
  143.0190  153.7480  133.4540 C   0  0  0  0  0  0  0  0  0  0  0  0
  141.5710  154.0560  133.8050 C   0  0  0  0  0  0  0  0  0  0  0  0
  141.3270  155.1260  134.9310 C   0  0  2  0  0  0  0  0  0  0  0  0
  140.6380  156.4910  134.3980 C   0  0  1  0  0  0  0  0  0  0  0  0
  139.5360  156.0850  133.3540 C   0  0  0  0  0  0  0  0  0  0  0  0
  139.8610  157.2280  135.5350 C   0  0  0  0  0  0  0  0  0  0  0  0
  139.2710  158.5960  135.1090 C   0  0  0  0  0  0  0  0  0  0  0  0
  140.3160  159.5600  134.4900 C   0  0  1  0  0  0  0  0  0  0  0  0
  141.1150  160.1830  135.4720 O   0  0  0  0  0  0  0  0  0  0  0  0
  141.1930  158.8930  133.3720 C   0  0  0  0  0  0  0  0  0  0  0  0
  140.3800  158.7790  132.0540 C   0  0  0  0  0  0  0  0  0  0  0  0
  142.3680  159.8590  133.0110 C   0  0  0  0  0  0  0  0  0  0  0  0
  141.7410  157.4610  133.8170 C   0  0  1  0  0  0  0  0  0  0  0  0
  142.8900  157.6320  134.8510 C   0  0  0  0  0  0  0  0  0  0  0  0
  143.5460  156.3390  135.3140 C   0  0  0  0  0  0  0  0  0  0  0  0
  142.5900  155.2690  135.8990 C   0  0  1  0  0  0  0  0  0  0  0  0
  142.1210  155.7600  137.3290 C   0  0  0  0  0  0  0  0  0  0  0  0
  143.4110  153.8640  136.0460 C   0  0  1  0  0  0  0  0  0  0  0  0
  142.4560  152.7690  136.6780 C   0  0  0  0  0  0  0  0  0  0  0  0
  144.5850  154.0380  137.1080 C   0  0  0  0  0  0  0  0  0  0  0  0
  145.9350  153.4580  136.7050 C   0  0  0  0  0  0  0  0  0  0  0  0
  146.3890  153.9870  135.3390 C   0  0  2  0  0  0  0  0  0  0  0  0
  146.4630  155.4540  135.3270 N   0  0  0  0  0  0  0  0  0  0  0  0
  147.2710  156.2000  134.4050 C   0  0  0  0  0  0  0  0  0  0  0  0
  148.4280  155.6840  133.7940 C   0  0  0  0  0  0  0  0  0  0  0  0
  149.1440  156.4440  132.8530 C   0  0  0  0  0  0  0  0  0  0  0  0
  148.7110  157.7320  132.5940 C   0  0  0  0  0  0  0  0  0  0  0  0
  149.1180  158.6330  131.6200 C   0  0  0  0  0  0  0  0  0  0  0  0
  148.2040  159.6670  131.6900 C   0  0  0  0  0  0  0  0  0  0  0  0
  148.1270  160.7380  130.7010 C   0  0  0  0  0  0  0  0  0  0  0  0
  149.2750  161.5440  130.4100 N   0  0  0  0  0  0  0  0  0  0  0  0
  147.0840  160.8710  129.9980 O   0  0  0  0  0  0  0  0  0  0  0  0
  147.2940  159.4470  132.6660 N   0  0  0  0  0  0  0  0  0  0  0  0
  146.2780  160.3490  133.1110 C   0  0  0  0  0  0  0  0  0  0  0  0
  145.1750  160.4270  132.5090 O   0  0  0  0  0  0  0  0  0  0  0  0
  146.5760  161.2520  134.1400 O   0  0  0  0  0  0  0  0  0  0  0  0
  145.9730  162.5500  134.1120 C   0  0  0  0  0  0  0  0  0  0  0  0
  144.4440  162.4370  134.1240 C   0  0  0  0  0  0  0  0  0  0  0  0
  144.0640  161.1980  134.6690 O   0  0  0  0  0  0  0  0  0  0  0  0
  147.6160  158.2660  133.2120 C   0  0  0  0  0  0  0  0  0  0  0  0
  146.8850  157.5270  134.1590 C   0  0  0  0  0  0  0  0  0  0  0  0
  147.7430  153.3940  134.9580 C   0  0  0  0  0  0  0  0  0  0  0  0
  147.5390  153.0830  133.5420 C   0  0  0  0  0  0  0  0  0  0  0  0
  148.4920  152.8390  132.7500 O   0  0  0  0  0  0  0  0  0  0  0  0
  144.6715  150.9796  133.3538 H   0  0  0  0  0  0  0  0  0  0  0  0
  143.7472  151.2058  131.8302 H   0  0  0  0  0  0  0  0  0  0  0  0
  145.2531  150.2265  131.8302 H   0  0  0  0  0  0  0  0  0  0  0  0
  146.4520  152.0592  131.3657 H   0  0  0  0  0  0  0  0  0  0  0  0
  144.1693  154.0137  131.7952 H   0  0  0  0  0  0  0  0  0  0  0  0
  145.3985  153.9579  130.4865 H   0  0  0  0  0  0  0  0  0  0  0  0
  144.0330  152.7908  130.4865 H   0  0  0  0  0  0  0  0  0  0  0  0
  143.8221  152.2132  134.7402 H   0  0  0  0  0  0  0  0  0  0  0  0
  143.4591  154.6568  133.0178 H   0  0  0  0  0  0  0  0  0  0  0  0
  142.9791  152.8895  132.7674 H   0  0  0  0  0  0  0  0  0  0  0  0
  141.0763  154.4160  132.8909 H   0  0  0  0  0  0  0  0  0  0  0  0
  141.1663  153.1161  134.2083 H   0  0  0  0  0  0  0  0  0  0  0  0
  140.5389  154.7443  135.5967 H   0  0  0  0  0  0  0  0  0  0  0  0
  138.6323  155.7521  133.8855 H   0  0  0  0  0  0  0  0  0  0  0  0
  139.2916  156.9521  132.7228 H   0  0  0  0  0  0  0  0  0  0  0  0
  139.9126  155.2666  132.7228 H   0  0  0  0  0  0  0  0  0  0  0  0
  139.0340  156.5818  135.8642 H   0  0  0  0  0  0  0  0  0  0  0  0
  140.5856  157.4293  136.3377 H   0  0  0  0  0  0  0  0  0  0  0  0
  138.4805  158.4168  134.3654 H   0  0  0  0  0  0  0  0  0  0  0  0
  138.8884  159.0789  136.0203 H   0  0  0  0  0  0  0  0  0  0  0  0
  139.7297  160.3465  133.9923 H   0  0  0  0  0  0  0  0  0  0  0  0
  142.0030  160.4350  135.1010 H   0  0  0  0  0  0  0  0  0  0  0  0
  139.3163  158.6298  132.2911 H   0  0  0  0  0  0  0  0  0  0  0  0
  140.4992  159.7027  131.4686 H   0  0  0  0  0  0  0  0  0  0  0  0
  140.7486  157.9238  131.4686 H   0  0  0  0  0  0  0  0  0  0  0  0
  142.8286  160.2376  133.9354 H   0  0  0  0  0  0  0  0  0  0  0  0
  143.1215  159.3157  132.4218 H   0  0  0  0  0  0  0  0  0  0  0  0
  141.9807  160.7033  132.4218 H   0  0  0  0  0  0  0  0  0  0  0  0
  142.1100  156.9822  132.8980 H   0  0  0  0  0  0  0  0  0  0  0  0
  143.6670  158.2628  134.3944 H   0  0  0  0  0  0  0  0  0  0  0  0
  142.4304  158.0773  135.7457 H   0  0  0  0  0  0  0  0  0  0  0  0
  144.0620  155.8944  134.4503 H   0  0  0  0  0  0  0  0  0  0  0  0
  144.2165  156.6230  136.1385 H   0  0  0  0  0  0  0  0  0  0  0  0
  142.6595  155.1963  138.1051 H   0  0  0  0  0  0  0  0  0  0  0  0
  142.3383  156.8328  137.4378 H   0  0  0  0  0  0  0  0  0  0  0  0
  141.0394  155.5921  137.4378 H   0  0  0  0  0  0  0  0  0  0  0  0
  142.5069  152.8274  137.7753 H   0  0  0  0  0  0  0  0  0  0  0  0
  141.4222  152.9501  136.3487 H   0  0  0  0  0  0  0  0  0  0  0  0
  142.7759  151.7694  136.3487 H   0  0  0  0  0  0  0  0  0  0  0  0
  144.7204  155.1147  137.2880 H   0  0  0  0  0  0  0  0  0  0  0  0
  144.2700  153.4719  137.9970 H   0  0  0  0  0  0  0  0  0  0  0  0
  146.6833  153.7348  137.4622 H   0  0  0  0  0  0  0  0  0  0  0  0
  145.8340  152.3648  136.6355 H   0  0  0  0  0  0  0  0  0  0  0  0
  146.1870  155.9870  136.1760 H   0  0  0  0  0  0  0  0  0  0  0  0
  148.7766  154.6740  134.0556 H   0  0  0  0  0  0  0  0  0  0  0  0
  150.0221  156.0271  132.3381 H   0  0  0  0  0  0  0  0  0  0  0  0
  149.9791  158.5436  130.9413 H   0  0  0  0  0  0  0  0  0  0  0  0
  149.2280  162.2800  129.6700 H   0  0  0  0  0  0  0  0  0  0  0  0
  150.1640  161.4540  130.9680 H   0  0  0  0  0  0  0  0  0  0  0  0
  146.3000  163.1193  134.9946 H   0  0  0  0  0  0  0  0  0  0  0  0
  146.2826  163.0643  133.1902 H   0  0  0  0  0  0  0  0  0  0  0  0
  144.0222  163.2494  134.7340 H   0  0  0  0  0  0  0  0  0  0  0  0
  144.0653  162.5131  133.0940 H   0  0  0  0  0  0  0  0  0  0  0  0
  144.8980  160.6360  134.6670 H   0  0  0  0  0  0  0  0  0  0  0  0
  146.0343  157.9763  134.6922 H   0  0  0  0  0  0  0  0  0  0  0  0
  148.5543  154.1239  135.0960 H   0  0  0  0  0  0  0  0  0  0  0  0
  148.0407  152.5286  135.5683 H   0  0  0  0  0  0  0  0  0  0  0  0
  1  2  1  0
  2  3  1  0
  2  4  1  0
  4  5  2  0
  5  6  1  0
  6  7  1  0
  7  8  1  0
  8  9  1  0
  9 10  1  0
 10 11  1  6
 10 12  1  0
 12 13  1  0
 13 14  1  0
 14 15  1  0
 14 16  1  0
 16 17  1  0
 16 18  1  0
 16 19  1  0
 19 20  1  0
 20 21  1  0
 21 22  1  0
 22 23  1  1
 22 24  1  0
 24 25  1  1
 24 26  1  0
 26 27  1  0
 27 28  1  0
 28 29  1  1
 29 30  1  0
 30 31  2  0
 31 32  1  0
 32 33  2  0
 33 34  1  0
 34 35  2  0
 35 36  1  0
 36 37  1  0
 36 38  2  0
 35 39  1  0
 39 40  1  0
 40 41  2  0
 40 42  1  0
 42 43  1  0
 43 44  1  0
 44 45  1  0
 39 46  1  0
 46 47  2  0
 28 48  1  0
 48 49  1  0
 49 50  2  0
 49  4  1  0
 28  5  1  0
 47 30  1  0
 24  6  1  0
 46 33  1  0
 22  9  1  0
 19 10  1  0
  1 51  1  0
  1 52  1  0
  1 53  1  0
  2 54  1  0
  3 55  1  0
  3 56  1  0
  3 57  1  0
  6 58  1  1
  7 59  1  0
  7 60  1  0
  8 61  1  0
  8 62  1  0
  9 63  1  1
 11 64  1  0
 11 65  1  0
 11 66  1  0
 12 67  1  0
 12 68  1  0
 13 69  1  0
 13 70  1  0
 14 71  1  6
 15 72  1  0
 17 73  1  0
 17 74  1  0
 17 75  1  0
 18 76  1  0
 18 77  1  0
 18 78  1  0
 19 79  1  6
 20 80  1  0
 20 81  1  0
 21 82  1  0
 21 83  1  0
 23 84  1  0
 23 85  1  0
 23 86  1  0
 25 87  1  0
 25 88  1  0
 25 89  1  0
 26 90  1  0
 26 91  1  0
 27 92  1  0
 27 93  1  0
 29 94  1  0
 31 95  1  0
 32 96  1  0
 34 97  1  0
 37 98  1  0
 37 99  1  0
 43100  1  0
 43101  1  0
 44102  1  0
 44103  1  0
 45104  1  0
 47105  1  0
 48106  1  0
 48107  1  0
M  END
>  <UniqueID>  (47) 
47

>  <SMILES>  (47) 
CC(C)C1=C2[C@@H]3CC[C@@H]4C5(C)CCC(O)C(C)(C)C5CCC4(C)C3(C)CCC2(Nc2ccc3cc(C(N)=O)n(C(=O)OCCO)c3c2)CC1=O

>  <Energy>  (47) 
266.5902333519506

>  <Genealogy>  (47) 
CC(C)C1=C2[C@@H]3CC[C@@H]4C5(C)CCC(O)C(C)(C)C5CCC4(C)C3(C)CCC2(Nc2ccc3cc(C(N)=O)n(C(=O)OCCO)c3c2)CC1=O (chirality)
CC(C)C1=C2[C@@H]3CC[C@@H]4C5(C)CCC(O)C(C)(C)C5CCC4(C)C3(C)CCC2(Nc2ccc3cc(C(N)=O)n(C(=O)OCCO)c3c2)CC1=O (3D coordinates assigned)
CC(C)C1=C2[C@@H]3CC[C@@H]4C5(C)CCC(O)C(C)(C)C5CCC4(C)C3(C)CCC2(Nc2ccc3cc(C(N)=O)n(C(=O)OCCO)c3c2)CC1=O (nonaromatic ring conformer: 266.5902333519506 kcal/mol)

>  <smiles>  (47) 
CC(C)C1=C2C3CCC4C5(C)CCC(O)C(C)(C)C5CCC4(C)C3(C)CCC2(Nc2ccc3cc(C(N)=O)n(C(=O)OCCO)c3c2)CC1=O

>  <score_type>  (47) 
oracle

>  <origin>  (47) 
adg

>  <m_score__min__energy>  (47) 
-11.460000000000001

>  <m_primary>  (47) 
energy

$$$$
49:0
     RDKit          3D

 44 45  0  0  0  0  0  0  0  0999 V2000
  138.1900  158.9480  131.2100 C   0  0  0  0  0  0  0  0  0  0  0  0
  138.7850  158.4550  132.1370 C   0  0  0  0  0  0  0  0  0  0  0  0
  139.4930  157.8660  133.2420 C   0  0  0  0  0  0  0  0  0  0  0  0
  139.6670  158.6000  134.4400 C   0  0  0  0  0  0  0  0  0  0  0  0
  140.3470  158.0310  135.5320 C   0  0  0  0  0  0  0  0  0  0  0  0
  140.8390  156.7370  135.3900 C   0  0  0  0  0  0  0  0  0  0  0  0
  141.5150  155.9380  136.2860 C   0  0  0  0  0  0  0  0  0  0  0  0
  141.7520  154.7420  135.6110 C   0  0  0  0  0  0  0  0  0  0  0  0
  142.5220  153.6170  136.1830 C   0  0  0  0  0  0  0  0  0  0  0  0
  143.8980  153.4330  135.8670 N   0  0  0  0  0  0  0  0  0  0  0  0
  141.9640  152.8240  136.9880 O   0  0  0  0  0  0  0  0  0  0  0  0
  141.2350  154.7970  134.3510 N   0  0  0  0  0  0  0  0  0  0  0  0
  141.2040  153.7600  133.3600 C   0  0  0  0  0  0  0  0  0  0  0  0
  140.1970  153.6540  132.6090 O   0  0  0  0  0  0  0  0  0  0  0  0
  142.3120  152.7860  133.2580 C   0  0  0  0  0  0  0  0  0  0  0  0
  142.0330  151.5610  133.1190 O   0  0  0  0  0  0  0  0  0  0  0  0
  143.6930  153.2230  133.2370 N   0  0  1  0  0  0  0  0  0  0  0  0
  144.5410  152.1980  132.6020 C   0  0  0  0  0  0  0  0  0  0  0  0
  143.7840  154.5210  132.5330 C   0  0  0  0  0  0  0  0  0  0  0  0
  144.5610  155.5390  133.3380 C   0  0  0  0  0  0  0  0  0  0  0  0
  145.5050  155.1190  134.0640 O   0  0  0  0  0  0  0  0  0  0  0  0
  144.2850  156.9580  133.2810 N   0  0  0  0  0  0  0  0  0  0  0  0
  145.2060  157.8830  133.9480 C   0  0  0  0  0  0  0  0  0  0  0  0
  143.0920  157.4770  132.6020 C   0  0  0  0  0  0  0  0  0  0  0  0
  140.6860  156.0220  134.2300 C   0  0  0  0  0  0  0  0  0  0  0  0
  140.0050  156.5580  133.1310 C   0  0  0  0  0  0  0  0  0  0  0  0
  137.6477  159.3974  130.3651 H   0  0  0  0  0  0  0  0  0  0  0  0
  139.2678  159.6221  134.5174 H   0  0  0  0  0  0  0  0  0  0  0  0
  140.4855  158.5911  136.4685 H   0  0  0  0  0  0  0  0  0  0  0  0
  141.8061  156.1907  137.3163 H   0  0  0  0  0  0  0  0  0  0  0  0
  144.3980  154.0940  135.2320 H   0  0  0  0  0  0  0  0  0  0  0  0
  144.0320  153.3400  134.2200 H   0  0  0  0  0  0  0  0  0  0  0  0
  145.0367  151.5988  133.3800 H   0  0  0  0  0  0  0  0  0  0  0  0
  143.9175  151.5426  131.9761 H   0  0  0  0  0  0  0  0  0  0  0  0
  145.3016  152.6877  131.9761 H   0  0  0  0  0  0  0  0  0  0  0  0
  144.2890  154.3687  131.5677 H   0  0  0  0  0  0  0  0  0  0  0  0
  142.7636  154.9049  132.3869 H   0  0  0  0  0  0  0  0  0  0  0  0
  145.1034  157.7800  135.0383 H   0  0  0  0  0  0  0  0  0  0  0  0
  146.2393  157.6479  133.6531 H   0  0  0  0  0  0  0  0  0  0  0  0
  144.9664  158.9153  133.6531 H   0  0  0  0  0  0  0  0  0  0  0  0
  142.3539  157.7981  133.3518 H   0  0  0  0  0  0  0  0  0  0  0  0
  143.3722  158.3346  131.9727 H   0  0  0  0  0  0  0  0  0  0  0  0
  142.6556  156.6874  131.9727 H   0  0  0  0  0  0  0  0  0  0  0  0
  139.8733  155.9751  132.2075 H   0  0  0  0  0  0  0  0  0  0  0  0
  1  2  3  0
  2  3  1  0
  3  4  2  0
  4  5  1  0
  5  6  2  0
  6  7  1  0
  7  8  2  0
  8  9  1  0
  9 10  1  0
  9 11  2  0
  8 12  1  0
 12 13  1  0
 13 14  2  0
 13 15  1  0
 15 16  2  0
 15 17  1  0
 17 18  1  0
 17 19  1  0
 19 20  1  0
 20 21  2  0
 20 22  1  0
 22 23  1  0
 22 24  1  0
 12 25  1  0
 25 26  2  0
 26  3  1  0
 25  6  1  0
  1 27  1  0
  4 28  1  0
  5 29  1  0
  7 30  1  0
 10 31  1  0
 17 32  1  1
 18 33  1  0
 18 34  1  0
 18 35  1  0
 19 36  1  0
 19 37  1  0
 23 38  1  0
 23 39  1  0
 23 40  1  0
 24 41  1  0
 24 42  1  0
 24 43  1  0
 26 44  1  0
M  CHG  2  10  -1  17   1
M  END
>  <UniqueID>  (48) 
48

>  <SMILES>  (48) 
C#Cc1ccc2cc(C([NH-])=O)n(C(=O)C(=O)[N@@H+](C)CC(=O)N(C)C)c2c1

>  <Energy>  (48) 
82.10903419279016

>  <Genealogy>  (48) 
C#Cc1ccc2cc(C([NH-])=O)n(C(=O)C(=O)[NH+](C)CC(=O)N(C)C)c2c1 (protonated)
C#Cc1ccc2cc(C([NH-])=O)n(C(=O)C(=O)[N@@H+](C)CC(=O)N(C)C)c2c1 (chirality)
C#Cc1ccc2cc(C([NH-])=O)n(C(=O)C(=O)[N@@H+](C)CC(=O)N(C)C)c2c1 (3D coordinates assigned)
C#Cc1ccc2cc(C([NH-])=O)n(C(=O)C(=O)[N@@H+](C)CC(=O)N(C)C)c2c1 (optimized conformer: 82.10903419279016 kcal/mol)

>  <smiles>  (48) 
C#Cc1ccc2cc(C(N)=O)n(C(=O)C(=O)N(C)CC(=O)N(C)C)c2c1

>  <score_type>  (48) 
oracle

>  <origin>  (48) 
adg

>  <m_score__min__energy>  (48) 
-6.4900000000000002

>  <m_primary>  (48) 
energy

$$$$
50:0
     RDKit          3D

 43 44  0  0  0  0  0  0  0  0999 V2000
  147.1540  159.6210  132.6760 C   0  0  0  0  0  0  0  0  0  0  0  0
  147.2040  158.5230  133.5590 O   0  0  0  0  0  0  0  0  0  0  0  0
  148.1890  157.5960  133.1410 C   0  0  0  0  0  0  0  0  0  0  0  0
  147.5240  156.2860  132.6850 C   0  0  0  0  0  0  0  0  0  0  0  0
  146.0540  156.3620  132.7200 N   0  0  0  0  0  0  0  0  0  0  0  0
  145.4560  155.0470  132.7490 C   0  0  0  0  0  0  0  0  0  0  0  0
  146.2710  153.8910  132.6340 C   0  0  0  0  0  0  0  0  0  0  0  0
  145.7040  152.6070  132.6710 C   0  0  0  0  0  0  0  0  0  0  0  0
  144.3260  152.5070  132.8370 C   0  0  0  0  0  0  0  0  0  0  0  0
  143.5200  151.3930  132.8930 C   0  0  0  0  0  0  0  0  0  0  0  0
  142.2270  151.8810  133.0730 C   0  0  0  0  0  0  0  0  0  0  0  0
  141.0500  151.0110  133.2770 C   0  0  0  0  0  0  0  0  0  0  0  0
  139.9770  150.9940  132.3400 N   0  0  0  0  0  0  0  0  0  0  0  0
  140.9690  150.3080  134.3200 O   0  0  0  0  0  0  0  0  0  0  0  0
  142.2330  153.2450  133.1140 N   0  0  0  0  0  0  0  0  0  0  0  0
  141.1070  154.1300  133.2190 C   0  0  0  0  0  0  0  0  0  0  0  0
  140.0110  153.8190  132.6790 O   0  0  0  0  0  0  0  0  0  0  0  0
  141.2440  155.3470  133.8950 O   0  0  0  0  0  0  0  0  0  0  0  0
  141.3940  156.6010  133.2340 C   0  0  0  0  0  0  0  0  0  0  0  0
  142.1060  157.6040  134.1440 C   0  0  0  0  0  0  0  0  0  0  0  0
  143.5790  157.5940  133.8860 C   0  0  0  0  0  0  0  0  0  0  0  0
  144.3750  157.2010  134.7770 O   0  0  0  0  0  0  0  0  0  0  0  0
  144.0750  158.0630  132.6770 O   0  0  0  0  0  0  0  0  0  0  0  0
  143.5260  153.6110  132.9720 C   0  0  0  0  0  0  0  0  0  0  0  0
  144.0600  154.9030  132.9150 C   0  0  0  0  0  0  0  0  0  0  0  0
  147.1115  160.5554  133.2549 H   0  0  0  0  0  0  0  0  0  0  0  0
  148.0530  159.6230  132.0421 H   0  0  0  0  0  0  0  0  0  0  0  0
  146.2586  159.5413  132.0421 H   0  0  0  0  0  0  0  0  0  0  0  0
  148.7598  158.0246  132.3040 H   0  0  0  0  0  0  0  0  0  0  0  0
  148.8628  157.3827  133.9839 H   0  0  0  0  0  0  0  0  0  0  0  0
  147.8422  156.0680  131.6548 H   0  0  0  0  0  0  0  0  0  0  0  0
  147.8358  155.4917  133.3792 H   0  0  0  0  0  0  0  0  0  0  0  0
  145.7250  156.8620  131.8610 H   0  0  0  0  0  0  0  0  0  0  0  0
  145.7440  156.9290  133.5440 H   0  0  0  0  0  0  0  0  0  0  0  0
  147.3588  154.0021  132.5146 H   0  0  0  0  0  0  0  0  0  0  0  0
  146.3298  151.7078  132.5718 H   0  0  0  0  0  0  0  0  0  0  0  0
  143.8304  150.3408  132.8127 H   0  0  0  0  0  0  0  0  0  0  0  0
  139.6860  151.8630  131.8400 H   0  0  0  0  0  0  0  0  0  0  0  0
  141.9865  156.4590  132.3181 H   0  0  0  0  0  0  0  0  0  0  0  0
  140.3972  156.9929  132.9835 H   0  0  0  0  0  0  0  0  0  0  0  0
  141.7116  158.6123  133.9494 H   0  0  0  0  0  0  0  0  0  0  0  0
  141.9272  157.3217  135.1920 H   0  0  0  0  0  0  0  0  0  0  0  0
  143.4087  155.7856  132.9974 H   0  0  0  0  0  0  0  0  0  0  0  0
  1  2  1  0
  2  3  1  0
  3  4  1  0
  4  5  1  0
  5  6  1  0
  6  7  2  0
  7  8  1  0
  8  9  2  0
  9 10  1  0
 10 11  2  0
 11 12  1  0
 12 13  1  0
 12 14  2  0
 11 15  1  0
 15 16  1  0
 16 17  2  0
 16 18  1  0
 18 19  1  0
 19 20  1  0
 20 21  1  0
 21 22  2  0
 21 23  1  0
 15 24  1  0
 24 25  2  0
 25  6  1  0
 24  9  1  0
  1 26  1  0
  1 27  1  0
  1 28  1  0
  3 29  1  0
  3 30  1  0
  4 31  1  0
  4 32  1  0
  5 33  1  0
  5 34  1  0
  7 35  1  0
  8 36  1  0
 10 37  1  0
 13 38  1  0
 19 39  1  0
 19 40  1  0
 20 41  1  0
 20 42  1  0
 25 43  1  0
M  CHG  3   5   1  13  -1  23  -1
M  END
>  <UniqueID>  (49) 
49

>  <SMILES>  (49) 
COCC[NH2+]c1ccc2cc(C([NH-])=O)n(C(=O)OCCC(=O)[O-])c2c1

>  <Energy>  (49) 
78.86640899760583

>  <Genealogy>  (49) 
COCC[NH2+]c1ccc2cc(C([NH-])=O)n(C(=O)OCCC(=O)[O-])c2c1 (protonated)
COCC[NH2+]c1ccc2cc(C([NH-])=O)n(C(=O)OCCC(=O)[O-])c2c1 (3D coordinates assigned)
COCC[NH2+]c1ccc2cc(C([NH-])=O)n(C(=O)OCCC(=O)[O-])c2c1 (optimized conformer: 78.86640899760583 kcal/mol)

>  <smiles>  (49) 
COCCNc1ccc2cc(C(N)=O)n(C(=O)OCCC(=O)O)c2c1

>  <score_type>  (49) 
oracle

>  <origin>  (49) 
adg

>  <m_score__min__energy>  (49) 
-5.0700000000000003

>  <m_primary>  (49) 
energy

$$$$
51:0
     RDKit          3D

 47 48  0  0  0  0  0  0  0  0999 V2000
  148.8660  152.8070  132.7420 C   0  0  0  0  0  0  0  0  0  0  0  0
  148.4800  154.1440  133.3870 C   0  0  0  0  0  0  0  0  0  0  0  0
  147.6380  153.9820  134.6570 C   0  0  0  0  0  0  0  0  0  0  0  0
  147.8640  155.0750  132.4290 N   0  0  0  0  0  0  0  0  0  0  0  0
  147.3080  156.3870  132.6790 C   0  0  0  0  0  0  0  0  0  0  0  0
  148.1710  157.5090  132.5840 C   0  0  0  0  0  0  0  0  0  0  0  0
  147.7050  158.8090  132.8310 C   0  0  0  0  0  0  0  0  0  0  0  0
  146.3660  158.9680  133.1620 C   0  0  0  0  0  0  0  0  0  0  0  0
  145.6660  160.1080  133.4850 C   0  0  0  0  0  0  0  0  0  0  0  0
  144.3710  159.6790  133.7510 C   0  0  0  0  0  0  0  0  0  0  0  0
  143.2650  160.5990  134.0840 C   0  0  0  0  0  0  0  0  0  0  0  0
  142.0910  160.1330  134.7520 N   0  0  0  0  0  0  0  0  0  0  0  0
  143.3320  161.8050  133.7230 O   0  0  0  0  0  0  0  0  0  0  0  0
  144.2720  158.3280  133.6120 N   0  0  0  0  0  0  0  0  0  0  0  0
  143.1290  157.5100  133.9190 C   0  0  0  0  0  0  0  0  0  0  0  0
  143.2130  156.6030  134.7900 O   0  0  0  0  0  0  0  0  0  0  0  0
  141.9250  157.7240  133.2420 O   0  0  0  0  0  0  0  0  0  0  0  0
  140.6960  157.1260  133.6370 C   0  0  0  0  0  0  0  0  0  0  0  0
  139.9630  158.0660  134.5320 C   0  0  0  0  0  0  0  0  0  0  0  0
  139.8650  159.2850  134.2200 O   0  0  0  0  0  0  0  0  0  0  0  0
  139.4400  157.5930  135.7400 O   0  0  0  0  0  0  0  0  0  0  0  0
  140.2410  157.2890  136.8800 C   0  0  0  0  0  0  0  0  0  0  0  0
  141.1020  158.4900  137.2700 C   0  0  0  0  0  0  0  0  0  0  0  0
  140.5870  159.6600  136.6960 O   0  0  0  0  0  0  0  0  0  0  0  0
  145.5050  157.9060  133.2490 C   0  0  0  0  0  0  0  0  0  0  0  0
  145.9510  156.5950  133.0340 C   0  0  0  0  0  0  0  0  0  0  0  0
  149.0792  152.0684  133.5288 H   0  0  0  0  0  0  0  0  0  0  0  0
  148.0349  152.4478  132.1173 H   0  0  0  0  0  0  0  0  0  0  0  0
  149.7607  152.9460  132.1173 H   0  0  0  0  0  0  0  0  0  0  0  0
  149.4281  154.5998  133.7085 H   0  0  0  0  0  0  0  0  0  0  0  0
  148.2806  154.1056  135.5412 H   0  0  0  0  0  0  0  0  0  0  0  0
  146.8448  154.7440  134.6707 H   0  0  0  0  0  0  0  0  0  0  0  0
  147.1842  152.9801  134.6707 H   0  0  0  0  0  0  0  0  0  0  0  0
  147.7500  154.6980  131.4590 H   0  0  0  0  0  0  0  0  0  0  0  0
  149.2258  157.3567  132.3114 H   0  0  0  0  0  0  0  0  0  0  0  0
  148.3795  159.6754  132.7645 H   0  0  0  0  0  0  0  0  0  0  0  0
  146.0494  161.1383  133.5243 H   0  0  0  0  0  0  0  0  0  0  0  0
  141.3410  160.8060  135.0240 H   0  0  0  0  0  0  0  0  0  0  0  0
  141.9310  159.1150  134.9130 H   0  0  0  0  0  0  0  0  0  0  0  0
  140.0862  156.9141  132.7463 H   0  0  0  0  0  0  0  0  0  0  0  0
  140.8958  156.1851  134.1707 H   0  0  0  0  0  0  0  0  0  0  0  0
  139.5848  157.0260  137.7228 H   0  0  0  0  0  0  0  0  0  0  0  0
  140.9018  156.4448  136.6335 H   0  0  0  0  0  0  0  0  0  0  0  0
  141.1065  158.5938  138.3651 H   0  0  0  0  0  0  0  0  0  0  0  0
  142.1272  158.3313  136.9042 H   0  0  0  0  0  0  0  0  0  0  0  0
  139.6670  159.4480  136.3920 H   0  0  0  0  0  0  0  0  0  0  0  0
  145.2619  155.7440  133.1386 H   0  0  0  0  0  0  0  0  0  0  0  0
  1  2  1  0
  2  3  1  0
  2  4  1  0
  4  5  1  0
  5  6  2  0
  6  7  1  0
  7  8  2  0
  8  9  1  0
  9 10  2  0
 10 11  1  0
 11 12  1  0
 11 13  2  0
 10 14  1  0
 14 15  1  0
 15 16  2  0
 15 17  1  0
 17 18  1  0
 18 19  1  0
 19 20  2  0
 19 21  1  0
 21 22  1  0
 22 23  1  0
 23 24  1  0
 14 25  1  0
 25 26  2  0
 26  5  1  0
 25  8  1  0
  1 27  1  0
  1 28  1  0
  1 29  1  0
  2 30  1  0
  3 31  1  0
  3 32  1  0
  3 33  1  0
  4 34  1  0
  6 35  1  0
  7 36  1  0
  9 37  1  0
 12 38  1  0
 12 39  1  0
 18 40  1  0
 18 41  1  0
 22 42  1  0
 22 43  1  0
 23 44  1  0
 23 45  1  0
 24 46  1  0
 26 47  1  0
M  END
>  <UniqueID>  (50) 
50

>  <SMILES>  (50) 
CC(C)Nc1ccc2cc(C(N)=O)n(C(=O)OCC(=O)OCCO)c2c1

>  <Energy>  (50) 
78.75027799430273

>  <Genealogy>  (50) 
CC(C)Nc1ccc2cc(C(N)=O)n(C(=O)OCC(=O)OCCO)c2c1 (3D coordinates assigned)
CC(C)Nc1ccc2cc(C(N)=O)n(C(=O)OCC(=O)OCCO)c2c1 (optimized conformer: 78.75027799430273 kcal/mol)

>  <smiles>  (50) 
CC(C)Nc1ccc2cc(C(N)=O)n(C(=O)OCC(=O)OCCO)c2c1

>  <score_type>  (50) 
oracle

>  <origin>  (50) 
adg

>  <m_score__min__energy>  (50) 
-6.5099999999999998

>  <m_primary>  (50) 
energy

$$$$
52:0
     RDKit          3D

 37 38  0  0  0  0  0  0  0  0999 V2000
  141.8550  151.2190  139.4340 C   0  0  0  0  0  0  0  0  0  0  0  0
  141.1400  151.6500  138.3870 C   0  0  0  0  0  0  0  0  0  0  0  0
  140.2410  150.7330  137.6530 C   0  0  0  0  0  0  0  0  0  0  0  0
  139.1850  150.2980  138.1820 O   0  0  0  0  0  0  0  0  0  0  0  0
  140.5670  150.3320  136.3630 O   0  0  0  0  0  0  0  0  0  0  0  0
  141.2470  153.0230  137.9680 N   0  0  0  0  0  0  0  0  0  0  0  0
  140.3790  154.0190  138.6010 C   0  0  0  0  0  0  0  0  0  0  0  0
  142.3590  153.4720  137.1650 C   0  0  0  0  0  0  0  0  0  0  0  0
  143.5010  153.5720  137.6890 O   0  0  0  0  0  0  0  0  0  0  0  0
  142.1930  153.8320  135.7390 C   0  0  0  0  0  0  0  0  0  0  0  0
  141.3550  154.7070  135.3960 O   0  0  0  0  0  0  0  0  0  0  0  0
  142.9950  153.1980  134.7320 N   0  0  0  0  0  0  0  0  0  0  0  0
  144.2860  153.4780  134.4030 C   0  0  0  0  0  0  0  0  0  0  0  0
  145.1020  154.5700  134.9740 C   0  0  0  0  0  0  0  0  0  0  0  0
  145.8280  154.3580  136.1820 N   0  0  0  0  0  0  0  0  0  0  0  0
  145.1770  155.6870  134.3980 O   0  0  0  0  0  0  0  0  0  0  0  0
  144.7350  152.6080  133.4100 C   0  0  0  0  0  0  0  0  0  0  0  0
  143.6700  151.7760  133.1460 C   0  0  0  0  0  0  0  0  0  0  0  0
  143.5620  150.7090  132.2580 C   0  0  0  0  0  0  0  0  0  0  0  0
  142.3460  150.0060  132.2180 C   0  0  0  0  0  0  0  0  0  0  0  0
  141.2700  150.3740  133.0650 C   0  0  0  0  0  0  0  0  0  0  0  0
  139.9760  149.6100  133.0300 C   0  0  0  0  0  0  0  0  0  0  0  0
  139.0270  150.3350  132.3330 F   0  0  0  0  0  0  0  0  0  0  0  0
  140.1700  148.3920  132.4050 F   0  0  0  0  0  0  0  0  0  0  0  0
  141.4180  151.4600  133.9550 C   0  0  0  0  0  0  0  0  0  0  0  0
  142.6330  152.1500  133.9600 C   0  0  0  0  0  0  0  0  0  0  0  0
  142.5192  151.9132  139.9696 H   0  0  0  0  0  0  0  0  0  0  0  0
  141.7781  150.1707  139.7584 H   0  0  0  0  0  0  0  0  0  0  0  0
  140.4562  153.9305  139.6947 H   0  0  0  0  0  0  0  0  0  0  0  0
  140.6916  155.0273  138.2918 H   0  0  0  0  0  0  0  0  0  0  0  0
  139.3374  153.8471  138.2918 H   0  0  0  0  0  0  0  0  0  0  0  0
  145.3730  154.4890  137.1130 H   0  0  0  0  0  0  0  0  0  0  0  0
  145.7285  152.5902  132.9381 H   0  0  0  0  0  0  0  0  0  0  0  0
  144.4027  150.4251  131.6078 H   0  0  0  0  0  0  0  0  0  0  0  0
  142.2276  149.1618  131.5227 H   0  0  0  0  0  0  0  0  0  0  0  0
  139.6283  149.4425  134.0601 H   0  0  0  0  0  0  0  0  0  0  0  0
  140.5984  151.7551  134.6267 H   0  0  0  0  0  0  0  0  0  0  0  0
  1  2  2  0
  2  3  1  0
  3  4  2  0
  3  5  1  0
  2  6  1  0
  6  7  1  0
  6  8  1  0
  8  9  2  0
  8 10  1  0
 10 11  2  0
 10 12  1  0
 12 13  1  0
 13 14  1  0
 14 15  1  0
 14 16  2  0
 13 17  2  0
 17 18  1  0
 18 19  2  0
 19 20  1  0
 20 21  2  0
 21 22  1  0
 22 23  1  0
 22 24  1  0
 21 25  1  0
 25 26  2  0
 26 12  1  0
 26 18  1  0
  1 27  1  0
  1 28  1  0
  7 29  1  0
  7 30  1  0
  7 31  1  0
 15 32  1  0
 17 33  1  0
 19 34  1  0
 20 35  1  0
 22 36  1  0
 25 37  1  0
M  CHG  2   5  -1  15  -1
M  END
>  <UniqueID>  (51) 
51

>  <SMILES>  (51) 
C=C(C(=O)[O-])N(C)C(=O)C(=O)n1c(C([NH-])=O)cc2ccc(C(F)F)cc21

>  <Energy>  (51) 
82.64928284560057

>  <Genealogy>  (51) 
C=C(C(=O)[O-])N(C)C(=O)C(=O)n1c(C([NH-])=O)cc2ccc(C(F)F)cc21 (protonated)
C=C(C(=O)[O-])N(C)C(=O)C(=O)n1c(C([NH-])=O)cc2ccc(C(F)F)cc21 (3D coordinates assigned)
C=C(C(=O)[O-])N(C)C(=O)C(=O)n1c(C([NH-])=O)cc2ccc(C(F)F)cc21 (optimized conformer: 82.64928284560057 kcal/mol)

>  <smiles>  (51) 
C=C(C(=O)O)N(C)C(=O)C(=O)n1c(C(N)=O)cc2ccc(C(F)F)cc21

>  <score_type>  (51) 
oracle

>  <origin>  (51) 
adg

>  <m_score__min__energy>  (51) 
-6.7599999999999998

>  <m_primary>  (51) 
energy

$$$$
53:0
     RDKit          3D

 42 43  0  0  0  0  0  0  0  0999 V2000
  141.0010  159.3690  137.0740 C   0  0  0  0  0  0  0  0  0  0  0  0
  140.8010  158.4080  135.9840 N   0  0  0  0  0  0  0  0  0  0  0  0
  140.6640  156.9790  136.2860 C   0  0  0  0  0  0  0  0  0  0  0  0
  140.7540  158.9000  134.6230 C   0  0  0  0  0  0  0  0  0  0  0  0
  140.9080  160.1320  134.4030 O   0  0  0  0  0  0  0  0  0  0  0  0
  140.5090  158.0000  133.4370 C   0  0  0  0  0  0  0  0  0  0  0  0
  141.8160  157.4250  132.8760 C   0  0  0  0  0  0  0  0  0  0  0  0
  142.8950  158.3400  133.0440 O   0  0  0  0  0  0  0  0  0  0  0  0
  144.0220  158.0820  133.8340 C   0  0  0  0  0  0  0  0  0  0  0  0
  143.9500  157.2860  134.8120 O   0  0  0  0  0  0  0  0  0  0  0  0
  145.2620  158.7410  133.5370 N   0  0  0  0  0  0  0  0  0  0  0  0
  145.5320  160.0740  133.6230 C   0  0  0  0  0  0  0  0  0  0  0  0
  144.5330  161.1350  133.8750 C   0  0  0  0  0  0  0  0  0  0  0  0
  143.1370  160.8840  133.6980 N   0  0  0  0  0  0  0  0  0  0  0  0
  144.9030  162.2670  134.2820 O   0  0  0  0  0  0  0  0  0  0  0  0
  146.8790  160.3170  133.3490 C   0  0  0  0  0  0  0  0  0  0  0  0
  147.4280  159.0810  133.0930 C   0  0  0  0  0  0  0  0  0  0  0  0
  148.7410  158.7290  132.7920 C   0  0  0  0  0  0  0  0  0  0  0  0
  149.0350  157.3660  132.6200 C   0  0  0  0  0  0  0  0  0  0  0  0
  148.0180  156.3860  132.7510 C   0  0  0  0  0  0  0  0  0  0  0  0
  148.3520  154.9280  132.6180 C   0  0  0  0  0  0  0  0  0  0  0  0
  148.1100  154.2720  133.8120 F   0  0  0  0  0  0  0  0  0  0  0  0
  149.6860  154.7900  132.2840 F   0  0  0  0  0  0  0  0  0  0  0  0
  146.7010  156.7810  133.0670 C   0  0  0  0  0  0  0  0  0  0  0  0
  146.4320  158.1470  133.2140 C   0  0  0  0  0  0  0  0  0  0  0  0
  140.8940  158.8547  138.0405 H   0  0  0  0  0  0  0  0  0  0  0  0
  142.0088  159.8035  136.9995 H   0  0  0  0  0  0  0  0  0  0  0  0
  140.2502  160.1695  136.9995 H   0  0  0  0  0  0  0  0  0  0  0  0
  140.6501  156.8344  137.3764 H   0  0  0  0  0  0  0  0  0  0  0  0
  139.7255  156.6013  135.8540 H   0  0  0  0  0  0  0  0  0  0  0  0
  141.5136  156.4299  135.8540 H   0  0  0  0  0  0  0  0  0  0  0  0
  139.8599  157.1687  133.7494 H   0  0  0  0  0  0  0  0  0  0  0  0
  140.0331  158.5992  132.6467 H   0  0  0  0  0  0  0  0  0  0  0  0
  142.0528  156.4899  133.4047 H   0  0  0  0  0  0  0  0  0  0  0  0
  141.6813  157.2387  131.8003 H   0  0  0  0  0  0  0  0  0  0  0  0
  142.7930  159.9760  133.3130 H   0  0  0  0  0  0  0  0  0  0  0  0
  142.4380  161.6260  133.9220 H   0  0  0  0  0  0  0  0  0  0  0  0
  147.3926  161.2897  133.3396 H   0  0  0  0  0  0  0  0  0  0  0  0
  149.5243  159.4948  132.6919 H   0  0  0  0  0  0  0  0  0  0  0  0
  150.0631  157.0560  132.3816 H   0  0  0  0  0  0  0  0  0  0  0  0
  147.7223  154.4878  131.8308 H   0  0  0  0  0  0  0  0  0  0  0  0
  145.9043  156.0334  133.1949 H   0  0  0  0  0  0  0  0  0  0  0  0
  1  2  1  0
  2  3  1  0
  2  4  1  0
  4  5  2  0
  4  6  1  0
  6  7  1  0
  7  8  1  0
  8  9  1  0
  9 10  2  0
  9 11  1  0
 11 12  1  0
 12 13  1  0
 13 14  1  0
 13 15  2  0
 12 16  2  0
 16 17  1  0
 17 18  2  0
 18 19  1  0
 19 20  2  0
 20 21  1  0
 21 22  1  0
 21 23  1  0
 20 24  1  0
 24 25  2  0
 25 11  1  0
 25 17  1  0
  1 26  1  0
  1 27  1  0
  1 28  1  0
  3 29  1  0
  3 30  1  0
  3 31  1  0
  6 32  1  0
  6 33  1  0
  7 34  1  0
  7 35  1  0
 14 36  1  0
 14 37  1  0
 16 38  1  0
 18 39  1  0
 19 40  1  0
 21 41  1  0
 24 42  1  0
M  END
>  <UniqueID>  (52) 
52

>  <SMILES>  (52) 
CN(C)C(=O)CCOC(=O)n1c(C(N)=O)cc2ccc(C(F)F)cc21

>  <Energy>  (52) 
72.1865470915923

>  <Genealogy>  (52) 
CN(C)C(=O)CCOC(=O)n1c(C(N)=O)cc2ccc(C(F)F)cc21 (3D coordinates assigned)
CN(C)C(=O)CCOC(=O)n1c(C(N)=O)cc2ccc(C(F)F)cc21 (optimized conformer: 72.1865470915923 kcal/mol)

>  <smiles>  (52) 
CN(C)C(=O)CCOC(=O)n1c(C(N)=O)cc2ccc(C(F)F)cc21

>  <score_type>  (52) 
oracle

>  <origin>  (52) 
adg

>  <m_score__min__energy>  (52) 
-6.25

>  <m_primary>  (52) 
energy

$$$$
54:0
     RDKit          3D

 38 40  0  0  0  0  0  0  0  0999 V2000
  148.1420  161.1600  131.4730 N   0  0  0  0  0  0  0  0  0  0  0  0
  148.9600  159.9990  131.6210 C   0  0  0  0  0  0  0  0  0  0  0  0
  150.1450  160.0270  131.1940 O   0  0  0  0  0  0  0  0  0  0  0  0
  148.4190  158.7640  132.2310 C   0  0  0  0  0  0  0  0  0  0  0  0
  149.0850  157.5400  132.2280 C   0  0  0  0  0  0  0  0  0  0  0  0
  148.2970  156.6940  132.9740 C   0  0  0  0  0  0  0  0  0  0  0  0
  148.4720  155.3480  133.2850 C   0  0  0  0  0  0  0  0  0  0  0  0
  147.4800  154.7150  134.0510 C   0  0  0  0  0  0  0  0  0  0  0  0
  146.3420  155.4340  134.4950 C   0  0  0  0  0  0  0  0  0  0  0  0
  145.2660  154.7330  135.2690 C   0  0  0  0  0  0  0  0  0  0  0  0
  145.6790  153.4490  135.5750 F   0  0  0  0  0  0  0  0  0  0  0  0
  146.1900  156.7940  134.1480 C   0  0  0  0  0  0  0  0  0  0  0  0
  147.2030  157.4040  133.3980 C   0  0  0  0  0  0  0  0  0  0  0  0
  147.2640  158.6770  132.9480 N   0  0  0  0  0  0  0  0  0  0  0  0
  146.2700  159.6990  133.1290 C   0  0  0  0  0  0  0  0  0  0  0  0
  146.5470  160.7320  133.7960 O   0  0  0  0  0  0  0  0  0  0  0  0
  144.9460  159.5030  132.6140 N   0  0  0  0  0  0  0  0  0  0  0  0
  143.7630  159.2360  133.3810 C   0  0  0  0  0  0  0  0  0  0  0  0
  143.2650  157.9340  133.5570 C   0  0  0  0  0  0  0  0  0  0  0  0
  142.1240  157.7140  134.3330 C   0  0  0  0  0  0  0  0  0  0  0  0
  141.4670  158.7870  134.9590 C   0  0  0  0  0  0  0  0  0  0  0  0
  140.2600  158.5500  135.7780 C   0  0  0  0  0  0  0  0  0  0  0  0
  140.2790  158.7510  137.0220 O   0  0  0  0  0  0  0  0  0  0  0  0
  139.0840  158.1020  135.1880 O   0  0  0  0  0  0  0  0  0  0  0  0
  141.9840  160.0860  134.8000 C   0  0  0  0  0  0  0  0  0  0  0  0
  143.1260  160.3030  134.0250 C   0  0  0  0  0  0  0  0  0  0  0  0
  148.5220  162.0130  131.0070 H   0  0  0  0  0  0  0  0  0  0  0  0
  147.1740  161.1950  131.8620 H   0  0  0  0  0  0  0  0  0  0  0  0
  150.0383  157.3009  131.7341 H   0  0  0  0  0  0  0  0  0  0  0  0
  149.3601  154.7976  132.9411 H   0  0  0  0  0  0  0  0  0  0  0  0
  147.5870  153.6510  134.3090 H   0  0  0  0  0  0  0  0  0  0  0  0
  145.0649  155.2848  136.1991 H   0  0  0  0  0  0  0  0  0  0  0  0
  144.3490  154.6882  134.6631 H   0  0  0  0  0  0  0  0  0  0  0  0
  145.2992  157.3596  134.4586 H   0  0  0  0  0  0  0  0  0  0  0  0
  143.7759  157.0837  133.0816 H   0  0  0  0  0  0  0  0  0  0  0  0
  141.7365  156.6917  134.4550 H   0  0  0  0  0  0  0  0  0  0  0  0
  141.4858  160.9361  135.2890 H   0  0  0  0  0  0  0  0  0  0  0  0
  143.5281  161.3215  133.9200 H   0  0  0  0  0  0  0  0  0  0  0  0
  1  2  1  0
  2  3  2  0
  2  4  1  0
  4  5  2  0
  5  6  1  0
  6  7  2  0
  7  8  1  0
  8  9  2  0
  9 10  1  0
 10 11  1  0
  9 12  1  0
 12 13  2  0
 13 14  1  0
 14 15  1  0
 15 16  2  0
 15 17  1  0
 17 18  1  0
 18 19  2  0
 19 20  1  0
 20 21  2  0
 21 22  1  0
 22 23  2  0
 22 24  1  0
 21 25  1  0
 25 26  2  0
 14  4  1  0
 26 18  1  0
 13  6  1  0
  1 27  1  0
  1 28  1  0
  5 29  1  0
  7 30  1  0
  8 31  1  0
 10 32  1  0
 10 33  1  0
 12 34  1  0
 19 35  1  0
 20 36  1  0
 25 37  1  0
 26 38  1  0
M  CHG  2  17  -1  24  -1
M  END
>  <UniqueID>  (53) 
53

>  <SMILES>  (53) 
NC(=O)c1cc2ccc(CF)cc2n1C(=O)[N-]c1ccc(C(=O)[O-])cc1

>  <Energy>  (53) 
83.04828030936206

>  <Genealogy>  (53) 
NC(=O)c1cc2ccc(CF)cc2n1C(=O)[N-]c1ccc(C(=O)[O-])cc1 (protonated)
NC(=O)c1cc2ccc(CF)cc2n1C(=O)[N-]c1ccc(C(=O)[O-])cc1 (3D coordinates assigned)
NC(=O)c1cc2ccc(CF)cc2n1C(=O)[N-]c1ccc(C(=O)[O-])cc1 (optimized conformer: 83.04828030936206 kcal/mol)

>  <smiles>  (53) 
NC(=O)c1cc2ccc(CF)cc2n1C(=O)Nc1ccc(C(=O)O)cc1

>  <score_type>  (53) 
oracle

>  <origin>  (53) 
adg

>  <m_score__min__energy>  (53) 
-7.8200000000000003

>  <m_primary>  (53) 
energy

$$$$
56:0
     RDKit          3D

 42 43  0  0  0  0  0  0  0  0999 V2000
  143.3492  156.0033  131.9445 H   0  0  0  0  0  0  0  0  0  0  0  0
  143.9610  155.6460  132.7860 C   0  0  0  0  0  0  0  0  0  0  0  0
  145.1440  156.4310  133.1880 C   0  0  0  0  0  0  0  0  0  0  0  0
  146.2290  155.8540  133.4680 O   0  0  0  0  0  0  0  0  0  0  0  0
  145.0600  157.8630  133.2770 N   0  0  0  0  0  0  0  0  0  0  0  0
  146.0380  158.7670  132.9870 C   0  0  0  0  0  0  0  0  0  0  0  0
  147.4360  158.4310  132.6390 C   0  0  0  0  0  0  0  0  0  0  0  0
  148.3820  159.1560  133.0480 O   0  0  0  0  0  0  0  0  0  0  0  0
  147.7350  157.2970  131.8200 N   0  0  0  0  0  0  0  0  0  0  0  0
  148.7220  157.0990  131.5420 H   0  0  0  0  0  0  0  0  0  0  0  0
  146.9950  156.6180  131.5410 H   0  0  0  0  0  0  0  0  0  0  0  0
  145.5560  160.0680  133.1360 C   0  0  0  0  0  0  0  0  0  0  0  0
  146.1095  161.0058  132.9806 H   0  0  0  0  0  0  0  0  0  0  0  0
  144.2400  159.9290  133.5190 C   0  0  0  0  0  0  0  0  0  0  0  0
  143.2780  160.8980  133.7860 C   0  0  0  0  0  0  0  0  0  0  0  0
  143.5216  161.9692  133.7287 H   0  0  0  0  0  0  0  0  0  0  0  0
  141.9860  160.4670  134.1310 C   0  0  0  0  0  0  0  0  0  0  0  0
  141.2050  161.2090  134.3534 H   0  0  0  0  0  0  0  0  0  0  0  0
  141.6800  159.0840  134.1950 C   0  0  0  0  0  0  0  0  0  0  0  0
  140.2820  158.6290  134.5300 C   0  0  0  0  0  0  0  0  0  0  0  0
  139.9102  159.2216  135.3789 H   0  0  0  0  0  0  0  0  0  0  0  0
  140.3251  157.5583  134.7785 H   0  0  0  0  0  0  0  0  0  0  0  0
  139.3170  158.8010  133.3450 C   0  0  0  0  0  0  0  0  0  0  0  0
  139.7122  159.5894  132.6876 H   0  0  0  0  0  0  0  0  0  0  0  0
  138.3342  159.0579  133.7670 H   0  0  0  0  0  0  0  0  0  0  0  0
  139.1260  157.5260  132.5110 C   0  0  0  0  0  0  0  0  0  0  0  0
  140.0739  157.2781  132.0110 H   0  0  0  0  0  0  0  0  0  0  0  0
  138.3345  157.7084  131.7692 H   0  0  0  0  0  0  0  0  0  0  0  0
  138.7230  156.4030  133.3540 N   0  0  0  0  0  0  0  0  0  0  0  0
  139.5850  156.0130  133.7990 H   0  0  0  0  0  0  0  0  0  0  0  0
  138.3480  155.6450  132.7390 H   0  0  0  0  0  0  0  0  0  0  0  0
  142.6830  158.1300  133.9140 C   0  0  0  0  0  0  0  0  0  0  0  0
  142.4611  157.0531  133.9461 H   0  0  0  0  0  0  0  0  0  0  0  0
  143.9650  158.5880  133.5940 C   0  0  0  0  0  0  0  0  0  0  0  0
  143.6050  154.5160  133.4070 C   0  0  0  0  0  0  0  0  0  0  0  0
  144.2067  154.1530  134.2532 H   0  0  0  0  0  0  0  0  0  0  0  0
  142.4020  153.7350  132.9720 C   0  0  0  0  0  0  0  0  0  0  0  0
  142.4293  153.6065  131.8799 H   0  0  0  0  0  0  0  0  0  0  0  0
  142.4156  152.7541  133.4696 H   0  0  0  0  0  0  0  0  0  0  0  0
  141.1460  154.4530  133.3520 C   0  0  0  0  0  0  0  0  0  0  0  0
  141.1390  155.2370  134.3380 O   0  0  0  0  0  0  0  0  0  0  0  0
  139.9720  154.2210  132.6460 O   0  0  0  0  0  0  0  0  0  0  0  0
  1  2  1  0
  2  3  1  0
  3  4  2  0
  3  5  1  0
  5  6  1  0
  6  7  1  0
  7  8  2  0
  7  9  1  0
  9 10  1  0
  9 11  1  0
  6 12  2  0
 12 13  1  0
 12 14  1  0
 14 15  2  0
 15 16  1  0
 15 17  1  0
 17 18  1  0
 17 19  2  0
 19 20  1  0
 20 21  1  0
 20 22  1  0
 20 23  1  0
 23 24  1  0
 23 25  1  0
 23 26  1  0
 26 27  1  0
 26 28  1  0
 26 29  1  0
 29 30  1  0
 29 31  1  0
 19 32  1  0
 32 33  1  0
 32 34  2  0
  2 35  2  0
 35 36  1  0
 35 37  1  0
 37 38  1  0
 37 39  1  0
 37 40  1  0
 40 41  2  0
 40 42  1  0
 34  5  1  0
 34 14  1  0
M  CHG  1  42  -1
M  END
>  <UniqueID>  (54) 
54

>  <SMILES>  (54) 
NCCCc1ccc2cc(C(N)=O)n(C(=O)/C=C/CC(=O)[O-])c2c1

>  <Energy>  (54) 
72.23352417758912

>  <Genealogy>  (54) 
NCCCc1ccc2cc(C(N)=O)n(C(=O)C=CCC(=O)[O-])c2c1 (protonated)
NCCCc1ccc2cc(C(N)=O)n(C(=O)/C=C/CC(=O)[O-])c2c1 (cis-trans isomerization)
NCCCc1ccc2cc(C(N)=O)n(C(=O)/C=C/CC(=O)[O-])c2c1 (3D coordinates assigned)
NCCCc1ccc2cc(C(N)=O)n(C(=O)/C=C/CC(=O)[O-])c2c1 (optimized conformer: 72.23352417758912 kcal/mol)

>  <smiles>  (54) 
NCCCc1ccc2cc(C(N)=O)n(C(=O)C=CCC(=O)O)c2c1

>  <score_type>  (54) 
oracle

>  <origin>  (54) 
adg

>  <m_score__min__energy>  (54) 
-7.96

>  <m_primary>  (54) 
energy

$$$$
57:0
     RDKit          3D

 36 37  0  0  0  0  0  0  0  0999 V2000
  149.5780  161.2860  130.4890 C   0  0  0  0  0  0  0  0  0  0  0  0
  148.5480  161.1190  131.5090 N   0  0  0  0  0  0  0  0  0  0  0  0
  148.1670  159.8420  132.0530 C   0  0  0  0  0  0  0  0  0  0  0  0
  149.0720  158.7450  132.0820 C   0  0  0  0  0  0  0  0  0  0  0  0
  148.6780  157.5030  132.6050 C   0  0  0  0  0  0  0  0  0  0  0  0
  147.3830  157.3830  133.1000 C   0  0  0  0  0  0  0  0  0  0  0  0
  146.7360  156.2920  133.6350 C   0  0  0  0  0  0  0  0  0  0  0  0
  145.4530  156.7400  133.9450 C   0  0  0  0  0  0  0  0  0  0  0  0
  144.4300  155.9000  134.6020 C   0  0  0  0  0  0  0  0  0  0  0  0
  144.7330  155.2410  135.8300 N   0  0  0  0  0  0  0  0  0  0  0  0
  143.2780  155.7790  134.1060 O   0  0  0  0  0  0  0  0  0  0  0  0
  145.3140  158.0550  133.6140 N   0  0  0  0  0  0  0  0  0  0  0  0
  144.1380  158.8710  133.7270 C   0  0  0  0  0  0  0  0  0  0  0  0
  144.0120  159.8840  132.9860 O   0  0  0  0  0  0  0  0  0  0  0  0
  143.1180  158.5290  134.6770 N   0  0  0  0  0  0  0  0  0  0  0  0
  141.9670  159.3390  134.9510 C   0  0  0  0  0  0  0  0  0  0  0  0
  141.8120  160.4520  134.3770 O   0  0  0  0  0  0  0  0  0  0  0  0
  141.0200  158.8820  135.8740 O   0  0  0  0  0  0  0  0  0  0  0  0
  141.3360  158.5550  137.2250 C   0  0  0  0  0  0  0  0  0  0  0  0
  141.4440  157.0730  137.3910 C   0  0  0  0  0  0  0  0  0  0  0  0
  142.3260  156.4290  136.7640 O   0  0  0  0  0  0  0  0  0  0  0  0
  140.5540  156.3970  138.2170 O   0  0  0  0  0  0  0  0  0  0  0  0
  146.5030  158.4320  133.0970 C   0  0  0  0  0  0  0  0  0  0  0  0
  146.8610  159.6760  132.5640 C   0  0  0  0  0  0  0  0  0  0  0  0
  150.5524  161.4440  130.9743 H   0  0  0  0  0  0  0  0  0  0  0  0
  149.6228  160.3834  129.8619 H   0  0  0  0  0  0  0  0  0  0  0  0
  149.3353  162.1565  129.8619 H   0  0  0  0  0  0  0  0  0  0  0  0
  148.0670  161.9800  131.8580 H   0  0  0  0  0  0  0  0  0  0  0  0
  150.0921  158.8711  131.6903 H   0  0  0  0  0  0  0  0  0  0  0  0
  149.3724  156.6501  132.6229 H   0  0  0  0  0  0  0  0  0  0  0  0
  147.1445  155.2819  133.7857 H   0  0  0  0  0  0  0  0  0  0  0  0
  144.3520  155.5910  136.7350 H   0  0  0  0  0  0  0  0  0  0  0  0
  143.2090  157.6270  135.1960 H   0  0  0  0  0  0  0  0  0  0  0  0
  142.2949  159.0209  137.4959 H   0  0  0  0  0  0  0  0  0  0  0  0
  140.5353  158.9299  137.8795 H   0  0  0  0  0  0  0  0  0  0  0  0
  146.1402  160.5067  132.5436 H   0  0  0  0  0  0  0  0  0  0  0  0
  1  2  1  0
  2  3  1  0
  3  4  2  0
  4  5  1  0
  5  6  2  0
  6  7  1  0
  7  8  2  0
  8  9  1  0
  9 10  1  0
  9 11  2  0
  8 12  1  0
 12 13  1  0
 13 14  2  0
 13 15  1  0
 15 16  1  0
 16 17  2  0
 16 18  1  0
 18 19  1  0
 19 20  1  0
 20 21  2  0
 20 22  1  0
 12 23  1  0
 23 24  2  0
 24  3  1  0
 23  6  1  0
  1 25  1  0
  1 26  1  0
  1 27  1  0
  2 28  1  0
  4 29  1  0
  5 30  1  0
  7 31  1  0
 10 32  1  0
 15 33  1  0
 19 34  1  0
 19 35  1  0
 24 36  1  0
M  CHG  2  10  -1  22  -1
M  END
>  <UniqueID>  (55) 
55

>  <SMILES>  (55) 
CNc1ccc2cc(C([NH-])=O)n(C(=O)NC(=O)OCC(=O)[O-])c2c1

>  <Energy>  (55) 
71.4614537495764

>  <Genealogy>  (55) 
CNc1ccc2cc(C([NH-])=O)n(C(=O)NC(=O)OCC(=O)[O-])c2c1 (protonated)
CNc1ccc2cc(C([NH-])=O)n(C(=O)NC(=O)OCC(=O)[O-])c2c1 (3D coordinates assigned)
CNc1ccc2cc(C([NH-])=O)n(C(=O)NC(=O)OCC(=O)[O-])c2c1 (optimized conformer: 71.4614537495764 kcal/mol)

>  <smiles>  (55) 
CNc1ccc2cc(C(N)=O)n(C(=O)NC(=O)OCC(=O)O)c2c1

>  <score_type>  (55) 
oracle

>  <origin>  (55) 
adg

>  <m_score__min__energy>  (55) 
-6.54

>  <m_primary>  (55) 
energy

$$$$
58:0
     RDKit          3D

 45 46  0  0  0  0  0  0  0  0999 V2000
  140.5900  156.3800  133.5800 C   0  0  0  0  0  0  0  0  0  0  0  0
  140.3660  157.7230  134.1460 N   0  0  2  0  0  0  0  0  0  0  0  0
  139.4880  157.6950  135.3410 C   0  0  0  0  0  0  0  0  0  0  0  0
  140.2610  157.6950  136.6740 C   0  0  0  0  0  0  0  0  0  0  0  0
  141.0120  158.9730  136.8900 C   0  0  0  0  0  0  0  0  0  0  0  0
  141.3190  159.3390  138.0540 O   0  0  0  0  0  0  0  0  0  0  0  0
  141.3460  159.7750  135.8050 O   0  0  0  0  0  0  0  0  0  0  0  0
  139.7790  158.5790  133.1440 C   0  0  0  0  0  0  0  0  0  0  0  0
  138.5420  158.5120  132.8940 O   0  0  0  0  0  0  0  0  0  0  0  0
  140.5850  159.5010  132.4680 O   0  0  0  0  0  0  0  0  0  0  0  0
  141.7420  160.0890  133.0500 C   0  0  0  0  0  0  0  0  0  0  0  0
  142.7760  159.1140  133.1460 O   0  0  0  0  0  0  0  0  0  0  0  0
  144.1020  159.4420  133.4400 C   0  0  0  0  0  0  0  0  0  0  0  0
  144.4080  160.6220  133.7610 O   0  0  0  0  0  0  0  0  0  0  0  0
  145.1150  158.4220  133.3960 N   0  0  0  0  0  0  0  0  0  0  0  0
  145.0320  157.1460  133.8690 C   0  0  0  0  0  0  0  0  0  0  0  0
  143.8150  156.4910  134.3910 C   0  0  0  0  0  0  0  0  0  0  0  0
  142.9220  157.2200  135.2310 N   0  0  0  0  0  0  0  0  0  0  0  0
  143.5720  155.2830  134.1360 O   0  0  0  0  0  0  0  0  0  0  0  0
  146.2540  156.4920  133.7270 C   0  0  0  0  0  0  0  0  0  0  0  0
  147.0930  157.4100  133.1410 C   0  0  0  0  0  0  0  0  0  0  0  0
  148.4360  157.2980  132.7900 C   0  0  0  0  0  0  0  0  0  0  0  0
  149.0680  158.4220  132.2320 C   0  0  0  0  0  0  0  0  0  0  0  0
  148.3500  159.6270  132.0350 C   0  0  0  0  0  0  0  0  0  0  0  0
  149.0480  160.8350  131.4810 C   0  0  0  0  0  0  0  0  0  0  0  0
  149.5960  160.5060  129.8190 Cl  0  0  0  0  0  0  0  0  0  0  0  0
  146.9930  159.7090  132.4150 C   0  0  0  0  0  0  0  0  0  0  0  0
  146.3830  158.5680  132.9520 C   0  0  0  0  0  0  0  0  0  0  0  0
  140.7112  155.6534  134.3969 H   0  0  0  0  0  0  0  0  0  0  0  0
  139.7270  156.0946  132.9604 H   0  0  0  0  0  0  0  0  0  0  0  0
  141.4989  156.3901  132.9604 H   0  0  0  0  0  0  0  0  0  0  0  0
  141.2970  158.1290  134.4030 H   0  0  0  0  0  0  0  0  0  0  0  0
  138.8379  158.5820  135.3159 H   0  0  0  0  0  0  0  0  0  0  0  0
  138.9162  156.7562  135.2995 H   0  0  0  0  0  0  0  0  0  0  0  0
  139.5457  157.5602  137.4988 H   0  0  0  0  0  0  0  0  0  0  0  0
  140.9922  156.8738  136.6415 H   0  0  0  0  0  0  0  0  0  0  0  0
  142.0838  160.9245  132.4214 H   0  0  0  0  0  0  0  0  0  0  0  0
  141.4963  160.4615  134.0554 H   0  0  0  0  0  0  0  0  0  0  0  0
  142.5060  158.1240  134.9150 H   0  0  0  0  0  0  0  0  0  0  0  0
  146.4961  155.4601  134.0213 H   0  0  0  0  0  0  0  0  0  0  0  0
  148.9855  156.3578  132.9449 H   0  0  0  0  0  0  0  0  0  0  0  0
  150.1286  158.3657  131.9459 H   0  0  0  0  0  0  0  0  0  0  0  0
  148.3527  161.6874  131.4742 H   0  0  0  0  0  0  0  0  0  0  0  0
  149.9186  161.0717  132.1102 H   0  0  0  0  0  0  0  0  0  0  0  0
  146.4287  160.6453  132.2925 H   0  0  0  0  0  0  0  0  0  0  0  0
  1  2  1  0
  2  3  1  0
  3  4  1  0
  4  5  1  0
  5  6  2  0
  5  7  1  0
  2  8  1  0
  8  9  2  0
  8 10  1  0
 10 11  1  0
 11 12  1  0
 12 13  1  0
 13 14  2  0
 13 15  1  0
 15 16  1  0
 16 17  1  0
 17 18  1  0
 17 19  2  0
 16 20  2  0
 20 21  1  0
 21 22  2  0
 22 23  1  0
 23 24  2  0
 24 25  1  0
 25 26  1  0
 24 27  1  0
 27 28  2  0
 28 15  1  0
 28 21  1  0
  1 29  1  0
  1 30  1  0
  1 31  1  0
  2 32  1  1
  3 33  1  0
  3 34  1  0
  4 35  1  0
  4 36  1  0
 11 37  1  0
 11 38  1  0
 18 39  1  0
 20 40  1  0
 22 41  1  0
 23 42  1  0
 25 43  1  0
 25 44  1  0
 27 45  1  0
M  CHG  3   2   1   7  -1  18  -1
M  END
>  <UniqueID>  (56) 
56

>  <SMILES>  (56) 
C[N@H+](CCC(=O)[O-])C(=O)OCOC(=O)n1c(C([NH-])=O)cc2ccc(CCl)cc21

>  <Energy>  (56) 
79.39410934333722

>  <Genealogy>  (56) 
C[NH+](CCC(=O)[O-])C(=O)OCOC(=O)n1c(C([NH-])=O)cc2ccc(CCl)cc21 (protonated)
C[N@H+](CCC(=O)[O-])C(=O)OCOC(=O)n1c(C([NH-])=O)cc2ccc(CCl)cc21 (chirality)
C[N@H+](CCC(=O)[O-])C(=O)OCOC(=O)n1c(C([NH-])=O)cc2ccc(CCl)cc21 (3D coordinates assigned)
C[N@H+](CCC(=O)[O-])C(=O)OCOC(=O)n1c(C([NH-])=O)cc2ccc(CCl)cc21 (optimized conformer: 79.39410934333722 kcal/mol)

>  <smiles>  (56) 
CN(CCC(=O)O)C(=O)OCOC(=O)n1c(C(N)=O)cc2ccc(CCl)cc21

>  <score_type>  (56) 
oracle

>  <origin>  (56) 
adg

>  <m_score__min__energy>  (56) 
-5.5700000000000003

>  <m_primary>  (56) 
energy

$$$$
59:0
     RDKit          3D

 49 51  0  0  0  0  0  0  0  0999 V2000
  141.3670  159.3740  136.2340 C   0  0  0  0  0  0  0  0  0  0  0  0
  141.7770  158.7780  134.8780 C   0  0  0  0  0  0  0  0  0  0  0  0
  141.4120  157.2820  134.8640 C   0  0  0  0  0  0  0  0  0  0  0  0
  141.0350  159.5310  133.7580 C   0  0  0  0  0  0  0  0  0  0  0  0
  143.1950  158.9550  134.7490 O   0  0  0  0  0  0  0  0  0  0  0  0
  143.9740  158.6350  133.6260 C   0  0  0  0  0  0  0  0  0  0  0  0
  143.5160  157.9040  132.7080 O   0  0  0  0  0  0  0  0  0  0  0  0
  145.3210  159.1270  133.5400 N   0  0  0  0  0  0  0  0  0  0  0  0
  145.7550  160.4130  133.6740 C   0  0  0  0  0  0  0  0  0  0  0  0
  144.9370  161.5660  134.1050 C   0  0  0  0  0  0  0  0  0  0  0  0
  143.5640  161.6690  133.7390 N   0  0  0  0  0  0  0  0  0  0  0  0
  145.4460  162.4490  134.8460 O   0  0  0  0  0  0  0  0  0  0  0  0
  147.1250  160.4940  133.4330 C   0  0  0  0  0  0  0  0  0  0  0  0
  147.5230  159.2060  133.1570 C   0  0  0  0  0  0  0  0  0  0  0  0
  148.7810  158.7060  132.8390 C   0  0  0  0  0  0  0  0  0  0  0  0
  148.8980  157.3300  132.5850 C   0  0  0  0  0  0  0  0  0  0  0  0
  147.7680  156.4770  132.6470 C   0  0  0  0  0  0  0  0  0  0  0  0
  147.9430  155.0690  132.3880 N   0  0  0  0  0  0  0  0  0  0  0  0
  148.8140  154.1720  133.1510 C   0  0  0  0  0  0  0  0  0  0  0  0
  148.5470  152.7010  132.7780 C   0  0  0  0  0  0  0  0  0  0  0  0
  147.0930  152.2270  132.5990 C   0  0  0  0  0  0  0  0  0  0  0  0
  147.0020  151.0440  131.8840 F   0  0  0  0  0  0  0  0  0  0  0  0
  149.5990  152.0510  131.8830 C   0  0  0  0  0  0  0  0  0  0  0  0
  149.5190  151.6830  133.3620 C   0  0  0  0  0  0  0  0  0  0  0  0
  146.4990  157.0310  132.9530 C   0  0  0  0  0  0  0  0  0  0  0  0
  146.4160  158.4000  133.2270 C   0  0  0  0  0  0  0  0  0  0  0  0
  141.7878  158.7623  137.0456 H   0  0  0  0  0  0  0  0  0  0  0  0
  141.7499  160.4022  136.3134 H   0  0  0  0  0  0  0  0  0  0  0  0
  140.2699  159.3841  136.3134 H   0  0  0  0  0  0  0  0  0  0  0  0
  141.3229  156.9166  135.8977 H   0  0  0  0  0  0  0  0  0  0  0  0
  140.4537  157.1433  134.3421 H   0  0  0  0  0  0  0  0  0  0  0  0
  142.1988  156.7175  134.3421 H   0  0  0  0  0  0  0  0  0  0  0  0
  140.3290  160.2475  134.2032 H   0  0  0  0  0  0  0  0  0  0  0  0
  141.7628  160.0721  133.1354 H   0  0  0  0  0  0  0  0  0  0  0  0
  140.4833  158.8113  133.1354 H   0  0  0  0  0  0  0  0  0  0  0  0
  142.9590  160.8190  133.6770 H   0  0  0  0  0  0  0  0  0  0  0  0
  147.7545  161.3957  133.4580 H   0  0  0  0  0  0  0  0  0  0  0  0
  149.6578  159.3683  132.7880 H   0  0  0  0  0  0  0  0  0  0  0  0
  149.8821  156.9075  132.3340 H   0  0  0  0  0  0  0  0  0  0  0  0
  147.4870  154.6670  131.5380 H   0  0  0  0  0  0  0  0  0  0  0  0
  149.8639  154.4150  132.9303 H   0  0  0  0  0  0  0  0  0  0  0  0
  148.6066  154.3069  134.2228 H   0  0  0  0  0  0  0  0  0  0  0  0
  146.6479  152.0729  133.5930 H   0  0  0  0  0  0  0  0  0  0  0  0
  146.5579  153.0017  132.0303 H   0  0  0  0  0  0  0  0  0  0  0  0
  149.2956  151.3219  131.1173 H   0  0  0  0  0  0  0  0  0  0  0  0
  150.3899  152.4227  131.2150 H   0  0  0  0  0  0  0  0  0  0  0  0
  149.1585  150.6881  133.6623 H   0  0  0  0  0  0  0  0  0  0  0  0
  150.2295  151.6794  134.2018 H   0  0  0  0  0  0  0  0  0  0  0  0
  145.5997  156.3980  132.9744 H   0  0  0  0  0  0  0  0  0  0  0  0
  1  2  1  0
  2  3  1  0
  2  4  1  0
  2  5  1  0
  5  6  1  0
  6  7  2  0
  6  8  1  0
  8  9  1  0
  9 10  1  0
 10 11  1  0
 10 12  2  0
  9 13  2  0
 13 14  1  0
 14 15  2  0
 15 16  1  0
 16 17  2  0
 17 18  1  0
 18 19  1  0
 19 20  1  0
 20 21  1  0
 21 22  1  0
 20 23  1  0
 23 24  1  0
 17 25  1  0
 25 26  2  0
 26  8  1  0
 26 14  1  0
 24 20  1  0
  1 27  1  0
  1 28  1  0
  1 29  1  0
  3 30  1  0
  3 31  1  0
  3 32  1  0
  4 33  1  0
  4 34  1  0
  4 35  1  0
 11 36  1  0
 13 37  1  0
 15 38  1  0
 16 39  1  0
 18 40  1  0
 19 41  1  0
 19 42  1  0
 21 43  1  0
 21 44  1  0
 23 45  1  0
 23 46  1  0
 24 47  1  0
 24 48  1  0
 25 49  1  0
M  CHG  1  11  -1
M  END
>  <UniqueID>  (57) 
57

>  <SMILES>  (57) 
CC(C)(C)OC(=O)n1c(C([NH-])=O)cc2ccc(NCC3(CF)CC3)cc21

>  <Energy>  (57) 
348.9293970533975

>  <Genealogy>  (57) 
CC(C)(C)OC(=O)n1c(C([NH-])=O)cc2ccc(NCC3(CF)CC3)cc21 (protonated)
CC(C)(C)OC(=O)n1c(C([NH-])=O)cc2ccc(NCC3(CF)CC3)cc21 (3D coordinates assigned)
CC(C)(C)OC(=O)n1c(C([NH-])=O)cc2ccc(NCC3(CF)CC3)cc21 (nonaromatic ring conformer: 348.9293970533975 kcal/mol)

>  <smiles>  (57) 
CC(C)(C)OC(=O)n1c(C(N)=O)cc2ccc(NCC3(CF)CC3)cc21

>  <score_type>  (57) 
oracle

>  <origin>  (57) 
adg

>  <m_score__min__energy>  (57) 
-7.9400000000000004

>  <m_primary>  (57) 
energy

$$$$
60:0
     RDKit          3D

 44 47  0  0  0  0  0  0  0  0999 V2000
  148.3210  153.7410  137.3920 C   0  0  0  0  0  0  0  0  0  0  0  0
  146.9970  153.3400  137.0520 O   0  0  0  0  0  0  0  0  0  0  0  0
  146.2230  153.9270  136.0350 C   0  0  0  0  0  0  0  0  0  0  0  0
  146.8750  154.3410  134.8660 C   0  0  0  0  0  0  0  0  0  0  0  0
  146.1500  154.9200  133.8190 C   0  0  0  0  0  0  0  0  0  0  0  0
  144.7640  155.1040  133.9390 C   0  0  0  0  0  0  0  0  0  0  0  0
  143.8520  155.8780  132.6050 S   0  0  0  0  0  0  0  0  0  0  0  0
  142.6320  156.5910  133.7120 C   0  0  0  0  0  0  0  0  0  0  0  0
  141.7520  155.8580  134.2440 O   0  0  0  0  0  0  0  0  0  0  0  0
  142.6830  157.9880  134.0210 N   0  0  0  0  0  0  0  0  0  0  0  0
  141.6740  158.7800  134.4820 C   0  0  0  0  0  0  0  0  0  0  0  0
  140.3260  158.3250  134.8910 C   0  0  0  0  0  0  0  0  0  0  0  0
  139.9530  158.2550  136.2680 N   0  0  0  0  0  0  0  0  0  0  0  0
  139.4810  158.0040  134.0100 O   0  0  0  0  0  0  0  0  0  0  0  0
  142.1080  160.1000  134.5930 C   0  0  0  0  0  0  0  0  0  0  0  0
  143.4250  160.0890  134.1850 C   0  0  0  0  0  0  0  0  0  0  0  0
  144.3530  161.1260  134.1200 C   0  0  0  0  0  0  0  0  0  0  0  0
  145.6590  160.8130  133.6980 C   0  0  0  0  0  0  0  0  0  0  0  0
  146.0020  159.4860  133.3310 C   0  0  0  0  0  0  0  0  0  0  0  0
  147.4290  159.1500  132.9880 C   0  0  0  0  0  0  0  0  0  0  0  0
  148.1400  160.0130  132.0140 C   0  0  0  0  0  0  0  0  0  0  0  0
  148.6900  160.6890  131.2460 N   0  0  0  0  0  0  0  0  0  0  0  0
  148.2900  158.5330  134.0810 C   0  0  0  0  0  0  0  0  0  0  0  0
  147.7870  157.6710  132.9320 C   0  0  0  0  0  0  0  0  0  0  0  0
  145.0290  158.4610  133.4040 C   0  0  0  0  0  0  0  0  0  0  0  0
  143.7440  158.7990  133.8440 C   0  0  0  0  0  0  0  0  0  0  0  0
  144.1050  154.6970  135.1050 C   0  0  0  0  0  0  0  0  0  0  0  0
  144.8280  154.1070  136.1500 C   0  0  0  0  0  0  0  0  0  0  0  0
  148.4249  153.7725  138.4866 H   0  0  0  0  0  0  0  0  0  0  0  0
  149.0406  153.0205  136.9759 H   0  0  0  0  0  0  0  0  0  0  0  0
  148.5199  154.7397  136.9759 H   0  0  0  0  0  0  0  0  0  0  0  0
  147.9630  154.2100  134.7709 H   0  0  0  0  0  0  0  0  0  0  0  0
  146.6675  155.2317  132.8997 H   0  0  0  0  0  0  0  0  0  0  0  0
  139.4420  159.0350  136.7370 H   0  0  0  0  0  0  0  0  0  0  0  0
  141.5234  160.9671  134.9340 H   0  0  0  0  0  0  0  0  0  0  0  0
  144.0744  162.1554  134.3895 H   0  0  0  0  0  0  0  0  0  0  0  0
  146.4211  161.6049  133.6523 H   0  0  0  0  0  0  0  0  0  0  0  0
  149.3576  158.7888  134.1501 H   0  0  0  0  0  0  0  0  0  0  0  0
  148.2321  158.4774  135.1781 H   0  0  0  0  0  0  0  0  0  0  0  0
  148.4910  157.3039  132.1706 H   0  0  0  0  0  0  0  0  0  0  0  0
  147.2150  156.7346  132.8545 H   0  0  0  0  0  0  0  0  0  0  0  0
  145.2759  157.4267  133.1226 H   0  0  0  0  0  0  0  0  0  0  0  0
  143.0186  154.8405  135.2009 H   0  0  0  0  0  0  0  0  0  0  0  0
  144.3067  153.7831  137.0629 H   0  0  0  0  0  0  0  0  0  0  0  0
  1  2  1  0
  2  3  1  0
  3  4  2  0
  4  5  1  0
  5  6  2  0
  6  7  1  0
  7  8  1  0
  8  9  2  0
  8 10  1  0
 10 11  1  0
 11 12  1  0
 12 13  1  0
 12 14  2  0
 11 15  2  0
 15 16  1  0
 16 17  2  0
 17 18  1  0
 18 19  2  0
 19 20  1  0
 20 21  1  0
 21 22  3  0
 20 23  1  0
 23 24  1  0
 19 25  1  0
 25 26  2  0
  6 27  1  0
 27 28  2  0
 28  3  1  0
 26 10  1  0
 26 16  1  0
 24 20  1  0
  1 29  1  0
  1 30  1  0
  1 31  1  0
  4 32  1  0
  5 33  1  0
 13 34  1  0
 15 35  1  0
 17 36  1  0
 18 37  1  0
 23 38  1  0
 23 39  1  0
 24 40  1  0
 24 41  1  0
 25 42  1  0
 27 43  1  0
 28 44  1  0
M  CHG  1  13  -1
M  END
>  <UniqueID>  (58) 
58

>  <SMILES>  (58) 
COc1ccc(SC(=O)n2c(C([NH-])=O)cc3ccc(C4(C#N)CC4)cc32)cc1

>  <Energy>  (58) 
346.980291892412

>  <Genealogy>  (58) 
COc1ccc(SC(=O)n2c(C([NH-])=O)cc3ccc(C4(C#N)CC4)cc32)cc1 (protonated)
COc1ccc(SC(=O)n2c(C([NH-])=O)cc3ccc(C4(C#N)CC4)cc32)cc1 (3D coordinates assigned)
COc1ccc(SC(=O)n2c(C([NH-])=O)cc3ccc(C4(C#N)CC4)cc32)cc1 (nonaromatic ring conformer: 346.980291892412 kcal/mol)

>  <smiles>  (58) 
COc1ccc(SC(=O)n2c(C(N)=O)cc3ccc(C4(C#N)CC4)cc32)cc1

>  <score_type>  (58) 
oracle

>  <origin>  (58) 
adg

>  <m_score__min__energy>  (58) 
-9.3399999999999999

>  <m_primary>  (58) 
energy

$$$$
61:0
     RDKit          3D

 38 39  0  0  0  0  0  0  0  0999 V2000
  138.1080  159.4750  131.1030 C   0  0  0  0  0  0  0  0  0  0  0  0
  139.4140  159.5690  131.8150 C   0  0  0  0  0  0  0  0  0  0  0  0
  139.8000  160.6780  132.2750 O   0  0  0  0  0  0  0  0  0  0  0  0
  140.1790  158.4160  131.9980 O   0  0  0  0  0  0  0  0  0  0  0  0
  139.6920  157.2610  132.6760 C   0  0  0  0  0  0  0  0  0  0  0  0
  140.6120  156.9170  133.8520 C   0  0  0  0  0  0  0  0  0  0  0  0
  141.0030  158.1430  134.6940 C   0  0  0  0  0  0  0  0  0  0  0  0
  142.3200  158.7370  134.2640 C   0  0  0  0  0  0  0  0  0  0  0  0
  142.4540  160.1410  134.1200 C   0  0  0  0  0  0  0  0  0  0  0  0
  143.6920  160.7100  133.7800 C   0  0  0  0  0  0  0  0  0  0  0  0
  144.7750  159.8560  133.5990 C   0  0  0  0  0  0  0  0  0  0  0  0
  146.0770  160.1370  133.2490 C   0  0  0  0  0  0  0  0  0  0  0  0
  146.7190  158.9010  133.1940 C   0  0  0  0  0  0  0  0  0  0  0  0
  148.1580  158.7380  132.8890 C   0  0  0  0  0  0  0  0  0  0  0  0
  148.5880  158.0160  131.7380 N   0  0  0  0  0  0  0  0  0  0  0  0
  149.0190  159.2190  133.6720 O   0  0  0  0  0  0  0  0  0  0  0  0
  145.8510  157.8980  133.5010 N   0  0  0  0  0  0  0  0  0  0  0  0
  146.0940  156.4830  133.4590 C   0  0  0  0  0  0  0  0  0  0  0  0
  146.5470  155.9620  132.4050 O   0  0  0  0  0  0  0  0  0  0  0  0
  145.8300  155.6360  134.6290 C   0  0  0  0  0  0  0  0  0  0  0  0
  146.7530  155.3550  135.4360 O   0  0  0  0  0  0  0  0  0  0  0  0
  144.5560  155.1240  134.8430 O   0  0  0  0  0  0  0  0  0  0  0  0
  144.6640  158.4980  133.7420 C   0  0  0  0  0  0  0  0  0  0  0  0
  143.4410  157.9010  134.0620 C   0  0  0  0  0  0  0  0  0  0  0  0
  137.2926  159.4163  131.8389 H   0  0  0  0  0  0  0  0  0  0  0  0
  137.9693  160.3655  130.4723 H   0  0  0  0  0  0  0  0  0  0  0  0
  138.0983  158.5738  130.4723 H   0  0  0  0  0  0  0  0  0  0  0  0
  138.6780  157.4603  133.0529 H   0  0  0  0  0  0  0  0  0  0  0  0
  139.6695  156.4135  131.9751 H   0  0  0  0  0  0  0  0  0  0  0  0
  140.0937  156.1971  134.5024 H   0  0  0  0  0  0  0  0  0  0  0  0
  141.5389  156.5005  133.4309 H   0  0  0  0  0  0  0  0  0  0  0  0
  140.2194  158.9079  134.5899 H   0  0  0  0  0  0  0  0  0  0  0  0
  141.1077  157.8139  135.7384 H   0  0  0  0  0  0  0  0  0  0  0  0
  141.5801  160.7907  134.2760 H   0  0  0  0  0  0  0  0  0  0  0  0
  143.8020  161.7979  133.6604 H   0  0  0  0  0  0  0  0  0  0  0  0
  146.5167  161.1263  133.0543 H   0  0  0  0  0  0  0  0  0  0  0  0
  148.1370  157.1140  131.4700 H   0  0  0  0  0  0  0  0  0  0  0  0
  143.3537  156.8084  134.1541 H   0  0  0  0  0  0  0  0  0  0  0  0
  1  2  1  0
  2  3  2  0
  2  4  1  0
  4  5  1  0
  5  6  1  0
  6  7  1  0
  7  8  1  0
  8  9  2  0
  9 10  1  0
 10 11  2  0
 11 12  1  0
 12 13  2  0
 13 14  1  0
 14 15  1  0
 14 16  2  0
 13 17  1  0
 17 18  1  0
 18 19  2  0
 18 20  1  0
 20 21  2  0
 20 22  1  0
 17 23  1  0
 23 24  2  0
 24  8  1  0
 23 11  1  0
  1 25  1  0
  1 26  1  0
  1 27  1  0
  5 28  1  0
  5 29  1  0
  6 30  1  0
  6 31  1  0
  7 32  1  0
  7 33  1  0
  9 34  1  0
 10 35  1  0
 12 36  1  0
 15 37  1  0
 24 38  1  0
M  CHG  2  15  -1  22  -1
M  END
>  <UniqueID>  (59) 
59

>  <SMILES>  (59) 
CC(=O)OCCCc1ccc2cc(C([NH-])=O)n(C(=O)C(=O)[O-])c2c1

>  <Energy>  (59) 
67.45287858422688

>  <Genealogy>  (59) 
CC(=O)OCCCc1ccc2cc(C([NH-])=O)n(C(=O)C(=O)[O-])c2c1 (protonated)
CC(=O)OCCCc1ccc2cc(C([NH-])=O)n(C(=O)C(=O)[O-])c2c1 (3D coordinates assigned)
CC(=O)OCCCc1ccc2cc(C([NH-])=O)n(C(=O)C(=O)[O-])c2c1 (optimized conformer: 67.45287858422688 kcal/mol)

>  <smiles>  (59) 
CC(=O)OCCCc1ccc2cc(C(N)=O)n(C(=O)C(=O)O)c2c1

>  <score_type>  (59) 
oracle

>  <origin>  (59) 
adg

>  <m_score__min__energy>  (59) 
-6.6799999999999997

>  <m_primary>  (59) 
energy

$$$$
62:0
     RDKit          3D

 39 40  0  0  0  0  0  0  0  0999 V2000
  148.8560  153.3330  132.7380 C   0  0  0  0  0  0  0  0  0  0  0  0
  148.4900  154.4790  132.8080 C   0  0  0  0  0  0  0  0  0  0  0  0
  148.0510  155.8460  132.8950 C   0  0  0  0  0  0  0  0  0  0  0  0
  148.9430  156.8970  132.5760 C   0  0  0  0  0  0  0  0  0  0  0  0
  148.5290  158.2370  132.6720 C   0  0  0  0  0  0  0  0  0  0  0  0
  147.2210  158.4880  133.0780 C   0  0  0  0  0  0  0  0  0  0  0  0
  146.5680  159.6830  133.2840 C   0  0  0  0  0  0  0  0  0  0  0  0
  145.2840  159.3360  133.7060 C   0  0  0  0  0  0  0  0  0  0  0  0
  144.2050  160.3080  134.0040 C   0  0  0  0  0  0  0  0  0  0  0  0
  142.9380  160.2210  133.3500 N   0  0  0  0  0  0  0  0  0  0  0  0
  144.3900  161.2160  134.8570 O   0  0  0  0  0  0  0  0  0  0  0  0
  145.1500  157.9820  133.7460 N   0  0  0  0  0  0  0  0  0  0  0  0
  144.0060  157.2300  134.1820 C   0  0  0  0  0  0  0  0  0  0  0  0
  144.0970  156.5130  135.2130 O   0  0  0  0  0  0  0  0  0  0  0  0
  142.7440  157.2740  133.4120 C   0  0  0  0  0  0  0  0  0  0  0  0
  142.7450  157.7860  132.2610 O   0  0  0  0  0  0  0  0  0  0  0  0
  141.5240  156.7180  133.9340 N   0  0  0  0  0  0  0  0  0  0  0  0
  141.4850  155.3090  134.3440 C   0  0  0  0  0  0  0  0  0  0  0  0
  140.2910  157.5200  133.8390 C   0  0  2  0  0  0  0  0  0  0  0  0
  139.4380  157.1140  132.6290 C   0  0  0  0  0  0  0  0  0  0  0  0
  140.6180  158.9890  133.8280 C   0  0  0  0  0  0  0  0  0  0  0  0
  140.8850  159.5990  134.8980 O   0  0  0  0  0  0  0  0  0  0  0  0
  140.5810  159.6940  132.6300 O   0  0  0  0  0  0  0  0  0  0  0  0
  146.3430  157.4760  133.3700 C   0  0  0  0  0  0  0  0  0  0  0  0
  146.7330  156.1330  133.3040 C   0  0  0  0  0  0  0  0  0  0  0  0
  149.1901  152.2869  132.6741 H   0  0  0  0  0  0  0  0  0  0  0  0
  149.9676  156.6639  132.2506 H   0  0  0  0  0  0  0  0  0  0  0  0
  149.2170  159.0616  132.4338 H   0  0  0  0  0  0  0  0  0  0  0  0
  146.9729  160.6963  133.1452 H   0  0  0  0  0  0  0  0  0  0  0  0
  142.1630  160.8650  133.6240 H   0  0  0  0  0  0  0  0  0  0  0  0
  142.7660  159.5420  132.5760 H   0  0  0  0  0  0  0  0  0  0  0  0
  141.4833  155.2466  135.4422 H   0  0  0  0  0  0  0  0  0  0  0  0
  140.5735  154.8371  133.9485 H   0  0  0  0  0  0  0  0  0  0  0  0
  142.3691  154.7874  133.9485 H   0  0  0  0  0  0  0  0  0  0  0  0
  139.6824  157.3154  134.7322 H   0  0  0  0  0  0  0  0  0  0  0  0
  138.4962  156.6657  132.9782 H   0  0  0  0  0  0  0  0  0  0  0  0
  139.2173  158.0037  132.0209 H   0  0  0  0  0  0  0  0  0  0  0  0
  139.9893  156.3817  132.0209 H   0  0  0  0  0  0  0  0  0  0  0  0
  146.0319  155.3261  133.5635 H   0  0  0  0  0  0  0  0  0  0  0  0
  1  2  3  0
  2  3  1  0
  3  4  2  0
  4  5  1  0
  5  6  2  0
  6  7  1  0
  7  8  2  0
  8  9  1  0
  9 10  1  0
  9 11  2  0
  8 12  1  0
 12 13  1  0
 13 14  2  0
 13 15  1  0
 15 16  2  0
 15 17  1  0
 17 18  1  0
 17 19  1  0
 19 20  1  0
 19 21  1  0
 21 22  2  0
 21 23  1  0
 12 24  1  0
 24 25  2  0
 25  3  1  0
 24  6  1  0
  1 26  1  0
  4 27  1  0
  5 28  1  0
  7 29  1  0
 10 30  1  0
 10 31  1  0
 18 32  1  0
 18 33  1  0
 18 34  1  0
 19 35  1  1
 20 36  1  0
 20 37  1  0
 20 38  1  0
 25 39  1  0
M  CHG  1  23  -1
M  END
>  <UniqueID>  (60) 
60

>  <SMILES>  (60) 
C#Cc1ccc2cc(C(N)=O)n(C(=O)C(=O)N(C)[C@H](C)C(=O)[O-])c2c1

>  <Energy>  (60) 
79.23438576015542

>  <Genealogy>  (60) 
C#Cc1ccc2cc(C(N)=O)n(C(=O)C(=O)N(C)[C@H](C)C(=O)[O-])c2c1 (protonated)
C#Cc1ccc2cc(C(N)=O)n(C(=O)C(=O)N(C)[C@H](C)C(=O)[O-])c2c1 (3D coordinates assigned)
C#Cc1ccc2cc(C(N)=O)n(C(=O)C(=O)N(C)[C@H](C)C(=O)[O-])c2c1 (optimized conformer: 79.23438576015542 kcal/mol)

>  <smiles>  (60) 
C#Cc1ccc2cc(C(N)=O)n(C(=O)C(=O)N(C)[C@H](C)C(=O)O)c2c1

>  <score_type>  (60) 
oracle

>  <origin>  (60) 
adg

>  <m_score__min__energy>  (60) 
-6.8099999999999996

>  <m_primary>  (60) 
energy

$$$$
63:0
     RDKit          3D

 40 42  0  0  0  0  0  0  0  0999 V2000
  147.3590  150.4190  132.0810 C   0  0  0  0  0  0  0  0  0  0  0  0
  148.5660  150.8260  132.9160 C   0  0  0  0  0  0  0  0  0  0  0  0
  148.8660  152.2800  132.7300 C   0  0  0  0  0  0  0  0  0  0  0  0
  147.9970  153.2700  133.0090 N   0  0  0  0  0  0  0  0  0  0  0  0
  148.6690  154.4040  132.7220 C   0  0  0  0  0  0  0  0  0  0  0  0
  148.1220  155.7770  132.8570 C   0  0  0  0  0  0  0  0  0  0  0  0
  148.9470  156.9080  132.6090 C   0  0  0  0  0  0  0  0  0  0  0  0
  148.4390  158.2120  132.7360 C   0  0  0  0  0  0  0  0  0  0  0  0
  147.1070  158.3610  133.1010 C   0  0  0  0  0  0  0  0  0  0  0  0
  146.3730  159.5050  133.3190 C   0  0  0  0  0  0  0  0  0  0  0  0
  145.1020  159.0640  133.6800 C   0  0  0  0  0  0  0  0  0  0  0  0
  143.9620  159.9750  133.9200 C   0  0  0  0  0  0  0  0  0  0  0  0
  142.7600  159.8190  133.1690 N   0  0  0  0  0  0  0  0  0  0  0  0
  144.0230  160.8640  134.8080 O   0  0  0  0  0  0  0  0  0  0  0  0
  145.0540  157.7010  133.6920 N   0  0  0  0  0  0  0  0  0  0  0  0
  143.9550  156.8660  134.0930 C   0  0  0  0  0  0  0  0  0  0  0  0
  142.7820  157.1460  133.7230 O   0  0  0  0  0  0  0  0  0  0  0  0
  144.1940  155.7300  134.8720 O   0  0  0  0  0  0  0  0  0  0  0  0
  143.8980  154.4120  134.4230 C   0  0  0  0  0  0  0  0  0  0  0  0
  145.1650  153.6400  134.2830 C   0  0  0  0  0  0  0  0  0  0  0  0
  146.0220  153.6590  135.2060 O   0  0  0  0  0  0  0  0  0  0  0  0
  145.4090  152.8990  133.1290 O   0  0  0  0  0  0  0  0  0  0  0  0
  146.2890  157.2860  133.3310 C   0  0  0  0  0  0  0  0  0  0  0  0
  146.7710  155.9750  133.2320 C   0  0  0  0  0  0  0  0  0  0  0  0
  149.9350  154.0510  132.2830 C   0  0  0  0  0  0  0  0  0  0  0  0
  150.0210  152.7400  132.3050 O   0  0  0  0  0  0  0  0  0  0  0  0
  146.5297  150.1394  132.7473 H   0  0  0  0  0  0  0  0  0  0  0  0
  147.0508  151.2629  131.4463 H   0  0  0  0  0  0  0  0  0  0  0  0
  147.6248  149.5608  131.4463 H   0  0  0  0  0  0  0  0  0  0  0  0
  148.3531  150.6333  133.9779 H   0  0  0  0  0  0  0  0  0  0  0  0
  149.4375  150.2387  132.5912 H   0  0  0  0  0  0  0  0  0  0  0  0
  147.0160  153.1640  133.3500 H   0  0  0  0  0  0  0  0  0  0  0  0
  149.9964  156.7604  132.3139 H   0  0  0  0  0  0  0  0  0  0  0  0
  149.0772  159.0888  132.5518 H   0  0  0  0  0  0  0  0  0  0  0  0
  146.7170  160.5458  133.2276 H   0  0  0  0  0  0  0  0  0  0  0  0
  142.6040  158.9740  132.5770 H   0  0  0  0  0  0  0  0  0  0  0  0
  143.2436  153.9138  135.1535 H   0  0  0  0  0  0  0  0  0  0  0  0
  143.3886  154.4615  133.4493 H   0  0  0  0  0  0  0  0  0  0  0  0
  146.1144  155.1176  133.4410 H   0  0  0  0  0  0  0  0  0  0  0  0
  150.7285  154.7460  131.9710 H   0  0  0  0  0  0  0  0  0  0  0  0
  1  2  1  0
  2  3  1  0
  3  4  2  0
  4  5  1  0
  5  6  1  0
  6  7  2  0
  7  8  1  0
  8  9  2  0
  9 10  1  0
 10 11  2  0
 11 12  1  0
 12 13  1  0
 12 14  2  0
 11 15  1  0
 15 16  1  0
 16 17  2  0
 16 18  1  0
 18 19  1  0
 19 20  1  0
 20 21  2  0
 20 22  1  0
 15 23  1  0
 23 24  2  0
  5 25  2  0
 25 26  1  0
 26  3  1  0
 24  6  1  0
 23  9  1  0
  1 27  1  0
  1 28  1  0
  1 29  1  0
  2 30  1  0
  2 31  1  0
  4 32  1  0
  7 33  1  0
  8 34  1  0
 10 35  1  0
 13 36  1  0
 19 37  1  0
 19 38  1  0
 24 39  1  0
 25 40  1  0
M  CHG  3   4   1  13  -1  22  -1
M  END
>  <UniqueID>  (61) 
61

>  <SMILES>  (61) 
CCc1[nH+]c(-c2ccc3cc(C([NH-])=O)n(C(=O)OCC(=O)[O-])c3c2)co1

>  <Energy>  (61) 
106.89459958098229

>  <Genealogy>  (61) 
CCc1[nH+]c(-c2ccc3cc(C([NH-])=O)n(C(=O)OCC(=O)[O-])c3c2)co1 (protonated)
CCc1[nH+]c(-c2ccc3cc(C([NH-])=O)n(C(=O)OCC(=O)[O-])c3c2)co1 (3D coordinates assigned)
CCc1[nH+]c(-c2ccc3cc(C([NH-])=O)n(C(=O)OCC(=O)[O-])c3c2)co1 (optimized conformer: 106.89459958098229 kcal/mol)

>  <smiles>  (61) 
CCc1nc(-c2ccc3cc(C(N)=O)n(C(=O)OCC(=O)O)c3c2)co1

>  <score_type>  (61) 
oracle

>  <origin>  (61) 
adg

>  <m_score__min__energy>  (61) 
-5.8099999999999996

>  <m_primary>  (61) 
energy

$$$$
64:0
     RDKit          3D

 39 40  0  0  0  0  0  0  0  0999 V2000
  139.1330  157.8480  132.5250 C   0  0  0  0  0  0  0  0  0  0  0  0
  139.9850  157.3570  133.6460 C   0  0  0  0  0  0  0  0  0  0  0  0
  140.2860  156.1340  133.7120 O   0  0  0  0  0  0  0  0  0  0  0  0
  140.4810  158.2670  134.5830 O   0  0  0  0  0  0  0  0  0  0  0  0
  141.0000  159.5420  134.2150 C   0  0  0  0  0  0  0  0  0  0  0  0
  142.3610  159.7610  134.8760 C   0  0  0  0  0  0  0  0  0  0  0  0
  143.4890  159.8230  133.8410 C   0  0  0  0  0  0  0  0  0  0  0  0
  143.7580  158.4550  133.2890 C   0  0  0  0  0  0  0  0  0  0  0  0
  142.8730  157.8710  132.6070 O   0  0  0  0  0  0  0  0  0  0  0  0
  144.9620  157.7600  133.6350 N   0  0  0  0  0  0  0  0  0  0  0  0
  145.0870  156.5610  134.2680 C   0  0  0  0  0  0  0  0  0  0  0  0
  143.9790  155.7740  134.8450 C   0  0  0  0  0  0  0  0  0  0  0  0
  142.7500  156.4140  135.1800 N   0  0  0  0  0  0  0  0  0  0  0  0
  144.0980  154.5330  135.0260 O   0  0  0  0  0  0  0  0  0  0  0  0
  146.4300  156.1930  134.3490 C   0  0  0  0  0  0  0  0  0  0  0  0
  147.1260  157.2160  133.7440 C   0  0  0  0  0  0  0  0  0  0  0  0
  148.4920  157.3660  133.5210 C   0  0  0  0  0  0  0  0  0  0  0  0
  148.9250  158.5160  132.8380 C   0  0  0  0  0  0  0  0  0  0  0  0
  147.9920  159.4910  132.4010 C   0  0  0  0  0  0  0  0  0  0  0  0
  148.4610  160.6920  131.6340 C   0  0  0  0  0  0  0  0  0  0  0  0
  149.0320  160.1910  130.0230 Cl  0  0  0  0  0  0  0  0  0  0  0  0
  146.6130  159.2980  132.6350 C   0  0  0  0  0  0  0  0  0  0  0  0
  146.2160  158.1490  133.3240 C   0  0  0  0  0  0  0  0  0  0  0  0
  138.2480  158.3580  132.9333 H   0  0  0  0  0  0  0  0  0  0  0  0
  139.7097  158.5523  131.9074 H   0  0  0  0  0  0  0  0  0  0  0  0
  138.8128  156.9959  131.9074 H   0  0  0  0  0  0  0  0  0  0  0  0
  141.1140  159.5876  133.1219 H   0  0  0  0  0  0  0  0  0  0  0  0
  140.3048  160.3260  134.5497 H   0  0  0  0  0  0  0  0  0  0  0  0
  142.3376  160.7079  135.4353 H   0  0  0  0  0  0  0  0  0  0  0  0
  142.5572  158.9120  135.5474 H   0  0  0  0  0  0  0  0  0  0  0  0
  143.1940  160.4945  133.0212 H   0  0  0  0  0  0  0  0  0  0  0  0
  144.4013  160.2015  134.3252 H   0  0  0  0  0  0  0  0  0  0  0  0
  142.1860  156.9060  134.4530 H   0  0  0  0  0  0  0  0  0  0  0  0
  146.8451  155.2797  134.8002 H   0  0  0  0  0  0  0  0  0  0  0  0
  149.2100  156.6085  133.8683 H   0  0  0  0  0  0  0  0  0  0  0  0
  149.9974  158.6611  132.6406 H   0  0  0  0  0  0  0  0  0  0  0  0
  147.6285  161.4023  131.5222 H   0  0  0  0  0  0  0  0  0  0  0  0
  149.2864  161.1727  132.1795 H   0  0  0  0  0  0  0  0  0  0  0  0
  145.8720  160.0316  132.2847 H   0  0  0  0  0  0  0  0  0  0  0  0
  1  2  1  0
  2  3  2  0
  2  4  1  0
  4  5  1  0
  5  6  1  0
  6  7  1  0
  7  8  1  0
  8  9  2  0
  8 10  1  0
 10 11  1  0
 11 12  1  0
 12 13  1  0
 12 14  2  0
 11 15  2  0
 15 16  1  0
 16 17  2  0
 17 18  1  0
 18 19  2  0
 19 20  1  0
 20 21  1  0
 19 22  1  0
 22 23  2  0
 23 10  1  0
 23 16  1  0
  1 24  1  0
  1 25  1  0
  1 26  1  0
  5 27  1  0
  5 28  1  0
  6 29  1  0
  6 30  1  0
  7 31  1  0
  7 32  1  0
 13 33  1  0
 15 34  1  0
 17 35  1  0
 18 36  1  0
 20 37  1  0
 20 38  1  0
 22 39  1  0
M  CHG  1  13  -1
M  END
>  <UniqueID>  (62) 
62

>  <SMILES>  (62) 
CC(=O)OCCCC(=O)n1c(C([NH-])=O)cc2ccc(CCl)cc21

>  <Energy>  (62) 
68.23595225433122

>  <Genealogy>  (62) 
CC(=O)OCCCC(=O)n1c(C([NH-])=O)cc2ccc(CCl)cc21 (protonated)
CC(=O)OCCCC(=O)n1c(C([NH-])=O)cc2ccc(CCl)cc21 (3D coordinates assigned)
CC(=O)OCCCC(=O)n1c(C([NH-])=O)cc2ccc(CCl)cc21 (optimized conformer: 68.23595225433122 kcal/mol)

>  <smiles>  (62) 
CC(=O)OCCCC(=O)n1c(C(N)=O)cc2ccc(CCl)cc21

>  <score_type>  (62) 
oracle

>  <origin>  (62) 
adg

>  <m_score__min__energy>  (62) 
-6.1600000000000001

>  <m_primary>  (62) 
energy

$$$$
65:0
     RDKit          3D

 41 42  0  0  0  0  0  0  0  0999 V2000
  140.1780  157.6880  135.9140 C   0  0  0  0  0  0  0  0  0  0  0  0
  140.5340  157.2670  134.5560 N   0  0  0  0  0  0  0  0  0  0  0  0
  139.7070  157.6670  133.4070 C   0  0  0  0  0  0  0  0  0  0  0  0
  140.0360  159.0810  132.9310 C   0  0  0  0  0  0  0  0  0  0  0  0
  140.6920  159.0350  131.6910 O   0  0  0  0  0  0  0  0  0  0  0  0
  141.7480  156.5250  134.3410 C   0  0  0  0  0  0  0  0  0  0  0  0
  141.6860  155.3260  133.9520 O   0  0  0  0  0  0  0  0  0  0  0  0
  143.0940  157.1450  134.5870 C   0  0  0  0  0  0  0  0  0  0  0  0
  143.6780  157.7070  133.3220 C   0  0  0  0  0  0  0  0  0  0  0  0
  143.0360  157.6200  132.2390 O   0  0  0  0  0  0  0  0  0  0  0  0
  144.9340  158.3990  133.3410 N   0  0  0  0  0  0  0  0  0  0  0  0
  145.1330  159.7410  133.4520 C   0  0  0  0  0  0  0  0  0  0  0  0
  144.0820  160.7560  133.6630 C   0  0  0  0  0  0  0  0  0  0  0  0
  142.7240  160.4890  133.3160 N   0  0  0  0  0  0  0  0  0  0  0  0
  144.3900  161.8790  134.1490 O   0  0  0  0  0  0  0  0  0  0  0  0
  146.4940  160.0410  133.3620 C   0  0  0  0  0  0  0  0  0  0  0  0
  147.1220  158.8300  133.1810 C   0  0  0  0  0  0  0  0  0  0  0  0
  148.4740  158.5370  133.0170 C   0  0  0  0  0  0  0  0  0  0  0  0
  148.8360  157.1910  132.8240 C   0  0  0  0  0  0  0  0  0  0  0  0
  147.8440  156.1780  132.7800 C   0  0  0  0  0  0  0  0  0  0  0  0
  148.2400  154.7420  132.6100 C   0  0  0  0  0  0  0  0  0  0  0  0
  148.0090  153.8740  134.1450 Cl  0  0  0  0  0  0  0  0  0  0  0  0
  146.4870  156.5160  132.9600 C   0  0  0  0  0  0  0  0  0  0  0  0
  146.1580  157.8570  133.1700 C   0  0  0  0  0  0  0  0  0  0  0  0
  140.7094  157.0596  136.6439 H   0  0  0  0  0  0  0  0  0  0  0  0
  140.4645  158.7401  136.0587 H   0  0  0  0  0  0  0  0  0  0  0  0
  139.0929  157.5803  136.0587 H   0  0  0  0  0  0  0  0  0  0  0  0
  139.8837  156.9636  132.5800 H   0  0  0  0  0  0  0  0  0  0  0  0
  138.6538  157.6512  133.7240 H   0  0  0  0  0  0  0  0  0  0  0  0
  139.1037  159.6557  132.8277 H   0  0  0  0  0  0  0  0  0  0  0  0
  140.6950  159.5634  133.6679 H   0  0  0  0  0  0  0  0  0  0  0  0
  141.6490  159.2390  131.8780 H   0  0  0  0  0  0  0  0  0  0  0  0
  142.9855  157.9559  135.3223 H   0  0  0  0  0  0  0  0  0  0  0  0
  143.7711  156.3644  134.9640 H   0  0  0  0  0  0  0  0  0  0  0  0
  142.4840  159.7310  132.6390 H   0  0  0  0  0  0  0  0  0  0  0  0
  146.9639  161.0337  133.4228 H   0  0  0  0  0  0  0  0  0  0  0  0
  149.2339  159.3321  133.0377 H   0  0  0  0  0  0  0  0  0  0  0  0
  149.8962  156.9223  132.7064 H   0  0  0  0  0  0  0  0  0  0  0  0
  147.6162  154.2800  131.8306 H   0  0  0  0  0  0  0  0  0  0  0  0
  149.2983  154.6873  132.3149 H   0  0  0  0  0  0  0  0  0  0  0  0
  145.7059  155.7418  132.9356 H   0  0  0  0  0  0  0  0  0  0  0  0
  1  2  1  0
  2  3  1  0
  3  4  1  0
  4  5  1  0
  2  6  1  0
  6  7  2  0
  6  8  1  0
  8  9  1  0
  9 10  2  0
  9 11  1  0
 11 12  1  0
 12 13  1  0
 13 14  1  0
 13 15  2  0
 12 16  2  0
 16 17  1  0
 17 18  2  0
 18 19  1  0
 19 20  2  0
 20 21  1  0
 21 22  1  0
 20 23  1  0
 23 24  2  0
 24 11  1  0
 24 17  1  0
  1 25  1  0
  1 26  1  0
  1 27  1  0
  3 28  1  0
  3 29  1  0
  4 30  1  0
  4 31  1  0
  5 32  1  0
  8 33  1  0
  8 34  1  0
 14 35  1  0
 16 36  1  0
 18 37  1  0
 19 38  1  0
 21 39  1  0
 21 40  1  0
 23 41  1  0
M  CHG  1  14  -1
M  END
>  <UniqueID>  (63) 
63

>  <SMILES>  (63) 
CN(CCO)C(=O)CC(=O)n1c(C([NH-])=O)cc2ccc(CCl)cc21

>  <Energy>  (63) 
77.62688364283217

>  <Genealogy>  (63) 
CN(CCO)C(=O)CC(=O)n1c(C([NH-])=O)cc2ccc(CCl)cc21 (protonated)
CN(CCO)C(=O)CC(=O)n1c(C([NH-])=O)cc2ccc(CCl)cc21 (3D coordinates assigned)
CN(CCO)C(=O)CC(=O)n1c(C([NH-])=O)cc2ccc(CCl)cc21 (optimized conformer: 77.62688364283217 kcal/mol)

>  <smiles>  (63) 
CN(CCO)C(=O)CC(=O)n1c(C(N)=O)cc2ccc(CCl)cc21

>  <score_type>  (63) 
oracle

>  <origin>  (63) 
adg

>  <m_score__min__energy>  (63) 
-6.1399999999999997

>  <m_primary>  (63) 
energy

$$$$
66:0
     RDKit          3D

 39 40  0  0  0  0  0  0  0  0999 V2000
  138.9170  159.2220  131.5680 C   0  0  0  0  0  0  0  0  0  0  0  0
  140.1430  158.6620  132.2910 C   0  0  1  0  0  0  0  0  0  0  0  0
  141.1130  159.7290  132.5430 N   0  0  0  0  0  0  0  0  0  0  0  0
  139.7400  157.9820  133.5720 C   0  0  0  0  0  0  0  0  0  0  0  0
  138.7620  157.1840  133.5850 O   0  0  0  0  0  0  0  0  0  0  0  0
  140.4650  158.2360  134.7410 O   0  0  0  0  0  0  0  0  0  0  0  0
  141.7990  157.7810  134.9370 C   0  0  0  0  0  0  0  0  0  0  0  0
  142.7110  158.7270  134.3880 O   0  0  0  0  0  0  0  0  0  0  0  0
  143.6340  158.3990  133.3900 C   0  0  0  0  0  0  0  0  0  0  0  0
  143.3110  157.6070  132.4620 O   0  0  0  0  0  0  0  0  0  0  0  0
  144.9450  158.9840  133.4140 N   0  0  0  0  0  0  0  0  0  0  0  0
  145.2630  160.3080  133.4850 C   0  0  0  0  0  0  0  0  0  0  0  0
  144.3180  161.4150  133.7390 C   0  0  0  0  0  0  0  0  0  0  0  0
  142.9130  161.2260  133.6030 N   0  0  0  0  0  0  0  0  0  0  0  0
  144.7550  162.5300  134.1320 O   0  0  0  0  0  0  0  0  0  0  0  0
  146.6390  160.4890  133.3650 C   0  0  0  0  0  0  0  0  0  0  0  0
  147.1620  159.2240  133.2270 C   0  0  0  0  0  0  0  0  0  0  0  0
  148.4820  158.8160  133.0580 C   0  0  0  0  0  0  0  0  0  0  0  0
  148.7330  157.4420  132.9090 C   0  0  0  0  0  0  0  0  0  0  0  0
  147.6670  156.5080  132.9230 C   0  0  0  0  0  0  0  0  0  0  0  0
  147.9370  155.0410  132.7450 C   0  0  0  0  0  0  0  0  0  0  0  0
  149.2930  154.8350  132.5650 F   0  0  0  0  0  0  0  0  0  0  0  0
  147.5160  154.3510  133.8670 F   0  0  0  0  0  0  0  0  0  0  0  0
  146.3390  156.9600  133.0930 C   0  0  0  0  0  0  0  0  0  0  0  0
  146.1200  158.3330  133.2590 C   0  0  0  0  0  0  0  0  0  0  0  0
  138.1772  159.5599  132.3086 H   0  0  0  0  0  0  0  0  0  0  0  0
  139.2192  160.0714  130.9377 H   0  0  0  0  0  0  0  0  0  0  0  0
  138.4729  158.4375  130.9377 H   0  0  0  0  0  0  0  0  0  0  0  0
  140.6193  157.9086  131.6463 H   0  0  0  0  0  0  0  0  0  0  0  0
  142.0660  159.3810  132.2870 H   0  0  0  0  0  0  0  0  0  0  0  0
  141.1260  159.9580  133.5640 H   0  0  0  0  0  0  0  0  0  0  0  0
  141.9928  157.6677  136.0138 H   0  0  0  0  0  0  0  0  0  0  0  0
  141.9320  156.8111  134.4353 H   0  0  0  0  0  0  0  0  0  0  0  0
  142.5270  160.4200  133.0630 H   0  0  0  0  0  0  0  0  0  0  0  0
  147.1902  161.4409  133.3779 H   0  0  0  0  0  0  0  0  0  0  0  0
  149.3036  159.5473  133.0416 H   0  0  0  0  0  0  0  0  0  0  0  0
  149.7664  157.0876  132.7803 H   0  0  0  0  0  0  0  0  0  0  0  0
  147.3896  154.6783  131.8625 H   0  0  0  0  0  0  0  0  0  0  0  0
  145.4981  156.2508  133.0949 H   0  0  0  0  0  0  0  0  0  0  0  0
  1  2  1  0
  2  3  1  0
  2  4  1  0
  4  5  2  0
  4  6  1  0
  6  7  1  0
  7  8  1  0
  8  9  1  0
  9 10  2  0
  9 11  1  0
 11 12  1  0
 12 13  1  0
 13 14  1  0
 13 15  2  0
 12 16  2  0
 16 17  1  0
 17 18  2  0
 18 19  1  0
 19 20  2  0
 20 21  1  0
 21 22  1  0
 21 23  1  0
 20 24  1  0
 24 25  2  0
 25 11  1  0
 25 17  1  0
  1 26  1  0
  1 27  1  0
  1 28  1  0
  2 29  1  6
  3 30  1  0
  3 31  1  0
  7 32  1  0
  7 33  1  0
 14 34  1  0
 16 35  1  0
 18 36  1  0
 19 37  1  0
 21 38  1  0
 24 39  1  0
M  CHG  1  14  -1
M  END
>  <UniqueID>  (64) 
64

>  <SMILES>  (64) 
C[C@@H](N)C(=O)OCOC(=O)n1c(C([NH-])=O)cc2ccc(C(F)F)cc21

>  <Energy>  (64) 
70.8725000462186

>  <Genealogy>  (64) 
CC(N)C(=O)OCOC(=O)n1c(C([NH-])=O)cc2ccc(C(F)F)cc21 (protonated)
C[C@@H](N)C(=O)OCOC(=O)n1c(C([NH-])=O)cc2ccc(C(F)F)cc21 (chirality)
C[C@@H](N)C(=O)OCOC(=O)n1c(C([NH-])=O)cc2ccc(C(F)F)cc21 (3D coordinates assigned)
C[C@@H](N)C(=O)OCOC(=O)n1c(C([NH-])=O)cc2ccc(C(F)F)cc21 (optimized conformer: 70.8725000462186 kcal/mol)

>  <smiles>  (64) 
CC(N)C(=O)OCOC(=O)n1c(C(N)=O)cc2ccc(C(F)F)cc21

>  <score_type>  (64) 
oracle

>  <origin>  (64) 
adg

>  <m_score__min__energy>  (64) 
-5.8200000000000003

>  <m_primary>  (64) 
energy

$$$$
67:0
     RDKit          3D

 46 47  0  0  0  0  0  0  0  0999 V2000
  149.6320  151.3790  131.4000 C   0  0  0  0  0  0  0  0  0  0  0  0
  149.4000  152.6810  131.8890 O   0  0  0  0  0  0  0  0  0  0  0  0
  149.1150  152.6180  133.2710 C   0  0  0  0  0  0  0  0  0  0  0  0
  148.1110  153.7150  133.6310 C   0  0  0  0  0  0  0  0  0  0  0  0
  147.9900  154.6930  132.5480 N   0  0  0  0  0  0  0  0  0  0  0  0
  147.6910  156.0910  132.7320 C   0  0  0  0  0  0  0  0  0  0  0  0
  148.7320  157.0410  132.5880 C   0  0  0  0  0  0  0  0  0  0  0  0
  148.4890  158.4140  132.7660 C   0  0  0  0  0  0  0  0  0  0  0  0
  147.1920  158.8110  133.0760 C   0  0  0  0  0  0  0  0  0  0  0  0
  146.6850  160.0650  133.3250 C   0  0  0  0  0  0  0  0  0  0  0  0
  145.3320  159.8710  133.5970 C   0  0  0  0  0  0  0  0  0  0  0  0
  144.3830  160.9760  133.8440 C   0  0  0  0  0  0  0  0  0  0  0  0
  143.0380  160.8740  133.3780 N   0  0  0  0  0  0  0  0  0  0  0  0
  144.7350  161.9970  134.4900 O   0  0  0  0  0  0  0  0  0  0  0  0
  145.0170  158.5460  133.5230 N   0  0  0  0  0  0  0  0  0  0  0  0
  143.7580  157.9170  133.8050 C   0  0  0  0  0  0  0  0  0  0  0  0
  143.6340  157.1960  134.8310 O   0  0  0  0  0  0  0  0  0  0  0  0
  142.6900  158.0900  132.9120 O   0  0  0  0  0  0  0  0  0  0  0  0
  141.2960  158.1320  133.2480 C   0  0  0  0  0  0  0  0  0  0  0  0
  141.1840  158.8040  134.6240 C   0  0  0  0  0  0  0  0  0  0  0  0
  140.7160  156.7070  133.3390 C   0  0  0  0  0  0  0  0  0  0  0  0
  140.5190  158.9740  132.2190 C   0  0  0  0  0  0  0  0  0  0  0  0
  146.1660  157.9120  133.2000 C   0  0  0  0  0  0  0  0  0  0  0  0
  146.3830  156.5380  133.0440 C   0  0  0  0  0  0  0  0  0  0  0  0
  149.7554  150.6863  132.2456 H   0  0  0  0  0  0  0  0  0  0  0  0
  148.7766  151.0599  130.7865 H   0  0  0  0  0  0  0  0  0  0  0  0
  150.5450  151.3750  130.7865 H   0  0  0  0  0  0  0  0  0  0  0  0
  148.6869  151.6342  133.5134 H   0  0  0  0  0  0  0  0  0  0  0  0
  150.0418  152.7639  133.8453 H   0  0  0  0  0  0  0  0  0  0  0  0
  147.1277  153.2567  133.8131 H   0  0  0  0  0  0  0  0  0  0  0  0
  148.4679  154.2339  134.5329 H   0  0  0  0  0  0  0  0  0  0  0  0
  148.1050  154.3360  131.5720 H   0  0  0  0  0  0  0  0  0  0  0  0
  149.7459  156.6990  132.3330 H   0  0  0  0  0  0  0  0  0  0  0  0
  149.2988  159.1514  132.6635 H   0  0  0  0  0  0  0  0  0  0  0  0
  147.2318  161.0194  133.3122 H   0  0  0  0  0  0  0  0  0  0  0  0
  142.7880  160.2230  132.6020 H   0  0  0  0  0  0  0  0  0  0  0  0
  141.3101  158.0477  135.4127 H   0  0  0  0  0  0  0  0  0  0  0  0
  141.9668  159.5705  134.7225 H   0  0  0  0  0  0  0  0  0  0  0  0
  140.1949  159.2752  134.7225 H   0  0  0  0  0  0  0  0  0  0  0  0
  140.6011  156.4247  134.3959 H   0  0  0  0  0  0  0  0  0  0  0  0
  139.7346  156.6782  132.8430 H   0  0  0  0  0  0  0  0  0  0  0  0
  141.3984  156.0010  132.8430 H   0  0  0  0  0  0  0  0  0  0  0  0
  139.8640  159.6837  132.7456 H   0  0  0  0  0  0  0  0  0  0  0  0
  141.2290  159.5289  131.5882 H   0  0  0  0  0  0  0  0  0  0  0  0
  139.9089  158.3107  131.5882 H   0  0  0  0  0  0  0  0  0  0  0  0
  145.5567  155.8213  133.1610 H   0  0  0  0  0  0  0  0  0  0  0  0
  1  2  1  0
  2  3  1  0
  3  4  1  0
  4  5  1  0
  5  6  1  0
  6  7  2  0
  7  8  1  0
  8  9  2  0
  9 10  1  0
 10 11  2  0
 11 12  1  0
 12 13  1  0
 12 14  2  0
 11 15  1  0
 15 16  1  0
 16 17  2  0
 16 18  1  0
 18 19  1  0
 19 20  1  0
 19 21  1  0
 19 22  1  0
 15 23  1  0
 23 24  2  0
 24  6  1  0
 23  9  1  0
  1 25  1  0
  1 26  1  0
  1 27  1  0
  3 28  1  0
  3 29  1  0
  4 30  1  0
  4 31  1  0
  5 32  1  0
  7 33  1  0
  8 34  1  0
 10 35  1  0
 13 36  1  0
 20 37  1  0
 20 38  1  0
 20 39  1  0
 21 40  1  0
 21 41  1  0
 21 42  1  0
 22 43  1  0
 22 44  1  0
 22 45  1  0
 24 46  1  0
M  CHG  1  13  -1
M  END
>  <UniqueID>  (65) 
65

>  <SMILES>  (65) 
COCCNc1ccc2cc(C([NH-])=O)n(C(=O)OC(C)(C)C)c2c1

>  <Energy>  (65) 
76.85975647697742

>  <Genealogy>  (65) 
COCCNc1ccc2cc(C([NH-])=O)n(C(=O)OC(C)(C)C)c2c1 (protonated)
COCCNc1ccc2cc(C([NH-])=O)n(C(=O)OC(C)(C)C)c2c1 (3D coordinates assigned)
COCCNc1ccc2cc(C([NH-])=O)n(C(=O)OC(C)(C)C)c2c1 (optimized conformer: 76.85975647697742 kcal/mol)

>  <smiles>  (65) 
COCCNc1ccc2cc(C(N)=O)n(C(=O)OC(C)(C)C)c2c1

>  <score_type>  (65) 
oracle

>  <origin>  (65) 
adg

>  <m_score__min__energy>  (65) 
-6.7199999999999998

>  <m_primary>  (65) 
energy

$$$$
68:0
     RDKit          3D

 42 44  0  0  0  0  0  0  0  0999 V2000
  148.2540  154.8520  132.5950 C   0  0  0  0  0  0  0  0  0  0  0  0
  147.9950  156.3100  132.8320 C   0  0  0  0  0  0  0  0  0  0  0  0
  149.0490  157.2480  132.6950 C   0  0  0  0  0  0  0  0  0  0  0  0
  148.8100  158.6220  132.8650 C   0  0  0  0  0  0  0  0  0  0  0  0
  147.5120  159.0250  133.1660 C   0  0  0  0  0  0  0  0  0  0  0  0
  146.9990  160.2890  133.3480 C   0  0  0  0  0  0  0  0  0  0  0  0
  145.6410  160.1040  133.6010 C   0  0  0  0  0  0  0  0  0  0  0  0
  144.7200  161.2090  133.9370 C   0  0  0  0  0  0  0  0  0  0  0  0
  143.3170  161.0870  133.7190 N   0  0  0  0  0  0  0  0  0  0  0  0
  145.1720  162.2570  134.4710 O   0  0  0  0  0  0  0  0  0  0  0  0
  145.3250  158.7780  133.5680 N   0  0  0  0  0  0  0  0  0  0  0  0
  144.0210  158.1870  133.6790 C   0  0  0  0  0  0  0  0  0  0  0  0
  143.2050  158.2730  132.7200 O   0  0  0  0  0  0  0  0  0  0  0  0
  143.6530  157.5340  134.8590 O   0  0  0  0  0  0  0  0  0  0  0  0
  142.3010  157.4270  135.2930 C   0  0  0  0  0  0  0  0  0  0  0  0
  141.5420  158.6750  134.9370 C   0  0  0  0  0  0  0  0  0  0  0  0
  141.7510  159.7250  135.6050 O   0  0  0  0  0  0  0  0  0  0  0  0
  140.6150  158.7060  133.8300 N   0  0  0  0  0  0  0  0  0  0  0  0
  139.6430  157.6060  133.6540 C   0  0  0  0  0  0  0  0  0  0  0  0
  139.1290  157.5190  132.2170 C   0  0  0  0  0  0  0  0  0  0  0  0
  138.6530  158.8220  131.7860 N   0  0  0  0  0  0  0  0  0  0  0  0
  139.4290  159.9790  132.0770 C   0  0  0  0  0  0  0  0  0  0  0  0
  139.0790  161.0990  131.6220 O   0  0  0  0  0  0  0  0  0  0  0  0
  140.6770  159.8500  132.8990 C   0  0  0  0  0  0  0  0  0  0  0  0
  146.4820  158.1310  133.3040 C   0  0  0  0  0  0  0  0  0  0  0  0
  146.6880  156.7580  133.1200 C   0  0  0  0  0  0  0  0  0  0  0  0
  148.3460  154.3342  133.5611 H   0  0  0  0  0  0  0  0  0  0  0  0
  147.4187  154.4191  132.0250 H   0  0  0  0  0  0  0  0  0  0  0  0
  149.1873  154.7333  132.0250 H   0  0  0  0  0  0  0  0  0  0  0  0
  150.0631  156.8969  132.4534 H   0  0  0  0  0  0  0  0  0  0  0  0
  149.6229  159.3561  132.7635 H   0  0  0  0  0  0  0  0  0  0  0  0
  147.5449  161.2429  133.3033 H   0  0  0  0  0  0  0  0  0  0  0  0
  142.8430  160.1590  133.7770 H   0  0  0  0  0  0  0  0  0  0  0  0
  141.8293  156.5625  134.8031 H   0  0  0  0  0  0  0  0  0  0  0  0
  142.2835  157.2950  136.3849 H   0  0  0  0  0  0  0  0  0  0  0  0
  140.1317  156.6555  133.9143 H   0  0  0  0  0  0  0  0  0  0  0  0
  138.7831  157.8048  134.3105 H   0  0  0  0  0  0  0  0  0  0  0  0
  139.9451  157.1912  131.5563 H   0  0  0  0  0  0  0  0  0  0  0  0
  138.3015  156.7958  132.1699 H   0  0  0  0  0  0  0  0  0  0  0  0
  141.5337  159.7109  132.2232 H   0  0  0  0  0  0  0  0  0  0  0  0
  140.7841  160.7670  133.4970 H   0  0  0  0  0  0  0  0  0  0  0  0
  145.8524  156.0469  133.1980 H   0  0  0  0  0  0  0  0  0  0  0  0
  1  2  1  0
  2  3  2  0
  3  4  1  0
  4  5  2  0
  5  6  1  0
  6  7  2  0
  7  8  1  0
  8  9  1  0
  8 10  2  0
  7 11  1  0
 11 12  1  0
 12 13  2  0
 12 14  1  0
 14 15  1  0
 15 16  1  0
 16 17  2  0
 16 18  1  0
 18 19  1  0
 19 20  1  0
 20 21  1  0
 21 22  1  0
 22 23  2  0
 22 24  1  0
 11 25  1  0
 25 26  2  0
 26  2  1  0
 25  5  1  0
 24 18  1  0
  1 27  1  0
  1 28  1  0
  1 29  1  0
  3 30  1  0
  4 31  1  0
  6 32  1  0
  9 33  1  0
 15 34  1  0
 15 35  1  0
 19 36  1  0
 19 37  1  0
 20 38  1  0
 20 39  1  0
 24 40  1  0
 24 41  1  0
 26 42  1  0
M  CHG  2   9  -1  21  -1
M  END
>  <UniqueID>  (66) 
66

>  <SMILES>  (66) 
Cc1ccc2cc(C([NH-])=O)n(C(=O)OCC(=O)N3CC[N-]C(=O)C3)c2c1

>  <Energy>  (66) 
79.68059725951565

>  <Genealogy>  (66) 
Cc1ccc2cc(C([NH-])=O)n(C(=O)OCC(=O)N3CC[N-]C(=O)C3)c2c1 (protonated)
Cc1ccc2cc(C([NH-])=O)n(C(=O)OCC(=O)N3CC[N-]C(=O)C3)c2c1 (3D coordinates assigned)
Cc1ccc2cc(C([NH-])=O)n(C(=O)OCC(=O)N3CC[N-]C(=O)C3)c2c1 (nonaromatic ring conformer: 79.68059725951565 kcal/mol)

>  <smiles>  (66) 
Cc1ccc2cc(C(N)=O)n(C(=O)OCC(=O)N3CCNC(=O)C3)c2c1

>  <score_type>  (66) 
oracle

>  <origin>  (66) 
adg

>  <m_score__min__energy>  (66) 
-7.8099999999999996

>  <m_primary>  (66) 
energy

$$$$
69:0
     RDKit          3D

 36 37  0  0  0  0  0  0  0  0999 V2000
  141.4800  157.0300  134.7260 C   0  0  0  0  0  0  0  0  0  0  0  0
  141.5170  158.5620  134.7020 C   0  0  2  0  0  0  0  0  0  0  0  0
  140.5700  159.1350  133.6350 C   0  0  0  0  0  0  0  0  0  0  0  0
  141.2890  159.8850  132.6930 O   0  0  0  0  0  0  0  0  0  0  0  0
  142.8880  159.0480  134.5220 N   0  0  0  0  0  0  0  0  0  0  0  0
  143.7950  158.6600  133.4830 C   0  0  0  0  0  0  0  0  0  0  0  0
  143.4330  157.8490  132.5870 O   0  0  0  0  0  0  0  0  0  0  0  0
  145.1260  159.2000  133.4590 N   0  0  0  0  0  0  0  0  0  0  0  0
  145.5030  160.4900  133.6950 C   0  0  0  0  0  0  0  0  0  0  0  0
  144.5810  161.6320  133.8860 C   0  0  0  0  0  0  0  0  0  0  0  0
  143.1940  161.5130  133.5640 N   0  0  0  0  0  0  0  0  0  0  0  0
  145.0080  162.7170  134.3630 O   0  0  0  0  0  0  0  0  0  0  0  0
  146.8910  160.6090  133.6440 C   0  0  0  0  0  0  0  0  0  0  0  0
  147.3570  159.3440  133.3670 C   0  0  0  0  0  0  0  0  0  0  0  0
  148.6610  158.8840  133.2170 C   0  0  0  0  0  0  0  0  0  0  0  0
  148.8530  157.5160  132.9630 C   0  0  0  0  0  0  0  0  0  0  0  0
  147.7440  156.6370  132.8680 C   0  0  0  0  0  0  0  0  0  0  0  0
  147.9530  155.1720  132.6130 C   0  0  0  0  0  0  0  0  0  0  0  0
  147.4330  154.4370  133.6630 F   0  0  0  0  0  0  0  0  0  0  0  0
  149.3060  154.9070  132.4970 F   0  0  0  0  0  0  0  0  0  0  0  0
  146.4350  157.1410  133.0260 C   0  0  0  0  0  0  0  0  0  0  0  0
  146.2720  158.5120  133.2610 C   0  0  0  0  0  0  0  0  0  0  0  0
  141.4715  156.6797  135.7687 H   0  0  0  0  0  0  0  0  0  0  0  0
  140.5731  156.6771  134.2133 H   0  0  0  0  0  0  0  0  0  0  0  0
  142.3688  156.6337  134.2133 H   0  0  0  0  0  0  0  0  0  0  0  0
  141.1575  158.9215  135.6774 H   0  0  0  0  0  0  0  0  0  0  0  0
  140.0573  158.3070  133.1236 H   0  0  0  0  0  0  0  0  0  0  0  0
  139.8352  159.7901  134.1258 H   0  0  0  0  0  0  0  0  0  0  0  0
  142.1020  159.3600  132.4690 H   0  0  0  0  0  0  0  0  0  0  0  0
  142.5450  162.3130  133.7400 H   0  0  0  0  0  0  0  0  0  0  0  0
  142.8130  160.6530  133.1130 H   0  0  0  0  0  0  0  0  0  0  0  0
  147.4876  161.5210  133.7935 H   0  0  0  0  0  0  0  0  0  0  0  0
  149.5165  159.5711  133.2950 H   0  0  0  0  0  0  0  0  0  0  0  0
  149.8726  157.1229  132.8366 H   0  0  0  0  0  0  0  0  0  0  0  0
  147.4420  154.8930  131.6797 H   0  0  0  0  0  0  0  0  0  0  0  0
  145.5634  156.4726  132.9660 H   0  0  0  0  0  0  0  0  0  0  0  0
  1  2  1  0
  2  3  1  0
  3  4  1  0
  2  5  1  0
  5  6  1  0
  6  7  2  0
  6  8  1  0
  8  9  1  0
  9 10  1  0
 10 11  1  0
 10 12  2  0
  9 13  2  0
 13 14  1  0
 14 15  2  0
 15 16  1  0
 16 17  2  0
 17 18  1  0
 18 19  1  0
 18 20  1  0
 17 21  1  0
 21 22  2  0
 22  8  1  0
 22 14  1  0
  1 23  1  0
  1 24  1  0
  1 25  1  0
  2 26  1  1
  3 27  1  0
  3 28  1  0
  4 29  1  0
 11 30  1  0
 11 31  1  0
 13 32  1  0
 15 33  1  0
 16 34  1  0
 18 35  1  0
 21 36  1  0
M  CHG  1   5  -1
M  END
>  <UniqueID>  (67) 
67

>  <SMILES>  (67) 
C[C@H](CO)[N-]C(=O)n1c(C(N)=O)cc2ccc(C(F)F)cc21

>  <Energy>  (67) 
69.84214752315505

>  <Genealogy>  (67) 
CC(CO)[N-]C(=O)n1c(C(N)=O)cc2ccc(C(F)F)cc21 (protonated)
C[C@H](CO)[N-]C(=O)n1c(C(N)=O)cc2ccc(C(F)F)cc21 (chirality)
C[C@H](CO)[N-]C(=O)n1c(C(N)=O)cc2ccc(C(F)F)cc21 (3D coordinates assigned)
C[C@H](CO)[N-]C(=O)n1c(C(N)=O)cc2ccc(C(F)F)cc21 (optimized conformer: 69.84214752315505 kcal/mol)

>  <smiles>  (67) 
CC(CO)NC(=O)n1c(C(N)=O)cc2ccc(C(F)F)cc21

>  <score_type>  (67) 
oracle

>  <origin>  (67) 
adg

>  <m_score__min__energy>  (67) 
-6.3200000000000003

>  <m_primary>  (67) 
energy

$$$$
70:0
     RDKit          3D

 44 45  0  0  0  0  0  0  0  0999 V2000
  148.1610  156.2700  132.8520 C   0  0  0  0  0  0  0  0  0  0  0  0
  148.3090  157.7070  132.5960 N   0  0  0  0  0  0  0  0  0  0  0  0
  149.5240  158.1880  131.9260 C   0  0  0  0  0  0  0  0  0  0  0  0
  147.2690  158.6380  132.9980 C   0  0  0  0  0  0  0  0  0  0  0  0
  147.5900  159.9810  133.3530 C   0  0  0  0  0  0  0  0  0  0  0  0
  146.5870  160.8900  133.7300 C   0  0  0  0  0  0  0  0  0  0  0  0
  145.2730  160.4390  133.7600 C   0  0  0  0  0  0  0  0  0  0  0  0
  144.1100  161.1100  134.0610 C   0  0  0  0  0  0  0  0  0  0  0  0
  143.0900  160.1730  133.9090 C   0  0  0  0  0  0  0  0  0  0  0  0
  141.6620  160.4780  134.1500 C   0  0  0  0  0  0  0  0  0  0  0  0
  140.9640  159.9290  135.2640 N   0  0  0  0  0  0  0  0  0  0  0  0
  141.0460  161.2410  133.3580 O   0  0  0  0  0  0  0  0  0  0  0  0
  143.6070  158.9670  133.5380 N   0  0  0  0  0  0  0  0  0  0  0  0
  142.9020  157.7350  133.3040 C   0  0  0  0  0  0  0  0  0  0  0  0
  143.2060  157.0470  132.2930 O   0  0  0  0  0  0  0  0  0  0  0  0
  141.8190  157.3340  134.1880 N   0  0  1  0  0  0  0  0  0  0  0  0
  140.8120  156.4810  133.5010 C   0  0  0  0  0  0  0  0  0  0  0  0
  139.3680  157.0170  133.4860 C   0  0  0  0  0  0  0  0  0  0  0  0
  139.3400  158.4080  133.6290 O   0  0  0  0  0  0  0  0  0  0  0  0
  142.2210  156.8500  135.5420 C   0  0  0  0  0  0  0  0  0  0  0  0
  141.1540  156.9400  136.6030 C   0  0  0  0  0  0  0  0  0  0  0  0
  140.0410  157.4630  136.3330 O   0  0  0  0  0  0  0  0  0  0  0  0
  141.3820  156.4420  137.8790 O   0  0  0  0  0  0  0  0  0  0  0  0
  144.9420  159.1500  133.4440 C   0  0  0  0  0  0  0  0  0  0  0  0
  145.9120  158.2300  133.0410 C   0  0  0  0  0  0  0  0  0  0  0  0
  148.1425  156.0909  133.9372 H   0  0  0  0  0  0  0  0  0  0  0  0
  147.2213  155.9129  132.4054 H   0  0  0  0  0  0  0  0  0  0  0  0
  149.0082  155.7288  132.4054 H   0  0  0  0  0  0  0  0  0  0  0  0
  150.2673  158.4823  132.6816 H   0  0  0  0  0  0  0  0  0  0  0  0
  149.9380  157.3859  131.2973 H   0  0  0  0  0  0  0  0  0  0  0  0
  149.2768  159.0561  131.2973 H   0  0  0  0  0  0  0  0  0  0  0  0
  148.6392  160.3107  133.3314 H   0  0  0  0  0  0  0  0  0  0  0  0
  146.8349  161.9287  133.9938 H   0  0  0  0  0  0  0  0  0  0  0  0
  144.0072  162.1639  134.3588 H   0  0  0  0  0  0  0  0  0  0  0  0
  140.6320  158.9390  135.2560 H   0  0  0  0  0  0  0  0  0  0  0  0
  141.2900  158.2190  134.3790 H   0  0  0  0  0  0  0  0  0  0  0  0
  141.1346  156.3546  132.4570 H   0  0  0  0  0  0  0  0  0  0  0  0
  140.7741  155.5452  134.0779 H   0  0  0  0  0  0  0  0  0  0  0  0
  138.8951  156.7456  132.5306 H   0  0  0  0  0  0  0  0  0  0  0  0
  138.8234  156.5704  134.3310 H   0  0  0  0  0  0  0  0  0  0  0  0
  139.5030  158.5900  134.5900 H   0  0  0  0  0  0  0  0  0  0  0  0
  142.5207  155.7956  135.4505 H   0  0  0  0  0  0  0  0  0  0  0  0
  143.0341  157.5132  135.8723 H   0  0  0  0  0  0  0  0  0  0  0  0
  145.6277  157.2048  132.7613 H   0  0  0  0  0  0  0  0  0  0  0  0
  1  2  1  0
  2  3  1  0
  2  4  1  0
  4  5  2  0
  5  6  1  0
  6  7  2  0
  7  8  1  0
  8  9  2  0
  9 10  1  0
 10 11  1  0
 10 12  2  0
  9 13  1  0
 13 14  1  0
 14 15  2  0
 14 16  1  0
 16 17  1  0
 17 18  1  0
 18 19  1  0
 16 20  1  0
 20 21  1  0
 21 22  2  0
 21 23  1  0
 13 24  1  0
 24 25  2  0
 25  4  1  0
 24  7  1  0
  1 26  1  0
  1 27  1  0
  1 28  1  0
  3 29  1  0
  3 30  1  0
  3 31  1  0
  5 32  1  0
  6 33  1  0
  8 34  1  0
 11 35  1  0
 16 36  1  1
 17 37  1  0
 17 38  1  0
 18 39  1  0
 18 40  1  0
 19 41  1  0
 20 42  1  0
 20 43  1  0
 25 44  1  0
M  CHG  3  11  -1  16   1  23  -1
M  END
>  <UniqueID>  (68) 
68

>  <SMILES>  (68) 
CN(C)c1ccc2cc(C([NH-])=O)n(C(=O)[N@@H+](CCO)CC(=O)[O-])c2c1

>  <Energy>  (68) 
98.16357753015016

>  <Genealogy>  (68) 
CN(C)c1ccc2cc(C([NH-])=O)n(C(=O)[NH+](CCO)CC(=O)[O-])c2c1 (protonated)
CN(C)c1ccc2cc(C([NH-])=O)n(C(=O)[N@@H+](CCO)CC(=O)[O-])c2c1 (chirality)
CN(C)c1ccc2cc(C([NH-])=O)n(C(=O)[N@@H+](CCO)CC(=O)[O-])c2c1 (3D coordinates assigned)
CN(C)c1ccc2cc(C([NH-])=O)n(C(=O)[N@@H+](CCO)CC(=O)[O-])c2c1 (optimized conformer: 98.16357753015016 kcal/mol)

>  <smiles>  (68) 
CN(C)c1ccc2cc(C(N)=O)n(C(=O)N(CCO)CC(=O)O)c2c1

>  <score_type>  (68) 
oracle

>  <origin>  (68) 
adg

>  <m_score__min__energy>  (68) 
-5.0599999999999996

>  <m_primary>  (68) 
energy

$$$$
71:0
     RDKit          3D

 41 42  0  0  0  0  0  0  0  0999 V2000
  141.3490  159.9980  135.3940 N   0  0  0  0  0  0  0  0  0  0  0  0
  142.0210  160.3600  134.1910 C   0  0  0  0  0  0  0  0  0  0  0  0
  141.4360  161.1100  133.3630 O   0  0  0  0  0  0  0  0  0  0  0  0
  143.3720  159.8410  133.8790 C   0  0  0  0  0  0  0  0  0  0  0  0
  144.4220  160.6560  133.4610 C   0  0  0  0  0  0  0  0  0  0  0  0
  145.4790  159.8070  133.2420 C   0  0  0  0  0  0  0  0  0  0  0  0
  146.7850  160.0910  132.8590 C   0  0  0  0  0  0  0  0  0  0  0  0
  147.6950  159.0250  132.7740 C   0  0  0  0  0  0  0  0  0  0  0  0
  147.2860  157.7000  133.0710 C   0  0  0  0  0  0  0  0  0  0  0  0
  148.2870  156.5720  133.0520 C   0  0  0  0  0  0  0  0  0  0  0  0
  149.4940  157.0430  132.5710 F   0  0  0  0  0  0  0  0  0  0  0  0
  148.4750  156.0670  134.3280 F   0  0  0  0  0  0  0  0  0  0  0  0
  147.8470  155.5410  132.2400 F   0  0  0  0  0  0  0  0  0  0  0  0
  145.9560  157.4590  133.4860 C   0  0  0  0  0  0  0  0  0  0  0  0
  145.0610  158.5320  133.5270 C   0  0  0  0  0  0  0  0  0  0  0  0
  143.7620  158.5330  133.9070 N   0  0  0  0  0  0  0  0  0  0  0  0
  142.9830  157.4020  134.3450 C   0  0  0  0  0  0  0  0  0  0  0  0
  143.5900  156.3610  134.7250 O   0  0  0  0  0  0  0  0  0  0  0  0
  141.5330  157.4840  134.4470 N   0  0  0  0  0  0  0  0  0  0  0  0
  140.8760  157.2380  133.1350 C   0  0  0  0  0  0  0  0  0  0  0  0
  139.9340  158.3740  132.7100 C   0  0  0  0  0  0  0  0  0  0  0  0
  139.3810  158.9860  133.8430 O   0  0  0  0  0  0  0  0  0  0  0  0
  141.0400  156.4930  135.4370 C   0  0  0  0  0  0  0  0  0  0  0  0
  140.2400  157.1310  136.5890 C   0  0  0  0  0  0  0  0  0  0  0  0
  139.5310  158.2570  136.1500 O   0  0  0  0  0  0  0  0  0  0  0  0
  140.3130  160.0960  135.4820 H   0  0  0  0  0  0  0  0  0  0  0  0
  144.4074  161.7485  133.3334 H   0  0  0  0  0  0  0  0  0  0  0  0
  147.0963  161.1207  132.6293 H   0  0  0  0  0  0  0  0  0  0  0  0
  148.7353  159.2196  132.4741 H   0  0  0  0  0  0  0  0  0  0  0  0
  145.6320  156.4472  133.7709 H   0  0  0  0  0  0  0  0  0  0  0  0
  141.2560  158.4380  134.7690 H   0  0  0  0  0  0  0  0  0  0  0  0
  141.6567  157.1254  132.3683 H   0  0  0  0  0  0  0  0  0  0  0  0
  140.2664  156.3283  133.2391 H   0  0  0  0  0  0  0  0  0  0  0  0
  140.4998  159.1199  132.1325 H   0  0  0  0  0  0  0  0  0  0  0  0
  139.1243  157.9598  132.0913 H   0  0  0  0  0  0  0  0  0  0  0  0
  140.1240  159.4780  134.2800 H   0  0  0  0  0  0  0  0  0  0  0  0
  140.3906  155.7732  134.9172 H   0  0  0  0  0  0  0  0  0  0  0  0
  141.9221  156.0086  135.8811 H   0  0  0  0  0  0  0  0  0  0  0  0
  139.5289  156.3911  136.9851 H   0  0  0  0  0  0  0  0  0  0  0  0
  140.9464  157.4468  137.3709 H   0  0  0  0  0  0  0  0  0  0  0  0
  140.2070  158.9270  135.8700 H   0  0  0  0  0  0  0  0  0  0  0  0
  1  2  1  0
  2  3  2  0
  2  4  1  0
  4  5  2  0
  5  6  1  0
  6  7  2  0
  7  8  1  0
  8  9  2  0
  9 10  1  0
 10 11  1  0
 10 12  1  0
 10 13  1  0
  9 14  1  0
 14 15  2  0
 15 16  1  0
 16 17  1  0
 17 18  2  0
 17 19  1  0
 19 20  1  0
 20 21  1  0
 21 22  1  0
 19 23  1  0
 23 24  1  0
 24 25  1  0
 16  4  1  0
 15  6  1  0
  1 26  1  0
  5 27  1  0
  7 28  1  0
  8 29  1  0
 14 30  1  0
 19 31  1  0
 20 32  1  0
 20 33  1  0
 21 34  1  0
 21 35  1  0
 22 36  1  0
 23 37  1  0
 23 38  1  0
 24 39  1  0
 24 40  1  0
 25 41  1  0
M  CHG  2   1  -1  19   1
M  END
>  <UniqueID>  (69) 
69

>  <SMILES>  (69) 
[NH-]C(=O)c1cc2ccc(C(F)(F)F)cc2n1C(=O)[NH+](CCO)CCO

>  <Energy>  (69) 
82.71382119497298

>  <Genealogy>  (69) 
[NH-]C(=O)c1cc2ccc(C(F)(F)F)cc2n1C(=O)[NH+](CCO)CCO (protonated)
[NH-]C(=O)c1cc2ccc(C(F)(F)F)cc2n1C(=O)[NH+](CCO)CCO (3D coordinates assigned)
[NH-]C(=O)c1cc2ccc(C(F)(F)F)cc2n1C(=O)[NH+](CCO)CCO (optimized conformer: 82.71382119497298 kcal/mol)

>  <smiles>  (69) 
NC(=O)c1cc2ccc(C(F)(F)F)cc2n1C(=O)N(CCO)CCO

>  <score_type>  (69) 
oracle

>  <origin>  (69) 
adg

>  <m_score__min__energy>  (69) 
-3.9199999999999999

>  <m_primary>  (69) 
energy

$$$$
72:0
     RDKit          3D

 42 44  0  0  0  0  0  0  0  0999 V2000
  140.6550  158.4230  135.9430 C   0  0  0  0  0  0  0  0  0  0  0  0
  141.1540  158.3580  134.5650 N   0  0  0  0  0  0  0  0  0  0  0  0
  140.3000  157.7870  133.5230 C   0  0  0  0  0  0  0  0  0  0  0  0
  142.4730  158.8670  134.2390 C   0  0  0  0  0  0  0  0  0  0  0  0
  142.6790  160.2580  134.0140 C   0  0  0  0  0  0  0  0  0  0  0  0
  143.9520  160.7570  133.6850 C   0  0  0  0  0  0  0  0  0  0  0  0
  145.0050  159.8540  133.5960 C   0  0  0  0  0  0  0  0  0  0  0  0
  146.3310  160.0610  133.2810 C   0  0  0  0  0  0  0  0  0  0  0  0
  146.9200  158.7990  133.3270 C   0  0  0  0  0  0  0  0  0  0  0  0
  148.3540  158.5440  133.0830 C   0  0  0  0  0  0  0  0  0  0  0  0
  148.7590  157.8070  131.9320 N   0  0  0  0  0  0  0  0  0  0  0  0
  149.2280  158.9890  133.8720 O   0  0  0  0  0  0  0  0  0  0  0  0
  145.9970  157.8570  133.6620 N   0  0  0  0  0  0  0  0  0  0  0  0
  146.2050  156.4460  133.8070 C   0  0  0  0  0  0  0  0  0  0  0  0
  146.2920  155.9450  134.9590 O   0  0  0  0  0  0  0  0  0  0  0  0
  146.2680  155.5610  132.5980 C   0  0  0  0  0  0  0  0  0  0  0  0
  147.4930  154.7630  132.6080 N   0  0  0  0  0  0  0  0  0  0  0  0
  147.5980  153.4700  132.9810 C   0  0  0  0  0  0  0  0  0  0  0  0
  148.9200  153.0900  132.8320 C   0  0  0  0  0  0  0  0  0  0  0  0
  149.4990  151.7660  133.0930 C   0  0  0  0  0  0  0  0  0  0  0  0
  149.7370  151.3990  134.2760 O   0  0  0  0  0  0  0  0  0  0  0  0
  149.7810  150.9070  132.0400 O   0  0  0  0  0  0  0  0  0  0  0  0
  149.5800  154.2110  132.3640 C   0  0  0  0  0  0  0  0  0  0  0  0
  148.6850  155.2100  132.2450 N   0  0  0  0  0  0  0  0  0  0  0  0
  144.8320  158.5150  133.8200 C   0  0  0  0  0  0  0  0  0  0  0  0
  143.5770  157.9840  134.1320 C   0  0  0  0  0  0  0  0  0  0  0  0
  141.4963  158.3134  136.6432 H   0  0  0  0  0  0  0  0  0  0  0  0
  140.1633  159.3928  136.1095 H   0  0  0  0  0  0  0  0  0  0  0  0
  139.9313  157.6115  136.1095 H   0  0  0  0  0  0  0  0  0  0  0  0
  139.4721  157.2334  133.9900 H   0  0  0  0  0  0  0  0  0  0  0  0
  139.8938  158.5958  132.8978 H   0  0  0  0  0  0  0  0  0  0  0  0
  140.8922  157.1025  132.8978 H   0  0  0  0  0  0  0  0  0  0  0  0
  141.8300  160.9523  134.0988 H   0  0  0  0  0  0  0  0  0  0  0  0
  144.1098  161.8304  133.5034 H   0  0  0  0  0  0  0  0  0  0  0  0
  146.8195  161.0177  133.0441 H   0  0  0  0  0  0  0  0  0  0  0  0
  148.1170  157.1130  131.4840 H   0  0  0  0  0  0  0  0  0  0  0  0
  145.3980  154.8879  132.5969 H   0  0  0  0  0  0  0  0  0  0  0  0
  146.2625  156.1912  131.6964 H   0  0  0  0  0  0  0  0  0  0  0  0
  146.7775  152.8313  133.3400 H   0  0  0  0  0  0  0  0  0  0  0  0
  150.6527  154.2758  132.1291 H   0  0  0  0  0  0  0  0  0  0  0  0
  148.8850  156.1750  131.9060 H   0  0  0  0  0  0  0  0  0  0  0  0
  143.4487  156.9032  134.2912 H   0  0  0  0  0  0  0  0  0  0  0  0
  1  2  1  0
  2  3  1  0
  2  4  1  0
  4  5  2  0
  5  6  1  0
  6  7  2  0
  7  8  1  0
  8  9  2  0
  9 10  1  0
 10 11  1  0
 10 12  2  0
  9 13  1  0
 13 14  1  0
 14 15  2  0
 14 16  1  0
 16 17  1  0
 17 18  1  0
 18 19  2  0
 19 20  1  0
 20 21  2  0
 20 22  1  0
 19 23  1  0
 23 24  2  0
 13 25  1  0
 25 26  2  0
 26  4  1  0
 25  7  1  0
 24 17  1  0
  1 27  1  0
  1 28  1  0
  1 29  1  0
  3 30  1  0
  3 31  1  0
  3 32  1  0
  5 33  1  0
  6 34  1  0
  8 35  1  0
 11 36  1  0
 16 37  1  0
 16 38  1  0
 18 39  1  0
 23 40  1  0
 24 41  1  0
 26 42  1  0
M  CHG  3  11  -1  22  -1  24   1
M  END
>  <UniqueID>  (70) 
70

>  <SMILES>  (70) 
CN(C)c1ccc2cc(C([NH-])=O)n(C(=O)Cn3cc(C(=O)[O-])c[nH+]3)c2c1

>  <Energy>  (70) 
111.9967298342792

>  <Genealogy>  (70) 
CN(C)c1ccc2cc(C([NH-])=O)n(C(=O)Cn3cc(C(=O)[O-])c[nH+]3)c2c1 (protonated)
CN(C)c1ccc2cc(C([NH-])=O)n(C(=O)Cn3cc(C(=O)[O-])c[nH+]3)c2c1 (3D coordinates assigned)
CN(C)c1ccc2cc(C([NH-])=O)n(C(=O)Cn3cc(C(=O)[O-])c[nH+]3)c2c1 (optimized conformer: 111.9967298342792 kcal/mol)

>  <smiles>  (70) 
CN(C)c1ccc2cc(C(N)=O)n(C(=O)Cn3cc(C(=O)O)cn3)c2c1

>  <score_type>  (70) 
oracle

>  <origin>  (70) 
adg

>  <m_score__min__energy>  (70) 
-7.0099999999999998

>  <m_primary>  (70) 
energy

$$$$
73:0
     RDKit          3D

 42 43  0  0  0  0  0  0  0  0999 V2000
  142.4040  160.3260  133.9990 N   0  0  0  0  0  0  0  0  0  0  0  0
  143.7250  160.8020  133.7360 C   0  0  0  0  0  0  0  0  0  0  0  0
  143.9170  162.0420  133.6210 O   0  0  0  0  0  0  0  0  0  0  0  0
  144.8630  159.8620  133.6180 C   0  0  0  0  0  0  0  0  0  0  0  0
  146.2060  160.2420  133.6120 C   0  0  0  0  0  0  0  0  0  0  0  0
  146.9130  159.0760  133.4180 C   0  0  0  0  0  0  0  0  0  0  0  0
  148.2880  158.8590  133.3630 C   0  0  0  0  0  0  0  0  0  0  0  0
  148.7380  157.5370  133.2010 C   0  0  0  0  0  0  0  0  0  0  0  0
  147.8150  156.4660  133.0880 C   0  0  0  0  0  0  0  0  0  0  0  0
  148.3060  155.0500  132.9760 C   0  0  0  0  0  0  0  0  0  0  0  0
  147.3240  154.0890  133.6500 C   0  0  0  0  0  0  0  0  0  0  0  0
  147.0980  154.5250  135.4020 P   0  0  0  0  0  0  0  0  0  0  0  0
  148.0890  155.6010  135.7810 O   0  0  0  0  0  0  0  0  0  0  0  0
  147.3550  153.1600  136.3650 O   0  0  0  0  0  0  0  0  0  0  0  0
  145.5270  155.1020  135.6490 O   0  0  0  0  0  0  0  0  0  0  0  0
  146.4290  156.7270  133.1520 C   0  0  0  0  0  0  0  0  0  0  0  0
  146.0110  158.0520  133.3100 C   0  0  0  0  0  0  0  0  0  0  0  0
  144.7510  158.5170  133.4330 N   0  0  0  0  0  0  0  0  0  0  0  0
  143.5600  157.7180  133.4620 C   0  0  0  0  0  0  0  0  0  0  0  0
  142.7060  157.8370  132.5420 O   0  0  0  0  0  0  0  0  0  0  0  0
  143.3810  156.6610  134.5050 C   0  0  0  0  0  0  0  0  0  0  0  0
  142.1260  157.1720  135.6620 S   0  0  0  0  0  0  0  0  0  0  0  0
  142.3640  158.7750  136.1120 O   0  0  0  0  0  0  0  0  0  0  0  0
  140.4980  156.9770  134.9680 C   0  0  0  0  0  0  0  0  0  0  0  0
  140.0860  158.2300  134.2720 C   0  0  0  0  0  0  0  0  0  0  0  0
  139.5780  158.1780  133.1210 O   0  0  0  0  0  0  0  0  0  0  0  0
  140.2290  159.4580  134.9070 O   0  0  0  0  0  0  0  0  0  0  0  0
  141.6190  161.0040  134.1200 H   0  0  0  0  0  0  0  0  0  0  0  0
  142.1870  159.3060  134.0290 H   0  0  0  0  0  0  0  0  0  0  0  0
  146.6130  161.2564  133.7358 H   0  0  0  0  0  0  0  0  0  0  0  0
  148.9985  159.6949  133.4437 H   0  0  0  0  0  0  0  0  0  0  0  0
  149.8178  157.3310  133.1615 H   0  0  0  0  0  0  0  0  0  0  0  0
  148.4025  154.7830  131.9133 H   0  0  0  0  0  0  0  0  0  0  0  0
  149.2824  154.9707  133.4763 H   0  0  0  0  0  0  0  0  0  0  0  0
  146.3532  154.1452  133.1357 H   0  0  0  0  0  0  0  0  0  0  0  0
  147.7296  153.0683  133.5889 H   0  0  0  0  0  0  0  0  0  0  0  0
  145.6969  155.9092  133.0794 H   0  0  0  0  0  0  0  0  0  0  0  0
  143.0749  155.7201  134.0243 H   0  0  0  0  0  0  0  0  0  0  0  0
  144.3307  156.5090  135.0387 H   0  0  0  0  0  0  0  0  0  0  0  0
  141.5210  159.2350  135.8680 H   0  0  0  0  0  0  0  0  0  0  0  0
  140.5065  156.1461  134.2473 H   0  0  0  0  0  0  0  0  0  0  0  0
  139.7843  156.7623  135.7770 H   0  0  0  0  0  0  0  0  0  0  0  0
  1  2  1  0
  2  3  2  0
  2  4  1  0
  4  5  2  0
  5  6  1  0
  6  7  2  0
  7  8  1  0
  8  9  2  0
  9 10  1  0
 10 11  1  0
 11 12  1  0
 12 13  2  0
 12 14  1  0
 12 15  1  0
  9 16  1  0
 16 17  2  0
 17 18  1  0
 18 19  1  0
 19 20  2  0
 19 21  1  0
 21 22  1  0
 22 23  1  6
 22 24  1  0
 24 25  1  0
 25 26  2  0
 25 27  1  0
 18  4  1  0
 17  6  1  0
  1 28  1  0
  1 29  1  0
  5 30  1  0
  7 31  1  0
  8 32  1  0
 10 33  1  0
 10 34  1  0
 11 35  1  0
 11 36  1  0
 16 37  1  0
 21 38  1  0
 21 39  1  0
 23 40  1  0
 24 41  1  0
 24 42  1  0
M  CHG  4  14  -1  15  -1  22   1  27  -1
M  END
>  <UniqueID>  (71) 
71

>  <SMILES>  (71) 
NC(=O)c1cc2ccc(CCP(=O)([O-])[O-])cc2n1C(=O)C[S@@+](O)CC(=O)[O-]

>  <Energy>  (71) 
64.84810981601288

>  <Genealogy>  (71) 
NC(=O)c1cc2ccc(CCP(=O)([O-])[O-])cc2n1C(=O)C[S+](O)CC(=O)[O-] (protonated)
NC(=O)c1cc2ccc(CCP(=O)([O-])[O-])cc2n1C(=O)C[S@@+](O)CC(=O)[O-] (chirality)
NC(=O)c1cc2ccc(CCP(=O)([O-])[O-])cc2n1C(=O)C[S@@+](O)CC(=O)[O-] (3D coordinates assigned)
NC(=O)c1cc2ccc(CCP(=O)([O-])[O-])cc2n1C(=O)C[S@@+](O)CC(=O)[O-] (optimized conformer: 64.84810981601288 kcal/mol)

>  <smiles>  (71) 
NC(=O)c1cc2ccc(CCP(=O)(O)O)cc2n1C(=O)C[S+]([O-])CC(=O)O

>  <score_type>  (71) 
oracle

>  <origin>  (71) 
adg

>  <m_score__min__energy>  (71) 
-7.29

>  <m_primary>  (71) 
energy

$$$$
74:0
     RDKit          3D

 51 52  0  0  0  0  0  0  0  0999 V2000
  143.3320  158.9340  134.6220 C   0  0  0  0  0  0  0  0  0  0  0  0
  143.4510  159.8030  133.3660 C   0  0  2  0  0  0  0  0  0  0  0  0
  144.8580  160.1500  133.1160 N   0  0  0  0  0  0  0  0  0  0  0  0
  145.9270  159.1930  132.9710 C   0  0  0  0  0  0  0  0  0  0  0  0
  147.2130  159.6590  132.5980 C   0  0  0  0  0  0  0  0  0  0  0  0
  148.2910  158.7700  132.4520 C   0  0  0  0  0  0  0  0  0  0  0  0
  148.0560  157.4190  132.6840 C   0  0  0  0  0  0  0  0  0  0  0  0
  148.9210  156.3490  132.6330 C   0  0  0  0  0  0  0  0  0  0  0  0
  148.1540  155.2310  132.9690 C   0  0  0  0  0  0  0  0  0  0  0  0
  148.6580  153.8340  132.9600 C   0  0  0  0  0  0  0  0  0  0  0  0
  148.0990  152.8430  133.8220 N   0  0  0  0  0  0  0  0  0  0  0  0
  149.6110  153.5100  132.2020 O   0  0  0  0  0  0  0  0  0  0  0  0
  146.8640  155.6050  133.2150 N   0  0  0  0  0  0  0  0  0  0  0  0
  145.7590  154.7770  133.6050 C   0  0  0  0  0  0  0  0  0  0  0  0
  145.5060  153.7170  132.9670 O   0  0  0  0  0  0  0  0  0  0  0  0
  144.9770  155.1450  134.7050 O   0  0  0  0  0  0  0  0  0  0  0  0
  145.2750  154.7590  136.0440 C   0  0  0  0  0  0  0  0  0  0  0  0
  146.6760  154.2430  136.1500 C   0  0  0  0  0  0  0  0  0  0  0  0
  147.6270  154.9690  135.7500 O   0  0  0  0  0  0  0  0  0  0  0  0
  146.9120  152.9860  136.7350 O   0  0  0  0  0  0  0  0  0  0  0  0
  147.9980  152.6440  137.6080 C   0  0  0  0  0  0  0  0  0  0  0  0
  149.1030  152.0150  136.7390 C   0  0  0  0  0  0  0  0  0  0  0  0
  148.5660  153.9050  138.2950 C   0  0  0  0  0  0  0  0  0  0  0  0
  147.5380  151.6120  138.6570 C   0  0  0  0  0  0  0  0  0  0  0  0
  146.8220  156.9440  133.0300 C   0  0  0  0  0  0  0  0  0  0  0  0
  145.7310  157.8050  133.1930 C   0  0  0  0  0  0  0  0  0  0  0  0
  142.6310  161.0550  133.5280 C   0  0  0  0  0  0  0  0  0  0  0  0
  141.3890  160.9790  133.7210 O   0  0  0  0  0  0  0  0  0  0  0  0
  143.2350  162.3040  133.4510 O   0  0  0  0  0  0  0  0  0  0  0  0
  143.4189  159.5684  135.5164 H   0  0  0  0  0  0  0  0  0  0  0  0
  142.3560  158.4267  134.6257 H   0  0  0  0  0  0  0  0  0  0  0  0
  144.1357  158.1829  134.6257 H   0  0  0  0  0  0  0  0  0  0  0  0
  143.0708  159.2340  132.5047 H   0  0  0  0  0  0  0  0  0  0  0  0
  145.1090  161.1640  133.0640 H   0  0  0  0  0  0  0  0  0  0  0  0
  147.3691  160.7332  132.4202 H   0  0  0  0  0  0  0  0  0  0  0  0
  149.2892  159.1310  132.1633 H   0  0  0  0  0  0  0  0  0  0  0  0
  149.9915  156.3701  132.3806 H   0  0  0  0  0  0  0  0  0  0  0  0
  147.3220  153.0580  134.4860 H   0  0  0  0  0  0  0  0  0  0  0  0
  148.4860  151.8720  133.8130 H   0  0  0  0  0  0  0  0  0  0  0  0
  145.1612  155.6313  136.7044 H   0  0  0  0  0  0  0  0  0  0  0  0
  144.5815  153.9591  136.3426 H   0  0  0  0  0  0  0  0  0  0  0  0
  149.8746  151.5758  137.3883 H   0  0  0  0  0  0  0  0  0  0  0  0
  148.6675  151.2294  136.1040 H   0  0  0  0  0  0  0  0  0  0  0  0
  149.5561  152.7905  136.1040 H   0  0  0  0  0  0  0  0  0  0  0  0
  148.5114  153.7837  139.3869 H   0  0  0  0  0  0  0  0  0  0  0  0
  149.6145  154.0459  137.9937 H   0  0  0  0  0  0  0  0  0  0  0  0
  147.9767  154.7836  137.9937 H   0  0  0  0  0  0  0  0  0  0  0  0
  147.7159  152.0111  139.6665 H   0  0  0  0  0  0  0  0  0  0  0  0
  146.4646  151.4100  138.5265 H   0  0  0  0  0  0  0  0  0  0  0  0
  148.1053  150.6787  138.5265 H   0  0  0  0  0  0  0  0  0  0  0  0
  144.7450  157.4153  133.4862 H   0  0  0  0  0  0  0  0  0  0  0  0
  1  2  1  0
  2  3  1  0
  3  4  1  0
  4  5  2  0
  5  6  1  0
  6  7  2  0
  7  8  1  0
  8  9  2  0
  9 10  1  0
 10 11  1  0
 10 12  2  0
  9 13  1  0
 13 14  1  0
 14 15  2  0
 14 16  1  0
 16 17  1  0
 17 18  1  0
 18 19  2  0
 18 20  1  0
 20 21  1  0
 21 22  1  0
 21 23  1  0
 21 24  1  0
 13 25  1  0
 25 26  2  0
  2 27  1  0
 27 28  2  0
 27 29  1  0
 26  4  1  0
 25  7  1  0
  1 30  1  0
  1 31  1  0
  1 32  1  0
  2 33  1  6
  3 34  1  0
  5 35  1  0
  6 36  1  0
  8 37  1  0
 11 38  1  0
 11 39  1  0
 17 40  1  0
 17 41  1  0
 22 42  1  0
 22 43  1  0
 22 44  1  0
 23 45  1  0
 23 46  1  0
 23 47  1  0
 24 48  1  0
 24 49  1  0
 24 50  1  0
 26 51  1  0
M  CHG  1  29  -1
M  END
>  <UniqueID>  (72) 
72

>  <SMILES>  (72) 
C[C@H](Nc1ccc2cc(C(N)=O)n(C(=O)OCC(=O)OC(C)(C)C)c2c1)C(=O)[O-]

>  <Energy>  (72) 
79.93455903053867

>  <Genealogy>  (72) 
CC(Nc1ccc2cc(C(N)=O)n(C(=O)OCC(=O)OC(C)(C)C)c2c1)C(=O)[O-] (protonated)
C[C@H](Nc1ccc2cc(C(N)=O)n(C(=O)OCC(=O)OC(C)(C)C)c2c1)C(=O)[O-] (chirality)
C[C@H](Nc1ccc2cc(C(N)=O)n(C(=O)OCC(=O)OC(C)(C)C)c2c1)C(=O)[O-] (3D coordinates assigned)
C[C@H](Nc1ccc2cc(C(N)=O)n(C(=O)OCC(=O)OC(C)(C)C)c2c1)C(=O)[O-] (optimized conformer: 79.93455903053867 kcal/mol)

>  <smiles>  (72) 
CC(Nc1ccc2cc(C(N)=O)n(C(=O)OCC(=O)OC(C)(C)C)c2c1)C(=O)O

>  <score_type>  (72) 
oracle

>  <origin>  (72) 
adg

>  <m_score__min__energy>  (72) 
-7.5800000000000001

>  <m_primary>  (72) 
energy

$$$$
75:0
     RDKit          3D

 42 43  0  0  0  0  0  0  0  0999 V2000
  142.9380  156.2520  134.3020 N   0  0  0  0  0  0  0  0  0  0  0  0
  144.2720  155.9990  134.7370 C   0  0  0  0  0  0  0  0  0  0  0  0
  144.4690  155.1710  135.6660 O   0  0  0  0  0  0  0  0  0  0  0  0
  145.4040  156.6980  134.0930 C   0  0  0  0  0  0  0  0  0  0  0  0
  146.7100  156.2100  134.0720 C   0  0  0  0  0  0  0  0  0  0  0  0
  147.4410  157.1530  133.3850 C   0  0  0  0  0  0  0  0  0  0  0  0
  148.7860  157.1620  133.0330 C   0  0  0  0  0  0  0  0  0  0  0  0
  149.2620  158.2470  132.2770 C   0  0  0  0  0  0  0  0  0  0  0  0
  148.3940  159.3030  131.8950 C   0  0  0  0  0  0  0  0  0  0  0  0
  148.9020  160.4280  131.0310 C   0  0  0  0  0  0  0  0  0  0  0  0
  148.4260  160.3030  129.7370 F   0  0  0  0  0  0  0  0  0  0  0  0
  148.4880  161.6520  131.5280 F   0  0  0  0  0  0  0  0  0  0  0  0
  150.2840  160.3960  131.0080 F   0  0  0  0  0  0  0  0  0  0  0  0
  147.0270  159.2420  132.2510 C   0  0  0  0  0  0  0  0  0  0  0  0
  146.5870  158.1610  133.0210 C   0  0  0  0  0  0  0  0  0  0  0  0
  145.3360  157.9010  133.4570 N   0  0  0  0  0  0  0  0  0  0  0  0
  144.1710  158.7130  133.2530 C   0  0  0  0  0  0  0  0  0  0  0  0
  143.1860  158.2290  132.6340 O   0  0  0  0  0  0  0  0  0  0  0  0
  144.1290  160.1080  133.7410 C   0  0  0  0  0  0  0  0  0  0  0  0
  145.0820  160.5490  134.4350 O   0  0  0  0  0  0  0  0  0  0  0  0
  143.0380  160.9840  133.4370 N   0  0  0  0  0  0  0  0  0  0  0  0
  141.7230  160.9290  134.0710 C   0  0  0  0  0  0  0  0  0  0  0  0
  141.0260  159.6600  133.6960 C   0  0  0  0  0  0  0  0  0  0  0  0
  140.5980  158.8910  134.5980 O   0  0  0  0  0  0  0  0  0  0  0  0
  140.8510  159.3230  132.3150 N   0  0  0  0  0  0  0  0  0  0  0  0
  139.7110  158.5670  131.8010 C   0  0  1  0  0  0  0  0  0  0  0  0
  139.4120  157.3530  132.6940 C   0  0  0  0  0  0  0  0  0  0  0  0
  140.5910  156.6690  133.0290 O   0  0  0  0  0  0  0  0  0  0  0  0
  138.5120  159.4660  131.7130 C   0  0  0  0  0  0  0  0  0  0  0  0
  137.3540  158.9840  131.8210 O   0  0  0  0  0  0  0  0  0  0  0  0
  138.6700  160.8390  131.5630 O   0  0  0  0  0  0  0  0  0  0  0  0
  142.6920  156.2360  133.2880 H   0  0  0  0  0  0  0  0  0  0  0  0
  147.0781  155.2710  134.5111 H   0  0  0  0  0  0  0  0  0  0  0  0
  149.4570  156.3450  133.3369 H   0  0  0  0  0  0  0  0  0  0  0  0
  150.3200  158.2781  131.9777 H   0  0  0  0  0  0  0  0  0  0  0  0
  146.3261  160.0266  131.9298 H   0  0  0  0  0  0  0  0  0  0  0  0
  141.8436  160.9690  135.1636 H   0  0  0  0  0  0  0  0  0  0  0  0
  141.1221  161.7849  133.7300 H   0  0  0  0  0  0  0  0  0  0  0  0
  139.9560  158.1923  130.7962 H   0  0  0  0  0  0  0  0  0  0  0  0
  138.9222  157.6977  133.6166 H   0  0  0  0  0  0  0  0  0  0  0  0
  138.7549  156.6659  132.1407 H   0  0  0  0  0  0  0  0  0  0  0  0
  141.2760  157.3600  133.2260 H   0  0  0  0  0  0  0  0  0  0  0  0
  1  2  1  0
  2  3  2  0
  2  4  1  0
  4  5  2  0
  5  6  1  0
  6  7  2  0
  7  8  1  0
  8  9  2  0
  9 10  1  0
 10 11  1  0
 10 12  1  0
 10 13  1  0
  9 14  1  0
 14 15  2  0
 15 16  1  0
 16 17  1  0
 17 18  2  0
 17 19  1  0
 19 20  2  0
 19 21  1  0
 21 22  1  0
 22 23  1  0
 23 24  2  0
 23 25  1  0
 25 26  1  0
 26 27  1  0
 27 28  1  0
 26 29  1  0
 29 30  2  0
 29 31  1  0
 16  4  1  0
 15  6  1  0
  1 32  1  0
  5 33  1  0
  7 34  1  0
  8 35  1  0
 14 36  1  0
 22 37  1  0
 22 38  1  0
 26 39  1  6
 27 40  1  0
 27 41  1  0
 28 42  1  0
M  CHG  4   1  -1  21  -1  25  -1  31  -1
M  END
>  <UniqueID>  (73) 
73

>  <SMILES>  (73) 
[NH-]C(=O)c1cc2ccc(C(F)(F)F)cc2n1C(=O)C(=O)[N-]CC(=O)[N-][C@@H](CO)C(=O)[O-]

>  <Energy>  (73) 
79.53472409890522

>  <Genealogy>  (73) 
[NH-]C(=O)c1cc2ccc(C(F)(F)F)cc2n1C(=O)C(=O)[N-]CC(=O)[N-][C@@H](CO)C(=O)[O-] (protonated)
[NH-]C(=O)c1cc2ccc(C(F)(F)F)cc2n1C(=O)C(=O)[N-]CC(=O)[N-][C@@H](CO)C(=O)[O-] (3D coordinates assigned)
[NH-]C(=O)c1cc2ccc(C(F)(F)F)cc2n1C(=O)C(=O)[N-]CC(=O)[N-][C@@H](CO)C(=O)[O-] (optimized conformer: 79.53472409890522 kcal/mol)

>  <smiles>  (73) 
NC(=O)c1cc2ccc(C(F)(F)F)cc2n1C(=O)C(=O)NCC(=O)N[C@@H](CO)C(=O)O

>  <score_type>  (73) 
oracle

>  <origin>  (73) 
adg

>  <m_score__min__energy>  (73) 
-6.6900000000000004

>  <m_primary>  (73) 
energy

$$$$
76:0
     RDKit          3D

 36 37  0  0  0  0  0  0  0  0999 V2000
  149.1780  157.5060  131.8900 N   0  0  0  0  0  0  0  0  0  0  0  0
  148.7340  158.7320  132.4770 C   0  0  0  0  0  0  0  0  0  0  0  0
  149.5650  159.6610  132.6600 O   0  0  0  0  0  0  0  0  0  0  0  0
  147.3160  158.9480  132.8320 C   0  0  0  0  0  0  0  0  0  0  0  0
  146.7660  160.2020  133.0850 C   0  0  0  0  0  0  0  0  0  0  0  0
  145.4400  159.9660  133.3750 C   0  0  0  0  0  0  0  0  0  0  0  0
  144.4330  160.8500  133.7530 C   0  0  0  0  0  0  0  0  0  0  0  0
  143.1710  160.3140  134.0630 C   0  0  0  0  0  0  0  0  0  0  0  0
  142.9410  158.9180  133.9870 C   0  0  0  0  0  0  0  0  0  0  0  0
  141.6080  158.3520  134.3820 C   0  0  0  0  0  0  0  0  0  0  0  0
  141.3160  158.5950  136.4830 I   0  0  0  0  0  0  0  0  0  0  0  0
  143.9890  158.0520  133.6110 C   0  0  0  0  0  0  0  0  0  0  0  0
  145.2300  158.6150  133.2950 C   0  0  0  0  0  0  0  0  0  0  0  0
  146.3700  157.9760  132.9650 N   0  0  0  0  0  0  0  0  0  0  0  0
  146.5620  156.5550  132.9730 C   0  0  0  0  0  0  0  0  0  0  0  0
  146.6180  155.9250  131.8840 O   0  0  0  0  0  0  0  0  0  0  0  0
  146.5530  155.8010  134.2660 C   0  0  0  0  0  0  0  0  0  0  0  0
  147.7350  155.0240  134.3400 O   0  0  0  0  0  0  0  0  0  0  0  0
  147.6460  153.8550  133.5480 C   0  0  0  0  0  0  0  0  0  0  0  0
  148.8900  153.6860  132.6730 C   0  0  0  0  0  0  0  0  0  0  0  0
  149.3820  154.9430  132.3000 O   0  0  0  0  0  0  0  0  0  0  0  0
  148.4990  156.7900  131.5530 H   0  0  0  0  0  0  0  0  0  0  0  0
  150.1930  157.3550  131.7040 H   0  0  0  0  0  0  0  0  0  0  0  0
  147.2806  161.1739  133.0589 H   0  0  0  0  0  0  0  0  0  0  0  0
  144.6189  161.9328  133.8073 H   0  0  0  0  0  0  0  0  0  0  0  0
  142.3542  160.9848  134.3675 H   0  0  0  0  0  0  0  0  0  0  0  0
  140.8109  158.8806  133.8386 H   0  0  0  0  0  0  0  0  0  0  0  0
  141.5786  157.2812  134.1319 H   0  0  0  0  0  0  0  0  0  0  0  0
  143.8347  156.9638  133.5674 H   0  0  0  0  0  0  0  0  0  0  0  0
  146.5202  156.5081  135.1080 H   0  0  0  0  0  0  0  0  0  0  0  0
  145.6687  155.1487  134.3164 H   0  0  0  0  0  0  0  0  0  0  0  0
  147.5496  152.9804  134.2081 H   0  0  0  0  0  0  0  0  0  0  0  0
  146.7672  153.9434  132.8923 H   0  0  0  0  0  0  0  0  0  0  0  0
  149.6629  153.1443  133.2379 H   0  0  0  0  0  0  0  0  0  0  0  0
  148.6241  153.1174  131.7697 H   0  0  0  0  0  0  0  0  0  0  0  0
  148.6430  155.5860  132.4550 H   0  0  0  0  0  0  0  0  0  0  0  0
  1  2  1  0
  2  3  2  0
  2  4  1  0
  4  5  2  0
  5  6  1  0
  6  7  2  0
  7  8  1  0
  8  9  2  0
  9 10  1  0
 10 11  1  0
  9 12  1  0
 12 13  2  0
 13 14  1  0
 14 15  1  0
 15 16  2  0
 15 17  1  0
 17 18  1  0
 18 19  1  0
 19 20  1  0
 20 21  1  0
 14  4  1  0
 13  6  1  0
  1 22  1  0
  1 23  1  0
  5 24  1  0
  7 25  1  0
  8 26  1  0
 10 27  1  0
 10 28  1  0
 12 29  1  0
 17 30  1  0
 17 31  1  0
 19 32  1  0
 19 33  1  0
 20 34  1  0
 20 35  1  0
 21 36  1  0
M  END
>  <UniqueID>  (74) 
74

>  <SMILES>  (74) 
NC(=O)c1cc2ccc(CI)cc2n1C(=O)COCCO

>  <Energy>  (74) 
73.26687631380513

>  <Genealogy>  (74) 
NC(=O)c1cc2ccc(CI)cc2n1C(=O)COCCO (3D coordinates assigned)
NC(=O)c1cc2ccc(CI)cc2n1C(=O)COCCO (optimized conformer: 73.26687631380513 kcal/mol)

>  <smiles>  (74) 
NC(=O)c1cc2ccc(CI)cc2n1C(=O)COCCO

>  <score_type>  (74) 
oracle

>  <origin>  (74) 
adg

>  <m_score__min__energy>  (74) 
-6.7699999999999996

>  <m_primary>  (74) 
energy

$$$$
77:0
     RDKit          3D

 43 44  0  0  0  0  0  0  0  0999 V2000
  146.9800  160.8990  133.3360 N   0  0  0  0  0  0  0  0  0  0  0  0
  145.8300  160.0570  133.3950 C   0  0  0  0  0  0  0  0  0  0  0  0
  144.6820  160.5760  133.3550 O   0  0  0  0  0  0  0  0  0  0  0  0
  145.9620  158.5880  133.4180 C   0  0  0  0  0  0  0  0  0  0  0  0
  144.8700  157.7260  133.4600 C   0  0  0  0  0  0  0  0  0  0  0  0
  145.4050  156.4610  133.3790 C   0  0  0  0  0  0  0  0  0  0  0  0
  144.7710  155.2230  133.3800 C   0  0  0  0  0  0  0  0  0  0  0  0
  145.5700  154.0700  133.3020 C   0  0  0  0  0  0  0  0  0  0  0  0
  146.9860  154.1730  133.2310 C   0  0  0  0  0  0  0  0  0  0  0  0
  147.8270  153.0060  133.1380 N   0  0  0  0  0  0  0  0  0  0  0  0
  148.9670  152.8780  132.2320 C   0  0  0  0  0  0  0  0  0  0  0  0
  149.5350  151.4980  132.3080 C   0  0  0  0  0  0  0  0  0  0  0  0
  150.2780  151.0730  131.3820 O   0  0  0  0  0  0  0  0  0  0  0  0
  149.2330  150.6940  133.4130 O   0  0  0  0  0  0  0  0  0  0  0  0
  150.1460  150.4350  134.4780 C   0  0  0  0  0  0  0  0  0  0  0  0
  149.6270  151.0180  135.7940 C   0  0  0  0  0  0  0  0  0  0  0  0
  148.8790  152.1820  135.5660 O   0  0  0  0  0  0  0  0  0  0  0  0
  147.5900  155.4490  133.2430 C   0  0  0  0  0  0  0  0  0  0  0  0
  146.7690  156.5830  133.3000 C   0  0  0  0  0  0  0  0  0  0  0  0
  147.1290  157.8880  133.3290 N   0  0  0  0  0  0  0  0  0  0  0  0
  148.4660  158.4190  133.3900 C   0  0  0  0  0  0  0  0  0  0  0  0
  148.8680  159.0060  134.4290 O   0  0  0  0  0  0  0  0  0  0  0  0
  149.3150  158.2910  132.2820 O   0  0  0  0  0  0  0  0  0  0  0  0
  148.9620  158.7150  130.9670 C   0  0  0  0  0  0  0  0  0  0  0  0
  149.3920  160.1290  130.7230 C   0  0  0  0  0  0  0  0  0  0  0  0
  150.3110  160.3770  129.8990 O   0  0  0  0  0  0  0  0  0  0  0  0
  148.8160  161.1670  131.4450 O   0  0  0  0  0  0  0  0  0  0  0  0
  147.9300  160.4950  133.1850 H   0  0  0  0  0  0  0  0  0  0  0  0
  146.8740  161.9360  133.3330 H   0  0  0  0  0  0  0  0  0  0  0  0
  143.8072  157.9978  133.5407 H   0  0  0  0  0  0  0  0  0  0  0  0
  143.6752  155.1488  133.4402 H   0  0  0  0  0  0  0  0  0  0  0  0
  145.0952  153.0778  133.2958 H   0  0  0  0  0  0  0  0  0  0  0  0
  147.6180  152.1910  133.7590 H   0  0  0  0  0  0  0  0  0  0  0  0
  148.6368  153.0787  131.2021 H   0  0  0  0  0  0  0  0  0  0  0  0
  149.7417  153.6014  132.5260 H   0  0  0  0  0  0  0  0  0  0  0  0
  150.2704  149.3478  134.5897 H   0  0  0  0  0  0  0  0  0  0  0  0
  151.1095  150.9087  134.2388 H   0  0  0  0  0  0  0  0  0  0  0  0
  148.9897  150.2722  136.2916 H   0  0  0  0  0  0  0  0  0  0  0  0
  150.4883  151.2729  136.4290 H   0  0  0  0  0  0  0  0  0  0  0  0
  148.2280  151.9640  134.8480 H   0  0  0  0  0  0  0  0  0  0  0  0
  148.6847  155.5510  133.2082 H   0  0  0  0  0  0  0  0  0  0  0  0
  149.4533  158.0584  130.2338 H   0  0  0  0  0  0  0  0  0  0  0  0
  147.8683  158.6595  130.8637 H   0  0  0  0  0  0  0  0  0  0  0  0
  1  2  1  0
  2  3  2  0
  2  4  1  0
  4  5  2  0
  5  6  1  0
  6  7  2  0
  7  8  1  0
  8  9  2  0
  9 10  1  0
 10 11  1  0
 11 12  1  0
 12 13  2  0
 12 14  1  0
 14 15  1  0
 15 16  1  0
 16 17  1  0
  9 18  1  0
 18 19  2  0
 19 20  1  0
 20 21  1  0
 21 22  2  0
 21 23  1  0
 23 24  1  0
 24 25  1  0
 25 26  2  0
 25 27  1  0
 20  4  1  0
 19  6  1  0
  1 28  1  0
  1 29  1  0
  5 30  1  0
  7 31  1  0
  8 32  1  0
 10 33  1  0
 11 34  1  0
 11 35  1  0
 15 36  1  0
 15 37  1  0
 16 38  1  0
 16 39  1  0
 17 40  1  0
 18 41  1  0
 24 42  1  0
 24 43  1  0
M  CHG  1  27  -1
M  END
>  <UniqueID>  (75) 
75

>  <SMILES>  (75) 
NC(=O)c1cc2ccc(NCC(=O)OCCO)cc2n1C(=O)OCC(=O)[O-]

>  <Energy>  (75) 
75.89825459056175

>  <Genealogy>  (75) 
NC(=O)c1cc2ccc(NCC(=O)OCCO)cc2n1C(=O)OCC(=O)[O-] (protonated)
NC(=O)c1cc2ccc(NCC(=O)OCCO)cc2n1C(=O)OCC(=O)[O-] (3D coordinates assigned)
NC(=O)c1cc2ccc(NCC(=O)OCCO)cc2n1C(=O)OCC(=O)[O-] (optimized conformer: 75.89825459056175 kcal/mol)

>  <smiles>  (75) 
NC(=O)c1cc2ccc(NCC(=O)OCCO)cc2n1C(=O)OCC(=O)O

>  <score_type>  (75) 
oracle

>  <origin>  (75) 
adg

>  <m_score__min__energy>  (75) 
-6.6100000000000003

>  <m_primary>  (75) 
energy

$$$$
78:0
     RDKit          3D

 43 45  0  0  0  0  0  0  0  0999 V2000
  137.7840  159.6840  131.2000 N   0  0  0  0  0  0  0  0  0  0  0  0
  138.8690  159.4260  131.5090 C   0  0  0  0  0  0  0  0  0  0  0  0
  140.2500  159.0980  131.9030 C   0  0  0  0  0  0  0  0  0  0  0  0
  140.3590  158.1360  133.1190 C   0  0  0  0  0  0  0  0  0  0  0  0
  141.5220  157.1250  132.9900 C   0  0  0  0  0  0  0  0  0  0  0  0
  142.7720  157.7950  132.8300 O   0  0  0  0  0  0  0  0  0  0  0  0
  143.8390  157.6840  133.7260 C   0  0  0  0  0  0  0  0  0  0  0  0
  143.7400  156.9630  134.7560 O   0  0  0  0  0  0  0  0  0  0  0  0
  145.0440  158.4270  133.4890 N   0  0  0  0  0  0  0  0  0  0  0  0
  145.1910  159.7800  133.4110 C   0  0  0  0  0  0  0  0  0  0  0  0
  144.1490  160.7840  133.7130 C   0  0  0  0  0  0  0  0  0  0  0  0
  142.7860  160.5520  133.3700 N   0  0  0  0  0  0  0  0  0  0  0  0
  144.4600  161.8400  134.3270 O   0  0  0  0  0  0  0  0  0  0  0  0
  146.5060  160.1100  133.0900 C   0  0  0  0  0  0  0  0  0  0  0  0
  147.1690  158.9090  132.9840 C   0  0  0  0  0  0  0  0  0  0  0  0
  148.5020  158.6440  132.6780 C   0  0  0  0  0  0  0  0  0  0  0  0
  148.9080  157.3000  132.6150 C   0  0  0  0  0  0  0  0  0  0  0  0
  147.9800  156.2600  132.8510 C   0  0  0  0  0  0  0  0  0  0  0  0
  148.4050  154.8870  132.7730 C   0  0  0  0  0  0  0  0  0  0  0  0
  148.7620  153.7380  132.7080 C   0  0  0  0  0  0  0  0  0  0  0  0
  149.1970  152.3390  132.6270 C   0  0  0  0  0  0  0  0  0  0  0  0
  149.9610  152.1400  131.4710 O   0  0  0  0  0  0  0  0  0  0  0  0
  146.6370  156.5600  133.1580 C   0  0  0  0  0  0  0  0  0  0  0  0
  146.2640  157.9080  133.2310 C   0  0  0  0  0  0  0  0  0  0  0  0
  140.3260  158.8180  134.4800 C   0  0  0  0  0  0  0  0  0  0  0  0
  139.0930  158.2290  134.8210 O   0  0  0  0  0  0  0  0  0  0  0  0
  139.0460  157.5330  133.5960 C   0  0  0  0  0  0  0  0  0  0  0  0
  140.7498  158.6255  131.0445 H   0  0  0  0  0  0  0  0  0  0  0  0
  140.7229  160.0435  132.2071 H   0  0  0  0  0  0  0  0  0  0  0  0
  141.5608  156.5048  133.8976 H   0  0  0  0  0  0  0  0  0  0  0  0
  141.3446  156.5010  132.1016 H   0  0  0  0  0  0  0  0  0  0  0  0
  142.5300  159.9250  132.5740 H   0  0  0  0  0  0  0  0  0  0  0  0
  146.9254  161.1174  132.9508 H   0  0  0  0  0  0  0  0  0  0  0  0
  149.2144  159.4611  132.4915 H   0  0  0  0  0  0  0  0  0  0  0  0
  149.9546  157.0557  132.3806 H   0  0  0  0  0  0  0  0  0  0  0  0
  149.8042  152.0948  133.5111 H   0  0  0  0  0  0  0  0  0  0  0  0
  148.3113  151.6876  132.5903 H   0  0  0  0  0  0  0  0  0  0  0  0
  150.7050  152.7980  131.5040 H   0  0  0  0  0  0  0  0  0  0  0  0
  145.9040  155.7592  133.3349 H   0  0  0  0  0  0  0  0  0  0  0  0
  141.1526  158.5177  135.1407 H   0  0  0  0  0  0  0  0  0  0  0  0
  140.4243  159.9125  134.5291 H   0  0  0  0  0  0  0  0  0  0  0  0
  139.0823  156.4397  133.7115 H   0  0  0  0  0  0  0  0  0  0  0  0
  138.1531  157.6328  132.9613 H   0  0  0  0  0  0  0  0  0  0  0  0
  1  2  3  0
  2  3  1  0
  3  4  1  0
  4  5  1  0
  5  6  1  0
  6  7  1  0
  7  8  2  0
  7  9  1  0
  9 10  1  0
 10 11  1  0
 11 12  1  0
 11 13  2  0
 10 14  2  0
 14 15  1  0
 15 16  2  0
 16 17  1  0
 17 18  2  0
 18 19  1  0
 19 20  3  0
 20 21  1  0
 21 22  1  0
 18 23  1  0
 23 24  2  0
  4 25  1  0
 25 26  1  0
 26 27  1  0
 27  4  1  0
 24  9  1  0
 24 15  1  0
  3 28  1  0
  3 29  1  0
  5 30  1  0
  5 31  1  0
 12 32  1  0
 14 33  1  0
 16 34  1  0
 17 35  1  0
 21 36  1  0
 21 37  1  0
 22 38  1  0
 23 39  1  0
 25 40  1  0
 25 41  1  0
 27 42  1  0
 27 43  1  0
M  CHG  1  12  -1
M  END
>  <UniqueID>  (76) 
76

>  <SMILES>  (76) 
N#CCC1(COC(=O)n2c(C([NH-])=O)cc3ccc(C#CCO)cc32)COC1

>  <Energy>  (76) 
142.27094258123824

>  <Genealogy>  (76) 
N#CCC1(COC(=O)n2c(C([NH-])=O)cc3ccc(C#CCO)cc32)COC1 (protonated)
N#CCC1(COC(=O)n2c(C([NH-])=O)cc3ccc(C#CCO)cc32)COC1 (3D coordinates assigned)
N#CCC1(COC(=O)n2c(C([NH-])=O)cc3ccc(C#CCO)cc32)COC1 (nonaromatic ring conformer: 142.27094258123824 kcal/mol)

>  <smiles>  (76) 
N#CCC1(COC(=O)n2c(C(N)=O)cc3ccc(C#CCO)cc32)COC1

>  <score_type>  (76) 
oracle

>  <origin>  (76) 
adg

>  <m_score__min__energy>  (76) 
-8.4900000000000002

>  <m_primary>  (76) 
energy

$$$$
79:0
     RDKit          3D

 50 51  0  0  0  0  0  0  0  0999 V2000
  142.4680  159.9590  134.1240 C   0  0  0  0  0  0  0  0  0  0  0  0
  142.3040  158.7910  134.9940 N   0  0  0  0  0  0  0  0  0  0  0  0
  141.6440  158.9370  136.2960 C   0  0  0  0  0  0  0  0  0  0  0  0
  142.7730  157.4850  134.5920 C   0  0  0  0  0  0  0  0  0  0  0  0
  142.5780  156.4970  135.3500 O   0  0  0  0  0  0  0  0  0  0  0  0
  143.5080  157.2500  133.2900 C   0  0  0  0  0  0  0  0  0  0  0  0
  144.3200  156.0180  133.3060 N   0  0  0  0  0  0  0  0  0  0  0  0
  144.1910  155.1110  132.1490 C   0  0  0  0  0  0  0  0  0  0  0  0
  143.8640  153.6700  132.5620 C   0  0  0  0  0  0  0  0  0  0  0  0
  142.9490  153.6110  133.7930 C   0  0  0  0  0  0  0  0  0  0  0  0
  143.7210  153.6840  135.0310 N   0  0  0  0  0  0  0  0  0  0  0  0
  145.5270  155.9600  134.1000 C   0  0  0  0  0  0  0  0  0  0  0  0
  145.4820  155.5880  135.3030 O   0  0  0  0  0  0  0  0  0  0  0  0
  146.7910  156.3510  133.5450 N   0  0  0  0  0  0  0  0  0  0  0  0
  147.7970  155.5400  133.1190 C   0  0  0  0  0  0  0  0  0  0  0  0
  147.7850  154.0610  133.1980 C   0  0  0  0  0  0  0  0  0  0  0  0
  146.6470  153.3600  133.7050 N   0  0  0  0  0  0  0  0  0  0  0  0
  148.7840  153.4030  132.8070 O   0  0  0  0  0  0  0  0  0  0  0  0
  148.8660  156.3020  132.6470 C   0  0  0  0  0  0  0  0  0  0  0  0
  148.4860  157.6140  132.8270 C   0  0  0  0  0  0  0  0  0  0  0  0
  149.1710  158.7950  132.5540 C   0  0  0  0  0  0  0  0  0  0  0  0
  148.5350  160.0110  132.8620 C   0  0  0  0  0  0  0  0  0  0  0  0
  147.2400  160.0210  133.4360 C   0  0  0  0  0  0  0  0  0  0  0  0
  146.6020  161.2640  133.7440 N   0  0  0  0  0  0  0  0  0  0  0  0
  146.5770  158.8040  133.7030 C   0  0  0  0  0  0  0  0  0  0  0  0
  147.2330  157.6140  133.3800 C   0  0  0  0  0  0  0  0  0  0  0  0
  142.5946  160.8609  134.7409 H   0  0  0  0  0  0  0  0  0  0  0  0
  143.3557  159.8215  133.4890 H   0  0  0  0  0  0  0  0  0  0  0  0
  141.5768  160.0713  133.4890 H   0  0  0  0  0  0  0  0  0  0  0  0
  142.3777  158.7747  137.0993 H   0  0  0  0  0  0  0  0  0  0  0  0
  141.2237  159.9498  136.3825 H   0  0  0  0  0  0  0  0  0  0  0  0
  140.8357  158.1959  136.3825 H   0  0  0  0  0  0  0  0  0  0  0  0
  142.7695  157.1736  132.4783 H   0  0  0  0  0  0  0  0  0  0  0  0
  144.1938  158.0967  133.1394 H   0  0  0  0  0  0  0  0  0  0  0  0
  143.3855  155.4823  131.4984 H   0  0  0  0  0  0  0  0  0  0  0  0
  145.1595  155.0963  131.6278 H   0  0  0  0  0  0  0  0  0  0  0  0
  143.3612  153.1668  131.7229 H   0  0  0  0  0  0  0  0  0  0  0  0
  144.8095  153.1710  132.8209 H   0  0  0  0  0  0  0  0  0  0  0  0
  142.2464  154.4566  133.7583 H   0  0  0  0  0  0  0  0  0  0  0  0
  142.4067  152.6541  133.7775 H   0  0  0  0  0  0  0  0  0  0  0  0
  144.7380  153.6100  134.7990 H   0  0  0  0  0  0  0  0  0  0  0  0
  143.5630  154.6190  135.4730 H   0  0  0  0  0  0  0  0  0  0  0  0
  146.6430  152.3170  133.7250 H   0  0  0  0  0  0  0  0  0  0  0  0
  145.8250  153.8680  134.1000 H   0  0  0  0  0  0  0  0  0  0  0  0
  149.8112  155.9337  132.2216 H   0  0  0  0  0  0  0  0  0  0  0  0
  150.1779  158.7775  132.1114 H   0  0  0  0  0  0  0  0  0  0  0  0
  149.0474  160.9622  132.6554 H   0  0  0  0  0  0  0  0  0  0  0  0
  147.0210  161.9210  134.4380 H   0  0  0  0  0  0  0  0  0  0  0  0
  145.7060  161.5330  133.2800 H   0  0  0  0  0  0  0  0  0  0  0  0
  145.5730  158.7930  134.1523 H   0  0  0  0  0  0  0  0  0  0  0  0
  1  2  1  0
  2  3  1  0
  2  4  1  0
  4  5  2  0
  4  6  1  0
  6  7  1  0
  7  8  1  0
  8  9  1  0
  9 10  1  0
 10 11  1  0
  7 12  1  0
 12 13  2  0
 12 14  1  0
 14 15  1  0
 15 16  1  0
 16 17  1  0
 16 18  2  0
 15 19  2  0
 19 20  1  0
 20 21  2  0
 21 22  1  0
 22 23  2  0
 23 24  1  0
 23 25  1  0
 25 26  2  0
 26 14  1  0
 26 20  1  0
  1 27  1  0
  1 28  1  0
  1 29  1  0
  3 30  1  0
  3 31  1  0
  3 32  1  0
  6 33  1  0
  6 34  1  0
  8 35  1  0
  8 36  1  0
  9 37  1  0
  9 38  1  0
 10 39  1  0
 10 40  1  0
 11 41  1  0
 11 42  1  0
 17 43  1  0
 17 44  1  0
 19 45  1  0
 21 46  1  0
 22 47  1  0
 24 48  1  0
 24 49  1  0
 25 50  1  0
M  END
>  <UniqueID>  (77) 
77

>  <SMILES>  (77) 
CN(C)C(=O)CN(CCCN)C(=O)n1c(C(N)=O)cc2ccc(N)cc21

>  <Energy>  (77) 
82.44754054850023

>  <Genealogy>  (77) 
CN(C)C(=O)CN(CCCN)C(=O)n1c(C(N)=O)cc2ccc(N)cc21 (3D coordinates assigned)
CN(C)C(=O)CN(CCCN)C(=O)n1c(C(N)=O)cc2ccc(N)cc21 (optimized conformer: 82.44754054850023 kcal/mol)

>  <smiles>  (77) 
CN(C)C(=O)CN(CCCN)C(=O)n1c(C(N)=O)cc2ccc(N)cc21

>  <score_type>  (77) 
oracle

>  <origin>  (77) 
adg

>  <m_score__min__energy>  (77) 
-7.1799999999999997

>  <m_primary>  (77) 
energy

$$$$
80:0
     RDKit          3D

 29 30  0  0  0  0  0  0  0  0999 V2000
  146.2740  153.6560  136.3630 N   0  0  0  0  0  0  0  0  0  0  0  0
  146.1340  153.9720  134.9810 C   0  0  0  0  0  0  0  0  0  0  0  0
  145.5120  153.1770  134.2280 O   0  0  0  0  0  0  0  0  0  0  0  0
  146.7410  155.1940  134.4130 C   0  0  0  0  0  0  0  0  0  0  0  0
  146.2430  156.4770  134.6350 C   0  0  0  0  0  0  0  0  0  0  0  0
  147.0390  157.3140  133.8860 C   0  0  0  0  0  0  0  0  0  0  0  0
  147.0000  158.6980  133.7410 C   0  0  0  0  0  0  0  0  0  0  0  0
  147.9680  159.3010  132.9210 C   0  0  0  0  0  0  0  0  0  0  0  0
  148.9630  158.5190  132.2820 C   0  0  0  0  0  0  0  0  0  0  0  0
  149.9780  159.1720  131.3910 C   0  0  0  0  0  0  0  0  0  0  0  0
  149.1640  159.8960  129.9830 Cl  0  0  0  0  0  0  0  0  0  0  0  0
  148.9640  157.1160  132.4440 C   0  0  0  0  0  0  0  0  0  0  0  0
  147.9750  156.5400  133.2490 C   0  0  0  0  0  0  0  0  0  0  0  0
  147.8040  155.2370  133.5610 N   0  0  0  0  0  0  0  0  0  0  0  0
  148.6350  154.1480  133.1350 C   0  0  0  0  0  0  0  0  0  0  0  0
  149.7540  154.3870  132.6040 O   0  0  0  0  0  0  0  0  0  0  0  0
  148.1900  152.7980  133.3030 N   0  0  0  0  0  0  0  0  0  0  0  0
  149.1250  151.4370  132.7100 P   0  0  0  0  0  0  0  0  0  0  0  0
  149.9240  151.8620  131.4990 O   0  0  0  0  0  0  0  0  0  0  0  0
  148.0810  150.1780  132.2800 O   0  0  0  0  0  0  0  0  0  0  0  0
  150.1800  150.9060  133.9200 O   0  0  0  0  0  0  0  0  0  0  0  0
  145.8360  154.2520  137.0990 H   0  0  0  0  0  0  0  0  0  0  0  0
  145.3935  156.7607  135.2737 H   0  0  0  0  0  0  0  0  0  0  0  0
  146.2350  159.3005  134.2526 H   0  0  0  0  0  0  0  0  0  0  0  0
  147.9539  160.3909  132.7732 H   0  0  0  0  0  0  0  0  0  0  0  0
  150.5055  159.9574  131.9521 H   0  0  0  0  0  0  0  0  0  0  0  0
  150.6992  158.4165  131.0459 H   0  0  0  0  0  0  0  0  0  0  0  0
  149.7231  156.4918  131.9498 H   0  0  0  0  0  0  0  0  0  0  0  0
  147.2960  152.6080  133.8060 H   0  0  0  0  0  0  0  0  0  0  0  0
  1  2  1  0
  2  3  2  0
  2  4  1  0
  4  5  2  0
  5  6  1  0
  6  7  2  0
  7  8  1  0
  8  9  2  0
  9 10  1  0
 10 11  1  0
  9 12  1  0
 12 13  2  0
 13 14  1  0
 14 15  1  0
 15 16  2  0
 15 17  1  0
 17 18  1  0
 18 19  2  0
 18 20  1  0
 18 21  1  0
 14  4  1  0
 13  6  1  0
  1 22  1  0
  5 23  1  0
  7 24  1  0
  8 25  1  0
 10 26  1  0
 10 27  1  0
 12 28  1  0
 17 29  1  0
M  CHG  3   1  -1  20  -1  21  -1
M  END
>  <UniqueID>  (78) 
78

>  <SMILES>  (78) 
[NH-]C(=O)c1cc2ccc(CCl)cc2n1C(=O)NP(=O)([O-])[O-]

>  <Energy>  (78) 
64.18390463445414

>  <Genealogy>  (78) 
[NH-]C(=O)c1cc2ccc(CCl)cc2n1C(=O)NP(=O)([O-])[O-] (protonated)
[NH-]C(=O)c1cc2ccc(CCl)cc2n1C(=O)NP(=O)([O-])[O-] (3D coordinates assigned)
[NH-]C(=O)c1cc2ccc(CCl)cc2n1C(=O)NP(=O)([O-])[O-] (optimized conformer: 64.18390463445414 kcal/mol)

>  <smiles>  (78) 
NC(=O)c1cc2ccc(CCl)cc2n1C(=O)NP(=O)(O)O

>  <score_type>  (78) 
oracle

>  <origin>  (78) 
adg

>  <m_score__min__energy>  (78) 
-6.7599999999999998

>  <m_primary>  (78) 
energy

$$$$
81:0
     RDKit          3D

 41 43  0  0  0  0  0  0  0  0999 V2000
  146.2560  161.8180  134.1090 C   0  0  0  0  0  0  0  0  0  0  0  0
  146.5550  160.5770  133.3800 N   0  0  0  0  0  0  0  0  0  0  0  0
  145.5640  159.5270  133.3640 C   0  0  0  0  0  0  0  0  0  0  0  0
  145.9640  158.1660  133.3800 C   0  0  0  0  0  0  0  0  0  0  0  0
  145.0090  157.1360  133.3830 C   0  0  0  0  0  0  0  0  0  0  0  0
  143.6640  157.4930  133.3630 C   0  0  0  0  0  0  0  0  0  0  0  0
  142.5390  156.7020  133.3880 C   0  0  0  0  0  0  0  0  0  0  0  0
  141.4640  157.5870  133.3660 C   0  0  0  0  0  0  0  0  0  0  0  0
  140.0550  157.1500  133.2970 C   0  0  0  0  0  0  0  0  0  0  0  0
  139.6970  155.9240  132.6620 N   0  0  0  0  0  0  0  0  0  0  0  0
  139.1590  157.8410  133.8490 O   0  0  0  0  0  0  0  0  0  0  0  0
  141.9080  158.8770  133.3370 N   0  0  0  0  0  0  0  0  0  0  0  0
  141.1260  160.0820  133.3910 C   0  0  0  0  0  0  0  0  0  0  0  0
  141.4220  160.9960  134.2040 O   0  0  0  0  0  0  0  0  0  0  0  0
  140.0510  160.2600  132.5290 O   0  0  0  0  0  0  0  0  0  0  0  0
  143.2570  158.8010  133.3320 C   0  0  0  0  0  0  0  0  0  0  0  0
  144.1870  159.8470  133.3490 C   0  0  0  0  0  0  0  0  0  0  0  0
  147.8170  160.4140  132.6300 C   0  0  0  0  0  0  0  0  0  0  0  0
  148.7150  159.3250  133.2630 C   0  0  0  0  0  0  0  0  0  0  0  0
  149.6330  158.6510  132.2230 C   0  0  0  0  0  0  0  0  0  0  0  0
  150.0250  159.5900  131.1630 N   0  0  0  0  0  0  0  0  0  0  0  0
  148.8730  160.0270  130.3490 C   0  0  0  0  0  0  0  0  0  0  0  0
  147.5500  160.1250  131.1430 C   0  0  0  0  0  0  0  0  0  0  0  0
  146.3019  161.6275  135.1914 H   0  0  0  0  0  0  0  0  0  0  0  0
  146.9943  162.5879  133.8405 H   0  0  0  0  0  0  0  0  0  0  0  0
  145.2480  162.1672  133.8405 H   0  0  0  0  0  0  0  0  0  0  0  0
  147.0348  157.9143  133.3902 H   0  0  0  0  0  0  0  0  0  0  0  0
  145.3148  156.0795  133.4006 H   0  0  0  0  0  0  0  0  0  0  0  0
  142.4973  155.6032  133.4188 H   0  0  0  0  0  0  0  0  0  0  0  0
  138.7310  155.7720  132.2960 H   0  0  0  0  0  0  0  0  0  0  0  0
  143.8537  160.8953  133.3507 H   0  0  0  0  0  0  0  0  0  0  0  0
  148.3628  161.3671  132.6907 H   0  0  0  0  0  0  0  0  0  0  0  0
  149.3404  159.7889  134.0399 H   0  0  0  0  0  0  0  0  0  0  0  0
  148.0591  158.5505  133.6872 H   0  0  0  0  0  0  0  0  0  0  0  0
  150.5384  158.2849  132.7292 H   0  0  0  0  0  0  0  0  0  0  0  0
  149.0799  157.8199  131.7611 H   0  0  0  0  0  0  0  0  0  0  0  0
  150.4700  160.4280  131.6070 H   0  0  0  0  0  0  0  0  0  0  0  0
  149.1004  161.0183  129.9300 H   0  0  0  0  0  0  0  0  0  0  0  0
  148.7236  159.2651  129.5698 H   0  0  0  0  0  0  0  0  0  0  0  0
  146.9384  160.9373  130.7233 H   0  0  0  0  0  0  0  0  0  0  0  0
  147.0224  159.1631  131.0632 H   0  0  0  0  0  0  0  0  0  0  0  0
  1  2  1  0
  2  3  1  0
  3  4  2  0
  4  5  1  0
  5  6  2  0
  6  7  1  0
  7  8  2  0
  8  9  1  0
  9 10  1  0
  9 11  2  0
  8 12  1  0
 12 13  1  0
 13 14  2  0
 13 15  1  0
 12 16  1  0
 16 17  2  0
  2 18  1  0
 18 19  1  0
 19 20  1  0
 20 21  1  0
 21 22  1  0
 22 23  1  0
 17  3  1  0
 23 18  1  0
 16  6  1  0
  1 24  1  0
  1 25  1  0
  1 26  1  0
  4 27  1  0
  5 28  1  0
  7 29  1  0
 10 30  1  0
 17 31  1  0
 18 32  1  0
 19 33  1  0
 19 34  1  0
 20 35  1  0
 20 36  1  0
 21 37  1  0
 22 38  1  0
 22 39  1  0
 23 40  1  0
 23 41  1  0
M  CHG  2  10  -1  15  -1
M  END
>  <UniqueID>  (79) 
79

>  <SMILES>  (79) 
CN(c1ccc2cc(C([NH-])=O)n(C(=O)[O-])c2c1)C1CCNCC1

>  <Energy>  (79) 
90.61744570724922

>  <Genealogy>  (79) 
CN(c1ccc2cc(C([NH-])=O)n(C(=O)[O-])c2c1)C1CCNCC1 (protonated)
CN(c1ccc2cc(C([NH-])=O)n(C(=O)[O-])c2c1)C1CCNCC1 (3D coordinates assigned)
CN(c1ccc2cc(C([NH-])=O)n(C(=O)[O-])c2c1)C1CCNCC1 (nonaromatic ring conformer: 90.61744570724922 kcal/mol)

>  <smiles>  (79) 
CN(c1ccc2cc(C(N)=O)n(C(=O)O)c2c1)C1CCNCC1

>  <score_type>  (79) 
oracle

>  <origin>  (79) 
adg

>  <m_score__min__energy>  (79) 
-7.8499999999999996

>  <m_primary>  (79) 
energy

$$$$
82:0
     RDKit          3D

 45 46  0  0  0  0  0  0  0  0999 V2000
  140.4720  159.5660  132.2570 C   0  0  0  0  0  0  0  0  0  0  0  0
  140.9160  159.2740  133.6240 N   0  0  0  0  0  0  0  0  0  0  0  0
  139.9560  158.7320  134.6010 C   0  0  0  0  0  0  0  0  0  0  0  0
  139.7370  157.2140  134.4270 C   0  0  2  0  0  0  0  0  0  0  0  0
  140.9020  156.4960  134.7510 O   0  0  0  0  0  0  0  0  0  0  0  0
  139.2140  156.8430  133.0270 C   0  0  0  0  0  0  0  0  0  0  0  0
  139.8850  155.7120  132.5410 O   0  0  0  0  0  0  0  0  0  0  0  0
  142.2990  159.5140  133.9590 C   0  0  0  0  0  0  0  0  0  0  0  0
  142.8020  160.6500  133.7410 O   0  0  0  0  0  0  0  0  0  0  0  0
  143.1880  158.4260  134.5040 C   0  0  0  0  0  0  0  0  0  0  0  0
  143.4320  157.3300  133.4990 C   0  0  0  0  0  0  0  0  0  0  0  0
  142.5970  157.1580  132.5720 O   0  0  0  0  0  0  0  0  0  0  0  0
  144.5570  156.4410  133.6100 N   0  0  0  0  0  0  0  0  0  0  0  0
  144.5430  155.1070  133.8970 C   0  0  0  0  0  0  0  0  0  0  0  0
  143.3460  154.2770  134.1590 C   0  0  0  0  0  0  0  0  0  0  0  0
  142.1950  154.3490  133.3240 N   0  0  0  0  0  0  0  0  0  0  0  0
  143.3400  153.4880  135.1420 O   0  0  0  0  0  0  0  0  0  0  0  0
  145.8390  154.5920  133.8670 C   0  0  0  0  0  0  0  0  0  0  0  0
  146.6510  155.6580  133.5620 C   0  0  0  0  0  0  0  0  0  0  0  0
  148.0310  155.7140  133.3970 C   0  0  0  0  0  0  0  0  0  0  0  0
  148.6080  156.9570  133.0880 C   0  0  0  0  0  0  0  0  0  0  0  0
  147.8040  158.1220  132.9750 C   0  0  0  0  0  0  0  0  0  0  0  0
  148.4270  159.4440  132.6020 C   0  0  0  0  0  0  0  0  0  0  0  0
  149.5210  159.2560  131.7770 F   0  0  0  0  0  0  0  0  0  0  0  0
  148.8490  160.1180  133.7340 F   0  0  0  0  0  0  0  0  0  0  0  0
  147.4900  160.2170  131.9410 F   0  0  0  0  0  0  0  0  0  0  0  0
  146.4030  158.0180  133.1300 C   0  0  0  0  0  0  0  0  0  0  0  0
  145.8550  156.7630  133.4180 C   0  0  0  0  0  0  0  0  0  0  0  0
  139.5534  160.1701  132.2910 H   0  0  0  0  0  0  0  0  0  0  0  0
  141.2583  160.1238  131.7274 H   0  0  0  0  0  0  0  0  0  0  0  0
  140.2713  158.6230  131.7274 H   0  0  0  0  0  0  0  0  0  0  0  0
  140.3388  158.9202  135.6149 H   0  0  0  0  0  0  0  0  0  0  0  0
  138.9902  159.2323  134.4369 H   0  0  0  0  0  0  0  0  0  0  0  0
  138.9474  156.9236  135.1357 H   0  0  0  0  0  0  0  0  0  0  0  0
  141.3360  156.2210  133.9030 H   0  0  0  0  0  0  0  0  0  0  0  0
  138.1369  156.6280  133.0872 H   0  0  0  0  0  0  0  0  0  0  0  0
  139.3923  157.6861  132.3434 H   0  0  0  0  0  0  0  0  0  0  0  0
  140.8560  155.8830  132.6560 H   0  0  0  0  0  0  0  0  0  0  0  0
  144.1547  158.8678  134.7873 H   0  0  0  0  0  0  0  0  0  0  0  0
  142.6805  157.9799  135.3720 H   0  0  0  0  0  0  0  0  0  0  0  0
  141.7650  155.2680  133.0780 H   0  0  0  0  0  0  0  0  0  0  0  0
  146.1464  153.5516  134.0491 H   0  0  0  0  0  0  0  0  0  0  0  0
  148.6517  154.8123  133.5052 H   0  0  0  0  0  0  0  0  0  0  0  0
  149.6945  157.0286  132.9319 H   0  0  0  0  0  0  0  0  0  0  0  0
  145.7582  158.9032  133.0266 H   0  0  0  0  0  0  0  0  0  0  0  0
  1  2  1  0
  2  3  1  0
  3  4  1  0
  4  5  1  0
  4  6  1  0
  6  7  1  0
  2  8  1  0
  8  9  2  0
  8 10  1  0
 10 11  1  0
 11 12  2  0
 11 13  1  0
 13 14  1  0
 14 15  1  0
 15 16  1  0
 15 17  2  0
 14 18  2  0
 18 19  1  0
 19 20  2  0
 20 21  1  0
 21 22  2  0
 22 23  1  0
 23 24  1  0
 23 25  1  0
 23 26  1  0
 22 27  1  0
 27 28  2  0
 28 13  1  0
 28 19  1  0
  1 29  1  0
  1 30  1  0
  1 31  1  0
  3 32  1  0
  3 33  1  0
  4 34  1  1
  5 35  1  0
  6 36  1  0
  6 37  1  0
  7 38  1  0
 10 39  1  0
 10 40  1  0
 16 41  1  0
 18 42  1  0
 20 43  1  0
 21 44  1  0
 27 45  1  0
M  CHG  1  16  -1
M  END
>  <UniqueID>  (80) 
80

>  <SMILES>  (80) 
CN(C[C@H](O)CO)C(=O)CC(=O)n1c(C([NH-])=O)cc2ccc(C(F)(F)F)cc21

>  <Energy>  (80) 
80.31448845965473

>  <Genealogy>  (80) 
CN(CC(O)CO)C(=O)CC(=O)n1c(C([NH-])=O)cc2ccc(C(F)(F)F)cc21 (protonated)
CN(C[C@H](O)CO)C(=O)CC(=O)n1c(C([NH-])=O)cc2ccc(C(F)(F)F)cc21 (chirality)
CN(C[C@H](O)CO)C(=O)CC(=O)n1c(C([NH-])=O)cc2ccc(C(F)(F)F)cc21 (3D coordinates assigned)
CN(C[C@H](O)CO)C(=O)CC(=O)n1c(C([NH-])=O)cc2ccc(C(F)(F)F)cc21 (optimized conformer: 80.31448845965473 kcal/mol)

>  <smiles>  (80) 
CN(CC(O)CO)C(=O)CC(=O)n1c(C(N)=O)cc2ccc(C(F)(F)F)cc21

>  <score_type>  (80) 
oracle

>  <origin>  (80) 
adg

>  <m_score__min__energy>  (80) 
-5.1600000000000001

>  <m_primary>  (80) 
energy

$$$$
84:0
     RDKit          3D

 42 43  0  0  0  0  0  0  0  0999 V2000
  148.8650  156.6940  132.6380 C   0  0  0  0  0  0  0  0  0  0  0  0
  147.8380  157.7570  132.8890 C   0  0  0  0  0  0  0  0  0  0  0  0
  148.2430  159.0960  133.1160 C   0  0  0  0  0  0  0  0  0  0  0  0
  147.2910  160.0970  133.3790 C   0  0  0  0  0  0  0  0  0  0  0  0
  145.9500  159.7230  133.4280 C   0  0  0  0  0  0  0  0  0  0  0  0
  144.8240  160.4870  133.6450 C   0  0  0  0  0  0  0  0  0  0  0  0
  143.7550  159.5940  133.5770 C   0  0  0  0  0  0  0  0  0  0  0  0
  142.3450  159.9780  133.7980 C   0  0  0  0  0  0  0  0  0  0  0  0
  141.4800  160.1760  132.6820 N   0  0  0  0  0  0  0  0  0  0  0  0
  141.8990  160.1520  134.9630 O   0  0  0  0  0  0  0  0  0  0  0  0
  144.2050  158.3310  133.3340 N   0  0  0  0  0  0  0  0  0  0  0  0
  143.4200  157.1440  133.1490 C   0  0  0  0  0  0  0  0  0  0  0  0
  143.8400  156.2350  132.3840 O   0  0  0  0  0  0  0  0  0  0  0  0
  142.1230  156.9880  133.8340 C   0  0  0  0  0  0  0  0  0  0  0  0
  142.0700  156.3410  134.9150 O   0  0  0  0  0  0  0  0  0  0  0  0
  140.9340  157.5770  133.2880 N   0  0  0  0  0  0  0  0  0  0  0  0
  139.6640  157.6040  134.0110 C   0  0  0  0  0  0  0  0  0  0  0  0
  138.5750  158.2710  133.1640 C   0  0  0  0  0  0  0  0  0  0  0  0
  139.1520  158.9110  131.9620 N   0  0  0  0  0  0  0  0  0  0  0  0
  138.7490  160.3260  131.8700 C   0  0  0  0  0  0  0  0  0  0  0  0
  138.7290  158.1990  130.7460 C   0  0  0  0  0  0  0  0  0  0  0  0
  145.5480  158.4280  133.2400 C   0  0  0  0  0  0  0  0  0  0  0  0
  146.4700  157.4130  132.9600 C   0  0  0  0  0  0  0  0  0  0  0  0
  149.2368  156.3092  133.5991 H   0  0  0  0  0  0  0  0  0  0  0  0
  148.4099  155.8724  132.0654 H   0  0  0  0  0  0  0  0  0  0  0  0
  149.7018  157.1205  132.0654 H   0  0  0  0  0  0  0  0  0  0  0  0
  149.3117  159.3546  133.0862 H   0  0  0  0  0  0  0  0  0  0  0  0
  147.5954  161.1416  133.5408 H   0  0  0  0  0  0  0  0  0  0  0  0
  144.7781  161.5700  133.8320 H   0  0  0  0  0  0  0  0  0  0  0  0
  141.3250  159.4160  131.9820 H   0  0  0  0  0  0  0  0  0  0  0  0
  140.9800  158.0670  132.3660 H   0  0  0  0  0  0  0  0  0  0  0  0
  139.3593  156.5733  134.2450 H   0  0  0  0  0  0  0  0  0  0  0  0
  139.7959  158.1817  134.9378 H   0  0  0  0  0  0  0  0  0  0  0  0
  137.8466  157.5087  132.8504 H   0  0  0  0  0  0  0  0  0  0  0  0
  138.0859  159.0465  133.7718 H   0  0  0  0  0  0  0  0  0  0  0  0
  138.6310  160.7402  132.8822 H   0  0  0  0  0  0  0  0  0  0  0  0
  139.5214  160.8928  131.3296 H   0  0  0  0  0  0  0  0  0  0  0  0
  137.7938  160.4008  131.3296 H   0  0  0  0  0  0  0  0  0  0  0  0
  138.1858  157.2846  131.0267 H   0  0  0  0  0  0  0  0  0  0  0  0
  138.0703  158.8488  130.1511 H   0  0  0  0  0  0  0  0  0  0  0  0
  139.6146  157.9313  130.1511 H   0  0  0  0  0  0  0  0  0  0  0  0
  146.1385  156.3764  132.7997 H   0  0  0  0  0  0  0  0  0  0  0  0
  1  2  1  0
  2  3  2  0
  3  4  1  0
  4  5  2  0
  5  6  1  0
  6  7  2  0
  7  8  1  0
  8  9  1  0
  8 10  2  0
  7 11  1  0
 11 12  1  0
 12 13  2  0
 12 14  1  0
 14 15  2  0
 14 16  1  0
 16 17  1  0
 17 18  1  0
 18 19  1  0
 19 20  1  0
 19 21  1  0
 11 22  1  0
 22 23  2  0
 23  2  1  0
 22  5  1  0
  1 24  1  0
  1 25  1  0
  1 26  1  0
  3 27  1  0
  4 28  1  0
  6 29  1  0
  9 30  1  0
 16 31  1  0
 17 32  1  0
 17 33  1  0
 18 34  1  0
 18 35  1  0
 20 36  1  0
 20 37  1  0
 20 38  1  0
 21 39  1  0
 21 40  1  0
 21 41  1  0
 23 42  1  0
M  CHG  1   9  -1
M  END
>  <UniqueID>  (81) 
81

>  <SMILES>  (81) 
Cc1ccc2cc(C([NH-])=O)n(C(=O)C(=O)NCCN(C)C)c2c1

>  <Energy>  (81) 
76.96748481071151

>  <Genealogy>  (81) 
Cc1ccc2cc(C([NH-])=O)n(C(=O)C(=O)NCCN(C)C)c2c1 (protonated)
Cc1ccc2cc(C([NH-])=O)n(C(=O)C(=O)NCCN(C)C)c2c1 (3D coordinates assigned)
Cc1ccc2cc(C([NH-])=O)n(C(=O)C(=O)NCCN(C)C)c2c1 (optimized conformer: 76.96748481071151 kcal/mol)

>  <smiles>  (81) 
Cc1ccc2cc(C(N)=O)n(C(=O)C(=O)NCCN(C)C)c2c1

>  <score_type>  (81) 
oracle

>  <origin>  (81) 
adg

>  <m_score__min__energy>  (81) 
-6.1699999999999999

>  <m_primary>  (81) 
energy

$$$$
85:0
     RDKit          3D

 42 44  0  0  0  0  0  0  0  0999 V2000
  148.1090  154.5340  133.7050 C   0  0  0  0  0  0  0  0  0  0  0  0
  147.4360  155.2820  134.8170 C   0  0  0  0  0  0  0  0  0  0  0  0
  147.9210  156.3810  135.1990 O   0  0  0  0  0  0  0  0  0  0  0  0
  146.2780  154.7640  135.4850 N   0  0  0  0  0  0  0  0  0  0  0  0
  145.0560  154.3160  134.8180 C   0  0  1  0  0  0  0  0  0  0  0  0
  143.8460  154.6850  135.6830 C   0  0  0  0  0  0  0  0  0  0  0  0
  143.3800  156.0460  135.1800 C   0  0  0  0  0  0  0  0  0  0  0  0
  143.9480  156.1720  133.8480 N   0  0  0  0  0  0  0  0  0  0  0  0
  143.7140  157.2860  132.9810 C   0  0  0  0  0  0  0  0  0  0  0  0
  143.0030  157.1360  131.9490 O   0  0  0  0  0  0  0  0  0  0  0  0
  144.3750  158.5330  133.2200 N   0  0  0  0  0  0  0  0  0  0  0  0
  143.8000  159.7170  133.5560 C   0  0  0  0  0  0  0  0  0  0  0  0
  142.3570  159.9310  133.7850 C   0  0  0  0  0  0  0  0  0  0  0  0
  141.4080  159.5220  132.8030 N   0  0  0  0  0  0  0  0  0  0  0  0
  141.9500  160.4910  134.8360 O   0  0  0  0  0  0  0  0  0  0  0  0
  144.7640  160.7160  133.6770 C   0  0  0  0  0  0  0  0  0  0  0  0
  145.9620  160.0970  133.3900 C   0  0  0  0  0  0  0  0  0  0  0  0
  147.2550  160.6100  133.3670 C   0  0  0  0  0  0  0  0  0  0  0  0
  148.3050  159.7350  133.0310 C   0  0  0  0  0  0  0  0  0  0  0  0
  148.0400  158.3770  132.7200 C   0  0  0  0  0  0  0  0  0  0  0  0
  149.1660  157.4450  132.3790 C   0  0  0  0  0  0  0  0  0  0  0  0
  146.7180  157.8860  132.7750 C   0  0  0  0  0  0  0  0  0  0  0  0
  145.6960  158.7790  133.1080 C   0  0  0  0  0  0  0  0  0  0  0  0
  144.8450  155.0840  133.5090 C   0  0  0  0  0  0  0  0  0  0  0  0
  148.7879  153.7794  134.1290 H   0  0  0  0  0  0  0  0  0  0  0  0
  147.3487  154.0362  133.0852 H   0  0  0  0  0  0  0  0  0  0  0  0
  148.6840  155.2377  133.0852 H   0  0  0  0  0  0  0  0  0  0  0  0
  145.1507  153.2336  134.6464 H   0  0  0  0  0  0  0  0  0  0  0  0
  143.0473  153.9380  135.5641 H   0  0  0  0  0  0  0  0  0  0  0  0
  144.1043  154.7136  136.7519 H   0  0  0  0  0  0  0  0  0  0  0  0
  142.2816  156.0864  135.1369 H   0  0  0  0  0  0  0  0  0  0  0  0
  143.7004  156.8626  135.8437 H   0  0  0  0  0  0  0  0  0  0  0  0
  141.6920  158.9040  132.0080 H   0  0  0  0  0  0  0  0  0  0  0  0
  144.6037  161.7710  133.9440 H   0  0  0  0  0  0  0  0  0  0  0  0
  147.4506  161.6662  133.6040 H   0  0  0  0  0  0  0  0  0  0  0  0
  149.3397  160.1076  133.0095 H   0  0  0  0  0  0  0  0  0  0  0  0
  149.6226  157.0671  133.3057 H   0  0  0  0  0  0  0  0  0  0  0  0
  148.7776  156.6006  131.7907 H   0  0  0  0  0  0  0  0  0  0  0  0
  149.9230  157.9843  131.7907 H   0  0  0  0  0  0  0  0  0  0  0  0
  146.4982  156.8295  132.5616 H   0  0  0  0  0  0  0  0  0  0  0  0
  144.3909  154.4323  132.7481 H   0  0  0  0  0  0  0  0  0  0  0  0
  145.7937  155.4487  133.0883 H   0  0  0  0  0  0  0  0  0  0  0  0
  1  2  1  0
  2  3  2  0
  2  4  1  0
  4  5  1  0
  5  6  1  0
  6  7  1  0
  7  8  1  0
  8  9  1  0
  9 10  2  0
  9 11  1  0
 11 12  1  0
 12 13  1  0
 13 14  1  0
 13 15  2  0
 12 16  2  0
 16 17  1  0
 17 18  2  0
 18 19  1  0
 19 20  2  0
 20 21  1  0
 20 22  1  0
 22 23  2  0
  8 24  1  0
 24  5  1  0
 23 11  1  0
 23 17  1  0
  1 25  1  0
  1 26  1  0
  1 27  1  0
  5 28  1  6
  6 29  1  0
  6 30  1  0
  7 31  1  0
  7 32  1  0
 14 33  1  0
 16 34  1  0
 18 35  1  0
 19 36  1  0
 21 37  1  0
 21 38  1  0
 21 39  1  0
 22 40  1  0
 24 41  1  0
 24 42  1  0
M  CHG  2   4  -1  14  -1
M  END
>  <UniqueID>  (82) 
82

>  <SMILES>  (82) 
CC(=O)[N-][C@H]1CCN(C(=O)n2c(C([NH-])=O)cc3ccc(C)cc32)C1

>  <Energy>  (82) 
85.04257155640421

>  <Genealogy>  (82) 
CC(=O)[N-]C1CCN(C(=O)n2c(C([NH-])=O)cc3ccc(C)cc32)C1 (protonated)
CC(=O)[N-][C@H]1CCN(C(=O)n2c(C([NH-])=O)cc3ccc(C)cc32)C1 (chirality)
CC(=O)[N-][C@H]1CCN(C(=O)n2c(C([NH-])=O)cc3ccc(C)cc32)C1 (3D coordinates assigned)
CC(=O)[N-][C@H]1CCN(C(=O)n2c(C([NH-])=O)cc3ccc(C)cc32)C1 (nonaromatic ring conformer: 85.04257155640421 kcal/mol)

>  <smiles>  (82) 
CC(=O)NC1CCN(C(=O)n2c(C(N)=O)cc3ccc(C)cc32)C1

>  <score_type>  (82) 
oracle

>  <origin>  (82) 
adg

>  <m_score__min__energy>  (82) 
-7.0999999999999996

>  <m_primary>  (82) 
energy

$$$$
86:0
     RDKit          3D

 41 42  0  0  0  0  0  0  0  0999 V2000
  144.3460  153.8820  134.3000 C   0  0  0  0  0  0  0  0  0  0  0  0
  142.9370  154.1330  134.6180 N   0  0  0  0  0  0  0  0  0  0  0  0
  142.3660  153.4730  135.7970 C   0  0  0  0  0  0  0  0  0  0  0  0
  141.7680  152.1580  135.4180 C   0  0  0  0  0  0  0  0  0  0  0  0
  141.9870  151.6690  134.2790 O   0  0  0  0  0  0  0  0  0  0  0  0
  140.9380  151.4860  136.3070 O   0  0  0  0  0  0  0  0  0  0  0  0
  142.1930  155.1670  133.9370 C   0  0  0  0  0  0  0  0  0  0  0  0
  142.7690  156.2420  133.6120 O   0  0  0  0  0  0  0  0  0  0  0  0
  140.8050  154.9880  133.6010 N   0  0  0  0  0  0  0  0  0  0  0  0
  140.3790  153.7350  132.9750 C   0  0  0  0  0  0  0  0  0  0  0  0
  139.8730  156.0820  133.7130 C   0  0  0  0  0  0  0  0  0  0  0  0
  138.7300  155.9900  133.1900 O   0  0  0  0  0  0  0  0  0  0  0  0
  140.2210  157.2780  134.4280 N   0  0  0  0  0  0  0  0  0  0  0  0
  140.1810  158.5650  133.9810 C   0  0  0  0  0  0  0  0  0  0  0  0
  139.6870  159.0020  132.6590 C   0  0  0  0  0  0  0  0  0  0  0  0
  138.3300  158.7590  132.2940 N   0  0  0  0  0  0  0  0  0  0  0  0
  140.4550  159.5700  131.8390 O   0  0  0  0  0  0  0  0  0  0  0  0
  140.6090  159.4400  134.9770 C   0  0  0  0  0  0  0  0  0  0  0  0
  140.9030  158.6420  136.0600 C   0  0  0  0  0  0  0  0  0  0  0  0
  141.3730  158.9850  137.3260 C   0  0  0  0  0  0  0  0  0  0  0  0
  141.5960  157.9460  138.2470 C   0  0  0  0  0  0  0  0  0  0  0  0
  141.3570  156.5960  137.8860 C   0  0  0  0  0  0  0  0  0  0  0  0
  141.5740  155.5000  138.8860 C   0  0  0  0  0  0  0  0  0  0  0  0
  140.0140  154.7520  139.3060 Cl  0  0  0  0  0  0  0  0  0  0  0  0
  140.8660  156.2900  136.5980 C   0  0  0  0  0  0  0  0  0  0  0  0
  140.6520  157.3440  135.7050 C   0  0  0  0  0  0  0  0  0  0  0  0
  144.9198  153.7798  135.2329 H   0  0  0  0  0  0  0  0  0  0  0  0
  144.4301  152.9547  133.7143 H   0  0  0  0  0  0  0  0  0  0  0  0
  144.7452  154.7232  133.7143 H   0  0  0  0  0  0  0  0  0  0  0  0
  143.1596  153.3095  136.5409 H   0  0  0  0  0  0  0  0  0  0  0  0
  141.5789  154.1148  136.2194 H   0  0  0  0  0  0  0  0  0  0  0  0
  140.1296  153.0013  133.7557 H   0  0  0  0  0  0  0  0  0  0  0  0
  139.4933  153.9202  132.3495 H   0  0  0  0  0  0  0  0  0  0  0  0
  141.1940  153.3420  132.3495 H   0  0  0  0  0  0  0  0  0  0  0  0
  137.8730  157.8440  132.5040 H   0  0  0  0  0  0  0  0  0  0  0  0
  140.6939  160.5348  134.9121 H   0  0  0  0  0  0  0  0  0  0  0  0
  141.5634  160.0342  137.5962 H   0  0  0  0  0  0  0  0  0  0  0  0
  141.9595  158.1831  139.2577 H   0  0  0  0  0  0  0  0  0  0  0  0
  142.2402  154.7383  138.4547 H   0  0  0  0  0  0  0  0  0  0  0  0
  142.0319  155.9207  139.7934 H   0  0  0  0  0  0  0  0  0  0  0  0
  140.6575  155.2504  136.3052 H   0  0  0  0  0  0  0  0  0  0  0  0
  1  2  1  0
  2  3  1  0
  3  4  1  0
  4  5  2  0
  4  6  1  0
  2  7  1  0
  7  8  2  0
  7  9  1  0
  9 10  1  0
  9 11  1  0
 11 12  2  0
 11 13  1  0
 13 14  1  0
 14 15  1  0
 15 16  1  0
 15 17  2  0
 14 18  2  0
 18 19  1  0
 19 20  2  0
 20 21  1  0
 21 22  2  0
 22 23  1  0
 23 24  1  0
 22 25  1  0
 25 26  2  0
 26 13  1  0
 26 19  1  0
  1 27  1  0
  1 28  1  0
  1 29  1  0
  3 30  1  0
  3 31  1  0
 10 32  1  0
 10 33  1  0
 10 34  1  0
 16 35  1  0
 18 36  1  0
 20 37  1  0
 21 38  1  0
 23 39  1  0
 23 40  1  0
 25 41  1  0
M  CHG  2   6  -1  16  -1
M  END
>  <UniqueID>  (83) 
83

>  <SMILES>  (83) 
CN(CC(=O)[O-])C(=O)N(C)C(=O)n1c(C([NH-])=O)cc2ccc(CCl)cc21

>  <Energy>  (83) 
78.28152235972219

>  <Genealogy>  (83) 
CN(CC(=O)[O-])C(=O)N(C)C(=O)n1c(C([NH-])=O)cc2ccc(CCl)cc21 (protonated)
CN(CC(=O)[O-])C(=O)N(C)C(=O)n1c(C([NH-])=O)cc2ccc(CCl)cc21 (3D coordinates assigned)
CN(CC(=O)[O-])C(=O)N(C)C(=O)n1c(C([NH-])=O)cc2ccc(CCl)cc21 (optimized conformer: 78.28152235972219 kcal/mol)

>  <smiles>  (83) 
CN(CC(=O)O)C(=O)N(C)C(=O)n1c(C(N)=O)cc2ccc(CCl)cc21

>  <score_type>  (83) 
oracle

>  <origin>  (83) 
adg

>  <m_score__min__energy>  (83) 
-6.9199999999999999

>  <m_primary>  (83) 
energy

$$$$
87:0
     RDKit          3D

 52 55  0  0  0  0  0  0  0  0999 V2000
  142.0830  154.4290  135.8420 C   0  0  0  0  0  0  0  0  0  0  0  0
  141.6710  154.8440  134.4980 N   0  0  0  0  0  0  0  0  0  0  0  0
  141.5090  156.2730  134.1860 C   0  0  0  0  0  0  0  0  0  0  0  0
  142.7000  157.0890  134.6980 C   0  0  0  0  0  0  0  0  0  0  0  0
  142.9270  158.3060  133.8560 C   0  0  0  0  0  0  0  0  0  0  0  0
  142.6120  159.4440  134.2910 O   0  0  0  0  0  0  0  0  0  0  0  0
  143.5300  158.1880  132.6100 O   0  0  0  0  0  0  0  0  0  0  0  0
  141.4230  153.8450  133.4870 C   0  0  0  0  0  0  0  0  0  0  0  0
  140.3120  153.8030  132.8940 O   0  0  0  0  0  0  0  0  0  0  0  0
  142.4270  152.8790  133.1540 N   0  0  0  0  0  0  0  0  0  0  0  0
  142.2500  151.5530  132.9070 C   0  0  0  0  0  0  0  0  0  0  0  0
  140.9590  150.8370  132.9550 C   0  0  0  0  0  0  0  0  0  0  0  0
  139.9620  151.1010  131.9710 N   0  0  0  0  0  0  0  0  0  0  0  0
  140.7240  149.9930  133.8590 O   0  0  0  0  0  0  0  0  0  0  0  0
  143.4720  150.9470  132.6160 C   0  0  0  0  0  0  0  0  0  0  0  0
  144.4050  151.9580  132.6880 C   0  0  0  0  0  0  0  0  0  0  0  0
  145.7810  151.9270  132.4860 C   0  0  0  0  0  0  0  0  0  0  0  0
  146.4930  153.1300  132.6200 C   0  0  0  0  0  0  0  0  0  0  0  0
  145.8250  154.3400  132.9480 C   0  0  0  0  0  0  0  0  0  0  0  0
  146.5860  155.6080  133.0720 C   0  0  0  0  0  0  0  0  0  0  0  0
  146.0010  156.7450  133.6560 C   0  0  0  0  0  0  0  0  0  0  0  0
  146.7230  157.9360  133.7540 C   0  0  0  0  0  0  0  0  0  0  0  0
  148.0320  157.9880  133.2710 C   0  0  0  0  0  0  0  0  0  0  0  0
  148.7540  159.1800  133.3710 O   0  0  0  0  0  0  0  0  0  0  0  0
  148.9440  160.0610  132.2660 C   0  0  0  0  0  0  0  0  0  0  0  0
  147.7630  160.0810  131.3270 C   0  0  0  0  0  0  0  0  0  0  0  0
  148.4820  159.4350  130.3030 O   0  0  0  0  0  0  0  0  0  0  0  0
  149.6330  159.3770  131.1130 C   0  0  0  0  0  0  0  0  0  0  0  0
  148.5900  156.8780  132.7110 N   0  0  0  0  0  0  0  0  0  0  0  0
  147.9070  155.7080  132.6010 C   0  0  0  0  0  0  0  0  0  0  0  0
  144.4230  154.3270  133.1450 C   0  0  0  0  0  0  0  0  0  0  0  0
  143.7460  153.1140  133.0100 C   0  0  0  0  0  0  0  0  0  0  0  0
  141.5161  155.0001  136.5920 H   0  0  0  0  0  0  0  0  0  0  0  0
  141.8837  153.3550  135.9713 H   0  0  0  0  0  0  0  0  0  0  0  0
  143.1584  154.6205  135.9713 H   0  0  0  0  0  0  0  0  0  0  0  0
  141.4318  156.3959  133.0956 H   0  0  0  0  0  0  0  0  0  0  0  0
  140.5974  156.6373  134.6823 H   0  0  0  0  0  0  0  0  0  0  0  0
  142.5015  157.4017  135.7338 H   0  0  0  0  0  0  0  0  0  0  0  0
  143.6002  156.4589  134.6478 H   0  0  0  0  0  0  0  0  0  0  0  0
  139.6700  152.0790  131.7540 H   0  0  0  0  0  0  0  0  0  0  0  0
  143.6523  149.8880  132.3795 H   0  0  0  0  0  0  0  0  0  0  0  0
  146.2954  150.9892  132.2292 H   0  0  0  0  0  0  0  0  0  0  0  0
  147.5826  153.1354  132.4689 H   0  0  0  0  0  0  0  0  0  0  0  0
  144.9704  156.6962  134.0373 H   0  0  0  0  0  0  0  0  0  0  0  0
  146.2641  158.8265  134.2082 H   0  0  0  0  0  0  0  0  0  0  0  0
  149.3304  160.9525  132.7817 H   0  0  0  0  0  0  0  0  0  0  0  0
  146.9028  159.5007  131.6920 H   0  0  0  0  0  0  0  0  0  0  0  0
  147.2720  161.0409  131.1091 H   0  0  0  0  0  0  0  0  0  0  0  0
  149.9564  158.3509  131.3421 H   0  0  0  0  0  0  0  0  0  0  0  0
  150.5747  159.7977  130.7305 H   0  0  0  0  0  0  0  0  0  0  0  0
  148.3908  154.8339  132.1406 H   0  0  0  0  0  0  0  0  0  0  0  0
  143.8808  155.2500  133.3982 H   0  0  0  0  0  0  0  0  0  0  0  0
  1  2  1  0
  2  3  1  0
  3  4  1  0
  4  5  1  0
  5  6  2  0
  5  7  1  0
  2  8  1  0
  8  9  2  0
  8 10  1  0
 10 11  1  0
 11 12  1  0
 12 13  1  0
 12 14  2  0
 11 15  2  0
 15 16  1  0
 16 17  2  0
 17 18  1  0
 18 19  2  0
 19 20  1  0
 20 21  2  0
 21 22  1  0
 22 23  2  0
 23 24  1  0
 24 25  1  0
 25 26  1  0
 26 27  1  0
 27 28  1  0
 23 29  1  0
 29 30  2  0
 19 31  1  0
 31 32  2  0
 32 10  1  0
 32 16  1  0
 30 20  1  0
 28 25  1  0
  1 33  1  0
  1 34  1  0
  1 35  1  0
  3 36  1  0
  3 37  1  0
  4 38  1  0
  4 39  1  0
 13 40  1  0
 15 41  1  0
 17 42  1  0
 18 43  1  0
 21 44  1  0
 22 45  1  0
 25 46  1  0
 26 47  1  0
 26 48  1  0
 28 49  1  0
 28 50  1  0
 30 51  1  0
 31 52  1  0
M  CHG  2   7  -1  13  -1
M  END
>  <UniqueID>  (84) 
84

>  <SMILES>  (84) 
CN(CCC(=O)[O-])C(=O)n1c(C([NH-])=O)cc2ccc(-c3ccc(OC4COC4)nc3)cc21

>  <Energy>  (84) 
156.2719083668457

>  <Genealogy>  (84) 
CN(CCC(=O)[O-])C(=O)n1c(C([NH-])=O)cc2ccc(-c3ccc(OC4COC4)nc3)cc21 (protonated)
CN(CCC(=O)[O-])C(=O)n1c(C([NH-])=O)cc2ccc(-c3ccc(OC4COC4)nc3)cc21 (3D coordinates assigned)
CN(CCC(=O)[O-])C(=O)n1c(C([NH-])=O)cc2ccc(-c3ccc(OC4COC4)nc3)cc21 (nonaromatic ring conformer: 156.2719083668457 kcal/mol)

>  <smiles>  (84) 
CN(CCC(=O)O)C(=O)n1c(C(N)=O)cc2ccc(-c3ccc(OC4COC4)nc3)cc21

>  <score_type>  (84) 
oracle

>  <origin>  (84) 
adg

>  <m_score__min__energy>  (84) 
-8.8699999999999992

>  <m_primary>  (84) 
energy

$$$$
88:0
     RDKit          3D

 41 43  0  0  0  0  0  0  0  0999 V2000
  140.5910  159.7570  134.5760 N   0  0  0  0  0  0  0  0  0  0  0  0
  141.1750  158.7730  135.4250 C   0  0  0  0  0  0  0  0  0  0  0  0
  141.4750  159.0810  136.6100 O   0  0  0  0  0  0  0  0  0  0  0  0
  141.3820  157.3880  134.9540 C   0  0  0  0  0  0  0  0  0  0  0  0
  142.4700  156.6050  135.3330 C   0  0  0  0  0  0  0  0  0  0  0  0
  142.2460  155.3690  134.7690 C   0  0  0  0  0  0  0  0  0  0  0  0
  143.0160  154.2100  134.8150 C   0  0  0  0  0  0  0  0  0  0  0  0
  142.5510  153.0840  134.1130 C   0  0  0  0  0  0  0  0  0  0  0  0
  141.3430  153.1440  133.3810 C   0  0  0  0  0  0  0  0  0  0  0  0
  140.8840  151.9890  132.6570 C   0  0  0  0  0  0  0  0  0  0  0  0
  140.4990  151.0210  132.0500 C   0  0  0  0  0  0  0  0  0  0  0  0
  140.0400  149.8650  131.3270 C   0  0  0  0  0  0  0  0  0  0  0  0
  139.1540  150.0150  130.2520 C   0  0  0  0  0  0  0  0  0  0  0  0
  138.7100  148.8890  129.5500 C   0  0  0  0  0  0  0  0  0  0  0  0
  139.1480  147.6140  129.9200 C   0  0  0  0  0  0  0  0  0  0  0  0
  138.7150  146.5240  129.2380 F   0  0  0  0  0  0  0  0  0  0  0  0
  140.0330  147.4620  130.9930 C   0  0  0  0  0  0  0  0  0  0  0  0
  140.4790  148.5860  131.6970 C   0  0  0  0  0  0  0  0  0  0  0  0
  140.5870  154.3340  133.3530 C   0  0  0  0  0  0  0  0  0  0  0  0
  141.0640  155.4350  134.0760 C   0  0  0  0  0  0  0  0  0  0  0  0
  140.5240  156.6690  134.1760 N   0  0  0  0  0  0  0  0  0  0  0  0
  139.3310  157.1280  133.5230 C   0  0  0  0  0  0  0  0  0  0  0  0
  138.4710  157.7820  134.1740 O   0  0  0  0  0  0  0  0  0  0  0  0
  139.1430  156.8700  132.1600 O   0  0  0  0  0  0  0  0  0  0  0  0
  138.7470  157.8650  131.2190 C   0  0  0  0  0  0  0  0  0  0  0  0
  139.4730  159.1860  131.4800 C   0  0  0  0  0  0  0  0  0  0  0  0
  138.7030  160.0130  132.3090 O   0  0  0  0  0  0  0  0  0  0  0  0
  139.7680  159.5290  133.9750 H   0  0  0  0  0  0  0  0  0  0  0  0
  143.3268  156.9096  135.9519 H   0  0  0  0  0  0  0  0  0  0  0  0
  143.9578  154.1763  135.3823 H   0  0  0  0  0  0  0  0  0  0  0  0
  143.1312  152.1497  134.1335 H   0  0  0  0  0  0  0  0  0  0  0  0
  138.8077  151.0174  129.9601 H   0  0  0  0  0  0  0  0  0  0  0  0
  138.0151  149.0072  128.7055 H   0  0  0  0  0  0  0  0  0  0  0  0
  140.3782  146.4587  131.2832 H   0  0  0  0  0  0  0  0  0  0  0  0
  141.1742  148.4661  132.5410 H   0  0  0  0  0  0  0  0  0  0  0  0
  139.6500  154.3960  132.7801 H   0  0  0  0  0  0  0  0  0  0  0  0
  138.9881  157.5164  130.2039 H   0  0  0  0  0  0  0  0  0  0  0  0
  137.6648  158.0336  131.3216 H   0  0  0  0  0  0  0  0  0  0  0  0
  140.4365  158.9793  131.9689 H   0  0  0  0  0  0  0  0  0  0  0  0
  139.6373  159.6977  130.5202 H   0  0  0  0  0  0  0  0  0  0  0  0
  138.8470  159.6980  133.2390 H   0  0  0  0  0  0  0  0  0  0  0  0
  1  2  1  0
  2  3  2  0
  2  4  1  0
  4  5  2  0
  5  6  1  0
  6  7  2  0
  7  8  1  0
  8  9  2  0
  9 10  1  0
 10 11  3  0
 11 12  1  0
 12 13  2  0
 13 14  1  0
 14 15  2  0
 15 16  1  0
 15 17  1  0
 17 18  2  0
  9 19  1  0
 19 20  2  0
 20 21  1  0
 21 22  1  0
 22 23  2  0
 22 24  1  0
 24 25  1  0
 25 26  1  0
 26 27  1  0
 21  4  1  0
 20  6  1  0
 18 12  1  0
  1 28  1  0
  5 29  1  0
  7 30  1  0
  8 31  1  0
 13 32  1  0
 14 33  1  0
 17 34  1  0
 18 35  1  0
 19 36  1  0
 25 37  1  0
 25 38  1  0
 26 39  1  0
 26 40  1  0
 27 41  1  0
M  CHG  1   1  -1
M  END
>  <UniqueID>  (85) 
85

>  <SMILES>  (85) 
[NH-]C(=O)c1cc2ccc(C#Cc3ccc(F)cc3)cc2n1C(=O)OCCO

>  <Energy>  (85) 
75.39041505664271

>  <Genealogy>  (85) 
[NH-]C(=O)c1cc2ccc(C#Cc3ccc(F)cc3)cc2n1C(=O)OCCO (protonated)
[NH-]C(=O)c1cc2ccc(C#Cc3ccc(F)cc3)cc2n1C(=O)OCCO (3D coordinates assigned)
[NH-]C(=O)c1cc2ccc(C#Cc3ccc(F)cc3)cc2n1C(=O)OCCO (optimized conformer: 75.39041505664271 kcal/mol)

>  <smiles>  (85) 
NC(=O)c1cc2ccc(C#Cc3ccc(F)cc3)cc2n1C(=O)OCCO

>  <score_type>  (85) 
oracle

>  <origin>  (85) 
adg

>  <m_score__min__energy>  (85) 
-8.3399999999999999

>  <m_primary>  (85) 
energy

$$$$
89:0
     RDKit          3D

 45 46  0  0  0  0  0  0  0  0999 V2000
  148.3590  154.5820  132.5990 C   0  0  0  0  0  0  0  0  0  0  0  0
  147.9250  155.9950  132.8550 C   0  0  0  0  0  0  0  0  0  0  0  0
  148.8870  157.0350  132.8990 C   0  0  0  0  0  0  0  0  0  0  0  0
  148.4920  158.3670  133.1090 C   0  0  0  0  0  0  0  0  0  0  0  0
  147.1320  158.6280  133.2560 C   0  0  0  0  0  0  0  0  0  0  0  0
  146.4740  159.8180  133.4760 C   0  0  0  0  0  0  0  0  0  0  0  0
  145.1210  159.4870  133.5320 C   0  0  0  0  0  0  0  0  0  0  0  0
  144.0400  160.4840  133.6770 C   0  0  0  0  0  0  0  0  0  0  0  0
  142.6960  160.1710  133.3230 N   0  0  0  0  0  0  0  0  0  0  0  0
  144.3130  161.6440  134.0890 O   0  0  0  0  0  0  0  0  0  0  0  0
  144.9530  158.1440  133.3640 N   0  0  0  0  0  0  0  0  0  0  0  0
  143.7330  157.3890  133.4080 C   0  0  0  0  0  0  0  0  0  0  0  0
  142.9380  157.4380  132.4300 O   0  0  0  0  0  0  0  0  0  0  0  0
  143.4240  156.5270  134.5650 C   0  0  0  0  0  0  0  0  0  0  0  0
  144.3680  156.0390  135.2420 O   0  0  0  0  0  0  0  0  0  0  0  0
  142.0630  156.2410  134.9170 N   0  0  0  0  0  0  0  0  0  0  0  0
  141.7260  155.4320  136.0880 C   0  0  0  0  0  0  0  0  0  0  0  0
  140.9910  156.2600  137.1080 C   0  0  0  0  0  0  0  0  0  0  0  0
  140.5890  155.6870  138.1570 O   0  0  0  0  0  0  0  0  0  0  0  0
  140.7450  157.6740  136.9260 N   0  0  0  0  0  0  0  0  0  0  0  0
  141.3660  158.6190  137.8600 C   0  0  0  0  0  0  0  0  0  0  0  0
  139.8150  158.1920  135.9090 C   0  0  0  0  0  0  0  0  0  0  0  0
  140.5370  159.1500  134.9640 C   0  0  0  0  0  0  0  0  0  0  0  0
  140.8320  158.4920  133.7640 O   0  0  0  0  0  0  0  0  0  0  0  0
  146.1900  157.6360  133.1900 C   0  0  0  0  0  0  0  0  0  0  0  0
  146.5540  156.2990  132.9920 C   0  0  0  0  0  0  0  0  0  0  0  0
  148.5170  154.0675  133.5583 H   0  0  0  0  0  0  0  0  0  0  0  0
  147.5805  154.0575  132.0255 H   0  0  0  0  0  0  0  0  0  0  0  0
  149.2977  154.5849  132.0255 H   0  0  0  0  0  0  0  0  0  0  0  0
  149.9529  156.7971  132.7675 H   0  0  0  0  0  0  0  0  0  0  0  0
  149.2337  159.1780  133.1558 H   0  0  0  0  0  0  0  0  0  0  0  0
  146.9212  160.8171  133.5844 H   0  0  0  0  0  0  0  0  0  0  0  0
  142.4840  159.4180  132.6320 H   0  0  0  0  0  0  0  0  0  0  0  0
  141.2980  156.5270  134.2660 H   0  0  0  0  0  0  0  0  0  0  0  0
  141.0879  154.5920  135.7760 H   0  0  0  0  0  0  0  0  0  0  0  0
  142.6558  155.0553  136.5392 H   0  0  0  0  0  0  0  0  0  0  0  0
  141.1585  158.3033  138.8931 H   0  0  0  0  0  0  0  0  0  0  0  0
  142.4532  158.6380  137.6937 H   0  0  0  0  0  0  0  0  0  0  0  0
  140.9520  159.6245  137.6937 H   0  0  0  0  0  0  0  0  0  0  0  0
  139.4067  157.3508  135.3296 H   0  0  0  0  0  0  0  0  0  0  0  0
  139.0018  158.7345  136.4133 H   0  0  0  0  0  0  0  0  0  0  0  0
  139.8915  160.0164  134.7574 H   0  0  0  0  0  0  0  0  0  0  0  0
  141.4717  159.4910  135.4332 H   0  0  0  0  0  0  0  0  0  0  0  0
  141.6890  158.8760  133.4430 H   0  0  0  0  0  0  0  0  0  0  0  0
  145.7921  155.5070  132.9445 H   0  0  0  0  0  0  0  0  0  0  0  0
  1  2  1  0
  2  3  2  0
  3  4  1  0
  4  5  2  0
  5  6  1  0
  6  7  2  0
  7  8  1  0
  8  9  1  0
  8 10  2  0
  7 11  1  0
 11 12  1  0
 12 13  2  0
 12 14  1  0
 14 15  2  0
 14 16  1  0
 16 17  1  0
 17 18  1  0
 18 19  2  0
 18 20  1  0
 20 21  1  0
 20 22  1  0
 22 23  1  0
 23 24  1  0
 11 25  1  0
 25 26  2  0
 26  2  1  0
 25  5  1  0
  1 27  1  0
  1 28  1  0
  1 29  1  0
  3 30  1  0
  4 31  1  0
  6 32  1  0
  9 33  1  0
 16 34  1  0
 17 35  1  0
 17 36  1  0
 21 37  1  0
 21 38  1  0
 21 39  1  0
 22 40  1  0
 22 41  1  0
 23 42  1  0
 23 43  1  0
 24 44  1  0
 26 45  1  0
M  CHG  1   9  -1
M  END
>  <UniqueID>  (86) 
86

>  <SMILES>  (86) 
Cc1ccc2cc(C([NH-])=O)n(C(=O)C(=O)NCC(=O)N(C)CCO)c2c1

>  <Energy>  (86) 
76.8385235964208

>  <Genealogy>  (86) 
Cc1ccc2cc(C([NH-])=O)n(C(=O)C(=O)NCC(=O)N(C)CCO)c2c1 (protonated)
Cc1ccc2cc(C([NH-])=O)n(C(=O)C(=O)NCC(=O)N(C)CCO)c2c1 (3D coordinates assigned)
Cc1ccc2cc(C([NH-])=O)n(C(=O)C(=O)NCC(=O)N(C)CCO)c2c1 (optimized conformer: 76.8385235964208 kcal/mol)

>  <smiles>  (86) 
Cc1ccc2cc(C(N)=O)n(C(=O)C(=O)NCC(=O)N(C)CCO)c2c1

>  <score_type>  (86) 
oracle

>  <origin>  (86) 
adg

>  <m_score__min__energy>  (86) 
-6.6699999999999999

>  <m_primary>  (86) 
energy

$$$$
90:0
     RDKit          3D

 45 46  0  0  0  0  0  0  0  0999 V2000
  149.1720  153.8570  132.5510 C   0  0  0  0  0  0  0  0  0  0  0  0
  148.7450  154.9820  132.6310 C   0  0  0  0  0  0  0  0  0  0  0  0
  148.2380  156.3250  132.7310 C   0  0  0  0  0  0  0  0  0  0  0  0
  149.1110  157.4260  132.5670 C   0  0  0  0  0  0  0  0  0  0  0  0
  148.6290  158.7410  132.6800 C   0  0  0  0  0  0  0  0  0  0  0  0
  147.2740  158.9170  132.9530 C   0  0  0  0  0  0  0  0  0  0  0  0
  146.5490  160.0710  133.1570 C   0  0  0  0  0  0  0  0  0  0  0  0
  145.2500  159.6460  133.4380 C   0  0  0  0  0  0  0  0  0  0  0  0
  144.1250  160.5610  133.7130 C   0  0  0  0  0  0  0  0  0  0  0  0
  142.7760  160.1430  133.5170 N   0  0  0  0  0  0  0  0  0  0  0  0
  144.3540  161.7360  134.1040 O   0  0  0  0  0  0  0  0  0  0  0  0
  145.1780  158.2870  133.4010 N   0  0  0  0  0  0  0  0  0  0  0  0
  144.0770  157.4540  133.7790 C   0  0  0  0  0  0  0  0  0  0  0  0
  143.5040  157.6410  134.8860 O   0  0  0  0  0  0  0  0  0  0  0  0
  143.5380  156.4370  132.8180 C   0  0  0  0  0  0  0  0  0  0  0  0
  142.1260  156.1710  133.1180 N   0  0  0  0  0  0  0  0  0  0  0  0
  141.7300  154.8770  133.6780 C   0  0  0  0  0  0  0  0  0  0  0  0
  141.1420  157.2150  133.0050 C   0  0  0  0  0  0  0  0  0  0  0  0
  141.3710  158.2310  132.2900 O   0  0  0  0  0  0  0  0  0  0  0  0
  139.9370  157.1110  133.7060 O   0  0  0  0  0  0  0  0  0  0  0  0
  139.8640  157.1690  135.1270 C   0  0  0  0  0  0  0  0  0  0  0  0
  140.0760  158.6140  135.6040 C   0  0  2  0  0  0  0  0  0  0  0  0
  140.3110  159.4720  134.5140 O   0  0  0  0  0  0  0  0  0  0  0  0
  141.2070  158.7310  136.6380 C   0  0  0  0  0  0  0  0  0  0  0  0
  142.2890  159.4480  136.1100 O   0  0  0  0  0  0  0  0  0  0  0  0
  146.4210  157.8560  133.1050 C   0  0  0  0  0  0  0  0  0  0  0  0
  146.8720  156.5380  133.0050 C   0  0  0  0  0  0  0  0  0  0  0  0
  149.5615  152.8308  132.4780 H   0  0  0  0  0  0  0  0  0  0  0  0
  150.1750  157.2514  132.3494 H   0  0  0  0  0  0  0  0  0  0  0  0
  149.2999  159.6040  132.5569 H   0  0  0  0  0  0  0  0  0  0  0  0
  146.9162  161.1068  133.1086 H   0  0  0  0  0  0  0  0  0  0  0  0
  142.4310  159.2400  133.9130 H   0  0  0  0  0  0  0  0  0  0  0  0
  143.6274  156.8211  131.7911 H   0  0  0  0  0  0  0  0  0  0  0  0
  144.1126  155.5041  132.9152 H   0  0  0  0  0  0  0  0  0  0  0  0
  141.7469  154.9322  134.7765 H   0  0  0  0  0  0  0  0  0  0  0  0
  140.7140  154.6263  133.3391 H   0  0  0  0  0  0  0  0  0  0  0  0
  142.4317  154.1006  133.3391 H   0  0  0  0  0  0  0  0  0  0  0  0
  138.8747  156.8180  135.4558 H   0  0  0  0  0  0  0  0  0  0  0  0
  140.6481  156.5278  135.5559 H   0  0  0  0  0  0  0  0  0  0  0  0
  139.1468  158.9232  136.1050 H   0  0  0  0  0  0  0  0  0  0  0  0
  141.2210  159.2780  134.1670 H   0  0  0  0  0  0  0  0  0  0  0  0
  140.8287  159.2528  137.5294 H   0  0  0  0  0  0  0  0  0  0  0  0
  141.5489  157.7199  136.9038 H   0  0  0  0  0  0  0  0  0  0  0  0
  142.3520  159.1870  135.1550 H   0  0  0  0  0  0  0  0  0  0  0  0
  146.1818  155.6916  133.1362 H   0  0  0  0  0  0  0  0  0  0  0  0
  1  2  3  0
  2  3  1  0
  3  4  2  0
  4  5  1  0
  5  6  2  0
  6  7  1  0
  7  8  2  0
  8  9  1  0
  9 10  1  0
  9 11  2  0
  8 12  1  0
 12 13  1  0
 13 14  2  0
 13 15  1  0
 15 16  1  0
 16 17  1  0
 16 18  1  0
 18 19  2  0
 18 20  1  0
 20 21  1  0
 21 22  1  0
 22 23  1  0
 22 24  1  0
 24 25  1  0
 12 26  1  0
 26 27  2  0
 27  3  1  0
 26  6  1  0
  1 28  1  0
  4 29  1  0
  5 30  1  0
  7 31  1  0
 10 32  1  0
 15 33  1  0
 15 34  1  0
 17 35  1  0
 17 36  1  0
 17 37  1  0
 21 38  1  0
 21 39  1  0
 22 40  1  1
 23 41  1  0
 24 42  1  0
 24 43  1  0
 25 44  1  0
 27 45  1  0
M  CHG  1  10  -1
M  END
>  <UniqueID>  (87) 
87

>  <SMILES>  (87) 
C#Cc1ccc2cc(C([NH-])=O)n(C(=O)CN(C)C(=O)OC[C@H](O)CO)c2c1

>  <Energy>  (87) 
70.79936517184522

>  <Genealogy>  (87) 
C#Cc1ccc2cc(C([NH-])=O)n(C(=O)CN(C)C(=O)OCC(O)CO)c2c1 (protonated)
C#Cc1ccc2cc(C([NH-])=O)n(C(=O)CN(C)C(=O)OC[C@H](O)CO)c2c1 (chirality)
C#Cc1ccc2cc(C([NH-])=O)n(C(=O)CN(C)C(=O)OC[C@H](O)CO)c2c1 (3D coordinates assigned)
C#Cc1ccc2cc(C([NH-])=O)n(C(=O)CN(C)C(=O)OC[C@H](O)CO)c2c1 (optimized conformer: 70.79936517184522 kcal/mol)

>  <smiles>  (87) 
C#Cc1ccc2cc(C(N)=O)n(C(=O)CN(C)C(=O)OCC(O)CO)c2c1

>  <score_type>  (87) 
oracle

>  <origin>  (87) 
adg

>  <m_score__min__energy>  (87) 
-5.8099999999999996

>  <m_primary>  (87) 
energy

$$$$
91:0
     RDKit          3D

 37 38  0  0  0  0  0  0  0  0999 V2000
  148.1730  154.7730  132.6690 C   0  0  0  0  0  0  0  0  0  0  0  0
  147.8300  156.2250  132.8200 C   0  0  0  0  0  0  0  0  0  0  0  0
  148.8490  157.2060  132.7510 C   0  0  0  0  0  0  0  0  0  0  0  0
  148.5420  158.5680  132.9110 C   0  0  0  0  0  0  0  0  0  0  0  0
  147.2160  158.9140  133.1520 C   0  0  0  0  0  0  0  0  0  0  0  0
  146.6390  160.1510  133.3250 C   0  0  0  0  0  0  0  0  0  0  0  0
  145.2820  159.9020  133.5260 C   0  0  0  0  0  0  0  0  0  0  0  0
  144.2900  160.9440  133.8740 C   0  0  0  0  0  0  0  0  0  0  0  0
  142.8910  160.7020  133.7180 N   0  0  0  0  0  0  0  0  0  0  0  0
  144.6770  162.0680  134.2910 O   0  0  0  0  0  0  0  0  0  0  0  0
  145.0310  158.5640  133.4680 N   0  0  0  0  0  0  0  0  0  0  0  0
  143.7600  157.8980  133.5460 C   0  0  0  0  0  0  0  0  0  0  0  0
  143.0120  157.8590  132.5320 O   0  0  0  0  0  0  0  0  0  0  0  0
  143.2650  157.3260  134.8410 C   0  0  0  0  0  0  0  0  0  0  0  0
  141.5530  156.7210  134.6540 S   0  0  0  0  0  0  0  0  0  0  0  0
  140.8080  158.3470  134.7750 C   0  0  0  0  0  0  0  0  0  0  0  0
  141.4710  159.2980  135.2670 O   0  0  0  0  0  0  0  0  0  0  0  0
  139.4970  158.5370  134.3260 O   0  0  0  0  0  0  0  0  0  0  0  0
  139.1280  158.4900  132.9500 C   0  0  0  0  0  0  0  0  0  0  0  0
  139.5730  159.7320  132.2490 C   0  0  0  0  0  0  0  0  0  0  0  0
  139.0610  160.0570  131.1440 O   0  0  0  0  0  0  0  0  0  0  0  0
  140.5700  160.5230  132.8040 O   0  0  0  0  0  0  0  0  0  0  0  0
  146.2250  157.9730  133.2500 C   0  0  0  0  0  0  0  0  0  0  0  0
  146.4990  156.6110  133.0870 C   0  0  0  0  0  0  0  0  0  0  0  0
  148.2809  154.3163  133.6639 H   0  0  0  0  0  0  0  0  0  0  0  0
  147.3708  154.2623  132.1162 H   0  0  0  0  0  0  0  0  0  0  0  0
  149.1190  154.6753  132.1162 H   0  0  0  0  0  0  0  0  0  0  0  0
  149.8898  156.8992  132.5706 H   0  0  0  0  0  0  0  0  0  0  0  0
  149.3260  159.3370  132.8476 H   0  0  0  0  0  0  0  0  0  0  0  0
  147.1418  161.1292  133.3083 H   0  0  0  0  0  0  0  0  0  0  0  0
  142.2030  161.4570  133.9330 H   0  0  0  0  0  0  0  0  0  0  0  0
  142.5300  159.7660  133.4320 H   0  0  0  0  0  0  0  0  0  0  0  0
  143.9145  156.4901  135.1402 H   0  0  0  0  0  0  0  0  0  0  0  0
  143.2843  158.1125  135.6098 H   0  0  0  0  0  0  0  0  0  0  0  0
  139.6021  157.6173  132.4772 H   0  0  0  0  0  0  0  0  0  0  0  0
  138.0333  158.4114  132.8765 H   0  0  0  0  0  0  0  0  0  0  0  0
  145.6983  155.8607  133.1649 H   0  0  0  0  0  0  0  0  0  0  0  0
  1  2  1  0
  2  3  2  0
  3  4  1  0
  4  5  2  0
  5  6  1  0
  6  7  2  0
  7  8  1  0
  8  9  1  0
  8 10  2  0
  7 11  1  0
 11 12  1  0
 12 13  2  0
 12 14  1  0
 14 15  1  0
 15 16  1  0
 16 17  2  0
 16 18  1  0
 18 19  1  0
 19 20  1  0
 20 21  2  0
 20 22  1  0
 11 23  1  0
 23 24  2  0
 24  2  1  0
 23  5  1  0
  1 25  1  0
  1 26  1  0
  1 27  1  0
  3 28  1  0
  4 29  1  0
  6 30  1  0
  9 31  1  0
  9 32  1  0
 14 33  1  0
 14 34  1  0
 19 35  1  0
 19 36  1  0
 24 37  1  0
M  CHG  1  22  -1
M  END
>  <UniqueID>  (88) 
88

>  <SMILES>  (88) 
Cc1ccc2cc(C(N)=O)n(C(=O)CSC(=O)OCC(=O)[O-])c2c1

>  <Energy>  (88) 
66.27849454973165

>  <Genealogy>  (88) 
Cc1ccc2cc(C(N)=O)n(C(=O)CSC(=O)OCC(=O)[O-])c2c1 (protonated)
Cc1ccc2cc(C(N)=O)n(C(=O)CSC(=O)OCC(=O)[O-])c2c1 (3D coordinates assigned)
Cc1ccc2cc(C(N)=O)n(C(=O)CSC(=O)OCC(=O)[O-])c2c1 (optimized conformer: 66.27849454973165 kcal/mol)

>  <smiles>  (88) 
Cc1ccc2cc(C(N)=O)n(C(=O)CSC(=O)OCC(=O)O)c2c1

>  <score_type>  (88) 
oracle

>  <origin>  (88) 
adg

>  <m_score__min__energy>  (88) 
-7.3499999999999996

>  <m_primary>  (88) 
energy

$$$$
92:0
     RDKit          3D

 56 57  0  0  0  0  0  0  0  0999 V2000
  150.3010  150.3990  130.9950 C   0  0  0  0  0  0  0  0  0  0  0  0
  149.8360  150.5000  132.3880 N   0  0  0  0  0  0  0  0  0  0  0  0
  148.4560  150.0030  132.5010 C   0  0  0  0  0  0  0  0  0  0  0  0
  149.9600  151.8840  132.9060 C   0  0  0  0  0  0  0  0  0  0  0  0
  148.8970  152.7760  132.2560 C   0  0  0  0  0  0  0  0  0  0  0  0
  149.0410  154.2440  132.6880 C   0  0  0  0  0  0  0  0  0  0  0  0
  147.7170  154.8570  132.9020 N   0  0  0  0  0  0  0  0  0  0  0  0
  146.5350  153.9910  132.9890 C   0  0  0  0  0  0  0  0  0  0  0  0
  147.5600  156.2960  133.0100 C   0  0  0  0  0  0  0  0  0  0  0  0
  148.6940  157.1520  132.9230 C   0  0  0  0  0  0  0  0  0  0  0  0
  148.5610  158.5460  133.0370 C   0  0  0  0  0  0  0  0  0  0  0  0
  147.2890  159.0660  133.2430 C   0  0  0  0  0  0  0  0  0  0  0  0
  146.8760  160.3720  133.3730 C   0  0  0  0  0  0  0  0  0  0  0  0
  145.4970  160.3080  133.5540 C   0  0  0  0  0  0  0  0  0  0  0  0
  144.6550  161.4950  133.8150 C   0  0  0  0  0  0  0  0  0  0  0  0
  145.2630  162.7270  134.1880 N   0  0  0  0  0  0  0  0  0  0  0  0
  143.4000  161.4270  133.7390 O   0  0  0  0  0  0  0  0  0  0  0  0
  145.0740  159.0120  133.5310 N   0  0  0  0  0  0  0  0  0  0  0  0
  143.7300  158.5140  133.6210 C   0  0  0  0  0  0  0  0  0  0  0  0
  143.2230  157.8950  132.6450 O   0  0  0  0  0  0  0  0  0  0  0  0
  143.0130  158.6900  134.8140 O   0  0  0  0  0  0  0  0  0  0  0  0
  141.5890  158.7870  134.9470 C   0  0  0  0  0  0  0  0  0  0  0  0
  141.2080  159.3620  136.3230 C   0  0  0  0  0  0  0  0  0  0  0  0
  141.0240  157.3650  134.8240 C   0  0  0  0  0  0  0  0  0  0  0  0
  141.0050  159.6520  133.8150 C   0  0  0  0  0  0  0  0  0  0  0  0
  146.1850  158.2650  133.3430 C   0  0  0  0  0  0  0  0  0  0  0  0
  146.2830  156.8750  133.2150 C   0  0  0  0  0  0  0  0  0  0  0  0
  151.3759  150.1655  130.9833 H   0  0  0  0  0  0  0  0  0  0  0  0
  149.7467  149.6003  130.4804 H   0  0  0  0  0  0  0  0  0  0  0  0
  150.1279  151.3557  130.4804 H   0  0  0  0  0  0  0  0  0  0  0  0
  148.1870  149.9061  133.5632 H   0  0  0  0  0  0  0  0  0  0  0  0
  147.7702  150.7107  132.0122 H   0  0  0  0  0  0  0  0  0  0  0  0
  148.3789  149.0206  132.0122 H   0  0  0  0  0  0  0  0  0  0  0  0
  149.8171  151.8804  133.9967 H   0  0  0  0  0  0  0  0  0  0  0  0
  150.9598  152.2747  132.6657 H   0  0  0  0  0  0  0  0  0  0  0  0
  149.0012  152.7149  131.1626 H   0  0  0  0  0  0  0  0  0  0  0  0
  147.9078  152.4200  132.5798 H   0  0  0  0  0  0  0  0  0  0  0  0
  149.6158  154.2899  133.6248 H   0  0  0  0  0  0  0  0  0  0  0  0
  149.5622  154.7970  131.8927 H   0  0  0  0  0  0  0  0  0  0  0  0
  146.2893  153.8110  134.0460 H   0  0  0  0  0  0  0  0  0  0  0  0
  145.6841  154.4810  132.4931 H   0  0  0  0  0  0  0  0  0  0  0  0
  146.7458  153.0320  132.4931 H   0  0  0  0  0  0  0  0  0  0  0  0
  149.6908  156.7149  132.7639 H   0  0  0  0  0  0  0  0  0  0  0  0
  149.4379  159.2063  132.9653 H   0  0  0  0  0  0  0  0  0  0  0  0
  147.5027  161.2755  133.3408 H   0  0  0  0  0  0  0  0  0  0  0  0
  146.1360  163.0590  133.7200 H   0  0  0  0  0  0  0  0  0  0  0  0
  141.6293  158.7261  137.1155 H   0  0  0  0  0  0  0  0  0  0  0  0
  141.6099  160.3815  136.4184 H   0  0  0  0  0  0  0  0  0  0  0  0
  140.1125  159.3893  136.4184 H   0  0  0  0  0  0  0  0  0  0  0  0
  140.8584  156.9481  135.8284 H   0  0  0  0  0  0  0  0  0  0  0  0
  140.0697  157.3956  134.2777 H   0  0  0  0  0  0  0  0  0  0  0  0
  141.7391  156.7323  134.2777 H   0  0  0  0  0  0  0  0  0  0  0  0
  140.4393  160.4899  134.2484 H   0  0  0  0  0  0  0  0  0  0  0  0
  141.8236  160.0446  133.1939 H   0  0  0  0  0  0  0  0  0  0  0  0
  140.3349  159.0395  133.1939 H   0  0  0  0  0  0  0  0  0  0  0  0
  145.3846  156.2429  133.2725 H   0  0  0  0  0  0  0  0  0  0  0  0
  1  2  1  0
  2  3  1  0
  2  4  1  0
  4  5  1  0
  5  6  1  0
  6  7  1  0
  7  8  1  0
  7  9  1  0
  9 10  2  0
 10 11  1  0
 11 12  2  0
 12 13  1  0
 13 14  2  0
 14 15  1  0
 15 16  1  0
 15 17  2  0
 14 18  1  0
 18 19  1  0
 19 20  2  0
 19 21  1  0
 21 22  1  0
 22 23  1  0
 22 24  1  0
 22 25  1  0
 18 26  1  0
 26 27  2  0
 27  9  1  0
 26 12  1  0
  1 28  1  0
  1 29  1  0
  1 30  1  0
  3 31  1  0
  3 32  1  0
  3 33  1  0
  4 34  1  0
  4 35  1  0
  5 36  1  0
  5 37  1  0
  6 38  1  0
  6 39  1  0
  8 40  1  0
  8 41  1  0
  8 42  1  0
 10 43  1  0
 11 44  1  0
 13 45  1  0
 16 46  1  0
 23 47  1  0
 23 48  1  0
 23 49  1  0
 24 50  1  0
 24 51  1  0
 24 52  1  0
 25 53  1  0
 25 54  1  0
 25 55  1  0
 27 56  1  0
M  CHG  1  16  -1
M  END
>  <UniqueID>  (89) 
89

>  <SMILES>  (89) 
CN(C)CCCN(C)c1ccc2cc(C([NH-])=O)n(C(=O)OC(C)(C)C)c2c1

>  <Energy>  (89) 
87.05164518056966

>  <Genealogy>  (89) 
CN(C)CCCN(C)c1ccc2cc(C([NH-])=O)n(C(=O)OC(C)(C)C)c2c1 (protonated)
CN(C)CCCN(C)c1ccc2cc(C([NH-])=O)n(C(=O)OC(C)(C)C)c2c1 (3D coordinates assigned)
CN(C)CCCN(C)c1ccc2cc(C([NH-])=O)n(C(=O)OC(C)(C)C)c2c1 (optimized conformer: 87.05164518056966 kcal/mol)

>  <smiles>  (89) 
CN(C)CCCN(C)c1ccc2cc(C(N)=O)n(C(=O)OC(C)(C)C)c2c1

>  <score_type>  (89) 
oracle

>  <origin>  (89) 
adg

>  <m_score__min__energy>  (89) 
-7.8300000000000001

>  <m_primary>  (89) 
energy

$$$$
93:0
     RDKit          3D

 52 53  0  0  0  0  0  0  0  0999 V2000
  149.4540  154.3500  132.6060 C   0  0  0  0  0  0  0  0  0  0  0  0
  148.0580  154.5830  132.9980 N   0  0  0  0  0  0  0  0  0  0  0  0
  147.1860  153.4290  133.2440 C   0  0  0  0  0  0  0  0  0  0  0  0
  147.5510  155.9350  133.1480 C   0  0  0  0  0  0  0  0  0  0  0  0
  148.4440  157.0380  133.2590 C   0  0  0  0  0  0  0  0  0  0  0  0
  147.9630  158.3500  133.4020 C   0  0  0  0  0  0  0  0  0  0  0  0
  146.5860  158.5390  133.4430 C   0  0  0  0  0  0  0  0  0  0  0  0
  145.8600  159.7040  133.5490 C   0  0  0  0  0  0  0  0  0  0  0  0
  144.5270  159.3050  133.5320 C   0  0  0  0  0  0  0  0  0  0  0  0
  143.3980  160.2420  133.7010 C   0  0  0  0  0  0  0  0  0  0  0  0
  142.0520  159.7720  133.7780 N   0  0  0  0  0  0  0  0  0  0  0  0
  143.6330  161.4730  133.8430 O   0  0  0  0  0  0  0  0  0  0  0  0
  144.4280  157.9500  133.4050 N   0  0  0  0  0  0  0  0  0  0  0  0
  143.2300  157.1720  133.2340 C   0  0  0  0  0  0  0  0  0  0  0  0
  142.4810  157.3810  132.2420 O   0  0  0  0  0  0  0  0  0  0  0  0
  142.9100  156.1710  134.1550 O   0  0  0  0  0  0  0  0  0  0  0  0
  142.4610  154.8780  133.7670 C   0  0  0  0  0  0  0  0  0  0  0  0
  140.9530  154.9040  133.5510 C   0  0  0  0  0  0  0  0  0  0  0  0
  140.4340  156.1390  134.0030 O   0  0  0  0  0  0  0  0  0  0  0  0
  139.6730  156.7610  132.9830 C   0  0  0  0  0  0  0  0  0  0  0  0
  139.0610  158.0650  133.4920 C   0  0  0  0  0  0  0  0  0  0  0  0
  139.9080  158.6330  134.4750 O   0  0  0  0  0  0  0  0  0  0  0  0
  139.5320  158.2470  135.7860 C   0  0  0  0  0  0  0  0  0  0  0  0
  140.7740  158.0360  136.6540 C   0  0  0  0  0  0  0  0  0  0  0  0
  141.9260  158.0460  135.8560 O   0  0  0  0  0  0  0  0  0  0  0  0
  145.7030  157.4960  133.3560 C   0  0  0  0  0  0  0  0  0  0  0  0
  146.1540  156.1800  133.1870 C   0  0  0  0  0  0  0  0  0  0  0  0
  150.0756  154.2463  133.5076 H   0  0  0  0  0  0  0  0  0  0  0  0
  149.5182  153.4287  132.0084 H   0  0  0  0  0  0  0  0  0  0  0  0
  149.8139  155.2005  132.0084 H   0  0  0  0  0  0  0  0  0  0  0  0
  147.0729  153.2793  134.3279 H   0  0  0  0  0  0  0  0  0  0  0  0
  146.1991  153.6127  132.7943 H   0  0  0  0  0  0  0  0  0  0  0  0
  147.6322  152.5298  132.7943 H   0  0  0  0  0  0  0  0  0  0  0  0
  149.5292  156.8599  133.2324 H   0  0  0  0  0  0  0  0  0  0  0  0
  148.6546  159.2019  133.4792 H   0  0  0  0  0  0  0  0  0  0  0  0
  146.2498  160.7294  133.6297 H   0  0  0  0  0  0  0  0  0  0  0  0
  141.8400  158.7500  133.8230 H   0  0  0  0  0  0  0  0  0  0  0  0
  141.2670  160.4480  133.9000 H   0  0  0  0  0  0  0  0  0  0  0  0
  142.9597  154.5826  132.8321 H   0  0  0  0  0  0  0  0  0  0  0  0
  142.7041  154.1541  134.5587 H   0  0  0  0  0  0  0  0  0  0  0  0
  140.7338  154.7841  132.4798 H   0  0  0  0  0  0  0  0  0  0  0  0
  140.4874  154.0820  134.1145 H   0  0  0  0  0  0  0  0  0  0  0  0
  140.3265  156.9784  132.1253 H   0  0  0  0  0  0  0  0  0  0  0  0
  138.8624  156.0821  132.6796 H   0  0  0  0  0  0  0  0  0  0  0  0
  138.9487  158.7687  132.6541 H   0  0  0  0  0  0  0  0  0  0  0  0
  138.0746  157.8590  133.9332 H   0  0  0  0  0  0  0  0  0  0  0  0
  138.9076  159.0355  136.2314 H   0  0  0  0  0  0  0  0  0  0  0  0
  138.9677  157.3042  135.7335 H   0  0  0  0  0  0  0  0  0  0  0  0
  140.8396  158.8436  137.3979 H   0  0  0  0  0  0  0  0  0  0  0  0
  140.6968  157.0640  137.1631 H   0  0  0  0  0  0  0  0  0  0  0  0
  141.6790  157.5900  135.0080 H   0  0  0  0  0  0  0  0  0  0  0  0
  145.4375  155.3514  133.0863 H   0  0  0  0  0  0  0  0  0  0  0  0
  1  2  1  0
  2  3  1  0
  2  4  1  0
  4  5  2  0
  5  6  1  0
  6  7  2  0
  7  8  1  0
  8  9  2  0
  9 10  1  0
 10 11  1  0
 10 12  2  0
  9 13  1  0
 13 14  1  0
 14 15  2  0
 14 16  1  0
 16 17  1  0
 17 18  1  0
 18 19  1  0
 19 20  1  0
 20 21  1  0
 21 22  1  0
 22 23  1  0
 23 24  1  0
 24 25  1  0
 13 26  1  0
 26 27  2  0
 27  4  1  0
 26  7  1  0
  1 28  1  0
  1 29  1  0
  1 30  1  0
  3 31  1  0
  3 32  1  0
  3 33  1  0
  5 34  1  0
  6 35  1  0
  8 36  1  0
 11 37  1  0
 11 38  1  0
 17 39  1  0
 17 40  1  0
 18 41  1  0
 18 42  1  0
 20 43  1  0
 20 44  1  0
 21 45  1  0
 21 46  1  0
 23 47  1  0
 23 48  1  0
 24 49  1  0
 24 50  1  0
 25 51  1  0
 27 52  1  0
M  END
>  <UniqueID>  (90) 
90

>  <SMILES>  (90) 
CN(C)c1ccc2cc(C(N)=O)n(C(=O)OCCOCCOCCO)c2c1

>  <Energy>  (90) 
89.15432849577515

>  <Genealogy>  (90) 
CN(C)c1ccc2cc(C(N)=O)n(C(=O)OCCOCCOCCO)c2c1 (3D coordinates assigned)
CN(C)c1ccc2cc(C(N)=O)n(C(=O)OCCOCCOCCO)c2c1 (optimized conformer: 89.15432849577515 kcal/mol)

>  <smiles>  (90) 
CN(C)c1ccc2cc(C(N)=O)n(C(=O)OCCOCCOCCO)c2c1

>  <score_type>  (90) 
oracle

>  <origin>  (90) 
adg

>  <m_score__min__energy>  (90) 
-5.2199999999999998

>  <m_primary>  (90) 
energy

$$$$
94:0
     RDKit          3D

 53 55  0  0  0  0  0  0  0  0999 V2000
  148.7810  158.9740  134.0550 C   0  0  0  0  0  0  0  0  0  0  0  0
  147.8260  159.5760  133.1150 N   0  0  0  0  0  0  0  0  0  0  0  0
  148.3670  160.3370  131.9750 C   0  0  0  0  0  0  0  0  0  0  0  0
  149.5670  159.6190  131.3470 C   0  0  0  0  0  0  0  0  0  0  0  0
  150.1670  160.4170  130.3630 O   0  0  0  0  0  0  0  0  0  0  0  0
  146.3930  159.4230  133.3220 C   0  0  0  0  0  0  0  0  0  0  0  0
  145.5540  160.5650  133.4670 C   0  0  0  0  0  0  0  0  0  0  0  0
  144.1750  160.4310  133.6900 C   0  0  0  0  0  0  0  0  0  0  0  0
  143.6430  159.1500  133.7440 C   0  0  0  0  0  0  0  0  0  0  0  0
  142.3590  158.7400  134.0070 C   0  0  0  0  0  0  0  0  0  0  0  0
  142.4010  157.3470  133.9920 C   0  0  0  0  0  0  0  0  0  0  0  0
  141.2120  156.5010  134.2420 C   0  0  0  0  0  0  0  0  0  0  0  0
  140.7400  155.5760  133.2680 N   0  0  0  0  0  0  0  0  0  0  0  0
  140.5910  156.6110  135.3330 O   0  0  0  0  0  0  0  0  0  0  0  0
  143.6640  156.9130  133.7040 N   0  0  0  0  0  0  0  0  0  0  0  0
  144.1400  155.5530  133.6420 C   0  0  0  0  0  0  0  0  0  0  0  0
  145.1380  155.2290  134.3430 O   0  0  0  0  0  0  0  0  0  0  0  0
  143.5340  154.5940  132.7280 N   0  0  1  0  0  0  0  0  0  0  0  0
  144.3190  154.4870  131.4830 C   0  0  0  0  0  0  0  0  0  0  0  0
  143.2380  153.2470  133.3000 C   0  0  2  0  0  0  0  0  0  0  0  0
  143.9600  152.0850  132.6070 C   0  0  0  0  0  0  0  0  0  0  0  0
  143.0620  150.8590  132.7840 C   0  0  0  0  0  0  0  0  0  0  0  0
  141.8330  151.3120  133.5680 C   0  0  0  0  0  0  0  0  0  0  0  0
  141.7610  152.8260  133.4060 C   0  0  2  0  0  0  0  0  0  0  0  0
  141.0380  153.1360  132.2460 O   0  0  0  0  0  0  0  0  0  0  0  0
  144.4140  158.0320  133.5770 C   0  0  0  0  0  0  0  0  0  0  0  0
  145.7990  158.1360  133.3960 C   0  0  0  0  0  0  0  0  0  0  0  0
  148.4580  159.1776  135.0866 H   0  0  0  0  0  0  0  0  0  0  0  0
  148.8211  157.8870  133.8911 H   0  0  0  0  0  0  0  0  0  0  0  0
  149.7790  159.4066  133.8911 H   0  0  0  0  0  0  0  0  0  0  0  0
  147.5802  160.4522  131.2150 H   0  0  0  0  0  0  0  0  0  0  0  0
  148.7015  161.3193  132.3399 H   0  0  0  0  0  0  0  0  0  0  0  0
  150.3057  159.3979  132.1315 H   0  0  0  0  0  0  0  0  0  0  0  0
  149.2146  158.6881  130.8787 H   0  0  0  0  0  0  0  0  0  0  0  0
  150.9720  160.8230  130.7790 H   0  0  0  0  0  0  0  0  0  0  0  0
  145.9952  161.5706  133.4030 H   0  0  0  0  0  0  0  0  0  0  0  0
  143.5340  161.3157  133.8183 H   0  0  0  0  0  0  0  0  0  0  0  0
  141.4815  159.3773  134.1909 H   0  0  0  0  0  0  0  0  0  0  0  0
  141.3580  155.2470  132.4950 H   0  0  0  0  0  0  0  0  0  0  0  0
  142.6030  154.9780  132.4450 H   0  0  0  0  0  0  0  0  0  0  0  0
  145.3810  154.3423  131.7304 H   0  0  0  0  0  0  0  0  0  0  0  0
  143.9593  153.6296  130.8953 H   0  0  0  0  0  0  0  0  0  0  0  0
  144.2019  155.4094  130.8953 H   0  0  0  0  0  0  0  0  0  0  0  0
  143.6231  153.4181  134.3161 H   0  0  0  0  0  0  0  0  0  0  0  0
  144.0986  152.3052  131.5382 H   0  0  0  0  0  0  0  0  0  0  0  0
  144.9574  151.9174  133.0395 H   0  0  0  0  0  0  0  0  0  0  0  0
  142.7596  150.4678  131.8014 H   0  0  0  0  0  0  0  0  0  0  0  0
  143.5939  150.0581  133.3184 H   0  0  0  0  0  0  0  0  0  0  0  0
  140.9260  150.8412  133.1610 H   0  0  0  0  0  0  0  0  0  0  0  0
  141.9044  151.0247  134.6274 H   0  0  0  0  0  0  0  0  0  0  0  0
  141.2495  153.3456  134.2296 H   0  0  0  0  0  0  0  0  0  0  0  0
  140.6140  154.0210  132.4020 H   0  0  0  0  0  0  0  0  0  0  0  0
  146.4189  157.2312  133.3122 H   0  0  0  0  0  0  0  0  0  0  0  0
  1  2  1  0
  2  3  1  0
  3  4  1  0
  4  5  1  0
  2  6  1  0
  6  7  2  0
  7  8  1  0
  8  9  2  0
  9 10  1  0
 10 11  2  0
 11 12  1  0
 12 13  1  0
 12 14  2  0
 11 15  1  0
 15 16  1  0
 16 17  2  0
 16 18  1  0
 18 19  1  0
 18 20  1  0
 20 21  1  0
 21 22  1  0
 22 23  1  0
 23 24  1  0
 24 25  1  0
 15 26  1  0
 26 27  2  0
 27  6  1  0
 26  9  1  0
 24 20  1  0
  1 28  1  0
  1 29  1  0
  1 30  1  0
  3 31  1  0
  3 32  1  0
  4 33  1  0
  4 34  1  0
  5 35  1  0
  7 36  1  0
  8 37  1  0
 10 38  1  0
 13 39  1  0
 18 40  1  6
 19 41  1  0
 19 42  1  0
 19 43  1  0
 20 44  1  1
 21 45  1  0
 21 46  1  0
 22 47  1  0
 22 48  1  0
 23 49  1  0
 23 50  1  0
 24 51  1  1
 25 52  1  0
 27 53  1  0
M  CHG  2  13  -1  18   1
M  END
>  <UniqueID>  (91) 
91

>  <SMILES>  (91) 
CN(CCO)c1ccc2cc(C([NH-])=O)n(C(=O)[N@@H+](C)[C@@H]3CCC[C@@H]3O)c2c1

>  <Energy>  (91) 
106.01056695848216

>  <Genealogy>  (91) 
CN(CCO)c1ccc2cc(C([NH-])=O)n(C(=O)[NH+](C)[C@@H]3CCCC3O)c2c1 (protonated)
CN(CCO)c1ccc2cc(C([NH-])=O)n(C(=O)[N@@H+](C)[C@@H]3CCC[C@@H]3O)c2c1 (chirality)
CN(CCO)c1ccc2cc(C([NH-])=O)n(C(=O)[N@@H+](C)[C@@H]3CCC[C@@H]3O)c2c1 (3D coordinates assigned)
CN(CCO)c1ccc2cc(C([NH-])=O)n(C(=O)[N@@H+](C)[C@@H]3CCC[C@@H]3O)c2c1 (nonaromatic ring conformer: 106.01056695848216 kcal/mol)

>  <smiles>  (91) 
CN(CCO)c1ccc2cc(C(N)=O)n(C(=O)N(C)[C@@H]3CCCC3O)c2c1

>  <score_type>  (91) 
oracle

>  <origin>  (91) 
adg

>  <m_score__min__energy>  (91) 
-6.8799999999999999

>  <m_primary>  (91) 
energy

$$$$
95:0
     RDKit          3D

 33 34  0  0  0  0  0  0  0  0999 V2000
  148.7290  158.6930  134.4110 N   0  0  0  0  0  0  0  0  0  0  0  0
  147.8910  159.0120  133.3050 C   0  0  0  0  0  0  0  0  0  0  0  0
  148.3880  159.0680  132.1480 O   0  0  0  0  0  0  0  0  0  0  0  0
  146.4420  159.2340  133.4910 C   0  0  0  0  0  0  0  0  0  0  0  0
  145.8590  160.4990  133.5530 C   0  0  0  0  0  0  0  0  0  0  0  0
  144.5040  160.2700  133.6470 C   0  0  0  0  0  0  0  0  0  0  0  0
  143.4450  161.1700  133.7360 C   0  0  0  0  0  0  0  0  0  0  0  0
  142.1450  160.6480  133.8380 C   0  0  0  0  0  0  0  0  0  0  0  0
  141.9290  159.2470  133.8610 C   0  0  0  0  0  0  0  0  0  0  0  0
  140.5300  158.7010  133.9430 C   0  0  0  0  0  0  0  0  0  0  0  0
  140.1090  158.5790  135.3720 C   0  0  0  0  0  0  0  0  0  0  0  0
  139.1520  157.8250  135.6880 O   0  0  0  0  0  0  0  0  0  0  0  0
  140.7410  159.3360  136.3500 O   0  0  0  0  0  0  0  0  0  0  0  0
  143.0270  158.3650  133.7550 C   0  0  0  0  0  0  0  0  0  0  0  0
  144.3080  158.9140  133.6440 C   0  0  0  0  0  0  0  0  0  0  0  0
  145.4860  158.2650  133.5520 N   0  0  0  0  0  0  0  0  0  0  0  0
  145.6640  156.8420  133.6050 C   0  0  0  0  0  0  0  0  0  0  0  0
  145.1910  156.1980  134.5810 O   0  0  0  0  0  0  0  0  0  0  0  0
  146.5600  156.1600  132.6080 C   0  0  0  0  0  0  0  0  0  0  0  0
  148.1660  155.6780  133.3270 P   0  0  1  0  0  0  0  0  0  0  0  0
  148.1530  155.9300  134.8180 O   0  0  0  0  0  0  0  0  0  0  0  0
  148.4630  154.0380  133.0400 O   0  0  0  0  0  0  0  0  0  0  0  0
  149.3950  156.5960  132.6150 O   0  0  0  0  0  0  0  0  0  0  0  0
  149.2420  157.7840  134.4510 H   0  0  0  0  0  0  0  0  0  0  0  0
  146.3716  161.4720  133.5314 H   0  0  0  0  0  0  0  0  0  0  0  0
  143.6211  162.2558  133.7267 H   0  0  0  0  0  0  0  0  0  0  0  0
  141.2864  161.3327  133.9006 H   0  0  0  0  0  0  0  0  0  0  0  0
  139.8428  159.3809  133.4181 H   0  0  0  0  0  0  0  0  0  0  0  0
  140.5037  157.7064  133.4738 H   0  0  0  0  0  0  0  0  0  0  0  0
  142.8782  157.2751  133.7597 H   0  0  0  0  0  0  0  0  0  0  0  0
  146.0533  155.2562  132.2388 H   0  0  0  0  0  0  0  0  0  0  0  0
  146.7586  156.8732  131.7945 H   0  0  0  0  0  0  0  0  0  0  0  0
  149.4370  157.4260  133.1550 H   0  0  0  0  0  0  0  0  0  0  0  0
  1  2  1  0
  2  3  2  0
  2  4  1  0
  4  5  2  0
  5  6  1  0
  6  7  2  0
  7  8  1  0
  8  9  2  0
  9 10  1  0
 10 11  1  0
 11 12  2  0
 11 13  1  0
  9 14  1  0
 14 15  2  0
 15 16  1  0
 16 17  1  0
 17 18  2  0
 17 19  1  0
 19 20  1  0
 20 21  2  0
 20 22  1  1
 20 23  1  0
 16  4  1  0
 15  6  1  0
  1 24  1  0
  5 25  1  0
  7 26  1  0
  8 27  1  0
 10 28  1  0
 10 29  1  0
 14 30  1  0
 19 31  1  0
 19 32  1  0
 23 33  1  0
M  CHG  3   1  -1  13  -1  22  -1
M  END
>  <UniqueID>  (92) 
92

>  <SMILES>  (92) 
[NH-]C(=O)c1cc2ccc(CC(=O)[O-])cc2n1C(=O)C[P@@](=O)([O-])O

>  <Energy>  (92) 
67.51079181431095

>  <Genealogy>  (92) 
[NH-]C(=O)c1cc2ccc(CC(=O)[O-])cc2n1C(=O)CP(=O)([O-])O (protonated)
[NH-]C(=O)c1cc2ccc(CC(=O)[O-])cc2n1C(=O)C[P@@](=O)([O-])O (chirality)
[NH-]C(=O)c1cc2ccc(CC(=O)[O-])cc2n1C(=O)C[P@@](=O)([O-])O (3D coordinates assigned)
[NH-]C(=O)c1cc2ccc(CC(=O)[O-])cc2n1C(=O)C[P@@](=O)([O-])O (optimized conformer: 67.51079181431095 kcal/mol)

>  <smiles>  (92) 
NC(=O)c1cc2ccc(CC(=O)O)cc2n1C(=O)CP(=O)(O)O

>  <score_type>  (92) 
oracle

>  <origin>  (92) 
adg

>  <m_score__min__energy>  (92) 
-6.8899999999999997

>  <m_primary>  (92) 
energy

$$$$
96:0
     RDKit          3D

 40 42  0  0  0  0  0  0  0  0999 V2000
  142.7300  154.3590  139.4410 N   0  0  0  0  0  0  0  0  0  0  0  0
  141.5300  155.0740  139.1560 C   0  0  0  0  0  0  0  0  0  0  0  0
  140.5730  155.0250  139.9740 O   0  0  0  0  0  0  0  0  0  0  0  0
  141.4370  155.8950  137.9310 C   0  0  0  0  0  0  0  0  0  0  0  0
  140.9220  157.1890  137.9110 C   0  0  0  0  0  0  0  0  0  0  0  0
  140.9280  157.5650  136.5880 C   0  0  0  0  0  0  0  0  0  0  0  0
  140.5260  158.7580  135.9940 C   0  0  0  0  0  0  0  0  0  0  0  0
  140.6660  158.8790  134.6020 C   0  0  0  0  0  0  0  0  0  0  0  0
  141.2150  157.8210  133.8320 C   0  0  0  0  0  0  0  0  0  0  0  0
  141.3330  157.9500  132.4020 N   0  0  0  0  0  0  0  0  0  0  0  0
  140.1010  158.4680  131.8620 C   0  0  0  0  0  0  0  0  0  0  0  0
  140.1150  159.4450  130.8520 C   0  0  0  0  0  0  0  0  0  0  0  0
  138.9150  159.9610  130.3610 C   0  0  0  0  0  0  0  0  0  0  0  0
  137.7060  159.5020  130.8890 C   0  0  0  0  0  0  0  0  0  0  0  0
  136.1860  160.1350  130.2910 Cl  0  0  0  0  0  0  0  0  0  0  0  0
  137.7060  158.5630  131.8720 N   0  0  0  0  0  0  0  0  0  0  0  0
  138.8610  158.0440  132.3670 C   0  0  0  0  0  0  0  0  0  0  0  0
  141.6060  156.6220  134.4730 C   0  0  0  0  0  0  0  0  0  0  0  0
  141.4370  156.5220  135.8590 C   0  0  0  0  0  0  0  0  0  0  0  0
  141.7560  155.4890  136.6690 N   0  0  0  0  0  0  0  0  0  0  0  0
  142.3750  154.2550  136.2740 C   0  0  0  0  0  0  0  0  0  0  0  0
  143.4890  153.9240  136.7670 O   0  0  0  0  0  0  0  0  0  0  0  0
  141.7310  153.4160  135.3570 O   0  0  0  0  0  0  0  0  0  0  0  0
  142.2840  153.0630  134.0910 C   0  0  0  0  0  0  0  0  0  0  0  0
  141.2480  153.2360  132.9860 C   0  0  0  0  0  0  0  0  0  0  0  0
  140.3410  154.2160  133.3460 F   0  0  0  0  0  0  0  0  0  0  0  0
  143.5790  154.4780  138.8440 H   0  0  0  0  0  0  0  0  0  0  0  0
  140.5823  157.7843  138.7713 H   0  0  0  0  0  0  0  0  0  0  0  0
  140.1117  159.5801  136.5961 H   0  0  0  0  0  0  0  0  0  0  0  0
  140.3462  159.8053  134.1023 H   0  0  0  0  0  0  0  0  0  0  0  0
  142.1280  158.5880  132.1600 H   0  0  0  0  0  0  0  0  0  0  0  0
  141.5500  157.0190  131.9740 H   0  0  0  0  0  0  0  0  0  0  0  0
  141.0732  159.8035  130.4479 H   0  0  0  0  0  0  0  0  0  0  0  0
  138.9211  160.7215  129.5662 H   0  0  0  0  0  0  0  0  0  0  0  0
  138.8241  157.2890  133.1662 H   0  0  0  0  0  0  0  0  0  0  0  0
  142.0326  155.7882  133.8961 H   0  0  0  0  0  0  0  0  0  0  0  0
  143.1482  153.7102  133.8809 H   0  0  0  0  0  0  0  0  0  0  0  0
  142.5968  152.0089  134.1221 H   0  0  0  0  0  0  0  0  0  0  0  0
  141.7531  153.5299  132.0541 H   0  0  0  0  0  0  0  0  0  0  0  0
  140.7157  152.2854  132.8340 H   0  0  0  0  0  0  0  0  0  0  0  0
  1  2  1  0
  2  3  2  0
  2  4  1  0
  4  5  2  0
  5  6  1  0
  6  7  2  0
  7  8  1  0
  8  9  2  0
  9 10  1  0
 10 11  1  0
 11 12  2  0
 12 13  1  0
 13 14  2  0
 14 15  1  0
 14 16  1  0
 16 17  2  0
  9 18  1  0
 18 19  2  0
 19 20  1  0
 20 21  1  0
 21 22  2  0
 21 23  1  0
 23 24  1  0
 24 25  1  0
 25 26  1  0
 20  4  1  0
 19  6  1  0
 17 11  1  0
  1 27  1  0
  5 28  1  0
  7 29  1  0
  8 30  1  0
 10 31  1  0
 10 32  1  0
 12 33  1  0
 13 34  1  0
 17 35  1  0
 18 36  1  0
 24 37  1  0
 24 38  1  0
 25 39  1  0
 25 40  1  0
M  CHG  2   1  -1  10   1
M  END
>  <UniqueID>  (93) 
93

>  <SMILES>  (93) 
[NH-]C(=O)c1cc2ccc([NH2+]c3ccc(Cl)nc3)cc2n1C(=O)OCCF

>  <Energy>  (93) 
79.68062382751779

>  <Genealogy>  (93) 
[NH-]C(=O)c1cc2ccc([NH2+]c3ccc(Cl)nc3)cc2n1C(=O)OCCF (protonated)
[NH-]C(=O)c1cc2ccc([NH2+]c3ccc(Cl)nc3)cc2n1C(=O)OCCF (3D coordinates assigned)
[NH-]C(=O)c1cc2ccc([NH2+]c3ccc(Cl)nc3)cc2n1C(=O)OCCF (optimized conformer: 79.68062382751779 kcal/mol)

>  <smiles>  (93) 
NC(=O)c1cc2ccc(Nc3ccc(Cl)nc3)cc2n1C(=O)OCCF

>  <score_type>  (93) 
oracle

>  <origin>  (93) 
adg

>  <m_score__min__energy>  (93) 
-6.5499999999999998

>  <m_primary>  (93) 
energy

$$$$
97:0
     RDKit          3D

 37 38  0  0  0  0  0  0  0  0999 V2000
  144.7110  154.3190  131.6570 C   0  0  0  0  0  0  0  0  0  0  0  0
  145.0550  153.4860  132.9050 C   0  0  0  0  0  0  0  0  0  0  0  0
  143.7480  153.0030  133.5560 C   0  0  0  0  0  0  0  0  0  0  0  0
  145.8280  152.3090  132.4870 N   0  0  0  0  0  0  0  0  0  0  0  0
  145.8300  154.3460  133.8980 C   0  0  0  0  0  0  0  0  0  0  0  0
  145.7130  154.1290  135.1350 O   0  0  0  0  0  0  0  0  0  0  0  0
  146.7180  155.3850  133.4590 N   0  0  0  0  0  0  0  0  0  0  0  0
  147.9980  155.2570  133.0140 C   0  0  0  0  0  0  0  0  0  0  0  0
  148.7780  154.0030  132.9650 C   0  0  0  0  0  0  0  0  0  0  0  0
  148.2030  152.7650  133.3700 N   0  0  0  0  0  0  0  0  0  0  0  0
  149.9800  154.0300  132.5870 O   0  0  0  0  0  0  0  0  0  0  0  0
  148.5020  156.4980  132.6210 C   0  0  0  0  0  0  0  0  0  0  0  0
  147.4880  157.3970  132.8640 C   0  0  0  0  0  0  0  0  0  0  0  0
  147.4400  158.7740  132.6670 C   0  0  0  0  0  0  0  0  0  0  0  0
  146.2580  159.4490  133.0150 C   0  0  0  0  0  0  0  0  0  0  0  0
  145.1580  158.7430  133.5650 C   0  0  0  0  0  0  0  0  0  0  0  0
  143.8870  159.4680  133.9050 C   0  0  0  0  0  0  0  0  0  0  0  0
  144.1660  160.9220  134.1090 C   0  0  0  0  0  0  0  0  0  0  0  0
  145.1210  161.2870  134.8440 O   0  0  0  0  0  0  0  0  0  0  0  0
  143.4030  161.8750  133.4460 O   0  0  0  0  0  0  0  0  0  0  0  0
  145.2420  157.3450  133.7440 C   0  0  0  0  0  0  0  0  0  0  0  0
  146.4260  156.6990  133.3760 C   0  0  0  0  0  0  0  0  0  0  0  0
  144.3081  155.2945  131.9669 H   0  0  0  0  0  0  0  0  0  0  0  0
  145.6197  154.4717  131.0562 H   0  0  0  0  0  0  0  0  0  0  0  0
  143.9594  153.7860  131.0562 H   0  0  0  0  0  0  0  0  0  0  0  0
  143.8482  153.0400  134.6508 H   0  0  0  0  0  0  0  0  0  0  0  0
  142.9192  153.6542  133.2414 H   0  0  0  0  0  0  0  0  0  0  0  0
  143.5418  151.9693  133.2414 H   0  0  0  0  0  0  0  0  0  0  0  0
  146.6190  152.6010  131.8670 H   0  0  0  0  0  0  0  0  0  0  0  0
  146.2390  151.8350  133.3240 H   0  0  0  0  0  0  0  0  0  0  0  0
  147.3410  152.7400  133.9590 H   0  0  0  0  0  0  0  0  0  0  0  0
  149.4977  156.7121  132.2055 H   0  0  0  0  0  0  0  0  0  0  0  0
  148.3014  159.3173  132.2514 H   0  0  0  0  0  0  0  0  0  0  0  0
  146.1851  160.5355  132.8593 H   0  0  0  0  0  0  0  0  0  0  0  0
  143.1675  159.3473  133.0817 H   0  0  0  0  0  0  0  0  0  0  0  0
  143.4685  159.0475  134.8313 H   0  0  0  0  0  0  0  0  0  0  0  0
  144.3971  156.7784  134.1625 H   0  0  0  0  0  0  0  0  0  0  0  0
  1  2  1  0
  2  3  1  0
  2  4  1  0
  2  5  1  0
  5  6  2  0
  5  7  1  0
  7  8  1  0
  8  9  1  0
  9 10  1  0
  9 11  2  0
  8 12  2  0
 12 13  1  0
 13 14  2  0
 14 15  1  0
 15 16  2  0
 16 17  1  0
 17 18  1  0
 18 19  2  0
 18 20  1  0
 16 21  1  0
 21 22  2  0
 22  7  1  0
 22 13  1  0
  1 23  1  0
  1 24  1  0
  1 25  1  0
  3 26  1  0
  3 27  1  0
  3 28  1  0
  4 29  1  0
  4 30  1  0
 10 31  1  0
 12 32  1  0
 14 33  1  0
 15 34  1  0
 17 35  1  0
 17 36  1  0
 21 37  1  0
M  CHG  2  10  -1  20  -1
M  END
>  <UniqueID>  (94) 
94

>  <SMILES>  (94) 
CC(C)(N)C(=O)n1c(C([NH-])=O)cc2ccc(CC(=O)[O-])cc21

>  <Energy>  (94) 
73.52115753556454

>  <Genealogy>  (94) 
CC(C)(N)C(=O)n1c(C([NH-])=O)cc2ccc(CC(=O)[O-])cc21 (protonated)
CC(C)(N)C(=O)n1c(C([NH-])=O)cc2ccc(CC(=O)[O-])cc21 (3D coordinates assigned)
CC(C)(N)C(=O)n1c(C([NH-])=O)cc2ccc(CC(=O)[O-])cc21 (optimized conformer: 73.52115753556454 kcal/mol)

>  <smiles>  (94) 
CC(C)(N)C(=O)n1c(C(N)=O)cc2ccc(CC(=O)O)cc21

>  <score_type>  (94) 
oracle

>  <origin>  (94) 
adg

>  <m_score__min__energy>  (94) 
-6.6100000000000003

>  <m_primary>  (94) 
energy

$$$$
98:0
     RDKit          3D

 39 40  0  0  0  0  0  0  0  0999 V2000
  148.8560  158.9940  134.3440 C   0  0  0  0  0  0  0  0  0  0  0  0
  148.5650  158.8240  132.9170 N   0  0  0  0  0  0  0  0  0  0  0  0
  149.5710  159.1710  131.9050 C   0  0  0  0  0  0  0  0  0  0  0  0
  149.2110  160.4680  131.2510 C   0  0  0  0  0  0  0  0  0  0  0  0
  148.2760  161.1710  131.7160 O   0  0  0  0  0  0  0  0  0  0  0  0
  149.8740  160.8760  130.1020 O   0  0  0  0  0  0  0  0  0  0  0  0
  147.3400  158.1800  132.5160 C   0  0  0  0  0  0  0  0  0  0  0  0
  147.3630  156.9920  132.0950 O   0  0  0  0  0  0  0  0  0  0  0  0
  146.0800  158.8570  132.6220 N   0  0  0  0  0  0  0  0  0  0  0  0
  145.8480  159.9270  131.8230 O   0  0  0  0  0  0  0  0  0  0  0  0
  145.1250  158.5110  133.6380 C   0  0  0  0  0  0  0  0  0  0  0  0
  145.3770  157.5940  134.4670 O   0  0  0  0  0  0  0  0  0  0  0  0
  143.8680  159.1990  133.7140 N   0  0  0  0  0  0  0  0  0  0  0  0
  143.6500  160.5400  133.8090 C   0  0  0  0  0  0  0  0  0  0  0  0
  144.6920  161.5770  133.9740 C   0  0  0  0  0  0  0  0  0  0  0  0
  146.0700  161.2250  134.0590 N   0  0  0  0  0  0  0  0  0  0  0  0
  144.3580  162.7870  134.0700 O   0  0  0  0  0  0  0  0  0  0  0  0
  142.2820  160.8110  133.7970 C   0  0  0  0  0  0  0  0  0  0  0  0
  141.6670  159.5820  133.7030 C   0  0  0  0  0  0  0  0  0  0  0  0
  140.3160  159.2550  133.6510 C   0  0  0  0  0  0  0  0  0  0  0  0
  139.9720  157.8960  133.5440 C   0  0  0  0  0  0  0  0  0  0  0  0
  140.9760  156.8970  133.4900 C   0  0  0  0  0  0  0  0  0  0  0  0
  140.5860  155.4520  133.3700 C   0  0  0  0  0  0  0  0  0  0  0  0
  140.9700  154.7690  134.5090 F   0  0  0  0  0  0  0  0  0  0  0  0
  139.2160  155.3510  133.2170 F   0  0  0  0  0  0  0  0  0  0  0  0
  142.3380  157.2680  133.5460 C   0  0  0  0  0  0  0  0  0  0  0  0
  142.6490  158.6270  133.6590 C   0  0  0  0  0  0  0  0  0  0  0  0
  148.0573  158.5274  134.9392 H   0  0  0  0  0  0  0  0  0  0  0  0
  149.8176  158.5156  134.5817 H   0  0  0  0  0  0  0  0  0  0  0  0
  148.9115  160.0666  134.5817 H   0  0  0  0  0  0  0  0  0  0  0  0
  150.5551  159.2667  132.3871 H   0  0  0  0  0  0  0  0  0  0  0  0
  149.6052  158.3788  131.1426 H   0  0  0  0  0  0  0  0  0  0  0  0
  146.2630  160.6940  132.2960 H   0  0  0  0  0  0  0  0  0  0  0  0
  146.7030  161.3330  133.2360 H   0  0  0  0  0  0  0  0  0  0  0  0
  141.7971  161.7969  133.8511 H   0  0  0  0  0  0  0  0  0  0  0  0
  139.5414  160.0349  133.6923 H   0  0  0  0  0  0  0  0  0  0  0  0
  138.9121  157.6048  133.5017 H   0  0  0  0  0  0  0  0  0  0  0  0
  141.0873  155.0153  132.4937 H   0  0  0  0  0  0  0  0  0  0  0  0
  143.1325  156.5085  133.5019 H   0  0  0  0  0  0  0  0  0  0  0  0
  1  2  1  0
  2  3  1  0
  3  4  1  0
  4  5  2  0
  4  6  1  0
  2  7  1  0
  7  8  2  0
  7  9  1  0
  9 10  1  0
  9 11  1  0
 11 12  2  0
 11 13  1  0
 13 14  1  0
 14 15  1  0
 15 16  1  0
 15 17  2  0
 14 18  2  0
 18 19  1  0
 19 20  2  0
 20 21  1  0
 21 22  2  0
 22 23  1  0
 23 24  1  0
 23 25  1  0
 22 26  1  0
 26 27  2  0
 27 13  1  0
 27 19  1  0
  1 28  1  0
  1 29  1  0
  1 30  1  0
  3 31  1  0
  3 32  1  0
 10 33  1  0
 16 34  1  0
 18 35  1  0
 20 36  1  0
 21 37  1  0
 23 38  1  0
 26 39  1  0
M  CHG  2   6  -1  16  -1
M  END
>  <UniqueID>  (95) 
95

>  <SMILES>  (95) 
CN(CC(=O)[O-])C(=O)N(O)C(=O)n1c(C([NH-])=O)cc2ccc(C(F)F)cc21

>  <Energy>  (95) 
79.99077251936203

>  <Genealogy>  (95) 
CN(CC(=O)[O-])C(=O)N(O)C(=O)n1c(C([NH-])=O)cc2ccc(C(F)F)cc21 (protonated)
CN(CC(=O)[O-])C(=O)N(O)C(=O)n1c(C([NH-])=O)cc2ccc(C(F)F)cc21 (3D coordinates assigned)
CN(CC(=O)[O-])C(=O)N(O)C(=O)n1c(C([NH-])=O)cc2ccc(C(F)F)cc21 (optimized conformer: 79.99077251936203 kcal/mol)

>  <smiles>  (95) 
CN(CC(=O)O)C(=O)N(O)C(=O)n1c(C(N)=O)cc2ccc(C(F)F)cc21

>  <score_type>  (95) 
oracle

>  <origin>  (95) 
adg

>  <m_score__min__energy>  (95) 
-6.3300000000000001

>  <m_primary>  (95) 
energy

$$$$
99:0
     RDKit          3D

 50 52  0  0  0  0  0  0  0  0999 V2000
  139.5170  156.7990  133.6720 C   0  0  0  0  0  0  0  0  0  0  0  0
  139.6720  158.3000  133.9540 C   0  0  2  0  0  0  0  0  0  0  0  0
  140.9250  158.8960  133.2930 C   0  0  0  0  0  0  0  0  0  0  0  0
  142.1020  158.6360  134.1180 N   0  0  0  0  0  0  0  0  0  0  0  0
  143.3870  158.4170  133.5050 C   0  0  0  0  0  0  0  0  0  0  0  0
  143.5960  157.3830  132.8120 O   0  0  0  0  0  0  0  0  0  0  0  0
  144.4070  159.3540  133.6850 O   0  0  0  0  0  0  0  0  0  0  0  0
  145.2030  159.8580  132.6190 C   0  0  0  0  0  0  0  0  0  0  0  0
  146.6330  159.9780  133.0590 C   0  0  0  0  0  0  0  0  0  0  0  0
  146.9860  160.9950  133.7140 O   0  0  0  0  0  0  0  0  0  0  0  0
  147.5990  158.9530  132.7630 N   0  0  0  0  0  0  0  0  0  0  0  0
  148.6940  159.0640  131.9610 C   0  0  0  0  0  0  0  0  0  0  0  0
  149.1640  160.3030  131.3080 C   0  0  0  0  0  0  0  0  0  0  0  0
  148.4800  161.5440  131.4870 N   0  0  0  0  0  0  0  0  0  0  0  0
  150.2170  160.2750  130.6170 O   0  0  0  0  0  0  0  0  0  0  0  0
  149.3540  157.8430  131.8570 C   0  0  0  0  0  0  0  0  0  0  0  0
  148.6290  156.9710  132.6380 C   0  0  0  0  0  0  0  0  0  0  0  0
  148.8350  155.6200  132.8960 C   0  0  0  0  0  0  0  0  0  0  0  0
  147.9130  154.9600  133.7250 C   0  0  0  0  0  0  0  0  0  0  0  0
  146.8080  155.6550  134.2800 C   0  0  0  0  0  0  0  0  0  0  0  0
  145.7990  154.9280  135.1310 C   0  0  0  0  0  0  0  0  0  0  0  0
  144.7170  155.7470  135.4060 F   0  0  0  0  0  0  0  0  0  0  0  0
  145.3560  153.8070  134.4550 F   0  0  0  0  0  0  0  0  0  0  0  0
  146.3630  154.5390  136.3330 F   0  0  0  0  0  0  0  0  0  0  0  0
  146.6140  157.0190  133.9610 C   0  0  0  0  0  0  0  0  0  0  0  0
  147.5680  157.6610  133.1640 C   0  0  0  0  0  0  0  0  0  0  0  0
  141.9910  159.0020  135.5260 C   0  0  0  0  0  0  0  0  0  0  0  0
  140.7120  158.3980  136.1290 C   0  0  2  0  0  0  0  0  0  0  0  0
  140.8880  156.9280  136.5320 C   0  0  0  0  0  0  0  0  0  0  0  0
  139.5450  158.6140  135.3390 O   0  0  0  0  0  0  0  0  0  0  0  0
  139.4604  156.2510  134.6241 H   0  0  0  0  0  0  0  0  0  0  0  0
  138.5964  156.6275  133.0949 H   0  0  0  0  0  0  0  0  0  0  0  0
  140.3832  156.4430  133.0949 H   0  0  0  0  0  0  0  0  0  0  0  0
  138.8226  158.8024  133.4682 H   0  0  0  0  0  0  0  0  0  0  0  0
  141.0666  158.4377  132.3031 H   0  0  0  0  0  0  0  0  0  0  0  0
  140.7931  159.9830  133.1879 H   0  0  0  0  0  0  0  0  0  0  0  0
  145.1419  159.1709  131.7622 H   0  0  0  0  0  0  0  0  0  0  0  0
  144.8301  160.8511  132.3279 H   0  0  0  0  0  0  0  0  0  0  0  0
  148.7980  162.3950  130.9730 H   0  0  0  0  0  0  0  0  0  0  0  0
  147.7280  161.6480  132.2020 H   0  0  0  0  0  0  0  0  0  0  0  0
  150.2610  157.6219  131.2752 H   0  0  0  0  0  0  0  0  0  0  0  0
  149.6935  155.0848  132.4641 H   0  0  0  0  0  0  0  0  0  0  0  0
  148.0495  153.8912  133.9465 H   0  0  0  0  0  0  0  0  0  0  0  0
  145.7326  157.5631  134.3313 H   0  0  0  0  0  0  0  0  0  0  0  0
  142.8663  158.6196  136.0715 H   0  0  0  0  0  0  0  0  0  0  0  0
  141.9468  160.0978  135.6110 H   0  0  0  0  0  0  0  0  0  0  0  0
  140.5381  158.9604  137.0582 H   0  0  0  0  0  0  0  0  0  0  0  0
  140.8977  156.8472  137.6290 H   0  0  0  0  0  0  0  0  0  0  0  0
  140.0545  156.3347  136.1280 H   0  0  0  0  0  0  0  0  0  0  0  0
  141.8380  156.5482  136.1280 H   0  0  0  0  0  0  0  0  0  0  0  0
  1  2  1  0
  2  3  1  0
  3  4  1  0
  4  5  1  0
  5  6  2  0
  5  7  1  0
  7  8  1  0
  8  9  1  0
  9 10  2  0
  9 11  1  0
 11 12  1  0
 12 13  1  0
 13 14  1  0
 13 15  2  0
 12 16  2  0
 16 17  1  0
 17 18  2  0
 18 19  1  0
 19 20  2  0
 20 21  1  0
 21 22  1  0
 21 23  1  0
 21 24  1  0
 20 25  1  0
 25 26  2  0
  4 27  1  0
 27 28  1  0
 28 29  1  0
 28 30  1  0
 30  2  1  0
 26 11  1  0
 26 17  1  0
  1 31  1  0
  1 32  1  0
  1 33  1  0
  2 34  1  6
  3 35  1  0
  3 36  1  0
  8 37  1  0
  8 38  1  0
 14 39  1  0
 14 40  1  0
 16 41  1  0
 18 42  1  0
 19 43  1  0
 25 44  1  0
 27 45  1  0
 27 46  1  0
 28 47  1  1
 29 48  1  0
 29 49  1  0
 29 50  1  0
M  END
>  <UniqueID>  (96) 
96

>  <SMILES>  (96) 
C[C@@H]1CN(C(=O)OCC(=O)n2c(C(N)=O)cc3ccc(C(F)(F)F)cc32)C[C@H](C)O1

>  <Energy>  (96) 
94.33593398208586

>  <Genealogy>  (96) 
C[C@@H]1CN(C(=O)OCC(=O)n2c(C(N)=O)cc3ccc(C(F)(F)F)cc32)C[C@H](C)O1 (3D coordinates assigned)
C[C@@H]1CN(C(=O)OCC(=O)n2c(C(N)=O)cc3ccc(C(F)(F)F)cc32)C[C@H](C)O1 (nonaromatic ring conformer: 94.33593398208586 kcal/mol)

>  <smiles>  (96) 
C[C@@H]1CN(C(=O)OCC(=O)n2c(C(N)=O)cc3ccc(C(F)(F)F)cc32)C[C@H](C)O1

>  <score_type>  (96) 
oracle

>  <origin>  (96) 
adg

>  <m_score__min__energy>  (96) 
-7.6699999999999999

>  <m_primary>  (96) 
energy

$$$$
